drugbank_target|Q9NPA2 Matrix metalloproteinase-25 (DB00786; DB01039; DB13873)
 OpenBabel12092121203D

  0  0  0     0  0            999 V3000
M  V30 BEGIN CTAB
M  V30 COUNTS 8737 8890 0 0 0
M  V30 BEGIN ATOM
M  V30 1 H -0.908 1.98254 -0.117106 0
M  V30 2 N 0 1.576 0 0
M  V30 3 C 0.933 2.03868 1.02534 0
M  V30 4 C 1.911 0.928543 1.3348 0
M  V30 5 O 3.095 1.19667 1.45644 0
M  V30 6 C 0.222 2.43627 2.35294 0
M  V30 7 C -0.732 3.65373 2.2001 0
M  V30 8 S 0.101 5.13292 1.52614 0
M  V30 9 C 1.257 5.56322 2.86805 0
M  V30 10 H 1.49 2.90518 0.631377 0
M  V30 11 H -0.977 1.52953 0.210867 0
M  V30 12 H 0.981 2.67203 3.11629 0
M  V30 13 H -0.358 1.57376 2.7183 0
M  V30 14 H -1.165 3.90944 3.18086 0
M  V30 15 H -1.563 3.418 1.51819 0
M  V30 16 H 0.729 5.58782 3.83104 0
M  V30 17 H 1.672 6.56266 2.65933 0
M  V30 18 H 2.08 4.83886 2.90714 0
M  V30 19 N 1.4781 -0.272755 1.55222 0
M  V30 20 C 2.8941 -0.619959 1.47067 0
M  V30 21 C 3.0941 -1.895 0.684978 0
M  V30 22 O 2.1501 -2.51675 0.203931 0
M  V30 23 C 3.4631 -0.746693 2.91282 0
M  V30 24 C 5.0111 -0.840731 3.01497 0
M  V30 25 C 5.4861 -0.99924 4.46967 0
M  V30 26 N 6.9771 -1.06476 4.50796 0
M  V30 27 C 7.7121 -1.20621 5.6057 0
M  V30 28 N 7.2081 -1.31483 6.80209 0
M  V30 29 N 9.0011 -1.23733 5.48312 0
M  V30 30 H 1.1521 0.564606 2.04758 0
M  V30 31 H 3.4151 0.191177 0.928523 0
M  V30 32 H 3.1211 0.119753 3.51496 0
M  V30 33 H 2.9951 -1.6269 3.40311 0
M  V30 34 H 5.3821 -1.69764 2.41379 0
M  V30 35 H 5.4631 0.0640874 2.5572 0
M  V30 36 H 5.1071 -0.146984 5.07687 0
M  V30 37 H 5.0371 -1.91871 4.90401 0
M  V30 38 H 7.5281 -0.993196 3.64615 0
M  V30 39 H 7.8411 -1.42111 7.59621 0
M  V30 40 H 6.1861 -1.28487 6.8302 0
M  V30 41 H 9.3771 -1.14877 4.53785 0
M  V30 42 H 9.5501 -1.34412 6.33906 0
M  V30 43 N 2.9562 -1.48159 -0.537278 0
M  V30 44 C 3.8862 -1.65029 -1.6519 0
M  V30 45 C 4.8672 -0.499281 -1.62607 0
M  V30 46 O 6.0522 -0.730972 -1.79918 0
M  V30 47 C 3.1822 -1.68303 -3.03795 0
M  V30 48 C 2.1362 -2.8283 -3.21234 0
M  V30 49 C 1.4622 -2.71189 -4.60826 0
M  V30 50 C 2.7622 -4.24211 -3.04701 0
M  V30 51 H 4.4562 -2.58341 -1.51328 0
M  V30 52 H 2.0022 -1.24325 -0.726585 0
M  V30 53 H 3.9552 -1.78693 -3.81637 0
M  V30 54 H 2.6792 -0.715635 -3.18663 0
M  V30 55 H 1.3382 -2.71983 -2.45807 0
M  V30 56 H 0.9862 -1.72435 -4.7252 0
M  V30 57 H 0.6862 -3.48035 -4.7344 0
M  V30 58 H 2.2102 -2.83537 -5.40777 0
M  V30 59 H 3.6242 -4.3593 -3.72341 0
M  V30 60 H 2.0212 -5.01998 -3.28813 0
M  V30 61 H 3.0912 -4.41184 -2.01209 0
M  V30 62 N 4.4343 0.785586 -1.36625 0
M  V30 63 C 5.8503 1.08419 -1.17122 0
M  V30 64 C 6.0503 2.015 0.00208491 0
M  V30 65 O 5.1063 2.43551 0.666278 0
M  V30 66 C 6.4193 1.69498 -2.48377 0
M  V30 67 C 7.9673 1.81821 -2.54775 0
M  V30 68 C 8.4423 2.46315 -3.86126 0
M  V30 69 N 9.9333 2.53779 -3.87492 0
M  V30 70 C 10.6683 3.045 -4.85868 0
M  V30 71 N 10.1643 3.55499 -5.94637 0
M  V30 72 N 11.9573 3.03247 -4.73284 0
M  V30 73 H 4.1083 0.167264 -2.1174 0
M  V30 74 H 6.3713 0.13682 -0.938075 0
M  V30 75 H 6.0773 1.08571 -3.34522 0
M  V30 76 H 5.9513 2.6896 -2.64462 0
M  V30 77 H 8.3383 2.41884 -1.69045 0
M  V30 78 H 8.4193 0.811532 -2.42586 0
M  V30 79 H 8.0633 1.86895 -4.72263 0
M  V30 80 H 7.9933 3.47561 -3.95612 0
M  V30 81 H 10.4843 2.17672 -3.08913 0
M  V30 82 H 10.7973 3.92562 -6.65669 0
M  V30 83 H 9.1423 3.5364 -5.98301 0
M  V30 84 H 12.3333 2.62696 -3.87438 0
M  V30 85 H 12.5063 3.42467 -5.50109 0
M  V30 86 N 5.9124 1.20967 1.01018 0
M  V30 87 C 6.8424 0.988272 2.11555 0
M  V30 88 C 7.8234 -0.0849778 1.69888 0
M  V30 89 O 9.0084 0.0738202 1.9406 0
M  V30 90 C 6.1384 0.546528 3.42973 0
M  V30 91 C 5.0924 1.56375 3.9841 0
M  V30 92 C 4.4184 0.97842 5.25672 0
M  V30 93 C 5.7184 2.94922 4.31066 0
M  V30 94 H 7.4124 1.91276 2.30334 0
M  V30 95 H 4.9584 0.921073 1.1069 0
M  V30 96 H 6.9114 0.378839 4.19694 0
M  V30 97 H 5.6354 -0.413598 3.23971 0
M  V30 98 H 4.2944 1.71891 3.23804 0
M  V30 99 H 3.9424 0.0101688 5.02999 0
M  V30 100 H 3.6424 1.65784 5.63728 0
M  V30 101 H 5.1664 0.821939 6.05043 0
M  V30 102 H 6.5804 2.8288 4.9865 0
M  V30 103 H 4.9774 3.5983 4.80253 0
M  V30 104 H 6.0474 3.4616 3.39561 0
M  V30 105 N 7.3905 -1.2043 1.01659 0
M  V30 106 C 8.8065 -1.41852 0.731442 0
M  V30 107 C 9.0065 -1.89358 -0.688898 0
M  V30 108 O 8.0625 -2.06247 -1.45666 0
M  V30 109 C 9.3755 -2.44019 1.75714 0
M  V30 110 C 10.9235 -2.57785 1.77527 0
M  V30 111 C 11.3985 -3.63194 2.79023 0
M  V30 112 N 12.8895 -3.70678 2.77763 0
M  V30 113 C 13.6245 -4.51897 3.52954 0
M  V30 114 N 13.1205 -5.36921 4.37821 0
M  V30 115 N 14.9135 -4.4643 3.41551 0
M  V30 116 H 7.0645 -0.879093 1.93354 0
M  V30 117 H 9.3275 -0.448425 0.835236 0
M  V30 118 H 9.0335 -2.1611 2.77469 0
M  V30 119 H 8.9075 -3.43007 1.56927 0
M  V30 120 H 11.2945 -2.85023 0.764569 0
M  V30 121 H 11.3755 -1.58992 2.00387 0
M  V30 122 H 11.0195 -3.36699 3.80258 0
M  V30 123 H 10.9495 -4.61609 2.53425 0
M  V30 124 H 13.4405 -3.09944 2.16201 0
M  V30 125 H 13.7535 -5.95981 4.91962 0
M  V30 126 H 12.0985 -5.36424 4.41899 0
M  V30 127 H 15.2895 -3.79042 2.74672 0
M  V30 128 H 15.4625 -5.09491 4.00404 0
M  V30 129 N 8.8686 -0.792821 -1.36206 0
M  V30 130 C 9.7986 -0.207853 -2.32573 0
M  V30 131 C 10.7796 0.659055 -1.56813 0
M  V30 132 O 11.9646 0.592176 -1.84951 0
M  V30 133 C 9.0946 0.655449 -3.41059 0
M  V30 134 C 8.0486 -0.111842 -4.27854 0
M  V30 135 C 7.3746 0.872274 -5.27537 0
M  V30 136 C 8.6746 -1.30299 -5.05786 0
M  V30 137 H 10.3686 -1.01294 -2.81744 0
M  V30 138 H 7.9146 -0.48854 -1.3546 0
M  V30 139 H 9.8676 1.07464 -4.07467 0
M  V30 140 H 8.5916 1.49328 -2.90463 0
M  V30 141 H 7.2506 -0.512053 -3.63006 0
M  V30 142 H 6.8986 1.70523 -4.73214 0
M  V30 143 H 6.5986 0.363291 -5.86476 0
M  V30 144 H 8.1226 1.28996 -5.96818 0
M  V30 145 H 9.5366 -0.959379 -5.65216 0
M  V30 146 H 7.9336 -1.7455 -5.74154 0
M  V30 147 H 9.0036 -2.09663 -4.37229 0
M  V30 148 N 10.3467 1.47872 -0.545128 0
M  V30 149 C 11.2767 2.32661 0.197793 0
M  V30 150 C 12.2577 1.43041 0.920504 0
M  V30 151 O 13.4427 1.71912 0.90333 0
M  V30 152 C 10.5727 3.24569 1.23582 0
M  V30 153 C 9.5267 4.23333 0.630323 0
M  V30 154 C 8.8527 5.0448 1.77211 0
M  V30 155 C 10.1527 5.20704 -0.407974 0
M  V30 156 H 11.8467 2.95024 -0.510045 0
M  V30 157 H 9.3927 1.4187 -0.246731 0
M  V30 158 H 11.3457 3.8272 1.76362 0
M  V30 159 H 10.0697 2.60236 1.97344 0
M  V30 160 H 8.7287 3.6639 0.123922 0
M  V30 161 H 8.3767 4.36561 2.49847 0
M  V30 162 H 8.0767 5.71339 1.37281 0
M  V30 163 H 9.6007 5.65487 2.3034 0
M  V30 164 H 11.0147 5.7329 0.033305 0
M  V30 165 H 9.4117 5.95699 -0.725486 0
M  V30 166 H 10.4817 4.66917 -1.30828 0
M  V30 167 N 11.8248 0.280983 1.55075 0
M  V30 168 C 12.7878 -0.590896 2.21452 0
M  V30 169 C 13.7878 -1.07682 1.19421 0
M  V30 170 O 14.9778 -0.97605 1.44288 0
M  V30 171 C 12.1098 -1.81587 2.88511 0
M  V30 172 H 13.3028 -0.0112554 2.99898 0
M  V30 173 H 10.8558 0.0316438 1.56268 0
M  V30 174 H 11.5908 -2.43587 2.14093 0
M  V30 175 H 11.3758 -1.4753 3.63287 0
M  V30 176 H 12.8658 -2.43575 3.39206 0
M  V30 177 N 13.3029 -1.57598 0.00835791 0
M  V30 178 C 14.2329 -2.1198 -0.979113 0
M  V30 179 C 15.2139 -1.03091 -1.35301 0
M  V30 180 O 16.3989 -1.30818 -1.43528 0
M  V30 181 C 13.5289 -2.62995 -2.26828 0
M  V30 182 C 12.4829 -3.76485 -2.03576 0
M  V30 183 C 11.8089 -4.13846 -3.38579 0
M  V30 184 C 13.1089 -5.0342 -1.39161 0
M  V30 185 H 14.8029 -2.94738 -0.526281 0
M  V30 186 H 12.3489 -1.41783 -0.251704 0
M  V30 187 H 14.3019 -2.99669 -2.96271 0
M  V30 188 H 13.0259 -1.7737 -2.7424 0
M  V30 189 H 11.6849 -3.40217 -1.36557 0
M  V30 190 H 11.3329 -3.25232 -3.83709 0
M  V30 191 H 11.0329 -4.90312 -3.23834 0
M  V30 192 H 12.5569 -4.53086 -4.09323 0
M  V30 193 H 13.9709 -5.37812 -1.98573 0
M  V30 194 H 12.3679 -5.84746 -1.34878 0
M  V30 195 H 13.4379 -4.83548 -0.361868 0
M  V30 196 N 14.781 0.264519 -1.55364 0
M  V30 197 C 15.711 1.33121 -1.91836 0
M  V30 198 C 16.692 1.51101 -0.781192 0
M  V30 199 O 17.877 1.64003 -1.04003 0
M  V30 200 C 15.007 2.68921 -2.19769 0
M  V30 201 C 13.961 2.65661 -3.35571 0
M  V30 202 C 13.287 4.05093 -3.49004 0
M  V30 203 C 14.587 2.24187 -4.71739 0
M  V30 204 H 16.281 1.02844 -2.81182 0
M  V30 205 H 13.827 0.493286 -1.35287 0
M  V30 206 H 15.78 3.43663 -2.43872 0
M  V30 207 H 14.504 3.00799 -1.27231 0
M  V30 208 H 13.163 1.93377 -3.1145 0
M  V30 209 H 12.811 4.34206 -2.53917 0
M  V30 210 H 12.511 4.03804 -4.26868 0
M  V30 211 H 14.035 4.81561 -3.75408 0
M  V30 212 H 15.449 2.88654 -4.9533 0
M  V30 213 H 13.846 2.34044 -5.52579 0
M  V30 214 H 14.916 1.19327 -4.69988 0
M  V30 215 N 16.2591 1.48442 0.529413 0
M  V30 216 C 17.1891 1.65902 1.64313 0
M  V30 217 C 18.1701 0.507897 1.6234 0
M  V30 218 O 19.3551 0.740503 1.79528 0
M  V30 219 C 16.4851 1.69911 3.02898 0
M  V30 220 C 15.4391 2.8453 3.19729 0
M  V30 221 C 14.7651 2.73629 4.59381 0
M  V30 222 C 16.0651 4.25821 3.02447 0
M  V30 223 H 17.7591 2.5914 1.49955 0
M  V30 224 H 15.3051 1.24709 0.719982 0
M  V30 225 H 17.2581 1.80715 3.80684 0
M  V30 226 H 15.9821 0.732524 3.18279 0
M  V30 227 H 14.6411 2.73283 2.44361 0
M  V30 228 H 14.2891 1.74938 4.71599 0
M  V30 229 H 13.9891 3.50541 4.71588 0
M  V30 230 H 15.5131 2.86401 5.39265 0
M  V30 231 H 16.9271 4.37898 3.70024 0
M  V30 232 H 15.3241 5.03735 3.26146 0
M  V30 233 H 16.3941 4.42244 1.98867 0
M  V30 234 N 17.7372 -0.778329 1.37039 0
M  V30 235 C 18.6672 -1.90546 1.34962 0
M  V30 236 C 19.6482 -1.68681 0.219274 0
M  V30 237 O 20.8332 -1.89634 0.418624 0
M  V30 238 C 17.9632 -3.27734 1.14925 0
M  V30 239 C 16.9172 -3.64147 2.24902 0
M  V30 240 C 16.2432 -4.99806 1.89996 0
M  V30 241 C 17.5432 -3.71579 3.67051 0
M  V30 242 H 19.2372 -1.92541 2.29277 0
M  V30 243 H 16.7832 -0.924948 1.10366 0
M  V30 244 H 18.7362 -4.06215 1.12104 0
M  V30 245 H 17.4602 -3.26154 0.170631 0
M  V30 246 H 16.1192 -2.8797 2.26868 0
M  V30 247 H 15.7672 -4.94759 0.906796 0
M  V30 248 H 15.4672 -5.25139 2.63634 0
M  V30 249 H 16.9912 -5.80694 1.88749 0
M  V30 250 H 18.4052 -4.40227 3.67251 0
M  V30 251 H 16.8022 -4.08405 4.39688 0
M  V30 252 H 17.8722 -2.72404 4.01154 0
M  V30 253 N 19.2153 -1.21501 -1.00376 0
M  V30 254 C 20.1453 -0.999478 -2.11028 0
M  V30 255 C 21.1263 0.0759671 -1.6993 0
M  V30 256 O 22.3113 -0.0841106 -1.94018 0
M  V30 257 C 19.4413 -0.564709 -3.42678 0
M  V30 258 C 18.3953 -1.58486 -3.97576 0
M  V30 259 C 17.7213 -1.00628 -5.25146 0
M  V30 260 C 19.0213 -2.97204 -4.29496 0
M  V30 261 H 20.7153 -1.92495 -2.29317 0
M  V30 262 H 18.2613 -0.92693 -1.102 0
M  V30 263 H 20.2143 -0.401091 -4.19487 0
M  V30 264 H 18.9383 0.396411 -3.24185 0
M  V30 265 H 17.5973 -1.73606 -3.22888 0
M  V30 266 H 17.2453 -0.0368439 -5.02987 0
M  V30 267 H 16.9453 -1.68771 -5.62841 0
M  V30 268 H 18.4693 -0.854015 -6.04598 0
M  V30 269 H 19.8833 -2.8552 -4.97143 0
M  V30 270 H 18.2803 -3.62372 -4.78338 0
M  V30 271 H 19.3503 -3.47956 -3.3772 0
M  V30 272 N 20.6934 1.19889 -1.02296 0
M  V30 273 C 21.6234 2.25141 -0.619174 0
M  V30 274 C 22.6044 1.66051 0.368915 0
M  V30 275 O 23.7894 1.92546 0.252941 0
M  V30 276 C 20.9194 3.4728 0.0368783 0
M  V30 277 C 19.8734 4.19005 -0.872865 0
M  V30 278 C 19.1994 5.34637 -0.0822402 0
M  V30 279 C 20.4994 4.74452 -2.18387 0
M  V30 280 H 22.1934 2.59171 -1.49903 0
M  V30 281 H 19.7394 1.24579 -0.722222 0
M  V30 282 H 21.6924 4.20098 0.330958 0
M  V30 283 H 20.4164 3.12433 0.95149 0
M  V30 284 H 19.0754 3.48061 -1.15105 0
M  V30 285 H 18.7234 4.96034 0.83422 0
M  V30 286 H 18.4234 5.83557 -0.688149 0
M  V30 287 H 19.9474 6.10255 0.205238 0
M  V30 288 H 21.3614 5.39055 -1.95172 0
M  V30 289 H 19.7584 5.33834 -2.74119 0
M  V30 290 H 20.8284 3.92844 -2.84257 0
M  V30 291 N 22.1715 0.800033 1.35784 0
M  V30 292 C 23.1345 0.211565 2.28221 0
M  V30 293 C 24.1345 -0.59728 1.49296 0
M  V30 294 O 25.3245 -0.416721 1.69142 0
M  V30 295 C 22.4565 -0.705846 3.33513 0
M  V30 296 H 23.6495 1.02677 2.81776 0
M  V30 297 H 21.2025 0.570211 1.45528 0
M  V30 298 H 21.9375 -1.54498 2.85133 0
M  V30 299 H 21.7225 -0.127655 3.91892 0
M  V30 300 H 23.2125 -1.11211 4.02519 0
M  V30 301 N 23.6496 -1.47581 0.552962 0
M  V30 302 C 25.0606 -1.86324 0.118463 0
M  V30 303 C 25.4116 -1.46006 -1.3106 0
M  V30 304 O 24.5366 -0.861182 -1.98526 0
M  V30 305 C 25.1316 -3.3816 0.20821 0
M  V30 306 C 23.6906 -3.7601 -0.171226 0
M  V30 307 C 22.8376 -2.71634 0.557686 0
M  V30 308 H 25.7886 -1.39159 0.762928 0
M  V30 309 H 25.8096 -3.76141 -0.574278 0
M  V30 310 H 25.3216 -3.67473 1.24841 0
M  V30 311 H 23.4226 -3.52313 -1.21269 0
M  V30 312 H 23.5356 -4.78745 0.184379 0
M  V30 313 H 21.8996 -2.547 0.00125792 0
M  V30 314 H 22.6826 -3.0379 1.59896 0
M  V30 315 N 25.1277 -0.289203 -1.54924 0
M  V30 316 C 26.5387 0.205791 -1.85562 0
M  V30 317 C 26.8897 1.54351 -1.2112 0
M  V30 318 O 26.0147 2.10435 -0.504601 0
M  V30 319 C 26.6097 0.380177 -3.3666 0
M  V30 320 C 25.1687 0.819395 -3.67373 0
M  V30 321 C 24.3157 -0.079159 -2.77187 0
M  V30 322 H 27.2667 -0.510577 -1.50262 0
M  V30 323 H 27.2877 1.21659 -3.60526 0
M  V30 324 H 26.7997 -0.593589 -3.83534 0
M  V30 325 H 24.9007 1.80413 -3.26009 0
M  V30 326 H 25.0137 0.646957 -4.74712 0
M  V30 327 H 23.3777 0.439565 -2.50878 0
M  V30 328 H 24.1607 -1.04906 -3.26878 0
M  V30 329 N 26.6058 1.57591 -0.0167156 0
M  V30 330 C 27.5688 2.08393 0.954204 0
M  V30 331 C 28.5688 0.996531 1.26198 0
M  V30 332 O 29.7588 1.25858 1.20438 0
M  V30 333 C 26.8908 2.5394 2.27436 0
M  V30 334 H 28.0838 2.95455 0.514451 0
M  V30 335 H 25.6368 1.54582 0.231089 0
M  V30 336 H 26.3718 1.70171 2.76066 0
M  V30 337 H 26.1568 3.33371 2.06412 0
M  V30 338 H 27.6468 2.93512 2.97053 0
M  V30 339 N 28.0839 -0.256276 1.55502 0
M  V30 340 C 29.4999 -0.604325 1.47716 0
M  V30 341 C 29.6999 -1.88763 0.705039 0
M  V30 342 O 28.7559 -2.51445 0.230613 0
M  V30 343 C 30.0689 -0.715756 2.92057 0
M  V30 344 C 31.6169 -0.808706 3.02372 0
M  V30 345 C 32.0919 -0.951777 4.48001 0
M  V30 346 N 33.5829 -1.01688 4.519 0
M  V30 347 C 34.3179 -1.14668 5.61817 0
M  V30 348 N 33.8139 -1.24261 6.81565 0
M  V30 349 N 35.6069 -1.1791 5.49594 0
M  V30 350 H 27.7579 0.586291 2.04148 0
M  V30 351 H 30.0209 0.201015 0.926443 0
M  V30 352 H 29.7269 0.157027 3.51349 0
M  V30 353 H 29.6009 -1.59071 3.42018 0
M  V30 354 H 31.9879 -1.67195 2.43166 0
M  V30 355 H 32.0689 0.0912063 2.55637 0
M  V30 356 H 31.7129 -0.0931291 5.07815 0
M  V30 357 H 31.6429 -1.86659 4.92408 0
M  V30 358 H 34.1339 -0.954468 3.65648 0
M  V30 359 H 34.4469 -1.34046 7.61086 0
M  V30 360 H 32.7919 -1.21236 6.84344 0
M  V30 361 H 35.9829 -1.10057 4.54978 0
M  V30 362 H 36.1559 -1.27681 6.35296 0
M  V30 363 N 29.562 -1.4872 -0.521534 0
M  V30 364 C 30.525 -1.63379 -1.60748 0
M  V30 365 C 31.525 -0.50661 -1.52611 0
M  V30 366 O 32.715 -0.772601 -1.5613 0
M  V30 367 C 29.847 -1.61192 -3.00383 0
M  V30 368 H 31.04 -2.60217 -1.49087 0
M  V30 369 H 28.593 -1.37444 -0.744235 0
M  V30 370 H 29.328 -0.65863 -3.17541 0
M  V30 371 H 29.113 -2.43032 -3.07698 0
M  V30 372 H 30.603 -1.7466 -3.7932 0
M  V30 373 N 31.0401 0.771051 -1.3745 0
M  V30 374 C 32.4511 1.34737 -1.29239 0
M  V30 375 C 32.8021 1.96109 0.0596908 0
M  V30 376 O 31.9271 1.93865 0.961534 0
M  V30 377 C 32.5221 2.44973 -2.34037 0
M  V30 378 C 31.0811 2.98372 -2.29458 0
M  V30 379 C 30.2281 1.71595 -2.17831 0
M  V30 380 H 33.1791 0.571256 -1.48062 0
M  V30 381 H 33.2001 3.24471 -1.98744 0
M  V30 382 H 32.7121 2.00276 -3.32432 0
M  V30 383 H 30.8131 3.47443 -1.34589 0
M  V30 384 H 30.9261 3.53939 -3.229 0
M  V30 385 H 29.2901 1.94547 -1.64388 0
M  V30 386 H 30.0731 1.29001 -3.18141 0
M  V30 387 N 32.5182 1.22032 0.997298 0
M  V30 388 C 33.4652 0.986467 2.08656 0
M  V30 389 C 34.4352 -0.0902671 1.65855 0
M  V30 390 O 35.6202 0.0584294 1.90711 0
M  V30 391 C 32.7602 0.565569 3.40434 0
M  V30 392 C 31.8732 1.71259 3.96604 0
M  V30 393 C 31.0082 1.24011 5.16522 0
M  V30 394 C 30.0472 2.35896 5.64818 0
M  V30 395 N 29.1842 1.89726 6.7598 0
M  V30 396 H 34.0242 1.91892 2.27994 0
M  V30 397 H 31.5612 0.956199 1.11782 0
M  V30 398 H 33.5192 0.302738 4.161 0
M  V30 399 H 32.1492 -0.329879 3.2111 0
M  V30 400 H 31.2012 2.08986 3.17851 0
M  V30 401 H 32.5132 2.55436 4.28432 0
M  V30 402 H 31.6672 0.934395 5.99461 0
M  V30 403 H 30.4062 0.368487 4.86306 0
M  V30 404 H 29.4112 2.67261 4.8047 0
M  V30 405 H 30.6362 3.23567 5.97061 0
M  V30 406 H 28.5822 1.0492 6.47555 0
M  V30 407 H 28.4992 2.67471 7.07103 0
M  V30 408 H 29.7672 1.62211 7.62435 0
M  V30 409 N 33.9963 -1.19345 1.0293 0
M  V30 410 C 35.4073 -1.70725 0.755633 0
M  V30 411 C 35.7583 -1.82326 -0.724676 0
M  V30 412 O 34.8833 -1.49471 -1.56484 0
M  V30 413 C 35.4783 -3.10084 1.36503 0
M  V30 414 C 34.0373 -3.58723 1.13994 0
M  V30 415 C 33.1843 -2.35577 1.46283 0
M  V30 416 H 36.1353 -1.0418 1.19718 0
M  V30 417 H 36.1563 -3.72787 0.762217 0
M  V30 418 H 35.6683 -3.01609 2.44241 0
M  V30 419 H 33.7693 -3.72512 0.0807901 0
M  V30 420 H 33.8823 -4.42816 1.82894 0
M  V30 421 H 32.2463 -2.38935 0.88217 0
M  V30 422 H 33.0293 -2.29731 2.55105 0
M  V30 423 N 35.4744 -0.807222 -1.35358 0
M  V30 424 C 36.6994 -0.399309 -2.0352 0
M  V30 425 C 37.1244 0.981986 -1.60433 0
M  V30 426 O 36.4824 1.63601 -0.781299 0
M  V30 427 C 36.5304 -0.491552 -3.57234 0
M  V30 428 O 35.6344 0.494754 -4.09421 0
M  V30 429 H 34.9754 -0.166682 -0.642739 0
M  V30 430 H 37.5054 -1.09328 -1.72941 0
M  V30 431 H 37.5154 -0.361588 -4.06395 0
M  V30 432 H 36.1904 -1.49907 -3.87944 0
M  V30 433 H 34.7674 0.324977 -3.71481 0
M  V30 434 N 36.9525 1.47285 -0.560781 0
M  V30 435 C 37.9155 2.28535 0.174488 0
M  V30 436 C 38.9155 1.37153 0.839388 0
M  V30 437 O 40.1055 1.59748 0.694702 0
M  V30 438 C 37.2375 3.16934 1.25561 0
M  V30 439 H 38.4305 2.95012 -0.539262 0
M  V30 440 H 35.9835 1.53034 -0.317865 0
M  V30 441 H 36.7185 2.55157 2.00164 0
M  V30 442 H 36.5035 3.8419 0.783604 0
M  V30 443 H 37.9935 3.78143 1.77193 0
M  V30 444 N 38.4306 0.297415 1.54768 0
M  V30 445 C 39.3626 -0.613881 2.20826 0
M  V30 446 C 40.3756 -1.10032 1.19987 0
M  V30 447 O 41.5646 -1.01839 1.46598 0
M  V30 448 C 38.6646 -1.852 2.83821 0
M  V30 449 C 37.8376 -1.50865 4.10559 0
M  V30 450 C 36.8966 -2.60154 4.57391 0
M  V30 451 O 35.9226 -2.25398 5.2267 0
M  V30 452 N 37.1246 -3.90629 4.29406 0
M  V30 453 H 39.8896 -0.048389 2.99661 0
M  V30 454 H 37.4506 0.11946 1.61459 0
M  V30 455 H 39.4426 -2.57652 3.12086 0
M  V30 456 H 38.0126 -2.32597 2.08847 0
M  V30 457 H 37.2326 -0.616925 3.89343 0
M  V30 458 H 38.5206 -1.25458 4.9309 0
M  V30 459 H 37.9186 -4.21677 3.77101 0
M  V30 460 H 36.4756 -4.59391 4.62388 0
M  V30 461 N 39.9087 -1.5758 0.0250728 0
M  V30 462 C 41.1857 -1.82917 -0.692873 0
M  V30 463 C 41.5657 -0.908137 -1.90568 0
M  V30 464 O 40.9137 0.0372298 -2.2847 0
M  V30 465 C 41.1237 -3.32034 -1.07492 0
M  V30 466 C 42.4717 -3.98406 -1.46826 0
M  V30 467 O 43.4957 -3.36505 -1.16801 0
M  V30 468 O 42.3547 -5.07497 -2.02754 0
M  V30 469 H 39.4487 -0.754079 -0.33955 0
M  V30 470 H 41.9947 -1.69619 0.0524456 0
M  V30 471 H 40.7667 -3.90728 -0.211552 0
M  V30 472 H 40.3897 -3.50424 -1.87854 0
M  V30 473 N 41.3868 0.248026 -1.55636 0
M  V30 474 C 42.6328 0.97767 -1.77678 0
M  V30 475 C 42.9658 1.85016 -0.590135 0
M  V30 476 O 42.2408 1.90095 0.411611 0
M  V30 477 C 42.5238 1.83914 -3.09593 0
M  V30 478 C 42.3768 0.99491 -4.38659 0
M  V30 479 C 43.6958 2.82183 -3.37729 0
M  V30 480 H 40.8148 0.354005 -0.646413 0
M  V30 481 H 43.4568 0.248253 -1.88371 0
M  V30 482 H 41.6068 2.46104 -3.00608 0
M  V30 483 H 43.2788 0.391789 -4.59633 0
M  V30 484 H 41.5218 0.299231 -4.32767 0
M  V30 485 H 42.1928 1.63145 -5.2734 0
M  V30 486 H 44.6688 2.30129 -3.4667 0
M  V30 487 H 43.5448 3.39582 -4.31249 0
M  V30 488 H 43.8058 3.58588 -2.58586 0
M  V30 489 N 42.8649 1.48995 0.513639 0
M  V30 490 C 44.0899 1.61792 1.29762 0
M  V30 491 C 44.5149 0.284475 1.85936 0
M  V30 492 O 43.8729 -0.746185 1.65232 0
M  V30 493 C 43.9209 2.67993 2.41272 0
M  V30 494 O 43.0249 2.26287 3.44772 0
M  V30 495 H 42.3659 0.541963 0.38363 0
M  V30 496 H 44.8959 1.95097 0.616307 0
M  V30 497 H 44.9059 2.89772 2.87221 0
M  V30 498 H 43.5809 3.64791 1.9975 0
M  V30 499 H 42.1579 2.14788 3.04829 0
M  V30 500 N 44.343 -0.763751 1.37857 0
M  V30 501 C 45.273 -1.89103 1.36975 0
M  V30 502 C 46.254 -1.68439 0.237152 0
M  V30 503 O 47.439 -1.8918 0.438713 0
M  V30 504 C 44.569 -3.26496 1.18395 0
M  V30 505 C 43.523 -3.61741 2.28751 0
M  V30 506 C 42.849 -4.97762 1.95286 0
M  V30 507 C 44.149 -3.67665 3.70972 0
M  V30 508 H 45.843 -1.90099 2.31307 0
M  V30 509 H 43.389 -0.91319 1.11341 0
M  V30 510 H 45.342 -4.05003 1.16406 0
M  V30 511 H 44.066 -3.25955 0.205215 0
M  V30 512 H 42.725 -2.85547 2.29909 0
M  V30 513 H 42.373 -4.93769 0.959221 0
M  V30 514 H 42.073 -5.22313 2.69189 0
M  V30 515 H 43.597 -5.7866 1.94898 0
M  V30 516 H 45.011 -4.36307 3.719 0
M  V30 517 H 43.408 -4.03718 4.43995 0
M  V30 518 H 44.478 -2.68134 4.0402 0
M  V30 519 N 45.8211 -1.22559 -0.990812 0
M  V30 520 C 47.0691 -1.04933 -1.72724 0
M  V30 521 C 47.3901 0.416158 -1.90508 0
M  V30 522 O 46.6601 1.29918 -1.46622 0
M  V30 523 H 45.2401 -0.385296 -0.639965 0
M  V30 524 H 47.9021 -1.54105 -1.19322 0
M  V30 525 H 46.9981 -1.52886 -2.72089 0
M  V30 526 N 47.2992 1.18797 -1.03562 0
M  V30 527 C 48.5452 1.8893 -0.737113 0
M  V30 528 C 48.8782 1.79837 0.732956 0
M  V30 529 O 48.1532 1.19525 1.5344 0
M  V30 530 C 48.4362 3.39607 -1.19745 0
M  V30 531 C 48.2892 3.57537 -2.72924 0
M  V30 532 C 49.6082 4.33069 -0.783526 0
M  V30 533 H 46.7272 0.686057 -0.269249 0
M  V30 534 H 49.3692 1.39797 -1.28673 0
M  V30 535 H 47.5192 3.81583 -0.729855 0
M  V30 536 H 49.1912 3.24688 -3.27682 0
M  V30 537 H 47.4342 3.00363 -3.12993 0
M  V30 538 H 48.1052 4.63238 -3.00191 0
M  V30 539 H 50.5812 3.98846 -1.18581 0
M  V30 540 H 49.4572 5.3707 -1.13343 0
M  V30 541 H 49.7182 4.40986 0.313681 0
M  V30 542 N 48.7773 0.814389 1.34928 0
M  V30 543 C 50.0543 0.321363 1.92942 0
M  V30 544 C 50.4343 -1.19014 1.74353 0
M  V30 545 O 49.7823 -1.99328 1.11716 0
M  V30 546 C 49.9923 0.741323 3.41036 0
M  V30 547 C 51.3403 0.735266 4.18185 0
M  V30 548 O 52.3643 0.68336 3.49584 0
M  V30 549 O 51.2233 0.800703 5.40602 0
M  V30 550 H 48.3173 0.0858893 0.822528 0
M  V30 551 H 50.8633 0.898609 1.43955 0
M  V30 552 H 49.6353 1.78276 3.4833 0
M  V30 553 H 49.2583 0.139307 3.97356 0
M  V30 554 N 50.2554 -1.46986 0.568584 0
M  V30 555 C 51.5014 -2.0332 0.0571487 0
M  V30 556 C 51.8564 -1.43384 -1.28291 0
M  V30 557 O 51.1494 -0.584304 -1.82473 0
M  V30 558 C 51.3434 -3.57306 -0.081836 0
M  V30 559 C 51.1724 -4.32174 1.24321 0
M  V30 560 C 49.9424 -4.71633 1.81358 0
M  V30 561 C 52.1404 -4.66598 2.16312 0
M  V30 562 N 50.1224 -5.31191 3.07748 0
M  V30 563 C 51.4934 -5.26578 3.27285 0
M  V30 564 C 53.5484 -4.48527 2.16166 0
M  V30 565 C 52.2514 -5.70395 4.38226 0
M  V30 566 C 54.2774 -4.93351 3.26127 0
M  V30 567 C 53.6394 -5.5339 4.3582 0
M  V30 568 H 49.7384 -0.77943 0.063351 0
M  V30 569 H 52.3224 -1.79323 0.758378 0
M  V30 570 H 50.4934 -3.81046 -0.752207 0
M  V30 571 H 52.2254 -4.00282 -0.59637 0
M  V30 572 H 48.9804 -4.53946 1.35019 0
M  V30 573 H 49.4044 -5.65505 3.72201 0
M  V30 574 H 54.0464 -4.01456 1.32638 0
M  V30 575 H 51.7644 -6.16452 5.22506 0
M  V30 576 H 55.3504 -4.81131 3.27115 0
M  V30 577 H 54.2304 -5.87441 5.19503 0
M  V30 578 N 51.7335 -0.305618 -1.54608 0
M  V30 579 C 52.6635 0.561482 -2.26649 0
M  V30 580 C 53.6445 1.13415 -1.26772 0
M  V30 581 O 54.8295 1.16262 -1.55553 0
M  V30 582 C 51.9595 1.73122 -3.01075 0
M  V30 583 C 50.9135 1.2887 -4.08138 0
M  V30 584 C 50.2395 2.54396 -4.70305 0
M  V30 585 C 51.5395 0.416578 -5.20636 0
M  V30 586 H 53.2335 -0.0393902 -2.99374 0
M  V30 587 H 50.7795 -0.020385 -1.43986 0
M  V30 588 H 52.7325 2.34396 -3.50195 0
M  V30 589 H 51.4565 2.3584 -2.25936 0
M  V30 590 H 50.1155 0.698991 -3.59875 0
M  V30 591 H 49.7635 3.15439 -3.918 0
M  V30 592 H 49.4635 2.25486 -5.42614 0
M  V30 593 H 50.9875 3.16464 -5.2219 0
M  V30 594 H 52.4015 0.935116 -5.65622 0
M  V30 595 H 50.7985 0.221046 -5.99693 0
M  V30 596 H 51.8685 -0.557162 -4.81688 0
M  V30 597 N 53.2116 1.57565 -0.0334293 0
M  V30 598 C 54.4396 1.9628 0.654347 0
M  V30 599 C 54.8546 0.910138 1.65414 0
M  V30 600 O 54.2116 -0.107595 1.82183 0
M  V30 601 C 54.2626 3.35067 1.35693 0
M  V30 602 O 53.9836 4.36296 0.397191 0
M  V30 603 C 55.4846 3.88439 2.13613 0
M  V30 604 H 52.7046 0.646369 0.180132 0
M  V30 605 H 55.2486 2.04282 -0.0944721 0
M  V30 606 H 53.4036 3.2827 2.05712 0
M  V30 607 H 53.8176 5.1678 0.896597 0
M  V30 608 H 55.2916 4.8788 2.58219 0
M  V30 609 H 55.7686 3.22914 2.97696 0
M  V30 610 H 56.3746 3.98516 1.48543 0
M  V30 611 N 54.6897 -0.239769 1.55765 0
M  V30 612 C 56.1057 -0.588624 1.48349 0
M  V30 613 C 56.3057 -1.88005 0.72502 0
M  V30 614 O 55.3617 -2.51186 0.257269 0
M  V30 615 C 56.6747 -0.68474 2.928 0
M  V30 616 C 58.2227 -0.77659 3.03213 0
M  V30 617 C 58.6977 -0.904207 4.48986 0
M  V30 618 N 60.1887 -0.968896 4.52953 0
M  V30 619 C 60.9237 -1.08703 5.63002 0
M  V30 620 N 60.4197 -1.17026 6.82845 0
M  V30 621 N 62.2127 -1.12074 5.50814 0
M  V30 622 H 54.3637 0.607911 2.03515 0
M  V30 623 H 56.6267 0.21083 0.924259 0
M  V30 624 H 56.3327 0.194284 3.51163 0
M  V30 625 H 56.2067 -1.55435 3.43686 0
M  V30 626 H 58.5937 -1.64606 2.44926 0
M  V30 627 H 58.6747 0.118315 2.55526 0
M  V30 628 H 58.3187 -0.0392633 5.07885 0
M  V30 629 H 58.2487 -1.81426 4.9436 0
M  V30 630 H 60.7397 -0.915633 3.6664 0
M  V30 631 H 61.0527 -1.25966 7.62465 0
M  V30 632 H 59.3977 -1.13971 6.85591 0
M  V30 633 H 62.5887 -1.05226 4.5612 0
M  V30 634 H 62.7617 -1.20936 6.36615 0
M  V30 635 N 56.1678 -1.49265 -0.50573 0
M  V30 636 C 57.3978 -1.61979 -1.28243 0
M  V30 637 C 57.8058 -0.288576 -1.86986 0
M  V30 638 O 57.1488 0.735408 -1.68337 0
M  V30 639 C 57.2108 -2.62632 -2.45489 0
M  V30 640 C 56.8748 -4.071 -2.07651 0
M  V30 641 C 57.8718 -4.94049 -1.61901 0
M  V30 642 C 55.5568 -4.52801 -2.17431 0
M  V30 643 C 57.5508 -6.24736 -1.26428 0
M  V30 644 C 55.2378 -5.83503 -1.8157 0
M  V30 645 C 56.2358 -6.69294 -1.36142 0
M  V30 646 O 55.9238 -7.9756 -1.00764 0
M  V30 647 H 55.6558 -0.54834 -0.395347 0
M  V30 648 H 58.2098 -1.96002 -0.614204 0
M  V30 649 H 56.4398 -2.2378 -3.15372 0
M  V30 650 H 58.1288 -2.64925 -3.07522 0
M  V30 651 H 58.8948 -4.5997 -1.53795 0
M  V30 652 H 54.7738 -3.86196 -2.51742 0
M  V30 653 H 58.3178 -6.91652 -0.908992 0
M  V30 654 H 54.2148 -6.17112 -1.89324 0
M  V30 655 H 54.9828 -8.10529 -1.13952 0
M  V30 656 N 57.6459 0.756429 -1.3826 0
M  V30 657 C 58.8939 1.51248 -1.34047 0
M  V30 658 C 59.2149 1.94875 0.0698372 0
M  V30 659 O 58.4849 1.67436 1.01696 0
M  V30 660 H 57.0649 0.561018 -0.493222 0
M  V30 661 H 59.7269 0.899347 -1.7291 0
M  V30 662 H 58.8229 2.40472 -1.98947 0
M  V30 663 N 59.124 1.23083 0.984299 0
M  V30 664 C 60.354 1.08556 1.75781 0
M  V30 665 C 60.762 -0.366171 1.85623 0
M  V30 666 O 60.105 -1.26524 1.33182 0
M  V30 667 C 60.167 1.63208 3.20318 0
M  V30 668 C 59.831 3.11922 3.33997 0
M  V30 669 C 60.828 4.09259 3.2063 0
M  V30 670 C 58.513 3.51552 3.58771 0
M  V30 671 C 60.507 5.4421 3.31835 0
M  V30 672 C 58.194 4.86649 3.69616 0
M  V30 673 C 59.192 5.82787 3.56157 0
M  V30 674 O 58.88 7.15431 3.66626 0
M  V30 675 H 58.612 0.380713 0.5586 0
M  V30 676 H 61.166 1.63321 1.2456 0
M  V30 677 H 59.396 1.0286 3.72769 0
M  V30 678 H 61.085 1.44216 3.79416 0
M  V30 679 H 61.851 3.79984 3.01392 0
M  V30 680 H 57.73 2.77239 3.6832 0
M  V30 681 H 61.274 6.1923 3.21247 0
M  V30 682 H 57.171 5.15601 3.88363 0
M  V30 683 H 57.939 7.23127 3.83445 0
M  V30 684 N 60.6021 -1.18246 1.0419 0
M  V30 685 C 61.5321 -2.24127 0.654914 0
M  V30 686 C 62.5131 -1.66617 -0.342451 0
M  V30 687 O 63.6981 -1.92924 -0.222277 0
M  V30 688 C 60.8281 -3.47295 0.0183757 0
M  V30 689 C 59.7821 -4.17563 0.939414 0
M  V30 690 C 59.1081 -5.34438 0.167286 0
M  V30 691 C 60.4081 -4.70917 2.25908 0
M  V30 692 H 62.1021 -2.56753 1.54007 0
M  V30 693 H 59.6481 -1.23414 0.74195 0
M  V30 694 H 61.6011 -4.20572 -0.264082 0
M  V30 695 H 60.3251 -3.13907 -0.901664 0
M  V30 696 H 58.9841 -3.46186 1.20628 0
M  V30 697 H 58.6321 -4.97298 -0.7552 0
M  V30 698 H 58.3321 -5.82388 0.780901 0
M  V30 699 H 59.8561 -6.10504 -0.108125 0
M  V30 700 H 61.2701 -5.35882 2.03724 0
M  V30 701 H 59.6671 -5.29406 2.82577 0
M  V30 702 H 60.7371 -3.88272 2.9047 0
M  V30 703 N 62.0802 -0.821533 -1.34494 0
M  V30 704 C 63.4912 -0.467956 -1.8074 0
M  V30 705 C 63.8422 1.01151 -1.68116 0
M  V30 706 O 62.9672 1.78707 -1.22036 0
M  V30 707 C 63.5622 -0.842627 -3.28154 0
M  V30 708 C 62.1212 -0.541439 -3.72485 0
M  V30 709 C 61.2682 -1.06028 -2.56229 0
M  V30 710 H 64.2192 -1.01183 -1.22261 0
M  V30 711 H 64.2402 -0.145876 -3.8022 0
M  V30 712 H 63.7522 -1.91945 -3.37311 0
M  V30 713 H 61.8532 0.526034 -3.68868 0
M  V30 714 H 61.9662 -1.08453 -4.66663 0
M  V30 715 H 60.3302 -0.481892 -2.501 0
M  V30 716 H 61.1132 -2.14352 -2.68157 0
M  V30 717 N 63.5583 1.46682 -0.576371 0
M  V30 718 C 64.9693 1.86112 -0.148091 0
M  V30 719 C 65.3203 1.48073 1.2872 0
M  V30 720 O 64.4453 0.892656 1.97131 0
M  V30 721 C 65.0403 3.37786 -0.261982 0
M  V30 722 C 63.5993 3.76235 0.111384 0
M  V30 723 C 62.7463 2.70713 -0.60083 0
M  V30 724 H 65.6973 1.37927 -0.78497 0
M  V30 725 H 65.7183 3.77007 0.514364 0
M  V30 726 H 65.2303 3.6544 -1.30671 0
M  V30 727 H 63.3313 3.54198 1.15649 0
M  V30 728 H 63.4443 4.78391 -0.26052 0
M  V30 729 H 61.8083 2.54666 -0.0417783 0
M  V30 730 H 62.5913 3.01208 -1.64708 0
M  V30 731 N 65.0364 0.313813 1.54444 0
M  V30 732 C 66.4474 -0.176243 1.85866 0
M  V30 733 C 66.7984 -1.52405 1.23561 0
M  V30 734 O 65.9234 -2.09605 0.538016 0
M  V30 735 C 66.5184 -0.32657 3.37222 0
M  V30 736 C 65.0774 -0.760846 3.6863 0
M  V30 737 C 64.2244 0.123247 2.77026 0
M  V30 738 H 67.1754 0.534418 1.49431 0
M  V30 739 H 67.1964 -1.15908 3.62416 0
M  V30 740 H 66.7084 0.654531 3.82541 0
M  V30 741 H 64.8094 -1.75204 3.28838 0
M  V30 742 H 64.9224 -0.571353 4.75681 0
M  V30 743 H 63.2864 -0.399597 2.51546 0
M  V30 744 H 64.0694 1.10094 3.25168 0
M  V30 745 N 66.5145 -1.57545 0.0417849 0
M  V30 746 C 67.4645 -2.07483 -0.945247 0
M  V30 747 C 68.4485 -0.977983 -1.27767 0
M  V30 748 O 69.6405 -1.24142 -1.26166 0
M  V30 749 C 66.7695 -2.61576 -2.22335 0
M  V30 750 C 65.8555 -3.78213 -1.91874 0
M  V30 751 N 66.2465 -4.88344 -1.31733 0
M  V30 752 C 64.5445 -3.8694 -2.21796 0
M  V30 753 C 65.2455 -5.69462 -1.1869 0
M  V30 754 N 64.2215 -5.16771 -1.68666 0
M  V30 755 H 68.0235 -2.90029 -0.475441 0
M  V30 756 H 65.5375 -1.61581 -0.162911 0
M  V30 757 H 67.5345 -2.95651 -2.93932 0
M  V30 758 H 66.1945 -1.80465 -2.69931 0
M  V30 759 H 67.2055 -5.08335 -0.990729 0
M  V30 760 H 63.8825 -3.16757 -2.71977 0
M  V30 761 H 65.2725 -6.68023 -0.720793 0
M  V30 762 N 67.9926 0.231505 -1.5589 0
M  V30 763 C 69.4036 0.799327 -1.68724 0
M  V30 764 C 69.7546 1.85398 -0.642022 0
M  V30 765 O 68.8796 2.1539 0.208784 0
M  V30 766 C 69.4746 1.45664 -3.05888 0
M  V30 767 C 68.0336 1.97197 -3.20609 0
M  V30 768 C 67.1806 0.828552 -2.64632 0
M  V30 769 H 70.1316 0.00702616 -1.58698 0
M  V30 770 H 70.1526 2.32517 -3.01191 0
M  V30 771 H 69.6646 0.688808 -3.81939 0
M  V30 772 H 67.7656 2.76813 -2.4941 0
M  V30 773 H 67.8786 2.15878 -4.27707 0
M  V30 774 H 66.2426 1.23321 -2.22854 0
M  V30 775 H 67.0256 0.0735544 -3.43221 0
M  V30 776 N 69.4707 1.49531 0.497807 0
M  V30 777 C 70.4337 1.65916 1.58128 0
M  V30 778 C 71.4337 0.530825 1.51786 0
M  V30 779 O 72.6237 0.797342 1.54881 0
M  V30 780 C 69.7557 1.65951 2.9778 0
M  V30 781 H 70.9487 2.62556 1.44929 0
M  V30 782 H 68.5017 1.38611 0.722275 0
M  V30 783 H 69.2367 0.709065 3.16453 0
M  V30 784 H 69.0217 2.47897 3.03792 0
M  V30 785 H 70.5117 1.80673 3.76493 0
M  V30 786 N 70.9488 -0.749086 1.3866 0
M  V30 787 C 71.8808 -1.87273 1.32142 0
M  V30 788 C 72.8938 -1.61127 0.232787 0
M  V30 789 O 74.0828 -1.71623 0.49069 0
M  V30 790 C 71.1828 -3.23005 1.02571 0
M  V30 791 C 70.3558 -3.7662 2.22433 0
M  V30 792 C 69.4148 -4.90879 1.89537 0
M  V30 793 O 68.4408 -5.05276 2.62078 0
M  V30 794 N 69.6428 -5.74198 0.853031 0
M  V30 795 H 72.4078 -1.93373 2.28969 0
M  V30 796 H 69.9688 -0.929216 1.32579 0
M  V30 797 H 71.9608 -3.96992 0.786085 0
M  V30 798 H 70.5308 -3.12262 0.145249 0
M  V30 799 H 69.7508 -2.94147 2.62434 0
M  V30 800 H 71.0388 -4.09173 3.02415 0
M  V30 801 H 70.4368 -5.6514 0.25155 0
M  V30 802 H 68.9938 -6.48313 0.67329 0
M  V30 803 N 72.4269 -1.23603 -0.977757 0
M  V30 804 C 73.3899 -1.02069 -2.05218 0
M  V30 805 C 74.3899 0.0184305 -1.60789 0
M  V30 806 O 75.5799 -0.221569 -1.72785 0
M  V30 807 C 72.7119 -0.544926 -3.36517 0
M  V30 808 H 73.9049 -1.9742 -2.25755 0
M  V30 809 H 71.4579 -1.05684 -1.15155 0
M  V30 810 H 72.1929 0.412241 -3.21669 0
M  V30 811 H 71.9779 -1.2948 -3.70105 0
M  V30 812 H 73.4679 -0.414985 -4.15533 0
M  V30 813 N 73.905 1.17692 -1.04816 0
M  V30 814 C 74.837 2.21103 -0.603822 0
M  V30 815 C 75.85 1.59411 0.33046 0
M  V30 816 O 77.039 1.7807 0.12379 0
M  V30 817 C 74.139 3.38623 0.136898 0
M  V30 818 C 73.312 4.29888 -0.807137 0
M  V30 819 C 72.371 5.26088 -0.10836 0
M  V30 820 O 71.397 5.64353 -0.741232 0
M  V30 821 N 72.599 5.68882 1.15558 0
M  V30 822 H 75.364 2.59848 -1.49329 0
M  V30 823 H 72.925 1.32553 -0.929587 0
M  V30 824 H 74.917 4.00009 0.614401 0
M  V30 825 H 73.487 2.98508 0.927993 0
M  V30 826 H 72.707 3.65993 -1.46434 0
M  V30 827 H 73.995 4.87759 -1.44807 0
M  V30 828 H 73.393 5.39861 1.69015 0
M  V30 829 H 71.95 6.32429 1.57722 0
M  V30 830 N 75.3831 0.828654 1.34056 0
M  V30 831 C 76.3131 0.269443 2.3194 0
M  V30 832 C 77.2941 -0.617247 1.58506 0
M  V30 833 O 78.4791 -0.542931 1.86456 0
M  V30 834 C 75.6091 -0.564793 3.42677 0
M  V30 835 C 74.5631 0.225241 4.27407 0
M  V30 836 C 73.8891 -0.7321 5.29664 0
M  V30 837 C 75.1891 1.43663 5.02154 0
M  V30 838 H 76.8831 1.08728 2.7896 0
M  V30 839 H 74.4291 0.524283 1.34117 0
M  V30 840 H 76.3821 -0.966233 4.10173 0
M  V30 841 H 75.1061 -1.41574 2.9432 0
M  V30 842 H 73.7651 0.608117 3.61521 0
M  V30 843 H 73.4131 -1.57916 4.77568 0
M  V30 844 H 73.1131 -0.20767 5.87233 0
M  V30 845 H 74.6371 -1.13128 6.00029 0
M  V30 846 H 76.0511 1.1089 5.62473 0
M  V30 847 H 74.4481 1.89711 5.69324 0
M  V30 848 H 75.5181 2.21181 4.31517 0
M  V30 849 N 76.8612 -1.46375 0.584142 0
M  V30 850 C 77.7932 -2.28443 -0.186119 0
M  V30 851 C 78.8062 -1.38596 -0.854115 0
M  V30 852 O 79.9952 -1.63183 -0.723438 0
M  V30 853 C 77.0952 -3.13671 -1.28311 0
M  V30 854 C 76.2682 -4.31652 -0.706758 0
M  V30 855 C 75.3272 -4.98267 -1.69163 0
M  V30 856 O 74.3532 -5.55815 -1.22712 0
M  V30 857 N 75.5552 -4.95408 -3.02575 0
M  V30 858 H 78.3202 -2.9519 0.517986 0
M  V30 859 H 75.8812 -1.56303 0.42201 0
M  V30 860 H 77.8732 -3.55101 -1.94128 0
M  V30 861 H 76.4432 -2.48989 -1.89005 0
M  V30 862 H 75.6632 -3.93989 0.128908 0
M  V30 863 H 76.9512 -5.07906 -0.301506 0
M  V30 864 H 76.3492 -4.49902 -3.42936 0
M  V30 865 H 74.9062 -5.40774 -3.63877 0
M  V30 866 N 78.3393 -0.321999 -1.54275 0
M  V30 867 C 79.5643 0.285791 -2.05422 0
M  V30 868 C 79.9893 1.45124 -1.19669 0
M  V30 869 O 79.3473 1.80132 -0.205441 0
M  V30 870 C 79.3953 0.69956 -3.53749 0
M  V30 871 O 78.4993 1.8021 -3.70942 0
M  V30 872 H 77.8403 0.0518962 -0.661969 0
M  V30 873 H 80.3703 -0.469954 -1.9913 0
M  V30 874 H 80.3803 0.982649 -3.9599 0
M  V30 875 H 79.0553 -0.152864 -4.15619 0
M  V30 876 H 77.6323 1.51794 -3.40607 0
M  V30 877 N 79.8174 1.5752 -0.0501392 0
M  V30 878 C 81.2284 1.80271 0.485705 0
M  V30 879 C 81.5794 0.96228 1.70981 0
M  V30 880 O 80.7044 0.178578 2.15662 0
M  V30 881 C 81.2994 3.26957 0.887938 0
M  V30 882 C 79.8584 3.5063 1.36877 0
M  V30 883 C 79.0054 2.75165 0.343468 0
M  V30 884 H 81.9564 1.56281 -0.276028 0
M  V30 885 H 81.9774 3.37821 1.75093 0
M  V30 886 H 81.4894 3.881 -0.0031809 0
M  V30 887 H 79.5904 2.94766 2.27911 0
M  V30 888 H 79.7034 4.59343 1.36164 0
M  V30 889 H 78.0674 2.4127 0.816128 0
M  V30 890 H 78.8504 3.39034 -0.539548 0
M  V30 891 N 81.2955 -0.223234 1.56011 0
M  V30 892 C 82.2055 -1.29766 1.95443 0
M  V30 893 C 83.2215 -1.51373 0.858028 0
M  V30 894 O 84.3975 -1.64536 1.16146 0
M  V30 895 C 81.4625 -2.62772 2.26167 0
M  V30 896 C 80.5235 -2.49482 3.49367 0
M  V30 897 C 79.7565 -3.76145 3.78616 0
M  V30 898 O 79.9795 -4.79087 3.09568 0
M  V30 899 O 78.9135 -3.73358 4.72109 0
M  V30 900 H 82.7395 -0.99309 2.87004 0
M  V30 901 H 80.3245 -0.425958 1.43199 0
M  V30 902 H 82.2065 -3.41327 2.47131 0
M  V30 903 H 80.8815 -2.92913 1.37781 0
M  V30 904 H 79.7885 -1.69133 3.33684 0
M  V30 905 H 81.1215 -2.2428 4.38131 0
M  V30 906 N 82.7736 -1.49793 -0.48987 0
M  V30 907 C 83.7206 -1.67281 -1.59014 0
M  V30 908 C 84.6906 -0.514177 -1.57941 0
M  V30 909 O 85.8756 -0.742533 -1.75759 0
M  V30 910 C 83.0156 -1.75569 -2.97102 0
M  V30 911 C 82.1286 -3.0281 -3.08107 0
M  V30 912 C 81.2636 -3.02008 -4.36995 0
M  V30 913 C 80.3026 -4.23782 -4.41673 0
M  V30 914 N 79.4396 -4.20826 -5.62005 0
M  V30 915 H 84.2796 -2.61224 -1.43409 0
M  V30 916 H 81.8166 -1.29508 -0.697565 0
M  V30 917 H 83.7746 -1.78354 -3.77155 0
M  V30 918 H 82.4046 -0.850827 -3.11385 0
M  V30 919 H 81.4566 -3.09584 -2.21047 0
M  V30 920 H 82.7686 -3.92801 -3.07423 0
M  V30 921 H 81.9226 -3.03418 -5.25378 0
M  V30 922 H 80.6616 -2.09815 -4.4026 0
M  V30 923 H 79.6666 -4.22604 -3.5169 0
M  V30 924 H 80.8916 -5.17181 -4.40115 0
M  V30 925 H 78.8376 -3.31476 -5.66091 0
M  V30 926 H 78.7546 -5.04564 -5.62984 0
M  V30 927 H 80.0226 -4.26355 -6.52565 0
M  V30 928 N 84.2517 0.741722 -1.39055 0
M  V30 929 C 85.1817 1.869 -1.39966 0
M  V30 930 C 86.1627 1.6804 -0.26392 0
M  V30 931 O 87.3477 1.88458 -0.468755 0
M  V30 932 C 84.4777 3.24572 -1.23574 0
M  V30 933 C 83.4317 3.58056 -2.34477 0
M  V30 934 C 82.7577 4.94593 -2.0318 0
M  V30 935 C 84.0577 3.61716 -3.76774 0
M  V30 936 H 85.7517 1.86395 -2.34302 0
M  V30 937 H 83.2977 0.895361 -1.1278 0
M  V30 938 H 85.2507 4.031 -1.22834 0
M  V30 939 H 83.9747 3.25587 -0.257045 0
M  V30 940 H 82.6337 2.81854 -2.34423 0
M  V30 941 H 82.2817 4.92181 -1.03765 0
M  V30 942 H 81.9817 5.17964 -2.77465 0
M  V30 943 H 83.5057 5.75486 -2.04079 0
M  V30 944 H 84.9197 4.30335 -3.78794 0
M  V30 945 H 83.3167 3.96603 -4.50362 0
M  V30 946 H 84.3867 2.61672 -4.08235 0
M  V30 947 N 85.7298 1.2412 0.971189 0
M  V30 948 C 87.1458 1.00584 1.23916 0
M  V30 949 C 87.3458 -0.287481 1.99439 0
M  V30 950 O 86.4018 -1.00454 2.31658 0
M  V30 951 C 87.7148 2.21864 2.0297 0
M  V30 952 C 89.2628 2.26452 2.16076 0
M  V30 953 C 89.7378 3.47343 2.98524 0
M  V30 954 N 91.2288 3.47639 3.06107 0
M  V30 955 C 91.9638 4.37837 3.70251 0
M  V30 956 N 91.4598 5.38286 4.36142 0
M  V30 957 N 93.2528 4.25558 3.67228 0
M  V30 958 H 85.4038 2.07236 0.465499 0
M  V30 959 H 87.6668 0.909236 0.268315 0
M  V30 960 H 87.3728 3.15771 1.54861 0
M  V30 961 H 87.2468 2.23698 3.03709 0
M  V30 962 H 89.6338 1.33078 2.6339 0
M  V30 963 H 89.7148 2.28645 1.14696 0
M  V30 964 H 89.3588 4.41029 2.51905 0
M  V30 965 H 89.2888 3.42393 4.00093 0
M  V30 966 H 91.7798 2.74966 2.59233 0
M  V30 967 H 92.0928 6.03352 4.82894 0
M  V30 968 H 90.4378 5.42176 4.34822 0
M  V30 969 H 93.6288 3.46322 3.14927 0
M  V30 970 H 93.8018 4.96054 4.16935 0
M  V30 971 N 87.2079 -1.17134 1.05439 0
M  V30 972 C 88.4849 -1.83411 0.679699 0
M  V30 973 C 88.8649 -1.9368 -0.839726 0
M  V30 974 O 88.2129 -1.47325 -1.74664 0
M  V30 975 C 88.4229 -3.20918 1.37159 0
M  V30 976 C 89.7709 -3.96796 1.51123 0
M  V30 977 O 90.7949 -3.30406 1.3308 0
M  V30 978 O 89.6539 -5.15778 1.80651 0
M  V30 979 H 86.7479 -0.79154 0.239569 0
M  V30 980 H 89.2939 -1.24411 1.15413 0
M  V30 981 H 88.0659 -3.08428 2.40807 0
M  V30 982 H 87.6889 -3.87587 0.886674 0
M  V30 983 N 88.686 -0.835752 -1.33615 0
M  V30 984 C 89.649 -0.272 -2.2758 0
M  V30 985 C 90.649 0.557487 -1.50827 0
M  V30 986 O 91.839 0.37173 -1.70188 0
M  V30 987 C 88.971 0.617173 -3.35267 0
M  V30 988 H 90.164 -1.10111 -2.78954 0
M  V30 989 H 87.717 -0.608594 -1.43965 0
M  V30 990 H 88.452 1.46884 -2.89129 0
M  V30 991 H 88.237 0.0237066 -3.92093 0
M  V30 992 H 89.727 1.005 -4.05326 0
M  V30 993 N 90.1641 1.46063 -0.591896 0
M  V30 994 C 91.4131 2.01547 -0.0786637 0
M  V30 995 C 91.7261 1.46796 1.29268 0
M  V30 996 O 92.9321 1.94157 1.89777 0
M  V30 997 C 91.3881 3.59787 -0.0900024 0
M  V30 998 C 90.9961 4.23534 -1.46023 0
M  V30 999 C 92.7401 4.22895 0.368806 0
M  V30 1000 C 90.6471 5.73881 -1.4288 0
M  V30 1001 H 89.5771 0.753564 -0.0256388 0
M  V30 1002 H 92.2281 1.677 -0.744905 0
M  V30 1003 H 90.6101 3.90752 0.642586 0
M  V30 1004 H 91.7841 4.04167 -2.21328 0
M  V30 1005 H 90.0991 3.72558 -1.85982 0
M  V30 1006 H 92.6961 5.33116 0.411258 0
M  V30 1007 H 93.0391 3.9247 1.38827 0
M  V30 1008 H 93.5721 3.9659 -0.31001 0
M  V30 1009 H 90.3111 6.0898 -2.42536 0
M  V30 1010 H 89.8311 5.95486 -0.718095 0
M  V30 1011 H 91.5101 6.36776 -1.14565 0
M  V30 1012 N 91.6422 0.330177 1.54103 0
M  V30 1013 C 92.5892 -0.532762 2.24567 0
M  V30 1014 C 93.5592 -1.10635 1.23892 0
M  V30 1015 O 94.7442 -1.14546 1.5259 0
M  V30 1016 C 91.8842 -1.6845 3.01195 0
M  V30 1017 C 90.9972 -1.13951 4.167 0
M  V30 1018 C 90.1322 -2.25746 4.80845 0
M  V30 1019 C 89.1712 -1.6853 5.88442 0
M  V30 1020 N 88.3082 -2.74014 6.46421 0
M  V30 1021 H 93.1482 0.0746905 2.97906 0
M  V30 1022 H 90.6852 0.048632 1.4702 0
M  V30 1023 H 92.6432 -2.36234 3.43874 0
M  V30 1024 H 91.2732 -2.26314 2.30178 0
M  V30 1025 H 90.3252 -0.35301 3.78758 0
M  V30 1026 H 91.6372 -0.680892 4.94131 0
M  V30 1027 H 90.7912 -3.01422 5.26526 0
M  V30 1028 H 89.5302 -2.74947 4.0281 0
M  V30 1029 H 88.5352 -0.913543 5.42157 0
M  V30 1030 H 89.7602 -1.20198 6.68378 0
M  V30 1031 H 87.7062 -3.22494 5.71256 0
M  V30 1032 H 87.6232 -2.32735 7.19285 0
M  V30 1033 H 88.8912 -3.49499 6.96757 0
M  V30 1034 N 93.1203 -1.57491 0.0584922 0
M  V30 1035 C 94.3663 -1.93264 -0.614558 0
M  V30 1036 C 94.6993 -0.937717 -1.7006 0
M  V30 1037 O 93.9743 0.0351652 -1.94468 0
M  V30 1038 C 94.2573 -3.3938 -1.20386 0
M  V30 1039 C 94.1103 -4.49625 -0.125375 0
M  V30 1040 C 95.4293 -3.86039 -2.11334 0
M  V30 1041 H 92.5483 -0.702791 -0.221933 0
M  V30 1042 H 95.1903 -1.8961 0.12175 0
M  V30 1043 H 93.3403 -3.42626 -1.83139 0
M  V30 1044 H 95.0123 -4.58506 0.506971 0
M  V30 1045 H 93.2553 -4.30354 0.545672 0
M  V30 1046 H 93.9263 -5.48967 -0.577861 0
M  V30 1047 H 96.4023 -3.84716 -1.58534 0
M  V30 1048 H 95.2783 -4.88914 -2.49507 0
M  V30 1049 H 95.5393 -3.23215 -3.01636 0
M  V30 1050 N 94.5984 0.214957 -1.56127 0
M  V30 1051 C 95.5314 1.29382 -1.87977 0
M  V30 1052 C 96.5094 1.44897 -0.737807 0
M  V30 1053 O 97.6934 1.60605 -0.986833 0
M  V30 1054 C 94.8204 2.66325 -2.09258 0
M  V30 1055 C 93.8664 2.67789 -3.31951 0
M  V30 1056 S 94.6994 2.21198 -4.8768 0
M  V30 1057 C 95.8554 3.60003 -5.12004 0
M  V30 1058 H 96.0884 1.02173 -2.79192 0
M  V30 1059 H 93.6214 0.417516 -1.48648 0
M  V30 1060 H 95.5794 3.45162 -2.22201 0
M  V30 1061 H 94.2404 2.90755 -1.18829 0
M  V30 1062 H 93.4334 3.68436 -3.43906 0
M  V30 1063 H 93.0354 1.9702 -3.17898 0
M  V30 1064 H 95.3274 4.55739 -5.01307 0
M  V30 1065 H 96.2704 3.52959 -6.13861 0
M  V30 1066 H 96.6784 3.53996 -4.39712 0
M  V30 1067 N 96.0765 1.50051 0.48192 0
M  V30 1068 C 97.0085 1.64263 1.59844 0
M  V30 1069 C 98.0215 0.52451 1.54119 0
M  V30 1070 O 99.2105 0.797293 1.59704 0
M  V30 1071 C 96.3105 1.60102 2.98698 0
M  V30 1072 C 95.4835 2.87767 3.29407 0
M  V30 1073 C 94.5425 2.76397 4.47762 0
M  V30 1074 O 93.5685 3.50348 4.48603 0
M  V30 1075 N 94.7705 1.89222 5.48794 0
M  V30 1076 H 97.5355 2.60566 1.48073 0
M  V30 1077 H 95.0965 1.47379 0.670149 0
M  V30 1078 H 97.0885 1.50123 3.75826 0
M  V30 1079 H 95.6585 0.715798 3.04294 0
M  V30 1080 H 94.8785 3.11954 2.40994 0
M  V30 1081 H 96.1665 3.72365 3.4673 0
M  V30 1082 H 95.5645 1.28434 5.50928 0
M  V30 1083 H 94.1215 1.85154 6.24949 0
M  V30 1084 N 97.5546 -0.734337 1.39446 0
M  V30 1085 C 98.9706 -1.03997 1.21065 0
M  V30 1086 C 99.1706 -2.01369 0.0727019 0
M  V30 1087 O 98.2266 -2.45856 -0.575426 0
M  V30 1088 C 99.5396 -1.60163 2.54496 0
M  V30 1089 C 101.088 -1.7224 2.61347 0
M  V30 1090 C 101.563 -2.31814 3.95002 0
M  V30 1091 N 103.054 -2.39223 3.96644 0
M  V30 1092 C 103.789 -2.86258 4.96834 0
M  V30 1093 N 103.285 -3.33184 6.07421 0
M  V30 1094 N 105.078 -2.85473 4.84213 0
M  V30 1095 H 97.2286 -0.0885624 2.12215 0
M  V30 1096 H 99.4916 -0.10191 0.942506 0
M  V30 1097 H 99.1976 -0.960811 3.38321 0
M  V30 1098 H 99.0716 -2.5896 2.74262 0
M  V30 1099 H 101.459 -2.35443 1.77906 0
M  V30 1100 H 101.54 -0.720939 2.4543 0
M  V30 1101 H 101.184 -1.69238 4.78875 0
M  V30 1102 H 101.114 -3.32638 4.08239 0
M  V30 1103 H 103.605 -2.06057 3.16779 0
M  V30 1104 H 103.918 -3.67586 6.7978 0
M  V30 1105 H 102.263 -3.31191 6.11013 0
M  V30 1106 H 105.454 -2.48136 3.96921 0
M  V30 1107 H 105.627 -3.21814 5.62441 0
M  V30 1108 N 99.0327 -1.24633 -0.964593 0
M  V30 1109 C 100.28 -1.08788 -1.70796 0
M  V30 1110 C 100.608 0.372783 -1.90894 0
M  V30 1111 O 99.8627 1.29167 -1.47018 0
M  V30 1112 C 100.162 -1.7763 -3.10133 0
M  V30 1113 C 99.8277 -3.27557 -3.09866 0
M  V30 1114 C 98.4897 -3.6846 -3.09501 0
M  V30 1115 C 100.842 -4.23389 -3.03959 0
M  V30 1116 C 98.1697 -5.03624 -3.00965 0
M  V30 1117 C 100.522 -5.58565 -2.96965 0
M  V30 1118 C 99.1857 -5.98809 -2.9493 0
M  V30 1119 H 98.4557 -0.398084 -0.624988 0
M  V30 1120 H 101.103 -1.54777 -1.12767 0
M  V30 1121 H 99.4077 -1.24044 -3.71645 0
M  V30 1122 H 101.105 -1.62832 -3.66451 0
M  V30 1123 H 97.6947 -2.95006 -3.10917 0
M  V30 1124 H 101.879 -3.92787 -3.03368 0
M  V30 1125 H 97.1347 -5.33998 -2.97752 0
M  V30 1126 H 101.309 -6.32523 -2.91354 0
M  V30 1127 H 98.9357 -7.03505 -2.88071 0
M  V30 1128 N 100.511 1.16574 -1.06058 0
M  V30 1129 C 101.474 2.19085 -0.673392 0
M  V30 1130 C 102.474 1.5835 0.279648 0
M  V30 1131 O 103.664 1.74088 0.0623488 0
M  V30 1132 C 100.796 3.40899 0.00954234 0
M  V30 1133 H 101.989 2.54853 -1.58081 0
M  V30 1134 H 99.5418 1.30808 -0.855516 0
M  V30 1135 H 100.277 3.10684 0.929826 0
M  V30 1136 H 100.062 3.86233 -0.67573 0
M  V30 1137 H 101.552 4.1675 0.266245 0
M  V30 1138 N 101.989 0.842826 1.3317 0
M  V30 1139 C 103.237 0.439577 1.97262 0
M  V30 1140 C 103.558 -1.00548 1.67078 0
M  V30 1141 O 102.828 -1.70098 0.971779 0
M  V30 1142 H 101.408 0.159558 0.72976 0
M  V30 1143 H 104.07 1.07665 1.62463 0
M  V30 1144 H 103.166 0.574886 3.0676 0
M  V30 1145 N 103.467 -1.45747 0.599634 0
M  V30 1146 C 104.397 -2.33235 -0.111306 0
M  V30 1147 C 105.378 -1.46359 -0.866781 0
M  V30 1148 O 106.563 -1.75146 -0.838904 0
M  V30 1149 C 103.693 -3.28932 -1.11451 0
M  V30 1150 C 102.647 -4.25381 -0.472772 0
M  V30 1151 C 101.973 -5.1071 -1.58365 0
M  V30 1152 C 103.273 -5.18831 0.600948 0
M  V30 1153 H 104.967 -2.92927 0.61919 0
M  V30 1154 H 102.513 -1.40857 0.299215 0
M  V30 1155 H 104.466 -3.89002 -1.62036 0
M  V30 1156 H 103.19 -2.67381 -1.8755 0
M  V30 1157 H 101.849 -3.66598 0.0121472 0
M  V30 1158 H 101.497 -4.45533 -2.33473 0
M  V30 1159 H 101.197 -5.7604 -1.15982 0
M  V30 1160 H 102.721 -5.73647 -2.09194 0
M  V30 1161 H 104.135 -5.73019 0.179491 0
M  V30 1162 H 102.532 -5.92595 0.946076 0
M  V30 1163 H 103.602 -4.6174 1.48068 0
M  V30 1164 N 104.945 -0.338344 -1.53925 0
M  V30 1165 C 106.356 0.146651 -1.86123 0
M  V30 1166 C 106.707 1.5042 -1.2597 0
M  V30 1167 O 105.832 2.08723 -0.571294 0
M  V30 1168 C 106.427 0.272879 -3.37699 0
M  V30 1169 C 104.986 0.702103 -3.69794 0
M  V30 1170 C 104.133 -0.167304 -2.76795 0
M  V30 1171 H 107.084 -0.558123 -1.48562 0
M  V30 1172 H 107.105 1.10128 -3.64214 0
M  V30 1173 H 106.617 -0.715307 -3.81451 0
M  V30 1174 H 104.718 1.6995 -3.31584 0
M  V30 1175 H 104.831 0.495604 -4.7653 0
M  V30 1176 H 103.195 0.359527 -2.5215 0
M  V30 1177 H 103.978 -1.15253 -3.23375 0
M  V30 1178 N 106.423 1.57458 -0.0668435 0
M  V30 1179 C 107.333 2.15937 0.916975 0
M  V30 1180 C 108.349 1.12123 1.33058 0
M  V30 1181 O 109.525 1.44366 1.40429 0
M  V30 1182 C 106.59 2.70547 2.16807 0
M  V30 1183 C 105.651 3.89215 1.81135 0
M  V30 1184 C 104.884 4.41211 3.0028 0
M  V30 1185 O 105.107 3.92225 4.14144 0
M  V30 1186 O 104.041 5.32605 2.80384 0
M  V30 1187 H 107.867 3.00354 0.449561 0
M  V30 1188 H 105.452 1.48584 0.155949 0
M  V30 1189 H 107.334 3.0557 2.90181 0
M  V30 1190 H 106.009 1.89192 2.62656 0
M  V30 1191 H 104.916 3.59054 1.05028 0
M  V30 1192 H 106.249 4.71848 1.40073 0
M  V30 1193 N 107.901 -0.206675 1.56239 0
M  V30 1194 C 109.129 -0.945345 1.8404 0
M  V30 1195 C 109.544 -1.77336 0.647885 0
M  V30 1196 O 108.901 -1.78425 -0.383511 0
M  V30 1197 C 108.952 -1.8509 3.10522 0
M  V30 1198 O 108.673 -1.05634 4.25174 0
M  V30 1199 C 110.174 -2.70222 3.51418 0
M  V30 1200 H 107.394 -0.276372 0.61144 0
M  V30 1201 H 109.938 -0.217417 2.03341 0
M  V30 1202 H 108.093 -2.53259 2.93153 0
M  V30 1203 H 108.507 -1.67238 4.97124 0
M  V30 1204 H 109.981 -3.29438 4.42916 0
M  V30 1205 H 110.458 -3.43358 2.73864 0
M  V30 1206 H 111.064 -2.07443 3.71278 0
M  V30 1207 N 109.379 -1.50304 -0.473955 0
M  V30 1208 C 110.627 -1.60832 -1.22382 0
M  V30 1209 C 110.948 -0.30939 -1.9253 0
M  V30 1210 O 110.218 0.67296 -1.83978 0
M  V30 1211 H 108.798 -0.592652 -0.454723 0
M  V30 1212 H 111.46 -1.87068 -0.546968 0
M  V30 1213 H 110.556 -2.41803 -1.97327 0
M  V30 1214 N 110.857 0.726932 -1.39834 0
M  V30 1215 C 112.273 1.03354 -1.21615 0
M  V30 1216 C 112.473 2.01327 -0.08338 0
M  V30 1217 O 111.529 2.46158 0.56238 0
M  V30 1218 C 112.842 1.58811 -2.55342 0
M  V30 1219 C 114.39 1.70851 -2.62257 0
M  V30 1220 C 114.865 2.29716 -3.96225 0
M  V30 1221 N 116.356 2.37116 -3.97907 0
M  V30 1222 C 117.091 2.83619 -4.98345 0
M  V30 1223 N 116.587 3.29958 -6.09179 0
M  V30 1224 N 118.38 2.82901 -4.8572 0
M  V30 1225 H 110.531 0.0773069 -2.12259 0
M  V30 1226 H 112.794 0.0969102 -0.943034 0
M  V30 1227 H 112.5 0.942855 -3.38826 0
M  V30 1228 H 112.374 2.57502 -2.75632 0
M  V30 1229 H 114.761 2.34497 -1.79152 0
M  V30 1230 H 114.842 0.707913 -2.45809 0
M  V30 1231 H 114.486 1.66696 -4.79765 0
M  V30 1232 H 114.416 3.30469 -4.09997 0
M  V30 1233 H 116.907 2.04374 -3.17868 0
M  V30 1234 H 117.22 3.63976 -6.8172 0
M  V30 1235 H 115.565 3.27946 -6.12761 0
M  V30 1236 H 118.756 2.46027 -3.98231 0
M  V30 1237 H 118.929 3.18827 -5.6414 0
M  V30 1238 N 112.336 1.25143 0.95797 0
M  V30 1239 C 113.269 0.995565 2.05338 0
M  V30 1240 C 114.247 -0.0740423 1.62431 0
M  V30 1241 O 115.431 0.0649212 1.88388 0
M  V30 1242 C 112.558 0.504298 3.34925 0
M  V30 1243 C 111.604 1.56393 3.96792 0
M  V30 1244 S 112.437 3.14815 4.33188 0
M  V30 1245 C 113.593 2.67415 5.65898 0
M  V30 1246 H 113.826 1.92309 2.26726 0
M  V30 1247 H 111.359 1.08635 1.09716 0
M  V30 1248 H 113.317 0.227497 4.09869 0
M  V30 1249 H 111.978 -0.402671 3.11508 0
M  V30 1250 H 111.171 1.17082 4.90212 0
M  V30 1251 H 110.773 1.79124 3.28315 0
M  V30 1252 H 113.065 2.10833 6.4386 0
M  V30 1253 H 114.008 3.59463 6.10076 0
M  V30 1254 H 114.416 2.07521 5.24972 0
M  V30 1255 N 113.814 -1.1601 1.06675 0
M  V30 1256 C 115.091 -1.82679 0.699114 0
M  V30 1257 C 115.471 -1.94559 -0.819137 0
M  V30 1258 O 114.819 -1.49169 -1.73092 0
M  V30 1259 C 115.029 -3.19445 1.40555 0
M  V30 1260 C 116.377 -3.95171 1.55323 0
M  V30 1261 O 117.401 -3.28976 1.36577 0
M  V30 1262 O 116.26 -5.13833 1.86112 0
M  V30 1263 H 113.354 -0.788954 0.247951 0
M  V30 1264 H 115.9 -1.23179 1.16726 0
M  V30 1265 H 114.672 -3.05856 2.44065 0
M  V30 1266 H 114.295 -3.86625 0.927733 0
M  V30 1267 N 115.292 -0.849877 -1.32721 0
M  V30 1268 C 116.703 -0.506188 -1.79707 0
M  V30 1269 C 117.054 0.975627 -1.70223 0
M  V30 1270 O 116.179 1.76078 -1.25799 0
M  V30 1271 C 116.774 -0.912044 -3.26293 0
M  V30 1272 C 115.333 -0.620326 -3.71253 0
M  V30 1273 C 114.48 -1.11439 -2.53922 0
M  V30 1274 H 117.431 -1.03754 -1.20087 0
M  V30 1275 H 117.452 -0.226493 -3.79825 0
M  V30 1276 H 116.964 -1.99057 -3.33164 0
M  V30 1277 H 115.065 0.447674 -3.69901 0
M  V30 1278 H 115.178 -1.18327 -4.64258 0
M  V30 1279 H 113.542 -0.534834 -2.49021 0
M  V30 1280 H 114.325 -2.19992 -2.6355 0
M  V30 1281 N 116.77 1.45427 -0.607355 0
M  V30 1282 C 118.018 2.01841 -0.102253 0
M  V30 1283 C 118.339 1.47832 1.27164 0
M  V30 1284 O 117.609 0.672497 1.83995 0
M  V30 1285 H 116.189 0.746188 -0.0348101 0
M  V30 1286 H 118.851 1.78229 -0.7887 0
M  V30 1287 H 117.947 3.12057 -0.0518585 0
M  V30 1288 N 118.248 0.346503 1.53744 0
M  V30 1289 C 119.476 -0.25041 2.05379 0
M  V30 1290 C 119.891 -1.43979 1.22129 0
M  V30 1291 O 119.248 -1.80677 0.257321 0
M  V30 1292 C 119.299 -0.662575 3.55376 0
M  V30 1293 O 119.02 0.479515 4.35468 0
M  V30 1294 C 120.521 -1.31989 4.23195 0
M  V30 1295 H 117.741 -0.0478198 0.669294 0
M  V30 1296 H 120.285 0.499346 1.9831 0
M  V30 1297 H 118.44 -1.36227 3.62658 0
M  V30 1298 H 118.854 0.15037 5.24284 0
M  V30 1299 H 120.328 -1.55902 5.29527 0
M  V30 1300 H 120.805 -2.27436 3.75725 0
M  V30 1301 H 121.411 -0.662154 4.20114 0
M  V30 1302 N 119.726 -1.57421 0.075193 0
M  V30 1303 C 120.972 -1.93905 -0.594025 0
M  V30 1304 C 121.305 -0.955701 -1.69056 0
M  V30 1305 O 120.58 0.0145373 -1.94495 0
M  V30 1306 C 120.863 -3.40638 -1.1678 0
M  V30 1307 C 120.716 -4.49733 -0.0776792 0
M  V30 1308 C 122.035 -3.88259 -2.07228 0
M  V30 1309 H 119.154 -0.705105 -0.214466 0
M  V30 1310 H 121.796 -1.8947 0.141854 0
M  V30 1311 H 119.946 -3.44549 -1.79494 0
M  V30 1312 H 121.618 -4.57942 0.555573 0
M  V30 1313 H 119.861 -4.29751 0.591286 0
M  V30 1314 H 120.532 -5.49549 -0.519603 0
M  V30 1315 H 123.008 -3.86376 -1.54445 0
M  V30 1316 H 121.884 -4.91533 -2.44308 0
M  V30 1317 H 122.145 -3.26396 -2.98191 0
M  V30 1318 N 121.204 0.198386 -1.56346 0
M  V30 1319 C 122.167 1.22952 -1.93431 0
M  V30 1320 C 123.167 1.38611 -0.815092 0
M  V30 1321 O 124.357 1.36479 -1.08255 0
M  V30 1322 C 121.489 2.59946 -2.20546 0
M  V30 1323 H 122.682 0.912626 -2.85677 0
M  V30 1324 H 120.235 0.43977 -1.49986 0
M  V30 1325 H 120.97 2.96696 -1.30927 0
M  V30 1326 H 120.755 2.49953 -3.02102 0
M  V30 1327 H 122.245 3.3431 -2.50253 0
M  V30 1328 N 122.682 1.50554 0.465978 0
M  V30 1329 C 123.91 1.65563 1.24083 0
M  V30 1330 C 124.325 0.341051 1.85694 0
M  V30 1331 O 123.682 -0.677543 1.69457 0
M  V30 1332 C 123.733 2.75051 2.34583 0
M  V30 1333 O 123.454 4.01413 1.75497 0
M  V30 1334 C 124.955 3.01078 3.25372 0
M  V30 1335 H 122.175 0.55638 0.375077 0
M  V30 1336 H 124.719 1.96807 0.555624 0
M  V30 1337 H 122.874 2.46486 2.9887 0
M  V30 1338 H 123.288 4.62002 2.48303 0
M  V30 1339 H 124.762 3.81339 3.99105 0
M  V30 1340 H 125.239 2.12349 3.84453 0
M  V30 1341 H 125.845 3.31194 2.66816 0
M  V30 1342 N 124.16 -0.719506 1.40217 0
M  V30 1343 C 125.093 -1.84298 1.34571 0
M  V30 1344 C 126.071 -1.61149 0.216741 0
M  V30 1345 O 127.255 -1.84212 0.399756 0
M  V30 1346 C 124.382 -3.20568 1.09335 0
M  V30 1347 C 123.428 -3.62551 2.24631 0
M  V30 1348 S 124.261 -3.7012 3.87004 0
M  V30 1349 C 125.417 -5.09154 3.64024 0
M  V30 1350 H 125.65 -1.88807 2.2965 0
M  V30 1351 H 123.183 -0.885901 1.26456 0
M  V30 1352 H 125.141 -3.99246 0.954602 0
M  V30 1353 H 123.802 -3.13696 0.159164 0
M  V30 1354 H 122.995 -4.61483 2.02606 0
M  V30 1355 H 122.597 -2.91119 2.34789 0
M  V30 1356 H 124.889 -5.95955 3.22248 0
M  V30 1357 H 125.832 -5.36213 4.62473 0
M  V30 1358 H 126.24 -4.79562 2.97793 0
M  V30 1359 N 125.638 -1.25649 -0.95132 0
M  V30 1360 C 127.054 -1.02542 -1.223 0
M  V30 1361 C 127.254 0.255715 -1.99871 0
M  V30 1362 O 126.31 0.967558 -2.33226 0
M  V30 1363 C 127.623 -2.25065 -1.99415 0
M  V30 1364 C 129.171 -2.29861 -2.12446 0
M  V30 1365 C 129.646 -3.52048 -2.92961 0
M  V30 1366 N 131.137 -3.52465 -3.00538 0
M  V30 1367 C 131.872 -4.43672 -3.63239 0
M  V30 1368 N 131.368 -5.45157 -4.27523 0
M  V30 1369 N 133.161 -4.31346 -3.60412 0
M  V30 1370 H 125.312 -2.07951 -0.432471 0
M  V30 1371 H 127.575 -0.91339 -0.253816 0
M  V30 1372 H 127.281 -3.18194 -1.49817 0
M  V30 1373 H 127.155 -2.28502 -3.00111 0
M  V30 1374 H 129.542 -1.37252 -2.61239 0
M  V30 1375 H 129.623 -2.3044 -1.11044 0
M  V30 1376 H 129.267 -4.44981 -2.44856 0
M  V30 1377 H 129.197 -3.48715 -3.94596 0
M  V30 1378 H 131.688 -2.79056 -2.54826 0
M  V30 1379 H 132.001 -6.10958 -4.73234 0
M  V30 1380 H 130.346 -5.49025 -4.26141 0
M  V30 1381 H 133.537 -3.51288 -3.09377 0
M  V30 1382 H 133.71 -5.02624 -4.0899 0
M  V30 1383 N 127.117 1.15442 -1.07289 0
M  V30 1384 C 128.064 2.20161 -0.692653 0
M  V30 1385 C 129.034 1.63073 0.31564 0
M  V30 1386 O 130.219 1.89725 0.202235 0
M  V30 1387 C 127.359 3.44967 -0.0959509 0
M  V30 1388 C 126.472 4.16256 -1.15564 0
M  V30 1389 C 125.607 5.28609 -0.524011 0
M  V30 1390 C 124.646 5.91715 -1.56653 0
M  V30 1391 N 123.783 6.9554 -0.957531 0
M  V30 1392 H 128.623 2.52037 -1.59002 0
M  V30 1393 H 126.16 1.2378 -0.794798 0
M  V30 1394 H 128.118 4.16341 0.267628 0
M  V30 1395 H 126.748 3.1361 0.764772 0
M  V30 1396 H 125.8 3.43385 -1.6368 0
M  V30 1397 H 127.112 4.59268 -1.94613 0
M  V30 1398 H 126.266 6.06604 -0.108032 0
M  V30 1399 H 125.005 4.86787 0.29825 0
M  V30 1400 H 124.01 5.12433 -1.9923 0
M  V30 1401 H 125.235 6.35614 -2.39107 0
M  V30 1402 H 123.181 6.55814 -0.156162 0
M  V30 1403 H 123.098 7.36977 -1.68526 0
M  V30 1404 H 124.366 7.77435 -0.567032 0
M  V30 1405 N 128.595 0.856903 1.32268 0
M  V30 1406 C 130.006 0.515711 1.79436 0
M  V30 1407 C 130.357 -0.966586 1.70738 0
M  V30 1408 O 129.482 -1.75409 1.26731 0
M  V30 1409 C 130.077 0.929335 3.25805 0
M  V30 1410 C 128.636 0.640006 3.70919 0
M  V30 1411 C 127.783 1.12784 2.53328 0
M  V30 1412 H 130.734 1.04389 1.19535 0
M  V30 1413 H 130.755 0.246633 3.797 0
M  V30 1414 H 130.267 2.00821 3.32103 0
M  V30 1415 H 128.368 -0.428051 3.70133 0
M  V30 1416 H 128.481 1.20788 4.63624 0
M  V30 1417 H 126.845 0.548033 2.48734 0
M  V30 1418 H 127.628 2.21387 2.62379 0
M  V30 1419 N 130.073 -1.45103 0.615059 0
M  V30 1420 C 131.489 -1.57137 0.279322 0
M  V30 1421 C 131.689 -1.60523 -1.21797 0
M  V30 1422 O 130.745 -1.53956 -2.00134 0
M  V30 1423 C 132.058 -2.85062 0.957083 0
M  V30 1424 C 133.606 -2.98749 0.933706 0
M  V30 1425 C 134.081 -4.29455 1.59162 0
M  V30 1426 N 135.572 -4.36231 1.55746 0
M  V30 1427 C 136.307 -5.36051 2.0356 0
M  V30 1428 N 135.803 -6.42367 2.59494 0
M  V30 1429 N 137.596 -5.27456 1.94284 0
M  V30 1430 H 129.747 -1.41148 1.58717 0
M  V30 1431 H 132.01 -0.675331 0.665306 0
M  V30 1432 H 131.716 -2.88488 2.01166 0
M  V30 1433 H 131.59 -3.7407 0.48494 0
M  V30 1434 H 133.977 -2.94886 -0.112347 0
M  V30 1435 H 134.058 -2.11132 1.44419 0
M  V30 1436 H 133.702 -4.34077 2.63704 0
M  V30 1437 H 133.632 -5.15901 1.0561 0
M  V30 1438 H 136.123 -3.60011 1.14893 0
M  V30 1439 H 136.436 -7.14793 2.93752 0
M  V30 1440 H 134.781 -6.43097 2.63537 0
M  V30 1441 H 137.972 -4.43308 1.5032 0
M  V30 1442 H 138.145 -6.05099 2.3186 0
M  V30 1443 N 131.551 -0.354651 -1.53558 0
M  V30 1444 C 132.791 0.238651 -2.03002 0
M  V30 1445 C 133.155 1.46878 -1.23656 0
M  V30 1446 O 134.356 2.13699 -1.63053 0
M  V30 1447 C 132.627 0.534175 -3.53386 0
M  V30 1448 S 134.186 1.10271 -4.24719 0
M  V30 1449 H 131.004 0.0702908 -0.707517 0
M  V30 1450 H 133.606 -0.494987 -1.8913 0
M  V30 1451 H 132.31 -0.368765 -4.0874 0
M  V30 1452 H 131.841 1.29718 -3.71398 0
M  V30 1453 H 133.856 2.38772 -4.34974 0
M  V30 1454 N 133.029 1.57378 -0.0835403 0
M  V30 1455 C 134.254 1.98682 0.594987 0
M  V30 1456 C 134.679 0.961969 1.61641 0
M  V30 1457 O 134.037 -0.0709989 1.81161 0
M  V30 1458 C 134.085 3.38988 1.2296 0
M  V30 1459 O 133.189 3.39208 2.34546 0
M  V30 1460 H 132.53 0.646368 0.152002 0
M  V30 1461 H 135.06 2.03961 -0.161533 0
M  V30 1462 H 135.07 3.76431 1.57366 0
M  V30 1463 H 133.745 4.13107 0.481228 0
M  V30 1464 H 132.322 3.13548 2.01846 0
M  V30 1465 N 134.507 -0.190092 1.56449 0
M  V30 1466 C 135.437 -1.23816 1.97969 0
M  V30 1467 C 136.418 -1.47201 0.852395 0
M  V30 1468 O 137.603 -1.58854 1.1171 0
M  V30 1469 C 134.733 -2.5813 2.3235 0
M  V30 1470 C 133.687 -2.49348 3.47864 0
M  V30 1471 C 133.013 -3.8798 3.67934 0
M  V30 1472 C 134.313 -2.01424 4.81898 0
M  V30 1473 H 136.007 -0.89311 2.85769 0
M  V30 1474 H 133.553 -0.428177 1.37487 0
M  V30 1475 H 135.506 -3.31637 2.59991 0
M  V30 1476 H 134.23 -2.94386 1.41438 0
M  V30 1477 H 132.889 -1.78297 3.20321 0
M  V30 1478 H 132.537 -4.21597 2.74344 0
M  V30 1479 H 132.237 -3.82978 4.45648 0
M  V30 1480 H 133.761 -4.63101 3.97957 0
M  V30 1481 H 135.175 -2.64693 5.08538 0
M  V30 1482 H 133.572 -2.07413 5.63116 0
M  V30 1483 H 134.642 -0.967677 4.75146 0
M  V30 1484 N 135.985 -1.50799 -0.457987 0
M  V30 1485 C 137.396 -1.55152 -1.0385 0
M  V30 1486 C 137.747 -0.362719 -1.92818 0
M  V30 1487 O 136.872 0.522915 -2.09987 0
M  V30 1488 C 137.467 -2.81173 -1.89017 0
M  V30 1489 C 136.026 -2.88164 -2.42154 0
M  V30 1490 C 135.173 -2.49591 -1.20829 0
M  V30 1491 H 138.124 -1.56874 -0.240068 0
M  V30 1492 H 138.145 -2.63769 -2.74238 0
M  V30 1493 H 137.657 -3.67677 -1.24238 0
M  V30 1494 H 135.758 -2.06042 -3.10447 0
M  V30 1495 H 135.871 -3.91356 -2.76364 0
M  V30 1496 H 134.235 -2.02322 -1.54719 0
M  V30 1497 H 135.018 -3.38418 -0.576927 0
M  V30 1498 N 137.463 0.71206 -1.40597 0
M  V30 1499 C 138.74 1.46536 -1.29563 0
M  V30 1500 C 139.12 2.10931 0.0844217 0
M  V30 1501 O 138.468 2.00418 1.0975 0
M  V30 1502 C 138.678 2.49821 -2.43701 0
M  V30 1503 C 140.026 3.15551 -2.841 0
M  V30 1504 O 141.05 2.60142 -2.4332 0
M  V30 1505 O 139.909 4.15867 -3.54566 0
M  V30 1506 H 137.003 0.651801 -0.509004 0
M  V30 1507 H 139.549 0.743935 -1.52524 0
M  V30 1508 H 138.321 2.00778 -3.35863 0
M  V30 1509 H 137.944 3.29495 -2.22528 0
M  V30 1510 N 138.941 1.26152 0.944643 0
M  V30 1511 C 140.187 1.11657 1.69294 0
M  V30 1512 C 140.52 -0.339926 1.91202 0
M  V30 1513 O 139.795 -1.24994 1.49019 0
M  V30 1514 C 140.078 1.88236 3.06984 0
M  V30 1515 C 139.931 3.41772 2.92424 0
M  V30 1516 C 141.25 1.67343 4.07043 0
M  V30 1517 H 138.369 0.407004 0.614424 0
M  V30 1518 H 141.011 1.55106 1.09737 0
M  V30 1519 H 139.161 1.51308 3.57824 0
M  V30 1520 H 140.833 3.88433 2.48832 0
M  V30 1521 H 139.076 3.68974 2.28124 0
M  V30 1522 H 139.747 3.90579 3.90067 0
M  V30 1523 H 142.223 1.99509 3.65151 0
M  V30 1524 H 141.099 2.23346 5.01406 0
M  V30 1525 H 141.36 0.617158 4.37771 0
M  V30 1526 N 140.419 -1.14872 1.07899 0
M  V30 1527 C 141.349 -2.2193 0.725887 0
M  V30 1528 C 142.33 -1.67622 -0.28927 0
M  V30 1529 O 143.515 -1.93533 -0.160787 0
M  V30 1530 C 140.645 -3.47061 0.128856 0
M  V30 1531 C 139.599 -4.14363 1.07178 0
M  V30 1532 C 138.925 -5.33636 0.337229 0
M  V30 1533 C 140.225 -4.63492 2.40775 0
M  V30 1534 H 141.919 -2.51724 1.62097 0
M  V30 1535 H 139.465 -1.20991 0.780838 0
M  V30 1536 H 141.418 -4.21199 -0.130147 0
M  V30 1537 H 140.142 -3.16617 -0.80134 0
M  V30 1538 H 138.801 -3.42173 1.3158 0
M  V30 1539 H 138.449 -4.99449 -0.596606 0
M  V30 1540 H 138.149 -5.79609 0.965788 0
M  V30 1541 H 139.673 -6.10539 0.0861567 0
M  V30 1542 H 141.087 -5.2913 2.20669 0
M  V30 1543 H 139.484 -5.20148 2.99276 0
M  V30 1544 H 140.554 -3.78834 3.02676 0
M  V30 1545 N 141.898 -0.863906 -1.31812 0
M  V30 1546 C 143.146 -0.470904 -1.96537 0
M  V30 1547 C 143.467 0.978771 -1.68657 0
M  V30 1548 O 142.737 1.6853 -0.998717 0
M  V30 1549 H 141.317 -0.171148 -0.72713 0
M  V30 1550 H 143.979 -1.10236 -1.60729 0
M  V30 1551 H 143.075 -0.623616 -3.05806 0
M  V30 1552 N 143.376 1.44774 -0.622745 0
M  V30 1553 C 144.622 2.0242 -0.124083 0
M  V30 1554 C 144.955 1.4881 1.24777 0
M  V30 1555 O 144.23 0.668799 1.8264 0
M  V30 1556 C 144.513 3.59957 -0.101619 0
M  V30 1557 C 144.366 4.23867 -1.50521 0
M  V30 1558 C 145.685 4.36284 0.578272 0
M  V30 1559 H 142.804 0.735528 -0.0465645 0
M  V30 1560 H 145.446 1.72447 -0.797617 0
M  V30 1561 H 143.596 3.85623 0.471934 0
M  V30 1562 H 145.268 4.09336 -2.12701 0
M  V30 1563 H 143.511 3.81684 -2.06154 0
M  V30 1564 H 144.182 5.32843 -1.4416 0
M  V30 1565 H 146.658 4.16001 0.0906057 0
M  V30 1566 H 145.534 5.46004 0.563149 0
M  V30 1567 H 145.795 4.10271 1.64713 0
M  V30 1568 N 144.854 0.36279 1.53368 0
M  V30 1569 C 145.817 -0.472679 2.24273 0
M  V30 1570 C 146.817 -1.012 1.24961 0
M  V30 1571 O 148.007 -0.898194 1.49259 0
M  V30 1572 C 145.139 -1.66039 2.97731 0
M  V30 1573 H 146.332 0.14773 2.99536 0
M  V30 1574 H 143.885 0.114434 1.55881 0
M  V30 1575 H 144.62 -2.31896 2.26704 0
M  V30 1576 H 144.405 -1.28066 3.70596 0
M  V30 1577 H 145.895 -2.25252 3.51641 0
M  V30 1578 N 146.332 -1.57332 0.0918853 0
M  V30 1579 C 147.58 -1.93853 -0.571446 0
M  V30 1580 C 147.901 -0.974212 -1.6892 0
M  V30 1581 O 147.171 -0.0257254 -1.95883 0
M  V30 1582 H 145.751 -0.715666 -0.214082 0
M  V30 1583 H 148.413 -1.94287 0.154464 0
M  V30 1584 H 147.509 -2.96191 -0.983729 0
M  V30 1585 N 147.81 0.181792 -1.56548 0
M  V30 1586 C 148.74 1.22765 -1.98623 0
M  V30 1587 C 149.721 1.46747 -0.860189 0
M  V30 1588 O 150.906 1.58259 -1.12551 0
M  V30 1589 C 148.036 2.56894 -2.33715 0
M  V30 1590 C 146.99 2.475 -3.49182 0
M  V30 1591 C 146.316 3.86023 -3.69986 0
M  V30 1592 C 147.616 1.98866 -4.82959 0
M  V30 1593 H 149.31 0.877942 -2.86239 0
M  V30 1594 H 146.856 0.42088 -1.37712 0
M  V30 1595 H 148.809 3.30253 -2.61746 0
M  V30 1596 H 147.533 2.93632 -1.42997 0
M  V30 1597 H 146.192 1.76596 -3.21262 0
M  V30 1598 H 145.84 4.20136 -2.76576 0
M  V30 1599 H 145.54 3.80609 -4.47672 0
M  V30 1600 H 147.064 4.60984 -4.00407 0
M  V30 1601 H 148.478 2.61992 -5.09934 0
M  V30 1602 H 146.875 2.04424 -5.64208 0
M  V30 1603 H 147.945 0.942465 -4.75653 0
M  V30 1604 N 149.288 1.51039 0.449983 0
M  V30 1605 C 150.534 1.63322 1.20223 0
M  V30 1606 C 150.867 0.34241 1.91158 0
M  V30 1607 O 150.142 -0.657344 1.83055 0
M  V30 1608 C 150.425 2.82801 2.22925 0
M  V30 1609 C 150.278 4.21823 1.56157 0
M  V30 1610 C 151.597 2.97807 3.24035 0
M  V30 1611 H 148.716 0.594407 0.435718 0
M  V30 1612 H 151.358 1.83489 0.493136 0
M  V30 1613 H 149.508 2.65738 2.834 0
M  V30 1614 H 151.18 4.50526 0.991162 0
M  V30 1615 H 149.423 4.25105 0.864172 0
M  V30 1616 H 150.094 5.01391 2.30891 0
M  V30 1617 H 152.57 3.13497 2.73603 0
M  V30 1618 H 151.446 3.82992 3.93202 0
M  V30 1619 H 151.707 2.09328 3.89402 0
M  V30 1620 N 150.766 -0.704594 1.40972 0
M  V30 1621 C 152.182 -1.01406 1.23244 0
M  V30 1622 C 152.382 -2.01169 0.115399 0
M  V30 1623 O 151.438 -2.47021 -0.523147 0
M  V30 1624 C 152.751 -1.54728 2.57836 0
M  V30 1625 C 154.299 -1.66658 2.64942 0
M  V30 1626 C 154.774 -2.23383 3.9983 0
M  V30 1627 N 156.265 -2.30756 4.01629 0
M  V30 1628 C 157 -2.75655 5.02794 0
M  V30 1629 N 156.496 -3.20225 6.14352 0
M  V30 1630 N 158.289 -2.75138 4.90159 0
M  V30 1631 H 150.44 -0.0435285 2.12355 0
M  V30 1632 H 152.703 -0.0818951 0.944456 0
M  V30 1633 H 152.409 -0.888832 3.40283 0
M  V30 1634 H 152.283 -2.53084 2.79693 0
M  V30 1635 H 154.67 -2.31617 1.8286 0
M  V30 1636 H 154.751 -0.668717 2.46904 0
M  V30 1637 H 154.395 -1.59043 4.82357 0
M  V30 1638 H 154.325 -3.23904 4.15203 0
M  V30 1639 H 156.816 -1.99291 3.21079 0
M  V30 1640 H 157.129 -3.53084 6.87424 0
M  V30 1641 H 155.474 -3.18156 6.17901 0
M  V30 1642 H 158.665 -2.39661 4.02095 0
M  V30 1643 H 158.838 -3.09812 5.6914 0
M  V30 1644 N 152.244 -1.26651 -0.937939 0
M  V30 1645 C 153.66 -1.03834 -1.21205 0
M  V30 1646 C 153.86 0.234502 -2.00131 0
M  V30 1647 O 152.916 0.942767 -2.3424 0
M  V30 1648 C 154.229 -2.27167 -1.97017 0
M  V30 1649 C 155.777 -2.32101 -2.09996 0
M  V30 1650 C 156.252 -3.55136 -2.8921 0
M  V30 1651 N 157.743 -3.55632 -2.96783 0
M  V30 1652 C 158.478 -4.475 -3.58512 0
M  V30 1653 N 157.974 -5.4966 -4.21717 0
M  V30 1654 N 159.767 -4.35145 -3.55816 0
M  V30 1655 H 151.918 -2.08398 -0.410391 0
M  V30 1656 H 154.181 -0.916031 -0.244114 0
M  V30 1657 H 153.887 -3.19765 -1.46434 0
M  V30 1658 H 153.761 -2.31672 -2.97671 0
M  V30 1659 H 156.148 -1.40015 -2.59769 0
M  V30 1660 H 156.229 -2.31605 -1.08594 0
M  V30 1661 H 155.873 -4.47553 -2.40123 0
M  V30 1662 H 155.803 -3.5288 -3.90875 0
M  V30 1663 H 158.294 -2.81743 -2.51852 0
M  V30 1664 H 158.607 -6.15943 -4.66727 0
M  V30 1665 H 156.952 -5.53514 -4.20294 0
M  V30 1666 H 160.143 -3.5455 -3.05634 0
M  V30 1667 H 160.316 -5.06934 -4.03636 0
M  V30 1668 N 153.722 1.14298 -1.08507 0
M  V30 1669 C 155.138 1.37347 -0.812901 0
M  V30 1670 C 155.338 1.93052 0.577325 0
M  V30 1671 O 154.394 2.14389 1.33393 0
M  V30 1672 C 155.707 2.33359 -1.89642 0
M  V30 1673 C 157.255 2.46996 -1.92255 0
M  V30 1674 C 157.73 3.46309 -2.99724 0
M  V30 1675 N 159.221 3.53853 -2.98902 0
M  V30 1676 C 159.956 4.3055 -3.787 0
M  V30 1677 N 159.452 5.10482 -4.6838 0
M  V30 1678 N 161.245 4.25757 -3.66998 0
M  V30 1679 H 153.396 0.764867 -1.9815 0
M  V30 1680 H 155.659 0.398966 -0.859959 0
M  V30 1681 H 155.365 1.99565 -2.89597 0
M  V30 1682 H 155.239 3.33274 -1.76659 0
M  V30 1683 H 157.626 2.80081 -0.929445 0
M  V30 1684 H 157.707 1.47039 -2.09316 0
M  V30 1685 H 157.351 3.13957 -3.99241 0
M  V30 1686 H 157.281 4.46049 -2.79907 0
M  V30 1687 H 159.772 2.96812 -2.33904 0
M  V30 1688 H 160.085 5.66284 -5.25873 0
M  V30 1689 H 158.43 5.09747 -4.72422 0
M  V30 1690 H 161.621 3.62383 -2.96304 0
M  V30 1691 H 161.794 4.85279 -4.29427 0
M  V30 1692 N 155.201 0.870884 1.31352 0
M  V30 1693 C 156.617 0.562932 1.49343 0
M  V30 1694 C 156.817 -0.902725 1.80148 0
M  V30 1695 O 155.873 -1.68484 1.88067 0
M  V30 1696 C 157.186 1.46393 2.62659 0
M  V30 1697 C 158.734 1.46607 2.76542 0
M  V30 1698 C 159.209 2.35266 3.92955 0
M  V30 1699 N 160.7 2.33151 4.00243 0
M  V30 1700 C 161.435 2.98471 4.89594 0
M  V30 1701 N 160.931 3.72964 5.8384 0
M  V30 1702 N 162.724 2.87775 4.82848 0
M  V30 1703 H 154.875 1.81923 1.09626 0
M  V30 1704 H 157.138 0.777934 0.541777 0
M  V30 1705 H 156.844 2.50689 2.46674 0
M  V30 1706 H 156.718 1.16314 3.58819 0
M  V30 1707 H 159.105 0.43069 2.9194 0
M  V30 1708 H 159.186 1.8071 1.81046 0
M  V30 1709 H 158.83 3.38881 3.78315 0
M  V30 1710 H 158.76 1.98487 4.87761 0
M  V30 1711 H 161.251 1.79006 3.32814 0
M  V30 1712 H 161.564 4.19932 6.4875 0
M  V30 1713 H 159.909 3.77073 5.83816 0
M  V30 1714 H 163.1 2.29116 4.08195 0
M  V30 1715 H 163.273 3.38961 5.52277 0
M  V30 1716 N 156.679 -1.44442 0.630414 0
M  V30 1717 C 158.095 -1.56832 0.295973 0
M  V30 1718 C 158.295 -1.61806 -1.20088 0
M  V30 1719 O 157.351 -1.5607 -1.9849 0
M  V30 1720 C 158.664 -2.84031 0.987264 0
M  V30 1721 C 160.212 -2.97742 0.96534 0
M  V30 1722 C 160.687 -4.27743 1.63708 0
M  V30 1723 N 162.178 -4.34555 1.60364 0
M  V30 1724 C 162.913 -5.33862 2.09234 0
M  V30 1725 N 162.409 -6.39578 2.66292 0
M  V30 1726 N 164.202 -5.25366 1.99867 0
M  V30 1727 H 156.353 -1.39457 1.60205 0
M  V30 1728 H 158.616 -0.668237 0.672431 0
M  V30 1729 H 158.322 -2.86338 2.04215 0
M  V30 1730 H 158.196 -3.73534 0.524588 0
M  V30 1731 H 160.583 -2.94989 -0.0810639 0
M  V30 1732 H 160.664 -2.09589 1.4665 0
M  V30 1733 H 160.308 -4.31255 2.68293 0
M  V30 1734 H 160.238 -5.14752 1.11076 0
M  V30 1735 H 162.729 -3.58772 1.18705 0
M  V30 1736 H 163.042 -7.11637 3.01317 0
M  V30 1737 H 161.387 -6.40265 2.70343 0
M  V30 1738 H 164.578 -4.41688 1.55013 0
M  V30 1739 H 164.751 -6.02606 2.38265 0
M  V30 1740 N 158.157 -0.370918 -1.53173 0
M  V30 1741 C 159.387 0.217389 -2.05453 0
M  V30 1742 C 159.795 1.42568 -1.24382 0
M  V30 1743 O 159.138 1.81571 -0.278839 0
M  V30 1744 C 159.2 0.669827 -3.53205 0
M  V30 1745 C 158.864 -0.4225 -4.55043 0
M  V30 1746 C 159.861 -1.27407 -5.04047 0
M  V30 1747 C 157.546 -0.58427 -4.9889 0
M  V30 1748 C 159.54 -2.27271 -5.95505 0
M  V30 1749 C 157.227 -1.58627 -5.90153 0
M  V30 1750 C 158.225 -2.42892 -6.38351 0
M  V30 1751 O 157.913 -3.41382 -7.27814 0
M  V30 1752 H 157.645 0.0408171 -0.674767 0
M  V30 1753 H 160.199 -0.5292 -1.98466 0
M  V30 1754 H 158.429 1.4681 -3.57748 0
M  V30 1755 H 160.118 1.18173 -3.88317 0
M  V30 1756 H 160.884 -1.16031 -4.70916 0
M  V30 1757 H 156.763 0.061851 -4.60959 0
M  V30 1758 H 160.307 -2.93079 -6.33049 0
M  V30 1759 H 156.204 -1.70048 -6.22699 0
M  V30 1760 H 156.972 -3.37173 -7.45826 0
M  V30 1761 N 159.635 1.57281 -0.100228 0
M  V30 1762 C 160.598 2.13158 0.842398 0
M  V30 1763 C 161.598 1.06202 1.20738 0
M  V30 1764 O 162.788 1.32066 1.13597 0
M  V30 1765 C 159.92 2.65639 2.13655 0
M  V30 1766 H 161.113 2.97766 0.357114 0
M  V30 1767 H 158.666 1.5559 0.148823 0
M  V30 1768 H 159.401 1.84566 2.66657 0
M  V30 1769 H 159.186 3.43844 1.88451 0
M  V30 1770 H 160.676 3.08846 2.81077 0
M  V30 1771 N 161.113 -0.173488 1.56642 0
M  V30 1772 C 162.043 -1.2171 1.99271 0
M  V30 1773 C 163.024 -1.46289 0.867959 0
M  V30 1774 O 164.209 -1.5766 1.13388 0
M  V30 1775 C 161.339 -2.55651 2.35074 0
M  V30 1776 C 160.293 -2.45645 3.50489 0
M  V30 1777 C 159.619 -3.84056 3.72028 0
M  V30 1778 C 160.919 -1.96302 4.84007 0
M  V30 1779 H 162.613 -0.86275 2.867 0
M  V30 1780 H 160.159 -0.413571 1.37933 0
M  V30 1781 H 162.112 -3.2886 2.63494 0
M  V30 1782 H 160.836 -2.92869 1.44552 0
M  V30 1783 H 159.495 -1.7489 3.22194 0
M  V30 1784 H 159.143 -4.18664 2.788 0
M  V30 1785 H 158.843 -3.7823 4.49684 0
M  V30 1786 H 160.367 -4.58854 4.02846 0
M  V30 1787 H 161.781 -2.59284 5.11317 0
M  V30 1788 H 160.178 -2.01429 5.65284 0
M  V30 1789 H 161.248 -0.917226 4.76146 0
M  V30 1790 N 162.591 -1.51276 -0.441967 0
M  V30 1791 C 163.816 -1.67799 -1.21895 0
M  V30 1792 C 164.241 -0.372864 -1.84367 0
M  V30 1793 O 163.599 0.666501 -1.68604 0
M  V30 1794 C 163.647 -2.79199 -2.28211 0
M  V30 1795 O 162.751 -2.42479 -3.33583 0
M  V30 1796 H 162.092 -0.559649 -0.357336 0
M  V30 1797 H 164.622 -1.97815 -0.522522 0
M  V30 1798 H 164.632 -3.03146 -2.73069 0
M  V30 1799 H 163.307 -3.73906 -1.82118 0
M  V30 1800 H 161.884 -2.29087 -2.94234 0
M  V30 1801 N 164.069 0.697108 -1.41344 0
M  V30 1802 C 165.317 1.45426 -1.40341 0
M  V30 1803 C 165.638 1.94996 -0.0128787 0
M  V30 1804 O 164.908 1.71599 0.945027 0
M  V30 1805 H 163.488 0.539594 -0.516573 0
M  V30 1806 H 166.15 0.825201 -1.76569 0
M  V30 1807 H 165.246 2.31817 -2.08967 0
M  V30 1808 N 165.547 1.27147 0.931209 0
M  V30 1809 C 166.772 1.16191 1.71797 0
M  V30 1810 C 167.197 -0.278004 1.86034 0
M  V30 1811 O 166.555 -1.20137 1.35782 0
M  V30 1812 C 166.603 1.84673 3.09723 0
M  V30 1813 O 165.707 1.14231 3.96264 0
M  V30 1814 H 165.048 0.404303 0.526721 0
M  V30 1815 H 167.578 1.68152 1.1656 0
M  V30 1816 H 167.588 1.91893 3.60057 0
M  V30 1817 H 166.263 2.89421 2.98677 0
M  V30 1818 H 164.84 1.15056 3.54706 0
M  V30 1819 N 167.025 -1.13721 1.09112 0
M  V30 1820 C 168.271 -1.85198 0.826414 0
M  V30 1821 C 168.604 -1.83129 -0.646319 0
M  V30 1822 O 167.879 -1.2671 -1.47563 0
M  V30 1823 C 168.162 -3.33507 1.35812 0
M  V30 1824 C 168.015 -3.44108 2.89672 0
M  V30 1825 C 169.334 -4.28838 0.989256 0
M  V30 1826 H 166.453 -0.67243 0.301675 0
M  V30 1827 H 169.095 -1.33499 1.35197 0
M  V30 1828 H 167.245 -3.77666 0.911082 0
M  V30 1829 H 168.917 -3.08684 3.428 0
M  V30 1830 H 167.16 -2.85087 3.26967 0
M  V30 1831 H 167.831 -4.48388 3.21951 0
M  V30 1832 H 170.307 -3.92734 1.37475 0
M  V30 1833 H 169.183 -5.31051 1.38838 0
M  V30 1834 H 169.444 -4.4198 -0.102924 0
M  V30 1835 N 168.503 -0.877838 -1.30888 0
M  V30 1836 C 169.749 -0.502773 -1.97088 0
M  V30 1837 C 170.104 0.936274 -1.68082 0
M  V30 1838 O 169.397 1.65162 -0.971196 0
M  V30 1839 C 169.591 -0.705748 -3.50363 0
M  V30 1840 C 169.42 -2.16297 -3.94266 0
M  V30 1841 C 168.19 -2.80614 -4.20219 0
M  V30 1842 C 170.388 -3.13606 -4.07622 0
M  V30 1843 N 168.37 -4.17007 -4.50532 0
M  V30 1844 C 169.741 -4.35051 -4.41736 0
M  V30 1845 C 171.796 -3.09491 -3.90026 0
M  V30 1846 C 170.499 -5.52911 -4.60089 0
M  V30 1847 C 172.525 -4.26616 -4.09576 0
M  V30 1848 C 171.887 -5.46825 -4.44029 0
M  V30 1849 H 167.986 -0.233168 -0.746429 0
M  V30 1850 H 170.57 -1.13408 -1.58261 0
M  V30 1851 H 168.741 -0.103976 -3.88261 0
M  V30 1852 H 170.473 -0.298291 -4.03599 0
M  V30 1853 H 167.228 -2.3152 -4.13153 0
M  V30 1854 H 167.652 -4.87426 -4.69834 0
M  V30 1855 H 172.294 -2.17657 -3.62471 0
M  V30 1856 H 170.012 -6.45255 -4.86489 0
M  V30 1857 H 173.598 -4.24894 -3.97438 0
M  V30 1858 H 172.478 -6.35947 -4.58848 0
M  V30 1859 N 169.982 1.44106 -0.638065 0
M  V30 1860 C 170.929 2.30715 0.062701 0
M  V30 1861 C 171.899 1.43882 0.829883 0
M  V30 1862 O 173.084 1.72775 0.809532 0
M  V30 1863 C 170.224 3.29258 1.03358 0
M  V30 1864 C 169.337 4.31192 0.26409 0
M  V30 1865 C 168.472 5.16825 1.22741 0
M  V30 1866 C 167.511 6.10462 0.447475 0
M  V30 1867 N 166.648 6.8877 1.36161 0
M  V30 1868 H 171.488 2.90096 -0.681781 0
M  V30 1869 H 169.025 1.42925 -0.347988 0
M  V30 1870 H 170.983 3.84886 1.60992 0
M  V30 1871 H 169.613 2.71562 1.74511 0
M  V30 1872 H 168.665 3.77981 -0.428295 0
M  V30 1873 H 169.977 4.97619 -0.343052 0
M  V30 1874 H 169.131 5.77004 1.87487 0
M  V30 1875 H 167.87 4.50488 1.86847 0
M  V30 1876 H 166.875 5.49386 -0.213433 0
M  V30 1877 H 168.1 6.78837 -0.188968 0
M  V30 1878 H 166.046 6.25096 1.98975 0
M  V30 1879 H 165.963 7.51663 0.808656 0
M  V30 1880 H 167.231 7.53467 1.99769 0
M  V30 1881 N 171.46 0.379036 1.52974 0
M  V30 1882 C 172.407 -0.461048 2.26148 0
M  V30 1883 C 173.377 -1.06637 1.27349 0
M  V30 1884 O 174.562 -1.09633 1.56157 0
M  V30 1885 C 171.702 -1.58782 3.06402 0
M  V30 1886 C 170.815 -1.00636 4.20115 0
M  V30 1887 C 169.95 -2.10334 4.87784 0
M  V30 1888 C 168.989 -1.49724 5.93506 0
M  V30 1889 N 168.126 -2.5331 6.54812 0
M  V30 1890 H 172.966 0.169429 2.97518 0
M  V30 1891 H 170.503 0.0953806 1.4679 0
M  V30 1892 H 172.461 -2.25174 3.51215 0
M  V30 1893 H 171.091 -2.18876 2.37261 0
M  V30 1894 H 170.143 -0.232332 3.7969 0
M  V30 1895 H 171.455 -0.523343 4.96047 0
M  V30 1896 H 170.609 -2.84519 5.35849 0
M  V30 1897 H 169.348 -2.61992 4.11353 0
M  V30 1898 H 168.353 -0.740598 5.44789 0
M  V30 1899 H 169.578 -0.988732 6.71864 0
M  V30 1900 H 167.524 -3.04156 5.81227 0
M  V30 1901 H 167.441 -2.09734 7.26325 0
M  V30 1902 H 168.709 -3.27155 7.07524 0
M  V30 1903 N 172.938 -1.57226 0.108567 0
M  V30 1904 C 174.354 -1.5766 -0.248058 0
M  V30 1905 C 174.554 -1.12063 -1.67464 0
M  V30 1906 O 173.61 -0.803236 -2.39383 0
M  V30 1907 C 174.923 -3.0069 -0.0242287 0
M  V30 1908 C 176.471 -3.12868 -0.0909372 0
M  V30 1909 C 176.946 -4.57879 0.105067 0
M  V30 1910 N 178.437 -4.63172 0.0506846 0
M  V30 1911 C 179.172 -5.73126 0.177396 0
M  V30 1912 N 178.668 -6.91866 0.359696 0
M  V30 1913 N 180.461 -5.61977 0.117709 0
M  V30 1914 H 172.612 -1.85169 1.04049 0
M  V30 1915 H 174.875 -0.85529 0.40888 0
M  V30 1916 H 174.581 -3.38299 0.961604 0
M  V30 1917 H 174.455 -3.6945 -0.76068 0
M  V30 1918 H 176.842 -2.75124 -1.06729 0
M  V30 1919 H 176.923 -2.46672 0.677225 0
M  V30 1920 H 176.567 -4.96321 1.07834 0
M  V30 1921 H 176.497 -5.22153 -0.682954 0
M  V30 1922 H 178.988 -3.778 -0.0871266 0
M  V30 1923 H 179.301 -7.71503 0.447529 0
M  V30 1924 H 177.646 -6.93874 0.395536 0
M  V30 1925 H 180.837 -4.68094 -0.0236741 0
M  V30 1926 H 181.01 -6.47627 0.219905 0
M  V30 1927 N 174.416 0.165178 -1.56732 0
M  V30 1928 C 175.644 0.896218 -1.86482 0
M  V30 1929 C 176.059 1.75555 -0.694675 0
M  V30 1930 O 175.416 1.79379 0.33607 0
M  V30 1931 C 175.467 1.76792 -3.1532 0
M  V30 1932 O 175.188 0.943239 -4.27825 0
M  V30 1933 C 176.689 2.6081 -3.58459 0
M  V30 1934 H 173.909 0.260064 -0.618553 0
M  V30 1935 H 176.453 0.163428 -2.03846 0
M  V30 1936 H 174.608 2.45398 -2.99764 0
M  V30 1937 H 175.022 1.53998 -5.01383 0
M  V30 1938 H 176.496 3.17579 -4.51495 0
M  V30 1939 H 176.973 3.35977 -2.82872 0
M  V30 1940 H 177.579 1.97526 -3.76648 0
M  V30 1941 N 175.894 1.51508 0.433938 0
M  V30 1942 C 176.824 1.76016 1.53429 0
M  V30 1943 C 177.805 0.610112 1.58782 0
M  V30 1944 O 178.99 0.853177 1.74455 0
M  V30 1945 C 176.12 1.88831 2.9148 0
M  V30 1946 C 175.074 3.04288 3.00987 0
M  V30 1947 C 174.4 3.0229 4.4105 0
M  V30 1948 C 175.7 4.44193 2.74754 0
M  V30 1949 H 177.394 2.68152 1.33171 0
M  V30 1950 H 174.94 1.29035 0.639214 0
M  V30 1951 H 176.893 2.04559 3.6842 0
M  V30 1952 H 175.617 0.933455 3.12976 0
M  V30 1953 H 174.276 2.8827 2.26486 0
M  V30 1954 H 173.924 2.04576 4.59519 0
M  V30 1955 H 173.624 3.79822 4.4834 0
M  V30 1956 H 175.148 3.20116 5.1996 0
M  V30 1957 H 176.562 4.60544 3.41426 0
M  V30 1958 H 174.959 5.23457 2.9345 0
M  V30 1959 H 176.029 4.53996 1.70339 0
M  V30 1960 N 177.372 -0.689602 1.41712 0
M  V30 1961 C 178.6 -1.47827 1.44758 0
M  V30 1962 C 179.015 -1.88721 0.0545703 0
M  V30 1963 O 178.372 -1.57176 -0.927463 0
M  V30 1964 C 178.423 -2.73698 2.3616 0
M  V30 1965 O 178.144 -2.34524 3.7004 0
M  V30 1966 C 179.645 -3.67389 2.48072 0
M  V30 1967 H 176.865 -0.455357 0.49284 0
M  V30 1968 H 179.409 -0.848574 1.86063 0
M  V30 1969 H 177.564 -3.32891 1.98148 0
M  V30 1970 H 177.978 -3.15701 4.18847 0
M  V30 1971 H 179.452 -4.52475 3.16181 0
M  V30 1972 H 179.929 -4.12284 1.51388 0
M  V30 1973 H 180.535 -3.14097 2.86746 0
M  V30 1974 N 178.85 -1.27639 -0.924453 0
M  V30 1975 C 180.096 -1.15345 -1.67532 0
M  V30 1976 C 180.451 0.297096 -1.90092 0
M  V30 1977 O 179.744 1.21374 -1.48253 0
M  V30 1978 C 179.938 -1.87407 -3.04325 0
M  V30 1979 C 179.767 -3.3932 -2.95114 0
M  V30 1980 C 178.537 -4.08644 -2.97218 0
M  V30 1981 C 180.735 -4.35242 -2.73987 0
M  V30 1982 N 178.717 -5.47102 -2.78482 0
M  V30 1983 C 180.088 -5.6099 -2.63988 0
M  V30 1984 C 182.143 -4.25294 -2.589 0
M  V30 1985 C 180.846 -6.77924 -2.40442 0
M  V30 1986 C 182.872 -5.41952 -2.36731 0
M  V30 1987 C 182.234 -6.66658 -2.27478 0
M  V30 1988 H 178.333 -0.47696 -0.619704 0
M  V30 1989 H 180.917 -1.6115 -1.09265 0
M  V30 1990 H 179.088 -1.44053 -3.60699 0
M  V30 1991 H 180.82 -1.6759 -3.68369 0
M  V30 1992 H 177.575 -3.60136 -3.07569 0
M  V30 1993 H 177.999 -6.19852 -2.72236 0
M  V30 1994 H 182.641 -3.29598 -2.64811 0
M  V30 1995 H 180.359 -7.73699 -2.3327 0
M  V30 1996 H 183.945 -5.36137 -2.25938 0
M  V30 1997 H 182.825 -7.55405 -2.10555 0
M  V30 1998 N 180.328 1.1314 -1.09713 0
M  V30 1999 C 181.744 1.36477 -0.827423 0
M  V30 2000 C 181.944 1.93654 0.556817 0
M  V30 2001 O 181 2.15791 1.31112 0
M  V30 2002 C 182.313 2.31334 -1.92106 0
M  V30 2003 C 183.861 2.44943 -1.94864 0
M  V30 2004 C 184.336 3.4311 -3.0338 0
M  V30 2005 N 185.827 3.50662 -3.02639 0
M  V30 2006 C 186.562 4.2651 -3.83246 0
M  V30 2007 N 186.058 5.05485 -4.73768 0
M  V30 2008 N 187.851 4.2184 -3.71493 0
M  V30 2009 H 180.002 0.743807 -1.9895 0
M  V30 2010 H 182.265 0.389823 -0.864143 0
M  V30 2011 H 181.971 1.96483 -2.91698 0
M  V30 2012 H 181.845 3.31381 -1.80184 0
M  V30 2013 H 184.232 2.79079 -0.959099 0
M  V30 2014 H 184.313 1.4481 -2.10864 0
M  V30 2015 H 183.957 3.09704 -4.02549 0
M  V30 2016 H 183.887 4.43055 -2.84622 0
M  V30 2017 H 186.378 2.94315 -2.37039 0
M  V30 2018 H 186.691 5.60675 -5.3185 0
M  V30 2019 H 185.036 5.04708 -4.77802 0
M  V30 2020 H 188.227 3.5922 -3.00131 0
M  V30 2021 H 188.4 4.80697 -4.3455 0
M  V30 2022 N 181.806 0.884767 1.30421 0
M  V30 2023 C 183.052 0.503851 1.96441 0
M  V30 2024 C 183.385 -0.944518 1.69684 0
M  V30 2025 O 182.66 -1.66737 1.00145 0
M  V30 2026 C 182.943 0.779085 3.51571 0
M  V30 2027 C 182.796 2.27807 3.87846 0
M  V30 2028 C 184.115 0.255452 4.39358 0
M  V30 2029 H 181.234 0.184533 0.713524 0
M  V30 2030 H 183.876 1.10872 1.54297 0
M  V30 2031 H 182.026 0.264274 3.876 0
M  V30 2032 H 183.698 2.86127 3.61841 0
M  V30 2033 H 181.941 2.74479 3.35922 0
M  V30 2034 H 182.612 2.42125 4.96064 0
M  V30 2035 H 185.088 0.696079 4.10236 0
M  V30 2036 H 183.964 0.477361 5.4682 0
M  V30 2037 H 184.225 -0.843293 4.33983 0
M  V30 2038 N 183.284 -1.43765 0.645699 0
M  V30 2039 C 184.7 -1.56509 0.312591 0
M  V30 2040 C 184.9 -1.6307 -1.18365 0
M  V30 2041 O 183.956 -1.58167 -1.96824 0
M  V30 2042 C 185.269 -2.82968 1.01733 0
M  V30 2043 C 186.817 -2.96701 0.996865 0
M  V30 2044 C 187.292 -4.25982 1.68236 0
M  V30 2045 N 188.783 -4.32829 1.64964 0
M  V30 2046 C 189.518 -5.31613 2.14885 0
M  V30 2047 N 189.014 -6.36718 2.73061 0
M  V30 2048 N 190.807 -5.23217 2.05428 0
M  V30 2049 H 182.958 -1.3775 1.61675 0
M  V30 2050 H 185.221 -0.661067 0.679481 0
M  V30 2051 H 184.927 -2.84156 2.0724 0
M  V30 2052 H 184.801 -3.72957 0.564177 0
M  V30 2053 H 187.188 -2.95058 -0.0497719 0
M  V30 2054 H 187.269 -2.08022 1.48865 0
M  V30 2055 H 186.913 -4.28386 2.72852 0
M  V30 2056 H 186.843 -5.13545 1.16529 0
M  V30 2057 H 189.334 -3.57493 1.22503 0
M  V30 2058 H 189.647 -7.08401 3.08848 0
M  V30 2059 H 187.992 -6.37362 2.77118 0
M  V30 2060 H 191.183 -4.40019 1.59689 0
M  V30 2061 H 191.356 -6.00045 2.44643 0
M  V30 2062 N 184.763 -0.387143 -1.52771 0
M  V30 2063 C 185.988 0.198407 -2.06449 0
M  V30 2064 C 186.413 1.39918 -1.25716 0
M  V30 2065 O 185.771 1.79099 -0.281657 0
M  V30 2066 C 185.819 0.548893 -3.56398 0
M  V30 2067 O 184.923 1.64315 -3.78252 0
M  V30 2068 H 184.264 0.0237731 -0.663574 0
M  V30 2069 H 186.794 -0.553989 -1.96957 0
M  V30 2070 H 186.804 0.813812 -3.99801 0
M  V30 2071 H 185.479 -0.329005 -4.14597 0
M  V30 2072 H 184.056 1.37211 -3.46738 0
M  V30 2073 N 186.241 1.57166 -0.116904 0
M  V30 2074 C 187.488 1.95123 0.541603 0
M  V30 2075 C 187.816 1.00006 1.6682 0
M  V30 2076 O 187.071 0.0235658 1.95686 0
M  V30 2077 C 187.37 3.39508 1.11664 0
M  V30 2078 C 187.036 4.50762 0.111606 0
M  V30 2079 C 185.698 4.80918 -0.164758 0
M  V30 2080 C 188.05 5.18036 -0.573438 0
M  V30 2081 C 185.378 5.75666 -1.13249 0
M  V30 2082 C 187.73 6.13824 -1.52978 0
M  V30 2083 C 186.394 6.42374 -1.81415 0
M  V30 2084 H 185.664 0.714005 0.198187 0
M  V30 2085 H 188.311 1.9048 -0.197365 0
M  V30 2086 H 186.616 3.40835 1.93232 0
M  V30 2087 H 188.313 3.66189 1.63422 0
M  V30 2088 H 184.903 4.27272 0.337192 0
M  V30 2089 H 189.087 4.94896 -0.373092 0
M  V30 2090 H 184.343 5.96092 -1.35958 0
M  V30 2091 H 188.517 6.65039 -2.06629 0
M  V30 2092 H 186.144 7.15599 -2.56557 0
M  V30 2093 N 187.719 -0.156864 1.56817 0
M  V30 2094 C 189.13 -0.717916 1.72345 0
M  V30 2095 C 189.481 -1.82124 0.729747 0
M  V30 2096 O 188.606 -2.16141 -0.105781 0
M  V30 2097 C 189.201 -1.30904 3.12489 0
M  V30 2098 C 187.76 -1.81676 3.29653 0
M  V30 2099 C 186.907 -0.701349 2.68284 0
M  V30 2100 H 189.858 0.0686989 1.58551 0
M  V30 2101 H 189.879 -2.17882 3.11942 0
M  V30 2102 H 189.391 -0.505796 3.8479 0
M  V30 2103 H 187.492 -2.64598 2.62333 0
M  V30 2104 H 187.605 -1.95226 4.3752 0
M  V30 2105 H 185.969 -1.12548 2.28484 0
M  V30 2106 H 186.752 0.0902846 3.43181 0
M  V30 2107 N 189.197 -1.51736 -0.425897 0
M  V30 2108 C 190.129 -1.70083 -1.53638 0
M  V30 2109 C 191.142 -0.581349 -1.52066 0
M  V30 2110 O 192.331 -0.856017 -1.56635 0
M  V30 2111 C 189.431 -1.71078 -2.9255 0
M  V30 2112 C 188.604 -2.99795 -3.185 0
M  V30 2113 C 187.663 -2.92825 -4.37196 0
M  V30 2114 O 186.689 -3.66756 -4.35291 0
M  V30 2115 N 187.891 -2.0946 -5.41393 0
M  V30 2116 H 190.656 -2.65882 -1.383 0
M  V30 2117 H 188.217 -1.49765 -0.614988 0
M  V30 2118 H 190.209 -1.63969 -3.69995 0
M  V30 2119 H 188.779 -0.828242 -3.01428 0
M  V30 2120 H 187.999 -3.20684 -2.2925 0
M  V30 2121 H 189.287 -3.84977 -3.32671 0
M  V30 2122 H 188.685 -1.48792 -5.45781 0
M  V30 2123 H 187.242 -2.08221 -6.17647 0
M  V30 2124 N 190.675 0.682077 -1.42076 0
M  V30 2125 C 191.9 1.47558 -1.45744 0
M  V30 2126 C 192.325 1.87977 -0.0680981 0
M  V30 2127 O 191.683 1.55522 0.9318 0
M  V30 2128 C 191.731 2.70575 -2.38373 0
M  V30 2129 O 190.835 3.68573 -1.85007 0
M  V30 2130 H 190.176 0.443585 -0.494093 0
M  V30 2131 H 192.706 0.837238 -1.86686 0
M  V30 2132 H 192.716 3.18729 -2.54707 0
M  V30 2133 H 191.391 2.40495 -3.39315 0
M  V30 2134 H 189.968 3.2757 -1.78192 0
M  V30 2135 N 192.153 1.28127 0.917671 0
M  V30 2136 C 193.378 1.18007 1.70555 0
M  V30 2137 C 193.803 -0.258257 1.86319 0
M  V30 2138 O 193.161 -1.1869 1.37049 0
M  V30 2139 C 193.209 1.87948 3.07746 0
M  V30 2140 O 192.313 1.18427 3.9503 0
M  V30 2141 H 191.654 0.409867 0.522403 0
M  V30 2142 H 194.184 1.69379 1.1477 0
M  V30 2143 H 194.194 1.95701 3.58001 0
M  V30 2144 H 192.869 2.92573 2.95591 0
M  V30 2145 H 191.446 1.18811 3.53466 0
M  V30 2146 N 193.631 -1.12557 1.10312 0
M  V30 2147 C 194.563 -2.17971 0.708625 0
M  V30 2148 C 195.576 -1.60806 -0.254027 0
M  V30 2149 O 196.765 -1.78458 -0.0386891 0
M  V30 2150 C 193.865 -3.38891 0.0248198 0
M  V30 2151 C 193.038 -4.25548 1.01132 0
M  V30 2152 C 192.097 -5.24972 0.35924 0
M  V30 2153 O 191.123 -5.60174 1.00965 0
M  V30 2154 N 192.325 -5.73747 -0.882847 0
M  V30 2155 H 195.09 -2.52427 1.61557 0
M  V30 2156 H 192.651 -1.27967 0.991771 0
M  V30 2157 H 194.643 -4.02485 -0.422852 0
M  V30 2158 H 193.213 -3.02596 -0.784514 0
M  V30 2159 H 192.433 -3.58589 1.6373 0
M  V30 2160 H 193.721 -4.80294 1.67914 0
M  V30 2161 H 193.119 -5.4731 -1.43065 0
M  V30 2162 H 191.676 -6.39234 -1.27369 0
M  V30 2163 N 195.109 -0.891671 -1.2995 0
M  V30 2164 C 196.039 -0.379797 -2.30391 0
M  V30 2165 C 197.02 0.540919 -1.6127 0
M  V30 2166 O 198.205 0.453352 -1.88834 0
M  V30 2167 C 195.335 0.400654 -3.44981 0
M  V30 2168 C 194.289 -0.428905 -4.25846 0
M  V30 2169 C 193.615 0.478557 -5.32554 0
M  V30 2170 C 194.915 -1.67458 -4.94727 0
M  V30 2171 H 196.609 -1.21914 -2.73454 0
M  V30 2172 H 194.155 -0.587675 -1.31462 0
M  V30 2173 H 196.108 0.769434 -4.14316 0
M  V30 2174 H 194.832 1.27371 -3.0074 0
M  V30 2175 H 193.491 -0.779911 -3.58208 0
M  V30 2176 H 193.139 1.34951 -4.84559 0
M  V30 2177 H 192.839 -0.0727433 -5.87555 0
M  V30 2178 H 194.363 0.843705 -6.04743 0
M  V30 2179 H 195.777 -1.376 -5.56542 0
M  V30 2180 H 194.174 -2.16659 -5.59624 0
M  V30 2181 H 195.244 -2.41518 -4.20473 0
M  V30 2182 N 196.587 1.43421 -0.653314 0
M  V30 2183 C 197.812 2.06678 -0.172846 0
M  V30 2184 C 198.237 1.48648 1.15262 0
M  V30 2185 O 197.595 0.596457 1.71208 0
M  V30 2186 C 197.643 3.60474 -0.0953184 0
M  V30 2187 O 196.747 4.01487 0.942442 0
M  V30 2188 H 196.088 0.657181 -0.0949155 0
M  V30 2189 H 198.618 1.83925 -0.896265 0
M  V30 2190 H 198.628 4.07905 0.0879728 0
M  V30 2191 H 197.303 4.02088 -1.06291 0
M  V30 2192 H 195.88 3.65646 0.731932 0
M  V30 2193 N 198.065 0.39524 1.52563 0
M  V30 2194 C 198.997 -0.472201 2.24283 0
M  V30 2195 C 200.01 -1.02178 1.26742 0
M  V30 2196 O 201.199 -0.923097 1.52778 0
M  V30 2197 C 198.299 -1.66775 2.95024 0
M  V30 2198 C 197.472 -1.2445 4.19322 0
M  V30 2199 C 196.531 -2.30539 4.7301 0
M  V30 2200 O 195.557 -1.91702 5.35947 0
M  V30 2201 N 196.759 -3.6253 4.53379 0
M  V30 2202 H 199.524 0.142282 2.99362 0
M  V30 2203 H 197.085 0.2219 1.60372 0
M  V30 2204 H 199.077 -2.37283 3.27839 0
M  V30 2205 H 197.647 -2.18845 2.23217 0
M  V30 2206 H 196.867 -0.368069 3.92478 0
M  V30 2207 H 198.155 -0.938457 5.0007 0
M  V30 2208 H 197.553 -3.96841 4.03154 0
M  V30 2209 H 196.11 -4.29055 4.90668 0
M  V30 2210 N 199.544 -1.57102 0.125237 0
M  V30 2211 C 200.454 -2.19191 -0.8362 0
M  V30 2212 C 201.47 -1.16985 -1.28805 0
M  V30 2213 O 202.646 -1.49479 -1.34974 0
M  V30 2214 C 199.711 -2.78407 -2.06617 0
M  V30 2215 C 198.772 -3.9567 -1.66565 0
M  V30 2216 C 198.005 -4.52052 -2.83698 0
M  V30 2217 O 198.228 -4.07326 -3.99302 0
M  V30 2218 O 197.162 -5.42645 -2.60423 0
M  V30 2219 H 200.988 -3.01816 -0.337776 0
M  V30 2220 H 198.573 -1.4906 -0.100695 0
M  V30 2221 H 200.455 -3.16129 -2.7864 0
M  V30 2222 H 199.13 -1.9881 -2.55453 0
M  V30 2223 H 198.037 -3.62705 -0.916296 0
M  V30 2224 H 199.37 -4.76722 -1.22464 0
M  V30 2225 N 201.022 0.148545 -1.56898 0
M  V30 2226 C 202.25 0.876389 -1.87422 0
M  V30 2227 C 202.665 1.74809 -0.713256 0
M  V30 2228 O 202.022 1.79725 0.317025 0
M  V30 2229 C 202.073 1.73438 -3.17178 0
M  V30 2230 O 201.794 0.897809 -4.28802 0
M  V30 2231 C 203.295 2.56993 -3.61205 0
M  V30 2232 H 200.515 0.253489 -0.621277 0
M  V30 2233 H 203.059 0.141798 -2.04008 0
M  V30 2234 H 201.214 2.42205 -3.0235 0
M  V30 2235 H 201.628 1.48672 -5.02988 0
M  V30 2236 H 203.102 3.12773 -4.54838 0
M  V30 2237 H 203.579 3.32958 -2.86419 0
M  V30 2238 H 204.185 1.9352 -3.78722 0
M  V30 2239 N 202.5 1.5196 0.417844 0
M  V30 2240 C 203.746 1.65836 1.16732 0
M  V30 2241 C 204.079 0.382881 1.90388 0
M  V30 2242 O 203.354 -0.618368 1.84408 0
M  V30 2243 C 203.637 2.87466 2.16876 0
M  V30 2244 C 203.49 4.25041 1.47174 0
M  V30 2245 C 204.809 3.04613 3.17646 0
M  V30 2246 H 201.928 0.603515 0.423011 0
M  V30 2247 H 204.57 1.84494 0.454105 0
M  V30 2248 H 202.72 2.71689 2.777 0
M  V30 2249 H 204.392 4.52527 0.895376 0
M  V30 2250 H 202.635 4.26843 0.773806 0
M  V30 2251 H 203.306 5.06176 2.20204 0
M  V30 2252 H 205.782 3.1923 2.66892 0
M  V30 2253 H 204.658 3.91247 3.8499 0
M  V30 2254 H 204.919 2.17541 3.84874 0
M  V30 2255 N 203.978 -0.674533 1.42435 0
M  V30 2256 C 205.394 -0.98769 1.25367 0
M  V30 2257 C 205.594 -2.00879 0.158044 0
M  V30 2258 O 204.65 -2.48075 -0.470633 0
M  V30 2259 C 205.963 -1.49224 2.6106 0
M  V30 2260 C 207.511 -1.61 2.68417 0
M  V30 2261 C 207.986 -2.14852 4.04478 0
M  V30 2262 N 209.477 -2.22185 4.06434 0
M  V30 2263 C 210.212 -2.64928 5.08528 0
M  V30 2264 N 209.708 -3.07121 6.21006 0
M  V30 2265 N 211.501 -2.64679 4.95885 0
M  V30 2266 H 203.652 0.00152503 2.124 0
M  V30 2267 H 205.915 -0.0618434 0.945981 0
M  V30 2268 H 205.621 -0.816453 3.42092 0
M  V30 2269 H 205.495 -2.47094 2.84999 0
M  V30 2270 H 207.882 -2.27686 1.87732 0
M  V30 2271 H 207.963 -0.616195 2.48267 0
M  V30 2272 H 207.607 -1.48775 4.85622 0
M  V30 2273 H 207.537 -3.15024 4.2198 0
M  V30 2274 H 210.028 -1.92435 3.25234 0
M  V30 2275 H 210.341 -3.38423 6.94759 0
M  V30 2276 H 208.686 -3.04978 6.24511 0
M  V30 2277 H 211.877 -2.31078 4.07088 0
M  V30 2278 H 212.05 -2.9767 5.75584 0
M  V30 2279 N 205.456 -1.28612 -0.910864 0
M  V30 2280 C 206.702 -1.16106 -1.66274 0
M  V30 2281 C 207.035 0.289113 -1.92036 0
M  V30 2282 O 206.31 1.21 -1.52281 0
M  V30 2283 C 206.593 -1.96309 -3.01885 0
M  V30 2284 C 206.446 -3.49405 -2.8326 0
M  V30 2285 C 207.765 -1.78076 -4.02463 0
M  V30 2286 H 204.884 -0.423152 -0.603417 0
M  V30 2287 H 207.526 -1.57961 -1.05586 0
M  V30 2288 H 205.676 -1.60742 -3.53687 0
M  V30 2289 H 207.348 -3.94894 -2.38446 0
M  V30 2290 H 205.591 -3.74893 -2.18261 0
M  V30 2291 H 206.262 -4.00784 -3.79574 0
M  V30 2292 H 208.738 -2.0912 -3.59733 0
M  V30 2293 H 207.614 -2.36561 -4.95308 0
M  V30 2294 H 207.875 -0.733008 -4.35981 0
M  V30 2295 N 206.934 1.1197 -1.10907 0
M  V30 2296 C 207.864 2.19928 -0.784473 0
M  V30 2297 C 208.845 1.6833 0.244726 0
M  V30 2298 O 210.03 1.93892 0.109418 0
M  V30 2299 C 207.16 3.46597 -0.220827 0
M  V30 2300 C 206.114 4.11376 -1.18127 0
M  V30 2301 C 205.44 5.32554 -0.478594 0
M  V30 2302 C 206.74 4.56945 -2.52979 0
M  V30 2303 H 208.434 2.47337 -1.68715 0
M  V30 2304 H 205.98 1.18879 -0.812642 0
M  V30 2305 H 207.933 4.21396 0.0184278 0
M  V30 2306 H 206.657 3.1863 0.717113 0
M  V30 2307 H 205.316 3.38564 -1.40606 0
M  V30 2308 H 204.964 5.00856 0.463976 0
M  V30 2309 H 204.664 5.76844 -1.11912 0
M  V30 2310 H 206.188 6.10096 -0.248 0
M  V30 2311 H 207.602 5.23093 -2.3462 0
M  V30 2312 H 205.999 5.1203 -3.12962 0
M  V30 2313 H 207.069 3.70676 -3.12614 0
M  V30 2314 N 208.412 0.89855 1.29475 0
M  V30 2315 C 209.345 0.319981 2.25945 0
M  V30 2316 C 210.323 -0.567189 1.52387 0
M  V30 2317 O 211.507 -0.514254 1.8135 0
M  V30 2318 C 208.634 -0.544013 3.34303 0
M  V30 2319 C 207.68 0.275682 4.25608 0
M  V30 2320 S 208.513 1.67272 5.08704 0
M  V30 2321 C 209.669 0.815621 6.20563 0
M  V30 2322 H 209.902 1.13767 2.74671 0
M  V30 2323 H 207.435 0.69882 1.3768 0
M  V30 2324 H 209.393 -1.03673 3.97193 0
M  V30 2325 H 208.054 -1.33593 2.84274 0
M  V30 2326 H 207.247 -0.384263 5.02533 0
M  V30 2327 H 206.849 0.701496 3.67362 0
M  V30 2328 H 209.141 0.0385042 6.77489 0
M  V30 2329 H 210.084 1.55691 6.90772 0
M  V30 2330 H 210.492 0.370516 5.63283 0
M  V30 2331 N 209.89 -1.43072 0.660911 0
M  V30 2332 C 211.115 -2.06584 0.183805 0
M  V30 2333 C 211.54 -1.49257 -1.14472 0
M  V30 2334 O 210.898 -0.605528 -1.70889 0
M  V30 2335 C 210.946 -3.60418 0.114434 0
M  V30 2336 O 210.05 -4.01981 -0.921137 0
M  V30 2337 H 209.391 -0.656669 0.0983994 0
M  V30 2338 H 211.921 -1.83447 0.906006 0
M  V30 2339 H 211.931 -4.07946 -0.0663394 0
M  V30 2340 H 210.606 -4.01519 1.08422 0
M  V30 2341 H 209.183 -3.66029 -0.71253 0
M  V30 2342 N 211.368 -0.403325 -1.52352 0
M  V30 2343 C 212.598 0.17376 -2.05868 0
M  V30 2344 C 213.006 1.39898 -1.27378 0
M  V30 2345 O 212.349 1.80939 -0.31729 0
M  V30 2346 C 212.411 0.594756 -3.54546 0
M  V30 2347 C 212.075 -0.518926 -4.54044 0
M  V30 2348 C 213.072 -1.3807 -5.01231 0
M  V30 2349 C 210.757 -0.689961 -4.97539 0
M  V30 2350 C 212.751 -2.39852 -5.90551 0
M  V30 2351 C 210.438 -1.71109 -5.86656 0
M  V30 2352 C 211.436 -2.56378 -6.33056 0
M  V30 2353 O 211.124 -3.56743 -7.20409 0
M  V30 2354 H 210.856 0.0264951 -0.675481 0
M  V30 2355 H 213.41 -0.571179 -1.97299 0
M  V30 2356 H 211.64 1.39189 -3.60782 0
M  V30 2357 H 213.329 1.0991 -3.90736 0
M  V30 2358 H 214.095 -1.25994 -4.68349 0
M  V30 2359 H 209.974 -0.035939 -4.60986 0
M  V30 2360 H 213.518 -3.06441 -6.26689 0
M  V30 2361 H 209.415 -1.83218 -6.18952 0
M  V30 2362 H 210.183 -3.52918 -7.38506 0
M  V30 2363 N 212.846 1.57033 -0.133567 0
M  V30 2364 C 213.809 2.14897 0.796995 0
M  V30 2365 C 214.809 1.0874 1.18458 0
M  V30 2366 O 215.999 1.34446 1.1077 0
M  V30 2367 C 213.131 2.70112 2.07973 0
M  V30 2368 H 214.324 2.98457 0.293873 0
M  V30 2369 H 211.877 1.55871 0.115787 0
M  V30 2370 H 212.612 1.9018 2.62682 0
M  V30 2371 H 212.397 3.47764 1.81115 0
M  V30 2372 H 213.887 3.14738 2.74462 0
M  V30 2373 N 214.325 -0.140222 1.56975 0
M  V30 2374 C 215.255 -1.17456 2.01808 0
M  V30 2375 C 216.236 -1.44415 0.898794 0
M  V30 2376 O 217.421 -1.5522 1.16707 0
M  V30 2377 C 214.551 -2.50607 2.40444 0
M  V30 2378 C 213.505 -2.38155 3.55621 0
M  V30 2379 C 212.831 -3.76078 3.80091 0
M  V30 2380 C 214.131 -1.85991 4.88062 0
M  V30 2381 H 215.825 -0.801743 2.88466 0
M  V30 2382 H 213.371 -0.38422 1.38779 0
M  V30 2383 H 215.324 -3.23197 2.7041 0
M  V30 2384 H 214.048 -2.89737 1.50732 0
M  V30 2385 H 212.707 -1.68016 3.25832 0
M  V30 2386 H 212.355 -4.12656 2.87618 0
M  V30 2387 H 212.055 -3.68606 4.57606 0
M  V30 2388 H 213.579 -4.50206 4.12488 0
M  V30 2389 H 214.993 -2.4838 5.16701 0
M  V30 2390 H 213.39 -1.89393 5.6943 0
M  V30 2391 H 214.46 -0.816023 4.77984 0
M  V30 2392 N 215.803 -1.52179 -0.40978 0
M  V30 2393 C 216.736 -1.70196 -1.52015 0
M  V30 2394 C 217.714 -0.549542 -1.53032 0
M  V30 2395 O 218.898 -0.776815 -1.71749 0
M  V30 2396 C 216.025 -1.74069 -2.90547 0
M  V30 2397 C 215.071 -2.95601 -3.07445 0
M  V30 2398 S 215.904 -4.55956 -2.80827 0
M  V30 2399 C 217.06 -4.62614 -4.21591 0
M  V30 2400 H 217.293 -2.64109 -1.36504 0
M  V30 2401 H 214.826 -1.4221 -0.601312 0
M  V30 2402 H 216.784 -1.76985 -3.70387 0
M  V30 2403 H 215.445 -0.812835 -3.034 0
M  V30 2404 H 214.638 -2.94791 -4.08796 0
M  V30 2405 H 214.24 -2.90569 -2.35469 0
M  V30 2406 H 216.532 -4.39951 -5.15218 0
M  V30 2407 H 217.475 -5.64548 -4.27424 0
M  V30 2408 H 217.883 -3.91654 -4.06531 0
M  V30 2409 N 217.281 0.66697 -1.42791 0
M  V30 2410 C 218.244 1.76211 -1.46568 0
M  V30 2411 C 219.244 1.56896 -0.352196 0
M  V30 2412 O 220.434 1.63044 -0.613364 0
M  V30 2413 C 217.566 3.14935 -1.30494 0
M  V30 2414 H 218.759 1.74247 -2.44086 0
M  V30 2415 H 216.312 0.877342 -1.29354 0
M  V30 2416 H 217.047 3.2252 -0.339301 0
M  V30 2417 H 216.832 3.30359 -2.11199 0
M  V30 2418 H 218.322 3.94821 -1.36038 0
M  V30 2419 N 218.759 1.29093 0.90403 0
M  V30 2420 C 220.005 1.17996 1.65676 0
M  V30 2421 C 220.36 -0.266816 1.90541 0
M  V30 2422 O 219.653 -1.19 1.50165 0
M  V30 2423 C 219.847 1.92224 3.01305 0
M  V30 2424 C 219.676 3.43972 2.89678 0
M  V30 2425 C 218.446 4.1332 2.90679 0
M  V30 2426 C 220.644 4.39546 2.67028 0
M  V30 2427 N 218.626 5.51463 2.69743 0
M  V30 2428 C 219.997 5.65119 2.5503 0
M  V30 2429 C 222.052 4.29359 2.52101 0
M  V30 2430 C 220.755 6.81663 2.29626 0
M  V30 2431 C 222.781 5.4565 2.28079 0
M  V30 2432 C 222.143 6.70193 2.16843 0
M  V30 2433 H 218.242 0.486759 0.612037 0
M  V30 2434 H 220.826 1.62868 1.06688 0
M  V30 2435 H 218.997 1.49773 3.58361 0
M  V30 2436 H 220.729 1.73429 3.65656 0
M  V30 2437 H 217.484 3.64984 3.01801 0
M  V30 2438 H 217.908 6.24105 2.6234 0
M  V30 2439 H 222.55 3.33769 2.59534 0
M  V30 2440 H 220.268 7.77313 2.20932 0
M  V30 2441 H 223.854 5.39664 2.1738 0
M  V30 2442 H 222.734 7.58659 1.98511 0
M  V30 2443 N 220.237 -1.11381 1.11499 0
M  V30 2444 C 221.485 -1.8277 0.862524 0
M  V30 2445 C 221.806 -1.85097 -0.613534 0
M  V30 2446 O 221.076 -1.32198 -1.4457 0
M  V30 2447 H 219.656 -0.676823 0.316101 0
M  V30 2448 H 222.318 -1.34816 1.4075 0
M  V30 2449 H 221.414 -2.86614 1.23527 0
M  V30 2450 N 221.715 -0.905404 -1.28997 0
M  V30 2451 C 222.648 -0.331959 -2.25773 0
M  V30 2452 C 223.626 0.559099 -1.52685 0
M  V30 2453 O 224.81 0.50463 -1.8162 0
M  V30 2454 C 221.937 0.526276 -3.34586 0
M  V30 2455 C 220.983 -0.298249 -4.25456 0
M  V30 2456 S 221.816 -1.69968 -5.0781 0
M  V30 2457 C 222.972 -0.848519 -6.20122 0
M  V30 2458 H 223.205 -1.15222 -2.74064 0
M  V30 2459 H 220.738 -0.706112 -1.37308 0
M  V30 2460 H 222.696 1.01565 -3.97737 0
M  V30 2461 H 221.357 1.32084 -2.84978 0
M  V30 2462 H 220.55 0.357607 -5.0273 0
M  V30 2463 H 220.152 -0.720968 -3.66985 0
M  V30 2464 H 222.444 -0.0744325 -6.77459 0
M  V30 2465 H 223.387 -1.59353 -6.89937 0
M  V30 2466 H 223.795 -0.400383 -5.63078 0
M  V30 2467 N 223.193 1.4272 -0.668489 0
M  V30 2468 C 224.103 2.34596 0.0139753 0
M  V30 2469 C 225.119 1.5474 0.795703 0
M  V30 2470 O 226.295 1.87334 0.739466 0
M  V30 2471 C 223.36 3.33202 0.957982 0
M  V30 2472 C 222.421 4.28957 0.17149 0
M  V30 2473 C 221.654 5.22853 1.07053 0
M  V30 2474 O 221.877 5.21531 2.31001 0
M  V30 2475 O 220.811 5.9952 0.534727 0
M  V30 2476 H 224.637 2.9448 -0.742661 0
M  V30 2477 H 222.222 1.43117 -0.428705 0
M  V30 2478 H 224.104 3.93796 1.50008 0
M  V30 2479 H 222.779 2.758 1.69458 0
M  V30 2480 H 221.686 3.71796 -0.414558 0
M  V30 2481 H 223.019 4.89383 -0.52586 0
M  V30 2482 N 224.671 0.411399 1.52136 0
M  V30 2483 C 225.896 -0.165538 2.06738 0
M  V30 2484 C 226.321 -1.379 1.27926 0
M  V30 2485 O 225.679 -1.78628 0.310114 0
M  V30 2486 C 225.727 -0.492124 3.57226 0
M  V30 2487 O 224.831 -1.58276 3.80818 0
M  V30 2488 H 224.172 -0.0132132 0.663869 0
M  V30 2489 H 226.702 0.585253 1.96051 0
M  V30 2490 H 226.712 -0.750104 4.01045 0
M  V30 2491 H 225.387 0.394922 4.14021 0
M  V30 2492 H 223.964 -1.31677 3.48877 0
M  V30 2493 N 226.149 -1.5696 0.141893 0
M  V30 2494 C 227.397 -1.95573 -0.509484 0
M  V30 2495 C 227.718 -1.02746 -1.65736 0
M  V30 2496 O 226.988 -0.0880311 -1.95702 0
M  V30 2497 H 225.568 -0.722115 -0.191205 0
M  V30 2498 H 228.23 -1.93697 0.216196 0
M  V30 2499 H 227.326 -2.99171 -0.889 0
M  V30 2500 N 227.627 0.131896 -1.57047 0
M  V30 2501 C 228.557 1.16384 -2.02428 0
M  V30 2502 C 229.538 1.43936 -0.90644 0
M  V30 2503 O 230.723 1.54599 -1.17528 0
M  V30 2504 C 227.853 2.49328 -2.4177 0
M  V30 2505 C 226.807 2.36266 -3.56879 0
M  V30 2506 C 226.133 3.74057 -3.8208 0
M  V30 2507 C 227.433 1.834 -4.89042 0
M  V30 2508 H 229.127 0.786433 -2.88887 0
M  V30 2509 H 226.673 0.376855 -1.38981 0
M  V30 2510 H 228.626 3.21759 -2.7212 0
M  V30 2511 H 227.35 2.88934 -1.52266 0
M  V30 2512 H 226.009 1.66286 -3.26718 0
M  V30 2513 H 225.657 4.11125 -2.89803 0
M  V30 2514 H 225.357 3.66174 -4.59554 0
M  V30 2515 H 226.881 4.48012 -4.1487 0
M  V30 2516 H 228.295 2.45636 -5.18011 0
M  V30 2517 H 226.692 1.8637 -5.70426 0
M  V30 2518 H 227.762 0.790662 -4.7841 0
M  V30 2519 N 229.106 1.52395 0.401703 0
M  V30 2520 C 230.334 1.70676 1.16949 0
M  V30 2521 C 230.749 0.419503 1.8408 0
M  V30 2522 O 230.106 -0.605061 1.72178 0
M  V30 2523 C 230.157 2.84753 2.22706 0
M  V30 2524 O 229.878 4.08495 1.58314 0
M  V30 2525 C 231.379 3.14608 3.12309 0
M  V30 2526 H 228.599 0.571787 0.351142 0
M  V30 2527 H 231.143 1.98987 0.471652 0
M  V30 2528 H 229.298 2.58941 2.88147 0
M  V30 2529 H 229.712 4.72117 2.28485 0
M  V30 2530 H 231.186 3.97923 3.82572 0
M  V30 2531 H 231.663 2.28464 3.75101 0
M  V30 2532 H 232.269 3.42212 2.52529 0
M  V30 2533 N 230.584 -0.659388 1.43143 0
M  V30 2534 C 231.831 -1.41935 1.44433 0
M  V30 2535 C 232.159 -1.94387 0.0663522 0
M  V30 2536 O 231.414 -1.72314 -0.927706 0
M  V30 2537 C 231.713 -2.62206 2.42864 0
M  V30 2538 C 231.379 -2.28208 3.88886 0
M  V30 2539 C 230.041 -2.18647 4.28657 0
M  V30 2540 C 232.393 -2.00887 4.8093 0
M  V30 2541 C 229.721 -1.79914 5.58433 0
M  V30 2542 C 232.073 -1.63653 6.11065 0
M  V30 2543 C 230.737 -1.52614 6.49819 0
M  V30 2544 H 230.007 -0.519376 0.528517 0
M  V30 2545 H 232.654 -0.750453 1.76183 0
M  V30 2546 H 230.959 -3.34199 2.04495 0
M  V30 2547 H 232.656 -3.2041 2.41119 0
M  V30 2548 H 229.246 -2.36557 3.57406 0
M  V30 2549 H 233.43 -2.07198 4.5098 0
M  V30 2550 H 228.686 -1.69948 5.87305 0
M  V30 2551 H 232.86 -1.41543 6.81864 0
M  V30 2552 H 230.487 -1.22371 7.50286 0
M  V30 2553 N 232.062 -1.29571 -0.897171 0
M  V30 2554 C 233.012 -1.11539 -1.98855 0
M  V30 2555 C 233.996 -0.0340716 -1.60864 0
M  V30 2556 O 235.188 -0.256062 -1.75138 0
M  V30 2557 C 232.317 -0.796603 -3.3393 0
M  V30 2558 C 231.403 -1.91758 -3.78272 0
M  V30 2559 N 231.794 -3.16143 -3.94826 0
M  V30 2560 C 230.092 -1.81119 -4.07568 0
M  V30 2561 C 230.793 -3.89293 -4.32233 0
M  V30 2562 N 229.769 -3.17255 -4.41419 0
M  V30 2563 H 233.571 -2.05894 -2.09726 0
M  V30 2564 H 231.085 -1.20732 -1.08616 0
M  V30 2565 H 233.082 -0.648459 -4.11826 0
M  V30 2566 H 231.742 0.139003 -3.24402 0
M  V30 2567 H 232.753 -3.5157 -3.80288 0
M  V30 2568 H 229.43 -0.948461 -4.06584 0
M  V30 2569 H 230.82 -4.9635 -4.52865 0
M  V30 2570 N 233.54 1.10788 -1.12088 0
M  V30 2571 C 234.45 2.20599 -0.798338 0
M  V30 2572 C 235.466 1.72712 0.21135 0
M  V30 2573 O 236.642 2.01348 0.0458477 0
M  V30 2574 C 233.707 3.45771 -0.253674 0
M  V30 2575 C 232.768 4.08411 -1.32283 0
M  V30 2576 C 232.001 5.27608 -0.80406 0
M  V30 2577 O 232.224 5.69241 0.363478 0
M  V30 2578 O 231.158 5.8101 -1.57198 0
M  V30 2579 H 234.984 2.50614 -1.7154 0
M  V30 2580 H 232.569 1.19454 -0.897275 0
M  V30 2581 H 234.451 4.21376 0.0453691 0
M  V30 2582 H 233.126 3.1739 0.636005 0
M  V30 2583 H 232.033 3.34507 -1.67499 0
M  V30 2584 H 233.366 4.40986 -2.18614 0
M  V30 2585 N 235.018 0.912232 1.28515 0
M  V30 2586 C 236.264 0.545405 1.95328 0
M  V30 2587 C 236.597 -0.908313 1.71649 0
M  V30 2588 O 235.872 -1.64575 1.03659 0
M  V30 2589 C 236.155 0.853483 3.4984 0
M  V30 2590 C 236.008 2.35982 3.82926 0
M  V30 2591 C 237.327 0.348589 4.38717 0
M  V30 2592 H 234.446 0.199626 0.709449 0
M  V30 2593 H 237.088 1.1412 1.5191 0
M  V30 2594 H 235.238 0.34643 3.86952 0
M  V30 2595 H 236.91 2.93738 3.55691 0
M  V30 2596 H 235.153 2.81543 3.30024 0
M  V30 2597 H 235.824 2.52593 4.90816 0
M  V30 2598 H 238.3 0.78294 4.08668 0
M  V30 2599 H 237.176 0.593242 5.45685 0
M  V30 2600 H 237.437 -0.751049 4.35674 0
M  V30 2601 N 236.496 -1.42363 0.676048 0
M  V30 2602 C 237.773 -1.95183 0.127726 0
M  V30 2603 C 238.153 -1.61641 -1.35777 0
M  V30 2604 O 237.501 -0.913216 -2.09458 0
M  V30 2605 C 237.711 -3.46721 0.398199 0
M  V30 2606 C 239.059 -4.23427 0.315383 0
M  V30 2607 O 240.083 -3.54649 0.332016 0
M  V30 2608 O 238.942 -5.45888 0.25865 0
M  V30 2609 H 236.036 -0.826992 0.00359427 0
M  V30 2610 H 238.582 -1.52184 0.750864 0
M  V30 2611 H 237.354 -3.64344 1.4272 0
M  V30 2612 H 236.977 -3.96769 -0.256885 0
M  V30 2613 N 237.974 -0.419461 -1.51915 0
M  V30 2614 C 239.199 0.154572 -2.06823 0
M  V30 2615 C 239.624 1.3722 -1.28656 0
M  V30 2616 O 238.982 1.78461 -0.319583 0
M  V30 2617 C 239.03 0.473172 -3.57482 0
M  V30 2618 O 238.134 1.56255 -3.81652 0
M  V30 2619 H 237.475 0.0096924 -0.663929 0
M  V30 2620 H 240.005 -0.595642 -1.95738 0
M  V30 2621 H 240.015 0.728825 -4.01438 0
M  V30 2622 H 238.69 -0.416873 -4.13805 0
M  V30 2623 H 237.267 1.29825 -3.49571 0
M  V30 2624 N 239.452 1.56882 -0.150215 0
M  V30 2625 C 240.863 1.82995 0.370076 0
M  V30 2626 C 241.214 1.06907 1.64515 0
M  V30 2627 O 240.339 0.315369 2.1409 0
M  V30 2628 C 240.934 3.31942 0.678208 0
M  V30 2629 C 239.493 3.58625 1.14301 0
M  V30 2630 C 238.64 2.76792 0.167778 0
M  V30 2631 H 241.591 1.54209 -0.374858 0
M  V30 2632 H 241.612 3.48272 1.53254 0
M  V30 2633 H 241.124 3.87294 -0.249991 0
M  V30 2634 H 239.225 3.08664 2.08704 0
M  V30 2635 H 239.338 4.67073 1.06676 0
M  V30 2636 H 237.702 2.45972 0.661037 0
M  V30 2637 H 238.485 3.34916 -0.754069 0
M  V30 2638 N 240.93 -0.123565 1.57115 0
M  V30 2639 C 241.862 -1.17739 1.96648 0
M  V30 2640 C 242.875 -1.37906 0.865201 0
M  V30 2641 O 244.064 -1.37062 1.14351 0
M  V30 2642 C 241.164 -2.53821 2.24562 0
M  V30 2643 C 240.337 -2.54317 3.55867 0
M  V30 2644 C 239.396 -3.72112 3.72047 0
M  V30 2645 O 238.422 -3.55907 4.44206 0
M  V30 2646 N 239.624 -4.90498 3.10471 0
M  V30 2647 H 242.389 -0.841147 2.87654 0
M  V30 2648 H 239.95 -0.31289 1.58848 0
M  V30 2649 H 241.942 -3.31175 2.32606 0
M  V30 2650 H 240.512 -2.79645 1.39705 0
M  V30 2651 H 239.732 -1.62711 3.59053 0
M  V30 2652 H 241.02 -2.51701 4.42181 0
M  V30 2653 H 240.418 -5.06567 2.51806 0
M  V30 2654 H 238.975 -5.65544 3.24043 0
M  V30 2655 N 242.408 -1.52605 -0.393616 0
M  V30 2656 C 243.656 -1.67093 -1.13685 0
M  V30 2657 C 243.977 -0.411011 -1.90619 0
M  V30 2658 O 243.247 0.574491 -1.87287 0
M  V30 2659 H 241.827 -0.615923 -0.422668 0
M  V30 2660 H 244.489 -1.89704 -0.447039 0
M  V30 2661 H 243.585 -2.51922 -1.84232 0
M  V30 2662 N 243.887 0.651787 -1.4349 0
M  V30 2663 C 244.819 1.77725 -1.44729 0
M  V30 2664 C 245.832 1.59141 -0.343231 0
M  V30 2665 O 247.021 1.67835 -0.607751 0
M  V30 2666 C 244.121 3.15172 -1.24579 0
M  V30 2667 C 243.294 3.60402 -2.47849 0
M  V30 2668 C 242.353 4.76656 -2.22902 0
M  V30 2669 O 241.379 4.86022 -2.96263 0
M  V30 2670 N 242.581 5.66958 -1.24656 0
M  V30 2671 H 245.346 1.77141 -2.41746 0
M  V30 2672 H 242.907 0.835678 -1.38665 0
M  V30 2673 H 244.899 3.90634 -1.0577 0
M  V30 2674 H 243.469 3.1052 -0.360015 0
M  V30 2675 H 242.689 2.75369 -2.82073 0
M  V30 2676 H 243.977 3.87368 -3.29884 0
M  V30 2677 H 243.375 5.62065 -0.640265 0
M  V30 2678 H 241.932 6.42135 -1.1183 0
M  V30 2679 N 245.365 1.30045 0.890287 0
M  V30 2680 C 246.275 1.17885 2.02831 0
M  V30 2681 C 247.291 0.0999609 1.73713 0
M  V30 2682 O 248.467 0.313867 1.98939 0
M  V30 2683 C 245.532 0.866079 3.35708 0
M  V30 2684 C 244.593 2.02979 3.78283 0
M  V30 2685 C 243.826 1.73184 5.0482 0
M  V30 2686 O 244.049 0.657237 5.66601 0
M  V30 2687 O 242.983 2.58267 5.43674 0
M  V30 2688 H 246.809 2.13474 2.16015 0
M  V30 2689 H 244.394 1.09587 1.01543 0
M  V30 2690 H 246.276 0.706623 4.15433 0
M  V30 2691 H 244.951 -0.0599443 3.23644 0
M  V30 2692 H 243.858 2.24454 2.99285 0
M  V30 2693 H 245.191 2.93734 3.94944 0
M  V30 2694 N 246.843 -1.10192 1.12674 0
M  V30 2695 C 248.254 -1.63707 0.897604 0
M  V30 2696 C 248.605 -1.87812 -0.567546 0
M  V30 2697 O 247.73 -1.62196 -1.43253 0
M  V30 2698 C 248.325 -2.974 1.62292 0
M  V30 2699 C 246.884 -3.47772 1.43986 0
M  V30 2700 C 246.031 -2.22332 1.65722 0
M  V30 2701 H 248.982 -0.936587 1.28116 0
M  V30 2702 H 249.003 -3.64986 1.07541 0
M  V30 2703 H 248.515 -2.79824 2.68924 0
M  V30 2704 H 246.616 -3.70487 0.396206 0
M  V30 2705 H 246.729 -4.25723 2.19765 0
M  V30 2706 H 245.093 -2.30599 1.08149 0
M  V30 2707 H 245.876 -2.07285 2.73657 0
M  V30 2708 N 248.321 -0.919034 -1.28029 0
M  V30 2709 C 249.598 -0.473668 -1.89778 0
M  V30 2710 C 249.978 1.04783 -1.83259 0
M  V30 2711 O 249.326 1.8982 -1.27202 0
M  V30 2712 C 249.536 -1.00998 -3.34066 0
M  V30 2713 C 250.884 -1.06525 -4.1102 0
M  V30 2714 O 251.908 -0.958996 -3.43048 0
M  V30 2715 O 250.767 -1.22776 -5.3253 0
M  V30 2716 H 247.861 -0.15098 -0.813101 0
M  V30 2717 H 250.407 -1.01016 -1.36359 0
M  V30 2718 H 249.179 -2.05392 -3.33061 0
M  V30 2719 H 248.802 -0.454626 -3.94992 0
M  V30 2720 N 249.799 1.42003 -0.683588 0
M  V30 2721 C 251.048 2.00638 -0.206681 0
M  V30 2722 C 251.361 1.5472 1.19671 0
M  V30 2723 O 252.567 2.05833 1.77045 0
M  V30 2724 C 251.023 3.58487 -0.318632 0
M  V30 2725 C 250.631 4.1339 -1.72663 0
M  V30 2726 C 252.375 4.24384 0.0991141 0
M  V30 2727 C 250.282 5.63633 -1.79087 0
M  V30 2728 H 249.212 0.750408 -0.0735107 0
M  V30 2729 H 251.863 1.62624 -0.850048 0
M  V30 2730 H 250.245 3.94047 0.392781 0
M  V30 2731 H 251.419 3.89273 -2.46583 0
M  V30 2732 H 249.734 3.59976 -2.09299 0
M  V30 2733 H 252.331 5.34652 0.0713833 0
M  V30 2734 H 252.674 4.00505 1.13586 0
M  V30 2735 H 253.207 3.93816 -0.561599 0
M  V30 2736 H 249.946 5.92323 -2.80774 0
M  V30 2737 H 249.466 5.89714 -1.09535 0
M  V30 2738 H 251.145 6.28201 -1.5483 0
M  V30 2739 N 251.277 0.427512 1.51691 0
M  V30 2740 C 252.207 -0.3796 2.30394 0
M  V30 2741 C 253.188 -1.02982 1.35384 0
M  V30 2742 O 254.373 -1.03534 1.643 0
M  V30 2743 C 251.503 -1.48649 3.1388 0
M  V30 2744 C 250.457 -0.960294 4.17088 0
M  V30 2745 C 249.783 -2.16219 4.89033 0
M  V30 2746 C 251.083 -0.00153679 5.223 0
M  V30 2747 H 252.777 0.277164 2.98114 0
M  V30 2748 H 250.323 0.134739 1.43368 0
M  V30 2749 H 252.276 -2.05826 3.67714 0
M  V30 2750 H 251 -2.1714 2.43962 0
M  V30 2751 H 249.659 -0.410806 3.64291 0
M  V30 2752 H 249.307 -2.83307 4.15628 0
M  V30 2753 H 249.007 -1.81654 5.58816 0
M  V30 2754 H 250.531 -2.73968 5.45687 0
M  V30 2755 H 251.945 -0.482687 5.71264 0
M  V30 2756 H 250.342 0.256199 5.99553 0
M  V30 2757 H 251.412 0.938174 4.75738 0
M  V30 2758 N 252.755 -1.56801 0.158532 0
M  V30 2759 C 254.004 -1.95665 -0.489702 0
M  V30 2760 C 254.317 -1.04654 -1.65248 0
M  V30 2761 O 255.523 -1.33146 -2.3661 0
M  V30 2762 C 253.979 -3.47874 -0.922582 0
M  V30 2763 C 253.587 -4.47489 0.213893 0
M  V30 2764 C 255.331 -3.95583 -1.53996 0
M  V30 2765 C 253.238 -5.90921 -0.237903 0
M  V30 2766 H 252.168 -0.730516 -0.186716 0
M  V30 2767 H 254.819 -1.81861 0.244722 0
M  V30 2768 H 253.201 -3.57051 -1.71261 0
M  V30 2769 H 254.375 -4.50017 0.991036 0
M  V30 2770 H 252.69 -4.09764 0.740407 0
M  V30 2771 H 255.287 -5.0019 -1.8898 0
M  V30 2772 H 255.63 -3.37789 -2.43319 0
M  V30 2773 H 256.163 -3.8937 -0.814611 0
M  V30 2774 H 252.902 -6.52559 0.620236 0
M  V30 2775 H 252.422 -5.91729 -0.980676 0
M  V30 2776 H 254.101 -6.43352 -0.686067 0
M  V30 2777 N 254.233 0.115231 -1.57178 0
M  V30 2778 C 255.51 0.852873 -1.76027 0
M  V30 2779 C 255.89 1.97892 -0.73498 0
M  V30 2780 O 255.238 2.27232 0.24036 0
M  V30 2781 C 255.448 1.36608 -3.21153 0
M  V30 2782 C 256.796 1.81692 -3.83762 0
M  V30 2783 O 257.82 1.46278 -3.24779 0
M  V30 2784 O 256.679 2.47104 -4.87444 0
M  V30 2785 H 253.773 0.405296 -0.720877 0
M  V30 2786 H 256.319 0.0986785 -1.69413 0
M  V30 2787 H 255.091 0.558357 -3.87296 0
M  V30 2788 H 254.714 2.18287 -3.3232 0
M  V30 2789 N 255.711 1.52812 0.385517 0
M  V30 2790 C 256.958 1.68026 1.1302 0
M  V30 2791 C 257.286 0.421934 1.89868 0
M  V30 2792 O 256.541 -0.595749 1.86412 0
M  V30 2793 C 256.84 2.86856 2.13187 0
M  V30 2794 C 256.506 4.24159 1.5297 0
M  V30 2795 C 255.168 4.61501 1.36274 0
M  V30 2796 C 257.52 5.09627 1.09223 0
M  V30 2797 C 254.848 5.81966 0.743837 0
M  V30 2798 C 257.2 6.30719 0.487411 0
M  V30 2799 C 255.864 6.6679 0.307777 0
M  V30 2800 H 255.134 0.614849 0.413571 0
M  V30 2801 H 257.781 1.86962 0.414405 0
M  V30 2802 H 256.086 2.6235 2.90998 0
M  V30 2803 H 257.783 2.95821 2.70722 0
M  V30 2804 H 254.373 3.94746 1.66954 0
M  V30 2805 H 258.557 4.81343 1.20922 0
M  V30 2806 H 253.813 6.08519 0.592891 0
M  V30 2807 H 257.987 6.96259 0.140143 0
M  V30 2808 H 255.614 7.60001 -0.173879 0
M  V30 2809 N 257.189 -0.644168 1.43834 0
M  V30 2810 C 258.152 -1.73857 1.49353 0
M  V30 2811 C 259.152 -1.56315 0.377112 0
M  V30 2812 O 260.342 -1.62048 0.639226 0
M  V30 2813 C 257.474 -3.12819 1.35488 0
M  V30 2814 H 258.667 -1.70342 2.46827 0
M  V30 2815 H 256.22 -0.856652 1.30733 0
M  V30 2816 H 256.955 -3.2194 0.390569 0
M  V30 2817 H 256.74 -3.26958 2.16428 0
M  V30 2818 H 258.23 -3.92606 1.42302 0
M  V30 2819 N 258.668 -1.30515 -0.883378 0
M  V30 2820 C 260.084 -1.08881 -1.16692 0
M  V30 2821 C 260.284 0.149409 -2.00945 0
M  V30 2822 O 259.34 0.84257 -2.38027 0
M  V30 2823 C 260.653 -2.35319 -1.87204 0
M  V30 2824 C 262.201 -2.40799 -1.99962 0
M  V30 2825 C 262.676 -3.67083 -2.73887 0
M  V30 2826 N 264.167 -3.679 -2.81432 0
M  V30 2827 C 264.902 -4.62303 -3.3921 0
M  V30 2828 N 264.398 -5.67052 -3.98025 0
M  V30 2829 N 266.191 -4.49845 -3.3704 0
M  V30 2830 H 258.342 -2.09951 -0.321633 0
M  V30 2831 H 260.605 -0.92556 -0.205043 0
M  V30 2832 H 260.311 -3.25689 -1.3274 0
M  V30 2833 H 260.185 -2.44089 -2.87577 0
M  V30 2834 H 262.572 -1.50907 -2.53597 0
M  V30 2835 H 262.653 -2.36003 -0.98673 0
M  V30 2836 H 262.297 -4.57334 -2.20925 0
M  V30 2837 H 262.227 -3.69141 -3.75556 0
M  V30 2838 H 264.718 -2.92171 -2.39676 0
M  V30 2839 H 265.031 -6.35184 -4.40183 0
M  V30 2840 H 263.376 -5.70842 -3.96439 0
M  V30 2841 H 266.567 -3.67194 -2.90321 0
M  V30 2842 H 266.74 -5.23597 -3.81772 0
M  V30 2843 N 260.146 1.09593 -1.13257 0
M  V30 2844 C 261.109 2.14359 -0.811358 0
M  V30 2845 C 262.109 1.59808 0.178377 0
M  V30 2846 O 263.299 1.74132 -0.0484911 0
M  V30 2847 C 260.431 3.40269 -0.207276 0
M  V30 2848 H 261.624 2.44284 -1.73969 0
M  V30 2849 H 259.177 1.25102 -0.936973 0
M  V30 2850 H 259.912 3.15969 0.73036 0
M  V30 2851 H 259.697 3.81154 -0.919992 0
M  V30 2852 H 261.187 4.176 0.000667944 0
M  V30 2853 N 261.624 0.925811 1.2754 0
M  V30 2854 C 262.871 0.565255 1.94451 0
M  V30 2855 C 263.199 -0.89316 1.7278 0
M  V30 2856 O 262.454 -1.65213 1.04895 0
M  V30 2857 C 262.753 0.835296 3.47502 0
M  V30 2858 C 262.419 2.27515 3.89291 0
M  V30 2859 C 261.081 2.66879 4.00411 0
M  V30 2860 C 263.433 3.21158 4.10496 0
M  V30 2861 C 260.761 3.99014 4.30122 0
M  V30 2862 C 263.113 4.52871 4.4169 0
M  V30 2863 C 261.777 4.92072 4.51023 0
M  V30 2864 H 261.047 0.206841 0.711546 0
M  V30 2865 H 263.694 1.16942 1.51647 0
M  V30 2866 H 261.999 0.148442 3.91519 0
M  V30 2867 H 263.696 0.535322 3.97411 0
M  V30 2868 H 260.286 1.95976 3.81171 0
M  V30 2869 H 264.47 2.9195 4.01346 0
M  V30 2870 H 259.726 4.2907 4.35556 0
M  V30 2871 H 263.9 5.25436 4.57045 0
M  V30 2872 H 261.527 5.9449 4.738 0
M  V30 2873 N 263.102 -1.41638 0.69111 0
M  V30 2874 C 264.052 -2.28 -0.000107832 0
M  V30 2875 C 265.036 -1.41964 -0.757304 0
M  V30 2876 O 266.228 -1.65274 -0.633532 0
M  V30 2877 C 263.357 -3.30209 -0.938983 0
M  V30 2878 C 262.443 -4.23725 -0.17827 0
M  V30 2879 N 262.834 -4.99017 0.825563 0
M  V30 2880 C 261.132 -4.44071 -0.414392 0
M  V30 2881 C 261.833 -5.67431 1.28052 0
M  V30 2882 N 260.809 -5.40197 0.607304 0
M  V30 2883 H 264.611 -2.83644 0.769617 0
M  V30 2884 H 262.125 -1.53797 0.521562 0
M  V30 2885 H 264.122 -3.90898 -1.44929 0
M  V30 2886 H 262.782 -2.76126 -1.70836 0
M  V30 2887 H 263.793 -5.03671 1.20566 0
M  V30 2888 H 260.47 -4.01004 -1.162 0
M  V30 2889 H 261.86 -6.37801 2.11327 0
M  V30 2890 N 264.58 -0.43555 -1.51462 0
M  V30 2891 C 265.512 0.41257 -2.25456 0
M  V30 2892 C 266.525 0.987822 -1.29406 0
M  V30 2893 O 267.714 0.882266 -1.55172 0
M  V30 2894 C 264.814 1.58894 -2.99342 0
M  V30 2895 C 263.987 1.13288 -4.22474 0
M  V30 2896 C 263.046 2.17917 -4.78956 0
M  V30 2897 O 262.072 1.77425 -5.40841 0
M  V30 2898 N 263.274 3.50382 -4.62832 0
M  V30 2899 H 266.039 -0.221603 -2.9888 0
M  V30 2900 H 263.6 -0.264342 -1.59727 0
M  V30 2901 H 265.592 2.28508 -3.34015 0
M  V30 2902 H 264.162 2.12849 -2.28941 0
M  V30 2903 H 263.382 0.263881 -3.93316 0
M  V30 2904 H 264.67 0.805542 -5.02383 0
M  V30 2905 H 264.068 3.86013 -4.13534 0
M  V30 2906 H 262.625 4.15895 -5.01871 0
M  V30 2907 N 266.058 1.56714 -0.166846 0
M  V30 2908 C 267.335 1.88412 0.525373 0
M  V30 2909 C 267.715 1.07602 1.81618 0
M  V30 2910 O 267.063 0.168621 2.27877 0
M  V30 2911 C 267.273 3.40363 0.771613 0
M  V30 2912 C 268.621 4.10007 1.1036 0
M  V30 2913 O 269.645 3.45655 0.860304 0
M  V30 2914 O 268.504 5.2369 1.56239 0
M  V30 2915 H 265.598 0.781587 0.270278 0
M  V30 2916 H 268.144 1.68458 -0.204946 0
M  V30 2917 H 266.916 3.91046 -0.141093 0
M  V30 2918 H 266.539 3.65914 1.55541 0
M  V30 2919 N 267.536 -0.106894 1.57237 0
M  V30 2920 C 268.761 -0.830287 1.90055 0
M  V30 2921 C 269.186 -1.72064 0.75998 0
M  V30 2922 O 268.544 -1.78982 -0.288991 0
M  V30 2923 C 268.592 -1.6295 3.21683 0
M  V30 2924 O 267.696 -2.73748 3.08441 0
M  V30 2925 H 267.037 -0.228855 0.623315 0
M  V30 2926 H 269.567 -0.085658 2.04421 0
M  V30 2927 H 269.577 -2.01621 3.54701 0
M  V30 2928 H 268.252 -0.975989 4.04286 0
M  V30 2929 H 266.829 -2.38192 2.86913 0
M  V30 2930 N 269.014 -1.53014 -0.377408 0
M  V30 2931 C 270.244 -1.72265 -1.14054 0
M  V30 2932 C 270.652 -0.44601 -1.83868 0
M  V30 2933 O 269.995 0.590095 -1.73964 0
M  V30 2934 C 270.057 -2.82492 -2.22348 0
M  V30 2935 C 269.721 -4.23233 -1.72402 0
M  V30 2936 C 270.718 -5.05992 -1.19448 0
M  V30 2937 C 268.403 -4.696 -1.78273 0
M  V30 2938 C 270.397 -6.33203 -0.730268 0
M  V30 2939 C 268.084 -5.96792 -1.31464 0
M  V30 2940 C 269.082 -6.78424 -0.789297 0
M  V30 2941 O 268.77 -8.0323 -0.328077 0
M  V30 2942 H 268.502 -0.579873 -0.347453 0
M  V30 2943 H 271.056 -2.00502 -0.445882 0
M  V30 2944 H 269.286 -2.49702 -2.95272 0
M  V30 2945 H 270.975 -2.90034 -2.83963 0
M  V30 2946 H 271.741 -4.71349 -1.14259 0
M  V30 2947 H 267.62 -4.06142 -2.18106 0
M  V30 2948 H 271.164 -6.96868 -0.319542 0
M  V30 2949 H 267.061 -6.30937 -1.36342 0
M  V30 2950 H 267.829 -8.1727 -0.448493 0
M  V30 2951 N 270.492 0.636531 -1.44174 0
M  V30 2952 C 271.903 1.21806 -1.41493 0
M  V30 2953 C 272.254 1.95785 -0.1275 0
M  V30 2954 O 271.379 2.02147 0.772376 0
M  V30 2955 C 271.974 2.21551 -2.56321 0
M  V30 2956 C 270.533 2.75143 -2.56853 0
M  V30 2957 C 269.68 1.50052 -2.33195 0
M  V30 2958 H 272.631 0.427531 -1.52833 0
M  V30 2959 H 272.652 3.0405 -2.28765 0
M  V30 2960 H 272.164 1.67679 -3.50008 0
M  V30 2961 H 270.265 3.33033 -1.67093 0
M  V30 2962 H 270.378 3.2155 -3.55165 0
M  V30 2963 H 268.742 1.77993 -1.82183 0
M  V30 2964 H 269.525 0.980903 -3.28988 0
M  V30 2965 N 271.97 1.30982 0.876444 0
M  V30 2966 C 273.217 1.20296 1.62896 0
M  V30 2967 C 273.545 -0.240395 1.93009 0
M  V30 2968 O 272.8 -1.18733 1.55567 0
M  V30 2969 C 273.099 1.98572 2.9716 0
M  V30 2970 C 272.765 3.48125 2.86566 0
M  V30 2971 C 271.427 3.88905 2.83383 0
M  V30 2972 C 273.779 4.43322 2.74071 0
M  V30 2973 C 271.107 5.2316 2.65556 0
M  V30 2974 C 273.459 5.77695 2.57781 0
M  V30 2975 C 272.123 6.17704 2.52979 0
M  V30 2976 H 271.393 0.440193 0.59608 0
M  V30 2977 H 274.04 1.62177 1.01837 0
M  V30 2978 H 272.345 1.49352 3.62217 0
M  V30 2979 H 274.042 1.8769 3.54364 0
M  V30 2980 H 270.632 3.15723 2.89856 0
M  V30 2981 H 274.816 4.12752 2.75589 0
M  V30 2982 H 270.072 5.53241 2.60259 0
M  V30 2983 H 274.246 6.51091 2.47089 0
M  V30 2984 H 271.873 7.21678 2.38924 0
M  V30 2985 N 273.449 -1.08991 1.13837 0
M  V30 2986 C 274.726 -1.77863 0.813876 0
M  V30 2987 C 275.106 -1.99375 -0.693746 0
M  V30 2988 O 274.454 -1.59875 -1.63255 0
M  V30 2989 C 274.664 -3.0986 1.60586 0
M  V30 2990 C 276.012 -3.84493 1.8014 0
M  V30 2991 O 277.036 -3.19624 1.57222 0
M  V30 2992 O 275.895 -5.00957 2.18413 0
M  V30 2993 H 272.989 -0.771589 0.297624 0
M  V30 2994 H 275.535 -1.15507 1.24323 0
M  V30 2995 H 274.307 -2.89715 2.63022 0
M  V30 2996 H 273.93 -3.79942 1.17173 0
M  V30 2997 N 274.927 -0.932562 -1.27047 0
M  V30 2998 C 276.175 -0.574422 -1.93765 0
M  V30 2999 C 276.496 0.887993 -1.73608 0
M  V30 3000 O 275.766 1.62999 -1.08665 0
M  V30 3001 H 274.346 -0.209451 -0.717035 0
M  V30 3002 H 277.008 -1.18601 -1.5466 0
M  V30 3003 H 276.104 -0.784841 -3.02071 0
M  V30 3004 N 276.405 1.4127 -0.698611 0
M  V30 3005 C 277.335 2.33447 -0.049629 0
M  V30 3006 C 278.316 1.51982 0.763898 0
M  V30 3007 O 279.501 1.80509 0.716257 0
M  V30 3008 C 276.631 3.35828 0.885267 0
M  V30 3009 C 275.585 4.27627 0.178613 0
M  V30 3010 C 274.911 5.20406 1.22807 0
M  V30 3011 C 276.211 5.13459 -0.956933 0
M  V30 3012 H 277.905 2.87966 -0.81951 0
M  V30 3013 H 275.451 1.38461 -0.395538 0
M  V30 3014 H 277.404 3.9924 1.34854 0
M  V30 3015 H 276.128 2.79666 1.68685 0
M  V30 3016 H 274.787 3.65643 -0.26466 0
M  V30 3017 H 274.435 4.60558 2.02226 0
M  V30 3018 H 274.135 5.82661 0.760239 0
M  V30 3019 H 275.659 5.86695 1.69179 0
M  V30 3020 H 277.073 5.70421 -0.573805 0
M  V30 3021 H 275.47 5.8467 -1.35205 0
M  V30 3022 H 276.54 4.50443 -1.79524 0
M  V30 3023 N 277.883 0.443576 1.51229 0
M  V30 3024 C 279.131 -0.120557 2.0174 0
M  V30 3025 C 279.452 -1.42665 1.32935 0
M  V30 3026 O 278.722 -1.9028 0.465866 0
M  V30 3027 H 277.302 -0.0475426 0.745486 0
M  V30 3028 H 279.964 0.587711 1.85828 0
M  V30 3029 H 279.06 -0.291972 3.10731 0
M  V30 3030 N 279.361 -1.56624 0.175154 0
M  V30 3031 C 280.609 -1.96609 -0.467885 0
M  V30 3032 C 280.93 -1.06238 -1.63519 0
M  V30 3033 O 280.2 -0.129523 -1.95471 0
M  V30 3034 H 278.78 -0.726008 -0.175845 0
M  V30 3035 H 281.442 -1.93195 0.257234 0
M  V30 3036 H 280.538 -3.00989 -0.825342 0
M  V30 3037 N 280.839 0.0985539 -1.57292 0
M  V30 3038 C 282.067 0.816318 -1.90115 0
M  V30 3039 C 282.482 1.72451 -0.768509 0
M  V30 3040 O 281.839 1.80643 0.259687 0
M  V30 3041 C 281.89 1.63259 -3.22535 0
M  V30 3042 O 281.611 0.760934 -4.31441 0
M  V30 3043 C 283.112 2.45372 -3.69199 0
M  V30 3044 H 280.332 0.233595 -0.629027 0
M  V30 3045 H 282.876 0.0768229 -2.04356 0
M  V30 3046 H 281.031 2.32463 -3.09903 0
M  V30 3047 H 281.445 1.32595 -5.07463 0
M  V30 3048 H 282.919 2.98144 -4.64558 0
M  V30 3049 H 283.396 3.23677 -2.96867 0
M  V30 3050 H 284.002 1.81373 -3.84687 0
M  V30 3051 N 282.317 1.53212 0.369288 0
M  V30 3052 C 283.247 1.82365 1.45826 0
M  V30 3053 C 284.228 0.676907 1.56051 0
M  V30 3054 O 285.413 0.926401 1.70679 0
M  V30 3055 C 282.543 2.01023 2.83208 0
M  V30 3056 C 281.497 3.1678 2.8781 0
M  V30 3057 C 280.823 3.20724 4.27832 0
M  V30 3058 C 282.123 4.55447 2.55667 0
M  V30 3059 H 283.817 2.73559 1.21678 0
M  V30 3060 H 281.363 1.3163 0.583911 0
M  V30 3061 H 283.316 2.20001 3.59413 0
M  V30 3062 H 282.04 1.06536 3.08736 0
M  V30 3063 H 280.699 2.97616 2.14056 0
M  V30 3064 H 280.347 2.23882 4.50429 0
M  V30 3065 H 280.047 3.98496 4.31827 0
M  V30 3066 H 281.571 3.41881 5.05915 0
M  V30 3067 H 282.985 4.74611 3.21586 0
M  V30 3068 H 281.382 5.35432 2.70984 0
M  V30 3069 H 282.452 4.60812 1.5093 0
M  V30 3070 N 283.795 -0.628877 1.44509 0
M  V30 3071 C 284.758 -1.72263 1.51188 0
M  V30 3072 C 285.758 -1.55907 0.39367 0
M  V30 3073 O 286.948 -1.61361 0.656377 0
M  V30 3074 C 284.08 -3.11365 1.38798 0
M  V30 3075 H 285.273 -1.67714 2.4862 0
M  V30 3076 H 282.826 -0.842737 1.31634 0
M  V30 3077 H 283.561 -3.21507 0.424693 0
M  V30 3078 H 283.346 -3.24644 2.19884 0
M  V30 3079 H 284.836 -3.91075 1.46458 0
M  V30 3080 N 285.273 -1.31445 -0.869486 0
M  V30 3081 C 286.223 -1.15731 -1.96444 0
M  V30 3082 C 287.207 -0.0681855 -1.60755 0
M  V30 3083 O 288.399 -0.293154 -1.74555 0
M  V30 3084 C 285.528 -0.867255 -3.32165 0
M  V30 3085 C 284.614 -1.99738 -3.74119 0
M  V30 3086 N 285.005 -3.24447 -3.88031 0
M  V30 3087 C 283.303 -1.89723 -4.03635 0
M  V30 3088 C 284.004 -3.98374 -4.23879 0
M  V30 3089 N 282.98 -3.26547 -4.3459 0
M  V30 3090 H 286.782 -2.10296 -2.05312 0
M  V30 3091 H 284.296 -1.23009 -1.06031 0
M  V30 3092 H 286.293 -0.735668 -4.10358 0
M  V30 3093 H 284.953 0.0701614 -3.24624 0
M  V30 3094 H 285.964 -3.59557 -3.72746 0
M  V30 3095 H 282.641 -1.03449 -4.04481 0
M  V30 3096 H 284.031 -5.05844 -4.42235 0
M  V30 3097 N 286.751 1.08385 -1.14413 0
M  V30 3098 C 287.714 2.13486 -0.834048 0
M  V30 3099 C 288.714 1.59988 0.161418 0
M  V30 3100 O 289.904 1.74071 -0.0669575 0
M  V30 3101 C 287.036 3.4003 -0.243354 0
M  V30 3102 H 288.229 2.42425 -1.7655 0
M  V30 3103 H 285.782 1.24101 -0.950189 0
M  V30 3104 H 286.517 3.16726 0.696807 0
M  V30 3105 H 286.302 3.80157 -0.960367 0
M  V30 3106 H 287.792 4.17577 -0.0436242 0
M  V30 3107 N 288.23 0.939286 1.26551 0
M  V30 3108 C 289.477 0.585847 1.9384 0
M  V30 3109 C 289.805 -0.874784 1.73718 0
M  V30 3110 O 289.06 -1.64092 1.06642 0
M  V30 3111 C 289.359 0.872106 3.46596 0
M  V30 3112 C 289.025 2.31632 3.86856 0
M  V30 3113 C 287.687 2.71111 3.97558 0
M  V30 3114 C 290.039 3.25494 4.07066 0
M  V30 3115 C 287.367 4.03553 4.25866 0
M  V30 3116 C 289.719 4.57531 4.36862 0
M  V30 3117 C 288.383 4.96828 4.45778 0
M  V30 3118 H 287.653 0.214377 0.709312 0
M  V30 3119 H 290.3 1.18544 1.50398 0
M  V30 3120 H 288.605 0.18996 3.91339 0
M  V30 3121 H 290.302 0.577442 3.96821 0
M  V30 3122 H 286.892 2.00008 3.79071 0
M  V30 3123 H 291.076 2.9619 3.98227 0
M  V30 3124 H 286.332 4.33665 4.30981 0
M  V30 3125 H 290.506 5.30254 4.51446 0
M  V30 3126 H 288.133 5.99482 4.67468 0
M  V30 3127 N 289.708 -1.40897 0.706093 0
M  V30 3128 C 290.955 -2.01054 0.241531 0
M  V30 3129 C 291.283 -1.55956 -1.16223 0
M  V30 3130 O 290.538 -0.766336 -1.80072 0
M  V30 3131 C 290.837 -3.5646 0.259099 0
M  V30 3132 C 290.503 -4.21106 1.61184 0
M  V30 3133 C 289.165 -4.38479 1.98216 0
M  V30 3134 C 291.517 -4.57256 2.50132 0
M  V30 3135 C 288.845 -4.89282 3.2376 0
M  V30 3136 C 291.197 -5.09454 3.7502 0
M  V30 3137 C 289.861 -5.25037 4.12181 0
M  V30 3138 H 289.131 -0.73571 0.0883825 0
M  V30 3139 H 291.778 -1.68645 0.907257 0
M  V30 3140 H 290.083 -3.88721 -0.490189 0
M  V30 3141 H 291.78 -4.00826 -0.11804 0
M  V30 3142 H 288.37 -4.07966 1.31384 0
M  V30 3143 H 292.554 -4.43479 2.228 0
M  V30 3144 H 287.81 -4.99531 3.52532 0
M  V30 3145 H 291.984 -5.36404 4.44121 0
M  V30 3146 H 289.611 -5.64164 5.09532 0
M  V30 3147 N 291.186 -0.45159 -1.50991 0
M  V30 3148 C 292.597 0.00818571 -1.86698 0
M  V30 3149 C 292.948 1.40661 -1.3678 0
M  V30 3150 O 292.073 2.0391 -0.724546 0
M  V30 3151 C 292.668 0.0216303 -3.38793 0
M  V30 3152 C 291.227 0.425865 -3.73983 0
M  V30 3153 C 290.374 -0.372163 -2.74791 0
M  V30 3154 H 293.325 -0.666785 -1.44013 0
M  V30 3155 H 293.346 0.828078 -3.7138 0
M  V30 3156 H 292.858 -0.996288 -3.75094 0
M  V30 3157 H 290.959 1.44886 -3.43277 0
M  V30 3158 H 291.072 0.140761 -4.78893 0
M  V30 3159 H 289.436 0.171498 -2.54122 0
M  V30 3160 H 290.219 -1.38922 -3.13935 0
M  V30 3161 N 292.664 1.56529 -0.183458 0
M  V30 3162 C 293.912 1.96855 0.457452 0
M  V30 3163 C 294.233 1.07104 1.62953 0
M  V30 3164 O 293.503 0.139887 1.954 0
M  V30 3165 H 292.083 0.72693 0.171992 0
M  V30 3166 H 294.745 1.93056 -0.267476 0
M  V30 3167 H 293.841 3.01423 0.809368 0
M  V30 3168 N 294.142 -0.090211 1.57342 0
M  V30 3169 C 295.052 -1.12735 2.05738 0
M  V30 3170 C 296.068 -1.43557 0.983231 0
M  V30 3171 O 297.244 -1.54101 1.29672 0
M  V30 3172 C 294.309 -2.42659 2.47624 0
M  V30 3173 C 293.37 -2.18975 3.69254 0
M  V30 3174 C 292.603 -3.42704 4.09133 0
M  V30 3175 O 292.826 -4.51127 3.49057 0
M  V30 3176 O 291.76 -3.32003 5.02053 0
M  V30 3177 H 295.586 -0.746279 2.94388 0
M  V30 3178 H 293.171 -0.303064 1.46294 0
M  V30 3179 H 295.053 -3.19155 2.7517 0
M  V30 3180 H 293.728 -2.80182 1.62109 0
M  V30 3181 H 292.635 -1.40244 3.46818 0
M  V30 3182 H 293.968 -1.86342 4.55563 0
M  V30 3183 N 295.62 -1.53406 -0.361157 0
M  V30 3184 C 296.57 -1.76536 -1.44287 0
M  V30 3185 C 297.554 -0.620019 -1.48474 0
M  V30 3186 O 298.746 -0.878834 -1.53641 0
M  V30 3187 C 295.875 -1.96266 -2.81664 0
M  V30 3188 C 294.961 -3.16815 -2.81938 0
M  V30 3189 N 295.352 -4.38637 -2.51855 0
M  V30 3190 C 293.65 -3.17627 -3.13096 0
M  V30 3191 C 294.351 -5.20401 -2.59919 0
M  V30 3192 N 293.327 -4.56712 -2.94814 0
M  V30 3193 H 297.129 -2.68331 -1.19899 0
M  V30 3194 H 294.643 -1.52091 -0.56938 0
M  V30 3195 H 296.64 -2.10966 -3.59582 0
M  V30 3196 H 295.3 -1.05702 -3.07013 0
M  V30 3197 H 296.311 -4.66293 -2.25369 0
M  V30 3198 H 292.988 -2.36971 -3.43731 0
M  V30 3199 H 294.378 -6.27586 -2.39969 0
M  V30 3200 N 297.098 0.621204 -1.44841 0
M  V30 3201 C 298.509 1.20298 -1.42777 0
M  V30 3202 C 298.86 1.95639 -0.148259 0
M  V30 3203 O 297.985 2.02955 0.750892 0
M  V30 3204 C 298.58 2.1882 -2.58657 0
M  V30 3205 C 297.139 2.72403 -2.59756 0
M  V30 3206 C 296.286 1.4757 -2.34773 0
M  V30 3207 H 299.237 0.411297 -1.53278 0
M  V30 3208 H 299.258 3.01607 -2.31977 0
M  V30 3209 H 298.77 1.63957 -3.51766 0
M  V30 3210 H 296.871 3.31242 -1.70615 0
M  V30 3211 H 296.984 3.17765 -3.58556 0
M  V30 3212 H 295.348 1.76051 -1.8406 0
M  V30 3213 H 296.131 0.945954 -3.3001 0
M  V30 3214 N 298.576 1.31904 0.862503 0
M  V30 3215 C 299.825 1.21373 1.61094 0
M  V30 3216 C 300.138 -0.22504 1.94301 0
M  V30 3217 O 301.344 -0.452121 2.67709 0
M  V30 3218 C 299.8 2.12525 2.9045 0
M  V30 3219 C 299.408 3.61441 2.64697 0
M  V30 3220 C 301.152 2.10813 3.68454 0
M  V30 3221 C 299.059 4.44578 3.90006 0
M  V30 3222 H 297.989 0.450705 0.604468 0
M  V30 3223 H 300.64 1.56811 0.953027 0
M  V30 3224 H 299.022 1.69994 3.57656 0
M  V30 3225 H 300.196 4.12264 2.05851 0
M  V30 3226 H 298.511 3.65205 2.00036 0
M  V30 3227 H 301.108 2.70167 4.61426 0
M  V30 3228 H 301.451 1.09713 4.01583 0
M  V30 3229 H 301.984 2.51583 3.08141 0
M  V30 3230 H 298.723 5.46461 3.62023 0
M  V30 3231 H 298.243 3.98508 4.48276 0
M  V30 3232 H 299.922 4.57176 4.5782 0
M  V30 3233 N 300.054 -1.07777 1.14986 0
M  V30 3234 C 301.279 -1.84558 0.946213 0
M  V30 3235 C 301.704 -1.81323 -0.500362 0
M  V30 3236 O 301.062 -1.20301 -1.35637 0
M  V30 3237 C 301.11 -3.29736 1.45968 0
M  V30 3238 O 300.214 -4.07149 0.65601 0
M  V30 3239 H 299.555 -0.571641 0.33782 0
M  V30 3240 H 302.085 -1.35991 1.52865 0
M  V30 3241 H 302.095 -3.80574 1.47063 0
M  V30 3242 H 300.77 -3.31406 2.51283 0
M  V30 3243 H 299.347 -3.65994 0.714322 0
M  V30 3244 N 301.532 -0.945985 -1.26051 0
M  V30 3245 C 302.78 -0.594941 -1.93145 0
M  V30 3246 C 303.101 0.86953 -1.7454 0
M  V30 3247 O 302.371 1.61838 -1.10387 0
M  V30 3248 H 300.951 -0.217044 -0.714773 0
M  V30 3249 H 303.613 -1.20235 -1.53393 0
M  V30 3250 H 302.709 -0.816835 -3.01221 0
M  V30 3251 N 303.011 1.40521 -0.713556 0
M  V30 3252 C 304.288 1.94775 -0.17943 0
M  V30 3253 C 304.668 1.65184 1.31444 0
M  V30 3254 O 304.016 0.968429 2.06963 0
M  V30 3255 C 304.226 3.45543 -0.489986 0
M  V30 3256 C 305.574 4.22442 -0.427536 0
M  V30 3257 O 306.598 3.53644 -0.425929 0
M  V30 3258 O 305.457 5.4501 -0.403292 0
M  V30 3259 H 302.551 0.826606 -0.0255192 0
M  V30 3260 H 305.097 1.5014 -0.790949 0
M  V30 3261 H 303.869 3.60432 -1.5233 0
M  V30 3262 H 303.492 3.97311 0.151598 0
M  V30 3263 N 304.489 0.459591 1.5075 0
M  V30 3264 C 305.717 -0.0973749 2.06671 0
M  V30 3265 C 306.132 -1.34524 1.32472 0
M  V30 3266 O 305.489 -1.7827 0.390634 0
M  V30 3267 C 305.54 -0.39714 3.59312 0
M  V30 3268 O 305.261 0.801214 4.30711 0
M  V30 3269 C 306.762 -1.00234 4.31819 0
M  V30 3270 H 303.982 0.00195854 0.670997 0
M  V30 3271 H 306.526 0.645072 1.94059 0
M  V30 3272 H 304.681 -1.08951 3.71764 0
M  V30 3273 H 305.095 0.538857 5.21725 0
M  V30 3274 H 306.569 -1.16193 5.39632 0
M  V30 3275 H 307.046 -1.98939 3.91561 0
M  V30 3276 H 307.652 -0.348699 4.23868 0
M  V30 3277 N 305.967 -1.56429 0.191757 0
M  V30 3278 C 306.917 -2.15548 -0.743184 0
M  V30 3279 C 307.901 -1.09531 -1.17863 0
M  V30 3280 O 309.093 -1.35602 -1.13759 0
M  V30 3281 C 306.222 -2.81577 -1.96391 0
M  V30 3282 C 305.308 -3.9478 -1.54951 0
M  V30 3283 N 305.699 -4.98677 -0.845876 0
M  V30 3284 C 303.997 -4.06319 -1.83905 0
M  V30 3285 C 304.698 -5.78183 -0.638724 0
M  V30 3286 N 303.674 -5.30495 -1.18643 0
M  V30 3287 H 307.476 -2.9324 -0.196839 0
M  V30 3288 H 304.99 -1.62398 -0.0081603 0
M  V30 3289 H 306.987 -3.22321 -2.64415 0
M  V30 3290 H 305.647 -2.05371 -2.51501 0
M  V30 3291 H 306.658 -5.15464 -0.501704 0
M  V30 3292 H 303.335 -3.41238 -2.40548 0
M  V30 3293 H 304.725 -6.71851 -0.0807929 0
M  V30 3294 N 307.445 0.0818655 -1.57387 0
M  V30 3295 C 308.692 0.782914 -1.86753 0
M  V30 3296 C 309.02 1.78082 -0.782118 0
M  V30 3297 O 308.275 1.94426 0.22295 0
M  V30 3298 C 308.574 1.53513 -3.22752 0
M  V30 3299 C 308.24 0.678134 -4.45771 0
M  V30 3300 C 306.902 0.441929 -4.79166 0
M  V30 3301 C 309.254 0.0832243 -5.21134 0
M  V30 3302 C 306.582 -0.398833 -5.85343 0
M  V30 3303 C 308.934 -0.744935 -6.28199 0
M  V30 3304 C 307.598 -0.991107 -6.60101 0
M  V30 3305 H 306.868 0.286489 -0.683378 0
M  V30 3306 H 309.515 0.0439808 -1.91449 0
M  V30 3307 H 307.82 2.34599 -3.138 0
M  V30 3308 H 309.517 2.08218 -3.42705 0
M  V30 3309 H 306.107 0.872357 -4.19628 0
M  V30 3310 H 310.291 0.252847 -4.95655 0
M  V30 3311 H 305.547 -0.598405 -6.08465 0
M  V30 3312 H 309.721 -1.21271 -6.8576 0
M  V30 3313 H 307.348 -1.64437 -7.42202 0
M  V30 3314 N 308.923 1.53595 0.353017 0
M  V30 3315 C 310.2 1.61002 1.11075 0
M  V30 3316 C 310.58 0.425356 2.0677 0
M  V30 3317 O 309.928 -0.583267 2.2093 0
M  V30 3318 C 310.138 2.96631 1.83877 0
M  V30 3319 C 311.486 3.51653 2.37961 0
M  V30 3320 O 312.51 2.98743 1.93987 0
M  V30 3321 O 311.369 4.44177 3.18386 0
M  V30 3322 H 308.463 0.650825 0.510251 0
M  V30 3323 H 311.009 1.6594 0.35527 0
M  V30 3324 H 309.781 3.74293 1.14108 0
M  V30 3325 H 309.404 2.95242 2.66304 0
M  V30 3326 N 310.401 -0.613514 1.45168 0
M  V30 3327 C 311.678 -1.37263 1.39349 0
M  V30 3328 C 312.058 -2.11012 0.0610848 0
M  V30 3329 O 311.406 -2.07502 -0.956825 0
M  V30 3330 C 311.616 -2.3244 2.60332 0
M  V30 3331 C 312.964 -2.9523 3.05163 0
M  V30 3332 O 313.988 -2.42762 2.60663 0
M  V30 3333 O 312.847 -3.90454 3.82372 0
M  V30 3334 H 309.941 -0.615188 0.552696 0
M  V30 3335 H 312.487 -0.637097 1.57287 0
M  V30 3336 H 311.259 -1.77164 3.48896 0
M  V30 3337 H 310.882 -3.13383 2.44698 0
M  V30 3338 N 311.879 -1.3236 -0.855495 0
M  V30 3339 C 312.789 -1.23221 -1.99634 0
M  V30 3340 C 313.805 -0.145983 -1.73387 0
M  V30 3341 O 314.981 -0.366502 -1.98037 0
M  V30 3342 C 312.046 -0.954782 -3.33294 0
M  V30 3343 C 311.107 -2.12937 -3.72769 0
M  V30 3344 C 310.34 -1.86508 -5.00051 0
M  V30 3345 O 310.563 -0.807231 -5.64659 0
M  V30 3346 O 309.497 -2.72591 -5.36636 0
M  V30 3347 H 313.323 -2.19126 -2.1028 0
M  V30 3348 H 310.908 -1.12241 -0.986018 0
M  V30 3349 H 312.79 -0.816519 -4.13414 0
M  V30 3350 H 311.465 -0.0258854 -3.2369 0
M  V30 3351 H 310.372 -2.3231 -2.93228 0
M  V30 3352 H 311.705 -3.04102 -3.87018 0
M  V30 3353 N 313.357 1.07166 -1.15556 0
M  V30 3354 C 314.267 2.17947 -0.868116 0
M  V30 3355 C 315.283 1.73297 0.156297 0
M  V30 3356 O 316.459 2.01392 -0.0182327 0
M  V30 3357 C 313.524 3.44789 -0.36355 0
M  V30 3358 C 312.585 4.03996 -1.45209 0
M  V30 3359 C 311.818 5.24783 -0.971508 0
M  V30 3360 O 312.041 5.70109 0.182194 0
M  V30 3361 O 310.975 5.75715 -1.75603 0
M  V30 3362 H 314.801 2.4503 -1.79427 0
M  V30 3363 H 312.386 1.16539 -0.934824 0
M  V30 3364 H 314.268 4.21307 -0.0887113 0
M  V30 3365 H 312.943 3.19253 0.534708 0
M  V30 3366 H 311.85 3.29009 -1.78056 0
M  V30 3367 H 313.183 4.33808 -2.32533 0
M  V30 3368 N 314.835 0.952656 1.25548 0
M  V30 3369 C 316.063 0.623496 1.97282 0
M  V30 3370 C 316.478 -0.803987 1.70826 0
M  V30 3371 O 315.835 -1.53755 0.983147 0
M  V30 3372 C 315.886 0.870209 3.5087 0
M  V30 3373 O 315.607 2.24156 3.76412 0
M  V30 3374 C 317.108 0.553164 4.39835 0
M  V30 3375 H 314.328 0.233931 0.628902 0
M  V30 3376 H 316.872 1.27649 1.59768 0
M  V30 3377 H 315.027 0.263652 3.86502 0
M  V30 3378 H 315.441 2.31021 4.70882 0
M  V30 3379 H 316.915 0.776342 5.46513 0
M  V30 3380 H 317.392 -0.512215 4.36203 0
M  V30 3381 H 317.998 1.13896 4.09766 0
M  V30 3382 N 316.313 -1.40141 0.720998 0
M  V30 3383 C 317.559 -2.01572 0.272075 0
M  V30 3384 C 317.914 -1.5616 -1.12391 0
M  V30 3385 O 317.207 -0.774198 -1.75262 0
M  V30 3386 C 317.401 -3.56165 0.296892 0
M  V30 3387 C 317.23 -4.16584 1.69375 0
M  V30 3388 C 316 -4.49783 2.30269 0
M  V30 3389 C 318.198 -4.41076 2.64493 0
M  V30 3390 N 316.18 -4.95626 3.62254 0
M  V30 3391 C 317.551 -4.88971 3.81192 0
M  V30 3392 C 319.606 -4.23122 2.62435 0
M  V30 3393 C 318.309 -5.20796 4.96149 0
M  V30 3394 C 320.335 -4.56052 3.76524 0
M  V30 3395 C 319.697 -5.04141 4.91956 0
M  V30 3396 H 315.796 -0.768343 0.145511 0
M  V30 3397 H 318.38 -1.70287 0.943959 0
M  V30 3398 H 316.551 -3.86868 -0.344578 0
M  V30 3399 H 318.283 -4.04346 -0.169254 0
M  V30 3400 H 315.038 -4.37101 1.82318 0
M  V30 3401 H 315.462 -5.22923 4.29977 0
M  V30 3402 H 320.104 -3.85158 1.74393 0
M  V30 3403 H 317.822 -5.57672 5.84831 0
M  V30 3404 H 321.408 -4.43796 3.76213 0
M  V30 3405 H 320.288 -5.29142 5.78774 0
M  V30 3406 N 317.792 -0.46758 -1.50504 0
M  V30 3407 C 319.02 0.0864133 -2.06719 0
M  V30 3408 C 319.435 1.33819 -1.33184 0
M  V30 3409 O 318.792 1.78061 -0.400083 0
M  V30 3410 C 318.843 0.378079 -3.59517 0
M  V30 3411 O 318.564 -0.824044 -4.3028 0
M  V30 3412 C 320.065 0.979426 -4.32345 0
M  V30 3413 H 317.285 -0.00551697 -0.670977 0
M  V30 3414 H 319.829 -0.655354 -1.93715 0
M  V30 3415 H 317.984 1.06977 -3.72337 0
M  V30 3416 H 318.398 -0.566518 -5.21432 0
M  V30 3417 H 319.872 1.1333 -5.40241 0
M  V30 3418 H 320.349 1.9686 -3.9261 0
M  V30 3419 H 320.955 0.326216 -4.24047 0
M  V30 3420 N 319.27 1.56325 -0.20005 0
M  V30 3421 C 320.517 1.97719 0.437411 0
M  V30 3422 C 320.845 1.08709 1.61284 0
M  V30 3423 O 320.1 0.127261 1.95286 0
M  V30 3424 C 320.399 3.4495 0.935103 0
M  V30 3425 C 320.065 4.5072 -0.12749 0
M  V30 3426 C 318.727 4.79368 -0.419451 0
M  V30 3427 C 321.079 5.14268 -0.847231 0
M  V30 3428 C 318.407 5.68854 -1.43604 0
M  V30 3429 C 320.759 6.04852 -1.85301 0
M  V30 3430 C 319.423 6.31855 -2.15211 0
M  V30 3431 H 318.693 0.723507 0.16006 0
M  V30 3432 H 321.34 1.89166 -0.298056 0
M  V30 3433 H 319.645 3.50599 1.74894 0
M  V30 3434 H 321.342 3.74337 1.43781 0
M  V30 3435 H 317.932 4.28458 0.11023 0
M  V30 3436 H 322.116 4.92222 -0.634901 0
M  V30 3437 H 317.372 5.88047 -1.67364 0
M  V30 3438 H 321.546 6.53152 -2.41591 0
M  V30 3439 H 319.173 7.00994 -2.94129 0
M  V30 3440 N 320.748 -0.0735177 1.57428 0
M  V30 3441 C 321.996 -0.771472 1.86796 0
M  V30 3442 C 322.317 -1.78201 0.791804 0
M  V30 3443 O 321.587 -1.95074 -0.179718 0
M  V30 3444 H 320.167 -0.28791 0.689287 0
M  V30 3445 H 322.829 -0.0500161 1.94836 0
M  V30 3446 H 321.925 -1.28874 2.8425 0
M  V30 3447 N 322.226 -1.5378 -0.344866 0
M  V30 3448 C 323.451 -1.75211 -1.10977 0
M  V30 3449 C 323.876 -0.48936 -1.81623 0
M  V30 3450 O 323.234 0.557925 -1.72502 0
M  V30 3451 C 323.282 -2.93147 -2.09993 0
M  V30 3452 O 322.386 -2.63203 -3.17487 0
M  V30 3453 H 321.727 -0.581241 -0.321021 0
M  V30 3454 H 324.257 -2.00738 -0.395661 0
M  V30 3455 H 324.267 -3.19898 -2.53237 0
M  V30 3456 H 322.942 -3.84731 -1.5797 0
M  V30 3457 H 321.519 -2.47336 -2.79069 0
M  V30 3458 N 323.704 0.605807 -1.45491 0
M  V30 3459 C 324.651 1.7164 -1.54299 0
M  V30 3460 C 325.621 1.61486 -0.388761 0
M  V30 3461 O 326.806 1.81039 -0.602445 0
M  V30 3462 C 323.946 3.09953 -1.51734 0
M  V30 3463 C 323.059 3.309 -2.77721 0
M  V30 3464 C 322.194 4.59329 -2.66816 0
M  V30 3465 C 321.233 4.7354 -3.87848 0
M  V30 3466 N 320.37 5.9327 -3.75467 0
M  V30 3467 H 325.21 1.63449 -2.49176 0
M  V30 3468 H 322.747 0.796957 -1.23641 0
M  V30 3469 H 324.705 3.89977 -1.48235 0
M  V30 3470 H 323.335 3.17098 -0.604068 0
M  V30 3471 H 322.387 2.44639 -2.913 0
M  V30 3472 H 323.699 3.37274 -3.67488 0
M  V30 3473 H 322.853 5.4755 -2.61292 0
M  V30 3474 H 321.592 4.55355 -1.74651 0
M  V30 3475 H 320.597 3.83741 -3.93729 0
M  V30 3476 H 321.822 4.79309 -4.81082 0
M  V30 3477 H 319.768 5.90338 -2.86072 0
M  V30 3478 H 319.685 6.00811 -4.5887 0
M  V30 3479 H 320.953 6.83984 -3.73879 0
M  V30 3480 N 325.182 1.32811 0.848464 0
M  V30 3481 C 326.459 1.14334 1.58704 0
M  V30 3482 C 326.839 -0.293948 2.09043 0
M  V30 3483 O 326.187 -1.29153 1.88499 0
M  V30 3484 C 326.397 2.17626 2.72837 0
M  V30 3485 C 327.745 2.51282 3.42261 0
M  V30 3486 O 328.769 2.16219 2.83068 0
M  V30 3487 O 327.628 3.11413 4.49093 0
M  V30 3488 H 324.722 0.441601 0.699226 0
M  V30 3489 H 327.268 1.44362 0.892053 0
M  V30 3490 H 326.04 3.14211 2.3321 0
M  V30 3491 H 325.663 1.88628 3.50008 0
M  V30 3492 N 326.66 -1.06551 1.16123 0
M  V30 3493 C 327.908 -1.78947 0.939267 0
M  V30 3494 C 328.229 -1.87532 -0.534476 0
M  V30 3495 O 327.499 -1.38211 -1.38833 0
M  V30 3496 H 326.079 -0.662807 0.344523 0
M  V30 3497 H 328.741 -1.28725 1.46342 0
M  V30 3498 H 327.837 -2.81117 1.35572 0
M  V30 3499 N 328.138 -0.959301 -1.25041 0
M  V30 3500 C 329.048 -0.489994 -2.29426 0
M  V30 3501 C 330.064 0.444944 -1.68215 0
M  V30 3502 O 331.24 0.320046 -1.98841 0
M  V30 3503 C 328.305 0.220309 -3.45999 0
M  V30 3504 C 327.366 -0.753418 -4.22637 0
M  V30 3505 C 326.599 -0.076918 -5.33645 0
M  V30 3506 O 326.822 1.13649 -5.58963 0
M  V30 3507 O 325.756 -0.764824 -5.97021 0
M  V30 3508 H 329.582 -1.35755 -2.71669 0
M  V30 3509 H 327.167 -0.725961 -1.30576 0
M  V30 3510 H 329.049 0.619677 -4.16819 0
M  V30 3511 H 327.724 1.06296 -3.0575 0
M  V30 3512 H 326.631 -1.20308 -3.54227 0
M  V30 3513 H 327.964 -1.56423 -4.66683 0
M  V30 3514 N 329.616 1.39756 -0.72842 0
M  V30 3515 C 330.864 2.00248 -0.272946 0
M  V30 3516 C 331.185 1.58077 1.14178 0
M  V30 3517 O 330.455 0.826014 1.77634 0
M  V30 3518 H 329.035 0.740554 -0.0979247 0
M  V30 3519 H 331.697 1.70903 -0.936912 0
M  V30 3520 H 330.793 3.10495 -0.316142 0
M  V30 3521 N 331.094 0.475555 1.50254 0
M  V30 3522 C 332.322 -0.0754493 2.06762 0
M  V30 3523 C 332.737 -1.33111 1.33891 0
M  V30 3524 O 332.094 -1.77846 0.40952 0
M  V30 3525 C 332.145 -0.359008 3.59713 0
M  V30 3526 O 331.866 0.846851 4.29837 0
M  V30 3527 C 333.367 -0.956484 4.32858 0
M  V30 3528 H 330.587 0.00907525 0.670939 0
M  V30 3529 H 333.131 0.665618 1.93364 0
M  V30 3530 H 331.286 -1.05001 3.72899 0
M  V30 3531 H 331.7 0.594162 5.21124 0
M  V30 3532 H 333.174 -1.10463 5.40834 0
M  V30 3533 H 333.651 -1.94775 3.93649 0
M  V30 3534 H 334.257 -0.303723 4.24214 0
M  V30 3535 N 332.573 -1.56217 0.208337 0
M  V30 3536 C 333.85 -1.89739 -0.475234 0
M  V30 3537 C 334.23 -1.1238 -1.78701 0
M  V30 3538 O 333.578 -0.228979 -2.2735 0
M  V30 3539 C 333.788 -3.42289 -0.681101 0
M  V30 3540 C 335.136 -4.12789 -0.994507 0
M  V30 3541 O 336.16 -3.47814 -0.768357 0
M  V30 3542 O 335.019 -5.27649 -1.42299 0
M  V30 3543 H 332.113 -0.788478 -0.249461 0
M  V30 3544 H 334.659 -1.67855 0.249538 0
M  V30 3545 H 333.431 -3.90534 0.244722 0
M  V30 3546 H 333.054 -3.69909 -1.45785 0
M  V30 3547 N 334.051 0.0651679 -1.57465 0
M  V30 3548 C 334.981 1.07693 -2.07182 0
M  V30 3549 C 335.962 1.39962 -0.966673 0
M  V30 3550 O 337.147 1.49475 -1.2398 0
M  V30 3551 C 334.277 2.3885 -2.52127 0
M  V30 3552 C 333.231 2.20917 -3.66579 0
M  V30 3553 C 332.557 3.57515 -3.97601 0
M  V30 3554 C 333.857 1.62493 -4.9638 0
M  V30 3555 H 335.551 0.663199 -2.91962 0
M  V30 3556 H 333.097 0.317569 -1.40455 0
M  V30 3557 H 335.05 3.09928 -2.85522 0
M  V30 3558 H 333.774 2.82215 -1.64384 0
M  V30 3559 H 332.433 1.52279 -3.33477 0
M  V30 3560 H 332.081 3.98463 -3.06979 0
M  V30 3561 H 331.781 3.46353 -4.74672 0
M  V30 3562 H 333.305 4.30013 -4.33499 0
M  V30 3563 H 334.719 2.23445 -5.27963 0
M  V30 3564 H 333.116 1.62009 -5.77818 0
M  V30 3565 H 334.186 0.587041 -4.81333 0
M  V30 3566 N 335.529 1.53961 0.336706 0
M  V30 3567 C 336.776 1.71536 1.07618 0
M  V30 3568 C 337.104 0.482125 1.8843 0
M  V30 3569 O 336.359 -0.536142 1.88213 0
M  V30 3570 C 336.658 2.93493 2.03953 0
M  V30 3571 C 336.324 4.28811 1.39399 0
M  V30 3572 C 334.986 4.65602 1.21523 0
M  V30 3573 C 337.338 5.12844 0.929541 0
M  V30 3574 C 334.666 5.84037 0.558312 0
M  V30 3575 C 337.018 6.31951 0.286505 0
M  V30 3576 C 335.682 6.67432 0.0954869 0
M  V30 3577 H 334.952 0.627696 0.393801 0
M  V30 3578 H 337.599 1.88186 0.354715 0
M  V30 3579 H 335.904 2.71475 2.82504 0
M  V30 3580 H 337.601 3.04285 2.61174 0
M  V30 3581 H 334.191 3.99858 1.54311 0
M  V30 3582 H 338.375 4.84947 1.05548 0
M  V30 3583 H 333.631 6.10097 0.398995 0
M  V30 3584 H 337.805 6.96352 -0.0814376 0
M  V30 3585 H 335.432 7.59063 -0.415579 0
M  V30 3586 N 337.007 -0.598083 1.45811 0
M  V30 3587 C 337.97 -1.69018 1.54808 0
M  V30 3588 C 338.97 -1.55037 0.426652 0
M  V30 3589 O 340.16 -1.59932 0.690456 0
M  V30 3590 C 337.292 -3.0835 1.45371 0
M  V30 3591 H 338.485 -1.62403 2.52121 0
M  V30 3592 H 336.038 -0.814626 1.33392 0
M  V30 3593 H 336.773 -3.20534 0.492793 0
M  V30 3594 H 336.558 -3.19907 2.26721 0
M  V30 3595 H 338.048 -3.8788 1.54721 0
M  V30 3596 N 338.485 -1.33259 -0.841409 0
M  V30 3597 C 339.731 -1.24757 -1.59886 0
M  V30 3598 C 340.064 0.186913 -1.93298 0
M  V30 3599 O 339.339 1.12757 -1.5848 0
M  V30 3600 C 339.622 -2.12036 -2.91055 0
M  V30 3601 C 339.475 -3.63929 -2.6434 0
M  V30 3602 C 340.794 -1.9916 -3.92458 0
M  V30 3603 H 337.913 -0.454542 -0.580138 0
M  V30 3604 H 340.555 -1.63335 -0.970647 0
M  V30 3605 H 338.705 -1.79265 -3.44669 0
M  V30 3606 H 340.377 -4.06978 -2.17178 0
M  V30 3607 H 338.62 -3.85935 -1.98082 0
M  V30 3608 H 339.291 -4.20341 -3.57796 0
M  V30 3609 H 341.767 -2.27895 -3.48143 0
M  V30 3610 H 340.643 -2.62484 -4.82072 0
M  V30 3611 H 340.904 -0.963082 -4.31482 0
M  V30 3612 N 339.963 1.05934 -1.16686 0
M  V30 3613 C 340.926 2.11669 -0.879144 0
M  V30 3614 C 341.926 1.60294 0.127445 0
M  V30 3615 O 343.116 1.7389 -0.103865 0
M  V30 3616 C 340.248 3.39438 -0.315425 0
M  V30 3617 H 341.441 2.38626 -1.81653 0
M  V30 3618 H 338.994 1.22058 -0.976299 0
M  V30 3619 H 339.729 3.18132 0.629468 0
M  V30 3620 H 339.514 3.78034 -1.04079 0
M  V30 3621 H 341.004 4.17391 -0.132189 0
M  V30 3622 N 341.441 0.965919 1.2453 0
M  V30 3623 C 342.687 0.62776 1.92839 0
M  V30 3624 C 343.02 -0.834694 1.75347 0
M  V30 3625 O 342.295 -1.60031 1.10546 0
M  V30 3626 C 342.578 1.00109 3.45905 0
M  V30 3627 C 342.431 2.52011 3.72573 0
M  V30 3628 C 343.75 0.53435 4.36844 0
M  V30 3629 H 340.869 0.229537 0.700344 0
M  V30 3630 H 343.511 1.2046 1.46933 0
M  V30 3631 H 341.661 0.510238 3.85135 0
M  V30 3632 H 343.333 3.08559 3.42912 0
M  V30 3633 H 341.576 2.95287 3.17786 0
M  V30 3634 H 342.247 2.73183 4.79661 0
M  V30 3635 H 344.723 0.955565 4.04979 0
M  V30 3636 H 343.599 0.824152 5.42678 0
M  V30 3637 H 343.86 -0.565589 4.38467 0
M  V30 3638 N 342.919 -1.39368 0.735821 0
M  V30 3639 C 343.869 -2.27885 0.0724287 0
M  V30 3640 C 344.853 -1.44301 -0.711756 0
M  V30 3641 O 346.045 -1.67206 -0.58063 0
M  V30 3642 C 343.174 -3.33029 -0.833454 0
M  V30 3643 C 342.26 -4.24078 -0.0433749 0
M  V30 3644 N 342.651 -4.96138 0.983903 0
M  V30 3645 C 340.949 -4.45164 -0.272905 0
M  V30 3646 C 341.65 -5.63069 1.4604 0
M  V30 3647 N 340.626 -5.37991 0.778857 0
M  V30 3648 H 344.428 -2.81052 0.859467 0
M  V30 3649 H 341.942 -1.5206 0.570227 0
M  V30 3650 H 343.939 -3.95311 -1.32419 0
M  V30 3651 H 342.599 -2.81421 -1.61964 0
M  V30 3652 H 343.61 -4.9958 1.36528 0
M  V30 3653 H 340.287 -4.04497 -1.03383 0
M  V30 3654 H 341.677 -6.30755 2.31511 0
M  V30 3655 N 344.397 -0.483516 -1.5 0
M  V30 3656 C 345.307 0.309172 -2.32554 0
M  V30 3657 C 346.323 0.984159 -1.43493 0
M  V30 3658 O 347.499 0.969399 -1.76535 0
M  V30 3659 C 344.564 1.36979 -3.18493 0
M  V30 3660 C 343.625 0.710095 -4.23387 0
M  V30 3661 C 342.858 1.72018 -5.05218 0
M  V30 3662 O 343.081 2.94813 -4.88305 0
M  V30 3663 O 342.015 1.28515 -5.8802 0
M  V30 3664 H 345.841 -0.366064 -3.01486 0
M  V30 3665 H 343.426 -0.24514 -1.47375 0
M  V30 3666 H 345.308 1.98385 -3.71781 0
M  V30 3667 H 343.983 2.02828 -2.52275 0
M  V30 3668 H 342.89 0.0567539 -3.74057 0
M  V30 3669 H 344.223 0.0943557 -4.9211 0
M  V30 3670 N 345.875 1.56104 -0.216619 0
M  V30 3671 C 347.122 1.98172 0.416416 0
M  V30 3672 C 347.45 1.10413 1.60122 0
M  V30 3673 O 346.705 0.147967 1.9514 0
M  V30 3674 C 347.004 3.45923 0.898464 0
M  V30 3675 C 346.67 4.50559 -0.175288 0
M  V30 3676 C 345.332 4.78897 -0.470271 0
M  V30 3677 C 347.684 5.1334 -0.901728 0
M  V30 3678 C 345.012 5.67299 -1.4963 0
M  V30 3679 C 347.364 6.02853 -1.91705 0
M  V30 3680 C 346.028 6.29537 -2.21901 0
M  V30 3681 H 345.298 0.725164 0.152377 0
M  V30 3682 H 347.945 1.88839 -0.318103 0
M  V30 3683 H 346.25 3.52434 1.71165 0
M  V30 3684 H 347.947 3.75841 1.39803 0
M  V30 3685 H 344.537 4.28551 0.0647806 0
M  V30 3686 H 348.721 4.91521 -0.687072 0
M  V30 3687 H 343.977 5.86239 -1.73592 0
M  V30 3688 H 348.151 6.50552 -2.48505 0
M  V30 3689 H 345.778 6.97835 -3.01548 0
M  V30 3690 N 347.353 -0.0568162 1.57498 0
M  V30 3691 C 348.601 -0.751617 1.87604 0
M  V30 3692 C 348.922 -1.77351 0.81066 0
M  V30 3693 O 348.192 -1.95254 -0.159018 0
M  V30 3694 H 346.772 -0.280583 0.692302 0
M  V30 3695 H 349.434 -0.0293483 1.94878 0
M  V30 3696 H 348.53 -1.25852 2.856 0
M  V30 3697 N 348.832 -1.54138 -0.328536 0
M  V30 3698 C 349.782 -1.79557 -1.4051 0
M  V30 3699 C 350.766 -0.651373 -1.47126 0
M  V30 3700 O 351.958 -0.911226 -1.51742 0
M  V30 3701 C 349.087 -2.02196 -2.77438 0
M  V30 3702 C 348.173 -3.22724 -2.75155 0
M  V30 3703 N 348.564 -4.43881 -2.42494 0
M  V30 3704 C 346.862 -3.24196 -3.06289 0
M  V30 3705 C 347.563 -5.25797 -2.48822 0
M  V30 3706 N 346.539 -4.62862 -2.8506 0
M  V30 3707 H 350.341 -2.70814 -1.1418 0
M  V30 3708 H 347.855 -1.53265 -0.536991 0
M  V30 3709 H 349.852 -2.18546 -3.55026 0
M  V30 3710 H 348.512 -1.12191 -3.04702 0
M  V30 3711 H 349.523 -4.70969 -2.15428 0
M  V30 3712 H 346.2 -2.44208 -3.38627 0
M  V30 3713 H 347.59 -6.32535 -2.26603 0
M  V30 3714 N 350.31 0.590341 -1.46126 0
M  V30 3715 C 351.273 1.68194 -1.55703 0
M  V30 3716 C 352.273 1.54808 -0.434868 0
M  V30 3717 O 353.463 1.59564 -0.698928 0
M  V30 3718 C 350.595 3.07575 -1.47005 0
M  V30 3719 H 351.788 1.61064 -2.52979 0
M  V30 3720 H 349.341 0.807541 -1.33823 0
M  V30 3721 H 350.076 3.20268 -0.509785 0
M  V30 3722 H 349.861 3.187 -2.28414 0
M  V30 3723 H 351.351 3.87055 -1.56776 0
M  V30 3724 N 351.788 1.33704 0.83433 0
M  V30 3725 C 352.718 1.26967 1.95963 0
M  V30 3726 C 353.699 0.149337 1.69443 0
M  V30 3727 O 354.884 0.339852 1.91203 0
M  V30 3728 C 352.014 1.01275 3.32206 0
M  V30 3729 C 350.968 2.09652 3.73136 0
M  V30 3730 C 350.294 1.69166 5.07235 0
M  V30 3731 C 351.594 3.51372 3.86439 0
M  V30 3732 H 353.288 2.2112 2.01857 0
M  V30 3733 H 350.834 1.06447 0.969793 0
M  V30 3734 H 352.787 0.952106 4.10503 0
M  V30 3735 H 351.511 0.0356203 3.26581 0
M  V30 3736 H 350.17 2.14766 2.97104 0
M  V30 3737 H 349.818 0.701437 4.98085 0
M  V30 3738 H 349.518 2.41694 5.35591 0
M  V30 3739 H 351.042 1.64576 5.88003 0
M  V30 3740 H 352.456 3.48734 4.55036 0
M  V30 3741 H 350.853 4.22425 4.26236 0
M  V30 3742 H 351.923 3.89546 2.88759 0
M  V30 3743 N 353.266 -1.05314 1.17247 0
M  V30 3744 C 354.514 -1.77941 0.958194 0
M  V30 3745 C 354.835 -1.88089 -0.514556 0
M  V30 3746 O 354.105 -1.39676 -1.37359 0
M  V30 3747 H 352.685 -0.659116 0.351533 0
M  V30 3748 H 355.347 -1.27166 1.47699 0
M  V30 3749 H 354.443 -2.79663 1.38546 0
M  V30 3750 N 354.744 -0.972509 -1.24016 0
M  V30 3751 C 355.674 -0.525548 -2.27509 0
M  V30 3752 C 356.655 0.437262 -1.64384 0
M  V30 3753 O 357.84 0.332343 -1.91335 0
M  V30 3754 C 354.97 0.180448 -3.46831 0
M  V30 3755 C 353.924 -0.698859 -4.22256 0
M  V30 3756 C 353.25 0.138903 -5.3452 0
M  V30 3757 C 354.55 -1.98582 -4.83076 0
M  V30 3758 H 356.244 -1.39058 -2.65148 0
M  V30 3759 H 353.79 -0.67009 -1.27459 0
M  V30 3760 H 355.743 0.504387 -4.18371 0
M  V30 3761 H 354.467 1.07987 -3.08231 0
M  V30 3762 H 353.126 -1.00614 -3.52523 0
M  V30 3763 H 352.774 1.03862 -4.9216 0
M  V30 3764 H 352.474 -0.446259 -5.85903 0
M  V30 3765 H 353.998 0.457404 -6.08884 0
M  V30 3766 H 355.412 -1.72715 -5.46665 0
M  V30 3767 H 353.809 -2.5181 -5.44713 0
M  V30 3768 H 354.879 -2.67769 -4.04262 0
M  V30 3769 N 356.222 1.38976 -0.743202 0
M  V30 3770 C 357.47 1.99948 -0.29417 0
M  V30 3771 C 357.791 1.59279 1.12495 0
M  V30 3772 O 357.061 0.844808 1.76748 0
M  V30 3773 H 355.641 0.739473 -0.105774 0
M  V30 3774 H 358.303 1.699 -0.954986 0
M  V30 3775 H 357.399 3.10142 -0.349056 0
M  V30 3776 N 357.7 0.491464 1.49741 0
M  V30 3777 C 358.65 -0.311086 2.25868 0
M  V30 3778 C 359.634 -0.943857 1.30308 0
M  V30 3779 O 360.826 -0.853035 1.55088 0
M  V30 3780 C 357.955 -1.38059 3.14316 0
M  V30 3781 C 357.041 -0.754541 4.17334 0
M  V30 3782 N 357.432 0.137216 5.05614 0
M  V30 3783 C 355.73 -1.01621 4.34269 0
M  V30 3784 C 356.431 0.494614 5.79593 0
M  V30 3785 N 355.407 -0.135169 5.43432 0
M  V30 3786 H 359.209 0.37555 2.91491 0
M  V30 3787 H 356.723 0.306917 1.59473 0
M  V30 3788 H 358.72 -1.96891 3.67477 0
M  V30 3789 H 357.38 -2.06901 2.50244 0
M  V30 3790 H 358.391 0.50741 5.15408 0
M  V30 3791 H 355.068 -1.69808 3.81407 0
M  V30 3792 H 356.458 1.2236 6.60665 0
M  V30 3793 N 359.178 -1.55987 0.224894 0
M  V30 3794 C 360.403 -2.03232 -0.41369 0
M  V30 3795 C 360.828 -1.10359 -1.52323 0
M  V30 3796 O 360.186 -0.092395 -1.81064 0
M  V30 3797 C 360.234 -3.48682 -0.919405 0
M  V30 3798 O 359.338 -3.58947 -2.03054 0
M  V30 3799 H 358.679 -0.657428 -0.0931903 0
M  V30 3800 H 361.209 -2.01679 0.34451 0
M  V30 3801 H 361.219 -3.8907 -1.22835 0
M  V30 3802 H 359.894 -4.15761 -0.107339 0
M  V30 3803 H 358.471 -3.30448 -1.72796 0
M  V30 3804 N 360.656 0.0484629 -1.57525 0
M  V30 3805 C 361.881 0.759177 -1.93006 0
M  V30 3806 C 362.306 1.69125 -0.823317 0
M  V30 3807 O 361.664 1.79931 0.222364 0
M  V30 3808 C 361.712 1.50899 -3.27509 0
M  V30 3809 O 360.816 2.62112 -3.18388 0
M  V30 3810 H 360.157 0.205564 -0.631379 0
M  V30 3811 H 362.687 0.00972959 -2.04598 0
M  V30 3812 H 362.697 1.88317 -3.6194 0
M  V30 3813 H 361.372 0.825269 -4.0763 0
M  V30 3814 H 359.949 2.27379 -2.95556 0
M  V30 3815 N 362.134 1.5431 0.320358 0
M  V30 3816 C 363.097 1.83195 1.3774 0
M  V30 3817 C 364.097 0.703906 1.44575 0
M  V30 3818 O 365.287 0.972214 1.44546 0
M  V30 3819 C 362.419 1.99487 2.76438 0
M  V30 3820 H 363.612 2.77642 1.1338 0
M  V30 3821 H 361.165 1.46076 0.556012 0
M  V30 3822 H 361.9 1.07262 3.06048 0
M  V30 3823 H 361.685 2.81575 2.7287 0
M  V30 3824 H 363.175 2.23271 3.52902 0
M  V30 3825 N 363.613 -0.582584 1.46437 0
M  V30 3826 C 365.024 -1.1647 1.45916 0
M  V30 3827 C 365.375 -1.95177 0.200077 0
M  V30 3828 O 364.5 -2.04874 -0.696819 0
M  V30 3829 C 365.095 -2.11885 2.64367 0
M  V30 3830 C 363.654 -2.65421 2.66887 0
M  V30 3831 C 362.801 -1.41294 2.38603 0
M  V30 3832 H 365.752 -0.370514 1.54314 0
M  V30 3833 H 365.773 -2.9535 2.39892 0
M  V30 3834 H 365.285 -1.54573 3.5599 0
M  V30 3835 H 363.386 -3.26602 1.79338 0
M  V30 3836 H 363.499 -3.08147 3.66854 0
M  V30 3837 H 361.863 -1.71109 1.88663 0
M  V30 3838 H 362.646 -0.858125 3.32402 0
M  V30 3839 N 365.091 -1.34144 -0.827227 0
M  V30 3840 C 366.039 -1.25364 -1.95925 0
M  V30 3841 C 367.033 -0.152608 -1.68711 0
M  V30 3842 O 368.239 -0.317311 -1.77181 0
M  V30 3843 H 364.614 -0.389342 -0.643364 0
M  V30 3844 H 366.585 -2.21045 -2.00454 0
M  V30 3845 C 365.334 -1.02158 -3.32354 0
M  V30 3846 H 364.657 -1.86111 -3.5384 0
M  V30 3847 H 366.097 -1.00048 -4.12027 0
M  V30 3848 C 364.556 0.275244 -3.35774 0
M  V30 3849 O 365.086 1.27806 -3.80826 0
M  V30 3850 N 363.292 0.306853 -2.88975 0
M  V30 3851 H 362.839 -0.509777 -2.52506 0
M  V30 3852 H 362.797 1.17432 -2.91646 0
M  V30 3853 N 366.569 1.04691 -1.17803 0
M  V30 3854 C 367.794 1.81984 -0.994813 0
M  V30 3855 C 368.219 1.82586 0.452112 0
M  V30 3856 O 367.577 1.23854 1.324 0
M  V30 3857 C 367.625 3.2575 -1.54659 0
M  V30 3858 O 366.729 4.05267 -0.763728 0
M  V30 3859 H 366.07 0.562483 -0.352857 0
M  V30 3860 H 368.6 1.3189 -1.56417 0
M  V30 3861 H 368.61 3.76541 -1.57102 0
M  V30 3862 H 367.285 3.24627 -2.59981 0
M  V30 3863 H 365.862 3.63972 -0.811108 0
M  V30 3864 N 368.047 0.979072 1.23499 0
M  V30 3865 C 369.296 0.642751 1.91185 0
M  V30 3866 C 369.609 -0.827253 1.77245 0
M  V30 3867 O 370.815 -1.27458 2.39722 0
M  V30 3868 C 369.271 1.09901 3.42709 0
M  V30 3869 C 368.879 2.59327 3.65313 0
M  V30 3870 C 370.623 0.836371 4.16179 0
M  V30 3871 C 368.53 2.98627 5.10467 0
M  V30 3872 H 367.46 0.236698 0.715884 0
M  V30 3873 H 370.111 1.1868 1.39955 0
M  V30 3874 H 368.493 0.48319 3.93041 0
M  V30 3875 H 369.667 3.26136 3.25533 0
M  V30 3876 H 367.982 2.83323 3.05151 0
M  V30 3877 H 370.579 1.10586 5.23139 0
M  V30 3878 H 370.922 -0.227509 4.15678 0
M  V30 3879 H 371.455 1.41371 3.71832 0
M  V30 3880 H 368.194 4.04133 5.16098 0
M  V30 3881 H 367.714 2.3651 5.51201 0
M  V30 3882 H 369.393 2.89159 5.78788 0
M  V30 3883 N 369.525 -1.3858 0.750561 0
M  V30 3884 C 370.458 -2.28095 0.0693139 0
M  V30 3885 C 371.436 -1.45217 -0.731491 0
M  V30 3886 O 372.62 -1.74587 -0.71076 0
M  V30 3887 C 369.747 -3.26282 -0.90871 0
M  V30 3888 C 368.793 -4.26056 -0.194507 0
M  V30 3889 S 369.626 -5.24026 1.10257 0
M  V30 3890 C 370.782 -6.2577 0.127542 0
M  V30 3891 H 371.015 -2.85526 0.8284 0
M  V30 3892 H 368.548 -1.44536 0.543014 0
M  V30 3893 H 370.506 -3.83367 -1.46766 0
M  V30 3894 H 369.167 -2.6784 -1.64075 0
M  V30 3895 H 368.36 -4.95249 -0.93512 0
M  V30 3896 H 367.962 -3.72852 0.292837 0
M  V30 3897 H 370.254 -6.73796 -0.707516 0
M  V30 3898 H 371.197 -7.03712 0.787044 0
M  V30 3899 H 371.605 -5.63938 -0.251803 0
M  V30 3900 N 371.003 -0.499398 -1.49478 0
M  V30 3901 C 372.419 -0.155261 -1.58843 0
M  V30 3902 C 372.619 1.34008 -1.50479 0
M  V30 3903 O 371.675 2.11589 -1.37791 0
M  V30 3904 C 372.988 -0.730636 -2.91689 0
M  V30 3905 C 374.536 -0.696599 -3.0515 0
M  V30 3906 C 375.011 -1.25001 -4.40612 0
M  V30 3907 N 376.502 -1.21064 -4.47099 0
M  V30 3908 C 377.237 -1.60905 -5.50361 0
M  V30 3909 N 376.733 -2.08331 -6.60735 0
M  V30 3910 N 378.526 -1.52331 -5.41065 0
M  V30 3911 H 370.677 -1.47162 -1.53158 0
M  V30 3912 H 372.94 -0.610309 -0.725415 0
M  V30 3913 H 372.646 -1.77928 -3.03372 0
M  V30 3914 H 372.52 -0.190161 -3.7672 0
M  V30 3915 H 374.907 0.343204 -2.93097 0
M  V30 3916 H 374.988 -1.2742 -2.21806 0
M  V30 3917 H 374.632 -2.28859 -4.53416 0
M  V30 3918 H 374.562 -0.64836 -5.22593 0
M  V30 3919 H 377.053 -0.863128 -3.67911 0
M  V30 3920 H 377.366 -2.36805 -7.35624 0
M  V30 3921 H 375.711 -2.12304 -6.6178 0
M  V30 3922 H 378.902 -1.151 -4.53729 0
M  V30 3923 H 379.075 -1.83704 -6.21415 0
M  V30 3924 N 372.481 1.55866 -0.233164 0
M  V30 3925 C 373.892 1.847 0.272554 0
M  V30 3926 C 374.243 1.15477 1.58617 0
M  V30 3927 O 373.368 0.42841 2.12117 0
M  V30 3928 C 373.963 3.35071 0.501299 0
M  V30 3929 C 372.522 3.6418 0.951304 0
M  V30 3930 C 371.669 2.77292 0.0208209 0
M  V30 3931 H 374.62 1.52005 -0.456074 0
M  V30 3932 H 374.641 3.55906 1.34577 0
M  V30 3933 H 374.153 3.85424 -0.454936 0
M  V30 3934 H 372.254 3.19293 1.92049 0
M  V30 3935 H 372.367 4.72071 0.817675 0
M  V30 3936 H 370.731 2.49131 0.529723 0
M  V30 3937 H 371.514 3.30448 -0.93054 0
M  V30 3938 N 373.959 -0.0401083 1.57549 0
M  V30 3939 C 375.206 -0.733125 1.88763 0
M  V30 3940 C 375.534 -1.75946 0.829058 0
M  V30 3941 O 374.789 -1.94949 -0.171323 0
M  V30 3942 C 375.088 -1.44902 3.26708 0
M  V30 3943 C 374.754 -0.559707 4.47413 0
M  V30 3944 C 373.416 -0.314731 4.8017 0
M  V30 3945 C 375.768 0.0549743 5.21171 0
M  V30 3946 C 373.096 0.553886 5.8408 0
M  V30 3947 C 375.448 0.911229 6.26003 0
M  V30 3948 C 374.112 1.16577 6.57241 0
M  V30 3949 H 373.382 -0.268269 0.690733 0
M  V30 3950 H 376.029 0.00679408 1.91499 0
M  V30 3951 H 374.334 -2.26197 3.1991 0
M  V30 3952 H 376.031 -1.99058 3.48105 0
M  V30 3953 H 372.621 -0.760793 4.21794 0
M  V30 3954 H 376.805 -0.121344 4.96152 0
M  V30 3955 H 372.061 0.759518 6.06664 0
M  V30 3956 H 376.235 1.3941 6.82303 0
M  V30 3957 H 373.862 1.84058 7.37582 0
M  V30 3958 N 375.437 -1.54477 -0.31217 0
M  V30 3959 C 376.667 -1.76948 -1.06645 0
M  V30 3960 C 377.075 -0.523593 -1.81811 0
M  V30 3961 O 376.418 0.51578 -1.76311 0
M  V30 3962 C 376.48 -2.91668 -2.10166 0
M  V30 3963 C 376.144 -4.30165 -1.54296 0
M  V30 3964 C 377.141 -5.10603 -0.978793 0
M  V30 3965 C 374.826 -4.76738 -1.58196 0
M  V30 3966 C 376.82 -6.3573 -0.461048 0
M  V30 3967 C 374.507 -6.01831 -1.06034 0
M  V30 3968 C 375.505 -6.81161 -0.500844 0
M  V30 3969 O 375.193 -8.03899 0.0128958 0
M  V30 3970 H 374.925 -0.594088 -0.322546 0
M  V30 3971 H 377.479 -2.02213 -0.360441 0
M  V30 3972 H 375.709 -2.62001 -2.84416 0
M  V30 3973 H 377.398 -3.01817 -2.71406 0
M  V30 3974 H 378.164 -4.75771 -0.941651 0
M  V30 3975 H 374.043 -4.15027 -2.00683 0
M  V30 3976 H 377.587 -6.97596 -0.0236894 0
M  V30 3977 H 373.484 -6.36152 -1.09459 0
M  V30 3978 H 374.252 -8.18437 -0.101457 0
M  V30 3979 N 376.915 0.57481 -1.46744 0
M  V30 3980 C 377.847 1.69804 -1.53946 0
M  V30 3981 C 378.86 1.57098 -0.427106 0
M  V30 3982 O 380.049 1.64378 -0.695863 0
M  V30 3983 C 377.149 3.08125 -1.4111 0
M  V30 3984 C 376.322 3.46757 -2.66605 0
M  V30 3985 C 375.381 4.6417 -2.47855 0
M  V30 3986 O 374.407 4.69634 -3.21609 0
M  V30 3987 N 375.609 5.59553 -1.54534 0
M  V30 3988 H 378.374 1.64077 -2.50796 0
M  V30 3989 H 375.935 0.761 -1.429 0
M  V30 3990 H 377.927 3.84478 -1.26328 0
M  V30 3991 H 376.497 3.08175 -0.524109 0
M  V30 3992 H 375.717 2.6003 -2.96274 0
M  V30 3993 H 377.005 3.69337 -3.49954 0
M  V30 3994 H 376.403 5.57881 -0.937304 0
M  V30 3995 H 374.96 6.35304 -1.45711 0
M  V30 3996 N 378.394 1.34581 0.820102 0
M  V30 3997 C 379.642 1.26845 1.57336 0
M  V30 3998 C 379.963 -0.160667 1.94337 0
M  V30 3999 O 379.233 -1.09396 1.6251 0
M  V30 4000 H 377.813 0.466514 0.583415 0
M  V30 4001 H 380.475 1.68526 0.979027 0
M  V30 4002 H 379.571 1.87513 2.4949 0
M  V30 4003 N 379.872 -1.04064 1.18357 0
M  V30 4004 C 381.283 -1.58719 0.98312 0
M  V30 4005 C 381.634 -1.90556 -0.467193 0
M  V30 4006 O 380.759 -1.69561 -1.34454 0
M  V30 4007 C 381.354 -2.88379 1.77828 0
M  V30 4008 C 379.913 -3.3965 1.62218 0
M  V30 4009 C 379.06 -2.13235 1.77274 0
M  V30 4010 H 382.011 -0.867359 1.32901 0
M  V30 4011 H 382.032 -3.58773 1.26737 0
M  V30 4012 H 381.544 -2.65176 2.83379 0
M  V30 4013 H 379.645 -3.67866 0.592036 0
M  V30 4014 H 379.758 -4.13475 2.42023 0
M  V30 4015 H 378.122 -2.24542 1.20221 0
M  V30 4016 H 378.905 -1.92487 2.8426 0
M  V30 4017 N 381.35 -0.985608 -1.22978 0
M  V30 4018 C 382.596 -0.65836 -1.91816 0
M  V30 4019 C 382.929 0.806692 -1.76653 0
M  V30 4020 O 382.204 1.58252 -1.13078 0
M  V30 4021 C 382.487 -1.056 -3.44268 0
M  V30 4022 C 382.34 -2.57906 -3.68516 0
M  V30 4023 C 383.659 -0.603781 -4.35939 0
M  V30 4024 H 380.778 -0.24065 -0.696604 0
M  V30 4025 H 383.42 -1.22783 -1.44998 0
M  V30 4026 H 381.57 -0.571445 -3.84274 0
M  V30 4027 H 383.242 -3.13976 -3.3796 0
M  V30 4028 H 381.485 -3.00305 -3.13048 0
M  V30 4029 H 382.156 -2.80779 -4.75255 0
M  V30 4030 H 384.632 -1.01987 -4.03408 0
M  V30 4031 H 383.508 -0.910383 -5.41298 0
M  V30 4032 H 383.769 0.495761 -4.39312 0
M  V30 4033 N 382.828 1.3818 -0.7579 0
M  V30 4034 C 384.076 1.99624 -0.315361 0
M  V30 4035 C 384.397 1.60464 1.10799 0
M  V30 4036 O 383.667 0.863507 1.75842 0
M  V30 4037 H 382.247 0.73831 -0.113611 0
M  V30 4038 H 384.909 1.68878 -0.972952 0
M  V30 4039 H 384.005 3.09754 -0.381931 0
M  V30 4040 N 384.306 0.507319 1.49211 0
M  V30 4041 C 385.583 -0.0982702 1.95353 0
M  V30 4042 C 385.963 -1.53516 1.449 0
M  V30 4043 O 385.311 -2.18594 0.66551 0
M  V30 4044 C 385.521 -0.00440283 3.49 0
M  V30 4045 C 386.869 -0.175147 4.24239 0
M  V30 4046 O 387.893 -0.0792891 3.56112 0
M  V30 4047 O 386.752 -0.37276 5.45227 0
M  V30 4048 H 383.846 -0.0918236 0.821887 0
M  V30 4049 H 386.392 0.570307 1.5983 0
M  V30 4050 H 385.164 0.997402 3.78375 0
M  V30 4051 H 384.787 -0.712845 3.91158 0
M  V30 4052 N 385.784 -1.5574 0.241426 0
M  V30 4053 C 387.195 -1.84842 -0.262755 0
M  V30 4054 C 387.546 -1.16317 -1.58003 0
M  V30 4055 O 386.671 -0.439653 -2.11887 0
M  V30 4056 C 387.266 -3.35332 -0.483523 0
M  V30 4057 C 385.825 -3.6468 -0.931977 0
M  V30 4058 C 384.972 -2.77299 -0.0061151 0
M  V30 4059 H 387.923 -1.51761 0.464129 0
M  V30 4060 H 387.944 -3.56615 -1.32688 0
M  V30 4061 H 387.456 -3.85178 0.47537 0
M  V30 4062 H 385.557 -3.20307 -1.90353 0
M  V30 4063 H 385.67 -4.72498 -0.792628 0
M  V30 4064 H 384.034 -2.49408 -0.516503 0
M  V30 4065 H 384.817 -3.2995 0.948052 0
M  V30 4066 N 387.262 0.0317525 -1.57568 0
M  V30 4067 C 388.539 0.758366 -1.803 0
M  V30 4068 C 388.919 1.93718 -0.838845 0
M  V30 4069 O 388.267 2.28187 0.119571 0
M  V30 4070 C 388.477 1.19392 -3.27943 0
M  V30 4071 C 389.825 1.61094 -3.92854 0
M  V30 4072 O 390.849 1.28857 -3.32076 0
M  V30 4073 O 389.708 2.20918 -4.99858 0
M  V30 4074 H 386.802 0.366514 -0.741348 0
M  V30 4075 H 389.348 0.00873765 -1.69698 0
M  V30 4076 H 388.12 0.352275 -3.89711 0
M  V30 4077 H 387.743 2.00365 -3.43424 0
M  V30 4078 N 388.74 1.54641 0.303973 0
M  V30 4079 C 389.687 1.85386 1.37479 0
M  V30 4080 C 390.657 0.702528 1.50512 0
M  V30 4081 O 391.842 0.950867 1.65418 0
M  V30 4082 C 388.982 2.10413 2.73533 0
M  V30 4083 C 388.095 3.38049 2.68974 0
M  V30 4084 C 387.23 3.52934 3.97002 0
M  V30 4085 C 386.269 4.74373 3.86829 0
M  V30 4086 N 385.406 4.8608 5.06627 0
M  V30 4087 H 390.246 2.76732 1.1056 0
M  V30 4088 H 387.783 1.37034 0.534805 0
M  V30 4089 H 389.741 2.22919 3.52652 0
M  V30 4090 H 388.371 1.22338 2.98719 0
M  V30 4091 H 387.423 3.3418 1.81736 0
M  V30 4092 H 388.735 4.27288 2.57346 0
M  V30 4093 H 387.889 3.65088 4.84557 0
M  V30 4094 H 386.628 2.61824 4.1146 0
M  V30 4095 H 385.633 4.62255 2.97658 0
M  V30 4096 H 386.858 5.66888 3.73918 0
M  V30 4097 H 384.804 3.97891 5.21554 0
M  V30 4098 H 384.721 5.69315 4.9741 0
M  V30 4099 H 385.989 5.02587 5.95841 0
M  V30 4100 N 390.218 -0.567019 1.47046 0
M  V30 4101 C 391.448 -1.34831 1.56538 0
M  V30 4102 C 391.856 -1.8802 0.21101 0
M  V30 4103 O 391.199 -1.65152 -0.804387 0
M  V30 4104 C 391.261 -2.56139 2.52256 0
M  V30 4105 C 390.925 -2.24307 3.98165 0
M  V30 4106 C 391.922 -1.82192 4.86931 0
M  V30 4107 C 389.607 -2.35968 4.43423 0
M  V30 4108 C 391.601 -1.52153 6.18973 0
M  V30 4109 C 389.288 -2.05542 5.75496 0
M  V30 4110 C 390.286 -1.63701 6.63092 0
M  V30 4111 O 389.974 -1.33657 7.92711 0
M  V30 4112 H 389.706 -0.417683 0.531523 0
M  V30 4113 H 392.26 -0.694726 1.93294 0
M  V30 4114 H 390.49 -3.24356 2.10548 0
M  V30 4115 H 392.179 -3.18214 2.51982 0
M  V30 4116 H 392.945 -1.72684 4.53217 0
M  V30 4117 H 388.824 -2.67495 3.75456 0
M  V30 4118 H 392.368 -1.19421 6.87302 0
M  V30 4119 H 388.265 -2.14679 6.08755 0
M  V30 4120 H 389.033 -1.4737 8.05124 0
M  V30 4121 N 391.696 -1.35014 -0.812953 0
M  V30 4122 C 393.112 -1.14914 -1.10757 0
M  V30 4123 C 393.312 0.0426818 -2.01455 0
M  V30 4124 O 392.368 0.715212 -2.42159 0
M  V30 4125 C 393.681 -2.44911 -1.74468 0
M  V30 4126 C 395.229 -2.5106 -1.86917 0
M  V30 4127 C 395.704 -3.81085 -2.54044 0
M  V30 4128 N 397.195 -3.82301 -2.61535 0
M  V30 4129 C 397.93 -4.79634 -3.14227 0
M  V30 4130 N 397.426 -5.87353 -3.67407 0
M  V30 4131 N 399.219 -4.67078 -3.12721 0
M  V30 4132 H 391.37 -2.1136 -0.20989 0
M  V30 4133 H 393.633 -0.935128 -0.155692 0
M  V30 4134 H 393.339 -3.32267 -1.15289 0
M  V30 4135 H 393.213 -2.58989 -2.74234 0
M  V30 4136 H 395.6 -1.64137 -2.45241 0
M  V30 4137 H 395.681 -2.40901 -0.860242 0
M  V30 4138 H 395.325 -4.68402 -1.96372 0
M  V30 4139 H 395.255 -3.88529 -3.55461 0
M  V30 4140 H 397.746 -3.04465 -2.23851 0
M  V30 4141 H 398.059 -6.57624 -4.05894 0
M  V30 4142 H 396.404 -5.91054 -3.65623 0
M  V30 4143 H 399.595 -3.82067 -2.70449 0
M  V30 4144 H 399.768 -5.43098 -3.53481 0
M  V30 4145 N 393.175 1.03435 -1.18907 0
M  V30 4146 C 394.105 2.13503 -0.945448 0
M  V30 4147 C 395.086 1.69682 0.119189 0
M  V30 4148 O 396.271 1.94169 -0.034707 0
M  V30 4149 C 393.401 3.44004 -0.477316 0
M  V30 4150 C 392.355 4.0148 -1.48316 0
M  V30 4151 C 391.681 5.27537 -0.872311 0
M  V30 4152 C 392.981 4.36921 -2.86177 0
M  V30 4153 H 394.675 2.34141 -1.86597 0
M  V30 4154 H 392.221 1.12523 -0.898584 0
M  V30 4155 H 394.174 4.20372 -0.294204 0
M  V30 4156 H 392.898 3.23072 0.478786 0
M  V30 4157 H 391.557 3.27201 -1.65332 0
M  V30 4158 H 391.205 5.02917 0.0911752 0
M  V30 4159 H 390.905 5.66954 -1.54393 0
M  V30 4160 H 392.429 6.06576 -0.699871 0
M  V30 4161 H 393.843 5.04248 -2.72776 0
M  V30 4162 H 392.24 4.87405 -3.50081 0
M  V30 4163 H 393.31 3.46466 -3.39248 0
M  V30 4164 N 394.653 0.992116 1.22453 0
M  V30 4165 C 395.878 0.685644 1.95739 0
M  V30 4166 C 396.303 -0.743 1.72804 0
M  V30 4167 O 395.661 -1.50778 1.00676 0
M  V30 4168 C 395.709 0.996293 3.46564 0
M  V30 4169 O 394.813 0.0945512 4.12292 0
M  V30 4170 H 394.154 0.256694 0.612376 0
M  V30 4171 H 396.684 1.32888 1.5557 0
M  V30 4172 H 396.694 0.93781 3.97076 0
M  V30 4173 H 395.369 2.03733 3.62582 0
M  V30 4174 H 393.946 0.208451 3.72317 0
M  V30 4175 N 396.131 -1.37776 0.765217 0
M  V30 4176 C 397.063 -2.28958 0.105361 0
M  V30 4177 C 398.076 -1.48316 -0.67128 0
M  V30 4178 O 399.265 -1.71046 -0.51045 0
M  V30 4179 C 396.365 -3.27421 -0.874569 0
M  V30 4180 C 395.538 -4.37132 -0.153123 0
M  V30 4181 C 394.597 -5.1571 -1.04547 0
M  V30 4182 O 393.623 -5.66896 -0.511672 0
M  V30 4183 N 394.825 -5.29808 -2.37243 0
M  V30 4184 H 397.59 -2.86227 0.888495 0
M  V30 4185 H 395.151 -1.49682 0.617 0
M  V30 4186 H 397.143 -3.7687 -1.47483 0
M  V30 4187 H 395.713 -2.70967 -1.55871 0
M  V30 4188 H 394.933 -3.89166 0.627975 0
M  V30 4189 H 396.221 -5.07625 0.345643 0
M  V30 4190 H 395.619 -4.89793 -2.83054 0
M  V30 4191 H 394.176 -5.82589 -2.9229 0
M  V30 4192 N 397.609 -0.515225 -1.4894 0
M  V30 4193 C 398.886 0.0879088 -1.95402 0
M  V30 4194 C 399.266 1.52745 -1.45712 0
M  V30 4195 O 398.614 2.18238 -0.677093 0
M  V30 4196 C 398.824 -0.0141055 -3.48997 0
M  V30 4197 C 400.172 0.152646 -4.24326 0
M  V30 4198 O 401.196 0.0604025 -3.56149 0
M  V30 4199 O 400.055 0.34384 -5.45417 0
M  V30 4200 H 397.149 0.0874636 -0.822362 0
M  V30 4201 H 399.695 -0.578775 -1.59525 0
M  V30 4202 H 398.467 -1.01745 -3.77841 0
M  V30 4203 H 398.09 0.692091 -3.9153 0
M  V30 4204 N 399.087 1.5561 -0.249682 0
M  V30 4205 C 400.364 1.90932 0.424761 0
M  V30 4206 C 400.744 1.17078 1.75658 0
M  V30 4207 O 400.092 0.289176 2.26663 0
M  V30 4208 C 400.302 3.43975 0.590109 0
M  V30 4209 C 401.65 4.15281 0.884714 0
M  V30 4210 O 402.674 3.49729 0.67587 0
M  V30 4211 O 401.533 5.31236 1.28259 0
M  V30 4212 H 398.627 0.794815 0.228468 0
M  V30 4213 H 401.173 1.67135 -0.293954 0
M  V30 4214 H 399.945 3.89748 -0.34818 0
M  V30 4215 H 399.568 3.73644 1.35926 0
M  V30 4216 N 400.565 -0.0233959 1.57583 0
M  V30 4217 C 401.981 -0.379134 1.55031 0
M  V30 4218 C 402.181 -1.76255 0.976548 0
M  V30 4219 O 401.237 -2.45266 0.600078 0
M  V30 4220 C 402.55 -0.275792 2.99433 0
M  V30 4221 C 404.098 -0.352458 3.11009 0
M  V30 4222 C 404.573 -0.278501 4.57152 0
M  V30 4223 N 406.064 -0.337123 4.61972 0
M  V30 4224 C 406.799 -0.302876 5.726 0
M  V30 4225 N 406.295 -0.220589 6.92449 0
M  V30 4226 N 408.088 -0.353023 5.6099 0
M  V30 4227 H 400.239 0.881869 1.93227 0
M  V30 4228 H 402.502 0.335867 0.886509 0
M  V30 4229 H 402.208 0.675108 3.4516 0
M  V30 4230 H 402.082 -1.06721 3.61788 0
M  V30 4231 H 404.469 -1.29379 2.65226 0
M  V30 4232 H 404.55 0.468409 2.51475 0
M  V30 4233 H 404.194 0.659189 5.03604 0
M  V30 4234 H 404.124 -1.11755 5.14605 0
M  V30 4235 H 406.615 -0.403002 3.75745 0
M  V30 4236 H 406.928 -0.199713 7.72542 0
M  V30 4237 H 405.273 -0.186555 6.9475 0
M  V30 4238 H 408.464 -0.415339 4.66254 0
M  V30 4239 H 408.637 -0.322866 6.47195 0
M  V30 4240 N 402.043 -1.548 -0.295768 0
M  V30 4241 C 403.32 -1.65014 -1.05023 0
M  V30 4242 C 403.7 -0.501805 -2.05049 0
M  V30 4243 O 403.048 0.500869 -2.22943 0
M  V30 4244 C 403.258 -3.03252 -1.72741 0
M  V30 4245 C 404.606 -3.60242 -2.24746 0
M  V30 4246 O 405.63 -3.05737 -1.82765 0
M  V30 4247 O 404.489 -4.55687 -3.01681 0
M  V30 4248 H 401.583 -0.669314 -0.485744 0
M  V30 4249 H 404.129 -1.67144 -0.293438 0
M  V30 4250 H 402.901 -3.7827 -1.00138 0
M  V30 4251 H 402.524 -3.04922 -2.55163 0
M  V30 4252 N 403.521 0.559213 -1.47345 0
M  V30 4253 C 404.769 1.31388 -1.53563 0
M  V30 4254 C 405.09 1.93985 -0.198678 0
M  V30 4255 O 404.36 1.79825 0.777167 0
M  V30 4256 H 402.94 0.487901 -0.565652 0
M  V30 4257 H 405.602 0.65315 -1.8363 0
M  V30 4258 H 404.698 2.10844 -2.30111 0
M  V30 4259 N 404.999 1.35443 0.805782 0
M  V30 4260 C 405.929 1.31095 1.93226 0
M  V30 4261 C 406.91 0.185244 1.69088 0
M  V30 4262 O 408.095 0.380332 1.90439 0
M  V30 4263 C 405.225 1.08299 3.29983 0
M  V30 4264 C 404.179 2.17519 3.68605 0
M  V30 4265 C 403.505 1.79887 5.03532 0
M  V30 4266 C 404.805 3.5949 3.78898 0
M  V30 4267 H 406.499 2.25352 1.97122 0
M  V30 4268 H 404.045 1.0848 0.946996 0
M  V30 4269 H 405.998 1.03897 4.08391 0
M  V30 4270 H 404.722 0.104885 3.26432 0
M  V30 4271 H 403.381 2.2102 2.92482 0
M  V30 4272 H 403.029 0.80693 4.96485 0
M  V30 4273 H 402.729 2.53001 5.30344 0
M  V30 4274 H 404.253 1.77011 5.84379 0
M  V30 4275 H 405.667 3.58307 4.47536 0
M  V30 4276 H 404.064 4.31371 4.1718 0
M  V30 4277 H 405.134 3.95584 2.80431 0
M  V30 4278 N 406.477 -1.02803 1.19454 0
M  V30 4279 C 407.409 -2.11181 0.890807 0
M  V30 4280 C 408.422 -1.6238 -0.116829 0
M  V30 4281 O 409.611 -1.78144 0.112694 0
M  V30 4282 C 406.711 -3.37461 0.311942 0
M  V30 4283 C 405.884 -4.15446 1.36834 0
M  V30 4284 C 404.943 -5.20039 0.802864 0
M  V30 4285 O 403.969 -5.49602 1.48077 0
M  V30 4286 N 405.171 -5.79165 -0.393417 0
M  V30 4287 H 407.936 -2.37827 1.82369 0
M  V30 4288 H 405.497 -1.19101 1.09666 0
M  V30 4289 H 407.489 -4.0462 -0.0802225 0
M  V30 4290 H 406.059 -3.08156 -0.52524 0
M  V30 4291 H 405.279 -3.43423 1.93531 0
M  V30 4292 H 406.567 -4.64335 2.08015 0
M  V30 4293 H 405.965 -5.57466 -0.961658 0
M  V30 4294 H 404.522 -6.47729 -0.727351 0
M  V30 4295 N 407.956 -0.998596 -1.21925 0
M  V30 4296 C 408.888 -0.511879 -2.23411 0
M  V30 4297 C 409.901 0.396094 -1.57908 0
M  V30 4298 O 411.09 0.197316 -1.77406 0
M  V30 4299 C 408.19 0.276802 -3.37768 0
M  V30 4300 C 407.363 -0.628687 -4.32858 0
M  V30 4301 C 406.422 0.109272 -5.26087 0
M  V30 4302 O 405.448 -0.507237 -5.66935 0
M  V30 4303 N 406.65 1.38983 -5.63617 0
M  V30 4304 H 409.415 -1.38457 -2.658 0
M  V30 4305 H 406.976 -0.873981 -1.36283 0
M  V30 4306 H 408.968 0.77928 -3.97126 0
M  V30 4307 H 407.538 1.05063 -2.94415 0
M  V30 4308 H 406.758 -1.31175 -3.71735 0
M  V30 4309 H 408.046 -1.24514 -4.93329 0
M  V30 4310 H 407.444 1.91194 -5.32411 0
M  V30 4311 H 406.001 1.83739 -6.25367 0
M  V30 4312 N 409.434 1.37368 -0.772513 0
M  V30 4313 C 410.364 2.32856 -0.173304 0
M  V30 4314 C 411.345 1.55818 0.682262 0
M  V30 4315 O 412.53 1.84052 0.619566 0
M  V30 4316 C 409.66 3.40048 0.706007 0
M  V30 4317 C 408.614 4.27973 -0.0483144 0
M  V30 4318 C 407.94 5.26184 0.950491 0
M  V30 4319 C 409.24 5.07665 -1.22776 0
M  V30 4320 H 410.934 2.83217 -0.971002 0
M  V30 4321 H 408.48 1.3617 -0.468377 0
M  V30 4322 H 410.433 4.05827 1.13501 0
M  V30 4323 H 409.157 2.88214 1.53623 0
M  V30 4324 H 407.816 3.63726 -0.458107 0
M  V30 4325 H 407.464 4.7063 1.77529 0
M  V30 4326 H 407.164 5.85872 0.450314 0
M  V30 4327 H 408.688 5.94838 1.37842 0
M  V30 4328 H 410.102 5.66578 -0.875366 0
M  V30 4329 H 408.499 5.76681 -1.66007 0
M  V30 4330 H 409.569 4.40294 -2.03149 0
M  V30 4331 N 410.912 0.523116 1.48665 0
M  V30 4332 C 412.142 -0.00961724 2.06598 0
M  V30 4333 C 412.55 -1.29333 1.38093 0
M  V30 4334 O 411.893 -1.77846 0.46007 0
M  V30 4335 C 411.955 -0.311135 3.58151 0
M  V30 4336 C 411.619 0.878092 4.48485 0
M  V30 4337 C 412.616 1.77464 4.88674 0
M  V30 4338 C 410.301 1.08315 4.90483 0
M  V30 4339 C 412.295 2.86021 5.69623 0
M  V30 4340 C 409.982 2.17187 5.71203 0
M  V30 4341 C 410.98 3.05873 6.10681 0
M  V30 4342 O 410.668 4.12862 6.89783 0
M  V30 4343 H 410.4 0.0272658 0.67545 0
M  V30 4344 H 412.954 0.726156 1.92136 0
M  V30 4345 H 411.184 -1.10079 3.70701 0
M  V30 4346 H 412.873 -0.785125 3.98234 0
M  V30 4347 H 413.639 1.62813 4.56855 0
M  V30 4348 H 409.518 0.402149 4.59243 0
M  V30 4349 H 413.062 3.55272 6.00356 0
M  V30 4350 H 408.959 2.31824 6.02435 0
M  V30 4351 H 409.727 4.10487 7.08126 0
M  V30 4352 N 412.39 -1.55475 0.257931 0
M  V30 4353 C 413.638 -1.98813 -0.363009 0
M  V30 4354 C 413.959 -1.14757 -1.57657 0
M  V30 4355 O 413.229 -0.232956 -1.9451 0
M  V30 4356 H 411.809 -0.734308 -0.137113 0
M  V30 4357 H 414.471 -1.9156 0.359281 0
M  V30 4358 H 413.567 -3.04941 -0.664634 0
M  V30 4359 N 413.868 0.0150385 -1.57593 0
M  V30 4360 C 414.815 1.01126 -2.07466 0
M  V30 4361 C 415.785 1.35064 -0.966794 0
M  V30 4362 O 416.97 1.4516 -1.23827 0
M  V30 4363 C 414.11 2.30276 -2.57035 0
M  V30 4364 C 413.223 2.02373 -3.81666 0
M  V30 4365 C 412.358 3.25496 -4.19793 0
M  V30 4366 C 411.397 2.93211 -5.37303 0
M  V30 4367 N 410.534 4.08826 -5.70794 0
M  V30 4368 H 415.374 0.57901 -2.92321 0
M  V30 4369 H 412.911 0.27426 -1.44521 0
M  V30 4370 H 414.869 3.05757 -2.83846 0
M  V30 4371 H 413.499 2.71197 -1.75077 0
M  V30 4372 H 412.551 1.17327 -3.61854 0
M  V30 4373 H 413.863 1.74567 -4.67256 0
M  V30 4374 H 413.017 4.09333 -4.47807 0
M  V30 4375 H 411.756 3.56428 -3.32882 0
M  V30 4376 H 410.761 2.07777 -5.09027 0
M  V30 4377 H 411.986 2.63542 -6.25877 0
M  V30 4378 H 409.932 4.39682 -4.86842 0
M  V30 4379 H 409.849 3.84491 -6.50924 0
M  V30 4380 H 411.117 4.93496 -6.03392 0
M  V30 4381 N 415.346 1.54954 0.287554 0
M  V30 4382 C 416.309 1.86076 1.33823 0
M  V30 4383 C 417.309 0.734414 1.43049 0
M  V30 4384 O 418.499 1.00266 1.42452 0
M  V30 4385 C 415.631 2.05305 2.72144 0
M  V30 4386 H 416.824 2.79984 1.07465 0
M  V30 4387 H 414.377 1.47223 0.524902 0
M  V30 4388 H 415.112 1.1373 3.03704 0
M  V30 4389 H 414.897 2.873 2.66836 0
M  V30 4390 H 416.387 2.30706 3.48087 0
M  V30 4391 N 416.824 -0.551391 1.4764 0
M  V30 4392 C 418.235 -1.13349 1.48354 0
M  V30 4393 C 418.586 -1.94709 0.241432 0
M  V30 4394 O 417.711 -2.06306 -0.653205 0
M  V30 4395 C 418.306 -2.0623 2.68802 0
M  V30 4396 C 416.865 -2.597 2.72457 0
M  V30 4397 C 416.012 -1.36201 2.41546 0
M  V30 4398 H 418.963 -0.337698 1.55065 0
M  V30 4399 H 418.984 -2.90196 2.46103 0
M  V30 4400 H 418.496 -1.46987 3.59188 0
M  V30 4401 H 416.597 -3.22724 1.86225 0
M  V30 4402 H 416.71 -3.00296 3.73308 0
M  V30 4403 H 415.074 -1.67068 1.9225 0
M  V30 4404 H 415.857 -0.787425 3.34147 0
M  V30 4405 N 418.302 -1.35869 -0.798587 0
M  V30 4406 C 419.234 -1.25305 -1.91915 0
M  V30 4407 C 420.247 -0.174548 -1.61862 0
M  V30 4408 O 421.436 -0.428499 -1.73281 0
M  V30 4409 C 418.536 -0.9086 -3.26493 0
M  V30 4410 C 417.709 -2.08711 -3.84394 0
M  V30 4411 C 416.768 -1.71717 -4.97393 0
M  V30 4412 O 415.794 -2.43692 -5.14396 0
M  V30 4413 N 416.996 -0.645473 -5.769 0
M  V30 4414 H 419.761 -2.21849 -2.01502 0
M  V30 4415 H 417.322 -1.29143 -0.976408 0
M  V30 4416 H 419.314 -0.642455 -3.99568 0
M  V30 4417 H 417.884 -0.0325815 -3.12583 0
M  V30 4418 H 417.104 -2.51659 -3.03416 0
M  V30 4419 H 418.392 -2.87468 -4.19809 0
M  V30 4420 H 417.79 -0.047648 -5.6568 0
M  V30 4421 H 416.347 -0.43913 -6.50319 0
M  V30 4422 N 419.78 1.02168 -1.19998 0
M  V30 4423 C 421.008 1.79296 -1.03249 0
M  V30 4424 C 421.423 1.84103 0.418502 0
M  V30 4425 O 420.78 1.29031 1.29063 0
M  V30 4426 C 420.831 3.24007 -1.60319 0
M  V30 4427 O 420.552 3.19512 -2.99739 0
M  V30 4428 C 422.053 4.17704 -1.48453 0
M  V30 4429 H 419.273 0.564016 -0.363493 0
M  V30 4430 H 421.817 1.28639 -1.58973 0
M  V30 4431 H 419.972 3.7183 -1.08727 0
M  V30 4432 H 420.386 4.10306 -3.26725 0
M  V30 4433 H 421.86 5.17104 -1.93153 0
M  V30 4434 H 422.337 4.37029 -0.436193 0
M  V30 4435 H 422.943 3.7576 -1.99211 0
M  V30 4436 N 421.258 1.00505 1.21394 0
M  V30 4437 C 422.669 0.721082 1.72213 0
M  V30 4438 C 423.02 -0.761263 1.80829 0
M  V30 4439 O 422.145 -1.59464 1.46288 0
M  V30 4440 C 422.74 1.30228 3.12772 0
M  V30 4441 C 421.299 1.06743 3.60947 0
M  V30 4442 C 420.446 1.41507 2.38477 0
M  V30 4443 H 423.397 1.17594 1.06571 0
M  V30 4444 H 423.418 0.686955 3.74247 0
M  V30 4445 H 422.93 2.38115 3.06468 0
M  V30 4446 H 421.031 0.00572162 3.726 0
M  V30 4447 H 421.144 1.73936 4.46411 0
M  V30 4448 H 419.508 0.833852 2.40664 0
M  V30 4449 H 420.291 2.50424 2.34824 0
M  V30 4450 N 422.737 -1.36956 0.779787 0
M  V30 4451 C 423.967 -2.03459 0.358877 0
M  V30 4452 C 424.375 -1.58939 -1.02641 0
M  V30 4453 O 423.718 -0.769777 -1.66794 0
M  V30 4454 C 423.78 -3.5796 0.332393 0
M  V30 4455 C 423.444 -4.25644 1.66362 0
M  V30 4456 C 424.441 -4.49205 2.61746 0
M  V30 4457 C 422.126 -4.63313 1.94027 0
M  V30 4458 C 424.12 -5.09503 3.82996 0
M  V30 4459 C 421.807 -5.2333 3.15546 0
M  V30 4460 C 422.805 -5.46363 4.0985 0
M  V30 4461 O 422.493 -6.05122 5.29228 0
M  V30 4462 H 422.225 -0.659767 0.147254 0
M  V30 4463 H 424.779 -1.76111 1.05708 0
M  V30 4464 H 423.009 -3.84388 -0.422237 0
M  V30 4465 H 424.698 -4.05852 -0.0625389 0
M  V30 4466 H 425.464 -4.20508 2.41657 0
M  V30 4467 H 421.343 -4.44715 1.21448 0
M  V30 4468 H 424.887 -5.27397 4.56617 0
M  V30 4469 H 420.784 -5.51451 3.35517 0
M  V30 4470 H 421.552 -6.23595 5.30161 0
M  V30 4471 N 424.215 -0.530993 -1.48385 0
M  V30 4472 C 425.492 0.0671788 -1.95485 0
M  V30 4473 C 425.872 1.51191 -1.47324 0
M  V30 4474 O 425.22 2.17507 -0.700202 0
M  V30 4475 C 425.43 -0.0511206 -3.48963 0
M  V30 4476 C 426.778 0.107632 -4.24464 0
M  V30 4477 O 427.802 0.0226248 -3.56193 0
M  V30 4478 O 426.661 0.285972 -5.45751 0
M  V30 4479 H 423.755 0.0787365 -0.823243 0
M  V30 4480 H 426.301 -0.595662 -1.58902 0
M  V30 4481 H 425.073 -1.05747 -3.7674 0
M  V30 4482 H 424.696 0.650525 -3.92242 0
M  V30 4483 N 425.693 1.55336 -0.266172 0
M  V30 4484 C 426.64 2.22172 0.625165 0
M  V30 4485 C 427.61 1.19211 1.15663 0
M  V30 4486 O 428.795 1.47723 1.20758 0
M  V30 4487 C 425.935 2.93972 1.8076 0
M  V30 4488 C 425.048 4.11632 1.31084 0
M  V30 4489 C 424.183 4.71099 2.45436 0
M  V30 4490 C 423.222 5.8097 1.92718 0
M  V30 4491 N 422.359 6.34538 3.00509 0
M  V30 4492 H 427.199 2.9796 0.0485582 0
M  V30 4493 H 424.736 1.47095 0.0122024 0
M  V30 4494 H 426.694 3.33811 2.50251 0
M  V30 4495 H 425.324 2.20623 2.35638 0
M  V30 4496 H 424.376 3.76975 0.509326 0
M  V30 4497 H 425.688 4.90893 0.884633 0
M  V30 4498 H 424.842 5.13612 3.22936 0
M  V30 4499 H 423.581 3.91096 2.91368 0
M  V30 4500 H 422.586 5.37916 1.13695 0
M  V30 4501 H 423.811 6.62836 1.47733 0
M  V30 4502 H 421.757 5.57433 3.45839 0
M  V30 4503 H 421.674 7.09046 2.62279 0
M  V30 4504 H 422.942 6.81709 3.78011 0
M  V30 4505 N 427.171 -0.0066808 1.57599 0
M  V30 4506 C 428.582 -0.550379 1.78403 0
M  V30 4507 C 428.933 -1.74339 0.900014 0
M  V30 4508 O 428.058 -2.16166 0.100713 0
M  V30 4509 C 428.653 -1.00523 3.23544 0
M  V30 4510 C 427.212 -1.49428 3.45468 0
M  V30 4511 C 426.359 -0.442444 2.73748 0
M  V30 4512 H 429.31 0.219508 1.57175 0
M  V30 4513 H 429.331 -1.87157 3.31289 0
M  V30 4514 H 428.843 -0.136735 3.87859 0
M  V30 4515 H 426.944 -2.3839 2.86358 0
M  V30 4516 H 427.057 -1.52635 4.54136 0
M  V30 4517 H 425.421 -0.902578 2.38171 0
M  V30 4518 H 426.204 0.416973 3.40758 0
M  V30 4519 N 428.649 -1.55105 -0.279332 0
M  V30 4520 C 429.877 -1.7943 -1.03017 0
M  V30 4521 C 430.292 -0.564456 -1.80165 0
M  V30 4522 O 429.649 0.466326 -1.76442 0
M  V30 4523 C 429.7 -3.0155 -1.99374 0
M  V30 4524 O 429.421 -4.19784 -1.25352 0
M  V30 4525 C 430.922 -3.3843 -2.86321 0
M  V30 4526 H 428.142 -0.597882 -0.304594 0
M  V30 4527 H 430.686 -2.02105 -0.312035 0
M  V30 4528 H 428.841 -2.81019 -2.66659 0
M  V30 4529 H 429.255 -4.88781 -1.90246 0
M  V30 4530 H 430.729 -4.27066 -3.49741 0
M  V30 4531 H 431.206 -2.57549 -3.5576 0
M  V30 4532 H 431.812 -3.61197 -2.24536 0
M  V30 4533 N 430.127 0.543554 -1.4793 0
M  V30 4534 C 431.543 0.870806 -1.3375 0
M  V30 4535 C 431.743 1.9864 -0.338261 0
M  V30 4536 O 430.799 2.51305 0.245371 0
M  V30 4537 C 432.112 1.25114 -2.73435 0
M  V30 4538 C 433.66 1.3618 -2.81823 0
M  V30 4539 C 434.135 1.77563 -4.22179 0
M  V30 4540 N 435.626 1.8469 -4.24787 0
M  V30 4541 C 436.361 2.18067 -5.30315 0
M  V30 4542 N 435.857 2.49963 -6.46135 0
M  V30 4543 N 437.65 2.18958 -5.17701 0
M  V30 4544 H 429.801 -0.19275 -2.11524 0
M  V30 4545 H 432.064 -0.0235777 -0.947707 0
M  V30 4546 H 431.77 0.50514 -3.48053 0
M  V30 4547 H 431.644 2.20431 -3.06088 0
M  V30 4548 H 434.031 2.09859 -2.07468 0
M  V30 4549 H 434.112 0.390169 -2.52807 0
M  V30 4550 H 433.756 1.04449 -4.97044 0
M  V30 4551 H 433.686 2.75753 -4.48629 0
M  V30 4552 H 436.177 1.62372 -3.41239 0
M  V30 4553 H 436.49 2.74497 -7.22406 0
M  V30 4554 H 434.835 2.47513 -6.49432 0
M  V30 4555 H 438.026 1.93488 -4.2624 0
M  V30 4556 H 438.199 2.44639 -6.00047 0
M  V30 4557 N 431.605 1.3629 0.791371 0
M  V30 4558 C 432.552 1.30458 1.90393 0
M  V30 4559 C 433.522 0.173632 1.6519 0
M  V30 4560 O 434.707 0.35983 1.87376 0
M  V30 4561 C 431.847 1.09777 3.27174 0
M  V30 4562 C 430.96 2.31929 3.64462 0
M  V30 4563 C 430.095 2.04276 4.90352 0
M  V30 4564 C 429.134 3.224 5.20312 0
M  V30 4565 N 428.271 2.94424 6.37385 0
M  V30 4566 H 433.111 2.25589 1.94714 0
M  V30 4567 H 430.648 1.12122 0.952216 0
M  V30 4568 H 432.606 0.958133 4.06049 0
M  V30 4569 H 431.236 0.183014 3.22281 0
M  V30 4570 H 430.288 2.56703 2.80727 0
M  V30 4571 H 431.6 3.20085 3.82553 0
M  V30 4572 H 430.754 1.87231 5.77087 0
M  V30 4573 H 429.493 1.13428 4.74326 0
M  V30 4574 H 428.498 3.40005 4.32061 0
M  V30 4575 H 429.723 4.14071 5.38258 0
M  V30 4576 H 427.669 2.06185 6.22755 0
M  V30 4577 H 427.586 3.76118 6.55798 0
M  V30 4578 H 428.854 2.80953 7.27108 0
M  V30 4579 N 433.083 -1.0153 1.20538 0
M  V30 4580 C 434.494 -1.56598 1.01657 0
M  V30 4581 C 434.845 -1.91505 -0.426668 0
M  V30 4582 O 433.97 -1.72375 -1.30827 0
M  V30 4583 C 434.565 -2.84542 1.83905 0
M  V30 4584 C 433.124 -3.36133 1.69386 0
M  V30 4585 C 432.271 -2.09427 1.81757 0
M  V30 4586 H 435.222 -0.838974 1.34711 0
M  V30 4587 H 435.243 -3.56004 1.34319 0
M  V30 4588 H 434.755 -2.59105 2.8894 0
M  V30 4589 H 432.856 -3.66528 0.669933 0
M  V30 4590 H 432.969 -4.08248 2.50739 0
M  V30 4591 H 431.333 -2.21941 1.24957 0
M  V30 4592 H 432.116 -1.86414 2.88279 0
M  V30 4593 N 434.561 -1.01147 -1.20859 0
M  V30 4594 C 435.491 -0.597663 -2.25722 0
M  V30 4595 C 436.472 0.384744 -1.65692 0
M  V30 4596 O 437.657 0.271303 -1.92296 0
M  V30 4597 C 434.787 0.0700149 -3.47229 0
M  V30 4598 C 433.741 -0.832843 -4.19819 0
M  V30 4599 C 433.067 -0.0312202 -5.34691 0
M  V30 4600 C 434.367 -2.1385 -4.76514 0
M  V30 4601 H 436.061 -1.47423 -2.60589 0
M  V30 4602 H 433.607 -0.710301 -1.25263 0
M  V30 4603 H 435.56 0.37103 -4.19763 0
M  V30 4604 H 434.284 0.981259 -3.11511 0
M  V30 4605 H 432.943 -1.11778 -3.49144 0
M  V30 4606 H 432.591 0.881515 -4.95215 0
M  V30 4607 H 432.291 -0.632434 -5.84187 0
M  V30 4608 H 433.815 0.26346 -6.10031 0
M  V30 4609 H 435.229 -1.9002 -5.40893 0
M  V30 4610 H 433.626 -2.69012 -5.36426 0
M  V30 4611 H 434.696 -2.80495 -3.95538 0
M  V30 4612 N 436.039 1.36541 -0.78704 0
M  V30 4613 C 437.002 2.28413 -0.189778 0
M  V30 4614 C 438.002 1.48719 0.611499 0
M  V30 4615 O 439.192 1.68737 0.432842 0
M  V30 4616 C 436.324 3.32824 0.737638 0
M  V30 4617 H 437.517 2.82743 -0.999831 0
M  V30 4618 H 435.07 1.46065 -0.556298 0
M  V30 4619 H 435.805 2.83646 1.57212 0
M  V30 4620 H 435.59 3.91752 0.165044 0
M  V30 4621 H 437.08 4.0144 1.15047 0
M  V30 4622 N 437.518 0.538854 1.48102 0
M  V30 4623 C 438.929 0.100679 1.86428 0
M  V30 4624 C 439.28 -1.32447 1.44749 0
M  V30 4625 O 438.405 -1.99339 0.842199 0
M  V30 4626 C 439 0.175933 3.38343 0
M  V30 4627 C 437.559 -0.207098 3.7583 0
M  V30 4628 C 436.706 0.531741 2.72154 0
M  V30 4629 H 439.657 0.749614 1.3988 0
M  V30 4630 H 439.678 -0.610144 3.75576 0
M  V30 4631 H 439.19 1.21328 3.68648 0
M  V30 4632 H 437.291 -1.24626 3.5114 0
M  V30 4633 H 437.404 0.138687 4.78899 0
M  V30 4634 H 435.768 -0.0230462 2.5469 0
M  V30 4635 H 436.551 1.56989 3.05302 0
M  V30 4636 N 438.996 -1.55193 0.274407 0
M  V30 4637 C 440.407 -1.85358 -0.223488 0
M  V30 4638 C 440.758 -1.19642 -1.555 0
M  V30 4639 O 439.883 -0.484498 -2.10907 0
M  V30 4640 C 440.478 -3.36282 -0.412285 0
M  V30 4641 C 439.037 -3.66574 -0.854413 0
M  V30 4642 C 438.184 -2.7725 0.0527056 0
M  V30 4643 H 441.135 -1.50743 0.496215 0
M  V30 4644 H 441.156 -3.59349 -1.25094 0
M  V30 4645 H 440.668 -3.84083 0.556965 0
M  V30 4646 H 438.769 -3.24273 -1.83516 0
M  V30 4647 H 438.882 -4.74073 -0.692226 0
M  V30 4648 H 437.246 -2.50447 -0.463484 0
M  V30 4649 H 438.029 -3.27865 1.01783 0
M  V30 4650 N 440.474 -0.00167713 -1.576 0
M  V30 4651 C 441.885 0.54091 -1.78693 0
M  V30 4652 C 442.236 1.7386 -0.909247 0
M  V30 4653 O 441.361 2.16109 -0.112176 0
M  V30 4654 C 441.956 0.98806 -3.24072 0
M  V30 4655 C 440.515 1.47594 -3.46256 0
M  V30 4656 C 439.662 0.42792 -2.73978 0
M  V30 4657 H 442.613 -0.22784 -1.57056 0
M  V30 4658 H 442.634 1.85398 -3.32277 0
M  V30 4659 H 442.146 0.116164 -3.87926 0
M  V30 4660 H 440.247 2.36868 -2.87618 0
M  V30 4661 H 440.36 1.50225 -4.54939 0
M  V30 4662 H 438.724 0.889934 -2.38647 0
M  V30 4663 H 439.507 -0.435038 -3.40532 0
M  V30 4664 N 441.952 1.55251 0.271103 0
M  V30 4665 C 442.884 1.84675 1.35749 0
M  V30 4666 C 443.897 0.731366 1.45447 0
M  V30 4667 O 445.086 1.00924 1.4723 0
M  V30 4668 C 442.186 1.99638 2.73857 0
M  V30 4669 C 441.359 3.30312 2.86727 0
M  V30 4670 C 440.418 3.35318 4.05522 0
M  V30 4671 O 439.444 4.08682 3.96191 0
M  V30 4672 N 440.646 2.62857 5.17577 0
M  V30 4673 H 443.411 2.78445 1.10853 0
M  V30 4674 H 440.972 1.55191 0.461218 0
M  V30 4675 H 442.964 2.00355 3.51625 0
M  V30 4676 H 441.534 1.12725 2.91568 0
M  V30 4677 H 440.754 3.42118 1.95829 0
M  V30 4678 H 442.042 4.16488 2.92258 0
M  V30 4679 H 441.44 2.02939 5.28046 0
M  V30 4680 H 439.997 2.69295 5.93568 0
M  V30 4681 N 443.43 -0.535701 1.48216 0
M  V30 4682 C 444.841 -1.11769 1.49548 0
M  V30 4683 C 445.192 -1.94442 0.26207 0
M  V30 4684 O 444.317 -2.06987 -0.631287 0
M  V30 4685 C 444.912 -2.03367 2.70975 0
M  V30 4686 C 443.471 -2.56795 2.75196 0
M  V30 4687 C 442.618 -1.33631 2.42977 0
M  V30 4688 H 445.569 -0.321232 1.55415 0
M  V30 4689 H 445.59 -2.87569 2.49167 0
M  V30 4690 H 445.102 -1.43169 3.60727 0
M  V30 4691 H 443.203 -3.20731 1.89638 0
M  V30 4692 H 443.316 -2.9632 3.76472 0
M  V30 4693 H 441.68 -1.6502 1.94012 0
M  V30 4694 H 442.463 -0.75194 3.34964 0
M  V30 4695 N 444.908 -1.36708 -0.784132 0
M  V30 4696 C 446.319 -1.27947 -1.35965 0
M  V30 4697 C 446.67 0.0784013 -1.96043 0
M  V30 4698 O 445.795 0.979989 -1.92938 0
M  V30 4699 C 446.39 -2.31689 -2.47195 0
M  V30 4700 C 444.949 -2.26601 -3.00548 0
M  V30 4701 C 444.096 -2.16184 -1.73666 0
M  V30 4702 H 447.047 -1.4751 -0.585358 0
M  V30 4703 H 447.068 -1.95638 -3.26352 0
M  V30 4704 H 446.58 -3.30506 -2.03439 0
M  V30 4705 H 444.681 -1.31268 -3.48711 0
M  V30 4706 H 444.794 -3.19508 -3.57004 0
M  V30 4707 H 443.158 -1.62524 -1.96107 0
M  V30 4708 H 443.941 -3.16896 -1.32031 0
M  V30 4709 N 446.386 1.0089 -1.21074 0
M  V30 4710 C 447.349 2.0775 -0.968129 0
M  V30 4711 C 448.349 1.6069 0.0593445 0
M  V30 4712 O 449.539 1.73293 -0.177525 0
M  V30 4713 C 446.671 3.37794 -0.459108 0
M  V30 4714 H 447.864 2.30707 -1.9161 0
M  V30 4715 H 445.417 1.17807 -1.02719 0
M  V30 4716 H 446.152 3.20516 0.49397 0
M  V30 4717 H 445.937 3.7328 -1.20019 0
M  V30 4718 H 447.427 4.16454 -0.309099 0
M  V30 4719 N 447.864 1.01787 1.20321 0
M  V30 4720 C 449.089 0.727009 1.9424 0
M  V30 4721 C 449.514 -0.706179 1.74341 0
M  V30 4722 O 448.872 -1.48609 1.03852 0
M  V30 4723 C 448.92 1.06958 3.44372 0
M  V30 4724 O 448.024 0.181983 4.11998 0
M  V30 4725 H 447.365 0.269626 0.606793 0
M  V30 4726 H 449.895 1.36158 1.52716 0
M  V30 4727 H 449.905 1.02182 3.94997 0
M  V30 4728 H 448.58 2.11378 3.58179 0
M  V30 4729 H 447.157 0.287378 3.71791 0
M  V30 4730 N 449.342 -1.36122 0.79427 0
M  V30 4731 C 450.753 -1.81646 0.431446 0
M  V30 4732 C 451.104 -1.66043 -1.04518 0
M  V30 4733 O 450.229 -1.1841 -1.8113 0
M  V30 4734 C 450.824 -3.29785 0.776341 0
M  V30 4735 C 449.383 -3.73501 0.466282 0
M  V30 4736 C 448.53 -2.58313 1.00844 0
M  V30 4737 H 451.481 -1.24274 0.986995 0
M  V30 4738 H 451.502 -3.80437 0.0692413 0
M  V30 4739 H 451.014 -3.4111 1.8511 0
M  V30 4740 H 449.115 -3.67733 -0.600245 0
M  V30 4741 H 449.228 -4.68754 0.990288 0
M  V30 4742 H 447.592 -2.5102 0.431406 0
M  V30 4743 H 448.375 -2.72421 2.08906 0
M  V30 4744 N 450.82 -0.546701 -1.47814 0
M  V30 4745 C 452.048 -0.0232857 -2.06887 0
M  V30 4746 C 452.463 1.26571 -1.4009 0
M  V30 4747 O 451.82 1.7569 -0.493906 0
M  V30 4748 C 451.871 0.186975 -3.61016 0
M  V30 4749 O 451.592 -1.05097 -4.25307 0
M  V30 4750 C 453.093 0.748872 -4.36929 0
M  V30 4751 H 450.313 -0.0410763 -0.669742 0
M  V30 4752 H 452.857 -0.757117 -1.89968 0
M  V30 4753 H 451.012 0.870903 -3.77484 0
M  V30 4754 H 451.426 -0.842121 -5.17695 0
M  V30 4755 H 452.9 0.845334 -5.45489 0
M  V30 4756 H 453.377 1.75772 -4.02493 0
M  V30 4757 H 453.983 0.100979 -4.2518 0
M  V30 4758 N 452.299 1.55045 -0.282633 0
M  V30 4759 C 453.249 2.19514 0.616249 0
M  V30 4760 C 454.233 1.16216 1.11277 0
M  V30 4761 O 455.425 1.42004 1.05659 0
M  V30 4762 C 452.554 2.92548 1.7964 0
M  V30 4763 C 451.64 4.03142 1.31671 0
M  V30 4764 N 452.031 5.0276 0.553695 0
M  V30 4765 C 450.329 4.1635 1.59903 0
M  V30 4766 C 451.03 5.80923 0.30054 0
M  V30 4767 N 450.006 5.3651 0.875116 0
M  V30 4768 H 453.808 2.93889 0.0255363 0
M  V30 4769 H 451.322 1.62169 -0.0865362 0
M  V30 4770 H 453.319 3.37188 2.45173 0
M  V30 4771 H 451.979 2.19685 2.39099 0
M  V30 4772 H 452.99 5.17512 0.20032 0
M  V30 4773 H 449.667 3.54682 2.20243 0
M  V30 4774 H 451.057 6.7118 -0.311053 0
M  V30 4775 N 453.777 0.010035 1.57597 0
M  V30 4776 C 455.002 -0.687021 1.95691 0
M  V30 4777 C 455.427 -1.65952 0.885519 0
M  V30 4778 O 454.785 -1.80633 -0.15543 0
M  V30 4779 C 454.833 -1.3864 3.32884 0
M  V30 4780 O 453.937 -2.50115 3.27897 0
M  V30 4781 H 453.278 -0.181989 0.638573 0
M  V30 4782 H 455.808 0.0662122 2.04493 0
M  V30 4783 H 455.818 -1.74754 3.6868 0
M  V30 4784 H 454.493 -0.673411 4.10412 0
M  V30 4785 H 453.07 -2.16253 3.03791 0
M  V30 4786 N 455.255 -1.55392 -0.262866 0
M  V30 4787 C 456.666 -1.67079 -0.833158 0
M  V30 4788 C 457.017 -0.604539 -1.86654 0
M  V30 4789 O 456.142 0.252138 -2.14926 0
M  V30 4790 C 456.737 -3.02891 -1.51797 0
M  V30 4791 C 455.296 -3.16571 -2.03617 0
M  V30 4792 C 454.443 -2.62909 -0.881701 0
M  V30 4793 H 457.394 -1.58652 -0.0389986 0
M  V30 4794 H 457.415 -2.96445 -2.38538 0
M  V30 4795 H 456.927 -3.80473 -0.765619 0
M  V30 4796 H 455.028 -2.43782 -2.81782 0
M  V30 4797 H 455.141 -4.23271 -2.24452 0
M  V30 4798 H 453.505 -2.20324 -1.27786 0
M  V30 4799 H 454.288 -3.43003 -0.14269 0
M  V30 4800 N 456.733 0.527833 -1.48498 0
M  V30 4801 C 457.958 1.313 -1.60546 0
M  V30 4802 C 458.383 1.86199 -0.26672 0
M  V30 4803 O 457.741 1.64513 0.761918 0
M  V30 4804 C 457.789 2.43818 -2.65678 0
M  V30 4805 O 456.893 3.46916 -2.22987 0
M  V30 4806 H 456.234 0.388784 -0.538277 0
M  V30 4807 H 458.764 0.634896 -1.945 0
M  V30 4808 H 458.774 2.89973 -2.87018 0
M  V30 4809 H 457.449 2.03222 -3.62869 0
M  V30 4810 H 456.026 3.06864 -2.11869 0
M  V30 4811 N 458.211 1.37122 0.776871 0
M  V30 4812 C 459.458 1.32047 1.53524 0
M  V30 4813 C 459.786 -0.0965631 1.9426 0
M  V30 4814 O 459.041 -1.06866 1.63945 0
M  V30 4815 C 459.34 2.20068 2.81611 0
M  V30 4816 C 459.006 3.68423 2.59953 0
M  V30 4817 C 457.668 4.08854 2.53755 0
M  V30 4818 C 460.02 4.62431 2.40431 0
M  V30 4819 C 457.348 5.41417 2.26018 0
M  V30 4820 C 459.7 5.95225 2.14219 0
M  V30 4821 C 458.364 6.34767 2.06462 0
M  V30 4822 H 457.634 0.483196 0.561785 0
M  V30 4823 H 460.281 1.69284 0.895268 0
M  V30 4824 H 458.586 1.75809 3.50141 0
M  V30 4825 H 460.283 2.13458 3.39465 0
M  V30 4826 H 456.873 3.36354 2.65638 0
M  V30 4827 H 461.057 4.32057 2.44213 0
M  V30 4828 H 456.313 5.71022 2.18504 0
M  V30 4829 H 460.487 6.67626 1.98112 0
M  V30 4830 H 458.114 7.37413 1.84733 0
M  V30 4831 N 459.689 -1.00246 1.21608 0
M  V30 4832 C 461.1 -1.55511 1.03312 0
M  V30 4833 C 461.451 -1.91946 -0.406332 0
M  V30 4834 O 460.576 -1.73753 -1.28992 0
M  V30 4835 C 461.171 -2.82576 1.86913 0
M  V30 4836 C 459.73 -3.34318 1.72941 0
M  V30 4837 C 458.877 -2.07487 1.83968 0
M  V30 4838 H 461.828 -0.824638 1.35593 0
M  V30 4839 H 461.849 -3.54559 1.38087 0
M  V30 4840 H 461.361 -2.56026 2.91672 0
M  V30 4841 H 459.462 -3.65797 0.70877 0
M  V30 4842 H 459.575 -4.05566 2.55055 0
M  V30 4843 H 457.939 -2.20603 1.27304 0
M  V30 4844 H 458.722 -1.83346 2.9024 0
M  V30 4845 N 461.167 -1.02423 -1.1978 0
M  V30 4846 C 462.416 -0.713265 -1.88667 0
M  V30 4847 C 462.729 0.7609 -1.80193 0
M  V30 4848 O 463.935 1.18473 -2.44288 0
M  V30 4849 C 462.391 -1.22545 -3.38394 0
M  V30 4850 C 461.999 -2.72706 -3.55437 0
M  V30 4851 C 463.743 -0.990257 -4.12788 0
M  V30 4852 C 461.65 -3.17367 -4.99031 0
M  V30 4853 H 460.58 -0.263105 -0.706606 0
M  V30 4854 H 463.231 -1.23792 -1.35454 0
M  V30 4855 H 461.613 -0.628732 -3.90977 0
M  V30 4856 H 462.787 -3.37993 -3.13205 0
M  V30 4857 H 461.102 -2.94453 -2.94425 0
M  V30 4858 H 463.699 -1.29926 -5.18675 0
M  V30 4859 H 464.042 0.0730761 -4.16236 0
M  V30 4860 H 464.575 -1.55074 -3.66329 0
M  V30 4861 H 461.314 -4.23009 -5.00743 0
M  V30 4862 H 460.834 -2.56805 -5.42044 0
M  V30 4863 H 462.513 -3.10441 -5.67658 0
M  V30 4864 N 462.645 1.35699 -0.801477 0
M  V30 4865 C 464.056 1.81415 -0.441073 0
M  V30 4866 C 464.407 1.66595 1.03636 0
M  V30 4867 O 463.532 1.19369 1.80499 0
M  V30 4868 C 464.127 3.29369 -0.793819 0
M  V30 4869 C 462.686 3.73248 -0.486083 0
M  V30 4870 C 461.833 2.57775 -1.02213 0
M  V30 4871 H 464.784 1.23749 -0.993572 0
M  V30 4872 H 464.805 3.80395 -0.0894158 0
M  V30 4873 H 464.317 3.40123 -1.86917 0
M  V30 4874 H 462.418 3.68046 0.580735 0
M  V30 4875 H 462.531 4.68222 -1.01513 0
M  V30 4876 H 460.895 2.50788 -0.444712 0
M  V30 4877 H 461.678 2.71309 -2.10348 0
M  V30 4878 N 464.123 0.554532 1.47522 0
M  V30 4879 C 465.4 -0.0360704 1.95567 0
M  V30 4880 C 465.78 -1.48828 1.49711 0
M  V30 4881 O 465.128 -2.16366 0.734717 0
M  V30 4882 C 465.338 0.106631 3.48837 0
M  V30 4883 C 466.686 -0.0400899 4.24581 0
M  V30 4884 O 467.71 0.0340453 3.56184 0
M  V30 4885 O 466.569 -0.199111 5.46137 0
M  V30 4886 H 463.663 -0.0656294 0.824392 0
M  V30 4887 H 466.209 0.620867 1.57935 0
M  V30 4888 H 464.981 1.11727 3.7501 0
M  V30 4889 H 464.604 -0.58804 3.93227 0
M  V30 4890 N 465.601 -1.54893 0.290851 0
M  V30 4891 C 467.017 -1.59476 -0.0628432 0
M  V30 4892 C 467.217 -1.30795 -1.5328 0
M  V30 4893 O 466.273 -1.07644 -2.28406 0
M  V30 4894 C 467.586 -2.98928 0.325962 0
M  V30 4895 C 469.134 -3.11799 0.273882 0
M  V30 4896 C 469.609 -4.53544 0.637359 0
M  V30 4897 N 471.1 -4.59433 0.589507 0
M  V30 4898 C 471.835 -5.67164 0.84335 0
M  V30 4899 N 471.331 -6.82975 1.16263 0
M  V30 4900 N 473.124 -5.56786 0.771091 0
M  V30 4901 H 465.275 -1.71798 1.24896 0
M  V30 4902 H 467.538 -0.801879 0.505663 0
M  V30 4903 H 467.244 -3.24805 1.34887 0
M  V30 4904 H 467.118 -3.75793 -0.325441 0
M  V30 4905 H 469.505 -2.85677 -0.739765 0
M  V30 4906 H 469.586 -2.37112 0.959766 0
M  V30 4907 H 469.23 -4.80394 1.64877 0
M  V30 4908 H 469.16 -5.26553 -0.0704866 0
M  V30 4909 H 471.651 -3.76245 0.353252 0
M  V30 4910 H 471.964 -7.61048 1.34257 0
M  V30 4911 H 470.309 -6.84552 1.20057 0
M  V30 4912 H 473.5 -4.65187 0.521383 0
M  V30 4913 H 473.673 -6.40664 0.972295 0
M  V30 4914 N 467.08 -0.0183926 -1.57589 0
M  V30 4915 C 468.32 0.666846 -1.93216 0
M  V30 4916 C 468.684 1.69905 -0.894215 0
M  V30 4917 O 469.885 2.436 -1.13633 0
M  V30 4918 C 468.156 1.27684 -3.33814 0
M  V30 4919 S 469.715 1.98464 -3.91353 0
M  V30 4920 H 466.533 0.219826 -0.676164 0
M  V30 4921 H 469.135 -0.0794893 -1.95338 0
M  V30 4922 H 467.839 0.513006 -4.07181 0
M  V30 4923 H 467.37 2.06071 -3.3511 0
M  V30 4924 H 469.385 3.26189 -3.73918 0
M  V30 4925 N 468.558 1.5553 0.254621 0
M  V30 4926 C 469.468 1.92789 1.33677 0
M  V30 4927 C 470.484 0.827356 1.53071 0
M  V30 4928 O 471.66 1.12807 1.66843 0
M  V30 4929 C 468.725 2.20827 2.67275 0
M  V30 4930 C 467.786 3.4427 2.5647 0
M  V30 4931 C 467.019 3.70961 3.83697 0
M  V30 4932 O 467.242 2.99852 4.85227 0
M  V30 4933 O 466.176 4.64491 3.82794 0
M  V30 4934 H 470.002 2.84945 1.05071 0
M  V30 4935 H 467.587 1.42312 0.454723 0
M  V30 4936 H 469.469 2.40204 3.46237 0
M  V30 4937 H 468.144 1.31851 2.9563 0
M  V30 4938 H 467.051 3.30209 1.75821 0
M  V30 4939 H 468.384 4.33524 2.33062 0
M  V30 4940 N 470.036 -0.519951 1.48776 0
M  V30 4941 C 471.284 -1.2727 1.56993 0
M  V30 4942 C 471.605 -1.9339 0.25004 0
M  V30 4943 O 470.875 -1.81822 -0.729216 0
M  V30 4944 H 469.455 -0.472732 0.578389 0
M  V30 4945 H 472.117 -0.604234 1.85297 0
M  V30 4946 H 471.213 -2.04669 2.3562 0
M  V30 4947 N 471.514 -1.37532 -0.769588 0
M  V30 4948 C 472.462 -1.33561 -1.90432 0
M  V30 4949 C 473.456 -0.224027 -1.67912 0
M  V30 4950 O 474.662 -0.392174 -1.75676 0
M  V30 4951 H 471.037 -0.416279 -0.626271 0
M  V30 4952 H 473.008 -2.29348 -1.90899 0
M  V30 4953 C 471.757 -1.16162 -3.27722 0
M  V30 4954 H 471.08 -2.00951 -3.45628 0
M  V30 4955 H 472.52 -1.17434 -4.07413 0
M  V30 4956 C 470.979 0.132583 -3.36639 0
M  V30 4957 O 471.509 1.11539 -3.85904 0
M  V30 4958 N 469.715 0.184013 -2.90017 0
M  V30 4959 H 469.262 -0.616415 -2.50116 0
M  V30 4960 H 469.22 1.04956 -2.96364 0
M  V30 4961 N 472.992 0.995999 -1.22138 0
M  V30 4962 C 474.239 1.7351 -1.04406 0
M  V30 4963 C 474.567 1.89884 0.421244 0
M  V30 4964 O 473.822 1.43683 1.32867 0
M  V30 4965 C 474.121 3.14553 -1.6968 0
M  V30 4966 C 473.787 3.18102 -3.19565 0
M  V30 4967 C 472.449 3.18778 -3.60464 0
M  V30 4968 C 474.801 3.14636 -4.15516 0
M  V30 4969 C 472.129 3.13684 -4.95801 0
M  V30 4970 C 474.481 3.11084 -5.50826 0
M  V30 4971 C 473.145 3.10074 -5.91109 0
M  V30 4972 H 472.415 0.634916 -0.38205 0
M  V30 4973 H 475.062 1.1667 -1.51857 0
M  V30 4974 H 473.367 3.74682 -1.14546 0
M  V30 4975 H 475.064 3.70477 -1.53454 0
M  V30 4976 H 471.654 3.18324 -2.86998 0
M  V30 4977 H 475.838 3.13266 -3.84939 0
M  V30 4978 H 471.094 3.11245 -5.26247 0
M  V30 4979 H 475.268 3.07357 -6.24904 0
M  V30 4980 H 472.895 3.05882 -6.95946 0
M  V30 4981 N 474.47 1.03057 1.19235 0
M  V30 4982 C 475.747 0.642608 1.84743 0
M  V30 4983 C 476.127 -0.878577 1.91948 0
M  V30 4984 O 475.475 -1.77597 1.43776 0
M  V30 4985 C 475.685 1.30665 3.23616 0
M  V30 4986 C 477.033 1.43098 3.9976 0
M  V30 4987 O 478.057 1.26396 3.3302 0
M  V30 4988 O 476.916 1.70223 5.19313 0
M  V30 4989 H 474.01 0.223573 0.796206 0
M  V30 4990 H 476.556 1.12883 1.26711 0
M  V30 4991 H 475.328 2.34544 3.13217 0
M  V30 4992 H 474.951 0.808405 3.89295 0
M  V30 4993 N 475.948 -1.35272 0.808662 0
M  V30 4994 C 476.911 -2.28082 0.226093 0
M  V30 4995 C 477.911 -1.49673 -0.587762 0
M  V30 4996 O 479.101 -1.69404 -0.405943 0
M  V30 4997 C 476.233 -3.33955 -0.684596 0
M  V30 4998 H 477.426 -2.81116 1.04469 0
M  V30 4999 H 474.979 -1.45162 0.579466 0
M  V30 5000 H 475.714 -2.86111 -1.5268 0
M  V30 5001 H 475.499 -3.91965 -0.102699 0
M  V30 5002 H 476.989 -4.03219 -1.08646 0
M  V30 5003 N 477.426 -0.562348 -1.47226 0
M  V30 5004 C 478.675 -0.038041 -2.01664 0
M  V30 5005 C 478.988 1.32199 -1.44162 0
M  V30 5006 O 480.194 1.9365 -1.90294 0
M  V30 5007 C 478.65 -0.0174958 -3.59896 0
M  V30 5008 C 478.258 -1.3746 -4.2639 0
M  V30 5009 C 480.002 0.453934 -4.22066 0
M  V30 5010 C 477.909 -1.31289 -5.76643 0
M  V30 5011 H 476.839 -0.0104511 -0.753928 0
M  V30 5012 H 479.49 -0.710966 -1.69167 0
M  V30 5013 H 477.872 0.721182 -3.89378 0
M  V30 5014 H 479.046 -2.1314 -4.08544 0
M  V30 5015 H 477.361 -1.78438 -3.7623 0
M  V30 5016 H 479.958 0.518584 -5.32179 0
M  V30 5017 H 480.301 1.46706 -3.89594 0
M  V30 5018 H 480.834 -0.230044 -3.97134 0
M  V30 5019 H 477.573 -2.30217 -6.13743 0
M  V30 5020 H 477.093 -0.597973 -5.96812 0
M  V30 5021 H 478.772 -1.01713 -6.38955 0
M  V30 5022 N 478.904 1.54736 -0.299062 0
M  V30 5023 C 479.867 2.22127 0.565012 0
M  V30 5024 C 480.867 1.20669 1.06281 0
M  V30 5025 O 482.057 1.45417 0.959145 0
M  V30 5026 C 479.189 2.90611 1.78208 0
M  V30 5027 H 480.382 2.99891 -0.0237448 0
M  V30 5028 H 477.935 1.5622 -0.0498788 0
M  V30 5029 H 478.67 2.16921 2.41072 0
M  V30 5030 H 478.455 3.64984 1.43281 0
M  V30 5031 H 479.945 3.42026 2.396 0
M  V30 5032 N 480.382 0.0267497 1.57577 0
M  V30 5033 C 481.33 -0.973923 2.11229 0
M  V30 5034 C 482.324 -1.33849 1.03831 0
M  V30 5035 O 483.53 -1.321 1.22269 0
M  V30 5036 H 479.905 -0.331844 0.674821 0
M  V30 5037 H 481.876 -0.496092 2.94247 0
M  V30 5038 C 480.625 -2.24798 2.65257 0
M  V30 5039 H 479.948 -1.9762 3.47543 0
M  V30 5040 H 481.388 -2.93031 3.06445 0
M  V30 5041 C 479.847 -2.97611 1.57891 0
M  V30 5042 O 480.377 -3.89629 0.97735 0
M  V30 5043 N 478.583 -2.59905 1.29992 0
M  V30 5044 H 478.13 -1.85154 1.79097 0
M  V30 5045 H 478.088 -3.08932 0.583798 0
M  V30 5046 N 481.861 -1.55662 -0.24637 0
M  V30 5047 C 483.11 -1.7672 -0.972254 0
M  V30 5048 C 483.423 -0.59078 -1.86465 0
M  V30 5049 O 484.629 -0.684391 -2.62732 0
M  V30 5050 C 483.085 -3.12869 -1.7788 0
M  V30 5051 C 482.693 -4.38161 -0.933768 0
M  V30 5052 C 484.437 -3.43265 -2.49738 0
M  V30 5053 C 482.344 -5.6534 -1.73623 0
M  V30 5054 H 481.274 -0.658795 -0.366749 0
M  V30 5055 H 483.925 -1.82092 -0.226902 0
M  V30 5056 H 482.307 -3.01606 -2.56612 0
M  V30 5057 H 483.481 -4.60413 -0.188736 0
M  V30 5058 H 481.796 -4.15102 -0.328488 0
M  V30 5059 H 484.393 -4.35501 -3.10231 0
M  V30 5060 H 484.736 -2.64614 -3.2138 0
M  V30 5061 H 485.269 -3.55746 -1.78016 0
M  V30 5062 H 482.008 -6.46814 -1.06354 0
M  V30 5063 H 481.528 -5.47188 -2.45653 0
M  V30 5064 H 483.207 -6.04616 -2.30323 0
M  V30 5065 N 483.339 0.512053 -1.4905 0
M  V30 5066 C 484.755 0.84224 -1.35567 0
M  V30 5067 C 484.955 1.97878 -0.380319 0
M  V30 5068 O 484.011 2.51769 0.19201 0
M  V30 5069 C 485.324 1.19286 -2.76028 0
M  V30 5070 C 486.872 1.30171 -2.84648 0
M  V30 5071 C 487.347 1.68568 -4.25851 0
M  V30 5072 N 488.838 1.75638 -4.28609 0
M  V30 5073 C 489.573 2.06769 -5.34821 0
M  V30 5074 N 489.069 2.36201 -6.51292 0
M  V30 5075 N 490.862 2.07927 -5.22229 0
M  V30 5076 H 483.013 -0.237574 -2.11067 0
M  V30 5077 H 485.276 -0.0436747 -0.946993 0
M  V30 5078 H 484.982 0.431199 -3.49047 0
M  V30 5079 H 484.856 2.13889 -3.10695 0
M  V30 5080 H 487.243 2.05411 -2.11873 0
M  V30 5081 H 487.324 0.336457 -2.53578 0
M  V30 5082 H 486.968 0.938824 -4.99148 0
M  V30 5083 H 486.898 2.66174 -4.54377 0
M  V30 5084 H 489.389 1.55097 -3.44606 0
M  V30 5085 H 489.702 2.59112 -7.28066 0
M  V30 5086 H 488.047 2.33681 -6.54536 0
M  V30 5087 H 491.238 1.84403 -4.30248 0
M  V30 5088 H 491.411 2.31856 -6.05101 0
M  V30 5089 N 484.817 1.37938 0.762283 0
M  V30 5090 C 486.065 1.33404 1.51815 0
M  V30 5091 C 486.386 -0.0780975 1.94844 0
M  V30 5092 O 485.656 -1.02405 1.67003 0
M  V30 5093 H 484.236 0.490839 0.563104 0
M  V30 5094 H 486.898 1.72527 0.906669 0
M  V30 5095 H 485.994 1.97926 2.41313 0
M  V30 5096 N 486.295 -0.989507 1.22664 0
M  V30 5097 C 487.205 -2.11449 1.01619 0
M  V30 5098 C 488.221 -1.73962 -0.036545 0
M  V30 5099 O 489.397 -2.00788 0.156924 0
M  V30 5100 C 486.462 -3.41465 0.600204 0
M  V30 5101 C 485.523 -3.93033 1.72695 0
M  V30 5102 C 484.756 -5.16844 1.33071 0
M  V30 5103 O 484.979 -5.7001 0.210975 0
M  V30 5104 O 483.913 -5.6225 2.14845 0
M  V30 5105 H 487.739 -2.32088 1.9588 0
M  V30 5106 H 485.324 -1.09823 1.01289 0
M  V30 5107 H 487.206 -4.19695 0.37873 0
M  V30 5108 H 485.881 -3.22178 -0.313511 0
M  V30 5109 H 484.788 -3.15961 2.00298 0
M  V30 5110 H 486.121 -4.16758 2.61865 0
M  V30 5111 N 487.773 -1.03688 -1.18687 0
M  V30 5112 C 489.001 -0.757918 -1.92518 0
M  V30 5113 C 489.416 0.684398 -1.75959 0
M  V30 5114 O 488.773 1.46617 -1.08673 0
M  V30 5115 C 488.824 -1.10985 -3.44042 0
M  V30 5116 O 488.545 -2.49554 -3.60076 0
M  V30 5117 C 490.046 -0.854844 -4.3498 0
M  V30 5118 H 487.266 -0.276699 -0.611293 0
M  V30 5119 H 489.81 -1.38352 -1.50595 0
M  V30 5120 H 487.965 -0.529279 -3.83767 0
M  V30 5121 H 488.379 -2.6291 -4.53849 0
M  V30 5122 H 489.853 -1.15098 -5.39867 0
M  V30 5123 H 490.33 0.210507 -4.38695 0
M  V30 5124 H 490.936 -1.41853 -4.00946 0
M  V30 5125 N 489.251 1.34841 -0.815825 0
M  V30 5126 C 490.498 1.98499 -0.400535 0
M  V30 5127 C 490.826 1.64699 1.03463 0
M  V30 5128 O 490.081 0.907006 1.73412 0
M  V30 5129 C 490.38 3.53273 -0.541541 0
M  V30 5130 C 490.046 4.06966 -1.94138 0
M  V30 5131 C 488.708 4.21341 -2.32433 0
M  V30 5132 C 491.06 4.35933 -2.85677 0
M  V30 5133 C 488.388 4.62007 -3.61617 0
M  V30 5134 C 490.74 4.78042 -4.14317 0
M  V30 5135 C 489.404 4.90622 -4.52599 0
M  V30 5136 H 488.674 0.72636 -0.146566 0
M  V30 5137 H 491.321 1.60902 -1.0384 0
M  V30 5138 H 489.626 3.91387 0.179741 0
M  V30 5139 H 491.323 4.00497 -0.20085 0
M  V30 5140 H 487.913 3.96235 -1.63388 0
M  V30 5141 H 492.097 4.24372 -2.57337 0
M  V30 5142 H 487.353 4.69937 -3.91113 0
M  V30 5143 H 491.527 4.99415 -4.85342 0
M  V30 5144 H 489.154 5.2189 -5.52752 0
M  V30 5145 N 490.729 0.570148 1.46925 0
M  V30 5146 C 491.976 0.0509529 2.02436 0
M  V30 5147 C 492.304 -1.30405 1.44308 0
M  V30 5148 O 491.559 -1.86493 0.593198 0
M  V30 5149 C 491.858 -0.0780336 3.57315 0
M  V30 5150 C 491.524 1.20775 4.34424 0
M  V30 5151 C 490.186 1.56004 4.5521 0
M  V30 5152 C 492.538 2.0592 4.78797 0
M  V30 5153 C 489.866 2.76201 5.17619 0
M  V30 5154 C 492.218 3.25332 5.42533 0
M  V30 5155 C 490.882 3.60859 5.61549 0
M  V30 5156 H 490.152 0.018645 0.740765 0
M  V30 5157 H 492.799 0.744262 1.76445 0
M  V30 5158 H 491.104 -0.854394 3.82371 0
M  V30 5159 H 492.801 -0.495312 3.97929 0
M  V30 5160 H 489.391 0.923469 4.18533 0
M  V30 5161 H 493.575 1.80008 4.62505 0
M  V30 5162 H 488.831 3.0388 5.30535 0
M  V30 5163 H 493.005 3.91586 5.75876 0
M  V30 5164 H 490.632 4.54088 6.09678 0
M  V30 5165 N 492.207 -1.54576 0.307264 0
M  V30 5166 C 493.454 -2.00263 -0.300167 0
M  V30 5167 C 493.782 -1.19561 -1.53413 0
M  V30 5168 O 493.037 -0.261487 -1.93945 0
M  V30 5169 C 493.336 -3.50572 -0.695253 0
M  V30 5170 C 493.002 -4.48771 0.437679 0
M  V30 5171 C 491.664 -4.7534 0.748681 0
M  V30 5172 C 494.016 -5.0721 1.19949 0
M  V30 5173 C 491.344 -5.5761 1.8245 0
M  V30 5174 C 493.696 -5.90651 2.26527 0
M  V30 5175 C 492.36 -6.15528 2.58227 0
M  V30 5176 H 491.63 -0.732814 -0.109839 0
M  V30 5177 H 494.277 -1.86664 0.427661 0
M  V30 5178 H 492.582 -3.61814 -1.50326 0
M  V30 5179 H 494.279 -3.83352 -1.17653 0
M  V30 5180 H 490.869 -4.282 0.185187 0
M  V30 5181 H 495.053 -4.86679 0.972474 0
M  V30 5182 H 490.309 -5.75121 2.07476 0
M  V30 5183 H 494.483 -6.34957 2.86011 0
M  V30 5184 H 492.11 -6.79066 3.4172 0
M  V30 5185 N 493.685 -0.035106 -1.57561 0
M  V30 5186 C 494.632 0.94474 -2.10578 0
M  V30 5187 C 495.602 1.3192 -1.00927 0
M  V30 5188 O 496.787 1.41147 -1.28382 0
M  V30 5189 C 493.927 2.21982 -2.64231 0
M  V30 5190 C 493.04 1.90128 -3.87911 0
M  V30 5191 C 492.175 3.11975 -4.29936 0
M  V30 5192 C 491.214 2.75968 -5.46359 0
M  V30 5193 N 490.351 3.90459 -5.83512 0
M  V30 5194 H 495.191 0.485717 -2.94015 0
M  V30 5195 H 492.728 0.228143 -1.4532 0
M  V30 5196 H 494.686 2.96572 -2.9343 0
M  V30 5197 H 493.316 2.6549 -1.83616 0
M  V30 5198 H 492.368 1.05755 -3.65404 0
M  V30 5199 H 493.68 1.59613 -4.72573 0
M  V30 5200 H 492.834 3.9488 -4.60603 0
M  V30 5201 H 491.573 3.45657 -3.44053 0
M  V30 5202 H 490.578 1.91478 -5.1538 0
M  V30 5203 H 491.803 2.43497 -6.33945 0
M  V30 5204 H 489.749 4.23971 -5.00584 0
M  V30 5205 H 489.666 3.63588 -6.62827 0
M  V30 5206 H 490.934 4.7405 -6.18787 0
M  V30 5207 N 495.163 1.55791 0.238111 0
M  V30 5208 C 496.411 1.77681 0.963001 0
M  V30 5209 C 496.732 0.600674 1.85518 0
M  V30 5210 O 496.002 -0.383182 1.92116 0
M  V30 5211 H 494.582 0.655315 0.358568 0
M  V30 5212 H 497.244 1.93239 0.253945 0
M  V30 5213 H 496.34 2.69177 1.57956 0
M  V30 5214 N 496.642 -0.504142 1.49319 0
M  V30 5215 C 498.053 -1.08572 1.51885 0
M  V30 5216 C 498.404 -1.93842 0.303255 0
M  V30 5217 O 497.529 -2.0828 -0.58724 0
M  V30 5218 C 498.124 -1.97574 2.75227 0
M  V30 5219 C 496.683 -2.509 2.80581 0
M  V30 5220 C 495.83 -1.28447 2.45757 0
M  V30 5221 H 498.781 -0.288194 1.56061 0
M  V30 5222 H 498.802 -2.82219 2.55211 0
M  V30 5223 H 498.314 -1.35486 3.63683 0
M  V30 5224 H 496.415 -3.16636 1.96398 0
M  V30 5225 H 496.528 -2.88268 3.82673 0
M  V30 5226 H 494.892 -1.60868 1.97468 0
M  V30 5227 H 495.675 -0.68072 3.36483 0
M  V30 5228 N 498.12 -1.38341 -0.754957 0
M  V30 5229 C 499.366 -1.35678 -1.51536 0
M  V30 5230 C 499.721 0.0533985 -1.92326 0
M  V30 5231 O 499.014 1.01573 -1.6246 0
M  V30 5232 C 499.208 -2.2452 -2.78075 0
M  V30 5233 C 499.037 -3.74035 -2.49655 0
M  V30 5234 C 497.807 -4.43066 -2.42942 0
M  V30 5235 C 500.005 -4.665 -2.16523 0
M  V30 5236 N 497.987 -5.78026 -2.06783 0
M  V30 5237 C 499.358 -5.89962 -1.90644 0
M  V30 5238 C 501.413 -4.54718 -2.02821 0
M  V30 5239 C 500.116 -7.0296 -1.52444 0
M  V30 5240 C 502.142 -5.67618 -1.66023 0
M  V30 5241 C 501.504 -6.90141 -1.41015 0
M  V30 5242 H 497.603 -0.551764 -0.554148 0
M  V30 5243 H 500.187 -1.73716 -0.879258 0
M  V30 5244 H 498.358 -1.88673 -3.39496 0
M  V30 5245 H 500.09 -2.12993 -3.44116 0
M  V30 5246 H 496.845 -3.96264 -2.59367 0
M  V30 5247 H 497.269 -6.49394 -1.91353 0
M  V30 5248 H 501.911 -3.60546 -2.20831 0
M  V30 5249 H 499.629 -7.97051 -1.33174 0
M  V30 5250 H 503.215 -5.6048 -1.56055 0
M  V30 5251 H 502.095 -7.76021 -1.12965 0
M  V30 5252 N 499.598 0.982988 -1.23187 0
M  V30 5253 C 500.845 1.72392 -1.06241 0
M  V30 5254 C 501.173 1.9032 0.40108 0
M  V30 5255 O 500.428 1.45084 1.31336 0
M  V30 5256 C 500.727 3.12736 -1.73006 0
M  V30 5257 C 500.393 3.14695 -3.22921 0
M  V30 5258 C 499.055 3.14937 -3.63824 0
M  V30 5259 C 501.407 3.10211 -4.1883 0
M  V30 5260 C 498.735 3.08408 -4.99101 0
M  V30 5261 C 501.087 3.05224 -5.54095 0
M  V30 5262 C 499.751 3.03787 -5.94365 0
M  V30 5263 H 499.021 0.630829 -0.388762 0
M  V30 5264 H 501.668 1.15053 -1.53085 0
M  V30 5265 H 499.973 3.73446 -1.18514 0
M  V30 5266 H 501.67 3.68828 -1.57374 0
M  V30 5267 H 498.26 3.15262 -2.90358 0
M  V30 5268 H 502.444 3.09166 -3.8824 0
M  V30 5269 H 497.7 3.05646 -5.29519 0
M  V30 5270 H 501.874 3.00712 -6.28128 0
M  V30 5271 H 499.501 2.98483 -6.99151 0
M  V30 5272 N 501.076 1.04316 1.18135 0
M  V30 5273 C 502.322 0.758899 1.88712 0
M  V30 5274 C 502.677 -0.705863 1.78984 0
M  V30 5275 O 501.97 -1.50874 1.18101 0
M  V30 5276 C 502.164 1.16271 3.37958 0
M  V30 5277 C 501.993 2.66518 3.62213 0
M  V30 5278 C 500.763 3.33702 3.79436 0
M  V30 5279 C 502.961 3.64739 3.62588 0
M  V30 5280 N 500.943 4.72904 3.91452 0
M  V30 5281 C 502.314 4.89627 3.80348 0
M  V30 5282 C 504.369 3.58333 3.4569 0
M  V30 5283 C 503.072 6.08879 3.8296 0
M  V30 5284 C 505.098 4.77016 3.49586 0
M  V30 5285 C 504.46 6.00724 3.67845 0
M  V30 5286 H 500.559 0.329795 0.709055 0
M  V30 5287 H 503.143 1.33334 1.4188 0
M  V30 5288 H 501.314 0.616319 3.83479 0
M  V30 5289 H 503.046 0.829205 3.96114 0
M  V30 5290 H 499.801 2.84105 3.78921 0
M  V30 5291 H 500.225 5.45258 4.01277 0
M  V30 5292 H 504.867 2.63663 3.30517 0
M  V30 5293 H 502.585 7.03903 3.96921 0
M  V30 5294 H 506.171 4.73703 3.37782 0
M  V30 5295 H 505.051 6.91022 3.70753 0
M  V30 5296 N 502.554 -1.34406 0.822964 0
M  V30 5297 C 503.97 -1.51275 0.508727 0
M  V30 5298 C 504.17 -1.76776 -0.967083 0
M  V30 5299 O 503.226 -1.81871 -1.75155 0
M  V30 5300 C 504.539 -2.67765 1.36829 0
M  V30 5301 C 506.087 -2.81647 1.36542 0
M  V30 5302 C 506.562 -4.01181 2.20947 0
M  V30 5303 N 508.053 -4.08388 2.18571 0
M  V30 5304 C 508.788 -5.00036 2.80627 0
M  V30 5305 N 508.284 -5.96906 3.51674 0
M  V30 5306 N 510.077 -4.92908 2.70181 0
M  V30 5307 H 502.228 -1.16113 1.77852 0
M  V30 5308 H 504.491 -0.56947 0.757897 0
M  V30 5309 H 504.197 -2.55551 2.41633 0
M  V30 5310 H 504.071 -3.62779 1.03303 0
M  V30 5311 H 506.458 -2.93303 0.325163 0
M  V30 5312 H 506.539 -1.87443 1.74066 0
M  V30 5313 H 506.183 -3.90286 3.25022 0
M  V30 5314 H 506.113 -4.94599 1.80774 0
M  V30 5315 H 508.604 -3.39051 1.66891 0
M  V30 5316 H 508.917 -6.63468 3.96271 0
M  V30 5317 H 507.262 -5.9703 3.5578 0
M  V30 5318 H 510.453 -4.1619 2.14251 0
M  V30 5319 H 510.626 -5.64137 3.18831 0
M  V30 5320 N 504.032 -0.577932 -1.46621 0
M  V30 5321 C 504.962 0.145917 -2.33044 0
M  V30 5322 C 505.943 0.888412 -1.45056 0
M  V30 5323 O 507.128 0.864812 -1.73881 0
M  V30 5324 C 504.258 1.16322 -3.27241 0
M  V30 5325 C 503.212 0.535868 -4.24632 0
M  V30 5326 C 502.538 1.65929 -5.08303 0
M  V30 5327 C 503.838 -0.523861 -5.19666 0
M  V30 5328 H 505.532 -0.575636 -2.93814 0
M  V30 5329 H 503.078 -0.278272 -1.41286 0
M  V30 5330 H 505.031 1.67793 -3.86553 0
M  V30 5331 H 503.755 1.91498 -2.64567 0
M  V30 5332 H 502.414 0.0422759 -3.66576 0
M  V30 5333 H 502.062 2.40061 -4.42018 0
M  V30 5334 H 501.762 1.2452 -5.74255 0
M  V30 5335 H 503.286 2.17686 -5.70478 0
M  V30 5336 H 504.7 -0.0944059 -5.73222 0
M  V30 5337 H 503.097 -0.858 -5.93935 0
M  V30 5338 H 504.167 -1.41197 -4.63887 0
M  V30 5339 N 505.51 1.54411 -0.315457 0
M  V30 5340 C 506.442 2.21527 0.588067 0
M  V30 5341 C 507.455 1.21263 1.08624 0
M  V30 5342 O 508.644 1.47777 1.00121 0
M  V30 5343 C 505.744 2.85963 1.81875 0
M  V30 5344 C 504.917 4.12291 1.46063 0
M  V30 5345 C 503.976 4.60396 2.54799 0
M  V30 5346 O 503.002 5.25265 2.19283 0
M  V30 5347 N 504.204 4.33935 3.85591 0
M  V30 5348 H 506.969 2.99697 0.013414 0
M  V30 5349 H 504.53 1.61308 -0.138295 0
M  V30 5350 H 506.522 3.15071 2.53993 0
M  V30 5351 H 505.092 2.11548 2.30144 0
M  V30 5352 H 504.312 3.90036 0.571445 0
M  V30 5353 H 505.6 4.9452 1.19695 0
M  V30 5354 H 504.998 3.81996 4.17248 0
M  V30 5355 H 503.555 4.67718 4.53964 0
M  V30 5356 N 506.988 0.0434614 1.5754 0
M  V30 5357 C 508.399 -0.493343 1.80064 0
M  V30 5358 C 508.75 -1.71388 0.955023 0
M  V30 5359 O 507.875 -2.15736 0.169434 0
M  V30 5360 C 508.47 -0.90179 3.26578 0
M  V30 5361 C 507.029 -1.38362 3.50047 0
M  V30 5362 C 506.176 -0.355129 2.75017 0
M  V30 5363 H 509.127 0.2694 1.56397 0
M  V30 5364 H 509.148 -1.76523 3.37075 0
M  V30 5365 H 508.66 -0.013271 3.88098 0
M  V30 5366 H 506.761 -2.29159 2.93798 0
M  V30 5367 H 506.874 -1.3811 4.58762 0
M  V30 5368 H 505.238 -0.826348 2.40922 0
M  V30 5369 H 506.021 0.525172 3.39259 0
M  V30 5370 N 508.466 -1.55915 -0.229846 0
M  V30 5371 C 509.691 -1.8296 -0.976743 0
M  V30 5372 C 510.116 -0.622735 -1.77493 0
M  V30 5373 O 509.474 0.428431 -1.76165 0
M  V30 5374 C 509.522 -3.07916 -1.8767 0
M  V30 5375 O 508.626 -2.86028 -2.97088 0
M  V30 5376 H 507.967 -0.603453 -0.277021 0
M  V30 5377 H 510.497 -2.0312 -0.245669 0
M  V30 5378 H 510.507 -3.37802 -2.2881 0
M  V30 5379 H 509.182 -3.95389 -1.28996 0
M  V30 5380 H 507.759 -2.67355 -2.59954 0
M  V30 5381 N 509.944 0.496216 -1.49584 0
M  V30 5382 C 511.192 1.24756 -1.58998 0
M  V30 5383 C 511.513 1.92968 -0.280775 0
M  V30 5384 O 510.783 1.82959 0.700198 0
M  V30 5385 H 509.363 0.463471 -0.585836 0
M  V30 5386 H 512.025 0.574678 -1.86235 0
M  V30 5387 H 511.121 2.00895 -2.38847 0
M  V30 5388 N 511.423 1.38739 0.74761 0
M  V30 5389 C 512.355 1.32341 1.87132 0
M  V30 5390 C 513.368 0.234502 1.61102 0
M  V30 5391 O 514.557 0.492516 1.71571 0
M  V30 5392 C 511.657 1.02915 3.22896 0
M  V30 5393 C 510.83 2.22834 3.76383 0
M  V30 5394 C 509.889 1.90059 4.90677 0
M  V30 5395 O 508.915 2.62615 5.04997 0
M  V30 5396 N 510.117 0.859141 5.74107 0
M  V30 5397 H 512.882 2.29175 1.93129 0
M  V30 5398 H 510.443 1.32678 0.927805 0
M  V30 5399 H 512.435 0.79031 3.96908 0
M  V30 5400 H 511.005 0.148572 3.12247 0
M  V30 5401 H 510.225 2.62747 2.93867 0
M  V30 5402 H 511.513 3.02851 4.08851 0
M  V30 5403 H 510.911 0.257564 5.65113 0
M  V30 5404 H 509.468 0.680189 6.48241 0
M  V30 5405 N 512.901 -0.976442 1.23707 0
M  V30 5406 C 513.831 -2.08749 1.04624 0
M  V30 5407 C 514.812 -1.70057 -0.0380956 0
M  V30 5408 O 515.997 -1.93782 0.127308 0
M  V30 5409 C 513.127 -3.41335 0.640902 0
M  V30 5410 C 512.081 -3.93947 1.67302 0
M  V30 5411 C 511.407 -5.22774 1.12301 0
M  V30 5412 C 512.707 -4.22769 3.06697 0
M  V30 5413 H 514.401 -2.24972 1.97555 0
M  V30 5414 H 511.947 -1.08108 0.951247 0
M  V30 5415 H 513.9 -4.18489 0.494434 0
M  V30 5416 H 512.624 -3.24988 -0.324099 0
M  V30 5417 H 511.283 -3.18941 1.80755 0
M  V30 5418 H 510.931 -5.0278 0.148877 0
M  V30 5419 H 510.631 -5.58942 1.81267 0
M  V30 5420 H 512.155 -6.02546 0.988479 0
M  V30 5421 H 513.569 -4.90659 2.96524 0
M  V30 5422 H 511.966 -4.70147 3.72937 0
M  V30 5423 H 513.036 -3.29885 3.55392 0
M  V30 5424 N 514.379 -1.04941 -1.1758 0
M  V30 5425 C 515.625 -0.759112 -1.88057 0
M  V30 5426 C 515.958 0.711918 -1.8068 0
M  V30 5427 O 515.233 1.52035 -1.21308 0
M  V30 5428 C 515.516 -1.237 -3.38187 0
M  V30 5429 C 515.369 -2.77078 -3.54327 0
M  V30 5430 C 516.688 -0.834014 -4.32125 0
M  V30 5431 H 513.807 -0.277237 -0.682868 0
M  V30 5432 H 516.449 -1.30296 -1.38286 0
M  V30 5433 H 514.599 -0.774337 -3.80705 0
M  V30 5434 H 516.271 -3.31449 -3.20842 0
M  V30 5435 H 514.514 -3.16477 -2.96689 0
M  V30 5436 H 515.185 -3.05577 -4.59703 0
M  V30 5437 H 517.661 -1.23228 -3.97434 0
M  V30 5438 H 516.537 -1.19603 -5.35711 0
M  V30 5439 H 516.798 0.262195 -4.41322 0
M  V30 5440 N 515.857 1.33968 -0.830081 0
M  V30 5441 C 517.082 2.02813 -0.433796 0
M  V30 5442 C 517.507 1.62076 0.954614 0
M  V30 5443 O 516.865 0.808955 1.62252 0
M  V30 5444 C 516.913 3.56348 -0.552115 0
M  V30 5445 O 516.017 4.10202 0.425191 0
M  V30 5446 H 515.358 0.639817 -0.177567 0
M  V30 5447 H 517.888 1.7106 -1.12248 0
M  V30 5448 H 517.898 4.05722 -0.430513 0
M  V30 5449 H 516.573 3.85344 -1.56471 0
M  V30 5450 H 515.15 3.71979 0.261878 0
M  V30 5451 N 517.335 0.585699 1.46312 0
M  V30 5452 C 518.746 0.159938 1.86014 0
M  V30 5453 C 519.097 -1.27775 1.48889 0
M  V30 5454 O 518.222 -1.96559 0.90519 0
M  V30 5455 C 518.817 0.283485 3.37612 0
M  V30 5456 C 517.376 -0.0874256 3.76298 0
M  V30 5457 C 516.523 0.618055 2.70325 0
M  V30 5458 H 519.474 0.793737 1.37425 0
M  V30 5459 H 519.495 -0.490348 3.77327 0
M  V30 5460 H 519.007 1.32995 3.64601 0
M  V30 5461 H 517.108 -1.13391 3.54927 0
M  V30 5462 H 517.221 0.290975 4.78216 0
M  V30 5463 H 515.585 0.057993 2.54634 0
M  V30 5464 H 516.368 1.66623 3.00153 0
M  V30 5465 N 518.813 -1.54241 0.323641 0
M  V30 5466 C 520.229 -1.59574 -0.0290018 0
M  V30 5467 C 520.429 -1.34017 -1.50472 0
M  V30 5468 O 519.485 -1.12464 -2.26071 0
M  V30 5469 C 520.798 -2.98169 0.389295 0
M  V30 5470 C 522.346 -3.11148 0.339958 0
M  V30 5471 C 522.821 -4.5209 0.733418 0
M  V30 5472 N 524.312 -4.5808 0.686827 0
M  V30 5473 C 525.047 -5.65248 0.963464 0
M  V30 5474 N 524.543 -6.80355 1.30724 0
M  V30 5475 N 526.336 -5.55025 0.88902 0
M  V30 5476 H 518.487 -1.6911 1.28512 0
M  V30 5477 H 520.75 -0.790972 0.522558 0
M  V30 5478 H 520.456 -3.21871 1.41746 0
M  V30 5479 H 520.33 -3.76399 -0.245657 0
M  V30 5480 H 522.717 -2.87182 -0.679002 0
M  V30 5481 H 522.798 -2.35023 1.00985 0
M  V30 5482 H 522.442 -4.76788 1.75029 0
M  V30 5483 H 522.372 -5.26584 0.0412189 0
M  V30 5484 H 524.863 -3.75411 0.43298 0
M  V30 5485 H 525.176 -7.58029 1.5037 0
M  V30 5486 H 523.521 -6.81851 1.3455 0
M  V30 5487 H 526.712 -4.63977 0.619939 0
M  V30 5488 H 526.885 -6.38458 1.10797 0
M  V30 5489 N 520.291 -0.0518155 -1.57515 0
M  V30 5490 C 521.702 0.483787 -1.80323 0
M  V30 5491 C 522.053 1.70879 -0.964099 0
M  V30 5492 O 521.178 2.15643 -0.180872 0
M  V30 5493 C 521.773 0.884459 -3.27052 0
M  V30 5494 C 520.332 1.36504 -3.50776 0
M  V30 5495 C 519.479 0.340539 -2.75201 0
M  V30 5496 H 522.43 -0.277691 -1.56252 0
M  V30 5497 H 522.451 1.74733 -3.38007 0
M  V30 5498 H 521.963 -0.00731093 -3.88099 0
M  V30 5499 H 520.064 2.27598 -2.95009 0
M  V30 5500 H 520.177 1.35675 -4.59488 0
M  V30 5501 H 518.541 0.81356 -2.41357 0
M  V30 5502 H 519.324 -0.543156 -3.38976 0
M  V30 5503 N 521.769 1.56035 0.221574 0
M  V30 5504 C 522.732 1.91584 1.2581 0
M  V30 5505 C 523.732 0.794425 1.39805 0
M  V30 5506 O 524.922 1.06217 1.38071 0
M  V30 5507 C 522.054 2.16663 2.63192 0
M  V30 5508 H 523.247 2.8429 0.954935 0
M  V30 5509 H 520.8 1.49316 0.461988 0
M  V30 5510 H 521.535 1.26508 2.98607 0
M  V30 5511 H 521.32 2.98358 2.5441 0
M  V30 5512 H 522.81 2.45262 3.37988 0
M  V30 5513 N 523.247 -0.488276 1.49845 0
M  V30 5514 C 524.663 -0.820566 1.3689 0
M  V30 5515 C 524.863 -1.97248 0.411752 0
M  V30 5516 O 523.919 -2.52042 -0.151931 0
M  V30 5517 C 525.232 -1.1488 2.77891 0
M  V30 5518 C 526.78 -1.25626 2.86683 0
M  V30 5519 C 527.255 -1.61772 4.28479 0
M  V30 5520 N 528.746 -1.68797 4.31349 0
M  V30 5521 C 529.481 -1.98235 5.38043 0
M  V30 5522 N 528.977 -2.2581 6.54967 0
M  V30 5523 N 530.77 -1.99593 5.2547 0
M  V30 5524 H 522.921 0.271123 2.10662 0
M  V30 5525 H 525.184 0.058735 0.946179 0
M  V30 5526 H 524.89 -0.375614 3.49688 0
M  V30 5527 H 524.764 -2.08919 3.14058 0
M  V30 5528 H 527.151 -2.02014 2.15114 0
M  V30 5529 H 527.232 -0.296072 2.54081 0
M  V30 5530 H 526.876 -0.859295 5.00578 0
M  V30 5531 H 526.806 -2.58912 4.58554 0
M  V30 5532 H 529.297 -1.49595 3.4703 0
M  V30 5533 H 529.61 -2.47497 7.32096 0
M  V30 5534 H 527.955 -2.23239 6.58171 0
M  V30 5535 H 531.146 -1.77535 4.33127 0
M  V30 5536 H 531.319 -2.222 6.08713 0
M  V30 5537 N 524.725 -1.39134 -0.740242 0
M  V30 5538 C 525.655 -1.40165 -1.86751 0
M  V30 5539 C 526.636 -0.265708 -1.68012 0
M  V30 5540 O 527.821 -0.47076 -1.88408 0
M  V30 5541 C 524.951 -1.2392 -3.2444 0
M  V30 5542 C 523.905 -2.34858 -3.57807 0
M  V30 5543 C 523.231 -2.03707 -4.94376 0
M  V30 5544 C 524.531 -3.77159 -3.61315 0
M  V30 5545 H 526.225 -2.345 -1.86145 0
M  V30 5546 H 523.771 -1.12875 -0.89416 0
M  V30 5547 H 525.724 -1.23263 -4.02969 0
M  V30 5548 H 524.448 -0.26051 -3.25559 0
M  V30 5549 H 523.107 -2.34723 -2.81604 0
M  V30 5550 H 522.755 -1.04289 -4.9207 0
M  V30 5551 H 522.455 -2.78016 -5.17669 0
M  V30 5552 H 523.979 -2.04691 -5.75268 0
M  V30 5553 H 525.393 -3.79252 -4.29931 0
M  V30 5554 H 523.79 -4.50784 -3.96124 0
M  V30 5555 H 524.86 -4.08513 -2.61238 0
M  V30 5556 N 526.204 0.969867 -1.24223 0
M  V30 5557 C 527.154 2.04913 -0.999732 0
M  V30 5558 C 528.138 1.60795 0.0580636 0
M  V30 5559 O 529.33 1.76317 -0.155392 0
M  V30 5560 C 526.459 3.37942 -0.604154 0
M  V30 5561 C 525.545 3.88628 -1.69791 0
M  V30 5562 N 525.936 4.12274 -2.93025 0
M  V30 5563 C 524.234 4.17268 -1.57492 0
M  V30 5564 C 524.935 4.53808 -3.63914 0
M  V30 5565 N 523.911 4.58855 -2.91468 0
M  V30 5566 H 527.713 2.21168 -1.93551 0
M  V30 5567 H 525.227 1.15349 -1.14317 0
M  V30 5568 H 527.224 4.14863 -0.411665 0
M  V30 5569 H 525.884 3.23075 0.324465 0
M  V30 5570 H 526.895 3.99789 -3.29225 0
M  V30 5571 H 523.572 4.11346 -0.714175 0
M  V30 5572 H 524.962 4.80534 -4.69614 0
M  V30 5573 N 527.682 1.05563 1.17022 0
M  V30 5574 C 529.098 0.777684 1.39371 0
M  V30 5575 C 529.298 -0.626269 1.91521 0
M  V30 5576 O 528.354 -1.38806 2.10924 0
M  V30 5577 C 529.667 1.83642 2.3811 0
M  V30 5578 C 531.215 1.85907 2.51809 0
M  V30 5579 C 531.69 2.90813 3.53824 0
M  V30 5580 N 533.181 2.898 3.61345 0
M  V30 5581 C 533.916 3.6762 4.40049 0
M  V30 5582 N 533.412 4.55237 5.22237 0
M  V30 5583 N 535.205 3.56044 4.34959 0
M  V30 5584 H 527.356 1.9614 0.815047 0
M  V30 5585 H 529.619 0.849527 0.420722 0
M  V30 5586 H 529.325 2.84425 2.06871 0
M  V30 5587 H 529.199 1.6812 3.37662 0
M  V30 5588 H 531.586 0.857865 2.82356 0
M  V30 5589 H 531.667 2.05506 1.52318 0
M  V30 5590 H 531.311 3.91122 3.24015 0
M  V30 5591 H 531.241 2.68465 4.53028 0
M  V30 5592 H 533.732 2.26274 3.02669 0
M  V30 5593 H 534.045 5.11291 5.79484 0
M  V30 5594 H 532.39 4.59296 5.21605 0
M  V30 5595 H 535.581 2.86986 3.69806 0
M  V30 5596 H 535.754 4.16938 4.96051 0
M  V30 5597 N 529.16 -1.33526 0.837174 0
M  V30 5598 C 530.407 -1.97837 0.432064 0
M  V30 5599 C 530.735 -1.66324 -1.00829 0
M  V30 5600 O 529.99 -0.93448 -1.71948 0
M  V30 5601 C 530.289 -3.52367 0.597675 0
M  V30 5602 C 529.955 -4.03826 2.00587 0
M  V30 5603 C 528.617 -4.1759 2.39106 0
M  V30 5604 C 530.969 -4.31333 2.92576 0
M  V30 5605 C 528.297 -4.56195 3.68921 0
M  V30 5606 C 530.649 -4.7139 4.2187 0
M  V30 5607 C 529.313 -4.8336 4.60347 0
M  V30 5608 H 528.583 -0.723937 0.158104 0
M  V30 5609 H 531.23 -1.5923 1.06387 0
M  V30 5610 H 529.535 -3.91624 -0.117452 0
M  V30 5611 H 531.232 -4.00126 0.26454 0
M  V30 5612 H 527.822 -3.93586 1.69671 0
M  V30 5613 H 532.006 -4.20224 2.64056 0
M  V30 5614 H 527.262 -4.63655 3.9854 0
M  V30 5615 H 531.436 -4.91631 4.93226 0
M  V30 5616 H 529.063 -5.1303 5.60985 0
M  V30 5617 N 530.638 -0.59345 -1.46 0
M  V30 5618 C 531.884 -0.0916503 -2.03193 0
M  V30 5619 C 532.239 1.25839 -1.45541 0
M  V30 5620 O 531.532 1.81455 -0.615191 0
M  V30 5621 C 531.726 0.021178 -3.57394 0
M  V30 5622 C 531.555 -1.31638 -4.30002 0
M  V30 5623 C 530.325 -1.89336 -4.68487 0
M  V30 5624 C 532.523 -2.242 -4.62859 0
M  V30 5625 N 530.505 -3.1672 -5.25891 0
M  V30 5626 C 531.876 -3.36175 -5.20948 0
M  V30 5627 C 533.931 -2.23748 -4.44794 0
M  V30 5628 C 532.634 -4.47844 -5.62875 0
M  V30 5629 C 534.66 -3.34454 -4.87744 0
M  V30 5630 C 534.022 -4.4515 -5.45913 0
M  V30 5631 H 530.121 -0.0765713 -0.778242 0
M  V30 5632 H 532.705 -0.788705 -1.7801 0
M  V30 5633 H 530.876 0.687423 -3.82268 0
M  V30 5634 H 532.608 0.528343 -4.01236 0
M  V30 5635 H 529.363 -1.42704 -4.51589 0
M  V30 5636 H 529.787 -3.81746 -5.59106 0
M  V30 5637 H 534.429 -1.39433 -3.99147 0
M  V30 5638 H 532.147 -5.32894 -6.07495 0
M  V30 5639 H 535.733 -3.35234 -4.75509 0
M  V30 5640 H 534.613 -5.29398 -5.78539 0
M  V30 5641 N 532.116 1.54067 -0.331816 0
M  V30 5642 C 533.026 2.28322 0.539104 0
M  V30 5643 C 534.042 1.32985 1.1221 0
M  V30 5644 O 535.218 1.6601 1.1403 0
M  V30 5645 C 532.283 3.03277 1.68 0
M  V30 5646 C 531.344 4.14216 1.12798 0
M  V30 5647 C 530.577 4.85588 2.2145 0
M  V30 5648 O 530.8 4.56536 3.41952 0
M  V30 5649 O 529.734 5.72309 1.86404 0
M  V30 5650 H 533.56 3.03632 -0.0641692 0
M  V30 5651 H 531.145 1.49083 -0.0972365 0
M  V30 5652 H 533.027 3.50189 2.34405 0
M  V30 5653 H 531.702 2.30834 2.2693 0
M  V30 5654 H 530.609 3.71635 0.428782 0
M  V30 5655 H 531.942 4.88727 0.583698 0
M  V30 5656 N 533.594 0.0601682 1.57485 0
M  V30 5657 C 534.842 -0.610386 1.92662 0
M  V30 5658 C 535.163 -1.70849 0.939981 0
M  V30 5659 O 534.433 -1.95895 -0.0137455 0
M  V30 5660 H 533.013 -0.228457 0.711208 0
M  V30 5661 H 535.675 0.115288 1.94559 0
M  V30 5662 H 534.771 -1.0432 2.94149 0
M  V30 5663 N 535.072 -1.5615 -0.213296 0
M  V30 5664 C 536.002 -1.96109 -1.26742 0
M  V30 5665 C 536.983 -0.830448 -1.48451 0
M  V30 5666 O 538.168 -1.09339 -1.60495 0
M  V30 5667 C 535.298 -2.28492 -2.61551 0
M  V30 5668 C 534.252 -3.44124 -2.54485 0
M  V30 5669 C 533.578 -3.62134 -3.93399 0
M  V30 5670 C 534.878 -4.78855 -2.08556 0
M  V30 5671 H 536.572 -2.84412 -0.935434 0
M  V30 5672 H 534.118 -1.36836 -0.44854 0
M  V30 5673 H 536.071 -2.55039 -3.3546 0
M  V30 5674 H 534.795 -1.37052 -2.96453 0
M  V30 5675 H 533.454 -3.17639 -1.83033 0
M  V30 5676 H 533.102 -2.68055 -4.25623 0
M  V30 5677 H 532.802 -4.39913 -3.89551 0
M  V30 5678 H 534.326 -3.91038 -4.68958 0
M  V30 5679 H 535.74 -5.04552 -2.72213 0
M  V30 5680 H 534.137 -5.59975 -2.1575 0
M  V30 5681 H 535.207 -4.73657 -1.03811 0
M  V30 5682 N 536.55 0.480323 -1.50102 0
M  V30 5683 C 537.961 1.06142 -1.53593 0
M  V30 5684 C 538.312 1.93335 -0.334055 0
M  V30 5685 O 537.437 2.09188 0.55403 0
M  V30 5686 C 538.032 1.9317 -2.78336 0
M  V30 5687 C 536.591 2.46405 -2.84538 0
M  V30 5688 C 535.738 1.24521 -2.4777 0
M  V30 5689 H 538.689 0.26333 -1.565 0
M  V30 5690 H 538.71 2.78123 -2.59669 0
M  V30 5691 H 538.222 1.29683 -3.65792 0
M  V30 5692 H 536.323 3.13472 -2.01411 0
M  V30 5693 H 536.436 2.82143 -3.87211 0
M  V30 5694 H 534.8 1.57706 -2.00003 0
M  V30 5695 H 535.583 0.627102 -3.37524 0
M  V30 5696 N 538.028 1.39524 0.732853 0
M  V30 5697 C 538.991 1.38189 1.82857 0
M  V30 5698 C 539.991 0.278624 1.58368 0
M  V30 5699 O 541.181 0.536639 1.65728 0
M  V30 5700 C 538.313 1.15661 3.2068 0
M  V30 5701 H 539.506 2.35692 1.85444 0
M  V30 5702 H 537.059 1.2512 0.936728 0
M  V30 5703 H 537.794 0.188482 3.23752 0
M  V30 5704 H 537.579 1.95559 3.39852 0
M  V30 5705 H 539.069 1.17472 4.00737 0
M  V30 5706 N 539.506 -0.963266 1.24736 0
M  V30 5707 C 540.438 -2.06162 1.0015 0
M  V30 5708 C 541.451 -1.62771 -0.0305905 0
M  V30 5709 O 542.64 -1.77296 0.206966 0
M  V30 5710 C 539.74 -3.35333 0.490385 0
M  V30 5711 C 538.913 -4.07609 1.58663 0
M  V30 5712 C 537.972 -5.15052 1.0774 0
M  V30 5713 O 536.998 -5.4098 1.77002 0
M  V30 5714 N 538.2 -5.80436 -0.0858605 0
M  V30 5715 H 540.965 -2.27825 1.94719 0
M  V30 5716 H 538.526 -1.13121 1.15825 0
M  V30 5717 H 540.518 -4.04477 0.134371 0
M  V30 5718 H 539.088 -3.10507 -0.361155 0
M  V30 5719 H 538.308 -3.32681 2.11463 0
M  V30 5720 H 539.596 -4.52656 2.32336 0
M  V30 5721 H 538.994 -5.6178 -0.664806 0
M  V30 5722 H 537.551 -6.50674 -0.382981 0
M  V30 5723 N 540.985 -1.06182 -1.16461 0
M  V30 5724 C 542.231 -0.779015 -1.87241 0
M  V30 5725 C 542.564 0.692715 -1.81425 0
M  V30 5726 O 541.839 1.5074 -1.22913 0
M  V30 5727 C 542.122 -1.2728 -3.36856 0
M  V30 5728 C 541.975 -2.80821 -3.51368 0
M  V30 5729 C 543.294 -0.879799 -4.31216 0
M  V30 5730 H 540.413 -0.284464 -0.679889 0
M  V30 5731 H 543.055 -1.31755 -1.36896 0
M  V30 5732 H 541.205 -0.814673 -3.79862 0
M  V30 5733 H 542.877 -3.34833 -3.17308 0
M  V30 5734 H 541.12 -3.19606 -2.93316 0
M  V30 5735 H 541.791 -3.10435 -4.56436 0
M  V30 5736 H 544.267 -1.27436 -3.96105 0
M  V30 5737 H 543.143 -1.25278 -5.34412 0
M  V30 5738 H 543.404 0.215372 -4.41575 0
M  V30 5739 N 542.463 1.3308 -0.844243 0
M  V30 5740 C 543.879 1.50447 -0.532729 0
M  V30 5741 C 544.079 1.78292 0.938837 0
M  V30 5742 O 543.135 1.84635 1.72239 0
M  V30 5743 C 544.448 2.65555 -1.41072 0
M  V30 5744 C 545.996 2.7944 -1.41005 0
M  V30 5745 C 546.471 3.97616 -2.27301 0
M  V30 5746 N 547.962 4.0486 -2.2504 0
M  V30 5747 C 548.697 4.95508 -2.88547 0
M  V30 5748 N 548.193 5.91236 -3.61126 0
M  V30 5749 N 549.986 4.88548 -2.77989 0
M  V30 5750 H 542.137 1.13269 -1.79677 0
M  V30 5751 H 544.4 0.55734 -0.766861 0
M  V30 5752 H 544.106 2.51675 -2.45668 0
M  V30 5753 H 543.98 3.61089 -1.09061 0
M  V30 5754 H 546.367 2.92749 -0.371784 0
M  V30 5755 H 546.448 1.8465 -1.77026 0
M  V30 5756 H 546.092 3.85066 -3.3119 0
M  V30 5757 H 546.022 4.91661 -1.88619 0
M  V30 5758 H 548.513 3.36353 -1.72264 0
M  V30 5759 H 548.826 6.57079 -4.06776 0
M  V30 5760 H 547.171 5.91295 -3.65234 0
M  V30 5761 H 550.362 4.12729 -2.20846 0
M  V30 5762 H 550.535 5.58994 -3.27765 0
M  V30 5763 N 543.941 0.601185 1.45683 0
M  V30 5764 C 545.187 0.0940202 2.02582 0
M  V30 5765 C 545.52 -1.26972 1.46941 0
M  V30 5766 O 544.795 -1.83613 0.641612 0
M  V30 5767 C 545.078 0.0481715 3.60068 0
M  V30 5768 C 544.931 1.44212 4.26055 0
M  V30 5769 C 546.25 -0.642975 4.35378 0
M  V30 5770 H 543.369 0.0356404 0.736138 0
M  V30 5771 H 546.011 0.771929 1.73612 0
M  V30 5772 H 544.161 -0.529128 3.8488 0
M  V30 5773 H 545.833 2.06601 4.12449 0
M  V30 5774 H 544.076 2.00465 3.84703 0
M  V30 5775 H 544.747 1.36234 5.34925 0
M  V30 5776 H 547.223 -0.152351 4.15821 0
M  V30 5777 H 546.099 -0.644141 5.45107 0
M  V30 5778 H 546.36 -1.70785 4.0778 0
M  V30 5779 N 545.419 -1.53889 0.339982 0
M  V30 5780 C 546.665 -2.01152 -0.258003 0
M  V30 5781 C 546.998 -1.22749 -1.50487 0
M  V30 5782 O 546.273 -0.314156 -1.91946 0
M  V30 5783 C 546.556 -3.55468 -0.575717 0
M  V30 5784 C 546.409 -4.44584 0.682996 0
M  V30 5785 C 547.728 -4.1768 -1.38677 0
M  V30 5786 H 544.847 -0.731198 -0.0922992 0
M  V30 5787 H 547.489 -1.84352 0.459814 0
M  V30 5788 H 545.639 -3.69914 -1.18725 0
M  V30 5789 H 547.311 -4.41981 1.32102 0
M  V30 5790 H 545.554 -4.13592 1.3086 0
M  V30 5791 H 546.225 -5.5043 0.416001 0
M  V30 5792 H 548.701 -4.0691 -0.869705 0
M  V30 5793 H 547.577 -5.25734 -1.57783 0
M  V30 5794 H 547.838 -3.72069 -2.38782 0
M  V30 5795 N 546.897 -0.0685191 -1.57451 0
M  V30 5796 C 547.829 0.929372 -2.09512 0
M  V30 5797 C 548.842 1.26354 -1.02657 0
M  V30 5798 O 550.031 1.2213 -1.30179 0
M  V30 5799 C 547.131 2.24612 -2.53777 0
M  V30 5800 C 546.304 2.09128 -3.84167 0
M  V30 5801 C 545.363 3.24079 -4.14559 0
M  V30 5802 O 544.389 2.99215 -4.8421 0
M  V30 5803 N 545.591 4.49077 -3.67845 0
M  V30 5804 H 548.356 0.484901 -2.95751 0
M  V30 5805 H 545.917 0.11729 -1.61475 0
M  V30 5806 H 547.909 3.00412 -2.71172 0
M  V30 5807 H 546.479 2.60569 -1.72692 0
M  V30 5808 H 545.699 1.17815 -3.76182 0
M  V30 5809 H 546.987 1.9603 -4.69521 0
M  V30 5810 H 546.385 4.72165 -3.11571 0
M  V30 5811 H 544.942 5.21915 -3.90446 0
M  V30 5812 N 548.375 1.56261 0.205012 0
M  V30 5813 C 549.338 1.92908 1.23771 0
M  V30 5814 C 550.338 0.809208 1.38955 0
M  V30 5815 O 551.528 1.07676 1.36936 0
M  V30 5816 C 548.66 2.19442 2.60879 0
M  V30 5817 H 549.853 2.85287 0.924728 0
M  V30 5818 H 547.406 1.49798 0.446125 0
M  V30 5819 H 548.141 1.29668 2.97248 0
M  V30 5820 H 547.926 3.0104 2.51232 0
M  V30 5821 H 549.416 2.48833 3.35368 0
M  V30 5822 N 549.853 -0.472356 1.50355 0
M  V30 5823 C 550.816 -1.5529 1.68576 0
M  V30 5824 C 551.816 -1.50863 0.556511 0
M  V30 5825 O 553.006 -1.53505 0.823516 0
M  V30 5826 C 550.138 -2.94921 1.70981 0
M  V30 5827 H 551.331 -1.40451 2.64978 0
M  V30 5828 H 548.884 -0.698645 1.39816 0
M  V30 5829 H 549.619 -3.15204 0.762675 0
M  V30 5830 H 549.404 -2.99541 2.53017 0
M  V30 5831 H 550.894 -3.73372 1.87037 0
M  V30 5832 N 551.331 -1.39911 -0.725443 0
M  V30 5833 C 552.561 -1.40744 -1.51244 0
M  V30 5834 C 552.969 -0.00275403 -1.892 0
M  V30 5835 O 552.312 0.981299 -1.55294 0
M  V30 5836 C 552.374 -2.22527 -2.82351 0
M  V30 5837 C 552.038 -3.71053 -2.66774 0
M  V30 5838 C 553.035 -4.63916 -2.34686 0
M  V30 5839 C 550.72 -4.14753 -2.83347 0
M  V30 5840 C 552.714 -5.98463 -2.19366 0
M  V30 5841 C 550.401 -5.49372 -2.67644 0
M  V30 5842 C 551.399 -6.41042 -2.357 0
M  V30 5843 O 551.087 -7.73181 -2.20107 0
M  V30 5844 H 550.819 -0.482314 -0.473655 0
M  V30 5845 H 553.373 -1.84472 -0.903284 0
M  V30 5846 H 551.603 -1.73563 -3.45562 0
M  V30 5847 H 553.292 -2.15421 -3.44018 0
M  V30 5848 H 554.058 -4.31453 -2.21525 0
M  V30 5849 H 549.937 -3.43728 -3.072 0
M  V30 5850 H 553.481 -6.69979 -1.94354 0
M  V30 5851 H 549.378 -5.81424 -2.80387 0
M  V30 5852 H 550.146 -7.84008 -2.35103 0
M  V30 5853 N 552.809 0.956637 -1.25245 0
M  V30 5854 C 553.772 2.03457 -1.05537 0
M  V30 5855 C 554.772 1.60798 -0.00886317 0
M  V30 5856 O 555.962 1.72384 -0.250865 0
M  V30 5857 C 553.094 3.35543 -0.601965 0
M  V30 5858 H 554.287 2.22372 -2.01223 0
M  V30 5859 H 551.84 1.13344 -1.07623 0
M  V30 5860 H 552.575 3.22323 0.357584 0
M  V30 5861 H 552.36 3.67854 -1.35743 0
M  V30 5862 H 553.85 4.14769 -0.485454 0
M  V30 5863 N 554.287 1.06798 1.15896 0
M  V30 5864 C 555.703 0.792423 1.38538 0
M  V30 5865 C 555.903 -0.60592 1.92174 0
M  V30 5866 O 554.959 -1.36561 2.12385 0
M  V30 5867 C 556.272 1.86157 2.36149 0
M  V30 5868 C 557.82 1.88567 2.49823 0
M  V30 5869 C 558.295 2.9455 3.5072 0
M  V30 5870 N 559.786 2.93616 3.58251 0
M  V30 5871 C 560.521 3.72267 4.36125 0
M  V30 5872 N 560.017 4.60751 5.17379 0
M  V30 5873 N 561.81 3.60637 4.31158 0
M  V30 5874 H 553.961 1.96993 0.794198 0
M  V30 5875 H 556.224 0.853942 0.411688 0
M  V30 5876 H 555.93 2.86603 2.03843 0
M  V30 5877 H 555.804 1.71692 3.3586 0
M  V30 5878 H 558.191 0.887765 2.8143 0
M  V30 5879 H 558.272 2.0711 1.5013 0
M  V30 5880 H 557.916 3.94537 3.19849 0
M  V30 5881 H 557.846 2.73255 4.50155 0
M  V30 5882 H 560.337 2.29472 3.00252 0
M  V30 5883 H 560.65 5.17408 5.74028 0
M  V30 5884 H 558.995 4.64803 5.16704 0
M  V30 5885 H 562.186 2.90892 3.66742 0
M  V30 5886 H 562.359 4.22176 4.91601 0
M  V30 5887 N 555.766 -1.3263 0.851289 0
M  V30 5888 C 556.716 -2.26451 0.265302 0
M  V30 5889 C 557.7 -1.49814 -0.586899 0
M  V30 5890 O 558.892 -1.71525 -0.436834 0
M  V30 5891 C 556.021 -3.38895 -0.548212 0
M  V30 5892 C 555.107 -4.2292 0.316189 0
M  V30 5893 N 555.498 -4.86014 1.40084 0
M  V30 5894 C 553.796 -4.45876 0.105356 0
M  V30 5895 C 554.497 -5.48667 1.93235 0
M  V30 5896 N 553.473 -5.29455 1.232 0
M  V30 5897 H 557.275 -2.72757 1.09457 0
M  V30 5898 H 554.789 -1.4668 0.697047 0
M  V30 5899 H 556.786 -4.05111 -0.984402 0
M  V30 5900 H 555.446 -2.94135 -1.37531 0
M  V30 5901 H 556.457 -4.86212 1.78377 0
M  V30 5902 H 553.134 -4.11804 -0.687299 0
M  V30 5903 H 554.524 -6.08865 2.84135 0
M  V30 5904 N 557.244 -0.608902 -1.45362 0
M  V30 5905 C 558.66 -0.272659 -1.57254 0
M  V30 5906 C 558.86 1.22477 -1.60005 0
M  V30 5907 O 557.916 2.00785 -1.53106 0
M  V30 5908 C 559.229 -0.944991 -2.85465 0
M  V30 5909 C 560.777 -0.921033 -2.99142 0
M  V30 5910 C 561.252 -1.5734 -4.30126 0
M  V30 5911 N 562.743 -1.53895 -4.36887 0
M  V30 5912 C 563.478 -2.01286 -5.36909 0
M  V30 5913 N 562.974 -2.56768 -6.43461 0
M  V30 5914 N 564.767 -1.92046 -5.28275 0
M  V30 5915 H 556.918 -1.58117 -1.4182 0
M  V30 5916 H 559.181 -0.662437 -0.678146 0
M  V30 5917 H 558.887 -1.99941 -2.89338 0
M  V30 5918 H 558.761 -0.469079 -3.74272 0
M  V30 5919 H 561.148 0.124846 -2.94836 0
M  V30 5920 H 561.229 -1.43522 -2.11743 0
M  V30 5921 H 560.873 -2.61862 -4.35191 0
M  V30 5922 H 560.803 -1.03422 -5.16344 0
M  V30 5923 H 563.294 -1.13366 -3.60495 0
M  V30 5924 H 563.607 -2.9072 -7.16032 0
M  V30 5925 H 561.952 -2.60808 -6.44208 0
M  V30 5926 H 565.143 -1.48439 -4.43941 0
M  V30 5927 H 565.316 -2.29293 -6.06077 0
M  V30 5928 N 558.722 1.53707 -0.348139 0
M  V30 5929 C 559.999 1.93247 0.302475 0
M  V30 5930 C 560.379 1.28012 1.67857 0
M  V30 5931 O 559.727 0.43274 2.24365 0
M  V30 5932 C 559.937 3.47031 0.370159 0
M  V30 5933 C 561.285 4.20066 0.61882 0
M  V30 5934 O 562.309 3.53319 0.452087 0
M  V30 5935 O 561.168 5.38318 0.94215 0
M  V30 5936 H 558.262 0.807736 0.177458 0
M  V30 5937 H 560.808 1.64927 -0.399651 0
M  V30 5938 H 559.58 3.86745 -0.59534 0
M  V30 5939 H 559.203 3.81532 1.11888 0
M  V30 5940 N 560.2 0.0768682 1.57412 0
M  V30 5941 C 561.448 -0.589918 1.93299 0
M  V30 5942 C 561.769 -1.69842 0.958049 0
M  V30 5943 O 561.039 -1.95899 0.00703261 0
M  V30 5944 H 559.619 -0.220901 0.713591 0
M  V30 5945 H 562.281 0.135917 1.94425 0
M  V30 5946 H 561.377 -1.01195 2.95239 0
M  V30 5947 N 561.678 -1.56367 -0.196722 0
M  V30 5948 C 563.094 -1.49916 -0.54749 0
M  V30 5949 C 563.294 -0.77659 -1.85934 0
M  V30 5950 O 562.35 -0.32644 -2.50381 0
M  V30 5951 C 563.663 -2.94577 -0.603734 0
M  V30 5952 C 565.211 -3.05239 -0.692677 0
M  V30 5953 C 565.686 -4.51308 -0.780046 0
M  V30 5954 N 567.177 -4.55453 -0.843616 0
M  V30 5955 C 567.912 -5.65786 -0.931358 0
M  V30 5956 N 567.408 -6.85812 -0.981503 0
M  V30 5957 N 569.201 -5.53695 -0.968421 0
M  V30 5958 H 561.352 -2.01761 0.663803 0
M  V30 5959 H 563.615 -0.918094 0.236238 0
M  V30 5960 H 563.321 -3.50494 0.29105 0
M  V30 5961 H 563.195 -3.47841 -1.45898 0
M  V30 5962 H 565.582 -2.49372 -1.57789 0
M  V30 5963 H 565.663 -2.55103 0.188736 0
M  V30 5964 H 565.307 -5.078 0.100811 0
M  V30 5965 H 565.237 -4.99176 -1.67724 0
M  V30 5966 H 567.728 -3.69025 -0.814176 0
M  V30 5967 H 568.041 -7.65648 -1.04892 0
M  V30 5968 H 566.386 -6.88474 -0.950208 0
M  V30 5969 H 569.577 -4.58848 -0.926072 0
M  V30 5970 H 569.75 -6.39708 -1.03334 0
M  V30 5971 N 563.156 0.464375 -1.50603 0
M  V30 5972 C 564.405 1.21277 -1.61167 0
M  V30 5973 C 564.718 1.92953 -0.320704 0
M  V30 5974 O 565.924 2.69778 -0.30534 0
M  V30 5975 C 564.38 2.20403 -2.84518 0
M  V30 5976 C 563.988 1.54499 -4.20516 0
M  V30 5977 C 565.732 2.95843 -3.0443 0
M  V30 5978 C 563.639 2.51951 -5.35047 0
M  V30 5979 H 562.569 0.456367 -0.600204 0
M  V30 5980 H 565.22 0.48254 -1.77042 0
M  V30 5981 H 563.602 2.96746 -2.62217 0
M  V30 5982 H 564.776 0.83899 -4.53098 0
M  V30 5983 H 563.091 0.913152 -4.06264 0
M  V30 5984 H 565.688 3.6879 -3.87167 0
M  V30 5985 H 566.031 3.55622 -2.16423 0
M  V30 5986 H 566.564 2.26611 -3.26944 0
M  V30 5987 H 563.303 1.96901 -6.25228 0
M  V30 5988 H 562.823 3.20683 -5.06875 0
M  V30 5989 H 564.502 3.13643 -5.65895 0
M  V30 5990 N 564.634 1.40294 0.718013 0
M  V30 5991 C 565.564 1.43118 1.84498 0
M  V30 5992 C 566.545 0.292403 1.67568 0
M  V30 5993 O 567.73 0.500675 1.87635 0
M  V30 5994 C 564.86 1.29065 3.22427 0
M  V30 5995 C 563.814 2.40521 3.54025 0
M  V30 5996 C 563.14 2.11546 4.91073 0
M  V30 5997 C 564.44 3.82859 3.55269 0
M  V30 5998 H 566.134 2.37432 1.82391 0
M  V30 5999 H 563.68 1.14283 0.87609 0
M  V30 6000 H 565.633 1.29658 4.00957 0
M  V30 6001 H 564.357 0.312271 3.25104 0
M  V30 6002 H 563.016 2.39173 2.77834 0
M  V30 6003 H 562.664 1.12104 4.90348 0
M  V30 6004 H 562.364 2.86216 5.1318 0
M  V30 6005 H 563.888 2.13817 5.71939 0
M  V30 6006 H 565.302 3.86044 4.23843 0
M  V30 6007 H 563.699 4.57029 3.88902 0
M  V30 6008 H 564.769 4.12617 2.54706 0
M  V30 6009 N 566.112 -0.949982 1.2575 0
M  V30 6010 C 567.042 -2.06483 1.09028 0
M  V30 6011 C 568.023 -1.701 -0.00201532 0
M  V30 6012 O 569.208 -1.93469 0.168383 0
M  V30 6013 C 566.338 -3.39899 0.71316 0
M  V30 6014 C 565.292 -3.90309 1.75621 0
M  V30 6015 C 564.618 -5.20274 1.23365 0
M  V30 6016 C 565.918 -4.16169 3.15596 0
M  V30 6017 H 567.612 -2.20731 2.02283 0
M  V30 6018 H 565.158 -1.06066 0.973964 0
M  V30 6019 H 567.111 -4.17346 0.58309 0
M  V30 6020 H 565.835 -3.25602 -0.255091 0
M  V30 6021 H 564.494 -3.15035 1.8748 0
M  V30 6022 H 564.142 -5.02351 0.255491 0
M  V30 6023 H 563.842 -5.54971 1.93082 0
M  V30 6024 H 565.366 -6.00314 1.11607 0
M  V30 6025 H 566.78 -4.84259 3.06864 0
M  V30 6026 H 565.177 -4.62131 3.82825 0
M  V30 6027 H 566.247 -3.22273 3.6231 0
M  V30 6028 N 567.59 -1.07411 -1.15328 0
M  V30 6029 C 568.837 -0.797649 -1.86128 0
M  V30 6030 C 569.165 0.676298 -1.82364 0
M  V30 6031 O 568.42 1.51223 -1.24218 0
M  V30 6032 C 568.719 -1.25191 -3.34757 0
M  V30 6033 C 568.385 -2.73191 -3.58716 0
M  V30 6034 C 567.047 -3.13616 -3.64964 0
M  V30 6035 C 569.399 -3.68718 -3.6837 0
M  V30 6036 C 566.727 -4.48383 -3.78377 0
M  V30 6037 C 569.079 -5.03248 -3.83306 0
M  V30 6038 C 567.743 -5.43293 -3.878 0
M  V30 6039 H 567.013 -0.29188 -0.681092 0
M  V30 6040 H 569.66 -1.34524 -1.36292 0
M  V30 6041 H 567.965 -0.623712 -3.86804 0
M  V30 6042 H 569.662 -1.01489 -3.87945 0
M  V30 6043 H 566.252 -2.40898 -3.54494 0
M  V30 6044 H 570.436 -3.38614 -3.62842 0
M  V30 6045 H 565.692 -4.78877 -3.80114 0
M  V30 6046 H 569.866 -5.77142 -3.89718 0
M  V30 6047 H 567.493 -6.47721 -3.97946 0
M  V30 6048 N 569.068 1.32177 -0.85831 0
M  V30 6049 C 570.293 2.01847 -0.476718 0
M  V30 6050 C 570.718 1.64065 0.920021 0
M  V30 6051 O 570.076 0.843189 1.60499 0
M  V30 6052 C 570.124 3.55097 -0.627578 0
M  V30 6053 O 569.228 4.11012 0.338086 0
M  V30 6054 H 568.569 0.635907 -0.191099 0
M  V30 6055 H 571.099 1.68641 -1.15851 0
M  V30 6056 H 571.109 4.04718 -0.516476 0
M  V30 6057 H 569.784 3.81938 -1.64609 0
M  V30 6058 H 568.361 3.72451 0.182917 0
M  V30 6059 N 570.547 0.616602 1.45037 0
M  V30 6060 C 571.795 0.115103 2.01772 0
M  V30 6061 C 572.116 -1.2622 1.48639 0
M  V30 6062 O 571.386 -1.83563 0.684199 0
M  V30 6063 H 569.966 0.0395607 0.745952 0
M  V30 6064 H 572.628 0.800032 1.77723 0
M  V30 6065 H 571.724 0.0717274 3.12018 0
M  V30 6066 N 572.025 -1.5352 0.356285 0
M  V30 6067 C 573.436 -1.86282 -0.12492 0
M  V30 6068 C 573.787 -1.27717 -1.48939 0
M  V30 6069 O 572.912 -0.595614 -2.08042 0
M  V30 6070 C 573.507 -3.37995 -0.23345 0
M  V30 6071 C 572.066 -3.70588 -0.658899 0
M  V30 6072 C 571.213 -2.76581 0.199596 0
M  V30 6073 H 574.164 -1.47901 0.575423 0
M  V30 6074 H 574.185 -3.65475 -1.0587 0
M  V30 6075 H 573.697 -3.8059 0.759776 0
M  V30 6076 H 571.798 -3.33544 -1.66069 0
M  V30 6077 H 571.911 -4.77076 -0.439957 0
M  V30 6078 H 570.275 -2.52552 -0.330076 0
M  V30 6079 H 571.058 -3.22008 1.19019 0
M  V30 6080 N 573.503 -0.0852151 -1.57369 0
M  V30 6081 C 574.435 0.907099 -2.10486 0
M  V30 6082 C 575.448 1.25259 -1.03991 0
M  V30 6083 O 576.637 1.20743 -1.31467 0
M  V30 6084 C 573.737 2.21908 -2.56145 0
M  V30 6085 C 572.91 2.05042 -3.86363 0
M  V30 6086 C 571.969 3.19664 -4.17973 0
M  V30 6087 O 570.995 2.94062 -4.87356 0
M  V30 6088 N 572.197 4.45151 -3.72587 0
M  V30 6089 H 574.962 0.453505 -2.96249 0
M  V30 6090 H 572.523 0.100157 -1.6159 0
M  V30 6091 H 574.515 2.97519 -2.74343 0
M  V30 6092 H 573.085 2.58723 -1.75446 0
M  V30 6093 H 572.305 1.13819 -3.77411 0
M  V30 6094 H 573.593 1.91039 -4.71574 0
M  V30 6095 H 572.991 4.68834 -3.16561 0
M  V30 6096 H 571.548 5.17744 -3.9596 0
M  V30 6097 N 574.981 1.5647 0.188427 0
M  V30 6098 C 576.228 1.81013 0.907779 0
M  V30 6099 C 576.556 0.65953 1.82977 0
M  V30 6100 O 575.811 -0.354308 1.92466 0
M  V30 6101 C 576.11 3.11596 1.7505 0
M  V30 6102 C 575.776 4.40145 0.978922 0
M  V30 6103 C 574.438 4.75066 0.765912 0
M  V30 6104 C 576.79 5.19369 0.436498 0
M  V30 6105 C 574.118 5.867 -0.00089868 0
M  V30 6106 C 576.47 6.31805 -0.317136 0
M  V30 6107 C 575.134 6.65303 -0.541103 0
M  V30 6108 H 574.404 0.662373 0.33218 0
M  V30 6109 H 577.051 1.9071 0.173732 0
M  V30 6110 H 575.356 2.97165 2.55343 0
M  V30 6111 H 577.053 3.27793 2.30983 0
M  V30 6112 H 573.643 4.12745 1.15497 0
M  V30 6113 H 577.827 4.92799 0.588449 0
M  V30 6114 H 573.083 6.11122 -0.184329 0
M  V30 6115 H 577.257 6.92406 -0.744788 0
M  V30 6116 H 574.884 7.51646 -1.13718 0
M  V30 6117 N 576.459 -0.456382 1.50847 0
M  V30 6118 C 577.705 -1.20618 1.63777 0
M  V30 6119 C 578.06 -1.8936 0.340677 0
M  V30 6120 O 577.353 -1.79786 -0.662378 0
M  V30 6121 C 577.547 -2.26336 2.76599 0
M  V30 6122 C 577.376 -1.67968 4.17153 0
M  V30 6123 C 576.146 -1.47293 4.83356 0
M  V30 6124 C 578.344 -1.16643 5.00898 0
M  V30 6125 N 576.326 -0.843222 6.08081 0
M  V30 6126 C 577.697 -0.660843 6.16468 0
M  V30 6127 C 579.752 -1.05637 4.86565 0
M  V30 6128 C 578.455 -0.0560365 7.19278 0
M  V30 6129 C 580.481 -0.465485 5.89565 0
M  V30 6130 C 579.843 0.0296516 7.04394 0
M  V30 6131 H 575.942 -0.429725 0.653345 0
M  V30 6132 H 578.526 -0.505784 1.88016 0
M  V30 6133 H 576.697 -2.93785 2.54056 0
M  V30 6134 H 578.429 -2.9334 2.78808 0
M  V30 6135 H 575.184 -1.72934 4.40898 0
M  V30 6136 H 575.608 -0.546357 6.74792 0
M  V30 6137 H 580.25 -1.42508 3.98059 0
M  V30 6138 H 577.968 0.324845 8.07447 0
M  V30 6139 H 581.554 -0.382493 5.80541 0
M  V30 6140 H 580.434 0.479705 7.82731 0
M  V30 6141 N 577.937 -1.40673 -0.710563 0
M  V30 6142 C 579.183 -1.39428 -1.47267 0
M  V30 6143 C 579.516 0.00182129 -1.942 0
M  V30 6144 O 578.791 0.971387 -1.68506 0
M  V30 6145 C 579.074 -2.38812 -2.6952 0
M  V30 6146 C 578.927 -3.87467 -2.28449 0
M  V30 6147 C 580.246 -2.3566 -3.71689 0
M  V30 6148 H 577.365 -0.507768 -0.534173 0
M  V30 6149 H 580.007 -1.71843 -0.810547 0
M  V30 6150 H 578.157 -2.113 -3.26013 0
M  V30 6151 H 579.829 -4.25825 -1.77399 0
M  V30 6152 H 578.072 -4.03058 -1.60395 0
M  V30 6153 H 578.743 -4.5253 -3.16103 0
M  V30 6154 H 581.219 -2.6004 -3.24836 0
M  V30 6155 H 580.095 -3.07237 -4.54859 0
M  V30 6156 H 580.356 -1.36996 -4.20339 0
M  V30 6157 N 579.415 0.9433 -1.26252 0
M  V30 6158 C 580.662 1.68925 -1.11672 0
M  V30 6159 C 580.99 1.91499 0.340329 0
M  V30 6160 O 580.245 1.49189 1.26653 0
M  V30 6161 C 580.544 3.07073 -1.82868 0
M  V30 6162 C 580.21 3.04262 -3.32769 0
M  V30 6163 C 578.872 3.03203 -3.7366 0
M  V30 6164 C 581.224 2.96729 -4.28487 0
M  V30 6165 C 578.552 2.92373 -5.0866 0
M  V30 6166 C 580.904 2.87442 -5.63525 0
M  V30 6167 C 579.568 2.84724 -6.03729 0
M  V30 6168 H 578.838 0.618141 -0.408635 0
M  V30 6169 H 581.485 1.10124 -1.56668 0
M  V30 6170 H 579.79 3.69486 -1.30335 0
M  V30 6171 H 581.487 3.63635 -1.69029 0
M  V30 6172 H 578.077 3.05865 -3.00241 0
M  V30 6173 H 582.261 2.96658 -3.97879 0
M  V30 6174 H 577.517 2.88645 -5.38975 0
M  V30 6175 H 581.691 2.80576 -6.37377 0
M  V30 6176 H 579.318 2.76089 -7.08293 0
M  V30 6177 N 580.893 1.08022 1.14757 0
M  V30 6178 C 581.825 0.664566 2.19354 0
M  V30 6179 C 582.838 -0.286374 1.60261 0
M  V30 6180 O 584.027 -0.0746362 1.78344 0
M  V30 6181 C 581.127 -0.0434634 3.38872 0
M  V30 6182 C 580.3 0.925381 4.27499 0
M  V30 6183 C 579.359 0.253398 5.2559 0
M  V30 6184 O 578.385 0.896581 5.62094 0
M  V30 6185 N 579.587 -0.998263 5.71852 0
M  V30 6186 H 582.352 1.56438 2.55631 0
M  V30 6187 H 579.913 0.965788 1.29939 0
M  V30 6188 H 581.905 -0.503857 4.01551 0
M  V30 6189 H 580.475 -0.845321 3.00954 0
M  V30 6190 H 579.695 1.56472 3.61815 0
M  V30 6191 H 580.983 1.58203 4.8358 0
M  V30 6192 H 580.381 -1.54063 5.44317 0
M  V30 6193 H 578.938 -1.40222 6.36538 0
M  V30 6194 N 582.371 -1.3172 0.865308 0
M  V30 6195 C 583.648 -1.91574 0.394789 0
M  V30 6196 C 584.028 -1.78769 -1.12271 0
M  V30 6197 O 583.376 -1.19245 -1.94918 0
M  V30 6198 C 583.586 -3.37957 0.870982 0
M  V30 6199 C 584.934 -4.15073 0.894384 0
M  V30 6200 O 585.958 -3.4672 0.816325 0
M  V30 6201 O 584.817 -5.37151 1.00651 0
M  V30 6202 H 581.911 -0.818649 0.117229 0
M  V30 6203 H 584.457 -1.4042 0.952913 0
M  V30 6204 H 583.229 -3.41269 1.91444 0
M  V30 6205 H 582.852 -3.96534 0.290907 0
M  V30 6206 N 583.85 -0.624285 -1.44708 0
M  V30 6207 C 585.266 -0.289322 -1.56956 0
M  V30 6208 C 585.466 1.20773 -1.61295 0
M  V30 6209 O 584.522 1.9915 -1.55227 0
M  V30 6210 C 585.835 -0.975215 -2.84447 0
M  V30 6211 C 587.383 -0.952709 -2.98148 0
M  V30 6212 C 587.858 -1.61893 -4.28433 0
M  V30 6213 N 589.349 -1.5852 -4.35231 0
M  V30 6214 C 590.084 -2.06969 -5.34744 0
M  V30 6215 N 589.58 -2.63579 -6.40701 0
M  V30 6216 N 591.373 -1.97638 -5.26209 0
M  V30 6217 H 583.524 -1.59612 -1.40135 0
M  V30 6218 H 585.787 -0.669592 -0.671081 0
M  V30 6219 H 585.493 -2.02999 -2.87201 0
M  V30 6220 H 585.367 -0.508749 -3.73753 0
M  V30 6221 H 587.754 0.093568 -2.94952 0
M  V30 6222 H 587.835 -1.4576 -2.10209 0
M  V30 6223 H 587.479 -2.66463 -4.32389 0
M  V30 6224 H 587.409 -1.08893 -5.15218 0
M  V30 6225 H 589.899 -1.17183 -3.59272 0
M  V30 6226 H 590.213 -2.98298 -7.12908 0
M  V30 6227 H 588.558 -2.67626 -6.41406 0
M  V30 6228 H 591.749 -1.5314 -4.42341 0
M  V30 6229 H 591.922 -2.35708 -6.03611 0
M  V30 6230 N 585.328 1.53329 -0.364422 0
M  V30 6231 C 586.26 2.23286 0.517293 0
M  V30 6232 C 587.273 1.24657 1.04711 0
M  V30 6233 O 588.462 1.50887 0.95369 0
M  V30 6234 C 585.562 2.91604 1.72685 0
M  V30 6235 C 584.735 4.1673 1.32873 0
M  V30 6236 C 583.794 4.68269 2.40022 0
M  V30 6237 O 582.82 5.31976 2.02461 0
M  V30 6238 N 584.022 4.45983 3.7159 0
M  V30 6239 H 586.787 2.99588 -0.0819391 0
M  V30 6240 H 584.348 1.60787 -0.189544 0
M  V30 6241 H 586.34 3.22992 2.4384 0
M  V30 6242 H 584.91 2.18763 2.23297 0
M  V30 6243 H 584.13 3.91657 0.447069 0
M  V30 6244 H 585.418 4.98078 1.03902 0
M  V30 6245 H 584.816 3.95077 4.04883 0
M  V30 6246 H 583.373 4.81924 4.38854 0
M  V30 6247 N 586.806 0.0935595 1.57322 0
M  V30 6248 C 587.736 -0.863062 2.16964 0
M  V30 6249 C 588.717 -1.29528 1.10256 0
M  V30 6250 O 589.902 -1.36245 1.38387 0
M  V30 6251 C 587.032 -2.12276 2.74875 0
M  V30 6252 C 585.986 -1.82921 3.86942 0
M  V30 6253 C 585.312 -3.15707 4.31548 0
M  V30 6254 C 586.612 -1.11737 5.10208 0
M  V30 6255 H 588.306 -0.366145 2.97153 0
M  V30 6256 H 585.852 -0.174673 1.42937 0
M  V30 6257 H 587.805 -2.79634 3.1525 0
M  V30 6258 H 586.529 -2.64248 1.91938 0
M  V30 6259 H 585.188 -1.17961 3.47103 0
M  V30 6260 H 584.836 -3.65563 3.45504 0
M  V30 6261 H 584.536 -2.96849 5.07104 0
M  V30 6262 H 586.06 -3.84226 4.74555 0
M  V30 6263 H 587.474 -1.69203 5.47762 0
M  V30 6264 H 585.871 -1.03064 5.91183 0
M  V30 6265 H 586.941 -0.0998818 4.84797 0
M  V30 6266 N 588.284 -1.56567 -0.180126 0
M  V30 6267 C 589.194 -1.98947 -1.24327 0
M  V30 6268 C 590.21 -0.899446 -1.4895 0
M  V30 6269 O 591.386 -1.20639 -1.61271 0
M  V30 6270 C 588.451 -2.33328 -2.56435 0
M  V30 6271 C 587.512 -3.56114 -2.39752 0
M  V30 6272 C 586.745 -3.88845 -3.65561 0
M  V30 6273 O 586.968 -3.22662 -4.70368 0
M  V30 6274 O 585.902 -4.82226 -3.60197 0
M  V30 6275 H 589.728 -2.89634 -0.913565 0
M  V30 6276 H 587.313 -1.44319 -0.386306 0
M  V30 6277 H 589.195 -2.5645 -3.34382 0
M  V30 6278 H 587.87 -1.45806 -2.89002 0
M  V30 6279 H 586.777 -3.38221 -1.59866 0
M  V30 6280 H 588.11 -4.4415 -2.12113 0
M  V30 6281 N 589.762 0.448376 -1.51087 0
M  V30 6282 C 591.01 1.19635 -1.62886 0
M  V30 6283 C 591.331 1.91977 -0.342024 0
M  V30 6284 O 590.601 1.85094 0.641636 0
M  V30 6285 H 589.181 0.444598 -0.600285 0
M  V30 6286 H 591.843 0.515138 -1.87969 0
M  V30 6287 H 590.939 1.93194 -2.45117 0
M  V30 6288 N 591.24 1.41047 0.703093 0
M  V30 6289 C 592.488 1.39723 1.4602 0
M  V30 6290 C 592.809 0.00461257 1.94999 0
M  V30 6291 O 592.079 -0.952292 1.71196 0
M  V30 6292 H 590.659 0.514281 0.541779 0
M  V30 6293 H 593.321 1.76217 0.832678 0
M  V30 6294 H 592.417 2.07982 2.32701 0
M  V30 6295 N 592.718 -0.936591 1.26751 0
M  V30 6296 C 593.681 -2.01752 1.08761 0
M  V30 6297 C 594.681 -1.60763 0.0344435 0
M  V30 6298 O 595.871 -1.71963 0.278258 0
M  V30 6299 C 593.003 -3.34543 0.655271 0
M  V30 6300 H 594.196 -2.19143 2.04735 0
M  V30 6301 H 591.749 -1.11618 1.09413 0
M  V30 6302 H 592.484 -3.22851 -0.30626 0
M  V30 6303 H 592.269 -3.65647 1.41578 0
M  V30 6304 H 593.759 -4.13944 0.551378 0
M  V30 6305 N 594.196 -1.08629 -1.14182 0
M  V30 6306 C 595.612 -0.814363 -1.3726 0
M  V30 6307 C 595.812 0.575271 -1.93114 0
M  V30 6308 O 594.868 1.33165 -2.1453 0
M  V30 6309 C 596.181 -1.8989 -2.33157 0
M  V30 6310 C 597.729 -1.92518 -2.46791 0
M  V30 6311 C 598.204 -3.00092 -3.45989 0
M  V30 6312 N 599.695 -2.99279 -3.53534 0
M  V30 6313 C 600.43 -3.79158 -4.30147 0
M  V30 6314 N 599.926 -4.68923 -5.09983 0
M  V30 6315 N 601.719 -3.67451 -4.25366 0
M  V30 6316 H 593.87 -1.98232 -0.762758 0
M  V30 6317 H 596.133 -0.860383 -0.398051 0
M  V30 6318 H 595.839 -2.89809 -1.99257 0
M  V30 6319 H 595.713 -1.77013 -3.33086 0
M  V30 6320 H 598.1 -0.932425 -2.79982 0
M  V30 6321 H 598.181 -2.09473 -1.46816 0
M  V30 6322 H 597.825 -3.99575 -3.13532 0
M  V30 6323 H 597.755 -2.80382 -4.45751 0
M  V30 6324 H 600.246 -2.3422 -2.96563 0
M  V30 6325 H 600.559 -5.26475 -5.65724 0
M  V30 6326 H 598.904 -4.72964 -5.09244 0
M  V30 6327 H 602.095 -2.9669 -3.62067 0
M  V30 6328 H 602.268 -4.29944 -4.84822 0
M  V30 6329 N 595.674 1.31259 -0.872281 0
M  V30 6330 C 597.085 1.78822 -0.536617 0
M  V30 6331 C 597.436 1.71855 0.946594 0
M  V30 6332 O 596.561 1.28769 1.73918 0
M  V30 6333 C 597.156 3.24698 -0.967294 0
M  V30 6334 C 595.715 3.70147 -0.683251 0
M  V30 6335 C 594.862 2.51994 -1.15733 0
M  V30 6336 H 597.813 1.18308 -1.05777 0
M  V30 6337 H 597.834 3.79386 -0.290929 0
M  V30 6338 H 597.346 3.29737 -2.04683 0
M  V30 6339 H 595.447 3.70607 0.384825 0
M  V30 6340 H 595.56 4.62183 -1.2619 0
M  V30 6341 H 593.924 2.48078 -0.577024 0
M  V30 6342 H 594.707 2.59778 -2.24434 0
M  V30 6343 N 597.152 0.631951 1.44375 0
M  V30 6344 C 598.082 -0.0593243 2.33425 0
M  V30 6345 C 599.063 -0.833964 1.48253 0
M  V30 6346 O 600.248 -0.799682 1.76971 0
M  V30 6347 C 597.378 -1.04096 3.31333 0
M  V30 6348 C 596.332 -0.377899 4.26328 0
M  V30 6349 C 595.658 -1.4695 5.14111 0
M  V30 6350 C 596.958 0.716371 5.17364 0
M  V30 6351 H 598.652 0.684287 2.91475 0
M  V30 6352 H 596.198 0.330518 1.40156 0
M  V30 6353 H 598.151 -1.53331 3.92514 0
M  V30 6354 H 596.875 -1.81547 2.71493 0
M  V30 6355 H 595.534 0.0938054 3.6648 0
M  V30 6356 H 595.182 -2.2349 4.50623 0
M  V30 6357 H 594.882 -1.03121 5.78481 0
M  V30 6358 H 596.406 -1.96363 5.78164 0
M  V30 6359 H 597.82 0.307089 5.72477 0
M  V30 6360 H 596.217 1.07784 5.90341 0
M  V30 6361 H 597.287 1.58316 4.58327 0
M  V30 6362 N 598.631 -1.53133 0.372548 0
M  V30 6363 C 599.859 -2.05774 -0.215515 0
M  V30 6364 C 600.274 -1.24555 -1.41886 0
M  V30 6365 O 599.631 -0.287951 -1.80214 0
M  V30 6366 C 599.682 -3.5645 -0.602161 0
M  V30 6367 O 599.403 -4.34591 0.553359 0
M  V30 6368 C 600.904 -4.25374 -1.24787 0
M  V30 6369 H 598.124 -0.670009 -0.0364529 0
M  V30 6370 H 600.668 -1.97434 0.532934 0
M  V30 6371 H 598.823 -3.64918 -1.30052 0
M  V30 6372 H 599.237 -5.23954 0.239336 0
M  V30 6373 H 600.711 -5.32097 -1.46891 0
M  V30 6374 H 601.188 -3.79531 -2.21026 0
M  V30 6375 H 601.794 -4.21177 -0.590752 0
M  V30 6376 N 600.109 -0.101901 -1.5727 0
M  V30 6377 C 601.019 0.868647 -2.17926 0
M  V30 6378 C 602.035 1.30527 -1.1506 0
M  V30 6379 O 603.211 1.37178 -1.47459 0
M  V30 6380 C 600.276 2.10727 -2.75309 0
M  V30 6381 C 599.337 1.7242 -3.93154 0
M  V30 6382 C 598.57 2.90377 -4.47791 0
M  V30 6383 O 598.793 4.05305 -4.01353 0
M  V30 6384 O 597.727 2.6845 -5.38719 0
M  V30 6385 H 601.553 0.382544 -3.01281 0
M  V30 6386 H 599.138 0.122812 -1.48894 0
M  V30 6387 H 601.02 2.83303 -3.11958 0
M  V30 6388 H 599.695 2.58376 -1.94996 0
M  V30 6389 H 598.602 0.970039 -3.61305 0
M  V30 6390 H 599.935 1.29528 -4.74851 0
M  V30 6391 N 601.587 1.56661 0.17182 0
M  V30 6392 C 602.517 1.99401 1.21498 0
M  V30 6393 C 603.498 0.869516 1.46197 0
M  V30 6394 O 604.683 1.13556 1.57539 0
M  V30 6395 C 601.813 2.35346 2.55401 0
M  V30 6396 C 600.767 3.5075 2.45272 0
M  V30 6397 C 600.093 3.72437 3.8366 0
M  V30 6398 C 601.393 4.84216 1.95787 0
M  V30 6399 H 603.087 2.86792 0.859699 0
M  V30 6400 H 600.633 1.37977 0.412103 0
M  V30 6401 H 602.586 2.63843 3.2858 0
M  V30 6402 H 601.31 1.44864 2.92715 0
M  V30 6403 H 599.969 3.2238 1.74547 0
M  V30 6404 H 599.617 2.79246 4.18367 0
M  V30 6405 H 599.317 4.50087 3.77751 0
M  V30 6406 H 600.841 4.03334 4.58426 0
M  V30 6407 H 602.255 5.11592 2.5874 0
M  V30 6408 H 600.652 5.65498 2.00827 0
M  V30 6409 H 601.722 4.76243 0.912159 0
M  V30 6410 N 603.065 -0.440357 1.51323 0
M  V30 6411 C 604.313 -1.18769 1.63518 0
M  V30 6412 C 604.634 -1.91793 0.352201 0
M  V30 6413 O 603.904 -1.85432 -0.631811 0
M  V30 6414 H 602.484 -0.441408 0.602634 0
M  V30 6415 H 605.146 -0.505162 1.8824 0
M  V30 6416 H 604.242 -1.91892 2.46138 0
M  V30 6417 N 604.543 -1.41418 -0.695603 0
M  V30 6418 C 605.473 -1.46035 -1.82197 0
M  V30 6419 C 606.454 -0.319025 -1.67082 0
M  V30 6420 O 607.639 -0.530462 -1.86815 0
M  V30 6421 C 604.769 -1.34179 -3.20333 0
M  V30 6422 C 603.723 -2.46123 -3.50154 0
M  V30 6423 C 603.049 -2.19332 -4.87645 0
M  V30 6424 C 604.349 -3.88463 -3.49133 0
M  V30 6425 H 606.043 -2.40303 -1.78591 0
M  V30 6426 H 603.589 -1.15663 -0.857797 0
M  V30 6427 H 605.542 -1.36021 -3.98844 0
M  V30 6428 H 604.266 -0.363952 -3.24566 0
M  V30 6429 H 602.925 -2.43563 -2.73994 0
M  V30 6430 H 602.573 -1.19891 -4.88503 0
M  V30 6431 H 602.273 -2.94344 -5.08562 0
M  V30 6432 H 603.797 -2.22889 -5.68465 0
M  V30 6433 H 605.211 -3.92738 -4.17648 0
M  V30 6434 H 603.608 -4.63158 -3.81582 0
M  V30 6435 H 604.678 -4.16617 -2.48109 0
M  V30 6436 N 606.021 0.929856 -1.27246 0
M  V30 6437 C 607.432 1.49223 -1.12203 0
M  V30 6438 C 607.783 1.93989 0.293731 0
M  V30 6439 O 606.908 1.80978 1.18642 0
M  V30 6440 C 607.503 2.71198 -2.0307 0
M  V30 6441 C 606.062 3.23666 -1.92139 0
M  V30 6442 C 605.209 1.96409 -1.95752 0
M  V30 6443 H 608.16 0.744181 -1.4017 0
M  V30 6444 H 608.181 3.45905 -1.58524 0
M  V30 6445 H 607.693 2.38585 -3.06102 0
M  V30 6446 H 605.794 3.61042 -0.920834 0
M  V30 6447 H 605.907 3.90006 -2.78267 0
M  V30 6448 H 604.271 2.12806 -1.39949 0
M  V30 6449 H 605.054 1.66113 -3.00436 0
M  V30 6450 N 607.499 1.09233 1.13605 0
M  V30 6451 C 608.91 0.846839 1.6639 0
M  V30 6452 C 609.261 -0.625031 1.85978 0
M  V30 6453 O 608.386 -1.48173 1.57714 0
M  V30 6454 C 608.981 1.5307 3.0225 0
M  V30 6455 C 607.54 1.33223 3.52035 0
M  V30 6456 C 606.687 1.58806 2.27323 0
M  V30 6457 H 609.638 1.25175 0.975541 0
M  V30 6458 H 609.659 0.96267 3.68121 0
M  V30 6459 H 609.171 2.60192 2.87961 0
M  V30 6460 H 607.272 0.282091 3.71531 0
M  V30 6461 H 607.385 2.0657 4.32279 0
M  V30 6462 H 605.749 1.01007 2.33815 0
M  V30 6463 H 606.532 2.67153 2.15602 0
M  V30 6464 N 608.977 -1.30795 0.87923 0
M  V30 6465 C 610.225 -1.95974 0.493809 0
M  V30 6466 C 610.546 -1.69787 -0.959021 0
M  V30 6467 O 609.816 -1.01832 -1.67353 0
M  V30 6468 H 608.396 -0.725083 0.179622 0
M  V30 6469 H 611.058 -1.59432 1.12105 0
M  V30 6470 H 610.154 -3.05058 0.659263 0
M  V30 6471 N 610.455 -0.639598 -1.44038 0
M  V30 6472 C 611.365 0.0612377 -2.3452 0
M  V30 6473 C 612.381 0.826717 -1.53106 0
M  V30 6474 O 613.557 0.777059 -1.85806 0
M  V30 6475 C 610.622 1.02492 -3.31204 0
M  V30 6476 C 609.683 0.25788 -4.28525 0
M  V30 6477 C 608.916 1.17566 -5.2059 0
M  V30 6478 O 609.139 2.41461 -5.16771 0
M  V30 6479 O 608.073 0.655407 -5.98321 0
M  V30 6480 H 611.899 -0.68318 -2.95916 0
M  V30 6481 H 609.484 -0.399784 -1.43952 0
M  V30 6482 H 611.366 1.57911 -3.90694 0
M  V30 6483 H 610.041 1.7498 -2.7233 0
M  V30 6484 H 608.948 -0.339566 -3.72556 0
M  V30 6485 H 610.281 -0.427154 -4.90343 0
M  V30 6486 N 611.933 1.52934 -0.380664 0
M  V30 6487 C 612.843 2.29921 0.466192 0
M  V30 6488 C 613.859 1.36488 1.07922 0
M  V30 6489 O 615.035 1.69553 1.0869 0
M  V30 6490 C 612.1 3.08468 1.58266 0
M  V30 6491 C 611.161 4.17595 0.995627 0
M  V30 6492 C 610.394 4.92387 2.05889 0
M  V30 6493 O 610.617 4.67184 3.27254 0
M  V30 6494 O 609.551 5.77949 1.68102 0
M  V30 6495 H 613.377 3.03274 -0.160735 0
M  V30 6496 H 610.962 1.48698 -0.144617 0
M  V30 6497 H 612.844 3.57469 2.23145 0
M  V30 6498 H 611.519 2.37937 2.19471 0
M  V30 6499 H 610.426 3.72811 0.310332 0
M  V30 6500 H 611.759 4.90336 0.427918 0
M  V30 6501 N 613.412 0.11024 1.57214 0
M  V30 6502 C 614.658 -0.550684 1.9518 0
M  V30 6503 C 614.991 -1.66885 0.993122 0
M  V30 6504 O 614.266 -1.94479 0.0287907 0
M  V30 6505 C 614.549 -1.09163 3.43155 0
M  V30 6506 C 614.402 0.0225198 4.49794 0
M  V30 6507 C 615.721 -1.98527 3.92778 0
M  V30 6508 H 612.84 -0.198706 0.709708 0
M  V30 6509 H 615.482 0.184024 1.89107 0
M  V30 6510 H 613.632 -1.71775 3.48462 0
M  V30 6511 H 615.304 0.657443 4.56591 0
M  V30 6512 H 613.547 0.686868 4.28328 0
M  V30 6513 H 614.218 -0.39706 5.5057 0
M  V30 6514 H 616.694 -1.458 3.8972 0
M  V30 6515 H 615.57 -2.33298 4.96853 0
M  V30 6516 H 615.831 -2.90846 3.32958 0
M  V30 6517 N 614.89 -1.56749 -0.16351 0
M  V30 6518 C 616.167 -1.73321 -0.906599 0
M  V30 6519 C 616.547 -0.673779 -2.00059 0
M  V30 6520 O 615.895 0.310121 -2.26386 0
M  V30 6521 C 616.105 -3.168 -1.46419 0
M  V30 6522 C 617.453 -3.77993 -1.93407 0
M  V30 6523 O 618.477 -3.20127 -1.56196 0
M  V30 6524 O 617.336 -4.79615 -2.61976 0
M  V30 6525 H 614.43 -0.708073 -0.427272 0
M  V30 6526 H 616.976 -1.69029 -0.150727 0
M  V30 6527 H 615.748 -3.85396 -0.677189 0
M  V30 6528 H 615.371 -3.2545 -2.28403 0
M  V30 6529 N 616.368 0.432326 -1.51554 0
M  V30 6530 C 617.331 1.50765 -1.72634 0
M  V30 6531 C 618.331 1.49334 -0.596314 0
M  V30 6532 O 619.521 1.51268 -0.863925 0
M  V30 6533 C 616.653 2.90284 -1.7874 0
M  V30 6534 H 617.846 1.33377 -2.68609 0
M  V30 6535 H 615.399 0.661329 -1.4162 0
M  V30 6536 H 616.134 3.13071 -0.845977 0
M  V30 6537 H 615.919 2.92727 -2.6087 0
M  V30 6538 H 617.409 3.68282 -1.96871 0
M  V30 6539 N 617.846 1.41785 0.688094 0
M  V30 6540 C 619.092 1.41753 1.4503 0
M  V30 6541 C 619.425 0.0290745 1.94178 0
M  V30 6542 O 618.7 -0.944456 1.7003 0
M  V30 6543 C 618.983 2.43069 2.65686 0
M  V30 6544 C 618.836 3.91053 2.22256 0
M  V30 6545 C 620.155 2.41543 3.67893 0
M  V30 6546 H 617.274 0.516202 0.526027 0
M  V30 6547 H 619.916 1.73111 0.783105 0
M  V30 6548 H 618.066 2.1646 3.2261 0
M  V30 6549 H 619.738 4.28594 1.70602 0
M  V30 6550 H 617.981 4.05559 1.53963 0
M  V30 6551 H 618.652 4.57501 3.08863 0
M  V30 6552 H 621.128 2.65175 3.20658 0
M  V30 6553 H 620.004 3.14434 4.49914 0
M  V30 6554 H 620.265 1.43666 4.18106 0
M  V30 6555 N 619.324 -0.923095 1.27737 0
M  V30 6556 C 620.571 -1.67127 1.14345 0
M  V30 6557 C 620.899 -1.92017 -0.30982 0
M  V30 6558 O 620.154 -1.51185 -1.24264 0
M  V30 6559 C 620.453 -3.04125 1.8773 0
M  V30 6560 C 620.119 -2.98929 3.37568 0
M  V30 6561 C 618.781 -2.9722 3.78436 0
M  V30 6562 C 621.133 -2.89875 4.33154 0
M  V30 6563 C 618.461 -2.84244 5.13247 0
M  V30 6564 C 620.813 -2.7844 5.68026 0
M  V30 6565 C 619.477 -2.75083 6.08182 0
M  V30 6566 H 618.747 -0.611562 0.418417 0
M  V30 6567 H 621.394 -1.07618 1.584 0
M  V30 6568 H 619.699 -3.67366 1.36196 0
M  V30 6569 H 621.396 -3.609 1.74792 0
M  V30 6570 H 617.986 -3.0105 3.05069 0
M  V30 6571 H 622.17 -2.9029 4.02548 0
M  V30 6572 H 617.426 -2.80034 5.43499 0
M  V30 6573 H 621.6 -2.70401 6.4176 0
M  V30 6574 H 619.227 -2.64786 7.12596 0
M  V30 6575 N 620.802 -1.09834 -1.13024 0
M  V30 6576 C 622.027 -0.85909 -1.88771 0
M  V30 6577 C 622.452 0.584402 -1.78791 0
M  V30 6578 O 621.81 1.41101 -1.13842 0
M  V30 6579 C 621.858 -1.30427 -3.36186 0
M  V30 6580 O 620.962 -0.465368 -4.09766 0
M  V30 6581 H 620.303 -0.310786 -0.586778 0
M  V30 6582 H 622.833 -1.46355 -1.42973 0
M  V30 6583 H 622.843 -1.2915 -3.8702 0
M  V30 6584 H 621.518 -2.3555 -3.42767 0
M  V30 6585 H 620.095 -0.542814 -3.68928 0
M  V30 6586 N 622.28 1.30327 -0.886154 0
M  V30 6587 C 623.526 1.96764 -0.515312 0
M  V30 6588 C 623.881 1.68675 0.925552 0
M  V30 6589 O 623.174 0.981693 1.6454 0
M  V30 6590 C 623.368 3.49906 -0.728042 0
M  V30 6591 C 623.197 3.92881 -2.18803 0
M  V30 6592 C 621.967 4.18424 -2.83284 0
M  V30 6593 C 624.165 4.05617 -3.16195 0
M  V30 6594 N 622.147 4.47867 -4.19867 0
M  V30 6595 C 623.518 4.38957 -4.37855 0
M  V30 6596 C 625.573 3.88047 -3.11968 0
M  V30 6597 C 624.276 4.56559 -5.55829 0
M  V30 6598 C 626.302 4.06851 -4.29215 0
M  V30 6599 C 625.664 4.40538 -5.49641 0
M  V30 6600 H 621.763 0.74493 -0.237916 0
M  V30 6601 H 624.347 1.57536 -1.14414 0
M  V30 6602 H 622.518 3.88187 -0.128696 0
M  V30 6603 H 624.25 4.03401 -0.323983 0
M  V30 6604 H 621.005 4.1167 -2.34146 0
M  V30 6605 H 621.429 4.66721 -4.90408 0
M  V30 6606 H 626.071 3.61078 -2.19961 0
M  V30 6607 H 623.789 4.8237 -6.4834 0
M  V30 6608 H 627.375 3.94724 -4.27416 0
M  V30 6609 H 626.255 4.54789 -6.38856 0
M  V30 6610 N 623.758 0.647228 1.43697 0
M  V30 6611 C 625.169 0.238689 1.85168 0
M  V30 6612 C 625.52 -1.21345 1.54175 0
M  V30 6613 O 624.645 -1.92542 0.987743 0
M  V30 6614 C 625.24 0.426422 3.36106 0
M  V30 6615 C 623.799 0.0722541 3.76331 0
M  V30 6616 C 622.946 0.732153 2.6746 0
M  V30 6617 H 625.897 0.851309 1.33934 0
M  V30 6618 H 625.918 -0.32987 3.79067 0
M  V30 6619 H 625.43 1.48339 3.58632 0
M  V30 6620 H 623.531 -0.982355 3.59417 0
M  V30 6621 H 623.644 0.493541 4.76551 0
M  V30 6622 H 622.008 0.16594 2.54159 0
M  V30 6623 H 622.791 1.79204 2.92816 0
M  V30 6624 N 625.236 -1.5273 0.388769 0
M  V30 6625 C 626.168 -2.24081 -0.481704 0
M  V30 6626 C 627.181 -1.26307 -1.02715 0
M  V30 6627 O 628.37 -1.52386 -0.929565 0
M  V30 6628 C 625.47 -2.94315 -1.68024 0
M  V30 6629 C 624.643 -4.18791 -1.26226 0
M  V30 6630 C 623.702 -4.72028 -2.32542 0
M  V30 6631 O 622.728 -5.35129 -1.93972 0
M  V30 6632 N 623.93 -4.51838 -3.64448 0
M  V30 6633 H 626.695 -2.9942 0.129591 0
M  V30 6634 H 624.256 -1.60465 0.2151 0
M  V30 6635 H 626.248 -3.26831 -2.38671 0
M  V30 6636 H 624.818 -2.22287 -2.19789 0
M  V30 6637 H 624.038 -3.92318 -0.384703 0
M  V30 6638 H 625.326 -4.99668 -0.959647 0
M  V30 6639 H 624.724 -4.01468 -3.98547 0
M  V30 6640 H 623.281 -4.88845 -4.31131 0
M  V30 6641 N 626.714 -0.118576 -1.57153 0
M  V30 6642 C 627.662 0.849114 -2.16547 0
M  V30 6643 C 628.656 1.27567 -1.11458 0
M  V30 6644 O 629.862 1.24746 -1.29763 0
M  V30 6645 H 626.237 0.291935 -0.693021 0
M  V30 6646 H 628.208 0.323693 -2.96639 0
M  V30 6647 C 626.957 2.08951 -2.77912 0
M  V30 6648 H 626.28 1.77021 -3.58474 0
M  V30 6649 H 627.72 2.74666 -3.23008 0
M  V30 6650 C 626.179 2.87899 -1.74974 0
M  V30 6651 O 626.709 3.83268 -1.20285 0
M  V30 6652 N 624.915 2.51884 -1.44924 0
M  V30 6653 H 624.462 1.74397 -1.89587 0
M  V30 6654 H 624.42 3.05003 -0.762921 0
M  V30 6655 N 628.193 1.56834 0.155195 0
M  V30 6656 C 629.441 1.82536 0.867462 0
M  V30 6657 C 629.762 0.698168 1.82073 0
M  V30 6658 O 629.032 -0.280807 1.93877 0
M  V30 6659 H 627.612 0.673401 0.323327 0
M  V30 6660 H 630.274 1.94313 0.151156 0
M  V30 6661 H 629.37 2.77171 1.43466 0
M  V30 6662 N 629.671 -0.424282 1.51781 0
M  V30 6663 C 630.618 -1.51591 1.74037 0
M  V30 6664 C 631.588 -1.55556 0.582358 0
M  V30 6665 O 632.773 -1.72364 0.818245 0
M  V30 6666 C 629.913 -2.89188 1.8832 0
M  V30 6667 C 629.026 -2.9465 3.1592 0
M  V30 6668 C 628.161 -4.23452 3.20721 0
M  V30 6669 C 627.2 -4.22831 4.42584 0
M  V30 6670 N 626.337 -5.43178 4.44862 0
M  V30 6671 H 631.177 -1.31917 2.67212 0
M  V30 6672 H 628.714 -0.640599 1.32419 0
M  V30 6673 H 630.672 -3.69044 1.94583 0
M  V30 6674 H 629.302 -3.07392 0.985402 0
M  V30 6675 H 628.354 -2.07378 3.18902 0
M  V30 6676 H 629.666 -2.90055 4.05795 0
M  V30 6677 H 628.82 -5.1169 3.25973 0
M  V30 6678 H 627.559 -4.30722 2.28757 0
M  V30 6679 H 626.564 -3.32984 4.37495 0
M  V30 6680 H 627.789 -4.17213 5.35826 0
M  V30 6681 H 625.735 -5.51145 3.55775 0
M  V30 6682 H 625.652 -5.40515 5.28563 0
M  V30 6683 H 626.92 -6.33412 4.54324 0
M  V30 6684 N 631.149 -1.42148 -0.680565 0
M  V30 6685 C 632.377 -1.45696 -1.46902 0
M  V30 6686 C 632.792 -0.0665858 -1.88683 0
M  V30 6687 O 632.149 0.917436 -1.57764 0
M  V30 6688 C 632.2 -2.37898 -2.72188 0
M  V30 6689 O 631.921 -3.71526 -2.32163 0
M  V30 6690 C 633.422 -2.50407 -3.65802 0
M  V30 6691 H 630.642 -0.495729 -0.45221 0
M  V30 6692 H 633.186 -1.866 -0.836709 0
M  V30 6693 H 631.341 -2.00263 -3.31622 0
M  V30 6694 H 631.755 -4.20849 -3.13027 0
M  V30 6695 H 633.229 -3.19056 -4.50452 0
M  V30 6696 H 633.706 -1.5401 -4.11312 0
M  V30 6697 H 634.312 -2.8874 -3.12265 0
M  V30 6698 N 632.627 0.916307 -1.28225 0
M  V30 6699 C 633.857 1.69654 -1.17902 0
M  V30 6700 C 634.265 1.87331 0.265268 0
M  V30 6701 O 633.608 1.39828 1.19137 0
M  V30 6702 C 633.67 3.11024 -1.80289 0
M  V30 6703 C 633.334 3.16643 -3.29525 0
M  V30 6704 C 634.331 2.98032 -4.25997 0
M  V30 6705 C 632.016 3.39238 -3.70436 0
M  V30 6706 C 634.01 3.01924 -5.61356 0
M  V30 6707 C 631.697 3.42762 -5.05922 0
M  V30 6708 C 632.695 3.24125 -6.01192 0
M  V30 6709 O 632.383 3.27406 -7.34208 0
M  V30 6710 H 632.115 0.537197 -0.41036 0
M  V30 6711 H 634.669 1.15547 -1.69817 0
M  V30 6712 H 632.899 3.66662 -1.22865 0
M  V30 6713 H 634.588 3.71063 -1.6452 0
M  V30 6714 H 635.354 2.80405 -3.95725 0
M  V30 6715 H 631.233 3.52791 -2.96749 0
M  V30 6716 H 634.777 2.87295 -6.35694 0
M  V30 6717 H 630.674 3.59916 -5.35846 0
M  V30 6718 H 631.442 3.43784 -7.42802 0
M  V30 6719 N 634.105 1.10431 1.1244 0
M  V30 6720 C 635.035 0.775143 2.20258 0
M  V30 6721 C 636.016 -0.25186 1.68225 0
M  V30 6722 O 637.201 -0.117637 1.93843 0
M  V30 6723 C 634.331 0.206133 3.46688 0
M  V30 6724 C 633.285 1.16382 4.11873 0
M  V30 6725 C 632.611 0.456014 5.32752 0
M  V30 6726 C 633.911 2.5104 4.58013 0
M  V30 6727 H 635.605 1.67665 2.4805 0
M  V30 6728 H 633.151 0.807595 1.19222 0
M  V30 6729 H 635.104 -0.036291 4.21384 0
M  V30 6730 H 633.828 -0.730614 3.18323 0
M  V30 6731 H 632.487 1.39169 3.39157 0
M  V30 6732 H 632.135 -0.485203 5.00654 0
M  V30 6733 H 631.835 1.09466 5.77314 0
M  V30 6734 H 633.359 0.222135 6.10196 0
M  V30 6735 H 634.773 2.32401 5.24083 0
M  V30 6736 H 633.17 3.10789 5.13352 0
M  V30 6737 H 634.24 3.11039 3.71998 0
M  V30 6738 N 635.583 -1.29855 0.893053 0
M  V30 6739 C 636.829 -1.96116 0.516349 0
M  V30 6740 C 637.162 -1.70281 -0.933695 0
M  V30 6741 O 636.437 -1.01205 -1.66096 0
M  V30 6742 C 636.72 -3.51068 0.801455 0
M  V30 6743 C 636.573 -3.86387 2.30272 0
M  V30 6744 C 637.892 -4.39186 0.283423 0
M  V30 6745 H 635.011 -0.712335 0.189072 0
M  V30 6746 H 637.653 -1.53587 1.11852 0
M  V30 6747 H 635.803 -3.87424 0.288949 0
M  V30 6748 H 637.475 -3.60012 2.88425 0
M  V30 6749 H 635.718 -3.34167 2.76613 0
M  V30 6750 H 636.389 -4.94512 2.45279 0
M  V30 6751 H 638.865 -4.09785 0.722187 0
M  V30 6752 H 637.741 -5.46505 0.512169 0
M  V30 6753 H 638.002 -4.34511 -0.815643 0
M  V30 6754 N 637.061 -0.65484 -1.43351 0
M  V30 6755 C 638.477 -0.32255 -1.56307 0
M  V30 6756 C 638.677 1.17324 -1.63821 0
M  V30 6757 O 637.733 1.95813 -1.59417 0
M  V30 6758 C 639.046 -1.03533 -2.82314 0
M  V30 6759 C 640.594 -1.01574 -2.9606 0
M  V30 6760 C 641.069 -1.70945 -4.24902 0
M  V30 6761 N 642.56 -1.67716 -4.3177 0
M  V30 6762 C 643.295 -2.18265 -5.30234 0
M  V30 6763 N 642.791 -2.7711 -6.34966 0
M  V30 6764 N 644.584 -2.08756 -5.21898 0
M  V30 6765 H 636.735 -1.62549 -1.36717 0
M  V30 6766 H 638.998 -0.683676 -0.656727 0
M  V30 6767 H 638.704 -2.09045 -2.8283 0
M  V30 6768 H 638.578 -0.587913 -3.7259 0
M  V30 6769 H 640.965 0.0309834 -2.95084 0
M  V30 6770 H 641.046 -1.50186 -2.07069 0
M  V30 6771 H 640.69 -2.75574 -4.26639 0
M  V30 6772 H 640.62 -1.19797 -5.12793 0
M  V30 6773 H 643.111 -1.24777 -3.56706 0
M  V30 6774 H 643.424 -3.13353 -7.06421 0
M  V30 6775 H 641.769 -2.81171 -6.35585 0
M  V30 6776 H 644.96 -1.62488 -4.38994 0
M  V30 6777 H 645.133 -2.48459 -5.98475 0
M  V30 6778 N 638.539 1.52521 -0.396863 0
M  V30 6779 C 639.787 2.01274 0.182536 0
M  V30 6780 C 640.108 1.28485 1.46685 0
M  V30 6781 O 639.378 0.407134 1.91623 0
M  V30 6782 H 637.958 0.743671 0.0704442 0
M  V30 6783 H 640.62 1.87547 -0.530289 0
M  V30 6784 H 639.716 3.09687 0.387385 0
M  V30 6785 N 640.017 0.126909 1.57088 0
M  V30 6786 C 641.433 -0.229641 1.57939 0
M  V30 6787 C 641.633 -1.66145 1.1401 0
M  V30 6788 O 640.689 -2.3843 0.831119 0
M  V30 6789 C 642.002 0.0108648 3.00698 0
M  V30 6790 C 643.55 -0.054418 3.12953 0
M  V30 6791 C 644.025 0.158497 4.57726 0
M  V30 6792 N 645.516 0.104735 4.63082 0
M  V30 6793 C 646.251 0.24427 5.72879 0
M  V30 6794 N 645.747 0.440415 6.91399 0
M  V30 6795 N 647.54 0.183286 5.61801 0
M  V30 6796 H 639.691 1.06203 1.83942 0
M  V30 6797 H 641.954 0.418834 0.85046 0
M  V30 6798 H 641.66 1.00102 3.37154 0
M  V30 6799 H 641.534 -0.717512 3.70313 0
M  V30 6800 H 643.921 -1.0351 2.7635 0
M  V30 6801 H 644.002 0.705967 2.45865 0
M  V30 6802 H 643.646 1.13619 4.95028 0
M  V30 6803 H 643.576 -0.62197 5.22914 0
M  V30 6804 H 646.067 -0.0430298 3.77876 0
M  V30 6805 H 646.38 0.537536 7.70928 0
M  V30 6806 H 644.725 0.476488 6.93365 0
M  V30 6807 H 647.916 0.0309561 4.6809 0
M  V30 6808 H 648.089 0.295471 6.47326 0
M  V30 6809 N 641.495 -1.56914 -0.146875 0
M  V30 6810 C 642.427 -1.94878 -1.20645 0
M  V30 6811 C 643.44 -0.844633 -1.39175 0
M  V30 6812 O 644.629 -1.12304 -1.38744 0
M  V30 6813 C 641.729 -2.20769 -2.57127 0
M  V30 6814 C 640.902 -3.52053 -2.59572 0
M  V30 6815 C 639.961 -3.66482 -3.77594 0
M  V30 6816 O 638.987 -4.38873 -3.62462 0
M  V30 6817 N 640.189 -3.03156 -4.95052 0
M  V30 6818 H 642.954 -2.86374 -0.883757 0
M  V30 6819 H 640.515 -1.58366 -0.336436 0
M  V30 6820 H 642.507 -2.27664 -3.34591 0
M  V30 6821 H 641.077 -1.35538 -2.81688 0
M  V30 6822 H 640.297 -3.56598 -1.68023 0
M  V30 6823 H 641.585 -4.38396 -2.58238 0
M  V30 6824 H 640.983 -2.44258 -5.10249 0
M  V30 6825 H 639.54 -3.15611 -5.70292 0
M  V30 6826 N 642.974 0.416227 -1.52004 0
M  V30 6827 C 644.204 1.18401 -1.69307 0
M  V30 6828 C 644.612 1.84943 -0.399072 0
M  V30 6829 O 643.955 1.72406 0.634177 0
M  V30 6830 C 644.017 2.29465 -2.76742 0
M  V30 6831 C 643.681 1.83117 -4.18709 0
M  V30 6832 C 644.678 1.32286 -5.02789 0
M  V30 6833 C 642.363 1.90167 -4.64911 0
M  V30 6834 C 644.357 0.891178 -6.31139 0
M  V30 6835 C 642.044 1.4661 -5.93253 0
M  V30 6836 C 643.042 0.961696 -6.76196 0
M  V30 6837 O 642.73 0.532388 -8.02135 0
M  V30 6838 H 642.462 0.362098 -0.570843 0
M  V30 6839 H 645.016 0.496764 -1.99302 0
M  V30 6840 H 643.246 3.01531 -2.42107 0
M  V30 6841 H 644.935 2.91252 -2.82713 0
M  V30 6842 H 645.701 1.26218 -4.68288 0
M  V30 6843 H 641.58 2.28371 -4.00459 0
M  V30 6844 H 645.124 0.496788 -6.95829 0
M  V30 6845 H 641.021 1.52355 -6.27263 0
M  V30 6846 H 641.789 0.656339 -8.15864 0
M  V30 6847 N 644.452 1.42507 0.673017 0
M  V30 6848 C 645.698 1.44282 1.43367 0
M  V30 6849 C 646.053 0.0588239 1.9231 0
M  V30 6850 O 645.346 -0.919288 1.68106 0
M  V30 6851 C 645.54 2.40351 2.64511 0
M  V30 6852 C 645.369 3.87955 2.27423 0
M  V30 6853 C 644.139 4.56476 2.16697 0
M  V30 6854 C 646.337 4.7833 1.88957 0
M  V30 6855 N 644.319 5.89099 1.72731 0
M  V30 6856 C 645.69 6.00073 1.55923 0
M  V30 6857 C 647.745 4.65769 1.75965 0
M  V30 6858 C 646.448 7.10652 1.112 0
M  V30 6859 C 648.474 5.76332 1.32647 0
M  V30 6860 C 647.836 6.97188 1.00538 0
M  V30 6861 H 643.935 0.583134 0.521036 0
M  V30 6862 H 646.519 1.78547 0.776481 0
M  V30 6863 H 644.69 2.08145 3.27918 0
M  V30 6864 H 646.422 2.32694 3.31113 0
M  V30 6865 H 643.177 4.10712 2.35823 0
M  V30 6866 H 643.601 6.59446 1.53166 0
M  V30 6867 H 648.243 3.72808 1.99435 0
M  V30 6868 H 645.961 8.0346 0.864768 0
M  V30 6869 H 649.547 5.68625 1.23112 0
M  V30 6870 H 648.427 7.81287 0.675283 0
M  V30 6871 N 645.93 -0.909495 1.28709 0
M  V30 6872 C 647.346 -1.18862 1.06508 0
M  V30 6873 C 647.546 -2.00604 -0.189864 0
M  V30 6874 O 646.602 -2.36281 -0.890355 0
M  V30 6875 C 647.915 -1.91908 2.31499 0
M  V30 6876 C 649.463 -2.04773 2.36721 0
M  V30 6877 C 649.938 -2.81228 3.6149 0
M  V30 6878 N 651.429 -2.88787 3.62155 0
M  V30 6879 C 652.164 -3.48455 4.55375 0
M  V30 6880 N 651.66 -4.09369 5.58918 0
M  V30 6881 N 653.453 -3.46035 4.42963 0
M  V30 6882 H 645.604 -0.363867 2.0926 0
M  V30 6883 H 647.867 -0.223649 0.921241 0
M  V30 6884 H 647.573 -1.39275 3.22948 0
M  V30 6885 H 647.447 -2.92436 2.38245 0
M  V30 6886 H 649.834 -2.56585 1.45767 0
M  V30 6887 H 649.915 -1.03408 2.33967 0
M  V30 6888 H 649.559 -2.30094 4.5279 0
M  V30 6889 H 649.489 -3.82917 3.61499 0
M  V30 6890 H 651.98 -2.45514 2.87283 0
M  V30 6891 H 652.293 -4.52891 6.26187 0
M  V30 6892 H 650.638 -4.0786 5.62739 0
M  V30 6893 H 653.829 -2.9766 3.6127 0
M  V30 6894 H 654.002 -3.92244 5.15799 0
M  V30 6895 N 647.408 -1.11026 -1.11852 0
M  V30 6896 C 648.638 -0.877544 -1.87037 0
M  V30 6897 C 649.046 0.575925 -1.80221 0
M  V30 6898 O 648.389 1.40916 -1.17849 0
M  V30 6899 C 648.451 -1.25529 -3.36872 0
M  V30 6900 C 648.115 -2.71704 -3.67459 0
M  V30 6901 C 649.112 -3.69931 -3.65304 0
M  V30 6902 C 646.797 -3.08243 -3.966 0
M  V30 6903 C 648.791 -5.02717 -3.9186 0
M  V30 6904 C 646.478 -4.41215 -4.22815 0
M  V30 6905 C 647.476 -5.38262 -4.20432 0
M  V30 6906 O 647.164 -6.68839 -4.45992 0
M  V30 6907 H 646.896 -0.314374 -0.598452 0
M  V30 6908 H 649.45 -1.48015 -1.42411 0
M  V30 6909 H 647.68 -0.595808 -3.82082 0
M  V30 6910 H 649.369 -0.999064 -3.93413 0
M  V30 6911 H 650.135 -3.43047 -3.42846 0
M  V30 6912 H 646.014 -2.33326 -3.97593 0
M  V30 6913 H 649.558 -5.78456 -3.89916 0
M  V30 6914 H 645.455 -4.67835 -4.44748 0
M  V30 6915 H 646.223 -6.74563 -4.63581 0
M  V30 6916 N 648.886 1.2938 -0.899927 0
M  V30 6917 C 650.163 1.9046 -0.445443 0
M  V30 6918 C 650.543 1.81683 1.07492 0
M  V30 6919 O 649.891 1.24371 1.91688 0
M  V30 6920 C 650.101 3.35529 -0.960279 0
M  V30 6921 C 651.449 4.12556 -1.00412 0
M  V30 6922 O 652.473 3.44434 -0.907965 0
M  V30 6923 O 651.332 5.34294 -1.14857 0
M  V30 6924 H 648.426 0.815253 -0.138893 0
M  V30 6925 H 650.972 1.37844 -0.989808 0
M  V30 6926 H 649.744 3.36074 -2.00425 0
M  V30 6927 H 649.367 3.95624 -0.395939 0
M  V30 6928 N 650.364 0.662433 1.43002 0
M  V30 6929 C 651.274 -0.0239199 2.34588 0
M  V30 6930 C 652.29 -0.802255 1.54402 0
M  V30 6931 O 653.466 -0.747401 1.87018 0
M  V30 6932 C 650.531 -0.972098 3.32793 0
M  V30 6933 C 649.592 -0.189673 4.28881 0
M  V30 6934 C 648.825 -1.09269 5.22395 0
M  V30 6935 O 649.048 -2.33209 5.20547 0
M  V30 6936 O 647.982 -0.560136 5.99288 0
M  V30 6937 H 651.808 0.730171 2.94792 0
M  V30 6938 H 649.393 0.422635 1.43297 0
M  V30 6939 H 651.275 -1.51676 3.93157 0
M  V30 6940 H 649.95 -1.70626 2.75079 0
M  V30 6941 H 648.857 0.398794 3.71968 0
M  V30 6942 H 650.19 0.50511 4.89601 0
M  V30 6943 N 651.842 -1.52309 0.404946 0
M  V30 6944 C 652.805 -2.25491 -0.410651 0
M  V30 6945 C 653.805 -1.27704 -0.977154 0
M  V30 6946 O 654.995 -1.51679 -0.856691 0
M  V30 6947 C 652.127 -3.02197 -1.57765 0
M  V30 6948 H 653.32 -2.99015 0.230277 0
M  V30 6949 H 650.873 -1.55506 0.157377 0
M  V30 6950 H 651.608 -2.33013 -2.25556 0
M  V30 6951 H 651.393 -3.73987 -1.17797 0
M  V30 6952 H 652.883 -3.57719 -2.15469 0
M  V30 6953 N 653.32 -0.135238 -1.57019 0
M  V30 6954 C 654.283 0.794707 -2.14981 0
M  V30 6955 C 655.283 1.18342 -1.08866 0
M  V30 6956 O 656.473 1.10627 -1.34563 0
M  V30 6957 C 653.605 2.07685 -2.70333 0
M  V30 6958 H 654.798 0.290696 -2.98488 0
M  V30 6959 H 652.351 0.114128 -1.55883 0
M  V30 6960 H 653.086 2.6248 -1.9046 0
M  V30 6961 H 652.871 1.80745 -3.47957 0
M  V30 6962 H 654.361 2.74127 -3.1503 0
M  V30 6963 N 654.798 1.5699 0.138552 0
M  V30 6964 C 655.761 1.97984 1.15478 0
M  V30 6965 C 656.761 0.867416 1.35398 0
M  V30 6966 O 657.951 1.13387 1.32246 0
M  V30 6967 C 655.083 2.3031 2.51337 0
M  V30 6968 H 656.276 2.88953 0.802896 0
M  V30 6969 H 653.829 1.51555 0.382189 0
M  V30 6970 H 654.564 1.42159 2.91481 0
M  V30 6971 H 654.349 3.11425 2.38237 0
M  V30 6972 H 655.839 2.62834 3.24512 0
M  V30 6973 N 656.276 -0.40816 1.52223 0
M  V30 6974 C 657.692 -0.74685 1.41047 0
M  V30 6975 C 657.892 -1.94788 0.51573 0
M  V30 6976 O 656.948 -2.52494 -0.0181156 0
M  V30 6977 C 658.261 -0.999878 2.83589 0
M  V30 6978 C 659.809 -1.10253 2.92939 0
M  V30 6979 C 660.284 -1.38832 4.36451 0
M  V30 6980 N 661.775 -1.45694 4.3969 0
M  V30 6981 C 662.51 -1.69435 5.47795 0
M  V30 6982 N 662.006 -1.90774 6.66016 0
M  V30 6983 N 663.799 -1.71458 5.35312 0
M  V30 6984 H 655.95 0.382409 2.08929 0
M  V30 6985 H 658.213 0.108807 0.941735 0
M  V30 6986 H 657.919 -0.189723 3.51188 0
M  V30 6987 H 657.793 -1.91978 3.24691 0
M  V30 6988 H 660.18 -1.90328 2.2552 0
M  V30 6989 H 660.261 -0.160973 2.55293 0
M  V30 6990 H 659.905 -0.592741 5.04429 0
M  V30 6991 H 659.835 -2.34241 4.71634 0
M  V30 6992 H 662.326 -1.3099 3.54472 0
M  V30 6993 H 662.639 -2.08342 7.44186 0
M  V30 6994 H 660.984 -1.88037 6.69079 0
M  V30 6995 H 664.175 -1.54326 4.41929 0
M  V30 6996 H 664.348 -1.89621 6.19635 0
M  V30 6997 N 657.755 -1.42862 -0.66545 0
M  V30 6998 C 659.166 -1.3901 -1.24632 0
M  V30 6999 C 659.517 -0.0880285 -1.96002 0
M  V30 7000 O 658.642 0.812947 -2.0055 0
M  V30 7001 C 659.237 -2.51806 -2.2667 0
M  V30 7002 C 657.796 -2.51257 -2.80262 0
M  V30 7003 C 656.943 -2.30124 -1.5472 0
M  V30 7004 H 659.894 -1.5194 -0.458237 0
M  V30 7005 H 659.915 -2.22593 -3.08598 0
M  V30 7006 H 659.427 -3.46558 -1.74697 0
M  V30 7007 H 657.528 -1.60349 -3.36332 0
M  V30 7008 H 657.641 -3.48614 -3.28641 0
M  V30 7009 H 656.005 -1.7856 -1.81627 0
M  V30 7010 H 656.788 -3.26945 -1.04699 0
M  V30 7011 N 659.233 0.902656 -1.29189 0
M  V30 7012 C 660.51 1.63296 -1.07674 0
M  V30 7013 C 660.89 2.07649 0.380137 0
M  V30 7014 O 660.238 1.82997 1.36837 0
M  V30 7015 C 660.448 2.81603 -2.06158 0
M  V30 7016 C 661.796 3.52359 -2.36914 0
M  V30 7017 O 662.82 2.91767 -2.04329 0
M  V30 7018 O 661.679 4.61586 -2.92576 0
M  V30 7019 H 658.773 0.716889 -0.41231 0
M  V30 7020 H 661.319 0.950984 -1.4055 0
M  V30 7021 H 660.091 2.46004 -3.04299 0
M  V30 7022 H 659.714 3.57508 -1.73993 0
M  V30 7023 N 660.711 1.11618 1.11262 0
M  V30 7024 C 662.122 0.881942 1.64556 0
M  V30 7025 C 662.473 -0.585442 1.87262 0
M  V30 7026 O 661.598 -1.44795 1.60821 0
M  V30 7027 C 662.193 1.59446 2.98935 0
M  V30 7028 C 660.752 1.40661 3.4913 0
M  V30 7029 C 659.899 1.63593 2.23903 0
M  V30 7030 H 662.85 1.27217 0.94877 0
M  V30 7031 H 662.871 1.04054 3.65996 0
M  V30 7032 H 662.383 2.66241 2.82378 0
M  V30 7033 H 660.484 0.360835 3.70849 0
M  V30 7034 H 660.597 2.15693 4.27801 0
M  V30 7035 H 658.961 1.05944 2.3162 0
M  V30 7036 H 659.744 2.71666 2.09886 0
M  V30 7037 N 662.189 -1.289 0.906776 0
M  V30 7038 C 663.437 -1.94883 0.535266 0
M  V30 7039 C 663.758 -1.71784 -0.922791 0
M  V30 7040 O 663.028 -1.05359 -1.65156 0
M  V30 7041 H 661.608 -0.721109 0.194962 0
M  V30 7042 H 664.27 -1.57018 1.15461 0
M  V30 7043 H 663.366 -3.03591 0.723821 0
M  V30 7044 N 663.667 -0.670007 -1.42649 0
M  V30 7045 C 664.897 -0.198252 -2.05647 0
M  V30 7046 C 665.305 1.14786 -1.50402 0
M  V30 7047 O 664.648 1.72316 -0.636634 0
M  V30 7048 C 664.71 -0.0507132 -3.59464 0
M  V30 7049 C 664.374 -1.32478 -4.37377 0
M  V30 7050 C 665.371 -2.2572 -4.68344 0
M  V30 7051 C 663.056 -1.57104 -4.77099 0
M  V30 7052 C 665.05 -3.4187 -5.37963 0
M  V30 7053 C 662.737 -2.73543 -5.46459 0
M  V30 7054 C 663.735 -3.65751 -5.76815 0
M  V30 7055 O 663.423 -4.80154 -6.44753 0
M  V30 7056 H 663.155 -0.0950721 -0.669281 0
M  V30 7057 H 665.709 -0.915745 -1.83857 0
M  V30 7058 H 663.939 0.722314 -3.79894 0
M  V30 7059 H 665.628 0.380552 -4.04112 0
M  V30 7060 H 666.394 -2.07943 -4.38161 0
M  V30 7061 H 662.273 -0.862069 -4.52868 0
M  V30 7062 H 665.817 -4.13861 -5.61574 0
M  V30 7063 H 661.714 -2.91248 -5.7606 0
M  V30 7064 H 662.482 -4.79637 -6.63243 0
M  V30 7065 N 665.145 1.52092 -0.413018 0
M  V30 7066 C 666.556 1.86617 0.0556967 0
M  V30 7067 C 666.907 1.33156 1.44097 0
M  V30 7068 O 666.032 0.672417 2.05688 0
M  V30 7069 C 666.627 3.38628 0.107844 0
M  V30 7070 C 665.186 3.72778 0.520904 0
M  V30 7071 C 664.333 2.75649 -0.302109 0
M  V30 7072 H 667.284 1.45663 -0.629919 0
M  V30 7073 H 667.305 3.69152 0.922324 0
M  V30 7074 H 666.817 3.77508 -0.900506 0
M  V30 7075 H 664.918 3.39478 1.53575 0
M  V30 7076 H 665.031 4.7838 0.262591 0
M  V30 7077 H 663.395 2.53603 0.236115 0
M  V30 7078 H 664.178 3.17369 -1.30888 0
M  V30 7079 N 666.623 0.143563 1.56945 0
M  V30 7080 C 668.039 -0.212877 1.58174 0
M  V30 7081 C 668.239 -1.64926 1.15766 0
M  V30 7082 O 667.295 -2.37535 0.856361 0
M  V30 7083 C 668.608 0.0427573 3.0067 0
M  V30 7084 C 670.156 -0.0212221 3.12993 0
M  V30 7085 C 670.631 0.207036 4.57532 0
M  V30 7086 N 672.122 0.153845 4.62944 0
M  V30 7087 C 672.857 0.305018 5.72588 0
M  V30 7088 N 672.353 0.513722 6.90893 0
M  V30 7089 N 674.146 0.242862 5.61575 0
M  V30 7090 H 666.297 1.08148 1.82805 0
M  V30 7091 H 668.56 0.427831 0.84597 0
M  V30 7092 H 668.266 1.03672 3.36073 0
M  V30 7093 H 668.14 -0.678195 3.71053 0
M  V30 7094 H 670.527 -1.00574 2.77433 0
M  V30 7095 H 670.608 0.732004 2.45103 0
M  V30 7096 H 670.252 1.18863 4.93795 0
M  V30 7097 H 670.182 -0.566473 5.23544 0
M  V30 7098 H 672.673 -0.00294866 3.779 0
M  V30 7099 H 672.986 0.619273 7.70315 0
M  V30 7100 H 671.331 0.550001 6.9282 0
M  V30 7101 H 674.522 0.0806015 4.68031 0
M  V30 7102 H 674.695 0.364112 6.46976 0
M  V30 7103 N 668.101 -1.57061 -0.130224 0
M  V30 7104 C 669.378 -1.75205 -0.869631 0
M  V30 7105 C 669.758 -0.716063 -1.98584 0
M  V30 7106 O 669.106 0.262032 -2.26993 0
M  V30 7107 C 669.316 -3.19835 -1.39666 0
M  V30 7108 C 670.664 -3.82011 -1.85345 0
M  V30 7109 O 671.688 -3.23368 -1.49371 0
M  V30 7110 O 670.547 -4.85064 -2.51744 0
M  V30 7111 H 667.641 -0.716977 -0.412157 0
M  V30 7112 H 670.187 -1.69311 -0.11484 0
M  V30 7113 H 668.959 -3.86745 -0.595288 0
M  V30 7114 H 668.582 -3.30222 -2.21448 0
M  V30 7115 N 669.579 0.400081 -1.52437 0
M  V30 7116 C 670.509 1.4947 -1.7939 0
M  V30 7117 C 671.49 1.57383 -0.645329 0
M  V30 7118 O 672.675 1.72511 -0.891826 0
M  V30 7119 C 669.805 2.87201 -1.95276 0
M  V30 7120 C 668.759 2.94134 -3.10917 0
M  V30 7121 C 668.085 4.34207 -3.1204 0
M  V30 7122 C 669.385 2.64791 -4.50203 0
M  V30 7123 H 671.079 1.27165 -2.71052 0
M  V30 7124 H 668.625 0.610312 -1.30427 0
M  V30 7125 H 670.578 3.63772 -2.12715 0
M  V30 7126 H 669.302 3.10819 -1.00294 0
M  V30 7127 H 667.961 2.20009 -2.93243 0
M  V30 7128 H 667.609 4.54848 -2.14761 0
M  V30 7129 H 667.309 4.39768 -3.89715 0
M  V30 7130 H 668.833 5.127 -3.31619 0
M  V30 7131 H 670.247 3.31083 -4.68035 0
M  V30 7132 H 668.644 2.81717 -5.29864 0
M  V30 7133 H 669.714 1.60184 -4.57678 0
M  V30 7134 N 671.057 1.43213 0.657864 0
M  V30 7135 C 672.282 1.48227 1.45064 0
M  V30 7136 C 672.707 0.0999939 1.87834 0
M  V30 7137 O 672.065 -0.905269 1.57081 0
M  V30 7138 C 672.113 2.42931 2.6649 0
M  V30 7139 O 671.217 1.91237 3.6538 0
M  V30 7140 H 670.558 0.501551 0.435135 0
M  V30 7141 H 673.088 1.8808 0.805431 0
M  V30 7142 H 673.098 2.6008 3.1436 0
M  V30 7143 H 671.773 3.43348 2.34701 0
M  V30 7144 H 670.35 1.83726 3.24498 0
M  V30 7145 N 672.536 -0.895792 1.29666 0
M  V30 7146 C 673.466 -2.01673 1.17688 0
M  V30 7147 C 674.447 -1.69955 0.0701317 0
M  V30 7148 O 675.632 -1.9258 0.250289 0
M  V30 7149 C 672.762 -3.36568 0.856681 0
M  V30 7150 C 671.716 -3.82509 1.92017 0
M  V30 7151 C 671.042 -5.14574 1.4532 0
M  V30 7152 C 672.342 -4.02409 3.32963 0
M  V30 7153 H 674.036 -2.11953 2.11463 0
M  V30 7154 H 671.582 -1.01839 1.01807 0
M  V30 7155 H 673.535 -4.14498 0.759577 0
M  V30 7156 H 672.259 -3.26391 -0.116763 0
M  V30 7157 H 670.918 -3.068 2.00673 0
M  V30 7158 H 670.566 -5.00815 0.468325 0
M  V30 7159 H 670.266 -5.46283 2.16447 0
M  V30 7160 H 671.79 -5.9504 1.36968 0
M  V30 7161 H 673.204 -4.70808 3.27127 0
M  V30 7162 H 671.601 -4.45478 4.02082 0
M  V30 7163 H 672.671 -3.06616 3.75652 0
M  V30 7164 N 674.014 -1.12206 -1.10668 0
M  V30 7165 C 675.26 -0.887096 -1.83036 0
M  V30 7166 C 675.615 0.580887 -1.83422 0
M  V30 7167 O 674.908 1.42379 -1.28213 0
M  V30 7168 C 675.102 -1.39276 -3.29146 0
M  V30 7169 C 674.931 -2.90837 -3.42992 0
M  V30 7170 C 673.701 -3.59047 -3.55546 0
M  V30 7171 C 675.899 -3.8885 -3.36601 0
M  V30 7172 N 673.881 -4.98747 -3.57945 0
M  V30 7173 C 675.252 -5.14666 -3.45716 0
M  V30 7174 C 677.307 -3.81296 -3.20184 0
M  V30 7175 C 676.01 -6.33814 -3.40106 0
M  V30 7176 C 678.036 -4.99965 -3.15895 0
M  V30 7177 C 677.398 -6.24637 -3.25589 0
M  V30 7178 H 673.497 -0.377857 -0.684652 0
M  V30 7179 H 676.081 -1.42791 -1.32358 0
M  V30 7180 H 674.252 -0.879026 -3.78322 0
M  V30 7181 H 675.984 -1.10011 -3.89461 0
M  V30 7182 H 672.739 -3.09533 -3.5845 0
M  V30 7183 H 673.163 -5.71606 -3.62762 0
M  V30 7184 H 677.805 -2.85806 -3.11569 0
M  V30 7185 H 675.523 -7.29574 -3.47487 0
M  V30 7186 H 679.109 -4.95847 -3.04347 0
M  V30 7187 H 677.989 -7.14921 -3.22269 0
M  V30 7188 N 675.492 1.28418 -0.913599 0
M  V30 7189 C 676.402 2.31043 -0.406965 0
M  V30 7190 C 677.418 1.66501 0.505298 0
M  V30 7191 O 678.594 1.97558 0.391522 0
M  V30 7192 C 675.659 3.4498 0.344901 0
M  V30 7193 C 674.72 4.25078 -0.600563 0
M  V30 7194 C 673.953 5.33575 0.115516 0
M  V30 7195 O 674.176 5.54503 1.33727 0
M  V30 7196 O 673.11 5.9939 -0.549095 0
M  V30 7197 H 676.936 2.76387 -1.25873 0
M  V30 7198 H 674.521 1.33109 -0.678415 0
M  V30 7199 H 676.403 4.14314 0.769542 0
M  V30 7200 H 675.078 3.01719 1.1725 0
M  V30 7201 H 673.985 3.58334 -1.0746 0
M  V30 7202 H 675.318 4.72018 -1.39497 0
M  V30 7203 N 676.97 0.677563 1.42291 0
M  V30 7204 C 678.218 0.200578 2.01102 0
M  V30 7205 C 678.539 -1.19803 1.53858 0
M  V30 7206 O 677.809 -1.80496 0.761439 0
M  V30 7207 H 676.389 0.0711634 0.743603 0
M  V30 7208 H 679.051 0.874691 1.7417 0
M  V30 7209 H 678.147 0.204 3.11433 0
M  V30 7210 N 678.448 -1.51871 0.421078 0
M  V30 7211 C 679.411 -2.25914 -0.386712 0
M  V30 7212 C 680.411 -1.28733 -0.963555 0
M  V30 7213 O 681.601 -1.52579 -0.840556 0
M  V30 7214 C 678.733 -3.03853 -1.54551 0
M  V30 7215 H 679.926 -2.98754 0.261978 0
M  V30 7216 H 677.479 -1.5533 0.173862 0
M  V30 7217 H 678.214 -2.35392 -2.23072 0
M  V30 7218 H 677.999 -3.75215 -1.13824 0
M  V30 7219 H 679.489 -3.59984 -2.11663 0
M  V30 7220 N 679.926 -0.151884 -1.56866 0
M  V30 7221 C 681.337 0.368128 -1.83035 0
M  V30 7222 C 681.688 1.64402 -1.07082 0
M  V30 7223 O 680.813 2.14056 -0.317647 0
M  V30 7224 C 681.408 0.674676 -3.32014 0
M  V30 7225 C 679.967 1.13919 -3.58747 0
M  V30 7226 C 679.114 0.164833 -2.7681 0
M  V30 7227 H 682.065 -0.376499 -1.54169 0
M  V30 7228 H 682.086 1.52883 -3.48435 0
M  V30 7229 H 681.598 -0.254113 -3.87267 0
M  V30 7230 H 679.699 2.08375 -3.08886 0
M  V30 7231 H 679.812 1.06179 -4.67186 0
M  V30 7232 H 678.176 0.658419 -2.46043 0
M  V30 7233 H 678.959 -0.757633 -3.34836 0
M  V30 7234 N 681.404 1.57128 0.121893 0
M  V30 7235 C 682.815 1.73902 0.679348 0
M  V30 7236 C 683.166 0.770135 1.80453 0
M  V30 7237 O 682.291 -0.0576083 2.16323 0
M  V30 7238 C 682.886 3.15328 1.2391 0
M  V30 7239 C 681.445 3.33618 1.74288 0
M  V30 7240 C 680.592 2.6978 0.641414 0
M  V30 7241 H 683.543 1.58359 -0.104 0
M  V30 7242 H 683.564 3.16718 2.10879 0
M  V30 7243 H 683.076 3.85821 0.419957 0
M  V30 7244 H 681.177 2.68162 2.58689 0
M  V30 7245 H 681.29 4.4176 1.85432 0
M  V30 7246 H 679.654 2.30935 1.0743 0
M  V30 7247 H 680.437 3.42895 -0.166707 0
M  V30 7248 N 682.882 -0.391992 1.52647 0
M  V30 7249 C 684.107 -1.16312 1.71716 0
M  V30 7250 C 684.532 -1.83042 0.433279 0
M  V30 7251 O 683.89 -1.70705 -0.610707 0
M  V30 7252 C 683.938 -2.18908 2.86551 0
M  V30 7253 O 683.042 -3.2543 2.53316 0
M  V30 7254 H 682.383 -0.338743 0.571095 0
M  V30 7255 H 684.913 -0.457202 1.99426 0
M  V30 7256 H 684.923 -2.62954 3.1196 0
M  V30 7257 H 683.598 -1.69726 3.79692 0
M  V30 7258 H 682.175 -2.86543 2.38637 0
M  V30 7259 N 684.36 -1.4356 -0.65026 0
M  V30 7260 C 685.771 -1.40324 -1.2315 0
M  V30 7261 C 686.122 -0.108812 -1.95898 0
M  V30 7262 O 685.247 0.79163 -2.01401 0
M  V30 7263 C 685.842 -2.54195 -2.23987 0
M  V30 7264 C 684.401 -2.54215 -2.77582 0
M  V30 7265 C 683.548 -2.31752 -1.5227 0
M  V30 7266 H 686.499 -1.52418 -0.442095 0
M  V30 7267 H 686.52 -2.25854 -3.0622 0
M  V30 7268 H 686.032 -3.48392 -1.71011 0
M  V30 7269 H 684.133 -1.63907 -3.34612 0
M  V30 7270 H 684.246 -3.52081 -3.24925 0
M  V30 7271 H 682.61 -1.80476 -1.79723 0
M  V30 7272 H 683.393 -3.28037 -1.01225 0
M  V30 7273 N 685.838 0.888903 -1.30139 0
M  V30 7274 C 687.115 1.62145 -1.094 0
M  V30 7275 C 687.495 2.08041 0.358091 0
M  V30 7276 O 686.843 1.84438 1.34888 0
M  V30 7277 C 687.053 2.794 -2.09133 0
M  V30 7278 C 688.401 3.49826 -2.40638 0
M  V30 7279 O 689.425 2.89583 -2.07412 0
M  V30 7280 O 688.284 4.58457 -2.97455 0
M  V30 7281 H 685.378 0.712475 -0.41989 0
M  V30 7282 H 687.924 0.936023 -1.41551 0
M  V30 7283 H 686.696 2.42762 -3.06891 0
M  V30 7284 H 686.319 3.55643 -1.77776 0
M  V30 7285 N 687.317 1.12792 1.10072 0
M  V30 7286 C 688.594 0.796867 1.78632 0
M  V30 7287 C 688.974 -0.712739 1.98704 0
M  V30 7288 O 688.322 -1.64773 1.5831 0
M  V30 7289 C 688.532 1.57622 3.11378 0
M  V30 7290 C 689.88 1.76463 3.86194 0
M  V30 7291 O 690.904 1.54165 3.2111 0
M  V30 7292 O 689.763 2.13623 5.03018 0
M  V30 7293 H 686.857 0.290248 0.774394 0
M  V30 7294 H 689.403 1.23215 1.16688 0
M  V30 7295 H 688.175 2.60246 2.92212 0
M  V30 7296 H 687.798 1.13543 3.81043 0
M  V30 7297 N 688.795 -1.27931 0.920396 0
M  V30 7298 C 690.041 -1.94977 0.557832 0
M  V30 7299 C 690.374 -1.72224 -0.897365 0
M  V30 7300 O 689.649 -1.04705 -1.63912 0
M  V30 7301 C 689.932 -3.49289 0.875741 0
M  V30 7302 C 689.785 -3.81416 2.38416 0
M  V30 7303 C 691.104 -4.38486 0.376517 0
M  V30 7304 H 688.223 -0.708164 0.20414 0
M  V30 7305 H 690.865 -1.5118 1.15085 0
M  V30 7306 H 689.015 -3.86724 0.371062 0
M  V30 7307 H 690.687 -3.53813 2.95997 0
M  V30 7308 H 688.93 -3.28225 2.83639 0
M  V30 7309 H 689.601 -4.89198 2.55713 0
M  V30 7310 H 692.077 -4.08161 0.808945 0
M  V30 7311 H 690.953 -5.45296 0.627976 0
M  V30 7312 H 691.214 -4.36143 -0.723293 0
M  V30 7313 N 690.273 -0.685099 -1.4193 0
M  V30 7314 C 691.501 -0.220372 -2.05723 0
M  V30 7315 C 691.916 1.12642 -1.51516 0
M  V30 7316 O 691.273 1.70182 -0.659114 0
M  V30 7317 C 691.324 -0.157974 -3.61155 0
M  V30 7318 O 691.045 -1.45156 -4.13354 0
M  V30 7319 C 692.546 0.329009 -4.42077 0
M  V30 7320 H 689.766 -0.104725 -0.662777 0
M  V30 7321 H 692.31 -0.934736 -1.81887 0
M  V30 7322 H 690.465 0.507144 -3.84066 0
M  V30 7323 H 690.879 -1.33172 -5.07312 0
M  V30 7324 H 692.353 0.321559 -5.51063 0
M  V30 7325 H 692.83 1.36608 -4.17414 0
M  V30 7326 H 693.436 -0.304737 -4.24207 0
M  V30 7327 N 691.751 1.51645 -0.429126 0
M  V30 7328 C 692.997 2.02314 0.140286 0
M  V30 7329 C 693.33 1.31314 1.43074 0
M  V30 7330 O 692.605 0.425531 1.89788 0
M  V30 7331 C 692.888 3.5822 0.36749 0
M  V30 7332 C 692.741 4.39846 -0.941039 0
M  V30 7333 C 694.06 4.25055 1.14089 0
M  V30 7334 H 691.179 0.735335 0.0495112 0
M  V30 7335 H 693.821 1.81358 -0.566514 0
M  V30 7336 H 691.971 3.76207 0.969556 0
M  V30 7337 H 693.643 4.33527 -1.57646 0
M  V30 7338 H 691.886 4.05259 -1.54751 0
M  V30 7339 H 692.557 5.47069 -0.73621 0
M  V30 7340 H 695.033 4.11288 0.630986 0
M  V30 7341 H 693.909 5.34038 1.26863 0
M  V30 7342 H 694.17 3.85358 2.16683 0
M  V30 7343 N 693.229 0.160201 1.56784 0
M  V30 7344 C 694.454 -0.497373 2.01348 0
M  V30 7345 C 694.879 -1.56757 1.03966 0
M  V30 7346 O 694.237 -1.81292 0.0174455 0
M  V30 7347 C 694.285 -1.0628 3.44582 0
M  V30 7348 O 693.389 -2.17723 3.50244 0
M  V30 7349 H 692.73 -0.120295 0.653012 0
M  V30 7350 H 695.26 0.260821 2.02931 0
M  V30 7351 H 695.27 -1.38819 3.83658 0
M  V30 7352 H 693.945 -0.279166 4.14962 0
M  V30 7353 H 692.522 -1.86313 3.2302 0
M  V30 7354 N 694.707 -1.5719 -0.113559 0
M  V30 7355 C 695.655 -2.01725 -1.158 0
M  V30 7356 C 696.649 -0.915105 -1.42556 0
M  V30 7357 O 697.855 -1.10031 -1.42454 0
M  V30 7358 H 694.23 -0.64262 -0.390569 0
M  V30 7359 H 696.201 -2.88666 -0.755926 0
M  V30 7360 C 694.95 -2.44203 -2.47507 0
M  V30 7361 H 694.273 -3.28582 -2.27758 0
M  V30 7362 H 695.713 -2.79158 -3.19135 0
M  V30 7363 C 694.172 -1.30785 -3.10478 0
M  V30 7364 O 694.702 -0.626807 -3.9678 0
M  V30 7365 N 692.908 -1.06352 -2.7044 0
M  V30 7366 H 692.455 -1.61913 -2.00355 0
M  V30 7367 H 692.413 -0.306614 -3.12901 0
M  V30 7368 N 696.185 0.383891 -1.52853 0
M  V30 7369 C 697.148 1.45197 -1.77343 0
M  V30 7370 C 698.148 1.47362 -0.643522 0
M  V30 7371 O 699.338 1.48443 -0.911613 0
M  V30 7372 C 696.47 2.8445 -1.87885 0
M  V30 7373 H 697.663 1.24764 -2.72716 0
M  V30 7374 H 695.216 0.615939 -1.43652 0
M  V30 7375 H 695.951 3.10222 -0.94515 0
M  V30 7376 H 695.736 2.8428 -2.70051 0
M  V30 7377 H 697.226 3.61832 -2.08488 0
M  V30 7378 N 697.663 1.43903 0.642637 0
M  V30 7379 C 698.911 1.45791 1.39962 0
M  V30 7380 C 699.232 0.0873144 1.94804 0
M  V30 7381 O 698.502 -0.878825 1.75081 0
M  V30 7382 H 697.082 0.536797 0.519479 0
M  V30 7383 H 699.744 1.7959 0.757189 0
M  V30 7384 H 698.84 2.17665 2.2367 0
M  V30 7385 N 699.141 -0.881989 1.30609 0
M  V30 7386 C 700.418 -1.61563 1.10258 0
M  V30 7387 C 700.798 -2.08228 -0.347053 0
M  V30 7388 O 700.146 -1.85151 -1.33908 0
M  V30 7389 C 700.356 -2.78287 2.10612 0
M  V30 7390 C 701.704 -3.48545 2.4249 0
M  V30 7391 O 702.728 -2.88479 2.08945 0
M  V30 7392 O 701.587 -4.56873 2.99883 0
M  V30 7393 H 698.681 -0.710238 0.423663 0
M  V30 7394 H 701.227 -0.928503 1.42045 0
M  V30 7395 H 699.999 -2.41131 3.08174 0
M  V30 7396 H 699.622 -3.54695 1.79659 0
M  V30 7397 N 700.619 -1.13374 -1.09472 0
M  V30 7398 C 701.847 -0.918351 -1.85402 0
M  V30 7399 C 702.262 0.53281 -1.81126 0
M  V30 7400 O 701.619 1.36879 -1.20708 0
M  V30 7401 C 701.67 -1.39743 -3.33398 0
M  V30 7402 O 701.391 -2.79172 -3.37631 0
M  V30 7403 C 702.892 -1.22042 -4.2617 0
M  V30 7404 H 700.112 -0.327511 -0.585643 0
M  V30 7405 H 702.656 -1.50617 -1.38328 0
M  V30 7406 H 700.811 -0.852619 -3.77901 0
M  V30 7407 H 701.225 -3.00428 -4.29934 0
M  V30 7408 H 702.699 -1.60438 -5.2817 0
M  V30 7409 H 703.176 -0.162047 -4.38901 0
M  V30 7410 H 703.782 -1.75323 -3.87482 0
M  V30 7411 N 702.098 1.27442 -0.927168 0
M  V30 7412 C 703.328 1.9821 -0.582775 0
M  V30 7413 C 703.736 1.69361 0.843406 0
M  V30 7414 O 703.079 0.950381 1.57205 0
M  V30 7415 C 703.141 3.52048 -0.728165 0
M  V30 7416 C 702.805 4.04518 -2.12637 0
M  V30 7417 C 703.802 4.17332 -3.10048 0
M  V30 7418 C 701.487 4.38879 -2.44317 0
M  V30 7419 C 703.481 4.6378 -4.37249 0
M  V30 7420 C 701.168 4.85018 -3.71753 0
M  V30 7421 C 702.166 4.97428 -4.68033 0
M  V30 7422 O 701.854 5.42556 -5.93202 0
M  V30 7423 H 701.586 0.639314 -0.219667 0
M  V30 7424 H 704.14 1.63272 -1.24626 0
M  V30 7425 H 702.37 3.86699 -0.00758143 0
M  V30 7426 H 704.059 4.04033 -0.388906 0
M  V30 7427 H 704.825 3.91046 -2.86894 0
M  V30 7428 H 700.704 4.28462 -1.70121 0
M  V30 7429 H 704.248 4.73382 -5.12402 0
M  V30 7430 H 700.145 5.10746 -3.94726 0
M  V30 7431 H 700.913 5.60811 -5.96182 0
M  V30 7432 N 703.576 0.692616 1.41565 0
M  V30 7433 C 704.823 0.222335 2.01276 0
M  V30 7434 C 705.151 -1.17706 1.5484 0
M  V30 7435 O 704.406 -1.80795 0.749118 0
M  V30 7436 C 704.705 0.225073 3.56691 0
M  V30 7437 C 704.371 1.57158 4.22625 0
M  V30 7438 C 703.033 1.94022 4.40351 0
M  V30 7439 C 705.385 2.45758 4.59622 0
M  V30 7440 C 702.713 3.19076 4.92349 0
M  V30 7441 C 705.065 3.70141 5.13009 0
M  V30 7442 C 703.729 4.07152 5.28946 0
M  V30 7443 H 702.999 0.0813581 0.73652 0
M  V30 7444 H 705.646 0.891123 1.69503 0
M  V30 7445 H 703.951 -0.527259 3.88236 0
M  V30 7446 H 705.648 -0.156283 4.00695 0
M  V30 7447 H 702.238 1.27486 4.09201 0
M  V30 7448 H 706.422 2.18558 4.45585 0
M  V30 7449 H 701.678 3.4775 5.02872 0
M  V30 7450 H 705.852 4.38983 5.40617 0
M  V30 7451 H 703.479 5.04125 5.69001 0
M  V30 7452 N 705.054 -1.51416 0.437162 0
M  V30 7453 C 706.301 -2.02086 -0.129364 0
M  V30 7454 C 706.629 -1.32133 -1.42728 0
M  V30 7455 O 705.884 -0.424916 -1.91031 0
M  V30 7456 C 706.183 -3.55203 -0.39564 0
M  V30 7457 C 705.849 -4.43447 0.81644 0
M  V30 7458 C 704.511 -4.67285 1.14884 0
M  V30 7459 C 706.863 -4.95219 1.62503 0
M  V30 7460 C 704.191 -5.40141 2.29052 0
M  V30 7461 C 706.543 -5.69327 2.7577 0
M  V30 7462 C 705.207 -5.91429 3.09464 0
M  V30 7463 H 704.477 -0.739486 -0.0473375 0
M  V30 7464 H 707.124 -1.82368 0.584321 0
M  V30 7465 H 705.429 -3.73252 -1.19121 0
M  V30 7466 H 707.126 -3.91944 -0.847399 0
M  V30 7467 H 703.716 -4.2509 0.547422 0
M  V30 7468 H 707.9 -4.76686 1.38144 0
M  V30 7469 H 703.156 -5.55468 2.55471 0
M  V30 7470 H 707.33 -6.08433 3.38795 0
M  V30 7471 H 704.957 -6.47662 3.98042 0
M  V30 7472 N 706.532 -0.168513 -1.56696 0
M  V30 7473 C 707.479 0.762875 -2.17828 0
M  V30 7474 C 708.449 1.22892 -1.11745 0
M  V30 7475 O 709.634 1.29759 -1.39883 0
M  V30 7476 C 706.774 1.9879 -2.82093 0
M  V30 7477 C 705.887 1.56568 -4.02629 0
M  V30 7478 C 705.022 2.74416 -4.54829 0
M  V30 7479 C 704.061 2.28671 -5.67782 0
M  V30 7480 N 703.198 3.39602 -6.14504 0
M  V30 7481 H 708.038 0.23479 -2.97074 0
M  V30 7482 H 705.575 0.104163 -1.46731 0
M  V30 7483 H 707.533 2.70636 -3.17509 0
M  V30 7484 H 706.163 2.48973 -2.05456 0
M  V30 7485 H 705.215 0.744067 -3.73052 0
M  V30 7486 H 706.527 1.18988 -4.844 0
M  V30 7487 H 705.681 3.54423 -4.92412 0
M  V30 7488 H 704.42 3.15254 -3.7211 0
M  V30 7489 H 703.425 1.4711 -5.29753 0
M  V30 7490 H 704.65 1.88894 -6.52301 0
M  V30 7491 H 702.596 3.80021 -5.34715 0
M  V30 7492 H 702.513 3.06105 -6.91257 0
M  V30 7493 H 703.781 4.19902 -6.56737 0
M  V30 7494 N 708.01 1.57248 0.105221 0
M  V30 7495 C 709.258 1.85204 0.808951 0
M  V30 7496 C 709.579 0.75574 1.7976 0
M  V30 7497 O 708.849 -0.218984 1.94672 0
M  V30 7498 H 707.429 0.683346 0.301739 0
M  V30 7499 H 710.091 1.94695 0.0892605 0
M  V30 7500 H 709.187 2.81595 1.34575 0
M  V30 7501 N 709.488 -0.375779 1.53054 0
M  V30 7502 C 710.451 -1.44254 1.7811 0
M  V30 7503 C 711.451 -1.47018 0.651328 0
M  V30 7504 O 712.641 -1.47957 0.919472 0
M  V30 7505 C 709.773 -2.8345 1.89391 0
M  V30 7506 H 710.966 -1.23316 2.73374 0
M  V30 7507 H 708.519 -0.608312 1.43977 0
M  V30 7508 H 709.254 -3.09716 0.961589 0
M  V30 7509 H 709.039 -2.82844 2.71555 0
M  V30 7510 H 710.529 -3.60722 2.10404 0
M  V30 7511 N 710.966 -1.44241 -0.634997 0
M  V30 7512 C 711.916 -1.47247 -1.74076 0
M  V30 7513 C 712.9 -0.338708 -1.57295 0
M  V30 7514 O 714.092 -0.583751 -1.67097 0
M  V30 7515 C 711.221 -1.41579 -3.12746 0
M  V30 7516 C 710.307 -2.60055 -3.35011 0
M  V30 7517 N 710.698 -3.85321 -3.27661 0
M  V30 7518 C 708.996 -2.55168 -3.65794 0
M  V30 7519 C 709.697 -4.64241 -3.50508 0
M  V30 7520 N 708.673 -3.95254 -3.73196 0
M  V30 7521 H 712.475 -2.4195 -1.66845 0
M  V30 7522 H 709.989 -1.3915 -0.837326 0
M  V30 7523 H 711.986 -1.41816 -3.92038 0
M  V30 7524 H 710.646 -0.479108 -3.21146 0
M  V30 7525 H 711.657 -4.17345 -3.06665 0
M  V30 7526 H 708.334 -1.70276 -3.81198 0
M  V30 7527 H 709.724 -5.73267 -3.50449 0
M  V30 7528 N 712.444 0.87505 -1.31075 0
M  V30 7529 C 713.674 1.65818 -1.2324 0
M  V30 7530 C 714.082 1.8808 0.205536 0
M  V30 7531 O 713.425 1.43548 1.14628 0
M  V30 7532 C 713.487 3.05131 -1.90093 0
M  V30 7533 C 713.151 3.05999 -3.39432 0
M  V30 7534 C 714.148 2.84328 -4.35263 0
M  V30 7535 C 711.833 3.27281 -3.81041 0
M  V30 7536 C 713.827 2.83912 -5.70678 0
M  V30 7537 C 711.514 3.26493 -5.16571 0
M  V30 7538 C 712.512 3.04834 -6.112 0
M  V30 7539 O 712.2 3.03882 -7.44252 0
M  V30 7540 H 711.932 0.52387 -0.427242 0
M  V30 7541 H 714.486 1.10086 -1.73408 0
M  V30 7542 H 712.716 3.62568 -1.34468 0
M  V30 7543 H 714.405 3.65641 -1.76242 0
M  V30 7544 H 715.171 2.67673 -4.04445 0
M  V30 7545 H 711.05 3.43171 -3.07822 0
M  V30 7546 H 714.594 2.66925 -6.44513 0
M  V30 7547 H 710.491 3.42687 -5.47025 0
M  V30 7548 H 711.259 3.19979 -7.53363 0
M  V30 7549 N 713.922 1.13953 1.08869 0
M  V30 7550 C 715.168 0.916103 1.81602 0
M  V30 7551 C 715.523 -0.551633 1.84322 0
M  V30 7552 O 714.816 -1.40322 1.30462 0
M  V30 7553 C 715.01 1.44495 3.26888 0
M  V30 7554 C 714.839 2.96257 3.38322 0
M  V30 7555 C 713.609 3.64658 3.49789 0
M  V30 7556 C 715.807 3.94156 3.30372 0
M  V30 7557 N 713.789 5.04379 3.49965 0
M  V30 7558 C 715.16 5.20101 3.37484 0
M  V30 7559 C 717.215 3.86342 3.14077 0
M  V30 7560 C 715.918 6.39145 3.29979 0
M  V30 7561 C 717.944 5.04927 3.07901 0
M  V30 7562 C 717.306 6.29738 3.1561 0
M  V30 7563 H 713.405 0.388701 0.678554 0
M  V30 7564 H 715.989 1.44879 1.3007 0
M  V30 7565 H 714.16 0.939102 3.76876 0
M  V30 7566 H 715.892 1.16193 3.87661 0
M  V30 7567 H 712.647 3.15196 3.5348 0
M  V30 7568 H 713.071 5.77305 3.53622 0
M  V30 7569 H 717.713 2.90726 3.06982 0
M  V30 7570 H 715.431 7.3501 3.35836 0
M  V30 7571 H 719.017 5.00626 2.9642 0
M  V30 7572 H 717.897 7.19958 3.10854 0
M  V30 7573 N 715.4 -1.26948 0.933913 0
M  V30 7574 C 716.816 -1.46419 0.635103 0
M  V30 7575 C 717.016 -1.84336 -0.813785 0
M  V30 7576 O 716.072 -1.96061 -1.59111 0
M  V30 7577 C 717.385 -2.55206 1.5903 0
M  V30 7578 C 718.933 -2.69062 1.5992 0
M  V30 7579 C 719.408 -3.81013 2.54152 0
M  V30 7580 N 720.899 -3.88395 2.52395 0
M  V30 7581 C 721.634 -4.74454 3.21996 0
M  V30 7582 N 721.13 -5.64954 4.00997 0
M  V30 7583 N 722.923 -4.68237 3.10983 0
M  V30 7584 H 715.074 -1.00622 1.87053 0
M  V30 7585 H 717.337 -0.503189 0.803433 0
M  V30 7586 H 717.043 -2.34153 2.62422 0
M  V30 7587 H 716.917 -3.52719 1.33677 0
M  V30 7588 H 719.304 -2.89492 0.572569 0
M  V30 7589 H 719.385 -1.72016 1.89325 0
M  V30 7590 H 719.029 -3.61336 3.5693 0
M  V30 7591 H 718.959 -4.77499 2.22041 0
M  V30 7592 H 721.45 -3.23687 1.95025 0
M  V30 7593 H 721.763 -6.27496 4.51074 0
M  V30 7594 H 720.108 -5.6473 4.05099 0
M  V30 7595 H 723.299 -3.96535 2.48753 0
M  V30 7596 H 723.472 -5.35087 3.65494 0
M  V30 7597 N 716.879 -0.700114 -1.41195 0
M  V30 7598 C 718.126 -0.233006 -2.01155 0
M  V30 7599 C 718.454 1.16883 -1.55462 0
M  V30 7600 O 717.709 1.80395 -0.758695 0
M  V30 7601 C 718.008 -0.243986 -3.56566 0
M  V30 7602 C 717.674 -1.59397 -4.21786 0
M  V30 7603 C 716.336 -1.96355 -4.39316 0
M  V30 7604 C 718.688 -2.48192 -4.58312 0
M  V30 7605 C 716.016 -3.21683 -4.9065 0
M  V30 7606 C 718.368 -3.72857 -5.11039 0
M  V30 7607 C 717.032 -4.09951 -5.26779 0
M  V30 7608 H 716.302 -0.085263 -0.736078 0
M  V30 7609 H 718.949 -0.9001 -1.69028 0
M  V30 7610 H 717.254 0.506663 -3.8851 0
M  V30 7611 H 718.951 0.135031 -4.00773 0
M  V30 7612 H 715.541 -1.29654 -4.08519 0
M  V30 7613 H 719.725 -2.20918 -4.4442 0
M  V30 7614 H 714.981 -3.50412 -5.01021 0
M  V30 7615 H 719.155 -4.41844 -5.38282 0
M  V30 7616 H 716.782 -5.07136 -5.66319 0
M  V30 7617 N 718.357 1.51182 -0.445186 0
M  V30 7618 C 719.768 1.86693 0.0160999 0
M  V30 7619 C 720.119 1.36183 1.4124 0
M  V30 7620 O 719.244 0.715895 2.04215 0
M  V30 7621 C 719.839 3.38781 0.0359918 0
M  V30 7622 C 718.398 3.73799 0.441715 0
M  V30 7623 C 717.545 2.74947 -0.360511 0
M  V30 7624 H 720.496 1.44294 -0.660674 0
M  V30 7625 H 720.517 3.71026 0.843813 0
M  V30 7626 H 720.029 3.75513 -0.980378 0
M  V30 7627 H 718.13 3.42659 1.4634 0
M  V30 7628 H 718.243 4.78829 0.16106 0
M  V30 7629 H 716.607 2.54047 0.182269 0
M  V30 7630 H 717.39 3.14521 -1.3759 0
M  V30 7631 N 719.835 0.176821 1.56605 0
M  V30 7632 C 720.782 -0.751312 2.18229 0
M  V30 7633 C 721.752 -1.22297 1.12395 0
M  V30 7634 O 722.937 -1.29015 1.40569 0
M  V30 7635 C 720.077 -1.97291 2.83143 0
M  V30 7636 C 719.19 -1.54431 4.03454 0
M  V30 7637 C 718.325 -2.72 4.56278 0
M  V30 7638 C 717.364 -2.25657 5.68986 0
M  V30 7639 N 716.501 -3.36338 6.16296 0
M  V30 7640 H 721.341 -0.219033 2.97194 0
M  V30 7641 H 718.878 -0.0963803 1.46784 0
M  V30 7642 H 720.836 -2.68949 3.1894 0
M  V30 7643 H 719.466 -2.4788 2.06773 0
M  V30 7644 H 718.518 -0.724273 3.73441 0
M  V30 7645 H 719.83 -1.16417 4.85024 0
M  V30 7646 H 718.984 -3.51806 4.94285 0
M  V30 7647 H 717.723 -3.13277 3.73777 0
M  V30 7648 H 716.728 -1.44299 5.30526 0
M  V30 7649 H 717.953 -1.85432 6.53293 0
M  V30 7650 H 715.899 -3.7718 5.36723 0
M  V30 7651 H 715.816 -3.02435 6.9287 0
M  V30 7652 H 717.084 -4.16413 6.58954 0
M  V30 7653 N 721.313 -1.57302 -0.09688 0
M  V30 7654 C 722.261 -2.02942 -1.13654 0
M  V30 7655 C 723.255 -0.930173 -1.41577 0
M  V30 7656 O 724.461 -1.11535 -1.41279 0
M  V30 7657 H 720.836 -0.646726 -0.383731 0
M  V30 7658 H 722.807 -2.89452 -0.725267 0
M  V30 7659 C 721.556 -2.46815 -2.44903 0
M  V30 7660 H 720.879 -3.30979 -2.24261 0
M  V30 7661 H 722.319 -2.82527 -3.16156 0
M  V30 7662 C 720.778 -1.34071 -3.09074 0
M  V30 7663 O 721.308 -0.668856 -3.96092 0
M  V30 7664 N 719.514 -1.09214 -2.69296 0
M  V30 7665 H 719.061 -1.64029 -1.98626 0
M  V30 7666 H 719.019 -0.339785 -3.12559 0
M  V30 7667 N 722.791 0.367657 -1.53252 0
M  V30 7668 C 724.016 1.13566 -1.73544 0
M  V30 7669 C 724.441 1.82329 -0.462344 0
M  V30 7670 O 723.799 1.71655 0.583472 0
M  V30 7671 C 723.847 2.14322 -2.89997 0
M  V30 7672 O 722.951 3.21359 -2.58461 0
M  V30 7673 H 722.292 0.329614 -0.576412 0
M  V30 7674 H 724.822 0.425417 -2.00128 0
M  V30 7675 H 724.832 2.57958 -3.16104 0
M  V30 7676 H 723.507 1.63664 -3.82344 0
M  V30 7677 H 722.084 2.8271 -2.43165 0
M  V30 7678 N 724.269 1.44576 0.627338 0
M  V30 7679 C 725.518 1.46837 1.38281 0
M  V30 7680 C 725.831 0.10635 1.95311 0
M  V30 7681 O 727.037 0.00651084 2.71499 0
M  V30 7682 C 725.493 2.58527 2.50384 0
M  V30 7683 C 725.101 4.00953 1.99851 0
M  V30 7684 C 726.845 2.70013 3.27557 0
M  V30 7685 C 724.752 5.0406 3.09318 0
M  V30 7686 H 723.682 0.546319 0.519664 0
M  V30 7687 H 726.333 1.70654 0.674497 0
M  V30 7688 H 724.715 2.27957 3.23808 0
M  V30 7689 H 725.889 4.41108 1.33267 0
M  V30 7690 H 724.204 3.93743 1.35482 0
M  V30 7691 H 726.801 3.44217 4.09168 0
M  V30 7692 H 727.144 1.75961 3.77284 0
M  V30 7693 H 727.677 3.00011 2.61224 0
M  V30 7694 H 724.416 5.99753 2.6453 0
M  V30 7695 H 723.936 4.68493 3.74532 0
M  V30 7696 H 725.615 5.2793 3.74031 0
M  V30 7697 N 725.747 -0.868086 1.31537 0
M  V30 7698 C 726.694 -1.97548 1.19346 0
M  V30 7699 C 727.664 -1.65913 0.0787922 0
M  V30 7700 O 728.849 -1.89129 0.251985 0
M  V30 7701 C 725.989 -3.32922 0.908692 0
M  V30 7702 C 725.102 -3.77141 2.10687 0
M  V30 7703 C 724.237 -5.01241 1.75873 0
M  V30 7704 C 723.276 -5.37914 2.92088 0
M  V30 7705 N 722.413 -6.53192 2.57457 0
M  V30 7706 H 727.253 -2.07307 2.14074 0
M  V30 7707 H 724.79 -1.01483 1.06487 0
M  V30 7708 H 726.748 -4.10867 0.724138 0
M  V30 7709 H 725.378 -3.228 -0.0017611 0
M  V30 7710 H 724.43 -2.94961 2.40213 0
M  V30 7711 H 725.742 -4.00248 2.97663 0
M  V30 7712 H 724.896 -5.86858 1.53891 0
M  V30 7713 H 723.635 -4.80041 0.86091 0
M  V30 7714 H 722.64 -4.50814 3.14717 0
M  V30 7715 H 723.865 -5.61077 3.82582 0
M  V30 7716 H 721.811 -6.33536 1.702 0
M  V30 7717 H 721.728 -6.76252 3.37963 0
M  V30 7718 H 722.996 -7.41997 2.38873 0
M  V30 7719 N 727.225 -1.14528 -1.08264 0
M  V30 7720 C 728.453 -0.937964 -1.84418 0
M  V30 7721 C 728.868 0.51357 -1.81681 0
M  V30 7722 O 728.225 1.35591 -1.22153 0
M  V30 7723 C 728.276 -1.43272 -3.31897 0
M  V30 7724 O 727.997 -2.82738 -3.34651 0
M  V30 7725 C 729.498 -1.26555 -4.24851 0
M  V30 7726 H 726.718 -0.333704 -0.582136 0
M  V30 7727 H 729.262 -1.52076 -1.36723 0
M  V30 7728 H 727.417 -0.892653 -3.76975 0
M  V30 7729 H 727.831 -3.04971 -4.26724 0
M  V30 7730 H 729.305 -1.66031 -5.26439 0
M  V30 7731 H 729.782 -0.208589 -4.38704 0
M  V30 7732 H 730.388 -1.79423 -3.856 0
M  V30 7733 N 728.703 1.26451 -0.940633 0
M  V30 7734 C 729.613 2.30128 -0.455881 0
M  V30 7735 C 730.629 1.67536 0.469867 0
M  V30 7736 O 731.805 1.98344 0.349529 0
M  V30 7737 C 728.87 3.45634 0.271648 0
M  V30 7738 C 727.931 4.23709 -0.690594 0
M  V30 7739 C 727.164 5.337 0.00231047 0
M  V30 7740 O 727.387 5.57215 1.21935 0
M  V30 7741 O 726.321 5.98091 -0.676111 0
M  V30 7742 H 730.147 2.73655 -1.31707 0
M  V30 7743 H 727.732 1.3164 -0.706497 0
M  V30 7744 H 729.614 4.15853 0.681486 0
M  V30 7745 H 728.289 3.04138 1.10824 0
M  V30 7746 H 727.196 3.55974 -1.15037 0
M  V30 7747 H 728.529 4.68953 -1.49478 0
M  V30 7748 N 730.181 0.707592 1.40822 0
M  V30 7749 C 731.592 0.317011 1.83989 0
M  V30 7750 C 731.943 -1.14697 1.59182 0
M  V30 7751 O 731.068 -1.8818 1.06852 0
M  V30 7752 C 731.663 0.568593 3.33995 0
M  V30 7753 C 730.222 0.231804 3.75686 0
M  V30 7754 C 729.369 0.844933 2.64114 0
M  V30 7755 H 732.32 0.907349 1.30203 0
M  V30 7756 H 732.341 -0.168798 3.80125 0
M  V30 7757 H 731.853 1.63417 3.52018 0
M  V30 7758 H 729.954 -0.82903 3.6326 0
M  V30 7759 H 730.067 0.695219 4.74029 0
M  V30 7760 H 728.431 0.273588 2.53226 0
M  V30 7761 H 729.214 1.91462 2.84951 0
M  V30 7762 N 731.66 -1.50943 0.453197 0
M  V30 7763 C 732.937 -1.94872 -0.168633 0
M  V30 7764 C 733.317 -1.39272 -1.5864 0
M  V30 7765 O 732.665 -0.586272 -2.20851 0
M  V30 7766 C 732.875 -3.48757 -0.130217 0
M  V30 7767 C 734.223 -4.23331 -0.327975 0
M  V30 7768 O 735.247 -3.55594 -0.207619 0
M  V30 7769 O 734.106 -5.43529 -0.569077 0
M  V30 7770 H 731.2 -0.818042 -0.121394 0
M  V30 7771 H 733.746 -1.61782 0.512316 0
M  V30 7772 H 732.518 -3.81725 0.860346 0
M  V30 7773 H 732.141 -3.88333 -0.853397 0
M  V30 7774 N 733.138 -0.185124 -1.56509 0
M  V30 7775 C 734.101 0.72591 -2.17401 0
M  V30 7776 C 735.101 1.14819 -1.12575 0
M  V30 7777 O 736.291 1.0629 -1.38015 0
M  V30 7778 C 733.423 1.98979 -2.76803 0
M  V30 7779 H 734.616 0.195588 -2.99262 0
M  V30 7780 H 732.169 0.0644772 -1.56167 0
M  V30 7781 H 732.904 2.56287 -1.98714 0
M  V30 7782 H 732.689 1.69583 -3.53531 0
M  V30 7783 H 734.179 2.63966 -3.23592 0
M  V30 7784 N 734.616 1.57351 0.0885366 0
M  V30 7785 C 736.027 1.75303 0.642308 0
M  V30 7786 C 736.378 0.808238 1.78779 0
M  V30 7787 O 735.503 -0.01171 2.16397 0
M  V30 7788 C 736.098 3.17885 1.17194 0
M  V30 7789 C 734.657 3.37239 1.67172 0
M  V30 7790 C 733.804 2.7108 0.584045 0
M  V30 7791 H 736.755 1.58103 -0.137567 0
M  V30 7792 H 736.776 3.2112 2.04114 0
M  V30 7793 H 736.288 3.86625 0.338024 0
M  V30 7794 H 734.389 2.73588 2.52943 0
M  V30 7795 H 734.502 4.45594 1.76019 0
M  V30 7796 H 732.866 2.33161 1.02508 0
M  V30 7797 H 733.649 3.42464 -0.239403 0
M  V30 7798 N 736.094 -0.359525 1.53444 0
M  V30 7799 C 737.026 -1.46098 1.76602 0
M  V30 7800 C 738.039 -1.49395 0.646912 0
M  V30 7801 O 739.228 -1.52765 0.923307 0
M  V30 7802 C 736.328 -2.84836 1.83635 0
M  V30 7803 C 735.501 -3.05164 3.13358 0
M  V30 7804 C 734.56 -4.24051 3.11556 0
M  V30 7805 O 733.586 -4.18935 3.85334 0
M  V30 7806 N 734.788 -5.31775 2.328 0
M  V30 7807 H 737.553 -1.2661 2.71643 0
M  V30 7808 H 735.114 -0.549294 1.52297 0
M  V30 7809 H 737.106 -3.62516 1.799 0
M  V30 7810 H 735.676 -2.97542 0.958509 0
M  V30 7811 H 734.896 -2.15091 3.30348 0
M  V30 7812 H 736.184 -3.15619 3.99076 0
M  V30 7813 H 735.582 -5.38796 1.7238 0
M  V30 7814 H 734.139 -6.0801 2.34877 0
M  V30 7815 N 737.572 -1.44907 -0.619662 0
M  V30 7816 C 738.983 -1.42905 -1.20146 0
M  V30 7817 C 739.334 -0.150341 -1.95623 0
M  V30 7818 O 738.459 0.748732 -2.03034 0
M  V30 7819 C 739.054 -2.58889 -2.18545 0
M  V30 7820 C 737.613 -2.60046 -2.72127 0
M  V30 7821 C 736.76 -2.3493 -1.4732 0
M  V30 7822 H 739.711 -1.53321 -0.409666 0
M  V30 7823 H 739.732 -2.32298 -3.0136 0
M  V30 7824 H 739.244 -3.51941 -1.63583 0
M  V30 7825 H 737.345 -1.70968 -3.3106 0
M  V30 7826 H 737.458 -3.58893 -3.17384 0
M  V30 7827 H 735.822 -1.84248 -1.75855 0
M  V30 7828 H 736.605 -3.3011 -0.942442 0
M  V30 7829 N 739.05 0.861098 -1.31996 0
M  V30 7830 C 739.983 1.97266 -1.14724 0
M  V30 7831 C 740.961 1.62528 -0.0483789 0
M  V30 7832 O 742.145 1.87366 -0.206478 0
M  V30 7833 C 739.272 3.30181 -0.754861 0
M  V30 7834 C 738.318 3.839 -1.85804 0
M  V30 7835 S 739.151 4.08274 -3.46515 0
M  V30 7836 C 740.307 5.44174 -3.09235 0
M  V30 7837 H 740.54 2.11614 -2.08822 0
M  V30 7838 H 738.073 1.01232 -1.16582 0
M  V30 7839 H 740.031 4.06996 -0.535232 0
M  V30 7840 H 738.692 3.13655 0.167155 0
M  V30 7841 H 737.885 4.80013 -1.53633 0
M  V30 7842 H 737.487 3.13907 -2.03318 0
M  V30 7843 H 739.779 6.26172 -2.58679 0
M  V30 7844 H 740.722 5.81301 -4.04345 0
M  V30 7845 H 741.13 5.0787 -2.46431 0
M  V30 7846 N 740.528 1.15101 1.07655 0
M  V30 7847 C 741.776 0.922149 1.79836 0
M  V30 7848 C 742.097 -0.552346 1.87014 0
M  V30 7849 O 741.367 -1.40145 1.3688 0
M  V30 7850 H 739.947 0.338182 0.666064 0
M  V30 7851 H 742.609 1.45107 1.30115 0
M  V30 7852 H 741.705 1.32883 2.82398 0
M  V30 7853 N 742.006 -1.2595 0.947325 0
M  V30 7854 C 743.417 -1.75389 0.639963 0
M  V30 7855 C 743.768 -1.77081 -0.844788 0
M  V30 7856 O 742.893 -1.3869 -1.66114 0
M  V30 7857 C 743.488 -3.18506 1.15496 0
M  V30 7858 C 742.047 -3.65534 0.897894 0
M  V30 7859 C 741.194 -2.44818 1.30228 0
M  V30 7860 H 744.145 -1.1194 1.12495 0
M  V30 7861 H 744.166 -3.77045 0.511627 0
M  V30 7862 H 743.678 -3.17243 2.23559 0
M  V30 7863 H 741.779 -3.72221 -0.168096 0
M  V30 7864 H 741.892 -4.54039 1.52922 0
M  V30 7865 H 740.256 -2.44291 0.720678 0
M  V30 7866 H 741.039 -2.46251 2.39198 0
M  V30 7867 N 743.484 -0.715051 -1.40445 0
M  V30 7868 C 744.432 -0.0509974 -2.32544 0
M  V30 7869 C 745.426 0.747602 -1.52011 0
M  V30 7870 O 746.632 0.651031 -1.67814 0
M  V30 7871 H 743.007 0.00231113 -0.751996 0
M  V30 7872 H 744.978 -0.84449 -2.86201 0
M  V30 7873 C 743.727 0.857101 -3.3697 0
M  V30 7874 H 743.05 0.252 -3.99005 0
M  V30 7875 H 744.49 1.28971 -4.03909 0
M  V30 7876 C 742.949 1.98231 -2.72408 0
M  V30 7877 O 743.479 3.07309 -2.58697 0
M  V30 7878 N 741.685 1.76577 -2.308 0
M  V30 7879 H 741.232 0.878641 -2.42152 0
M  V30 7880 H 741.19 2.52043 -1.87941 0
M  V30 7881 N 744.962 1.50701 -0.461195 0
M  V30 7882 C 746.208 2.03203 0.0895017 0
M  V30 7883 C 746.563 1.33768 1.38289 0
M  V30 7884 O 745.856 0.451304 1.86209 0
M  V30 7885 C 746.05 3.55788 0.33908 0
M  V30 7886 C 745.879 4.40009 -0.928571 0
M  V30 7887 C 744.649 4.83475 -1.46903 0
M  V30 7888 C 746.847 4.80972 -1.82129 0
M  V30 7889 N 744.829 5.51985 -2.68673 0
M  V30 7890 C 746.2 5.48792 -2.88491 0
M  V30 7891 C 748.255 4.62937 -1.83285 0
M  V30 7892 C 746.958 6.00489 -3.95987 0
M  V30 7893 C 748.984 5.15568 -2.89731 0
M  V30 7894 C 748.346 5.83355 -3.94812 0
M  V30 7895 H 744.445 0.781968 -0.00702462 0
M  V30 7896 H 747.029 1.84321 -0.627195 0
M  V30 7897 H 745.2 3.74636 1.02481 0
M  V30 7898 H 746.932 3.94944 0.883242 0
M  V30 7899 H 743.687 4.62495 -1.01959 0
M  V30 7900 H 744.111 5.90854 -3.30486 0
M  V30 7901 H 748.753 4.0997 -1.03366 0
M  V30 7902 H 746.471 6.52499 -4.7673 0
M  V30 7903 H 750.057 5.0345 -2.91597 0
M  V30 7904 H 748.937 6.23347 -4.75824 0
M  V30 7905 N 746.441 0.193421 1.56409 0
M  V30 7906 C 747.371 -0.723334 2.22014 0
M  V30 7907 C 748.352 -1.22254 1.1827 0
M  V30 7908 O 749.537 -1.27168 1.46771 0
M  V30 7909 C 746.667 -1.94366 2.87818 0
M  V30 7910 C 745.621 -1.57943 3.97791 0
M  V30 7911 C 744.947 -2.87623 4.50752 0
M  V30 7912 C 746.247 -0.790639 5.16281 0
M  V30 7913 H 747.941 -0.176426 2.9888 0
M  V30 7914 H 745.487 -0.0834166 1.43758 0
M  V30 7915 H 747.44 -2.5902 3.32396 0
M  V30 7916 H 746.164 -2.51507 2.08355 0
M  V30 7917 H 744.823 -0.956482 3.53903 0
M  V30 7918 H 744.471 -3.4285 3.68053 0
M  V30 7919 H 744.171 -2.63998 5.24956 0
M  V30 7920 H 745.695 -3.53268 4.9803 0
M  V30 7921 H 747.109 -1.34024 5.57414 0
M  V30 7922 H 745.506 -0.65258 5.96541 0
M  V30 7923 H 746.576 0.208633 4.84451 0
M  V30 7924 N 747.919 -1.57396 -0.0801906 0
M  V30 7925 C 749.196 -1.77883 -0.813451 0
M  V30 7926 C 749.576 -0.778879 -1.96206 0
M  V30 7927 O 748.924 0.189683 -2.27711 0
M  V30 7928 C 749.134 -3.24116 -1.2942 0
M  V30 7929 C 750.482 -3.87714 -1.73098 0
M  V30 7930 O 751.506 -3.27956 -1.39007 0
M  V30 7931 O 750.365 -4.92828 -2.36184 0
M  V30 7932 H 747.459 -0.729727 -0.389138 0
M  V30 7933 H 750.005 -1.69591 -0.0609166 0
M  V30 7934 H 748.777 -3.88443 -0.471947 0
M  V30 7935 H 748.4 -3.371 -2.1083 0
M  V30 7936 N 749.397 0.351382 -1.53633 0
M  V30 7937 C 750.637 1.10102 -1.72212 0
M  V30 7938 C 751.001 1.86128 -0.471198 0
M  V30 7939 O 752.202 2.63445 -0.533887 0
M  V30 7940 C 750.473 2.02348 -2.94602 0
M  V30 7941 S 752.032 2.84641 -3.33954 0
M  V30 7942 H 748.85 0.372145 -0.60583 0
M  V30 7943 H 751.452 0.38044 -1.91763 0
M  V30 7944 H 750.156 1.45283 -3.83824 0
M  V30 7945 H 749.687 2.78856 -2.77493 0
M  V30 7946 H 751.702 4.04724 -2.87076 0
M  V30 7947 N 750.875 1.45233 0.611969 0
M  V30 7948 C 752.286 1.4354 1.19387 0
M  V30 7949 C 752.637 0.160713 1.95541 0
M  V30 7950 O 751.762 -0.737954 2.03429 0
M  V30 7951 C 752.357 2.60045 2.17169 0
M  V30 7952 C 750.916 2.61486 2.70744 0
M  V30 7953 C 750.063 2.35708 1.46072 0
M  V30 7954 H 753.014 1.53536 0.401529 0
M  V30 7955 H 753.035 2.33893 3.00124 0
M  V30 7956 H 752.547 3.52803 1.61714 0
M  V30 7957 H 750.648 1.72721 3.30149 0
M  V30 7958 H 750.761 3.60572 3.15476 0
M  V30 7959 H 749.125 1.85178 1.74875 0
M  V30 7960 H 749.908 3.30606 0.924922 0
M  V30 7961 N 752.353 -0.854086 1.3245 0
M  V30 7962 C 753.316 -1.94427 1.21371 0
M  V30 7963 C 754.316 -1.60219 0.136613 0
M  V30 7964 O 755.506 -1.69846 0.387057 0
M  V30 7965 C 752.638 -3.29698 0.866701 0
M  V30 7966 H 753.831 -2.05679 2.18257 0
M  V30 7967 H 751.384 -1.04434 1.1629 0
M  V30 7968 H 752.119 -3.24145 -0.100319 0
M  V30 7969 H 751.904 -3.55903 1.64545 0
M  V30 7970 H 753.394 -4.09599 0.813515 0
M  V30 7971 N 753.831 -1.1567 -1.07043 0
M  V30 7972 C 755.242 -0.942408 -1.61169 0
M  V30 7973 C 755.593 0.515537 -1.89306 0
M  V30 7974 O 754.718 1.38726 -1.66084 0
M  V30 7975 C 755.313 -1.70431 -2.92812 0
M  V30 7976 C 753.872 -1.53521 -3.43669 0
M  V30 7977 C 753.019 -1.7179 -2.17678 0
M  V30 7978 H 755.97 -1.3065 -0.9009 0
M  V30 7979 H 755.991 -1.17566 -3.61882 0
M  V30 7980 H 755.503 -2.76538 -2.72302 0
M  V30 7981 H 753.604 -0.498224 -3.69254 0
M  V30 7982 H 753.717 -2.31422 -4.19501 0
M  V30 7983 H 752.081 -1.14468 -2.27529 0
M  V30 7984 H 752.864 -2.79269 -1.99659 0
M  V30 7985 N 755.309 1.25446 -0.953992 0
M  V30 7986 C 756.534 1.97755 -0.625129 0
M  V30 7987 C 756.959 1.70437 0.795787 0
M  V30 7988 O 756.317 0.95992 1.53803 0
M  V30 7989 C 756.365 3.49463 -0.889251 0
M  V30 7990 O 755.469 4.12387 0.0322757 0
M  V30 7991 H 754.81 0.61998 -0.237742 0
M  V30 7992 H 757.34 1.59582 -1.28041 0
M  V30 7993 H 757.35 3.99772 -0.815263 0
M  V30 7994 H 756.025 3.68676 -1.92487 0
M  V30 7995 H 754.602 3.72782 -0.0938625 0
M  V30 7996 N 756.787 0.722489 1.40064 0
M  V30 7997 C 758.012 0.273446 2.05589 0
M  V30 7998 C 758.437 -1.07875 1.54093 0
M  V30 7999 O 757.795 -1.68095 0.679252 0
M  V30 8000 C 757.843 0.271023 3.5958 0
M  V30 8001 O 756.947 -0.745499 4.05606 0
M  V30 8002 H 756.288 0.126856 0.65177 0
M  V30 8003 H 758.818 0.984906 1.79334 0
M  V30 8004 H 758.828 0.111084 4.07849 0
M  V30 8005 H 757.503 1.25776 3.96425 0
M  V30 8006 H 756.08 -0.552719 3.68781 0
M  V30 8007 N 758.265 -1.50454 0.469181 0
M  V30 8008 C 759.513 -2.01916 -0.0862982 0
M  V30 8009 C 759.834 -1.35337 -1.40388 0
M  V30 8010 O 759.104 -0.498096 -1.89462 0
M  V30 8011 H 757.684 -0.746185 -0.0348825 0
M  V30 8012 H 760.346 -1.84804 0.619167 0
M  V30 8013 H 759.442 -3.11182 -0.239189 0
M  V30 8014 N 759.743 -0.201713 -1.56304 0
M  V30 8015 C 761.154 0.309711 -1.84113 0
M  V30 8016 C 761.505 1.60912 -1.12258 0
M  V30 8017 O 760.63 2.12937 -0.385587 0
M  V30 8018 C 761.225 0.568706 -3.33993 0
M  V30 8019 C 759.784 1.02448 -3.6219 0
M  V30 8020 C 758.931 0.0766842 -2.77194 0
M  V30 8021 H 761.882 -0.425356 -1.52893 0
M  V30 8022 H 761.903 1.41721 -3.53122 0
M  V30 8023 H 761.415 -0.37719 -3.86263 0
M  V30 8024 H 759.516 1.98443 -3.15359 0
M  V30 8025 H 759.629 0.912619 -4.70328 0
M  V30 8026 H 757.993 0.579809 -2.48013 0
M  V30 8027 H 758.776 -0.863774 -3.32256 0
M  V30 8028 N 761.222 1.57436 0.0718424 0
M  V30 8029 C 762.638 1.53792 0.426628 0
M  V30 8030 C 762.838 0.921887 1.79174 0
M  V30 8031 O 761.894 0.524374 2.46995 0
M  V30 8032 C 763.207 2.98443 0.367739 0
M  V30 8033 C 764.755 3.09778 0.447928 0
M  V30 8034 C 765.23 4.5608 0.418946 0
M  V30 8035 N 766.721 4.60716 0.479022 0
M  V30 8036 C 767.456 5.71397 0.47881 0
M  V30 8037 N 766.952 6.91443 0.433417 0
M  V30 8038 N 768.745 5.59639 0.525364 0
M  V30 8039 H 760.896 1.95848 -0.822033 0
M  V30 8040 H 763.159 0.896418 -0.308447 0
M  V30 8041 H 762.865 3.47072 -0.56865 0
M  V30 8042 H 762.739 3.58335 1.17795 0
M  V30 8043 H 765.126 2.61122 1.37474 0
M  V30 8044 H 765.207 2.52796 -0.390857 0
M  V30 8045 H 764.851 5.05393 -0.504016 0
M  V30 8046 H 764.781 5.10925 1.27526 0
M  V30 8047 H 767.272 3.74328 0.518355 0
M  V30 8048 H 767.585 7.71562 0.43718 0
M  V30 8049 H 765.93 6.93847 0.400106 0
M  V30 8050 H 769.121 4.64756 0.558519 0
M  V30 8051 H 769.294 6.45896 0.52173 0
M  V30 8052 N 762.7 -0.34323 1.53817 0
M  V30 8053 C 763.663 -1.40444 1.8113 0
M  V30 8054 C 764.663 -1.45604 0.682366 0
M  V30 8055 O 765.853 -1.45974 0.950649 0
M  V30 8056 C 762.985 -2.79369 1.95361 0
M  V30 8057 H 764.178 -1.17489 2.75928 0
M  V30 8058 H 761.731 -0.577636 1.45234 0
M  V30 8059 H 762.466 -3.07607 1.02707 0
M  V30 8060 H 762.251 -2.7702 2.77493 0
M  V30 8061 H 763.741 -3.56178 2.18008 0
M  V30 8062 N 764.178 -1.45556 -0.604258 0
M  V30 8063 C 765.589 -1.44171 -1.18624 0
M  V30 8064 C 765.94 -0.171081 -1.95453 0
M  V30 8065 O 765.065 0.727156 -2.03817 0
M  V30 8066 C 765.66 -2.61193 -2.15786 0
M  V30 8067 C 764.219 -2.62918 -2.69353 0
M  V30 8068 C 763.366 -2.36479 -1.4482 0
M  V30 8069 H 766.317 -1.53747 -0.393381 0
M  V30 8070 H 766.338 -2.35481 -2.98879 0
M  V30 8071 H 765.85 -3.53656 -1.59841 0
M  V30 8072 H 763.951 -1.7447 -3.29228 0
M  V30 8073 H 764.064 -3.6224 -3.13559 0
M  V30 8074 H 762.428 -1.86103 -1.73891 0
M  V30 8075 H 763.211 -3.31091 -0.907376 0
M  V30 8076 N 765.656 0.84705 -1.32902 0
M  V30 8077 C 767.072 1.13645 -1.12058 0
M  V30 8078 C 767.272 2.01281 0.093937 0
M  V30 8079 O 766.328 2.4026 0.776608 0
M  V30 8080 C 767.641 1.80644 -2.40392 0
M  V30 8081 C 769.189 1.93246 -2.46221 0
M  V30 8082 C 769.664 2.6366 -3.74496 0
M  V30 8083 N 771.155 2.71179 -3.75521 0
M  V30 8084 C 771.89 3.26332 -4.71482 0
M  V30 8085 N 771.386 3.82236 -5.77813 0
M  V30 8086 N 773.179 3.24507 -4.58968 0
M  V30 8087 H 765.33 0.263612 -2.10758 0
M  V30 8088 H 767.593 0.17944 -0.930863 0
M  V30 8089 H 767.299 1.23708 -3.29225 0
M  V30 8090 H 767.173 2.80736 -2.51926 0
M  V30 8091 H 769.56 2.49338 -1.57843 0
M  V30 8092 H 769.641 0.921272 -2.38634 0
M  V30 8093 H 769.285 2.08229 -4.63253 0
M  V30 8094 H 769.215 3.65234 -3.79357 0
M  V30 8095 H 771.706 2.31527 -2.9867 0
M  V30 8096 H 772.019 4.22499 -6.47082 0
M  V30 8097 H 770.364 3.80546 -5.81558 0
M  V30 8098 H 773.555 2.80085 -3.7506 0
M  V30 8099 H 773.728 3.67188 -5.33926 0
M  V30 8100 N 767.134 1.16236 1.06428 0
M  V30 8101 C 768.545 0.950942 1.60667 0
M  V30 8102 C 768.896 -0.505491 1.89576 0
M  V30 8103 O 768.021 -1.37843 1.66818 0
M  V30 8104 C 768.616 1.71982 2.91904 0
M  V30 8105 C 767.175 1.55342 3.4285 0
M  V30 8106 C 766.322 1.72942 2.16763 0
M  V30 8107 H 769.273 1.31126 0.893959 0
M  V30 8108 H 769.294 1.19483 3.61253 0
M  V30 8109 H 768.806 2.77978 2.70831 0
M  V30 8110 H 766.907 0.5178 3.68985 0
M  V30 8111 H 767.02 2.33643 4.18267 0
M  V30 8112 H 765.384 1.15673 2.26918 0
M  V30 8113 H 766.167 2.80324 1.98175 0
M  V30 8114 N 768.612 -1.24939 0.960631 0
M  V30 8115 C 770.023 -1.74701 0.658529 0
M  V30 8116 C 770.374 -1.77967 -0.825959 0
M  V30 8117 O 769.499 -1.40444 -1.64634 0
M  V30 8118 C 770.094 -3.17263 1.18867 0
M  V30 8119 C 768.653 -3.64561 0.936614 0
M  V30 8120 C 767.8 -2.43423 1.32817 0
M  V30 8121 H 770.751 -1.10741 1.13676 0
M  V30 8122 H 770.772 -3.76481 0.551589 0
M  V30 8123 H 770.284 -3.14854 2.26912 0
M  V30 8124 H 768.385 -3.72378 -0.128608 0
M  V30 8125 H 768.498 -4.52392 1.57729 0
M  V30 8126 H 766.862 -2.43513 0.746548 0
M  V30 8127 H 767.645 -2.437 2.41796 0
M  V30 8128 N 770.09 -0.729906 -1.39679 0
M  V30 8129 C 771.037 -0.0866063 -2.30637 0
M  V30 8130 C 772.007 0.735115 -1.48947 0
M  V30 8131 O 773.192 0.696125 -1.77648 0
M  V30 8132 C 770.332 0.818524 -3.35252 0
M  V30 8133 C 769.445 -0.0152635 -4.31997 0
M  V30 8134 C 768.58 0.890669 -5.2368 0
M  V30 8135 C 767.619 0.0518246 -6.12078 0
M  V30 8136 N 766.756 0.913411 -6.96133 0
M  V30 8137 H 771.596 -0.867925 -2.85081 0
M  V30 8138 H 769.133 -0.439673 -1.40376 0
M  V30 8139 H 771.091 1.3577 -3.9449 0
M  V30 8140 H 769.721 1.56587 -2.82277 0
M  V30 8141 H 768.773 -0.671794 -3.74421 0
M  V30 8142 H 770.085 -0.664086 -4.9436 0
M  V30 8143 H 769.239 1.49787 -5.87919 0
M  V30 8144 H 767.978 1.57328 -4.61627 0
M  V30 8145 H 766.983 -0.568209 -5.46856 0
M  V30 8146 H 768.208 -0.627497 -6.76195 0
M  V30 8147 H 766.154 1.58141 -6.36653 0
M  V30 8148 H 766.071 0.320952 -7.55318 0
M  V30 8149 H 767.339 1.50633 -7.64807 0
M  V30 8150 N 771.568 1.50203 -0.477153 0
M  V30 8151 C 772.531 2.27194 0.302599 0
M  V30 8152 C 773.531 1.32221 0.915112 0
M  V30 8153 O 774.721 1.55593 0.783348 0
M  V30 8154 C 771.853 3.0938 1.43167 0
M  V30 8155 H 773.046 2.97575 -0.372678 0
M  V30 8156 H 770.599 1.54578 -0.231392 0
M  V30 8157 H 771.334 2.43509 2.14182 0
M  V30 8158 H 771.119 3.79181 0.998197 0
M  V30 8159 H 772.609 3.67592 1.98157 0
M  V30 8160 N 773.046 0.209999 1.56195 0
M  V30 8161 C 774.274 -0.429996 2.02382 0
M  V30 8162 C 774.689 -1.54159 1.08998 0
M  V30 8163 O 774.046 -1.82239 0.0974856 0
M  V30 8164 C 774.097 -0.972433 3.48175 0
M  V30 8165 O 773.818 0.0948231 4.37997 0
M  V30 8166 C 775.319 -1.68683 4.09952 0
M  V30 8167 H 772.539 -0.106475 0.662498 0
M  V30 8168 H 775.083 0.323072 2.01932 0
M  V30 8169 H 773.238 -1.67582 3.49278 0
M  V30 8170 H 773.652 -0.31113 5.23576 0
M  V30 8171 H 775.126 -2.01851 5.13771 0
M  V30 8172 H 775.603 -2.59587 3.54276 0
M  V30 8173 H 776.209 -1.02893 4.12666 0
M  V30 8174 N 774.524 -1.57472 -0.0634922 0
M  V30 8175 C 775.935 -1.76303 -0.614337 0
M  V30 8176 C 776.286 -0.836578 -1.77471 0
M  V30 8177 O 775.411 -0.0227184 -2.16388 0
M  V30 8178 C 776.006 -3.19709 -1.12122 0
M  V30 8179 C 774.565 -3.39856 -1.61786 0
M  V30 8180 C 773.712 -2.71975 -0.540845 0
M  V30 8181 H 776.663 -1.57864 0.162702 0
M  V30 8182 H 776.684 -3.24326 -1.98979 0
M  V30 8183 H 776.196 -3.87114 -0.276472 0
M  V30 8184 H 774.297 -2.77578 -2.48558 0
M  V30 8185 H 774.41 -4.48338 -1.68908 0
M  V30 8186 H 772.774 -2.34763 -0.987854 0
M  V30 8187 H 773.557 -3.4204 0.293856 0
M  V30 8188 N 776.003 0.335068 -1.53997 0
M  V30 8189 C 777.249 1.07594 -1.71905 0
M  V30 8190 C 777.582 1.88039 -0.485264 0
M  V30 8191 O 776.857 1.87482 0.517752 0
M  V30 8192 C 777.14 2.01016 -2.98772 0
M  V30 8193 C 776.993 1.23977 -4.32377 0
M  V30 8194 C 778.312 3.0071 -3.21343 0
M  V30 8195 H 775.431 0.38976 -0.625505 0
M  V30 8196 H 778.073 0.353684 -1.86679 0
M  V30 8197 H 776.223 2.62603 -2.86307 0
M  V30 8198 H 777.895 0.649383 -4.56706 0
M  V30 8199 H 776.138 0.541878 -4.30402 0
M  V30 8200 H 776.809 1.92512 -5.17342 0
M  V30 8201 H 779.285 2.4924 -3.33194 0
M  V30 8202 H 778.161 3.63272 -4.11491 0
M  V30 8203 H 778.422 3.72549 -2.38033 0
M  V30 8204 N 777.481 1.45874 0.596531 0
M  V30 8205 C 778.706 1.54247 1.38646 0
M  V30 8206 C 779.131 0.179571 1.87241 0
M  V30 8207 O 778.489 -0.837831 1.6078 0
M  V30 8208 C 778.537 2.54015 2.55946 0
M  V30 8209 O 777.641 2.06561 3.5694 0
M  V30 8210 H 776.982 0.519555 0.413471 0
M  V30 8211 H 779.512 1.91327 0.724936 0
M  V30 8212 H 779.522 2.73179 3.03047 0
M  V30 8213 H 778.197 3.52994 2.19928 0
M  V30 8214 H 776.774 1.97324 3.16414 0
M  V30 8215 N 778.959 -0.83999 1.33349 0
M  V30 8216 C 779.869 -1.98182 1.25543 0
M  V30 8217 C 780.885 -1.73204 0.166208 0
M  V30 8218 O 782.061 -1.97596 0.389589 0
M  V30 8219 C 779.126 -3.32157 0.993614 0
M  V30 8220 C 778.187 -3.70258 2.17273 0
M  V30 8221 C 777.42 -4.9784 1.92331 0
M  V30 8222 O 777.643 -5.63679 0.873074 0
M  V30 8223 O 776.577 -5.33418 2.78835 0
M  V30 8224 H 780.403 -2.07708 2.21565 0
M  V30 8225 H 777.988 -0.972852 1.13384 0
M  V30 8226 H 779.87 -4.12433 0.864711 0
M  V30 8227 H 778.545 -3.23637 0.0636596 0
M  V30 8228 H 777.452 -2.90497 2.35716 0
M  V30 8229 H 778.785 -3.83442 3.08598 0
M  V30 8230 N 780.437 -1.16799 -1.0581 0
M  V30 8231 C 781.665 -0.97687 -1.82387 0
M  V30 8232 C 782.08 0.474917 -1.82729 0
M  V30 8233 O 781.437 1.3297 -1.25001 0
M  V30 8234 C 781.488 -1.50279 -3.28783 0
M  V30 8235 O 781.209 -2.89772 -3.28578 0
M  V30 8236 C 782.71 -1.35538 -4.22071 0
M  V30 8237 H 779.93 -0.345977 -0.574927 0
M  V30 8238 H 782.474 -1.54942 -1.33466 0
M  V30 8239 H 780.629 -0.972414 -3.74997 0
M  V30 8240 H 781.043 -3.13954 -4.20159 0
M  V30 8241 H 782.517 -1.7716 -5.22799 0
M  V30 8242 H 782.994 -0.301598 -4.38163 0
M  V30 8243 H 783.6 -1.87562 -3.81708 0
M  V30 8244 N 781.915 1.24427 -0.967243 0
M  V30 8245 C 783.155 1.9423 -0.636723 0
M  V30 8246 C 783.519 1.73939 0.812971 0
M  V30 8247 O 784.72 2.37773 1.25369 0
M  V30 8248 C 782.991 3.43105 -1.00067 0
M  V30 8249 S 784.55 4.31728 -0.784633 0
M  V30 8250 H 781.368 0.671527 -0.233607 0
M  V30 8251 H 783.97 1.50806 -1.2441 0
M  V30 8252 H 782.674 3.5538 -2.05264 0
M  V30 8253 H 782.205 3.91521 -0.384054 0
M  V30 8254 H 784.22 4.95046 0.338244 0
M  V30 8255 N 783.393 0.737304 1.3929 0
M  V30 8256 C 784.67 0.212464 1.94443 0
M  V30 8257 C 785.05 -1.28621 1.67391 0
M  V30 8258 O 784.398 -2.0529 1.00342 0
M  V30 8259 C 784.608 0.548565 3.44662 0
M  V30 8260 C 785.956 0.499177 4.21656 0
M  V30 8261 O 786.98 0.485892 3.5287 0
M  V30 8262 O 785.839 0.495739 5.44247 0
M  V30 8263 H 782.933 0.0395457 0.826054 0
M  V30 8264 H 785.479 0.816319 1.48776 0
M  V30 8265 H 784.251 1.58426 3.57795 0
M  V30 8266 H 783.874 -0.0841399 3.97511 0
M  V30 8267 N 784.871 -1.49948 0.485112 0
M  V30 8268 C 786.111 -2.04301 -0.0635728 0
M  V30 8269 C 786.475 -1.35804 -1.35725 0
M  V30 8270 O 787.676 -1.80789 -1.98919 0
M  V30 8271 C 785.947 -3.56666 -0.228962 0
M  V30 8272 S 787.506 -4.32614 -0.734185 0
M  V30 8273 H 784.324 -0.710939 -0.00931895 0
M  V30 8274 H 786.926 -1.84185 0.655455 0
M  V30 8275 H 785.63 -4.04068 0.718148 0
M  V30 8276 H 785.161 -3.8116 -0.973696 0
M  V30 8277 H 787.176 -4.53859 -2.00565 0
M  V30 8278 N 786.349 -0.21828 -1.56081 0
M  V30 8279 C 787.281 0.725447 -2.17416 0
M  V30 8280 C 788.294 1.15995 -1.14233 0
M  V30 8281 O 789.483 1.09166 -1.41227 0
M  V30 8282 C 786.583 1.99401 -2.7403 0
M  V30 8283 C 785.756 1.7156 -4.02351 0
M  V30 8284 C 784.815 2.8309 -4.43561 0
M  V30 8285 O 783.841 2.51701 -5.10525 0
M  V30 8286 N 785.043 4.11972 -4.08973 0
M  V30 8287 H 787.808 0.200801 -2.99027 0
M  V30 8288 H 785.369 -0.0371514 -1.61857 0
M  V30 8289 H 787.361 2.73198 -2.98571 0
M  V30 8290 H 785.931 2.42923 -1.96742 0
M  V30 8291 H 785.151 0.814233 -3.85699 0
M  V30 8292 H 786.439 1.50385 -4.86068 0
M  V30 8293 H 785.837 4.40319 -3.55156 0
M  V30 8294 H 784.394 4.82323 -4.38415 0
M  V30 8295 N 787.827 1.57504 0.0551401 0
M  V30 8296 C 789.067 1.89895 0.756252 0
M  V30 8297 C 789.431 0.813983 1.73892 0
M  V30 8298 O 790.632 1.02145 2.48636 0
M  V30 8299 C 788.903 3.27494 1.43116 0
M  V30 8300 S 790.462 3.81669 2.16504 0
M  V30 8301 H 787.28 0.665173 0.251129 0
M  V30 8302 H 789.882 1.95496 0.0117193 0
M  V30 8303 H 788.586 4.04345 0.702391 0
M  V30 8304 H 788.117 3.25132 2.21479 0
M  V30 8305 H 790.132 3.58295 3.43277 0
M  V30 8306 N 789.305 -0.326896 1.54172 0
M  V30 8307 C 790.215 -1.42525 1.86343 0
M  V30 8308 C 791.231 -1.56764 0.75505 0
M  V30 8309 O 792.407 -1.71924 1.04901 0
M  V30 8310 C 789.472 -2.77286 2.08119 0
M  V30 8311 C 788.533 -2.7225 3.31931 0
M  V30 8312 C 787.766 -4.00584 3.52659 0
M  V30 8313 O 787.989 -4.98686 2.76891 0
M  V30 8314 O 786.923 -4.04045 4.46129 0
M  V30 8315 H 790.749 -1.18249 2.79734 0
M  V30 8316 H 788.334 -0.520614 1.40036 0
M  V30 8317 H 790.216 -3.57065 2.23791 0
M  V30 8318 H 788.891 -3.01459 1.17917 0
M  V30 8319 H 787.798 -1.91033 3.21647 0
M  V30 8320 H 789.131 -2.53032 4.2218 0
M  V30 8321 N 790.784 -1.46188 -0.588786 0
M  V30 8322 C 791.714 -1.59148 -1.70863 0
M  V30 8323 C 792.695 -0.442083 -1.64255 0
M  V30 8324 O 793.88 -0.667575 -1.82365 0
M  V30 8325 C 791.01 -1.5757 -3.09498 0
M  V30 8326 C 789.964 -2.71418 -3.30932 0
M  V30 8327 C 789.29 -2.549 -4.70032 0
M  V30 8328 C 790.59 -4.1329 -3.19356 0
M  V30 8329 H 792.284 -2.52889 -1.60274 0
M  V30 8330 H 789.83 -1.21707 -0.769638 0
M  V30 8331 H 791.783 -1.65231 -3.87655 0
M  V30 8332 H 790.507 -0.603705 -3.20972 0
M  V30 8333 H 789.166 -2.63216 -2.55172 0
M  V30 8334 H 788.814 -1.55797 -4.78264 0
M  V30 8335 H 788.514 -3.31257 -4.85327 0
M  V30 8336 H 790.038 -2.64443 -5.50366 0
M  V30 8337 H 791.452 -4.22636 -3.87365 0
M  V30 8338 H 789.849 -4.90187 -3.46175 0
M  V30 8339 H 790.919 -4.33874 -2.16522 0
M  V30 8340 N 792.262 0.832906 -1.33792 0
M  V30 8341 C 793.21 1.96455 -1.24532 0
M  V30 8342 C 794.204 1.68774 -0.145455 0
M  V30 8343 O 795.41 1.77314 -0.309797 0
M  V30 8344 H 791.785 0.645008 -0.386611 0
M  V30 8345 H 793.756 2.01389 -2.20193 0
M  V30 8346 C 792.505 3.32784 -1.00748 0
M  V30 8347 H 791.828 3.54626 -1.84609 0
M  V30 8348 H 793.268 4.12447 -0.98301 0
M  V30 8349 C 791.727 3.35654 0.289475 0
M  V30 8350 O 792.257 3.80281 1.29419 0
M  V30 8351 N 790.463 2.88843 0.3191 0
M  V30 8352 H 790.01 2.52719 -0.499069 0
M  V30 8353 H 789.968 2.91145 1.18667 0
M  V30 8354 N 793.74 1.17359 1.05189 0
M  V30 8355 C 794.672 0.848078 2.12933 0
M  V30 8356 C 795.685 -0.149521 1.62112 0
M  V30 8357 O 796.874 0.0767797 1.78335 0
M  V30 8358 C 793.974 0.243889 3.38021 0
M  V30 8359 C 793.147 1.28436 4.18118 0
M  V30 8360 C 792.206 0.697926 5.21551 0
M  V30 8361 O 791.232 1.36973 5.52473 0
M  V30 8362 N 792.434 -0.510024 5.78255 0
M  V30 8363 H 795.199 1.7754 2.41453 0
M  V30 8364 H 792.76 1.07244 1.21286 0
M  V30 8365 H 794.752 -0.161727 4.04377 0
M  V30 8366 H 793.322 -0.58722 3.07035 0
M  V30 8367 H 792.542 1.86573 3.47252 0
M  V30 8368 H 793.83 1.98617 4.68432 0
M  V30 8369 H 793.228 -1.07378 5.55416 0
M  V30 8370 H 791.785 -0.857705 6.46132 0
M  V30 8371 N 795.218 -1.23913 0.973828 0
M  V30 8372 C 796.181 -2.23367 0.51378 0
M  V30 8373 C 797.181 -1.55923 -0.39302 0
M  V30 8374 O 798.371 -1.73187 -0.187626 0
M  V30 8375 C 795.503 -3.39944 -0.255152 0
M  V30 8376 H 796.696 -2.65581 1.39307 0
M  V30 8377 H 794.249 -1.36632 0.759039 0
M  V30 8378 H 794.984 -3.03177 -1.15127 0
M  V30 8379 H 794.769 -3.90098 0.395673 0
M  V30 8380 H 796.259 -4.13749 -0.565842 0
M  V30 8381 N 796.696 -0.74468 -1.38897 0
M  V30 8382 C 797.659 -0.11945 -2.28889 0
M  V30 8383 C 798.659 0.656942 -1.46768 0
M  V30 8384 O 799.849 0.484525 -1.67326 0
M  V30 8385 C 796.981 0.839635 -3.30398 0
M  V30 8386 H 798.174 -0.912414 -2.85683 0
M  V30 8387 H 795.727 -0.511119 -1.47707 0
M  V30 8388 H 796.462 1.6586 -2.78677 0
M  V30 8389 H 796.247 0.285432 -3.9106 0
M  V30 8390 H 797.737 1.27337 -3.97712 0
M  V30 8391 N 798.174 1.49689 -0.493057 0
M  V30 8392 C 799.422 2.02027 0.0541642 0
M  V30 8393 C 799.743 1.37554 1.38217 0
M  V30 8394 O 799.013 0.528174 1.88646 0
M  V30 8395 H 797.593 0.746646 0.0230069 0
M  V30 8396 H 800.255 1.83795 -0.648489 0
M  V30 8397 H 799.351 3.11523 0.189652 0
M  V30 8398 N 799.652 0.226554 1.55963 0
M  V30 8399 C 801.068 -0.128733 1.5908 0
M  V30 8400 C 801.268 -1.58558 1.24345 0
M  V30 8401 O 800.324 -2.32661 0.981069 0
M  V30 8402 C 801.637 0.202076 3.0002 0
M  V30 8403 C 803.185 0.144718 3.12665 0
M  V30 8404 C 803.66 0.449272 4.55791 0
M  V30 8405 N 805.151 0.399026 4.61478 0
M  V30 8406 C 805.886 0.608106 5.70166 0
M  V30 8407 N 805.382 0.879227 6.87198 0
M  V30 8408 N 807.175 0.5402 5.59498 0
M  V30 8409 H 799.326 1.17686 1.76816 0
M  V30 8410 H 801.589 0.472072 0.822102 0
M  V30 8411 H 801.295 1.21341 3.30105 0
M  V30 8412 H 801.169 -0.480554 3.74126 0
M  V30 8413 H 803.556 -0.857261 2.82374 0
M  V30 8414 H 803.637 0.860899 2.40878 0
M  V30 8415 H 803.281 1.44871 4.86801 0
M  V30 8416 H 803.211 -0.288157 5.25811 0
M  V30 8417 H 805.702 0.197372 3.77384 0
M  V30 8418 H 806.015 1.02673 7.65949 0
M  V30 8419 H 804.36 0.916477 6.88931 0
M  V30 8420 H 807.551 0.328581 4.66945 0
M  V30 8421 H 807.724 0.706548 6.44137 0
M  V30 8422 N 801.13 -1.57531 -0.0467866 0
M  V30 8423 C 802.376 -1.89584 -0.736837 0
M  V30 8424 C 802.731 -0.82317 -1.73901 0
M  V30 8425 O 802.024 0.170098 -1.90843 0
M  V30 8426 C 802.218 -3.26091 -1.46285 0
M  V30 8427 C 802.047 -4.46536 -0.532502 0
M  V30 8428 C 800.817 -5.05046 -0.160109 0
M  V30 8429 C 803.015 -5.13979 0.181555 0
M  V30 8430 N 800.997 -6.09009 0.773349 0
M  V30 8431 C 802.368 -6.12345 0.971297 0
M  V30 8432 C 804.423 -4.9727 0.250382 0
M  V30 8433 C 803.126 -6.95802 1.82351 0
M  V30 8434 C 805.152 -5.81275 1.08965 0
M  V30 8435 C 804.514 -6.79197 1.86737 0
M  V30 8436 H 800.613 -0.742868 -0.244277 0
M  V30 8437 H 803.197 -1.947 0.0025481 0
M  V30 8438 H 801.368 -3.21938 -2.1728 0
M  V30 8439 H 803.1 -3.45715 -2.10389 0
M  V30 8440 H 799.855 -4.70754 -0.518457 0
M  V30 8441 H 800.279 -6.65658 1.23406 0
M  V30 8442 H 804.921 -4.21458 -0.336578 0
M  V30 8443 H 802.639 -7.70971 2.42134 0
M  V30 8444 H 806.225 -5.70397 1.14621 0
M  V30 8445 H 805.105 -7.4307 2.50631 0
M  V30 8446 N 802.608 0.318715 -1.54344 0
M  V30 8447 C 804.019 0.89285 -1.63967 0
M  V30 8448 C 804.37 1.88712 -0.536855 0
M  V30 8449 O 803.495 2.13877 0.329457 0
M  V30 8450 C 804.09 1.62618 -2.97222 0
M  V30 8451 C 802.649 2.14897 -3.09025 0
M  V30 8452 C 801.796 0.975909 -2.5956 0
M  V30 8453 H 804.747 0.0961687 -1.58408 0
M  V30 8454 H 804.768 2.4907 -2.87653 0
M  V30 8455 H 804.28 0.902286 -3.77466 0
M  V30 8456 H 802.381 2.90387 -2.33465 0
M  V30 8457 H 802.494 2.39565 -4.14904 0
M  V30 8458 H 800.858 1.35646 -2.15574 0
M  V30 8459 H 801.641 0.266253 -3.42266 0
M  V30 8460 N 804.086 1.46499 0.581025 0
M  V30 8461 C 805.049 1.5677 1.672 0
M  V30 8462 C 806.049 0.444716 1.54528 0
M  V30 8463 O 807.239 0.709074 1.59116 0
M  V30 8464 C 804.371 1.4896 3.06633 0
M  V30 8465 H 805.564 2.54 1.5945 0
M  V30 8466 H 803.117 1.34334 0.799003 0
M  V30 8467 H 803.852 0.530168 3.19937 0
M  V30 8468 H 803.637 2.30439 3.17239 0
M  V30 8469 H 805.127 1.59237 3.86048 0
M  V30 8470 N 805.565 -0.825799 1.34232 0
M  V30 8471 C 806.976 -1.39835 1.23706 0
M  V30 8472 C 807.327 -1.95709 -0.138649 0
M  V30 8473 O 806.452 -1.89833 -1.03886 0
M  V30 8474 C 807.047 -2.54203 2.23978 0
M  V30 8475 C 805.606 -3.07374 2.17251 0
M  V30 8476 C 804.753 -1.80232 2.10741 0
M  V30 8477 H 807.704 -0.630442 1.4564 0
M  V30 8478 H 807.725 -3.32214 1.8551 0
M  V30 8479 H 807.237 -2.13506 3.24094 0
M  V30 8480 H 805.338 -3.52583 1.20483 0
M  V30 8481 H 805.451 -3.6666 3.08379 0
M  V30 8482 H 803.815 -2.01012 1.56417 0
M  V30 8483 H 804.598 -1.41713 3.12686 0
M  V30 8484 N 807.043 -1.17915 -1.04565 0
M  V30 8485 C 808.292 -0.965816 -1.77073 0
M  V30 8486 C 808.605 0.506005 -1.88942 0
M  V30 8487 O 809.811 0.837717 -2.58253 0
M  V30 8488 C 808.267 -1.67894 -3.18339 0
M  V30 8489 C 807.875 -3.18972 -3.1458 0
M  V30 8490 C 809.619 -1.54823 -3.9526 0
M  V30 8491 C 807.526 -3.82946 -4.50674 0
M  V30 8492 H 806.456 -0.357729 -0.663736 0
M  V30 8493 H 809.107 -1.41235 -1.17153 0
M  V30 8494 H 807.489 -1.16016 -3.78624 0
M  V30 8495 H 808.663 -3.77835 -2.63776 0
M  V30 8496 H 806.978 -3.32127 -2.51159 0
M  V30 8497 H 809.575 -1.99984 -4.95894 0
M  V30 8498 H 809.918 -0.499727 -4.1329 0
M  V30 8499 H 810.451 -2.03953 -3.41538 0
M  V30 8500 H 807.19 -4.8782 -4.37849 0
M  V30 8501 H 806.71 -3.2887 -5.01602 0
M  V30 8502 H 808.389 -3.85518 -5.196 0
M  V30 8503 N 808.521 1.23394 -0.980386 0
M  V30 8504 C 809.932 1.73631 -0.686239 0
M  V30 8505 C 810.283 1.79259 0.797541 0
M  V30 8506 O 809.408 1.43046 1.62379 0
M  V30 8507 C 810.003 3.15332 -1.239 0
M  V30 8508 C 808.562 3.63024 -0.994494 0
M  V30 8509 C 807.709 2.41279 -1.36673 0
M  V30 8510 H 810.66 1.08918 -1.15423 0
M  V30 8511 H 810.681 3.75556 -0.611414 0
M  V30 8512 H 810.193 3.11204 -2.31892 0
M  V30 8513 H 808.294 3.72535 0.0693492 0
M  V30 8514 H 808.407 4.49825 -1.64906 0
M  V30 8515 H 806.771 2.42295 -0.785195 0
M  V30 8516 H 807.554 2.39822 -2.45642 0
M  V30 8517 N 809.999 0.752036 1.385 0
M  V30 8518 C 810.929 0.138718 2.33088 0
M  V30 8519 C 811.91 -0.705318 1.54788 0
M  V30 8520 O 813.095 -0.646821 1.83112 0
M  V30 8521 C 810.225 -0.75641 3.38963 0
M  V30 8522 C 809.179 -0.0152239 4.27997 0
M  V30 8523 C 808.505 -1.0285 5.24715 0
M  V30 8524 C 809.805 1.15226 5.09431 0
M  V30 8525 H 811.499 0.928852 2.84627 0
M  V30 8526 H 809.045 0.448111 1.3685 0
M  V30 8527 H 810.998 -1.19513 4.04097 0
M  V30 8528 H 809.722 -1.57885 2.85902 0
M  V30 8529 H 808.381 0.404061 3.64366 0
M  V30 8530 H 808.029 -1.84496 4.67943 0
M  V30 8531 H 807.729 -0.537238 5.85139 0
M  V30 8532 H 809.253 -1.46657 5.92726 0
M  V30 8533 H 810.667 0.791161 5.67815 0
M  V30 8534 H 809.064 1.57428 5.79082 0
M  V30 8535 H 810.134 1.9659 4.43261 0
M  V30 8536 N 811.477 -1.49425 0.500989 0
M  V30 8537 C 812.407 -2.31971 -0.266775 0
M  V30 8538 C 813.388 -1.40245 -0.962563 0
M  V30 8539 O 814.573 -1.69154 -0.953968 0
M  V30 8540 C 811.703 -3.20757 -1.33163 0
M  V30 8541 C 810.657 -4.21275 -0.75572 0
M  V30 8542 C 809.983 -4.98997 -1.92109 0
M  V30 8543 C 811.283 -5.21686 0.253213 0
M  V30 8544 H 812.977 -2.96408 0.422237 0
M  V30 8545 H 810.523 -1.4254 0.204505 0
M  V30 8546 H 812.476 -3.77315 -1.87646 0
M  V30 8547 H 811.2 -2.54263 -2.04983 0
M  V30 8548 H 809.859 -3.65861 -0.232637 0
M  V30 8549 H 809.507 -4.28951 -2.62698 0
M  V30 8550 H 809.207 -5.67011 -1.54182 0
M  V30 8551 H 810.731 -5.584 -2.47026 0
M  V30 8552 H 812.145 -5.72939 -0.203483 0
M  V30 8553 H 810.542 -5.9759 0.548322 0
M  V30 8554 H 811.612 -4.70596 1.16909 0
M  V30 8555 N 812.955 -0.234822 -1.55841 0
M  V30 8556 C 813.885 0.664217 -2.23854 0
M  V30 8557 C 814.866 1.19076 -1.2147 0
M  V30 8558 O 816.051 1.23232 -1.50091 0
M  V30 8559 C 813.181 1.86666 -2.9287 0
M  V30 8560 C 812.135 1.47341 -4.01839 0
M  V30 8561 C 811.461 2.75571 -4.58219 0
M  V30 8562 C 812.761 0.653479 -5.18196 0
M  V30 8563 H 814.455 0.0971213 -2.99242 0
M  V30 8564 H 812.001 0.0452724 -1.43929 0
M  V30 8565 H 813.954 2.50116 -3.39146 0
M  V30 8566 H 812.678 2.45894 -2.1495 0
M  V30 8567 H 811.337 0.862314 -3.56314 0
M  V30 8568 H 810.985 3.32971 -3.77014 0
M  V30 8569 H 810.685 2.49987 -5.31771 0
M  V30 8570 H 812.209 3.39939 -5.07221 0
M  V30 8571 H 813.623 1.19198 -5.60771 0
M  V30 8572 H 812.02 0.494188 -5.98062 0
M  V30 8573 H 813.09 -0.337004 -4.83728 0
M  V30 8574 N 814.433 1.57553 0.0384317 0
M  V30 8575 C 815.363 2.0898 1.04161 0
M  V30 8576 C 816.344 0.99029 1.38301 0
M  V30 8577 O 817.529 1.26499 1.47349 0
M  V30 8578 C 814.659 2.56145 2.34536 0
M  V30 8579 C 813.613 3.70275 2.14663 0
M  V30 8580 C 812.939 4.03612 3.50715 0
M  V30 8581 C 814.239 4.99067 1.54045 0
M  V30 8582 H 815.933 2.93046 0.613548 0
M  V30 8583 H 813.479 1.40973 0.293684 0
M  V30 8584 H 815.432 2.90741 3.05037 0
M  V30 8585 H 814.156 1.6915 2.79385 0
M  V30 8586 H 812.815 3.36013 1.46597 0
M  V30 8587 H 812.463 3.13698 3.93195 0
M  V30 8588 H 812.163 4.80482 3.38247 0
M  V30 8589 H 813.687 4.40735 4.22593 0
M  V30 8590 H 815.101 5.3168 2.14451 0
M  V30 8591 H 813.498 5.80484 1.52178 0
M  V30 8592 H 814.568 4.8226 0.505259 0
M  V30 8593 N 815.911 -0.310526 1.54511 0
M  V30 8594 C 817.322 -0.884142 1.64438 0
M  V30 8595 C 817.673 -1.88425 0.546855 0
M  V30 8596 O 816.798 -2.14049 -0.31811 0
M  V30 8597 C 817.393 -1.6104 2.9808 0
M  V30 8598 C 815.952 -2.13255 3.1016 0
M  V30 8599 C 815.099 -0.96213 2.60074 0
M  V30 8600 H 818.05 -0.0877666 1.58457 0
M  V30 8601 H 818.071 -2.47541 2.8897 0
M  V30 8602 H 817.583 -0.882255 3.77939 0
M  V30 8603 H 815.684 -2.89145 2.35002 0
M  V30 8604 H 815.797 -2.37361 4.16169 0
M  V30 8605 H 814.161 -1.34501 2.16291 0
M  V30 8606 H 814.944 -0.248098 3.42402 0
M  V30 8607 N 817.389 -1.46805 -0.573248 0
M  V30 8608 C 818.319 -1.60951 -1.69165 0
M  V30 8609 C 819.3 -0.45948 -1.63777 0
M  V30 8610 O 820.485 -0.68688 -1.81647 0
M  V30 8611 C 817.615 -1.60844 -3.07809 0
M  V30 8612 C 816.569 -2.74913 -3.28035 0
M  V30 8613 C 815.895 -2.59871 -4.67302 0
M  V30 8614 C 817.195 -4.16654 -3.14955 0
M  V30 8615 H 818.889 -2.54574 -1.57582 0
M  V30 8616 H 816.435 -1.22516 -0.756686 0
M  V30 8617 H 818.388 -1.69334 -3.85881 0
M  V30 8618 H 817.112 -0.637714 -3.20314 0
M  V30 8619 H 815.771 -2.65908 -2.52366 0
M  V30 8620 H 815.419 -1.60861 -4.76585 0
M  V30 8621 H 815.119 -3.36386 -4.81786 0
M  V30 8622 H 816.643 -2.70265 -5.4753 0
M  V30 8623 H 818.057 -4.26721 -3.82861 0
M  V30 8624 H 816.454 -4.93831 -3.40956 0
M  V30 8625 H 817.524 -4.36146 -2.11908 0
M  V30 8626 N 818.867 0.818669 -1.34668 0
M  V30 8627 C 819.797 1.94468 -1.29245 0
M  V30 8628 C 820.778 1.69257 -0.169101 0
M  V30 8629 O 821.963 1.90794 -0.362143 0
M  V30 8630 C 819.093 3.31001 -1.05145 0
M  V30 8631 C 818.047 3.70663 -2.13992 0
M  V30 8632 C 817.373 5.05226 -1.75074 0
M  V30 8633 C 818.673 3.82312 -3.55858 0
M  V30 8634 H 820.367 1.99263 -2.2346 0
M  V30 8635 H 817.913 0.957304 -1.07572 0
M  V30 8636 H 819.866 4.09364 -0.999949 0
M  V30 8637 H 818.59 3.26517 -0.0737312 0
M  V30 8638 H 817.249 2.94578 -2.18219 0
M  V30 8639 H 816.897 4.97233 -0.759518 0
M  V30 8640 H 816.597 5.32734 -2.47928 0
M  V30 8641 H 818.121 5.86042 -1.71427 0
M  V30 8642 H 819.535 4.50935 -3.5402 0
M  V30 8643 H 817.932 4.21278 -4.2737 0
M  V30 8644 H 819.002 2.84193 -3.9289 0
M  V30 8645 N 820.346 1.18468 1.03938 0
M  V30 8646 C 821.592 0.982286 1.77423 0
M  V30 8647 C 821.925 -0.48679 1.88 0
M  V30 8648 O 821.2 -1.36146 1.38905 0
M  V30 8649 C 821.483 1.63929 3.20623 0
M  V30 8650 C 821.336 3.18132 3.17982 0
M  V30 8651 C 822.655 1.3536 4.18767 0
M  V30 8652 H 819.774 0.358264 0.644062 0
M  V30 8653 H 822.416 1.46154 1.21405 0
M  V30 8654 H 820.566 1.2318 3.68455 0
M  V30 8655 H 822.238 3.68024 2.78129 0
M  V30 8656 H 820.481 3.50225 2.55978 0
M  V30 8657 H 821.152 3.5924 4.19107 0
M  V30 8658 H 823.628 1.70669 3.79488 0
M  V30 8659 H 822.504 1.83896 5.17178 0
M  V30 8660 H 822.765 0.276722 4.41233 0
M  V30 8661 N 821.824 -1.22873 0.986916 0
M  V30 8662 C 823.072 -1.91084 0.658121 0
M  V30 8663 C 823.393 -1.77304 -0.811675 0
M  V30 8664 O 822.663 -1.15649 -1.58121 0
M  V30 8665 H 821.243 -0.707251 0.240427 0
M  V30 8666 H 823.905 -1.49357 1.25213 0
M  V30 8667 H 823.001 -2.98373 0.915428 0
M  V30 8668 N 823.302 -0.75937 -1.38099 0
M  V30 8669 C 824.55 -0.317485 -1.99591 0
M  V30 8670 C 824.871 1.10628 -1.60581 0
M  V30 8671 O 824.141 1.7575 -0.865378 0
M  V30 8672 H 822.721 -0.114397 -0.738189 0
M  V30 8673 H 825.383 -0.974749 -1.68774 0
M  V30 8674 H 824.479 -0.385227 -3.09713 0
M  V30 8675 N 824.78 1.49157 -0.508906 0
M  V30 8676 C 826.026 2.02773 0.0328469 0
M  V30 8677 C 826.359 1.38714 1.35912 0
M  V30 8678 O 825.634 0.525536 1.87266 0
M  V30 8679 C 825.917 3.59664 0.177088 0
M  V30 8680 C 825.77 4.34239 -1.17287 0
M  V30 8681 C 827.089 4.30505 0.913977 0
M  V30 8682 H 824.208 0.736926 0.0104631 0
M  V30 8683 H 826.85 1.781 -0.661851 0
M  V30 8684 H 825 3.80818 0.768774 0
M  V30 8685 H 826.672 4.24561 -1.80404 0
M  V30 8686 H 824.915 3.96486 -1.76016 0
M  V30 8687 H 825.586 5.42397 -1.02516 0
M  V30 8688 H 828.062 4.14054 0.412084 0
M  V30 8689 H 826.938 5.40012 0.983759 0
M  V30 8690 H 827.199 3.96302 1.95951 0
M  V30 8691 N 826.258 0.243083 1.55714 0
M  V30 8692 C 827.221 -0.644723 2.19945 0
M  V30 8693 C 828.221 -1.10562 1.16759 0
M  V30 8694 O 829.411 -1.01095 1.41865 0
M  V30 8695 C 826.543 -1.88569 2.83997 0
M  V30 8696 H 827.736 -0.0843839 2.99781 0
M  V30 8697 H 825.289 -0.00647246 1.56299 0
M  V30 8698 H 826.024 -2.48736 2.08089 0
M  V30 8699 H 825.809 -1.56345 3.59581 0
M  V30 8700 H 827.299 -2.51774 3.33166 0
M  V30 8701 N 827.736 -1.57571 -0.0300757 0
M  V30 8702 C 828.961 -1.93879 -0.736601 0
M  V30 8703 C 829.386 -0.842998 -1.68152 0
M  V30 8704 O 828.744 0.20135 -1.80178 0
M  V30 8705 C 828.792 -3.29247 -1.47066 0
M  V30 8706 O 827.896 -3.21426 -2.58378 0
M  V30 8707 H 827.237 -0.633735 -0.198181 0
M  V30 8708 H 829.767 -2.04595 0.0141485 0
M  V30 8709 H 829.777 -3.64113 -1.84081 0
M  V30 8710 H 828.452 -4.08565 -0.77764 0
M  V30 8711 H 827.029 -2.98189 -2.23914 0
M  V30 8712 N 829.214 0.302327 -1.54673 0
M  V30 8713 C 830.63 0.647911 -1.45857 0
M  V30 8714 C 830.83 1.90773 -0.64869 0
M  V30 8715 O 829.886 2.52018 -0.155865 0
M  V30 8716 C 831.199 0.802144 -2.89804 0
M  V30 8717 C 832.747 0.898114 -2.99838 0
M  V30 8718 C 833.222 1.08436 -4.44978 0
M  V30 8719 N 834.713 1.15059 -4.48682 0
M  V30 8720 C 835.448 1.31296 -5.58166 0
M  V30 8721 N 834.944 1.4444 -6.77576 0
M  V30 8722 N 836.737 1.34174 -5.45851 0
M  V30 8723 H 828.888 -0.525428 -2.05798 0
M  V30 8724 H 831.151 -0.173423 -0.932002 0
M  V30 8725 H 830.857 -0.0526531 -3.51661 0
M  V30 8726 H 830.731 1.69155 -3.37145 0
M  V30 8727 H 833.118 1.7434 -2.38096 0
M  V30 8728 H 833.199 -0.0152752 -2.55795 0
M  V30 8729 H 832.843 0.243843 -5.07314 0
M  V30 8730 H 832.773 2.01195 -4.8665 0
M  V30 8731 H 835.264 1.0626 -3.62653 0
M  V30 8732 H 835.577 1.56582 -7.56771 0
M  V30 8733 H 833.922 1.41499 -6.80443 0
M  V30 8734 H 837.113 1.23516 -4.5151 0
M  V30 8735 H 837.286 1.46485 -6.31226 0
M  V30 8736 O 830.731 1.55155 0.448226 0
M  V30 8737 H 831.422 1.59293 1.10206 0
M  V30 END ATOM
M  V30 BEGIN BOND
M  V30 END BOND
M  V30 END CTAB
M  END
$$$$
