drugbank_target|Q9NPD5 Solute carrier organic anion transporter family member 1B3 (DB01211; DB01241; DB06749; DB06750)
 OpenBabel12092120363D

  0  0  0     0  0            999 V3000
M  V30 BEGIN CTAB
M  V30 COUNTS 10946 11067 0 0 0
M  V30 BEGIN ATOM
M  V30 1 H -0.908 1.98254 -0.117106 0
M  V30 2 N 0 1.576 0 0
M  V30 3 C 0.933 2.03868 1.02534 0
M  V30 4 C 1.911 0.928543 1.3348 0
M  V30 5 O 3.095 1.19667 1.45644 0
M  V30 6 C 0.222 2.43627 2.35294 0
M  V30 7 C -0.732 3.65373 2.2001 0
M  V30 8 S 0.101 5.13292 1.52614 0
M  V30 9 C 1.257 5.56322 2.86805 0
M  V30 10 H 1.49 2.90518 0.631377 0
M  V30 11 H -0.977 1.52953 0.210867 0
M  V30 12 H 0.981 2.67203 3.11629 0
M  V30 13 H -0.358 1.57376 2.7183 0
M  V30 14 H -1.165 3.90944 3.18086 0
M  V30 15 H -1.563 3.418 1.51819 0
M  V30 16 H 0.729 5.58782 3.83104 0
M  V30 17 H 1.672 6.56266 2.65933 0
M  V30 18 H 2.08 4.83886 2.90714 0
M  V30 19 N 1.4781 -0.272755 1.55222 0
M  V30 20 C 2.7551 -1.02562 1.66555 0
M  V30 21 C 3.1351 -2.04282 0.532189 0
M  V30 22 O 2.4831 -2.23662 -0.467717 0
M  V30 23 C 2.6931 -1.6822 3.05782 0
M  V30 24 C 4.0411 -2.19373 3.63539 0
M  V30 25 O 5.0651 -1.78206 3.08417 0
M  V30 26 O 3.9241 -2.94883 4.60115 0
M  V30 27 H 1.0181 -0.475755 0.676451 0
M  V30 28 H 3.5641 -0.268593 1.67561 0
M  V30 29 H 2.3361 -0.945112 3.79715 0
M  V30 30 H 1.9591 -2.50609 3.08676 0
M  V30 31 N 2.9562 -1.48159 -0.537278 0
M  V30 32 C 3.8882 -1.58218 -1.65831 0
M  V30 33 C 4.9012 -0.466948 -1.5596 0
M  V30 34 O 6.0902 -0.73747 -1.62553 0
M  V30 35 C 3.1902 -1.48906 -3.04434 0
M  V30 36 C 2.3632 -2.75343 -3.3986 0
M  V30 37 C 1.4222 -2.59588 -4.57712 0
M  V30 38 O 0.4482 -3.33457 -4.61297 0
M  V30 39 N 1.6502 -1.68724 -5.55439 0
M  V30 40 H 4.4152 -2.54891 -1.57641 0
M  V30 41 H 1.9762 -1.4479 -0.724386 0
M  V30 42 H 3.9682 -1.36072 -3.81139 0
M  V30 43 H 2.5382 -0.602368 -3.06741 0
M  V30 44 H 1.7582 -3.02795 -2.52406 0
M  V30 45 H 3.0462 -3.5924 -3.60311 0
M  V30 46 H 2.4442 -1.07898 -5.55315 0
M  V30 47 H 1.0012 -1.61832 -6.3139 0
M  V30 48 N 4.4343 0.785586 -1.36625 0
M  V30 49 C 5.3843 1.88822 -1.27789 0
M  V30 50 C 6.3683 1.60014 -0.168579 0
M  V30 51 O 7.5603 1.72381 -0.401737 0
M  V30 52 C 4.6893 3.26092 -1.07327 0
M  V30 53 C 3.7753 3.60897 -2.22743 0
M  V30 54 N 4.1663 3.66982 -3.48077 0
M  V30 55 C 2.4643 3.90981 -2.14593 0
M  V30 56 C 3.1653 3.98137 -4.24101 0
M  V30 57 N 2.1413 4.13319 -3.53084 0
M  V30 58 H 5.9433 1.91759 -2.22723 0
M  V30 59 H 3.4573 0.981311 -1.29399 0
M  V30 60 H 5.4543 4.04954 -0.990842 0
M  V30 61 H 4.1143 3.24428 -0.132977 0
M  V30 62 H 5.1253 3.49531 -3.82163 0
M  V30 63 H 1.8023 3.9722 -1.2854 0
M  V30 64 H 3.1923 4.09737 -5.32509 0
M  V30 65 N 5.9124 1.20967 1.01018 0
M  V30 66 C 6.8444 0.922059 2.09835 0
M  V30 67 C 7.8574 -0.0927106 1.62536 0
M  V30 68 O 9.0464 0.139127 1.77957 0
M  V30 69 C 6.1464 0.362004 3.36961 0
M  V30 70 C 5.3194 1.42986 4.13369 0
M  V30 71 C 4.3784 0.879976 5.1879 0
M  V30 72 O 3.4044 1.56219 5.47343 0
M  V30 73 N 4.6064 -0.307396 5.79686 0
M  V30 74 H 7.3714 1.8588 2.35093 0
M  V30 75 H 4.9324 1.11422 1.1746 0
M  V30 76 H 6.9244 -0.0201474 4.04695 0
M  V30 77 H 5.4944 -0.479437 3.08902 0
M  V30 78 H 4.7144 1.98608 3.40512 0
M  V30 79 H 6.0024 2.14885 4.61196 0
M  V30 80 H 5.4004 -0.878796 5.58832 0
M  V30 81 H 3.9574 -0.631115 6.48737 0
M  V30 82 N 7.3905 -1.2043 1.01659 0
M  V30 83 C 8.3405 -2.21076 0.557623 0
M  V30 84 C 9.3245 -1.56176 -0.387029 0
M  V30 85 O 10.5165 -1.7575 -0.209996 0
M  V30 86 C 7.6455 -3.43146 -0.102707 0
M  V30 87 C 6.7315 -4.15213 0.863652 0
M  V30 88 N 7.1225 -4.63662 2.02117 0
M  V30 89 C 5.4205 -4.40716 0.684472 0
M  V30 90 C 6.1215 -5.18868 2.62966 0
M  V30 91 N 5.0975 -5.0893 1.91027 0
M  V30 92 H 8.8995 -2.56201 1.44008 0
M  V30 93 H 6.4135 -1.36366 0.881931 0
M  V30 94 H 8.4105 -4.14475 -0.449054 0
M  V30 95 H 7.0705 -3.09526 -0.981003 0
M  V30 96 H 8.0815 -4.58877 2.40109 0
M  V30 97 H 4.7585 -4.17245 -0.14577 0
M  V30 98 H 6.1485 -5.6673 3.60924 0
M  V30 99 N 8.8686 -0.792821 -1.36206 0
M  V30 100 C 9.7986 -0.207853 -2.32573 0
M  V30 101 C 10.7796 0.659055 -1.56813 0
M  V30 102 O 11.9646 0.592176 -1.84951 0
M  V30 103 C 9.0946 0.655449 -3.41059 0
M  V30 104 C 8.0486 -0.111842 -4.27854 0
M  V30 105 C 7.3746 0.872274 -5.27537 0
M  V30 106 C 8.6746 -1.30299 -5.05786 0
M  V30 107 H 10.3686 -1.01294 -2.81744 0
M  V30 108 H 7.9146 -0.48854 -1.3546 0
M  V30 109 H 9.8676 1.07464 -4.07467 0
M  V30 110 H 8.5916 1.49328 -2.90463 0
M  V30 111 H 7.2506 -0.512053 -3.63006 0
M  V30 112 H 6.8986 1.70523 -4.73214 0
M  V30 113 H 6.5986 0.363291 -5.86476 0
M  V30 114 H 8.1226 1.28996 -5.96818 0
M  V30 115 H 9.5366 -0.959379 -5.65216 0
M  V30 116 H 7.9336 -1.7455 -5.74154 0
M  V30 117 H 9.0036 -2.09663 -4.37229 0
M  V30 118 N 10.3467 1.47872 -0.545128 0
M  V30 119 C 11.2947 2.31533 0.222512 0
M  V30 120 C 12.2887 1.42177 0.920985 0
M  V30 121 O 13.4947 1.59005 0.843645 0
M  V30 122 H 9.8697 0.746519 0.0906278 0
M  V30 123 H 11.8407 2.94139 -0.50246 0
M  V30 124 C 10.5897 3.2457 1.24699 0
M  V30 125 H 9.9127 3.93283 0.718944 0
M  V30 126 H 11.3527 3.85963 1.75523 0
M  V30 127 C 9.8117 2.47237 2.28856 0
M  V30 128 O 10.3417 2.20808 3.35569 0
M  V30 129 N 8.5477 2.08461 2.02466 0
M  V30 130 H 8.0947 2.30155 1.157 0
M  V30 131 H 8.0527 1.57033 2.72375 0
M  V30 132 N 11.8248 0.280983 1.55075 0
M  V30 133 C 12.7718 -0.603937 2.22758 0
M  V30 134 C 13.7418 -1.1452 1.20309 0
M  V30 135 O 14.9268 -1.19343 1.48869 0
M  V30 136 C 12.0668 -1.77947 2.95684 0
M  V30 137 C 11.1798 -1.2715 4.12864 0
M  V30 138 C 10.3148 -2.4093 4.7342 0
M  V30 139 C 9.3538 -1.87165 5.82783 0
M  V30 140 N 8.4908 -2.94441 6.37377 0
M  V30 141 H 13.3308 -0.020124 2.97993 0
M  V30 142 H 10.8678 0.00183425 1.471 0
M  V30 143 H 12.8258 -2.47055 3.36184 0
M  V30 144 H 11.4558 -2.33522 2.22861 0
M  V30 145 H 10.5078 -0.473331 3.77444 0
M  V30 146 H 11.8198 -0.837751 4.91715 0
M  V30 147 H 10.9738 -3.18021 5.1667 0
M  V30 148 H 9.7128 -2.87623 3.93859 0
M  V30 149 H 8.7178 -1.08556 5.38976 0
M  V30 150 H 9.9428 -1.41401 6.64216 0
M  V30 151 H 7.8888 -3.40505 5.60707 0
M  V30 152 H 7.8058 -2.55501 7.11516 0
M  V30 153 H 9.0738 -3.71489 6.85285 0
M  V30 154 N 13.3029 -1.57598 0.00835791 0
M  V30 155 C 14.5309 -1.95214 -0.68549 0
M  V30 156 C 14.9459 -0.883706 -1.66841 0
M  V30 157 O 14.3029 0.136565 -1.81988 0
M  V30 158 C 14.3539 -3.32865 -1.41007 0
M  V30 159 O 14.0749 -4.35609 -0.466552 0
M  V30 160 C 15.5759 -3.84991 -2.19765 0
M  V30 161 H 12.7959 -0.643422 -0.190392 0
M  V30 162 H 15.3399 -2.04406 0.0619607 0
M  V30 163 H 13.4949 -3.24956 -2.10908 0
M  V30 164 H 13.9089 -5.15288 -0.978699 0
M  V30 165 H 15.3829 -4.8371 -2.65948 0
M  V30 166 H 15.8599 -3.18137 -3.02796 0
M  V30 167 H 16.4659 -3.96103 -1.54864 0
M  V30 168 N 14.781 0.264519 -1.55364 0
M  V30 169 C 15.744 1.31046 -1.88042 0
M  V30 170 C 16.744 1.41943 -0.755569 0
M  V30 171 O 17.934 1.40947 -1.02369 0
M  V30 172 C 15.066 2.69067 -2.09323 0
M  V30 173 H 16.259 1.03297 -2.81549 0
M  V30 174 H 13.812 0.502989 -1.47986 0
M  V30 175 H 14.547 3.01982 -1.18226 0
M  V30 176 H 14.332 2.62542 -2.91229 0
M  V30 177 H 15.822 3.44623 -2.35848 0
M  V30 178 N 16.2591 1.48442 0.529413 0
M  V30 179 C 17.1691 1.6569 1.66084 0
M  V30 180 C 18.1851 0.539432 1.65427 0
M  V30 181 O 19.3611 0.810572 1.84368 0
M  V30 182 C 16.4261 1.69315 3.02545 0
M  V30 183 C 15.4871 2.92694 3.14052 0
M  V30 184 C 14.7201 2.96137 4.44003 0
M  V30 185 O 14.9431 2.07973 5.31134 0
M  V30 186 O 13.8771 3.88312 4.59888 0
M  V30 187 H 17.7031 2.61483 1.54469 0
M  V30 188 H 15.2881 1.3185 0.702567 0
M  V30 189 H 17.1701 1.74217 3.83701 0
M  V30 190 H 15.8451 0.766966 3.14483 0
M  V30 191 H 14.7521 2.93324 2.32189 0
M  V30 192 H 16.0851 3.84699 3.0703 0
M  V30 193 N 17.7372 -0.778329 1.37039 0
M  V30 194 C 18.9622 -1.57248 1.35233 0
M  V30 195 C 19.3872 -1.87999 -0.0615568 0
M  V30 196 O 18.7452 -1.48734 -1.03672 0
M  V30 197 C 18.7932 -2.86353 2.19167 0
M  V30 198 O 17.8972 -3.80442 1.59178 0
M  V30 199 H 17.2382 -0.476569 0.462362 0
M  V30 200 H 19.7682 -0.963853 1.80474 0
M  V30 201 H 19.7782 -3.35519 2.32145 0
M  V30 202 H 18.4532 -2.63299 3.21942 0
M  V30 203 H 17.0302 -3.39067 1.55203 0
M  V30 204 N 19.2153 -1.21501 -1.00376 0
M  V30 205 C 20.1783 -0.976927 -2.07337 0
M  V30 206 C 21.1783 0.0525322 -1.60714 0
M  V30 207 O 22.3683 -0.184869 -1.73216 0
M  V30 208 C 19.5003 -0.473423 -3.37597 0
M  V30 209 H 20.6933 -1.92587 -2.29892 0
M  V30 210 H 18.2463 -1.03217 -1.17371 0
M  V30 211 H 18.9813 0.480379 -3.20722 0
M  V30 212 H 18.7663 -1.216 -3.72768 0
M  V30 213 H 20.2563 -0.32675 -4.1632 0
M  V30 214 N 20.6934 1.19889 -1.02296 0
M  V30 215 C 21.9184 1.9393 -0.735237 0
M  V30 216 C 22.3434 1.74639 0.698782 0
M  V30 217 O 21.7014 1.04481 1.48167 0
M  V30 218 C 21.7494 3.43916 -1.08417 0
M  V30 219 O 20.8534 4.11917 -0.199446 0
M  V30 220 H 20.1944 0.605645 -0.272196 0
M  V30 221 H 22.7244 1.52137 -1.36804 0
M  V30 222 H 22.7344 3.9456 -1.03856 0
M  V30 223 H 21.4094 3.5728 -2.12894 0
M  V30 224 H 19.9864 3.71666 -0.303136 0
M  V30 225 N 22.1715 0.800033 1.35784 0
M  V30 226 C 23.3965 0.388511 2.03729 0
M  V30 227 C 23.8215 -0.990481 1.5991 0
M  V30 228 O 23.1795 -1.64013 0.772612 0
M  V30 229 C 23.2275 0.4726 3.5749 0
M  V30 230 O 22.3315 -0.51646 4.09153 0
M  V30 231 H 21.6725 0.163271 0.643614 0
M  V30 232 H 24.2025 1.0841 1.73518 0
M  V30 233 H 24.2125 0.34003 4.06581 0
M  V30 234 H 22.8875 1.47848 3.88734 0
M  V30 235 H 21.4645 -0.344673 3.71304 0
M  V30 236 N 23.6496 -1.47581 0.552962 0
M  V30 237 C 24.5596 -2.33743 -0.200353 0
M  V30 238 C 25.5756 -1.47928 -0.916151 0
M  V30 239 O 26.7516 -1.80865 -0.885993 0
M  V30 240 C 23.8166 -3.24536 -1.21973 0
M  V30 241 C 22.8776 -4.26238 -0.511819 0
M  V30 242 C 22.1106 -5.12693 -1.48263 0
M  V30 243 O 22.3336 -5.01525 -2.71714 0
M  V30 244 O 21.2676 -5.93375 -1.00945 0
M  V30 245 H 25.0936 -2.9945 0.506304 0
M  V30 246 H 22.6786 -1.46071 0.313622 0
M  V30 247 H 24.5606 -3.80631 -1.80827 0
M  V30 248 H 23.2356 -2.61462 -1.90839 0
M  V30 249 H 22.1426 -3.73914 0.117799 0
M  V30 250 H 23.4756 -4.92014 0.135308 0
M  V30 251 N 25.1277 -0.289203 -1.54924 0
M  V30 252 C 26.0747 0.592115 -2.23075 0
M  V30 253 C 27.0447 1.13881 -1.20915 0
M  V30 254 O 28.2297 1.18551 -1.495 0
M  V30 255 C 25.3697 1.76376 -2.96623 0
M  V30 256 C 24.4827 1.24959 -4.13533 0
M  V30 257 C 23.6177 2.38416 -4.74691 0
M  V30 258 C 22.6567 1.84072 -5.83767 0
M  V30 259 N 21.7937 2.91057 -6.38929 0
M  V30 260 H 26.6337 0.00432038 -2.98 0
M  V30 261 H 24.1707 -0.00963529 -1.47097 0
M  V30 262 H 26.1287 2.45268 -3.3749 0
M  V30 263 H 24.7587 2.32337 -2.24097 0
M  V30 264 H 23.8107 0.453307 -3.77689 0
M  V30 265 H 25.1227 0.811662 -4.92152 0
M  V30 266 H 24.2767 3.15276 -5.18349 0
M  V30 267 H 23.0157 2.8553 -3.95378 0
M  V30 268 H 22.0207 1.05697 -5.39545 0
M  V30 269 H 23.2457 1.37877 -6.64956 0
M  V30 270 H 21.1917 3.37526 -5.62505 0
M  V30 271 H 21.1087 2.51724 -7.12861 0
M  V30 272 H 22.3767 3.6785 -6.87246 0
M  V30 273 N 26.6058 1.57591 -0.0167156 0
M  V30 274 C 27.5528 2.09462 0.969251 0
M  V30 275 C 28.5228 0.99381 1.33089 0
M  V30 276 O 29.7078 1.26726 1.42636 0
M  V30 277 C 26.8478 2.61622 2.25051 0
M  V30 278 C 25.9608 3.85666 1.94642 0
M  V30 279 C 25.0958 4.26266 3.16972 0
M  V30 280 C 24.1348 5.43101 2.82326 0
M  V30 281 N 23.2718 5.78915 3.97243 0
M  V30 282 H 28.1118 2.93428 0.519997 0
M  V30 283 H 25.6488 1.45044 0.245087 0
M  V30 284 H 27.6068 2.89949 2.99976 0
M  V30 285 H 26.2368 1.80505 2.67615 0
M  V30 286 H 25.2888 3.64145 1.10013 0
M  V30 287 H 26.6008 4.70678 1.65117 0
M  V30 288 H 25.7548 4.55963 4.00228 0
M  V30 289 H 24.4938 3.39996 3.49648 0
M  V30 290 H 23.4988 5.1311 1.97479 0
M  V30 291 H 24.7238 6.3106 2.50879 0
M  V30 292 H 22.6698 4.95602 4.29785 0
M  V30 293 H 22.5868 6.58539 3.71299 0
M  V30 294 H 23.8548 6.13212 4.81239 0
M  V30 295 N 28.0839 -0.256276 1.55502 0
M  V30 296 C 29.0309 -1.31714 1.89526 0
M  V30 297 C 30.0009 -1.4828 0.748479 0
M  V30 298 O 31.1859 -1.62416 1.00128 0
M  V30 299 C 28.3259 -2.66933 2.18725 0
M  V30 300 C 27.4389 -2.58452 3.4616 0
M  V30 301 C 26.5739 -3.85961 3.64976 0
M  V30 302 C 25.6129 -3.72059 4.86044 0
M  V30 303 N 24.7499 -4.9144 5.01429 0
M  V30 304 H 29.5899 -1.01998 2.80001 0
M  V30 305 H 27.1269 -0.492413 1.38613 0
M  V30 306 H 29.0849 -3.4563 2.33657 0
M  V30 307 H 27.7149 -2.94816 1.31466 0
M  V30 308 H 26.7669 -1.71374 3.3961 0
M  V30 309 H 28.0789 -2.44085 4.34999 0
M  V30 310 H 27.2329 -4.73101 3.79816 0
M  V30 311 H 25.9719 -4.03215 2.74353 0
M  V30 312 H 24.9769 -2.83302 4.7119 0
M  V30 313 H 26.2019 -3.56309 5.78118 0
M  V30 314 H 24.1479 -5.09072 4.13741 0
M  V30 315 H 24.0649 -4.79668 5.84341 0
M  V30 316 H 25.3329 -5.80104 5.20672 0
M  V30 317 N 29.562 -1.4872 -0.521534 0
M  V30 318 C 30.79 -1.60843 -1.30142 0
M  V30 319 C 31.205 -0.271897 -1.86832 0
M  V30 320 O 30.562 0.739969 -1.66825 0
M  V30 321 C 30.613 -2.66155 -2.4463 0
M  V30 322 O 30.334 -3.94623 -1.90275 0
M  V30 323 C 31.835 -2.88795 -3.36322 0
M  V30 324 H 29.055 -0.542075 -0.395468 0
M  V30 325 H 31.599 -1.94609 -0.628285 0
M  V30 326 H 29.754 -2.35224 -3.07812 0
M  V30 327 H 30.168 -4.52468 -2.65279 0
M  V30 328 H 31.642 -3.66264 -4.12983 0
M  V30 329 H 32.119 -1.97934 -3.9207 0
M  V30 330 H 32.725 -3.21063 -2.78924 0
M  V30 331 N 31.0401 0.771051 -1.3745 0
M  V30 332 C 32.4561 1.07171 -1.18265 0
M  V30 333 C 32.6561 2.01491 -0.019287 0
M  V30 334 O 31.7121 2.44244 0.640408 0
M  V30 335 C 33.0251 1.66854 -2.50161 0
M  V30 336 C 34.5731 1.79109 -2.56689 0
M  V30 337 C 35.0481 2.42205 -3.88717 0
M  V30 338 N 36.5391 2.49655 -3.90162 0
M  V30 339 C 37.2741 2.9933 -4.8907 0
M  V30 340 N 36.7701 3.49172 -5.98374 0
M  V30 341 N 38.5631 2.9821 -4.76474 0
M  V30 342 H 30.7141 0.144796 -2.11906 0
M  V30 343 H 32.9771 0.126863 -0.939473 0
M  V30 344 H 32.6831 1.05017 -3.35655 0
M  V30 345 H 32.5571 2.6614 -2.673 0
M  V30 346 H 34.9441 2.40077 -1.71601 0
M  V30 347 H 35.0251 0.785757 -2.43433 0
M  V30 348 H 34.6691 1.81875 -4.74219 0
M  V30 349 H 34.5991 3.43345 -3.99276 0
M  V30 350 H 37.0901 2.14383 -3.11205 0
M  V30 351 H 37.4031 3.8548 -6.69795 0
M  V30 352 H 35.7481 3.47275 -6.02018 0
M  V30 353 H 38.9391 2.58572 -3.90203 0
M  V30 354 H 39.1121 3.36613 -5.53711 0
M  V30 355 N 32.5182 1.22032 0.997298 0
M  V30 356 C 33.9342 0.979326 1.26021 0
M  V30 357 C 34.1342 -0.32972 1.98784 0
M  V30 358 O 33.1902 -1.05345 2.29475 0
M  V30 359 C 34.5032 2.17509 2.07631 0
M  V30 360 C 36.0512 2.21817 2.2083 0
M  V30 361 C 36.5262 3.40933 3.05825 0
M  V30 362 N 38.0172 3.41067 3.13412 0
M  V30 363 C 38.7522 4.29885 3.79455 0
M  V30 364 N 38.2482 5.28914 4.47462 0
M  V30 365 N 40.0412 4.17673 3.76173 0
M  V30 366 H 32.1922 2.06202 0.509352 0
M  V30 367 H 34.4552 0.90334 0.287541 0
M  V30 368 H 34.1612 3.12415 1.61524 0
M  V30 369 H 34.0352 2.17206 3.08385 0
M  V30 370 H 36.4222 1.27462 2.66153 0
M  V30 371 H 36.5032 2.2616 1.1952 0
M  V30 372 H 36.1472 4.35586 2.61203 0
M  V30 373 H 36.0772 3.33829 4.07266 0
M  V30 374 H 38.5682 2.69406 2.65007 0
M  V30 375 H 38.8812 5.92973 4.95583 0
M  V30 376 H 37.2262 5.32831 4.46224 0
M  V30 377 H 40.4172 3.39564 3.22202 0
M  V30 378 H 40.5902 4.87098 4.27363 0
M  V30 379 N 33.9963 -1.19345 1.0293 0
M  V30 380 C 35.2363 -1.90738 0.734727 0
M  V30 381 C 35.6003 -1.7785 -0.723414 0
M  V30 382 O 36.8013 -2.43844 -1.13108 0
M  V30 383 C 35.0723 -3.37569 1.17396 0
M  V30 384 S 36.6313 -4.27176 1.00329 0
M  V30 385 H 33.4493 -0.658771 0.267474 0
M  V30 386 H 36.0513 -1.4428 1.31922 0
M  V30 387 H 34.7553 -3.44475 2.23081 0
M  V30 388 H 34.2863 -3.8906 0.582772 0
M  V30 389 H 36.3013 -4.96126 -0.0859152 0
M  V30 390 N 35.4744 -0.807222 -1.35358 0
M  V30 391 C 36.4224 -0.20614 -2.31685 0
M  V30 392 C 37.4164 0.644445 -1.56663 0
M  V30 393 O 38.6224 0.537538 -1.71786 0
M  V30 394 H 34.9974 -0.0479006 -0.750473 0
M  V30 395 H 36.9684 -1.03369 -2.79924 0
M  V30 396 C 35.7174 0.630212 -3.41941 0
M  V30 397 H 35.0404 -0.0149558 -3.99797 0
M  V30 398 H 36.4804 1.01716 -4.11619 0
M  V30 399 C 34.9394 1.79601 -2.85035 0
M  V30 400 O 35.4694 2.89351 -2.78637 0
M  V30 401 N 33.6754 1.60774 -2.42074 0
M  V30 402 H 33.2224 0.715009 -2.47478 0
M  V30 403 H 33.1804 2.38933 -2.04349 0
M  V30 404 N 36.9525 1.47285 -0.560781 0
M  V30 405 C 38.2005 2.02064 -0.0379868 0
M  V30 406 C 38.5215 1.43711 1.31803 0
M  V30 407 O 37.7915 0.61362 1.86042 0
M  V30 408 H 36.3715 0.746918 -0.0110531 0
M  V30 409 H 39.0335 1.80648 -0.731598 0
M  V30 410 H 38.1295 3.12064 0.0474463 0
M  V30 411 N 38.4306 0.297415 1.54768 0
M  V30 412 C 39.6776 -0.312913 2.00068 0
M  V30 413 C 40.0056 -1.54171 1.18582 0
M  V30 414 O 39.2606 -1.94108 0.249133 0
M  V30 415 C 39.5596 -0.717561 3.50123 0
M  V30 416 C 39.2256 0.409095 4.4904 0
M  V30 417 C 37.8876 0.718399 4.75807 0
M  V30 418 C 40.2396 1.16717 5.07963 0
M  V30 419 C 37.5676 1.78896 5.5876 0
M  V30 420 C 39.9196 2.22762 5.92081 0
M  V30 421 C 38.5836 2.54303 6.1716 0
M  V30 422 H 37.8536 -0.114503 0.7321 0
M  V30 423 H 40.5006 0.415767 1.86932 0
M  V30 424 H 38.8056 -1.52627 3.60849 0
M  V30 425 H 40.5026 -1.20091 3.82595 0
M  V30 426 H 37.0926 0.157918 4.28309 0
M  V30 427 H 41.2766 0.941466 4.87289 0
M  V30 428 H 36.5326 2.0381 5.7643 0
M  V30 429 H 40.7066 2.81962 6.36765 0
M  V30 430 H 38.3336 3.3739 6.81229 0
M  V30 431 N 39.9087 -1.5758 0.0250728 0
M  V30 432 C 40.8557 -2.09973 -0.958129 0
M  V30 433 C 41.8257 -1.00085 -1.3256 0
M  V30 434 O 43.0107 -1.27481 -1.41962 0
M  V30 435 C 40.1507 -2.62812 -2.2366 0
M  V30 436 C 39.2637 -3.86693 -1.92594 0
M  V30 437 C 38.3987 -4.27941 -3.14707 0
M  V30 438 C 37.4377 -5.44591 -2.79442 0
M  V30 439 N 36.5747 -5.81014 -3.94167 0
M  V30 440 H 41.4147 -2.937 -0.504428 0
M  V30 441 H 38.9517 -1.45172 -0.237392 0
M  V30 442 H 40.9097 -2.91536 -2.98434 0
M  V30 443 H 39.5397 -1.81922 -2.66654 0
M  V30 444 H 38.5917 -3.64723 -1.0808 0
M  V30 445 H 39.9037 -4.71547 -1.62619 0
M  V30 446 H 39.0577 -4.58079 -3.97804 0
M  V30 447 H 37.7967 -3.41845 -3.4784 0
M  V30 448 H 36.8017 -5.1415 -1.94755 0
M  V30 449 H 38.0267 -6.32382 -2.47528 0
M  V30 450 H 35.9727 -4.97874 -4.2715 0
M  V30 451 H 35.8897 -6.60498 -3.67801 0
M  V30 452 H 37.1577 -6.15756 -4.7798 0
M  V30 453 N 41.3868 0.248026 -1.55636 0
M  V30 454 C 42.3198 1.3334 -1.85191 0
M  V30 455 C 43.2978 1.46429 -0.706906 0
M  V30 456 O 44.4818 1.62662 -0.952544 0
M  V30 457 C 41.6088 2.70703 -2.03562 0
M  V30 458 C 40.6548 2.7477 -3.26196 0
M  V30 459 S 41.4878 2.31493 -4.82878 0
M  V30 460 C 42.6438 3.70783 -5.04253 0
M  V30 461 H 42.8768 1.08072 -2.76962 0
M  V30 462 H 40.4098 0.448952 -1.47729 0
M  V30 463 H 42.3678 3.49798 -2.1483 0
M  V30 464 H 41.0288 2.9321 -1.12635 0
M  V30 465 H 40.2218 3.75648 -3.36013 0
M  V30 466 H 39.8238 2.03719 -3.13647 0
M  V30 467 H 42.1158 4.6627 -4.91527 0
M  V30 468 H 43.0588 3.65901 -6.06236 0
M  V30 469 H 43.4668 3.63244 -4.32105 0
M  V30 470 N 42.8649 1.48995 0.513639 0
M  V30 471 C 44.1119 1.57843 1.26854 0
M  V30 472 C 44.4399 0.259501 1.92761 0
M  V30 473 O 43.6949 -0.75159 1.80692 0
M  V30 474 C 43.9939 2.67756 2.36731 0
M  V30 475 C 43.6599 4.09669 1.88368 0
M  V30 476 C 42.3219 4.48291 1.74896 0
M  V30 477 C 44.6739 4.98537 1.52021 0
M  V30 478 C 42.0019 5.73568 1.23438 0
M  V30 479 C 44.3539 6.24319 1.0202 0
M  V30 480 C 43.0179 6.61783 0.871778 0
M  V30 481 H 42.2879 0.577587 0.464192 0
M  V30 482 H 44.9349 1.82778 0.571366 0
M  V30 483 H 43.2399 2.36743 3.12185 0
M  V30 484 H 44.9369 2.71813 2.9482 0
M  V30 485 H 41.5269 3.79176 1.99808 0
M  V30 486 H 45.7109 4.69363 1.61281 0
M  V30 487 H 40.9669 6.01304 1.10648 0
M  V30 488 H 45.1409 6.92566 0.729722 0
M  V30 489 H 42.7679 7.5874 0.470852 0
M  V30 490 N 44.343 -0.763751 1.37857 0
M  V30 491 C 45.273 -1.89103 1.36975 0
M  V30 492 C 46.254 -1.68439 0.237152 0
M  V30 493 O 47.439 -1.8918 0.438713 0
M  V30 494 C 44.569 -3.26496 1.18395 0
M  V30 495 C 43.523 -3.61741 2.28751 0
M  V30 496 C 42.849 -4.97762 1.95286 0
M  V30 497 C 44.149 -3.67665 3.70972 0
M  V30 498 H 45.843 -1.90099 2.31307 0
M  V30 499 H 43.389 -0.91319 1.11341 0
M  V30 500 H 45.342 -4.05003 1.16406 0
M  V30 501 H 44.066 -3.25955 0.205215 0
M  V30 502 H 42.725 -2.85547 2.29909 0
M  V30 503 H 42.373 -4.93769 0.959221 0
M  V30 504 H 42.073 -5.22313 2.69189 0
M  V30 505 H 43.597 -5.7866 1.94898 0
M  V30 506 H 45.011 -4.36307 3.719 0
M  V30 507 H 43.408 -4.03718 4.43995 0
M  V30 508 H 44.478 -2.68134 4.0402 0
M  V30 509 N 45.8211 -1.22559 -0.990812 0
M  V30 510 C 46.7841 -0.998863 -2.0629 0
M  V30 511 C 47.7841 0.0354834 -1.60761 0
M  V30 512 O 48.9741 -0.203231 -1.7301 0
M  V30 513 C 46.1061 -0.509203 -3.37076 0
M  V30 514 H 47.2991 -1.95014 -2.27837 0
M  V30 515 H 44.8521 -1.04456 -1.16269 0
M  V30 516 H 45.5871 0.446335 -3.21214 0
M  V30 517 H 45.3721 -1.25547 -3.71457 0
M  V30 518 H 46.8621 -0.370888 -4.1595 0
M  V30 519 N 47.2992 1.18797 -1.03562 0
M  V30 520 C 48.2622 2.20464 -0.626769 0
M  V30 521 C 49.2622 1.57721 0.313173 0
M  V30 522 O 50.4522 1.73917 0.0992615 0
M  V30 523 C 47.5842 3.40802 0.0818498 0
M  V30 524 H 48.7772 2.58149 -1.5264 0
M  V30 525 H 46.3302 1.32593 -0.827578 0
M  V30 526 H 47.0652 3.08642 0.995518 0
M  V30 527 H 46.8502 3.8758 -0.593652 0
M  V30 528 H 48.3402 4.16092 0.354584 0
M  V30 529 N 48.7773 0.814389 1.34928 0
M  V30 530 C 49.7073 0.244827 2.32213 0
M  V30 531 C 50.6883 -0.634024 1.57842 0
M  V30 532 O 51.8733 -0.562676 1.8587 0
M  V30 533 C 49.0033 -0.601106 3.42058 0
M  V30 534 C 47.9573 0.179896 4.27622 0
M  V30 535 C 47.2833 -0.788237 5.28858 0
M  V30 536 C 48.5833 1.38329 5.03649 0
M  V30 537 H 50.2773 1.05763 2.80097 0
M  V30 538 H 47.8233 0.510029 1.34665 0
M  V30 539 H 49.7763 -1.00968 4.09125 0
M  V30 540 H 48.5003 -1.44688 2.92802 0
M  V30 541 H 47.1593 0.569739 3.62146 0
M  V30 542 H 46.8073 -1.62973 4.75866 0
M  V30 543 H 46.5073 -0.269942 5.8698 0
M  V30 544 H 48.0313 -1.19485 5.98795 0
M  V30 545 H 49.4453 1.04918 5.63618 0
M  V30 546 H 47.8423 1.83662 5.71304 0
M  V30 547 H 48.9123 2.16592 4.33839 0
M  V30 548 N 50.2554 -1.46986 0.568584 0
M  V30 549 C 51.4804 -2.07335 0.0520528 0
M  V30 550 C 51.9054 -1.41675 -1.23733 0
M  V30 551 O 51.2634 -0.495623 -1.74394 0
M  V30 552 C 51.3114 -3.60417 -0.11501 0
M  V30 553 O 50.4154 -3.95309 -1.17492 0
M  V30 554 H 49.7564 -0.661597 0.0564385 0
M  V30 555 H 52.2864 -1.88837 0.787507 0
M  V30 556 H 52.2964 -4.06698 -0.325644 0
M  V30 557 H 50.9714 -4.07601 0.826675 0
M  V30 558 H 49.5484 -3.60757 -0.943869 0
M  V30 559 N 51.7335 -0.305618 -1.54608 0
M  V30 560 C 52.9805 0.302298 -2.00231 0
M  V30 561 C 53.3085 1.5354 -1.19398 0
M  V30 562 O 52.5635 1.93973 -0.259423 0
M  V30 563 C 52.8625 0.698983 -3.50498 0
M  V30 564 C 52.5285 -0.432903 -4.48817 0
M  V30 565 C 51.1905 -0.743622 -4.75419 0
M  V30 566 C 53.5425 -1.19409 -5.07337 0
M  V30 567 C 50.8705 -1.81857 -5.57804 0
M  V30 568 C 53.2225 -2.25899 -5.90891 0
M  V30 569 C 51.8865 -2.57572 -6.15803 0
M  V30 570 H 51.1565 0.110619 -0.732697 0
M  V30 571 H 53.8035 -0.425674 -1.86709 0
M  V30 572 H 52.1085 1.50711 -3.61654 0
M  V30 573 H 53.8055 1.1806 -3.83227 0
M  V30 574 H 50.3955 -0.18063 -4.28219 0
M  V30 575 H 54.5795 -0.967295 -4.86782 0
M  V30 576 H 49.8355 -2.06864 -5.75341 0
M  V30 577 H 54.0095 -2.85335 -6.35261 0
M  V30 578 H 51.6365 -3.40998 -6.7943 0
M  V30 579 N 53.2116 1.57565 -0.0334293 0
M  V30 580 C 54.4366 1.96689 0.657895 0
M  V30 581 C 54.8616 0.910057 1.64619 0
M  V30 582 O 54.2196 -0.128598 1.80843 0
M  V30 583 C 54.2676 3.34905 1.33683 0
M  V30 584 O 53.3716 3.31574 2.45219 0
M  V30 585 H 52.7126 0.641205 0.172489 0
M  V30 586 H 55.2426 2.04372 -0.0965621 0
M  V30 587 H 55.2526 3.71234 1.69262 0
M  V30 588 H 53.9276 4.11366 0.612411 0
M  V30 589 H 52.5046 3.06968 2.11719 0
M  V30 590 N 54.6897 -0.239769 1.55765 0
M  V30 591 C 55.9197 -0.982743 1.8173 0
M  V30 592 C 56.3277 -1.7917 0.607835 0
M  V30 593 O 55.6707 -1.78525 -0.432973 0
M  V30 594 C 55.7327 -1.96332 3.01155 0
M  V30 595 C 55.3967 -1.34062 4.36894 0
M  V30 596 C 56.3937 -0.739539 5.14613 0
M  V30 597 C 54.0787 -1.35784 4.83599 0
M  V30 598 C 56.0727 -0.163989 6.37189 0
M  V30 599 C 53.7597 -0.778441 6.06122 0
M  V30 600 C 54.7577 -0.182548 6.82756 0
M  V30 601 O 54.4457 0.387887 8.02964 0
M  V30 602 H 54.1777 -0.294481 0.608487 0
M  V30 603 H 56.7317 -0.26572 2.03674 0
M  V30 604 H 54.9617 -2.71884 2.74984 0
M  V30 605 H 56.6507 -2.57032 3.14149 0
M  V30 606 H 57.4167 -0.718687 4.79646 0
M  V30 607 H 53.2957 -1.81105 4.23936 0
M  V30 608 H 56.8397 0.301753 6.96947 0
M  V30 609 H 52.7367 -0.796645 6.40565 0
M  V30 610 H 53.5047 0.28044 8.18019 0
M  V30 611 N 56.1678 -1.49265 -0.50573 0
M  V30 612 C 57.4168 -1.57761 -1.25675 0
M  V30 613 C 57.7298 -0.267371 -1.93764 0
M  V30 614 O 58.9358 -0.230827 -2.70517 0
M  V30 615 C 57.3918 -2.78332 -2.28165 0
M  V30 616 C 56.9998 -4.16096 -1.66037 0
M  V30 617 C 58.7438 -2.96155 -3.04125 0
M  V30 618 C 56.6508 -5.27895 -2.6661 0
M  V30 619 H 55.5808 -0.587391 -0.472745 0
M  V30 620 H 58.2318 -1.75644 -0.53118 0
M  V30 621 H 56.6138 -2.53934 -3.03865 0
M  V30 622 H 57.7878 -4.50612 -0.963622 0
M  V30 623 H 56.1028 -4.03591 -1.02484 0
M  V30 624 H 58.6998 -3.76849 -3.79327 0
M  V30 625 H 59.0428 -2.06534 -3.61455 0
M  V30 626 H 59.5758 -3.2057 -2.35541 0
M  V30 627 H 56.3148 -6.1956 -2.14068 0
M  V30 628 H 55.8348 -4.97839 -3.34539 0
M  V30 629 H 57.5138 -5.57031 -3.29129 0
M  V30 630 N 57.6459 0.756429 -1.3826 0
M  V30 631 C 58.6089 1.85176 -1.35065 0
M  V30 632 C 59.6089 1.58818 -0.251703 0
M  V30 633 O 60.7989 1.66615 -0.508433 0
M  V30 634 C 57.9309 3.22596 -1.10201 0
M  V30 635 H 59.1239 1.89417 -2.3251 0
M  V30 636 H 56.6769 0.95783 -1.23512 0
M  V30 637 H 57.4119 3.24025 -0.133504 0
M  V30 638 H 57.1969 3.43122 -1.89762 0
M  V30 639 H 58.6869 4.02673 -1.10654 0
M  V30 640 N 59.124 1.23083 0.984299 0
M  V30 641 C 60.071 1.00854 2.07598 0
M  V30 642 C 61.041 -0.0726709 1.65941 0
M  V30 643 O 62.226 0.0786535 1.90638 0
M  V30 644 C 59.366 0.601645 3.39815 0
M  V30 645 C 58.479 1.75456 3.94765 0
M  V30 646 C 57.614 1.29482 5.15177 0
M  V30 647 C 56.653 2.41873 5.62284 0
M  V30 648 N 55.79 1.96885 6.73929 0
M  V30 649 H 60.63 1.943 2.25946 0
M  V30 650 H 58.167 0.968001 1.10762 0
M  V30 651 H 60.125 0.346854 4.15756 0
M  V30 652 H 58.755 -0.295803 3.21442 0
M  V30 653 H 57.807 2.12346 3.15616 0
M  V30 654 H 59.119 2.59965 4.25699 0
M  V30 655 H 58.273 0.997923 5.98437 0
M  V30 656 H 57.012 0.420046 4.85888 0
M  V30 657 H 56.017 2.72342 4.77608 0
M  V30 658 H 57.242 3.29881 5.93595 0
M  V30 659 H 55.188 1.11782 6.46406 0
M  V30 660 H 55.105 2.74956 7.04227 0
M  V30 661 H 56.373 1.70289 7.60672 0
M  V30 662 N 60.6021 -1.18246 1.0419 0
M  V30 663 C 61.5651 -2.20128 0.638452 0
M  V30 664 C 62.5651 -1.57885 -0.304805 0
M  V30 665 O 63.7551 -1.73967 -0.0900369 0
M  V30 666 C 60.8871 -3.4084 -0.0637751 0
M  V30 667 H 62.0801 -2.57336 1.54007 0
M  V30 668 H 59.6331 -1.32152 0.834598 0
M  V30 669 H 60.3681 -3.09166 -0.979136 0
M  V30 670 H 60.1531 -3.8726 0.614198 0
M  V30 671 H 61.6431 -4.16274 -0.332512 0
M  V30 672 N 62.0802 -0.821533 -1.34494 0
M  V30 673 C 63.0102 -0.257138 -2.3208 0
M  V30 674 C 63.9912 0.625645 -1.58176 0
M  V30 675 O 65.1762 0.552811 -1.86166 0
M  V30 676 C 62.3062 0.582958 -3.42372 0
M  V30 677 C 61.2602 -0.202571 -4.2752 0
M  V30 678 C 60.5862 0.760179 -5.29269 0
M  V30 679 C 61.8862 -1.40998 -5.02908 0
M  V30 680 H 63.5802 -1.07247 -2.79532 0
M  V30 681 H 61.1262 -0.517163 -1.34393 0
M  V30 682 H 63.0792 0.987972 -4.09655 0
M  V30 683 H 61.8032 1.43133 -2.93565 0
M  V30 684 H 60.4622 -0.588936 -3.61838 0
M  V30 685 H 60.1102 1.60447 -4.76724 0
M  V30 686 H 59.8102 0.238809 -5.87115 0
M  V30 687 H 61.3342 1.16308 -5.9942 0
M  V30 688 H 62.7482 -1.07905 -5.63054 0
M  V30 689 H 61.1452 -1.86689 -5.70322 0
M  V30 690 H 62.2152 -2.1889 -4.32684 0
M  V30 691 N 63.5583 1.46682 -0.576371 0
M  V30 692 C 64.8063 2.02013 -0.0594163 0
M  V30 693 C 65.1273 1.45101 1.30271 0
M  V30 694 O 64.3973 0.633317 1.8538 0
M  V30 695 H 62.9773 0.746759 -0.0189745 0
M  V30 696 H 65.6393 1.79862 -0.750717 0
M  V30 697 H 64.7353 3.12097 0.014345 0
M  V30 698 N 65.0364 0.313813 1.54444 0
M  V30 699 C 66.2844 -0.291099 1.99993 0
M  V30 700 C 66.6054 -1.53418 1.20366 0
M  V30 701 O 65.8754 -1.93544 0.302927 0
M  V30 702 H 64.4554 -0.110552 0.738774 0
M  V30 703 H 67.1174 0.428106 1.9014 0
M  V30 704 H 66.2134 -0.554268 3.07139 0
M  V30 705 N 66.5145 -1.57545 0.0417849 0
M  V30 706 C 67.7635 -1.91494 -0.633492 0
M  V30 707 C 68.0765 -0.921084 -1.72556 0
M  V30 708 O 69.2825 -1.15228 -2.45835 0
M  V30 709 C 67.7385 -3.40072 -1.17808 0
M  V30 710 C 67.3465 -4.47843 -0.118633 0
M  V30 711 C 69.0905 -3.8307 -1.82915 0
M  V30 712 C 66.9975 -5.87529 -0.675578 0
M  V30 713 H 65.9275 -0.714653 -0.24039 0
M  V30 714 H 68.5785 -1.83175 0.109148 0
M  V30 715 H 66.9605 -3.43364 -1.97274 0
M  V30 716 H 68.1345 -4.56128 0.654494 0
M  V30 717 H 66.4495 -4.14128 0.434414 0
M  V30 718 H 69.0465 -4.84794 -2.25563 0
M  V30 719 H 69.3895 -3.1881 -2.67705 0
M  V30 720 H 69.9225 -3.82255 -1.10119 0
M  V30 721 H 66.6615 -6.55362 0.134475 0
M  V30 722 H 66.1815 -5.82824 -1.4169 0
M  V30 723 H 67.8605 -6.36491 -1.1614 0
M  V30 724 N 67.9926 0.231505 -1.5589 0
M  V30 725 C 69.2416 0.955346 -1.7764 0
M  V30 726 C 69.5546 1.85893 -0.608546 0
M  V30 727 O 70.7606 2.62067 -0.70943 0
M  V30 728 C 69.2166 1.74886 -3.14552 0
M  V30 729 C 68.8246 0.891915 -4.39032 0
M  V30 730 C 70.5686 2.46452 -3.45633 0
M  V30 731 C 68.4756 1.68221 -5.66971 0
M  V30 732 H 67.4056 0.360446 -0.662265 0
M  V30 733 H 70.0566 0.209516 -1.823 0
M  V30 734 H 68.4386 2.53723 -3.04041 0
M  V30 735 H 69.6126 0.144793 -4.60572 0
M  V30 736 H 67.9276 0.288863 -4.15397 0
M  V30 737 H 70.5246 3.06061 -4.38441 0
M  V30 738 H 70.8676 3.18841 -2.67668 0
M  V30 739 H 71.4006 1.74613 -3.57428 0
M  V30 740 H 68.1396 1.00178 -6.478 0
M  V30 741 H 67.6596 2.4042 -5.49507 0
M  V30 742 H 69.3386 2.24544 -6.06786 0
M  V30 743 N 69.4707 1.49531 0.497807 0
M  V30 744 C 70.4037 1.61043 1.6168 0
M  V30 745 C 71.3817 0.459386 1.55976 0
M  V30 746 O 72.5657 0.675358 1.75986 0
M  V30 747 C 69.6927 1.56833 3.00202 0
M  V30 748 C 68.7387 2.77173 3.24156 0
M  V30 749 S 69.5717 4.38808 3.06933 0
M  V30 750 C 70.7277 4.37248 4.47845 0
M  V30 751 H 70.9607 2.55702 1.51671 0
M  V30 752 H 68.4937 1.38462 0.683201 0
M  V30 753 H 70.4517 1.55089 3.80076 0
M  V30 754 H 69.1127 0.634561 3.07623 0
M  V30 755 H 68.3057 2.70456 4.25288 0
M  V30 756 H 67.9077 2.76346 2.5201 0
M  V30 757 H 70.1997 4.09164 5.39992 0
M  V30 758 H 71.1427 5.38668 4.59612 0
M  V30 759 H 71.5507 3.67286 4.28674 0
M  V30 760 N 70.9488 -0.749086 1.3866 0
M  V30 761 C 71.8958 -1.86291 1.36251 0
M  V30 762 C 72.8658 -1.64578 0.224347 0
M  V30 763 O 74.0508 -1.86181 0.417279 0
M  V30 764 C 71.1908 -3.23644 1.19786 0
M  V30 765 C 70.3038 -3.57158 2.43027 0
M  V30 766 C 69.4388 -4.83838 2.19258 0
M  V30 767 C 68.4778 -5.10152 3.38247 0
M  V30 768 N 67.6148 -6.28029 3.13884 0
M  V30 769 H 72.4548 -1.87685 2.3147 0
M  V30 770 H 69.9918 -0.917287 1.14997 0
M  V30 771 H 71.9498 -4.0291 1.08254 0
M  V30 772 H 70.5798 -3.21566 0.282031 0
M  V30 773 H 69.6318 -2.72701 2.65214 0
M  V30 774 H 70.9438 -3.7253 3.31697 0
M  V30 775 H 70.0978 -5.71057 2.04888 0
M  V30 776 H 68.8368 -4.70614 1.2796 0
M  V30 777 H 67.8418 -4.21401 3.53131 0
M  V30 778 H 69.0668 -5.25271 4.30427 0
M  V30 779 H 67.0128 -6.1612 2.25238 0
M  V30 780 H 66.9298 -6.43922 3.96106 0
M  V30 781 H 68.1978 -7.18124 3.03179 0
M  V30 782 N 72.4269 -1.23603 -0.977757 0
M  V30 783 C 73.6759 -1.06377 -1.71368 0
M  V30 784 C 73.9889 0.399062 -1.91486 0
M  V30 785 O 75.1949 0.691312 -2.62551 0
M  V30 786 C 73.6509 -1.85512 -3.08404 0
M  V30 787 C 73.2589 -3.36141 -2.96164 0
M  V30 788 C 75.0029 -1.76783 -3.85938 0
M  V30 789 C 72.9099 -4.07659 -4.28449 0
M  V30 790 H 71.8399 -0.394452 -0.642591 0
M  V30 791 H 74.4909 -1.47594 -1.09034 0
M  V30 792 H 72.8729 -1.37103 -3.71509 0
M  V30 793 H 74.0469 -3.92056 -2.42133 0
M  V30 794 H 72.3619 -3.45712 -2.32104 0
M  V30 795 H 74.9589 -2.27526 -4.83876 0
M  V30 796 H 75.3019 -0.731116 -4.0983 0
M  V30 797 H 75.8349 -2.22818 -3.2954 0
M  V30 798 H 72.5739 -5.11648 -4.09752 0
M  V30 799 H 72.0939 -3.5653 -4.82334 0
M  V30 800 H 73.7729 -4.141 -4.97122 0
M  V30 801 N 73.905 1.17692 -1.04816 0
M  V30 802 C 75.13 1.92327 -0.776207 0
M  V30 803 C 75.555 1.76082 0.661581 0
M  V30 804 O 74.913 1.076 1.45917 0
M  V30 805 C 74.961 3.41539 -1.15687 0
M  V30 806 O 74.065 4.11402 -0.286775 0
M  V30 807 H 73.406 0.599735 -0.284981 0
M  V30 808 H 75.936 1.49201 -1.4 0
M  V30 809 H 75.946 3.92269 -1.12202 0
M  V30 810 H 74.621 3.52684 -2.20425 0
M  V30 811 H 73.198 3.70939 -0.381903 0
M  V30 812 N 75.3831 0.828654 1.34056 0
M  V30 813 C 76.6321 0.415828 1.97367 0
M  V30 814 C 76.9451 -1.02796 1.6641 0
M  V30 815 O 78.1511 -1.54497 2.23255 0
M  V30 816 C 76.6071 0.692601 3.53173 0
M  V30 817 C 76.2151 2.15038 3.93017 0
M  V30 818 C 77.9591 0.346222 4.23086 0
M  V30 819 C 75.8661 2.37174 5.41758 0
M  V30 820 H 74.7961 0.151755 0.738571 0
M  V30 821 H 77.4471 1.01581 1.52819 0
M  V30 822 H 75.8291 0.0223764 3.95994 0
M  V30 823 H 77.0031 2.86024 3.61285 0
M  V30 824 H 75.3181 2.45875 3.36057 0
M  V30 825 H 77.9151 0.48937 5.32456 0
M  V30 826 H 78.2581 -0.709842 4.10204 0
M  V30 827 H 78.7911 0.971258 3.85761 0
M  V30 828 H 75.5301 3.41308 5.59633 0
M  V30 829 H 75.0501 1.70738 5.74986 0
M  V30 830 H 76.7291 2.19818 6.08514 0
M  V30 831 N 76.8612 -1.46375 0.584142 0
M  V30 832 C 78.0892 -2.06761 0.0759296 0
M  V30 833 C 78.5042 -1.43266 -1.22965 0
M  V30 834 O 77.8612 -0.538458 -1.74376 0
M  V30 835 C 77.9122 -3.61375 -0.0950384 0
M  V30 836 O 77.6332 -4.22495 1.15887 0
M  V30 837 C 79.1342 -4.38693 -0.637434 0
M  V30 838 H 76.3542 -0.668479 0.0581075 0
M  V30 839 H 78.8982 -1.8798 0.805218 0
M  V30 840 H 77.0532 -3.79578 -0.774554 0
M  V30 841 H 77.4672 -5.15385 0.973598 0
M  V30 842 H 78.9412 -5.47464 -0.706237 0
M  V30 843 H 79.4182 -4.06836 -1.65472 0
M  V30 844 H 80.0242 -4.25299 0.00725967 0
M  V30 845 N 78.3393 -0.321999 -1.54275 0
M  V30 846 C 79.2713 0.578671 -2.21775 0
M  V30 847 C 80.2843 1.08109 -1.21722 0
M  V30 848 O 81.4733 0.994938 -1.482 0
M  V30 849 C 78.5733 1.80661 -2.86731 0
M  V30 850 C 77.7463 1.44314 -4.12907 0
M  V30 851 C 76.8053 2.52845 -4.61472 0
M  V30 852 O 75.8313 2.17054 -5.2619 0
M  V30 853 N 77.0333 3.83748 -4.35566 0
M  V30 854 H 79.7983 0.000709447 -2.997 0
M  V30 855 H 77.3593 -0.145132 -1.61248 0
M  V30 856 H 79.3513 2.52655 -3.16145 0
M  V30 857 H 77.9213 2.29245 -2.12521 0
M  V30 858 H 77.1413 0.554906 -3.90275 0
M  V30 859 H 78.4293 1.17598 -4.95023 0
M  V30 860 H 77.8273 4.15625 -3.83761 0
M  V30 861 H 76.3843 4.51977 -4.69638 0
M  V30 862 N 79.8174 1.5752 -0.0501392 0
M  V30 863 C 81.0664 1.91827 0.623328 0
M  V30 864 C 81.3794 0.930222 1.72065 0
M  V30 865 O 82.5854 1.1653 2.4522 0
M  V30 866 C 81.0414 3.40692 1.16003 0
M  V30 867 C 80.6494 4.479 0.0948811 0
M  V30 868 C 82.3934 3.84034 1.80881 0
M  V30 869 C 80.3004 5.87879 0.644411 0
M  V30 870 H 79.2304 0.715918 0.236596 0
M  V30 871 H 81.8814 1.83115 -0.118861 0
M  V30 872 H 80.2634 3.44405 1.9545 0
M  V30 873 H 81.4374 4.55775 -0.678675 0
M  V30 874 H 79.7524 4.13892 -0.45637 0
M  V30 875 H 82.3494 4.85984 2.22988 0
M  V30 876 H 82.6924 3.20225 2.6601 0
M  V30 877 H 83.2254 3.82833 1.0809 0
M  V30 878 H 79.9644 6.55282 -0.169229 0
M  V30 879 H 79.4844 5.83567 1.38598 0
M  V30 880 H 81.1634 6.37098 1.12763 0
M  V30 881 N 81.2955 -0.223234 1.56011 0
M  V30 882 C 82.2055 -1.29766 1.95443 0
M  V30 883 C 83.2215 -1.51373 0.858028 0
M  V30 884 O 84.3975 -1.64536 1.16146 0
M  V30 885 C 81.4625 -2.62772 2.26167 0
M  V30 886 C 80.5235 -2.49482 3.49367 0
M  V30 887 C 79.7565 -3.76145 3.78616 0
M  V30 888 O 79.9795 -4.79087 3.09568 0
M  V30 889 O 78.9135 -3.73358 4.72109 0
M  V30 890 H 82.7395 -0.99309 2.87004 0
M  V30 891 H 80.3245 -0.425958 1.43199 0
M  V30 892 H 82.2065 -3.41327 2.47131 0
M  V30 893 H 80.8815 -2.92913 1.37781 0
M  V30 894 H 79.7885 -1.69133 3.33684 0
M  V30 895 H 81.1215 -2.2428 4.38131 0
M  V30 896 N 82.7736 -1.49793 -0.48987 0
M  V30 897 C 84.1896 -1.36803 -0.822022 0
M  V30 898 C 84.3896 -0.409652 -1.97292 0
M  V30 899 O 83.4456 0.154614 -2.52026 0
M  V30 900 C 84.7586 -2.77768 -1.15175 0
M  V30 901 C 86.3066 -2.86549 -1.25931 0
M  V30 902 C 86.7816 -4.28306 -1.62228 0
M  V30 903 N 88.2726 -4.31169 -1.69256 0
M  V30 904 C 89.0076 -5.37832 -1.98807 0
M  V30 905 N 88.5036 -6.54726 -2.26507 0
M  V30 906 N 90.2966 -5.25258 -2.00152 0
M  V30 907 H 82.4476 -2.10691 0.268881 0
M  V30 908 H 84.7106 -0.946241 0.057728 0
M  V30 909 H 84.4166 -3.49648 -0.379335 0
M  V30 910 H 84.2906 -3.13836 -2.09253 0
M  V30 911 H 86.6776 -2.14899 -2.02243 0
M  V30 912 H 86.7586 -2.54049 -0.298776 0
M  V30 913 H 86.4026 -5.00486 -0.864622 0
M  V30 914 H 86.3326 -4.58279 -2.594 0
M  V30 915 H 88.8236 -3.4687 -1.49965 0
M  V30 916 H 89.1366 -7.31833 -2.48276 0
M  V30 917 H 87.4816 -6.57933 -2.23939 0
M  V30 918 H 90.6726 -4.32938 -1.77996 0
M  V30 919 H 90.8456 -6.08476 -2.22848 0
M  V30 920 N 84.2517 0.741722 -1.39055 0
M  V30 921 C 85.6677 1.04638 -1.20512 0
M  V30 922 C 85.8677 2.01405 -0.0620218 0
M  V30 923 O 84.9237 2.45547 0.588457 0
M  V30 924 C 86.2367 1.6151 -2.53643 0
M  V30 925 C 87.7847 1.73623 -2.6043 0
M  V30 926 C 88.2597 2.33906 -3.93767 0
M  V30 927 N 89.7507 2.41323 -3.9537 0
M  V30 928 C 90.4857 2.88888 -4.95309 0
M  V30 929 N 89.9817 3.36401 -6.05645 0
M  V30 930 N 91.7747 2.88037 -4.82692 0
M  V30 931 H 83.9257 0.0998155 -2.12165 0
M  V30 932 H 86.1887 0.106907 -0.941953 0
M  V30 933 H 85.8947 0.978739 -3.37807 0
M  V30 934 H 85.7687 2.60411 -2.72885 0
M  V30 935 H 88.1557 2.36384 -1.76655 0
M  V30 936 H 88.2367 0.733945 -2.45045 0
M  V30 937 H 87.8807 1.71776 -4.7797 0
M  V30 938 H 87.8107 3.34799 -4.06469 0
M  V30 939 H 90.3017 2.07734 -3.15682 0
M  V30 940 H 90.6147 3.71186 -6.77821 0
M  V30 941 H 88.9597 3.34427 -6.09248 0
M  V30 942 H 92.1507 2.50237 -3.95599 0
M  V30 943 H 92.3237 3.24792 -5.60726 0
M  V30 944 N 85.7298 1.2412 0.971189 0
M  V30 945 C 86.9768 1.07881 1.71371 0
M  V30 946 C 87.3048 -0.382901 1.90694 0
M  V30 947 O 86.5598 -1.29945 1.46331 0
M  V30 948 C 86.8588 1.75983 3.11071 0
M  V30 949 C 86.5248 3.25909 3.11599 0
M  V30 950 C 85.1868 3.66813 3.11451 0
M  V30 951 C 87.5388 4.21771 3.062 0
M  V30 952 C 84.8668 5.02021 3.03631 0
M  V30 953 C 87.2188 5.56982 2.99923 0
M  V30 954 C 85.8828 5.97237 2.98102 0
M  V30 955 H 85.1528 0.394764 0.62709 0
M  V30 956 H 87.7998 1.54176 1.13587 0
M  V30 957 H 86.1048 1.22072 3.72298 0
M  V30 958 H 87.8018 1.60887 3.6731 0
M  V30 959 H 84.3918 2.93353 3.12477 0
M  V30 960 H 88.5758 3.91172 3.05447 0
M  V30 961 H 83.8318 5.32411 3.0058 0
M  V30 962 H 88.0058 6.30969 2.94704 0
M  V30 963 H 85.6328 7.01967 2.91798 0
M  V30 964 N 87.2079 -1.17134 1.05439 0
M  V30 965 C 88.4849 -1.83411 0.679699 0
M  V30 966 C 88.8649 -1.9368 -0.839726 0
M  V30 967 O 88.2129 -1.47325 -1.74664 0
M  V30 968 C 88.4229 -3.20918 1.37159 0
M  V30 969 C 89.7709 -3.96796 1.51123 0
M  V30 970 O 90.7949 -3.30406 1.3308 0
M  V30 971 O 89.6539 -5.15778 1.80651 0
M  V30 972 H 86.7479 -0.79154 0.239569 0
M  V30 973 H 89.2939 -1.24411 1.15413 0
M  V30 974 H 88.0659 -3.08428 2.40807 0
M  V30 975 H 87.6889 -3.87587 0.886674 0
M  V30 976 N 88.686 -0.835752 -1.33615 0
M  V30 977 C 89.935 -0.426289 -1.97144 0
M  V30 978 C 90.248 1.01912 -1.66953 0
M  V30 979 O 91.454 1.53311 -2.24072 0
M  V30 980 C 89.91 -0.711321 -3.52801 0
M  V30 981 C 89.518 -2.1712 -3.91871 0
M  V30 982 C 91.262 -0.368654 -4.22896 0
M  V30 983 C 89.169 -2.40044 -5.40493 0
M  V30 984 H 88.099 -0.15567 -0.737755 0
M  V30 985 H 90.75 -1.0239 -1.52278 0
M  V30 986 H 89.132 -0.0433766 -3.95976 0
M  V30 987 H 90.306 -2.87936 -3.59763 0
M  V30 988 H 88.621 -2.47654 -3.34749 0
M  V30 989 H 91.218 -0.517601 -5.32189 0
M  V30 990 H 91.561 0.688078 -4.10574 0
M  V30 991 H 92.094 -0.991702 -3.8524 0
M  V30 992 H 88.833 -3.44271 -5.57815 0
M  V30 993 H 88.353 -1.73785 -5.74072 0
M  V30 994 H 90.032 -2.23042 -6.0734 0
M  V30 995 N 90.1641 1.46063 -0.591896 0
M  V30 996 C 91.3891 2.07226 -0.0850314 0
M  V30 997 C 91.8141 1.43625 1.21463 0
M  V30 998 O 91.1721 0.523305 1.73583 0
M  V30 999 C 91.2201 3.60554 0.0576567 0
M  V30 1000 O 90.3241 3.97128 1.11188 0
M  V30 1001 H 89.6651 0.660615 -0.0669568 0
M  V30 1002 H 92.1951 1.8756 -0.81745 0
M  V30 1003 H 92.2051 4.07165 0.2609 0
M  V30 1004 H 90.8801 4.06235 -0.891416 0
M  V30 1005 H 89.4571 3.62213 0.886356 0
M  V30 1006 N 91.6422 0.330177 1.54103 0
M  V30 1007 C 92.8672 -0.274893 2.0557 0
M  V30 1008 C 93.2922 -1.44487 1.20437 0
M  V30 1009 O 92.6502 -1.80021 0.214991 0
M  V30 1010 C 92.6982 -0.68079 3.54115 0
M  V30 1011 O 91.8022 -1.7824 3.71893 0
M  V30 1012 H 91.1432 -0.0483849 0.662235 0
M  V30 1013 H 93.6732 0.480508 1.98878 0
M  V30 1014 H 93.6832 -0.961635 3.96505 0
M  V30 1015 H 92.3582 0.174903 4.15532 0
M  V30 1016 H 90.9352 -1.49985 3.41407 0
M  V30 1017 N 93.1203 -1.57491 0.0584922 0
M  V30 1018 C 94.3453 -1.97711 -0.62652 0
M  V30 1019 C 94.7703 -0.936132 -1.63151 0
M  V30 1020 O 94.1283 0.099811 -1.81025 0
M  V30 1021 C 94.1763 -3.36989 -1.28338 0
M  V30 1022 O 93.2803 -3.35433 -2.39913 0
M  V30 1023 H 92.6213 -0.643868 -0.162266 0
M  V30 1024 H 95.1513 -2.04193 0.129064 0
M  V30 1025 H 95.1613 -3.73879 -1.63335 0
M  V30 1026 H 93.8363 -4.12289 -0.546889 0
M  V30 1027 H 92.4133 -3.10298 -2.06809 0
M  V30 1028 N 94.5984 0.214957 -1.56127 0
M  V30 1029 C 95.5284 1.2695 -1.95974 0
M  V30 1030 C 96.5094 1.48539 -0.828868 0
M  V30 1031 O 97.6944 1.60611 -1.09168 0
M  V30 1032 C 94.8244 2.61794 -2.28214 0
M  V30 1033 C 93.7784 2.54851 -3.43853 0
M  V30 1034 C 93.1044 3.93785 -3.61715 0
M  V30 1035 C 94.4044 2.09065 -4.78632 0
M  V30 1036 H 96.0984 0.93846 -2.84312 0
M  V30 1037 H 93.6444 0.449996 -1.36788 0
M  V30 1038 H 95.5974 3.35731 -2.54682 0
M  V30 1039 H 94.3214 2.96599 -1.36736 0
M  V30 1040 H 92.9804 1.8337 -3.17444 0
M  V30 1041 H 92.6284 4.25908 -2.67602 0
M  V30 1042 H 92.3284 3.90019 -4.39498 0
M  V30 1043 H 93.8524 4.69374 -3.90539 0
M  V30 1044 H 95.2664 2.7275 -5.04262 0
M  V30 1045 H 93.6634 2.16346 -5.59745 0
M  V30 1046 H 94.7334 1.04315 -4.73547 0
M  V30 1047 N 96.0765 1.50051 0.48192 0
M  V30 1048 C 97.0395 1.67584 1.5636 0
M  V30 1049 C 98.0395 0.546894 1.51214 0
M  V30 1050 O 99.2295 0.813725 1.54026 0
M  V30 1051 C 96.3615 1.691 2.96003 0
M  V30 1052 H 97.5545 2.64078 1.42136 0
M  V30 1053 H 95.1075 1.39369 0.707533 0
M  V30 1054 H 95.8425 0.742589 3.15684 0
M  V30 1055 H 95.6275 2.51105 3.01146 0
M  V30 1056 H 97.1175 1.84656 3.74556 0
M  V30 1057 N 97.5546 -0.734337 1.39446 0
M  V30 1058 C 98.8026 -1.49096 1.36436 0
M  V30 1059 C 99.1236 -1.94961 -0.0388255 0
M  V30 1060 O 98.3936 -1.69033 -0.990191 0
M  V30 1061 H 96.9736 -0.5531 0.502085 0
M  V30 1062 H 99.6356 -0.871725 1.74319 0
M  V30 1063 H 98.7316 -2.37276 2.02747 0
M  V30 1064 N 99.0327 -1.24633 -0.964593 0
M  V30 1065 C 99.9627 -1.06611 -2.07741 0
M  V30 1066 C 100.944 0.0218666 -1.70086 0
M  V30 1067 O 102.129 -0.145793 -1.93652 0
M  V30 1068 C 99.2587 -0.673444 -3.40708 0
M  V30 1069 C 98.2127 -1.71054 -3.92332 0
M  V30 1070 C 97.5387 -1.17285 -5.21678 0
M  V30 1071 C 98.8387 -3.10718 -4.19824 0
M  V30 1072 H 100.533 -1.99693 -2.23076 0
M  V30 1073 H 98.0787 -0.96152 -1.07195 0
M  V30 1074 H 100.032 -0.534345 -4.17998 0
M  V30 1075 H 98.7557 0.293073 -3.25282 0
M  V30 1076 H 97.4147 -1.83791 -3.17201 0
M  V30 1077 H 97.0627 -0.196847 -5.02615 0
M  V30 1078 H 96.7627 -1.86592 -5.57187 0
M  V30 1079 H 98.2867 -1.04593 -6.01575 0
M  V30 1080 H 99.7007 -3.01192 -4.87808 0
M  V30 1081 H 98.0977 -3.77406 -4.66567 0
M  V30 1082 H 99.1677 -3.58524 -3.26479 0
M  V30 1083 N 100.511 1.16574 -1.06058 0
M  V30 1084 C 101.76 1.86385 -0.770944 0
M  V30 1085 C 102.073 1.82448 0.705129 0
M  V30 1086 O 103.279 2.47815 1.10905 0
M  V30 1087 C 101.735 3.34466 -1.32893 0
M  V30 1088 C 101.343 3.46883 -2.83507 0
M  V30 1089 C 103.087 4.09548 -1.11672 0
M  V30 1090 C 100.994 4.89036 -3.32562 0
M  V30 1091 H 99.9238 0.698181 -0.284709 0
M  V30 1092 H 102.575 1.31583 -1.27899 0
M  V30 1093 H 100.957 3.88859 -0.748662 0
M  V30 1094 H 102.131 3.02663 -3.47465 0
M  V30 1095 H 100.446 2.85232 -3.03368 0
M  V30 1096 H 103.043 5.14434 -1.45814 0
M  V30 1097 H 103.386 4.16264 -0.0549535 0
M  V30 1098 H 103.919 3.61387 -1.66265 0
M  V30 1099 H 100.658 4.87499 -4.38207 0
M  V30 1100 H 100.178 5.3389 -2.73351 0
M  V30 1101 H 101.857 5.57843 -3.2775 0
M  V30 1102 N 101.989 0.842826 1.3317 0
M  V30 1103 C 103.266 0.362216 1.92217 0
M  V30 1104 C 103.646 -1.15289 1.76838 0
M  V30 1105 O 102.994 -1.96914 1.15919 0
M  V30 1106 C 103.204 0.813495 3.39387 0
M  V30 1107 C 104.552 0.823804 4.16532 0
M  V30 1108 O 105.576 0.757358 3.48055 0
M  V30 1109 O 104.435 0.915193 5.38782 0
M  V30 1110 H 101.529 0.103317 0.820521 0
M  V30 1111 H 104.075 0.928942 1.42017 0
M  V30 1112 H 102.847 1.85624 3.4447 0
M  V30 1113 H 102.47 0.223561 3.96971 0
M  V30 1114 N 103.467 -1.45747 0.599634 0
M  V30 1115 C 104.715 -2.01893 0.0915472 0
M  V30 1116 C 105.036 -1.47155 -1.27946 0
M  V30 1117 O 104.306 -0.66273 -1.84349 0
M  V30 1118 H 102.886 -0.746363 0.0308524 0
M  V30 1119 H 105.548 -1.78645 0.779237 0
M  V30 1120 H 104.644 -3.1208 0.0353086 0
M  V30 1121 N 104.945 -0.338344 -1.53925 0
M  V30 1122 C 106.17 0.263987 -2.05713 0
M  V30 1123 C 106.595 1.43847 -1.21201 0
M  V30 1124 O 105.953 1.79904 -0.224535 0
M  V30 1125 C 106.001 0.662 -3.54471 0
M  V30 1126 O 105.105 1.76265 -3.72833 0
M  V30 1127 H 104.446 0.0448722 -0.662482 0
M  V30 1128 H 106.976 -0.491048 -1.9862 0
M  V30 1129 H 106.986 0.940594 -3.9701 0
M  V30 1130 H 105.661 -0.196937 -4.15433 0
M  V30 1131 H 104.238 1.48173 -3.42198 0
M  V30 1132 N 106.423 1.57458 -0.0668435 0
M  V30 1133 C 107.67 1.93301 0.603406 0
M  V30 1134 C 107.998 0.946486 1.69917 0
M  V30 1135 O 107.253 -0.0387021 1.95662 0
M  V30 1136 C 107.552 3.35784 1.22409 0
M  V30 1137 C 107.218 4.50179 0.254955 0
M  V30 1138 C 105.88 4.81199 -0.0116746 0
M  V30 1139 C 108.232 5.19598 -0.408338 0
M  V30 1140 C 105.56 5.78978 -0.94877 0
M  V30 1141 C 107.912 6.18381 -1.33372 0
M  V30 1142 C 106.576 6.47821 -1.60887 0
M  V30 1143 H 105.846 0.707338 0.220802 0
M  V30 1144 H 108.493 1.91012 -0.136665 0
M  V30 1145 H 106.798 3.34515 2.03978 0
M  V30 1146 H 108.495 3.60804 1.74989 0
M  V30 1147 H 105.085 4.25983 0.472954 0
M  V30 1148 H 109.269 4.95832 -0.215456 0
M  V30 1149 H 104.525 6.00115 -1.16925 0
M  V30 1150 H 108.699 6.71277 -1.85367 0
M  V30 1151 H 106.326 7.23399 -2.33661 0
M  V30 1152 N 107.901 -0.206675 1.56239 0
M  V30 1153 C 108.811 -1.27686 1.96808 0
M  V30 1154 C 109.827 -1.50455 0.874035 0
M  V30 1155 O 111.003 -1.63295 1.17884 0
M  V30 1156 C 108.068 -2.60358 2.28942 0
M  V30 1157 C 107.129 -2.45762 3.51994 0
M  V30 1158 C 106.362 -3.72108 3.82585 0
M  V30 1159 O 106.585 -4.75776 3.14631 0
M  V30 1160 O 105.519 -3.6833 4.76043 0
M  V30 1161 H 109.345 -0.962593 2.88041 0
M  V30 1162 H 106.93 -0.410746 1.43643 0
M  V30 1163 H 108.812 -3.38687 2.50737 0
M  V30 1164 H 107.487 -2.91435 1.4088 0
M  V30 1165 H 106.394 -1.65584 3.35459 0
M  V30 1166 H 107.727 -2.19621 4.40486 0
M  V30 1167 N 109.379 -1.50304 -0.473955 0
M  V30 1168 C 110.628 -1.60392 -1.22301 0
M  V30 1169 C 110.941 -0.308411 -1.93153 0
M  V30 1170 O 112.147 -0.288156 -2.69966 0
M  V30 1171 C 110.603 -2.83109 -2.2221 0
M  V30 1172 C 110.211 -4.19524 -1.57173 0
M  V30 1173 C 111.955 -3.0254 -2.97775 0
M  V30 1174 C 109.862 -5.33431 -2.55353 0
M  V30 1175 H 108.792 -0.597286 -0.460179 0
M  V30 1176 H 111.443 -1.76731 -0.493803 0
M  V30 1177 H 109.825 -2.60322 -2.9841 0
M  V30 1178 H 110.999 -4.52554 -0.867824 0
M  V30 1179 H 109.314 -4.05674 -0.939002 0
M  V30 1180 H 111.911 -3.84811 -3.71248 0
M  V30 1181 H 112.254 -2.14154 -3.56992 0
M  V30 1182 H 112.787 -3.25494 -2.28688 0
M  V30 1183 H 109.526 -6.23962 -2.00878 0
M  V30 1184 H 109.046 -5.04823 -3.23904 0
M  V30 1185 H 110.725 -5.63887 -3.17239 0
M  V30 1186 N 110.857 0.726932 -1.39834 0
M  V30 1187 C 112.105 1.4837 -1.37225 0
M  V30 1188 C 112.426 1.94979 0.0284857 0
M  V30 1189 O 111.696 1.69555 0.981213 0
M  V30 1190 H 110.276 0.55043 -0.505011 0
M  V30 1191 H 112.938 0.862468 -1.74778 0
M  V30 1192 H 112.034 2.36198 -2.04003 0
M  V30 1193 N 112.336 1.25143 0.95797 0
M  V30 1194 C 113.284 1.05019 2.07542 0
M  V30 1195 C 114.278 -0.0178751 1.69391 0
M  V30 1196 O 115.484 0.137472 1.79474 0
M  V30 1197 H 111.859 0.32265 0.679265 0
M  V30 1198 H 113.83 1.99759 2.21673 0
M  V30 1199 C 112.579 0.682074 3.40944 0
M  V30 1200 H 111.902 1.49573 3.70767 0
M  V30 1201 H 113.342 0.580945 4.20001 0
M  V30 1202 C 111.801 -0.611608 3.31302 0
M  V30 1203 O 112.331 -1.65465 3.66038 0
M  V30 1204 N 110.537 -0.595982 2.84423 0
M  V30 1205 H 110.084 0.253192 2.56353 0
M  V30 1206 H 110.042 -1.46173 2.78354 0
M  V30 1207 N 113.814 -1.1601 1.06675 0
M  V30 1208 C 114.744 -2.22688 0.702307 0
M  V30 1209 C 115.725 -1.67306 -0.307032 0
M  V30 1210 O 116.91 -1.93352 -0.181305 0
M  V30 1211 C 114.04 -3.47178 0.092038 0
M  V30 1212 C 112.994 -4.15477 1.02777 0
M  V30 1213 C 112.32 -5.33963 0.28061 0
M  V30 1214 C 113.62 -4.66019 2.35846 0
M  V30 1215 H 115.314 -2.53429 1.59419 0
M  V30 1216 H 112.86 -1.21813 0.767961 0
M  V30 1217 H 114.813 -4.21037 -0.174814 0
M  V30 1218 H 113.537 -3.15749 -0.834877 0
M  V30 1219 H 112.196 -3.43549 1.27944 0
M  V30 1220 H 111.844 -4.98788 -0.649545 0
M  V30 1221 H 111.544 -5.806 0.904258 0
M  V30 1222 H 113.068 -6.10596 0.021396 0
M  V30 1223 H 114.482 -5.3144 2.15045 0
M  V30 1224 H 112.879 -5.23293 2.93743 0
M  V30 1225 H 113.949 -3.82023 2.98641 0
M  V30 1226 N 115.292 -0.849877 -1.32721 0
M  V30 1227 C 116.222 -0.306308 -2.31482 0
M  V30 1228 C 117.203 0.591952 -1.59468 0
M  V30 1229 O 118.388 0.513199 -1.87296 0
M  V30 1230 C 115.518 0.510204 -3.43532 0
M  V30 1231 C 114.472 -0.293209 -4.26994 0
M  V30 1232 C 113.798 0.647743 -5.30762 0
M  V30 1233 C 115.098 -1.51634 -4.99804 0
M  V30 1234 H 116.792 -1.13153 -2.77195 0
M  V30 1235 H 114.338 -0.545553 -1.33266 0
M  V30 1236 H 116.291 0.900856 -4.11658 0
M  V30 1237 H 115.015 1.36874 -2.96535 0
M  V30 1238 H 113.674 -0.665555 -3.60508 0
M  V30 1239 H 113.322 1.50299 -4.8002 0
M  V30 1240 H 113.022 0.11422 -5.87489 0
M  V30 1241 H 114.546 1.03567 -6.01753 0
M  V30 1242 H 115.96 -1.19824 -5.60638 0
M  V30 1243 H 114.357 -1.98745 -5.66234 0
M  V30 1244 H 115.427 -2.28018 -4.27943 0
M  V30 1245 N 116.77 1.45427 -0.607355 0
M  V30 1246 C 118.016 2.0254 -0.102607 0
M  V30 1247 C 118.349 1.47478 1.26348 0
M  V30 1248 O 117.624 0.64939 1.83339 0
M  V30 1249 C 117.907 3.60044 -0.0634347 0
M  V30 1250 C 117.76 4.2544 -1.46017 0
M  V30 1251 C 119.079 4.35646 0.624514 0
M  V30 1252 H 116.198 0.73598 -0.0387607 0
M  V30 1253 H 118.84 1.73284 -0.779282 0
M  V30 1254 H 116.99 3.85101 0.512808 0
M  V30 1255 H 118.662 4.11569 -2.08347 0
M  V30 1256 H 116.905 3.83849 -2.02094 0
M  V30 1257 H 117.576 5.34342 -1.385 0
M  V30 1258 H 120.052 4.15882 0.134723 0
M  V30 1259 H 118.928 5.45376 0.621028 0
M  V30 1260 H 119.189 4.08501 1.69055 0
M  V30 1261 N 118.248 0.346503 1.53744 0
M  V30 1262 C 119.497 -0.250122 2.00143 0
M  V30 1263 C 119.81 -1.51418 1.23822 0
M  V30 1264 O 121.016 -2.18823 1.60713 0
M  V30 1265 C 119.472 -0.496252 3.56462 0
M  V30 1266 C 119.08 0.752077 4.41642 0
M  V30 1267 C 120.824 -1.05157 4.11269 0
M  V30 1268 C 118.731 0.476583 5.89477 0
M  V30 1269 H 117.661 -0.0972409 0.747703 0
M  V30 1270 H 120.312 0.46229 1.77581 0
M  V30 1271 H 118.694 -1.26944 3.75102 0
M  V30 1272 H 119.868 1.5266 4.34778 0
M  V30 1273 H 118.183 1.22925 3.97842 0
M  V30 1274 H 120.78 -1.27269 5.19333 0
M  V30 1275 H 121.123 -2.00799 3.64672 0
M  V30 1276 H 121.656 -0.339019 3.96353 0
M  V30 1277 H 118.395 1.4028 6.40314 0
M  V30 1278 H 117.915 -0.259794 5.99237 0
M  V30 1279 H 119.594 0.0949315 6.4693 0
M  V30 1280 N 119.726 -1.57421 0.075193 0
M  V30 1281 C 120.972 -1.93905 -0.594025 0
M  V30 1282 C 121.305 -0.955701 -1.69056 0
M  V30 1283 O 120.58 0.0145373 -1.94495 0
M  V30 1284 C 120.863 -3.40638 -1.1678 0
M  V30 1285 C 120.716 -4.49733 -0.0776792 0
M  V30 1286 C 122.035 -3.88259 -2.07228 0
M  V30 1287 H 119.154 -0.705105 -0.214466 0
M  V30 1288 H 121.796 -1.8947 0.141854 0
M  V30 1289 H 119.946 -3.44549 -1.79494 0
M  V30 1290 H 121.618 -4.57942 0.555573 0
M  V30 1291 H 119.861 -4.29751 0.591286 0
M  V30 1292 H 120.532 -5.49549 -0.519603 0
M  V30 1293 H 123.008 -3.86376 -1.54445 0
M  V30 1294 H 121.884 -4.91533 -2.44308 0
M  V30 1295 H 122.145 -3.26396 -2.98191 0
M  V30 1296 N 121.204 0.198386 -1.56346 0
M  V30 1297 C 122.451 0.919286 -1.80431 0
M  V30 1298 C 122.779 1.83393 -0.647866 0
M  V30 1299 O 122.034 1.92236 0.366556 0
M  V30 1300 C 122.333 1.77031 -3.10475 0
M  V30 1301 C 121.999 1.00693 -4.39513 0
M  V30 1302 C 120.661 0.796145 -4.74568 0
M  V30 1303 C 123.013 0.469559 -5.19081 0
M  V30 1304 C 120.341 0.0364588 -5.86689 0
M  V30 1305 C 122.693 -0.2769 -6.31994 0
M  V30 1306 C 121.357 -0.49873 -6.65634 0
M  V30 1307 H 120.627 0.336391 -0.660244 0
M  V30 1308 H 123.274 0.185872 -1.90596 0
M  V30 1309 H 121.579 2.5723 -2.95533 0
M  V30 1310 H 123.276 2.33065 -3.26315 0
M  V30 1311 H 119.866 1.18122 -4.12001 0
M  V30 1312 H 124.05 0.619816 -4.92414 0
M  V30 1313 H 119.306 -0.145412 -6.11227 0
M  V30 1314 H 123.48 -0.700684 -6.92866 0
M  V30 1315 H 121.107 -1.0893 -7.52355 0
M  V30 1316 N 122.682 1.50554 0.465978 0
M  V30 1317 C 123.928 1.62038 1.21949 0
M  V30 1318 C 124.261 0.322116 1.9151 0
M  V30 1319 O 123.536 -0.676723 1.82348 0
M  V30 1320 C 123.819 2.80421 2.25912 0
M  V30 1321 C 123.672 4.20144 1.60622 0
M  V30 1322 C 124.991 2.94354 3.27176 0
M  V30 1323 H 122.11 0.589752 0.441998 0
M  V30 1324 H 124.752 1.82956 0.51257 0
M  V30 1325 H 122.902 2.62717 2.86203 0
M  V30 1326 H 124.574 4.49449 1.03889 0
M  V30 1327 H 122.817 4.24165 0.909211 0
M  V30 1328 H 123.488 4.98914 2.36196 0
M  V30 1329 H 125.964 3.10578 2.76913 0
M  V30 1330 H 124.84 3.788 3.97242 0
M  V30 1331 H 125.101 2.05186 3.916 0
M  V30 1332 N 124.16 -0.719506 1.40217 0
M  V30 1333 C 125.385 -1.51371 1.4178 0
M  V30 1334 C 125.81 -1.88091 0.0182355 0
M  V30 1335 O 125.168 -1.52997 -0.972707 0
M  V30 1336 C 125.216 -2.768 2.31115 0
M  V30 1337 O 124.32 -3.73349 1.7517 0
M  V30 1338 H 123.661 -0.456529 0.482159 0
M  V30 1339 H 126.191 -0.88644 1.844 0
M  V30 1340 H 126.201 -3.25371 2.46167 0
M  V30 1341 H 124.876 -2.49407 3.3282 0
M  V30 1342 H 123.453 -3.32179 1.69444 0
M  V30 1343 N 125.638 -1.25649 -0.95132 0
M  V30 1344 C 126.868 -1.13179 -1.72841 0
M  V30 1345 C 127.276 0.316827 -1.86528 0
M  V30 1346 O 126.619 1.22948 -1.3649 0
M  V30 1347 C 126.681 -1.71644 -3.15878 0
M  V30 1348 C 126.345 -3.20667 -3.25609 0
M  V30 1349 C 127.342 -4.17616 -3.09666 0
M  V30 1350 C 125.027 -3.6094 -3.49324 0
M  V30 1351 C 127.021 -5.52817 -3.17289 0
M  V30 1352 C 124.708 -4.96278 -3.56584 0
M  V30 1353 C 125.706 -5.92025 -3.40581 0
M  V30 1354 O 125.394 -7.24899 -3.47528 0
M  V30 1355 H 125.126 -0.395389 -0.54831 0
M  V30 1356 H 127.68 -1.66566 -1.20187 0
M  V30 1357 H 125.91 -1.12707 -3.69911 0
M  V30 1358 H 127.599 -1.54225 -3.75459 0
M  V30 1359 H 128.365 -3.87842 -2.91211 0
M  V30 1360 H 124.244 -2.86907 -3.6084 0
M  V30 1361 H 127.788 -6.2753 -3.04716 0
M  V30 1362 H 123.685 -5.25716 -3.74556 0
M  V30 1363 H 124.453 -7.33039 -3.64138 0
M  V30 1364 N 127.117 1.15442 -1.07289 0
M  V30 1365 C 128.364 1.86213 -0.795668 0
M  V30 1366 C 128.692 1.82291 0.678238 0
M  V30 1367 O 127.947 1.24057 1.51355 0
M  V30 1368 C 128.246 3.3489 -1.24834 0
M  V30 1369 C 127.912 3.59007 -2.72809 0
M  V30 1370 C 126.574 3.65298 -3.13227 0
M  V30 1371 C 128.926 3.68762 -3.68326 0
M  V30 1372 C 126.254 3.78854 -4.4798 0
M  V30 1373 C 128.606 3.83842 -5.0284 0
M  V30 1374 C 127.27 3.88378 -5.4288 0
M  V30 1375 H 126.54 0.681403 -0.291155 0
M  V30 1376 H 129.187 1.36435 -1.34379 0
M  V30 1377 H 127.492 3.8687 -0.619595 0
M  V30 1378 H 129.189 3.88052 -1.01076 0
M  V30 1379 H 125.779 3.5475 -2.40521 0
M  V30 1380 H 129.963 3.63202 -3.38227 0
M  V30 1381 H 125.219 3.80623 -4.78472 0
M  V30 1382 H 129.393 3.90332 -5.76727 0
M  V30 1383 H 127.02 3.98635 -6.47298 0
M  V30 1384 N 128.595 0.856903 1.32268 0
M  V30 1385 C 129.843 0.460474 1.96784 0
M  V30 1386 C 130.164 -0.987701 1.68135 0
M  V30 1387 O 129.434 -1.69058 0.989765 0
M  V30 1388 H 128.014 0.167289 0.728027 0
M  V30 1389 H 130.676 1.09383 1.61312 0
M  V30 1390 H 129.772 0.60739 3.06133 0
M  V30 1391 N 130.073 -1.45103 0.615059 0
M  V30 1392 C 131.298 -2.07064 0.117988 0
M  V30 1393 C 131.723 -1.4554 -1.19163 0
M  V30 1394 O 131.081 -0.550855 -1.72729 0
M  V30 1395 C 131.129 -3.606 -0.000288387 0
M  V30 1396 O 130.233 -3.98847 -1.04856 0
M  V30 1397 H 129.574 -0.659467 0.0774581 0
M  V30 1398 H 132.104 -1.86236 0.847186 0
M  V30 1399 H 132.114 -4.07529 -0.196091 0
M  V30 1400 H 130.789 -4.04765 0.955932 0
M  V30 1401 H 129.366 -3.63577 -0.828619 0
M  V30 1402 N 131.551 -0.354651 -1.53558 0
M  V30 1403 C 132.498 0.496968 -2.25386 0
M  V30 1404 C 133.468 1.0865 -1.25636 0
M  V30 1405 O 134.653 1.12104 -1.54394 0
M  V30 1406 C 131.793 1.63637 -3.03837 0
M  V30 1407 C 130.906 1.07307 -4.18461 0
M  V30 1408 C 130.041 2.18068 -4.84376 0
M  V30 1409 C 129.08 1.59147 -5.91049 0
M  V30 1410 N 128.217 2.63695 -6.50699 0
M  V30 1411 H 133.057 -0.122075 -2.9775 0
M  V30 1412 H 130.594 -0.0720154 -1.46924 0
M  V30 1413 H 132.552 2.30734 -3.47589 0
M  V30 1414 H 131.182 2.22623 -2.33749 0
M  V30 1415 H 130.234 0.292708 -3.79272 0
M  V30 1416 H 131.546 0.602193 -4.95152 0
M  V30 1417 H 130.7 2.93007 -5.31255 0
M  V30 1418 H 129.439 2.68504 -4.07133 0
M  V30 1419 H 128.444 0.827175 -5.43542 0
M  V30 1420 H 129.669 1.09549 -6.70206 0
M  V30 1421 H 127.615 3.13365 -5.76315 0
M  V30 1422 H 127.532 2.21263 -7.22896 0
M  V30 1423 H 128.8 3.3837 -7.02229 0
M  V30 1424 N 133.029 1.57378 -0.0835403 0
M  V30 1425 C 133.959 2.1641 0.87686 0
M  V30 1426 C 134.94 1.09429 1.30228 0
M  V30 1427 O 136.125 1.37516 1.37124 0
M  V30 1428 C 133.255 2.73517 2.14022 0
M  V30 1429 C 132.209 3.85769 1.85381 0
M  V30 1430 C 131.535 4.29529 3.18448 0
M  V30 1431 C 132.835 5.09486 1.14984 0
M  V30 1432 H 134.529 2.96914 0.385059 0
M  V30 1433 H 132.075 1.42823 0.18377 0
M  V30 1434 H 134.028 3.13463 2.81636 0
M  V30 1435 H 132.752 1.90252 2.65465 0
M  V30 1436 H 131.411 3.46345 1.20169 0
M  V30 1437 H 131.059 3.43169 3.67755 0
M  V30 1438 H 130.759 5.05204 3.00071 0
M  V30 1439 H 132.283 4.72099 3.8724 0
M  V30 1440 H 133.697 5.46674 1.72687 0
M  V30 1441 H 132.094 5.90515 1.06826 0
M  V30 1442 H 133.164 4.84724 0.130749 0
M  V30 1443 N 134.507 -0.190092 1.56449 0
M  V30 1444 C 135.457 -1.23977 1.91347 0
M  V30 1445 C 136.441 -1.40747 0.779693 0
M  V30 1446 O 137.633 -1.43033 1.04262 0
M  V30 1447 C 134.762 -2.58347 2.26079 0
M  V30 1448 C 133.848 -2.4535 3.45925 0
M  V30 1449 N 134.239 -2.02039 4.63696 0
M  V30 1450 C 132.537 -2.76229 3.50162 0
M  V30 1451 C 133.238 -2.01053 5.4585 0
M  V30 1452 N 132.214 -2.42747 4.8639 0
M  V30 1453 H 136.016 -0.896318 2.79899 0
M  V30 1454 H 133.53 -0.398496 1.57435 0
M  V30 1455 H 135.527 -3.34173 2.49267 0
M  V30 1456 H 134.187 -2.93512 1.38856 0
M  V30 1457 H 135.198 -1.7267 4.88268 0
M  V30 1458 H 131.875 -3.15556 2.73369 0
M  V30 1459 H 133.265 -1.69426 6.50188 0
M  V30 1460 N 135.985 -1.50799 -0.457987 0
M  V30 1461 C 137.401 -1.38515 -0.792819 0
M  V30 1462 C 137.601 -0.451409 -1.96379 0
M  V30 1463 O 136.657 0.10112 -2.52297 0
M  V30 1464 C 137.97 -2.80149 -1.09258 0
M  V30 1465 C 139.518 -2.89156 -1.19825 0
M  V30 1466 C 139.993 -4.31651 -1.53106 0
M  V30 1467 N 141.484 -4.34662 -1.60072 0
M  V30 1468 C 142.219 -5.41928 -1.87354 0
M  V30 1469 N 141.715 -6.59384 -2.12568 0
M  V30 1470 N 143.508 -5.29385 -1.88965 0
M  V30 1471 H 135.659 -2.10073 0.313511 0
M  V30 1472 H 137.922 -0.944803 0.0777862 0
M  V30 1473 H 137.628 -3.50374 -0.305084 0
M  V30 1474 H 137.502 -3.18204 -2.02549 0
M  V30 1475 H 139.889 -2.19141 -1.97639 0
M  V30 1476 H 139.97 -2.54626 -0.244821 0
M  V30 1477 H 139.614 -5.02208 -0.758266 0
M  V30 1478 H 139.544 -4.63678 -2.49621 0
M  V30 1479 H 142.035 -3.49973 -1.42573 0
M  V30 1480 H 142.348 -7.36934 -2.32696 0
M  V30 1481 H 140.693 -6.62535 -2.09933 0
M  V30 1482 H 143.884 -4.36616 -1.68772 0
M  V30 1483 H 144.057 -6.13066 -2.09891 0
M  V30 1484 N 137.463 0.71206 -1.40597 0
M  V30 1485 C 138.874 1.29135 -1.34837 0
M  V30 1486 C 139.225 1.96186 -0.0235395 0
M  V30 1487 O 138.35 1.97768 0.878444 0
M  V30 1488 C 138.945 2.34827 -2.44217 0
M  V30 1489 C 137.504 2.88371 -2.41907 0
M  V30 1490 C 136.651 1.62202 -2.24913 0
M  V30 1491 H 139.602 0.507944 -1.50352 0
M  V30 1492 H 139.623 3.15749 -2.12327 0
M  V30 1493 H 139.135 1.85996 -3.40627 0
M  V30 1494 H 137.236 3.41422 -1.49204 0
M  V30 1495 H 137.349 3.39925 -3.37621 0
M  V30 1496 H 135.713 1.874 -1.72492 0
M  V30 1497 H 136.496 1.15391 -3.23326 0
M  V30 1498 N 138.941 1.26152 0.944643 0
M  V30 1499 C 139.888 1.07408 2.04285 0
M  V30 1500 C 140.858 -0.0198413 1.66088 0
M  V30 1501 O 142.043 0.139264 1.90291 0
M  V30 1502 C 139.183 0.70945 3.37729 0
M  V30 1503 C 138.296 1.87926 3.88983 0
M  V30 1504 C 137.431 1.45807 5.10797 0
M  V30 1505 C 136.47 2.5964 5.54305 0
M  V30 1506 N 135.607 2.18226 6.67324 0
M  V30 1507 H 140.447 2.01389 2.1965 0
M  V30 1508 H 137.984 1.00275 1.07626 0
M  V30 1509 H 139.942 0.478948 4.14442 0
M  V30 1510 H 138.572 -0.193389 3.2222 0
M  V30 1511 H 137.624 2.22279 3.08701 0
M  V30 1512 H 138.936 2.73377 4.17213 0
M  V30 1513 H 138.09 1.18781 5.94959 0
M  V30 1514 H 136.829 0.574414 4.84305 0
M  V30 1515 H 135.834 2.87399 4.68702 0
M  V30 1516 H 137.059 3.48599 5.828 0
M  V30 1517 H 135.005 1.3229 6.42523 0
M  V30 1518 H 134.922 2.97221 6.95123 0
M  V30 1519 H 136.19 1.94403 7.54869 0
M  V30 1520 N 140.419 -1.14872 1.07899 0
M  V30 1521 C 141.349 -2.2193 0.725887 0
M  V30 1522 C 142.33 -1.67622 -0.28927 0
M  V30 1523 O 143.515 -1.93533 -0.160787 0
M  V30 1524 C 140.645 -3.47061 0.128856 0
M  V30 1525 C 139.599 -4.14363 1.07178 0
M  V30 1526 C 138.925 -5.33636 0.337229 0
M  V30 1527 C 140.225 -4.63492 2.40775 0
M  V30 1528 H 141.919 -2.51724 1.62097 0
M  V30 1529 H 139.465 -1.20991 0.780838 0
M  V30 1530 H 141.418 -4.21199 -0.130147 0
M  V30 1531 H 140.142 -3.16617 -0.80134 0
M  V30 1532 H 138.801 -3.42173 1.3158 0
M  V30 1533 H 138.449 -4.99449 -0.596606 0
M  V30 1534 H 138.149 -5.79609 0.965788 0
M  V30 1535 H 139.673 -6.10539 0.0861567 0
M  V30 1536 H 141.087 -5.2913 2.20669 0
M  V30 1537 H 139.484 -5.20148 2.99276 0
M  V30 1538 H 140.554 -3.78834 3.02676 0
M  V30 1539 N 141.898 -0.863906 -1.31812 0
M  V30 1540 C 143.147 -0.46801 -1.96195 0
M  V30 1541 C 143.46 0.983474 -1.69077 0
M  V30 1542 O 144.666 1.48523 -2.27273 0
M  V30 1543 C 143.122 -0.785995 -3.51212 0
M  V30 1544 C 142.73 -2.25383 -3.87178 0
M  V30 1545 C 144.474 -0.458274 -4.22019 0
M  V30 1546 C 142.381 -2.51455 -5.3528 0
M  V30 1547 H 141.311 -0.171283 -0.734287 0
M  V30 1548 H 143.962 -1.05597 -1.50072 0
M  V30 1549 H 142.344 -0.127359 -3.95795 0
M  V30 1550 H 143.518 -2.95502 -3.53575 0
M  V30 1551 H 141.833 -2.54698 -3.2942 0
M  V30 1552 H 144.43 -0.630369 -5.30971 0
M  V30 1553 H 144.773 0.600834 -4.11941 0
M  V30 1554 H 145.306 -1.07319 -3.8305 0
M  V30 1555 H 142.045 -3.56025 -5.50387 0
M  V30 1556 H 141.565 -1.85923 -5.70257 0
M  V30 1557 H 143.244 -2.35874 -6.02472 0
M  V30 1558 N 143.376 1.44774 -0.622745 0
M  V30 1559 C 144.624 2.01721 -0.123655 0
M  V30 1560 C 144.945 1.49172 1.25589 0
M  V30 1561 O 144.215 0.691974 1.83272 0
M  V30 1562 H 142.795 0.745777 -0.0427225 0
M  V30 1563 H 145.457 1.77382 -0.807559 0
M  V30 1564 H 144.553 3.11984 -0.0849534 0
M  V30 1565 N 144.854 0.36279 1.53368 0
M  V30 1566 C 146.103 -0.22888 2.00397 0
M  V30 1567 C 146.416 -1.50096 1.25421 0
M  V30 1568 O 147.622 -2.17106 1.63025 0
M  V30 1569 C 146.078 -0.458417 3.56969 0
M  V30 1570 C 145.686 0.798877 4.4082 0
M  V30 1571 C 147.43 -1.00789 4.12361 0
M  V30 1572 C 145.337 0.539078 5.88938 0
M  V30 1573 H 144.267 -0.089305 0.748693 0
M  V30 1574 H 146.918 0.481099 1.77081 0
M  V30 1575 H 145.3 -1.22959 3.76427 0
M  V30 1576 H 146.474 1.57262 4.33134 0
M  V30 1577 H 144.789 1.27137 3.96516 0
M  V30 1578 H 147.386 -1.21754 5.20653 0
M  V30 1579 H 147.729 -1.9692 3.66781 0
M  V30 1580 H 148.262 -0.296961 3.9669 0
M  V30 1581 H 145.001 1.47064 6.3879 0
M  V30 1582 H 144.521 -0.196222 5.99479 0
M  V30 1583 H 146.2 0.163542 6.46793 0
M  V30 1584 N 146.332 -1.57332 0.0918853 0
M  V30 1585 C 147.58 -1.93853 -0.571446 0
M  V30 1586 C 147.901 -0.974212 -1.6892 0
M  V30 1587 O 147.171 -0.0257254 -1.95883 0
M  V30 1588 H 145.751 -0.715666 -0.214082 0
M  V30 1589 H 148.413 -1.94287 0.154464 0
M  V30 1590 H 147.509 -2.96191 -0.983729 0
M  V30 1591 N 147.81 0.181792 -1.56548 0
M  V30 1592 C 149.05 0.906711 -1.83189 0
M  V30 1593 C 149.414 1.79882 -0.671312 0
M  V30 1594 O 150.615 2.56054 -0.81792 0
M  V30 1595 C 148.886 1.69023 -3.14906 0
M  V30 1596 S 150.445 2.46535 -3.62996 0
M  V30 1597 H 147.263 0.303877 -0.642791 0
M  V30 1598 H 149.865 0.169107 -1.94767 0
M  V30 1599 H 148.569 1.02571 -3.97376 0
M  V30 1600 H 148.1 2.46941 -3.06241 0
M  V30 1601 H 150.115 3.71014 -3.29489 0
M  V30 1602 N 149.288 1.51039 0.449983 0
M  V30 1603 C 150.218 1.74379 1.55288 0
M  V30 1604 C 151.199 0.593236 1.5942 0
M  V30 1605 O 152.384 0.834625 1.7535 0
M  V30 1606 C 149.514 1.85728 2.93466 0
M  V30 1607 C 148.468 3.01078 3.04197 0
M  V30 1608 C 147.794 2.97595 4.44231 0
M  V30 1609 C 149.094 4.41254 2.7945 0
M  V30 1610 H 150.788 2.66725 1.36008 0
M  V30 1611 H 148.334 1.2835 0.652864 0
M  V30 1612 H 150.287 2.0064 3.70569 0
M  V30 1613 H 149.011 0.900207 3.13949 0
M  V30 1614 H 147.67 2.85851 2.29531 0
M  V30 1615 H 147.318 1.99691 4.61663 0
M  V30 1616 H 147.018 3.75046 4.52343 0
M  V30 1617 H 148.542 3.14583 5.23326 0
M  V30 1618 H 149.956 4.56897 3.46292 0
M  V30 1619 H 148.353 5.20315 2.98985 0
M  V30 1620 H 149.423 4.52164 1.75144 0
M  V30 1621 N 150.766 -0.704594 1.40972 0
M  V30 1622 C 151.696 -1.83124 1.44872 0
M  V30 1623 C 152.677 -1.67281 0.30838 0
M  V30 1624 O 153.862 -1.87149 0.518556 0
M  V30 1625 C 150.992 -3.21181 1.32136 0
M  V30 1626 C 149.946 -3.51714 2.43888 0
M  V30 1627 C 149.272 -4.89032 2.16222 0
M  V30 1628 C 150.572 -3.516 3.86232 0
M  V30 1629 H 152.266 -1.80117 2.39161 0
M  V30 1630 H 149.812 -0.865145 1.15114 0
M  V30 1631 H 151.765 -3.99702 1.33479 0
M  V30 1632 H 150.489 -3.24791 0.343279 0
M  V30 1633 H 149.148 -2.75539 2.41813 0
M  V30 1634 H 148.796 -4.89256 1.16778 0
M  V30 1635 H 148.496 -5.10426 2.911 0
M  V30 1636 H 150.02 -5.69873 2.19265 0
M  V30 1637 H 151.434 -4.2014 3.9007 0
M  V30 1638 H 149.831 -3.84523 4.60719 0
M  V30 1639 H 150.901 -2.50757 4.15029 0
M  V30 1640 N 152.244 -1.26651 -0.937939 0
M  V30 1641 C 153.177 -1.02811 -2.03728 0
M  V30 1642 C 154.155 0.0481915 -1.62529 0
M  V30 1643 O 155.339 -0.0948839 -1.88261 0
M  V30 1644 C 152.466 -0.557517 -3.3408 0
M  V30 1645 C 151.512 -1.62686 -3.94253 0
M  V30 1646 S 152.345 -3.21667 -4.28125 0
M  V30 1647 C 153.501 -2.76384 -5.61572 0
M  V30 1648 H 153.734 -1.95891 -2.23638 0
M  V30 1649 H 151.267 -1.10367 -1.07974 0
M  V30 1650 H 153.225 -0.292674 -4.09455 0
M  V30 1651 H 151.886 0.353062 -3.12109 0
M  V30 1652 H 151.079 -1.24866 -4.88287 0
M  V30 1653 H 150.681 -1.84324 -3.25424 0
M  V30 1654 H 152.973 -2.2105 -6.40424 0
M  V30 1655 H 153.916 -3.69123 -6.0428 0
M  V30 1656 H 154.324 -2.15847 -5.21604 0
M  V30 1657 N 153.722 1.14298 -1.08507 0
M  V30 1658 C 154.97 1.84993 -0.813763 0
M  V30 1659 C 155.291 1.83405 0.662393 0
M  V30 1660 O 154.561 1.28319 1.48024 0
M  V30 1661 H 153.141 0.684966 -0.298045 0
M  V30 1662 H 155.803 1.385 -1.37126 0
M  V30 1663 H 154.899 2.89788 -1.15884 0
M  V30 1664 N 155.201 0.870884 1.31352 0
M  V30 1665 C 156.429 0.49677 2.00848 0
M  V30 1666 C 156.844 -0.910998 1.65367 0
M  V30 1667 O 156.201 -1.59696 0.883374 0
M  V30 1668 C 156.252 0.645308 3.55694 0
M  V30 1669 O 155.973 1.99764 3.89905 0
M  V30 1670 C 157.474 0.272326 4.42463 0
M  V30 1671 H 154.694 0.193462 0.642506 0
M  V30 1672 H 157.238 1.1723 1.67563 0
M  V30 1673 H 155.393 0.0173176 3.87396 0
M  V30 1674 H 155.807 2.00607 4.84621 0
M  V30 1675 H 157.281 0.427208 5.50344 0
M  V30 1676 H 157.758 -0.788587 4.32062 0
M  V30 1677 H 158.364 0.876054 4.1618 0
M  V30 1678 N 156.679 -1.44442 0.630414 0
M  V30 1679 C 157.927 -2.01653 0.134351 0
M  V30 1680 C 158.248 -1.49836 -1.24796 0
M  V30 1681 O 157.518 -0.701684 -1.82902 0
M  V30 1682 H 156.098 -0.74554 0.0466769 0
M  V30 1683 H 158.76 -1.76952 0.816955 0
M  V30 1684 H 157.856 -3.11935 0.101498 0
M  V30 1685 N 158.157 -0.370918 -1.53173 0
M  V30 1686 C 159.382 0.220293 -2.06227 0
M  V30 1687 C 159.807 1.41243 -1.24225 0
M  V30 1688 O 159.165 1.79387 -0.262645 0
M  V30 1689 C 159.213 0.586663 -3.55796 0
M  V30 1690 O 158.317 1.68317 -3.76488 0
M  V30 1691 H 157.658 0.0308099 -0.663285 0
M  V30 1692 H 160.188 -0.533068 -1.97534 0
M  V30 1693 H 160.198 0.85617 -3.98916 0
M  V30 1694 H 158.873 -0.285013 -4.14922 0
M  V30 1695 H 157.45 1.40881 -3.45264 0
M  V30 1696 N 159.635 1.57281 -0.100228 0
M  V30 1697 C 160.884 1.93713 0.561984 0
M  V30 1698 C 161.197 0.984492 1.69018 0
M  V30 1699 O 162.403 1.24273 2.41389 0
M  V30 1700 C 160.859 3.4421 1.05106 0
M  V30 1701 C 160.467 4.47975 -0.0476628 0
M  V30 1702 C 162.211 3.89595 1.68571 0
M  V30 1703 C 160.118 5.89631 0.457055 0
M  V30 1704 H 159.048 0.723082 0.2137 0
M  V30 1705 H 161.699 1.82644 -0.177057 0
M  V30 1706 H 160.081 3.50449 1.84395 0
M  V30 1707 H 161.255 4.53385 -0.823333 0
M  V30 1708 H 159.57 4.1223 -0.587816 0
M  V30 1709 H 162.167 4.92832 2.07414 0
M  V30 1710 H 162.51 3.28526 2.55688 0
M  V30 1711 H 163.043 3.86078 0.958562 0
M  V30 1712 H 159.782 6.54411 -0.377616 0
M  V30 1713 H 159.302 5.87681 1.19962 0
M  V30 1714 H 160.981 6.40363 0.92437 0
M  V30 1715 N 161.113 -0.173488 1.56642 0
M  V30 1716 C 162.043 -1.2171 1.99271 0
M  V30 1717 C 163.024 -1.46289 0.867959 0
M  V30 1718 O 164.209 -1.5766 1.13388 0
M  V30 1719 C 161.339 -2.55651 2.35074 0
M  V30 1720 C 160.293 -2.45645 3.50489 0
M  V30 1721 C 159.619 -3.84056 3.72028 0
M  V30 1722 C 160.919 -1.96302 4.84007 0
M  V30 1723 H 162.613 -0.86275 2.867 0
M  V30 1724 H 160.159 -0.413571 1.37933 0
M  V30 1725 H 162.112 -3.2886 2.63494 0
M  V30 1726 H 160.836 -2.92869 1.44552 0
M  V30 1727 H 159.495 -1.7489 3.22194 0
M  V30 1728 H 159.143 -4.18664 2.788 0
M  V30 1729 H 158.843 -3.7823 4.49684 0
M  V30 1730 H 160.367 -4.58854 4.02846 0
M  V30 1731 H 161.781 -2.59284 5.11317 0
M  V30 1732 H 160.178 -2.01429 5.65284 0
M  V30 1733 H 161.248 -0.917226 4.76146 0
M  V30 1734 N 162.591 -1.51276 -0.441967 0
M  V30 1735 C 163.819 -1.67516 -1.21434 0
M  V30 1736 C 164.234 -0.37055 -1.85128 0
M  V30 1737 O 163.591 0.650498 -1.70513 0
M  V30 1738 C 163.642 -2.78748 -2.30177 0
M  V30 1739 O 163.363 -4.04154 -1.69089 0
M  V30 1740 C 164.864 -3.06217 -3.20541 0
M  V30 1741 H 162.084 -0.562276 -0.366178 0
M  V30 1742 H 164.628 -1.97666 -0.524244 0
M  V30 1743 H 162.783 -2.5121 -2.94911 0
M  V30 1744 H 163.197 -4.65894 -2.40922 0
M  V30 1745 H 164.671 -3.8764 -3.92987 0
M  V30 1746 H 165.148 -2.18439 -3.81026 0
M  V30 1747 H 165.754 -3.35397 -2.61513 0
M  V30 1748 N 164.069 0.697108 -1.41344 0
M  V30 1749 C 165.294 1.49096 -1.44171 0
M  V30 1750 C 165.719 1.88038 -0.0481568 0
M  V30 1751 O 165.077 1.54525 0.948243 0
M  V30 1752 C 165.125 2.73088 -2.3549 0
M  V30 1753 O 164.229 3.70514 -1.81088 0
M  V30 1754 H 163.57 0.448801 -0.489361 0
M  V30 1755 H 166.1 0.856992 -1.85787 0
M  V30 1756 H 166.11 3.21413 -2.51312 0
M  V30 1757 H 164.785 2.44081 -3.36745 0
M  V30 1758 H 163.362 3.29441 -1.74708 0
M  V30 1759 N 165.547 1.27147 0.931209 0
M  V30 1760 C 166.477 1.12081 2.04842 0
M  V30 1761 C 167.458 0.0232364 1.70084 0
M  V30 1762 O 168.643 0.197085 1.93197 0
M  V30 1763 C 165.773 0.76354 3.38803 0
M  V30 1764 C 164.727 1.81396 3.87659 0
M  V30 1765 C 164.053 1.31075 5.18385 0
M  V30 1766 C 165.353 3.21739 4.11438 0
M  V30 1767 H 167.047 2.05537 2.17703 0
M  V30 1768 H 164.593 0.989603 1.04608 0
M  V30 1769 H 166.546 0.644982 4.16435 0
M  V30 1770 H 165.27 -0.206727 3.25945 0
M  V30 1771 H 163.929 1.92136 3.12217 0
M  V30 1772 H 163.577 0.330037 5.01916 0
M  V30 1773 H 163.277 2.013 5.52044 0
M  V30 1774 H 164.801 1.20506 5.98591 0
M  V30 1775 H 166.215 3.14019 4.79651 0
M  V30 1776 H 164.612 3.89644 4.56397 0
M  V30 1777 H 165.682 3.67054 3.16859 0
M  V30 1778 N 167.025 -1.13721 1.09112 0
M  V30 1779 C 168.436 -1.6648 0.845068 0
M  V30 1780 C 168.787 -1.85911 -0.62701 0
M  V30 1781 O 167.912 -1.57556 -1.48341 0
M  V30 1782 C 168.507 -3.02413 1.52748 0
M  V30 1783 C 167.066 -3.52176 1.32849 0
M  V30 1784 C 166.213 -2.27492 1.58564 0
M  V30 1785 H 169.164 -0.976872 1.25072 0
M  V30 1786 H 169.185 -3.68223 0.958752 0
M  V30 1787 H 168.697 -2.88238 2.59885 0
M  V30 1788 H 166.798 -3.7156 0.278137 0
M  V30 1789 H 166.911 -4.32499 2.0611 0
M  V30 1790 H 165.275 -2.33923 1.00758 0
M  V30 1791 H 166.058 -2.15886 2.66924 0
M  V30 1792 N 168.503 -0.877838 -1.30888 0
M  V30 1793 C 169.453 -0.310872 -2.25871 0
M  V30 1794 C 170.437 0.556596 -1.50966 0
M  V30 1795 O 171.629 0.402187 -1.7237 0
M  V30 1796 C 168.758 0.479821 -3.3993 0
M  V30 1797 C 167.844 -0.401333 -4.22197 0
M  V30 1798 N 168.235 -1.49848 -4.83093 0
M  V30 1799 C 166.533 -0.195167 -4.45573 0
M  V30 1800 C 167.234 -2.0425 -5.44662 0
M  V30 1801 N 166.21 -1.33843 -5.26865 0
M  V30 1802 H 170.012 -1.1493 -2.70496 0
M  V30 1803 H 167.526 -0.726458 -1.45246 0
M  V30 1804 H 169.523 0.902582 -4.07012 0
M  V30 1805 H 168.183 1.31577 -2.96846 0
M  V30 1806 H 169.194 -1.88137 -4.82519 0
M  V30 1807 H 165.871 0.604192 -4.13105 0
M  V30 1808 H 167.261 -2.96345 -6.03017 0
M  V30 1809 N 169.982 1.44106 -0.638065 0
M  V30 1810 C 171.229 2.01978 -0.14533 0
M  V30 1811 C 171.557 1.50234 1.23532 0
M  V30 1812 O 170.812 0.679548 1.83523 0
M  V30 1813 C 171.111 3.5729 -0.0887327 0
M  V30 1814 C 170.777 4.28317 -1.40909 0
M  V30 1815 C 169.439 4.47437 -1.77069 0
M  V30 1816 C 171.791 4.6867 -2.28031 0
M  V30 1817 C 169.119 5.04171 -3.00047 0
M  V30 1818 C 171.471 5.26766 -3.50286 0
M  V30 1819 C 170.135 5.44104 -3.86661 0
M  V30 1820 H 169.405 0.739089 -0.0531801 0
M  V30 1821 H 172.052 1.72781 -0.825761 0
M  V30 1822 H 170.357 3.8594 0.675095 0
M  V30 1823 H 172.054 3.99807 0.309145 0
M  V30 1824 H 168.644 4.1377 -1.1177 0
M  V30 1825 H 172.828 4.53604 -2.01388 0
M  V30 1826 H 168.084 5.15782 -3.28298 0
M  V30 1827 H 172.258 5.56983 -4.18023 0
M  V30 1828 H 169.885 5.87832 -4.82034 0
M  V30 1829 N 171.46 0.379036 1.52974 0
M  V30 1830 C 172.707 -0.206421 2.01445 0
M  V30 1831 C 173.035 -1.47668 1.26587 0
M  V30 1832 O 172.29 -1.92514 0.351675 0
M  V30 1833 C 172.589 -0.53096 3.53434 0
M  V30 1834 C 172.255 0.646546 4.46241 0
M  V30 1835 C 170.917 0.969604 4.7133 0
M  V30 1836 C 173.269 1.43479 5.01062 0
M  V30 1837 C 170.597 2.08263 5.48492 0
M  V30 1838 C 172.949 2.53834 5.7944 0
M  V30 1839 C 171.613 2.86659 6.02812 0
M  V30 1840 H 170.883 -0.0755349 0.73714 0
M  V30 1841 H 173.53 0.514271 1.84465 0
M  V30 1842 H 171.835 -1.33285 3.68432 0
M  V30 1843 H 173.532 -0.996417 3.88423 0
M  V30 1844 H 170.122 0.384734 4.2687 0
M  V30 1845 H 174.306 1.19844 4.81613 0
M  V30 1846 H 169.562 2.34078 5.64816 0
M  V30 1847 H 173.736 3.15319 6.20924 0
M  V30 1848 H 171.363 3.73026 6.62387 0
M  V30 1849 N 172.938 -1.57226 0.108567 0
M  V30 1850 C 173.871 -2.10447 -0.882464 0
M  V30 1851 C 174.849 -1.01829 -1.26766 0
M  V30 1852 O 176.033 -1.29415 -1.37054 0
M  V30 1853 C 173.16 -2.59258 -2.17952 0
M  V30 1854 C 172.206 -3.79662 -1.94318 0
M  V30 1855 S 173.039 -5.22586 -1.16892 0
M  V30 1856 C 174.195 -5.74758 -2.47799 0
M  V30 1857 H 174.428 -2.94178 -0.429745 0
M  V30 1858 H 171.961 -1.54043 -0.105 0
M  V30 1859 H 173.919 -2.88036 -2.92482 0
M  V30 1860 H 172.58 -1.75728 -2.60343 0
M  V30 1861 H 171.773 -4.11928 -2.90399 0
M  V30 1862 H 171.375 -3.51446 -1.27913 0
M  V30 1863 H 173.667 -5.83846 -3.43701 0
M  V30 1864 H 174.61 -6.73027 -2.20093 0
M  V30 1865 H 175.018 -5.02763 -2.56689 0
M  V30 1866 N 174.416 0.165178 -1.56732 0
M  V30 1867 C 175.664 0.879068 -1.8198 0
M  V30 1868 C 175.985 1.82514 -0.686561 0
M  V30 1869 O 175.255 1.93694 0.293146 0
M  V30 1870 H 173.835 0.327608 -0.671329 0
M  V30 1871 H 176.497 0.163526 -1.94213 0
M  V30 1872 H 175.593 1.45228 -2.76252 0
M  V30 1873 N 175.894 1.51508 0.433938 0
M  V30 1874 C 177.124 1.67914 1.20369 0
M  V30 1875 C 177.532 0.377461 1.85397 0
M  V30 1876 O 176.875 -0.654255 1.71654 0
M  V30 1877 C 176.937 2.74045 2.32679 0
M  V30 1878 C 176.601 4.16543 1.87991 0
M  V30 1879 C 177.598 5.01211 1.38145 0
M  V30 1880 C 175.283 4.6266 1.95579 0
M  V30 1881 C 177.277 6.30056 0.964774 0
M  V30 1882 C 174.964 5.91501 1.53523 0
M  V30 1883 C 175.962 6.75027 1.04055 0
M  V30 1884 O 175.65 8.01459 0.625964 0
M  V30 1885 H 175.382 0.566578 0.368735 0
M  V30 1886 H 177.936 1.98709 0.51999 0
M  V30 1887 H 176.166 2.38572 3.04336 0
M  V30 1888 H 177.855 2.79295 2.94532 0
M  V30 1889 H 178.621 4.66783 1.31675 0
M  V30 1890 H 174.5 3.97767 2.33029 0
M  V30 1891 H 178.044 6.95202 0.57796 0
M  V30 1892 H 173.941 6.25442 1.59665 0
M  V30 1893 H 174.709 8.15043 0.751509 0
M  V30 1894 N 177.372 -0.689602 1.41712 0
M  V30 1895 C 178.602 -1.47613 1.44548 0
M  V30 1896 C 179.01 -1.89132 0.0509034 0
M  V30 1897 O 178.353 -1.57741 -0.94146 0
M  V30 1898 C 178.415 -2.76596 2.2964 0
M  V30 1899 C 178.079 -2.57245 3.77722 0
M  V30 1900 C 179.076 -2.22804 4.69739 0
M  V30 1901 C 176.761 -2.727 4.2183 0
M  V30 1902 C 178.755 -2.04064 6.03851 0
M  V30 1903 C 176.442 -2.53576 5.56006 0
M  V30 1904 C 177.44 -2.1931 6.46832 0
M  V30 1905 O 177.128 -2.00359 7.78532 0
M  V30 1906 H 176.86 -0.461227 0.494212 0
M  V30 1907 H 179.414 -0.856045 1.86711 0
M  V30 1908 H 177.644 -3.41033 1.82301 0
M  V30 1909 H 179.333 -3.38424 2.24107 0
M  V30 1910 H 180.099 -2.10473 4.36951 0
M  V30 1911 H 175.978 -2.98353 3.51435 0
M  V30 1912 H 179.522 -1.77241 6.74708 0
M  V30 1913 H 175.419 -2.65499 5.88371 0
M  V30 1914 H 176.187 -2.15075 7.89737 0
M  V30 1915 N 178.85 -1.27639 -0.924453 0
M  V30 1916 C 180.266 -1.05113 -1.20097 0
M  V30 1917 C 180.466 0.213262 -2.00368 0
M  V30 1918 O 179.522 0.91787 -2.35226 0
M  V30 1919 C 180.835 -2.29244 -1.94596 0
M  V30 1920 C 182.383 -2.34315 -2.07522 0
M  V30 1921 C 182.858 -3.58183 -2.85427 0
M  V30 1922 N 184.349 -3.5876 -2.92994 0
M  V30 1923 C 185.084 -4.51277 -3.53746 0
M  V30 1924 N 184.58 -5.54102 -4.15863 0
M  V30 1925 N 186.373 -4.38894 -3.51181 0
M  V30 1926 H 178.524 -2.08821 -0.388264 0
M  V30 1927 H 180.787 -0.918568 -0.234385 0
M  V30 1928 H 180.493 -3.21301 -1.43034 0
M  V30 1929 H 180.367 -2.34816 -2.95197 0
M  V30 1930 H 182.754 -1.42762 -2.58269 0
M  V30 1931 H 182.835 -2.32744 -1.06131 0
M  V30 1932 H 182.479 -4.50074 -2.35363 0
M  V30 1933 H 182.409 -3.57006 -3.8711 0
M  V30 1934 H 184.9 -2.84398 -2.4885 0
M  V30 1935 H 185.213 -6.20859 -4.60168 0
M  V30 1936 H 183.558 -5.57941 -4.144 0
M  V30 1937 H 186.749 -3.57772 -3.01856 0
M  V30 1938 H 186.922 -5.11186 -3.98237 0
M  V30 1939 N 180.328 1.1314 -1.09713 0
M  V30 1940 C 181.558 1.88048 -0.855656 0
M  V30 1941 C 181.966 1.79537 0.596919 0
M  V30 1942 O 181.309 1.16196 1.42282 0
M  V30 1943 C 181.371 3.38314 -1.21589 0
M  V30 1944 C 181.035 3.70605 -2.67397 0
M  V30 1945 C 182.032 3.69596 -3.65643 0
M  V30 1946 C 179.717 4.0017 -3.03593 0
M  V30 1947 C 181.711 3.977 -4.9811 0
M  V30 1948 C 179.398 4.27935 -4.36251 0
M  V30 1949 C 180.396 4.26685 -5.33318 0
M  V30 1950 O 180.084 4.53767 -6.63589 0
M  V30 1951 H 179.816 0.60208 -0.307368 0
M  V30 1952 H 182.37 1.44128 -1.46343 0
M  V30 1953 H 180.6 3.82752 -0.551177 0
M  V30 1954 H 182.289 3.94552 -0.953083 0
M  V30 1955 H 183.055 3.46826 -3.39023 0
M  V30 1956 H 178.934 4.00289 -2.2867 0
M  V30 1957 H 182.478 3.9664 -5.73866 0
M  V30 1958 H 178.375 4.50178 -4.62613 0
M  V30 1959 H 179.143 4.71422 -6.69107 0
M  V30 1960 N 181.806 0.884767 1.30421 0
M  V30 1961 C 183.031 0.517288 2.00845 0
M  V30 1962 C 183.456 -0.886779 1.65885 0
M  V30 1963 O 182.814 -1.58768 0.875354 0
M  V30 1964 C 182.862 0.698994 3.5376 0
M  V30 1965 O 181.966 -0.255208 4.1161 0
M  V30 1966 H 181.307 0.203872 0.631927 0
M  V30 1967 H 183.837 1.19225 1.66272 0
M  V30 1968 H 183.847 0.597912 4.03595 0
M  V30 1969 H 182.522 1.72271 3.78544 0
M  V30 1970 H 181.099 -0.10784 3.72744 0
M  V30 1971 N 183.284 -1.43765 0.645699 0
M  V30 1972 C 184.231 -2.30745 -0.0504648 0
M  V30 1973 C 185.201 -1.4432 -0.822241 0
M  V30 1974 O 186.386 -1.73202 -0.800358 0
M  V30 1975 C 183.526 -3.29802 -1.0161 0
M  V30 1976 C 182.639 -4.31326 -0.241219 0
M  V30 1977 C 181.774 -5.17469 -1.19998 0
M  V30 1978 C 180.813 -6.10691 -0.415094 0
M  V30 1979 N 179.95 -6.89483 -1.32506 0
M  V30 1980 H 184.79 -2.8973 0.697155 0
M  V30 1981 H 182.327 -1.42738 0.355563 0
M  V30 1982 H 184.285 -3.85734 -1.58949 0
M  V30 1983 H 182.915 -2.72483 -1.73069 0
M  V30 1984 H 181.967 -3.77749 0.448334 0
M  V30 1985 H 183.279 -4.9743 0.369437 0
M  V30 1986 H 182.433 -5.7799 -1.84424 0
M  V30 1987 H 181.172 -4.51473 -1.84455 0
M  V30 1988 H 180.177 -5.49265 0.242565 0
M  V30 1989 H 181.402 -6.78727 0.224966 0
M  V30 1990 H 179.348 -6.26142 -1.95657 0
M  V30 1991 H 179.265 -7.52081 -0.768783 0
M  V30 1992 H 180.533 -7.54516 -1.9577 0
M  V30 1993 N 184.763 -0.387143 -1.52771 0
M  V30 1994 C 185.673 0.456442 -2.30117 0
M  V30 1995 C 186.689 1.07342 -1.36944 0
M  V30 1996 O 187.865 1.07971 -1.70013 0
M  V30 1997 C 184.93 1.56957 -3.09136 0
M  V30 1998 C 183.991 0.977916 -4.18014 0
M  V30 1999 C 183.224 2.038 -4.93256 0
M  V30 2000 O 183.447 3.25271 -4.68567 0
M  V30 2001 O 182.381 1.6565 -5.78657 0
M  V30 2002 H 186.207 -0.17359 -3.03203 0
M  V30 2003 H 183.792 -0.150919 -1.48636 0
M  V30 2004 H 185.674 2.21628 -3.58412 0
M  V30 2005 H 184.349 2.18461 -2.38865 0
M  V30 2006 H 183.256 0.294525 -3.72939 0
M  V30 2007 H 184.589 0.407128 -4.90513 0
M  V30 2008 N 186.241 1.57166 -0.116904 0
M  V30 2009 C 187.469 1.99473 0.549383 0
M  V30 2010 C 187.884 0.996541 1.60357 0
M  V30 2011 O 187.241 -0.0108731 1.82497 0
M  V30 2012 C 187.292 3.41788 1.17741 0
M  V30 2013 O 187.013 4.37788 0.165362 0
M  V30 2014 C 188.514 3.99216 1.92722 0
M  V30 2015 H 185.734 0.655009 0.145616 0
M  V30 2016 H 188.278 2.03494 -0.202625 0
M  V30 2017 H 186.433 3.38713 1.88021 0
M  V30 2018 H 186.847 5.20806 0.621403 0
M  V30 2019 H 188.321 5.00882 2.31995 0
M  V30 2020 H 188.798 3.3824 2.80161 0
M  V30 2021 H 189.404 4.0583 1.27209 0
M  V30 2022 N 187.719 -0.156864 1.56817 0
M  V30 2023 C 188.669 -1.19891 1.93934 0
M  V30 2024 C 189.653 -1.39061 0.809372 0
M  V30 2025 O 190.845 -1.40789 1.07273 0
M  V30 2026 C 187.974 -2.53493 2.31508 0
M  V30 2027 C 187.06 -2.37957 3.51052 0
M  V30 2028 N 187.451 -1.92158 4.67877 0
M  V30 2029 C 185.749 -2.68739 3.55943 0
M  V30 2030 C 186.45 -1.8943 5.49992 0
M  V30 2031 N 185.426 -2.32375 4.91429 0
M  V30 2032 H 189.228 -0.836746 2.81737 0
M  V30 2033 H 186.742 -0.365012 1.58245 0
M  V30 2034 H 188.739 -3.28811 2.56299 0
M  V30 2035 H 187.399 -2.905 1.45051 0
M  V30 2036 H 188.41 -1.62274 4.91821 0
M  V30 2037 H 185.087 -3.09687 2.80001 0
M  V30 2038 H 186.477 -1.55596 6.53636 0
M  V30 2039 N 189.197 -1.51736 -0.425897 0
M  V30 2040 C 190.446 -1.64201 -1.17136 0
M  V30 2041 C 190.759 -0.369705 -1.92074 0
M  V30 2042 O 191.965 -0.373898 -2.68913 0
M  V30 2043 C 190.421 -2.90035 -2.13091 0
M  V30 2044 C 190.029 -4.24312 -1.43747 0
M  V30 2045 C 191.773 -3.1186 -2.87999 0
M  V30 2046 C 189.68 -5.41285 -2.38253 0
M  V30 2047 H 188.61 -0.611624 -0.440944 0
M  V30 2048 H 191.261 -1.78212 -0.437328 0
M  V30 2049 H 189.643 -2.69684 -2.89977 0
M  V30 2050 H 190.817 -4.55086 -0.723408 0
M  V30 2051 H 189.132 -4.08456 -0.809465 0
M  V30 2052 H 191.729 -3.96427 -3.58817 0
M  V30 2053 H 192.072 -2.25403 -3.49999 0
M  V30 2054 H 192.605 -3.32605 -2.18217 0
M  V30 2055 H 189.344 -6.30037 -1.80925 0
M  V30 2056 H 188.864 -5.14872 -3.0768 0
M  V30 2057 H 190.543 -5.73694 -2.99139 0
M  V30 2058 N 190.675 0.682077 -1.42076 0
M  V30 2059 C 191.623 1.81707 -1.45208 0
M  V30 2060 C 192.617 1.66183 -0.328591 0
M  V30 2061 O 193.823 1.7288 -0.501264 0
M  V30 2062 H 190.198 0.599014 -0.454628 0
M  V30 2063 H 192.169 1.76183 -2.40836 0
M  V30 2064 C 190.918 3.19816 -1.36428 0
M  V30 2065 H 190.241 3.32385 -2.22171 0
M  V30 2066 H 191.681 3.99272 -1.42681 0
M  V30 2067 C 190.14 3.36809 -0.078191 0
M  V30 2068 O 190.67 3.92124 0.87188 0
M  V30 2069 N 188.876 2.906 0.00229266 0
M  V30 2070 H 188.423 2.45772 -0.771616 0
M  V30 2071 H 188.381 3.02347 0.862179 0
M  V30 2072 N 192.153 1.28127 0.917671 0
M  V30 2073 C 193.564 1.13622 1.48145 0
M  V30 2074 C 193.915 -0.275207 1.9426 0
M  V30 2075 O 193.04 -1.1691 1.82102 0
M  V30 2076 C 193.635 2.05648 2.69248 0
M  V30 2077 C 192.194 1.95219 3.21818 0
M  V30 2078 C 191.341 1.97618 1.94532 0
M  V30 2079 H 194.292 1.40874 0.730772 0
M  V30 2080 H 194.313 1.61818 3.44377 0
M  V30 2081 H 193.825 3.08365 2.35653 0
M  V30 2082 H 191.926 0.955244 3.60147 0
M  V30 2083 H 192.039 2.81976 3.87333 0
M  V30 2084 H 190.403 1.41973 2.11461 0
M  V30 2085 H 191.186 3.02007 1.63238 0
M  V30 2086 N 193.631 -1.12557 1.10312 0
M  V30 2087 C 194.856 -1.88405 0.867085 0
M  V30 2088 C 195.281 -1.79038 -0.576817 0
M  V30 2089 O 194.639 -1.14439 -1.40618 0
M  V30 2090 C 194.687 -3.3563 1.31851 0
M  V30 2091 O 193.791 -4.09565 0.482734 0
M  V30 2092 H 193.132 -0.585455 0.313271 0
M  V30 2093 H 195.662 -1.42352 1.4696 0
M  V30 2094 H 195.672 -3.86469 1.3079 0
M  V30 2095 H 194.347 -3.41765 2.37001 0
M  V30 2096 H 192.924 -3.68695 0.558448 0
M  V30 2097 N 195.109 -0.891671 -1.2995 0
M  V30 2098 C 196.019 -0.367691 -2.31701 0
M  V30 2099 C 197.035 0.533486 -1.6562 0
M  V30 2100 O 198.211 0.424997 -1.96865 0
M  V30 2101 C 195.276 0.403406 -3.44345 0
M  V30 2102 C 194.337 -0.528328 -4.26037 0
M  V30 2103 C 193.57 0.206063 -5.33302 0
M  V30 2104 O 193.793 1.43119 -5.52153 0
M  V30 2105 O 192.727 -0.447281 -6.00236 0
M  V30 2106 H 196.553 -1.21163 -2.78484 0
M  V30 2107 H 194.138 -0.655725 -1.34241 0
M  V30 2108 H 196.02 0.839753 -4.12948 0
M  V30 2109 H 194.695 1.22354 -2.99685 0
M  V30 2110 H 193.602 -1.01362 -3.60106 0
M  V30 2111 H 194.935 -1.31465 -4.74318 0
M  V30 2112 N 196.587 1.43421 -0.653314 0
M  V30 2113 C 197.535 2.32546 0.0501531 0
M  V30 2114 C 198.529 1.48617 0.812985 0
M  V30 2115 O 199.735 1.64825 0.723375 0
M  V30 2116 H 196.11 0.751185 0.0350032 0
M  V30 2117 H 198.081 2.89602 -0.719261 0
M  V30 2118 C 196.83 3.32925 1.00279 0
M  V30 2119 H 196.153 3.97532 0.425236 0
M  V30 2120 H 197.593 3.9792 1.46409 0
M  V30 2121 C 196.052 2.63532 2.09886 0
M  V30 2122 O 196.582 2.45092 3.18265 0
M  V30 2123 N 194.788 2.22905 1.86445 0
M  V30 2124 H 194.335 2.38103 0.98309 0
M  V30 2125 H 194.293 1.76805 2.59976 0
M  V30 2126 N 198.065 0.39524 1.52563 0
M  V30 2127 C 199.29 -0.187456 2.06551 0
M  V30 2128 C 199.715 -1.39249 1.26457 0
M  V30 2129 O 199.073 -1.78947 0.291151 0
M  V30 2130 C 199.121 -0.529985 3.56684 0
M  V30 2131 O 198.225 -1.62307 3.79118 0
M  V30 2132 H 197.566 -0.0202537 0.663691 0
M  V30 2133 H 200.096 0.564426 1.96661 0
M  V30 2134 H 200.106 -0.792598 4.00227 0
M  V30 2135 H 198.781 0.350987 4.14416 0
M  V30 2136 H 197.358 -1.3537 3.47461 0
M  V30 2137 N 199.544 -1.57102 0.125237 0
M  V30 2138 C 200.772 -1.99761 -0.538797 0
M  V30 2139 C 201.187 -1.00503 -1.59827 0
M  V30 2140 O 200.544 0.00119474 -1.825 0
M  V30 2141 C 200.595 -3.42408 -1.15927 0
M  V30 2142 O 200.316 -4.37869 -0.142143 0
M  V30 2143 C 201.817 -4.00232 -1.90602 0
M  V30 2144 H 199.037 -0.655772 -0.14214 0
M  V30 2145 H 201.581 -2.03383 0.213413 0
M  V30 2146 H 199.736 -3.39706 -1.86223 0
M  V30 2147 H 200.15 -5.21128 -0.593775 0
M  V30 2148 H 201.624 -5.02105 -2.29335 0
M  V30 2149 H 202.101 -3.39721 -2.78363 0
M  V30 2150 H 202.707 -4.06499 -1.25055 0
M  V30 2151 N 201.022 0.148545 -1.56898 0
M  V30 2152 C 202.247 0.880385 -1.87787 0
M  V30 2153 C 202.672 1.74018 -0.714093 0
M  V30 2154 O 202.03 1.78153 0.336343 0
M  V30 2155 C 202.078 1.71422 -3.17249 0
M  V30 2156 O 201.182 2.8183 -3.01074 0
M  V30 2157 H 200.523 0.245301 -0.617028 0
M  V30 2158 H 203.053 0.139826 -2.04122 0
M  V30 2159 H 203.063 2.10954 -3.49231 0
M  V30 2160 H 201.738 1.08284 -4.01556 0
M  V30 2161 H 200.315 2.45715 -2.80497 0
M  V30 2162 N 202.5 1.5196 0.417844 0
M  V30 2163 C 203.725 1.69717 1.1921 0
M  V30 2164 C 204.15 0.402148 1.83751 0
M  V30 2165 O 203.508 -0.639593 1.69643 0
M  V30 2166 C 203.556 2.82794 2.2374 0
M  V30 2167 O 202.66 2.47756 3.29683 0
M  V30 2168 H 202.001 0.565263 0.348387 0
M  V30 2169 H 204.531 1.98621 0.490985 0
M  V30 2170 H 204.541 3.07452 2.68212 0
M  V30 2171 H 203.216 3.76756 1.76146 0
M  V30 2172 H 201.793 2.33739 2.90552 0
M  V30 2173 N 203.978 -0.674533 1.42435 0
M  V30 2174 C 204.908 -1.80009 1.48724 0
M  V30 2175 C 205.889 -1.6659 0.343793 0
M  V30 2176 O 207.074 -1.86007 0.558137 0
M  V30 2177 C 204.204 -3.18306 1.38919 0
M  V30 2178 C 203.158 -3.46461 2.51294 0
M  V30 2179 C 202.484 -4.84335 2.26547 0
M  V30 2180 C 203.784 -3.43328 3.93603 0
M  V30 2181 H 205.478 -1.75004 2.42928 0
M  V30 2182 H 203.024 -0.840533 1.16923 0
M  V30 2183 H 204.977 -3.9678 1.41927 0
M  V30 2184 H 203.701 -3.2399 0.412094 0
M  V30 2185 H 202.36 -2.70348 2.47604 0
M  V30 2186 H 202.008 -4.86669 1.2713 0
M  V30 2187 H 201.708 -5.04136 3.01861 0
M  V30 2188 H 203.232 -5.65094 2.31304 0
M  V30 2189 H 204.646 -4.11772 3.98894 0
M  V30 2190 H 203.043 -3.74664 4.68771 0
M  V30 2191 H 204.113 -2.41897 4.20255 0
M  V30 2192 N 205.456 -1.28612 -0.910864 0
M  V30 2193 C 206.681 -1.1891 -1.69927 0
M  V30 2194 C 207.106 0.248372 -1.86453 0
M  V30 2195 O 206.464 1.17961 -1.37676 0
M  V30 2196 C 206.512 -1.89578 -3.06745 0
M  V30 2197 O 205.616 -1.20521 -3.94396 0
M  V30 2198 H 204.957 -0.412632 -0.520222 0
M  V30 2199 H 207.487 -1.69985 -1.1387 0
M  V30 2200 H 207.497 -1.97597 -3.56958 0
M  V30 2201 H 206.172 -2.94136 -2.94035 0
M  V30 2202 H 204.749 -1.20684 -3.52831 0
M  V30 2203 N 206.934 1.1197 -1.10907 0
M  V30 2204 C 208.162 1.87402 -0.876824 0
M  V30 2205 C 208.577 1.79894 0.573025 0
M  V30 2206 O 207.934 1.17629 1.39534 0
M  V30 2207 C 207.985 3.36428 -1.32282 0
M  V30 2208 O 207.706 3.43765 -2.71582 0
M  V30 2209 C 209.207 4.28783 -1.12518 0
M  V30 2210 H 206.427 0.592793 -0.314384 0
M  V30 2211 H 208.971 1.41649 -1.47499 0
M  V30 2212 H 207.126 3.79706 -0.768229 0
M  V30 2213 H 207.54 4.3652 -2.90776 0
M  V30 2214 H 209.014 5.31613 -1.48633 0
M  V30 2215 H 209.491 4.39153 -0.0642394 0
M  V30 2216 H 210.097 3.91291 -1.66648 0
M  V30 2217 N 208.412 0.89855 1.29475 0
M  V30 2218 C 209.652 0.530771 1.97388 0
M  V30 2219 C 210.016 -0.905832 1.69289 0
M  V30 2220 O 211.217 -1.38042 2.30646 0
M  V30 2221 C 209.488 0.81369 3.48014 0
M  V30 2222 S 211.047 0.550048 4.35339 0
M  V30 2223 H 207.865 0.196956 0.683176 0
M  V30 2224 H 210.467 1.16074 1.57312 0
M  V30 2225 H 209.171 1.85749 3.65958 0
M  V30 2226 H 208.702 0.171795 3.93025 0
M  V30 2227 H 210.717 -0.605423 4.92493 0
M  V30 2228 N 209.89 -1.43072 0.660911 0
M  V30 2229 C 210.82 -2.33497 -0.0122829 0
M  V30 2230 C 211.801 -1.49903 -0.803925 0
M  V30 2231 O 212.986 -1.78546 -0.763864 0
M  V30 2232 C 210.116 -3.33363 -0.973994 0
M  V30 2233 C 209.07 -4.27003 -0.291928 0
M  V30 2234 C 208.396 -5.16967 -1.36562 0
M  V30 2235 C 209.696 -5.15816 0.820462 0
M  V30 2236 H 211.39 -2.90038 0.742873 0
M  V30 2237 H 208.936 -1.39461 0.358688 0
M  V30 2238 H 210.889 -3.95524 -1.45392 0
M  V30 2239 H 209.613 -2.75095 -1.7604 0
M  V30 2240 H 208.272 -3.66217 0.167623 0
M  V30 2241 H 207.92 -4.55034 -2.14366 0
M  V30 2242 H 207.62 -5.80441 -0.914454 0
M  V30 2243 H 209.144 -5.82003 -1.84675 0
M  V30 2244 H 210.558 -5.71742 0.422366 0
M  V30 2245 H 208.955 -5.8805 1.19656 0
M  V30 2246 H 210.025 -4.55045 1.67518 0
M  V30 2247 N 211.368 -0.403325 -1.52352 0
M  V30 2248 C 212.617 0.175668 -2.00934 0
M  V30 2249 C 212.93 1.46718 -1.29356 0
M  V30 2250 O 214.136 2.12708 -1.68724 0
M  V30 2251 C 212.592 0.363612 -3.58058 0
M  V30 2252 C 212.2 -0.915472 -4.38547 0
M  V30 2253 C 213.944 0.89821 -4.14888 0
M  V30 2254 C 211.851 -0.695035 -5.87302 0
M  V30 2255 H 210.781 0.0694234 -0.750797 0
M  V30 2256 H 213.432 -0.527879 -1.75743 0
M  V30 2257 H 211.814 1.12935 -3.79555 0
M  V30 2258 H 212.988 -1.68691 -4.28812 0
M  V30 2259 H 211.303 -1.37606 -3.93006 0
M  V30 2260 H 213.9 1.07907 -5.23699 0
M  V30 2261 H 214.243 1.87126 -3.71873 0
M  V30 2262 H 214.776 0.191681 -3.97338 0
M  V30 2263 H 211.515 -1.63948 -6.34666 0
M  V30 2264 H 211.035 0.0372116 -5.99788 0
M  V30 2265 H 212.714 -0.33497 -6.46132 0
M  V30 2266 N 212.846 1.57033 -0.133567 0
M  V30 2267 C 213.794 2.17348 0.828412 0
M  V30 2268 C 214.788 1.12671 1.26498 0
M  V30 2269 O 215.994 1.30947 1.23502 0
M  V30 2270 H 212.369 0.695775 0.285309 0
M  V30 2271 H 214.34 2.96935 0.295372 0
M  V30 2272 C 213.089 2.79893 2.06289 0
M  V30 2273 H 212.412 3.60147 1.73592 0
M  V30 2274 H 213.852 3.25615 2.71572 0
M  V30 2275 C 212.311 1.77713 2.86216 0
M  V30 2276 O 212.841 1.23937 3.82103 0
M  V30 2277 N 211.047 1.47321 2.50489 0
M  V30 2278 H 210.594 1.91243 1.7258 0
M  V30 2279 H 210.552 0.79199 3.04261 0
M  V30 2280 N 214.325 -0.140222 1.56975 0
M  V30 2281 C 215.257 -1.19818 1.95388 0
M  V30 2282 C 216.27 -1.38816 0.850525 0
M  V30 2283 O 217.459 -1.38267 1.12891 0
M  V30 2284 C 214.559 -2.56189 2.21857 0
M  V30 2285 C 213.732 -2.58077 3.5315 0
M  V30 2286 C 212.791 -3.76037 3.6808 0
M  V30 2287 O 211.817 -3.60598 4.40406 0
M  V30 2288 N 213.019 -4.93763 3.05251 0
M  V30 2289 H 215.784 -0.871609 2.86746 0
M  V30 2290 H 213.345 -0.32972 1.58507 0
M  V30 2291 H 215.337 -3.33623 2.2908 0
M  V30 2292 H 213.907 -2.81111 1.36731 0
M  V30 2293 H 213.127 -1.6651 3.57307 0
M  V30 2294 H 214.415 -2.56377 4.39486 0
M  V30 2295 H 213.813 -5.09209 2.46419 0
M  V30 2296 H 212.37 -5.68949 3.18026 0
M  V30 2297 N 215.803 -1.52179 -0.40978 0
M  V30 2298 C 217.031 -1.70054 -1.17853 0
M  V30 2299 C 217.446 -0.409735 -1.843 0
M  V30 2300 O 216.803 0.614183 -1.71855 0
M  V30 2301 C 216.854 -2.83568 -2.24213 0
M  V30 2302 O 216.575 -4.0765 -1.60478 0
M  V30 2303 C 218.076 -3.12947 -3.13973 0
M  V30 2304 H 215.296 -0.569917 -0.354169 0
M  V30 2305 H 217.84 -1.98734 -0.482198 0
M  V30 2306 H 215.995 -2.57409 -2.89516 0
M  V30 2307 H 216.409 -4.70899 -2.30986 0
M  V30 2308 H 217.883 -3.95889 -3.84677 0
M  V30 2309 H 218.36 -2.26472 -3.76307 0
M  V30 2310 H 218.966 -3.40868 -2.5434 0
M  V30 2311 N 217.281 0.66697 -1.42791 0
M  V30 2312 C 218.211 1.79218 -1.49677 0
M  V30 2313 C 219.192 1.66405 -0.352623 0
M  V30 2314 O 220.377 1.85708 -0.567993 0
M  V30 2315 C 217.507 3.17565 -1.40605 0
M  V30 2316 C 216.461 3.45124 -2.53127 0
M  V30 2317 C 215.787 4.83127 -2.29112 0
M  V30 2318 C 217.087 3.41236 -3.95418 0
M  V30 2319 H 218.781 1.73713 -2.43853 0
M  V30 2320 H 216.327 0.83432 -1.17367 0
M  V30 2321 H 218.28 3.96022 -1.44029 0
M  V30 2322 H 217.004 3.23767 -0.429271 0
M  V30 2323 H 215.663 2.69031 -2.49034 0
M  V30 2324 H 215.311 4.85988 -1.29709 0
M  V30 2325 H 215.011 5.02528 -3.04531 0
M  V30 2326 H 216.535 5.63859 -2.34297 0
M  V30 2327 H 217.949 4.09651 -4.01073 0
M  V30 2328 H 216.346 3.72173 -4.70752 0
M  V30 2329 H 217.416 2.39665 -4.21532 0
M  V30 2330 N 218.759 1.29093 0.90403 0
M  V30 2331 C 219.984 1.19809 1.69294 0
M  V30 2332 C 220.409 -0.238481 1.86582 0
M  V30 2333 O 219.767 -1.1723 1.383 0
M  V30 2334 C 219.815 1.91202 3.05736 0
M  V30 2335 O 218.919 1.22611 3.93752 0
M  V30 2336 H 218.26 0.415385 0.518027 0
M  V30 2337 H 220.79 1.70586 1.12967 0
M  V30 2338 H 220.8 1.99487 3.55906 0
M  V30 2339 H 219.475 2.95692 2.92471 0
M  V30 2340 H 218.052 1.22554 3.52186 0
M  V30 2341 N 220.237 -1.11381 1.11499 0
M  V30 2342 C 221.484 -1.83132 0.864231 0
M  V30 2343 C 221.812 -1.84683 -0.610114 0
M  V30 2344 O 221.067 -1.29589 -1.46646 0
M  V30 2345 C 221.366 -3.30026 1.37177 0
M  V30 2346 C 221.032 -3.48634 2.85946 0
M  V30 2347 C 219.694 -3.53421 3.26569 0
M  V30 2348 C 222.046 -3.54837 3.81759 0
M  V30 2349 C 219.374 -3.61967 4.61733 0
M  V30 2350 C 221.726 -3.64915 5.1674 0
M  V30 2351 C 220.39 -3.67962 5.5692 0
M  V30 2352 H 219.66 -0.670127 0.316245 0
M  V30 2353 H 222.307 -1.31354 1.3935 0
M  V30 2354 H 220.612 -3.84304 0.762753 0
M  V30 2355 H 222.309 -3.84034 1.15408 0
M  V30 2356 H 218.899 -3.45579 2.53521 0
M  V30 2357 H 223.083 -3.50399 3.51474 0
M  V30 2358 H 218.339 -3.62603 4.92269 0
M  V30 2359 H 222.513 -3.68658 5.90816 0
M  V30 2360 H 220.14 -3.74336 6.61647 0
M  V30 2361 N 221.715 -0.905404 -1.28997 0
M  V30 2362 C 222.663 -0.377431 -2.29517 0
M  V30 2363 C 223.657 0.526461 -1.61012 0
M  V30 2364 O 224.863 0.40863 -1.753 0
M  V30 2365 H 221.238 -0.103437 -0.744852 0
M  V30 2366 H 223.209 -1.23848 -2.71485 0
M  V30 2367 C 221.958 0.374833 -3.45674 0
M  V30 2368 H 221.281 -0.311474 -3.98585 0
M  V30 2369 H 222.721 0.70903 -4.1803 0
M  V30 2370 C 221.18 1.57963 -2.97572 0
M  V30 2371 O 221.71 2.67886 -2.99333 0
M  V30 2372 N 219.916 1.42375 -2.53333 0
M  V30 2373 H 219.463 0.529466 -2.521 0
M  V30 2374 H 219.421 2.23117 -2.21509 0
M  V30 2375 N 223.193 1.4272 -0.668489 0
M  V30 2376 C 224.441 2.01226 -0.187769 0
M  V30 2377 C 224.762 1.53092 1.2078 0
M  V30 2378 O 224.032 0.74993 1.80977 0
M  V30 2379 H 222.612 0.744041 -0.0664272 0
M  V30 2380 H 225.274 1.74723 -0.863583 0
M  V30 2381 H 224.37 3.11556 -0.184166 0
M  V30 2382 N 224.671 0.411399 1.52136 0
M  V30 2383 C 225.899 -0.163076 2.06256 0
M  V30 2384 C 226.314 -1.3867 1.28125 0
M  V30 2385 O 225.671 -1.79423 0.333721 0
M  V30 2386 C 225.722 -0.511252 3.57867 0
M  V30 2387 O 225.443 0.66378 4.33042 0
M  V30 2388 C 226.944 -1.13921 4.28412 0
M  V30 2389 H 224.164 -0.0193897 0.67072 0
M  V30 2390 H 226.708 0.583007 1.96013 0
M  V30 2391 H 224.863 -1.20723 3.6811 0
M  V30 2392 H 225.277 0.372601 5.23175 0
M  V30 2393 H 226.751 -1.33302 5.35663 0
M  V30 2394 H 227.228 -2.11296 3.85033 0
M  V30 2395 H 227.834 -0.483373 4.22544 0
M  V30 2396 N 226.149 -1.5696 0.141893 0
M  V30 2397 C 227.374 -2.00754 -0.520838 0
M  V30 2398 C 227.799 -1.0213 -1.57959 0
M  V30 2399 O 227.157 0.00371324 -1.813 0
M  V30 2400 C 227.205 -3.43318 -1.10294 0
M  V30 2401 O 226.309 -3.47679 -2.21795 0
M  V30 2402 H 225.65 -0.651564 -0.127908 0
M  V30 2403 H 228.18 -2.03221 0.23712 0
M  V30 2404 H 228.19 -3.82012 -1.43287 0
M  V30 2405 H 226.865 -4.14608 -0.327574 0
M  V30 2406 H 225.442 -3.20824 -1.9007 0
M  V30 2407 N 227.627 0.131896 -1.57047 0
M  V30 2408 C 229.038 0.690407 -1.73465 0
M  V30 2409 C 229.389 1.8094 -0.758629 0
M  V30 2410 O 228.514 2.16282 0.0713813 0
M  V30 2411 C 229.109 1.25916 -3.14532 0
M  V30 2412 C 227.668 1.76409 -3.32501 0
M  V30 2413 C 226.815 0.658579 -2.69366 0
M  V30 2414 H 229.766 -0.0939144 -1.58422 0
M  V30 2415 H 229.787 2.12892 -3.15369 0
M  V30 2416 H 229.299 0.444515 -3.85546 0
M  V30 2417 H 227.4 2.60391 -2.66509 0
M  V30 2418 H 227.513 1.88241 -4.4057 0
M  V30 2419 H 225.877 1.08899 -2.30246 0
M  V30 2420 H 226.66 -0.14487 -3.42994 0
M  V30 2421 N 229.106 1.52395 0.401703 0
M  V30 2422 C 230.016 1.7917 1.51444 0
M  V30 2423 C 231.032 0.677691 1.6026 0
M  V30 2424 O 232.208 0.963909 1.76835 0
M  V30 2425 C 229.273 1.94347 2.87107 0
M  V30 2426 C 228.334 3.18257 2.88116 0
M  V30 2427 C 227.567 3.32701 4.17308 0
M  V30 2428 O 227.79 2.52238 5.11598 0
M  V30 2429 O 226.724 4.25891 4.25324 0
M  V30 2430 H 230.55 2.73633 1.31752 0
M  V30 2431 H 228.135 1.3733 0.588296 0
M  V30 2432 H 230.017 2.06109 3.67555 0
M  V30 2433 H 228.692 1.03073 3.06851 0
M  V30 2434 H 227.599 3.11947 2.06494 0
M  V30 2435 H 228.932 4.09336 2.73322 0
M  V30 2436 N 230.584 -0.659388 1.43143 0
M  V30 2437 C 231.833 -1.41518 1.43721 0
M  V30 2438 C 232.146 -1.95499 0.0628176 0
M  V30 2439 O 233.352 -2.71446 -0.0539683 0
M  V30 2440 C 231.808 -2.5608 2.52885 0
M  V30 2441 C 231.416 -2.08733 3.96402 0
M  V30 2442 C 233.16 -3.3349 2.62649 0
M  V30 2443 C 231.067 -3.20469 4.97045 0
M  V30 2444 H 229.997 -0.531705 0.534608 0
M  V30 2445 H 232.648 -0.712343 1.69109 0
M  V30 2446 H 231.03 -3.28805 2.20688 0
M  V30 2447 H 232.204 -1.43059 4.3803 0
M  V30 2448 H 230.519 -1.44219 3.90627 0
M  V30 2449 H 233.116 -4.16734 3.35017 0
M  V30 2450 H 233.459 -3.8111 1.67513 0
M  V30 2451 H 233.992 -2.67842 2.94118 0
M  V30 2452 H 230.731 -2.77824 5.93712 0
M  V30 2453 H 230.251 -3.84874 4.60034 0
M  V30 2454 H 231.93 -3.85698 5.19467 0
M  V30 2455 N 232.062 -1.29571 -0.897171 0
M  V30 2456 C 233.308 -1.17863 -1.65034 0
M  V30 2457 C 233.641 0.268729 -1.92332 0
M  V30 2458 O 232.916 1.19378 -1.53555 0
M  V30 2459 C 233.199 -1.995 -2.99786 0
M  V30 2460 C 233.052 -3.5239 -2.79538 0
M  V30 2461 C 234.371 -1.82335 -4.00552 0
M  V30 2462 H 231.49 -0.429528 -0.598895 0
M  V30 2463 H 234.132 -1.59072 -1.03905 0
M  V30 2464 H 232.282 -1.64485 -3.51962 0
M  V30 2465 H 233.954 -3.97401 -2.34244 0
M  V30 2466 H 232.197 -3.77187 -2.14273 0
M  V30 2467 H 232.868 -4.04787 -3.75302 0
M  V30 2468 H 235.344 -2.12924 -3.57495 0
M  V30 2469 H 234.22 -2.41801 -4.92771 0
M  V30 2470 H 234.481 -0.779209 -4.35179 0
M  V30 2471 N 233.54 1.10788 -1.12088 0
M  V30 2472 C 234.45 2.20599 -0.798338 0
M  V30 2473 C 235.466 1.72712 0.21135 0
M  V30 2474 O 236.642 2.01348 0.0458477 0
M  V30 2475 C 233.707 3.45771 -0.253674 0
M  V30 2476 C 232.768 4.08411 -1.32283 0
M  V30 2477 C 232.001 5.27608 -0.80406 0
M  V30 2478 O 232.224 5.69241 0.363478 0
M  V30 2479 O 231.158 5.8101 -1.57198 0
M  V30 2480 H 234.984 2.50614 -1.7154 0
M  V30 2481 H 232.569 1.19454 -0.897275 0
M  V30 2482 H 234.451 4.21376 0.0453691 0
M  V30 2483 H 233.126 3.1739 0.636005 0
M  V30 2484 H 232.033 3.34507 -1.67499 0
M  V30 2485 H 233.366 4.40986 -2.18614 0
M  V30 2486 N 235.018 0.912232 1.28515 0
M  V30 2487 C 235.965 0.397954 2.27343 0
M  V30 2488 C 236.935 -0.526766 1.57526 0
M  V30 2489 O 238.12 -0.449292 1.85435 0
M  V30 2490 C 235.26 -0.357263 3.43246 0
M  V30 2491 C 234.373 0.599788 4.27816 0
M  V30 2492 C 233.508 -0.173725 5.30916 0
M  V30 2493 C 232.547 0.777039 6.07148 0
M  V30 2494 N 231.684 0.0371398 7.0209 0
M  V30 2495 H 236.524 1.24577 2.70711 0
M  V30 2496 H 234.061 0.625612 1.33133 0
M  V30 2497 H 236.019 -0.8113 4.09236 0
M  V30 2498 H 234.649 -1.16943 3.00872 0
M  V30 2499 H 233.701 1.17235 3.61884 0
M  V30 2500 H 235.013 1.32704 4.80823 0
M  V30 2501 H 234.167 -0.688394 6.02782 0
M  V30 2502 H 232.906 -0.934041 4.78672 0
M  V30 2503 H 231.911 1.3031 5.34134 0
M  V30 2504 H 233.136 1.53689 6.61481 0
M  V30 2505 H 231.082 -0.705213 6.52198 0
M  V30 2506 H 230.999 0.704249 7.52713 0
M  V30 2507 H 232.267 -0.457383 7.78157 0
M  V30 2508 N 236.496 -1.42363 0.676048 0
M  V30 2509 C 237.773 -1.95183 0.127726 0
M  V30 2510 C 238.153 -1.61641 -1.35777 0
M  V30 2511 O 237.501 -0.913216 -2.09458 0
M  V30 2512 C 237.711 -3.46721 0.398199 0
M  V30 2513 C 239.059 -4.23427 0.315383 0
M  V30 2514 O 240.083 -3.54649 0.332016 0
M  V30 2515 O 238.942 -5.45888 0.25865 0
M  V30 2516 H 236.036 -0.826992 0.00359427 0
M  V30 2517 H 238.582 -1.52184 0.750864 0
M  V30 2518 H 237.354 -3.64344 1.4272 0
M  V30 2519 H 236.977 -3.96769 -0.256885 0
M  V30 2520 N 237.974 -0.419461 -1.51915 0
M  V30 2521 C 239.214 0.152336 -2.03832 0
M  V30 2522 C 239.578 1.41501 -1.29775 0
M  V30 2523 O 240.779 2.06591 -1.7197 0
M  V30 2524 C 239.05 0.383812 -3.55333 0
M  V30 2525 S 240.609 0.921577 -4.29013 0
M  V30 2526 H 237.427 0.0402193 -0.709862 0
M  V30 2527 H 240.029 -0.574758 -1.8686 0
M  V30 2528 H 238.733 -0.541794 -4.06808 0
M  V30 2529 H 238.264 1.13849 -3.76566 0
M  V30 2530 H 240.279 2.20108 -4.4471 0
M  V30 2531 N 239.452 1.56882 -0.150215 0
M  V30 2532 C 240.698 1.96518 0.500834 0
M  V30 2533 C 241.031 1.03527 1.64304 0
M  V30 2534 O 240.306 0.0782751 1.94342 0
M  V30 2535 C 240.589 3.45822 1.00395 0
M  V30 2536 C 240.442 4.49591 -0.136983 0
M  V30 2537 C 241.761 3.97704 1.88467 0
M  V30 2538 H 238.88 0.714535 0.18058 0
M  V30 2539 H 241.522 1.88577 -0.232091 0
M  V30 2540 H 239.672 3.5272 1.62851 0
M  V30 2541 H 241.344 4.5477 -0.77343 0
M  V30 2542 H 239.587 4.26441 -0.795652 0
M  V30 2543 H 240.258 5.51402 0.256815 0
M  V30 2544 H 242.734 3.93304 1.35834 0
M  V30 2545 H 241.61 5.0263 2.20578 0
M  V30 2546 H 241.871 3.40252 2.82279 0
M  V30 2547 N 240.93 -0.123565 1.57115 0
M  V30 2548 C 241.877 -1.15177 2.00007 0
M  V30 2549 C 242.847 -1.41403 0.871454 0
M  V30 2550 O 244.032 -1.53346 1.13533 0
M  V30 2551 C 241.172 -2.47436 2.40561 0
M  V30 2552 C 240.285 -2.28184 3.66819 0
M  V30 2553 C 239.42 -3.53641 3.96373 0
M  V30 2554 C 238.459 -3.29528 5.15827 0
M  V30 2555 N 237.596 -4.47175 5.41275 0
M  V30 2556 H 242.436 -0.779008 2.87638 0
M  V30 2557 H 239.973 -0.373166 1.42288 0
M  V30 2558 H 241.931 -3.24584 2.62109 0
M  V30 2559 H 240.561 -2.82614 1.55978 0
M  V30 2560 H 239.613 -1.41976 3.52912 0
M  V30 2561 H 240.925 -2.0634 4.5412 0
M  V30 2562 H 240.079 -4.39209 4.18545 0
M  V30 2563 H 238.818 -3.78512 3.07538 0
M  V30 2564 H 237.823 -2.42349 4.93505 0
M  V30 2565 H 239.048 -3.06031 6.06236 0
M  V30 2566 H 236.994 -4.72175 4.55397 0
M  V30 2567 H 236.911 -4.28419 6.22891 0
M  V30 2568 H 238.179 -5.3389 5.67963 0
M  V30 2569 N 242.408 -1.52605 -0.393616 0
M  V30 2570 C 243.318 -1.79971 -1.50492 0
M  V30 2571 C 244.334 -0.686181 -1.59899 0
M  V30 2572 O 245.51 -0.973274 -1.76322 0
M  V30 2573 C 242.575 -1.95867 -2.86072 0
M  V30 2574 C 241.636 -3.19781 -2.86424 0
M  V30 2575 C 240.869 -3.34909 -4.15538 0
M  V30 2576 O 241.092 -2.54948 -5.10253 0
M  V30 2577 O 240.026 -4.28141 -4.23059 0
M  V30 2578 H 243.852 -2.74328 -1.30299 0
M  V30 2579 H 241.437 -1.3764 -0.581005 0
M  V30 2580 H 243.319 -2.08056 -3.66457 0
M  V30 2581 H 241.994 -1.04699 -3.063 0
M  V30 2582 H 240.901 -3.13038 -2.04837 0
M  V30 2583 H 242.234 -4.1078 -2.71147 0
M  V30 2584 N 243.887 0.651787 -1.4349 0
M  V30 2585 C 245.112 1.44434 -1.48841 0
M  V30 2586 C 245.537 1.8779 -0.107955 0
M  V30 2587 O 244.895 1.57464 0.898602 0
M  V30 2588 C 244.943 2.65458 -2.44059 0
M  V30 2589 O 244.047 3.64566 -1.92784 0
M  V30 2590 H 243.388 0.433005 -0.503391 0
M  V30 2591 H 245.918 0.797451 -1.88419 0
M  V30 2592 H 245.928 3.13255 -2.6141 0
M  V30 2593 H 244.603 2.33244 -3.4434 0
M  V30 2594 H 243.18 3.23716 -1.851 0
M  V30 2595 N 245.365 1.30045 0.890287 0
M  V30 2596 C 246.613 1.18327 1.63839 0
M  V30 2597 C 246.934 -0.263455 1.93212 0
M  V30 2598 O 246.204 -1.17856 1.56482 0
M  V30 2599 H 244.784 0.434933 0.607324 0
M  V30 2600 H 247.446 1.631 1.06698 0
M  V30 2601 H 246.542 1.74024 2.59079 0
M  V30 2602 N 246.843 -1.10192 1.12674 0
M  V30 2603 C 248.068 -1.86523 0.906853 0
M  V30 2604 C 248.493 -1.80221 -0.538711 0
M  V30 2605 O 247.851 -1.17396 -1.38158 0
M  V30 2606 C 247.899 -3.32758 1.3894 0
M  V30 2607 O 247.003 -4.08449 0.5695 0
M  V30 2608 H 246.344 -0.578678 0.325619 0
M  V30 2609 H 248.874 -1.39203 1.49946 0
M  V30 2610 H 248.884 -3.83608 1.38958 0
M  V30 2611 H 247.559 -3.36661 2.44197 0
M  V30 2612 H 246.136 -3.67427 0.636528 0
M  V30 2613 N 248.321 -0.919034 -1.28029 0
M  V30 2614 C 249.271 -0.382574 -2.24767 0
M  V30 2615 C 250.255 0.508286 -1.52661 0
M  V30 2616 O 251.447 0.347145 -1.73562 0
M  V30 2617 C 248.576 0.371432 -3.41285 0
M  V30 2618 C 247.662 -0.535449 -4.20706 0
M  V30 2619 N 248.053 -1.65141 -4.78082 0
M  V30 2620 C 246.351 -0.336824 -4.44726 0
M  V30 2621 C 247.052 -2.21475 -5.37888 0
M  V30 2622 N 246.028 -1.50537 -5.22341 0
M  V30 2623 H 249.83 -1.23477 -2.66703 0
M  V30 2624 H 247.344 -0.772299 -1.42861 0
M  V30 2625 H 249.341 0.772638 -4.09678 0
M  V30 2626 H 248.001 1.22066 -3.00882 0
M  V30 2627 H 249.012 -2.03392 -4.7629 0
M  V30 2628 H 245.689 0.47246 -4.14818 0
M  V30 2629 H 247.079 -3.15379 -5.93284 0
M  V30 2630 N 249.799 1.42003 -0.683588 0
M  V30 2631 C 250.732 2.28166 0.039592 0
M  V30 2632 C 251.71 1.41562 0.799942 0
M  V30 2633 O 252.894 1.70997 0.793248 0
M  V30 2634 C 250.021 3.21575 1.06335 0
M  V30 2635 C 249.067 4.24643 0.397562 0
M  V30 2636 S 249.9 5.2869 -0.851296 0
M  V30 2637 C 251.056 6.25666 0.171166 0
M  V30 2638 H 251.289 2.89153 -0.691229 0
M  V30 2639 H 248.822 1.46962 -0.473435 0
M  V30 2640 H 250.78 3.75928 1.6489 0
M  V30 2641 H 249.441 2.59707 1.76667 0
M  V30 2642 H 248.634 4.90223 1.17035 0
M  V30 2643 H 248.236 3.73824 -0.114611 0
M  V30 2644 H 250.528 6.69653 1.02819 0
M  V30 2645 H 251.471 7.06666 -0.450397 0
M  V30 2646 H 251.879 5.62095 0.520578 0
M  V30 2647 N 251.277 0.427512 1.51691 0
M  V30 2648 C 252.523 -0.134744 2.02953 0
M  V30 2649 C 252.878 -1.41235 1.30654 0
M  V30 2650 O 252.171 -1.87168 0.409713 0
M  V30 2651 C 252.365 -0.418249 3.54944 0
M  V30 2652 C 252.194 0.830327 4.41968 0
M  V30 2653 C 250.964 1.36097 4.86627 0
M  V30 2654 C 253.162 1.7137 4.84909 0
M  V30 2655 N 251.144 2.56311 5.57833 0
M  V30 2656 C 252.515 2.76195 5.55082 0
M  V30 2657 C 254.57 1.72928 4.66905 0
M  V30 2658 C 253.273 3.82512 6.09161 0
M  V30 2659 C 255.299 2.78175 5.21894 0
M  V30 2660 C 254.661 3.8172 5.92004 0
M  V30 2661 H 250.76 -0.0103958 0.781931 0
M  V30 2662 H 253.344 0.585981 1.85673 0
M  V30 2663 H 251.515 -1.10801 3.7226 0
M  V30 2664 H 253.247 -0.970999 3.92879 0
M  V30 2665 H 250.002 0.916311 4.64651 0
M  V30 2666 H 250.426 3.17242 5.98069 0
M  V30 2667 H 255.068 0.942081 4.12171 0
M  V30 2668 H 252.786 4.62077 6.62956 0
M  V30 2669 H 256.372 2.8031 5.09821 0
M  V30 2670 H 255.252 4.61821 6.33791 0
M  V30 2671 N 252.755 -1.56801 0.158532 0
M  V30 2672 C 254.004 -1.95665 -0.489702 0
M  V30 2673 C 254.317 -1.04654 -1.65248 0
M  V30 2674 O 255.523 -1.33146 -2.3661 0
M  V30 2675 C 253.979 -3.47874 -0.922582 0
M  V30 2676 C 253.587 -4.47489 0.213893 0
M  V30 2677 C 255.331 -3.95583 -1.53996 0
M  V30 2678 C 253.238 -5.90921 -0.237903 0
M  V30 2679 H 252.168 -0.730516 -0.186716 0
M  V30 2680 H 254.819 -1.81861 0.244722 0
M  V30 2681 H 253.201 -3.57051 -1.71261 0
M  V30 2682 H 254.375 -4.50017 0.991036 0
M  V30 2683 H 252.69 -4.09764 0.740407 0
M  V30 2684 H 255.287 -5.0019 -1.8898 0
M  V30 2685 H 255.63 -3.37789 -2.43319 0
M  V30 2686 H 256.163 -3.8937 -0.814611 0
M  V30 2687 H 252.902 -6.52559 0.620236 0
M  V30 2688 H 252.422 -5.91729 -0.980676 0
M  V30 2689 H 254.101 -6.43352 -0.686067 0
M  V30 2690 N 254.233 0.115231 -1.57178 0
M  V30 2691 C 255.463 0.835224 -1.88964 0
M  V30 2692 C 255.871 1.73774 -0.74829 0
M  V30 2693 O 255.214 1.81401 0.289739 0
M  V30 2694 C 255.276 1.7178 -3.15804 0
M  V30 2695 C 254.94 0.989198 -4.46166 0
M  V30 2696 C 255.937 0.328263 -5.18863 0
M  V30 2697 C 253.622 0.969256 -4.9286 0
M  V30 2698 C 255.616 -0.342873 -6.36477 0
M  V30 2699 C 253.303 0.294324 -6.10391 0
M  V30 2700 C 254.301 -0.360582 -6.82048 0
M  V30 2701 O 253.989 -1.02474 -7.97342 0
M  V30 2702 H 253.721 0.245197 -0.629964 0
M  V30 2703 H 256.275 0.10303 -2.05141 0
M  V30 2704 H 254.505 2.49173 -2.95719 0
M  V30 2705 H 256.194 2.31255 -3.33581 0
M  V30 2706 H 256.96 0.335263 -4.8384 0
M  V30 2707 H 252.839 1.46844 -4.36987 0
M  V30 2708 H 256.383 -0.854629 -6.92345 0
M  V30 2709 H 252.28 0.285099 -6.4487 0
M  V30 2710 H 253.048 -0.929594 -8.13204 0
M  V30 2711 N 255.711 1.52812 0.385517 0
M  V30 2712 C 256.957 1.68275 1.13188 0
M  V30 2713 C 257.29 0.423179 1.89533 0
M  V30 2714 O 256.565 -0.579113 1.85679 0
M  V30 2715 C 256.848 2.92001 2.1073 0
M  V30 2716 C 256.701 4.28067 1.38125 0
M  V30 2717 C 258.02 3.11283 3.11113 0
M  V30 2718 H 255.139 0.612352 0.410115 0
M  V30 2719 H 257.781 1.85415 0.414869 0
M  V30 2720 H 255.931 2.77519 2.71874 0
M  V30 2721 H 257.603 4.54324 0.799187 0
M  V30 2722 H 255.846 4.28388 0.683092 0
M  V30 2723 H 256.517 5.10733 2.09417 0
M  V30 2724 H 258.993 3.2482 2.6006 0
M  V30 2725 H 257.869 3.99325 3.76605 0
M  V30 2726 H 258.13 2.25656 3.80173 0
M  V30 2727 N 257.189 -0.644168 1.43834 0
M  V30 2728 C 258.436 -1.40395 1.4593 0
M  V30 2729 C 258.764 -1.94305 0.0869658 0
M  V30 2730 O 258.019 -1.73288 -0.909378 0
M  V30 2731 C 258.318 -2.59615 2.45631 0
M  V30 2732 C 257.984 -2.2407 3.91284 0
M  V30 2733 C 256.646 -2.14089 4.30952 0
M  V30 2734 C 258.998 -1.95775 4.83034 0
M  V30 2735 C 256.326 -1.73981 5.6031 0
M  V30 2736 C 258.678 -1.57163 6.12766 0
M  V30 2737 C 257.342 -1.45713 6.51402 0
M  V30 2738 H 256.612 -0.513741 0.533995 0
M  V30 2739 H 259.259 -0.731724 1.76969 0
M  V30 2740 H 257.564 -3.32011 2.08028 0
M  V30 2741 H 259.261 -3.17834 2.44504 0
M  V30 2742 H 255.851 -2.32753 3.59895 0
M  V30 2743 H 260.035 -2.02403 4.53152 0
M  V30 2744 H 255.291 -1.63709 5.89075 0
M  V30 2745 H 259.465 -1.34303 6.83327 0
M  V30 2746 H 257.092 -1.14406 7.51542 0
M  V30 2747 N 258.668 -1.30515 -0.883378 0
M  V30 2748 C 259.601 -1.11359 -1.99184 0
M  V30 2749 C 260.579 -0.0207858 -1.62587 0
M  V30 2750 O 261.763 -0.174646 -1.87689 0
M  V30 2751 C 258.89 -0.69871 -3.31415 0
M  V30 2752 C 257.936 -1.79261 -3.86998 0
M  V30 2753 S 258.769 -3.39536 -4.14096 0
M  V30 2754 C 259.925 -2.99954 -5.49344 0
M  V30 2755 H 260.158 -2.052 -2.15128 0
M  V30 2756 H 257.691 -1.14847 -1.03196 0
M  V30 2757 H 259.649 -0.466075 -4.07846 0
M  V30 2758 H 258.31 0.220368 -3.13326 0
M  V30 2759 H 257.503 -1.45464 -4.82552 0
M  V30 2760 H 257.105 -1.97961 -3.17313 0
M  V30 2761 H 259.397 -2.48013 -6.30473 0
M  V30 2762 H 260.34 -3.9442 -5.8808 0
M  V30 2763 H 260.748 -2.37775 -5.1198 0
M  V30 2764 N 260.146 1.09593 -1.13257 0
M  V30 2765 C 261.394 1.81375 -0.891492 0
M  V30 2766 C 261.715 1.86049 0.584009 0
M  V30 2767 O 260.985 1.34481 1.42449 0
M  V30 2768 H 259.565 0.671708 -0.326828 0
M  V30 2769 H 262.227 1.3256 -1.42877 0
M  V30 2770 H 261.323 2.84612 -1.28071 0
M  V30 2771 N 261.624 0.925811 1.2754 0
M  V30 2772 C 262.572 0.413897 2.28888 0
M  V30 2773 C 263.566 -0.500779 1.61829 0
M  V30 2774 O 264.772 -0.38069 1.75928 0
M  V30 2775 H 261.147 0.115274 0.743112 0
M  V30 2776 H 263.118 1.28151 2.69481 0
M  V30 2777 C 261.867 -0.319792 3.46226 0
M  V30 2778 H 261.19 0.374846 3.98039 0
M  V30 2779 H 262.63 -0.642435 4.19105 0
M  V30 2780 C 261.089 -1.53209 3.00048 0
M  V30 2781 O 261.619 -2.6309 3.03557 0
M  V30 2782 N 259.825 -1.38326 2.55566 0
M  V30 2783 H 259.372 -0.489292 2.5291 0
M  V30 2784 H 259.33 -2.19564 2.25031 0
M  V30 2785 N 263.102 -1.41638 0.69111 0
M  V30 2786 C 264.035 -2.28183 -0.0274913 0
M  V30 2787 C 265.013 -1.41984 -0.792424 0
M  V30 2788 O 266.197 -1.71415 -0.784169 0
M  V30 2789 C 263.324 -3.22135 -1.04628 0
M  V30 2790 C 262.37 -4.24848 -0.375037 0
M  V30 2791 S 263.203 -5.28231 0.879321 0
M  V30 2792 C 264.359 -6.25748 -0.137983 0
M  V30 2793 H 264.592 -2.88782 0.706553 0
M  V30 2794 H 262.125 -1.46709 0.481222 0
M  V30 2795 H 264.083 -3.76797 -1.62894 0
M  V30 2796 H 262.744 -2.6064 -1.75287 0
M  V30 2797 H 261.937 -4.90837 -1.14433 0
M  V30 2798 H 261.539 -3.73758 0.134434 0
M  V30 2799 H 263.831 -6.70188 -0.992659 0
M  V30 2800 H 264.774 -7.06417 0.487867 0
M  V30 2801 H 265.182 -5.62363 -0.490762 0
M  V30 2802 N 264.58 -0.43555 -1.51462 0
M  V30 2803 C 265.51 0.367376 -2.30592 0
M  V30 2804 C 266.491 1.02263 -1.35928 0
M  V30 2805 O 267.676 1.02661 -1.64847 0
M  V30 2806 C 264.806 1.46983 -3.14664 0
M  V30 2807 C 263.76 0.938161 -4.17591 0
M  V30 2808 C 263.086 2.13622 -4.90173 0
M  V30 2809 C 264.386 -0.0261621 -5.22293 0
M  V30 2810 H 266.08 -0.292969 -2.97963 0
M  V30 2811 H 263.626 -0.14234 -1.43295 0
M  V30 2812 H 265.579 2.03873 -3.688 0
M  V30 2813 H 264.303 2.15843 -2.4511 0
M  V30 2814 H 262.962 0.391481 -3.64504 0
M  V30 2815 H 262.61 2.81098 -4.17124 0
M  V30 2816 H 262.31 1.78688 -5.59772 0
M  V30 2817 H 263.834 2.7107 -5.47132 0
M  V30 2818 H 265.248 0.452384 -5.71512 0
M  V30 2819 H 263.645 -0.287992 -5.99409 0
M  V30 2820 H 264.715 -0.963391 -4.75233 0
M  V30 2821 N 266.058 1.56714 -0.166846 0
M  V30 2822 C 267.474 1.58473 0.189372 0
M  V30 2823 C 267.674 1.18201 1.63189 0
M  V30 2824 O 266.73 0.891528 2.36237 0
M  V30 2825 C 268.043 3.00573 -0.0873872 0
M  V30 2826 C 269.591 3.1299 -0.0252443 0
M  V30 2827 C 270.066 4.57174 -0.274934 0
M  V30 2828 N 271.557 4.62665 -0.222553 0
M  V30 2829 C 272.292 5.72072 -0.389985 0
M  V30 2830 N 271.788 6.90054 -0.616229 0
M  V30 2831 N 273.581 5.61153 -0.326202 0
M  V30 2832 H 265.732 1.8118 -1.10849 0
M  V30 2833 H 267.995 0.839525 -0.440342 0
M  V30 2834 H 267.701 3.34497 -1.0865 0
M  V30 2835 H 267.575 3.72019 0.623037 0
M  V30 2836 H 269.962 2.78895 0.96444 0
M  V30 2837 H 270.043 2.43989 -0.768309 0
M  V30 2838 H 269.687 4.91976 -1.26181 0
M  V30 2839 H 269.617 5.24328 0.48869 0
M  V30 2840 H 272.108 3.77863 -0.0531512 0
M  V30 2841 H 272.421 7.69311 -0.733559 0
M  V30 2842 H 270.766 6.91927 -0.652791 0
M  V30 2843 H 273.957 4.67859 -0.150072 0
M  V30 2844 H 274.13 6.46364 -0.460116 0
M  V30 2845 N 267.536 -0.106894 1.57237 0
M  V30 2846 C 268.784 -0.810921 1.85117 0
M  V30 2847 C 269.105 -1.7984 0.753827 0
M  V30 2848 O 268.375 -1.94649 -0.221056 0
M  V30 2849 H 266.955 -0.302466 0.683025 0
M  V30 2850 H 269.617 -0.0913324 1.94686 0
M  V30 2851 H 268.713 -1.34875 2.81452 0
M  V30 2852 N 269.014 -1.53014 -0.377408 0
M  V30 2853 C 270.263 -1.67845 -1.11853 0
M  V30 2854 C 270.576 -0.430625 -1.90801 0
M  V30 2855 O 271.782 -0.459261 -2.67587 0
M  V30 2856 C 270.238 -2.96668 -2.03756 0
M  V30 2857 C 269.846 -4.28671 -1.30175 0
M  V30 2858 C 271.59 -3.20865 -2.77932 0
M  V30 2859 C 269.497 -5.48591 -2.20911 0
M  V30 2860 H 268.427 -0.625343 -0.421263 0
M  V30 2861 H 271.078 -1.79514 -0.380409 0
M  V30 2862 H 269.46 -2.78773 -2.8125 0
M  V30 2863 H 270.634 -4.57157 -0.578259 0
M  V30 2864 H 268.949 -4.10825 -0.679108 0
M  V30 2865 H 271.546 -4.07642 -3.46024 0
M  V30 2866 H 271.889 -2.36424 -3.4265 0
M  V30 2867 H 272.422 -3.39379 -2.07525 0
M  V30 2868 H 269.161 -6.35474 -1.6079 0
M  V30 2869 H 268.681 -5.244 -2.91144 0
M  V30 2870 H 270.36 -5.8292 -2.80736 0
M  V30 2871 N 270.492 0.636531 -1.44174 0
M  V30 2872 C 271.74 1.39343 -1.46383 0
M  V30 2873 C 272.061 1.94766 -0.0955715 0
M  V30 2874 O 271.331 1.75452 0.871395 0
M  V30 2875 H 269.911 0.517199 -0.538994 0
M  V30 2876 H 272.573 0.74957 -1.7991 0
M  V30 2877 H 271.669 2.22746 -2.18611 0
M  V30 2878 N 271.97 1.30982 0.876444 0
M  V30 2879 C 272.88 1.2003 2.01569 0
M  V30 2880 C 273.896 0.11838 1.73597 0
M  V30 2881 O 275.072 0.33495 1.98595 0
M  V30 2882 C 272.137 0.901637 3.34771 0
M  V30 2883 C 271.198 2.06979 3.76109 0
M  V30 2884 C 270.431 1.78529 5.02954 0
M  V30 2885 O 270.654 0.717296 5.65872 0
M  V30 2886 O 269.588 2.64019 5.40905 0
M  V30 2887 H 273.414 2.15753 2.13739 0
M  V30 2888 H 270.999 1.10658 1.00375 0
M  V30 2889 H 272.881 0.750645 4.1466 0
M  V30 2890 H 271.556 -0.0256141 3.2369 0
M  V30 2891 H 270.463 2.27616 2.96887 0
M  V30 2892 H 271.796 2.97907 3.91807 0
M  V30 2893 N 273.449 -1.08991 1.13837 0
M  V30 2894 C 274.677 -1.85011 0.926202 0
M  V30 2895 C 275.092 -1.8135 -0.525127 0
M  V30 2896 O 274.449 -1.21287 -1.36366 0
M  V30 2897 C 274.5 -3.32802 1.41155 0
M  V30 2898 O 274.221 -3.36444 2.80601 0
M  V30 2899 C 275.722 -4.25649 1.23847 0
M  V30 2900 H 272.942 -0.584249 0.32999 0
M  V30 2901 H 275.486 -1.37688 1.51202 0
M  V30 2902 H 273.641 -3.77536 0.868631 0
M  V30 2903 H 274.055 -4.28657 3.02248 0
M  V30 2904 H 275.529 -5.27485 1.62675 0
M  V30 2905 H 276.006 -4.38828 0.18065 0
M  V30 2906 H 276.612 -3.86735 1.76964 0
M  V30 2907 N 274.927 -0.932562 -1.27047 0
M  V30 2908 C 276.338 -0.619451 -1.76124 0
M  V30 2909 C 276.689 0.865397 -1.76083 0
M  V30 2910 O 275.814 1.67722 -1.36742 0
M  V30 2911 C 276.409 -1.11771 -3.19832 0
M  V30 2912 C 274.968 -0.855174 -3.66557 0
M  V30 2913 C 274.115 -1.27362 -2.46321 0
M  V30 2914 H 277.066 -1.11181 -1.13245 0
M  V30 2915 H 277.087 -0.46759 -3.77616 0
M  V30 2916 H 276.599 -2.19842 -3.1983 0
M  V30 2917 H 274.7 0.211524 -3.71999 0
M  V30 2918 H 274.813 -1.47613 -4.55793 0
M  V30 2919 H 273.177 -0.692119 -2.45116 0
M  V30 2920 H 273.96 -2.36307 -2.49025 0
M  V30 2921 N 276.405 1.4127 -0.698611 0
M  V30 2922 C 277.654 2.00408 -0.227949 0
M  V30 2923 C 277.967 1.55981 1.18023 0
M  V30 2924 O 279.173 2.07699 1.74852 0
M  V30 2925 C 277.629 3.58129 -0.356636 0
M  V30 2926 C 277.237 4.11536 -1.77037 0
M  V30 2927 C 278.981 4.24466 0.0540969 0
M  V30 2928 C 276.888 5.61701 -1.85055 0
M  V30 2929 H 275.818 0.749586 -0.0814657 0
M  V30 2930 H 278.469 1.61713 -0.867249 0
M  V30 2931 H 276.851 3.94442 0.350965 0
M  V30 2932 H 278.025 3.86636 -2.50698 0
M  V30 2933 H 276.34 3.57736 -2.13105 0
M  V30 2934 H 278.937 5.34698 0.0146723 0
M  V30 2935 H 279.28 4.01687 1.09332 0
M  V30 2936 H 279.813 3.93198 -0.603337 0
M  V30 2937 H 276.552 5.89312 -2.8704 0
M  V30 2938 H 276.072 5.88519 -1.15783 0
M  V30 2939 H 277.751 6.26524 -1.61484 0
M  V30 2940 N 277.883 0.443576 1.51229 0
M  V30 2941 C 279.129 -0.120975 2.02439 0
M  V30 2942 C 279.462 -1.41815 1.32674 0
M  V30 2943 O 278.737 -1.89373 0.443622 0
M  V30 2944 C 279.02 -0.333291 3.58554 0
M  V30 2945 C 278.873 0.982968 4.38928 0
M  V30 2946 C 280.192 -1.10028 4.26124 0
M  V30 2947 H 277.311 -0.0424923 0.735774 0
M  V30 2948 H 279.953 0.583794 1.80809 0
M  V30 2949 H 278.103 -0.933614 3.77115 0
M  V30 2950 H 279.775 1.61775 4.32003 0
M  V30 2951 H 278.018 1.58611 4.03763 0
M  V30 2952 H 278.689 0.788379 5.46341 0
M  V30 2953 H 281.165 -0.591711 4.11871 0
M  V30 2954 H 280.041 -1.21761 5.35225 0
M  V30 2955 H 280.302 -2.12996 3.87408 0
M  V30 2956 N 279.361 -1.56624 0.175154 0
M  V30 2957 C 280.772 -1.83561 -0.340916 0
M  V30 2958 C 281.123 -1.09511 -1.62794 0
M  V30 2959 O 280.248 -0.349389 -2.13561 0
M  V30 2960 C 280.843 -3.32979 -0.625313 0
M  V30 2961 C 279.402 -3.60399 -1.08581 0
M  V30 2962 C 278.549 -2.77024 -0.123722 0
M  V30 2963 H 281.5 -1.53593 0.399344 0
M  V30 2964 H 281.521 -3.50666 -1.47694 0
M  V30 2965 H 281.033 -3.86847 0.311575 0
M  V30 2966 H 279.134 -3.11945 -2.03767 0
M  V30 2967 H 279.247 -4.68711 -0.992317 0
M  V30 2968 H 277.611 -2.46993 -0.621821 0
M  V30 2969 H 278.394 -3.33674 0.807256 0
M  V30 2970 N 280.839 0.0985539 -1.57292 0
M  V30 2971 C 281.769 1.12064 -2.04851 0
M  V30 2972 C 282.75 1.41981 -0.936767 0
M  V30 2973 O 283.935 1.52071 -1.20781 0
M  V30 2974 C 281.065 2.44144 -2.47004 0
M  V30 2975 C 280.019 2.28643 -3.6181 0
M  V30 2976 C 279.345 3.65869 -3.89929 0
M  V30 2977 C 280.645 1.72986 -4.92822 0
M  V30 2978 H 282.339 0.724979 -2.9049 0
M  V30 2979 H 279.885 0.34729 -1.39749 0
M  V30 2980 H 281.838 3.15914 -2.78884 0
M  V30 2981 H 280.562 2.85639 -1.5836 0
M  V30 2982 H 279.221 1.59318 -3.30172 0
M  V30 2983 H 278.869 4.04885 -2.98458 0
M  V30 2984 H 278.569 3.56344 -4.67218 0
M  V30 2985 H 280.093 4.39112 -4.2428 0
M  V30 2986 H 281.507 2.34593 -5.23105 0
M  V30 2987 H 279.904 1.74229 -5.74251 0
M  V30 2988 H 280.974 0.689007 -4.7998 0
M  V30 2989 N 282.317 1.53212 0.369288 0
M  V30 2990 C 283.565 1.68881 1.11012 0
M  V30 2991 C 283.886 0.441285 1.89941 0
M  V30 2992 O 283.156 -0.544623 1.88177 0
M  V30 2993 H 281.736 0.622569 0.412816 0
M  V30 2994 H 284.398 1.90391 0.416802 0
M  V30 2995 H 283.494 2.54822 1.80201 0
M  V30 2996 N 283.795 -0.628877 1.44509 0
M  V30 2997 C 285.044 -1.38437 1.4669 0
M  V30 2998 C 285.357 -1.95322 0.104272 0
M  V30 2999 O 286.563 -2.715 0.00362163 0
M  V30 3000 C 285.019 -2.50659 2.5826 0
M  V30 3001 C 284.627 -2.00277 4.0074 0
M  V30 3002 C 286.371 -3.27844 2.69664 0
M  V30 3003 C 284.278 -3.09854 5.0373 0
M  V30 3004 H 283.208 -0.520245 0.545766 0
M  V30 3005 H 285.859 -0.676313 1.70582 0
M  V30 3006 H 284.241 -3.2405 2.27612 0
M  V30 3007 H 285.415 -1.33736 4.40966 0
M  V30 3008 H 283.73 -1.35901 3.93599 0
M  V30 3009 H 286.327 -4.09534 3.43781 0
M  V30 3010 H 286.67 -3.77471 1.75559 0
M  V30 3011 H 287.203 -2.61543 2.99733 0
M  V30 3012 H 283.942 -2.65168 5.99472 0
M  V30 3013 H 283.462 -3.7503 4.68095 0
M  V30 3014 H 285.141 -3.74592 5.27532 0
M  V30 3015 N 285.273 -1.31445 -0.869486 0
M  V30 3016 C 286.498 -1.24256 -1.66058 0
M  V30 3017 C 286.923 0.188928 -1.87149 0
M  V30 3018 O 286.281 1.13522 -1.4136 0
M  V30 3019 C 286.329 -1.9924 -3.00559 0
M  V30 3020 O 285.433 -1.33007 -3.90362 0
M  V30 3021 H 284.774 -0.428973 -0.506831 0
M  V30 3022 H 287.304 -1.73521 -1.08404 0
M  V30 3023 H 287.314 -2.08854 -3.50491 0
M  V30 3024 H 285.989 -3.03342 -2.84528 0
M  V30 3025 H 284.566 -1.31848 -3.48813 0
M  V30 3026 N 286.751 1.08385 -1.14413 0
M  V30 3027 C 287.981 1.8425 -0.934644 0
M  V30 3028 C 288.389 1.81907 0.520234 0
M  V30 3029 O 287.732 1.22126 1.37226 0
M  V30 3030 C 287.794 3.32853 -1.35828 0
M  V30 3031 C 287.458 3.5893 -2.82875 0
M  V30 3032 C 288.455 3.53756 -3.80989 0
M  V30 3033 C 286.14 3.86934 -3.20293 0
M  V30 3034 C 288.134 3.76216 -5.14529 0
M  V30 3035 C 285.821 4.09047 -4.54008 0
M  V30 3036 C 286.819 4.03682 -5.50936 0
M  V30 3037 O 286.507 4.25214 -6.82238 0
M  V30 3038 H 286.239 0.588502 -0.332628 0
M  V30 3039 H 288.793 1.37792 -1.52324 0
M  V30 3040 H 287.023 3.8007 -0.713019 0
M  V30 3041 H 288.712 3.90154 -1.11957 0
M  V30 3042 H 289.478 3.32135 -3.53428 0
M  V30 3043 H 285.357 3.9023 -2.45442 0
M  V30 3044 H 288.901 3.71943 -5.90173 0
M  V30 3045 H 284.798 4.30151 -4.8129 0
M  V30 3046 H 285.566 4.42619 -6.88499 0
M  V30 3047 N 288.23 0.939286 1.26551 0
M  V30 3048 C 289.479 0.581601 1.93133 0
M  V30 3049 C 289.792 -0.883224 1.74524 0
M  V30 3050 O 290.998 -1.3502 2.35546 0
M  V30 3051 C 289.454 0.989425 3.46032 0
M  V30 3052 C 289.062 2.47573 3.73379 0
M  V30 3053 C 290.806 0.703544 4.18629 0
M  V30 3054 C 288.713 2.82235 5.19709 0
M  V30 3055 H 287.643 0.213803 0.723052 0
M  V30 3056 H 290.294 1.14167 1.4366 0
M  V30 3057 H 288.676 0.357902 3.94379 0
M  V30 3058 H 289.85 3.15614 3.35744 0
M  V30 3059 H 288.165 2.73471 3.1401 0
M  V30 3060 H 290.762 0.938869 5.26393 0
M  V30 3061 H 291.105 -0.359639 4.14744 0
M  V30 3062 H 291.638 1.2947 3.76141 0
M  V30 3063 H 288.377 3.87509 5.28694 0
M  V30 3064 H 287.897 2.18854 5.58447 0
M  V30 3065 H 289.576 2.70599 5.87695 0
M  V30 3066 N 289.708 -1.40897 0.706093 0
M  V30 3067 C 290.985 -1.94868 0.169099 0
M  V30 3068 C 291.365 -1.64485 -1.32318 0
M  V30 3069 O 290.713 -0.95744 -2.07474 0
M  V30 3070 C 290.923 -3.45798 0.471654 0
M  V30 3071 C 292.271 -4.22663 0.405127 0
M  V30 3072 O 293.295 -3.53865 0.407168 0
M  V30 3073 O 292.154 -5.45216 0.374383 0
M  V30 3074 H 289.248 -0.82673 0.0211352 0
M  V30 3075 H 291.794 -1.50558 0.782976 0
M  V30 3076 H 290.566 -3.61235 1.50416 0
M  V30 3077 H 290.189 -3.97225 -0.172666 0
M  V30 3078 N 291.186 -0.45159 -1.50991 0
M  V30 3079 C 292.463 0.170707 -1.94854 0
M  V30 3080 C 292.843 1.58788 -1.39103 0
M  V30 3081 O 292.191 2.20913 -0.583921 0
M  V30 3082 C 292.401 0.133929 -3.48743 0
M  V30 3083 C 293.749 0.33248 -4.23296 0
M  V30 3084 O 294.773 0.211403 -3.55572 0
M  V30 3085 O 293.632 0.57486 -5.43468 0
M  V30 3086 H 290.726 0.122264 -0.817912 0
M  V30 3087 H 293.272 -0.510594 -1.61836 0
M  V30 3088 H 292.044 -0.856283 -3.81816 0
M  V30 3089 H 291.667 0.857529 -3.88242 0
M  V30 3090 N 292.664 1.56529 -0.183458 0
M  V30 3091 C 293.911 1.97244 0.458357 0
M  V30 3092 C 294.239 1.06992 1.62428 0
M  V30 3093 O 293.494 0.106542 1.9541 0
M  V30 3094 C 293.793 3.43939 0.971637 0
M  V30 3095 C 293.459 4.5083 -0.0796784 0
M  V30 3096 C 292.121 4.79786 -0.368584 0
M  V30 3097 C 294.473 5.15138 -0.792638 0
M  V30 3098 C 291.801 5.70345 -1.37563 0
M  V30 3099 C 294.153 6.06784 -1.78875 0
M  V30 3100 C 292.817 6.34102 -2.08497 0
M  V30 3101 H 292.087 0.721768 0.167725 0
M  V30 3102 H 294.734 1.89472 -0.277976 0
M  V30 3103 H 293.039 3.48724 1.78602 0
M  V30 3104 H 294.736 3.72791 1.47744 0
M  V30 3105 H 291.326 4.28317 0.155668 0
M  V30 3106 H 295.51 4.92868 -0.582659 0
M  V30 3107 H 290.766 5.89789 -1.61118 0
M  V30 3108 H 294.94 6.55677 -2.3465 0
M  V30 3109 H 292.567 7.04074 -2.86678 0
M  V30 3110 N 294.142 -0.090211 1.57342 0
M  V30 3111 C 295.105 -1.09335 2.01441 0
M  V30 3112 C 296.105 -1.32666 0.908641 0
M  V30 3113 O 297.295 -1.28697 1.174 0
M  V30 3114 C 294.427 -2.44136 2.3793 0
M  V30 3115 H 295.62 -0.713662 2.91285 0
M  V30 3116 H 293.173 -0.335404 1.52659 0
M  V30 3117 H 293.908 -2.86972 1.51055 0
M  V30 3118 H 293.693 -2.28548 3.18603 0
M  V30 3119 H 295.183 -3.16277 2.72688 0
M  V30 3120 N 295.62 -1.53406 -0.361157 0
M  V30 3121 C 296.567 -1.80156 -1.44265 0
M  V30 3122 C 297.537 -0.646183 -1.53015 0
M  V30 3123 O 298.722 -0.888818 -1.68833 0
M  V30 3124 C 295.862 -2.00116 -2.81154 0
M  V30 3125 C 294.975 -3.27833 -2.81335 0
M  V30 3126 C 294.11 -3.37957 -4.09828 0
M  V30 3127 C 293.149 -4.59689 -4.04168 0
M  V30 3128 N 292.286 -4.66942 -5.24318 0
M  V30 3129 H 297.126 -2.72438 -1.20754 0
M  V30 3130 H 294.663 -1.34954 -0.585296 0
M  V30 3131 H 296.621 -2.09677 -3.60682 0
M  V30 3132 H 295.251 -1.11167 -3.03054 0
M  V30 3133 H 294.303 -3.27204 -1.94014 0
M  V30 3134 H 295.615 -4.17442 -2.73027 0
M  V30 3135 H 294.769 -3.46853 -4.97773 0
M  V30 3136 H 293.508 -2.46372 -4.20894 0
M  V30 3137 H 292.513 -4.50889 -3.14609 0
M  V30 3138 H 293.738 -5.5262 -3.947 0
M  V30 3139 H 291.684 -3.7826 -5.35962 0
M  V30 3140 H 291.601 -5.50462 -5.18197 0
M  V30 3141 H 292.869 -4.80127 -6.14084 0
M  V30 3142 N 297.098 0.621204 -1.44841 0
M  V30 3143 C 298.008 1.7612 -1.5498 0
M  V30 3144 C 299.024 1.68477 -0.434927 0
M  V30 3145 O 300.2 1.89076 -0.693693 0
M  V30 3146 C 297.265 3.1254 -1.50065 0
M  V30 3147 C 296.326 3.31741 -2.72482 0
M  V30 3148 C 295.559 4.61653 -2.67792 0
M  V30 3149 O 295.782 5.431 -1.74352 0
M  V30 3150 O 294.716 4.83271 -3.58794 0
M  V30 3151 H 298.542 1.70518 -2.51311 0
M  V30 3152 H 296.127 0.783643 -1.27198 0
M  V30 3153 H 298.009 3.93844 -1.49882 0
M  V30 3154 H 296.684 3.18663 -0.568806 0
M  V30 3155 H 295.591 2.50077 -2.7823 0
M  V30 3156 H 296.924 3.30486 -3.64746 0
M  V30 3157 N 298.576 1.31904 0.862503 0
M  V30 3158 C 299.824 1.21776 1.61292 0
M  V30 3159 C 300.145 -0.222413 1.93727 0
M  V30 3160 O 299.415 -1.1451 1.58947 0
M  V30 3161 H 297.995 0.447717 0.597962 0
M  V30 3162 H 300.657 1.65326 1.03215 0
M  V30 3163 H 299.753 1.7948 2.5533 0
M  V30 3164 N 300.054 -1.07777 1.14986 0
M  V30 3165 C 301.004 -2.13082 0.811181 0
M  V30 3166 C 301.988 -1.59619 -0.202597 0
M  V30 3167 O 303.18 -1.77 -0.00398275 0
M  V30 3168 C 300.309 -3.42009 0.297439 0
M  V30 3169 C 299.395 -4.02337 1.34112 0
M  V30 3170 N 299.786 -4.36982 2.54716 0
M  V30 3171 C 298.084 -4.29752 1.19285 0
M  V30 3172 C 298.785 -4.84729 3.21578 0
M  V30 3173 N 297.761 -4.83233 2.48972 0
M  V30 3174 H 301.563 -2.37696 1.72853 0
M  V30 3175 H 299.077 -1.25173 1.03468 0
M  V30 3176 H 301.074 -4.16884 0.0364777 0
M  V30 3177 H 299.734 -3.18841 -0.614022 0
M  V30 3178 H 300.745 -4.27807 2.91894 0
M  V30 3179 H 297.422 -4.16106 0.340926 0
M  V30 3180 H 298.812 -5.20863 4.24442 0
M  V30 3181 N 301.532 -0.945985 -1.26051 0
M  V30 3182 C 302.757 -0.612525 -1.98149 0
M  V30 3183 C 303.182 0.806623 -1.69927 0
M  V30 3184 O 302.54 1.54411 -0.950108 0
M  V30 3185 C 302.588 -0.866981 -3.50023 0
M  V30 3186 O 301.692 0.0585333 -4.12358 0
M  V30 3187 H 301.033 -0.23379 -0.621481 0
M  V30 3188 H 303.563 -1.27023 -1.60395 0
M  V30 3189 H 303.573 -0.789792 -4.00283 0
M  V30 3190 H 302.248 -1.90135 -3.69894 0
M  V30 3191 H 300.825 -0.0701241 -3.72834 0
M  V30 3192 N 303.011 1.40521 -0.713556 0
M  V30 3193 C 304.236 2.05759 -0.26035 0
M  V30 3194 C 304.661 1.53403 1.08854 0
M  V30 3195 O 304.019 0.668535 1.68524 0
M  V30 3196 C 304.067 3.59745 -0.248122 0
M  V30 3197 O 303.171 4.05123 0.77131 0
M  V30 3198 H 302.512 0.652564 -0.122703 0
M  V30 3199 H 305.042 1.79958 -0.973467 0
M  V30 3200 H 305.052 4.07911 -0.0851129 0
M  V30 3201 H 303.727 3.97218 -1.2325 0
M  V30 3202 H 302.304 3.68422 0.57619 0
M  V30 3203 N 304.489 0.459591 1.5075 0
M  V30 3204 C 305.419 -0.330644 2.31147 0
M  V30 3205 C 306.4 -1.00087 1.37538 0
M  V30 3206 O 307.585 -1.00025 1.66459 0
M  V30 3207 C 304.715 -1.41958 3.16962 0
M  V30 3208 C 303.669 -0.871608 4.19031 0
M  V30 3209 C 302.995 -2.05797 4.9351 0
M  V30 3210 C 304.295 0.109251 5.22186 0
M  V30 3211 H 305.989 0.340336 2.97459 0
M  V30 3212 H 303.535 0.165119 1.4305 0
M  V30 3213 H 305.488 -1.9798 3.71997 0
M  V30 3214 H 304.212 -2.11917 2.48513 0
M  V30 3215 H 302.871 -0.333442 3.6508 0
M  V30 3216 H 302.519 -2.74427 4.21544 0
M  V30 3217 H 302.219 -1.6976 5.62544 0
M  V30 3218 H 303.743 -2.62331 5.51375 0
M  V30 3219 H 305.157 -0.361405 5.7216 0
M  V30 3220 H 303.554 0.383316 5.98875 0
M  V30 3221 H 304.624 1.03887 4.73641 0
M  V30 3222 N 305.967 -1.56429 0.191757 0
M  V30 3223 C 307.197 -2.01574 -0.452928 0
M  V30 3224 C 307.605 -1.07107 -1.55964 0
M  V30 3225 O 306.948 -0.067534 -1.83576 0
M  V30 3226 C 307.01 -3.43121 -1.07278 0
M  V30 3227 C 306.674 -4.56879 -0.105214 0
M  V30 3228 C 307.671 -5.15379 0.684149 0
M  V30 3229 C 305.356 -5.023 0.00489824 0
M  V30 3230 C 307.35 -6.17746 1.57062 0
M  V30 3231 C 305.037 -6.04511 0.894935 0
M  V30 3232 C 306.035 -6.62108 1.67637 0
M  V30 3233 O 305.723 -7.62335 2.55149 0
M  V30 3234 H 305.455 -0.665554 -0.118379 0
M  V30 3235 H 308.009 -2.03245 0.296737 0
M  V30 3236 H 306.239 -3.38425 -1.87097 0
M  V30 3237 H 307.928 -3.72093 -1.62177 0
M  V30 3238 H 308.694 -4.81157 0.609365 0
M  V30 3239 H 304.573 -4.57168 -0.593156 0
M  V30 3240 H 308.117 -6.6263 2.181 0
M  V30 3241 H 304.014 -6.38157 0.970847 0
M  V30 3242 H 304.782 -7.79741 2.48892 0
M  V30 3243 N 307.445 0.0818655 -1.57387 0
M  V30 3244 C 308.375 1.09885 -2.06028 0
M  V30 3245 C 309.356 1.4098 -0.951774 0
M  V30 3246 O 310.541 1.50781 -1.22387 0
M  V30 3247 C 307.671 2.4151 -2.4958 0
M  V30 3248 C 306.625 2.24792 -3.64215 0
M  V30 3249 C 305.951 3.61712 -3.93787 0
M  V30 3250 C 307.251 1.67749 -4.94629 0
M  V30 3251 H 308.945 0.694128 -2.91243 0
M  V30 3252 H 306.491 0.332448 -1.4011 0
M  V30 3253 H 308.444 3.12939 -2.82219 0
M  V30 3254 H 307.168 2.83943 -1.61381 0
M  V30 3255 H 305.827 1.55807 -3.31843 0
M  V30 3256 H 305.475 4.01697 -3.02735 0
M  V30 3257 H 305.175 3.51368 -4.70971 0
M  V30 3258 H 306.699 4.34587 -4.28913 0
M  V30 3259 H 308.113 2.29032 -5.25564 0
M  V30 3260 H 306.51 1.68128 -5.76067 0
M  V30 3261 H 307.58 0.638059 -4.80684 0
M  V30 3262 N 308.923 1.53595 0.353017 0
M  V30 3263 C 310.171 1.70049 1.09215 0
M  V30 3264 C 310.492 0.461406 1.89463 0
M  V30 3265 O 309.762 -0.524633 1.88744 0
M  V30 3266 H 308.342 0.626912 0.40619 0
M  V30 3267 H 311.004 1.90822 0.396585 0
M  V30 3268 H 310.1 2.56718 1.77488 0
M  V30 3269 N 310.401 -0.613514 1.45168 0
M  V30 3270 C 311.626 -1.40437 1.52618 0
M  V30 3271 C 312.051 -1.87438 0.157707 0
M  V30 3272 O 311.409 -1.59791 -0.856537 0
M  V30 3273 C 311.457 -2.58894 2.51011 0
M  V30 3274 O 310.561 -3.59326 2.02382 0
M  V30 3275 H 309.902 -0.419506 0.514695 0
M  V30 3276 H 312.432 -0.747215 1.90467 0
M  V30 3277 H 312.442 -3.06214 2.69624 0
M  V30 3278 H 311.117 -2.24032 3.50403 0
M  V30 3279 H 309.694 -3.18695 1.93618 0
M  V30 3280 N 311.879 -1.3236 -0.855495 0
M  V30 3281 C 312.809 -1.23833 -1.97958 0
M  V30 3282 C 313.79 -0.122361 -1.69659 0
M  V30 3283 O 314.975 -0.30939 -1.9172 0
M  V30 3284 C 312.105 -0.959772 -3.33775 0
M  V30 3285 C 311.059 -2.03689 -3.76424 0
M  V30 3286 C 310.385 -1.61075 -5.09862 0
M  V30 3287 C 311.685 -3.4518 -3.9198 0
M  V30 3288 H 313.379 -2.1788 -2.0535 0
M  V30 3289 H 310.925 -1.04891 -0.986605 0
M  V30 3290 H 312.878 -0.886678 -4.11966 0
M  V30 3291 H 311.602 0.0163404 -3.26596 0
M  V30 3292 H 310.261 -2.10012 -3.00484 0
M  V30 3293 H 309.909 -0.622107 -4.99138 0
M  V30 3294 H 309.609 -2.33143 -5.39368 0
M  V30 3295 H 311.133 -1.55201 -5.90546 0
M  V30 3296 H 312.547 -3.4145 -4.60526 0
M  V30 3297 H 310.944 -4.1559 -4.32903 0
M  V30 3298 H 312.014 -3.84903 -2.94919 0
M  V30 3299 N 313.357 1.07166 -1.15556 0
M  V30 3300 C 314.305 2.16517 -0.8499 0
M  V30 3301 C 315.299 1.68468 0.177454 0
M  V30 3302 O 316.505 1.79971 0.0323026 0
M  V30 3303 H 312.88 0.706652 -0.25719 0
M  V30 3304 H 314.851 2.39514 -1.77976 0
M  V30 3305 C 313.6 3.45855 -0.357682 0
M  V30 3306 H 312.923 3.83214 -1.13961 0
M  V30 3307 H 314.363 4.23607 -0.182489 0
M  V30 3308 C 312.822 3.24062 0.921152 0
M  V30 3309 O 313.352 3.48813 1.9923 0
M  V30 3310 N 311.558 2.77539 0.86141 0
M  V30 3311 H 311.105 2.57598 -0.0104408 0
M  V30 3312 H 311.063 2.63337 1.71758 0
M  V30 3313 N 314.835 0.952656 1.25548 0
M  V30 3314 C 315.798 0.475794 2.24207 0
M  V30 3315 C 316.798 -0.419428 1.55234 0
M  V30 3316 O 317.988 -0.216994 1.72843 0
M  V30 3317 C 315.12 -0.312814 3.39462 0
M  V30 3318 H 316.313 1.34779 2.67908 0
M  V30 3319 H 313.866 0.735739 1.37901 0
M  V30 3320 H 314.601 -1.20257 3.01179 0
M  V30 3321 H 314.386 0.329404 3.90714 0
M  V30 3322 H 315.876 -0.635986 4.12729 0
M  V30 3323 N 316.313 -1.40141 0.720998 0
M  V30 3324 C 317.562 -2.0002 0.259804 0
M  V30 3325 C 317.875 -1.57839 -1.15526 0
M  V30 3326 O 319.081 -2.10455 -1.71525 0
M  V30 3327 C 317.537 -3.57516 0.413566 0
M  V30 3328 C 317.145 -4.08667 1.83562 0
M  V30 3329 C 318.889 -4.24498 0.0134387 0
M  V30 3330 C 316.796 -5.58686 1.93968 0
M  V30 3331 H 315.726 -0.748195 0.0933806 0
M  V30 3332 H 318.377 -1.60313 0.892866 0
M  V30 3333 H 316.759 -3.9495 -0.288169 0
M  V30 3334 H 317.933 -3.82598 2.56817 0
M  V30 3335 H 316.248 -3.543 2.1877 0
M  V30 3336 H 318.845 -5.34654 0.0703954 0
M  V30 3337 H 319.188 -4.03375 -1.02927 0
M  V30 3338 H 319.721 -3.92188 0.665815 0
M  V30 3339 H 316.46 -5.8467 2.96379 0
M  V30 3340 H 315.98 -5.86602 1.25131 0
M  V30 3341 H 317.659 -6.23875 1.71431 0
M  V30 3342 N 317.792 -0.46758 -1.50504 0
M  V30 3343 C 319.04 0.0884469 -2.01906 0
M  V30 3344 C 319.361 1.40532 -1.35188 0
M  V30 3345 O 318.631 1.89515 -0.496079 0
M  V30 3346 H 317.211 0.0356765 -0.746148 0
M  V30 3347 H 319.873 -0.6172 -1.84869 0
M  V30 3348 H 318.969 0.2425 -3.11156 0
M  V30 3349 N 319.27 1.56325 -0.20005 0
M  V30 3350 C 320.203 2.15234 0.758267 0
M  V30 3351 C 321.181 1.09046 1.20614 0
M  V30 3352 O 322.365 1.37186 1.29276 0
M  V30 3353 C 319.492 2.71524 2.02466 0
M  V30 3354 C 318.538 3.90345 1.71852 0
M  V30 3355 S 319.371 5.28513 0.862249 0
M  V30 3356 C 320.527 5.88227 2.13868 0
M  V30 3357 H 320.76 2.96183 0.2575 0
M  V30 3358 H 318.293 1.54393 0.0150099 0
M  V30 3359 H 320.251 3.04598 2.75191 0
M  V30 3360 H 318.912 1.90607 2.49655 0
M  V30 3361 H 318.105 4.28158 2.65888 0
M  V30 3362 H 317.707 3.58306 1.07205 0
M  V30 3363 H 319.999 6.02891 3.09076 0
M  V30 3364 H 320.942 6.84714 1.80479 0
M  V30 3365 H 321.35 5.16874 2.2694 0
M  V30 3366 N 320.748 -0.0735177 1.57428 0
M  V30 3367 C 321.997 -0.771809 1.86349 0
M  V30 3368 C 322.31 -1.78828 0.792452 0
M  V30 3369 O 323.516 -2.53602 0.96945 0
M  V30 3370 C 321.972 -1.42358 3.30548 0
M  V30 3371 C 321.58 -0.445761 4.45777 0
M  V30 3372 C 323.324 -2.10434 3.6867 0
M  V30 3373 C 321.231 -1.10335 5.81016 0
M  V30 3374 H 320.161 -0.291999 0.695164 0
M  V30 3375 H 322.812 -0.0250749 1.83483 0
M  V30 3376 H 321.194 -2.21852 3.28021 0
M  V30 3377 H 322.368 0.319239 4.59693 0
M  V30 3378 H 320.683 0.130457 4.16196 0
M  V30 3379 H 323.28 -2.60405 4.67004 0
M  V30 3380 H 323.623 -2.90298 2.98383 0
M  V30 3381 H 324.156 -1.37773 3.7318 0
M  V30 3382 H 320.895 -0.345061 6.54591 0
M  V30 3383 H 320.415 -1.83925 5.70904 0
M  V30 3384 H 322.094 -1.62367 6.26295 0
M  V30 3385 N 322.226 -1.5378 -0.344866 0
M  V30 3386 C 323.474 -1.70625 -1.08311 0
M  V30 3387 C 323.795 -0.471447 -1.89215 0
M  V30 3388 O 323.065 0.514616 -1.8902 0
M  V30 3389 H 321.645 -0.629058 -0.402859 0
M  V30 3390 H 324.307 -1.9103 -0.386459 0
M  V30 3391 H 323.403 -2.57656 -1.76124 0
M  V30 3392 N 323.704 0.605807 -1.45491 0
M  V30 3393 C 325.115 1.18777 -1.44045 0
M  V30 3394 C 325.466 1.95471 -0.169001 0
M  V30 3395 O 324.591 2.0374 0.729324 0
M  V30 3396 C 325.186 2.16064 -2.60963 0
M  V30 3397 C 323.745 2.69633 -2.62631 0
M  V30 3398 C 322.892 1.45072 -2.36325 0
M  V30 3399 H 325.843 0.395017 -1.53705 0
M  V30 3400 H 325.864 2.9913 -2.35163 0
M  V30 3401 H 325.376 1.60217 -3.53486 0
M  V30 3402 H 323.477 3.29414 -1.74119 0
M  V30 3403 H 323.59 3.13944 -3.61906 0
M  V30 3404 H 321.954 1.74089 -1.85917 0
M  V30 3405 H 322.737 0.910899 -3.30995 0
M  V30 3406 N 325.182 1.32811 0.848464 0
M  V30 3407 C 326.428 1.23907 1.60546 0
M  V30 3408 C 326.761 -0.197161 1.93197 0
M  V30 3409 O 326.036 -1.13596 1.5788 0
M  V30 3410 C 326.319 2.10489 2.92175 0
M  V30 3411 C 326.172 3.62522 2.66266 0
M  V30 3412 C 327.491 1.97075 3.93509 0
M  V30 3413 H 324.61 0.451459 0.58254 0
M  V30 3414 H 327.252 1.62818 0.979296 0
M  V30 3415 H 325.402 1.77434 3.45614 0
M  V30 3416 H 327.074 4.05821 2.19334 0
M  V30 3417 H 325.317 3.84879 2.00126 0
M  V30 3418 H 325.988 4.18437 3.6002 0
M  V30 3419 H 328.464 2.26045 3.49346 0
M  V30 3420 H 327.34 2.59923 4.83457 0
M  V30 3421 H 327.601 0.940186 4.31987 0
M  V30 3422 N 326.66 -1.06551 1.16123 0
M  V30 3423 C 327.909 -1.78687 0.935622 0
M  V30 3424 C 328.222 -1.88056 -0.538001 0
M  V30 3425 O 329.428 -2.56794 -0.88143 0
M  V30 3426 C 327.884 -3.21143 1.62466 0
M  V30 3427 C 327.492 -3.19949 3.13587 0
M  V30 3428 C 329.236 -3.9783 1.48092 0
M  V30 3429 C 327.143 -4.57108 3.75241 0
M  V30 3430 H 326.073 -0.669712 0.346412 0
M  V30 3431 H 328.724 -1.19534 1.39226 0
M  V30 3432 H 327.106 -3.80539 1.09572 0
M  V30 3433 H 328.28 -2.70151 3.73303 0
M  V30 3434 H 326.595 -2.5676 3.27816 0
M  V30 3435 H 329.192 -4.99217 1.91538 0
M  V30 3436 H 329.535 -4.14078 0.429507 0
M  V30 3437 H 330.068 -3.4495 1.98127 0
M  V30 3438 H 326.807 -4.46065 4.80319 0
M  V30 3439 H 326.327 -5.07111 3.20309 0
M  V30 3440 H 328.006 -5.26069 3.76644 0
M  V30 3441 N 328.138 -0.959301 -1.25041 0
M  V30 3442 C 329.386 -0.615393 -1.92503 0
M  V30 3443 C 329.707 0.850969 -1.75452 0
M  V30 3444 O 328.977 1.60658 -1.12098 0
M  V30 3445 H 327.557 -0.224613 -0.712431 0
M  V30 3446 H 330.219 -1.21855 -1.5211 0
M  V30 3447 H 329.315 -0.848738 -3.00338 0
M  V30 3448 N 329.616 1.39756 -0.72842 0
M  V30 3449 C 330.863 2.00645 -0.273487 0
M  V30 3450 C 331.191 1.57786 1.13727 0
M  V30 3451 O 330.446 0.794886 1.7883 0
M  V30 3452 C 330.745 3.56002 -0.315776 0
M  V30 3453 C 330.411 4.18489 -1.67863 0
M  V30 3454 C 329.073 4.3527 -2.05166 0
M  V30 3455 C 331.425 4.53219 -2.57375 0
M  V30 3456 C 328.753 4.84069 -3.31503 0
M  V30 3457 C 331.105 5.03423 -3.83077 0
M  V30 3458 C 329.769 5.18413 -4.20481 0
M  V30 3459 H 329.039 0.734211 -0.100076 0
M  V30 3460 H 331.686 1.6718 -0.933972 0
M  V30 3461 H 329.991 3.89452 0.428285 0
M  V30 3462 H 331.688 4.00963 0.0542575 0
M  V30 3463 H 328.278 4.05824 -1.37858 0
M  V30 3464 H 332.462 4.39878 -2.29827 0
M  V30 3465 H 327.718 4.93859 -3.60435 0
M  V30 3466 H 331.892 5.2927 -4.52599 0
M  V30 3467 H 329.519 5.55987 -5.18443 0
M  V30 3468 N 331.094 0.475555 1.50254 0
M  V30 3469 C 332.057 -0.305016 2.27161 0
M  V30 3470 C 333.057 -0.916519 1.32123 0
M  V30 3471 O 334.247 -0.785003 1.5551 0
M  V30 3472 C 331.379 -1.43496 3.09227 0
M  V30 3473 H 332.572 0.369511 2.97615 0
M  V30 3474 H 330.125 0.229747 1.54602 0
M  V30 3475 H 330.86 -2.14441 2.43281 0
M  V30 3476 H 330.645 -1.00223 3.79075 0
M  V30 3477 H 332.135 -1.98548 3.67381 0
M  V30 3478 N 332.573 -1.56217 0.208337 0
M  V30 3479 C 333.503 -2.22694 -0.702116 0
M  V30 3480 C 334.484 -1.19432 -1.2112 0
M  V30 3481 O 335.669 -1.47978 -1.25762 0
M  V30 3482 C 332.799 -2.8966 -1.9161 0
M  V30 3483 C 331.753 -3.9928 -1.5414 0
M  V30 3484 C 331.079 -4.53476 -2.83308 0
M  V30 3485 C 332.379 -5.17012 -0.741339 0
M  V30 3486 H 334.073 -2.99034 -0.147898 0
M  V30 3487 H 331.619 -1.43831 -0.0696951 0
M  V30 3488 H 333.572 -3.34852 -2.55836 0
M  V30 3489 H 332.296 -2.10746 -2.49507 0
M  V30 3490 H 330.955 -3.54799 -0.922668 0
M  V30 3491 H 330.603 -3.71308 -3.39322 0
M  V30 3492 H 330.303 -5.27451 -2.58976 0
M  V30 3493 H 331.827 -5.01378 -3.485 0
M  V30 3494 H 333.241 -5.58667 -1.28699 0
M  V30 3495 H 331.638 -5.97137 -0.595627 0
M  V30 3496 H 332.708 -4.8423 0.254851 0
M  V30 3497 N 334.051 0.0651679 -1.57465 0
M  V30 3498 C 335.299 0.761555 -1.87202 0
M  V30 3499 C 335.62 1.77778 -0.801243 0
M  V30 3500 O 334.89 1.95166 0.16937 0
M  V30 3501 H 333.47 0.284251 -0.690804 0
M  V30 3502 H 336.132 0.0396827 -1.9486 0
M  V30 3503 H 335.228 1.27365 -2.84929 0
M  V30 3504 N 335.529 1.53961 0.336706 0
M  V30 3505 C 336.754 1.75797 1.10046 0
M  V30 3506 C 337.179 0.498985 1.81361 0
M  V30 3507 O 336.537 -0.548769 1.72795 0
M  V30 3508 C 336.585 2.94257 2.08436 0
M  V30 3509 O 335.689 2.64883 3.16087 0
M  V30 3510 H 335.03 0.582936 0.317934 0
M  V30 3511 H 337.56 2.00945 0.38501 0
M  V30 3512 H 337.57 3.21237 2.51537 0
M  V30 3513 H 336.245 3.85564 1.55927 0
M  V30 3514 H 334.822 2.48812 2.77753 0
M  V30 3515 N 337.007 -0.598083 1.45811 0
M  V30 3516 C 337.937 -1.71873 1.58057 0
M  V30 3517 C 338.918 -1.64533 0.431615 0
M  V30 3518 O 340.103 -1.82787 0.65595 0
M  V30 3519 C 337.233 -3.10495 1.55597 0
M  V30 3520 C 336.187 -3.32654 2.69305 0
M  V30 3521 C 335.513 -4.71646 2.51902 0
M  V30 3522 C 336.813 -3.21981 4.11248 0
M  V30 3523 H 338.507 -1.61881 2.51863 0
M  V30 3524 H 336.053 -0.777372 1.21214 0
M  V30 3525 H 338.006 -3.88699 1.6276 0
M  V30 3526 H 336.73 -3.2135 0.583255 0
M  V30 3527 H 335.389 -2.56843 2.61586 0
M  V30 3528 H 335.037 -4.79246 1.52748 0
M  V30 3529 H 334.737 -4.87426 3.2816 0
M  V30 3530 H 336.261 -5.52038 2.60933 0
M  V30 3531 H 337.675 -3.90049 4.20161 0
M  V30 3532 H 336.072 -3.49289 4.87972 0
M  V30 3533 H 337.142 -2.1928 4.32486 0
M  V30 3534 N 338.485 -1.33259 -0.841409 0
M  V30 3535 C 339.732 -1.24572 -1.5965 0
M  V30 3536 C 340.06 0.189137 -1.93578 0
M  V30 3537 O 339.315 1.14566 -1.5866 0
M  V30 3538 C 339.614 -2.06381 -2.9179 0
M  V30 3539 C 339.28 -3.556 -2.77235 0
M  V30 3540 C 337.942 -3.96282 -2.72973 0
M  V30 3541 C 340.294 -4.50433 -2.62221 0
M  V30 3542 C 337.622 -5.30017 -2.51592 0
M  V30 3543 C 339.974 -5.84327 -2.42374 0
M  V30 3544 C 338.638 -6.24194 -2.36512 0
M  V30 3545 H 337.908 -0.455842 -0.5842 0
M  V30 3546 H 340.555 -1.6482 -0.975016 0
M  V30 3547 H 338.86 -1.58903 -3.5813 0
M  V30 3548 H 340.557 -1.97019 -3.49263 0
M  V30 3549 H 337.147 -3.23298 -2.81384 0
M  V30 3550 H 341.331 -4.19914 -2.64549 0
M  V30 3551 H 336.587 -5.59947 -2.45499 0
M  V30 3552 H 340.761 -6.57414 -2.29739 0
M  V30 3553 H 338.388 -7.27759 -2.19706 0
M  V30 3554 N 339.963 1.05934 -1.16686 0
M  V30 3555 C 340.926 2.11669 -0.879144 0
M  V30 3556 C 341.926 1.60294 0.127445 0
M  V30 3557 O 343.116 1.7389 -0.103865 0
M  V30 3558 C 340.248 3.39438 -0.315425 0
M  V30 3559 H 341.441 2.38626 -1.81653 0
M  V30 3560 H 338.994 1.22058 -0.976299 0
M  V30 3561 H 339.729 3.18132 0.629468 0
M  V30 3562 H 339.514 3.78034 -1.04079 0
M  V30 3563 H 341.004 4.17391 -0.132189 0
M  V30 3564 N 341.441 0.965919 1.2453 0
M  V30 3565 C 342.388 0.49402 2.25451 0
M  V30 3566 C 343.358 -0.45948 1.59618 0
M  V30 3567 O 344.543 -0.370238 1.87173 0
M  V30 3568 C 341.683 -0.211359 3.44452 0
M  V30 3569 C 340.796 0.7807 4.24887 0
M  V30 3570 C 339.931 0.0516105 5.31175 0
M  V30 3571 C 338.97 1.03385 6.03306 0
M  V30 3572 N 338.107 0.334887 7.01301 0
M  V30 3573 H 342.947 1.35946 2.65184 0
M  V30 3574 H 340.484 0.681515 1.3036 0
M  V30 3575 H 342.442 -0.637 4.12308 0
M  V30 3576 H 341.072 -1.04077 3.05562 0
M  V30 3577 H 340.124 1.32479 3.56586 0
M  V30 3578 H 341.436 1.52978 4.74762 0
M  V30 3579 H 340.59 -0.432114 6.05159 0
M  V30 3580 H 339.329 -0.730179 4.82203 0
M  V30 3581 H 338.334 1.52847 5.28127 0
M  V30 3582 H 339.559 1.81606 6.54367 0
M  V30 3583 H 337.505 -0.427959 6.54603 0
M  V30 3584 H 337.422 1.02287 7.49048 0
M  V30 3585 H 338.69 -0.126928 7.79397 0
M  V30 3586 N 342.919 -1.39368 0.735821 0
M  V30 3587 C 343.852 -2.28155 0.0451175 0
M  V30 3588 C 344.83 -1.44433 -0.746852 0
M  V30 3589 O 346.014 -1.73823 -0.729237 0
M  V30 3590 C 343.141 -3.253 -0.943266 0
M  V30 3591 C 342.187 -4.25826 -0.239685 0
M  V30 3592 S 343.02 -5.25166 1.04693 0
M  V30 3593 C 344.176 -6.2587 0.0611639 0
M  V30 3594 H 344.409 -2.86388 0.79807 0
M  V30 3595 H 341.942 -1.45104 0.527653 0
M  V30 3596 H 343.9 -3.81789 -1.50824 0
M  V30 3597 H 342.561 -2.66085 -1.66906 0
M  V30 3598 H 341.754 -4.94229 -0.987596 0
M  V30 3599 H 341.356 -3.73141 0.253274 0
M  V30 3600 H 343.648 -6.73007 -0.778941 0
M  V30 3601 H 344.591 -7.04508 0.712362 0
M  V30 3602 H 344.999 -5.63639 -0.311602 0
M  V30 3603 N 344.397 -0.483516 -1.5 0
M  V30 3604 C 345.627 0.0643896 -2.065 0
M  V30 3605 C 346.035 1.32949 -1.34615 0
M  V30 3606 O 345.378 1.79003 -0.412756 0
M  V30 3607 C 345.44 0.405983 -3.572 0
M  V30 3608 C 345.104 -0.758875 -4.50655 0
M  V30 3609 C 346.101 -1.64445 -4.93208 0
M  V30 3610 C 343.786 -0.952725 -4.93182 0
M  V30 3611 C 345.78 -2.70818 -5.77006 0
M  V30 3612 C 343.467 -2.01966 -5.76761 0
M  V30 3613 C 344.465 -2.89574 -6.18576 0
M  V30 3614 O 344.153 -3.94429 -7.00486 0
M  V30 3615 H 343.885 -0.00934786 -0.675935 0
M  V30 3616 H 346.439 -0.674959 -1.93993 0
M  V30 3617 H 344.669 1.19869 -3.67652 0
M  V30 3618 H 346.358 0.890433 -3.96013 0
M  V30 3619 H 347.124 -1.50643 -4.61012 0
M  V30 3620 H 343.003 -0.280247 -4.60147 0
M  V30 3621 H 346.547 -3.3923 -6.09565 0
M  V30 3622 H 342.444 -2.1577 -6.0837 0
M  V30 3623 H 343.212 -3.91568 -7.1876 0
M  V30 3624 N 345.875 1.56104 -0.216619 0
M  V30 3625 C 347.121 1.98466 0.417033 0
M  V30 3626 C 347.454 1.10403 1.59765 0
M  V30 3627 O 346.729 0.160632 1.93836 0
M  V30 3628 C 347.012 3.49769 0.85637 0
M  V30 3629 C 346.865 4.48606 -0.327546 0
M  V30 3630 C 348.184 4.05339 1.7143 0
M  V30 3631 H 345.303 0.721551 0.150112 0
M  V30 3632 H 347.945 1.87423 -0.311864 0
M  V30 3633 H 346.095 3.5931 1.47745 0
M  V30 3634 H 347.767 4.5108 -0.965618 0
M  V30 3635 H 346.01 4.22682 -0.975805 0
M  V30 3636 H 346.681 5.51995 0.0227149 0
M  V30 3637 H 349.157 3.98712 1.19031 0
M  V30 3638 H 348.033 5.11533 1.99061 0
M  V30 3639 H 348.294 3.51918 2.67593 0
M  V30 3640 N 347.353 -0.0568162 1.57498 0
M  V30 3641 C 348.63 -0.786954 1.79071 0
M  V30 3642 C 349.01 -1.95028 0.80792 0
M  V30 3643 O 348.358 -2.27968 -0.155858 0
M  V30 3644 C 348.568 -1.24594 3.26002 0
M  V30 3645 C 349.916 -1.67323 3.90241 0
M  V30 3646 O 350.94 -1.34124 3.29984 0
M  V30 3647 O 349.799 -2.28842 4.9628 0
M  V30 3648 H 346.893 -0.378262 0.735423 0
M  V30 3649 H 349.439 -0.035734 1.69662 0
M  V30 3650 H 348.211 -0.41423 3.89101 0
M  V30 3651 H 347.834 -2.05803 3.40192 0
M  V30 3652 N 348.832 -1.54138 -0.328536 0
M  V30 3653 C 350.081 -1.71318 -1.06456 0
M  V30 3654 C 350.394 -0.491109 -1.89334 0
M  V30 3655 O 351.6 -0.54416 -2.65991 0
M  V30 3656 C 350.056 -3.03 -1.94214 0
M  V30 3657 C 349.664 -4.32595 -1.16471 0
M  V30 3658 C 351.408 -3.29544 -2.67583 0
M  V30 3659 C 349.315 -5.55341 -2.03347 0
M  V30 3660 H 348.245 -0.638429 -0.401155 0
M  V30 3661 H 350.896 -1.80633 -0.323106 0
M  V30 3662 H 349.278 -2.87579 -2.72239 0
M  V30 3663 H 350.452 -4.58766 -0.432525 0
M  V30 3664 H 348.767 -4.12777 -0.548063 0
M  V30 3665 H 351.364 -4.18444 -3.3288 0
M  V30 3666 H 351.707 -2.47206 -3.34955 0
M  V30 3667 H 352.24 -3.45809 -1.96623 0
M  V30 3668 H 348.979 -6.40268 -1.40491 0
M  V30 3669 H 348.499 -5.33397 -2.74313 0
M  V30 3670 H 350.178 -5.91557 -2.62049 0
M  V30 3671 N 350.31 0.590341 -1.46126 0
M  V30 3672 C 351.558 1.34616 -1.50742 0
M  V30 3673 C 351.879 1.94363 -0.157486 0
M  V30 3674 O 351.149 1.78136 0.815136 0
M  V30 3675 H 349.729 0.499789 -0.555175 0
M  V30 3676 H 352.391 0.691953 -1.82203 0
M  V30 3677 H 351.487 2.15678 -2.25587 0
M  V30 3678 N 351.788 1.33704 0.83433 0
M  V30 3679 C 353.018 1.28281 1.6195 0
M  V30 3680 C 353.426 -0.147603 1.88623 0
M  V30 3681 O 352.769 -1.1016 1.47005 0
M  V30 3682 C 352.831 1.99386 2.99141 0
M  V30 3683 C 352.495 3.48681 2.95416 0
M  V30 3684 C 353.492 4.438 2.70809 0
M  V30 3685 C 351.177 3.90925 3.15409 0
M  V30 3686 C 353.171 5.79138 2.66229 0
M  V30 3687 C 350.858 5.26366 3.10454 0
M  V30 3688 C 351.856 6.20284 2.85895 0
M  V30 3689 O 351.544 7.53245 2.80852 0
M  V30 3690 H 351.276 0.44315 0.510484 0
M  V30 3691 H 353.83 1.76711 1.04702 0
M  V30 3692 H 352.06 1.45554 3.58261 0
M  V30 3693 H 353.749 1.87403 3.60049 0
M  V30 3694 H 354.515 4.12485 2.5511 0
M  V30 3695 H 350.394 3.18229 3.33543 0
M  V30 3696 H 353.938 6.52416 2.4698 0
M  V30 3697 H 349.835 5.57304 3.25703 0
M  V30 3698 H 350.603 7.62846 2.96661 0
M  V30 3699 N 353.266 -1.05314 1.17247 0
M  V30 3700 C 354.512 -1.78557 0.961513 0
M  V30 3701 C 354.845 -1.87419 -0.508697 0
M  V30 3702 O 354.12 -1.37307 -1.37757 0
M  V30 3703 C 354.403 -3.22514 1.60176 0
M  V30 3704 C 354.256 -3.21673 3.14399 0
M  V30 3705 C 355.575 -4.20318 1.30463 0
M  V30 3706 H 352.694 -0.6482 0.350723 0
M  V30 3707 H 355.336 -1.23102 1.44727 0
M  V30 3708 H 353.486 -3.69867 1.18871 0
M  V30 3709 H 355.158 -2.82405 3.64753 0
M  V30 3710 H 353.401 -2.60048 3.47214 0
M  V30 3711 H 354.072 -4.23271 3.54324 0
M  V30 3712 H 356.548 -3.81454 1.66229 0
M  V30 3713 H 355.424 -5.19289 1.77848 0
M  V30 3714 H 355.685 -4.41526 0.22521 0
M  V30 3715 N 354.744 -0.972509 -1.24016 0
M  V30 3716 C 356.021 -0.553733 -1.87598 0
M  V30 3717 C 356.401 0.969158 -1.87538 0
M  V30 3718 O 355.749 1.84255 -1.35139 0
M  V30 3719 C 355.959 -1.15076 -3.29482 0
M  V30 3720 C 357.307 -1.23862 -4.06132 0
M  V30 3721 O 358.331 -1.10363 -3.38672 0
M  V30 3722 O 357.19 -1.45252 -5.26844 0
M  V30 3723 H 354.284 -0.185331 -0.805966 0
M  V30 3724 H 356.83 -1.06709 -1.31952 0
M  V30 3725 H 355.602 -2.19333 -3.2405 0
M  V30 3726 H 355.225 -0.621746 -3.92709 0
M  V30 3727 N 356.222 1.38976 -0.743202 0
M  V30 3728 C 357.152 2.33171 -0.123873 0
M  V30 3729 C 358.133 1.54336 0.71516 0
M  V30 3730 O 359.318 1.82696 0.658467 0
M  V30 3731 C 356.448 3.38474 0.777978 0
M  V30 3732 C 355.402 4.27979 0.0424758 0
M  V30 3733 C 354.728 5.2405 1.06189 0
M  V30 3734 C 356.028 5.10155 -1.1198 0
M  V30 3735 H 357.722 2.85213 -0.910709 0
M  V30 3736 H 355.268 1.37133 -0.439388 0
M  V30 3737 H 357.221 4.03328 1.22084 0
M  V30 3738 H 355.945 2.84891 1.59702 0
M  V30 3739 H 354.604 3.64616 -0.380853 0
M  V30 3740 H 354.252 4.66758 1.87472 0
M  V30 3741 H 353.952 5.84785 0.574485 0
M  V30 3742 H 355.476 5.9178 1.50428 0
M  V30 3743 H 356.89 5.68307 -0.75499 0
M  V30 3744 H 355.287 5.80073 -1.53738 0
M  V30 3745 H 356.357 4.44504 -1.93764 0
M  V30 3746 N 357.7 0.491464 1.49741 0
M  V30 3747 C 358.925 -0.0557177 2.07325 0
M  V30 3748 C 359.35 -1.30925 1.35056 0
M  V30 3749 O 358.708 -1.76733 0.404365 0
M  V30 3750 C 358.756 -0.302074 3.59333 0
M  V30 3751 O 357.86 -1.37868 3.88672 0
M  V30 3752 H 357.201 0.0219956 0.663636 0
M  V30 3753 H 359.731 0.688352 1.92673 0
M  V30 3754 H 359.741 -0.536464 4.04458 0
M  V30 3755 H 358.416 0.61383 4.11345 0
M  V30 3756 H 356.993 -1.12999 3.55367 0
M  V30 3757 N 359.178 -1.55987 0.224894 0
M  V30 3758 C 360.406 -2.02784 -0.410665 0
M  V30 3759 C 360.821 -1.10464 -1.53112 0
M  V30 3760 O 360.178 -0.114871 -1.82138 0
M  V30 3761 C 360.229 -3.49087 -0.939165 0
M  V30 3762 O 359.95 -4.37887 0.136614 0
M  V30 3763 C 361.451 -4.11543 -1.64763 0
M  V30 3764 H 358.671 -0.663484 -0.100148 0
M  V30 3765 H 361.215 -2.01614 0.342326 0
M  V30 3766 H 359.37 -3.50861 -1.64242 0
M  V30 3767 H 359.784 -5.23849 -0.261155 0
M  V30 3768 H 361.258 -5.15673 -1.96939 0
M  V30 3769 H 361.735 -3.56736 -2.56195 0
M  V30 3770 H 362.341 -4.13629 -0.989503 0
M  V30 3771 N 360.656 0.0484629 -1.57525 0
M  V30 3772 C 361.905 0.742065 -1.87553 0
M  V30 3773 C 362.218 1.77545 -0.820802 0
M  V30 3774 O 363.424 2.52027 -1.00967 0
M  V30 3775 C 361.88 1.37081 -3.32771 0
M  V30 3776 C 361.488 0.374786 -4.4643 0
M  V30 3777 C 363.232 2.04542 -3.71972 0
M  V30 3778 C 361.139 1.01077 -5.82698 0
M  V30 3779 H 360.069 0.280903 -0.699721 0
M  V30 3780 H 362.72 -0.00411877 -1.835 0
M  V30 3781 H 361.102 2.16605 -3.31509 0
M  V30 3782 H 362.276 -0.392331 -4.59127 0
M  V30 3783 H 360.591 -0.196653 -4.15935 0
M  V30 3784 H 363.188 2.52943 -4.71088 0
M  V30 3785 H 363.531 2.85515 -3.02964 0
M  V30 3786 H 364.064 1.31819 -3.75325 0
M  V30 3787 H 360.803 0.240878 -6.55057 0
M  V30 3788 H 360.323 1.74819 -5.73758 0
M  V30 3789 H 362.002 1.52383 -6.28799 0
M  V30 3790 N 362.134 1.5431 0.320358 0
M  V30 3791 C 363.55 1.45091 0.664889 0
M  V30 3792 C 363.75 0.626382 1.91517 0
M  V30 3793 O 362.806 0.126443 2.52183 0
M  V30 3794 C 364.119 2.88848 0.83591 0
M  V30 3795 C 365.667 2.9877 0.933046 0
M  V30 3796 C 366.142 4.43683 1.13621 0
M  V30 3797 N 367.633 4.47309 1.20287 0
M  V30 3798 C 368.368 5.56595 1.37801 0
M  V30 3799 N 367.864 6.75844 1.52338 0
M  V30 3800 N 369.657 5.44248 1.40535 0
M  V30 3801 H 361.808 2.06398 -0.501374 0
M  V30 3802 H 364.071 0.933963 -0.162534 0
M  V30 3803 H 363.777 3.51698 -0.0116092 0
M  V30 3804 H 363.651 3.35148 1.73078 0
M  V30 3805 H 366.038 2.36045 1.77107 0
M  V30 3806 H 366.119 2.55796 0.0145782 0
M  V30 3807 H 365.763 5.06995 0.303032 0
M  V30 3808 H 365.693 4.84269 2.0686 0
M  V30 3809 H 368.184 3.61388 1.10485 0
M  V30 3810 H 368.497 7.54892 1.65403 0
M  V30 3811 H 366.842 6.78746 1.4943 0
M  V30 3812 H 370.033 4.50038 1.28777 0
M  V30 3813 H 370.206 6.29473 1.53842 0
M  V30 3814 N 363.613 -0.582584 1.46437 0
M  V30 3815 C 364.862 -1.337 1.5102 0
M  V30 3816 C 365.175 -1.94891 0.166359 0
M  V30 3817 O 366.381 -2.71351 0.0899954 0
M  V30 3818 C 364.837 -2.42315 2.66104 0
M  V30 3819 C 364.445 -1.87427 4.06909 0
M  V30 3820 C 366.189 -3.19099 2.79958 0
M  V30 3821 C 364.096 -2.93672 5.13333 0
M  V30 3822 H 363.026 -0.502619 0.562041 0
M  V30 3823 H 365.677 -0.621701 1.72647 0
M  V30 3824 H 364.059 -3.16645 2.37807 0
M  V30 3825 H 365.233 -1.19639 4.44998 0
M  V30 3826 H 363.548 -1.2331 3.97723 0
M  V30 3827 H 366.145 -3.9839 3.56636 0
M  V30 3828 H 366.488 -3.71695 1.87479 0
M  V30 3829 H 367.021 -2.51875 3.07902 0
M  V30 3830 H 363.76 -2.45962 6.07604 0
M  V30 3831 H 363.28 -3.59948 4.79789 0
M  V30 3832 H 364.959 -3.5762 5.39182 0
M  V30 3833 N 365.091 -1.34144 -0.827227 0
M  V30 3834 C 366.319 -1.29325 -1.61501 0
M  V30 3835 C 366.734 0.13354 -1.88327 0
M  V30 3836 O 366.091 1.0793 -1.47164 0
M  V30 3837 C 366.142 -2.07746 -2.95844 0
M  V30 3838 O 365.863 -3.4486 -2.70191 0
M  V30 3839 C 367.364 -2.10273 -3.90256 0
M  V30 3840 H 364.584 -0.445069 -0.50215 0
M  V30 3841 H 367.128 -1.76693 -1.02955 0
M  V30 3842 H 365.283 -1.6403 -3.5096 0
M  V30 3843 H 365.697 -3.85345 -3.55822 0
M  V30 3844 H 367.171 -2.69575 -4.81698 0
M  V30 3845 H 367.648 -1.096 -4.25305 0
M  V30 3846 H 368.254 -2.54059 -3.41078 0
M  V30 3847 N 366.569 1.04691 -1.17803 0
M  V30 3848 C 367.98 1.59238 -0.974689 0
M  V30 3849 C 368.331 1.90306 0.477292 0
M  V30 3850 O 367.456 1.68846 1.35352 0
M  V30 3851 C 368.051 2.89318 -1.76296 0
M  V30 3852 C 366.61 3.40506 -1.60414 0
M  V30 3853 C 365.757 2.14172 -1.76141 0
M  V30 3854 H 368.708 0.874395 -1.32439 0
M  V30 3855 H 368.729 3.5944 -1.24833 0
M  V30 3856 H 368.241 2.66675 -2.81968 0
M  V30 3857 H 366.342 3.68175 -0.572519 0
M  V30 3858 H 366.455 4.14753 -2.39827 0
M  V30 3859 H 364.819 2.25176 -1.19028 0
M  V30 3860 H 365.602 1.93992 -2.83235 0
M  V30 3861 N 368.047 0.979072 1.23499 0
M  V30 3862 C 368.994 0.517904 2.24914 0
M  V30 3863 C 369.964 -0.442525 1.60097 0
M  V30 3864 O 371.149 -0.350365 1.87556 0
M  V30 3865 C 368.289 -0.174813 3.44657 0
M  V30 3866 C 367.402 0.825721 4.24035 0
M  V30 3867 C 366.537 0.107946 5.3109 0
M  V30 3868 C 365.576 1.09778 6.02175 0
M  V30 3869 N 364.713 0.40925 7.00906 0
M  V30 3870 H 369.553 1.38751 2.63727 0
M  V30 3871 H 367.09 0.695303 1.2963 0
M  V30 3872 H 369.048 -0.593233 4.12961 0
M  V30 3873 H 367.678 -1.0083 3.06648 0
M  V30 3874 H 366.73 1.36253 3.55161 0
M  V30 3875 H 368.042 1.58005 4.73113 0
M  V30 3876 H 367.196 -0.367904 6.05583 0
M  V30 3877 H 365.935 -0.678994 4.8295 0
M  V30 3878 H 364.94 1.5844 5.26476 0
M  V30 3879 H 366.165 1.88536 6.52404 0
M  V30 3880 H 364.111 -0.358506 6.5502 0
M  V30 3881 H 364.028 1.10226 7.47921 0
M  V30 3882 H 365.296 -0.0442557 7.79487 0
M  V30 3883 N 369.525 -1.3858 0.750561 0
M  V30 3884 C 370.802 -1.94231 0.231009 0
M  V30 3885 C 371.182 -1.68611 -1.27018 0
M  V30 3886 O 370.53 -1.02296 -2.04323 0
M  V30 3887 C 370.74 -3.44123 0.581428 0
M  V30 3888 C 372.088 -4.2116 0.539389 0
M  V30 3889 O 373.112 -3.52391 0.519541 0
M  V30 3890 O 371.971 -5.43749 0.54765 0
M  V30 3891 H 369.065 -0.825639 0.0474263 0
M  V30 3892 H 371.611 -1.4799 0.830478 0
M  V30 3893 H 370.383 -3.56267 1.61833 0
M  V30 3894 H 370.006 -3.97573 -0.0462047 0
M  V30 3895 N 371.003 -0.499398 -1.49478 0
M  V30 3896 C 372.228 0.044722 -2.07352 0
M  V30 3897 C 372.653 1.30207 -1.35749 0
M  V30 3898 O 372.011 1.76516 -0.413732 0
M  V30 3899 C 372.059 0.283013 -3.59488 0
M  V30 3900 O 371.163 1.35804 -3.89398 0
M  V30 3901 H 370.504 -0.0255147 -0.66351 0
M  V30 3902 H 373.034 -0.698561 -1.92305 0
M  V30 3903 H 373.044 0.515007 -4.04737 0
M  V30 3904 H 371.719 -0.635636 -4.11014 0
M  V30 3905 H 370.296 1.11113 -3.55961 0
M  V30 3906 N 372.481 1.55866 -0.233164 0
M  V30 3907 C 373.897 1.59133 0.121988 0
M  V30 3908 C 374.097 1.25016 1.58029 0
M  V30 3909 O 373.153 0.990922 2.32243 0
M  V30 3910 C 374.466 2.99932 -0.214792 0
M  V30 3911 C 376.014 3.12601 -0.157971 0
M  V30 3912 C 376.489 4.55597 -0.46859 0
M  V30 3913 N 377.98 4.61305 -0.418585 0
M  V30 3914 C 378.715 5.69903 -0.63227 0
M  V30 3915 N 378.211 6.86819 -0.90835 0
M  V30 3916 N 380.004 5.59264 -0.563913 0
M  V30 3917 H 372.155 1.76315 -1.18434 0
M  V30 3918 H 374.418 0.820093 -0.475553 0
M  V30 3919 H 374.124 3.29588 -1.22739 0
M  V30 3920 H 373.998 3.74327 0.464691 0
M  V30 3921 H 376.385 2.82735 0.845283 0
M  V30 3922 H 376.466 2.40511 -0.871102 0
M  V30 3923 H 376.11 4.86182 -1.46934 0
M  V30 3924 H 376.04 5.25928 0.265865 0
M  V30 3925 H 378.531 3.77297 -0.213368 0
M  V30 3926 H 378.844 7.65507 -1.05919 0
M  V30 3927 H 377.189 6.88536 -0.945673 0
M  V30 3928 H 380.38 4.66802 -0.348372 0
M  V30 3929 H 380.553 6.43831 -0.733847 0
M  V30 3930 N 373.959 -0.0401083 1.57549 0
M  V30 3931 C 375.205 -0.728793 1.89895 0
M  V30 3932 C 375.56 -1.73551 0.830535 0
M  V30 3933 O 374.853 -1.90914 -0.162007 0
M  V30 3934 C 375.047 -1.44902 3.26708 0
M  V30 3935 C 374.876 -0.513568 4.46758 0
M  V30 3936 C 373.646 -0.138698 5.0511 0
M  V30 3937 C 375.844 0.203341 5.13898 0
M  V30 3938 N 373.826 0.799159 6.08676 0
M  V30 3939 C 375.197 0.997246 6.11927 0
M  V30 3940 C 377.252 0.271459 4.97159 0
M  V30 3941 C 375.955 1.85299 6.95023 0
M  V30 3942 C 377.981 1.11429 5.80808 0
M  V30 3943 C 377.343 1.89615 6.78399 0
M  V30 3944 H 373.442 -0.241125 0.743897 0
M  V30 3945 H 376.026 0.0108016 1.94697 0
M  V30 3946 H 374.197 -2.15914 3.22856 0
M  V30 3947 H 375.929 -2.08921 3.46603 0
M  V30 3948 H 372.684 -0.498496 4.70969 0
M  V30 3949 H 373.108 1.26227 6.65128 0
M  V30 3950 H 377.75 -0.318709 4.21597 0
M  V30 3951 H 375.468 2.454 7.69938 0
M  V30 3952 H 379.054 1.17038 5.69906 0
M  V30 3953 H 377.934 2.53779 7.42001 0
M  V30 3954 N 375.437 -1.54477 -0.31217 0
M  V30 3955 C 376.683 -1.73483 -1.0503 0
M  V30 3956 C 377.016 -0.513125 -1.87298 0
M  V30 3957 O 376.291 0.489864 -1.8823 0
M  V30 3958 C 376.574 -3.01723 -1.96558 0
M  V30 3959 C 376.427 -4.3417 -1.17545 0
M  V30 3960 C 377.746 -3.25772 -2.95907 0
M  V30 3961 H 374.865 -0.631222 -0.380432 0
M  V30 3962 H 377.507 -1.87184 -0.325932 0
M  V30 3963 H 375.657 -2.90174 -2.58324 0
M  V30 3964 H 377.329 -4.5762 -0.581513 0
M  V30 3965 H 375.572 -4.31159 -0.477925 0
M  V30 3966 H 376.243 -5.20143 -1.84811 0
M  V30 3967 H 378.719 -3.36857 -2.44267 0
M  V30 3968 H 377.595 -4.16838 -3.57123 0
M  V30 3969 H 377.856 -2.43537 -3.68974 0
M  V30 3970 N 376.915 0.57481 -1.46744 0
M  V30 3971 C 378.163 1.33009 -1.52161 0
M  V30 3972 C 378.484 1.94185 -0.178092 0
M  V30 3973 O 377.754 1.7899 0.796196 0
M  V30 3974 H 376.334 0.493873 -0.560445 0
M  V30 3975 H 378.996 0.672589 -1.82927 0
M  V30 3976 H 378.092 2.13273 -2.27862 0
M  V30 3977 N 378.394 1.34581 0.820102 0
M  V30 3978 C 379.357 1.2628 1.91275 0
M  V30 3979 C 380.357 0.177344 1.59819 0
M  V30 3980 O 381.547 0.430156 1.68806 0
M  V30 3981 C 378.679 0.950327 3.27386 0
M  V30 3982 H 379.872 2.23421 2.00057 0
M  V30 3983 H 377.425 1.1891 1.0144 0
M  V30 3984 H 378.16 -0.0177938 3.24295 0
M  V30 3985 H 377.945 1.73549 3.51601 0
M  V30 3986 H 379.435 0.917492 4.07396 0
M  V30 3987 N 379.872 -1.04064 1.18357 0
M  V30 3988 C 381.118 -1.77658 0.990412 0
M  V30 3989 C 381.473 -1.86446 -0.474944 0
M  V30 3990 O 380.766 -1.36153 -1.34807 0
M  V30 3991 C 380.96 -3.20634 1.57888 0
M  V30 3992 C 380.789 -3.25782 3.09994 0
M  V30 3993 C 379.559 -3.34411 3.7881 0
M  V30 3994 C 381.757 -3.13791 4.0748 0
M  V30 3995 N 379.739 -3.28809 5.18418 0
M  V30 3996 C 381.11 -3.15689 5.33611 0
M  V30 3997 C 383.165 -2.97833 3.98998 0
M  V30 3998 C 381.868 -3.03268 6.52243 0
M  V30 3999 C 383.894 -2.86759 5.17227 0
M  V30 4000 C 383.256 -2.893 6.4225 0
M  V30 4001 H 379.355 -0.661901 0.416427 0
M  V30 4002 H 381.939 -1.23968 1.50133 0
M  V30 4003 H 380.11 -3.7267 1.09414 0
M  V30 4004 H 381.842 -3.82525 1.32124 0
M  V30 4005 H 378.597 -3.40144 3.29543 0
M  V30 4006 H 379.021 -3.29448 5.91433 0
M  V30 4007 H 383.663 -2.94698 3.03171 0
M  V30 4008 H 381.381 -3.05156 7.48268 0
M  V30 4009 H 384.967 -2.75465 5.12455 0
M  V30 4010 H 383.847 -2.80818 7.32196 0
M  V30 4011 N 381.35 -0.985608 -1.22978 0
M  V30 4012 C 382.596 -0.667998 -1.92118 0
M  V30 4013 C 382.951 0.790454 -1.75413 0
M  V30 4014 O 382.244 1.56336 -1.10768 0
M  V30 4015 C 382.438 -1.00014 -3.43121 0
M  V30 4016 C 382.267 -2.48933 -3.74516 0
M  V30 4017 C 381.037 -3.15218 -3.94925 0
M  V30 4018 C 383.235 -3.47024 -3.79577 0
M  V30 4019 N 381.217 -4.53689 -4.13569 0
M  V30 4020 C 382.588 -4.70923 -4.03276 0
M  V30 4021 C 384.643 -3.41432 -3.62393 0
M  V30 4022 C 383.346 -5.89914 -4.11574 0
M  V30 4023 C 385.372 -4.59793 -3.71947 0
M  V30 4024 C 384.734 -5.82489 -3.96088 0
M  V30 4025 H 380.833 -0.295589 -0.723983 0
M  V30 4026 H 383.417 -1.26413 -1.4808 0
M  V30 4027 H 381.588 -0.432655 -3.85983 0
M  V30 4028 H 383.32 -0.63927 -3.99619 0
M  V30 4029 H 380.075 -2.65702 -3.92045 0
M  V30 4030 H 380.499 -5.25492 -4.26834 0
M  V30 4031 H 385.141 -2.47594 -3.4272 0
M  V30 4032 H 382.859 -6.84164 -4.30053 0
M  V30 4033 H 386.445 -4.57048 -3.59998 0
M  V30 4034 H 385.325 -6.72546 -4.033 0
M  V30 4035 N 382.828 1.3818 -0.7579 0
M  V30 4036 C 383.758 2.33027 -0.148597 0
M  V30 4037 C 384.739 1.55085 0.69875 0
M  V30 4038 O 385.924 1.83384 0.639053 0
M  V30 4039 C 383.054 3.3928 0.742034 0
M  V30 4040 C 382.008 4.28 -0.00291946 0
M  V30 4041 C 381.334 5.25146 1.00625 0
M  V30 4042 C 382.634 5.08938 -1.17385 0
M  V30 4043 H 384.328 2.84231 -0.940909 0
M  V30 4044 H 381.874 1.36659 -0.453908 0
M  V30 4045 H 383.827 4.046 1.17799 0
M  V30 4046 H 382.551 2.86569 1.56671 0
M  V30 4047 H 381.21 3.64192 -0.419504 0
M  V30 4048 H 380.858 4.68721 1.8251 0
M  V30 4049 H 380.558 5.85361 0.512428 0
M  V30 4050 H 382.082 5.93342 1.44143 0
M  V30 4051 H 383.496 5.67474 -0.815224 0
M  V30 4052 H 381.893 5.7841 -1.59882 0
M  V30 4053 H 382.963 4.42424 -1.98468 0
M  V30 4054 N 384.306 0.507319 1.49211 0
M  V30 4055 C 385.554 -0.0348839 2.0207 0
M  V30 4056 C 385.875 -1.36898 1.38866 0
M  V30 4057 O 385.145 -1.88133 0.546151 0
M  V30 4058 H 383.725 -0.0158812 0.746831 0
M  V30 4059 H 386.387 0.665998 1.83168 0
M  V30 4060 H 385.483 -0.159917 3.1169 0
M  V30 4061 N 385.784 -1.5574 0.241426 0
M  V30 4062 C 387.031 -1.9881 -0.384836 0
M  V30 4063 C 387.359 -1.12947 -1.58346 0
M  V30 4064 O 386.614 -0.178993 -1.9488 0
M  V30 4065 C 386.913 -3.47308 -0.843317 0
M  V30 4066 C 386.579 -4.50223 0.246946 0
M  V30 4067 C 385.241 -4.78088 0.546399 0
M  V30 4068 C 387.593 -5.11841 0.983282 0
M  V30 4069 C 384.921 -5.64846 1.58636 0
M  V30 4070 C 387.273 -5.99727 2.01272 0
M  V30 4071 C 385.937 -6.25927 2.31888 0
M  V30 4072 H 385.207 -0.727496 -0.140821 0
M  V30 4073 H 387.854 -1.8831 0.348106 0
M  V30 4074 H 386.159 -3.55112 -1.65537 0
M  V30 4075 H 387.856 -3.78017 -1.33806 0
M  V30 4076 H 384.446 -4.286 0.00340639 0
M  V30 4077 H 388.63 -4.90366 0.765182 0
M  V30 4078 H 383.886 -5.83403 1.82896 0
M  V30 4079 H 388.06 -6.46517 2.58823 0
M  V30 4080 H 385.687 -6.92949 3.12611 0
M  V30 4081 N 387.262 0.0317525 -1.57568 0
M  V30 4082 C 388.192 1.03274 -2.0942 0
M  V30 4083 C 389.173 1.3788 -0.996143 0
M  V30 4084 O 390.358 1.46811 -1.27122 0
M  V30 4085 C 387.488 2.33448 -2.57137 0
M  V30 4086 C 386.442 2.13091 -3.71182 0
M  V30 4087 C 385.768 3.49001 -4.05095 0
M  V30 4088 C 387.068 1.51928 -4.99715 0
M  V30 4089 H 388.762 0.60112 -2.93303 0
M  V30 4090 H 386.308 0.287705 -1.41097 0
M  V30 4091 H 388.261 3.03802 -2.92032 0
M  V30 4092 H 386.985 2.78665 -1.70333 0
M  V30 4093 H 385.644 1.45171 -3.36632 0
M  V30 4094 H 385.292 3.91862 -3.15362 0
M  V30 4095 H 384.992 3.36207 -4.81911 0
M  V30 4096 H 386.516 4.20721 -4.42522 0
M  V30 4097 H 387.93 2.12196 -5.32584 0
M  V30 4098 H 386.327 1.49716 -5.81124 0
M  V30 4099 H 387.397 0.484811 -4.8247 0
M  V30 4100 N 388.74 1.54641 0.303973 0
M  V30 4101 C 389.986 1.74038 1.04109 0
M  V30 4102 C 390.319 0.523051 1.87024 0
M  V30 4103 O 389.594 -0.479874 1.88487 0
M  V30 4104 C 389.877 3.02761 1.94955 0
M  V30 4105 C 389.73 4.34787 1.1524 0
M  V30 4106 C 391.049 3.27336 2.94175 0
M  V30 4107 H 388.168 0.63323 0.377079 0
M  V30 4108 H 390.81 1.87354 0.316001 0
M  V30 4109 H 388.96 2.9154 2.56782 0
M  V30 4110 H 390.632 4.57922 0.557236 0
M  V30 4111 H 388.875 4.31407 0.455053 0
M  V30 4112 H 389.546 5.21116 1.8205 0
M  V30 4113 H 392.022 3.38148 2.42477 0
M  V30 4114 H 390.898 4.18726 3.54908 0
M  V30 4115 H 391.159 2.45491 3.67677 0
M  V30 4116 N 390.218 -0.567019 1.47046 0
M  V30 4117 C 391.443 -1.3551 1.57009 0
M  V30 4118 C 391.868 -1.86841 0.217259 0
M  V30 4119 O 391.226 -1.62435 -0.805268 0
M  V30 4120 C 391.274 -2.50777 2.5912 0
M  V30 4121 O 390.378 -3.52706 2.13711 0
M  V30 4122 H 389.719 -0.402919 0.52778 0
M  V30 4123 H 392.249 -0.686241 1.92748 0
M  V30 4124 H 392.259 -2.97481 2.79229 0
M  V30 4125 H 390.934 -2.12771 3.57353 0
M  V30 4126 H 389.511 -3.12374 2.03659 0
M  V30 4127 N 391.696 -1.35014 -0.812953 0
M  V30 4128 C 392.944 -1.27678 -1.56661 0
M  V30 4129 C 393.265 0.150359 -1.94419 0
M  V30 4130 O 392.535 1.08532 -1.63088 0
M  V30 4131 H 391.115 -0.469602 -0.580933 0
M  V30 4132 H 393.777 -1.69043 -0.970076 0
M  V30 4133 H 392.873 -1.88833 -2.48492 0
M  V30 4134 N 393.175 1.03435 -1.18907 0
M  V30 4135 C 394.105 2.13503 -0.945448 0
M  V30 4136 C 395.086 1.69682 0.119189 0
M  V30 4137 O 396.271 1.94169 -0.034707 0
M  V30 4138 C 393.401 3.44004 -0.477316 0
M  V30 4139 C 392.355 4.0148 -1.48316 0
M  V30 4140 C 391.681 5.27537 -0.872311 0
M  V30 4141 C 392.981 4.36921 -2.86177 0
M  V30 4142 H 394.675 2.34141 -1.86597 0
M  V30 4143 H 392.221 1.12523 -0.898584 0
M  V30 4144 H 394.174 4.20372 -0.294204 0
M  V30 4145 H 392.898 3.23072 0.478786 0
M  V30 4146 H 391.557 3.27201 -1.65332 0
M  V30 4147 H 391.205 5.02917 0.0911752 0
M  V30 4148 H 390.905 5.66954 -1.54393 0
M  V30 4149 H 392.429 6.06576 -0.699871 0
M  V30 4150 H 393.843 5.04248 -2.72776 0
M  V30 4151 H 392.24 4.87405 -3.50081 0
M  V30 4152 H 393.31 3.46466 -3.39248 0
M  V30 4153 N 394.653 0.992116 1.22453 0
M  V30 4154 C 395.9 0.667534 1.91181 0
M  V30 4155 C 396.228 -0.800317 1.77271 0
M  V30 4156 O 395.483 -1.59421 1.13505 0
M  V30 4157 C 395.782 1.01832 3.42586 0
M  V30 4158 C 395.448 2.47831 3.76684 0
M  V30 4159 C 394.11 2.87729 3.85701 0
M  V30 4160 C 396.462 3.42466 3.92895 0
M  V30 4161 C 393.79 4.21252 4.08367 0
M  V30 4162 C 396.142 4.75648 4.17064 0
M  V30 4163 C 394.806 5.15288 4.24305 0
M  V30 4164 H 394.076 0.244268 0.699581 0
M  V30 4165 H 396.723 1.24816 1.45235 0
M  V30 4166 H 395.028 0.355769 3.90181 0
M  V30 4167 H 396.725 0.745228 3.94014 0
M  V30 4168 H 393.315 2.15905 3.70247 0
M  V30 4169 H 397.499 3.12814 3.85307 0
M  V30 4170 H 392.755 4.51554 4.122 0
M  V30 4171 H 396.929 5.48924 4.2855 0
M  V30 4172 H 394.556 6.18769 4.41621 0
M  V30 4173 N 396.131 -1.37776 0.765217 0
M  V30 4174 C 397.356 -2.04651 0.336537 0
M  V30 4175 C 397.781 -1.57337 -1.03086 0
M  V30 4176 O 397.139 -0.730621 -1.65927 0
M  V30 4177 C 397.187 -3.58577 0.381468 0
M  V30 4178 O 396.291 -4.07706 -0.62042 0
M  V30 4179 H 395.632 -0.64756 0.146838 0
M  V30 4180 H 398.162 -1.76221 1.03959 0
M  V30 4181 H 398.172 -4.07314 0.236448 0
M  V30 4182 H 396.847 -3.9237 1.37907 0
M  V30 4183 H 395.424 -3.70306 -0.439056 0
M  V30 4184 N 397.609 -0.515225 -1.4894 0
M  V30 4185 C 398.858 0.0261361 -2.01683 0
M  V30 4186 C 399.171 1.36719 -1.39883 0
M  V30 4187 O 400.377 1.99606 -1.84037 0
M  V30 4188 C 398.833 0.0970111 -3.59769 0
M  V30 4189 C 398.441 -1.23825 -4.30548 0
M  V30 4190 C 400.185 0.587981 -4.20408 0
M  V30 4191 C 398.092 -1.12877 -5.80528 0
M  V30 4192 H 397.022 0.0135398 -0.753878 0
M  V30 4193 H 399.673 -0.656787 -1.71343 0
M  V30 4194 H 398.055 0.844694 -3.86886 0
M  V30 4195 H 399.229 -2.00034 -4.15118 0
M  V30 4196 H 397.544 -1.66379 -3.81716 0
M  V30 4197 H 400.141 0.68763 -5.3026 0
M  V30 4198 H 400.484 1.59026 -3.84729 0
M  V30 4199 H 401.017 -0.103582 -3.97665 0
M  V30 4200 H 397.756 -2.10575 -6.20756 0
M  V30 4201 H 397.276 -0.407799 -5.98412 0
M  V30 4202 H 398.955 -0.813332 -6.41868 0
M  V30 4203 N 399.087 1.5561 -0.249682 0
M  V30 4204 C 400.336 1.98187 0.37479 0
M  V30 4205 C 400.649 1.14111 1.58865 0
M  V30 4206 O 401.855 1.46714 2.28445 0
M  V30 4207 C 400.311 3.52661 0.718192 0
M  V30 4208 C 399.919 4.45481 -0.474428 0
M  V30 4209 C 401.663 4.03888 1.3067 0
M  V30 4210 C 399.57 5.91303 -0.107026 0
M  V30 4211 H 398.5 0.740159 0.143808 0
M  V30 4212 H 401.151 1.80125 -0.350336 0
M  V30 4213 H 399.533 3.66429 1.50152 0
M  V30 4214 H 400.707 4.43473 -1.25172 0
M  V30 4215 H 399.022 4.04751 -0.978052 0
M  V30 4216 H 401.619 5.10358 1.59496 0
M  V30 4217 H 401.962 3.51401 2.23211 0
M  V30 4218 H 402.495 3.93457 0.586211 0
M  V30 4219 H 399.234 6.47833 -0.999642 0
M  V30 4220 H 398.754 5.9644 0.634013 0
M  V30 4221 H 400.433 6.46258 0.309807 0
M  V30 4222 N 400.565 -0.0233959 1.57583 0
M  V30 4223 C 401.79 -0.728376 1.94189 0
M  V30 4224 C 402.215 -1.67793 0.850119 0
M  V30 4225 O 401.573 -1.80262 -0.19371 0
M  V30 4226 C 401.621 -1.45669 3.29868 0
M  V30 4227 O 400.725 -2.57013 3.22518 0
M  V30 4228 H 400.066 -0.195493 0.63457 0
M  V30 4229 H 402.596 0.0228214 2.04587 0
M  V30 4230 H 402.606 -1.82535 3.6489 0
M  V30 4231 H 401.281 -0.760314 4.08891 0
M  V30 4232 H 399.858 -2.22648 2.99136 0
M  V30 4233 N 402.043 -1.548 -0.295768 0
M  V30 4234 C 403.268 -1.78653 -1.05346 0
M  V30 4235 C 403.693 -0.546894 -1.79974 0
M  V30 4236 O 403.051 0.502763 -1.7419 0
M  V30 4237 C 403.099 -2.99679 -2.00561 0
M  V30 4238 O 402.203 -2.7317 -3.08953 0
M  V30 4239 H 401.544 -0.59116 -0.302367 0
M  V30 4240 H 404.074 -2.01895 -0.331598 0
M  V30 4241 H 404.084 -3.27793 -2.42932 0
M  V30 4242 H 402.759 -3.89562 -1.4565 0
M  V30 4243 H 401.336 -2.56089 -2.71059 0
M  V30 4244 N 403.521 0.559213 -1.47345 0
M  V30 4245 C 404.77 1.31281 -1.53128 0
M  V30 4246 C 405.083 1.94602 -0.197344 0
M  V30 4247 O 406.289 2.71173 -0.133154 0
M  V30 4248 C 404.745 2.38051 -2.69925 0
M  V30 4249 C 404.353 1.8093 -4.0984 0
M  V30 4250 C 406.097 3.14604 -2.84999 0
M  V30 4251 C 404.004 2.85468 -5.1794 0
M  V30 4252 H 402.934 0.493614 -0.569966 0
M  V30 4253 H 405.585 0.594155 -1.73615 0
M  V30 4254 H 403.967 3.12822 -2.42814 0
M  V30 4255 H 405.141 1.12544 -4.46845 0
M  V30 4256 H 403.456 1.16967 -3.99634 0
M  V30 4257 H 406.053 3.92666 -3.62929 0
M  V30 4258 H 406.396 3.68665 -1.93369 0
M  V30 4259 H 406.929 2.46945 -3.1187 0
M  V30 4260 H 403.668 2.36264 -6.1144 0
M  V30 4261 H 403.188 3.52269 -4.85455 0
M  V30 4262 H 404.867 3.48996 -5.44803 0
M  V30 4263 N 404.999 1.35443 0.805782 0
M  V30 4264 C 406.41 1.25768 1.37983 0
M  V30 4265 C 406.761 -0.10958 1.95894 0
M  V30 4266 O 405.886 -1.01056 1.91355 0
M  V30 4267 C 406.481 2.27727 2.5085 0
M  V30 4268 C 405.04 2.2179 3.04115 0
M  V30 4269 C 404.187 2.13393 1.77084 0
M  V30 4270 H 407.138 1.4656 0.608752 0
M  V30 4271 H 407.159 1.90422 3.29424 0
M  V30 4272 H 406.671 3.27227 2.08671 0
M  V30 4273 H 404.772 1.25703 3.50756 0
M  V30 4274 H 404.885 3.13788 3.62042 0
M  V30 4275 H 403.249 1.59384 1.98668 0
M  V30 4276 H 404.032 3.14755 1.37056 0
M  V30 4277 N 406.477 -1.02803 1.19454 0
M  V30 4278 C 407.724 -1.76217 0.997693 0
M  V30 4279 C 408.052 -1.887 -0.47144 0
M  V30 4280 O 407.307 -1.4011 -1.3663 0
M  V30 4281 C 407.606 -3.18941 1.6128 0
M  V30 4282 C 407.272 -3.26463 3.11019 0
M  V30 4283 C 405.934 -3.28223 3.51885 0
M  V30 4284 C 408.286 -3.25542 4.07028 0
M  V30 4285 C 405.614 -3.26719 4.8731 0
M  V30 4286 C 407.966 -3.25579 5.42385 0
M  V30 4287 C 406.63 -3.25637 5.82681 0
M  V30 4288 H 405.9 -0.644823 0.365082 0
M  V30 4289 H 408.547 -1.20655 1.4871 0
M  V30 4290 H 406.852 -3.77587 1.04572 0
M  V30 4291 H 408.549 -3.74415 1.43577 0
M  V30 4292 H 405.139 -3.25822 2.78457 0
M  V30 4293 H 409.323 -3.23362 3.76498 0
M  V30 4294 H 404.579 -3.25089 5.1781 0
M  V30 4295 H 408.753 -3.23817 6.16535 0
M  V30 4296 H 406.38 -3.24226 6.87591 0
M  V30 4297 N 407.956 -0.998596 -1.21925 0
M  V30 4298 C 409.203 -0.677663 -1.90824 0
M  V30 4299 C 409.531 0.790905 -1.77693 0
M  V30 4300 O 408.786 1.58817 -1.14349 0
M  V30 4301 C 409.085 -1.03648 -3.42041 0
M  V30 4302 C 408.751 -2.49825 -3.75364 0
M  V30 4303 C 407.413 -2.8977 -3.8417 0
M  V30 4304 C 409.765 -3.44545 -3.91073 0
M  V30 4305 C 407.093 -4.23412 -4.06127 0
M  V30 4306 C 409.445 -4.77853 -4.14535 0
M  V30 4307 C 408.109 -5.17531 -4.21566 0
M  V30 4308 H 407.379 -0.247975 -0.698276 0
M  V30 4309 H 410.026 -1.25584 -1.44571 0
M  V30 4310 H 408.331 -0.376457 -3.89987 0
M  V30 4311 H 410.028 -0.766113 -3.93614 0
M  V30 4312 H 406.618 -2.17866 -3.69097 0
M  V30 4313 H 410.802 -3.14853 -3.83642 0
M  V30 4314 H 406.058 -4.53734 -4.09799 0
M  V30 4315 H 410.232 -5.51189 -4.25633 0
M  V30 4316 H 407.859 -6.21102 -4.38333 0
M  V30 4317 N 409.434 1.37368 -0.772513 0
M  V30 4318 C 410.681 1.99673 -0.337182 0
M  V30 4319 C 411.009 1.61324 1.0865 0
M  V30 4320 O 410.264 0.851377 1.7621 0
M  V30 4321 C 410.563 3.54817 -0.428876 0
M  V30 4322 C 410.229 4.12936 -1.81092 0
M  V30 4323 C 408.891 4.28523 -2.1891 0
M  V30 4324 C 411.243 4.44801 -2.71664 0
M  V30 4325 C 408.571 4.73277 -3.46735 0
M  V30 4326 C 410.923 4.90981 -3.98899 0
M  V30 4327 C 409.587 5.04773 -4.36761 0
M  V30 4328 H 408.857 0.730656 -0.123384 0
M  V30 4329 H 411.504 1.64124 -0.986686 0
M  V30 4330 H 409.809 3.90618 0.304167 0
M  V30 4331 H 411.506 4.00933 -0.0733334 0
M  V30 4332 H 408.096 4.01233 -1.50699 0
M  V30 4333 H 412.28 4.32344 -2.43706 0
M  V30 4334 H 407.536 4.82142 -3.75964 0
M  V30 4335 H 411.71 5.14603 -4.69208 0
M  V30 4336 H 409.337 5.39211 -5.35868 0
M  V30 4337 N 410.912 0.523116 1.48665 0
M  V30 4338 C 411.842 -0.23231 2.32342 0
M  V30 4339 C 412.823 -0.941637 1.41659 0
M  V30 4340 O 414.008 -0.928751 1.70552 0
M  V30 4341 C 411.138 -1.28387 3.22698 0
M  V30 4342 C 410.092 -0.693098 4.22351 0
M  V30 4343 C 409.418 -1.8468 5.01794 0
M  V30 4344 C 410.718 0.33063 5.21252 0
M  V30 4345 H 412.412 0.466192 2.95748 0
M  V30 4346 H 409.958 0.225643 1.42221 0
M  V30 4347 H 411.911 -1.82024 3.80059 0
M  V30 4348 H 410.635 -2.01186 2.57278 0
M  V30 4349 H 409.294 -0.178299 3.66166 0
M  V30 4350 H 408.942 -2.56301 4.32804 0
M  V30 4351 H 408.642 -1.45747 5.69238 0
M  V30 4352 H 410.166 -2.38709 5.62006 0
M  V30 4353 H 411.58 -0.118407 5.73178 0
M  V30 4354 H 409.977 0.636974 5.9671 0
M  V30 4355 H 411.047 1.23883 4.68808 0
M  V30 4356 N 412.39 -1.55475 0.257931 0
M  V30 4357 C 413.801 -1.8511 -0.243135 0
M  V30 4358 C 414.152 -1.17986 -1.5676 0
M  V30 4359 O 413.277 -0.462102 -2.11409 0
M  V30 4360 C 413.872 -3.35826 -0.447929 0
M  V30 4361 C 412.431 -3.65647 -0.893245 0
M  V30 4362 C 411.578 -2.7729 0.0232965 0
M  V30 4363 H 414.529 -1.51261 0.480199 0
M  V30 4364 H 414.55 -3.58002 -1.28898 0
M  V30 4365 H 414.062 -3.84652 0.516196 0
M  V30 4366 H 412.163 -3.22308 -1.86945 0
M  V30 4367 H 412.276 -4.73312 -0.742469 0
M  V30 4368 H 410.64 -2.49942 -0.490021 0
M  V30 4369 H 411.423 -3.28926 0.982994 0
M  V30 4370 N 413.868 0.0150385 -1.57593 0
M  V30 4371 C 414.815 1.01126 -2.07466 0
M  V30 4372 C 415.785 1.35064 -0.966794 0
M  V30 4373 O 416.97 1.4516 -1.23827 0
M  V30 4374 C 414.11 2.30276 -2.57035 0
M  V30 4375 C 413.223 2.02373 -3.81666 0
M  V30 4376 C 412.358 3.25496 -4.19793 0
M  V30 4377 C 411.397 2.93211 -5.37303 0
M  V30 4378 N 410.534 4.08826 -5.70794 0
M  V30 4379 H 415.374 0.57901 -2.92321 0
M  V30 4380 H 412.911 0.27426 -1.44521 0
M  V30 4381 H 414.869 3.05757 -2.83846 0
M  V30 4382 H 413.499 2.71197 -1.75077 0
M  V30 4383 H 412.551 1.17327 -3.61854 0
M  V30 4384 H 413.863 1.74567 -4.67256 0
M  V30 4385 H 413.017 4.09333 -4.47807 0
M  V30 4386 H 411.756 3.56428 -3.32882 0
M  V30 4387 H 410.761 2.07777 -5.09027 0
M  V30 4388 H 411.986 2.63542 -6.25877 0
M  V30 4389 H 409.932 4.39682 -4.86842 0
M  V30 4390 H 409.849 3.84491 -6.50924 0
M  V30 4391 H 411.117 4.93496 -6.03392 0
M  V30 4392 N 415.346 1.54954 0.287554 0
M  V30 4393 C 416.294 1.87606 1.37502 0
M  V30 4394 C 417.288 0.751001 1.51843 0
M  V30 4395 O 418.494 0.935169 1.53801 0
M  V30 4396 H 414.869 0.595231 0.459569 0
M  V30 4397 H 416.84 2.78477 1.07206 0
M  V30 4398 C 415.589 2.15183 2.73115 0
M  V30 4399 H 414.912 3.01234 2.62866 0
M  V30 4400 H 416.352 2.4196 3.48183 0
M  V30 4401 C 414.811 0.954686 3.2309 0
M  V30 4402 O 415.341 0.181949 4.01288 0
M  V30 4403 N 413.547 0.756368 2.80584 0
M  V30 4404 H 413.094 1.38643 2.17108 0
M  V30 4405 H 413.052 -0.0430391 3.14371 0
M  V30 4406 N 416.824 -0.551391 1.4764 0
M  V30 4407 C 418.235 -1.13349 1.48354 0
M  V30 4408 C 418.586 -1.94709 0.241432 0
M  V30 4409 O 417.711 -2.06306 -0.653205 0
M  V30 4410 C 418.306 -2.0623 2.68802 0
M  V30 4411 C 416.865 -2.597 2.72457 0
M  V30 4412 C 416.012 -1.36201 2.41546 0
M  V30 4413 H 418.963 -0.337698 1.55065 0
M  V30 4414 H 418.984 -2.90196 2.46103 0
M  V30 4415 H 418.496 -1.46987 3.59188 0
M  V30 4416 H 416.597 -3.22724 1.86225 0
M  V30 4417 H 416.71 -3.00296 3.73308 0
M  V30 4418 H 415.074 -1.67068 1.9225 0
M  V30 4419 H 415.857 -0.787425 3.34147 0
M  V30 4420 N 418.302 -1.35869 -0.798587 0
M  V30 4421 C 419.25 -1.29491 -1.93222 0
M  V30 4422 C 420.244 -0.18836 -1.6835 0
M  V30 4423 O 421.45 -0.354822 -1.76468 0
M  V30 4424 H 417.825 -0.402901 -0.63496 0
M  V30 4425 H 419.796 -2.25247 -1.9572 0
M  V30 4426 C 418.545 -1.09184 -3.30112 0
M  V30 4427 H 417.868 -1.93574 -3.49813 0
M  V30 4428 H 419.308 -1.08766 -4.09812 0
M  V30 4429 C 417.767 0.203959 -3.36282 0
M  V30 4430 O 418.297 1.19699 -3.83451 0
M  V30 4431 N 416.503 0.245488 -2.89561 0
M  V30 4432 H 416.05 -0.563223 -2.51367 0
M  V30 4433 H 416.008 1.11219 -2.94071 0
M  V30 4434 N 419.78 1.02168 -1.19998 0
M  V30 4435 C 420.727 2.10601 -0.944228 0
M  V30 4436 C 421.697 1.65639 0.123664 0
M  V30 4437 O 422.882 1.9079 -0.0199941 0
M  V30 4438 C 420.022 3.41504 -0.496865 0
M  V30 4439 C 419.135 3.99973 -1.63234 0
M  V30 4440 C 418.27 5.18915 -1.13579 0
M  V30 4441 C 417.309 5.69456 -2.24468 0
M  V30 4442 N 416.446 6.79665 -1.76068 0
M  V30 4443 H 421.286 2.31814 -1.8726 0
M  V30 4444 H 418.823 1.13686 -0.933483 0
M  V30 4445 H 420.781 4.16626 -0.218843 0
M  V30 4446 H 419.411 3.2038 0.394508 0
M  V30 4447 H 418.463 3.21997 -2.0254 0
M  V30 4448 H 419.775 4.33492 -2.46752 0
M  V30 4449 H 418.929 6.01222 -0.813429 0
M  V30 4450 H 417.668 4.8695 -0.270434 0
M  V30 4451 H 416.673 4.85757 -2.57526 0
M  V30 4452 H 417.898 6.03459 -3.11472 0
M  V30 4453 H 415.844 6.49538 -0.918516 0
M  V30 4454 H 415.761 7.12349 -2.5317 0
M  V30 4455 H 417.029 7.65549 -1.46817 0
M  V30 4456 N 421.258 1.00505 1.21394 0
M  V30 4457 C 422.669 0.721082 1.72213 0
M  V30 4458 C 423.02 -0.761263 1.80829 0
M  V30 4459 O 422.145 -1.59464 1.46288 0
M  V30 4460 C 422.74 1.30228 3.12772 0
M  V30 4461 C 421.299 1.06743 3.60947 0
M  V30 4462 C 420.446 1.41507 2.38477 0
M  V30 4463 H 423.397 1.17594 1.06571 0
M  V30 4464 H 423.418 0.686955 3.74247 0
M  V30 4465 H 422.93 2.38115 3.06468 0
M  V30 4466 H 421.031 0.00572162 3.726 0
M  V30 4467 H 421.144 1.73936 4.46411 0
M  V30 4468 H 419.508 0.833852 2.40664 0
M  V30 4469 H 420.291 2.50424 2.34824 0
M  V30 4470 N 422.737 -1.36956 0.779787 0
M  V30 4471 C 423.669 -2.28833 0.129639 0
M  V30 4472 C 424.682 -1.4902 -0.655511 0
M  V30 4473 O 425.871 -1.71578 -0.492279 0
M  V30 4474 C 422.971 -3.2833 -0.839792 0
M  V30 4475 C 422.144 -4.3727 -0.10675 0
M  V30 4476 C 421.203 -5.16789 -0.990717 0
M  V30 4477 O 420.229 -5.67406 -0.451516 0
M  V30 4478 N 421.431 -5.32294 -2.3161 0
M  V30 4479 H 424.196 -2.85268 0.918803 0
M  V30 4480 H 421.757 -1.49019 0.632841 0
M  V30 4481 H 423.749 -3.78413 -1.43477 0
M  V30 4482 H 422.319 -2.72605 -1.52988 0
M  V30 4483 H 421.539 -3.88478 0.669216 0
M  V30 4484 H 422.827 -5.07229 0.399464 0
M  V30 4485 H 422.225 -4.92768 -2.77843 0
M  V30 4486 H 420.782 -5.85656 -2.86095 0
M  V30 4487 N 424.215 -0.530993 -1.48385 0
M  V30 4488 C 425.162 0.231223 -2.29639 0
M  V30 4489 C 426.132 0.932864 -1.37429 0
M  V30 4490 O 427.317 0.933692 -1.66394 0
M  V30 4491 C 424.457 1.27155 -3.2082 0
M  V30 4492 C 423.57 0.578655 -4.28107 0
M  V30 4493 C 422.705 1.602 -5.06467 0
M  V30 4494 C 421.744 0.892625 -6.05556 0
M  V30 4495 N 420.881 1.86157 -6.76971 0
M  V30 4496 H 425.721 -0.467848 -2.94305 0
M  V30 4497 H 423.258 -0.242556 -1.45086 0
M  V30 4498 H 425.216 1.88703 -3.72085 0
M  V30 4499 H 423.846 1.939 -2.58075 0
M  V30 4500 H 422.898 -0.150782 -3.80101 0
M  V30 4501 H 424.21 0.0217065 -4.98795 0
M  V30 4502 H 423.364 2.29173 -5.61751 0
M  V30 4503 H 422.103 2.19285 -4.35621 0
M  V30 4504 H 421.108 0.188829 -5.49476 0
M  V30 4505 H 422.333 0.307878 -6.78402 0
M  V30 4506 H 420.279 2.44147 -6.08875 0
M  V30 4507 H 420.196 1.35608 -7.43738 0
M  V30 4508 H 421.464 2.54325 -7.36844 0
M  V30 4509 N 425.693 1.55336 -0.266172 0
M  V30 4510 C 426.603 2.2583 0.635458 0
M  V30 4511 C 427.619 1.28106 1.17749 0
M  V30 4512 O 428.795 1.61024 1.20968 0
M  V30 4513 C 425.86 2.95879 1.80712 0
M  V30 4514 C 424.921 4.09059 1.30265 0
M  V30 4515 C 424.154 4.75759 2.41846 0
M  V30 4516 O 424.377 4.41622 3.61007 0
M  V30 4517 O 423.311 5.63888 2.1051 0
M  V30 4518 H 427.137 3.03631 0.0646693 0
M  V30 4519 H 424.722 1.49361 -0.0339177 0
M  V30 4520 H 426.604 3.39932 2.49047 0
M  V30 4521 H 425.279 2.21002 2.36516 0
M  V30 4522 H 424.186 3.69482 0.586019 0
M  V30 4523 H 425.519 4.85811 0.790458 0
M  V30 4524 N 427.171 -0.0066808 1.57599 0
M  V30 4525 C 428.587 -0.36267 1.55425 0
M  V30 4526 C 428.787 -1.75209 0.995187 0
M  V30 4527 O 427.843 -2.44616 0.626058 0
M  V30 4528 C 429.156 -0.244017 2.99708 0
M  V30 4529 C 430.704 -0.319451 3.11366 0
M  V30 4530 C 431.179 -0.229998 4.57422 0
M  V30 4531 N 432.67 -0.288105 4.62303 0
M  V30 4532 C 433.405 -0.242127 5.72889 0
M  V30 4533 N 432.901 -0.147133 6.92644 0
M  V30 4534 N 434.694 -0.293502 5.61333 0
M  V30 4535 H 426.845 0.902314 1.92281 0
M  V30 4536 H 429.108 0.34525 0.882896 0
M  V30 4537 H 428.814 0.711678 3.44424 0
M  V30 4538 H 428.688 -1.02877 3.629 0
M  V30 4539 H 431.075 -1.26559 2.66584 0
M  V30 4540 H 431.156 0.495055 2.50964 0
M  V30 4541 H 430.8 0.712566 5.02877 0
M  V30 4542 H 430.73 -1.0629 5.15761 0
M  V30 4543 H 433.221 -0.363126 3.76151 0
M  V30 4544 H 433.534 -0.117763 7.7271 0
M  V30 4545 H 431.879 -0.112857 6.94908 0
M  V30 4546 H 435.07 -0.365864 4.66668 0
M  V30 4547 H 435.243 -0.254204 6.47501 0
M  V30 4548 N 428.649 -1.55105 -0.279332 0
M  V30 4549 C 429.596 -1.8755 -1.34513 0
M  V30 4550 C 430.566 -0.726384 -1.49375 0
M  V30 4551 O 431.751 -0.977063 -1.63884 0
M  V30 4552 C 428.891 -2.14738 -2.70151 0
M  V30 4553 C 428.004 -3.42285 -2.63562 0
M  V30 4554 C 427.139 -3.59206 -3.91337 0
M  V30 4555 C 426.178 -4.80467 -3.79233 0
M  V30 4556 N 425.315 -4.94079 -4.98829 0
M  V30 4557 H 430.155 -2.78456 -1.06143 0
M  V30 4558 H 427.692 -1.37867 -0.512936 0
M  V30 4559 H 429.65 -2.28501 -3.49061 0
M  V30 4560 H 428.28 -1.27075 -2.96735 0
M  V30 4561 H 427.332 -3.37029 -1.76397 0
M  V30 4562 H 428.644 -4.31328 -2.50515 0
M  V30 4563 H 427.798 -3.72751 -4.78687 0
M  V30 4564 H 426.537 -2.68337 -4.07243 0
M  V30 4565 H 425.542 -4.66932 -2.90266 0
M  V30 4566 H 426.767 -5.72765 -3.64852 0
M  V30 4567 H 424.713 -4.06139 -5.15158 0
M  V30 4568 H 424.63 -5.77156 -4.8829 0
M  V30 4569 H 425.898 -5.12003 -5.8777 0
M  V30 4570 N 430.127 0.543554 -1.4793 0
M  V30 4571 C 431.376 1.29649 -1.54512 0
M  V30 4572 C 431.689 1.94382 -0.217973 0
M  V30 4573 O 432.895 2.71017 -0.161908 0
M  V30 4574 C 431.351 2.35175 -2.72435 0
M  V30 4575 C 430.959 1.76572 -4.11736 0
M  V30 4576 C 432.703 3.11564 -2.8832 0
M  V30 4577 C 430.61 2.79958 -5.20939 0
M  V30 4578 H 429.54 0.487541 -0.57517 0
M  V30 4579 H 432.191 0.575708 -1.74235 0
M  V30 4580 H 430.573 3.10229 -2.46118 0
M  V30 4581 H 431.747 1.07799 -4.48013 0
M  V30 4582 H 430.062 1.12722 -4.00852 0
M  V30 4583 H 432.659 3.88794 -3.67074 0
M  V30 4584 H 433.002 3.66594 -1.97268 0
M  V30 4585 H 433.535 2.43623 -3.14472 0
M  V30 4586 H 430.274 2.29766 -6.13912 0
M  V30 4587 H 429.794 3.47101 -4.89164 0
M  V30 4588 H 431.473 3.43198 -5.48474 0
M  V30 4589 N 431.605 1.3629 0.791371 0
M  V30 4590 C 432.83 1.33726 1.58531 0
M  V30 4591 C 433.255 -0.0794933 1.87932 0
M  V30 4592 O 432.613 -1.05087 1.47738 0
M  V30 4593 C 432.661 2.16425 2.88431 0
M  V30 4594 O 431.765 1.5554 3.81944 0
M  V30 4595 H 431.106 0.457793 0.480959 0
M  V30 4596 H 433.636 1.79547 0.981031 0
M  V30 4597 H 433.646 2.28933 3.37718 0
M  V30 4598 H 432.321 3.19415 2.66359 0
M  V30 4599 H 430.898 1.51961 3.40532 0
M  V30 4600 N 433.083 -1.0153 1.20538 0
M  V30 4601 C 434.013 -2.11972 0.979295 0
M  V30 4602 C 434.994 -1.6985 -0.0921787 0
M  V30 4603 O 436.179 -1.94089 0.0655932 0
M  V30 4604 C 433.309 -3.43201 0.531984 0
M  V30 4605 C 432.263 -3.9907 1.54685 0
M  V30 4606 C 431.589 -5.26082 0.956127 0
M  V30 4607 C 432.889 -4.32313 2.93092 0
M  V30 4608 H 434.583 -2.31143 1.90298 0
M  V30 4609 H 432.129 -1.11079 0.916372 0
M  V30 4610 H 434.082 -4.1985 0.361044 0
M  V30 4611 H 432.806 -3.23792 -0.427327 0
M  V30 4612 H 431.465 -3.2453 1.70517 0
M  V30 4613 H 431.113 -5.02999 -0.0111538 0
M  V30 4614 H 430.813 -5.64426 1.63393 0
M  V30 4615 H 432.337 -6.05386 0.796284 0
M  V30 4616 H 433.751 -4.99845 2.80763 0
M  V30 4617 H 432.148 -4.81774 3.57791 0
M  V30 4618 H 433.218 -3.41025 3.44717 0
M  V30 4619 N 434.561 -1.01147 -1.20859 0
M  V30 4620 C 435.786 -0.716698 -1.94623 0
M  V30 4621 C 436.211 0.715415 -1.73964 0
M  V30 4622 O 435.569 1.49157 -1.03062 0
M  V30 4623 C 435.617 -1.0513 -3.44935 0
M  V30 4624 O 434.721 -0.160131 -4.12089 0
M  V30 4625 H 434.062 -0.266404 -0.608214 0
M  V30 4626 H 436.592 -1.35346 -1.53436 0
M  V30 4627 H 436.602 -1.00086 -3.95533 0
M  V30 4628 H 435.277 -2.09475 -3.59295 0
M  V30 4629 H 433.854 -0.267657 -3.71938 0
M  V30 4630 N 436.039 1.36541 -0.78704 0
M  V30 4631 C 436.969 2.32659 -0.197992 0
M  V30 4632 C 437.95 1.56533 0.665697 0
M  V30 4633 O 439.135 1.84698 0.60001 0
M  V30 4634 C 436.265 3.40778 0.669901 0
M  V30 4635 C 435.219 4.27897 -0.0937039 0
M  V30 4636 C 434.545 5.27163 0.894629 0
M  V30 4637 C 435.845 5.06334 -1.28154 0
M  V30 4638 H 437.539 2.82171 -1.00099 0
M  V30 4639 H 435.085 1.35665 -0.482793 0
M  V30 4640 H 437.038 4.07008 1.09191 0
M  V30 4641 H 435.762 2.89827 1.50558 0
M  V30 4642 H 434.421 3.6322 -0.49666 0
M  V30 4643 H 434.069 4.72486 1.72527 0
M  V30 4644 H 433.769 5.86317 0.388149 0
M  V30 4645 H 435.293 5.96266 1.31525 0
M  V30 4646 H 436.707 5.65617 -0.93541 0
M  V30 4647 H 435.104 5.74888 -1.72115 0
M  V30 4648 H 436.174 4.38114 -2.07807 0
M  V30 4649 N 437.518 0.538854 1.48102 0
M  V30 4650 C 438.468 -0.23907 2.26743 0
M  V30 4651 C 439.452 -0.901923 1.33245 0
M  V30 4652 O 440.644 -0.803263 1.57723 0
M  V30 4653 C 437.773 -1.2799 3.18549 0
M  V30 4654 C 436.859 -0.621388 4.19523 0
M  V30 4655 N 437.25 0.298004 5.04921 0
M  V30 4656 C 435.548 -0.877533 4.37282 0
M  V30 4657 C 436.249 0.678757 5.77726 0
M  V30 4658 N 435.225 0.0377881 5.43587 0
M  V30 4659 H 439.027 0.468096 2.90148 0
M  V30 4660 H 436.541 0.357497 1.58416 0
M  V30 4661 H 438.538 -1.851 3.73555 0
M  V30 4662 H 437.198 -1.98835 2.567 0
M  V30 4663 H 438.209 0.671126 5.13533 0
M  V30 4664 H 434.886 -1.57588 3.86616 0
M  V30 4665 H 436.276 1.43316 6.56437 0
M  V30 4666 N 438.996 -1.55193 0.274407 0
M  V30 4667 C 440.242 -1.99877 -0.343086 0
M  V30 4668 C 440.575 -1.16256 -1.55558 0
M  V30 4669 O 439.85 -0.232462 -1.93106 0
M  V30 4670 C 440.133 -3.52706 -0.725965 0
M  V30 4671 C 439.986 -4.47081 0.493818 0
M  V30 4672 C 441.305 -4.11422 -1.56268 0
M  V30 4673 H 438.424 -0.726625 -0.123229 0
M  V30 4674 H 441.066 -1.86136 0.38121 0
M  V30 4675 H 439.216 -3.64546 -1.34307 0
M  V30 4676 H 440.888 -4.47186 1.13237 0
M  V30 4677 H 439.131 -4.1877 1.13201 0
M  V30 4678 H 439.802 -5.51699 0.18217 0
M  V30 4679 H 442.278 -4.02855 -1.04151 0
M  V30 4680 H 441.154 -5.18568 -1.79939 0
M  V30 4681 H 441.415 -3.61607 -2.54348 0
M  V30 4682 N 440.474 -0.00167713 -1.576 0
M  V30 4683 C 441.404 0.988091 -2.11563 0
M  V30 4684 C 442.385 1.35736 -1.02517 0
M  V30 4685 O 443.57 1.44082 -1.30208 0
M  V30 4686 C 440.7 2.27941 -2.62031 0
M  V30 4687 C 439.654 2.0517 -3.75619 0
M  V30 4688 C 438.98 3.4033 -4.12407 0
M  V30 4689 C 440.28 1.41294 -5.02825 0
M  V30 4690 H 441.974 0.538771 -2.94513 0
M  V30 4691 H 439.52 0.257712 -1.41675 0
M  V30 4692 H 441.473 2.97539 -2.9841 0
M  V30 4693 H 440.197 2.74989 -1.76205 0
M  V30 4694 H 438.856 1.37998 -3.39635 0
M  V30 4695 H 438.504 3.85085 -3.23603 0
M  V30 4696 H 438.204 3.25909 -4.88935 0
M  V30 4697 H 439.728 4.1124 -4.51347 0
M  V30 4698 H 441.142 2.00851 -5.36965 0
M  V30 4699 H 439.539 1.37356 -5.84169 0
M  V30 4700 H 440.609 0.382362 -4.8339 0
M  V30 4701 N 441.952 1.55251 0.271103 0
M  V30 4702 C 442.899 1.88261 1.33516 0
M  V30 4703 C 443.869 0.734296 1.48988 0
M  V30 4704 O 445.054 0.985741 1.63364 0
M  V30 4705 C 442.194 2.16168 2.69008 0
M  V30 4706 C 441.307 3.43678 2.61743 0
M  V30 4707 C 440.442 3.61276 3.89427 0
M  V30 4708 C 439.481 4.82472 3.7668 0
M  V30 4709 N 438.618 4.96717 4.96202 0
M  V30 4710 H 443.458 2.79015 1.04665 0
M  V30 4711 H 440.995 1.38137 0.505618 0
M  V30 4712 H 442.953 2.30349 3.47844 0
M  V30 4713 H 441.583 1.28646 2.96057 0
M  V30 4714 H 440.635 3.37959 1.74607 0
M  V30 4715 H 441.947 4.3265 2.48224 0
M  V30 4716 H 441.101 3.75284 4.76704 0
M  V30 4717 H 439.84 2.70492 4.05814 0
M  V30 4718 H 438.845 4.68465 2.87786 0
M  V30 4719 H 440.07 5.74692 3.61809 0
M  V30 4720 H 438.016 4.08865 5.12997 0
M  V30 4721 H 437.933 5.79738 4.85222 0
M  V30 4722 H 439.201 5.15113 5.85046 0
M  V30 4723 N 443.43 -0.535701 1.48216 0
M  V30 4724 C 444.658 -1.31671 1.59594 0
M  V30 4725 C 445.073 -1.87083 0.254056 0
M  V30 4726 O 444.43 -1.66112 -0.755854 0
M  V30 4727 C 444.481 -2.47158 2.63809 0
M  V30 4728 O 444.202 -1.94032 3.92789 0
M  V30 4729 C 445.703 -3.39062 2.85573 0
M  V30 4730 H 442.923 -0.400623 0.538277 0
M  V30 4731 H 445.467 -0.646827 1.94001 0
M  V30 4732 H 443.622 -3.10043 2.32276 0
M  V30 4733 H 444.036 -2.69585 4.49916 0
M  V30 4734 H 445.51 -4.16459 3.62306 0
M  V30 4735 H 445.987 -3.93941 1.94184 0
M  V30 4736 H 446.593 -2.81975 3.18387 0
M  V30 4737 N 444.908 -1.36708 -0.784132 0
M  V30 4738 C 445.856 -1.31533 -1.91838 0
M  V30 4739 C 446.85 -0.206205 -1.6814 0
M  V30 4740 O 448.056 -0.373519 -1.76082 0
M  V30 4741 H 444.431 -0.409613 -0.630651 0
M  V30 4742 H 446.402 -2.2731 -1.9332 0
M  V30 4743 C 445.151 -1.12679 -3.28936 0
M  V30 4744 H 444.474 -1.97274 -3.4774 0
M  V30 4745 H 445.914 -1.13106 -4.08636 0
M  V30 4746 C 444.373 0.168281 -3.36479 0
M  V30 4747 O 444.903 1.15625 -3.84699 0
M  V30 4748 N 443.109 0.214762 -2.89805 0
M  V30 4749 H 442.656 -0.589852 -2.50756 0
M  V30 4750 H 442.614 1.08094 -2.95234 0
M  V30 4751 N 446.386 1.0089 -1.21074 0
M  V30 4752 C 447.663 1.71834 -0.934469 0
M  V30 4753 C 448.043 2.0368 0.554753 0
M  V30 4754 O 447.391 1.70742 1.51854 0
M  V30 4755 C 447.601 2.98061 -1.8155 0
M  V30 4756 C 448.949 3.7117 -2.06199 0
M  V30 4757 O 449.973 3.08034 -1.78867 0
M  V30 4758 O 448.832 4.84721 -2.52404 0
M  V30 4759 H 445.926 0.749253 -0.35007 0
M  V30 4760 H 448.472 1.06668 -1.31985 0
M  V30 4761 H 447.244 2.70908 -2.82355 0
M  V30 4762 H 446.867 3.70968 -1.43068 0
M  V30 4763 N 447.864 1.01787 1.20321 0
M  V30 4764 C 449.141 0.622978 1.85414 0
M  V30 4765 C 449.521 -0.898887 1.91006 0
M  V30 4766 O 448.869 -1.79112 1.41884 0
M  V30 4767 C 449.079 1.27226 3.24984 0
M  V30 4768 C 450.427 1.3885 4.01255 0
M  V30 4769 O 451.451 1.22857 3.34342 0
M  V30 4770 O 450.31 1.64705 5.2109 0
M  V30 4771 H 447.404 0.215116 0.798533 0
M  V30 4772 H 449.95 1.11533 1.27901 0
M  V30 4773 H 448.722 2.31209 3.15687 0
M  V30 4774 H 448.345 0.767069 3.90131 0
M  V30 4775 N 449.342 -1.36122 0.79427 0
M  V30 4776 C 450.758 -1.5232 0.476525 0
M  V30 4777 C 450.958 -1.74685 -1.00436 0
M  V30 4778 O 450.014 -1.78115 -1.78973 0
M  V30 4779 C 451.327 -2.70607 1.31119 0
M  V30 4780 C 452.875 -2.8448 1.30537 0
M  V30 4781 C 453.35 -4.05778 2.12387 0
M  V30 4782 N 454.841 -4.12933 2.09859 0
M  V30 4783 C 455.576 -5.05876 2.69957 0
M  V30 4784 N 455.072 -6.04232 3.38934 0
M  V30 4785 N 456.865 -4.98528 2.59665 0
M  V30 4786 H 449.016 -1.1986 1.75349 0
M  V30 4787 H 451.279 -0.585418 0.745647 0
M  V30 4788 H 450.985 -2.60619 2.36158 0
M  V30 4789 H 450.859 -3.64888 0.955843 0
M  V30 4790 H 453.246 -2.93927 0.262876 0
M  V30 4791 H 453.327 -1.91093 1.70051 0
M  V30 4792 H 452.971 -3.97092 3.1667 0
M  V30 4793 H 452.901 -4.98323 1.70242 0
M  V30 4794 H 455.392 -3.42515 1.59662 0
M  V30 4795 H 455.705 -6.71724 3.82109 0
M  V30 4796 H 454.05 -6.04443 3.43036 0
M  V30 4797 H 457.241 -4.20641 2.05375 0
M  V30 4798 H 457.414 -5.70773 3.06793 0
M  V30 4799 N 450.82 -0.546701 -1.47814 0
M  V30 4800 C 451.768 0.220048 -2.31557 0
M  V30 4801 C 452.762 0.919472 -1.42275 0
M  V30 4802 O 453.968 0.841953 -1.59095 0
M  V30 4803 H 450.343 0.0898334 -0.746615 0
M  V30 4804 H 452.314 -0.505589 -2.94086 0
M  V30 4805 C 451.063 1.24353 -3.24702 0
M  V30 4806 H 450.386 0.714758 -3.93359 0
M  V30 4807 H 451.826 1.75112 -3.8615 0
M  V30 4808 C 450.285 2.28593 -2.47481 0
M  V30 4809 O 450.815 3.35334 -2.21165 0
M  V30 4810 N 449.021 2.02244 -2.08676 0
M  V30 4811 H 448.568 1.15455 -2.30278 0
M  V30 4812 H 448.526 2.72207 -1.57323 0
M  V30 4813 N 452.299 1.55045 -0.282633 0
M  V30 4814 C 453.231 2.2023 0.634924 0
M  V30 4815 C 454.244 1.18931 1.11172 0
M  V30 4816 O 455.433 1.4562 1.03233 0
M  V30 4817 C 452.533 2.82041 1.87899 0
M  V30 4818 C 451.706 4.091 1.54776 0
M  V30 4819 C 450.765 4.54887 2.64507 0
M  V30 4820 O 449.791 5.20496 2.30375 0
M  V30 4821 N 450.993 4.25659 3.94709 0
M  V30 4822 H 453.758 2.99601 0.0769811 0
M  V30 4823 H 451.319 1.61565 -0.104048 0
M  V30 4824 H 453.311 3.09613 2.60619 0
M  V30 4825 H 451.881 2.06618 2.3458 0
M  V30 4826 H 451.101 3.88736 0.654049 0
M  V30 4827 H 452.389 4.9187 1.30158 0
M  V30 4828 H 451.787 3.7306 4.25256 0
M  V30 4829 H 450.344 4.57984 4.63782 0
M  V30 4830 N 453.777 0.010035 1.57597 0
M  V30 4831 C 455.005 -0.683413 1.95287 0
M  V30 4832 C 455.42 -1.66747 0.885481 0
M  V30 4833 O 454.777 -1.82003 -0.134629 0
M  V30 4834 C 454.828 -1.40652 3.33015 0
M  V30 4835 O 454.549 -0.461916 4.35658 0
M  V30 4836 C 456.05 -2.19356 3.85225 0
M  V30 4837 H 453.27 -0.189708 0.643624 0
M  V30 4838 H 455.814 0.0641359 2.04399 0
M  V30 4839 H 453.969 -2.10562 3.2518 0
M  V30 4840 H 454.383 -0.973215 5.15392 0
M  V30 4841 H 455.857 -2.65433 4.83993 0
M  V30 4842 H 456.334 -3.02457 3.18459 0
M  V30 4843 H 456.94 -1.54442 3.96267 0
M  V30 4844 N 455.255 -1.55392 -0.262866 0
M  V30 4845 C 456.218 -1.88181 -1.30846 0
M  V30 4846 C 457.218 -0.757079 -1.41862 0
M  V30 4847 O 458.408 -1.02519 -1.40838 0
M  V30 4848 C 455.54 -2.09609 -2.68844 0
M  V30 4849 H 456.733 -2.81659 -1.02997 0
M  V30 4850 H 454.286 -1.48039 -0.501414 0
M  V30 4851 H 455.021 -1.18547 -3.01856 0
M  V30 4852 H 454.806 -2.91508 -2.62231 0
M  V30 4853 H 456.296 -2.36215 -3.44372 0
M  V30 4854 N 456.733 0.527833 -1.48498 0
M  V30 4855 C 457.681 1.65313 -1.63628 0
M  V30 4856 C 458.675 1.6177 -0.502676 0
M  V30 4857 O 459.881 1.66601 -0.681469 0
M  V30 4858 H 456.256 0.547518 -0.515488 0
M  V30 4859 H 458.227 1.49696 -2.58135 0
M  V30 4860 C 456.976 3.03576 -1.6952 0
M  V30 4861 H 456.299 3.06997 -2.56111 0
M  V30 4862 H 457.739 3.81923 -1.84149 0
M  V30 4863 C 456.198 3.34089 -0.43432 0
M  V30 4864 O 456.728 3.99151 0.451852 0
M  V30 4865 N 454.934 2.88991 -0.305368 0
M  V30 4866 H 454.481 2.36222 -1.02747 0
M  V30 4867 H 454.439 3.09776 0.537249 0
M  V30 4868 N 458.211 1.37122 0.776871 0
M  V30 4869 C 459.141 1.35164 1.90402 0
M  V30 4870 C 460.122 0.221069 1.68657 0
M  V30 4871 O 461.307 0.420642 1.8959 0
M  V30 4872 C 458.437 1.15274 3.27611 0
M  V30 4873 C 457.391 2.25289 3.63908 0
M  V30 4874 C 456.717 1.90527 4.99603 0
M  V30 4875 C 458.017 3.67446 3.71188 0
M  V30 4876 H 459.711 2.29482 1.92297 0
M  V30 4877 H 457.257 1.10465 0.923773 0
M  V30 4878 H 459.21 1.12536 4.06096 0
M  V30 4879 H 457.934 0.174102 3.26136 0
M  V30 4880 H 456.593 2.27174 2.87728 0
M  V30 4881 H 456.241 0.91206 4.94662 0
M  V30 4882 H 455.941 2.64193 5.24858 0
M  V30 4883 H 457.465 1.89367 5.80493 0
M  V30 4884 H 458.879 3.67719 4.39836 0
M  V30 4885 H 457.276 4.40123 4.07936 0
M  V30 4886 H 458.346 4.01443 2.71977 0
M  V30 4887 N 459.689 -1.00246 1.21608 0
M  V30 4888 C 460.917 -1.77631 1.06089 0
M  V30 4889 C 461.332 -1.84746 -0.38916 0
M  V30 4890 O 460.689 -1.31068 -1.26994 0
M  V30 4891 C 460.74 -3.21415 1.65453 0
M  V30 4892 O 460.461 -3.14703 3.04785 0
M  V30 4893 C 461.962 -4.15289 1.55079 0
M  V30 4894 H 459.182 -0.558162 0.37242 0
M  V30 4895 H 461.726 -1.26093 1.60999 0
M  V30 4896 H 459.881 -3.70053 1.14629 0
M  V30 4897 H 460.295 -4.05056 3.33212 0
M  V30 4898 H 461.769 -5.13965 2.01355 0
M  V30 4899 H 462.246 -4.36279 0.505665 0
M  V30 4900 H 462.852 -3.72543 2.05163 0
M  V30 4901 N 461.167 -1.02423 -1.1978 0
M  V30 4902 C 462.115 -0.594474 -2.24875 0
M  V30 4903 C 463.109 0.370598 -1.65296 0
M  V30 4904 O 464.315 0.239684 -1.78397 0
M  V30 4905 H 460.69 -0.173961 -0.731602 0
M  V30 4906 H 462.661 -1.4916 -2.58445 0
M  V30 4907 C 461.41 0.0436512 -3.47673 0
M  V30 4908 H 460.733 -0.689963 -3.93801 0
M  V30 4909 H 462.173 0.307362 -4.22884 0
M  V30 4910 C 460.632 1.28881 -3.11274 0
M  V30 4911 O 461.162 2.38135 -3.23503 0
M  V30 4912 N 459.368 1.1758 -2.6575 0
M  V30 4913 H 458.915 0.286769 -2.55999 0
M  V30 4914 H 458.873 2.00988 -2.41767 0
M  V30 4915 N 462.645 1.35699 -0.801477 0
M  V30 4916 C 463.577 2.28598 -0.166028 0
M  V30 4917 C 464.59 1.50044 0.631721 0
M  V30 4918 O 465.779 1.72339 0.464921 0
M  V30 4919 C 462.879 3.29625 0.787451 0
M  V30 4920 C 462.052 4.37384 0.037171 0
M  V30 4921 C 461.111 5.183 0.908375 0
M  V30 4922 O 460.137 5.68053 0.361189 0
M  V30 4923 N 461.339 5.35912 2.23112 0
M  V30 4924 H 464.104 2.83771 -0.964071 0
M  V30 4925 H 461.665 1.47994 -0.656469 0
M  V30 4926 H 463.657 3.80648 1.37439 0
M  V30 4927 H 462.227 2.75004 1.48632 0
M  V30 4928 H 461.447 3.87364 -0.730935 0
M  V30 4929 H 462.735 5.0653 -0.480109 0
M  V30 4930 H 462.133 4.97125 2.69968 0
M  V30 4931 H 460.69 5.90133 2.76741 0
M  V30 4932 N 464.123 0.554532 1.47522 0
M  V30 4933 C 465.371 0.0294208 2.02079 0
M  V30 4934 C 465.692 -1.32411 1.43151 0
M  V30 4935 O 464.962 -1.863 0.605728 0
M  V30 4936 H 463.542 0.00788672 0.746958 0
M  V30 4937 H 466.204 0.723934 1.80956 0
M  V30 4938 H 465.3 -0.0606745 3.12041 0
M  V30 4939 N 465.601 -1.54893 0.290851 0
M  V30 4940 C 466.548 -2.23138 -0.58974 0
M  V30 4941 C 467.518 -1.21036 -1.13752 0
M  V30 4942 O 468.703 -1.49626 -1.18392 0
M  V30 4943 C 465.843 -2.96811 -1.76061 0
M  V30 4944 C 464.956 -4.13665 -1.24519 0
M  V30 4945 C 464.091 -4.74944 -2.3791 0
M  V30 4946 C 463.13 -5.83963 -1.83451 0
M  V30 4947 N 462.267 -6.39239 -2.90376 0
M  V30 4948 H 467.107 -2.98 -0.00114915 0
M  V30 4949 H 464.644 -1.47096 0.0112006 0
M  V30 4950 H 466.602 -3.37751 -2.44909 0
M  V30 4951 H 465.232 -2.24344 -2.32098 0
M  V30 4952 H 464.284 -3.77737 -0.449288 0
M  V30 4953 H 465.596 -4.92238 -0.806424 0
M  V30 4954 H 464.75 -5.18684 -3.14724 0
M  V30 4955 H 463.489 -3.95682 -2.85109 0
M  V30 4956 H 462.494 -5.39657 -1.05122 0
M  V30 4957 H 463.719 -6.65103 -1.37169 0
M  V30 4958 H 461.665 -5.62864 -3.36927 0
M  V30 4959 H 461.582 -7.13129 -2.50965 0
M  V30 4960 H 462.85 -6.87637 -3.67118 0
M  V30 4961 N 467.08 -0.0183926 -1.57589 0
M  V30 4962 C 468.028 0.985111 -2.10709 0
M  V30 4963 C 469.022 1.34397 -1.0312 0
M  V30 4964 O 470.228 1.32746 -1.21567 0
M  V30 4965 H 466.603 0.335418 -0.673052 0
M  V30 4966 H 468.574 0.511689 -2.9398 0
M  V30 4967 C 467.323 2.26202 -2.64061 0
M  V30 4968 H 466.646 1.9946 -3.4649 0
M  V30 4969 H 468.086 2.94652 -3.04887 0
M  V30 4970 C 466.545 2.98444 -1.5631 0
M  V30 4971 O 467.075 3.90142 -0.956674 0
M  V30 4972 N 465.281 2.6059 -1.28612 0
M  V30 4973 H 464.828 1.86101 -1.78112 0
M  V30 4974 H 464.786 3.09238 -0.567406 0
M  V30 4975 N 468.558 1.5553 0.254621 0
M  V30 4976 C 469.804 1.77262 0.985193 0
M  V30 4977 C 470.137 0.582286 1.85265 0
M  V30 4978 O 469.412 -0.419666 1.89919 0
M  V30 4979 C 469.695 3.0881 1.85225 0
M  V30 4980 C 469.548 4.38233 1.0135 0
M  V30 4981 C 470.867 3.3653 2.83612 0
M  V30 4982 H 467.986 0.644906 0.356742 0
M  V30 4983 H 470.628 1.88264 0.256236 0
M  V30 4984 H 468.778 2.99562 2.47376 0
M  V30 4985 H 470.45 4.59463 0.411269 0
M  V30 4986 H 468.693 4.32636 0.317574 0
M  V30 4987 H 469.364 5.26644 1.65379 0
M  V30 4988 H 471.84 3.45691 2.31596 0
M  V30 4989 H 470.716 4.29805 3.41407 0
M  V30 4990 H 470.977 2.57064 3.59681 0
M  V30 4991 N 470.036 -0.519951 1.48776 0
M  V30 4992 C 471.264 -1.29971 1.60982 0
M  V30 4993 C 471.679 -1.86803 0.273885 0
M  V30 4994 O 471.036 -1.66904 -0.738193 0
M  V30 4995 C 471.087 -2.44346 2.66415 0
M  V30 4996 O 470.808 -1.89855 3.94825 0
M  V30 4997 C 472.309 -3.36014 2.89153 0
M  V30 4998 H 469.529 -0.394891 0.542496 0
M  V30 4999 H 472.073 -0.626214 1.94676 0
M  V30 5000 H 470.228 -3.07562 2.35552 0
M  V30 5001 H 470.642 -2.64798 4.5275 0
M  V30 5002 H 472.116 -4.12593 3.66703 0
M  V30 5003 H 472.593 -3.91859 1.98351 0
M  V30 5004 H 473.199 -2.78582 3.21359 0
M  V30 5005 N 471.514 -1.37532 -0.769588 0
M  V30 5006 C 472.461 -1.3347 -1.88293 0
M  V30 5007 C 473.431 -0.199891 -1.64893 0
M  V30 5008 O 474.616 -0.389594 -1.8678 0
M  V30 5009 C 471.756 -1.14968 -3.25387 0
M  V30 5010 C 470.869 -2.37698 -3.60727 0
M  V30 5011 C 470.004 -2.12051 -4.8704 0
M  V30 5012 C 469.043 -3.30636 -5.15117 0
M  V30 5013 N 468.18 -3.04527 -6.3262 0
M  V30 5014 H 473.02 -2.28658 -1.911 0
M  V30 5015 H 470.557 -1.13622 -0.934257 0
M  V30 5016 H 472.515 -1.02261 -4.04473 0
M  V30 5017 H 471.145 -0.234263 -3.21949 0
M  V30 5018 H 470.197 -2.61137 -2.76608 0
M  V30 5019 H 471.509 -3.26131 -3.77413 0
M  V30 5020 H 470.663 -1.96388 -5.74035 0
M  V30 5021 H 469.402 -1.20959 -4.72462 0
M  V30 5022 H 468.407 -3.46836 -4.26597 0
M  V30 5023 H 469.632 -4.22582 -5.31603 0
M  V30 5024 H 467.578 -2.16067 -6.19396 0
M  V30 5025 H 467.495 -3.86503 -6.49732 0
M  V30 5026 H 468.763 -2.92485 -7.22546 0
M  V30 5027 N 472.992 0.995999 -1.22138 0
M  V30 5028 C 473.94 2.10673 -0.985876 0
M  V30 5029 C 474.934 1.69255 0.0699553 0
M  V30 5030 O 476.14 1.79812 -0.0822176 0
M  V30 5031 H 472.515 0.688865 -0.30161 0
M  V30 5032 H 474.486 2.27711 -1.92848 0
M  V30 5033 C 473.235 3.42881 -0.576909 0
M  V30 5034 H 472.558 3.75191 -1.38101 0
M  V30 5035 H 473.998 4.21589 -0.451518 0
M  V30 5036 C 472.457 3.29265 0.713196 0
M  V30 5037 O 472.987 3.60777 1.76643 0
M  V30 5038 N 471.193 2.82456 0.683162 0
M  V30 5039 H 470.74 2.5701 -0.174242 0
M  V30 5040 H 470.698 2.73727 1.54663 0
M  V30 5041 N 474.47 1.03057 1.19235 0
M  V30 5042 C 475.716 0.729098 1.89241 0
M  V30 5043 C 476.049 -0.740573 1.79525 0
M  V30 5044 O 475.324 -1.53946 1.18874 0
M  V30 5045 C 475.607 1.18304 3.40112 0
M  V30 5046 C 475.46 2.71406 3.5869 0
M  V30 5047 C 476.779 0.765161 4.33397 0
M  V30 5048 H 473.898 0.266338 0.687192 0
M  V30 5049 H 476.54 1.28079 1.40341 0
M  V30 5050 H 474.69 0.713672 3.81889 0
M  V30 5051 H 476.362 3.26303 3.26074 0
M  V30 5052 H 474.605 3.11717 3.01687 0
M  V30 5053 H 475.276 2.98225 4.64506 0
M  V30 5054 H 477.752 1.16889 3.99345 0
M  V30 5055 H 476.628 1.11065 5.37546 0
M  V30 5056 H 476.889 -0.332372 4.40849 0
M  V30 5057 N 475.948 -1.35272 0.808662 0
M  V30 5058 C 477.176 -2.02946 0.402537 0
M  V30 5059 C 477.591 -1.60937 -0.987147 0
M  V30 5060 O 476.948 -0.807917 -1.63643 0
M  V30 5061 C 476.999 -3.58317 0.47868 0
M  V30 5062 O 476.72 -3.98799 1.81358 0
M  V30 5063 C 478.221 -4.43251 0.0656281 0
M  V30 5064 H 475.441 -0.650831 0.163279 0
M  V30 5065 H 477.985 -1.72849 1.09286 0
M  V30 5066 H 476.14 -3.87055 -0.163415 0
M  V30 5067 H 476.554 -4.93451 1.77781 0
M  V30 5068 H 478.028 -5.51738 0.170017 0
M  V30 5069 H 478.505 -4.27913 -0.989278 0
M  V30 5070 H 479.111 -4.19813 0.68096 0
M  V30 5071 N 477.426 -0.562348 -1.47226 0
M  V30 5072 C 478.674 -0.0401371 -2.0206 0
M  V30 5073 C 478.995 1.3165 -1.43852 0
M  V30 5074 O 478.265 1.85976 -0.615599 0
M  V30 5075 H 476.845 -0.0118479 -0.746906 0
M  V30 5076 H 479.507 -0.73352 -1.8057 0
M  V30 5077 H 478.603 0.0441254 -3.12069 0
M  V30 5078 N 478.904 1.54736 -0.299062 0
M  V30 5079 C 480.151 2.00101 0.310784 0
M  V30 5080 C 480.479 1.18746 1.54045 0
M  V30 5081 O 479.734 0.251198 1.94081 0
M  V30 5082 C 480.033 3.50199 0.713835 0
M  V30 5083 C 479.699 4.48997 -0.413873 0
M  V30 5084 C 478.361 4.7573 -0.723462 0
M  V30 5085 C 480.713 5.07839 -1.17257 0
M  V30 5086 C 478.041 5.5857 -1.79491 0
M  V30 5087 C 480.393 5.91844 -2.23392 0
M  V30 5088 C 479.057 6.16889 -2.54959 0
M  V30 5089 H 478.327 0.732221 0.113724 0
M  V30 5090 H 480.974 1.86888 -0.417756 0
M  V30 5091 H 479.279 3.61012 1.52243 0
M  V30 5092 H 480.976 3.82723 1.19684 0
M  V30 5093 H 477.566 4.28292 -0.162476 0
M  V30 5094 H 481.75 4.87188 -0.946651 0
M  V30 5095 H 477.006 5.76213 -2.04423 0
M  V30 5096 H 481.18 6.36465 -2.8264 0
M  V30 5097 H 478.807 6.80869 -3.38114 0
M  V30 5098 N 480.382 0.0267497 1.57577 0
M  V30 5099 C 481.629 -0.652404 1.91703 0
M  V30 5100 C 481.957 -1.72271 0.902936 0
M  V30 5101 O 481.212 -1.955 -0.0884843 0
M  V30 5102 C 481.511 -1.30914 3.3256 0
M  V30 5103 C 481.177 -0.369441 4.49384 0
M  V30 5104 C 479.839 -0.110791 4.81072 0
M  V30 5105 C 482.191 0.275971 5.20469 0
M  V30 5106 C 479.519 0.801116 5.81205 0
M  V30 5107 C 481.871 1.17592 6.21575 0
M  V30 5108 C 480.535 1.44348 6.51705 0
M  V30 5109 H 479.805 -0.238732 0.70149 0
M  V30 5110 H 482.452 0.0880091 1.91298 0
M  V30 5111 H 480.757 -2.12425 3.29216 0
M  V30 5112 H 482.454 -1.84115 3.56234 0
M  V30 5113 H 479.044 -0.581211 4.24641 0
M  V30 5114 H 483.228 0.0892 4.9622 0
M  V30 5115 H 478.484 1.01614 6.02897 0
M  V30 5116 H 482.658 1.68223 6.75777 0
M  V30 5117 H 480.285 2.15176 7.29111 0
M  V30 5118 N 481.861 -1.55662 -0.24637 0
M  V30 5119 C 482.793 -1.86811 -1.32794 0
M  V30 5120 C 483.806 -0.754413 -1.44265 0
M  V30 5121 O 484.995 -1.03253 -1.45606 0
M  V30 5122 C 482.095 -2.0397 -2.70646 0
M  V30 5123 C 481.268 -3.34832 -2.81436 0
M  V30 5124 C 480.327 -3.41727 -4.00136 0
M  V30 5125 O 479.353 -4.14934 -3.89639 0
M  V30 5126 N 480.555 -2.71058 -5.1333 0
M  V30 5127 H 483.32 -2.80174 -1.06409 0
M  V30 5128 H 480.881 -1.55906 -0.43647 0
M  V30 5129 H 482.873 -2.05924 -3.48393 0
M  V30 5130 H 481.443 -1.1735 -2.89738 0
M  V30 5131 H 480.663 -3.4519 -1.90361 0
M  V30 5132 H 481.951 -4.21085 -2.85595 0
M  V30 5133 H 481.349 -2.11314 -5.2475 0
M  V30 5134 H 479.906 -2.78704 -5.89209 0
M  V30 5135 N 483.339 0.512053 -1.4905 0
M  V30 5136 C 484.564 1.2959 -1.6193 0
M  V30 5137 C 484.989 1.85906 -0.286454 0
M  V30 5138 O 484.347 1.65312 0.744426 0
M  V30 5139 C 484.395 2.40987 -2.68249 0
M  V30 5140 O 483.499 3.44531 -2.26654 0
M  V30 5141 H 482.84 0.383053 -0.542371 0
M  V30 5142 H 485.37 0.614231 -1.95162 0
M  V30 5143 H 485.38 2.86913 -2.90078 0
M  V30 5144 H 484.055 1.99361 -3.65004 0
M  V30 5145 H 482.632 3.046 -2.15112 0
M  V30 5146 N 484.817 1.37938 0.762283 0
M  V30 5147 C 485.747 1.37176 1.88958 0
M  V30 5148 C 486.728 0.238945 1.68413 0
M  V30 5149 O 487.913 0.440726 1.89133 0
M  V30 5150 C 485.043 1.18742 3.2637 0
M  V30 5151 C 483.997 2.29136 3.61498 0
M  V30 5152 C 483.323 1.95816 4.97554 0
M  V30 5153 C 484.623 3.71363 3.6727 0
M  V30 5154 H 486.317 2.31509 1.89853 0
M  V30 5155 H 483.863 1.11438 0.912005 0
M  V30 5156 H 485.816 1.16837 4.04879 0
M  V30 5157 H 484.54 0.208683 3.25933 0
M  V30 5158 H 483.199 2.30213 2.85303 0
M  V30 5159 H 482.847 0.964475 4.93667 0
M  V30 5160 H 482.547 2.69745 5.22026 0
M  V30 5161 H 484.071 1.95513 5.78452 0
M  V30 5162 H 485.485 3.72364 4.35911 0
M  V30 5163 H 483.882 4.44425 4.03245 0
M  V30 5164 H 484.952 4.04305 2.67704 0
M  V30 5165 N 486.295 -0.989507 1.22664 0
M  V30 5166 C 487.242 -2.08024 0.999733 0
M  V30 5167 C 488.212 -1.65909 -0.0797047 0
M  V30 5168 O 489.397 -1.90669 0.0705715 0
M  V30 5169 C 486.537 -3.40067 0.587234 0
M  V30 5170 C 485.65 -3.95505 1.73781 0
M  V30 5171 C 484.785 -5.15722 1.27297 0
M  V30 5172 C 483.824 -5.63305 2.39488 0
M  V30 5173 N 482.961 -6.74758 1.94026 0
M  V30 5174 H 487.801 -2.26768 1.9334 0
M  V30 5175 H 485.338 -1.11171 0.963297 0
M  V30 5176 H 487.296 -4.15899 0.329227 0
M  V30 5177 H 485.926 -3.21314 -0.309426 0
M  V30 5178 H 484.978 -3.16513 2.11006 0
M  V30 5179 H 486.29 -4.26797 2.58158 0
M  V30 5180 H 485.444 -5.98854 0.972546 0
M  V30 5181 H 484.183 -4.86061 0.399445 0
M  V30 5182 H 483.188 -4.78759 2.70315 0
M  V30 5183 H 484.413 -5.94988 3.27362 0
M  V30 5184 H 482.359 -6.46874 1.09041 0
M  V30 5185 H 482.276 -7.05386 2.71968 0
M  V30 5186 H 483.544 -7.61387 1.67062 0
M  V30 5187 N 487.773 -1.03688 -1.18687 0
M  V30 5188 C 488.998 -0.757819 -1.93059 0
M  V30 5189 C 489.423 0.678353 -1.75442 0
M  V30 5190 O 488.781 1.46938 -1.06203 0
M  V30 5191 C 488.829 -1.12423 -3.42627 0
M  V30 5192 O 487.933 -0.247505 -4.11657 0
M  V30 5193 H 487.274 -0.279245 -0.602427 0
M  V30 5194 H 489.804 -1.3857 -1.5053 0
M  V30 5195 H 489.814 -1.08454 -3.93322 0
M  V30 5196 H 488.489 -2.17049 -3.54771 0
M  V30 5197 H 487.066 -0.34649 -3.71287 0
M  V30 5198 N 489.251 1.34841 -0.815825 0
M  V30 5199 C 490.5 1.97755 -0.396976 0
M  V30 5200 C 490.813 1.65422 1.04379 0
M  V30 5201 O 492.019 2.21771 1.5662 0
M  V30 5202 C 490.475 3.53818 -0.658869 0
M  V30 5203 C 490.083 3.95051 -2.11278 0
M  V30 5204 C 491.827 4.23397 -0.305834 0
M  V30 5205 C 489.734 5.43997 -2.31994 0
M  V30 5206 H 488.664 0.739985 -0.1447 0
M  V30 5207 H 491.315 1.53781 -1.00118 0
M  V30 5208 H 489.697 3.95997 0.0154112 0
M  V30 5209 H 490.871 3.63998 -2.82564 0
M  V30 5210 H 489.186 3.38388 -2.42657 0
M  V30 5211 H 491.783 5.32899 -0.43854 0
M  V30 5212 H 492.126 4.09508 0.748952 0
M  V30 5213 H 492.659 3.8667 -0.934403 0
M  V30 5214 H 489.398 5.62865 -3.35952 0
M  V30 5215 H 488.918 5.76589 -1.65244 0
M  V30 5216 H 490.597 6.10584 -2.14001 0
M  V30 5217 N 490.729 0.570148 1.46925 0
M  V30 5218 C 491.659 -0.158274 2.32963 0
M  V30 5219 C 492.64 -0.896093 1.44583 0
M  V30 5220 O 493.825 -0.874022 1.7342 0
M  V30 5221 C 490.955 -1.18055 3.26619 0
M  V30 5222 C 489.909 -0.558379 4.24342 0
M  V30 5223 C 489.235 -1.68623 5.07415 0
M  V30 5224 C 490.535 0.496295 5.19937 0
M  V30 5225 H 492.229 0.560046 2.94115 0
M  V30 5226 H 489.775 0.270775 1.41431 0
M  V30 5227 H 491.728 -1.69841 3.85658 0
M  V30 5228 H 490.452 -1.92899 2.63548 0
M  V30 5229 H 489.111 -0.0617157 3.66548 0
M  V30 5230 H 488.759 -2.42402 4.40738 0
M  V30 5231 H 488.459 -1.27564 5.73586 0
M  V30 5232 H 489.983 -2.20709 5.69315 0
M  V30 5233 H 491.397 0.0640052 5.73264 0
M  V30 5234 H 489.794 0.82649 5.94381 0
M  V30 5235 H 490.864 1.38735 4.6463 0
M  V30 5236 N 492.207 -1.54576 0.307264 0
M  V30 5237 C 493.435 -2.04675 -0.302597 0
M  V30 5238 C 493.85 -1.18425 -1.47041 0
M  V30 5239 O 493.207 -0.211257 -1.81273 0
M  V30 5240 C 493.258 -3.53575 -0.752801 0
M  V30 5241 O 492.979 -4.36547 0.368536 0
M  V30 5242 C 494.48 -4.19699 -1.42717 0
M  V30 5243 H 491.7 -0.66786 -0.0648374 0
M  V30 5244 H 494.244 -1.99516 0.448716 0
M  V30 5245 H 492.399 -3.59074 -1.45412 0
M  V30 5246 H 492.813 -5.24497 0.0168937 0
M  V30 5247 H 494.287 -5.25388 -1.69327 0
M  V30 5248 H 494.764 -3.69815 -2.36925 0
M  V30 5249 H 495.37 -4.18293 -0.768856 0
M  V30 5250 N 493.685 -0.035106 -1.57561 0
M  V30 5251 C 494.633 0.962707 -2.11742 0
M  V30 5252 C 495.627 1.33296 -1.0454 0
M  V30 5253 O 496.833 1.31449 -1.22968 0
M  V30 5254 H 493.208 0.32826 -0.676572 0
M  V30 5255 H 495.179 0.48048 -2.94506 0
M  V30 5256 C 493.928 2.23388 -2.66445 0
M  V30 5257 H 493.251 1.95774 -3.48587 0
M  V30 5258 H 494.691 2.91402 -3.07995 0
M  V30 5259 C 493.15 2.96769 -1.59467 0
M  V30 5260 O 493.68 3.89105 -0.998 0
M  V30 5261 N 491.886 2.59212 -1.31369 0
M  V30 5262 H 491.433 1.84202 -1.80076 0
M  V30 5263 H 491.391 3.08618 -0.600173 0
M  V30 5264 N 495.163 1.55791 0.238111 0
M  V30 5265 C 496.574 1.68383 0.806472 0
M  V30 5266 C 496.925 0.634157 1.85669 0
M  V30 5267 O 496.05 -0.217913 2.153 0
M  V30 5268 C 496.645 3.05268 1.46959 0
M  V30 5269 C 495.204 3.1977 1.98555 0
M  V30 5270 C 494.351 2.64279 0.839763 0
M  V30 5271 H 497.302 1.58694 0.0137535 0
M  V30 5272 H 497.323 3.00203 2.33792 0
M  V30 5273 H 496.835 3.81643 0.704993 0
M  V30 5274 H 494.936 2.48234 2.77868 0
M  V30 5275 H 495.049 4.26788 2.17689 0
M  V30 5276 H 493.413 2.22329 1.24265 0
M  V30 5277 H 494.196 3.43187 0.0881032 0
M  V30 5278 N 496.642 -0.504142 1.49319 0
M  V30 5279 C 497.572 -1.61473 1.68667 0
M  V30 5280 C 498.553 -1.61455 0.535378 0
M  V30 5281 O 499.738 -1.78245 0.770868 0
M  V30 5282 C 496.868 -2.99971 1.75028 0
M  V30 5283 C 495.822 -3.14854 2.89916 0
M  V30 5284 C 495.148 -4.54671 2.81387 0
M  V30 5285 C 496.448 -2.95176 4.30893 0
M  V30 5286 H 498.142 -1.45535 2.61648 0
M  V30 5287 H 495.688 -0.698711 1.25913 0
M  V30 5288 H 497.641 -3.77562 1.8715 0
M  V30 5289 H 496.365 -3.1699 0.786441 0
M  V30 5290 H 495.024 -2.39687 2.77391 0
M  V30 5291 H 494.672 -4.68562 1.82917 0
M  V30 5292 H 494.372 -4.6557 3.58494 0
M  V30 5293 H 495.896 -5.34327 2.95512 0
M  V30 5294 H 497.31 -3.62538 4.44116 0
M  V30 5295 H 495.707 -3.17549 5.09198 0
M  V30 5296 H 496.777 -1.91332 4.45556 0
M  V30 5297 N 498.12 -1.38341 -0.754957 0
M  V30 5298 C 499.35 -1.37504 -1.54195 0
M  V30 5299 C 499.758 0.0373787 -1.89163 0
M  V30 5300 O 499.101 1.01402 -1.53178 0
M  V30 5301 C 499.163 -2.16488 -2.87008 0
M  V30 5302 C 498.827 -3.65311 -2.74585 0
M  V30 5303 C 499.824 -4.58834 -2.44474 0
M  V30 5304 C 497.509 -4.08649 -2.9208 0
M  V30 5305 C 499.503 -5.93675 -2.32011 0
M  V30 5306 C 497.19 -5.43571 -2.79237 0
M  V30 5307 C 498.188 -6.35898 -2.49245 0
M  V30 5308 O 497.876 -7.68338 -2.36458 0
M  V30 5309 H 497.608 -0.472159 -0.483779 0
M  V30 5310 H 500.162 -1.82515 -0.94221 0
M  V30 5311 H 498.392 -1.66194 -3.49166 0
M  V30 5312 H 500.081 -2.08076 -3.4851 0
M  V30 5313 H 500.847 -4.26657 -2.30627 0
M  V30 5314 H 496.726 -3.37134 -3.14422 0
M  V30 5315 H 500.27 -6.65706 -2.08522 0
M  V30 5316 H 496.167 -5.75345 -2.92657 0
M  V30 5317 H 496.935 -7.78845 -2.5168 0
M  V30 5318 N 499.598 0.982988 -1.23187 0
M  V30 5319 C 500.844 1.72648 -1.06398 0
M  V30 5320 C 501.177 1.90066 0.398561 0
M  V30 5321 O 500.452 1.45105 1.29518 0
M  V30 5322 C 500.735 3.12627 -1.78707 0
M  V30 5323 C 500.588 3.02795 -3.32618 0
M  V30 5324 C 501.907 4.11997 -1.54747 0
M  V30 5325 H 499.026 0.626649 -0.387918 0
M  V30 5326 H 501.668 1.14455 -1.51658 0
M  V30 5327 H 499.818 3.62308 -1.40234 0
M  V30 5328 H 501.49 2.60659 -3.80598 0
M  V30 5329 H 499.733 2.39362 -3.61785 0
M  V30 5330 H 500.404 4.01893 -3.78399 0
M  V30 5331 H 502.88 3.71114 -1.88186 0
M  V30 5332 H 501.756 5.08037 -2.07821 0
M  V30 5333 H 502.017 4.39462 -0.482249 0
M  V30 5334 N 501.076 1.04316 1.18135 0
M  V30 5335 C 502.325 0.74319 1.87509 0
M  V30 5336 C 502.638 -0.732136 1.81381 0
M  V30 5337 O 503.844 -1.14572 2.46141 0
M  V30 5338 C 502.3 1.27913 3.36402 0
M  V30 5339 C 501.908 2.78326 3.51053 0
M  V30 5340 C 503.652 1.0558 4.11161 0
M  V30 5341 C 501.559 3.25266 4.93919 0
M  V30 5342 H 500.489 0.274313 0.702331 0
M  V30 5343 H 503.14 1.25931 1.33467 0
M  V30 5344 H 501.522 0.690853 3.89927 0
M  V30 5345 H 502.696 3.42933 3.07788 0
M  V30 5346 H 501.011 2.991 2.89704 0
M  V30 5347 H 503.608 1.38161 5.16542 0
M  V30 5348 H 503.951 -0.00684729 4.16299 0
M  V30 5349 H 504.484 1.60882 3.63816 0
M  V30 5350 H 501.223 4.30922 4.9395 0
M  V30 5351 H 500.743 2.65396 5.3789 0
M  V30 5352 H 502.422 3.19433 5.62647 0
M  V30 5353 N 502.554 -1.34406 0.822964 0
M  V30 5354 C 503.801 -1.98284 0.411057 0
M  V30 5355 C 504.129 -1.65245 -1.02588 0
M  V30 5356 O 503.384 -0.91619 -1.72929 0
M  V30 5357 C 503.683 -3.52981 0.560268 0
M  V30 5358 C 503.349 -4.05931 1.96293 0
M  V30 5359 C 502.011 -4.20103 2.34664 0
M  V30 5360 C 504.363 -4.34412 2.87985 0
M  V30 5361 C 501.691 -4.60082 3.64062 0
M  V30 5362 C 504.043 -4.75838 4.16847 0
M  V30 5363 C 502.707 -4.88215 4.55195 0
M  V30 5364 H 501.977 -0.725573 0.150416 0
M  V30 5365 H 504.624 -1.60349 1.04692 0
M  V30 5366 H 502.929 -3.91477 -0.158982 0
M  V30 5367 H 504.626 -4.00385 0.222087 0
M  V30 5368 H 501.216 -3.95363 1.65487 0
M  V30 5369 H 505.4 -4.23001 2.59584 0
M  V30 5370 H 500.656 -4.67856 3.93599 0
M  V30 5371 H 504.83 -4.96834 4.87984 0
M  V30 5372 H 502.457 -5.18952 5.55512 0
M  V30 5373 N 504.032 -0.577932 -1.46621 0
M  V30 5374 C 504.962 0.145917 -2.33044 0
M  V30 5375 C 505.943 0.888412 -1.45056 0
M  V30 5376 O 507.128 0.864812 -1.73881 0
M  V30 5377 C 504.258 1.16322 -3.27241 0
M  V30 5378 C 503.212 0.535868 -4.24632 0
M  V30 5379 C 502.538 1.65929 -5.08303 0
M  V30 5380 C 503.838 -0.523861 -5.19666 0
M  V30 5381 H 505.532 -0.575636 -2.93814 0
M  V30 5382 H 503.078 -0.278272 -1.41286 0
M  V30 5383 H 505.031 1.67793 -3.86553 0
M  V30 5384 H 503.755 1.91498 -2.64567 0
M  V30 5385 H 502.414 0.0422759 -3.66576 0
M  V30 5386 H 502.062 2.40061 -4.42018 0
M  V30 5387 H 501.762 1.2452 -5.74255 0
M  V30 5388 H 503.286 2.17686 -5.70478 0
M  V30 5389 H 504.7 -0.0944059 -5.73222 0
M  V30 5390 H 503.097 -0.858 -5.93935 0
M  V30 5391 H 504.167 -1.41197 -4.63887 0
M  V30 5392 N 505.51 1.54411 -0.315457 0
M  V30 5393 C 506.44 2.27002 0.547039 0
M  V30 5394 C 507.421 1.27492 1.12605 0
M  V30 5395 O 508.606 1.5629 1.15269 0
M  V30 5396 C 505.736 3.02171 1.71201 0
M  V30 5397 C 504.69 4.0895 1.26268 0
M  V30 5398 C 504.016 4.71915 2.51396 0
M  V30 5399 C 505.316 5.20891 0.383419 0
M  V30 5400 H 507.01 2.99343 -0.0584517 0
M  V30 5401 H 504.556 1.4397 -0.0295527 0
M  V30 5402 H 506.509 3.51681 2.32161 0
M  V30 5403 H 505.233 2.27433 2.34397 0
M  V30 5404 H 503.892 3.60312 0.676062 0
M  V30 5405 H 503.54 3.93801 3.12937 0
M  V30 5406 H 503.24 5.44039 2.22026 0
M  V30 5407 H 504.764 5.24195 3.13133 0
M  V30 5408 H 506.178 5.66206 0.899082 0
M  V30 5409 H 504.575 5.99821 0.182857 0
M  V30 5410 H 505.645 4.81324 -0.587821 0
M  V30 5411 N 506.988 0.0434614 1.5754 0
M  V30 5412 C 507.918 -0.931651 2.14109 0
M  V30 5413 C 508.899 -1.32971 1.06079 0
M  V30 5414 O 510.084 -1.40579 1.33982 0
M  V30 5415 C 507.214 -2.20914 2.67982 0
M  V30 5416 C 506.168 -1.95139 3.80926 0
M  V30 5417 C 505.494 -3.29276 4.21285 0
M  V30 5418 C 506.794 -1.27913 5.06395 0
M  V30 5419 H 508.488 -0.460497 2.95837 0
M  V30 5420 H 506.034 -0.220058 1.42309 0
M  V30 5421 H 507.987 -2.89522 3.06194 0
M  V30 5422 H 506.711 -2.70221 1.83434 0
M  V30 5423 H 505.37 -1.28945 3.43175 0
M  V30 5424 H 505.018 -3.76369 3.33699 0
M  V30 5425 H 504.718 -3.12831 4.97404 0
M  V30 5426 H 506.242 -3.99129 4.62091 0
M  V30 5427 H 507.656 -1.86544 5.42102 0
M  V30 5428 H 506.053 -1.2182 5.87605 0
M  V30 5429 H 507.123 -0.254066 4.84234 0
M  V30 5430 N 508.466 -1.55915 -0.229846 0
M  V30 5431 C 509.694 -1.82617 -0.972562 0
M  V30 5432 C 510.109 -0.621488 -1.78278 0
M  V30 5433 O 509.466 0.409956 -1.77836 0
M  V30 5434 C 509.517 -3.0774 -1.89679 0
M  V30 5435 O 509.238 -4.23559 -1.11934 0
M  V30 5436 C 510.739 -3.47368 -2.75409 0
M  V30 5437 H 507.959 -0.60727 -0.285419 0
M  V30 5438 H 510.503 -2.02996 -0.247579 0
M  V30 5439 H 508.658 -2.89361 -2.57583 0
M  V30 5440 H 509.072 -4.94586 -1.74599 0
M  V30 5441 H 510.546 -4.37977 -3.35977 0
M  V30 5442 H 511.023 -2.68737 -3.47386 0
M  V30 5443 H 511.629 -3.68158 -2.12931 0
M  V30 5444 N 509.944 0.496216 -1.49584 0
M  V30 5445 C 510.874 1.60576 -1.69521 0
M  V30 5446 C 511.855 1.61169 -0.543933 0
M  V30 5447 O 513.04 1.77834 -0.78031 0
M  V30 5448 C 510.17 2.99038 -1.76616 0
M  V30 5449 C 509.124 3.13312 -2.91581 0
M  V30 5450 C 508.45 4.53172 -2.83794 0
M  V30 5451 C 509.75 2.92886 -4.32452 0
M  V30 5452 H 511.444 1.44146 -2.62416 0
M  V30 5453 H 508.99 0.692024 -1.26282 0
M  V30 5454 H 510.943 3.76564 -1.8915 0
M  V30 5455 H 509.667 3.16568 -0.80324 0
M  V30 5456 H 508.326 2.38213 -2.78658 0
M  V30 5457 H 507.974 4.67585 -1.854 0
M  V30 5458 H 507.674 4.63662 -3.60958 0
M  V30 5459 H 509.198 5.32752 -2.98342 0
M  V30 5460 H 510.612 3.60178 -4.46032 0
M  V30 5461 H 509.009 3.14844 -5.10875 0
M  V30 5462 H 510.079 1.88966 -4.46565 0
M  V30 5463 N 511.423 1.38739 0.74761 0
M  V30 5464 C 512.353 1.39173 1.87492 0
M  V30 5465 C 513.334 0.256794 1.6815 0
M  V30 5466 O 514.519 0.460762 1.88655 0
M  V30 5467 C 511.649 1.22197 3.25093 0
M  V30 5468 C 510.603 2.32957 3.59047 0
M  V30 5469 C 509.929 2.01082 4.95449 0
M  V30 5470 C 511.229 3.75237 3.6331 0
M  V30 5471 H 512.923 2.3351 1.87386 0
M  V30 5472 H 510.469 1.12399 0.900134 0
M  V30 5473 H 512.422 1.21124 4.03617 0
M  V30 5474 H 511.146 0.243241 3.25693 0
M  V30 5475 H 509.805 2.33226 2.82845 0
M  V30 5476 H 509.453 1.01678 4.92616 0
M  V30 5477 H 509.153 2.75267 5.19136 0
M  V30 5478 H 510.677 2.01638 5.76346 0
M  V30 5479 H 512.091 3.76966 4.31937 0
M  V30 5480 H 510.488 4.48677 3.98509 0
M  V30 5481 H 511.558 4.07122 2.634 0
M  V30 5482 N 512.901 -0.976442 1.23707 0
M  V30 5483 C 513.833 -2.07212 0.979574 0
M  V30 5484 C 514.846 -1.6273 -0.0478528 0
M  V30 5485 O 516.035 -1.77506 0.18815 0
M  V30 5486 C 513.135 -3.35835 0.45479 0
M  V30 5487 C 512.308 -4.09268 1.54331 0
M  V30 5488 C 511.367 -5.16166 1.02271 0
M  V30 5489 O 510.393 -5.42827 1.71254 0
M  V30 5490 N 511.595 -5.80313 -0.147419 0
M  V30 5491 H 514.36 -2.29878 1.92292 0
M  V30 5492 H 511.921 -1.14343 1.14618 0
M  V30 5493 H 513.913 -4.04597 0.0914631 0
M  V30 5494 H 512.483 -3.10106 -0.394068 0
M  V30 5495 H 511.703 -3.34906 2.07923 0
M  V30 5496 H 512.991 -4.55095 2.27522 0
M  V30 5497 H 512.389 -5.61043 -0.724353 0
M  V30 5498 H 510.946 -6.50231 -0.451972 0
M  V30 5499 N 514.379 -1.04941 -1.1758 0
M  V30 5500 C 515.625 -0.759112 -1.88057 0
M  V30 5501 C 515.958 0.711918 -1.8068 0
M  V30 5502 O 515.233 1.52035 -1.21308 0
M  V30 5503 C 515.516 -1.237 -3.38187 0
M  V30 5504 C 515.369 -2.77078 -3.54327 0
M  V30 5505 C 516.688 -0.834014 -4.32125 0
M  V30 5506 H 513.807 -0.277237 -0.682868 0
M  V30 5507 H 516.449 -1.30296 -1.38286 0
M  V30 5508 H 514.599 -0.774337 -3.80705 0
M  V30 5509 H 516.271 -3.31449 -3.20842 0
M  V30 5510 H 514.514 -3.16477 -2.96689 0
M  V30 5511 H 515.185 -3.05577 -4.59703 0
M  V30 5512 H 517.661 -1.23228 -3.97434 0
M  V30 5513 H 516.537 -1.19603 -5.35711 0
M  V30 5514 H 516.798 0.262195 -4.41322 0
M  V30 5515 N 515.857 1.33968 -0.830081 0
M  V30 5516 C 517.082 2.02813 -0.433796 0
M  V30 5517 C 517.507 1.62076 0.954614 0
M  V30 5518 O 516.865 0.808955 1.62252 0
M  V30 5519 C 516.913 3.56348 -0.552115 0
M  V30 5520 O 516.017 4.10202 0.425191 0
M  V30 5521 H 515.358 0.639817 -0.177567 0
M  V30 5522 H 517.888 1.7106 -1.12248 0
M  V30 5523 H 517.898 4.05722 -0.430513 0
M  V30 5524 H 516.573 3.85344 -1.56471 0
M  V30 5525 H 515.15 3.71979 0.261878 0
M  V30 5526 N 517.335 0.585699 1.46312 0
M  V30 5527 C 518.56 0.0762461 2.0726 0
M  V30 5528 C 518.985 -1.22071 1.43109 0
M  V30 5529 O 518.343 -1.73804 0.515942 0
M  V30 5530 C 518.391 -0.0729404 3.60526 0
M  V30 5531 O 517.495 -1.1287 3.96654 0
M  V30 5532 H 516.836 0.0641558 0.660893 0
M  V30 5533 H 519.366 0.809492 1.87905 0
M  V30 5534 H 519.376 -0.278158 4.07051 0
M  V30 5535 H 518.051 0.874188 4.06609 0
M  V30 5536 H 516.628 -0.901703 3.61834 0
M  V30 5537 N 518.813 -1.54241 0.323641 0
M  V30 5538 C 520.06 -2.0057 -0.27891 0
M  V30 5539 C 520.388 -1.21181 -1.52136 0
M  V30 5540 O 519.643 -0.282043 -1.93657 0
M  V30 5541 C 519.942 -3.5129 -0.658031 0
M  V30 5542 C 519.608 -4.48281 0.485252 0
M  V30 5543 C 518.27 -4.74519 0.799055 0
M  V30 5544 C 520.622 -5.05909 1.25322 0
M  V30 5545 C 517.95 -5.55643 1.88354 0
M  V30 5546 C 520.302 -5.88215 2.32779 0
M  V30 5547 C 518.966 -6.12755 2.64741 0
M  V30 5548 H 518.236 -0.733938 -0.10206 0
M  V30 5549 H 520.883 -1.862 0.447435 0
M  V30 5550 H 519.188 -3.63388 -1.4648 0
M  V30 5551 H 520.885 -3.84578 -1.1358 0
M  V30 5552 H 517.475 -4.27979 0.230593 0
M  V30 5553 H 521.659 -4.8562 1.02404 0
M  V30 5554 H 516.915 -5.72888 2.13564 0
M  V30 5555 H 521.089 -6.31888 2.92729 0
M  V30 5556 H 518.716 -6.75404 3.48904 0
M  V30 5557 N 520.291 -0.0518155 -1.57515 0
M  V30 5558 C 521.54 0.621286 -1.91893 0
M  V30 5559 C 521.853 1.71966 -0.932052 0
M  V30 5560 O 523.059 2.45096 -1.16791 0
M  V30 5561 C 521.515 1.15641 -3.40816 0
M  V30 5562 C 521.123 0.0901146 -4.47909 0
M  V30 5563 C 522.867 1.80472 -3.84227 0
M  V30 5564 C 520.774 0.638154 -5.87947 0
M  V30 5565 H 519.704 0.235835 -0.716169 0
M  V30 5566 H 522.355 -0.120809 -1.83102 0
M  V30 5567 H 520.737 1.95084 -3.44613 0
M  V30 5568 H 521.911 -0.683525 -4.55702 0
M  V30 5569 H 520.226 -0.460774 -4.13843 0
M  V30 5570 H 522.823 2.22471 -4.86221 0
M  V30 5571 H 523.166 2.65669 -3.20508 0
M  V30 5572 H 523.699 1.07683 -3.82948 0
M  V30 5573 H 520.438 -0.176202 -6.55263 0
M  V30 5574 H 519.958 1.37976 -5.83714 0
M  V30 5575 H 521.637 1.12085 -6.37217 0
M  V30 5576 N 521.769 1.56035 0.221574 0
M  V30 5577 C 523.017 1.78693 0.944102 0
M  V30 5578 C 523.338 0.620317 1.8487 0
M  V30 5579 O 522.608 -0.362784 1.92512 0
M  V30 5580 H 521.188 0.659082 0.351597 0
M  V30 5581 H 523.85 1.93497 0.233435 0
M  V30 5582 H 522.946 2.70837 1.55093 0
M  V30 5583 N 523.247 -0.488276 1.49845 0
M  V30 5584 C 524.472 -1.26997 1.63971 0
M  V30 5585 C 524.897 -1.85427 0.315994 0
M  V30 5586 O 524.255 -1.66475 -0.718032 0
M  V30 5587 C 524.303 -2.36689 2.72049 0
M  V30 5588 O 523.407 -3.40882 2.32107 0
M  V30 5589 H 522.748 -0.374376 0.548396 0
M  V30 5590 H 525.278 -0.583104 1.96115 0
M  V30 5591 H 525.288 -2.82262 2.94605 0
M  V30 5592 H 523.963 -1.93529 3.68129 0
M  V30 5593 H 522.54 -3.01139 2.19931 0
M  V30 5594 N 524.725 -1.39134 -0.740242 0
M  V30 5595 C 525.972 -1.36071 -1.49969 0
M  V30 5596 C 526.3 0.0450245 -1.94448 0
M  V30 5597 O 525.555 1.02482 -1.66721 0
M  V30 5598 C 525.854 -2.27457 -2.75678 0
M  V30 5599 C 525.52 -3.75185 -2.50094 0
M  V30 5600 C 524.182 -4.15439 -2.42825 0
M  V30 5601 C 526.534 -4.68643 -2.28086 0
M  V30 5602 C 523.862 -5.4722 -2.11584 0
M  V30 5603 C 526.214 -6.00695 -1.98363 0
M  V30 5604 C 524.878 -6.40018 -1.8956 0
M  V30 5605 H 524.148 -0.497921 -0.548777 0
M  V30 5606 H 526.795 -1.71599 -0.85007 0
M  V30 5607 H 525.1 -1.8503 -3.45356 0
M  V30 5608 H 526.797 -2.22384 -3.33686 0
M  V30 5609 H 523.387 -3.43279 -2.56627 0
M  V30 5610 H 527.571 -4.3838 -2.32672 0
M  V30 5611 H 522.827 -5.76615 -2.03287 0
M  V30 5612 H 527.001 -6.72644 -1.80341 0
M  V30 5613 H 524.628 -7.42051 -1.65117 0
M  V30 5614 N 526.204 0.969867 -1.24223 0
M  V30 5615 C 527.432 1.74756 -1.10761 0
M  V30 5616 C 527.847 1.85713 0.340041 0
M  V30 5617 O 527.204 1.34389 1.23474 0
M  V30 5618 C 527.255 3.16915 -1.73917 0
M  V30 5619 O 526.976 3.06511 -3.13021 0
M  V30 5620 C 528.477 4.11032 -1.66036 0
M  V30 5621 H 525.697 0.548092 -0.387087 0
M  V30 5622 H 528.241 1.2178 -1.64286 0
M  V30 5623 H 526.396 3.66884 -1.244 0
M  V30 5624 H 526.81 3.96079 -3.43834 0
M  V30 5625 H 528.284 5.08446 -2.14911 0
M  V30 5626 H 528.761 4.34785 -0.621159 0
M  V30 5627 H 529.367 3.66972 -2.14969 0
M  V30 5628 N 527.682 1.05563 1.17022 0
M  V30 5629 C 528.912 0.787307 1.91011 0
M  V30 5630 C 529.32 -0.661256 1.77268 0
M  V30 5631 O 528.663 -1.46379 1.10991 0
M  V30 5632 C 528.725 1.09313 3.42478 0
M  V30 5633 C 528.389 2.53863 3.80004 0
M  V30 5634 C 529.386 3.52081 3.82538 0
M  V30 5635 C 527.071 2.88969 4.10855 0
M  V30 5636 C 529.065 4.83449 4.15399 0
M  V30 5637 C 526.752 4.2054 4.43384 0
M  V30 5638 C 527.75 5.17589 4.45635 0
M  V30 5639 O 527.438 6.46799 4.77395 0
M  V30 5640 H 527.17 0.285463 0.61277 0
M  V30 5641 H 529.724 1.41051 1.49311 0
M  V30 5642 H 527.954 0.412833 3.8449 0
M  V30 5643 H 529.643 0.810224 3.97731 0
M  V30 5644 H 530.409 3.26299 3.58823 0
M  V30 5645 H 526.288 2.1409 4.08272 0
M  V30 5646 H 529.832 5.59194 4.1707 0
M  V30 5647 H 525.729 4.46083 4.66563 0
M  V30 5648 H 526.497 6.51677 4.95237 0
M  V30 5649 N 529.16 -1.33526 0.837174 0
M  V30 5650 C 530.406 -1.9813 0.432704 0
M  V30 5651 C 530.739 -1.66168 -1.00508 0
M  V30 5652 O 530.014 -0.94069 -1.70239 0
M  V30 5653 C 530.297 -3.54151 0.651834 0
M  V30 5654 C 530.15 -3.95806 2.13676 0
M  V30 5655 C 531.469 -4.39993 0.0968937 0
M  V30 5656 H 528.588 -0.719713 0.15869 0
M  V30 5657 H 531.23 -1.58193 1.05237 0
M  V30 5658 H 529.38 -3.88301 0.124369 0
M  V30 5659 H 531.052 -3.71921 2.72896 0
M  V30 5660 H 529.295 -3.45599 2.62191 0
M  V30 5661 H 529.966 -5.0447 2.24084 0
M  V30 5662 H 532.442 -4.12479 0.547733 0
M  V30 5663 H 531.318 -5.48186 0.279917 0
M  V30 5664 H 531.579 -4.3066 -0.9992 0
M  V30 5665 N 530.638 -0.59345 -1.46 0
M  V30 5666 C 531.885 -0.0831523 -2.02329 0
M  V30 5667 C 532.213 1.28093 -1.46364 0
M  V30 5668 O 531.468 1.85526 -0.622793 0
M  V30 5669 C 531.767 0.021178 -3.57394 0
M  V30 5670 C 531.433 -1.27671 -4.32448 0
M  V30 5671 C 530.095 -1.63227 -4.5267 0
M  V30 5672 C 532.447 -2.13511 -4.7546 0
M  V30 5673 C 529.775 -2.84401 -5.1316 0
M  V30 5674 C 532.127 -3.33922 -5.37289 0
M  V30 5675 C 530.791 -3.69747 -5.55737 0
M  V30 5676 H 530.061 -0.0304276 -0.740375 0
M  V30 5677 H 532.708 -0.772239 -1.75239 0
M  V30 5678 H 531.013 0.793454 -3.83682 0
M  V30 5679 H 532.71 0.431942 -3.98667 0
M  V30 5680 H 529.3 -0.989937 -4.17011 0
M  V30 5681 H 533.484 -1.87344 -4.59582 0
M  V30 5682 H 528.74 -3.12282 -5.25633 0
M  V30 5683 H 532.914 -4.00698 -5.69574 0
M  V30 5684 H 530.541 -4.6373 -6.02377 0
M  V30 5685 N 532.116 1.54067 -0.331816 0
M  V30 5686 C 533.063 2.24623 0.530372 0
M  V30 5687 C 534.033 1.24009 1.10503 0
M  V30 5688 O 535.218 1.52712 1.14384 0
M  V30 5689 C 532.358 3.01374 1.68129 0
M  V30 5690 C 531.471 4.16821 1.13507 0
M  V30 5691 C 530.606 4.81085 2.25234 0
M  V30 5692 C 529.645 5.88621 1.67903 0
M  V30 5693 N 528.782 6.46713 2.73326 0
M  V30 5694 H 533.622 2.97898 -0.0778607 0
M  V30 5695 H 531.159 1.47014 -0.0501965 0
M  V30 5696 H 533.117 3.44125 2.35868 0
M  V30 5697 H 531.747 2.30419 2.26069 0
M  V30 5698 H 530.799 3.78796 0.348979 0
M  V30 5699 H 532.111 4.94203 0.675633 0
M  V30 5700 H 531.265 5.26846 3.00862 0
M  V30 5701 H 530.004 4.03102 2.74518 0
M  V30 5702 H 529.009 5.42254 0.907773 0
M  V30 5703 H 530.234 6.68506 1.19487 0
M  V30 5704 H 528.18 5.71599 3.21886 0
M  V30 5705 H 528.097 7.19532 2.3197 0
M  V30 5706 H 529.365 6.97129 3.48758 0
M  V30 5707 N 533.594 0.0601682 1.57485 0
M  V30 5708 C 534.824 -0.620037 1.97076 0
M  V30 5709 C 535.232 -1.64381 0.936784 0
M  V30 5710 O 534.575 -1.83497 -0.0863377 0
M  V30 5711 C 534.637 -1.35617 3.32939 0
M  V30 5712 C 534.301 -0.487208 4.54396 0
M  V30 5713 C 535.298 0.250428 5.19297 0
M  V30 5714 C 532.983 -0.415494 5.00579 0
M  V30 5715 C 534.977 1.04812 6.28723 0
M  V30 5716 C 532.664 0.385879 6.0988 0
M  V30 5717 C 533.662 1.11637 6.73815 0
M  V30 5718 O 533.35 1.90454 7.81014 0
M  V30 5719 H 533.082 -0.173664 0.653312 0
M  V30 5720 H 535.636 0.1256 2.05016 0
M  V30 5721 H 533.866 -2.14763 3.2158 0
M  V30 5722 H 535.555 -1.92749 3.57215 0
M  V30 5723 H 536.321 0.204546 4.84568 0
M  V30 5724 H 532.2 -0.973679 4.506 0
M  V30 5725 H 535.744 1.6188 6.78558 0
M  V30 5726 H 531.641 0.433366 6.44044 0
M  V30 5727 H 532.409 1.82762 7.97835 0
M  V30 5728 N 535.072 -1.5615 -0.213296 0
M  V30 5729 C 536.005 -1.88115 -1.29182 0
M  V30 5730 C 536.983 -0.739348 -1.44819 0
M  V30 5731 O 538.167 -0.988541 -1.605 0
M  V30 5732 C 535.294 -2.09541 -2.66102 0
M  V30 5733 C 534.34 -3.32236 -2.67436 0
M  V30 5734 S 535.173 -4.87915 -2.20679 0
M  V30 5735 C 536.329 -5.12387 -3.59458 0
M  V30 5736 H 536.562 -2.793 -1.01876 0
M  V30 5737 H 534.095 -1.48692 -0.415934 0
M  V30 5738 H 536.053 -2.22568 -3.44925 0
M  V30 5739 H 534.714 -1.19138 -2.90628 0
M  V30 5740 H 533.907 -3.44297 -3.6807 0
M  V30 5741 H 533.509 -3.18108 -1.96681 0
M  V30 5742 H 535.801 -5.01791 -4.55205 0
M  V30 5743 H 536.744 -6.14236 -3.52306 0
M  V30 5744 H 537.152 -4.40089 -3.53528 0
M  V30 5745 N 536.55 0.480323 -1.50102 0
M  V30 5746 C 537.46 1.60547 -1.71061 0
M  V30 5747 C 538.476 1.63564 -0.593529 0
M  V30 5748 O 539.652 1.81604 -0.870751 0
M  V30 5749 C 536.717 2.96814 -1.79171 0
M  V30 5750 C 535.778 3.04259 -3.02861 0
M  V30 5751 C 535.011 4.34027 -3.10574 0
M  V30 5752 O 535.234 5.24009 -2.25323 0
M  V30 5753 O 534.168 4.46873 -4.03223 0
M  V30 5754 H 537.994 1.45788 -2.6642 0
M  V30 5755 H 535.579 0.658838 -1.34088 0
M  V30 5756 H 537.461 3.77765 -1.86738 0
M  V30 5757 H 536.136 3.11791 -0.869947 0
M  V30 5758 H 535.043 2.22419 -3.008 0
M  V30 5759 H 536.376 2.94216 -3.94586 0
M  V30 5760 N 538.028 1.39524 0.732853 0
M  V30 5761 C 538.96 1.34318 1.85718 0
M  V30 5762 C 539.973 0.251576 1.60844 0
M  V30 5763 O 541.162 0.510685 1.71039 0
M  V30 5764 C 538.262 1.06334 3.21786 0
M  V30 5765 C 537.435 2.26813 3.73998 0
M  V30 5766 C 536.494 1.95253 4.88634 0
M  V30 5767 O 535.52 2.67957 5.02183 0
M  V30 5768 N 536.722 0.919984 5.73164 0
M  V30 5769 H 539.487 2.3121 1.90688 0
M  V30 5770 H 537.048 1.33654 0.91368 0
M  V30 5771 H 539.04 0.832363 3.96048 0
M  V30 5772 H 537.61 0.181682 3.12072 0
M  V30 5773 H 536.83 2.65849 2.91064 0
M  V30 5774 H 538.118 3.0717 4.05616 0
M  V30 5775 H 537.516 0.317487 5.64808 0
M  V30 5776 H 536.073 0.748905 6.47483 0
M  V30 5777 N 539.506 -0.963266 1.24736 0
M  V30 5778 C 540.438 -2.06162 1.0015 0
M  V30 5779 C 541.451 -1.62771 -0.0305905 0
M  V30 5780 O 542.64 -1.77296 0.206966 0
M  V30 5781 C 539.74 -3.35333 0.490385 0
M  V30 5782 C 538.913 -4.07609 1.58663 0
M  V30 5783 C 537.972 -5.15052 1.0774 0
M  V30 5784 O 536.998 -5.4098 1.77002 0
M  V30 5785 N 538.2 -5.80436 -0.0858605 0
M  V30 5786 H 540.965 -2.27825 1.94719 0
M  V30 5787 H 538.526 -1.13121 1.15825 0
M  V30 5788 H 540.518 -4.04477 0.134371 0
M  V30 5789 H 539.088 -3.10507 -0.361155 0
M  V30 5790 H 538.308 -3.32681 2.11463 0
M  V30 5791 H 539.596 -4.52656 2.32336 0
M  V30 5792 H 538.994 -5.6178 -0.664806 0
M  V30 5793 H 537.551 -6.50674 -0.382981 0
M  V30 5794 N 540.985 -1.06182 -1.16461 0
M  V30 5795 C 542.215 -0.797425 -1.9059 0
M  V30 5796 C 542.623 0.651845 -1.77616 0
M  V30 5797 O 541.966 1.45788 -1.11766 0
M  V30 5798 C 542.028 -1.11128 -3.41893 0
M  V30 5799 C 541.692 -2.55874 -3.78652 0
M  V30 5800 C 542.689 -3.54104 -3.80665 0
M  V30 5801 C 540.374 -2.91144 -4.09317 0
M  V30 5802 C 542.368 -4.85645 -4.12829 0
M  V30 5803 C 540.055 -4.22885 -4.41148 0
M  V30 5804 C 541.053 -5.19945 -4.42883 0
M  V30 5805 O 540.741 -6.49322 -4.73959 0
M  V30 5806 H 540.473 -0.288709 -0.611247 0
M  V30 5807 H 543.027 -1.41841 -1.4856 0
M  V30 5808 H 541.257 -0.433217 -3.84266 0
M  V30 5809 H 542.946 -0.831306 -3.97296 0
M  V30 5810 H 543.712 -3.28197 -3.57088 0
M  V30 5811 H 539.591 -2.16252 -4.07131 0
M  V30 5812 H 543.135 -5.61398 -4.14099 0
M  V30 5813 H 539.032 -4.48551 -4.6419 0
M  V30 5814 H 539.8 -6.54294 -4.91774 0
M  V30 5815 N 542.463 1.3308 -0.844243 0
M  V30 5816 C 543.711 1.97215 -0.441676 0
M  V30 5817 C 544.032 1.67185 1.0037 0
M  V30 5818 O 543.302 0.973588 1.69994 0
M  V30 5819 H 541.882 0.72959 -0.160335 0
M  V30 5820 H 544.544 1.62348 -1.07838 0
M  V30 5821 H 543.64 3.06698 -0.57815 0
M  V30 5822 N 543.941 0.601185 1.45683 0
M  V30 5823 C 544.873 -0.159446 2.28645 0
M  V30 5824 C 545.886 -0.837882 1.39583 0
M  V30 5825 O 547.075 -0.704344 1.64016 0
M  V30 5826 C 544.175 -1.24641 3.15147 0
M  V30 5827 C 543.348 -0.656334 4.32448 0
M  V30 5828 C 542.407 -1.63337 5.00208 0
M  V30 5829 O 541.433 -1.16217 5.57209 0
M  V30 5830 N 542.635 -2.96773 4.98905 0
M  V30 5831 H 545.4 0.5524 2.94565 0
M  V30 5832 H 542.961 0.440223 1.558 0
M  V30 5833 H 544.953 -1.8997 3.57342 0
M  V30 5834 H 543.523 -1.86087 2.51178 0
M  V30 5835 H 542.743 0.174879 3.93812 0
M  V30 5836 H 544.031 -0.242211 5.08223 0
M  V30 5837 H 543.429 -3.37662 4.53873 0
M  V30 5838 H 541.986 -3.57541 5.44984 0
M  V30 5839 N 545.419 -1.53889 0.339982 0
M  V30 5840 C 546.644 -2.05741 -0.261798 0
M  V30 5841 C 547.069 -1.21354 -1.43718 0
M  V30 5842 O 546.427 -0.22645 -1.7988 0
M  V30 5843 C 546.475 -3.54542 -0.658228 0
M  V30 5844 O 545.579 -3.7302 -1.75869 0
M  V30 5845 H 544.92 -0.662529 -0.0441672 0
M  V30 5846 H 547.45 -1.98568 0.493161 0
M  V30 5847 H 547.46 -3.9711 -0.936368 0
M  V30 5848 H 546.135 -4.15412 0.201358 0
M  V30 5849 H 544.712 -3.42355 -1.47809 0
M  V30 5850 N 546.897 -0.0685191 -1.57451 0
M  V30 5851 C 547.86 0.885173 -2.11417 0
M  V30 5852 C 548.86 1.22853 -1.03748 0
M  V30 5853 O 550.05 1.16235 -1.2975 0
M  V30 5854 C 547.182 2.18964 -2.61281 0
M  V30 5855 H 548.375 0.417034 -2.96986 0
M  V30 5856 H 545.928 0.18014 -1.55258 0
M  V30 5857 H 546.663 2.70321 -1.79156 0
M  V30 5858 H 546.448 1.9534 -3.39977 0
M  V30 5859 H 547.938 2.87242 -3.0312 0
M  V30 5860 N 548.375 1.56261 0.205012 0
M  V30 5861 C 549.6 1.84491 0.947512 0
M  V30 5862 C 550.025 0.650894 1.76479 0
M  V30 5863 O 549.383 -0.40035 1.76824 0
M  V30 5864 C 549.431 3.10863 1.82747 0
M  V30 5865 O 548.535 2.90719 2.925 0
M  V30 5866 H 547.876 0.607783 0.267386 0
M  V30 5867 H 550.406 2.03485 0.213323 0
M  V30 5868 H 550.416 3.41399 2.23407 0
M  V30 5869 H 549.091 3.97392 1.2269 0
M  V30 5870 H 547.668 2.71457 2.55667 0
M  V30 5871 N 549.853 -0.472356 1.50355 0
M  V30 5872 C 550.803 -1.56809 1.65514 0
M  V30 5873 C 551.787 -1.5261 0.509801 0
M  V30 5874 O 552.979 -1.59655 0.764145 0
M  V30 5875 C 550.108 -2.9526 1.75146 0
M  V30 5876 C 549.194 -3.04348 2.95353 0
M  V30 5877 N 549.585 -2.83253 4.19048 0
M  V30 5878 C 547.883 -3.35482 2.93884 0
M  V30 5879 C 548.584 -2.97273 5.00003 0
M  V30 5880 N 547.56 -3.27418 4.33934 0
M  V30 5881 H 551.362 -1.39197 2.58846 0
M  V30 5882 H 548.876 -0.67906 1.47521 0
M  V30 5883 H 550.873 -3.74044 1.8411 0
M  V30 5884 H 549.533 -3.1392 0.829717 0
M  V30 5885 H 550.544 -2.5886 4.48567 0
M  V30 5886 H 547.221 -3.60138 2.11204 0
M  V30 5887 H 548.611 -2.85214 6.08361 0
M  V30 5888 N 551.331 -1.39911 -0.725443 0
M  V30 5889 C 552.294 -1.39156 -1.82121 0
M  V30 5890 C 553.294 -0.287018 -1.58218 0
M  V30 5891 O 554.484 -0.545421 -1.65441 0
M  V30 5892 C 551.616 -1.1736 -3.20062 0
M  V30 5893 H 552.809 -2.36672 -1.84191 0
M  V30 5894 H 550.362 -1.25615 -0.930079 0
M  V30 5895 H 551.097 -0.205648 -3.23647 0
M  V30 5896 H 550.882 -1.97358 -3.3881 0
M  V30 5897 H 552.372 -1.19596 -4.00108 0
M  V30 5898 N 552.809 0.956637 -1.25245 0
M  V30 5899 C 553.757 2.0743 -1.0524 0
M  V30 5900 C 554.751 1.69392 0.0160725 0
M  V30 5901 O 555.957 1.7946 -0.139382 0
M  V30 5902 H 552.332 0.678921 -0.323373 0
M  V30 5903 H 554.303 2.2146 -1.99995 0
M  V30 5904 C 553.052 3.40872 -0.685702 0
M  V30 5905 H 552.375 3.70607 -1.49968 0
M  V30 5906 H 553.815 4.19939 -0.585415 0
M  V30 5907 C 552.274 3.31367 0.608082 0
M  V30 5908 O 552.804 3.66214 1.65076 0
M  V30 5909 N 551.01 2.84486 0.592955 0
M  V30 5910 H 550.557 2.56326 -0.25592 0
M  V30 5911 H 550.515 2.78509 1.45877 0
M  V30 5912 N 554.287 1.06798 1.15896 0
M  V30 5913 C 555.534 0.787767 1.86549 0
M  V30 5914 C 555.862 -0.685959 1.82002 0
M  V30 5915 O 555.117 -1.5188 1.23414 0
M  V30 5916 C 555.416 1.23414 3.35416 0
M  V30 5917 C 555.082 2.71285 3.6016 0
M  V30 5918 C 553.744 3.11676 3.66622 0
M  V30 5919 C 556.096 3.6676 3.7032 0
M  V30 5920 C 553.424 4.4637 3.8075 0
M  V30 5921 C 555.776 5.01209 3.8597 0
M  V30 5922 C 554.44 5.41229 3.90676 0
M  V30 5923 H 553.71 0.288264 0.682631 0
M  V30 5924 H 556.357 1.338 1.37003 0
M  V30 5925 H 554.662 0.60319 3.87129 0
M  V30 5926 H 556.359 0.994298 3.88477 0
M  V30 5927 H 552.949 2.39015 3.55767 0
M  V30 5928 H 557.133 3.36685 3.64633 0
M  V30 5929 H 552.389 4.76855 3.82648 0
M  V30 5930 H 556.563 5.75067 3.92773 0
M  V30 5931 H 554.19 6.45602 4.01375 0
M  V30 5932 N 555.766 -1.3263 0.851289 0
M  V30 5933 C 556.696 -2.31449 0.308771 0
M  V30 5934 C 557.677 -1.59531 -0.590255 0
M  V30 5935 O 558.862 -1.87351 -0.511205 0
M  V30 5936 C 555.992 -3.43586 -0.506548 0
M  V30 5937 C 554.946 -4.26963 0.297753 0
M  V30 5938 C 554.272 -5.30831 -0.642094 0
M  V30 5939 C 555.572 -4.99643 1.52166 0
M  V30 5940 H 557.266 -2.77074 1.13447 0
M  V30 5941 H 554.812 -1.33207 0.546971 0
M  V30 5942 H 556.765 -4.11754 -0.896474 0
M  V30 5943 H 555.489 -2.96681 -1.36558 0
M  V30 5944 H 554.148 -3.60437 0.669391 0
M  V30 5945 H 553.796 -4.8018 -1.49788 0
M  V30 5946 H 553.496 -5.87501 -0.107968 0
M  V30 5947 H 555.02 -6.01862 -1.02927 0
M  V30 5948 H 556.434 -5.6051 1.20421 0
M  V30 5949 H 554.831 -5.66022 1.99347 0
M  V30 5950 H 555.901 -4.27701 2.28474 0
M  V30 5951 N 557.244 -0.608902 -1.45362 0
M  V30 5952 C 558.174 0.0964526 -2.33301 0
M  V30 5953 C 559.155 0.857444 -1.46908 0
M  V30 5954 O 560.34 0.827735 -1.75676 0
M  V30 5955 C 557.47 1.09354 -3.29635 0
M  V30 5956 C 556.424 0.445676 -4.25673 0
M  V30 5957 C 555.75 1.5511 -5.11708 0
M  V30 5958 C 557.05 -0.633972 -5.18438 0
M  V30 5959 H 558.744 -0.637829 -2.92527 0
M  V30 5960 H 556.29 -0.308178 -1.40664 0
M  V30 5961 H 558.243 1.59556 -3.90025 0
M  V30 5962 H 556.967 1.85843 -2.6857 0
M  V30 5963 H 555.626 -0.0354897 -3.66583 0
M  V30 5964 H 555.274 2.30631 -4.4701 0
M  V30 5965 H 554.974 1.12311 -5.76767 0
M  V30 5966 H 556.498 2.05537 -5.74967 0
M  V30 5967 H 557.912 -0.215974 -5.72893 0
M  V30 5968 H 556.309 -0.983789 -5.91981 0
M  V30 5969 H 557.379 -1.51005 -4.60788 0
M  V30 5970 N 558.722 1.53707 -0.348139 0
M  V30 5971 C 559.97 2.00591 0.246478 0
M  V30 5972 C 560.291 1.23753 1.50699 0
M  V30 5973 O 559.561 0.345964 1.92821 0
M  V30 5974 H 558.141 0.741053 0.0940679 0
M  V30 5975 H 560.803 1.89139 -0.470354 0
M  V30 5976 H 559.899 3.08297 0.485714 0
M  V30 5977 N 560.2 0.0768682 1.57412 0
M  V30 5978 C 561.449 -0.590679 1.92857 0
M  V30 5979 C 561.762 -1.70461 0.959293 0
M  V30 5980 O 562.968 -2.43207 1.20675 0
M  V30 5981 C 561.424 -1.10204 3.42612 0
M  V30 5982 C 561.032 -0.0188447 4.47996 0
M  V30 5983 C 562.776 -1.74336 3.87049 0
M  V30 5984 C 560.683 -0.544536 5.88888 0
M  V30 5985 H 559.613 -0.224411 0.71983 0
M  V30 5986 H 562.264 0.149924 1.82887 0
M  V30 5987 H 560.646 -1.89577 3.47673 0
M  V30 5988 H 561.82 0.755936 4.54557 0
M  V30 5989 H 560.135 0.526555 4.13057 0
M  V30 5990 H 562.732 -2.14708 4.89699 0
M  V30 5991 H 563.075 -2.60537 3.24694 0
M  V30 5992 H 563.608 -1.01577 3.84613 0
M  V30 5993 H 560.347 0.280426 6.549 0
M  V30 5994 H 559.867 -1.28673 5.85836 0
M  V30 5995 H 561.546 -1.01933 6.3892 0
M  V30 5996 N 561.678 -1.56367 -0.196722 0
M  V30 5997 C 562.927 -1.79724 -0.915539 0
M  V30 5998 C 563.24 -0.649804 -1.84491 0
M  V30 5999 O 564.446 -0.767631 -2.60422 0
M  V30 6000 C 562.902 -3.18369 -1.67836 0
M  V30 6001 C 562.51 -4.4091 -0.793897 0
M  V30 6002 C 564.254 -3.51037 -2.38691 0
M  V30 6003 C 562.161 -5.70577 -1.55549 0
M  V30 6004 H 561.091 -0.67013 -0.345604 0
M  V30 6005 H 563.742 -1.82721 -0.168856 0
M  V30 6006 H 562.124 -3.09617 -2.46887 0
M  V30 6007 H 563.298 -4.60781 -0.042163 0
M  V30 6008 H 561.613 -4.15937 -0.19626 0
M  V30 6009 H 564.21 -4.4515 -2.96219 0
M  V30 6010 H 564.553 -2.74704 -3.12799 0
M  V30 6011 H 565.086 -3.61229 -1.66608 0
M  V30 6012 H 561.825 -6.49871 -0.857226 0
M  V30 6013 H 561.345 -5.54726 -2.2812 0
M  V30 6014 H 563.024 -6.11637 -2.10971 0
M  V30 6015 N 563.156 0.464375 -1.50603 0
M  V30 6016 C 564.384 1.23907 -1.65695 0
M  V30 6017 C 564.799 1.85658 -0.343027 0
M  V30 6018 O 564.156 1.69529 0.675739 0
M  V30 6019 C 564.207 2.3429 -2.75301 0
M  V30 6020 O 563.928 1.7507 -4.01599 0
M  V30 6021 C 565.429 3.25051 -3.01424 0
M  V30 6022 H 562.649 0.374485 -0.556778 0
M  V30 6023 H 565.193 0.55353 -1.96866 0
M  V30 6024 H 563.348 2.98607 -2.46804 0
M  V30 6025 H 563.762 2.47812 -4.62266 0
M  V30 6026 H 565.236 3.98699 -3.81763 0
M  V30 6027 H 565.713 3.84227 -2.12758 0
M  V30 6028 H 566.319 2.66463 -3.31477 0
M  V30 6029 N 564.634 1.40294 0.718013 0
M  V30 6030 C 565.883 1.37746 1.4734 0
M  V30 6031 C 566.196 -0.0180754 1.95592 0
M  V30 6032 O 567.402 -0.166166 2.70991 0
M  V30 6033 C 565.858 2.4208 2.66318 0
M  V30 6034 C 565.466 3.87432 2.24945 0
M  V30 6035 C 567.21 2.48635 3.44065 0
M  V30 6036 C 565.117 4.83368 3.40748 0
M  V30 6037 H 564.047 0.512165 0.553356 0
M  V30 6038 H 566.698 1.66019 0.781661 0
M  V30 6039 H 565.08 2.06903 3.3765 0
M  V30 6040 H 566.254 4.3174 1.6105 0
M  V30 6041 H 564.569 3.8433 1.60249 0
M  V30 6042 H 567.166 3.17499 4.30231 0
M  V30 6043 H 567.509 1.51611 3.87711 0
M  V30 6044 H 568.042 2.82791 2.79775 0
M  V30 6045 H 564.781 5.81716 3.02136 0
M  V30 6046 H 564.301 4.43726 4.03568 0
M  V30 6047 H 565.98 5.03074 4.06848 0
M  V30 6048 N 566.112 -0.949982 1.2575 0
M  V30 6049 C 567.523 -1.50989 1.09815 0
M  V30 6050 C 567.874 -1.93497 -0.324556 0
M  V30 6051 O 566.999 -1.79068 -1.21506 0
M  V30 6052 C 567.594 -2.74394 1.98729 0
M  V30 6053 C 566.153 -3.26682 1.86965 0
M  V30 6054 C 565.3 -1.99498 1.92603 0
M  V30 6055 H 568.251 -0.766387 1.38968 0
M  V30 6056 H 568.272 -3.48383 1.53001 0
M  V30 6057 H 567.784 -2.43425 3.02268 0
M  V30 6058 H 565.885 -3.62461 0.863279 0
M  V30 6059 H 565.998 -3.94383 2.72027 0
M  V30 6060 H 564.362 -2.15005 1.36546 0
M  V30 6061 H 565.145 -1.70871 2.97755 0
M  V30 6062 N 567.59 -1.07411 -1.15328 0
M  V30 6063 C 568.818 -0.818782 -1.90009 0
M  V30 6064 C 569.233 0.628072 -1.78047 0
M  V30 6065 O 568.59 1.43085 -1.13282 0
M  V30 6066 C 568.641 -1.21874 -3.40337 0
M  V30 6067 O 568.362 -2.60883 -3.51954 0
M  V30 6068 C 569.863 -0.992796 -4.3204 0
M  V30 6069 H 567.083 -0.296007 -0.60218 0
M  V30 6070 H 569.627 -1.43073 -1.46117 0
M  V30 6071 H 567.782 -0.651103 -3.81889 0
M  V30 6072 H 568.196 -2.77216 -4.45255 0
M  V30 6073 H 569.67 -1.32215 -5.35932 0
M  V30 6074 H 570.147 0.0708331 -4.39143 0
M  V30 6075 H 570.753 -1.54537 -3.9623 0
M  V30 6076 N 569.068 1.32177 -0.85831 0
M  V30 6077 C 570.314 1.97417 -0.46417 0
M  V30 6078 C 570.647 1.67746 0.978514 0
M  V30 6079 O 569.922 0.967654 1.68721 0
M  V30 6080 C 570.205 3.53069 -0.708094 0
M  V30 6081 C 570.058 3.92357 -2.19946 0
M  V30 6082 C 571.377 4.39783 -0.166881 0
M  V30 6083 H 568.496 0.717097 -0.17012 0
M  V30 6084 H 571.138 1.56499 -1.07741 0
M  V30 6085 H 569.288 3.88054 -0.186128 0
M  V30 6086 H 570.96 3.67533 -2.78779 0
M  V30 6087 H 569.203 3.41384 -2.67656 0
M  V30 6088 H 569.874 5.00841 -2.32082 0
M  V30 6089 H 572.35 4.11556 -0.613285 0
M  V30 6090 H 571.226 5.47671 -0.367093 0
M  V30 6091 H 571.487 4.32196 0.930559 0
M  V30 6092 N 570.547 0.616602 1.45037 0
M  V30 6093 C 571.51 -0.0871112 2.29034 0
M  V30 6094 C 572.51 -0.786414 1.40258 0
M  V30 6095 O 573.7 -0.633207 1.62284 0
M  V30 6096 C 570.832 -1.13369 3.21497 0
M  V30 6097 H 572.025 0.651497 2.92738 0
M  V30 6098 H 569.578 0.376058 1.51709 0
M  V30 6099 H 570.313 -1.90277 2.62612 0
M  V30 6100 H 570.098 -0.636358 3.86902 0
M  V30 6101 H 571.588 -1.62627 3.84633 0
M  V30 6102 N 572.025 -1.5352 0.356285 0
M  V30 6103 C 573.253 -2.05534 -0.237328 0
M  V30 6104 C 573.668 -1.23043 -1.43199 0
M  V30 6105 O 573.025 -0.268821 -1.80509 0
M  V30 6106 C 573.076 -3.55791 -0.639933 0
M  V30 6107 O 572.797 -4.35154 0.507233 0
M  V30 6108 C 574.298 -4.24027 -1.29292 0
M  V30 6109 H 571.518 -0.669585 -0.0435572 0
M  V30 6110 H 574.062 -1.97988 0.511963 0
M  V30 6111 H 572.217 -3.63518 -1.33915 0
M  V30 6112 H 572.631 -5.24178 0.18375 0
M  V30 6113 H 574.105 -5.30509 -1.52527 0
M  V30 6114 H 574.582 -3.77166 -2.25039 0
M  V30 6115 H 575.188 -4.20527 -0.63539 0
M  V30 6116 N 573.503 -0.0852151 -1.57369 0
M  V30 6117 C 574.751 0.579658 -1.93609 0
M  V30 6118 C 575.072 1.69332 -0.967043 0
M  V30 6119 O 574.342 1.95892 -0.0174215 0
M  V30 6120 H 572.922 0.217113 -0.714752 0
M  V30 6121 H 575.584 -0.146226 -1.94351 0
M  V30 6122 H 574.68 0.996276 -2.95771 0
M  V30 6123 N 574.981 1.5647 0.188427 0
M  V30 6124 C 575.914 1.90146 1.26173 0
M  V30 6125 C 576.892 0.762294 1.43624 0
M  V30 6126 O 578.076 1.01395 1.58907 0
M  V30 6127 C 575.203 2.13748 2.62735 0
M  V30 6128 C 574.249 3.36448 2.62116 0
M  V30 6129 S 575.082 4.91364 2.12889 0
M  V30 6130 C 576.238 5.18041 3.51261 0
M  V30 6131 H 576.471 2.80886 0.974192 0
M  V30 6132 H 574.004 1.49335 0.392226 0
M  V30 6133 H 575.962 2.28028 3.41341 0
M  V30 6134 H 574.623 1.23747 2.88696 0
M  V30 6135 H 573.816 3.50109 3.62546 0
M  V30 6136 H 573.418 3.21196 1.91596 0
M  V30 6137 H 575.71 5.0897 4.47164 0
M  V30 6138 H 576.653 6.19764 3.42489 0
M  V30 6139 H 577.061 4.45657 3.46482 0
M  V30 6140 N 576.459 -0.456382 1.50847 0
M  V30 6141 C 577.706 -1.20736 1.62571 0
M  V30 6142 C 578.034 -1.9163 0.332904 0
M  V30 6143 O 577.289 -1.8343 -0.682058 0
M  V30 6144 C 577.588 -2.26336 2.76599 0
M  V30 6145 C 577.254 -1.7259 4.16562 0
M  V30 6146 C 575.916 -1.57654 4.54641 0
M  V30 6147 C 578.268 -1.32877 5.03977 0
M  V30 6148 C 575.596 -1.0145 5.77862 0
M  V30 6149 C 577.948 -0.7811 6.27759 0
M  V30 6150 C 576.612 -0.618488 6.64628 0
M  V30 6151 H 575.882 -0.441803 0.594888 0
M  V30 6152 H 578.529 -0.501169 1.84826 0
M  V30 6153 H 576.834 -3.0292 2.48489 0
M  V30 6154 H 578.531 -2.84227 2.82871 0
M  V30 6155 H 575.121 -1.85187 3.86528 0
M  V30 6156 H 579.305 -1.43245 4.75179 0
M  V30 6157 H 574.561 -0.876109 6.0509 0
M  V30 6158 H 578.735 -0.464783 6.94847 0
M  V30 6159 H 576.362 -0.180838 7.59985 0
M  V30 6160 N 577.937 -1.40673 -0.710563 0
M  V30 6161 C 578.867 -1.44095 -1.83736 0
M  V30 6162 C 579.848 -0.301286 -1.67411 0
M  V30 6163 O 581.033 -0.510618 -1.87367 0
M  V30 6164 C 578.163 -1.30773 -3.21738 0
M  V30 6165 C 577.117 -2.42395 -3.52745 0
M  V30 6166 C 576.443 -2.14147 -4.89944 0
M  V30 6167 C 577.743 -3.84738 -3.53234 0
M  V30 6168 H 579.437 -2.38396 -1.81129 0
M  V30 6169 H 576.983 -1.14746 -0.870017 0
M  V30 6170 H 578.936 -1.31783 -4.00264 0
M  V30 6171 H 577.66 -0.329507 -3.24934 0
M  V30 6172 H 576.319 -2.40643 -2.76562 0
M  V30 6173 H 575.967 -1.14703 -4.89747 0
M  V30 6174 H 575.667 -2.88934 -5.11655 0
M  V30 6175 H 577.191 -2.16848 -5.70797 0
M  V30 6176 H 578.605 -3.88286 -4.2179 0
M  V30 6177 H 577.002 -4.59085 -3.86473 0
M  V30 6178 H 578.072 -4.13962 -2.52514 0
M  V30 6179 N 579.415 0.9433 -1.26252 0
M  V30 6180 C 580.663 1.68592 -1.11451 0
M  V30 6181 C 580.984 1.91957 0.343123 0
M  V30 6182 O 580.254 1.51475 1.24226 0
M  V30 6183 H 578.834 0.624789 -0.409448 0
M  V30 6184 H 581.496 1.13351 -1.58548 0
M  V30 6185 H 580.592 2.66054 -1.63162 0
M  V30 6186 N 580.893 1.08022 1.14757 0
M  V30 6187 C 582.141 0.805913 1.85336 0
M  V30 6188 C 582.462 -0.670162 1.83122 0
M  V30 6189 O 581.732 -1.48567 1.2769 0
M  V30 6190 H 580.312 0.295138 0.686223 0
M  V30 6191 H 582.974 1.36538 1.3908 0
M  V30 6192 H 582.07 1.14655 2.90277 0
M  V30 6193 N 582.371 -1.3172 0.865308 0
M  V30 6194 C 583.618 -1.96876 0.473931 0
M  V30 6195 C 583.946 -1.68425 -0.972786 0
M  V30 6196 O 583.201 -0.970742 -1.69927 0
M  V30 6197 C 583.5 -3.5102 0.672283 0
M  V30 6198 C 583.166 -3.9948 2.09108 0
M  V30 6199 C 581.828 -4.12425 2.4791 0
M  V30 6200 C 584.18 -4.2503 3.0166 0
M  V30 6201 C 581.508 -4.48267 3.78515 0
M  V30 6202 C 583.86 -4.62335 4.31774 0
M  V30 6203 C 582.524 -4.73486 4.70497 0
M  V30 6204 H 581.794 -0.72042 0.173424 0
M  V30 6205 H 584.441 -1.56937 1.0974 0
M  V30 6206 H 582.746 -3.91785 -0.034356 0
M  V30 6207 H 584.443 -3.99475 0.349353 0
M  V30 6208 H 581.033 -3.89898 1.77981 0
M  V30 6209 H 585.217 -4.14529 2.7291 0
M  V30 6210 H 580.473 -4.55097 4.08285 0
M  V30 6211 H 584.647 -4.81058 5.03543 0
M  V30 6212 H 582.274 -5.01016 5.71741 0
M  V30 6213 N 583.85 -0.624285 -1.44708 0
M  V30 6214 C 585.099 -0.123539 -2.01321 0
M  V30 6215 C 585.412 1.25966 -1.49639 0
M  V30 6216 O 586.618 1.85405 -1.98336 0
M  V30 6217 C 585.074 -0.170124 -3.59498 0
M  V30 6218 C 584.682 -1.55421 -4.20176 0
M  V30 6219 C 586.426 0.274513 -4.23611 0
M  V30 6220 C 584.332 -1.55628 -5.70556 0
M  V30 6221 H 583.263 -0.0424183 -0.752806 0
M  V30 6222 H 585.913 -0.782076 -1.65999 0
M  V30 6223 H 584.296 0.555385 -3.92086 0
M  V30 6224 H 585.47 -2.30276 -3.99136 0
M  V30 6225 H 583.784 -1.94235 -3.68323 0
M  V30 6226 H 586.382 0.292402 -5.339 0
M  V30 6227 H 586.725 1.3005 -3.95465 0
M  V30 6228 H 587.258 -0.398275 -3.95801 0
M  V30 6229 H 583.997 -2.56041 -6.03426 0
M  V30 6230 H 583.517 -0.850563 -5.93739 0
M  V30 6231 H 585.196 -1.28721 -6.34066 0
M  V30 6232 N 585.328 1.53329 -0.364422 0
M  V30 6233 C 586.577 2.00421 0.226747 0
M  V30 6234 C 586.89 1.25581 1.49963 0
M  V30 6235 O 588.096 1.63256 2.16933 0
M  V30 6236 C 586.552 3.57017 0.454618 0
M  V30 6237 C 586.16 4.40734 -0.803568 0
M  V30 6238 C 587.904 4.12468 1.00351 0
M  V30 6239 C 585.811 5.8888 -0.545345 0
M  V30 6240 H 584.741 0.748787 0.0885082 0
M  V30 6241 H 587.392 1.7703 -0.482983 0
M  V30 6242 H 585.774 3.76558 1.22558 0
M  V30 6243 H 586.948 4.32967 -1.57723 0
M  V30 6244 H 585.263 3.96381 -1.27559 0
M  V30 6245 H 587.86 5.20783 1.212 0
M  V30 6246 H 588.203 3.6699 1.9653 0
M  V30 6247 H 588.736 3.96721 0.29274 0
M  V30 6248 H 585.475 6.38633 -1.47743 0
M  V30 6249 H 584.995 5.99499 0.189842 0
M  V30 6250 H 586.674 6.46776 -0.170425 0
M  V30 6251 N 586.806 0.0935595 1.57322 0
M  V30 6252 C 587.753 -0.865935 2.1394 0
M  V30 6253 C 588.723 -1.28083 1.05754 0
M  V30 6254 O 589.908 -1.36285 1.33533 0
M  V30 6255 C 587.048 -2.12023 2.72287 0
M  V30 6256 C 586.161 -1.756 3.94701 0
M  V30 6257 C 585.296 -2.95804 4.41218 0
M  V30 6258 C 584.335 -2.555 5.56225 0
M  V30 6259 N 583.472 -3.68534 5.97601 0
M  V30 6260 H 588.312 -0.376261 2.95615 0
M  V30 6261 H 585.849 -0.174052 1.46067 0
M  V30 6262 H 587.807 -2.85477 3.04235 0
M  V30 6263 H 586.437 -2.58492 1.93343 0
M  V30 6264 H 585.489 -0.921208 3.69077 0
M  V30 6265 H 586.801 -1.41964 4.78171 0
M  V30 6266 H 585.955 -3.77513 4.74941 0
M  V30 6267 H 584.694 -3.32649 3.56645 0
M  V30 6268 H 583.699 -1.72218 5.22131 0
M  V30 6269 H 584.924 -2.19801 6.42545 0
M  V30 6270 H 582.87 -4.051 5.15974 0
M  V30 6271 H 582.787 -3.38737 6.75865 0
M  V30 6272 H 584.055 -4.50757 6.35955 0
M  V30 6273 N 588.284 -1.56567 -0.180126 0
M  V30 6274 C 589.231 -1.95725 -1.22313 0
M  V30 6275 C 590.201 -0.819911 -1.44453 0
M  V30 6276 O 591.386 -1.07931 -1.57339 0
M  V30 6277 C 588.526 -2.31484 -2.55947 0
M  V30 6278 C 587.639 -3.58354 -2.4126 0
M  V30 6279 C 586.774 -3.83366 -3.67701 0
M  V30 6280 C 585.813 -5.03612 -3.47909 0
M  V30 6281 N 584.95 -5.24802 -4.66398 0
M  V30 6282 H 589.79 -2.84642 -0.882198 0
M  V30 6283 H 587.327 -1.4085 -0.42422 0
M  V30 6284 H 589.285 -2.50237 -3.33822 0
M  V30 6285 H 587.915 -1.45689 -2.88053 0
M  V30 6286 H 586.967 -3.47565 -1.54606 0
M  V30 6287 H 588.279 -4.46386 -2.22577 0
M  V30 6288 H 587.433 -4.02439 -4.54013 0
M  V30 6289 H 586.172 -2.93692 -3.89353 0
M  V30 6290 H 585.177 -4.84447 -2.59983 0
M  V30 6291 H 586.402 -5.94809 -3.27688 0
M  V30 6292 H 584.348 -4.38079 -4.88286 0
M  V30 6293 H 584.265 -6.07041 -4.50596 0
M  V30 6294 H 585.533 -5.48346 -5.54019 0
M  V30 6295 N 589.762 0.448376 -1.51087 0
M  V30 6296 C 591.009 1.19872 -1.63209 0
M  V30 6297 C 591.337 1.91451 -0.343062 0
M  V30 6298 O 590.592 1.83789 0.672321 0
M  V30 6299 C 590.891 2.24866 -2.77795 0
M  V30 6300 C 590.557 1.70378 -4.17471 0
M  V30 6301 C 589.219 1.55241 -4.55471 0
M  V30 6302 C 591.571 1.30203 -5.04675 0
M  V30 6303 C 588.899 0.983844 -5.78392 0
M  V30 6304 C 591.251 0.747798 -6.28165 0
M  V30 6305 C 589.915 0.583233 -6.64947 0
M  V30 6306 H 589.185 0.438642 -0.597222 0
M  V30 6307 H 591.832 0.49136 -1.85089 0
M  V30 6308 H 590.137 3.01598 -2.50092 0
M  V30 6309 H 591.834 2.82723 -2.84374 0
M  V30 6310 H 588.424 1.83134 -3.87505 0
M  V30 6311 H 592.608 1.40723 -4.75932 0
M  V30 6312 H 587.864 0.844007 -6.05546 0
M  V30 6313 H 592.038 0.427927 -6.95084 0
M  V30 6314 H 589.665 0.140532 -7.6007 0
M  V30 6315 N 591.24 1.41047 0.703093 0
M  V30 6316 C 592.187 1.42302 1.81711 0
M  V30 6317 C 593.157 0.278336 1.63751 0
M  V30 6318 O 594.342 0.478266 1.84709 0
M  V30 6319 C 591.482 1.30362 3.19531 0
M  V30 6320 C 590.595 2.54638 3.48975 0
M  V30 6321 C 589.73 2.35047 4.76368 0
M  V30 6322 C 588.769 3.54837 4.98756 0
M  V30 6323 N 587.906 3.34363 6.1737 0
M  V30 6324 H 592.746 2.37516 1.79973 0
M  V30 6325 H 590.283 1.1795 0.878983 0
M  V30 6326 H 592.241 1.21443 3.99134 0
M  V30 6327 H 590.871 0.387602 3.20464 0
M  V30 6328 H 589.923 2.74037 2.63833 0
M  V30 6329 H 591.235 3.43766 3.61423 0
M  V30 6330 H 590.389 2.23552 5.64012 0
M  V30 6331 H 589.128 1.43363 4.66153 0
M  V30 6332 H 588.133 3.66795 4.09563 0
M  V30 6333 H 589.358 4.47464 5.10835 0
M  V30 6334 H 587.304 2.45373 6.08382 0
M  V30 6335 H 587.221 4.17063 6.30551 0
M  V30 6336 H 588.489 3.26626 7.07768 0
M  V30 6337 N 592.718 -0.936591 1.26751 0
M  V30 6338 C 593.648 -2.05315 1.11212 0
M  V30 6339 C 594.629 -1.70092 0.0160262 0
M  V30 6340 O 595.814 -1.93279 0.188894 0
M  V30 6341 C 592.944 -3.39123 0.749171 0
M  V30 6342 C 591.898 -3.88425 1.79751 0
M  V30 6343 C 591.224 -5.18936 1.28876 0
M  V30 6344 C 592.524 -4.12798 3.19992 0
M  V30 6345 H 594.218 -2.18573 2.04613 0
M  V30 6346 H 591.764 -1.05027 0.985159 0
M  V30 6347 H 593.717 -4.16704 0.627323 0
M  V30 6348 H 592.441 -3.25855 -0.220543 0
M  V30 6349 H 591.1 -3.13028 1.90811 0
M  V30 6350 H 590.748 -5.02051 0.308757 0
M  V30 6351 H 590.448 -5.52892 1.98958 0
M  V30 6352 H 591.972 -5.99096 1.17967 0
M  V30 6353 H 593.386 -4.80977 3.11983 0
M  V30 6354 H 591.783 -4.58044 3.87705 0
M  V30 6355 H 592.853 -3.18412 3.65707 0
M  V30 6356 N 594.196 -1.08629 -1.14182 0
M  V30 6357 C 595.421 -0.83902 -1.89671 0
M  V30 6358 C 595.846 0.603332 -1.78161 0
M  V30 6359 O 595.204 1.42301 -1.12339 0
M  V30 6360 C 595.252 -1.26854 -3.37551 0
M  V30 6361 O 594.356 -0.42188 -4.10236 0
M  V30 6362 H 593.697 -0.304545 -0.590041 0
M  V30 6363 H 596.227 -1.4483 -1.44518 0
M  V30 6364 H 596.237 -1.25038 -3.88368 0
M  V30 6365 H 594.912 -2.31901 -3.45246 0
M  V30 6366 H 593.489 -0.503654 -3.69483 0
M  V30 6367 N 595.674 1.31259 -0.872281 0
M  V30 6368 C 596.604 2.30929 -0.345554 0
M  V30 6369 C 597.585 1.60449 0.5648 0
M  V30 6370 O 598.77 1.8814 0.481335 0
M  V30 6371 C 595.9 3.44348 0.451823 0
M  V30 6372 C 594.854 4.26435 -0.365641 0
M  V30 6373 C 594.18 5.31785 0.557562 0
M  V30 6374 C 595.48 4.97159 -1.60095 0
M  V30 6375 H 597.174 2.75234 -1.17841 0
M  V30 6376 H 594.72 1.3232 -0.568094 0
M  V30 6377 H 596.673 4.13128 0.830854 0
M  V30 6378 H 595.397 2.98816 1.31821 0
M  V30 6379 H 594.056 3.59326 -0.726649 0
M  V30 6380 H 593.704 4.82502 1.4213 0
M  V30 6381 H 593.404 5.87598 0.0144878 0
M  V30 6382 H 594.928 6.03424 0.933387 0
M  V30 6383 H 596.342 5.58523 -1.29323 0
M  V30 6384 H 594.739 5.62779 -2.08327 0
M  V30 6385 H 595.809 4.24012 -2.35249 0
M  V30 6386 N 597.152 0.631951 1.44375 0
M  V30 6387 C 598.398 0.13697 2.02337 0
M  V30 6388 C 598.731 -1.23826 1.49602 0
M  V30 6389 O 598.006 -1.8221 0.680415 0
M  V30 6390 C 598.289 0.124536 3.59885 0
M  V30 6391 C 598.142 1.53217 4.229 0
M  V30 6392 C 599.461 -0.550481 4.36644 0
M  V30 6393 H 596.58 0.051247 0.735216 0
M  V30 6394 H 599.222 0.808581 1.71936 0
M  V30 6395 H 597.372 -0.44737 3.85916 0
M  V30 6396 H 599.044 2.15303 4.07973 0
M  V30 6397 H 597.287 2.0858 3.80364 0
M  V30 6398 H 597.958 1.4755 5.31914 0
M  V30 6399 H 600.434 -0.0641154 4.16051 0
M  V30 6400 H 599.31 -0.528371 5.46351 0
M  V30 6401 H 599.571 -1.62097 4.11311 0
M  V30 6402 N 598.631 -1.53133 0.372548 0
M  V30 6403 C 599.879 -2.00958 -0.214534 0
M  V30 6404 C 600.2 -1.26135 -1.48711 0
M  V30 6405 O 599.47 -0.376597 -1.92246 0
M  V30 6406 H 598.05 -0.742456 -0.0822664 0
M  V30 6407 H 600.712 -1.88367 0.500385 0
M  V30 6408 H 599.808 -3.09031 -0.436605 0
M  V30 6409 N 600.109 -0.101901 -1.5727 0
M  V30 6410 C 601.358 0.559922 -1.93772 0
M  V30 6411 C 601.671 1.68913 -0.98629 0
M  V30 6412 O 602.877 2.41256 -1.24529 0
M  V30 6413 C 601.333 1.04739 -3.44322 0
M  V30 6414 C 600.941 -0.05243 -4.47969 0
M  V30 6415 C 602.685 1.68157 -3.89774 0
M  V30 6416 C 600.592 0.450781 -5.8968 0
M  V30 6417 H 599.522 0.212931 -0.723309 0
M  V30 6418 H 602.173 -0.179001 -1.82625 0
M  V30 6419 H 600.555 1.84021 -3.50645 0
M  V30 6420 H 601.729 -0.828157 -4.53297 0
M  V30 6421 H 600.044 -0.592202 -4.12167 0
M  V30 6422 H 602.641 2.0689 -4.93052 0
M  V30 6423 H 602.984 2.55338 -3.28798 0
M  V30 6424 H 603.517 0.954453 -3.8618 0
M  V30 6425 H 600.256 -0.38458 -6.54371 0
M  V30 6426 H 599.776 1.19336 -5.87809 0
M  V30 6427 H 601.455 0.917555 -6.40461 0
M  V30 6428 N 601.587 1.56661 0.17182 0
M  V30 6429 C 602.55 1.9549 1.19651 0
M  V30 6430 C 603.55 0.838501 1.37207 0
M  V30 6431 O 604.74 1.10556 1.34622 0
M  V30 6432 C 601.872 2.24927 2.56166 0
M  V30 6433 H 603.065 2.87184 0.864007 0
M  V30 6434 H 600.618 1.50711 0.41425 0
M  V30 6435 H 601.353 1.35944 2.94431 0
M  V30 6436 H 601.138 3.06301 2.4479 0
M  V30 6437 H 602.628 2.55891 3.30014 0
M  V30 6438 N 603.065 -0.440357 1.51323 0
M  V30 6439 C 604.012 -1.53429 1.72419 0
M  V30 6440 C 604.982 -1.56165 0.565826 0
M  V30 6441 O 606.167 -1.73222 0.799917 0
M  V30 6442 C 603.307 -2.91169 1.85242 0
M  V30 6443 C 602.42 -2.97985 3.12777 0
M  V30 6444 C 601.555 -4.26829 3.16212 0
M  V30 6445 C 600.594 -4.27501 4.38074 0
M  V30 6446 N 599.731 -5.47866 4.39076 0
M  V30 6447 H 604.571 -1.34743 2.65797 0
M  V30 6448 H 602.108 -0.654608 1.31732 0
M  V30 6449 H 604.066 -3.71087 1.90658 0
M  V30 6450 H 602.696 -3.0842 0.952744 0
M  V30 6451 H 601.748 -2.10749 3.16685 0
M  V30 6452 H 603.06 -2.94342 4.02696 0
M  V30 6453 H 602.214 -5.15118 3.20527 0
M  V30 6454 H 600.953 -4.33124 2.24176 0
M  V30 6455 H 599.958 -3.37606 4.33938 0
M  V30 6456 H 601.183 -4.22873 5.31371 0
M  V30 6457 H 599.129 -5.54887 3.49909 0
M  V30 6458 H 599.046 -5.46091 5.22801 0
M  V30 6459 H 600.314 -6.38195 4.4758 0
M  V30 6460 N 604.543 -1.41418 -0.695603 0
M  V30 6461 C 605.79 -1.40774 -1.45564 0
M  V30 6462 C 606.118 -0.0168604 -1.94493 0
M  V30 6463 O 605.373 0.971259 -1.69897 0
M  V30 6464 C 605.672 -2.36112 -2.68302 0
M  V30 6465 C 605.338 -3.82952 -2.38031 0
M  V30 6466 C 604 -4.22954 -2.29486 0
M  V30 6467 C 606.352 -4.75662 -2.13061 0
M  V30 6468 C 603.68 -5.53674 -1.94067 0
M  V30 6469 C 606.032 -6.06702 -1.79151 0
M  V30 6470 C 604.696 -6.45725 -1.69102 0
M  V30 6471 H 603.966 -0.515128 -0.532658 0
M  V30 6472 H 606.613 -1.74216 -0.795047 0
M  V30 6473 H 604.918 -1.95924 -3.39295 0
M  V30 6474 H 606.615 -2.32887 -3.26442 0
M  V30 6475 H 603.205 -3.5127 -2.45576 0
M  V30 6476 H 607.389 -4.45561 -2.18608 0
M  V30 6477 H 602.645 -5.8279 -1.8484 0
M  V30 6478 H 606.819 -6.78041 -1.5885 0
M  V30 6479 H 604.446 -7.46929 -1.41426 0
M  V30 6480 N 606.021 0.929856 -1.27246 0
M  V30 6481 C 607.246 1.71674 -1.16374 0
M  V30 6482 C 607.671 1.86064 0.276024 0
M  V30 6483 O 607.029 1.3591 1.19992 0
M  V30 6484 C 607.077 3.09526 -1.85003 0
M  V30 6485 O 606.181 3.96142 -1.14653 0
M  V30 6486 H 605.522 0.52629 -0.404863 0
M  V30 6487 H 608.052 1.16381 -1.68276 0
M  V30 6488 H 608.062 3.59852 -1.92276 0
M  V30 6489 H 606.737 2.98369 -2.89739 0
M  V30 6490 H 605.314 3.54584 -1.15433 0
M  V30 6491 N 607.499 1.09233 1.13605 0
M  V30 6492 C 608.746 0.827159 1.84836 0
M  V30 6493 C 609.074 -0.647199 1.83416 0
M  V30 6494 O 608.329 -1.49228 1.26608 0
M  V30 6495 C 608.628 1.305 3.32723 0
M  V30 6496 C 608.294 2.78864 3.54325 0
M  V30 6497 C 606.956 3.19382 3.59928 0
M  V30 6498 C 609.308 3.74532 3.62457 0
M  V30 6499 C 606.636 4.54346 3.71196 0
M  V30 6500 C 608.988 5.09283 3.75252 0
M  V30 6501 C 607.652 5.49394 3.79108 0
M  V30 6502 H 606.922 0.302679 0.676363 0
M  V30 6503 H 609.569 1.36676 1.34134 0
M  V30 6504 H 607.874 0.68517 3.85762 0
M  V30 6505 H 609.571 1.07648 3.86281 0
M  V30 6506 H 606.161 2.46507 3.50617 0
M  V30 6507 H 610.345 3.44343 3.57409 0
M  V30 6508 H 605.601 4.84864 3.72447 0
M  V30 6509 H 609.775 5.83269 3.80487 0
M  V30 6510 H 607.402 6.5397 3.87591 0
M  V30 6511 N 608.977 -1.30795 0.87923 0
M  V30 6512 C 609.907 -2.30742 0.357796 0
M  V30 6513 C 610.888 -1.60747 -0.556283 0
M  V30 6514 O 612.073 -1.88393 -0.47135 0
M  V30 6515 C 609.203 -3.44583 -0.433555 0
M  V30 6516 C 608.157 -4.26235 0.388251 0
M  V30 6517 C 607.483 -5.32073 -0.529352 0
M  V30 6518 C 608.783 -4.96303 1.62729 0
M  V30 6519 H 610.477 -2.74605 1.19299 0
M  V30 6520 H 608.023 -1.32017 0.575104 0
M  V30 6521 H 609.976 -4.13563 -0.808934 0
M  V30 6522 H 608.7 -2.99511 -1.30234 0
M  V30 6523 H 607.359 -3.58936 0.745695 0
M  V30 6524 H 607.007 -4.83249 -1.39569 0
M  V30 6525 H 606.707 -5.87598 0.0166741 0
M  V30 6526 H 608.231 -6.0391 -0.901373 0
M  V30 6527 H 609.645 -5.5783 1.32283 0
M  V30 6528 H 608.042 -5.61666 2.11309 0
M  V30 6529 H 609.112 -4.22758 2.37494 0
M  V30 6530 N 610.455 -0.639598 -1.44038 0
M  V30 6531 C 611.683 -0.154811 -2.0632 0
M  V30 6532 C 612.098 1.17406 -1.47856 0
M  V30 6533 O 611.455 1.72193 -0.604638 0
M  V30 6534 C 611.506 -0.0429958 -3.61474 0
M  V30 6535 O 611.227 -1.31932 -4.17763 0
M  V30 6536 C 612.728 0.469486 -4.40807 0
M  V30 6537 H 609.948 -0.0835862 -0.665773 0
M  V30 6538 H 612.492 -0.876397 -1.84769 0
M  V30 6539 H 610.647 0.629075 -3.82258 0
M  V30 6540 H 611.061 -1.16965 -5.11292 0
M  V30 6541 H 612.535 0.496712 -5.49761 0
M  V30 6542 H 613.012 1.49819 -4.12857 0
M  V30 6543 H 613.618 -0.169624 -4.24962 0
M  V30 6544 N 611.933 1.52934 -0.380664 0
M  V30 6545 C 613.158 2.06363 0.207157 0
M  V30 6546 C 613.583 1.25122 1.4045 0
M  V30 6547 O 612.941 0.274062 1.79217 0
M  V30 6548 C 612.989 3.56162 0.563996 0
M  V30 6549 O 612.093 3.77552 1.65917 0
M  V30 6550 H 611.434 0.663468 0.0265859 0
M  V30 6551 H 613.964 1.9719 -0.545635 0
M  V30 6552 H 613.974 3.99453 0.830752 0
M  V30 6553 H 612.649 4.14732 -0.311427 0
M  V30 6554 H 611.226 3.46154 1.3868 0
M  V30 6555 N 613.412 0.11024 1.57214 0
M  V30 6556 C 614.345 -0.880224 2.1054 0
M  V30 6557 C 615.323 -1.26658 1.01964 0
M  V30 6558 O 616.507 -1.36917 1.29561 0
M  V30 6559 C 613.634 -2.17676 2.59489 0
M  V30 6560 C 612.68 -1.93914 3.79868 0
M  V30 6561 S 613.513 -1.16336 5.2271 0
M  V30 6562 C 614.669 -2.47188 5.75021 0
M  V30 6563 H 614.902 -0.426614 2.94223 0
M  V30 6564 H 612.435 -0.10336 1.54054 0
M  V30 6565 H 614.393 -2.92175 2.88347 0
M  V30 6566 H 613.054 -2.60156 1.76005 0
M  V30 6567 H 612.247 -2.8996 4.12236 0
M  V30 6568 H 611.849 -1.27539 3.51582 0
M  V30 6569 H 614.141 -3.43079 5.84211 0
M  V30 6570 H 615.084 -2.19377 6.7326 0
M  V30 6571 H 615.492 -2.56154 5.03036 0
M  V30 6572 N 614.89 -1.56749 -0.16351 0
M  V30 6573 C 616.139 -1.81626 -0.877211 0
M  V30 6574 C 616.452 -0.688791 -1.83071 0
M  V30 6575 O 617.658 -0.822697 -2.58735 0
M  V30 6576 C 616.114 -3.21858 -1.61045 0
M  V30 6577 C 615.722 -4.42494 -0.700195 0
M  V30 6578 C 617.466 -3.56021 -2.31192 0
M  V30 6579 C 615.373 -5.73748 -1.43412 0
M  V30 6580 H 614.303 -0.67731 -0.331312 0
M  V30 6581 H 616.954 -1.83039 -0.13006 0
M  V30 6582 H 615.336 -3.14784 -2.40264 0
M  V30 6583 H 616.51 -4.60766 0.0555849 0
M  V30 6584 H 614.825 -4.1626 -0.10799 0
M  V30 6585 H 617.422 -4.51333 -2.8671 0
M  V30 6586 H 617.765 -2.81277 -3.06902 0
M  V30 6587 H 618.298 -3.64682 -1.58909 0
M  V30 6588 H 615.037 -6.51543 -0.719186 0
M  V30 6589 H 614.557 -5.5944 -2.16302 0
M  V30 6590 H 616.236 -6.15975 -1.9795 0
M  V30 6591 N 616.368 0.432326 -1.51554 0
M  V30 6592 C 617.593 1.20824 -1.68571 0
M  V30 6593 C 618.018 1.84126 -0.384596 0
M  V30 6594 O 617.376 1.69025 0.655751 0
M  V30 6595 C 617.424 2.26429 -2.80646 0
M  V30 6596 O 616.528 3.32032 -2.44598 0
M  V30 6597 H 615.869 0.353765 -0.561913 0
M  V30 6598 H 618.399 0.509916 -1.98144 0
M  V30 6599 H 618.409 2.71133 -3.04878 0
M  V30 6600 H 617.084 1.79733 -3.75058 0
M  V30 6601 H 615.661 2.92769 -2.30956 0
M  V30 6602 N 617.846 1.41785 0.688094 0
M  V30 6603 C 619.093 1.41544 1.44816 0
M  V30 6604 C 619.421 0.0271746 1.94481 0
M  V30 6605 O 618.676 -0.962235 1.7041 0
M  V30 6606 C 618.975 2.37532 2.67046 0
M  V30 6607 C 618.641 3.84209 2.35996 0
M  V30 6608 C 617.303 4.24165 2.27239 0
M  V30 6609 C 619.655 4.76785 2.10536 0
M  V30 6610 C 616.983 5.54695 1.91128 0
M  V30 6611 C 619.335 6.07644 1.75931 0
M  V30 6612 C 617.999 6.46613 1.65675 0
M  V30 6613 H 617.269 0.517945 0.529919 0
M  V30 6614 H 619.916 1.74635 0.785797 0
M  V30 6615 H 618.221 1.9772 3.38251 0
M  V30 6616 H 619.918 2.34615 3.25203 0
M  V30 6617 H 616.508 3.52567 2.4371 0
M  V30 6618 H 620.692 4.46714 2.16242 0
M  V30 6619 H 615.948 5.83762 1.81746 0
M  V30 6620 H 620.122 6.78874 1.55252 0
M  V30 6621 H 617.749 7.47668 1.37463 0
M  V30 6622 N 619.324 -0.923095 1.27737 0
M  V30 6623 C 620.254 -2.04124 1.13383 0
M  V30 6624 C 621.235 -1.70066 0.0340658 0
M  V30 6625 O 622.42 -1.93068 0.209383 0
M  V30 6626 C 619.55 -3.3831 0.785097 0
M  V30 6627 C 618.504 -3.86496 1.8386 0
M  V30 6628 C 617.83 -5.1754 1.34373 0
M  V30 6629 C 619.13 -4.09381 3.24353 0
M  V30 6630 H 620.824 -2.1639 2.06919 0
M  V30 6631 H 618.37 -1.03976 0.996243 0
M  V30 6632 H 620.323 -4.16016 0.671485 0
M  V30 6633 H 619.047 -3.2607 -0.185969 0
M  V30 6634 H 617.706 -3.10987 1.9412 0
M  V30 6635 H 617.354 -5.01696 0.361989 0
M  V30 6636 H 617.054 -5.50751 2.04811 0
M  V30 6637 H 618.578 -5.97811 1.24315 0
M  V30 6638 H 619.992 -4.77641 3.17067 0
M  V30 6639 H 618.389 -4.53906 3.92542 0
M  V30 6640 H 619.459 -3.14515 3.69064 0
M  V30 6641 N 620.802 -1.09834 -1.13024 0
M  V30 6642 C 622.049 -0.83695 -1.84395 0
M  V30 6643 C 622.377 0.637463 -1.83757 0
M  V30 6644 O 621.632 1.48554 -1.27398 0
M  V30 6645 C 621.931 -1.32263 -3.32026 0
M  V30 6646 C 621.597 -2.80739 -3.52841 0
M  V30 6647 C 620.259 -3.21286 -3.5823 0
M  V30 6648 C 622.611 -3.76449 -3.60466 0
M  V30 6649 C 619.939 -4.56308 -3.68781 0
M  V30 6650 C 622.291 -5.11266 -3.72546 0
M  V30 6651 C 620.955 -5.51397 -3.76189 0
M  V30 6652 H 620.225 -0.306262 -0.674748 0
M  V30 6653 H 622.872 -1.37385 -1.33408 0
M  V30 6654 H 621.177 -0.705618 -3.85394 0
M  V30 6655 H 622.874 -1.09695 -3.85705 0
M  V30 6656 H 619.464 -2.48363 -3.49305 0
M  V30 6657 H 623.648 -3.46234 -3.55578 0
M  V30 6658 H 618.904 -4.86832 -3.69871 0
M  V30 6659 H 623.078 -5.85279 -3.77388 0
M  V30 6660 H 620.705 -6.56017 -3.84117 0
M  V30 6661 N 622.28 1.30327 -0.886154 0
M  V30 6662 C 623.212 2.27079 -0.311072 0
M  V30 6663 C 624.225 1.53758 0.53502 0
M  V30 6664 O 625.414 1.74947 0.354378 0
M  V30 6665 C 622.514 3.33965 0.576228 0
M  V30 6666 C 621.687 4.36735 -0.241064 0
M  V30 6667 C 620.746 5.23028 0.576916 0
M  V30 6668 O 619.772 5.692 -0.000802231 0
M  V30 6669 N 620.974 5.49016 1.88579 0
M  V30 6670 H 623.739 2.77065 -1.14259 0
M  V30 6671 H 621.3 1.43519 -0.749258 0
M  V30 6672 H 623.292 3.88618 1.12953 0
M  V30 6673 H 621.862 2.839 1.30842 0
M  V30 6674 H 621.082 3.81932 -0.975805 0
M  V30 6675 H 622.37 5.02451 -0.801272 0
M  V30 6676 H 621.768 5.13288 2.37806 0
M  V30 6677 H 620.325 6.06539 2.38651 0
M  V30 6678 N 623.758 0.647228 1.43697 0
M  V30 6679 C 624.688 -0.0345631 2.33474 0
M  V30 6680 C 625.669 -0.818193 1.4913 0
M  V30 6681 O 626.854 -0.780867 1.77809 0
M  V30 6682 C 623.984 -1.00576 3.32418 0
M  V30 6683 C 622.938 -0.33266 4.26705 0
M  V30 6684 C 622.264 -1.41489 5.1564 0
M  V30 6685 C 623.564 0.771204 5.16575 0
M  V30 6686 H 625.258 0.715163 2.90733 0
M  V30 6687 H 622.804 0.345364 1.39797 0
M  V30 6688 H 624.757 -1.49159 3.94119 0
M  V30 6689 H 623.481 -1.78657 2.73403 0
M  V30 6690 H 622.14 0.13267 3.6636 0
M  V30 6691 H 621.788 -2.18698 4.52968 0
M  V30 6692 H 621.488 -0.969799 5.79542 0
M  V30 6693 H 623.012 -1.9022 5.80214 0
M  V30 6694 H 624.426 0.36779 5.72119 0
M  V30 6695 H 622.823 1.1404 5.89165 0
M  V30 6696 H 623.893 1.63169 4.56622 0
M  V30 6697 N 625.236 -1.5273 0.388769 0
M  V30 6698 C 626.166 -2.29353 -0.438111 0
M  V30 6699 C 627.147 -1.32719 -1.06394 0
M  V30 6700 O 628.332 -1.61612 -1.07681 0
M  V30 6701 C 625.462 -3.09995 -1.56589 0
M  V30 6702 C 624.416 -4.14509 -1.06613 0
M  V30 6703 C 623.742 -4.83372 -2.28594 0
M  V30 6704 C 625.042 -5.22127 -0.134459 0
M  V30 6705 H 626.736 -2.98723 0.201206 0
M  V30 6706 H 624.282 -1.43665 0.0982089 0
M  V30 6707 H 626.235 -3.62357 -2.15118 0
M  V30 6708 H 624.959 -2.38357 -2.23279 0
M  V30 6709 H 623.618 -3.63128 -0.503383 0
M  V30 6710 H 623.266 -4.08283 -2.93792 0
M  V30 6711 H 622.966 -5.54012 -1.95817 0
M  V30 6712 H 624.49 -5.38538 -2.87766 0
M  V30 6713 H 625.904 -5.69851 -0.627914 0
M  V30 6714 H 624.301 -6.00011 0.103534 0
M  V30 6715 H 625.371 -4.77971 0.816798 0
M  V30 6716 N 626.714 -0.118576 -1.57153 0
M  V30 6717 C 627.944 0.546466 -1.99242 0
M  V30 6718 C 628.352 1.60791 -0.997148 0
M  V30 6719 O 627.695 1.83691 0.0181745 0
M  V30 6720 C 627.757 1.23167 -3.37743 0
M  V30 6721 C 627.421 0.318226 -4.55891 0
M  V30 6722 C 628.418 -0.442988 -5.18009 0
M  V30 6723 C 626.103 0.229421 -5.01776 0
M  V30 6724 C 628.097 -1.28074 -6.244 0
M  V30 6725 C 625.784 -0.611966 -6.08028 0
M  V30 6726 C 626.782 -1.36568 -6.69207 0
M  V30 6727 O 626.47 -2.1931 -7.73407 0
M  V30 6728 H 626.202 0.149297 -0.659307 0
M  V30 6729 H 628.756 -0.201603 -2.04408 0
M  V30 6730 H 626.986 2.0268 -3.29329 0
M  V30 6731 H 628.675 1.79358 -3.64123 0
M  V30 6732 H 629.441 -0.38425 -4.83475 0
M  V30 6733 H 625.32 0.805771 -4.53903 0
M  V30 6734 H 628.864 -1.86952 -6.72082 0
M  V30 6735 H 624.761 -0.6721 -6.41991 0
M  V30 6736 H 625.529 -2.12247 -7.90502 0
M  V30 6737 N 628.193 1.56834 0.155195 0
M  V30 6738 C 629.44 1.82898 0.869179 0
M  V30 6739 C 629.768 0.698194 1.81537 0
M  V30 6740 O 629.023 -0.313404 1.93174 0
M  V30 6741 C 629.322 3.15239 1.68402 0
M  V30 6742 C 628.988 4.42123 0.885341 0
M  V30 6743 C 627.65 4.76583 0.664971 0
M  V30 6744 C 630.002 5.20178 0.326234 0
M  V30 6745 C 627.33 5.86566 -0.125346 0
M  V30 6746 C 629.682 6.3099 -0.45108 0
M  V30 6747 C 628.346 6.64006 -0.682102 0
M  V30 6748 H 627.616 0.66927 0.318055 0
M  V30 6749 H 630.263 1.91036 0.133241 0
M  V30 6750 H 628.568 3.02515 2.48982 0
M  V30 6751 H 630.265 3.32618 2.23978 0
M  V30 6752 H 626.855 4.15102 1.06716 0
M  V30 6753 H 631.039 4.93936 0.483787 0
M  V30 6754 H 626.295 6.10594 -0.313915 0
M  V30 6755 H 630.469 6.9067 -0.89149 0
M  V30 6756 H 628.096 7.49065 -1.29636 0
M  V30 6757 N 629.671 -0.424282 1.51781 0
M  V30 6758 C 631.082 -1.00368 1.57427 0
M  V30 6759 C 631.433 -1.91962 0.40558 0
M  V30 6760 O 630.558 -2.111 -0.47601 0
M  V30 6761 C 631.153 -1.82707 2.85313 0
M  V30 6762 C 629.712 -2.35675 2.93487 0
M  V30 6763 C 628.859 -1.1524 2.5222 0
M  V30 6764 H 631.81 -0.205064 1.5737 0
M  V30 6765 H 631.831 -2.68294 2.69812 0
M  V30 6766 H 631.343 -1.16017 3.70353 0
M  V30 6767 H 629.444 -3.05781 2.12906 0
M  V30 6768 H 629.557 -2.67578 3.97415 0
M  V30 6769 H 627.921 -1.50174 2.05718 0
M  V30 6770 H 628.704 -0.5014 3.39619 0
M  V30 6771 N 631.149 -1.42148 -0.680565 0
M  V30 6772 C 632.079 -1.4796 -1.80638 0
M  V30 6773 C 633.06 -0.336728 -1.66734 0
M  V30 6774 O 634.245 -0.550247 -1.86242 0
M  V30 6775 C 631.375 -1.37569 -3.18892 0
M  V30 6776 C 630.329 -2.49823 -3.47524 0
M  V30 6777 C 629.655 -2.24491 -4.85291 0
M  V30 6778 C 630.955 -3.92144 -3.44994 0
M  V30 6779 H 632.649 -2.42184 -1.76032 0
M  V30 6780 H 630.195 -1.16566 -0.845481 0
M  V30 6781 H 632.148 -1.40243 -3.97379 0
M  V30 6782 H 630.872 -0.398357 -3.24162 0
M  V30 6783 H 629.531 -2.46455 -2.71395 0
M  V30 6784 H 629.179 -1.25066 -4.87204 0
M  V30 6785 H 628.879 -2.99722 -5.05411 0
M  V30 6786 H 630.403 -2.28906 -5.66069 0
M  V30 6787 H 631.817 -3.97145 -4.13459 0
M  V30 6788 H 630.214 -4.67179 -3.76648 0
M  V30 6789 H 631.284 -4.19225 -2.43676 0
M  V30 6790 N 632.627 0.916307 -1.28225 0
M  V30 6791 C 633.876 1.65975 -1.14608 0
M  V30 6792 C 634.189 1.93204 0.305191 0
M  V30 6793 O 635.395 2.65611 0.562432 0
M  V30 6794 C 633.851 2.98989 -2.00333 0
M  V30 6795 C 633.459 2.79417 -3.50186 0
M  V30 6796 C 635.203 3.76856 -1.95397 0
M  V30 6797 C 633.11 4.08056 -4.28071 0
M  V30 6798 H 632.04 0.622587 -0.425324 0
M  V30 6799 H 634.691 1.01705 -1.52736 0
M  V30 6800 H 633.073 3.6438 -1.5506 0
M  V30 6801 H 634.247 2.22723 -4.034 0
M  V30 6802 H 632.562 2.14966 -3.56621 0
M  V30 6803 H 635.159 4.72203 -2.50856 0
M  V30 6804 H 635.502 4.05776 -0.930137 0
M  V30 6805 H 636.035 3.1828 -2.38626 0
M  V30 6806 H 632.774 3.8431 -5.31024 0
M  V30 6807 H 632.294 4.64371 -3.79631 0
M  V30 6808 H 633.973 4.76333 -4.37854 0
M  V30 6809 N 634.105 1.10431 1.1244 0
M  V30 6810 C 635.345 0.856518 1.85589 0
M  V30 6811 C 635.709 -0.606905 1.82156 0
M  V30 6812 O 636.91 -0.97105 2.50647 0
M  V30 6813 C 635.181 1.38977 3.29272 0
M  V30 6814 S 636.74 1.27739 4.19795 0
M  V30 6815 H 633.558 0.309509 0.640098 0
M  V30 6816 H 636.16 1.40975 1.35449 0
M  V30 6817 H 634.864 2.44887 3.2933 0
M  V30 6818 H 634.395 0.833112 3.84477 0
M  V30 6819 H 636.41 0.235051 4.95643 0
M  V30 6820 N 635.583 -1.29855 0.893053 0
M  V30 6821 C 636.493 -2.31661 0.370157 0
M  V30 6822 C 637.509 -1.65677 -0.531723 0
M  V30 6823 O 638.685 -1.9691 -0.422902 0
M  V30 6824 C 635.75 -3.44388 -0.399741 0
M  V30 6825 C 634.811 -4.2598 0.532861 0
M  V30 6826 C 634.044 -5.33324 -0.200388 0
M  V30 6827 O 634.267 -5.52305 -1.42531 0
M  V30 6828 O 633.201 -6.00188 0.453668 0
M  V30 6829 H 637.027 -2.78354 1.2146 0
M  V30 6830 H 634.612 -1.34171 0.657153 0
M  V30 6831 H 636.494 -4.13037 -0.835358 0
M  V30 6832 H 635.169 -2.99815 -1.22035 0
M  V30 6833 H 634.076 -3.59998 1.01746 0
M  V30 6834 H 635.409 -4.74178 1.3197 0
M  V30 6835 N 637.061 -0.65484 -1.43351 0
M  V30 6836 C 638.286 -0.175046 -2.0666 0
M  V30 6837 C 638.711 1.15104 -1.4877 0
M  V30 6838 O 638.069 1.71144 -0.598279 0
M  V30 6839 C 638.117 -0.0991544 -3.60464 0
M  V30 6840 O 637.221 0.938169 -4.01587 0
M  V30 6841 H 636.562 -0.0956148 -0.65708 0
M  V30 6842 H 639.092 -0.898222 -1.83829 0
M  V30 6843 H 639.102 0.083632 -4.07914 0
M  V30 6844 H 637.777 -1.06719 -4.01975 0
M  V30 6845 H 636.354 0.72804 -3.65724 0
M  V30 6846 N 638.539 1.52521 -0.396863 0
M  V30 6847 C 639.486 2.26671 0.434624 0
M  V30 6848 C 640.456 1.28584 1.05144 0
M  V30 6849 O 641.641 1.57426 1.07804 0
M  V30 6850 C 638.781 3.08234 1.55196 0
M  V30 6851 C 637.894 4.21261 0.957262 0
M  V30 6852 C 637.029 4.90205 2.04627 0
M  V30 6853 C 636.068 5.95213 1.42787 0
M  V30 6854 N 635.205 6.57723 2.45651 0
M  V30 6855 H 640.045 2.973 -0.204139 0
M  V30 6856 H 637.582 1.46669 -0.112505 0
M  V30 6857 H 639.54 3.53819 2.2106 0
M  V30 6858 H 638.17 2.398 2.16092 0
M  V30 6859 H 637.222 3.79935 0.188005 0
M  V30 6860 H 638.534 4.96624 0.465416 0
M  V30 6861 H 637.688 5.39133 2.78246 0
M  V30 6862 H 636.427 4.14383 2.57174 0
M  V30 6863 H 635.432 5.45616 0.676968 0
M  V30 6864 H 636.657 6.72972 0.910255 0
M  V30 6865 H 634.603 5.84737 2.97353 0
M  V30 6866 H 634.52 7.28723 2.01243 0
M  V30 6867 H 635.788 7.11293 3.18876 0
M  V30 6868 N 640.017 0.126909 1.57088 0
M  V30 6869 C 641.242 -0.53997 2.00248 0
M  V30 6870 C 641.667 -1.58927 1.00618 0
M  V30 6871 O 641.025 -1.81288 -0.0210131 0
M  V30 6872 C 641.073 -1.13565 3.4225 0
M  V30 6873 O 640.177 -2.25103 3.45547 0
M  V30 6874 H 639.518 -0.13412 0.650314 0
M  V30 6875 H 642.048 0.217718 2.03438 0
M  V30 6876 H 642.058 -1.46925 3.80627 0
M  V30 6877 H 640.733 -0.367122 4.14277 0
M  V30 6878 H 639.31 -1.93123 3.18995 0
M  V30 6879 N 641.495 -1.56914 -0.146875 0
M  V30 6880 C 642.741 -1.83628 -0.860741 0
M  V30 6881 C 643.074 -0.708528 -1.80813 0
M  V30 6882 O 642.349 0.287838 -1.92358 0
M  V30 6883 C 642.632 -3.20836 -1.63511 0
M  V30 6884 C 642.485 -4.44174 -0.709199 0
M  V30 6885 C 643.804 -3.55268 -2.59756 0
M  V30 6886 H 640.923 -0.667949 -0.311468 0
M  V30 6887 H 643.565 -1.89582 -0.125936 0
M  V30 6888 H 641.715 -3.15891 -2.26153 0
M  V30 6889 H 643.387 -4.61205 -0.0937781 0
M  V30 6890 H 641.63 -4.33796 -0.0187856 0
M  V30 6891 H 642.301 -5.36785 -1.28707 0
M  V30 6892 H 644.777 -3.60824 -2.07232 0
M  V30 6893 H 643.653 -4.52303 -3.10987 0
M  V30 6894 H 643.914 -2.81231 -3.41118 0
M  V30 6895 N 642.974 0.416227 -1.52004 0
M  V30 6896 C 643.937 1.48926 -1.74223 0
M  V30 6897 C 644.937 1.48693 -0.612119 0
M  V30 6898 O 646.127 1.50343 -0.879921 0
M  V30 6899 C 643.259 2.88372 -1.81809 0
M  V30 6900 H 644.452 1.3052 -2.70008 0
M  V30 6901 H 642.005 0.646271 -1.42313 0
M  V30 6902 H 642.74 3.12157 -0.879135 0
M  V30 6903 H 642.525 2.89944 -2.6396 0
M  V30 6904 H 644.015 3.66173 -2.00766 0
M  V30 6905 N 644.452 1.42507 0.673017 0
M  V30 6906 C 645.7 1.42789 1.43023 0
M  V30 6907 C 646.021 0.0459738 1.94946 0
M  V30 6908 O 645.291 -0.915765 1.73178 0
M  V30 6909 H 643.871 0.525657 0.530748 0
M  V30 6910 H 646.533 1.77944 0.795113 0
M  V30 6911 H 645.629 2.12872 2.28237 0
M  V30 6912 N 645.93 -0.909495 1.28709 0
M  V30 6913 C 646.86 -2.0291 1.15542 0
M  V30 6914 C 647.841 -1.7002 0.0521017 0
M  V30 6915 O 649.026 -1.92835 0.229849 0
M  V30 6916 C 646.156 -3.37458 0.820935 0
M  V30 6917 C 645.11 -3.84524 1.87949 0
M  V30 6918 C 644.436 -5.16086 1.39854 0
M  V30 6919 C 645.736 -4.05918 3.28676 0
M  V30 6920 H 647.43 -2.14183 2.09203 0
M  V30 6921 H 644.976 -1.02913 1.00722 0
M  V30 6922 H 646.929 -4.1528 0.715571 0
M  V30 6923 H 645.653 -3.26249 -0.151374 0
M  V30 6924 H 644.312 -3.08911 1.97408 0
M  V30 6925 H 643.96 -5.01284 0.41518 0
M  V30 6926 H 643.66 -5.48547 2.1064 0
M  V30 6927 H 645.184 -5.96459 1.30649 0
M  V30 6928 H 646.598 -4.74252 3.22115 0
M  V30 6929 H 644.995 -4.49717 3.97334 0
M  V30 6930 H 646.065 -3.10583 3.72379 0
M  V30 6931 N 647.408 -1.11026 -1.11852 0
M  V30 6932 C 648.636 -0.878818 -1.87308 0
M  V30 6933 C 649.051 0.57111 -1.79955 0
M  V30 6934 O 648.408 1.39409 -1.17777 0
M  V30 6935 C 648.459 -1.3264 -3.36287 0
M  V30 6936 O 648.18 -2.71948 -3.43476 0
M  V30 6937 C 649.681 -1.12974 -4.28663 0
M  V30 6938 H 646.901 -0.315015 -0.592458 0
M  V30 6939 H 649.445 -1.47649 -1.41492 0
M  V30 6940 H 647.6 -0.772269 -3.79625 0
M  V30 6941 H 648.014 -2.91241 -4.3621 0
M  V30 6942 H 649.488 -1.49198 -5.31454 0
M  V30 6943 H 649.965 -0.0689127 -4.39146 0
M  V30 6944 H 650.571 -1.67064 -3.91113 0
M  V30 6945 N 648.886 1.2938 -0.899927 0
M  V30 6946 C 649.816 2.30144 -0.39446 0
M  V30 6947 C 650.797 1.61611 0.530639 0
M  V30 6948 O 651.982 1.89119 0.441319 0
M  V30 6949 C 649.112 3.45229 0.37868 0
M  V30 6950 C 648.066 4.25564 -0.456012 0
M  V30 6951 C 647.392 5.32848 0.444637 0
M  V30 6952 C 648.692 4.93651 -1.70605 0
M  V30 6953 H 650.386 2.72673 -1.23653 0
M  V30 6954 H 647.932 1.31086 -0.596034 0
M  V30 6955 H 649.885 4.14797 0.743037 0
M  V30 6956 H 648.609 3.01545 1.25453 0
M  V30 6957 H 647.268 3.57704 -0.802704 0
M  V30 6958 H 646.916 4.85408 1.31863 0
M  V30 6959 H 646.616 5.87497 -0.110154 0
M  V30 6960 H 648.14 6.05268 0.805182 0
M  V30 6961 H 649.554 5.55655 -1.41141 0
M  V30 6962 H 647.951 5.58233 -2.20217 0
M  V30 6963 H 649.021 4.18926 -2.4419 0
M  V30 6964 N 650.364 0.662433 1.43002 0
M  V30 6965 C 651.592 0.187615 2.06048 0
M  V30 6966 C 652.007 -1.15039 1.49705 0
M  V30 6967 O 651.364 -1.71209 0.631956 0
M  V30 6968 C 651.415 0.100498 3.6136 0
M  V30 6969 O 651.136 1.38562 4.15611 0
M  V30 6970 C 652.637 -0.399298 4.41498 0
M  V30 6971 H 649.857 0.0941675 0.664359 0
M  V30 6972 H 652.401 0.905681 1.83351 0
M  V30 6973 H 650.556 -0.568181 3.83211 0
M  V30 6974 H 650.97 1.25084 5.09366 0
M  V30 6975 H 652.444 -0.409187 5.50481 0
M  V30 6976 H 652.921 -1.43232 4.15188 0
M  V30 6977 H 653.527 0.23721 4.24638 0
M  V30 6978 N 651.842 -1.52309 0.404946 0
M  V30 6979 C 653.072 -2.05886 -0.171569 0
M  V30 6980 C 653.48 -1.27527 -1.39762 0
M  V30 6981 O 652.823 -0.319215 -1.80905 0
M  V30 6982 C 652.885 -3.54609 -0.590983 0
M  V30 6983 C 652.549 -4.53989 0.523757 0
M  V30 6984 C 653.546 -5.01084 1.38604 0
M  V30 6985 C 651.231 -4.97465 0.695255 0
M  V30 6986 C 653.225 -5.90295 2.4048 0
M  V30 6987 C 650.912 -5.86473 1.71733 0
M  V30 6988 C 651.91 -6.32782 2.57051 0
M  V30 6989 O 651.598 -7.20029 3.57509 0
M  V30 6990 H 651.33 -0.675508 -0.0257763 0
M  V30 6991 H 653.884 -1.97238 0.573278 0
M  V30 6992 H 652.114 -3.60929 -1.38805 0
M  V30 6993 H 653.803 -3.90853 -1.09494 0
M  V30 6994 H 654.569 -4.68214 1.26492 0
M  V30 6995 H 650.448 -4.60982 0.0408447 0
M  V30 6996 H 653.992 -6.26363 3.07108 0
M  V30 6997 H 649.889 -6.18756 1.83877 0
M  V30 6998 H 650.657 -7.3813 3.53703 0
M  V30 6999 N 653.32 -0.135238 -1.57019 0
M  V30 7000 C 654.597 0.563227 -1.87316 0
M  V30 7001 C 654.977 1.83749 -1.03921 0
M  V30 7002 O 654.325 2.2817 -0.122675 0
M  V30 7003 C 654.535 0.840031 -3.3874 0
M  V30 7004 C 655.883 1.18598 -4.077 0
M  V30 7005 O 656.907 0.92977 -3.43851 0
M  V30 7006 O 655.766 1.66758 -5.20436 0
M  V30 7007 H 652.86 0.285971 -0.775983 0
M  V30 7008 H 655.406 -0.170965 -1.68837 0
M  V30 7009 H 654.178 -0.0622785 -3.9125 0
M  V30 7010 H 653.801 1.62882 -3.62706 0
M  V30 7011 N 654.798 1.5699 0.138552 0
M  V30 7012 C 656.046 1.83446 0.848053 0
M  V30 7013 C 656.367 0.71744 1.81322 0
M  V30 7014 O 655.637 -0.260228 1.94164 0
M  V30 7015 H 654.217 0.676792 0.316166 0
M  V30 7016 H 656.879 1.94462 0.130538 0
M  V30 7017 H 655.975 2.78677 1.40518 0
M  V30 7018 N 656.276 -0.40816 1.52223 0
M  V30 7019 C 657.224 -1.51788 1.76248 0
M  V30 7020 C 658.218 -1.57264 0.629638 0
M  V30 7021 O 659.424 -1.60659 0.811704 0
M  V30 7022 H 655.799 -0.504823 0.557367 0
M  V30 7023 H 657.77 -1.2871 2.69214 0
M  V30 7024 C 656.519 -2.89145 1.93107 0
M  V30 7025 H 655.842 -2.85674 2.79697 0
M  V30 7026 H 657.282 -3.66082 2.13916 0
M  V30 7027 C 655.741 -3.29581 0.698431 0
M  V30 7028 O 656.271 -4.01479 -0.133238 0
M  V30 7029 N 654.477 -2.85651 0.53405 0
M  V30 7030 H 654.024 -2.2731 1.21194 0
M  V30 7031 H 653.982 -3.13065 -0.289387 0
M  V30 7032 N 657.755 -1.42862 -0.66545 0
M  V30 7033 C 658.703 -1.47319 -1.8 0
M  V30 7034 C 659.697 -0.347963 -1.65788 0
M  V30 7035 O 660.903 -0.521406 -1.72283 0
M  V30 7036 H 657.278 -0.461588 -0.593667 0
M  V30 7037 H 659.249 -2.42876 -1.7336 0
M  V30 7038 C 657.998 -1.40152 -3.18203 0
M  V30 7039 H 657.321 -2.26035 -3.2977 0
M  V30 7040 H 658.761 -1.47331 -3.9758 0
M  V30 7041 C 657.22 -0.117493 -3.36695 0
M  V30 7042 O 657.75 0.826058 -3.93115 0
M  V30 7043 N 655.956 -0.0316218 -2.90583 0
M  V30 7044 H 655.503 -0.800247 -2.44855 0
M  V30 7045 H 655.461 0.826835 -3.03333 0
M  V30 7046 N 659.233 0.902656 -1.29189 0
M  V30 7047 C 660.458 1.69167 -1.19989 0
M  V30 7048 C 660.883 1.86607 0.236495 0
M  V30 7049 O 660.241 1.38425 1.17082 0
M  V30 7050 C 660.289 3.05532 -1.91527 0
M  V30 7051 O 659.393 3.93621 -1.2303 0
M  V30 7052 H 658.734 0.517584 -0.415936 0
M  V30 7053 H 661.264 1.12785 -1.70706 0
M  V30 7054 H 661.274 3.55693 -1.99866 0
M  V30 7055 H 659.949 2.92156 -2.96003 0
M  V30 7056 H 658.526 3.52055 -1.22928 0
M  V30 7057 N 660.711 1.11618 1.11262 0
M  V30 7058 C 661.957 0.867463 1.83311 0
M  V30 7059 C 662.29 -0.605366 1.84524 0
M  V30 7060 O 661.565 -1.44704 1.29965 0
M  V30 7061 C 661.848 1.43207 3.30399 0
M  V30 7062 C 661.701 2.97265 3.3757 0
M  V30 7063 C 663.02 1.08454 4.26528 0
M  V30 7064 H 660.139 0.316578 0.665543 0
M  V30 7065 H 662.781 1.38137 1.30454 0
M  V30 7066 H 660.931 0.994982 3.75543 0
M  V30 7067 H 662.603 3.49591 3.00971 0
M  V30 7068 H 660.846 3.33237 2.77733 0
M  V30 7069 H 661.517 3.31859 4.41105 0
M  V30 7070 H 663.993 1.4619 3.89574 0
M  V30 7071 H 662.869 1.50633 5.27826 0
M  V30 7072 H 663.13 -0.00444568 4.421 0
M  V30 7073 N 662.189 -1.289 0.906776 0
M  V30 7074 C 663.152 -2.25777 0.394656 0
M  V30 7075 C 664.152 -1.53621 -0.475119 0
M  V30 7076 O 665.342 -1.71949 -0.279165 0
M  V30 7077 C 662.474 -3.38113 -0.43499 0
M  V30 7078 H 663.667 -2.72592 1.25033 0
M  V30 7079 H 661.22 -1.40463 0.685547 0
M  V30 7080 H 661.955 -2.96648 -1.31036 0
M  V30 7081 H 661.74 -3.91647 0.188334 0
M  V30 7082 H 663.23 -4.10168 -0.784365 0
M  V30 7083 N 663.667 -0.670007 -1.42649 0
M  V30 7084 C 664.892 -0.196955 -2.06463 0
M  V30 7085 C 665.317 1.1352 -1.49983 0
M  V30 7086 O 664.675 1.705 -0.616397 0
M  V30 7087 C 664.723 -0.137381 -3.60338 0
M  V30 7088 O 663.827 0.895523 -4.02559 0
M  V30 7089 H 663.168 -0.102579 -0.656029 0
M  V30 7090 H 665.698 -0.917669 -1.82866 0
M  V30 7091 H 665.708 0.0403625 -4.0798 0
M  V30 7092 H 664.383 -1.10977 -4.0082 0
M  V30 7093 H 662.96 0.689209 -3.66476 0
M  V30 7094 N 665.145 1.52092 -0.413018 0
M  V30 7095 C 666.095 2.23947 0.427993 0
M  V30 7096 C 667.079 1.25229 1.01027 0
M  V30 7097 O 668.271 1.50448 0.932444 0
M  V30 7098 C 665.4 3.0672 1.542 0
M  V30 7099 C 664.486 4.12851 0.970307 0
M  V30 7100 N 664.877 5.05644 0.125611 0
M  V30 7101 C 663.175 4.28404 1.24042 0
M  V30 7102 C 663.876 5.8138 -0.192876 0
M  V30 7103 N 662.852 5.41996 0.417273 0
M  V30 7104 H 666.654 2.93048 -0.223628 0
M  V30 7105 H 664.168 1.60852 -0.223664 0
M  V30 7106 H 666.165 3.56754 2.15714 0
M  V30 7107 H 664.825 2.39159 2.19621 0
M  V30 7108 H 665.836 5.17348 -0.238995 0
M  V30 7109 H 662.513 3.72071 1.89391 0
M  V30 7110 H 663.903 6.66129 -0.878762 0
M  V30 7111 N 666.623 0.143563 1.56945 0
M  V30 7112 C 667.869 -0.50916 1.96304 0
M  V30 7113 C 668.202 -1.64741 1.0283 0
M  V30 7114 O 667.477 -1.94374 0.0700361 0
M  V30 7115 C 667.76 -1.0186 3.45393 0
M  V30 7116 C 667.613 0.117923 4.49645 0
M  V30 7117 C 668.932 -1.90151 3.96901 0
M  V30 7118 H 666.051 -0.183608 0.713763 0
M  V30 7119 H 668.693 0.224095 1.88674 0
M  V30 7120 H 666.843 -1.64345 3.52027 0
M  V30 7121 H 668.515 0.754145 4.55094 0
M  V30 7122 H 666.758 0.777568 4.26774 0
M  V30 7123 H 667.429 -0.280187 5.51288 0
M  V30 7124 H 669.905 -1.375 3.92725 0
M  V30 7125 H 668.781 -2.22707 5.0169 0
M  V30 7126 H 669.042 -2.83718 3.39052 0
M  V30 7127 N 668.101 -1.57061 -0.130224 0
M  V30 7128 C 669.378 -1.75205 -0.869631 0
M  V30 7129 C 669.758 -0.716063 -1.98584 0
M  V30 7130 O 669.106 0.262032 -2.26993 0
M  V30 7131 C 669.316 -3.19835 -1.39666 0
M  V30 7132 C 670.664 -3.82011 -1.85345 0
M  V30 7133 O 671.688 -3.23368 -1.49371 0
M  V30 7134 O 670.547 -4.85064 -2.51744 0
M  V30 7135 H 667.641 -0.716977 -0.412157 0
M  V30 7136 H 670.187 -1.69311 -0.11484 0
M  V30 7137 H 668.959 -3.86745 -0.595288 0
M  V30 7138 H 668.582 -3.30222 -2.21448 0
M  V30 7139 N 669.579 0.400081 -1.52437 0
M  V30 7140 C 670.825 1.14788 -1.67187 0
M  V30 7141 C 671.158 1.89928 -0.405074 0
M  V30 7142 O 670.433 1.85118 0.596804 0
M  V30 7143 C 670.716 2.13507 -2.89977 0
M  V30 7144 C 670.569 1.42204 -4.2673 0
M  V30 7145 C 671.888 3.14069 -3.083 0
M  V30 7146 H 669.007 0.415939 -0.608411 0
M  V30 7147 H 671.649 0.432542 -1.85011 0
M  V30 7148 H 669.799 2.7451 -2.74912 0
M  V30 7149 H 671.471 0.842503 -4.53541 0
M  V30 7150 H 669.714 0.723939 -4.27717 0
M  V30 7151 H 670.385 2.14281 -5.08712 0
M  V30 7152 H 672.861 2.63148 -3.22323 0
M  V30 7153 H 671.737 3.80398 -3.95713 0
M  V30 7154 H 671.998 3.82309 -2.22018 0
M  V30 7155 N 671.057 1.43213 0.657864 0
M  V30 7156 C 672.468 1.39669 1.23893 0
M  V30 7157 C 672.819 0.0984217 1.95953 0
M  V30 7158 O 671.944 -0.8023 2.00978 0
M  V30 7159 C 672.539 2.53004 2.25332 0
M  V30 7160 C 671.098 2.5274 2.78926 0
M  V30 7161 C 670.245 2.30941 1.53497 0
M  V30 7162 H 673.196 1.52181 0.450172 0
M  V30 7163 H 673.217 2.24226 3.07413 0
M  V30 7164 H 672.729 3.4748 1.72856 0
M  V30 7165 H 670.83 1.6213 3.35477 0
M  V30 7166 H 670.943 3.50352 3.26787 0
M  V30 7167 H 669.307 1.7952 1.80678 0
M  V30 7168 H 670.09 3.27496 1.02963 0
M  V30 7169 N 672.536 -0.895792 1.29666 0
M  V30 7170 C 673.466 -2.01673 1.17688 0
M  V30 7171 C 674.447 -1.69955 0.0701317 0
M  V30 7172 O 675.632 -1.9258 0.250289 0
M  V30 7173 C 672.762 -3.36568 0.856681 0
M  V30 7174 C 671.716 -3.82509 1.92017 0
M  V30 7175 C 671.042 -5.14574 1.4532 0
M  V30 7176 C 672.342 -4.02409 3.32963 0
M  V30 7177 H 674.036 -2.11953 2.11463 0
M  V30 7178 H 671.582 -1.01839 1.01807 0
M  V30 7179 H 673.535 -4.14498 0.759577 0
M  V30 7180 H 672.259 -3.26391 -0.116763 0
M  V30 7181 H 670.918 -3.068 2.00673 0
M  V30 7182 H 670.566 -5.00815 0.468325 0
M  V30 7183 H 670.266 -5.46283 2.16447 0
M  V30 7184 H 671.79 -5.9504 1.36968 0
M  V30 7185 H 673.204 -4.70808 3.27127 0
M  V30 7186 H 671.601 -4.45478 4.02082 0
M  V30 7187 H 672.671 -3.06616 3.75652 0
M  V30 7188 N 674.014 -1.12206 -1.10668 0
M  V30 7189 C 675.239 -0.898938 -1.86906 0
M  V30 7190 C 675.664 0.546346 -1.79991 0
M  V30 7191 O 675.022 1.38655 -1.1681 0
M  V30 7192 C 675.07 -1.37529 -3.33344 0
M  V30 7193 O 674.174 -0.55218 -4.08687 0
M  V30 7194 H 673.515 -0.323163 -0.580053 0
M  V30 7195 H 676.045 -1.49355 -1.39837 0
M  V30 7196 H 676.055 -1.3733 -3.84193 0
M  V30 7197 H 674.73 -2.42767 -3.37693 0
M  V30 7198 H 673.307 -0.620947 -3.67694 0
M  V30 7199 N 675.492 1.28418 -0.913599 0
M  V30 7200 C 676.722 1.98817 -0.56172 0
M  V30 7201 C 677.13 1.68457 0.861321 0
M  V30 7202 O 676.473 0.933653 1.58204 0
M  V30 7203 C 676.535 3.52801 -0.690785 0
M  V30 7204 C 676.199 4.0675 -2.08334 0
M  V30 7205 C 677.196 4.20597 -3.05604 0
M  V30 7206 C 674.881 4.41445 -2.39648 0
M  V30 7207 C 676.875 4.68392 -4.32305 0
M  V30 7208 C 674.562 4.88934 -3.66588 0
M  V30 7209 C 675.56 5.02364 -4.6273 0
M  V30 7210 O 675.248 5.48817 -5.87414 0
M  V30 7211 H 674.98 0.641608 -0.212874 0
M  V30 7212 H 677.534 1.64584 -1.22887 0
M  V30 7213 H 675.764 3.86686 0.0334336 0
M  V30 7214 H 677.453 4.04422 -0.346031 0
M  V30 7215 H 678.219 3.94067 -2.8273 0
M  V30 7216 H 674.098 4.30242 -1.65567 0
M  V30 7217 H 677.642 4.7879 -5.07352 0
M  V30 7218 H 673.539 5.14904 -3.89287 0
M  V30 7219 H 674.307 5.67103 -5.90201 0
M  V30 7220 N 676.97 0.677563 1.42291 0
M  V30 7221 C 678.21 0.204894 2.0337 0
M  V30 7222 C 678.574 -1.16744 1.5243 0
M  V30 7223 O 679.775 -1.73492 2.05314 0
M  V30 7224 C 678.046 0.240742 3.56588 0
M  V30 7225 S 679.605 -0.16052 4.38506 0
M  V30 7226 H 676.423 0.0839932 0.706021 0
M  V30 7227 H 679.025 0.891332 1.73999 0
M  V30 7228 H 677.729 1.24184 3.91161 0
M  V30 7229 H 677.26 -0.465439 3.90637 0
M  V30 7230 H 679.275 -1.39315 4.76241 0
M  V30 7231 N 678.448 -1.51871 0.421078 0
M  V30 7232 C 679.396 -2.28903 -0.413066 0
M  V30 7233 C 680.39 -1.3408 -1.03532 0
M  V30 7234 O 681.596 -1.5149 -0.972146 0
M  V30 7235 H 677.971 -0.736478 -0.152003 0
M  V30 7236 H 679.942 -2.97285 0.257695 0
M  V30 7237 C 678.691 -3.13156 -1.51091 0
M  V30 7238 H 678.014 -3.85997 -1.04145 0
M  V30 7239 H 679.454 -3.7014 -2.06814 0
M  V30 7240 C 677.913 -2.27482 -2.48503 0
M  V30 7241 O 678.443 -1.92325 -3.52667 0
M  V30 7242 N 676.649 -1.91019 -2.18998 0
M  V30 7243 H 676.196 -2.19808 -1.34322 0
M  V30 7244 H 676.154 -1.3399 -2.84419 0
M  V30 7245 N 679.926 -0.151884 -1.56866 0
M  V30 7246 C 681.151 0.508044 -2.01081 0
M  V30 7247 C 681.576 1.57306 -1.03134 0
M  V30 7248 O 680.934 1.81298 -0.0078309 0
M  V30 7249 C 680.982 1.08106 -3.44014 0
M  V30 7250 O 680.086 2.19577 -3.49084 0
M  V30 7251 H 679.427 0.123757 -0.652365 0
M  V30 7252 H 681.957 -0.250055 -2.03066 0
M  V30 7253 H 681.967 1.40851 -3.82916 0
M  V30 7254 H 680.642 0.301168 -4.14808 0
M  V30 7255 H 679.219 1.88023 -3.22027 0
M  V30 7256 N 681.404 1.57128 0.121893 0
M  V30 7257 C 682.314 2.03425 1.16857 0
M  V30 7258 C 683.33 0.954108 1.45509 0
M  V30 7259 O 684.506 1.26541 1.56682 0
M  V30 7260 C 681.571 2.42685 2.47599 0
M  V30 7261 C 680.632 3.64767 2.2637 0
M  V30 7262 C 679.865 4.02145 3.50878 0
M  V30 7263 O 680.088 3.39897 4.58068 0
M  V30 7264 O 679.022 4.95262 3.42051 0
M  V30 7265 H 682.848 2.92825 0.80544 0
M  V30 7266 H 680.433 1.45654 0.332477 0
M  V30 7267 H 682.315 2.68684 3.24634 0
M  V30 7268 H 680.99 1.56432 2.83392 0
M  V30 7269 H 679.897 3.43922 1.47203 0
M  V30 7270 H 681.23 4.51716 1.95482 0
M  V30 7271 N 682.882 -0.391992 1.52647 0
M  V30 7272 C 684.122 -1.1463 1.69232 0
M  V30 7273 C 684.486 -1.87312 0.421684 0
M  V30 7274 O 685.687 -2.64768 0.463852 0
M  V30 7275 C 683.958 -2.10088 2.89133 0
M  V30 7276 S 685.517 -2.93395 3.2629 0
M  V30 7277 H 682.335 -0.388076 0.59575 0
M  V30 7278 H 684.937 -0.431149 1.90687 0
M  V30 7279 H 683.641 -1.55408 3.79837 0
M  V30 7280 H 683.172 -2.86116 2.70003 0
M  V30 7281 H 685.187 -4.12193 2.76244 0
M  V30 7282 N 684.36 -1.4356 -0.65026 0
M  V30 7283 C 685.308 -1.49219 -1.78427 0
M  V30 7284 C 686.302 -0.365528 -1.65409 0
M  V30 7285 O 687.508 -0.539649 -1.7172 0
M  V30 7286 H 683.883 -0.467858 -0.588738 0
M  V30 7287 H 685.854 -2.44701 -1.70774 0
M  V30 7288 C 684.603 -1.43519 -3.16698 0
M  V30 7289 H 683.926 -2.2952 -3.27354 0
M  V30 7290 H 685.366 -1.5154 -3.95995 0
M  V30 7291 C 683.825 -0.153197 -3.36552 0
M  V30 7292 O 684.355 0.784317 -3.93969 0
M  V30 7293 N 682.561 -0.0624402 -2.90533 0
M  V30 7294 H 682.108 -0.826172 -2.43992 0
M  V30 7295 H 682.066 0.794616 -3.04193 0
M  V30 7296 N 685.838 0.888903 -1.30139 0
M  V30 7297 C 687.078 1.65456 -1.20015 0
M  V30 7298 C 687.442 1.90467 0.242148 0
M  V30 7299 O 688.643 2.6472 0.466561 0
M  V30 7300 C 686.914 2.96071 -2.00191 0
M  V30 7301 S 688.473 3.87055 -2.06721 0
M  V30 7302 H 685.291 0.567927 -0.427761 0
M  V30 7303 H 687.893 1.05539 -1.64565 0
M  V30 7304 H 686.597 2.7559 -3.04103 0
M  V30 7305 H 686.128 3.61023 -1.56288 0
M  V30 7306 H 688.143 4.81676 -1.19174 0
M  V30 7307 N 687.317 1.12792 1.10072 0
M  V30 7308 C 688.594 0.796867 1.78632 0
M  V30 7309 C 688.974 -0.712739 1.98704 0
M  V30 7310 O 688.322 -1.64773 1.5831 0
M  V30 7311 C 688.532 1.57622 3.11378 0
M  V30 7312 C 689.88 1.76463 3.86194 0
M  V30 7313 O 690.904 1.54165 3.2111 0
M  V30 7314 O 689.763 2.13623 5.03018 0
M  V30 7315 H 686.857 0.290248 0.774394 0
M  V30 7316 H 689.403 1.23215 1.16688 0
M  V30 7317 H 688.175 2.60246 2.92212 0
M  V30 7318 H 687.798 1.13543 3.81043 0
M  V30 7319 N 688.795 -1.27931 0.920396 0
M  V30 7320 C 689.705 -2.30824 0.419212 0
M  V30 7321 C 690.721 -1.66767 -0.496461 0
M  V30 7322 O 691.897 -1.97763 -0.38104 0
M  V30 7323 C 688.962 -3.45158 -0.326601 0
M  V30 7324 C 688.023 -4.24754 0.623098 0
M  V30 7325 C 687.256 -5.33629 -0.0872172 0
M  V30 7326 O 687.479 -5.55204 -1.30784 0
M  V30 7327 O 686.413 -5.99091 0.580875 0
M  V30 7328 H 690.239 -2.75716 1.27337 0
M  V30 7329 H 687.824 -1.32747 0.685465 0
M  V30 7330 H 689.706 -4.14716 -0.747559 0
M  V30 7331 H 688.381 -3.02336 -1.15648 0
M  V30 7332 H 687.288 -3.57759 1.09359 0
M  V30 7333 H 688.621 -4.71272 1.41998 0
M  V30 7334 N 690.273 -0.685099 -1.4193 0
M  V30 7335 C 691.498 -0.218842 -2.06242 0
M  V30 7336 C 691.923 1.11923 -1.51178 0
M  V30 7337 O 691.281 1.69837 -0.634446 0
M  V30 7338 C 691.329 -0.175592 -3.60172 0
M  V30 7339 O 690.433 0.852776 -4.03487 0
M  V30 7340 H 689.774 -0.109531 -0.654904 0
M  V30 7341 H 692.304 -0.937013 -1.81882 0
M  V30 7342 H 692.314 -0.00291151 -4.08 0
M  V30 7343 H 690.989 -1.15222 -3.99621 0
M  V30 7344 H 689.566 0.650301 -3.67186 0
M  V30 7345 N 691.751 1.51645 -0.429126 0
M  V30 7346 C 692.683 2.25279 0.422124 0
M  V30 7347 C 693.696 1.28986 0.993299 0
M  V30 7348 O 694.885 1.54797 0.888836 0
M  V30 7349 C 691.985 2.98666 1.60162 0
M  V30 7350 C 691.158 4.2199 1.15078 0
M  V30 7351 C 690.217 4.78028 2.19946 0
M  V30 7352 O 689.243 5.40084 1.79716 0
M  V30 7353 N 690.445 4.61342 3.5234 0
M  V30 7354 H 693.21 2.98971 -0.208931 0
M  V30 7355 H 690.771 1.59838 -0.257568 0
M  V30 7356 H 692.763 3.33044 2.29922 0
M  V30 7357 H 691.333 2.28036 2.13818 0
M  V30 7358 H 690.553 3.932 0.280552 0
M  V30 7359 H 691.841 5.02037 0.826831 0
M  V30 7360 H 691.239 4.11894 3.87763 0
M  V30 7361 H 689.796 5.00104 4.18019 0
M  V30 7362 N 693.229 0.160201 1.56784 0
M  V30 7363 C 694.475 -0.481855 1.9761 0
M  V30 7364 C 694.83 -1.61605 1.04411 0
M  V30 7365 O 694.123 -1.91426 0.0816402 0
M  V30 7366 C 694.317 -1.02259 3.42459 0
M  V30 7367 C 694.146 0.0576781 4.49663 0
M  V30 7368 C 692.916 0.503585 5.02784 0
M  V30 7369 C 695.114 0.854013 5.0716 0
M  V30 7370 N 693.096 1.56532 5.93608 0
M  V30 7371 C 694.467 1.76593 5.94319 0
M  V30 7372 C 696.522 0.900333 4.89692 0
M  V30 7373 C 695.225 2.72023 6.6588 0
M  V30 7374 C 697.251 1.84252 5.61965 0
M  V30 7375 C 696.613 2.74194 6.48843 0
M  V30 7376 H 692.712 -0.144748 0.768487 0
M  V30 7377 H 695.296 0.257853 1.92985 0
M  V30 7378 H 693.467 -1.73186 3.47651 0
M  V30 7379 H 695.199 -1.63235 3.70319 0
M  V30 7380 H 691.954 0.103361 4.73487 0
M  V30 7381 H 692.378 2.09634 6.43726 0
M  V30 7382 H 697.02 0.219023 4.22232 0
M  V30 7383 H 694.738 3.41147 7.3256 0
M  V30 7384 H 698.324 1.88433 5.5044 0
M  V30 7385 H 697.204 3.45912 7.03786 0
M  V30 7386 N 694.707 -1.5719 -0.113559 0
M  V30 7387 C 695.617 -2.04041 -1.15777 0
M  V30 7388 C 696.633 -0.961812 -1.45001 0
M  V30 7389 O 697.809 -1.2737 -1.56009 0
M  V30 7390 C 694.874 -2.43994 -2.46308 0
M  V30 7391 C 693.935 -3.65962 -2.24433 0
M  V30 7392 C 693.168 -4.04 -3.4874 0
M  V30 7393 O 693.391 -3.42321 -4.56259 0
M  V30 7394 O 692.325 -4.97069 -3.3942 0
M  V30 7395 H 696.151 -2.93248 -0.789899 0
M  V30 7396 H 693.736 -1.45828 -0.324748 0
M  V30 7397 H 695.618 -2.70401 -3.23204 0
M  V30 7398 H 694.293 -1.57932 -2.82558 0
M  V30 7399 H 693.2 -3.44697 -1.45377 0
M  V30 7400 H 694.533 -4.52746 -1.93084 0
M  V30 7401 N 696.185 0.383891 -1.52853 0
M  V30 7402 C 697.596 0.961591 -1.60032 0
M  V30 7403 C 697.947 1.90819 -0.456333 0
M  V30 7404 O 697.072 2.12288 0.419873 0
M  V30 7405 C 697.667 1.75078 -2.90057 0
M  V30 7406 C 696.226 2.2781 -2.99632 0
M  V30 7407 C 695.373 1.08512 -2.55187 0
M  V30 7408 H 698.324 0.163269 -1.57858 0
M  V30 7409 H 698.345 2.61046 -2.7683 0
M  V30 7410 H 697.857 1.06157 -3.73299 0
M  V30 7411 H 695.958 3.00028 -2.20939 0
M  V30 7412 H 696.071 2.56947 -4.0437 0
M  V30 7413 H 694.435 1.44667 -2.09627 0
M  V30 7414 H 695.218 0.41118 -3.40829 0
M  V30 7415 N 697.663 1.43903 0.642637 0
M  V30 7416 C 698.909 1.46296 1.40447 0
M  V30 7417 C 699.242 0.0908361 1.93987 0
M  V30 7418 O 698.517 -0.889884 1.72949 0
M  V30 7419 C 698.8 2.51399 2.57819 0
M  V30 7420 C 698.653 3.97926 2.09702 0
M  V30 7421 C 699.972 2.53125 3.60022 0
M  V30 7422 H 697.091 0.532676 0.509338 0
M  V30 7423 H 699.733 1.75515 0.727635 0
M  V30 7424 H 697.883 2.26614 3.1556 0
M  V30 7425 H 699.555 4.33804 1.5688 0
M  V30 7426 H 697.798 4.10252 1.40982 0
M  V30 7427 H 698.469 4.67096 2.94152 0
M  V30 7428 H 700.945 2.75242 3.12059 0
M  V30 7429 H 699.821 3.28589 4.39682 0
M  V30 7430 H 700.082 1.56895 4.13324 0
M  V30 7431 N 699.141 -0.881989 1.30609 0
M  V30 7432 C 700.381 -1.64817 1.20891 0
M  V30 7433 C 700.745 -1.90593 -0.232043 0
M  V30 7434 O 701.946 -2.64964 -0.452516 0
M  V30 7435 C 700.217 -2.95006 2.01758 0
M  V30 7436 S 701.776 -3.85953 2.08771 0
M  V30 7437 H 698.594 -0.565651 0.430767 0
M  V30 7438 H 701.196 -1.04665 1.65122 0
M  V30 7439 H 699.9 -2.73973 3.0556 0
M  V30 7440 H 699.431 -3.60189 1.582 0
M  V30 7441 H 701.446 -4.81037 1.21727 0
M  V30 7442 N 700.619 -1.13374 -1.09472 0
M  V30 7443 C 701.867 -0.893422 -1.8128 0
M  V30 7444 C 702.188 0.582029 -1.86111 0
M  V30 7445 O 701.458 1.42305 -1.34633 0
M  V30 7446 H 700.038 -0.327543 -0.67136 0
M  V30 7447 H 702.7 -1.43018 -1.32408 0
M  V30 7448 H 701.796 -1.28374 -2.84476 0
M  V30 7449 N 702.098 1.27442 -0.927168 0
M  V30 7450 C 703.046 2.28844 -0.416333 0
M  V30 7451 C 704.04 1.61882 0.499057 0
M  V30 7452 O 705.246 1.75969 0.378817 0
M  V30 7453 H 701.621 0.742989 -0.116065 0
M  V30 7454 H 703.592 2.69344 -1.28438 0
M  V30 7455 C 702.341 3.4626 0.316107 0
M  V30 7456 H 701.664 3.97999 -0.379082 0
M  V30 7457 H 703.104 4.19173 0.637975 0
M  V30 7458 C 701.563 3.00211 1.5289 0
M  V30 7459 O 702.093 3.03837 2.62766 0
M  V30 7460 N 700.299 2.55713 1.38054 0
M  V30 7461 H 699.846 2.52962 0.4866 0
M  V30 7462 H 699.804 2.25264 2.19325 0
M  V30 7463 N 703.576 0.692616 1.41565 0
M  V30 7464 C 704.524 0.0139952 2.32596 0
M  V30 7465 C 705.518 -0.771691 1.50802 0
M  V30 7466 O 706.724 -0.677646 1.66757 0
M  V30 7467 H 703.099 -0.0142745 0.751865 0
M  V30 7468 H 705.07 0.798851 2.87508 0
M  V30 7469 C 703.819 -0.910602 3.35564 0
M  V30 7470 H 703.142 -0.315446 3.98554 0
M  V30 7471 H 704.582 -1.3538 4.01806 0
M  V30 7472 C 703.041 -2.02539 2.6922 0
M  V30 7473 O 703.571 -3.11386 2.53775 0
M  V30 7474 N 701.777 -1.80227 2.27962 0
M  V30 7475 H 701.324 -0.917054 2.40724 0
M  V30 7476 H 701.282 -2.55001 1.83907 0
M  V30 7477 N 705.054 -1.51416 0.437162 0
M  V30 7478 C 706.302 -2.01687 -0.129108 0
M  V30 7479 C 706.623 -1.32329 -1.43227 0
M  V30 7480 O 705.893 -0.457796 -1.90476 0
M  V30 7481 H 704.473 -0.745277 -0.0507023 0
M  V30 7482 H 707.135 -1.86075 0.579828 0
M  V30 7483 H 706.231 -3.10605 -0.305141 0
M  V30 7484 N 706.532 -0.168513 -1.56696 0
M  V30 7485 C 707.781 0.477233 -1.95973 0
M  V30 7486 C 708.094 1.64578 -1.05704 0
M  V30 7487 O 709.3 2.35758 -1.3465 0
M  V30 7488 C 707.756 0.900413 -3.48455 0
M  V30 7489 C 707.364 -0.242382 -4.47344 0
M  V30 7490 C 709.108 1.51474 -3.96555 0
M  V30 7491 C 707.015 0.200272 -5.91061 0
M  V30 7492 H 705.945 0.182061 -0.73169 0
M  V30 7493 H 708.596 -0.256297 -1.81701 0
M  V30 7494 H 706.978 1.68984 -3.58135 0
M  V30 7495 H 708.152 -1.01967 -4.49377 0
M  V30 7496 H 706.467 -0.766484 -4.09285 0
M  V30 7497 H 709.064 1.85792 -5.01384 0
M  V30 7498 H 709.407 2.41163 -3.39332 0
M  V30 7499 H 709.94 0.789802 -3.89881 0
M  V30 7500 H 706.679 -0.661775 -6.52151 0
M  V30 7501 H 706.199 0.942979 -5.92341 0
M  V30 7502 H 707.878 0.645088 -6.43776 0
M  V30 7503 N 708.01 1.57248 0.105221 0
M  V30 7504 C 709.238 1.89768 0.82437 0
M  V30 7505 C 709.653 0.761192 1.72775 0
M  V30 7506 O 709.01 -0.267342 1.80531 0
M  V30 7507 C 709.061 3.2184 1.64625 0
M  V30 7508 O 708.782 4.31115 0.779217 0
M  V30 7509 C 710.283 3.68155 2.46935 0
M  V30 7510 H 707.503 0.628031 0.236259 0
M  V30 7511 H 710.047 2.04321 0.085485 0
M  V30 7512 H 708.202 3.08915 2.33775 0
M  V30 7513 H 708.616 5.06897 1.34745 0
M  V30 7514 H 710.09 4.6329 3.00111 0
M  V30 7515 H 710.567 2.95492 3.24932 0
M  V30 7516 H 711.173 3.83914 1.83002 0
M  V30 7517 N 709.488 -0.375779 1.53054 0
M  V30 7518 C 710.718 -1.1387 1.72386 0
M  V30 7519 C 711.126 -1.8382 0.447966 0
M  V30 7520 O 710.469 -1.74027 -0.588244 0
M  V30 7521 C 710.531 -2.22047 2.82728 0
M  V30 7522 C 710.195 -1.71951 4.23417 0
M  V30 7523 C 711.192 -1.18909 5.06119 0
M  V30 7524 C 708.877 -1.77773 4.69789 0
M  V30 7525 C 710.871 -0.723529 6.3328 0
M  V30 7526 C 708.558 -1.30829 5.96931 0
M  V30 7527 C 709.556 -0.782077 6.78508 0
M  V30 7528 O 709.244 -0.319529 8.03265 0
M  V30 7529 H 708.976 -0.346835 0.580242 0
M  V30 7530 H 711.53 -0.443748 2.00549 0
M  V30 7531 H 709.76 -2.95006 2.50017 0
M  V30 7532 H 711.449 -2.83654 2.90336 0
M  V30 7533 H 712.215 -1.13758 4.7147 0
M  V30 7534 H 708.094 -2.17673 4.06373 0
M  V30 7535 H 711.638 -0.312126 6.96901 0
M  V30 7536 H 707.535 -1.3567 6.31081 0
M  V30 7537 H 708.303 -0.439796 8.17318 0
M  V30 7538 N 710.966 -1.44241 -0.634997 0
M  V30 7539 C 711.896 -1.53632 -1.7584 0
M  V30 7540 C 712.877 -0.389603 -1.65578 0
M  V30 7541 O 714.062 -0.609219 -1.84397 0
M  V30 7542 C 711.192 -1.47644 -3.14354 0
M  V30 7543 C 710.146 -2.60752 -3.394 0
M  V30 7544 C 709.472 -2.39817 -4.77904 0
M  V30 7545 C 710.772 -4.02921 -3.32343 0
M  V30 7546 H 712.466 -2.47662 -1.68238 0
M  V30 7547 H 710.012 -1.19197 -0.807969 0
M  V30 7548 H 711.965 -1.52815 -3.92716 0
M  V30 7549 H 710.689 -0.501284 -3.2273 0
M  V30 7550 H 709.348 -2.54965 -2.63417 0
M  V30 7551 H 708.996 -1.40502 -4.82978 0
M  V30 7552 H 708.696 -3.15649 -4.9562 0
M  V30 7553 H 710.22 -2.46799 -5.585 0
M  V30 7554 H 711.634 -4.10098 -4.00615 0
M  V30 7555 H 710.031 -4.78925 -3.61595 0
M  V30 7556 H 711.101 -4.26766 -2.30215 0
M  V30 7557 N 712.444 0.87505 -1.31075 0
M  V30 7558 C 713.669 1.66583 -1.23551 0
M  V30 7559 C 714.094 1.87067 0.19686 0
M  V30 7560 O 713.452 1.40877 1.1412 0
M  V30 7561 C 713.5 3.01401 -1.97965 0
M  V30 7562 O 712.604 3.90923 -1.31351 0
M  V30 7563 H 711.945 0.508645 -0.426821 0
M  V30 7564 H 714.475 1.09139 -1.7306 0
M  V30 7565 H 714.485 3.51374 -2.07366 0
M  V30 7566 H 713.16 2.85812 -3.02133 0
M  V30 7567 H 711.737 3.49369 -1.30368 0
M  V30 7568 N 713.922 1.13953 1.08869 0
M  V30 7569 C 715.333 0.916649 1.62648 0
M  V30 7570 C 715.684 -0.545589 1.88462 0
M  V30 7571 O 714.809 -1.41351 1.63856 0
M  V30 7572 C 715.404 1.65751 2.95486 0
M  V30 7573 C 713.963 1.48034 3.46068 0
M  V30 7574 C 713.11 1.68305 2.20383 0
M  V30 7575 H 716.061 1.292 0.921572 0
M  V30 7576 H 716.082 1.11794 3.63707 0
M  V30 7577 H 715.594 2.72171 2.76667 0
M  V30 7578 H 713.695 0.439416 3.7 0
M  V30 7579 H 713.808 2.24719 4.23129 0
M  V30 7580 H 712.172 1.10833 2.29321 0
M  V30 7581 H 712.955 2.76057 2.04077 0
M  V30 7582 N 715.4 -1.26948 0.933913 0
M  V30 7583 C 716.64 -1.9585 0.585003 0
M  V30 7584 C 717.004 -1.71722 -0.858802 0
M  V30 7585 O 718.205 -2.34366 -1.31629 0
M  V30 7586 C 716.476 -3.45638 0.909352 0
M  V30 7587 S 718.035 -4.33656 0.669892 0
M  V30 7588 H 714.853 -0.677485 0.215721 0
M  V30 7589 H 717.455 -1.54051 1.20368 0
M  V30 7590 H 716.159 -3.60697 1.9577 0
M  V30 7591 H 715.69 -3.92401 0.280115 0
M  V30 7592 H 717.705 -4.93975 -0.469378 0
M  V30 7593 N 716.879 -0.700114 -1.41195 0
M  V30 7594 C 717.809 -0.0521132 -2.33442 0
M  V30 7595 C 718.79 0.76228 -1.52063 0
M  V30 7596 O 719.975 0.714336 -1.80585 0
M  V30 7597 C 717.105 0.881693 -3.35922 0
M  V30 7598 C 716.059 0.174062 -4.27646 0
M  V30 7599 C 715.385 1.22254 -5.20536 0
M  V30 7600 C 716.685 -0.962396 -5.13357 0
M  V30 7601 H 718.379 -0.822574 -2.87879 0
M  V30 7602 H 715.925 -0.397011 -1.38419 0
M  V30 7603 H 717.878 1.34429 -3.99383 0
M  V30 7604 H 716.602 1.68387 -2.79845 0
M  V30 7605 H 715.261 -0.268551 -3.65615 0
M  V30 7606 H 714.909 2.01736 -4.60773 0
M  V30 7607 H 714.609 0.754038 -5.82742 0
M  V30 7608 H 716.133 1.68555 -5.86874 0
M  V30 7609 H 717.547 -0.579875 -5.7036 0
M  V30 7610 H 715.944 -1.35828 -5.84526 0
M  V30 7611 H 717.014 -1.80003 -4.50252 0
M  V30 7612 N 718.357 1.51182 -0.445186 0
M  V30 7613 C 719.32 2.26501 0.350722 0
M  V30 7614 C 720.32 1.3025 0.942952 0
M  V30 7615 O 721.51 1.53897 0.816175 0
M  V30 7616 C 718.642 3.06274 1.49697 0
M  V30 7617 H 719.835 2.98299 -0.309474 0
M  V30 7618 H 717.388 1.55034 -0.198551 0
M  V30 7619 H 718.123 2.38911 2.19299 0
M  V30 7620 H 717.908 3.76979 1.0784 0
M  V30 7621 H 719.398 3.63306 2.05909 0
M  V30 7622 N 719.835 0.176821 1.56605 0
M  V30 7623 C 721.083 -0.465793 1.96659 0
M  V30 7624 C 721.404 -1.63406 1.06412 0
M  V30 7625 O 720.674 -1.95457 0.131603 0
M  V30 7626 H 719.254 -0.175072 0.726195 0
M  V30 7627 H 721.916 0.25929 1.93168 0
M  V30 7628 H 721.012 -0.822138 3.01077 0
M  V30 7629 N 721.313 -1.57302 -0.09688 0
M  V30 7630 C 722.553 -1.87823 -0.806334 0
M  V30 7631 C 722.917 -0.767593 -1.75989 0
M  V30 7632 O 724.118 -0.955173 -2.51257 0
M  V30 7633 C 722.389 -3.23585 -1.51749 0
M  V30 7634 S 723.948 -3.75795 -2.26547 0
M  V30 7635 H 720.766 -0.658281 -0.268676 0
M  V30 7636 H 723.368 -1.95397 -0.0635476 0
M  V30 7637 H 722.072 -4.0234 -0.809348 0
M  V30 7638 H 721.603 -3.19145 -2.30021 0
M  V30 7639 H 723.618 -3.49068 -3.52656 0
M  V30 7640 N 722.791 0.367657 -1.53252 0
M  V30 7641 C 723.738 1.45028 -1.79543 0
M  V30 7642 C 724.708 1.53288 -0.63969 0
M  V30 7643 O 725.893 1.69209 -0.881653 0
M  V30 7644 C 723.033 2.82 -1.98923 0
M  V30 7645 C 722.146 2.82722 -3.26638 0
M  V30 7646 C 721.281 4.11257 -3.36216 0
M  V30 7647 C 720.32 4.06113 -4.57972 0
M  V30 7648 N 719.457 5.26293 -4.64715 0
M  V30 7649 H 724.297 1.21908 -2.71923 0
M  V30 7650 H 721.834 0.591011 -1.34705 0
M  V30 7651 H 723.792 3.61568 -2.08146 0
M  V30 7652 H 722.422 3.03523 -1.09881 0
M  V30 7653 H 721.474 1.95399 -3.26379 0
M  V30 7654 H 722.786 2.74794 -4.16281 0
M  V30 7655 H 721.94 4.99239 -3.44739 0
M  V30 7656 H 720.679 4.21935 -2.44586 0
M  V30 7657 H 719.684 3.16517 -4.49552 0
M  V30 7658 H 720.909 3.97039 -5.50942 0
M  V30 7659 H 718.855 5.37561 -3.75985 0
M  V30 7660 H 718.772 5.20526 -5.4826 0
M  V30 7661 H 720.04 6.16113 -4.77519 0
M  V30 7662 N 724.269 1.44576 0.627338 0
M  V30 7663 C 725.494 1.51271 1.41887 0
M  V30 7664 C 725.919 0.139814 1.8758 0
M  V30 7665 O 725.277 -0.871746 1.58966 0
M  V30 7666 C 725.325 2.48529 2.61277 0
M  V30 7667 O 724.429 1.98944 3.61241 0
M  V30 7668 H 723.77 0.510668 0.424399 0
M  V30 7669 H 726.3 1.89746 0.765356 0
M  V30 7670 H 726.31 2.66689 3.08773 0
M  V30 7671 H 724.985 3.48249 2.27366 0
M  V30 7672 H 723.562 1.90568 3.20528 0
M  V30 7673 N 725.747 -0.868086 1.31537 0
M  V30 7674 C 726.972 -1.65926 1.24432 0
M  V30 7675 C 727.397 -1.87169 -0.186936 0
M  V30 7676 O 726.755 -1.4148 -1.13371 0
M  V30 7677 C 726.803 -3.00347 1.9956 0
M  V30 7678 O 725.907 -3.90221 1.33422 0
M  V30 7679 H 725.248 -0.506375 0.429512 0
M  V30 7680 H 727.778 -1.0822 1.73637 0
M  V30 7681 H 727.788 -3.50269 2.09226 0
M  V30 7682 H 726.463 -2.84205 3.03645 0
M  V30 7683 H 725.04 -3.48672 1.32219 0
M  V30 7684 N 727.225 -1.14528 -1.08264 0
M  V30 7685 C 728.45 -0.938381 -1.84957 0
M  V30 7686 C 728.875 0.508044 -1.81109 0
M  V30 7687 O 728.233 1.36146 -1.19724 0
M  V30 7688 C 728.281 -1.44568 -3.30352 0
M  V30 7689 O 727.385 -0.638745 -4.07423 0
M  V30 7690 H 726.726 -0.335394 -0.573068 0
M  V30 7691 H 729.256 -1.52287 -1.36637 0
M  V30 7692 H 729.266 -1.45449 -3.81194 0
M  V30 7693 H 727.941 -2.49876 -3.32468 0
M  V30 7694 H 726.518 -0.698801 -3.66294 0
M  V30 7695 N 728.703 1.26451 -0.940633 0
M  V30 7696 C 729.951 1.93395 -0.586748 0
M  V30 7697 C 730.272 1.7417 0.876921 0
M  V30 7698 O 729.542 1.097 1.62304 0
M  V30 7699 H 728.122 0.715687 -0.214012 0
M  V30 7700 H 730.784 1.53902 -1.19584 0
M  V30 7701 H 729.88 3.01565 -0.804059 0
M  V30 7702 N 730.181 0.707592 1.40822 0
M  V30 7703 C 731.43 0.240705 2.00259 0
M  V30 7704 C 731.743 -1.17027 1.56729 0
M  V30 7705 O 732.949 -1.73526 2.08809 0
M  V30 7706 C 731.405 0.379432 3.57894 0
M  V30 7707 C 731.013 1.79654 4.104 0
M  V30 7708 C 732.757 -0.0270684 4.24491 0
M  V30 7709 C 730.664 1.88628 5.60512 0
M  V30 7710 H 729.594 0.0862369 0.749052 0
M  V30 7711 H 732.245 0.877528 1.61157 0
M  V30 7712 H 730.627 -0.325842 3.94657 0
M  V30 7713 H 731.801 2.53155 3.85032 0
M  V30 7714 H 730.116 2.15379 3.56372 0
M  V30 7715 H 732.713 0.0193743 5.34696 0
M  V30 7716 H 733.056 -1.06772 4.02375 0
M  V30 7717 H 733.589 0.628361 3.92806 0
M  V30 7718 H 730.328 2.90787 5.87472 0
M  V30 7719 H 729.848 1.19528 5.8777 0
M  V30 7720 H 731.527 1.6547 6.25483 0
M  V30 7721 N 731.66 -1.50943 0.453197 0
M  V30 7722 C 732.607 -2.28128 -0.350197 0
M  V30 7723 C 733.577 -1.32398 -1.00299 0
M  V30 7724 O 734.762 -1.61319 -1.01887 0
M  V30 7725 C 731.902 -3.13782 -1.43649 0
M  V30 7726 C 731.015 -4.24523 -0.800255 0
M  V30 7727 C 730.15 -4.97462 -1.86293 0
M  V30 7728 C 729.189 -6.00102 -1.20598 0
M  V30 7729 N 728.326 -6.66387 -2.21071 0
M  V30 7730 H 733.166 -2.96337 0.31434 0
M  V30 7731 H 730.703 -1.46151 0.166863 0
M  V30 7732 H 732.661 -3.6178 -2.07776 0
M  V30 7733 H 731.291 -2.47655 -2.07044 0
M  V30 7734 H 730.343 -3.80371 -0.0468651 0
M  V30 7735 H 731.655 -4.98009 -0.280777 0
M  V30 7736 H 730.809 -5.49088 -2.58044 0
M  V30 7737 H 729.548 -4.23642 -2.41617 0
M  V30 7738 H 728.553 -5.47753 -0.474 0
M  V30 7739 H 729.778 -6.75887 -0.659859 0
M  V30 7740 H 727.724 -5.9537 -2.75446 0
M  V30 7741 H 727.641 -7.3569 -1.74058 0
M  V30 7742 H 728.909 -7.22638 -2.92257 0
M  V30 7743 N 733.138 -0.185124 -1.56509 0
M  V30 7744 C 734.085 0.739729 -2.18624 0
M  V30 7745 C 735.055 1.217 -1.13042 0
M  V30 7746 O 736.24 1.28268 -1.41251 0
M  V30 7747 C 733.38 1.95787 -2.84186 0
M  V30 7748 C 732.493 1.52289 -4.04267 0
M  V30 7749 C 731.628 2.69576 -4.57714 0
M  V30 7750 C 730.667 2.22636 -5.70175 0
M  V30 7751 N 729.804 3.33065 -6.18071 0
M  V30 7752 H 734.644 0.203269 -2.97306 0
M  V30 7753 H 732.181 0.0885946 -1.46833 0
M  V30 7754 H 734.139 2.67253 -3.20361 0
M  V30 7755 H 732.769 2.4678 -2.08085 0
M  V30 7756 H 731.821 0.704458 -3.7382 0
M  V30 7757 H 733.133 1.13843 -4.85635 0
M  V30 7758 H 732.287 3.4918 -4.96143 0
M  V30 7759 H 731.026 3.1129 -3.75433 0
M  V30 7760 H 730.031 1.41483 -5.31284 0
M  V30 7761 H 731.256 1.81964 -6.54267 0
M  V30 7762 H 729.202 3.74328 -5.38715 0
M  V30 7763 H 729.119 2.98756 -6.94464 0
M  V30 7764 H 730.387 4.12912 -6.61153 0
M  V30 7765 N 734.616 1.57351 0.0885366 0
M  V30 7766 C 735.566 1.98963 1.11346 0
M  V30 7767 C 736.55 0.869065 1.35411 0
M  V30 7768 O 737.742 1.13292 1.35992 0
M  V30 7769 C 734.871 2.4231 2.43189 0
M  V30 7770 C 733.957 3.61065 2.22469 0
M  V30 7771 N 734.348 4.75789 1.71635 0
M  V30 7772 C 732.646 3.6729 2.5301 0
M  V30 7773 C 733.347 5.57708 1.65339 0
M  V30 7774 N 732.323 5.01067 2.1079 0
M  V30 7775 H 736.125 2.85109 0.713465 0
M  V30 7776 H 733.639 1.59682 0.295868 0
M  V30 7777 H 735.636 2.70352 3.17357 0
M  V30 7778 H 734.296 1.57544 2.83919 0
M  V30 7779 H 735.307 4.98411 1.40738 0
M  V30 7780 H 731.984 2.932 2.9722 0
M  V30 7781 H 733.374 6.59782 1.27031 0
M  V30 7782 N 736.094 -0.359525 1.53444 0
M  V30 7783 C 737.322 -1.12198 1.73837 0
M  V30 7784 C 737.737 -1.82854 0.470107 0
M  V30 7785 O 737.094 -1.73781 -0.557349 0
M  V30 7786 C 737.145 -2.14769 2.90786 0
M  V30 7787 O 736.866 -1.46989 4.12706 0
M  V30 7788 C 738.367 -3.03514 3.231 0
M  V30 7789 H 735.587 -0.33524 0.581253 0
M  V30 7790 H 738.131 -0.416598 2.00212 0
M  V30 7791 H 736.286 -2.80896 2.66788 0
M  V30 7792 H 736.7 -2.15378 4.78239 0
M  V30 7793 H 738.174 -3.71453 4.08322 0
M  V30 7794 H 738.651 -3.68658 2.38721 0
M  V30 7795 H 739.257 -2.42996 3.49046 0
M  V30 7796 N 737.572 -1.44907 -0.619662 0
M  V30 7797 C 738.818 -1.48512 -1.38102 0
M  V30 7798 C 739.151 -0.121686 -1.93818 0
M  V30 7799 O 738.426 0.862256 -1.74343 0
M  V30 7800 C 738.709 -2.55469 -2.53787 0
M  V30 7801 C 738.562 -4.01212 -2.03345 0
M  V30 7802 C 739.881 -2.58821 -3.55949 0
M  V30 7803 H 737 -0.540712 -0.500799 0
M  V30 7804 H 739.642 -1.7665 -0.69962 0
M  V30 7805 H 737.792 -2.31606 -3.11915 0
M  V30 7806 H 739.464 -4.36245 -1.49959 0
M  V30 7807 H 737.707 -4.12443 -1.34438 0
M  V30 7808 H 738.378 -4.71717 -2.86683 0
M  V30 7809 H 740.854 -2.80172 -3.07641 0
M  V30 7810 H 739.73 -3.35542 -4.34399 0
M  V30 7811 H 739.991 -1.63451 -4.10775 0
M  V30 7812 N 739.05 0.861098 -1.31996 0
M  V30 7813 C 740.297 1.61481 -1.22188 0
M  V30 7814 C 740.625 1.93276 0.217853 0
M  V30 7815 O 739.88 1.56942 1.16909 0
M  V30 7816 C 740.179 2.94822 -2.02027 0
M  V30 7817 C 739.845 2.82483 -3.51446 0
M  V30 7818 C 738.507 2.78825 -3.92186 0
M  V30 7819 C 740.859 2.68878 -4.46491 0
M  V30 7820 C 738.187 2.59433 -5.26224 0
M  V30 7821 C 740.539 2.51022 -5.80664 0
M  V30 7822 C 739.203 2.45753 -6.20614 0
M  V30 7823 H 738.473 0.590902 -0.447119 0
M  V30 7824 H 741.12 0.999376 -1.63355 0
M  V30 7825 H 739.425 3.6045 -1.53569 0
M  V30 7826 H 741.122 3.52149 -1.91812 0
M  V30 7827 H 737.712 2.86152 -3.19085 0
M  V30 7828 H 741.896 2.70754 -4.1594 0
M  V30 7829 H 737.152 2.53784 -5.5624 0
M  V30 7830 H 741.326 2.39473 -6.53931 0
M  V30 7831 H 738.953 2.30485 -7.24417 0
M  V30 7832 N 740.528 1.15101 1.07655 0
M  V30 7833 C 741.758 0.946357 1.83651 0
M  V30 7834 C 742.166 -0.508641 1.82235 0
M  V30 7835 O 741.509 -1.36445 1.22997 0
M  V30 7836 C 741.571 1.37945 3.31981 0
M  V30 7837 C 741.235 2.85155 3.57122 0
M  V30 7838 C 742.232 3.83234 3.51323 0
M  V30 7839 C 739.917 3.2275 3.84887 0
M  V30 7840 C 741.911 5.16914 3.72932 0
M  V30 7841 C 739.598 4.56604 4.06148 0
M  V30 7842 C 740.596 5.53495 4.00165 0
M  V30 7843 O 740.284 6.84931 4.20861 0
M  V30 7844 H 740.016 0.336368 0.586372 0
M  V30 7845 H 742.57 1.53198 1.36819 0
M  V30 7846 H 740.8 0.737205 3.79608 0
M  V30 7847 H 742.489 1.14439 3.89434 0
M  V30 7848 H 743.255 3.55535 3.29878 0
M  V30 7849 H 739.134 2.47921 3.88659 0
M  V30 7850 H 742.678 5.92529 3.68178 0
M  V30 7851 H 738.575 4.84019 4.27078 0
M  V30 7852 H 739.343 6.91304 4.38226 0
M  V30 7853 N 742.006 -1.2595 0.947325 0
M  V30 7854 C 742.954 -2.28152 0.452687 0
M  V30 7855 C 743.948 -1.62655 -0.473239 0
M  V30 7856 O 745.154 -1.76549 -0.350774 0
M  V30 7857 H 741.529 -0.741049 0.12787 0
M  V30 7858 H 743.5 -2.67267 1.32707 0
M  V30 7859 C 742.249 -3.46719 -0.26098 0
M  V30 7860 H 741.572 -3.97345 0.442352 0
M  V30 7861 H 743.012 -4.20135 -0.571208 0
M  V30 7862 C 741.471 -3.02605 -1.48094 0
M  V30 7863 O 742.001 -3.07979 -2.57899 0
M  V30 7864 N 740.207 -2.57877 -1.33969 0
M  V30 7865 H 739.754 -2.53704 -0.446295 0
M  V30 7866 H 739.712 -2.28725 -2.15713 0
M  V30 7867 N 743.484 -0.715051 -1.40445 0
M  V30 7868 C 744.724 -0.258742 -2.02756 0
M  V30 7869 C 745.088 1.12661 -1.55472 0
M  V30 7870 O 746.289 1.67988 -2.09842 0
M  V30 7871 C 744.56 -0.335201 -3.55825 0
M  V30 7872 S 746.119 0.044201 -4.38778 0
M  V30 7873 H 742.937 -0.102683 -0.703546 0
M  V30 7874 H 745.539 -0.937151 -1.71574 0
M  V30 7875 H 744.243 -1.34511 -3.87731 0
M  V30 7876 H 743.774 0.361705 -3.91734 0
M  V30 7877 H 745.789 1.26639 -4.79768 0
M  V30 7878 N 744.962 1.50701 -0.461195 0
M  V30 7879 C 746.187 2.07171 0.0974773 0
M  V30 7880 C 746.612 1.32391 1.3362 0
M  V30 7881 O 745.97 0.368676 1.77512 0
M  V30 7882 C 746.018 3.58651 0.374409 0
M  V30 7883 O 745.122 3.85816 1.4567 0
M  V30 7884 H 744.463 0.663944 -0.00862047 0
M  V30 7885 H 746.993 1.94021 -0.649394 0
M  V30 7886 H 747.003 4.03295 0.617843 0
M  V30 7887 H 745.678 4.12498 -0.530829 0
M  V30 7888 H 744.255 3.53018 1.20136 0
M  V30 7889 N 746.441 0.193421 1.56409 0
M  V30 7890 C 747.681 -0.447977 1.9943 0
M  V30 7891 C 748.045 -1.58915 1.07751 0
M  V30 7892 O 749.246 -2.29462 1.40002 0
M  V30 7893 C 747.517 -0.89793 3.45936 0
M  V30 7894 S 749.076 -1.5374 4.10986 0
M  V30 7895 H 745.894 -0.143316 0.696406 0
M  V30 7896 H 748.496 0.296093 1.93245 0
M  V30 7897 H 747.2 -0.0572927 4.1036 0
M  V30 7898 H 746.731 -1.67551 3.55936 0
M  V30 7899 H 748.746 -2.82612 4.07854 0
M  V30 7900 N 747.919 -1.57396 -0.0801906 0
M  V30 7901 C 749.165 -1.87113 -0.782083 0
M  V30 7902 C 749.498 -0.78458 -1.77646 0
M  V30 7903 O 748.773 0.205993 -1.93406 0
M  V30 7904 C 749.056 -3.27483 -1.49756 0
M  V30 7905 C 748.909 -4.46782 -0.520171 0
M  V30 7906 C 750.228 -3.65965 -2.44454 0
M  V30 7907 H 747.347 -0.680559 -0.282858 0
M  V30 7908 H 749.989 -1.89946 -0.0454139 0
M  V30 7909 H 748.139 -3.25199 -2.12551 0
M  V30 7910 H 749.811 -4.61187 0.101919 0
M  V30 7911 H 748.054 -4.33485 0.165219 0
M  V30 7912 H 748.725 -5.41761 -1.05824 0
M  V30 7913 H 751.201 -3.69289 -1.91742 0
M  V30 7914 H 750.077 -4.65086 -2.91524 0
M  V30 7915 H 750.338 -2.95446 -3.28883 0
M  V30 7916 N 749.397 0.351382 -1.53633 0
M  V30 7917 C 750.307 1.45471 -1.84052 0
M  V30 7918 C 751.323 1.57945 -0.730015 0
M  V30 7919 O 752.499 1.73571 -1.02153 0
M  V30 7920 C 749.564 2.80562 -2.03681 0
M  V30 7921 C 748.625 2.77497 -3.27558 0
M  V30 7922 C 747.858 4.06144 -3.46241 0
M  V30 7923 O 748.081 5.03028 -2.68922 0
M  V30 7924 O 747.015 4.11092 -4.39645 0
M  V30 7925 H 750.841 1.22684 -2.77817 0
M  V30 7926 H 748.426 0.542827 -1.3919 0
M  V30 7927 H 750.308 3.6058 -2.18082 0
M  V30 7928 H 748.983 3.03296 -1.13106 0
M  V30 7929 H 747.89 1.96126 -3.18568 0
M  V30 7930 H 749.223 2.59716 -4.18101 0
M  V30 7931 N 750.875 1.45233 0.611969 0
M  V30 7932 C 752.121 1.49242 1.37312 0
M  V30 7933 C 752.454 0.131963 1.93751 0
M  V30 7934 O 751.729 -0.852999 1.74798 0
M  V30 7935 C 752.012 2.56811 2.52428 0
M  V30 7936 C 751.865 4.02284 2.01215 0
M  V30 7937 C 753.184 2.60705 3.54572 0
M  V30 7938 H 750.303 0.54336 0.497925 0
M  V30 7939 H 752.945 1.77019 0.690242 0
M  V30 7940 H 751.095 2.33256 3.10683 0
M  V30 7941 H 752.767 4.37035 1.47643 0
M  V30 7942 H 751.01 4.1315 1.32248 0
M  V30 7943 H 751.681 4.7323 2.84178 0
M  V30 7944 H 754.157 2.81799 3.06151 0
M  V30 7945 H 753.033 3.37841 4.32614 0
M  V30 7946 H 753.294 1.65627 4.09903 0
M  V30 7947 N 752.353 -0.854086 1.3245 0
M  V30 7948 C 753.581 -1.64074 1.26045 0
M  V30 7949 C 753.996 -1.8802 -0.171456 0
M  V30 7950 O 753.353 -1.4496 -1.10873 0
M  V30 7951 C 753.404 -2.9997 2.01743 0
M  V30 7952 O 753.125 -2.77084 3.39346 0
M  V30 7953 C 754.626 -3.94414 2.02368 0
M  V30 7954 H 751.846 -0.511015 0.434862 0
M  V30 7955 H 754.39 -1.06494 1.74583 0
M  V30 7956 H 752.545 -3.54193 1.56926 0
M  V30 7957 H 752.959 -3.63514 3.78098 0
M  V30 7958 H 754.433 -4.87032 2.59815 0
M  V30 7959 H 754.91 -4.27427 1.01009 0
M  V30 7960 H 755.516 -3.46127 2.47135 0
M  V30 7961 N 753.831 -1.1567 -1.07043 0
M  V30 7962 C 755.079 -0.931673 -1.79344 0
M  V30 7963 C 755.4 0.542421 -1.87304 0
M  V30 7964 O 754.67 1.39418 -1.37621 0
M  V30 7965 H 753.25 -0.34171 -0.664262 0
M  V30 7966 H 755.912 -1.45795 -1.29344 0
M  V30 7967 H 755.008 -1.34379 -2.81689 0
M  V30 7968 N 755.309 1.25446 -0.953992 0
M  V30 7969 C 756.239 2.28264 -0.491717 0
M  V30 7970 C 757.22 1.63717 0.461617 0
M  V30 7971 O 758.405 1.90821 0.36071 0
M  V30 7972 C 755.535 3.46525 0.231915 0
M  V30 7973 C 754.489 4.23247 -0.636098 0
M  V30 7974 C 753.815 5.34254 0.218238 0
M  V30 7975 C 755.115 4.85971 -1.91389 0
M  V30 7976 H 756.809 2.67183 -1.35106 0
M  V30 7977 H 754.355 1.2844 -0.651095 0
M  V30 7978 H 756.308 4.17576 0.566439 0
M  V30 7979 H 755.032 3.06594 1.12551 0
M  V30 7980 H 753.691 3.53978 -0.953696 0
M  V30 7981 H 753.339 4.90564 1.11156 0
M  V30 7982 H 753.039 5.86501 -0.359232 0
M  V30 7983 H 754.563 6.08138 0.547743 0
M  V30 7984 H 755.977 5.49168 -1.64581 0
M  V30 7985 H 754.374 5.48391 -2.43696 0
M  V30 7986 H 755.444 4.08192 -2.61738 0
M  V30 7987 N 756.787 0.722489 1.40064 0
M  V30 7988 C 757.719 0.0349057 2.29173 0
M  V30 7989 C 758.732 -0.716571 1.46182 0
M  V30 7990 O 759.921 -0.562806 1.69395 0
M  V30 7991 C 757.021 -0.974839 3.24577 0
M  V30 7992 C 756.194 -0.287471 4.36454 0
M  V30 7993 C 755.253 -1.20356 5.12251 0
M  V30 7994 O 754.279 -0.685753 5.65054 0
M  V30 7995 N 755.481 -2.53422 5.22262 0
M  V30 7996 H 758.246 0.800058 2.88824 0
M  V30 7997 H 755.807 0.57068 1.51509 0
M  V30 7998 H 757.799 -1.59002 3.72157 0
M  V30 7999 H 756.369 -1.6413 2.66046 0
M  V30 8000 H 755.589 0.508008 3.90913 0
M  V30 8001 H 756.877 0.189382 5.08447 0
M  V30 8002 H 756.275 -2.97981 4.80857 0
M  V30 8003 H 754.832 -3.10067 5.73325 0
M  V30 8004 N 758.265 -1.50454 0.469181 0
M  V30 8005 C 759.213 -2.30101 -0.340033 0
M  V30 8006 C 760.207 -1.37306 -0.992135 0
M  V30 8007 O 761.413 -1.54506 -0.923458 0
M  V30 8008 H 757.788 -0.740941 -0.128495 0
M  V30 8009 H 759.759 -2.96315 0.352144 0
M  V30 8010 C 758.508 -3.17804 -1.41052 0
M  V30 8011 H 757.831 -3.89115 -0.918124 0
M  V30 8012 H 759.271 -3.76533 -1.94934 0
M  V30 8013 C 757.73 -2.35272 -2.4114 0
M  V30 8014 O 758.26 -2.03448 -3.4637 0
M  V30 8015 N 756.466 -1.97889 -2.1281 0
M  V30 8016 H 756.013 -2.2397 -1.27261 0
M  V30 8017 H 755.971 -1.42971 -2.80012 0
M  V30 8018 N 759.743 -0.201713 -1.56304 0
M  V30 8019 C 761.159 0.154025 -1.58855 0
M  V30 8020 C 761.359 1.60516 -1.21807 0
M  V30 8021 O 760.415 2.34193 -0.94393 0
M  V30 8022 C 761.728 -0.154319 -3.00304 0
M  V30 8023 C 763.276 -0.0949578 -3.12856 0
M  V30 8024 C 763.751 -0.376703 -4.56448 0
M  V30 8025 N 765.242 -0.325558 -4.62054 0
M  V30 8026 C 765.977 -0.51732 -5.71062 0
M  V30 8027 N 765.473 -0.769789 -6.8851 0
M  V30 8028 N 767.266 -0.45112 -5.60287 0
M  V30 8029 H 759.417 -1.14858 -1.78666 0
M  V30 8030 H 761.68 -0.458934 -0.829508 0
M  V30 8031 H 761.386 -1.16074 -3.31994 0
M  V30 8032 H 761.26 0.540014 -3.73314 0
M  V30 8033 H 763.647 0.902075 -2.80974 0
M  V30 8034 H 763.728 -0.822468 -2.42217 0
M  V30 8035 H 763.372 -1.37108 -4.89044 0
M  V30 8036 H 763.302 0.371772 -5.25286 0
M  V30 8037 H 765.793 -0.137308 -3.7765 0
M  V30 8038 H 766.106 -0.904744 -7.67486 0
M  V30 8039 H 764.451 -0.806758 -6.90302 0
M  V30 8040 H 767.642 -0.254253 -4.67409 0
M  V30 8041 H 767.815 -0.603982 -6.45179 0
M  V30 8042 N 761.222 1.57436 0.0718424 0
M  V30 8043 C 762.17 2.04725 1.10411 0
M  V30 8044 C 763.164 0.952579 1.4008 0
M  V30 8045 O 764.37 1.13769 1.39487 0
M  V30 8046 H 760.745 0.652749 0.373393 0
M  V30 8047 H 762.716 2.90569 0.679126 0
M  V30 8048 C 761.465 2.5068 2.40946 0
M  V30 8049 H 760.788 3.34505 2.18967 0
M  V30 8050 H 762.228 2.87521 3.11621 0
M  V30 8051 C 760.687 1.38971 3.06902 0
M  V30 8052 O 761.217 0.731786 3.94978 0
M  V30 8053 N 759.423 1.13485 2.67525 0
M  V30 8054 H 758.97 1.67168 1.95991 0
M  V30 8055 H 758.928 0.389467 3.11978 0
M  V30 8056 N 762.7 -0.34323 1.53817 0
M  V30 8057 C 763.93 -1.10188 1.74763 0
M  V30 8058 C 764.338 -1.82829 0.486856 0
M  V30 8059 O 763.681 -1.75236 -0.551198 0
M  V30 8060 C 763.743 -2.16 2.87375 0
M  V30 8061 C 763.407 -1.62931 4.26969 0
M  V30 8062 C 764.404 -1.08147 5.08528 0
M  V30 8063 C 762.089 -1.67769 4.73454 0
M  V30 8064 C 764.083 -0.589039 6.34672 0
M  V30 8065 C 761.77 -1.18138 5.99572 0
M  V30 8066 C 762.768 -0.637979 6.80014 0
M  V30 8067 O 762.456 -0.149073 8.03762 0
M  V30 8068 H 762.188 -0.33445 0.587469 0
M  V30 8069 H 764.742 -0.401109 2.01445 0
M  V30 8070 H 762.972 -2.89637 2.56218 0
M  V30 8071 H 764.661 -2.77432 2.96287 0
M  V30 8072 H 765.427 -1.03732 4.73777 0
M  V30 8073 H 761.306 -2.09004 4.10899 0
M  V30 8074 H 764.85 -0.164233 6.97407 0
M  V30 8075 H 760.747 -1.22254 6.33817 0
M  V30 8076 H 761.515 -0.266332 8.18067 0
M  V30 8077 N 764.178 -1.45556 -0.604258 0
M  V30 8078 C 765.403 -1.53509 -1.39462 0
M  V30 8079 C 765.828 -0.169638 -1.87333 0
M  V30 8080 O 765.186 0.846346 -1.60333 0
M  V30 8081 C 765.234 -2.52654 -2.5729 0
M  V30 8082 O 764.338 -2.04666 -3.5803 0
M  V30 8083 H 763.679 -0.517355 -0.416221 0
M  V30 8084 H 766.209 -1.90939 -0.735072 0
M  V30 8085 H 766.219 -2.71568 -3.04491 0
M  V30 8086 H 764.894 -3.51823 -2.21797 0
M  V30 8087 H 763.471 -1.95643 -3.17456 0
M  V30 8088 N 765.656 0.84705 -1.32902 0
M  V30 8089 C 766.619 1.9378 -1.224 0
M  V30 8090 C 767.619 1.60144 -0.145108 0
M  V30 8091 O 768.809 1.69638 -0.396058 0
M  V30 8092 C 765.941 3.29234 -0.884174 0
M  V30 8093 H 767.134 2.04518 -2.19345 0
M  V30 8094 H 764.687 1.03816 -1.16842 0
M  V30 8095 H 765.422 3.24193 0.0831277 0
M  V30 8096 H 765.207 3.55026 -1.6643 0
M  V30 8097 H 766.697 4.09162 -0.835226 0
M  V30 8098 N 767.134 1.16236 1.06428 0
M  V30 8099 C 768.084 0.835994 2.12121 0
M  V30 8100 C 769.068 -0.183955 1.59845 0
M  V30 8101 O 770.26 0.0166741 1.76992 0
M  V30 8102 C 767.389 0.337333 3.41639 0
M  V30 8103 C 766.475 1.38798 4.00744 0
M  V30 8104 N 766.866 2.59799 4.3398 0
M  V30 8105 C 765.164 1.24292 4.28331 0
M  V30 8106 C 765.865 3.27213 4.80943 0
M  V30 8107 N 764.841 2.54594 4.80294 0
M  V30 8108 H 768.643 1.75615 2.35662 0
M  V30 8109 H 766.157 1.04921 1.23957 0
M  V30 8110 H 768.154 0.0851274 4.16813 0
M  V30 8111 H 766.814 -0.57677 3.19536 0
M  V30 8112 H 767.825 2.96867 4.24371 0
M  V30 8113 H 764.502 0.389464 4.15679 0
M  V30 8114 H 765.892 4.30492 5.15874 0
M  V30 8115 N 768.612 -1.24939 0.960631 0
M  V30 8116 C 769.542 -2.28 0.503815 0
M  V30 8117 C 770.523 -1.63959 -0.452928 0
M  V30 8118 O 771.708 -1.91009 -0.350585 0
M  V30 8119 C 768.838 -3.46643 -0.213535 0
M  V30 8120 C 767.792 -4.22903 0.658535 0
M  V30 8121 C 767.118 -5.34363 -0.189902 0
M  V30 8122 C 768.418 -4.84949 1.93963 0
M  V30 8123 H 770.112 -2.66462 1.36521 0
M  V30 8124 H 767.658 -1.28093 0.657897 0
M  V30 8125 H 769.611 -4.1787 -0.544286 0
M  V30 8126 H 768.335 -3.07187 -1.10923 0
M  V30 8127 H 766.994 -3.53467 0.972455 0
M  V30 8128 H 766.642 -4.91147 -1.08553 0
M  V30 8129 H 766.342 -5.86302 0.390331 0
M  V30 8130 H 767.866 -6.0842 -0.515484 0
M  V30 8131 H 769.28 -5.48288 1.67491 0
M  V30 8132 H 767.677 -5.47091 2.46601 0
M  V30 8133 H 768.747 -4.06799 2.639 0
M  V30 8134 N 770.09 -0.729906 -1.39679 0
M  V30 8135 C 771.338 -0.275077 -2.00219 0
M  V30 8136 C 771.659 1.1401 -1.58199 0
M  V30 8137 O 770.929 1.77546 -0.827904 0
M  V30 8138 H 769.509 -0.0987127 -0.740449 0
M  V30 8139 H 772.171 -0.93873 -1.70804 0
M  V30 8140 H 771.267 -0.319446 -3.10461 0
M  V30 8141 N 771.568 1.50203 -0.477153 0
M  V30 8142 C 772.478 2.32421 0.319027 0
M  V30 8143 C 773.494 1.43075 0.990233 0
M  V30 8144 O 774.67 1.76123 0.976873 0
M  V30 8145 C 771.735 3.17909 1.38328 0
M  V30 8146 C 770.796 4.23082 0.728036 0
M  V30 8147 C 770.029 5.04484 1.74158 0
M  V30 8148 O 770.252 4.8705 2.96881 0
M  V30 8149 O 769.186 5.8747 1.31006 0
M  V30 8150 H 773.012 3.01638 -0.353281 0
M  V30 8151 H 770.597 1.47478 -0.238891 0
M  V30 8152 H 772.479 3.70937 1.9996 0
M  V30 8153 H 771.154 2.51413 2.03895 0
M  V30 8154 H 770.061 3.7403 0.07261 0
M  V30 8155 H 771.394 4.92065 0.115216 0
M  V30 8156 N 773.046 0.209999 1.56195 0
M  V30 8157 C 774.286 -0.4268 1.99894 0
M  V30 8158 C 774.65 -1.57763 1.0943 0
M  V30 8159 O 775.851 -2.27964 1.42428 0
M  V30 8160 C 774.122 -0.861188 3.46869 0
M  V30 8161 S 775.681 -1.49372 4.12593 0
M  V30 8162 H 772.499 -0.135922 0.697887 0
M  V30 8163 H 775.101 0.316573 1.9292 0
M  V30 8164 H 773.805 -0.0137653 4.10398 0
M  V30 8165 H 773.336 -1.63766 3.57693 0
M  V30 8166 H 775.351 -2.7827 4.10829 0
M  V30 8167 N 774.524 -1.57472 -0.0634922 0
M  V30 8168 C 775.935 -1.76303 -0.614337 0
M  V30 8169 C 776.286 -0.836578 -1.77471 0
M  V30 8170 O 775.411 -0.0227184 -2.16388 0
M  V30 8171 C 776.006 -3.19709 -1.12122 0
M  V30 8172 C 774.565 -3.39856 -1.61786 0
M  V30 8173 C 773.712 -2.71975 -0.540845 0
M  V30 8174 H 776.663 -1.57864 0.162702 0
M  V30 8175 H 776.684 -3.24326 -1.98979 0
M  V30 8176 H 776.196 -3.87114 -0.276472 0
M  V30 8177 H 774.297 -2.77578 -2.48558 0
M  V30 8178 H 774.41 -4.48338 -1.68908 0
M  V30 8179 H 772.774 -2.34763 -0.987854 0
M  V30 8180 H 773.557 -3.4204 0.293856 0
M  V30 8181 N 776.003 0.335068 -1.53997 0
M  V30 8182 C 777.419 0.678704 -1.4445 0
M  V30 8183 C 777.619 1.92106 -0.608078 0
M  V30 8184 O 776.675 2.52292 -0.102373 0
M  V30 8185 C 777.988 0.863435 -2.88037 0
M  V30 8186 C 779.536 0.961513 -2.97866 0
M  V30 8187 C 780.011 1.1785 -4.42578 0
M  V30 8188 N 781.502 1.2455 -4.46141 0
M  V30 8189 C 782.237 1.43106 -5.55255 0
M  V30 8190 N 781.733 1.5878 -6.74359 0
M  V30 8191 N 783.526 1.45722 -5.42883 0
M  V30 8192 H 775.677 -0.481656 -2.06867 0
M  V30 8193 H 777.94 -0.153615 -0.935471 0
M  V30 8194 H 777.646 0.0219511 -3.51693 0
M  V30 8195 H 777.52 1.76268 -3.33481 0
M  V30 8196 H 779.907 1.79351 -2.34344 0
M  V30 8197 H 779.988 0.0389862 -2.5577 0
M  V30 8198 H 779.632 0.351397 -5.06683 0
M  V30 8199 H 779.562 2.11472 -4.82273 0
M  V30 8200 H 782.053 1.13928 -3.60318 0
M  V30 8201 H 782.366 1.72599 -7.53279 0
M  V30 8202 H 780.711 1.559 -6.77289 0
M  V30 8203 H 783.902 1.33065 -4.48789 0
M  V30 8204 H 784.075 1.59841 -6.27977 0
M  V30 8205 N 777.481 1.45874 0.596531 0
M  V30 8206 C 778.758 1.40942 1.35627 0
M  V30 8207 C 779.138 0.0857066 2.10926 0
M  V30 8208 O 778.486 -0.932544 2.08605 0
M  V30 8209 C 778.696 2.63027 2.29386 0
M  V30 8210 C 780.044 3.08588 2.91649 0
M  V30 8211 O 781.068 2.63478 2.39704 0
M  V30 8212 O 779.927 3.86902 3.85965 0
M  V30 8213 H 777.021 0.559838 0.608696 0
M  V30 8214 H 779.567 1.5802 0.618698 0
M  V30 8215 H 778.339 3.5094 1.7308 0
M  V30 8216 H 777.962 2.48338 3.10506 0
M  V30 8217 N 778.959 -0.83999 1.33349 0
M  V30 8218 C 779.907 -1.97113 1.23488 0
M  V30 8219 C 780.901 -1.68849 0.136503 0
M  V30 8220 O 782.107 -1.77476 0.300389 0
M  V30 8221 H 778.482 -0.647049 0.383185 0
M  V30 8222 H 780.453 -2.02554 2.19122 0
M  V30 8223 C 779.202 -3.33314 0.989815 0
M  V30 8224 H 778.525 -3.556 1.82726 0
M  V30 8225 H 779.965 -4.12963 0.961123 0
M  V30 8226 C 778.424 -3.35496 -0.307272 0
M  V30 8227 O 778.954 -3.79589 -1.31434 0
M  V30 8228 N 777.16 -2.88669 -0.334414 0
M  V30 8229 H 776.707 -2.5298 0.485659 0
M  V30 8230 H 776.665 -2.90512 -1.20209 0
M  V30 8231 N 780.437 -1.16799 -1.0581 0
M  V30 8232 C 781.665 -0.97687 -1.82387 0
M  V30 8233 C 782.08 0.474917 -1.82729 0
M  V30 8234 O 781.437 1.3297 -1.25001 0
M  V30 8235 C 781.488 -1.50279 -3.28783 0
M  V30 8236 O 781.209 -2.89772 -3.28578 0
M  V30 8237 C 782.71 -1.35538 -4.22071 0
M  V30 8238 H 779.93 -0.345977 -0.574927 0
M  V30 8239 H 782.474 -1.54942 -1.33466 0
M  V30 8240 H 780.629 -0.972414 -3.74997 0
M  V30 8241 H 781.043 -3.13954 -4.20159 0
M  V30 8242 H 782.517 -1.7716 -5.22799 0
M  V30 8243 H 782.994 -0.301598 -4.38163 0
M  V30 8244 H 783.6 -1.87562 -3.81708 0
M  V30 8245 N 781.915 1.24427 -0.967243 0
M  V30 8246 C 783.155 1.9423 -0.636723 0
M  V30 8247 C 783.519 1.73939 0.812971 0
M  V30 8248 O 784.72 2.37773 1.25369 0
M  V30 8249 C 782.991 3.43105 -1.00067 0
M  V30 8250 S 784.55 4.31728 -0.784633 0
M  V30 8251 H 781.368 0.671527 -0.233607 0
M  V30 8252 H 783.97 1.50806 -1.2441 0
M  V30 8253 H 782.674 3.5538 -2.05264 0
M  V30 8254 H 782.205 3.91521 -0.384054 0
M  V30 8255 H 784.22 4.95046 0.338244 0
M  V30 8256 N 783.393 0.737304 1.3929 0
M  V30 8257 C 784.621 0.296573 2.04763 0
M  V30 8258 C 785.036 -1.06941 1.55592 0
M  V30 8259 O 784.393 -1.67619 0.721822 0
M  V30 8260 C 784.444 0.291906 3.6032 0
M  V30 8261 O 784.165 1.60397 4.07682 0
M  V30 8262 C 785.666 -0.164708 4.42994 0
M  V30 8263 H 782.886 0.129251 0.658434 0
M  V30 8264 H 785.43 1.0016 1.78293 0
M  V30 8265 H 783.585 -0.364251 3.85684 0
M  V30 8266 H 783.999 1.51909 5.0202 0
M  V30 8267 H 785.473 -0.116814 5.51876 0
M  V30 8268 H 785.95 -1.21022 4.22197 0
M  V30 8269 H 786.556 0.461968 4.22784 0
M  V30 8270 N 784.871 -1.49948 0.485112 0
M  V30 8271 C 786.287 -1.58984 0.140096 0
M  V30 8272 C 786.487 -1.49194 -1.35438 0
M  V30 8273 O 785.543 -1.35765 -2.12894 0
M  V30 8274 C 786.856 -2.92372 0.702769 0
M  V30 8275 C 788.404 -3.05801 0.66745 0
M  V30 8276 C 788.879 -4.41785 1.20791 0
M  V30 8277 N 790.37 -4.48234 1.16792 0
M  V30 8278 C 791.105 -5.51871 1.55646 0
M  V30 8279 N 790.601 -6.62692 2.02016 0
M  V30 8280 N 792.394 -5.42494 1.47161 0
M  V30 8281 H 784.545 -1.54555 1.45693 0
M  V30 8282 H 786.808 -0.731206 0.603359 0
M  V30 8283 H 786.514 -3.05056 1.75025 0
M  V30 8284 H 786.388 -3.76885 0.154205 0
M  V30 8285 H 788.775 -2.92757 -0.371157 0
M  V30 8286 H 788.856 -2.23011 1.25298 0
M  V30 8287 H 788.5 -4.55579 2.24522 0
M  V30 8288 H 788.43 -5.23188 0.598464 0
M  V30 8289 H 790.921 -3.68718 0.827982 0
M  V30 8290 H 791.234 -7.3785 2.29775 0
M  V30 8291 H 789.579 -6.63775 2.05979 0
M  V30 8292 H 792.77 -4.54806 1.10765 0
M  V30 8293 H 792.943 -6.2314 1.77766 0
M  V30 8294 N 786.349 -0.21828 -1.56081 0
M  V30 8295 C 787.296 0.693189 -2.20144 0
M  V30 8296 C 788.266 1.19274 -1.15598 0
M  V30 8297 O 789.451 1.25243 -1.4394 0
M  V30 8298 C 786.591 1.89715 -2.88275 0
M  V30 8299 C 785.704 1.4368 -4.07407 0
M  V30 8300 C 784.839 2.59807 -4.63329 0
M  V30 8301 C 783.878 2.10492 -5.74769 0
M  V30 8302 N 783.015 3.1988 -6.24997 0
M  V30 8303 H 787.855 0.14016 -2.9767 0
M  V30 8304 H 785.392 0.0574292 -1.46988 0
M  V30 8305 H 787.35 2.60398 -3.25958 0
M  V30 8306 H 785.98 2.42311 -2.13273 0
M  V30 8307 H 785.032 0.625007 -3.7523 0
M  V30 8308 H 786.344 1.03517 -4.8794 0
M  V30 8309 H 785.498 3.38577 -5.03438 0
M  V30 8310 H 784.237 3.03256 -3.81951 0
M  V30 8311 H 783.242 1.30182 -5.34165 0
M  V30 8312 H 784.467 1.68045 -6.5798 0
M  V30 8313 H 782.413 3.62817 -5.46534 0
M  V30 8314 H 782.33 2.83958 -7.00645 0
M  V30 8315 H 783.598 3.98796 -6.69763 0
M  V30 8316 N 787.827 1.57504 0.0551401 0
M  V30 8317 C 789.074 1.88055 0.751104 0
M  V30 8318 C 789.402 0.812231 1.76729 0
M  V30 8319 O 788.657 -0.189918 1.94776 0
M  V30 8320 C 788.956 3.25311 1.48013 0
M  V30 8321 C 788.622 4.46858 0.602375 0
M  V30 8322 C 787.284 4.79847 0.360536 0
M  V30 8323 C 789.636 5.212 -0.00524047 0
M  V30 8324 C 786.964 5.84582 -0.498127 0
M  V30 8325 C 789.316 6.26844 -0.851453 0
M  V30 8326 C 787.98 6.58324 -1.103 0
M  V30 8327 H 787.25 0.688142 0.274848 0
M  V30 8328 H 789.897 1.91497 0.0114795 0
M  V30 8329 H 788.202 3.17737 2.29239 0
M  V30 8330 H 789.899 3.46189 2.02371 0
M  V30 8331 H 786.489 4.21049 0.801007 0
M  V30 8332 H 790.673 4.96013 0.168682 0
M  V30 8333 H 785.929 6.07361 -0.701594 0
M  V30 8334 H 790.103 6.83603 -1.32893 0
M  V30 8335 H 787.73 7.39304 -1.77011 0
M  V30 8336 N 789.305 -0.326896 1.54172 0
M  V30 8337 C 790.552 -1.06523 1.72218 0
M  V30 8338 C 790.88 -1.88119 0.494114 0
M  V30 8339 O 790.135 -1.8855 -0.524147 0
M  V30 8340 C 790.434 -2.0208 2.94785 0
M  V30 8341 C 790.1 -1.36665 4.2969 0
M  V30 8342 C 788.762 -1.18556 4.66367 0
M  V30 8343 C 791.114 -0.896868 5.13425 0
M  V30 8344 C 788.442 -0.521113 5.84381 0
M  V30 8345 C 790.794 -0.246261 6.3212 0
M  V30 8346 C 789.458 -0.052987 6.67479 0
M  V30 8347 H 788.728 -0.389796 0.63019 0
M  V30 8348 H 791.375 -0.342725 1.88408 0
M  V30 8349 H 789.68 -2.8077 2.73268 0
M  V30 8350 H 791.377 -2.59231 3.05941 0
M  V30 8351 H 787.967 -1.51762 4.00832 0
M  V30 8352 H 792.151 -1.02458 4.85609 0
M  V30 8353 H 787.407 -0.36014 6.10338 0
M  V30 8354 H 791.581 0.125775 6.96286 0
M  V30 8355 H 789.208 0.463903 7.58783 0
M  V30 8356 N 790.784 -1.46188 -0.588786 0
M  V30 8357 C 792.033 -1.50452 -1.34339 0
M  V30 8358 C 792.346 -0.158096 -1.9496 0
M  V30 8359 O 793.552 -0.0784918 -2.71387 0
M  V30 8360 C 792.008 -2.65074 -2.43441 0
M  V30 8361 C 791.616 -4.06111 -1.8915 0
M  V30 8362 C 793.36 -2.78603 -3.20282 0
M  V30 8363 C 791.267 -5.12084 -2.95845 0
M  V30 8364 H 790.197 -0.559905 -0.504997 0
M  V30 8365 H 792.848 -1.72382 -0.629014 0
M  V30 8366 H 791.23 -2.36462 -3.1765 0
M  V30 8367 H 792.404 -4.44487 -1.21524 0
M  V30 8368 H 790.719 -3.97197 -1.24995 0
M  V30 8369 H 793.316 -3.54944 -3.99898 0
M  V30 8370 H 793.659 -1.85902 -3.72486 0
M  V30 8371 H 794.192 -3.06832 -2.53178 0
M  V30 8372 H 790.931 -6.06556 -2.48535 0
M  V30 8373 H 790.451 -4.78259 -3.61979 0
M  V30 8374 H 792.13 -5.37661 -3.59902 0
M  V30 8375 N 792.262 0.832906 -1.33792 0
M  V30 8376 C 793.492 1.61813 -1.28453 0
M  V30 8377 C 793.9 1.88639 0.145595 0
M  V30 8378 O 793.243 1.47122 1.10004 0
M  V30 8379 C 793.305 2.98929 -1.99704 0
M  V30 8380 C 792.969 2.95045 -3.48995 0
M  V30 8381 C 793.966 2.70337 -4.44088 0
M  V30 8382 C 791.651 3.14993 -3.91261 0
M  V30 8383 C 793.645 2.65612 -5.79421 0
M  V30 8384 C 791.332 3.09893 -5.26697 0
M  V30 8385 C 792.33 2.85235 -6.20588 0
M  V30 8386 O 792.018 2.8005 -7.53543 0
M  V30 8387 H 791.75 0.510013 -0.443693 0
M  V30 8388 H 794.304 1.04514 -1.76822 0
M  V30 8389 H 792.534 3.58106 -1.45935 0
M  V30 8390 H 794.223 3.59849 -1.87786 0
M  V30 8391 H 794.989 2.54671 -4.12756 0
M  V30 8392 H 790.868 3.33204 -3.18584 0
M  V30 8393 H 794.412 2.46285 -6.52679 0
M  V30 8394 H 790.309 3.2511 -5.5765 0
M  V30 8395 H 791.077 2.95849 -7.63162 0
M  V30 8396 N 793.74 1.17359 1.05189 0
M  V30 8397 C 794.986 0.963413 1.78455 0
M  V30 8398 C 795.319 -0.506703 1.87473 0
M  V30 8399 O 794.594 -1.37611 1.37453 0
M  V30 8400 C 794.877 1.60519 3.22344 0
M  V30 8401 C 794.73 3.14741 3.21338 0
M  V30 8402 C 796.049 1.3091 4.20179 0
M  V30 8403 H 793.168 0.351412 0.647826 0
M  V30 8404 H 795.81 1.44858 1.22948 0
M  V30 8405 H 793.96 1.19265 3.69741 0
M  V30 8406 H 795.632 3.65053 2.82017 0
M  V30 8407 H 793.875 3.4749 2.59679 0
M  V30 8408 H 794.546 3.54775 4.22894 0
M  V30 8409 H 797.022 1.66635 3.81277 0
M  V30 8410 H 795.898 1.784 5.191 0
M  V30 8411 H 796.159 0.229908 4.41502 0
M  V30 8412 N 795.218 -1.23913 0.973828 0
M  V30 8413 C 796.181 -2.23367 0.51378 0
M  V30 8414 C 797.181 -1.55923 -0.39302 0
M  V30 8415 O 798.371 -1.73187 -0.187626 0
M  V30 8416 C 795.503 -3.39944 -0.255152 0
M  V30 8417 H 796.696 -2.65581 1.39307 0
M  V30 8418 H 794.249 -1.36632 0.759039 0
M  V30 8419 H 794.984 -3.03177 -1.15127 0
M  V30 8420 H 794.769 -3.90098 0.395673 0
M  V30 8421 H 796.259 -4.13749 -0.565842 0
M  V30 8422 N 796.696 -0.74468 -1.38897 0
M  V30 8423 C 797.945 -0.293716 -1.9955 0
M  V30 8424 C 798.258 1.12831 -1.59777 0
M  V30 8425 O 799.464 1.67929 -2.13336 0
M  V30 8426 C 797.92 -0.474188 -3.56762 0
M  V30 8427 C 797.528 -1.90472 -4.05493 0
M  V30 8428 C 799.272 -0.0854875 -4.24414 0
M  V30 8429 C 797.179 -2.03423 -5.55314 0
M  V30 8430 H 796.109 -0.106066 -0.746502 0
M  V30 8431 H 798.76 -0.919948 -1.58774 0
M  V30 8432 H 797.142 0.221092 -3.95382 0
M  V30 8433 H 798.316 -2.63274 -3.78184 0
M  V30 8434 H 796.631 -2.24752 -3.50536 0
M  V30 8435 H 799.228 -0.161133 -5.34457 0
M  V30 8436 H 799.571 0.96066 -4.05064 0
M  V30 8437 H 800.104 -0.732286 -3.91002 0
M  V30 8438 H 796.843 -3.0626 -5.79556 0
M  V30 8439 H 796.363 -1.3507 -5.84394 0
M  V30 8440 H 798.042 -1.81996 -6.20876 0
M  V30 8441 N 798.174 1.49689 -0.493057 0
M  V30 8442 C 799.106 2.26867 0.326195 0
M  V30 8443 C 800.119 1.33083 0.937697 0
M  V30 8444 O 801.308 1.58427 0.822382 0
M  V30 8445 C 798.408 3.0519 1.4735 0
M  V30 8446 C 797.581 4.26491 0.970767 0
M  V30 8447 C 796.64 4.86926 1.99473 0
M  V30 8448 O 795.666 5.47221 1.56647 0
M  V30 8449 N 796.868 4.75871 3.32456 0
M  V30 8450 H 799.633 2.97816 -0.335547 0
M  V30 8451 H 797.194 1.58602 -0.325129 0
M  V30 8452 H 799.186 3.42496 2.15589 0
M  V30 8453 H 797.756 2.369 2.03954 0
M  V30 8454 H 796.976 3.94036 0.113529 0
M  V30 8455 H 798.264 5.05092 0.613156 0
M  V30 8456 H 797.662 4.2797 3.69944 0
M  V30 8457 H 796.219 5.17383 3.96431 0
M  V30 8458 N 799.652 0.226554 1.55963 0
M  V30 8459 C 800.898 -0.404387 1.98727 0
M  V30 8460 C 801.231 -1.59059 1.11418 0
M  V30 8461 O 800.506 -1.93729 0.172971 0
M  V30 8462 C 800.789 -0.834081 3.50307 0
M  V30 8463 C 800.642 0.356104 4.48388 0
M  V30 8464 C 801.961 -1.68845 4.06423 0
M  V30 8465 H 799.08 -0.145515 0.722492 0
M  V30 8466 H 801.722 0.323791 1.87221 0
M  V30 8467 H 799.872 -1.45454 3.60244 0
M  V30 8468 H 801.544 0.99432 4.50456 0
M  V30 8469 H 799.787 1.0027 4.22053 0
M  V30 8470 H 800.458 0.0124333 5.51999 0
M  V30 8471 H 802.934 -1.16489 3.99461 0
M  V30 8472 H 801.81 -1.958 5.1279 0
M  V30 8473 H 802.071 -2.65347 3.53615 0
M  V30 8474 N 801.13 -1.57531 -0.0467866 0
M  V30 8475 C 802.379 -1.87632 -0.740069 0
M  V30 8476 C 802.692 -0.822691 -1.77457 0
M  V30 8477 O 803.898 -1.01235 -2.5192 0
M  V30 8478 C 802.354 -3.32917 -1.36727 0
M  V30 8479 C 801.962 -4.46469 -0.370035 0
M  V30 8480 C 803.706 -3.72189 -2.04146 0
M  V30 8481 C 801.613 -5.82806 -1.00457 0
M  V30 8482 H 800.543 -0.70002 -0.280158 0
M  V30 8483 H 803.194 -1.83499 0.00607151 0
M  V30 8484 H 801.576 -3.31739 -2.16252 0
M  V30 8485 H 802.75 -4.59085 0.397217 0
M  V30 8486 H 801.065 -4.15914 0.201079 0
M  V30 8487 H 803.662 -4.71357 -2.52441 0
M  V30 8488 H 804.005 -3.03268 -2.85192 0
M  V30 8489 H 804.538 -3.75465 -1.3142 0
M  V30 8490 H 801.277 -6.55083 -0.233907 0
M  V30 8491 H 800.797 -5.73944 -1.74209 0
M  V30 8492 H 802.476 -6.28961 -1.51713 0
M  V30 8493 N 802.608 0.318715 -1.54344 0
M  V30 8494 C 803.556 1.41254 -1.84798 0
M  V30 8495 C 804.55 1.53325 -0.720256 0
M  V30 8496 O 805.756 1.55653 -0.903992 0
M  V30 8497 H 802.131 0.471468 -0.585851 0
M  V30 8498 H 804.102 1.12795 -2.7626 0
M  V30 8499 C 802.851 2.77395 -2.09637 0
M  V30 8500 H 802.174 2.68881 -2.95876 0
M  V30 8501 H 803.614 3.52987 -2.34896 0
M  V30 8502 C 802.073 3.24948 -0.889398 0
M  V30 8503 O 802.603 4.01573 -0.101063 0
M  V30 8504 N 800.809 2.82051 -0.699684 0
M  V30 8505 H 800.356 2.19858 -1.3424 0
M  V30 8506 H 800.314 3.1422 0.106368 0
M  V30 8507 N 804.086 1.46499 0.581025 0
M  V30 8508 C 805.311 1.55708 1.37002 0
M  V30 8509 C 805.736 0.19942 1.8704 0
M  V30 8510 O 805.094 -0.820731 1.61659 0
M  V30 8511 C 805.142 2.56716 2.53238 0
M  V30 8512 O 804.246 2.10336 3.54729 0
M  V30 8513 H 803.587 0.523912 0.407937 0
M  V30 8514 H 806.117 1.92085 0.704602 0
M  V30 8515 H 806.127 2.76378 3.00132 0
M  V30 8516 H 804.802 3.55307 2.16171 0
M  V30 8517 H 803.379 2.00669 3.14303 0
M  V30 8518 N 805.565 -0.825799 1.34232 0
M  V30 8519 C 806.495 -1.95151 1.28212 0
M  V30 8520 C 807.476 -1.69345 0.160123 0
M  V30 8521 O 808.661 -1.90983 0.352019 0
M  V30 8522 C 805.791 -3.31554 1.03388 0
M  V30 8523 C 804.745 -3.71793 2.12023 0
M  V30 8524 C 804.071 -5.06147 1.72392 0
M  V30 8525 C 805.371 -3.84193 3.53826 0
M  V30 8526 H 807.065 -2.00445 2.22401 0
M  V30 8527 H 804.611 -0.962996 1.07063 0
M  V30 8528 H 806.564 -4.09889 0.978225 0
M  V30 8529 H 805.288 -3.26551 0.0564142 0
M  V30 8530 H 803.947 -2.95731 2.16654 0
M  V30 8531 H 803.595 -4.97628 0.733137 0
M  V30 8532 H 803.295 -5.34041 2.451 0
M  V30 8533 H 804.819 -5.86943 1.68317 0
M  V30 8534 H 806.233 -4.52806 3.51624 0
M  V30 8535 H 804.63 -4.23538 4.2513 0
M  V30 8536 H 805.7 -2.86272 3.91377 0
M  V30 8537 N 807.043 -1.17915 -1.04565 0
M  V30 8538 C 808.29 -0.971424 -1.77678 0
M  V30 8539 C 808.618 0.499401 -1.87979 0
M  V30 8540 O 807.873 1.38695 -1.38066 0
M  V30 8541 C 808.172 -1.56528 -3.213 0
M  V30 8542 C 807.838 -3.06138 -3.31044 0
M  V30 8543 C 806.5 -3.46974 -3.33411 0
M  V30 8544 C 808.852 -4.02151 -3.31548 0
M  V30 8545 C 806.18 -4.82406 -3.33918 0
M  V30 8546 C 808.532 -5.37492 -3.33595 0
M  V30 8547 C 807.196 -5.77782 -3.34251 0
M  V30 8548 H 806.466 -0.355469 -0.650171 0
M  V30 8549 H 809.113 -1.46902 -1.22849 0
M  V30 8550 H 807.418 -0.98955 -3.79098 0
M  V30 8551 H 809.115 -1.38003 -3.76505 0
M  V30 8552 H 805.705 -2.73589 -3.29919 0
M  V30 8553 H 809.889 -3.71656 -3.28916 0
M  V30 8554 H 805.145 -5.12927 -3.3274 0
M  V30 8555 H 809.319 -6.1166 -3.32934 0
M  V30 8556 H 806.946 -6.82702 -3.34397 0
M  V30 8557 N 808.521 1.23394 -0.980386 0
M  V30 8558 C 809.746 1.96384 -0.666935 0
M  V30 8559 C 810.171 1.72087 0.759456 0
M  V30 8560 O 809.529 0.992328 1.51732 0
M  V30 8561 C 809.577 3.47499 -0.963177 0
M  V30 8562 O 808.681 4.12363 -0.0552051 0
M  V30 8563 H 808.022 0.614797 -0.250839 0
M  V30 8564 H 810.552 1.56831 -1.31398 0
M  V30 8565 H 810.562 3.97953 -0.899877 0
M  V30 8566 H 809.237 3.6451 -2.00264 0
M  V30 8567 H 807.814 3.72499 -0.172914 0
M  V30 8568 N 809.999 0.752036 1.385 0
M  V30 8569 C 810.962 0.131587 2.28822 0
M  V30 8570 C 811.962 -0.649149 1.47115 0
M  V30 8571 O 813.152 -0.475645 1.67581 0
M  V30 8572 C 810.284 -0.822101 3.30839 0
M  V30 8573 H 811.477 0.927551 2.85196 0
M  V30 8574 H 809.03 0.518945 1.47434 0
M  V30 8575 H 809.765 -1.6438 2.79553 0
M  V30 8576 H 809.55 -0.264689 3.91206 0
M  V30 8577 H 811.04 -1.25226 3.98382 0
M  V30 8578 N 811.477 -1.49425 0.500989 0
M  V30 8579 C 812.705 -2.06861 -0.0403443 0
M  V30 8580 C 813.12 -1.36132 -1.30819 0
M  V30 8581 O 812.477 -0.439647 -1.77125 0
M  V30 8582 C 812.528 -3.6027 -0.297902 0
M  V30 8583 O 812.249 -4.28338 0.919686 0
M  V30 8584 C 813.75 -4.34419 -0.882876 0
M  V30 8585 H 810.97 -0.670688 0.0204619 0
M  V30 8586 H 813.514 -1.92207 0.698342 0
M  V30 8587 H 811.669 -3.74627 -0.98657 0
M  V30 8588 H 812.083 -5.2004 0.682528 0
M  V30 8589 H 813.557 -5.42631 -1.01268 0
M  V30 8590 H 814.034 -3.96898 -1.88066 0
M  V30 8591 H 814.64 -4.24669 -0.231677 0
M  V30 8592 N 812.955 -0.234822 -1.55841 0
M  V30 8593 C 814.203 0.392483 -1.98252 0
M  V30 8594 C 814.524 1.59344 -1.12404 0
M  V30 8595 O 813.794 1.94834 -0.204055 0
M  V30 8596 H 812.374 0.147999 -0.732192 0
M  V30 8597 H 815.036 -0.330804 -1.92072 0
M  V30 8598 H 814.132 0.709829 -3.03921 0
M  V30 8599 N 814.433 1.57553 0.0384317 0
M  V30 8600 C 815.681 1.88468 0.729672 0
M  V30 8601 C 816.002 0.831302 1.76393 0
M  V30 8602 O 815.272 -0.13622 1.95426 0
M  V30 8603 H 813.852 0.695529 0.272485 0
M  V30 8604 H 816.514 1.94899 0.0066032 0
M  V30 8605 H 815.61 2.8705 1.22511 0
M  V30 8606 N 815.911 -0.310526 1.54511 0
M  V30 8607 C 817.139 -1.06611 1.77318 0
M  V30 8608 C 817.554 -1.81265 0.528043 0
M  V30 8609 O 816.911 -1.75466 -0.50178 0
M  V30 8610 C 816.962 -2.05409 2.97472 0
M  V30 8611 O 816.683 -1.33785 4.17173 0
M  V30 8612 C 818.184 -2.93082 3.32593 0
M  V30 8613 H 815.404 -0.316578 0.591624 0
M  V30 8614 H 817.948 -0.352691 2.01436 0
M  V30 8615 H 816.103 -2.72266 2.7559 0
M  V30 8616 H 816.517 -2.00055 4.84849 0
M  V30 8617 H 817.991 -3.58274 4.19933 0
M  V30 8618 H 818.468 -3.60877 2.50329 0
M  V30 8619 H 819.074 -2.31768 3.566 0
M  V30 8620 N 817.389 -1.46805 -0.573248 0
M  V30 8621 C 818.617 -1.56191 -1.3569 0
M  V30 8622 C 819.032 -0.206362 -1.87669 0
M  V30 8623 O 818.389 0.797883 -1.64134 0
M  V30 8624 C 818.44 -2.57433 -2.53792 0
M  V30 8625 O 818.161 -3.87724 -2.03965 0
M  V30 8626 C 819.662 -2.76851 -3.4622 0
M  V30 8627 H 816.882 -0.527907 -0.414192 0
M  V30 8628 H 819.426 -1.92292 -0.695989 0
M  V30 8629 H 817.581 -2.24311 -3.15854 0
M  V30 8630 H 817.995 -4.42909 -2.80948 0
M  V30 8631 H 819.469 -3.5159 -4.25545 0
M  V30 8632 H 819.946 -1.84095 -3.98755 0
M  V30 8633 H 820.552 -3.11107 -2.89987 0
M  V30 8634 N 818.867 0.818669 -1.34668 0
M  V30 8635 C 820.114 1.57512 -1.27264 0
M  V30 8636 C 820.442 1.93871 0.156254 0
M  V30 8637 O 819.697 1.60582 1.11857 0
M  V30 8638 C 819.996 2.88245 -2.11304 0
M  V30 8639 C 819.662 2.71159 -3.60255 0
M  V30 8640 C 818.324 2.66207 -4.00858 0
M  V30 8641 C 820.676 2.54538 -4.54819 0
M  V30 8642 C 818.004 2.4256 -5.34211 0
M  V30 8643 C 820.356 2.32421 -5.88356 0
M  V30 8644 C 819.02 2.25884 -6.28118 0
M  V30 8645 H 818.29 0.576378 -0.465692 0
M  V30 8646 H 820.937 0.9469 -1.66451 0
M  V30 8647 H 819.242 3.55381 -1.64958 0
M  V30 8648 H 820.939 3.45869 -2.02919 0
M  V30 8649 H 817.529 2.75856 -3.28027 0
M  V30 8650 H 821.713 2.57384 -4.24343 0
M  V30 8651 H 816.969 2.35959 -5.64033 0
M  V30 8652 H 821.143 2.18548 -6.61218 0
M  V30 8653 H 818.77 2.07322 -7.31383 0
M  V30 8654 N 820.346 1.18468 1.03938 0
M  V30 8655 C 821.595 0.975193 1.76558 0
M  V30 8656 C 821.908 -0.495978 1.89207 0
M  V30 8657 O 823.114 -0.824009 2.58694 0
M  V30 8658 C 821.57 1.69579 3.17444 0
M  V30 8659 C 821.178 3.20636 3.12884 0
M  V30 8660 C 822.922 1.56917 3.94433 0
M  V30 8661 C 820.829 3.8533 4.48636 0
M  V30 8662 H 819.759 0.361244 0.66183 0
M  V30 8663 H 822.41 1.41854 1.16403 0
M  V30 8664 H 820.792 1.18022 3.78004 0
M  V30 8665 H 821.966 3.79228 2.61768 0
M  V30 8666 H 820.281 3.33454 2.49394 0
M  V30 8667 H 822.878 2.02611 4.94826 0
M  V30 8668 H 823.221 0.521638 4.13019 0
M  V30 8669 H 823.754 2.05762 3.40451 0
M  V30 8670 H 820.493 4.90136 4.35255 0
M  V30 8671 H 820.013 3.31526 4.99851 0
M  V30 8672 H 821.692 3.88269 5.17549 0
M  V30 8673 N 821.824 -1.22873 0.986916 0
M  V30 8674 C 822.754 -2.2688 0.552064 0
M  V30 8675 C 823.735 -1.64883 -0.418048 0
M  V30 8676 O 824.92 -1.9171 -0.30999 0
M  V30 8677 C 822.05 -3.47018 -0.139959 0
M  V30 8678 C 821.004 -4.21411 0.748091 0
M  V30 8679 C 820.33 -5.34645 -0.0765132 0
M  V30 8680 C 821.63 -4.80726 2.04206 0
M  V30 8681 H 823.324 -2.63507 1.42143 0
M  V30 8682 H 820.87 -1.26668 0.68492 0
M  V30 8683 H 822.823 -4.18931 -0.455527 0
M  V30 8684 H 821.547 -3.0947 -1.04382 0
M  V30 8685 H 820.206 -3.51325 1.04721 0
M  V30 8686 H 819.854 -4.93339 -0.981109 0
M  V30 8687 H 819.554 -5.85342 0.514606 0
M  V30 8688 H 821.078 -6.09377 -0.386313 0
M  V30 8689 H 822.492 -5.44612 1.79083 0
M  V30 8690 H 820.889 -5.41737 2.5815 0
M  V30 8691 H 821.959 -4.01109 2.72469 0
M  V30 8692 N 823.302 -0.75937 -1.38099 0
M  V30 8693 C 824.232 -0.151077 -2.33011 0
M  V30 8694 C 825.213 0.697099 -1.5516 0
M  V30 8695 O 826.398 0.637101 -1.83452 0
M  V30 8696 C 823.528 0.738423 -3.39359 0
M  V30 8697 C 822.482 -0.0074741 -4.27999 0
M  V30 8698 C 821.808 1.00066 -5.25253 0
M  V30 8699 C 823.108 -1.17926 -5.08813 0
M  V30 8700 H 824.802 -0.943933 -2.84131 0
M  V30 8701 H 822.348 -0.455362 -1.36611 0
M  V30 8702 H 824.301 1.17369 -4.04725 0
M  V30 8703 H 823.025 1.56366 -2.86735 0
M  V30 8704 H 821.684 -0.423379 -3.64147 0
M  V30 8705 H 821.332 1.82012 -4.68914 0
M  V30 8706 H 821.032 0.506199 -5.85416 0
M  V30 8707 H 822.556 1.43512 -5.93495 0
M  V30 8708 H 823.97 -0.821262 -5.67387 0
M  V30 8709 H 822.367 -1.60497 -5.78239 0
M  V30 8710 H 823.437 -1.98938 -4.42212 0
M  V30 8711 N 824.78 1.49157 -0.508906 0
M  V30 8712 C 826.008 2.06879 0.0293734 0
M  V30 8713 C 826.423 1.36823 1.30095 0
M  V30 8714 O 825.78 0.449034 1.7689 0
M  V30 8715 C 825.831 3.60423 0.278791 0
M  V30 8716 O 825.552 4.27844 -0.942389 0
M  V30 8717 C 827.053 4.34881 0.859825 0
M  V30 8718 H 824.273 0.67057 -0.0240184 0
M  V30 8719 H 826.817 1.91834 -0.708526 0
M  V30 8720 H 824.972 3.75145 0.966689 0
M  V30 8721 H 825.386 5.19671 -0.710097 0
M  V30 8722 H 826.86 5.43161 0.983884 0
M  V30 8723 H 827.337 3.9789 1.85958 0
M  V30 8724 H 827.943 4.24785 0.209152 0
M  V30 8725 N 826.258 0.243083 1.55714 0
M  V30 8726 C 827.504 -0.383287 1.99145 0
M  V30 8727 C 827.837 -1.57868 1.13098 0
M  V30 8728 O 827.112 -1.93535 0.193509 0
M  V30 8729 C 827.395 -0.796879 3.51172 0
M  V30 8730 C 827.248 0.403642 4.47985 0
M  V30 8731 C 828.567 -1.64525 4.08191 0
M  V30 8732 H 825.686 -0.137843 0.723995 0
M  V30 8733 H 828.328 0.343631 1.86867 0
M  V30 8734 H 826.478 -1.41625 3.61766 0
M  V30 8735 H 828.15 1.04204 4.49376 0
M  V30 8736 H 826.393 1.04741 4.20965 0
M  V30 8737 H 827.064 0.0709794 5.51954 0
M  V30 8738 H 829.54 -1.12246 4.00674 0
M  V30 8739 H 828.416 -1.9035 5.14838 0
M  V30 8740 H 828.677 -2.61582 3.56409 0
M  V30 8741 N 827.736 -1.57571 -0.0300757 0
M  V30 8742 C 828.683 -2.06492 -1.03101 0
M  V30 8743 C 829.653 -0.953862 -1.3598 0
M  V30 8744 O 830.838 -1.22436 -1.46335 0
M  V30 8745 C 827.978 -2.54826 -2.32718 0
M  V30 8746 C 827.091 -3.79718 -2.06006 0
M  V30 8747 C 826.226 -4.16668 -3.29487 0
M  V30 8748 C 825.265 -5.3448 -2.98324 0
M  V30 8749 N 824.402 -5.66867 -4.14254 0
M  V30 8750 H 829.242 -2.91755 -0.606877 0
M  V30 8751 H 826.779 -1.44252 -0.288038 0
M  V30 8752 H 828.737 -2.80916 -3.08451 0
M  V30 8753 H 827.367 -1.72481 -2.72856 0
M  V30 8754 H 826.419 -3.60718 -1.20774 0
M  V30 8755 H 827.731 -4.65569 -1.79017 0
M  V30 8756 H 826.885 -4.43881 -4.13588 0
M  V30 8757 H 825.624 -3.29466 -3.59588 0
M  V30 8758 H 824.629 -5.07021 -2.12625 0
M  V30 8759 H 825.854 -6.23334 -2.69502 0
M  V30 8760 H 823.8 -4.82625 -4.44308 0
M  V30 8761 H 823.717 -6.47226 -3.90685 0
M  V30 8762 H 824.985 -5.98656 -4.99231 0
M  V30 8763 N 829.214 0.302327 -1.54673 0
M  V30 8764 C 830.463 1.03533 -1.73101 0
M  V30 8765 C 830.776 1.88473 -0.523174 0
M  V30 8766 O 831.982 2.65029 -0.589229 0
M  V30 8767 C 830.438 1.89043 -3.06252 0
M  V30 8768 C 830.046 1.09112 -4.3451 0
M  V30 8769 C 831.79 2.61951 -3.34039 0
M  V30 8770 C 829.697 1.93891 -5.58713 0
M  V30 8771 H 828.627 0.390261 -0.645145 0
M  V30 8772 H 831.278 0.2924 -1.81155 0
M  V30 8773 H 829.66 2.67319 -2.92159 0
M  V30 8774 H 830.834 0.354596 -4.59434 0
M  V30 8775 H 829.149 0.477923 -4.13648 0
M  V30 8776 H 831.746 3.25729 -4.24033 0
M  V30 8777 H 832.089 3.30711 -2.52855 0
M  V30 8778 H 832.622 1.90725 -3.49097 0
M  V30 8779 H 829.361 1.29604 -6.4256 0
M  V30 8780 H 828.881 2.6522 -5.37976 0
M  V30 8781 H 830.56 2.51971 -5.95919 0
M  V30 8782 N 830.692 1.47107 0.565454 0
M  V30 8783 C 831.938 1.53535 1.32495 0
M  V30 8784 C 832.271 0.193537 1.93233 0
M  V30 8785 O 831.546 -0.796956 1.77423 0
M  V30 8786 C 831.829 2.64712 2.4413 0
M  V30 8787 C 831.682 4.08482 1.88314 0
M  V30 8788 C 833.001 2.71853 3.46098 0
M  V30 8789 H 830.12 0.558926 0.480386 0
M  V30 8790 H 832.762 1.79125 0.633575 0
M  V30 8791 H 830.912 2.43023 3.03104 0
M  V30 8792 H 832.584 4.4151 1.33665 0
M  V30 8793 H 830.827 4.17148 1.19037 0
M  V30 8794 H 831.498 4.82032 2.68978 0
M  V30 8795 H 833.974 2.91397 2.97031 0
M  V30 8796 H 832.85 3.51433 4.21646 0
M  V30 8797 H 833.111 1.78584 4.04426 0
M  V30 8798 N 832.17 -0.811516 1.35101 0
M  V30 8799 C 833.102 -1.93102 1.23468 0
M  V30 8800 C 834.115 -1.62021 0.159095 0
M  V30 8801 O 835.304 -1.73682 0.411945 0
M  V30 8802 C 832.404 -3.27345 0.877404 0
M  V30 8803 C 831.577 -3.86368 2.05033 0
M  V30 8804 C 830.636 -4.99009 1.66963 0
M  V30 8805 O 829.662 -5.16698 2.38772 0
M  V30 8806 N 830.864 -5.7749 0.590394 0
M  V30 8807 H 833.629 -2.0361 2.19916 0
M  V30 8808 H 831.19 -0.988687 1.28205 0
M  V30 8809 H 833.182 -4.00163 0.604298 0
M  V30 8810 H 831.752 -3.126 0.00275267 0
M  V30 8811 H 830.972 -3.05804 2.48752 0
M  V30 8812 H 832.26 -4.22533 2.83449 0
M  V30 8813 H 831.658 -5.657 -0.00633259 0
M  V30 8814 H 830.215 -6.50708 0.377055 0
M  V30 8815 N 833.648 -1.19017 -1.03309 0
M  V30 8816 C 835.059 -0.993206 -1.5809 0
M  V30 8817 C 835.41 0.45505 -1.9085 0
M  V30 8818 O 834.535 1.33372 -1.70414 0
M  V30 8819 C 835.13 -1.79661 -2.87241 0
M  V30 8820 C 833.689 -1.64377 -3.38611 0
M  V30 8821 C 832.836 -1.78628 -2.12102 0
M  V30 8822 H 835.787 -1.3345 -0.858879 0
M  V30 8823 H 835.808 -1.29019 -3.57958 0
M  V30 8824 H 835.32 -2.85061 -2.63366 0
M  V30 8825 H 833.421 -0.615447 -3.67482 0
M  V30 8826 H 833.534 -2.44651 -4.11926 0
M  V30 8827 H 831.898 -1.21648 -2.23772 0
M  V30 8828 H 832.681 -2.8548 -1.90673 0
M  V30 8829 N 835.127 1.22348 -0.993418 0
M  V30 8830 C 836.037 2.27987 -0.553076 0
M  V30 8831 C 837.053 1.69378 0.398386 0
M  V30 8832 O 838.229 1.99648 0.26509 0
M  V30 8833 C 835.294 3.46475 0.124809 0
M  V30 8834 C 834.355 4.20399 -0.869682 0
M  V30 8835 C 833.588 5.33229 -0.224052 0
M  V30 8836 O 833.811 5.61885 0.981915 0
M  V30 8837 O 832.745 5.94685 -0.929174 0
M  V30 8838 H 836.571 2.67822 -1.43195 0
M  V30 8839 H 834.156 1.28525 -0.761694 0
M  V30 8840 H 836.038 4.18369 0.504496 0
M  V30 8841 H 834.713 3.08565 0.978243 0
M  V30 8842 H 833.62 3.50774 -1.30031 0
M  V30 8843 H 834.953 4.62191 -1.69233 0
M  V30 8844 N 836.605 0.766683 1.37694 0
M  V30 8845 C 837.535 0.163432 2.32927 0
M  V30 8846 C 838.516 -0.688861 1.55527 0
M  V30 8847 O 839.701 -0.627363 1.83787 0
M  V30 8848 C 836.831 -0.720416 3.39746 0
M  V30 8849 C 835.785 0.0301718 4.27989 0
M  V30 8850 C 835.111 -0.972788 5.25776 0
M  V30 8851 C 836.411 1.20623 5.0818 0
M  V30 8852 H 838.105 0.958988 2.83626 0
M  V30 8853 H 835.651 0.462601 1.36367 0
M  V30 8854 H 837.604 -1.15221 4.05342 0
M  V30 8855 H 836.328 -1.54844 2.8756 0
M  V30 8856 H 834.987 0.442685 3.63917 0
M  V30 8857 H 834.635 -1.79522 4.69873 0
M  V30 8858 H 834.335 -0.475145 5.85676 0
M  V30 8859 H 835.859 -1.40362 5.94248 0
M  V30 8860 H 837.273 0.851341 5.66944 0
M  V30 8861 H 835.67 1.63561 5.7738 0
M  V30 8862 H 836.74 2.01281 4.41151 0
M  V30 8863 N 838.083 -1.48885 0.516809 0
M  V30 8864 C 839.03 -2.29408 -0.253125 0
M  V30 8865 C 840 -1.36533 -0.945935 0
M  V30 8866 O 841.185 -1.65495 -0.949527 0
M  V30 8867 C 838.325 -3.19592 -1.30211 0
M  V30 8868 C 837.438 -4.27535 -0.61948 0
M  V30 8869 C 836.573 -5.04916 -1.65026 0
M  V30 8870 C 835.612 -6.04677 -0.950368 0
M  V30 8871 N 834.749 -6.75164 -1.92608 0
M  V30 8872 H 839.589 -2.94738 0.439744 0
M  V30 8873 H 837.126 -1.45311 0.2287 0
M  V30 8874 H 839.084 -3.70267 -1.92245 0
M  V30 8875 H 837.714 -2.56213 -1.96353 0
M  V30 8876 H 836.766 -3.80228 0.114505 0
M  V30 8877 H 838.078 -4.98752 -0.0693016 0
M  V30 8878 H 837.232 -5.59539 -2.34523 0
M  V30 8879 H 835.971 -4.33508 -2.23432 0
M  V30 8880 H 834.976 -5.4927 -0.241252 0
M  V30 8881 H 836.201 -6.78077 -0.372599 0
M  V30 8882 H 834.147 -6.06517 -2.49946 0
M  V30 8883 H 834.064 -7.4241 -1.42699 0
M  V30 8884 H 835.332 -7.34384 -2.61345 0
M  V30 8885 N 839.561 -0.251338 -1.55583 0
M  V30 8886 C 840.524 0.63305 -2.20284 0
M  V30 8887 C 841.524 1.09941 -1.17344 0
M  V30 8888 O 842.714 1.00341 -1.42399 0
M  V30 8889 C 839.846 1.8706 -2.84993 0
M  V30 8890 H 841.039 0.0684846 -2.99822 0
M  V30 8891 H 838.592 -0.00181653 -1.563 0
M  V30 8892 H 839.327 2.47629 -2.09405 0
M  V30 8893 H 839.112 1.54436 -3.60405 0
M  V30 8894 H 840.602 2.50004 -3.34496 0
M  V30 8895 N 841.039 1.57585 0.0217189 0
M  V30 8896 C 841.969 2.10073 1.01939 0
M  V30 8897 C 842.95 1.0049 1.37243 0
M  V30 8898 O 844.135 1.28055 1.45999 0
M  V30 8899 C 841.265 2.58618 2.31806 0
M  V30 8900 C 840.219 3.72531 2.10724 0
M  V30 8901 C 839.545 4.07309 3.46415 0
M  V30 8902 C 840.845 5.00672 1.48743 0
M  V30 8903 H 842.539 2.9368 0.582432 0
M  V30 8904 H 840.085 1.41277 0.278715 0
M  V30 8905 H 842.038 2.9396 3.01936 0
M  V30 8906 H 840.762 1.72104 2.77575 0
M  V30 8907 H 839.421 3.37549 1.43025 0
M  V30 8908 H 839.069 3.17851 3.89846 0
M  V30 8909 H 838.769 4.84042 3.33132 0
M  V30 8910 H 840.293 4.45192 4.17895 0
M  V30 8911 H 841.707 5.33925 2.088 0
M  V30 8912 H 840.104 5.82065 1.46013 0
M  V30 8913 H 841.174 4.82769 0.45408 0
M  V30 8914 N 842.517 -0.29412 1.54831 0
M  V30 8915 C 843.48 -1.3461 1.85507 0
M  V30 8916 C 844.48 -1.43359 0.728343 0
M  V30 8917 O 845.67 -1.42875 0.996609 0
M  V30 8918 C 842.802 -2.73012 2.0415 0
M  V30 8919 H 843.995 -1.08651 2.79526 0
M  V30 8920 H 841.548 -0.531138 1.46999 0
M  V30 8921 H 842.283 -3.04183 1.12441 0
M  V30 8922 H 842.068 -2.68051 2.86166 0
M  V30 8923 H 843.558 -3.49061 2.29229 0
M  V30 8924 N 843.995 -1.47404 -0.557645 0
M  V30 8925 C 844.928 -1.54399 -1.68036 0
M  V30 8926 C 845.906 -0.396175 -1.577 0
M  V30 8927 O 847.09 -0.603911 -1.78564 0
M  V30 8928 C 844.217 -1.44611 -3.06277 0
M  V30 8929 C 843.263 -2.63889 -3.35059 0
M  V30 8930 S 844.096 -4.26086 -3.24362 0
M  V30 8931 C 845.252 -4.1885 -4.65097 0
M  V30 8932 H 845.485 -2.49384 -1.61849 0
M  V30 8933 H 843.018 -1.35597 -0.738429 0
M  V30 8934 H 844.976 -1.39651 -3.86015 0
M  V30 8935 H 843.637 -0.510114 -3.0993 0
M  V30 8936 H 842.83 -2.53103 -4.35838 0
M  V30 8937 H 842.432 -2.65969 -2.62938 0
M  V30 8938 H 844.724 -3.87077 -5.56037 0
M  V30 8939 H 845.667 -5.19714 -4.8094 0
M  V30 8940 H 846.075 -3.49717 -4.43123 0
M  V30 8941 N 845.473 0.80434 -1.35529 0
M  V30 8942 C 846.721 1.55845 -1.28673 0
M  V30 8943 C 847.042 1.94511 0.137976 0
M  V30 8944 O 846.312 1.63775 1.07492 0
M  V30 8945 H 844.892 0.577931 -0.473291 0
M  V30 8946 H 847.554 0.959293 -1.69657 0
M  V30 8947 H 846.65 2.47285 -1.90411 0
M  V30 8948 N 846.951 1.19563 1.02676 0
M  V30 8949 C 848.198 0.999568 1.7611 0
M  V30 8950 C 848.526 -0.469432 1.8875 0
M  V30 8951 O 847.781 -1.36481 1.40255 0
M  V30 8952 C 848.08 1.61619 3.18769 0
M  V30 8953 C 847.746 3.11366 3.26132 0
M  V30 8954 C 846.408 3.52234 3.27848 0
M  V30 8955 C 848.76 4.07374 3.25109 0
M  V30 8956 C 846.088 4.87658 3.26201 0
M  V30 8957 C 848.44 5.42731 3.25002 0
M  V30 8958 C 847.104 5.83027 3.25017 0
M  V30 8959 H 846.374 0.365768 0.644434 0
M  V30 8960 H 849.021 1.48838 1.20497 0
M  V30 8961 H 847.326 1.04974 3.77476 0
M  V30 8962 H 849.023 1.43975 3.74262 0
M  V30 8963 H 845.613 2.78804 3.25525 0
M  V30 8964 H 849.797 3.76842 3.22961 0
M  V30 8965 H 845.053 5.18156 3.24537 0
M  V30 8966 H 849.227 6.16879 3.23161 0
M  V30 8967 H 846.854 6.87936 3.23494 0
M  V30 8968 N 848.429 -1.21819 0.999893 0
M  V30 8969 C 849.361 -2.23356 0.514256 0
M  V30 8970 C 850.374 -1.5795 -0.394413 0
M  V30 8971 O 851.563 -1.77427 -0.195428 0
M  V30 8972 C 848.663 -3.37797 -0.273207 0
M  V30 8973 C 847.836 -4.32791 0.633293 0
M  V30 8974 C 846.895 -5.26098 -0.103673 0
M  V30 8975 O 845.921 -5.66881 0.513269 0
M  V30 8976 N 847.123 -5.63764 -1.38383 0
M  V30 8977 H 849.888 -2.65653 1.3874 0
M  V30 8978 H 847.449 -1.3619 0.875431 0
M  V30 8979 H 849.441 -3.97209 -0.775053 0
M  V30 8980 H 848.011 -2.94527 -1.0475 0
M  V30 8981 H 847.231 -3.71595 1.31571 0
M  V30 8982 H 848.519 -4.93196 1.25039 0
M  V30 8983 H 847.917 -5.32614 -1.90627 0
M  V30 8984 H 846.474 -6.25562 -1.83073 0
M  V30 8985 N 849.908 -0.773975 -1.37286 0
M  V30 8986 C 851.133 -0.349561 -2.04433 0
M  V30 8987 C 851.558 1.02082 -1.5799 0
M  V30 8988 O 850.916 1.65458 -0.741172 0
M  V30 8989 C 850.964 -0.404292 -3.58326 0
M  V30 8990 O 850.068 0.594447 -4.08093 0
M  V30 8991 H 849.409 -0.150959 -0.646612 0
M  V30 8992 H 851.939 -1.05079 -1.75555 0
M  V30 8993 H 851.949 -0.262378 -4.07155 0
M  V30 8994 H 850.624 -1.40403 -3.91484 0
M  V30 8995 H 849.201 0.415468 -3.70578 0
M  V30 8996 N 851.386 1.48609 -0.524698 0
M  V30 8997 C 852.319 2.26374 0.288109 0
M  V30 8998 C 853.297 1.31997 0.949509 0
M  V30 8999 O 854.481 1.61329 0.974946 0
M  V30 9000 C 851.608 3.08065 1.4076 0
M  V30 9001 C 850.654 4.17777 0.858152 0
M  V30 9002 S 851.487 5.3482 -0.269827 0
M  V30 9003 C 852.643 6.2007 0.852266 0
M  V30 9004 H 852.876 2.94965 -0.371865 0
M  V30 9005 H 850.409 1.51248 -0.31039 0
M  V30 9006 H 852.367 3.5571 2.04892 0
M  V30 9007 H 851.028 2.38898 2.03928 0
M  V30 9008 H 850.221 4.74542 1.69783 0
M  V30 9009 H 849.823 3.72846 0.293627 0
M  V30 9010 H 852.115 6.54451 1.75213 0
M  V30 9011 H 853.058 7.07364 0.322717 0
M  V30 9012 H 853.466 5.53068 1.13029 0
M  V30 9013 N 852.864 0.259585 1.55447 0
M  V30 9014 C 854.11 -0.362143 1.9954 0
M  V30 9015 C 854.443 -1.5666 1.14767 0
M  V30 9016 O 853.718 -1.93319 0.214025 0
M  V30 9017 C 854.001 -0.759588 3.51998 0
M  V30 9018 C 853.854 0.451134 4.47532 0
M  V30 9019 C 855.173 -1.60186 4.09913 0
M  V30 9020 H 852.292 -0.130157 0.725416 0
M  V30 9021 H 854.934 0.363431 1.86492 0
M  V30 9022 H 853.084 -1.3778 3.63248 0
M  V30 9023 H 854.756 1.08965 4.48246 0
M  V30 9024 H 852.999 1.092 4.19831 0
M  V30 9025 H 853.67 0.129518 5.51848 0
M  V30 9026 H 856.146 -1.0799 4.01842 0
M  V30 9027 H 855.022 -1.84879 5.16828 0
M  V30 9028 H 855.283 -2.57787 3.59163 0
M  V30 9029 N 854.342 -1.57594 -0.0133615 0
M  V30 9030 C 855.591 -1.8916 -0.700103 0
M  V30 9031 C 855.904 -0.860147 -1.75673 0
M  V30 9032 O 857.11 -1.06556 -2.49716 0
M  V30 9033 C 855.566 -3.35742 -1.29635 0
M  V30 9034 C 855.174 -4.47154 -0.275249 0
M  V30 9035 C 856.918 -3.76436 -1.96205 0
M  V30 9036 C 854.825 -5.84805 -0.880726 0
M  V30 9037 H 853.755 -0.705805 -0.265247 0
M  V30 9038 H 856.406 -1.83445 0.044993 0
M  V30 9039 H 854.788 -3.36252 -2.09167 0
M  V30 9040 H 855.962 -4.58139 0.494506 0
M  V30 9041 H 854.277 -4.15394 0.289256 0
M  V30 9042 H 856.874 -4.76606 -2.42386 0
M  V30 9043 H 857.217 -3.09249 -2.78695 0
M  V30 9044 H 857.75 -3.78168 -1.23426 0
M  V30 9045 H 854.489 -6.55431 -0.0949013 0
M  V30 9046 H 854.009 -5.7751 -1.61995 0
M  V30 9047 H 855.688 -6.32038 -1.38338 0
M  V30 9048 N 855.82 0.285905 -1.54985 0
M  V30 9049 C 857.236 0.632405 -1.46536 0
M  V30 9050 C 857.436 1.90074 -0.668888 0
M  V30 9051 O 856.492 2.51839 -0.182586 0
M  V30 9052 C 857.805 0.771361 -2.90638 0
M  V30 9053 C 859.353 0.866262 -3.00774 0
M  V30 9054 C 859.828 1.0371 -4.46103 0
M  V30 9055 N 861.319 1.10294 -4.49877 0
M  V30 9056 C 862.054 1.25369 -5.59527 0
M  V30 9057 N 861.55 1.37246 -6.7907 0
M  V30 9058 N 863.343 1.28377 -5.47244 0
M  V30 9059 H 855.494 -0.547226 -2.0523 0
M  V30 9060 H 857.757 -0.183298 -0.930111 0
M  V30 9061 H 857.463 -0.0899485 -3.51585 0
M  V30 9062 H 857.337 1.65569 -3.3892 0
M  V30 9063 H 859.724 1.71805 -2.39931 0
M  V30 9064 H 859.805 -0.0424049 -2.55765 0
M  V30 9065 H 859.449 0.190021 -5.07544 0
M  V30 9066 H 859.379 1.96022 -4.88757 0
M  V30 9067 H 861.87 1.02407 -3.6376 0
M  V30 9068 H 862.183 1.48546 -7.58389 0
M  V30 9069 H 860.528 1.34274 -6.81906 0
M  V30 9070 H 863.719 1.1872 -4.52795 0
M  V30 9071 H 863.892 1.39782 -6.32744 0
M  V30 9072 N 857.298 1.47698 0.54982 0
M  V30 9073 C 858.526 1.5833 1.33188 0
M  V30 9074 C 858.941 0.236193 1.87317 0
M  V30 9075 O 858.298 -0.77167 1.65383 0
M  V30 9076 C 858.349 2.61438 2.49664 0
M  V30 9077 O 858.07 3.9092 1.97771 0
M  V30 9078 C 859.571 2.82324 3.41772 0
M  V30 9079 H 856.791 0.53443 0.405741 0
M  V30 9080 H 859.335 1.93375 0.665309 0
M  V30 9081 H 857.49 2.29307 3.12245 0
M  V30 9082 H 857.904 4.47323 2.73866 0
M  V30 9083 H 859.378 3.58316 4.19897 0
M  V30 9084 H 859.855 1.90416 3.95776 0
M  V30 9085 H 860.461 3.15682 2.85 0
M  V30 9086 N 858.776 -0.797141 1.35954 0
M  V30 9087 C 859.706 -1.92387 1.32323 0
M  V30 9088 C 860.687 -1.68967 0.196007 0
M  V30 9089 O 861.872 -1.90193 0.39245 0
M  V30 9090 C 859.002 -3.29286 1.10398 0
M  V30 9091 C 857.956 -3.67212 2.19862 0
M  V30 9092 C 857.282 -5.02377 1.8309 0
M  V30 9093 C 858.582 -3.76602 3.61896 0
M  V30 9094 H 860.276 -1.95683 2.26602 0
M  V30 9095 H 857.822 -0.94007 1.09081 0
M  V30 9096 H 859.775 -4.07721 1.06495 0
M  V30 9097 H 858.499 -3.26358 0.125668 0
M  V30 9098 H 857.158 -2.91069 2.22878 0
M  V30 9099 H 856.806 -4.95961 0.838527 0
M  V30 9100 H 856.506 -5.28722 2.56372 0
M  V30 9101 H 858.03 -5.8324 1.80729 0
M  V30 9102 H 859.444 -4.45246 3.6115 0
M  V30 9103 H 857.841 -4.14425 4.34018 0
M  V30 9104 H 858.911 -2.77906 3.97361 0
M  V30 9105 N 860.254 -1.20106 -1.0204 0
M  V30 9106 C 861.502 -1.0069 -1.75231 0
M  V30 9107 C 861.823 0.462491 -1.89436 0
M  V30 9108 O 861.093 1.33455 -1.4341 0
M  V30 9109 H 859.673 -0.369576 -0.649171 0
M  V30 9110 H 862.335 -1.51149 -1.23044 0
M  V30 9111 H 861.431 -1.46205 -2.75736 0
M  V30 9112 N 861.732 1.21287 -1.00634 0
M  V30 9113 C 862.98 1.90013 -0.688438 0
M  V30 9114 C 863.301 1.78573 0.783365 0
M  V30 9115 O 862.571 1.1815 1.56261 0
M  V30 9116 H 861.151 0.703336 -0.251648 0
M  V30 9117 H 863.813 1.47346 -1.27574 0
M  V30 9118 H 862.909 2.96879 -0.962781 0
M  V30 9119 N 863.21 0.781244 1.36873 0
M  V30 9120 C 864.459 0.34652 1.98701 0
M  V30 9121 C 864.772 -1.08555 1.62712 0
M  V30 9122 O 865.978 -1.62213 2.17713 0
M  V30 9123 C 864.434 0.568611 3.5538 0
M  V30 9124 C 864.042 2.01156 4.003 0
M  V30 9125 C 865.786 0.197983 4.24038 0
M  V30 9126 C 863.693 2.18074 5.49725 0
M  V30 9127 H 862.623 0.125821 0.743428 0
M  V30 9128 H 865.274 0.961721 1.56279 0
M  V30 9129 H 863.656 -0.116185 3.9583 0
M  V30 9130 H 864.83 2.73209 3.71071 0
M  V30 9131 H 863.145 2.33967 3.44454 0
M  V30 9132 H 865.742 0.302778 5.33842 0
M  V30 9133 H 866.085 -0.852927 4.07469 0
M  V30 9134 H 866.618 0.835696 3.88923 0
M  V30 9135 H 863.357 3.21519 5.71232 0
M  V30 9136 H 862.877 1.50517 5.80607 0
M  V30 9137 H 864.556 1.98393 6.15832 0
M  V30 9138 N 864.689 -1.48329 0.532571 0
M  V30 9139 C 865.619 -2.32485 -0.217511 0
M  V30 9140 C 866.6 -1.42255 -0.932598 0
M  V30 9141 O 867.785 -1.7114 -0.917873 0
M  V30 9142 C 864.915 -3.23509 -1.26329 0
M  V30 9143 C 863.869 -4.22784 -0.666191 0
M  V30 9144 C 863.195 -5.0296 -1.81482 0
M  V30 9145 C 864.495 -5.21031 0.363813 0
M  V30 9146 H 866.189 -2.95445 0.485014 0
M  V30 9147 H 863.735 -1.42075 0.234694 0
M  V30 9148 H 865.688 -3.81211 -1.79601 0
M  V30 9149 H 864.412 -2.58554 -1.99543 0
M  V30 9150 H 863.071 -3.66272 -0.15498 0
M  V30 9151 H 862.719 -4.34427 -2.5354 0
M  V30 9152 H 862.419 -5.70154 -1.4212 0
M  V30 9153 H 863.943 -5.63514 -2.35126 0
M  V30 9154 H 865.357 -5.73241 -0.0819079 0
M  V30 9155 H 863.754 -5.96292 0.674956 0
M  V30 9156 H 864.824 -4.6801 1.26865 0
M  V30 9157 N 866.167 -0.267825 -1.55308 0
M  V30 9158 C 867.13 0.60965 -2.20943 0
M  V30 9159 C 868.13 1.0869 -1.18504 0
M  V30 9160 O 869.32 0.988248 -1.43455 0
M  V30 9161 C 866.452 1.84027 -2.86961 0
M  V30 9162 H 867.645 0.0366806 -2.99878 0
M  V30 9163 H 865.198 -0.0183941 -1.56289 0
M  V30 9164 H 865.933 2.45394 -2.1202 0
M  V30 9165 H 865.718 1.50605 -3.62023 0
M  V30 9166 H 867.208 2.46442 -3.37129 0
M  V30 9167 N 867.645 1.57599 0.00500368 0
M  V30 9168 C 869.056 1.78462 0.54848 0
M  V30 9169 C 869.407 0.901869 1.74243 0
M  V30 9170 O 868.532 0.103014 2.16155 0
M  V30 9171 C 869.127 3.2365 1.00179 0
M  V30 9172 C 867.686 3.45627 1.49061 0
M  V30 9173 C 866.833 2.73794 0.439531 0
M  V30 9174 H 869.784 1.57151 -0.22118 0
M  V30 9175 H 869.805 3.31488 1.86805 0
M  V30 9176 H 869.317 3.87873 0.132607 0
M  V30 9177 H 867.418 2.86612 2.38085 0
M  V30 9178 H 867.531 4.54298 1.52152 0
M  V30 9179 H 865.895 2.38267 0.900043 0
M  V30 9180 H 866.678 3.40714 -0.420599 0
M  V30 9181 N 869.123 -0.277682 1.55134 0
M  V30 9182 C 870.372 -1.00766 1.74726 0
M  V30 9183 C 870.685 -1.87617 0.553092 0
M  V30 9184 O 871.891 -2.64058 0.631318 0
M  V30 9185 C 870.347 -1.84147 3.09221 0
M  V30 9186 C 869.955 -1.02186 4.3619 0
M  V30 9187 C 871.699 -2.56604 3.38164 0
M  V30 9188 C 869.606 -1.84978 5.61727 0
M  V30 9189 H 868.536 -0.379948 0.651273 0
M  V30 9190 H 871.187 -0.263543 1.81598 0
M  V30 9191 H 869.569 -2.62637 2.96375 0
M  V30 9192 H 870.743 -0.281459 4.5994 0
M  V30 9193 H 869.058 -0.412054 4.14356 0
M  V30 9194 H 871.655 -3.18942 4.29162 0
M  V30 9195 H 871.998 -3.26647 2.58085 0
M  V30 9196 H 872.531 -1.85147 3.52087 0
M  V30 9197 H 869.27 -1.19365 6.4454 0
M  V30 9198 H 868.79 -2.56628 5.42128 0
M  V30 9199 H 870.469 -2.42458 5.99853 0
M  V30 9200 N 870.601 -1.47988 -0.541979 0
M  V30 9201 C 871.831 -1.58804 -1.32155 0
M  V30 9202 C 872.239 -0.242893 -1.87634 0
M  V30 9203 O 871.582 0.776239 -1.66494 0
M  V30 9204 C 871.644 -2.56567 -2.51821 0
M  V30 9205 C 871.308 -4.01915 -2.17517 0
M  V30 9206 C 872.305 -4.89954 -1.73901 0
M  V30 9207 C 869.99 -4.47365 -2.28408 0
M  V30 9208 C 871.984 -6.21467 -1.41625 0
M  V30 9209 C 869.671 -5.78902 -1.95745 0
M  V30 9210 C 870.669 -6.65775 -1.52423 0
M  V30 9211 O 870.357 -7.94866 -1.20183 0
M  V30 9212 H 870.089 -0.538536 -0.408601 0
M  V30 9213 H 872.643 -1.94446 -0.661818 0
M  V30 9214 H 870.873 -2.16023 -3.20735 0
M  V30 9215 H 872.562 -2.57347 -3.13891 0
M  V30 9216 H 873.328 -4.56082 -1.64966 0
M  V30 9217 H 869.207 -3.79942 -2.61084 0
M  V30 9218 H 872.751 -6.8923 -1.07738 0
M  V30 9219 H 868.648 -6.12311 -2.04316 0
M  V30 9220 H 869.416 -8.07509 -1.33683 0
M  V30 9221 N 872.079 0.78992 -1.36375 0
M  V30 9222 C 873.326 1.54777 -1.30576 0
M  V30 9223 C 873.654 1.94159 0.115095 0
M  V30 9224 O 872.909 1.62918 1.08426 0
M  V30 9225 C 873.208 2.83698 -2.17371 0
M  V30 9226 C 872.874 2.63457 -3.65925 0
M  V30 9227 C 871.536 2.57645 -4.06415 0
M  V30 9228 C 873.888 2.44833 -4.60115 0
M  V30 9229 C 871.216 2.31174 -5.39236 0
M  V30 9230 C 873.568 2.19889 -5.93154 0
M  V30 9231 C 872.232 2.1251 -6.32768 0
M  V30 9232 H 871.502 0.566371 -0.477813 0
M  V30 9233 H 874.149 0.91138 -1.68422 0
M  V30 9234 H 872.454 3.51802 -1.72459 0
M  V30 9235 H 874.151 3.41487 -2.10209 0
M  V30 9236 H 870.741 2.68836 -3.33804 0
M  V30 9237 H 874.925 2.48325 -4.29707 0
M  V30 9238 H 870.181 2.23942 -5.68911 0
M  V30 9239 H 874.355 2.04473 -6.65705 0
M  V30 9240 H 871.982 1.91761 -7.35616 0
M  V30 9241 N 873.557 1.20646 1.01402 0
M  V30 9242 C 874.805 1.01618 1.74695 0
M  V30 9243 C 875.126 -0.452438 1.89679 0
M  V30 9244 O 874.396 -1.32693 1.44116 0
M  V30 9245 H 872.976 0.373013 0.647202 0
M  V30 9246 H 875.638 1.518 1.22241 0
M  V30 9247 H 874.734 1.47666 2.74957 0
M  V30 9248 N 875.035 -1.20752 1.01276 0
M  V30 9249 C 875.998 -2.2162 0.584583 0
M  V30 9250 C 876.998 -1.57094 -0.343215 0
M  V30 9251 O 878.188 -1.73696 -0.132433 0
M  V30 9252 C 875.32 -3.40583 -0.146872 0
M  V30 9253 H 876.513 -2.61015 1.47686 0
M  V30 9254 H 874.066 -1.34148 0.802123 0
M  V30 9255 H 874.801 -3.06686 -1.05424 0
M  V30 9256 H 874.586 -3.88642 0.51958 0
M  V30 9257 H 876.076 -4.15339 -0.433924 0
M  V30 9258 N 876.513 -0.788492 -1.36457 0
M  V30 9259 C 877.443 -0.200468 -2.32638 0
M  V30 9260 C 878.424 0.664031 -1.56603 0
M  V30 9261 O 879.609 0.598045 -1.84762 0
M  V30 9262 C 876.739 0.666274 -3.40849 0
M  V30 9263 C 875.693 -0.0982574 -4.27887 0
M  V30 9264 C 875.019 0.889018 -5.27258 0
M  V30 9265 C 876.319 -1.28692 -5.06197 0
M  V30 9266 H 878.013 -1.00399 -2.82065 0
M  V30 9267 H 875.559 -0.484237 -1.35614 0
M  V30 9268 H 877.512 1.08757 -4.07124 0
M  V30 9269 H 876.236 1.50249 -2.89987 0
M  V30 9270 H 874.895 -0.500525 -3.63167 0
M  V30 9271 H 874.543 1.72024 -4.7267 0
M  V30 9272 H 874.243 0.381909 -5.86358 0
M  V30 9273 H 875.767 1.30891 -5.96406 0
M  V30 9274 H 877.181 -0.941429 -5.65517 0
M  V30 9275 H 875.578 -1.72726 -5.74705 0
M  V30 9276 H 876.648 -2.08273 -4.37893 0
M  V30 9277 N 877.991 1.48044 -0.54043 0
M  V30 9278 C 879.24 2.01698 -0.00809961 0
M  V30 9279 C 879.553 1.42184 1.34325 0
M  V30 9280 O 880.759 1.87398 1.96454 0
M  V30 9281 C 879.215 3.59882 0.035933 0
M  V30 9282 C 878.823 4.28384 -1.31115 0
M  V30 9283 C 880.567 4.21346 0.51654 0
M  V30 9284 C 878.474 5.78529 -1.22714 0
M  V30 9285 H 877.404 0.754 0.000742174 0
M  V30 9286 H 880.055 1.70204 -0.685775 0
M  V30 9287 H 878.437 3.88264 0.778906 0
M  V30 9288 H 879.611 4.11663 -2.07051 0
M  V30 9289 H 877.926 3.78837 -1.72834 0
M  V30 9290 H 880.523 5.31351 0.597529 0
M  V30 9291 H 880.866 3.87373 1.52473 0
M  V30 9292 H 881.399 3.97432 -0.171064 0
M  V30 9293 H 878.138 6.17093 -2.21081 0
M  V30 9294 H 877.658 5.97634 -0.50931 0
M  V30 9295 H 879.337 6.40395 -0.92216 0
M  V30 9296 N 879.47 0.276058 1.55163 0
M  V30 9297 C 880.747 -0.392292 1.91626 0
M  V30 9298 C 881.127 -1.73646 1.20043 0
M  V30 9299 O 880.475 -2.26139 0.327606 0
M  V30 9300 C 880.685 -0.531641 3.44927 0
M  V30 9301 C 882.033 -0.8141 4.16722 0
M  V30 9302 O 883.057 -0.616413 3.50826 0
M  V30 9303 O 881.916 -1.19224 5.33337 0
M  V30 9304 H 879.01 -0.214945 0.798579 0
M  V30 9305 H 881.556 0.32228 1.66612 0
M  V30 9306 H 880.328 0.414282 3.89101 0
M  V30 9307 H 879.951 -1.29564 3.75897 0
M  V30 9308 N 880.948 -1.576 0.00335426 0
M  V30 9309 C 881.895 -2.08632 -0.986975 0
M  V30 9310 C 882.865 -0.982491 -1.33927 0
M  V30 9311 O 884.05 -1.25513 -1.43705 0
M  V30 9312 C 881.19 -2.59705 -2.27261 0
M  V30 9313 C 880.303 -3.84002 -1.97905 0
M  V30 9314 C 879.438 -4.23563 -3.20574 0
M  V30 9315 C 878.477 -5.40688 -2.8692 0
M  V30 9316 N 877.614 -5.75526 -4.02136 0
M  V30 9317 H 882.454 -2.92977 -0.544855 0
M  V30 9318 H 879.991 -1.44831 -0.257376 0
M  V30 9319 H 881.949 -2.87395 -3.02423 0
M  V30 9320 H 880.579 -1.7823 -2.69136 0
M  V30 9321 H 879.631 -3.63199 -1.13096 0
M  V30 9322 H 880.943 -4.69261 -1.69102 0
M  V30 9323 H 880.097 -4.52554 -4.04079 0
M  V30 9324 H 878.836 -3.37019 -3.52518 0
M  V30 9325 H 877.841 -5.11417 -2.01822 0
M  V30 9326 H 879.066 -6.2891 -2.5622 0
M  V30 9327 H 877.012 -4.9194 -4.33971 0
M  V30 9328 H 876.929 -6.55367 -3.76869 0
M  V30 9329 H 878.197 -6.0911 -4.8642 0
M  V30 9330 N 882.426 0.269451 -1.5528 0
M  V30 9331 C 883.654 1.01872 -1.80082 0
M  V30 9332 C 884.069 1.79802 -0.575917 0
M  V30 9333 O 883.426 1.76735 0.455081 0
M  V30 9334 C 883.477 1.9745 -3.02813 0
M  V30 9335 O 883.198 1.22677 -4.20573 0
M  V30 9336 C 884.699 2.8416 -3.40247 0
M  V30 9337 H 881.919 0.300781 -0.59981 0
M  V30 9338 H 884.463 0.29916 -2.023 0
M  V30 9339 H 882.618 2.64864 -2.82712 0
M  V30 9340 H 883.032 1.87129 -4.89982 0
M  V30 9341 H 884.506 3.47014 -4.29284 0
M  V30 9342 H 884.983 3.54113 -2.59809 0
M  V30 9343 H 885.589 2.22232 -3.6262 0
M  V30 9344 N 883.904 1.48273 0.534124 0
M  V30 9345 C 885.144 1.57674 1.3007 0
M  V30 9346 C 885.508 0.243256 1.90453 0
M  V30 9347 O 886.709 0.212231 2.67961 0
M  V30 9348 C 884.98 2.68044 2.36405 0
M  V30 9349 S 886.539 2.97183 3.22843 0
M  V30 9350 H 883.357 0.55652 0.442501 0
M  V30 9351 H 885.959 1.85774 0.60896 0
M  V30 9352 H 884.663 3.63498 1.90518 0
M  V30 9353 H 884.194 2.41833 3.10291 0
M  V30 9354 H 886.209 2.36164 4.36396 0
M  V30 9355 N 885.382 -0.782676 1.36792 0
M  V30 9356 C 886.315 -1.90241 1.2603 0
M  V30 9357 C 887.293 -1.61969 0.143055 0
M  V30 9358 O 888.477 -1.85843 0.315366 0
M  V30 9359 C 885.604 -3.25218 0.946082 0
M  V30 9360 C 884.65 -3.72414 2.0787 0
M  V30 9361 S 885.483 -3.87376 3.69729 0
M  V30 9362 C 886.639 -5.25219 3.40435 0
M  V30 9363 H 886.872 -1.99079 2.20805 0
M  V30 9364 H 884.405 -0.942625 1.22286 0
M  V30 9365 H 886.363 -4.03183 0.771612 0
M  V30 9366 H 885.024 -3.14096 0.0159991 0
M  V30 9367 H 884.217 -4.7024 1.81358 0
M  V30 9368 H 883.819 -3.01519 2.21274 0
M  V30 9369 H 886.111 -6.10025 2.94746 0
M  V30 9370 H 887.054 -5.56738 4.37549 0
M  V30 9371 H 887.462 -4.92638 2.75622 0
M  V30 9372 N 886.86 -1.21182 -1.00761 0
M  V30 9373 C 887.807 -0.968741 -2.09485 0
M  V30 9374 C 888.777 0.104325 -1.65772 0
M  V30 9375 O 889.962 -0.0422587 -1.90753 0
M  V30 9376 C 887.102 -0.536686 -3.40901 0
M  V30 9377 C 886.215 -1.6789 -3.98041 0
M  V30 9378 C 885.35 -1.19627 -5.17555 0
M  V30 9379 C 884.389 -2.31099 -5.66798 0
M  V30 9380 N 883.526 -1.83988 -6.77564 0
M  V30 9381 H 888.366 -1.89952 -2.29613 0
M  V30 9382 H 885.903 -0.946688 -1.12589 0
M  V30 9383 H 887.861 -0.26745 -4.16342 0
M  V30 9384 H 886.491 0.357092 -3.20819 0
M  V30 9385 H 885.543 -2.06284 -3.19611 0
M  V30 9386 H 886.855 -2.51794 -4.30582 0
M  V30 9387 H 886.009 -0.883539 -6.00232 0
M  V30 9388 H 884.748 -0.327244 -4.86601 0
M  V30 9389 H 883.753 -2.63178 -4.82719 0
M  V30 9390 H 884.978 -3.18493 -5.99782 0
M  V30 9391 H 882.924 -0.994257 -6.48422 0
M  V30 9392 H 882.841 -2.61466 -7.09346 0
M  V30 9393 H 884.109 -1.55741 -7.63783 0
M  V30 9394 N 888.338 1.20213 -1.01915 0
M  V30 9395 C 889.584 1.90203 -0.720724 0
M  V30 9396 C 889.939 1.77526 0.74178 0
M  V30 9397 O 889.232 1.15037 1.53222 0
M  V30 9398 C 889.426 3.40232 -1.09438 0
M  V30 9399 C 889.255 3.67509 -2.59167 0
M  V30 9400 C 888.025 3.86082 -3.25989 0
M  V30 9401 C 890.223 3.69863 -3.5736 0
M  V30 9402 N 888.205 4.009 -4.64922 0
M  V30 9403 C 889.576 3.90136 -4.81865 0
M  V30 9404 C 891.631 3.52839 -3.51296 0
M  V30 9405 C 890.334 3.9515 -6.0104 0
M  V30 9406 C 892.36 3.59125 -4.69875 0
M  V30 9407 C 891.722 3.79874 -5.93191 0
M  V30 9408 H 887.821 0.715556 -0.315442 0
M  V30 9409 H 890.405 1.44538 -1.30449 0
M  V30 9410 H 888.576 3.84643 -0.538933 0
M  V30 9411 H 890.308 3.97704 -0.74923 0
M  V30 9412 H 887.063 3.84569 -2.76413 0
M  V30 9413 H 887.487 4.12181 -5.37062 0
M  V30 9414 H 892.129 3.35762 -2.56951 0
M  V30 9415 H 889.847 4.11022 -6.95763 0
M  V30 9416 H 893.433 3.47257 -4.66802 0
M  V30 9417 H 892.313 3.846 -6.83412 0
M  V30 9418 N 889.816 0.795718 1.36037 0
M  V30 9419 C 891.041 0.38204 2.03851 0
M  V30 9420 C 891.466 -0.995553 1.59594 0
M  V30 9421 O 890.824 -1.64258 0.767401 0
M  V30 9422 C 890.872 0.461248 3.57638 0
M  V30 9423 O 889.976 -0.529448 4.08987 0
M  V30 9424 H 889.317 0.161227 0.644129 0
M  V30 9425 H 891.847 1.07858 1.73861 0
M  V30 9426 H 891.857 0.32712 4.06687 0
M  V30 9427 H 890.532 1.46613 3.89201 0
M  V30 9428 H 889.109 -0.35646 3.71192 0
M  V30 9429 N 891.294 -1.47756 0.548274 0
M  V30 9430 C 892.522 -2.06884 0.0254873 0
M  V30 9431 C 892.937 -1.40225 -1.26422 0
M  V30 9432 O 892.294 -0.495776 -1.75637 0
M  V30 9433 C 892.345 -3.61036 -0.183134 0
M  V30 9434 O 892.066 -4.25195 1.05549 0
M  V30 9435 C 893.567 -4.37008 -0.744222 0
M  V30 9436 H 890.787 -0.669697 0.041789 0
M  V30 9437 H 893.331 -1.89888 0.759138 0
M  V30 9438 H 891.486 -3.77576 -0.866886 0
M  V30 9439 H 891.9 -5.17606 0.847629 0
M  V30 9440 H 893.374 -5.45579 -0.839529 0
M  V30 9441 H 893.851 -4.0268 -1.75344 0
M  V30 9442 H 894.457 -4.25191 -0.0964542 0
M  V30 9443 N 892.772 -0.284283 -1.55015 0
M  V30 9444 C 893.72 0.615091 -2.2432 0
M  V30 9445 C 894.714 1.15051 -1.24337 0
M  V30 9446 O 895.92 1.10308 -1.4224 0
M  V30 9447 H 892.295 0.216927 -0.720033 0
M  V30 9448 H 894.266 0.00783216 -2.98399 0
M  V30 9449 C 893.015 1.78355 -2.98471 0
M  V30 9450 H 892.338 1.38076 -3.752 0
M  V30 9451 H 893.778 2.38927 -3.50271 0
M  V30 9452 C 892.237 2.67757 -2.04469 0
M  V30 9453 O 892.767 3.6838 -1.60185 0
M  V30 9454 N 890.973 2.35125 -1.70776 0
M  V30 9455 H 890.52 1.53346 -2.06985 0
M  V30 9456 H 890.478 2.95212 -1.08153 0
M  V30 9457 N 894.251 1.57596 -0.0117121 0
M  V30 9458 C 895.476 1.95764 0.684938 0
M  V30 9459 C 895.901 0.887285 1.65858 0
M  V30 9460 O 895.259 -0.153508 1.80649 0
M  V30 9461 C 895.307 3.33031 1.38285 0
M  V30 9462 O 894.411 3.28163 2.49765 0
M  V30 9463 H 893.752 0.638767 0.181309 0
M  V30 9464 H 896.282 2.04486 -0.0683883 0
M  V30 9465 H 896.292 3.68866 1.74362 0
M  V30 9466 H 894.967 4.10483 0.669043 0
M  V30 9467 H 893.544 3.04021 2.15929 0
M  V30 9468 N 895.729 -0.261212 1.5542 0
M  V30 9469 C 896.969 -0.998748 1.78338 0
M  V30 9470 C 897.333 -1.83064 0.578914 0
M  V30 9471 O 898.534 -2.59884 0.686575 0
M  V30 9472 C 896.805 -1.84828 3.05898 0
M  V30 9473 S 898.364 -2.64686 3.49981 0
M  V30 9474 H 895.182 -0.33619 0.626496 0
M  V30 9475 H 897.784 -0.26799 1.93655 0
M  V30 9476 H 896.488 -1.22658 3.91642 0
M  V30 9477 H 896.019 -2.62203 2.9328 0
M  V30 9478 H 898.034 -3.87299 3.10184 0
M  V30 9479 N 897.207 -1.48554 -0.526253 0
M  V30 9480 C 898.455 -1.56452 -1.27935 0
M  V30 9481 C 898.776 -0.24184 -1.93495 0
M  V30 9482 O 898.046 0.736917 -1.81511 0
M  V30 9483 H 896.626 -0.576379 -0.47518 0
M  V30 9484 H 899.288 -1.85039 -0.612083 0
M  V30 9485 H 898.384 -2.34751 -2.05666 0
M  V30 9486 N 898.685 0.775411 -1.37205 0
M  V30 9487 C 899.648 1.8702 -1.325 0
M  V30 9488 C 900.648 1.5915 -0.229793 0
M  V30 9489 O 901.838 1.673 -0.485423 0
M  V30 9490 C 898.97 3.24085 -1.05745 0
M  V30 9491 H 900.163 1.92604 -2.29878 0
M  V30 9492 H 897.716 0.97476 -1.22181 0
M  V30 9493 H 898.451 3.24178 -0.0888371 0
M  V30 9494 H 898.236 3.45705 -1.85016 0
M  V30 9495 H 899.726 4.0416 -1.05094 0
M  V30 9496 N 900.163 1.21714 1.00117 0
M  V30 9497 C 901.095 0.937627 2.09144 0
M  V30 9498 C 902.108 -0.0806291 1.626 0
M  V30 9499 O 903.297 0.152348 1.77849 0
M  V30 9500 C 900.397 0.387036 3.36683 0
M  V30 9501 C 899.57 1.46054 4.12295 0
M  V30 9502 C 898.629 0.918505 5.18122 0
M  V30 9503 O 897.655 1.60282 5.46167 0
M  V30 9504 N 898.857 -0.264308 5.79898 0
M  V30 9505 H 901.622 1.87622 2.33705 0
M  V30 9506 H 899.183 1.12291 1.16629 0
M  V30 9507 H 901.175 0.00992825 4.04699 0
M  V30 9508 H 899.745 -0.456467 3.09249 0
M  V30 9509 H 898.965 2.01133 3.39027 0
M  V30 9510 H 900.253 2.18306 4.59587 0
M  V30 9511 H 899.651 -0.837242 5.5947 0
M  V30 9512 H 898.208 -0.582886 6.49188 0
M  V30 9513 N 901.641 -1.19671 1.02551 0
M  V30 9514 C 902.889 -1.88894 0.71858 0
M  V30 9515 C 903.21 -1.79797 -0.754856 0
M  V30 9516 O 902.48 -1.20621 -1.54362 0
M  V30 9517 H 901.06 -0.699244 0.262806 0
M  V30 9518 H 903.722 -1.45298 1.29902 0
M  V30 9519 H 902.818 -2.95309 1.00989 0
M  V30 9520 N 903.119 -0.802921 -1.35613 0
M  V30 9521 C 904.082 -0.216422 -2.28176 0
M  V30 9522 C 905.082 0.594101 -1.49422 0
M  V30 9523 O 906.272 0.41312 -1.6923 0
M  V30 9524 C 903.404 0.698746 -3.33662 0
M  V30 9525 H 904.597 -1.03276 -2.81557 0
M  V30 9526 H 902.15 -0.573307 -1.45406 0
M  V30 9527 H 902.885 1.53891 -2.85461 0
M  V30 9528 H 902.67 0.119314 -3.91918 0
M  V30 9529 H 904.16 1.10354 -4.02755 0
M  V30 9530 N 904.597 1.47463 -0.556102 0
M  V30 9531 C 905.837 2.04372 -0.0339743 0
M  V30 9532 C 906.201 1.42125 1.29091 0
M  V30 9533 O 907.402 1.90074 1.90066 0
M  V30 9534 C 905.673 3.57352 0.0585316 0
M  V30 9535 S 907.232 4.35625 0.526943 0
M  V30 9536 H 904.05 0.710574 -0.0246115 0
M  V30 9537 H 906.652 1.80848 -0.742585 0
M  V30 9538 H 905.356 4.00181 -0.910116 0
M  V30 9539 H 904.887 3.85371 0.790731 0
M  V30 9540 H 906.902 4.62911 1.78683 0
M  V30 9541 N 906.075 0.2925 1.54862 0
M  V30 9542 C 907.491 -0.0611461 1.59483 0
M  V30 9543 C 907.691 -1.53141 1.30958 0
M  V30 9544 O 906.747 -2.28291 1.07887 0
M  V30 9545 C 908.06 0.329143 2.98893 0
M  V30 9546 C 909.608 0.2772 3.1177 0
M  V30 9547 C 910.083 0.642185 4.53475 0
M  V30 9548 N 911.574 0.594396 4.5937 0
M  V30 9549 C 912.309 0.849385 5.67074 0
M  V30 9550 N 911.805 1.1699 6.82851 0
M  V30 9551 N 913.598 0.777016 5.56704 0
M  V30 9552 H 905.749 1.25079 1.71665 0
M  V30 9553 H 908.012 0.506516 0.80134 0
M  V30 9554 H 907.718 1.35233 3.24661 0
M  V30 9555 H 907.592 -0.321442 3.75828 0
M  V30 9556 H 909.979 -0.736725 2.85756 0
M  V30 9557 H 910.06 0.962289 2.3701 0
M  V30 9558 H 909.704 1.65388 4.80218 0
M  V30 9559 H 909.634 -0.0648831 5.2656 0
M  V30 9560 H 912.125 0.357256 3.76208 0
M  V30 9561 H 912.438 1.35067 7.60905 0
M  V30 9562 H 910.783 1.20785 6.84424 0
M  V30 9563 H 913.974 0.526333 4.65132 0
M  V30 9564 H 914.147 0.979113 6.4056 0
M  V30 9565 N 907.553 -1.57587 0.0200696 0
M  V30 9566 C 908.802 -1.90602 -0.659822 0
M  V30 9567 C 909.115 -0.897216 -1.73808 0
M  V30 9568 O 910.321 -1.11829 -2.47399 0
M  V30 9569 C 908.777 -3.38416 -1.22484 0
M  V30 9570 C 908.385 -4.47637 -0.180339 0
M  V30 9571 C 910.129 -3.80513 -1.88176 0
M  V30 9572 C 908.036 -5.86542 -0.756482 0
M  V30 9573 H 906.966 -0.711272 -0.250216 0
M  V30 9574 H 909.617 -1.83308 0.0838942 0
M  V30 9575 H 907.999 -3.40613 -2.01987 0
M  V30 9576 H 909.173 -4.56987 0.591573 0
M  V30 9577 H 907.488 -4.14687 0.377302 0
M  V30 9578 H 910.085 -4.8164 -2.32222 0
M  V30 9579 H 910.428 -3.15091 -2.72073 0
M  V30 9580 H 910.961 -3.80701 -1.15377 0
M  V30 9581 H 907.7 -6.55485 0.0441468 0
M  V30 9582 H 907.22 -5.80816 -1.49709 0
M  V30 9583 H 908.899 -6.3483 -1.249 0
M  V30 9584 N 909.032 0.252966 -1.55557 0
M  V30 9585 C 910.262 0.998115 -1.8089 0
M  V30 9586 C 910.67 1.79679 -0.592623 0
M  V30 9587 O 910.013 1.78151 0.448093 0
M  V30 9588 C 910.075 1.98878 -2.99479 0
M  V30 9589 C 909.739 1.37761 -4.35742 0
M  V30 9590 C 910.736 0.783142 -5.13968 0
M  V30 9591 C 908.421 1.39879 -4.8243 0
M  V30 9592 C 910.415 0.218004 -6.37027 0
M  V30 9593 C 908.102 0.829801 -6.0544 0
M  V30 9594 C 909.1 0.240426 -6.82577 0
M  V30 9595 O 908.788 -0.319797 -8.03264 0
M  V30 9596 H 908.52 0.29963 -0.605969 0
M  V30 9597 H 911.074 0.282978 -2.03441 0
M  V30 9598 H 909.304 2.74206 -2.72669 0
M  V30 9599 H 910.993 2.59686 -3.11959 0
M  V30 9600 H 911.759 0.759326 -4.79019 0
M  V30 9601 H 907.638 1.84692 -4.22386 0
M  V30 9602 H 911.182 -0.242654 -6.97178 0
M  V30 9603 H 907.079 0.850924 -6.39867 0
M  V30 9604 H 907.847 -0.211078 -8.18228 0
M  V30 9605 N 910.51 1.48831 0.518367 0
M  V30 9606 C 911.458 1.64678 1.64268 0
M  V30 9607 C 912.452 0.512967 1.61447 0
M  V30 9608 O 913.658 0.692063 1.66164 0
M  V30 9609 H 910.033 0.518964 0.544224 0
M  V30 9610 H 912.004 2.59083 1.4805 0
M  V30 9611 C 910.753 1.71449 3.0249 0
M  V30 9612 H 910.076 2.58061 3.0536 0
M  V30 9613 H 911.516 1.86577 3.80743 0
M  V30 9614 C 909.975 0.455584 3.33805 0
M  V30 9615 O 910.505 -0.426428 3.9943 0
M  V30 9616 N 908.711 0.323763 2.88791 0
M  V30 9617 H 908.258 1.04249 2.35563 0
M  V30 9618 H 908.216 -0.517514 3.10112 0
M  V30 9619 N 911.988 -0.768124 1.37614 0
M  V30 9620 C 913.213 -1.56239 1.36397 0
M  V30 9621 C 913.638 -1.8804 -0.0475839 0
M  V30 9622 O 912.996 -1.495 -1.02564 0
M  V30 9623 C 913.044 -2.84716 2.21289 0
M  V30 9624 O 912.148 -3.79249 1.62001 0
M  V30 9625 H 911.489 -0.473119 0.465891 0
M  V30 9626 H 914.019 -0.950415 1.81186 0
M  V30 9627 H 914.029 -3.33784 2.34632 0
M  V30 9628 H 912.704 -2.60899 3.2389 0
M  V30 9629 H 911.281 -3.37904 1.57719 0
M  V30 9630 N 913.466 -1.22244 -0.994698 0
M  V30 9631 C 914.712 -1.04746 -1.73655 0
M  V30 9632 C 915.045 0.41668 -1.89677 0
M  V30 9633 O 914.32 1.30897 -1.43862 0
M  V30 9634 C 914.603 -1.75716 -3.14318 0
M  V30 9635 C 914.456 -3.29714 -3.05955 0
M  V30 9636 C 915.775 -1.50809 -4.13455 0
M  V30 9637 H 912.894 -0.381921 -0.630322 0
M  V30 9638 H 915.536 -1.50559 -1.15897 0
M  V30 9639 H 913.686 -1.3677 -3.63629 0
M  V30 9640 H 915.358 -3.78093 -2.64279 0
M  V30 9641 H 913.601 -3.59484 -2.42804 0
M  V30 9642 H 914.272 -3.74547 -4.05485 0
M  V30 9643 H 916.748 -1.84636 -3.72892 0
M  V30 9644 H 915.624 -2.02964 -5.09997 0
M  V30 9645 H 915.885 -0.440292 -4.39902 0
M  V30 9646 N 914.944 1.19125 -1.03184 0
M  V30 9647 C 916.191 1.88883 -0.730029 0
M  V30 9648 C 916.519 1.79807 0.741602 0
M  V30 9649 O 915.774 1.18686 1.55603 0
M  V30 9650 C 916.073 3.39052 -1.13041 0
M  V30 9651 C 915.739 3.68332 -2.60082 0
M  V30 9652 C 914.401 3.76033 -3.00254 0
M  V30 9653 C 916.753 3.81423 -3.55199 0
M  V30 9654 C 914.081 3.94296 -4.34451 0
M  V30 9655 C 916.433 4.012 -4.89103 0
M  V30 9656 C 915.097 4.07134 -5.28959 0
M  V30 9657 H 914.367 0.691172 -0.267137 0
M  V30 9658 H 917.014 1.41053 -1.29523 0
M  V30 9659 H 915.319 3.88801 -0.48386 0
M  V30 9660 H 917.016 3.91351 -0.874368 0
M  V30 9661 H 913.606 3.62948 -2.27961 0
M  V30 9662 H 917.79 3.74814 -3.25313 0
M  V30 9663 H 913.046 3.97131 -4.64863 0
M  V30 9664 H 917.22 4.10271 -5.62717 0
M  V30 9665 H 914.847 4.21038 -6.32954 0
M  V30 9666 N 916.422 0.810101 1.35185 0
M  V30 9667 C 917.669 0.392117 1.98667 0
M  V30 9668 C 917.997 -1.0416 1.64259 0
M  V30 9669 O 917.252 -1.73795 0.899647 0
M  V30 9670 C 917.551 0.526561 3.535 0
M  V30 9671 C 917.217 1.92411 4.07785 0
M  V30 9672 C 915.879 2.30644 4.22323 0
M  V30 9673 C 918.231 2.83827 4.37141 0
M  V30 9674 C 915.559 3.59655 4.63536 0
M  V30 9675 C 917.911 4.12287 4.79794 0
M  V30 9676 C 916.575 4.50515 4.92536 0
M  V30 9677 H 915.845 0.143486 0.726975 0
M  V30 9678 H 918.492 1.03157 1.61341 0
M  V30 9679 H 916.797 -0.19633 3.91308 0
M  V30 9680 H 918.494 0.183871 4.00578 0
M  V30 9681 H 915.084 1.61707 3.96924 0
M  V30 9682 H 919.268 2.55536 4.25459 0
M  V30 9683 H 914.524 3.89117 4.71591 0
M  V30 9684 H 918.698 4.83221 5.01468 0
M  V30 9685 H 916.325 5.50535 5.24229 0
M  V30 9686 N 917.9 -1.47166 0.563914 0
M  V30 9687 C 919.148 -2.02056 0.0422873 0
M  V30 9688 C 919.469 -1.43992 -1.31497 0
M  V30 9689 O 918.739 -0.617578 -1.85911 0
M  V30 9690 H 917.319 -0.746893 0.0126427 0
M  V30 9691 H 919.981 -1.80492 0.735441 0
M  V30 9692 H 919.077 -3.12073 -0.0408044 0
M  V30 9693 N 919.378 -0.300708 -1.54705 0
M  V30 9694 C 920.794 0.0526874 -1.59513 0
M  V30 9695 C 920.994 1.52444 -1.31769 0
M  V30 9696 O 920.05 2.27716 -1.09096 0
M  V30 9697 C 921.363 -0.344989 -2.98714 0
M  V30 9698 C 922.911 -0.29373 -3.11619 0
M  V30 9699 C 923.386 -0.666225 -4.53129 0
M  V30 9700 N 924.877 -0.618749 -4.59049 0
M  V30 9701 C 925.612 -0.879447 -5.66616 0
M  V30 9702 N 925.108 -1.2061 -6.82221 0
M  V30 9703 N 926.901 -0.806528 -5.56284 0
M  V30 9704 H 919.052 -1.25988 -1.71 0
M  V30 9705 H 921.315 -0.510758 -0.798643 0
M  V30 9706 H 921.021 -1.36953 -3.2394 0
M  V30 9707 H 920.895 0.301507 -3.75993 0
M  V30 9708 H 923.282 0.72156 -2.86142 0
M  V30 9709 H 923.363 -0.974844 -2.36496 0
M  V30 9710 H 923.007 -1.67932 -4.79334 0
M  V30 9711 H 922.937 0.0369575 -5.26587 0
M  V30 9712 H 925.428 -0.377202 -3.76013 0
M  V30 9713 H 925.741 -1.391 -7.60178 0
M  V30 9714 H 924.086 -1.24413 -6.83774 0
M  V30 9715 H 927.277 -0.550993 -4.64846 0
M  V30 9716 H 927.45 -1.01307 -6.40032 0
M  V30 9717 N 920.856 1.57574 -0.0284266 0
M  V30 9718 C 922.102 1.92056 0.651327 0
M  V30 9719 C 922.435 0.905092 1.71819 0
M  V30 9720 O 921.71 -0.0722703 1.94366 0
M  V30 9721 C 921.993 3.37021 1.26841 0
M  V30 9722 C 921.846 4.49304 0.211157 0
M  V30 9723 C 923.165 3.81936 2.18662 0
M  V30 9724 H 920.284 0.698428 0.235304 0
M  V30 9725 H 922.926 1.89807 -0.0855435 0
M  V30 9726 H 921.076 3.39068 1.89644 0
M  V30 9727 H 922.748 4.5939 -0.419379 0
M  V30 9728 H 920.991 4.31317 -0.463445 0
M  V30 9729 H 921.662 5.47764 0.682518 0
M  V30 9730 H 924.138 3.8162 1.65847 0
M  V30 9731 H 923.014 4.84064 2.58792 0
M  V30 9732 H 923.275 3.174 3.07749 0
M  V30 9733 N 922.334 -0.244713 1.55689 0
M  V30 9734 C 923.564 -0.988508 1.81417 0
M  V30 9735 C 923.972 -1.79362 0.602143 0
M  V30 9736 O 923.315 -1.78386 -0.438639 0
M  V30 9737 C 923.377 -1.97287 3.0053 0
M  V30 9738 C 923.041 -1.35448 4.36466 0
M  V30 9739 C 924.038 -0.755874 5.14376 0
M  V30 9740 C 921.723 -1.37319 4.83165 0
M  V30 9741 C 923.717 -0.184218 6.37134 0
M  V30 9742 C 921.404 -0.797681 6.05871 0
M  V30 9743 C 922.402 -0.204224 6.82695 0
M  V30 9744 O 922.09 0.362392 8.03083 0
M  V30 9745 H 921.822 -0.296412 0.607549 0
M  V30 9746 H 924.376 -0.272185 2.03589 0
M  V30 9747 H 922.606 -2.72756 2.74119 0
M  V30 9748 H 924.295 -2.58028 3.13331 0
M  V30 9749 H 925.061 -0.733912 4.79415 0
M  V30 9750 H 920.94 -1.8245 4.23359 0
M  V30 9751 H 924.484 0.279624 6.97039 0
M  V30 9752 H 920.381 -0.816978 6.40309 0
M  V30 9753 H 921.149 0.254467 8.18104 0
M  V30 9754 N 923.813 -1.49104 -0.510467 0
M  V30 9755 C 924.743 -1.67981 -1.62187 0
M  V30 9756 C 925.724 -0.528529 -1.6168 0
M  V30 9757 O 926.909 -0.763305 -1.7857 0
M  V30 9758 C 924.039 -1.73755 -3.0071 0
M  V30 9759 C 922.993 -2.88579 -3.1608 0
M  V30 9760 C 922.319 -2.79457 -4.5586 0
M  V30 9761 C 923.619 -4.29638 -2.97 0
M  V30 9762 H 925.313 -2.61029 -1.46643 0
M  V30 9763 H 922.859 -1.25615 -0.704042 0
M  V30 9764 H 924.812 -1.85548 -3.78352 0
M  V30 9765 H 923.536 -0.772996 -3.17321 0
M  V30 9766 H 922.195 -2.76372 -2.40861 0
M  V30 9767 H 921.843 -1.80929 -4.69333 0
M  V30 9768 H 921.543 -3.56518 -4.67086 0
M  V30 9769 H 923.067 -2.93245 -5.35574 0
M  V30 9770 H 924.481 -4.42575 -3.64418 0
M  V30 9771 H 922.878 -5.07847 -3.19704 0
M  V30 9772 H 923.948 -4.44741 -1.93219 0
M  V30 9773 N 925.291 0.760815 -1.38019 0
M  V30 9774 C 926.539 1.51673 -1.33566 0
M  V30 9775 C 926.86 1.94852 0.076024 0
M  V30 9776 O 926.13 1.67112 1.02227 0
M  V30 9777 H 924.71 0.562581 -0.491438 0
M  V30 9778 H 927.372 0.904832 -1.72623 0
M  V30 9779 H 926.468 2.41102 -1.98182 0
M  V30 9780 N 926.769 1.22769 0.988202 0
M  V30 9781 C 927.699 1.02627 2.09738 0
M  V30 9782 C 928.68 -0.0543211 1.70013 0
M  V30 9783 O 929.865 0.108811 1.93895 0
M  V30 9784 C 926.995 0.608302 3.41931 0
M  V30 9785 C 925.949 1.63536 3.95525 0
M  V30 9786 C 925.275 1.07308 5.23822 0
M  V30 9787 C 926.575 3.02649 4.25677 0
M  V30 9788 H 928.269 1.954 2.26847 0
M  V30 9789 H 925.815 0.940888 1.09011 0
M  V30 9790 H 927.768 0.454478 4.18942 0
M  V30 9791 H 926.492 -0.355095 3.24664 0
M  V30 9792 H 925.151 1.77704 3.20651 0
M  V30 9793 H 924.799 0.100894 5.02899 0
M  V30 9794 H 924.499 1.75925 5.60646 0
M  V30 9795 H 926.023 0.930938 6.03462 0
M  V30 9796 H 927.437 2.91828 4.93467 0
M  V30 9797 H 925.834 3.68434 4.73684 0
M  V30 9798 H 926.904 3.52228 3.33262 0
M  V30 9799 N 928.247 -1.18576 1.03814 0
M  V30 9800 C 929.472 -1.92978 0.759873 0
M  V30 9801 C 929.897 -1.75514 -0.676486 0
M  V30 9802 O 929.255 -1.06359 -1.46824 0
M  V30 9803 C 929.303 -3.42507 1.12788 0
M  V30 9804 O 928.407 -4.1163 0.251886 0
M  V30 9805 H 927.748 -0.602129 0.279886 0
M  V30 9806 H 930.278 -1.50383 1.3873 0
M  V30 9807 H 930.288 -3.93206 1.08872 0
M  V30 9808 H 928.963 -3.5454 2.17427 0
M  V30 9809 H 927.54 -3.7125 0.350441 0
M  V30 9810 N 929.725 -0.817259 -1.34754 0
M  V30 9811 C 930.974 -0.39908 -1.97713 0
M  V30 9812 C 931.287 1.04203 -1.65533 0
M  V30 9813 O 932.493 1.56384 -2.21937 0
M  V30 9814 C 930.949 -0.662634 -3.53747 0
M  V30 9815 C 930.557 -2.11699 -3.94826 0
M  V30 9816 C 932.301 -0.31034 -4.23364 0
M  V30 9817 C 930.208 -2.32573 -5.4375 0
M  V30 9818 H 929.138 -0.145488 -0.739831 0
M  V30 9819 H 931.789 -1.00282 -1.53674 0
M  V30 9820 H 930.171 0.0111972 -3.95998 0
M  V30 9821 H 931.345 -2.82951 -3.63697 0
M  V30 9822 H 929.66 -2.43017 -3.3813 0
M  V30 9823 H 932.257 -0.44421 -5.32852 0
M  V30 9824 H 932.6 0.744594 -4.09587 0
M  V30 9825 H 933.133 -0.938518 -3.8657 0
M  V30 9826 H 929.872 -3.36551 -5.62507 0
M  V30 9827 H 929.392 -1.65858 -5.76412 0
M  V30 9828 H 931.071 -2.14651 -6.10356 0
M  V30 9829 N 931.203 1.46865 -0.571711 0
M  V30 9830 C 932.166 2.28658 0.157499 0
M  V30 9831 C 933.166 1.37773 0.829172 0
M  V30 9832 O 934.356 1.6026 0.682811 0
M  V30 9833 C 931.488 3.17859 1.23202 0
M  V30 9834 H 932.681 2.94603 -0.561171 0
M  V30 9835 H 930.234 1.52793 -0.329229 0
M  V30 9836 H 930.969 2.56637 1.98262 0
M  V30 9837 H 930.754 3.84762 0.755031 0
M  V30 9838 H 932.244 3.7945 1.74378 0
M  V30 9839 N 932.681 0.308908 1.54543 0
M  V30 9840 C 933.611 -0.556657 2.26768 0
M  V30 9841 C 934.592 -1.13145 1.27013 0
M  V30 9842 O 935.777 -1.15931 1.558 0
M  V30 9843 C 932.907 -1.72481 3.01443 0
M  V30 9844 C 931.861 -1.28001 4.08411 0
M  V30 9845 C 931.187 -2.53395 4.70845 0
M  V30 9846 C 932.487 -0.405497 5.20724 0
M  V30 9847 H 934.181 0.0457618 2.99365 0
M  V30 9848 H 931.727 0.0234495 1.43981 0
M  V30 9849 H 933.68 -2.3365 3.50693 0
M  V30 9850 H 932.404 -2.35359 2.26437 0
M  V30 9851 H 931.063 -0.69133 3.60022 0
M  V30 9852 H 930.711 -3.14604 3.92471 0
M  V30 9853 H 930.411 -2.2433 5.43093 0
M  V30 9854 H 931.935 -3.15352 5.22863 0
M  V30 9855 H 933.349 -0.923076 5.6582 0
M  V30 9856 H 931.746 -0.208282 5.99738 0
M  V30 9857 H 932.816 0.567412 4.81569 0
M  V30 9858 N 934.159 -1.57557 0.0367827 0
M  V30 9859 C 935.575 -1.56366 -0.31967 0
M  V30 9860 C 935.775 -1.04313 -1.72398 0
M  V30 9861 O 934.831 -0.693278 -2.42796 0
M  V30 9862 C 936.144 -3.00267 -0.161274 0
M  V30 9863 C 937.692 -3.12128 -0.233464 0
M  V30 9864 C 938.167 -4.57882 -0.103767 0
M  V30 9865 N 939.658 -4.62922 -0.160506 0
M  V30 9866 C 940.393 -5.73338 -0.0840493 0
M  V30 9867 N 939.889 -6.92786 0.043933 0
M  V30 9868 N 941.682 -5.61929 -0.138592 0
M  V30 9869 H 933.833 -1.8972 0.954996 0
M  V30 9870 H 936.096 -0.87304 0.369467 0
M  V30 9871 H 935.802 -3.42331 0.80639 0
M  V30 9872 H 935.676 -3.65599 -0.928304 0
M  V30 9873 H 938.063 -2.69972 -1.19159 0
M  V30 9874 H 938.144 -2.49503 0.564075 0
M  V30 9875 H 937.788 -5.0072 0.850973 0
M  V30 9876 H 937.718 -5.18496 -0.920268 0
M  V30 9877 H 940.209 -3.7701 -0.259257 0
M  V30 9878 H 940.522 -7.72741 0.095372 0
M  V30 9879 H 938.867 -6.94955 0.0788211 0
M  V30 9880 H 942.058 -4.67499 -0.237031 0
M  V30 9881 H 942.231 -6.47956 -0.075546 0
M  V30 9882 N 935.637 0.236453 -1.55816 0
M  V30 9883 C 936.884 0.963012 -1.78136 0
M  V30 9884 C 937.212 1.84918 -0.602952 0
M  V30 9885 O 936.467 1.91285 0.413325 0
M  V30 9886 C 936.766 1.84549 -3.06066 0
M  V30 9887 C 936.432 1.11381 -4.36927 0
M  V30 9888 C 935.094 0.911635 -4.72486 0
M  V30 9889 C 937.446 0.596 -5.17781 0
M  V30 9890 C 934.774 0.179515 -5.86425 0
M  V30 9891 C 937.126 -0.122702 -6.32481 0
M  V30 9892 C 935.79 -0.336263 -6.66652 0
M  V30 9893 H 935.06 0.352391 -0.651845 0
M  V30 9894 H 937.707 0.232295 -1.90086 0
M  V30 9895 H 936.012 2.6436 -2.89173 0
M  V30 9896 H 937.709 2.40953 -3.20535 0
M  V30 9897 H 934.299 1.28134 -4.08998 0
M  V30 9898 H 938.483 0.73971 -4.90757 0
M  V30 9899 H 933.739 0.00368224 -6.114 0
M  V30 9900 H 937.913 -0.531516 -6.94369 0
M  V30 9901 H 935.54 -0.905507 -7.54788 0
M  V30 9902 N 937.115 1.49373 0.502552 0
M  V30 9903 C 938.526 1.52 1.0841 0
M  V30 9904 C 938.877 0.305317 1.9381 0
M  V30 9905 O 938.002 -0.585023 2.08342 0
M  V30 9906 C 938.597 2.75437 1.97281 0
M  V30 9907 C 937.156 2.80848 2.50602 0
M  V30 9908 C 936.303 2.45894 1.28186 0
M  V30 9909 H 939.254 1.56092 0.286533 0
M  V30 9910 H 939.275 2.55511 2.81947 0
M  V30 9911 H 938.787 3.63827 1.35098 0
M  V30 9912 H 936.888 1.96735 3.16427 0
M  V30 9913 H 937.001 3.82979 2.8786 0
M  V30 9914 H 935.365 1.97639 1.60657 0
M  V30 9915 H 936.148 3.36556 0.677139 0
M  V30 9916 N 938.594 -0.753485 1.38421 0
M  V30 9917 C 939.557 -1.84888 1.35459 0
M  V30 9918 C 940.557 -1.58764 0.255083 0
M  V30 9919 O 941.747 -1.66507 0.511978 0
M  V30 9920 C 938.879 -3.22361 1.10888 0
M  V30 9921 H 940.072 -1.88922 2.32913 0
M  V30 9922 H 937.625 -0.955199 1.23716 0
M  V30 9923 H 938.36 -3.23996 0.1404 0
M  V30 9924 H 938.145 -3.42717 1.90492 0
M  V30 9925 H 939.635 -4.02437 1.1151 0
M  V30 9926 N 940.072 -1.23292 -0.981677 0
M  V30 9927 C 941.002 -1.03738 -2.09191 0
M  V30 9928 C 941.983 0.0453041 -1.7004 0
M  V30 9929 O 943.168 -0.119092 -1.93834 0
M  V30 9930 C 940.298 -0.626426 -3.41604 0
M  V30 9931 C 939.252 -1.65631 -3.94652 0
M  V30 9932 C 938.578 -1.10084 -5.23245 0
M  V30 9933 C 939.878 -3.04903 -4.24066 0
M  V30 9934 H 941.572 -1.966 -2.25807 0
M  V30 9935 H 939.118 -0.946656 -1.0851 0
M  V30 9936 H 941.071 -0.476689 -4.18695 0
M  V30 9937 H 939.795 0.337873 -3.24848 0
M  V30 9938 H 938.454 -1.79402 -3.19704 0
M  V30 9939 H 938.102 -0.127562 -5.02838 0
M  V30 9940 H 937.802 -1.78896 -5.59705 0
M  V30 9941 H 939.326 -0.962928 -6.02959 0
M  V30 9942 H 940.74 -2.94441 -4.91912 0
M  V30 9943 H 939.137 -3.70941 -4.71724 0
M  V30 9944 H 940.207 -3.53991 -3.31389 0
M  V30 9945 N 941.55 1.18024 -1.04442 0
M  V30 9946 C 942.796 1.88377 -0.751133 0
M  V30 9947 C 943.129 1.80377 0.719571 0
M  V30 9948 O 942.404 1.20662 1.52548 0
M  V30 9949 C 942.687 3.38708 -1.22265 0
M  V30 9950 C 942.54 3.55499 -2.75574 0
M  V30 9951 C 943.859 4.32475 -0.815688 0
M  V30 9952 H 940.978 0.684037 -0.27434 0
M  V30 9953 H 943.62 1.38837 -1.29709 0
M  V30 9954 H 941.77 3.8103 -0.758192 0
M  V30 9955 H 943.442 3.22244 -3.30086 0
M  V30 9956 H 941.685 2.98028 -3.15217 0
M  V30 9957 H 942.356 4.60994 -3.03625 0
M  V30 9958 H 944.832 3.97953 -1.21542 0
M  V30 9959 H 943.708 5.36213 -1.17331 0
M  V30 9960 H 943.969 4.41207 0.280901 0
M  V30 9961 N 943.028 0.824394 1.34319 0
M  V30 9962 C 943.958 0.262077 2.32025 0
M  V30 9963 C 944.939 -0.622277 1.58309 0
M  V30 9964 O 946.124 -0.548848 1.86283 0
M  V30 9965 C 943.254 -0.57567 3.42496 0
M  V30 9966 C 942.208 0.21167 4.27476 0
M  V30 9967 C 941.534 -0.748913 5.29429 0
M  V30 9968 C 942.834 1.42068 5.02607 0
M  V30 9969 H 944.528 1.07842 2.79304 0
M  V30 9970 H 942.074 0.520022 1.34282 0
M  V30 9971 H 944.027 -0.979251 4.09864 0
M  V30 9972 H 942.751 -1.42508 2.93869 0
M  V30 9973 H 941.41 0.596636 3.61712 0
M  V30 9974 H 941.058 -1.59432 4.77064 0
M  V30 9975 H 940.758 -0.226313 5.87164 0
M  V30 9976 H 942.282 -1.15032 5.99667 0
M  V30 9977 H 943.696 1.09103 5.62823 0
M  V30 9978 H 942.093 1.87903 5.69923 0
M  V30 9979 H 943.163 2.1981 4.32217 0
M  V30 9980 N 944.506 -1.46559 0.579492 0
M  V30 9981 C 945.736 -2.06484 0.0692642 0
M  V30 9982 C 946.144 -1.4293 -1.23967 0
M  V30 9983 O 945.487 -0.527632 -1.75959 0
M  V30 9984 C 945.549 -3.59078 -0.174174 0
M  V30 9985 C 945.213 -4.44805 1.04867 0
M  V30 9986 C 946.21 -4.81543 1.95991 0
M  V30 9987 C 943.895 -4.8599 1.26961 0
M  V30 9988 C 945.889 -5.58288 3.0756 0
M  V30 9989 C 943.576 -5.62495 2.38836 0
M  V30 9990 C 944.574 -5.98558 3.28964 0
M  V30 9991 O 944.262 -6.73518 4.38896 0
M  V30 9992 H 943.994 -0.673917 0.0530331 0
M  V30 9993 H 946.548 -1.89223 0.79898 0
M  V30 9994 H 944.778 -3.74634 -0.958464 0
M  V30 9995 H 946.467 -4.00941 -0.632515 0
M  V30 9996 H 947.233 -4.50307 1.80136 0
M  V30 9997 H 943.112 -4.57372 0.577184 0
M  V30 9998 H 946.656 -5.86355 3.77933 0
M  V30 9999 H 942.553 -5.93145 2.54655 0
M  V30 10000 H 943.321 -6.91938 4.37223 0
M  V30 10001 N 945.984 -0.3171 -1.54377 0
M  V30 10002 C 947.233 0.288271 -1.99629 0
M  V30 10003 C 947.546 1.53754 -1.2091 0
M  V30 10004 O 948.752 2.2185 -1.56508 0
M  V30 10005 C 947.208 0.564188 -3.5545 0
M  V30 10006 C 946.816 -0.667659 -4.42997 0
M  V30 10007 C 948.56 1.12987 -4.09187 0
M  V30 10008 C 946.467 -0.364003 -5.90279 0
M  V30 10009 H 945.397 0.111492 -0.745711 0
M  V30 10010 H 948.048 -0.428317 -1.78431 0
M  V30 10011 H 946.43 1.34079 -3.72611 0
M  V30 10012 H 947.604 -1.44335 -4.37612 0
M  V30 10013 H 945.919 -1.1531 -4.00116 0
M  V30 10014 H 948.516 1.37157 -5.1681 0
M  V30 10015 H 948.859 2.07722 -3.60773 0
M  V30 10016 H 949.392 0.414595 -3.95634 0
M  V30 10017 H 946.131 -1.28035 -6.42874 0
M  V30 10018 H 945.651 0.374102 -5.98632 0
M  V30 10019 H 947.33 0.0285433 -6.46994 0
M  V30 10020 N 947.462 1.57535 -0.0451378 0
M  V30 10021 C 948.708 1.92736 0.630921 0
M  V30 10022 C 949.041 0.923265 1.70849 0
M  V30 10023 O 948.316 -0.0516512 1.94431 0
M  V30 10024 C 948.599 3.38348 1.23259 0
M  V30 10025 C 948.452 4.49503 0.16349 0
M  V30 10026 C 949.771 3.84233 2.14599 0
M  V30 10027 H 946.89 0.700884 0.227883 0
M  V30 10028 H 949.532 1.89706 -0.10567 0
M  V30 10029 H 947.682 3.41061 1.86037 0
M  V30 10030 H 949.354 4.58919 -0.46808 0
M  V30 10031 H 947.597 4.30802 -0.509166 0
M  V30 10032 H 948.268 5.48457 0.624382 0
M  V30 10033 H 950.744 3.83358 1.6179 0
M  V30 10034 H 949.62 4.86781 2.53644 0
M  V30 10035 H 949.881 3.20646 3.04366 0
M  V30 10036 N 948.94 -0.228186 1.55939 0
M  V30 10037 C 950.187 -0.953552 1.78644 0
M  V30 10038 C 950.515 -1.84596 0.61275 0
M  V30 10039 O 949.77 -1.91502 -0.403175 0
M  V30 10040 C 950.069 -1.82924 3.0704 0
M  V30 10041 C 949.735 -1.09062 4.37511 0
M  V30 10042 C 948.397 -0.886565 4.72962 0
M  V30 10043 C 950.749 -0.568533 5.1809 0
M  V30 10044 C 948.077 -0.148413 5.86512 0
M  V30 10045 C 950.429 0.156243 6.32407 0
M  V30 10046 C 949.093 0.371612 6.66465 0
M  V30 10047 H 948.363 -0.348929 0.653704 0
M  V30 10048 H 951.01 -0.222211 1.90206 0
M  V30 10049 H 949.315 -2.62823 2.90571 0
M  V30 10050 H 951.012 -2.3925 3.21808 0
M  V30 10051 H 947.602 -1.25963 4.09672 0
M  V30 10052 H 951.786 -0.713673 4.91142 0
M  V30 10053 H 947.042 0.0287418 6.11393 0
M  V30 10054 H 951.216 0.568333 6.94077 0
M  V30 10055 H 948.843 0.945522 7.54297 0
M  V30 10056 N 950.418 -1.49637 -0.494624 0
M  V30 10057 C 951.667 -1.58691 -1.24499 0
M  V30 10058 C 951.98 -0.281763 -1.9356 0
M  V30 10059 O 953.186 -0.250925 -2.70338 0
M  V30 10060 C 951.642 -2.8002 -2.26091 0
M  V30 10061 C 951.25 -4.17318 -1.6294 0
M  V30 10062 C 952.994 -2.98407 -3.01916 0
M  V30 10063 C 950.901 -5.29862 -2.62679 0
M  V30 10064 H 949.831 -0.590888 -0.468367 0
M  V30 10065 H 952.482 -1.76034 -0.518112 0
M  V30 10066 H 950.864 -2.56185 -3.01969 0
M  V30 10067 H 952.038 -4.51315 -0.930108 0
M  V30 10068 H 950.353 -4.04342 -0.994819 0
M  V30 10069 H 952.95 -3.79658 -3.76516 0
M  V30 10070 H 953.293 -2.09214 -3.5991 0
M  V30 10071 H 953.826 -3.22312 -2.33152 0
M  V30 10072 H 950.565 -6.21134 -2.09458 0
M  V30 10073 H 950.085 -5.00311 -3.3083 0
M  V30 10074 H 951.764 -5.59461 -3.2498 0
M  V30 10075 N 951.896 0.746133 -1.38819 0
M  V30 10076 C 953.143 1.50545 -1.35434 0
M  V30 10077 C 953.471 1.94427 0.0532669 0
M  V30 10078 O 952.726 1.66285 1.03188 0
M  V30 10079 C 953.025 2.76639 -2.26286 0
M  V30 10080 C 952.691 2.51682 -3.74122 0
M  V30 10081 C 951.353 2.44584 -4.14406 0
M  V30 10082 C 953.705 2.30071 -4.67672 0
M  V30 10083 C 951.033 2.13902 -5.46318 0
M  V30 10084 C 953.385 2.00907 -5.99849 0
M  V30 10085 C 952.049 1.92271 -6.39209 0
M  V30 10086 H 951.319 0.550883 -0.49559 0
M  V30 10087 H 953.966 0.857337 -1.71237 0
M  V30 10088 H 952.271 3.46138 -1.83564 0
M  V30 10089 H 953.968 3.34626 -2.20967 0
M  V30 10090 H 950.558 2.5808 -3.42188 0
M  V30 10091 H 954.742 2.34528 -4.3739 0
M  V30 10092 H 949.998 2.0573 -5.75748 0
M  V30 10093 H 954.172 1.83191 -6.71874 0
M  V30 10094 H 951.799 1.68261 -7.41345 0
M  V30 10095 N 953.375 1.23811 0.975125 0
M  V30 10096 C 954.338 1.02505 2.05001 0
M  V30 10097 C 955.338 -0.0150084 1.60793 0
M  V30 10098 O 956.528 0.225246 1.72738 0
M  V30 10099 C 953.66 0.552087 3.364 0
M  V30 10100 H 954.853 1.979 2.25335 0
M  V30 10101 H 952.406 1.05929 1.1493 0
M  V30 10102 H 953.141 -0.405394 3.21756 0
M  V30 10103 H 952.926 1.30267 3.69828 0
M  V30 10104 H 954.416 0.423828 4.15444 0
M  V30 10105 N 954.853 -1.17469 1.05066 0
M  V30 10106 C 955.786 -2.2031 0.594863 0
M  V30 10107 C 956.764 -1.58196 -0.375878 0
M  V30 10108 O 957.948 -1.8629 -0.287798 0
M  V30 10109 C 955.075 -3.38452 -0.129614 0
M  V30 10110 C 954.121 -4.19007 0.795943 0
M  V30 10111 S 954.954 -4.8433 2.28441 0
M  V30 10112 C 956.11 -6.05862 1.57107 0
M  V30 10113 H 956.343 -2.58632 1.46618 0
M  V30 10114 H 953.876 -1.28063 0.862511 0
M  V30 10115 H 955.834 -4.06914 -0.541416 0
M  V30 10116 H 954.495 -2.98521 -0.976948 0
M  V30 10117 H 953.688 -5.0345 0.235396 0
M  V30 10118 H 953.29 -3.55976 1.14705 0
M  V30 10119 H 955.582 -6.71895 0.86969 0
M  V30 10120 H 956.525 -6.66442 2.39292 0
M  V30 10121 H 956.933 -5.54477 1.05903 0
M  V30 10122 N 956.331 -0.831506 -1.3388 0
M  V30 10123 C 957.278 -0.257449 -2.2936 0
M  V30 10124 C 958.248 0.622604 -1.5399 0
M  V30 10125 O 959.433 0.562432 -1.82322 0
M  V30 10126 C 956.573 0.567587 -3.404 0
M  V30 10127 C 955.686 -0.335666 -4.30694 0
M  V30 10128 C 954.821 0.499762 -5.28844 0
M  V30 10129 C 953.86 -0.402343 -6.10776 0
M  V30 10130 N 952.997 0.39452 -7.00991 0
M  V30 10131 H 957.837 -1.077 -2.77857 0
M  V30 10132 H 955.374 -0.542589 -1.36727 0
M  V30 10133 H 957.332 1.06133 -4.03474 0
M  V30 10134 H 955.962 1.35217 -2.93115 0
M  V30 10135 H 955.014 -0.94768 -3.68406 0
M  V30 10136 H 956.326 -1.02896 -4.88072 0
M  V30 10137 H 955.48 1.05763 -5.9741 0
M  V30 10138 H 954.219 1.22652 -4.72025 0
M  V30 10139 H 953.224 -0.972288 -5.41135 0
M  V30 10140 H 954.449 -1.12735 -6.69677 0
M  V30 10141 H 952.395 1.1048 -6.4663 0
M  V30 10142 H 952.312 -0.240209 -7.55618 0
M  V30 10143 H 953.58 0.934867 -7.73874 0
M  V30 10144 N 957.809 1.4625 -0.587256 0
M  V30 10145 C 958.756 2.30354 0.143384 0
M  V30 10146 C 959.726 1.40891 0.879716 0
M  V30 10147 O 960.911 1.69837 0.869486 0
M  V30 10148 C 958.051 3.25441 1.14815 0
M  V30 10149 C 957.164 4.30004 0.414792 0
M  V30 10150 C 956.299 5.12214 1.40748 0
M  V30 10151 C 955.338 6.08523 0.660786 0
M  V30 10152 N 954.475 6.83585 1.60176 0
M  V30 10153 H 959.315 2.92304 -0.579866 0
M  V30 10154 H 956.852 1.44055 -0.29777 0
M  V30 10155 H 958.81 3.79018 1.7436 0
M  V30 10156 H 957.44 2.6529 1.83906 0
M  V30 10157 H 956.492 3.79248 -0.295787 0
M  V30 10158 H 957.804 4.98515 -0.168738 0
M  V30 10159 H 956.958 5.70091 2.0756 0
M  V30 10160 H 955.697 4.43675 2.02494 0
M  V30 10161 H 954.702 5.49796 -0.0210864 0
M  V30 10162 H 955.927 6.79083 0.0486551 0
M  V30 10163 H 953.873 6.17752 2.20724 0
M  V30 10164 H 953.79 7.48373 1.07115 0
M  V30 10165 H 955.058 7.46016 2.26009 0
M  V30 10166 N 959.287 0.325282 1.54207 0
M  V30 10167 C 960.234 -0.539889 2.24397 0
M  V30 10168 C 961.204 -1.11028 1.2354 0
M  V30 10169 O 962.389 -1.1503 1.52226 0
M  V30 10170 C 959.529 -1.69405 3.00659 0
M  V30 10171 C 958.642 -1.15273 4.16337 0
M  V30 10172 C 957.777 -2.27272 4.80126 0
M  V30 10173 C 956.816 -1.70397 5.87904 0
M  V30 10174 N 955.953 -2.76065 6.45548 0
M  V30 10175 H 960.793 0.0652318 2.97929 0
M  V30 10176 H 958.33 0.043964 1.47034 0
M  V30 10177 H 960.288 -2.37325 3.43122 0
M  V30 10178 H 958.918 -2.27043 2.29458 0
M  V30 10179 H 957.97 -0.365034 3.78645 0
M  V30 10180 H 959.282 -0.696576 4.93912 0
M  V30 10181 H 958.436 -3.03092 5.25566 0
M  V30 10182 H 957.175 -2.76224 4.01935 0
M  V30 10183 H 956.18 -0.930752 5.41864 0
M  V30 10184 H 957.405 -1.22319 6.67993 0
M  V30 10185 H 955.351 -3.24306 5.7023 0
M  V30 10186 H 955.268 -2.35018 7.18542 0
M  V30 10187 H 956.536 -3.5171 6.95644 0
M  V30 10188 N 960.765 -1.57509 0.0534917 0
M  V30 10189 C 962.012 -1.92782 -0.619772 0
M  V30 10190 C 962.34 -0.932046 -1.70714 0
M  V30 10191 O 961.595 0.0552891 -1.95622 0
M  V30 10192 C 961.894 -3.34734 -1.25251 0
M  V30 10193 C 961.56 -4.49946 -0.293113 0
M  V30 10194 C 960.222 -4.81191 -0.0291223 0
M  V30 10195 C 962.574 -5.19925 0.364271 0
M  V30 10196 C 959.902 -5.79761 0.899649 0
M  V30 10197 C 962.254 -6.19489 1.28125 0
M  V30 10198 C 960.918 -6.49161 1.55389 0
M  V30 10199 H 960.188 -0.705441 -0.226791 0
M  V30 10200 H 962.835 -1.91121 0.120466 0
M  V30 10201 H 961.14 -3.32774 -2.06807 0
M  V30 10202 H 962.837 -3.59308 -1.78042 0
M  V30 10203 H 959.427 -4.25566 -0.509053 0
M  V30 10204 H 963.611 -4.95997 0.173411 0
M  V30 10205 H 958.867 -6.01085 1.11833 0
M  V30 10206 H 963.041 -6.72824 1.79669 0
M  V30 10207 H 960.668 -7.25354 2.2752 0
M  V30 10208 N 962.243 0.219913 -1.56058 0
M  V30 10209 C 963.175 1.29604 -1.89038 0
M  V30 10210 C 964.188 1.42964 -0.778791 0
M  V30 10211 O 965.377 1.43832 -1.0571 0
M  V30 10212 C 962.477 2.67145 -2.08534 0
M  V30 10213 C 961.65 2.75712 -3.39561 0
M  V30 10214 C 960.709 3.94279 -3.48469 0
M  V30 10215 O 959.735 3.8254 -4.21487 0
M  V30 10216 N 960.937 5.08655 -2.79732 0
M  V30 10217 H 963.702 1.01638 -2.81939 0
M  V30 10218 H 961.263 0.409945 -1.56624 0
M  V30 10219 H 963.255 3.44847 -2.11808 0
M  V30 10220 H 961.825 2.87704 -1.2225 0
M  V30 10221 H 961.045 1.84475 -3.48371 0
M  V30 10222 H 962.333 2.78407 -4.25872 0
M  V30 10223 H 961.731 5.21088 -2.2019 0
M  V30 10224 H 960.288 5.84394 -2.88665 0
M  V30 10225 N 963.721 1.49897 0.486681 0
M  V30 10226 C 964.969 1.59789 1.23742 0
M  V30 10227 C 965.29 0.293056 1.92785 0
M  V30 10228 O 964.56 -0.688534 1.83401 0
M  V30 10229 H 963.14 0.588775 0.459731 0
M  V30 10230 H 965.802 1.86597 0.562808 0
M  V30 10231 H 964.898 2.40121 1.9937 0
M  V30 10232 N 965.199 -0.738761 1.39212 0
M  V30 10233 C 966.146 -1.85273 1.37631 0
M  V30 10234 C 967.116 -1.64407 0.236572 0
M  V30 10235 O 968.301 -1.85866 0.431104 0
M  V30 10236 C 965.441 -3.22745 1.22188 0
M  V30 10237 C 964.554 -3.55342 2.45674 0
M  V30 10238 C 963.689 -4.82195 2.22847 0
M  V30 10239 C 962.728 -5.07625 3.42029 0
M  V30 10240 N 961.865 -6.25679 3.18543 0
M  V30 10241 H 966.705 -1.85959 2.32859 0
M  V30 10242 H 964.242 -0.908716 1.15675 0
M  V30 10243 H 966.2 -4.02095 1.11245 0
M  V30 10244 H 964.83 -3.21347 0.30592 0
M  V30 10245 H 963.882 -2.70722 2.67233 0
M  V30 10246 H 965.194 -3.70054 3.34457 0
M  V30 10247 H 964.348 -5.69518 2.09126 0
M  V30 10248 H 963.087 -4.6965 1.31454 0
M  V30 10249 H 962.092 -4.18765 3.56253 0
M  V30 10250 H 963.317 -5.22058 4.34319 0
M  V30 10251 H 961.263 -6.14429 2.2981 0
M  V30 10252 H 961.18 -6.40961 4.0088 0
M  V30 10253 H 962.448 -7.15851 3.08508 0
M  V30 10254 N 966.677 -1.24326 -0.968545 0
M  V30 10255 C 967.954 -0.990459 -1.68669 0
M  V30 10256 C 968.334 0.487487 -2.05394 0
M  V30 10257 O 967.682 1.46158 -1.75642 0
M  V30 10258 C 967.892 -1.91251 -2.91931 0
M  V30 10259 C 969.24 -2.18291 -3.6419 0
M  V30 10260 O 970.264 -1.88897 -3.01987 0
M  V30 10261 O 969.123 -2.68204 -4.76161 0
M  V30 10262 H 966.217 -0.374515 -0.737338 0
M  V30 10263 H 968.763 -1.35421 -1.02271 0
M  V30 10264 H 967.535 -2.9111 -2.61478 0
M  V30 10265 H 967.158 -1.55188 -3.66064 0
M  V30 10266 N 968.156 1.1691 -1.05688 0
M  V30 10267 C 969.384 1.91204 -0.790485 0
M  V30 10268 C 969.799 1.77095 0.654434 0
M  V30 10269 O 969.156 1.11146 1.44751 0
M  V30 10270 C 969.207 3.42108 -1.16808 0
M  V30 10271 O 968.928 3.55788 -2.55629 0
M  V30 10272 C 970.429 4.33466 -0.92855 0
M  V30 10273 H 967.649 0.606508 -0.287035 0
M  V30 10274 H 970.193 1.48225 -1.40888 0
M  V30 10275 H 968.348 3.82814 -0.59434 0
M  V30 10276 H 968.762 4.49321 -2.70575 0
M  V30 10277 H 970.236 5.37836 -1.24245 0
M  V30 10278 H 970.713 4.38989 0.136016 0
M  V30 10279 H 971.319 3.98481 -1.48638 0
M  V30 10280 N 969.634 0.838594 1.33437 0
M  V30 10281 C 970.581 0.269609 2.2922 0
M  V30 10282 C 971.551 -0.614429 1.54318 0
M  V30 10283 O 972.736 -0.552756 1.82618 0
M  V30 10284 C 969.876 -0.549527 3.40697 0
M  V30 10285 C 968.989 0.358502 4.3051 0
M  V30 10286 C 968.124 -0.471709 5.29101 0
M  V30 10287 C 967.163 0.434728 6.10554 0
M  V30 10288 N 966.3 -0.357339 7.0119 0
M  V30 10289 H 971.14 1.09172 2.77282 0
M  V30 10290 H 968.677 0.549832 1.36438 0
M  V30 10291 H 970.635 -1.03992 4.04032 0
M  V30 10292 H 969.265 -1.33661 2.93828 0
M  V30 10293 H 968.317 0.967204 3.67899 0
M  V30 10294 H 969.629 1.05483 4.87519 0
M  V30 10295 H 968.783 -1.02594 5.97963 0
M  V30 10296 H 967.522 -1.20147 4.72669 0
M  V30 10297 H 966.527 1.00097 5.40611 0
M  V30 10298 H 967.752 1.16285 6.6907 0
M  V30 10299 H 965.698 -1.07049 6.47207 0
M  V30 10300 H 965.615 0.280277 7.5548 0
M  V30 10301 H 966.883 -0.893814 7.74359 0
M  V30 10302 N 971.112 -1.45937 0.595003 0
M  V30 10303 C 972.075 -2.2888 -0.121102 0
M  V30 10304 C 973.075 -1.39075 -0.807149 0
M  V30 10305 O 974.265 -1.61326 -0.657228 0
M  V30 10306 C 971.397 -3.19778 -1.1813 0
M  V30 10307 H 972.59 -2.93673 0.607968 0
M  V30 10308 H 970.143 -1.5225 0.353495 0
M  V30 10309 H 970.878 -2.59759 -1.94154 0
M  V30 10310 H 970.663 -3.85914 -0.693724 0
M  V30 10311 H 972.153 -3.82176 -1.68319 0
M  V30 10312 N 972.59 -0.333456 -1.54032 0
M  V30 10313 C 973.815 0.270517 -2.05628 0
M  V30 10314 C 974.24 1.44231 -1.20744 0
M  V30 10315 O 973.598 1.79975 -0.218822 0
M  V30 10316 C 973.646 0.673251 -3.54259 0
M  V30 10317 O 972.75 1.77448 -3.72271 0
M  V30 10318 H 972.091 0.0469753 -0.662336 0
M  V30 10319 H 974.621 -0.484739 -1.98775 0
M  V30 10320 H 974.631 0.953194 -3.96709 0
M  V30 10321 H 973.306 -0.183747 -4.15494 0
M  V30 10322 H 971.883 1.49259 -3.41725 0
M  V30 10323 N 974.068 1.57479 -0.061844 0
M  V30 10324 C 975.345 1.84484 0.649993 0
M  V30 10325 C 975.725 0.952366 1.88396 0
M  V30 10326 O 975.073 0.0161035 2.28494 0
M  V30 10327 C 975.283 3.34452 0.997133 0
M  V30 10328 C 976.631 4.01724 1.37488 0
M  V30 10329 O 977.655 3.3914 1.08916 0
M  V30 10330 O 976.514 5.12091 1.90854 0
M  V30 10331 H 973.608 0.761798 0.321858 0
M  V30 10332 H 976.154 1.6945 -0.0920192 0
M  V30 10333 H 974.926 3.91115 0.120301 0
M  V30 10334 H 974.549 3.54713 1.79624 0
M  V30 10335 N 975.546 -0.211634 1.56173 0
M  V30 10336 C 976.494 -1.28188 1.94089 0
M  V30 10337 C 977.488 -1.47999 0.824167 0
M  V30 10338 O 978.694 -1.49056 1.00907 0
M  V30 10339 H 975.069 -0.42999 0.616938 0
M  V30 10340 H 977.04 -0.934962 2.83374 0
M  V30 10341 C 975.789 -2.62294 2.28248 0
M  V30 10342 H 975.112 -2.4786 3.13696 0
M  V30 10343 H 976.552 -3.35967 2.58655 0
M  V30 10344 C 975.011 -3.18049 1.11113 0
M  V30 10345 O 975.541 -3.99923 0.377458 0
M  V30 10346 N 973.747 -2.76561 0.892321 0
M  V30 10347 H 973.294 -2.10088 1.49067 0
M  V30 10348 H 973.252 -3.14206 0.110344 0
M  V30 10349 N 977.024 -1.50153 -0.478725 0
M  V30 10350 C 977.934 -1.71232 -1.60364 0
M  V30 10351 C 978.95 -0.595269 -1.63501 0
M  V30 10352 O 980.126 -0.872683 -1.81511 0
M  V30 10353 C 977.191 -1.79487 -2.96623 0
M  V30 10354 C 976.252 -3.03185 -3.03937 0
M  V30 10355 C 975.485 -3.11036 -4.33696 0
M  V30 10356 O 975.708 -2.2588 -5.23769 0
M  V30 10357 O 974.642 -4.03698 -4.46443 0
M  V30 10358 H 978.468 -2.66575 -1.45505 0
M  V30 10359 H 976.053 -1.34158 -0.65741 0
M  V30 10360 H 977.935 -1.8714 -3.77567 0
M  V30 10361 H 976.61 -0.873264 -3.11698 0
M  V30 10362 H 975.517 -3.01036 -2.22099 0
M  V30 10363 H 976.85 -3.94898 -2.93796 0
M  V30 10364 N 978.502 0.731368 -1.39602 0
M  V30 10365 C 979.918 1.03739 -1.21286 0
M  V30 10366 C 980.118 2.01353 -0.0769875 0
M  V30 10367 O 979.174 2.45978 0.570193 0
M  V30 10368 C 980.487 1.59621 -2.54837 0
M  V30 10369 C 982.035 1.71683 -2.61713 0
M  V30 10370 C 982.51 2.30973 -3.95494 0
M  V30 10371 N 984.001 2.38378 -3.97153 0
M  V30 10372 C 984.736 2.852 -4.97442 0
M  V30 10373 N 984.232 3.31891 -6.08129 0
M  V30 10374 N 986.025 2.84441 -4.84819 0
M  V30 10375 H 978.176 0.0840456 -2.12234 0
M  V30 10376 H 980.439 0.0999038 -0.942721 0
M  V30 10377 H 980.145 0.953608 -3.38525 0
M  V30 10378 H 980.019 2.58375 -2.74813 0
M  V30 10379 H 982.406 2.35064 -1.78406 0
M  V30 10380 H 982.487 0.715714 -2.45583 0
M  V30 10381 H 982.131 1.68219 -4.79234 0
M  V30 10382 H 982.061 3.31769 -4.08946 0
M  V30 10383 H 984.552 2.05382 -3.17217 0
M  V30 10384 H 984.865 3.66138 -6.8056 0
M  V30 10385 H 983.21 3.2989 -6.11717 0
M  V30 10386 H 986.401 2.4729 -3.97448 0
M  V30 10387 H 986.574 3.20616 -5.63124 0
M  V30 10388 N 979.98 1.24838 0.961938 0
M  V30 10389 C 980.927 1.04582 2.05745 0
M  V30 10390 C 981.897 -0.0427281 1.66045 0
M  V30 10391 O 983.082 0.113026 1.90465 0
M  V30 10392 C 980.222 0.66284 3.38675 0
M  V30 10393 C 979.335 1.82548 3.91536 0
M  V30 10394 C 978.47 1.38753 5.12758 0
M  V30 10395 C 977.509 2.51976 5.5783 0
M  V30 10396 N 976.646 2.09009 6.70268 0
M  V30 10397 H 981.486 1.98343 2.22405 0
M  V30 10398 H 979.023 0.987822 1.08998 0
M  V30 10399 H 980.981 0.421788 4.15062 0
M  V30 10400 H 979.611 -0.237776 3.21923 0
M  V30 10401 H 978.663 2.18004 3.11735 0
M  V30 10402 H 979.975 2.67601 4.20941 0
M  V30 10403 H 979.129 1.1057 5.96539 0
M  V30 10404 H 977.868 0.507618 4.85051 0
M  V30 10405 H 976.873 2.80912 4.72619 0
M  V30 10406 H 978.098 3.40534 5.87549 0
M  V30 10407 H 976.044 1.23423 6.44285 0
M  V30 10408 H 975.961 2.87613 6.99153 0
M  V30 10409 H 977.229 1.83981 7.57477 0
M  V30 10410 N 981.458 -1.16348 1.06306 0
M  V30 10411 C 982.704 -1.87158 0.781007 0
M  V30 10412 C 983.037 -1.81499 -0.690784 0
M  V30 10413 O 982.312 -1.23074 -1.50609 0
M  V30 10414 C 982.595 -3.3672 1.27639 0
M  V30 10415 C 982.448 -3.51069 2.81194 0
M  V30 10416 C 983.767 -4.31122 0.884388 0
M  V30 10417 H 980.886 -0.679586 0.285187 0
M  V30 10418 H 983.528 -1.36756 1.31901 0
M  V30 10419 H 981.678 -3.79775 0.818715 0
M  V30 10420 H 983.35 -3.16952 3.35171 0
M  V30 10421 H 981.593 -2.92976 3.19918 0
M  V30 10422 H 982.264 -4.56105 3.10921 0
M  V30 10423 H 984.74 -3.95969 1.27858 0
M  V30 10424 H 983.616 -5.34279 1.25847 0
M  V30 10425 H 983.877 -4.41598 -0.210673 0
M  V30 10426 N 982.937 -0.845659 -1.3299 0
M  V30 10427 C 983.87 -0.228695 -2.27051 0
M  V30 10428 C 984.848 0.62812 -1.49978 0
M  V30 10429 O 986.032 0.586897 -1.79131 0
M  V30 10430 C 983.159 0.678251 -3.31839 0
M  V30 10431 C 982.205 -0.103994 -4.26373 0
M  V30 10432 S 983.038 -1.46642 -5.1503 0
M  V30 10433 C 984.194 -0.564953 -6.23345 0
M  V30 10434 H 984.427 -1.02609 -2.79032 0
M  V30 10435 H 981.96 -0.642786 -1.40384 0
M  V30 10436 H 983.918 1.1959 -3.92694 0
M  V30 10437 H 982.579 1.44937 -2.78661 0
M  V30 10438 H 981.772 0.586406 -5.00577 0
M  V30 10439 H 981.374 -0.552927 -3.6989 0
M  V30 10440 H 983.666 0.234466 -6.77094 0
M  V30 10441 H 984.609 -1.27736 -6.96483 0
M  V30 10442 H 985.017 -0.143286 -5.64318 0
M  V30 10443 N 984.415 1.45619 -0.602734 0
M  V30 10444 C 985.692 1.9558 -0.0282472 0
M  V30 10445 C 986.072 1.54523 1.43826 0
M  V30 10446 O 985.42 0.805456 2.13833 0
M  V30 10447 C 985.63 3.48298 -0.221263 0
M  V30 10448 C 986.978 4.24483 -0.0995249 0
M  V30 10449 O 988.002 3.55879 -0.151132 0
M  V30 10450 O 986.861 5.46497 0.0194454 0
M  V30 10451 H 983.955 0.826104 0.0384897 0
M  V30 10452 H 986.501 1.55808 -0.672456 0
M  V30 10453 H 985.273 3.71134 -1.23997 0
M  V30 10454 H 984.896 3.94948 0.458437 0
M  V30 10455 N 985.893 0.34162 1.53853 0
M  V30 10456 C 986.803 -0.524555 2.2866 0
M  V30 10457 C 987.819 -1.1136 1.33697 0
M  V30 10458 O 988.995 -1.1297 1.66732 0
M  V30 10459 C 986.06 -1.66065 3.04341 0
M  V30 10460 C 985.121 -1.10158 4.14926 0
M  V30 10461 C 984.354 -2.18353 4.86988 0
M  V30 10462 O 984.577 -3.39038 4.58704 0
M  V30 10463 O 983.511 -1.82756 5.73484 0
M  V30 10464 H 987.337 0.0835014 3.03585 0
M  V30 10465 H 984.922 0.106727 1.49018 0
M  V30 10466 H 986.804 -2.3217 3.51674 0
M  V30 10467 H 985.479 -2.25456 2.32275 0
M  V30 10468 H 984.386 -0.405109 3.719 0
M  V30 10469 H 985.719 -0.552567 4.89088 0
M  V30 10470 N 987.371 -1.57444 0.0701946 0
M  V30 10471 C 988.334 -2.11511 -0.882923 0
M  V30 10472 C 989.334 -1.03879 -1.22743 0
M  V30 10473 O 990.524 -1.29874 -1.16097 0
M  V30 10474 C 987.656 -2.61514 -2.18686 0
M  V30 10475 H 988.849 -2.9703 -0.413873 0
M  V30 10476 H 986.402 -1.55278 -0.178488 0
M  V30 10477 H 987.137 -1.79443 -2.70131 0
M  V30 10478 H 986.922 -3.40185 -1.94978 0
M  V30 10479 H 988.412 -3.03425 -2.86919 0
M  V30 10480 N 988.849 0.203349 -1.56283 0
M  V30 10481 C 989.797 1.27157 -1.94766 0
M  V30 10482 C 990.791 1.4756 -0.832005 0
M  V30 10483 O 991.997 1.48519 -1.01696 0
M  V30 10484 H 988.372 0.426712 -0.61921 0
M  V30 10485 H 990.343 0.919921 -2.83866 0
M  V30 10486 C 989.092 2.6108 -2.29636 0
M  V30 10487 H 988.415 2.46193 -3.15006 0
M  V30 10488 H 989.855 3.34591 -2.60433 0
M  V30 10489 C 988.314 3.17456 -1.12799 0
M  V30 10490 O 988.844 3.99717 -0.398661 0
M  V30 10491 N 987.05 2.76084 -0.906975 0
M  V30 10492 H 986.597 2.09294 -1.50179 0
M  V30 10493 H 986.555 3.14143 -0.127005 0
M  V30 10494 N 990.327 1.50405 0.470755 0
M  V30 10495 C 991.257 1.72222 1.57676 0
M  V30 10496 C 992.238 0.57121 1.60222 0
M  V30 10497 O 993.423 0.810381 1.76484 0
M  V30 10498 C 990.553 1.81666 2.95998 0
M  V30 10499 C 989.507 2.96857 3.08318 0
M  V30 10500 C 988.833 2.91445 4.4829 0
M  V30 10501 C 990.133 4.37361 2.85504 0
M  V30 10502 H 991.827 2.64825 1.39671 0
M  V30 10503 H 989.373 1.27438 0.67049 0
M  V30 10504 H 991.326 1.95514 3.73299 0
M  V30 10505 H 990.05 0.856856 3.1516 0
M  V30 10506 H 988.709 2.82661 2.33449 0
M  V30 10507 H 988.357 1.93309 4.64371 0
M  V30 10508 H 988.057 3.68776 4.57469 0
M  V30 10509 H 989.581 3.07341 5.27611 0
M  V30 10510 H 990.995 4.52081 3.52555 0
M  V30 10511 H 989.392 5.16145 3.06127 0
M  V30 10512 H 990.462 4.49708 1.81359 0
M  V30 10513 N 991.805 -0.723954 1.39988 0
M  V30 10514 C 992.715 -1.86829 1.41887 0
M  V30 10515 C 993.731 -1.71173 0.312401 0
M  V30 10516 O 994.907 -1.93583 0.555651 0
M  V30 10517 C 991.972 -3.22541 1.27154 0
M  V30 10518 C 991.033 -3.50512 2.47871 0
M  V30 10519 C 990.266 -4.79749 2.33831 0
M  V30 10520 O 990.489 -5.54251 1.34765 0
M  V30 10521 O 989.423 -5.07868 3.23039 0
M  V30 10522 H 993.249 -1.88183 2.38371 0
M  V30 10523 H 990.834 -0.873259 1.21221 0
M  V30 10524 H 992.716 -4.0362 1.21114 0
M  V30 10525 H 991.391 -3.21933 0.337715 0
M  V30 10526 H 990.298 -2.69475 2.59488 0
M  V30 10527 H 991.631 -3.55909 3.39985 0
M  V30 10528 N 993.283 -1.25346 -0.955304 0
M  V30 10529 C 994.53 -1.10055 -1.69983 0
M  V30 10530 C 994.858 0.358586 -1.91166 0
M  V30 10531 O 994.113 1.28071 -1.47974 0
M  V30 10532 C 994.412 -1.7993 -3.08804 0
M  V30 10533 C 994.078 -3.29851 -3.07424 0
M  V30 10534 C 992.74 -3.7075 -3.06754 0
M  V30 10535 C 995.092 -4.25636 -3.00805 0
M  V30 10536 C 992.42 -5.05847 -2.97214 0
M  V30 10537 C 994.772 -5.60756 -2.92806 0
M  V30 10538 C 993.436 -6.00984 -2.90472 0
M  V30 10539 H 992.706 -0.402718 -0.622012 0
M  V30 10540 H 995.353 -1.5561 -1.11614 0
M  V30 10541 H 993.658 -1.26803 -3.70713 0
M  V30 10542 H 995.355 -1.65551 -3.65231 0
M  V30 10543 H 991.945 -2.97308 -3.08716 0
M  V30 10544 H 996.129 -3.9503 -3.00441 0
M  V30 10545 H 991.385 -5.36196 -2.93775 0
M  V30 10546 H 995.559 -6.34671 -2.86645 0
M  V30 10547 H 993.186 -7.05626 -2.82835 0
M  V30 10548 N 994.761 1.15782 -1.06922 0
M  V30 10549 C 995.691 2.22538 -0.707045 0
M  V30 10550 C 996.672 1.67371 0.303471 0
M  V30 10551 O 997.857 1.9339 0.177189 0
M  V30 10552 C 994.987 3.47158 -0.0994269 0
M  V30 10553 C 993.941 4.15257 -1.03661 0
M  V30 10554 C 993.267 5.33902 -0.291974 0
M  V30 10555 C 994.567 4.65516 -2.36837 0
M  V30 10556 H 996.261 2.53089 -1.59958 0
M  V30 10557 H 993.807 1.21649 -0.770552 0
M  V30 10558 H 995.76 4.21073 0.165852 0
M  V30 10559 H 994.484 3.15926 0.828155 0
M  V30 10560 H 993.143 3.43276 -1.28674 0
M  V30 10561 H 992.791 4.98926 0.638928 0
M  V30 10562 H 992.491 5.80407 -0.916613 0
M  V30 10563 H 994.015 6.1059 -0.0343915 0
M  V30 10564 H 995.429 5.30981 -2.16175 0
M  V30 10565 H 993.826 5.22666 -2.94856 0
M  V30 10566 H 994.896 3.81387 -2.99453 0
M  V30 10567 N 996.239 0.8527 1.3254 0
M  V30 10568 C 997.187 0.284659 2.30852 0
M  V30 10569 C 998.181 -0.5909 1.5876 0
M  V30 10570 O 999.387 -0.478922 1.73512 0
M  V30 10571 H 995.762 0.0733452 0.748415 0
M  V30 10572 H 997.733 1.1281 2.76254 0
M  V30 10573 C 996.482 -0.51379 3.43883 0
M  V30 10574 H 995.805 0.150644 3.99516 0
M  V30 10575 H 997.245 -0.876866 4.14834 0
M  V30 10576 C 995.704 -1.69823 2.90967 0
M  V30 10577 O 996.234 -2.79727 2.88298 0
M  V30 10578 N 994.44 -1.52465 2.47392 0
M  V30 10579 H 993.987 -0.630599 2.49762 0
M  V30 10580 H 993.945 -2.31859 2.12341 0
M  V30 10581 N 997.718 -1.45297 0.610449 0
M  V30 10582 C 998.666 -2.32295 -0.119167 0
M  V30 10583 C 999.66 -1.46138 -0.856746 0
M  V30 10584 O 1000.87 -1.62605 -0.771988 0
M  V30 10585 H 997.241 -0.749815 -0.0572881 0
M  V30 10586 H 999.212 -2.91609 0.63297 0
M  V30 10587 C 997.961 -3.29802 -1.10119 0
M  V30 10588 H 997.284 -3.96095 -0.543063 0
M  V30 10589 H 998.724 -3.93398 -1.58158 0
M  V30 10590 C 997.183 -2.57185 -2.17617 0
M  V30 10591 O 997.713 -2.35535 -3.25401 0
M  V30 10592 N 995.919 -2.17272 -1.9298 0
M  V30 10593 H 995.466 -2.3508 -1.05334 0
M  V30 10594 H 995.424 -1.69009 -2.6511 0
M  V30 10595 N 999.196 -0.349774 -1.5367 0
M  V30 10596 C 1000.44 0.244343 -2.00617 0
M  V30 10597 C 1000.76 1.50567 -1.23914 0
M  V30 10598 O 1000.03 1.92784 -0.348016 0
M  V30 10599 H 998.615 0.0932792 -0.741153 0
M  V30 10600 H 1001.28 -0.472367 -1.89089 0
M  V30 10601 H 1000.37 0.482433 -3.08349 0
M  V30 10602 N 1000.67 1.57404 -0.0785433 0
M  V30 10603 C 1001.58 2.16612 0.900902 0
M  V30 10604 C 1002.6 1.13109 1.32221 0
M  V30 10605 O 1003.78 1.45406 1.39352 0
M  V30 10606 C 1000.84 2.7215 2.14791 0
M  V30 10607 C 999.902 3.90551 1.78237 0
M  V30 10608 C 999.135 4.43431 2.96993 0
M  V30 10609 O 999.358 3.95292 4.11218 0
M  V30 10610 O 998.292 5.34674 2.76418 0
M  V30 10611 H 1002.12 3.0068 0.427227 0
M  V30 10612 H 999.703 1.48696 0.144902 0
M  V30 10613 H 1001.58 3.07718 2.87902 0
M  V30 10614 H 1000.26 1.91139 2.61243 0
M  V30 10615 H 999.167 3.59825 1.02357 0
M  V30 10616 H 1000.5 4.72876 1.36562 0
M  V30 10617 N 1002.15 -0.195058 1.56388 0
M  V30 10618 C 1003.1 -1.24584 1.90952 0
M  V30 10619 C 1004.09 -1.40993 0.77522 0
M  V30 10620 O 1005.28 -1.43363 1.03808 0
M  V30 10621 C 1002.41 -2.59064 2.25258 0
M  V30 10622 C 1001.49 -2.46447 3.45145 0
M  V30 10623 N 1001.88 -2.0351 4.63052 0
M  V30 10624 C 1000.18 -2.77339 3.49283 0
M  V30 10625 C 1000.88 -2.02785 5.45209 0
M  V30 10626 N 999.859 -2.4429 4.85616 0
M  V30 10627 H 1003.66 -0.9052 2.79613 0
M  V30 10628 H 1001.17 -0.403493 1.57308 0
M  V30 10629 H 1003.17 -3.34963 2.48205 0
M  V30 10630 H 1001.83 -2.93951 1.37924 0
M  V30 10631 H 1002.84 -1.74219 4.87717 0
M  V30 10632 H 999.52 -3.16423 2.72365 0
M  V30 10633 H 1000.91 -1.71489 6.49647 0
M  V30 10634 N 1003.63 -1.50653 -0.462772 0
M  V30 10635 C 1004.88 -1.62057 -1.21424 0
M  V30 10636 C 1005.2 -0.324778 -1.91769 0
M  V30 10637 O 1004.46 0.689828 -1.83139 0
M  V30 10638 C 1004.76 -2.75637 -2.27507 0
M  V30 10639 C 1004.42 -4.15826 -1.74354 0
M  V30 10640 C 1003.09 -4.53969 -1.5958 0
M  V30 10641 C 1005.44 -5.03409 -1.35012 0
M  V30 10642 C 1002.77 -5.77427 -1.03899 0
M  V30 10643 C 1005.12 -6.27422 -0.807704 0
M  V30 10644 C 1003.78 -6.6436 -0.646657 0
M  V30 10645 H 1003.05 -0.59301 -0.44432 0
M  V30 10646 H 1005.7 -1.84612 -0.508999 0
M  V30 10647 H 1004 -2.47203 -3.0397 0
M  V30 10648 H 1005.7 -2.81663 -2.85424 0
M  V30 10649 H 1002.29 -3.85739 -1.86823 0
M  V30 10650 H 1006.48 -4.74567 -1.45258 0
M  V30 10651 H 1001.73 -6.04713 -0.901751 0
M  V30 10652 H 1005.91 -6.94644 -0.494234 0
M  V30 10653 H 1003.53 -7.59901 -0.213053 0
M  V30 10654 N 1005.11 0.71652 -1.4037 0
M  V30 10655 C 1006.35 1.47857 -1.38803 0
M  V30 10656 C 1006.69 1.94197 0.0100536 0
M  V30 10657 O 1005.96 1.68093 0.978521 0
M  V30 10658 C 1006.25 2.7053 -2.37667 0
M  V30 10659 C 1006.1 2.3009 -3.86496 0
M  V30 10660 C 1007.42 3.72684 -2.34082 0
M  V30 10661 H 1004.54 0.53632 -0.505499 0
M  V30 10662 H 1007.18 0.817824 -1.71498 0
M  V30 10663 H 1005.33 3.26906 -2.09916 0
M  V30 10664 H 1007 1.79202 -4.2507 0
M  V30 10665 H 1005.24 1.62102 -4.02375 0
M  V30 10666 H 1005.91 3.18018 -4.51186 0
M  V30 10667 H 1008.39 3.25935 -2.58661 0
M  V30 10668 H 1007.27 4.56157 -3.05306 0
M  V30 10669 H 1007.53 4.20916 -1.35213 0
M  V30 10670 N 1006.59 1.25851 0.948643 0
M  V30 10671 C 1008 1.09975 1.50872 0
M  V30 10672 C 1008.35 -0.322497 1.93531 0
M  V30 10673 O 1007.47 -1.21316 1.79197 0
M  V30 10674 C 1008.07 1.99021 2.74182 0
M  V30 10675 C 1006.63 1.87313 3.26483 0
M  V30 10676 C 1005.77 1.92815 1.99293 0
M  V30 10677 H 1008.73 1.3905 0.764908 0
M  V30 10678 H 1008.75 1.53372 3.4822 0
M  V30 10679 H 1008.26 3.02527 2.43103 0
M  V30 10680 H 1006.36 0.867136 3.62369 0
M  V30 10681 H 1006.47 2.72446 3.94094 0
M  V30 10682 H 1004.84 1.36774 2.1486 0
M  V30 10683 H 1005.62 2.97936 1.70554 0
M  V30 10684 N 1008.06 -1.15214 1.07534 0
M  V30 10685 C 1009.29 -1.90463 0.820883 0
M  V30 10686 C 1009.71 -1.77578 -0.620305 0
M  V30 10687 O 1009.07 -1.10976 -1.43366 0
M  V30 10688 C 1009.12 -3.38746 1.23627 0
M  V30 10689 O 1008.22 -4.1062 0.382715 0
M  V30 10690 H 1007.57 -0.59292 0.298901 0
M  V30 10691 H 1010.1 -1.45893 1.43445 0
M  V30 10692 H 1010.11 -3.89543 1.21327 0
M  V30 10693 H 1008.78 -3.47443 2.28596 0
M  V30 10694 H 1007.36 -3.69947 0.468374 0
M  V30 10695 N 1009.54 -0.859717 -1.32086 0
M  V30 10696 C 1010.51 -0.313005 -2.27053 0
M  V30 10697 C 1011.51 0.530191 -1.51808 0
M  V30 10698 O 1012.7 0.340972 -1.7083 0
M  V30 10699 C 1009.83 0.5566 -3.36325 0
M  V30 10700 H 1011.02 -1.15125 -2.76923 0
M  V30 10701 H 1008.57 -0.634463 -1.42843 0
M  V30 10702 H 1009.31 1.41645 -2.91731 0
M  V30 10703 H 1009.09 -0.0470197 -3.92072 0
M  V30 10704 H 1010.58 0.931725 -4.07073 0
M  V30 10705 N 1011.02 1.44971 -0.618145 0
M  V30 10706 C 1012.27 2.0176 -0.11725 0
M  V30 10707 C 1012.59 1.48773 1.26062 0
M  V30 10708 O 1011.86 0.686152 1.83491 0
M  V30 10709 H 1010.44 0.745909 -0.0403545 0
M  V30 10710 H 1013.1 1.77638 -0.801923 0
M  V30 10711 H 1012.2 3.1201 -0.0750477 0
M  V30 10712 N 1012.5 0.357919 1.53482 0
M  V30 10713 C 1013.73 -0.23514 2.05559 0
M  V30 10714 C 1014.14 -1.43068 1.23195 0
M  V30 10715 O 1013.5 -1.80481 0.270741 0
M  V30 10716 C 1013.55 -0.636147 3.55859 0
M  V30 10717 O 1013.27 0.511864 4.35099 0
M  V30 10718 C 1014.77 -1.28841 4.24164 0
M  V30 10719 H 1011.99 -0.0428446 0.669631 0
M  V30 10720 H 1014.54 0.51407 1.97933 0
M  V30 10721 H 1012.69 -1.33528 3.63661 0
M  V30 10722 H 1013.1 0.189328 5.24158 0
M  V30 10723 H 1014.58 -1.51962 5.30671 0
M  V30 10724 H 1015.06 -2.24638 3.77405 0
M  V30 10725 H 1015.66 -0.630914 4.20594 0
M  V30 10726 N 1013.98 -1.5736 0.0868897 0
M  V30 10727 C 1015.25 -1.85495 -0.620561 0
M  V30 10728 C 1015.63 -0.982218 -1.86857 0
M  V30 10729 O 1014.98 -0.0524529 -2.2844 0
M  V30 10730 C 1015.19 -3.35996 -0.943798 0
M  V30 10731 C 1016.54 -4.03861 -1.31079 0
M  V30 10732 O 1017.56 -3.4083 -1.03507 0
M  V30 10733 O 1016.42 -5.15062 -1.82683 0
M  V30 10734 H 1013.52 -0.766822 -0.309697 0
M  V30 10735 H 1016.06 -1.69282 0.118966 0
M  V30 10736 H 1014.83 -3.91257 -0.0580628 0
M  V30 10737 H 1014.46 -3.57525 -1.73958 0
M  V30 10738 N 1015.45 0.186762 -1.56489 0
M  V30 10739 C 1016.68 0.925916 -1.85584 0
M  V30 10740 C 1017.1 1.75708 -0.671446 0
M  V30 10741 O 1016.46 1.7728 0.379687 0
M  V30 10742 C 1016.51 1.79107 -3.12975 0
M  V30 10743 O 1015.61 2.89088 -2.94112 0
M  V30 10744 H 1014.96 0.260275 -0.610863 0
M  V30 10745 H 1017.49 0.189561 -2.0372 0
M  V30 10746 H 1017.5 2.19408 -3.43983 0
M  V30 10747 H 1016.17 1.18044 -3.98796 0
M  V30 10748 H 1014.75 2.52482 -2.74422 0
M  V30 10749 N 1016.93 1.50896 0.454776 0
M  V30 10750 C 1017.88 1.70947 1.55067 0
M  V30 10751 C 1018.85 0.550899 1.56698 0
M  V30 10752 O 1020.03 0.783352 1.73978 0
M  V30 10753 C 1017.17 1.82455 2.92924 0
M  V30 10754 C 1016.29 3.09919 3.00956 0
M  V30 10755 C 1015.42 3.12125 4.29827 0
M  V30 10756 C 1014.46 4.33975 4.31662 0
M  V30 10757 N 1013.6 4.33828 5.5203 0
M  V30 10758 H 1018.44 2.645 1.37273 0
M  V30 10759 H 1015.98 1.31101 0.667148 0
M  V30 10760 H 1017.93 1.87108 3.72889 0
M  V30 10761 H 1016.56 0.92327 3.09315 0
M  V30 10762 H 1015.62 3.14659 2.13761 0
M  V30 10763 H 1016.93 3.99869 2.98172 0
M  V30 10764 H 1016.08 3.15598 5.18154 0
M  V30 10765 H 1014.82 2.20033 4.35243 0
M  V30 10766 H 1013.83 4.30697 3.41731 0
M  V30 10767 H 1015.05 5.27312 4.27924 0
M  V30 10768 H 1013 3.44598 5.58201 0
M  V30 10769 H 1012.91 5.17566 5.51055 0
M  V30 10770 H 1014.18 4.4147 6.42437 0
M  V30 10771 N 1018.41 -0.709066 1.40748 0
M  V30 10772 C 1019.64 -1.49808 1.42707 0
M  V30 10773 C 1020.05 -1.88778 0.0285574 0
M  V30 10774 O 1019.41 -1.55883 -0.949035 0
M  V30 10775 C 1019.46 -2.76926 2.32366 0
M  V30 10776 O 1019.18 -2.39602 3.66773 0
M  V30 10777 C 1020.68 -3.70773 2.42986 0
M  V30 10778 H 1017.9 -0.462106 0.486517 0
M  V30 10779 H 1020.45 -0.874135 1.84876 0
M  V30 10780 H 1018.6 -3.3559 1.93541 0
M  V30 10781 H 1019.02 -3.21443 4.14457 0
M  V30 10782 H 1020.49 -4.56789 3.09916 0
M  V30 10783 H 1020.97 -4.14332 1.45691 0
M  V30 10784 H 1021.57 -3.18019 2.8239 0
M  V30 10785 N 1019.89 -1.26353 -0.941956 0
M  V30 10786 C 1021.13 -1.13071 -1.70277 0
M  V30 10787 C 1021.49 0.320699 -1.89303 0
M  V30 10788 O 1022.69 0.575624 -2.62564 0
M  V30 10789 C 1020.97 -1.87777 -3.04096 0
M  V30 10790 S 1022.52 -1.9054 -3.95272 0
M  V30 10791 H 1019.34 -0.403912 -0.585129 0
M  V30 10792 H 1021.94 -1.6006 -1.12254 0
M  V30 10793 H 1020.65 -2.92447 -2.87929 0
M  V30 10794 H 1020.18 -1.41226 -3.67177 0
M  V30 10795 H 1022.19 -0.991548 -4.86192 0
M  V30 10796 N 1021.37 1.14642 -1.08144 0
M  V30 10797 C 1022.32 2.21708 -0.703448 0
M  V30 10798 C 1023.31 1.66907 0.289535 0
M  V30 10799 O 1024.52 1.79354 0.152387 0
M  V30 10800 H 1020.89 0.722247 -0.209437 0
M  V30 10801 H 1022.86 2.50862 -1.61588 0
M  V30 10802 C 1021.61 3.47472 -0.125975 0
M  V30 10803 H 1020.93 3.89967 -0.881216 0
M  V30 10804 H 1022.37 4.2388 0.100737 0
M  V30 10805 C 1020.83 3.17189 1.13546 0
M  V30 10806 O 1021.36 3.34733 2.22073 0
M  V30 10807 N 1019.57 2.71169 1.04479 0
M  V30 10808 H 1019.12 2.57093 0.161566 0
M  V30 10809 H 1019.07 2.51282 1.88957 0
M  V30 10810 N 1022.85 0.866709 1.31628 0
M  V30 10811 C 1023.78 0.335762 2.31073 0
M  V30 10812 C 1024.76 -0.571597 1.60209 0
M  V30 10813 O 1025.94 -0.489306 1.87935 0
M  V30 10814 C 1023.07 -0.466416 3.44154 0
M  V30 10815 C 1022.03 0.347561 4.26586 0
M  V30 10816 C 1021.35 -0.5801 5.31544 0
M  V30 10817 C 1022.65 1.57986 4.97833 0
M  V30 10818 H 1024.35 1.16673 2.75731 0
M  V30 10819 H 1021.89 0.56248 1.3256 0
M  V30 10820 H 1023.84 -0.84836 4.12772 0
M  V30 10821 H 1022.57 -1.33086 2.98254 0
M  V30 10822 H 1021.23 0.71141 3.59631 0
M  V30 10823 H 1020.88 -1.44174 4.81895 0
M  V30 10824 H 1020.58 -0.0393965 5.87587 0
M  V30 10825 H 1022.1 -0.958958 6.03023 0
M  V30 10826 H 1023.51 1.26954 5.59067 0
M  V30 10827 H 1021.91 2.05939 5.63657 0
M  V30 10828 H 1022.98 2.3345 4.25005 0
M  V30 10829 N 1024.32 -1.44642 0.625825 0
M  V30 10830 C 1025.6 -1.9551 0.0593587 0
M  V30 10831 C 1025.98 -1.56792 -1.41349 0
M  V30 10832 O 1025.33 -0.839373 -2.12525 0
M  V30 10833 C 1025.54 -3.47902 0.276647 0
M  V30 10834 C 1026.89 -4.24271 0.167044 0
M  V30 10835 O 1027.91 -3.55594 0.207731 0
M  V30 10836 O 1026.77 -5.46458 0.0675 0
M  V30 10837 H 1023.86 -0.826612 -0.0253422 0
M  V30 10838 H 1026.41 -1.54718 0.697159 0
M  V30 10839 H 1025.18 -3.69115 1.29885 0
M  V30 10840 H 1024.8 -3.95628 -0.395547 0
M  V30 10841 N 1025.8 -0.366053 -1.5329 0
M  V30 10842 C 1026.73 0.523781 -2.22108 0
M  V30 10843 C 1027.71 1.08262 -1.21318 0
M  V30 10844 O 1028.9 1.13866 -1.50222 0
M  V30 10845 C 1026.02 1.72273 -2.91616 0
M  V30 10846 C 1025.07 1.29129 -4.06482 0
M  V30 10847 S 1025.9 0.292195 -5.34702 0
M  V30 10848 C 1027.06 1.49746 -6.07723 0
M  V30 10849 H 1027.29 -0.0606687 -2.97238 0
M  V30 10850 H 1024.82 -0.15016 -1.53668 0
M  V30 10851 H 1026.78 2.41045 -3.32277 0
M  V30 10852 H 1025.44 2.27843 -2.16209 0
M  V30 10853 H 1024.64 2.18583 -4.54134 0
M  V30 10854 H 1024.24 0.682783 -3.67715 0
M  V30 10855 H 1026.53 2.4284 -6.32483 0
M  V30 10856 H 1027.47 1.06232 -7.00086 0
M  V30 10857 H 1027.88 1.70373 -5.38176 0
M  V30 10858 N 1027.28 1.57312 -0.0952337 0
M  V30 10859 C 1028.21 2.11059 0.893678 0
M  V30 10860 C 1029.22 1.04787 1.24594 0
M  V30 10861 O 1030.41 1.32233 1.19903 0
M  V30 10862 C 1027.51 2.57552 2.20272 0
M  V30 10863 C 1026.69 3.87661 2.02578 0
M  V30 10864 C 1025.75 4.2 3.16996 0
M  V30 10865 O 1024.77 4.89219 2.90953 0
M  V30 10866 N 1025.97 3.75414 4.42769 0
M  V30 10867 H 1028.74 2.96532 0.434632 0
M  V30 10868 H 1026.3 1.6165 0.0898661 0
M  V30 10869 H 1028.29 2.76232 2.95766 0
M  V30 10870 H 1026.86 1.7709 2.576 0
M  V30 10871 H 1026.08 3.78128 1.11413 0
M  V30 10872 H 1027.37 4.7278 1.88032 0
M  V30 10873 H 1026.77 3.1954 4.66809 0
M  V30 10874 H 1025.32 3.99249 5.15212 0
M  V30 10875 N 1028.76 -0.17846 1.56586 0
M  V30 10876 C 1030.03 -0.923096 1.72448 0
M  V30 10877 C 1030.41 -2.00692 0.654659 0
M  V30 10878 O 1029.76 -2.26079 -0.33171 0
M  V30 10879 C 1029.97 -1.49435 3.15389 0
M  V30 10880 C 1031.32 -1.97005 3.76131 0
M  V30 10881 O 1032.34 -1.59244 3.18622 0
M  V30 10882 O 1031.2 -2.66541 4.77094 0
M  V30 10883 H 1028.3 -0.434009 0.703964 0
M  V30 10884 H 1030.84 -0.16685 1.68878 0
M  V30 10885 H 1029.62 -0.713933 3.84732 0
M  V30 10886 H 1029.24 -2.31498 3.23256 0
M  V30 10887 N 1030.24 -1.51135 -0.446768 0
M  V30 10888 C 1031.18 -1.72328 -1.56224 0
M  V30 10889 C 1032.18 -0.589411 -1.58815 0
M  V30 10890 O 1033.38 -0.770554 -1.62673 0
M  V30 10891 H 1029.76 -0.544339 -0.518844 0
M  V30 10892 H 1031.73 -2.65851 -1.3552 0
M  V30 10893 C 1030.48 -1.85686 -2.93966 0
M  V30 10894 H 1029.8 -2.72336 -2.927 0
M  V30 10895 H 1031.24 -2.0453 -3.71407 0
M  V30 10896 C 1029.7 -0.614328 -3.31252 0
M  V30 10897 O 1030.23 0.235369 -4.0101 0
M  V30 10898 N 1028.44 -0.461181 -2.86917 0
M  V30 10899 H 1027.98 -1.15369 -2.30321 0
M  V30 10900 H 1027.94 0.368966 -3.12227 0
M  V30 10901 N 1031.71 0.701592 -1.41122 0
M  V30 10902 C 1032.68 1.79733 -1.42227 0
M  V30 10903 C 1033.68 1.57708 -0.313831 0
M  V30 10904 O 1034.87 1.64492 -0.573423 0
M  V30 10905 C 1032 3.18024 -1.22775 0
M  V30 10906 H 1033.19 1.80148 -2.39764 0
M  V30 10907 H 1030.74 0.908624 -1.27176 0
M  V30 10908 H 1031.48 3.23252 -0.260552 0
M  V30 10909 H 1031.26 3.35411 -2.0308 0
M  V30 10910 H 1032.75 3.98021 -1.2637 0
M  V30 10911 N 1033.19 1.2685 0.935242 0
M  V30 10912 C 1034.15 1.08975 2.01636 0
M  V30 10913 C 1035.15 0.0361543 1.60759 0
M  V30 10914 O 1036.34 0.280087 1.71934 0
M  V30 10915 C 1033.48 0.658831 3.34473 0
M  V30 10916 H 1034.67 2.04968 2.18925 0
M  V30 10917 H 1032.22 1.09531 1.11501 0
M  V30 10918 H 1032.96 -0.302824 3.22883 0
M  V30 10919 H 1032.74 1.41967 3.65497 0
M  V30 10920 H 1034.23 0.555783 4.13885 0
M  V30 10921 N 1034.67 -1.14067 1.0875 0
M  V30 10922 C 1035.63 -2.17453 0.724341 0
M  V30 10923 C 1036.63 -1.58959 -0.242614 0
M  V30 10924 O 1037.82 -1.74186 -0.0217008 0
M  V30 10925 C 1034.96 -3.40828 0.0700236 0
M  V30 10926 H 1036.15 -2.51094 1.63987 0
M  V30 10927 H 1033.7 -1.28775 0.885813 0
M  V30 10928 H 1034.44 -3.1277 -0.857061 0
M  V30 10929 H 1034.22 -3.84551 0.76569 0
M  V30 10930 H 1035.71 -4.17258 -0.168905 0
M  V30 10931 N 1036.15 -0.873678 -1.31166 0
M  V30 10932 C 1037.1 -0.321349 -2.3037 0
M  V30 10933 C 1038.09 0.565568 -1.5968 0
M  V30 10934 O 1039.3 0.451257 -1.74252 0
M  V30 10935 H 1035.67 -0.0852425 -0.747153 0
M  V30 10936 H 1037.64 -1.17191 -2.74425 0
M  V30 10937 C 1036.39 0.459016 -3.44657 0
M  V30 10938 H 1035.71 -0.214185 -3.99226 0
M  V30 10939 H 1037.15 0.810758 -4.16176 0
M  V30 10940 C 1035.61 1.65173 -2.93632 0
M  V30 10941 O 1036.14 2.75105 -2.92711 0
M  V30 10942 N 1034.35 1.4851 -2.49786 0
M  V30 10943 H 1033.9 0.590785 -2.50734 0
M  V30 10944 H 1033.85 2.28452 -2.16002 0
M  V30 10945 O 1037.67 1.41776 -0.773414 0
M  V30 10946 H 1038.36 1.90728 -0.338001 0
M  V30 END ATOM
M  V30 BEGIN BOND
M  V30 END BOND
M  V30 END CTAB
M  END
$$$$
