drugbank_target|Q9NPC1 Leukotriene B4 receptor 2 (DB06248; DB12961)
 OpenBabel12092120333D

  0  0  0     0  0            999 V3000
M  V30 BEGIN CTAB
M  V30 COUNTS 5958 6037 0 0 0
M  V30 BEGIN ATOM
M  V30 1 H -0.908 1.98254 -0.117106 0
M  V30 2 N 0 1.576 0 0
M  V30 3 C 0.933 2.03868 1.02534 0
M  V30 4 C 1.911 0.928543 1.3348 0
M  V30 5 O 3.095 1.19667 1.45644 0
M  V30 6 C 0.222 2.43627 2.35294 0
M  V30 7 C -0.732 3.65373 2.2001 0
M  V30 8 S 0.101 5.13292 1.52614 0
M  V30 9 C 1.257 5.56322 2.86805 0
M  V30 10 H 1.49 2.90518 0.631377 0
M  V30 11 H -0.977 1.52953 0.210867 0
M  V30 12 H 0.981 2.67203 3.11629 0
M  V30 13 H -0.358 1.57376 2.7183 0
M  V30 14 H -1.165 3.90944 3.18086 0
M  V30 15 H -1.563 3.418 1.51819 0
M  V30 16 H 0.729 5.58782 3.83104 0
M  V30 17 H 1.672 6.56266 2.65933 0
M  V30 18 H 2.08 4.83886 2.90714 0
M  V30 19 N 1.4781 -0.272755 1.55222 0
M  V30 20 C 2.4411 -1.32041 1.87344 0
M  V30 21 C 3.4411 -1.42342 0.74803 0
M  V30 22 O 4.6311 -1.41488 1.0162 0
M  V30 23 C 1.7631 -2.70173 2.07893 0
M  V30 24 H 2.9561 -1.04789 2.80997 0
M  V30 25 H 0.5091 -0.51083 1.47717 0
M  V30 26 H 1.2441 -3.02605 1.16622 0
M  V30 27 H 1.0291 -2.64082 2.89833 0
M  V30 28 H 2.5191 -3.45869 2.34017 0
M  V30 29 N 2.9562 -1.48159 -0.537278 0
M  V30 30 C 4.3672 -1.49429 -1.11928 0
M  V30 31 C 4.7182 -0.26 -1.9447 0
M  V30 32 O 3.8432 0.633489 -2.0692 0
M  V30 33 C 4.4382 -2.70758 -2.03656 0
M  V30 34 C 2.9972 -2.74923 -2.57088 0
M  V30 35 C 2.1442 -2.42835 -1.3389 0
M  V30 36 H 5.0952 -1.55381 -0.322886 0
M  V30 37 H 5.1162 -2.48861 -2.87834 0
M  V30 38 H 4.6282 -3.60575 -1.43553 0
M  V30 39 H 2.7292 -1.89296 -3.20933 0
M  V30 40 H 2.8422 -3.76157 -2.9672 0
M  V30 41 H 1.2062 -1.93836 -1.65226 0
M  V30 42 H 1.9892 -3.34884 -0.755504 0
M  V30 43 N 4.4343 0.785586 -1.36625 0
M  V30 44 C 5.6593 1.57963 -1.34397 0
M  V30 45 C 6.0843 1.87964 0.071526 0
M  V30 46 O 5.4423 1.48182 1.0446 0
M  V30 47 C 5.4903 2.87511 -2.17646 0
M  V30 48 O 4.5943 3.81281 -1.57158 0
M  V30 49 H 3.9353 0.479014 -0.459828 0
M  V30 50 H 6.4653 0.973411 -1.79961 0
M  V30 51 H 6.4753 3.36745 -2.30362 0
M  V30 52 H 5.1503 2.65002 -3.20541 0
M  V30 53 H 3.7273 3.39885 -1.53403 0
M  V30 54 N 5.9124 1.20967 1.01018 0
M  V30 55 C 6.8624 0.93182 2.08089 0
M  V30 56 C 7.8464 -0.110898 1.60517 0
M  V30 57 O 9.0384 0.0973392 1.76732 0
M  V30 58 C 6.1674 0.492719 3.39746 0
M  V30 59 C 5.2534 1.56922 3.94 0
M  V30 60 N 5.6444 2.79312 4.21686 0
M  V30 61 C 3.9424 1.43688 4.2222 0
M  V30 62 C 4.6434 3.48797 4.65527 0
M  V30 63 N 3.6194 2.76224 4.68189 0
M  V30 64 H 7.4214 1.86175 2.27412 0
M  V30 65 H 4.9354 1.10463 1.19045 0
M  V30 66 H 6.9324 0.275044 4.15992 0
M  V30 67 H 5.5924 -0.430509 3.21833 0
M  V30 68 H 6.6034 3.15903 4.10397 0
M  V30 69 H 3.2804 0.578548 4.13472 0
M  V30 70 H 4.6704 4.53561 4.95714 0
M  V30 71 N 7.3905 -1.2043 1.01659 0
M  V30 72 C 8.8065 -1.41852 0.731442 0
M  V30 73 C 9.0065 -1.89358 -0.688898 0
M  V30 74 O 8.0625 -2.06247 -1.45666 0
M  V30 75 C 9.3755 -2.44019 1.75714 0
M  V30 76 C 10.9235 -2.57785 1.77527 0
M  V30 77 C 11.3985 -3.63194 2.79023 0
M  V30 78 N 12.8895 -3.70678 2.77763 0
M  V30 79 C 13.6245 -4.51897 3.52954 0
M  V30 80 N 13.1205 -5.36921 4.37821 0
M  V30 81 N 14.9135 -4.4643 3.41551 0
M  V30 82 H 7.0645 -0.879093 1.93354 0
M  V30 83 H 9.3275 -0.448425 0.835236 0
M  V30 84 H 9.0335 -2.1611 2.77469 0
M  V30 85 H 8.9075 -3.43007 1.56927 0
M  V30 86 H 11.2945 -2.85023 0.764569 0
M  V30 87 H 11.3755 -1.58992 2.00387 0
M  V30 88 H 11.0195 -3.36699 3.80258 0
M  V30 89 H 10.9495 -4.61609 2.53425 0
M  V30 90 H 13.4405 -3.09944 2.16201 0
M  V30 91 H 13.7535 -5.95981 4.91962 0
M  V30 92 H 12.0985 -5.36424 4.41899 0
M  V30 93 H 15.2895 -3.79042 2.74672 0
M  V30 94 H 15.4625 -5.09491 4.00404 0
M  V30 95 N 8.8686 -0.792821 -1.36206 0
M  V30 96 C 9.8316 -0.199459 -2.2833 0
M  V30 97 C 10.8316 0.605189 -1.48977 0
M  V30 98 O 12.0216 0.425685 -1.68919 0
M  V30 99 C 9.1536 0.723523 -3.33134 0
M  V30 100 H 10.3466 -1.01181 -2.82316 0
M  V30 101 H 7.8996 -0.562485 -1.45828 0
M  V30 102 H 8.6346 1.56008 -2.84309 0
M  V30 103 H 8.4196 0.148436 -3.91819 0
M  V30 104 H 9.9096 1.13344 -4.01924 0
M  V30 105 N 10.3467 1.47872 -0.545128 0
M  V30 106 C 11.5717 2.07391 -0.0190611 0
M  V30 107 C 11.9967 1.39688 1.25971 0
M  V30 108 O 11.3547 0.467816 1.7516 0
M  V30 109 C 11.4027 3.60188 0.172335 0
M  V30 110 O 10.5067 3.9339 1.23766 0
M  V30 111 H 9.8477 0.662411 -0.0459059 0
M  V30 112 H 12.3777 1.90066 -0.757365 0
M  V30 113 H 12.3877 4.06129 0.390305 0
M  V30 114 H 11.0627 4.08865 -0.761725 0
M  V30 115 H 9.6397 3.5921 1.00114 0
M  V30 116 N 11.8248 0.280983 1.55075 0
M  V30 117 C 12.7568 -0.637268 2.20163 0
M  V30 118 C 13.7698 -1.11298 1.18813 0
M  V30 119 O 14.9588 -1.03388 1.4551 0
M  V30 120 C 12.0588 -1.88199 2.81841 0
M  V30 121 C 11.2318 -1.55211 4.08936 0
M  V30 122 C 10.2908 -2.64991 4.54606 0
M  V30 123 O 9.3168 -2.30929 5.2025 0
M  V30 124 N 10.5188 -3.95161 4.25238 0
M  V30 125 H 13.2838 -0.0801694 2.99593 0
M  V30 126 H 10.8448 0.102329 1.61576 0
M  V30 127 H 12.8368 -2.60948 3.09335 0
M  V30 128 H 11.4068 -2.34799 2.06369 0
M  V30 129 H 10.6268 -0.658185 3.88666 0
M  V30 130 H 11.9148 -1.30681 4.91732 0
M  V30 131 H 11.3128 -4.25653 3.72607 0
M  V30 132 H 9.8698 -4.6427 4.5749 0
M  V30 133 N 13.3029 -1.57598 0.00835791 0
M  V30 134 C 14.5489 -1.91211 -0.675732 0
M  V30 135 C 14.8819 -0.883139 -1.72958 0
M  V30 136 O 14.1569 0.097016 -1.94258 0
M  V30 137 C 14.4399 -3.35379 -1.31123 0
M  V30 138 C 14.2929 -4.48999 -0.268356 0
M  V30 139 C 15.6119 -3.7912 -2.23508 0
M  V30 140 H 12.7309 -0.695374 -0.244179 0
M  V30 141 H 15.3729 -1.89901 0.0613655 0
M  V30 142 H 13.5229 -3.36626 -1.93946 0
M  V30 143 H 15.1949 -4.59887 0.360844 0
M  V30 144 H 13.4379 -4.31873 0.408482 0
M  V30 145 H 14.1089 -5.46851 -0.752218 0
M  V30 146 H 16.5849 -3.79477 -1.70693 0
M  V30 147 H 15.4609 -4.80729 -2.64936 0
M  V30 148 H 15.7219 -3.13455 -3.11766 0
M  V30 149 N 14.781 0.264519 -1.55364 0
M  V30 150 C 16.029 0.993021 -1.76021 0
M  V30 151 C 16.35 1.86511 -0.569099 0
M  V30 152 O 15.62 1.91438 0.415735 0
M  V30 153 H 14.2 0.369639 -0.649135 0
M  V30 154 H 16.862 0.286707 -1.9278 0
M  V30 155 H 15.958 1.62502 -2.66457 0
M  V30 156 N 16.2591 1.48442 0.529413 0
M  V30 157 C 17.5061 1.56488 1.28521 0
M  V30 158 C 17.8341 0.239042 1.93025 0
M  V30 159 O 17.0891 -0.770713 1.79885 0
M  V30 160 C 17.3881 2.6523 2.39558 0
M  V30 161 C 17.0541 4.07648 1.92702 0
M  V30 162 C 15.7161 4.46411 1.79641 0
M  V30 163 C 18.0681 4.96896 1.573 0
M  V30 164 C 15.3961 5.72226 1.29514 0
M  V30 165 C 17.7481 6.23202 1.08636 0
M  V30 166 C 16.4121 6.60821 0.941919 0
M  V30 167 H 15.6821 0.572631 0.470292 0
M  V30 168 H 18.3291 1.82161 0.59072 0
M  V30 169 H 16.6341 2.33419 3.14679 0
M  V30 170 H 18.3311 2.68671 2.97686 0
M  V30 171 H 14.9211 3.77036 2.03819 0
M  V30 172 H 19.1051 4.67626 1.66251 0
M  V30 173 H 14.3611 6.00097 1.17019 0
M  V30 174 H 18.5351 6.91753 0.803136 0
M  V30 175 H 16.1621 7.58198 0.5513 0
M  V30 176 N 17.7372 -0.778329 1.37039 0
M  V30 177 C 18.9772 -1.54973 1.33276 0
M  V30 178 C 19.3412 -1.91816 -0.0839376 0
M  V30 179 O 20.5422 -2.6767 -0.246228 0
M  V30 180 C 18.8132 -2.78517 2.23971 0
M  V30 181 S 20.3722 -3.6865 2.37997 0
M  V30 182 H 17.1902 -0.530639 0.473226 0
M  V30 183 H 19.7922 -0.915806 1.72723 0
M  V30 184 H 18.4962 -2.4952 3.25835 0
M  V30 185 H 18.0272 -3.46875 1.85584 0
M  V30 186 H 20.0422 -4.70182 1.58567 0
M  V30 187 N 19.2153 -1.21501 -1.00376 0
M  V30 188 C 20.6263 -1.03146 -1.55621 0
M  V30 189 C 20.9773 0.408375 -1.91903 0
M  V30 190 O 20.1023 1.29177 -1.73616 0
M  V30 191 C 20.6973 -1.86612 -2.82775 0
M  V30 192 C 19.2563 -1.72586 -3.34501 0
M  V30 193 C 18.4033 -1.83747 -2.07683 0
M  V30 194 H 21.3543 -1.35505 -0.826081 0
M  V30 195 H 21.3753 -1.3771 -3.54706 0
M  V30 196 H 20.8873 -2.91399 -2.56336 0
M  V30 197 H 18.9883 -0.704877 -3.65872 0
M  V30 198 H 19.1013 -2.54623 -4.05837 0
M  V30 199 H 17.4653 -1.27069 -2.20739 0
M  V30 200 H 18.2483 -2.90044 -1.83655 0
M  V30 201 N 20.6934 1.19889 -1.02296 0
M  V30 202 C 21.9214 1.9339 -0.735399 0
M  V30 203 C 22.3364 1.75148 0.704887 0
M  V30 204 O 21.6934 1.06954 1.47875 0
M  V30 205 C 21.7444 3.45313 -1.06962 0
M  V30 206 O 21.4654 3.62964 -2.45334 0
M  V30 207 C 22.9664 4.35948 -0.804021 0
M  V30 208 H 20.1864 0.61448 -0.269546 0
M  V30 209 H 22.7304 1.522 -1.36585 0
M  V30 210 H 20.8854 3.84359 -0.484455 0
M  V30 211 H 21.2994 4.56886 -2.57595 0
M  V30 212 H 22.7734 5.41174 -1.0879 0
M  V30 213 H 23.2504 4.3842 0.261691 0
M  V30 214 H 23.8564 4.02574 -1.37164 0
M  V30 215 N 22.1715 0.800033 1.35784 0
M  V30 216 C 23.5825 0.439142 1.81462 0
M  V30 217 C 23.9335 -1.03813 1.66485 0
M  V30 218 O 23.0585 -1.80626 1.19177 0
M  V30 219 C 23.6535 0.790314 3.29453 0
M  V30 220 C 22.2125 0.482111 3.733 0
M  V30 221 C 21.3595 1.01938 2.57883 0
M  V30 222 H 24.3105 0.992254 1.23855 0
M  V30 223 H 24.3315 0.0853677 3.80404 0
M  V30 224 H 23.8435 1.86554 3.40322 0
M  V30 225 H 21.9445 -0.584652 3.67984 0
M  V30 226 H 22.0575 1.01015 4.6833 0
M  V30 227 H 20.4215 0.442043 2.50835 0
M  V30 228 H 21.2045 2.10059 2.71533 0
M  V30 229 N 23.6496 -1.47581 0.552962 0
M  V30 230 C 24.5596 -2.33743 -0.200353 0
M  V30 231 C 25.5756 -1.47928 -0.916151 0
M  V30 232 O 26.7516 -1.80865 -0.885993 0
M  V30 233 C 23.8166 -3.24536 -1.21973 0
M  V30 234 C 22.8776 -4.26238 -0.511819 0
M  V30 235 C 22.1106 -5.12693 -1.48263 0
M  V30 236 O 22.3336 -5.01525 -2.71714 0
M  V30 237 O 21.2676 -5.93375 -1.00945 0
M  V30 238 H 25.0936 -2.9945 0.506304 0
M  V30 239 H 22.6786 -1.46071 0.313622 0
M  V30 240 H 24.5606 -3.80631 -1.80827 0
M  V30 241 H 23.2356 -2.61462 -1.90839 0
M  V30 242 H 22.1426 -3.73914 0.117799 0
M  V30 243 H 23.4756 -4.92014 0.135308 0
M  V30 244 N 25.1277 -0.289203 -1.54924 0
M  V30 245 C 26.5437 0.0645403 -1.59469 0
M  V30 246 C 26.7437 1.53419 -1.30632 0
M  V30 247 O 25.7997 2.2852 -1.074 0
M  V30 248 C 27.1127 -0.32278 -2.98963 0
M  V30 249 C 28.6607 -0.270564 -3.11828 0
M  V30 250 C 29.1357 -0.632532 -4.53611 0
M  V30 251 N 30.6267 -0.584617 -4.59496 0
M  V30 252 C 31.3617 -0.837314 -5.67254 0
M  V30 253 N 30.8577 -1.15536 -6.83098 0
M  V30 254 N 32.6507 -0.765166 -5.56868 0
M  V30 255 H 24.8017 -1.24714 -1.71931 0
M  V30 256 H 27.0647 -0.504809 -0.802416 0
M  V30 257 H 26.7707 -1.34541 -3.24948 0
M  V30 258 H 26.6447 0.32944 -3.75759 0
M  V30 259 H 29.0317 0.742805 -2.85598 0
M  V30 260 H 29.1127 -0.957242 -2.37214 0
M  V30 261 H 28.7567 -1.64365 -4.80569 0
M  V30 262 H 28.6867 0.07609 -5.26545 0
M  V30 263 H 31.1777 -0.349248 -3.76283 0
M  V30 264 H 31.4907 -1.33447 -7.61191 0
M  V30 265 H 29.8357 -1.19328 -6.84679 0
M  V30 266 H 33.0267 -0.516432 -4.65243 0
M  V30 267 H 33.1997 -0.965477 -6.40767 0
M  V30 268 N 26.6058 1.57591 -0.0167156 0
M  V30 269 C 28.0168 1.79201 0.523834 0
M  V30 270 C 28.3678 0.925796 1.72984 0
M  V30 271 O 27.4928 0.132792 2.15992 0
M  V30 272 C 28.0878 3.25 0.957091 0
M  V30 273 C 26.6468 3.47648 1.44283 0
M  V30 274 C 25.7938 2.74374 0.401757 0
M  V30 275 H 28.7448 1.56831 -0.242816 0
M  V30 276 H 28.7658 3.34031 1.82219 0
M  V30 277 H 28.2778 3.88019 0.0791415 0
M  V30 278 H 26.3788 2.89866 2.34113 0
M  V30 279 H 26.4918 4.56352 1.45877 0
M  V30 280 H 24.8558 2.39485 0.867121 0
M  V30 281 H 25.6388 3.40102 -0.467513 0
M  V30 282 N 28.0839 -0.256276 1.55502 0
M  V30 283 C 29.0139 -1.32102 1.92539 0
M  V30 284 C 29.9949 -1.50684 0.789194 0
M  V30 285 O 31.1799 -1.63449 1.04872 0
M  V30 286 C 28.3099 -2.67752 2.21192 0
M  V30 287 C 27.2639 -2.63878 3.36975 0
M  V30 288 C 26.5899 -4.03236 3.51147 0
M  V30 289 C 27.8899 -2.21682 4.72921 0
M  V30 290 H 29.5839 -1.01351 2.81724 0
M  V30 291 H 27.1299 -0.486105 1.35547 0
M  V30 292 H 29.0829 -3.42365 2.45691 0
M  V30 293 H 27.8069 -3.0012 1.28824 0
M  V30 294 H 26.4659 -1.91722 3.12471 0
M  V30 295 H 26.1139 -4.32854 2.56216 0
M  V30 296 H 25.8139 -4.01535 4.29003 0
M  V30 297 H 27.3379 -4.79563 3.77957 0
M  V30 298 H 28.7519 -2.86023 4.96854 0
M  V30 299 H 27.1489 -2.3111 5.53812 0
M  V30 300 H 28.2189 -1.16833 4.70615 0
M  V30 301 N 29.562 -1.4872 -0.521534 0
M  V30 302 C 30.808 -1.58378 -1.27624 0
M  V30 303 C 31.163 -0.258028 -1.90662 0
M  V30 304 O 30.456 0.739917 -1.76736 0
M  V30 305 C 30.65 -2.66497 -2.38148 0
M  V30 306 C 30.479 -4.09456 -1.85945 0
M  V30 307 C 29.249 -4.76495 -1.68168 0
M  V30 308 C 31.447 -4.95353 -1.3831 0
M  V30 309 N 29.429 -6.0384 -1.1068 0
M  V30 310 C 30.8 -6.13012 -0.928238 0
M  V30 311 C 32.855 -4.81512 -1.26692 0
M  V30 312 C 31.558 -7.18354 -0.368701 0
M  V30 313 C 33.584 -5.86984 -0.721368 0
M  V30 314 C 32.946 -7.03857 -0.276623 0
M  V30 315 H 29.045 -0.634045 -0.457724 0
M  V30 316 H 31.629 -1.85639 -0.587049 0
M  V30 317 H 29.8 -2.41043 -3.04553 0
M  V30 318 H 31.532 -2.65791 -3.05184 0
M  V30 319 H 28.287 -4.32962 -1.91939 0
M  V30 320 H 28.711 -6.71778 -0.839217 0
M  V30 321 H 33.353 -3.91487 -1.5968 0
M  V30 322 H 31.071 -8.08096 -0.0265122 0
M  V30 323 H 34.657 -5.78329 -0.634531 0
M  V30 324 H 33.537 -7.84077 0.138947 0
M  V30 325 N 31.0401 0.771051 -1.3745 0
M  V30 326 C 32.4561 1.07171 -1.18265 0
M  V30 327 C 32.6561 2.01491 -0.019287 0
M  V30 328 O 31.7121 2.44244 0.640408 0
M  V30 329 C 33.0251 1.66854 -2.50161 0
M  V30 330 C 34.5731 1.79109 -2.56689 0
M  V30 331 C 35.0481 2.42205 -3.88717 0
M  V30 332 N 36.5391 2.49655 -3.90162 0
M  V30 333 C 37.2741 2.9933 -4.8907 0
M  V30 334 N 36.7701 3.49172 -5.98374 0
M  V30 335 N 38.5631 2.9821 -4.76474 0
M  V30 336 H 30.7141 0.144796 -2.11906 0
M  V30 337 H 32.9771 0.126863 -0.939473 0
M  V30 338 H 32.6831 1.05017 -3.35655 0
M  V30 339 H 32.5571 2.6614 -2.673 0
M  V30 340 H 34.9441 2.40077 -1.71601 0
M  V30 341 H 35.0251 0.785757 -2.43433 0
M  V30 342 H 34.6691 1.81875 -4.74219 0
M  V30 343 H 34.5991 3.43345 -3.99276 0
M  V30 344 H 37.0901 2.14383 -3.11205 0
M  V30 345 H 37.4031 3.8548 -6.69795 0
M  V30 346 H 35.7481 3.47275 -6.02018 0
M  V30 347 H 38.9391 2.58572 -3.90203 0
M  V30 348 H 39.1121 3.36613 -5.53711 0
M  V30 349 N 32.5182 1.22032 0.997298 0
M  V30 350 C 33.4482 1.01065 2.10495 0
M  V30 351 C 34.4292 -0.0669542 1.69968 0
M  V30 352 O 35.6142 0.0943987 1.9397 0
M  V30 353 C 32.7442 0.582874 3.42374 0
M  V30 354 C 31.6982 1.60592 3.96729 0
M  V30 355 C 31.0242 1.03412 5.24605 0
M  V30 356 C 32.3242 2.99478 4.27914 0
M  V30 357 H 34.0182 1.93708 2.28292 0
M  V30 358 H 31.5642 0.932761 1.09707 0
M  V30 359 H 33.5172 0.423332 4.19268 0
M  V30 360 H 32.2412 -0.379213 3.24391 0
M  V30 361 H 30.9002 1.75316 3.21963 0
M  V30 362 H 30.5482 0.063518 5.0296 0
M  V30 363 H 30.2482 1.71754 5.61938 0
M  V30 364 H 31.7722 0.886066 6.04137 0
M  V30 365 H 33.1862 2.88153 4.95622 0
M  V30 366 H 31.5832 3.64903 4.76409 0
M  V30 367 H 32.6532 3.49742 3.3587 0
M  V30 368 N 33.9963 -1.19345 1.0293 0
M  V30 369 C 35.4073 -1.70725 0.755633 0
M  V30 370 C 35.7583 -1.82326 -0.724676 0
M  V30 371 O 34.8833 -1.49471 -1.56484 0
M  V30 372 C 35.4783 -3.10084 1.36503 0
M  V30 373 C 34.0373 -3.58723 1.13994 0
M  V30 374 C 33.1843 -2.35577 1.46283 0
M  V30 375 H 36.1353 -1.0418 1.19718 0
M  V30 376 H 36.1563 -3.72787 0.762217 0
M  V30 377 H 35.6683 -3.01609 2.44241 0
M  V30 378 H 33.7693 -3.72512 0.0807901 0
M  V30 379 H 33.8823 -4.42816 1.82894 0
M  V30 380 H 32.2463 -2.38935 0.88217 0
M  V30 381 H 33.0293 -2.29731 2.55105 0
M  V30 382 N 35.4744 -0.807222 -1.35358 0
M  V30 383 C 36.8854 -0.44876 -1.81226 0
M  V30 384 C 37.2364 1.02929 -1.67033 0
M  V30 385 O 36.3614 1.79991 -1.20133 0
M  V30 386 C 36.9564 -0.807774 -3.2903 0
M  V30 387 C 35.5154 -0.501901 -3.73039 0
M  V30 388 C 34.6624 -1.03304 -2.57339 0
M  V30 389 H 37.6134 -0.998808 -1.23327 0
M  V30 390 H 37.6344 -0.10554 -3.80354 0
M  V30 391 H 37.1464 -1.88357 -3.39328 0
M  V30 392 H 35.2474 0.565128 -3.68289 0
M  V30 393 H 35.3604 -1.03497 -4.67787 0
M  V30 394 H 33.7244 -0.455339 -2.50597 0
M  V30 395 H 34.5074 -2.11496 -2.70415 0
M  V30 396 N 36.9525 1.47285 -0.560781 0
M  V30 397 C 38.1805 2.06855 -0.0430262 0
M  V30 398 C 38.5955 1.41291 1.25229 0
M  V30 399 O 37.9525 0.510648 1.7521 0
M  V30 400 C 38.0035 3.61178 0.152518 0
M  V30 401 O 37.7245 4.24285 -1.0915 0
M  V30 402 C 39.2255 4.37624 0.707145 0
M  V30 403 H 36.4455 0.669319 -0.0474652 0
M  V30 404 H 38.9895 1.89237 -0.77521 0
M  V30 405 H 37.1445 3.78298 0.834843 0
M  V30 406 H 37.5585 5.16868 -0.891482 0
M  V30 407 H 39.0325 5.46271 0.793244 0
M  V30 408 H 39.5095 4.04152 1.71923 0
M  V30 409 H 40.1155 4.25257 0.0604027 0
M  V30 410 N 38.4306 0.297415 1.54768 0
M  V30 411 C 39.6706 -0.313829 2.01976 0
M  V30 412 C 40.0346 -1.51366 1.1812 0
M  V30 413 O 41.2356 -2.19603 1.5501 0
M  V30 414 C 39.5066 -0.664964 3.51159 0
M  V30 415 S 41.0656 -1.25958 4.20333 0
M  V30 416 H 37.8836 -0.0965014 0.704421 0
M  V30 417 H 40.4856 0.424451 1.90837 0
M  V30 418 H 39.1896 0.21681 4.09827 0
M  V30 419 H 38.7206 -1.43413 3.66328 0
M  V30 420 H 40.7356 -2.54751 4.25813 0
M  V30 421 N 39.9087 -1.5758 0.0250728 0
M  V30 422 C 41.3247 -1.56124 -0.331282 0
M  V30 423 C 41.5247 -1.03029 -1.73169 0
M  V30 424 O 40.5807 -0.675215 -2.43305 0
M  V30 425 C 41.8937 -3.00139 -0.183584 0
M  V30 426 C 43.4417 -3.11946 -0.256654 0
M  V30 427 C 43.9167 -4.57793 -0.137792 0
M  V30 428 N 45.4077 -4.6279 -0.194904 0
M  V30 429 C 46.1427 -5.7326 -0.126655 0
M  V30 430 N 45.6387 -6.928 -0.00755288 0
M  V30 431 N 47.4317 -5.61811 -0.180348 0
M  V30 432 H 39.5827 -1.90424 0.94087 0
M  V30 433 H 41.8457 -0.875761 0.362968 0
M  V30 434 H 41.5517 -3.4292 0.780927 0
M  V30 435 H 41.4257 -3.64899 -0.955448 0
M  V30 436 H 43.8127 -2.69079 -1.21162 0
M  V30 437 H 43.8937 -2.49915 0.545517 0
M  V30 438 H 43.5377 -5.01339 0.813739 0
M  V30 439 H 43.4677 -5.17798 -0.958775 0
M  V30 440 H 45.9587 -3.76807 -0.287267 0
M  V30 441 H 46.2717 -7.72791 0.0379428 0
M  V30 442 H 44.6167 -6.94995 0.0271731 0
M  V30 443 H 47.8077 -4.6731 -0.271767 0
M  V30 444 H 47.9807 -6.47882 -0.123697 0
M  V30 445 N 41.3868 0.248026 -1.55636 0
M  V30 446 C 42.7978 0.817177 -1.67866 0
M  V30 447 C 43.1488 1.86069 -0.622322 0
M  V30 448 O 42.2738 2.15157 0.231618 0
M  V30 449 C 42.8688 1.489 -3.04326 0
M  V30 450 C 41.4278 2.00587 -3.185 0
M  V30 451 C 40.5748 0.856573 -2.63739 0
M  V30 452 H 43.5258 0.0238579 -1.58682 0
M  V30 453 H 43.5468 2.35698 -2.98708 0
M  V30 454 H 43.0588 0.729279 -3.81186 0
M  V30 455 H 41.1598 2.79443 -2.4646 0
M  V30 456 H 41.2728 2.20402 -4.25393 0
M  V30 457 H 39.6368 1.25678 -2.21534 0
M  V30 458 H 40.4198 0.109953 -3.43124 0
M  V30 459 N 42.8649 1.48995 0.513639 0
M  V30 460 C 44.2809 1.35478 0.843682 0
M  V30 461 C 44.4809 0.378213 1.97919 0
M  V30 462 O 43.5369 -0.194689 2.51748 0
M  V30 463 C 44.8499 2.75901 1.1958 0
M  V30 464 C 46.3979 2.84509 1.30474 0
M  V30 465 C 46.8729 4.25671 1.69021 0
M  V30 466 N 48.3639 4.28422 1.76094 0
M  V30 467 C 49.0989 5.34601 2.07338 0
M  V30 468 N 48.5949 6.5104 2.36894 0
M  V30 469 N 50.3879 5.22007 2.08483 0
M  V30 470 H 42.5389 2.11092 -0.235328 0
M  V30 471 H 44.8019 0.947039 -0.0426669 0
M  V30 472 H 44.5079 3.49001 0.434913 0
M  V30 473 H 44.3819 3.10467 2.1422 0
M  V30 474 H 46.7689 2.11655 2.05637 0
M  V30 475 H 46.8499 2.53542 0.339155 0
M  V30 476 H 46.4939 4.99048 0.944135 0
M  V30 477 H 46.4239 4.54094 2.66658 0
M  V30 478 H 48.9149 3.44441 1.55464 0
M  V30 479 H 49.2279 7.2779 2.59887 0
M  V30 480 H 47.5729 6.54287 2.34378 0
M  V30 481 H 50.7639 4.30051 1.84861 0
M  V30 482 H 50.9369 6.04854 2.325 0
M  V30 483 N 44.343 -0.763751 1.37857 0
M  V30 484 C 45.759 -1.06542 1.18832 0
M  V30 485 C 45.959 -2.01478 0.0299722 0
M  V30 486 O 45.015 -2.4458 -0.627447 0
M  V30 487 C 46.328 -1.65525 2.51042 0
M  V30 488 C 47.876 -1.77745 2.57635 0
M  V30 489 C 48.351 -2.4014 3.89996 0
M  V30 490 N 49.842 -2.47582 3.91481 0
M  V30 491 C 50.577 -2.96732 4.9065 0
M  V30 492 N 50.073 -3.45993 6.00217 0
M  V30 493 N 51.866 -2.95679 4.78048 0
M  V30 494 H 44.017 -0.133556 2.1198 0
M  V30 495 H 46.28 -0.121879 0.940133 0
M  V30 496 H 45.986 -1.03236 3.36207 0
M  V30 497 H 45.86 -2.64719 2.68707 0
M  V30 498 H 48.247 -2.39164 1.72872 0
M  V30 499 H 48.328 -0.772836 2.43846 0
M  V30 500 H 47.972 -1.79358 4.75177 0
M  V30 501 H 47.902 -3.41223 4.01092 0
M  V30 502 H 50.393 -2.1273 3.12337 0
M  V30 503 H 50.706 -3.81922 6.7183 0
M  V30 504 H 49.051 -3.44077 6.03851 0
M  V30 505 H 52.242 -2.56499 3.91568 0
M  V30 506 H 52.415 -3.33672 5.55488 0
M  V30 507 N 45.8211 -1.22559 -0.990812 0
M  V30 508 C 46.7541 -0.940773 -2.07905 0
M  V30 509 C 47.7321 0.117082 -1.62178 0
M  V30 510 O 48.9161 -0.0149506 -1.88494 0
M  V30 511 C 46.0431 -0.415321 -3.36144 0
M  V30 512 C 45.0891 -1.45818 -4.00799 0
M  V30 513 S 45.9221 -3.03219 -4.41382 0
M  V30 514 C 47.0781 -2.52317 -5.72789 0
M  V30 515 H 47.3111 -1.8623 -2.31745 0
M  V30 516 H 44.8441 -1.05688 -1.12558 0
M  V30 517 H 46.8021 -0.118747 -4.10328 0
M  V30 518 H 45.4631 0.485121 -3.10331 0
M  V30 519 H 44.6561 -1.04044 -4.93144 0
M  V30 520 H 44.2581 -1.70356 -3.32949 0
M  V30 521 H 46.5501 -1.93688 -6.49224 0
M  V30 522 H 47.4931 -3.43161 -6.19392 0
M  V30 523 H 47.9011 -1.93529 -5.30289 0
M  V30 524 N 47.2992 1.18797 -1.03562 0
M  V30 525 C 48.5242 1.9314 -0.755764 0
M  V30 526 C 48.9492 1.7537 0.68022 0
M  V30 527 O 48.3072 1.06046 1.47051 0
M  V30 528 C 48.3552 3.42747 -1.12058 0
M  V30 529 O 47.4592 4.11683 -0.243124 0
M  V30 530 H 46.8002 0.602724 -0.278604 0
M  V30 531 H 49.3302 1.50678 -1.3841 0
M  V30 532 H 49.3402 3.93437 -1.08035 0
M  V30 533 H 48.0152 3.55002 -2.16672 0
M  V30 534 H 46.5922 3.71323 -0.342539 0
M  V30 535 N 48.7773 0.814389 1.34928 0
M  V30 536 C 50.0233 0.399013 1.98836 0
M  V30 537 C 50.3563 -1.03314 1.64438 0
M  V30 538 O 49.6313 -1.71811 0.911659 0
M  V30 539 C 49.9143 0.591629 3.55207 0
M  V30 540 C 49.7673 2.06928 3.99376 0
M  V30 541 C 51.0863 0.022199 4.40094 0
M  V30 542 H 48.2053 0.146451 0.722303 0
M  V30 543 H 50.8473 1.02537 1.59957 0
M  V30 544 H 48.9973 0.0584441 3.88456 0
M  V30 545 H 50.6693 2.66544 3.76499 0
M  V30 546 H 48.9123 2.56287 3.49999 0
M  V30 547 H 49.5833 2.1549 5.08201 0
M  V30 548 H 52.0593 0.477643 4.13349 0
M  V30 549 H 50.9353 0.186832 5.48582 0
M  V30 550 H 51.1963 -1.07215 4.28902 0
M  V30 551 N 50.2554 -1.46986 0.568584 0
M  V30 552 C 51.4954 -2.04336 0.0512999 0
M  V30 553 C 51.8594 -1.43214 -1.27881 0
M  V30 554 O 53.0604 -1.91679 -1.88448 0
M  V30 555 C 51.3314 -3.57389 -0.0282328 0
M  V30 556 S 52.8904 -4.36056 -0.489991 0
M  V30 557 H 49.7084 -0.71034 0.0306349 0
M  V30 558 H 52.3104 -1.80212 0.757891 0
M  V30 559 H 51.0144 -3.99395 0.944011 0
M  V30 560 H 50.5454 -3.86028 -0.75803 0
M  V30 561 H 52.5604 -4.6441 -1.74752 0
M  V30 562 N 51.7335 -0.305618 -1.54608 0
M  V30 563 C 52.9635 0.304333 -2.04346 0
M  V30 564 C 53.3715 1.47715 -1.18224 0
M  V30 565 O 52.7145 1.82591 -0.201577 0
M  V30 566 C 52.7765 0.819031 -3.50046 0
M  V30 567 C 52.4405 -0.22912 -4.56425 0
M  V30 568 C 53.4375 -1.05914 -5.08997 0
M  V30 569 C 51.1225 -0.372148 -5.0092 0
M  V30 570 C 53.1165 -2.01809 -6.04609 0
M  V30 571 C 50.8035 -1.33454 -5.9635 0
M  V30 572 C 51.8015 -2.15599 -6.48079 0
M  V30 573 O 51.4895 -3.10205 -7.41639 0
M  V30 574 H 51.2215 0.0693996 -0.672428 0
M  V30 575 H 53.7755 -0.444548 -2.00532 0
M  V30 576 H 52.0055 1.61852 -3.51199 0
M  V30 577 H 53.6945 1.34537 -3.82955 0
M  V30 578 H 54.4605 -0.959538 -4.75413 0
M  V30 579 H 50.3395 0.257304 -4.60281 0
M  V30 580 H 53.8835 -2.65966 -6.44909 0
M  V30 581 H 49.7805 -1.43485 -6.29351 0
M  V30 582 H 50.5485 -3.05237 -7.59455 0
M  V30 583 N 53.2116 1.57565 -0.0334293 0
M  V30 584 C 54.6276 1.56297 0.322997 0
M  V30 585 C 54.8276 1.03945 1.7262 0
M  V30 586 O 53.8836 0.688109 2.42943 0
M  V30 587 C 55.1966 3.00232 0.167664 0
M  V30 588 C 56.7446 3.12078 0.240107 0
M  V30 589 C 57.2196 4.57859 0.113513 0
M  V30 590 N 58.7106 4.62887 0.170359 0
M  V30 591 C 59.4456 5.73319 0.0962517 0
M  V30 592 N 58.9416 6.92794 -0.0291881 0
M  V30 593 N 60.7346 5.61898 0.150551 0
M  V30 594 H 52.8856 1.89923 -0.950956 0
M  V30 595 H 55.1486 0.873824 -0.367608 0
M  V30 596 H 54.8546 3.42501 -0.799102 0
M  V30 597 H 54.7286 3.654 0.936083 0
M  V30 598 H 57.1156 2.69718 1.19733 0
M  V30 599 H 57.1966 2.49623 -0.558763 0
M  V30 600 H 56.8406 5.009 -0.840314 0
M  V30 601 H 56.7706 5.18299 0.931302 0
M  V30 602 H 59.2616 3.76954 0.26728 0
M  V30 603 H 59.5746 7.7276 -0.0789252 0
M  V30 604 H 57.9196 6.94971 -0.0640299 0
M  V30 605 H 61.1106 4.67448 0.246981 0
M  V30 606 H 61.2836 6.47938 0.0893365 0
M  V30 607 N 54.6897 -0.239769 1.55765 0
M  V30 608 C 56.1007 -0.808263 1.68297 0
M  V30 609 C 56.4517 -1.85736 0.632181 0
M  V30 610 O 55.5767 -2.15277 -0.220204 0
M  V30 611 C 56.1717 -1.47284 3.05111 0
M  V30 612 C 54.7307 -1.98895 3.19559 0
M  V30 613 C 53.8777 -0.842575 2.64189 0
M  V30 614 H 56.8287 -0.0154422 1.58692 0
M  V30 615 H 56.8497 -2.34111 2.99954 0
M  V30 616 H 56.3617 -0.709053 3.81568 0
M  V30 617 H 54.4627 -2.78132 2.47938 0
M  V30 618 H 54.5757 -2.18143 4.26556 0
M  V30 619 H 52.9397 -1.24501 2.22197 0
M  V30 620 H 53.7227 -0.0917552 3.43177 0
M  V30 621 N 56.1678 -1.49265 -0.50573 0
M  V30 622 C 57.5788 -1.51769 -1.08734 0
M  V30 623 C 57.9298 -0.301192 -1.93874 0
M  V30 624 O 57.0548 0.589456 -2.08217 0
M  V30 625 C 57.6498 -2.75017 -1.97867 0
M  V30 626 C 56.2088 -2.80314 -2.51199 0
M  V30 627 C 55.3558 -2.4562 -1.28709 0
M  V30 628 H 58.3068 -1.56031 -0.289855 0
M  V30 629 H 58.3278 -2.5491 -2.82491 0
M  V30 630 H 57.8398 -3.63539 -1.35873 0
M  V30 631 H 55.9408 -1.96061 -3.16845 0
M  V30 632 H 56.0538 -3.82366 -2.88675 0
M  V30 633 H 54.4178 -1.97297 -1.61078 0
M  V30 634 H 55.2008 -3.36411 -0.6843 0
M  V30 635 N 57.6459 0.756429 -1.3826 0
M  V30 636 C 58.8939 1.51248 -1.34047 0
M  V30 637 C 59.2149 1.94875 0.0698372 0
M  V30 638 O 58.4849 1.67436 1.01696 0
M  V30 639 H 57.0649 0.561018 -0.493222 0
M  V30 640 H 59.7269 0.899347 -1.7291 0
M  V30 641 H 58.8229 2.40472 -1.98947 0
M  V30 642 N 59.124 1.23083 0.984299 0
M  V30 643 C 60.072 1.00593 2.09723 0
M  V30 644 C 61.066 -0.0538014 1.69315 0
M  V30 645 O 62.272 0.0993719 1.79725 0
M  V30 646 H 58.647 0.30817 0.685956 0
M  V30 647 H 60.618 1.95012 2.2586 0
M  V30 648 C 59.367 0.609601 3.42314 0
M  V30 649 H 58.69 1.41675 3.73856 0
M  V30 650 H 60.13 0.491726 4.21139 0
M  V30 651 C 58.589 -0.681745 3.2993 0
M  V30 652 O 59.119 -1.73192 3.62446 0
M  V30 653 N 57.325 -0.656178 2.83095 0
M  V30 654 H 56.872 0.198759 2.56832 0
M  V30 655 H 56.83 -1.52044 2.75191 0
M  V30 656 N 60.6021 -1.18246 1.0419 0
M  V30 657 C 61.5121 -2.25574 0.644476 0
M  V30 658 C 62.5281 -1.70845 -0.329826 0
M  V30 659 O 63.7041 -2.00554 -0.184443 0
M  V30 660 C 60.7691 -3.46697 0.014877 0
M  V30 661 C 59.8301 -4.16554 1.03834 0
M  V30 662 C 59.0631 -5.31894 0.438692 0
M  V30 663 O 59.2861 -5.65385 -0.754752 0
M  V30 664 O 58.2201 -5.90459 1.168 0
M  V30 665 H 62.0461 -2.61836 1.53869 0
M  V30 666 H 59.6311 -1.25352 0.812854 0
M  V30 667 H 61.5131 -4.20062 -0.335538 0
M  V30 668 H 60.1881 -3.12255 -0.853138 0
M  V30 669 H 59.0951 -3.45251 1.44057 0
M  V30 670 H 60.4281 -4.54998 1.87716 0
M  V30 671 N 62.0802 -0.821533 -1.34494 0
M  V30 672 C 63.3082 -0.421884 -2.02553 0
M  V30 673 C 63.7232 0.971745 -1.61872 0
M  V30 674 O 63.0802 1.62864 -0.823496 0
M  V30 675 C 63.1312 -0.51285 -3.57844 0
M  V30 676 O 62.8522 -1.85155 -3.97051 0
M  V30 677 C 64.3532 -0.107921 -4.43169 0
M  V30 678 H 61.5732 -0.169482 -0.649243 0
M  V30 679 H 64.1172 -1.1093 -1.71798 0
M  V30 680 H 62.2722 0.126474 -3.87193 0
M  V30 681 H 62.6862 -1.82482 -4.91732 0
M  V30 682 H 64.1602 -0.222657 -5.51551 0
M  V30 683 H 64.6372 0.948401 -4.28838 0
M  V30 684 H 65.2432 -0.720989 -4.19144 0
M  V30 685 N 63.5583 1.46682 -0.576371 0
M  V30 686 C 64.4883 2.33028 0.148397 0
M  V30 687 C 65.4693 1.44961 0.889956 0
M  V30 688 O 66.6543 1.73789 0.866662 0
M  V30 689 C 63.7843 3.27117 1.1667 0
M  V30 690 C 62.7383 4.24575 0.540386 0
M  V30 691 C 62.0643 5.08126 1.6647 0
M  V30 692 C 63.3643 5.19722 -0.518331 0
M  V30 693 H 65.0583 2.93875 -0.572509 0
M  V30 694 H 62.6043 1.41315 -0.276768 0
M  V30 695 H 64.5573 3.86374 1.68204 0
M  V30 696 H 63.2813 2.64364 1.9178 0
M  V30 697 H 61.9403 3.66571 0.0461769 0
M  V30 698 H 61.5883 4.41762 2.40531 0
M  V30 699 H 61.2883 5.74122 1.25131 0
M  V30 700 H 62.8123 5.70246 2.18293 0
M  V30 701 H 64.2263 5.73232 -0.0883058 0
M  V30 702 H 62.6233 5.94026 -0.851679 0
M  V30 703 H 63.6933 4.64037 -1.40703 0
M  V30 704 N 65.0364 0.313813 1.54444 0
M  V30 705 C 65.9664 -0.549454 2.26943 0
M  V30 706 C 66.9474 -1.12741 1.27372 0
M  V30 707 O 68.1324 -1.15436 1.56167 0
M  V30 708 C 65.2624 -1.71523 3.01989 0
M  V30 709 C 64.2164 -1.26703 4.08816 0
M  V30 710 C 63.5424 -2.51898 4.71647 0
M  V30 711 C 64.8424 -0.388962 5.2085 0
M  V30 712 H 66.5364 0.0552661 2.99349 0
M  V30 713 H 64.0824 0.0280207 1.43973 0
M  V30 714 H 66.0354 -2.32535 3.51433 0
M  V30 715 H 64.7594 -2.34639 2.27183 0
M  V30 716 H 63.4184 -0.679896 3.6024 0
M  V30 717 H 63.0664 -3.13356 3.93468 0
M  V30 718 H 62.7664 -2.22605 5.43802 0
M  V30 719 H 64.2904 -3.1369 5.23861 0
M  V30 720 H 65.7044 -0.905107 5.6611 0
M  V30 721 H 64.1014 -0.18924 5.99802 0
M  V30 722 H 65.1714 0.582699 4.81386 0
M  V30 723 N 66.5145 -1.57545 0.0417849 0
M  V30 724 C 67.7395 -1.97035 -0.647455 0
M  V30 725 C 68.1645 -0.918775 -1.64135 0
M  V30 726 O 67.5225 0.119006 -1.80909 0
M  V30 727 C 67.5705 -3.35609 -1.31905 0
M  V30 728 O 66.6745 -3.3287 -2.43457 0
M  V30 729 H 66.0155 -0.64211 -0.169086 0
M  V30 730 H 68.5455 -2.04318 0.107399 0
M  V30 731 H 68.5555 -3.72126 -1.67291 0
M  V30 732 H 67.2305 -4.11685 -0.590586 0
M  V30 733 H 65.8075 -3.08087 -2.10088 0
M  V30 734 N 67.9926 0.231505 -1.5589 0
M  V30 735 C 69.2386 0.954429 -1.79617 0
M  V30 736 C 69.5936 1.82367 -0.613199 0
M  V30 737 O 68.8866 1.87524 0.393094 0
M  V30 738 C 69.0806 1.83577 -3.0665 0
M  V30 739 C 68.9096 1.05334 -4.3719 0
M  V30 740 C 67.6796 0.75225 -4.99669 0
M  V30 741 C 69.8776 0.423444 -5.12554 0
M  V30 742 N 67.8596 -0.052627 -6.13877 0
M  V30 743 C 69.2306 -0.245287 -6.19515 0
M  V30 744 C 71.2856 0.335466 -4.96769 0
M  V30 745 C 69.9886 -0.993566 -7.12405 0
M  V30 746 C 72.0146 -0.399321 -5.9005 0
M  V30 747 C 71.3766 -1.05663 -6.9643 0
M  V30 748 H 67.4756 0.329846 -0.709031 0
M  V30 749 H 70.0596 0.226172 -1.93382 0
M  V30 750 H 68.2306 2.53592 -2.94186 0
M  V30 751 H 69.9626 2.49541 -3.18608 0
M  V30 752 H 66.7176 1.06783 -4.61405 0
M  V30 753 H 67.1416 -0.443609 -6.75545 0
M  V30 754 H 71.7836 0.829311 -4.14587 0
M  V30 755 H 69.5016 -1.49896 -7.94076 0
M  V30 756 H 73.0876 -0.468265 -5.79913 0
M  V30 757 H 71.9676 -1.61612 -7.67366 0
M  V30 758 N 69.4707 1.49531 0.497807 0
M  V30 759 C 70.4177 1.66436 1.59899 0
M  V30 760 C 71.3877 0.505793 1.58212 0
M  V30 761 O 72.5727 0.733202 1.7615 0
M  V30 762 C 69.7127 1.7399 2.98029 0
M  V30 763 C 68.8257 3.01172 3.09708 0
M  V30 764 C 67.9607 2.99686 4.38591 0
M  V30 765 C 66.9997 4.21434 4.43914 0
M  V30 766 N 66.1367 4.1784 5.64229 0
M  V30 767 H 70.9767 2.60459 1.44793 0
M  V30 768 H 68.5137 1.29137 0.704423 0
M  V30 769 H 70.4717 1.76352 3.78095 0
M  V30 770 H 69.1017 0.834301 3.11832 0
M  V30 771 H 68.1537 3.08408 2.22685 0
M  V30 772 H 69.4657 3.91165 3.09502 0
M  V30 773 H 68.6197 3.00628 5.2698 0
M  V30 774 H 67.3587 2.07477 4.41367 0
M  V30 775 H 66.3637 4.20733 3.53926 0
M  V30 776 H 67.5887 5.14839 4.42851 0
M  V30 777 H 65.5347 3.28469 5.67841 0
M  V30 778 H 65.4517 5.01571 5.65652 0
M  V30 779 H 66.7197 4.22889 6.54817 0
M  V30 780 N 70.9488 -0.749086 1.3866 0
M  V30 781 C 72.1768 -1.53834 1.38358 0
M  V30 782 C 72.5918 -1.88783 -0.0255219 0
M  V30 783 O 71.9488 -1.53101 -0.993292 0
M  V30 784 C 71.9998 -2.83468 2.2434 0
M  V30 785 O 71.7208 -2.50008 3.5976 0
M  V30 786 C 73.2218 -3.7758 2.32267 0
M  V30 787 H 70.4418 -0.47585 0.473083 0
M  V30 788 H 72.9858 -0.926726 1.82297 0
M  V30 789 H 71.1408 -3.40995 1.83851 0
M  V30 790 H 71.5548 -3.33182 4.05081 0
M  V30 791 H 73.0288 -4.65478 2.96706 0
M  V30 792 H 73.5058 -4.18334 1.33765 0
M  V30 793 H 74.1118 -3.25976 2.73166 0
M  V30 794 N 72.4269 -1.23603 -0.977757 0
M  V30 795 C 73.6519 -1.09735 -1.75991 0
M  V30 796 C 74.0769 0.346858 -1.84874 0
M  V30 797 O 73.4349 1.25093 -1.3123 0
M  V30 798 C 73.4829 -1.73051 -3.16363 0
M  V30 799 O 72.5869 -0.994452 -4.0023 0
M  V30 800 H 71.9279 -0.384476 -0.541364 0
M  V30 801 H 74.4579 -1.6371 -1.2272 0
M  V30 802 H 74.4679 -1.78398 -3.66931 0
M  V30 803 H 73.1429 -2.78137 -3.09213 0
M  V30 804 H 71.7199 -1.01812 -3.58732 0
M  V30 805 N 73.905 1.17692 -1.04816 0
M  V30 806 C 75.321 1.39863 -0.768794 0
M  V30 807 C 75.521 1.91118 0.638451 0
M  V30 808 O 74.577 2.10036 1.40146 0
M  V30 809 C 75.89 2.39274 -1.82122 0
M  V30 810 C 77.438 2.52987 -1.843 0
M  V30 811 C 77.913 3.55669 -2.88555 0
M  V30 812 N 79.404 3.63183 -2.87493 0
M  V30 813 C 80.139 4.42381 -3.64811 0
M  V30 814 N 79.635 5.25125 -4.51903 0
M  V30 815 N 81.428 4.37217 -3.53267 0
M  V30 816 H 73.579 0.82752 -1.95617 0
M  V30 817 H 75.842 0.426123 -0.846831 0
M  V30 818 H 75.548 2.08678 -2.83102 0
M  V30 819 H 75.422 3.38725 -1.65967 0
M  V30 820 H 77.809 2.82896 -0.839869 0
M  V30 821 H 77.89 1.53623 -2.04532 0
M  V30 822 H 77.534 3.26499 -3.89051 0
M  V30 823 H 77.464 4.54728 -2.65575 0
M  V30 824 H 79.955 3.04103 -2.24343 0
M  V30 825 H 80.268 5.82728 -5.07591 0
M  V30 826 H 78.613 5.24519 -4.55966 0
M  V30 827 H 81.804 3.71626 -2.84625 0
M  V30 828 H 81.977 4.98696 -4.13771 0
M  V30 829 N 75.3831 0.828654 1.34056 0
M  V30 830 C 76.3461 0.259927 2.27721 0
M  V30 831 C 77.3461 -0.565478 1.50529 0
M  V30 832 O 78.5361 -0.38075 1.69988 0
M  V30 833 C 75.6681 -0.634944 3.34935 0
M  V30 834 H 76.8611 1.0863 2.79534 0
M  V30 835 H 74.4141 0.600951 1.44285 0
M  V30 836 H 75.1491 -1.48416 2.88346 0
M  V30 837 H 74.9341 -0.0444999 3.92075 0
M  V30 838 H 76.4241 -1.02648 4.04788 0
M  V30 839 N 76.8612 -1.46375 0.584142 0
M  V30 840 C 78.0892 -2.06761 0.0759296 0
M  V30 841 C 78.5042 -1.43266 -1.22965 0
M  V30 842 O 77.8612 -0.538458 -1.74376 0
M  V30 843 C 77.9122 -3.61375 -0.0950384 0
M  V30 844 O 77.6332 -4.22495 1.15887 0
M  V30 845 C 79.1342 -4.38693 -0.637434 0
M  V30 846 H 76.3542 -0.668479 0.0581075 0
M  V30 847 H 78.8982 -1.8798 0.805218 0
M  V30 848 H 77.0532 -3.79578 -0.774554 0
M  V30 849 H 77.4672 -5.15385 0.973598 0
M  V30 850 H 78.9412 -5.47464 -0.706237 0
M  V30 851 H 79.4182 -4.06836 -1.65472 0
M  V30 852 H 80.0242 -4.25299 0.00725967 0
M  V30 853 N 78.3393 -0.321999 -1.54275 0
M  V30 854 C 79.5873 0.280489 -2.00144 0
M  V30 855 C 79.9083 1.52777 -1.21178 0
M  V30 856 O 79.1783 1.9338 -0.313187 0
M  V30 857 H 77.7583 0.106632 -0.73935 0
M  V30 858 H 80.4203 -0.438184 -1.8991 0
M  V30 859 H 79.5163 0.537972 -3.07428 0
M  V30 860 N 79.8174 1.5752 -0.0501392 0
M  V30 861 C 81.0454 1.96963 0.633492 0
M  V30 862 C 81.4604 0.927631 1.6444 0
M  V30 863 O 80.8174 -0.0882665 1.82286 0
M  V30 864 C 80.8684 3.36487 1.32132 0
M  V30 865 O 80.5894 4.36693 0.350894 0
M  V30 866 C 82.0904 3.90682 2.09481 0
M  V30 867 H 79.3104 0.648244 0.173266 0
M  V30 868 H 81.8544 2.0417 -0.116134 0
M  V30 869 H 80.0094 3.30434 2.02218 0
M  V30 870 H 80.4234 5.17702 0.841735 0
M  V30 871 H 81.8974 4.90591 2.5303 0
M  V30 872 H 82.3744 3.26053 2.94255 0
M  V30 873 H 82.9804 4.00069 1.44307 0
M  V30 874 N 81.2955 -0.223234 1.56011 0
M  V30 875 C 82.2585 -1.26014 1.9145 0
M  V30 876 C 83.2585 -1.3989 0.792937 0
M  V30 877 O 84.4485 -1.38184 1.0607 0
M  V30 878 C 81.5805 -2.63422 2.16383 0
M  V30 879 H 82.7735 -0.95796 2.84189 0
M  V30 880 H 80.3265 -0.463576 1.49267 0
M  V30 881 H 81.0615 -2.98741 1.2619 0
M  V30 882 H 80.8465 -2.54728 2.98088 0
M  V30 883 H 82.3365 -3.38249 2.44903 0
M  V30 884 N 82.7736 -1.49793 -0.48987 0
M  V30 885 C 84.0206 -1.59841 -1.24327 0
M  V30 886 C 84.3486 -0.290135 -1.92324 0
M  V30 887 O 83.6036 0.722749 -1.81865 0
M  V30 888 C 83.9026 -2.71488 -2.32441 0
M  V30 889 C 83.5686 -4.12614 -1.81826 0
M  V30 890 C 82.2306 -4.51017 -1.67742 0
M  V30 891 C 84.5826 -5.00892 -1.4407 0
M  V30 892 C 81.9106 -5.75459 -1.14297 0
M  V30 893 C 84.2626 -6.25863 -0.920742 0
M  V30 894 C 82.9266 -6.63086 -0.766383 0
M  V30 895 H 82.1966 -0.584899 -0.454944 0
M  V30 896 H 84.8436 -1.83663 -0.542215 0
M  V30 897 H 83.1486 -2.4168 -3.0838 0
M  V30 898 H 84.8456 -2.76469 -2.90458 0
M  V30 899 H 81.4356 -3.82307 -1.93751 0
M  V30 900 H 85.6196 -4.7187 -1.53794 0
M  V30 901 H 80.8756 -6.02989 -1.01068 0
M  V30 902 H 85.0496 -6.9364 -0.619448 0
M  V30 903 H 82.6766 -7.59393 -0.350083 0
M  V30 904 N 84.2517 0.741722 -1.39055 0
M  V30 905 C 85.1817 1.869 -1.39966 0
M  V30 906 C 86.1627 1.6804 -0.26392 0
M  V30 907 O 87.3477 1.88458 -0.468755 0
M  V30 908 C 84.4777 3.24572 -1.23574 0
M  V30 909 C 83.4317 3.58056 -2.34477 0
M  V30 910 C 82.7577 4.94593 -2.0318 0
M  V30 911 C 84.0577 3.61716 -3.76774 0
M  V30 912 H 85.7517 1.86395 -2.34302 0
M  V30 913 H 83.2977 0.895361 -1.1278 0
M  V30 914 H 85.2507 4.031 -1.22834 0
M  V30 915 H 83.9747 3.25587 -0.257045 0
M  V30 916 H 82.6337 2.81854 -2.34423 0
M  V30 917 H 82.2817 4.92181 -1.03765 0
M  V30 918 H 81.9817 5.17964 -2.77465 0
M  V30 919 H 83.5057 5.75486 -2.04079 0
M  V30 920 H 84.9197 4.30335 -3.78794 0
M  V30 921 H 83.3167 3.96603 -4.50362 0
M  V30 922 H 84.3867 2.61672 -4.08235 0
M  V30 923 N 85.7298 1.2412 0.971189 0
M  V30 924 C 86.6598 1.05508 2.08304 0
M  V30 925 C 87.6408 -0.0308864 1.70072 0
M  V30 926 O 88.8258 0.135521 1.93727 0
M  V30 927 C 85.9558 0.655365 3.4106 0
M  V30 928 C 84.9098 1.68971 3.93234 0
M  V30 929 C 84.2358 1.14516 5.22293 0
M  V30 930 C 85.5358 3.08487 4.21465 0
M  V30 931 H 87.2298 1.98507 2.24132 0
M  V30 932 H 84.7758 0.955821 1.07704 0
M  V30 933 H 86.7288 0.51217 4.18276 0
M  V30 934 H 85.4528 -0.31032 3.25122 0
M  V30 935 H 84.1118 1.82106 3.18171 0
M  V30 936 H 83.7598 0.170189 5.02712 0
M  V30 937 H 83.4598 1.83635 5.58168 0
M  V30 938 H 84.9838 1.01401 6.02121 0
M  V30 939 H 86.3978 2.98601 4.89398 0
M  V30 940 H 84.7948 3.74926 4.68562 0
M  V30 941 H 85.8648 3.56787 3.28376 0
M  V30 942 N 87.2079 -1.17134 1.05439 0
M  V30 943 C 88.1379 -2.2342 0.678649 0
M  V30 944 C 89.1189 -1.66971 -0.32476 0
M  V30 945 O 90.3039 -1.93149 -0.201802 0
M  V30 946 C 87.4339 -3.47256 0.0552099 0
M  V30 947 C 86.3879 -4.16543 0.98365 0
M  V30 948 C 85.7139 -5.34231 0.223961 0
M  V30 949 C 87.0139 -4.68495 2.3089 0
M  V30 950 H 88.7079 -2.55105 1.56722 0
M  V30 951 H 86.2539 -1.2262 0.754998 0
M  V30 952 H 88.2069 -4.20828 -0.21946 0
M  V30 953 H 86.9309 -3.14846 -0.868319 0
M  V30 954 H 85.5899 -3.44887 1.24293 0
M  V30 955 H 85.2379 -4.98071 -0.702412 0
M  V30 956 H 84.9379 -5.81527 0.842627 0
M  V30 957 H 86.4619 -6.10585 -0.0433671 0
M  V30 958 H 87.8759 -5.33691 2.09396 0
M  V30 959 H 86.2729 -5.26379 2.88176 0
M  V30 960 H 87.3429 -3.85169 2.94572 0
M  V30 961 N 88.686 -0.835752 -1.33615 0
M  V30 962 C 89.649 -0.272 -2.2758 0
M  V30 963 C 90.649 0.557487 -1.50827 0
M  V30 964 O 91.839 0.37173 -1.70188 0
M  V30 965 C 88.971 0.617173 -3.35267 0
M  V30 966 H 90.164 -1.10111 -2.78954 0
M  V30 967 H 87.717 -0.608594 -1.43965 0
M  V30 968 H 88.452 1.46884 -2.89129 0
M  V30 969 H 88.237 0.0237066 -3.92093 0
M  V30 970 H 89.727 1.005 -4.05326 0
M  V30 971 N 90.1641 1.46063 -0.591896 0
M  V30 972 C 91.1271 2.28854 0.125973 0
M  V30 973 C 92.1271 1.38903 0.810107 0
M  V30 974 O 93.3171 1.61186 0.66066 0
M  V30 975 C 90.4491 3.19526 1.1881 0
M  V30 976 H 91.6421 2.93802 -0.601717 0
M  V30 977 H 89.1951 1.52325 -0.350254 0
M  V30 978 H 89.9301 2.59345 1.94707 0
M  V30 979 H 89.7151 3.85766 0.701936 0
M  V30 980 H 91.2051 3.81817 1.69132 0
M  V30 981 N 91.6422 0.330177 1.54103 0
M  V30 982 C 92.5722 -0.525353 2.27513 0
M  V30 983 C 93.5532 -1.11383 1.2856 0
M  V30 984 O 94.7382 -1.13773 1.57383 0
M  V30 985 C 91.8682 -1.6831 3.03791 0
M  V30 986 C 90.8222 -1.2236 4.10137 0
M  V30 987 C 90.1482 -2.46882 4.74293 0
M  V30 988 C 91.4482 -0.333697 5.21233 0
M  V30 989 H 93.1422 0.087013 2.99274 0
M  V30 990 H 90.6882 0.0432893 1.43935 0
M  V30 991 H 92.6412 -2.28795 3.5388 0
M  V30 992 H 91.3652 -2.32216 2.29659 0
M  V30 993 H 90.0242 -0.64165 3.60941 0
M  V30 994 H 89.6722 -3.09165 3.96769 0
M  V30 995 H 89.3722 -2.16825 5.46133 0
M  V30 996 H 90.8962 -3.08117 5.27159 0
M  V30 997 H 92.3102 -0.845013 5.67038 0
M  V30 998 H 90.7072 -0.125612 5.99969 0
M  V30 999 H 91.7772 0.633724 4.80741 0
M  V30 1000 N 93.1203 -1.57491 0.0584922 0
M  V30 1001 C 94.0503 -2.14988 -0.911178 0
M  V30 1002 C 95.0313 -1.07343 -1.31952 0
M  V30 1003 O 96.2163 -1.35318 -1.39294 0
M  V30 1004 C 93.3463 -2.70078 -2.18347 0
M  V30 1005 C 92.3003 -3.82771 -1.91495 0
M  V30 1006 C 91.6263 -4.24408 -3.25241 0
M  V30 1007 C 92.9263 -5.07592 -1.23075 0
M  V30 1008 H 94.6203 -2.96263 -0.432246 0
M  V30 1009 H 92.1663 -1.42512 -0.206469 0
M  V30 1010 H 94.1193 -3.08943 -2.86587 0
M  V30 1011 H 92.8433 -1.86005 -2.68458 0
M  V30 1012 H 91.5023 -3.44389 -1.25664 0
M  V30 1013 H 91.1503 -3.37275 -3.73168 0
M  V30 1014 H 90.8503 -5.00366 -3.08071 0
M  V30 1015 H 92.3743 -4.65879 -3.94701 0
M  V30 1016 H 93.7883 -5.43857 -1.81362 0
M  V30 1017 H 92.1853 -5.88741 -1.16207 0
M  V30 1018 H 93.2553 -4.84454 -0.207847 0
M  V30 1019 N 94.5984 0.214957 -1.56127 0
M  V30 1020 C 95.8464 0.936518 -1.79091 0
M  V30 1021 C 96.1674 1.84606 -0.628148 0
M  V30 1022 O 95.4374 1.92664 0.35462 0
M  V30 1023 H 94.0174 0.3488 -0.660566 0
M  V30 1024 H 96.6794 0.22523 -1.93594 0
M  V30 1025 H 95.7754 1.53943 -2.71492 0
M  V30 1026 N 96.0765 1.50051 0.48192 0
M  V30 1027 C 97.0065 1.71046 1.58951 0
M  V30 1028 C 97.9875 0.559288 1.60642 0
M  V30 1029 O 99.1725 0.797243 1.77081 0
M  V30 1030 C 96.3025 1.79462 2.97339 0
M  V30 1031 C 95.2565 2.94558 3.10515 0
M  V30 1032 C 94.5825 2.88105 4.50444 0
M  V30 1033 C 95.8825 4.35227 2.88747 0
M  V30 1034 H 97.5765 2.6378 1.41635 0
M  V30 1035 H 95.1225 1.26936 0.679942 0
M  V30 1036 H 97.0755 1.92734 3.74742 0
M  V30 1037 H 95.7995 0.833412 3.15788 0
M  V30 1038 H 94.4585 2.80918 2.35543 0
M  V30 1039 H 94.1065 1.89853 4.65795 0
M  V30 1040 H 93.8065 3.65366 4.60197 0
M  V30 1041 H 95.3305 3.03412 5.29881 0
M  V30 1042 H 96.7445 4.49449 3.55905 0
M  V30 1043 H 95.1415 5.13856 3.09955 0
M  V30 1044 H 96.2115 4.48347 1.84696 0
M  V30 1045 N 97.5546 -0.734337 1.39446 0
M  V30 1046 C 98.9656 -1.31264 1.32766 0
M  V30 1047 C 99.3166 -1.96198 -0.00767497 0
M  V30 1048 O 98.4416 -1.96346 -0.909796 0
M  V30 1049 C 99.0366 -2.38682 2.4045 0
M  V30 1050 C 97.5956 -2.92184 2.37288 0
M  V30 1051 C 96.7426 -1.6576 2.22304 0
M  V30 1052 H 99.6936 -0.531799 1.49525 0
M  V30 1053 H 99.7146 -3.19087 2.07276 0
M  V30 1054 H 99.2266 -1.91392 3.37625 0
M  V30 1055 H 97.3276 -3.43752 1.43754 0
M  V30 1056 H 97.4406 -3.45253 3.3217 0
M  V30 1057 H 95.8046 -1.9012 1.69489 0
M  V30 1058 H 96.5876 -1.20521 3.21449 0
M  V30 1059 N 99.0327 -1.24633 -0.964593 0
M  V30 1060 C 100.281 -1.08573 -1.70459 0
M  V30 1061 C 100.602 0.375655 -1.91347 0
M  V30 1062 O 99.8717 1.26779 -1.49345 0
M  V30 1063 H 98.4517 -0.398784 -0.631649 0
M  V30 1064 H 101.114 -1.56601 -1.16026 0
M  V30 1065 H 100.21 -1.58623 -2.68785 0
M  V30 1066 N 100.511 1.16574 -1.06058 0
M  V30 1067 C 101.459 2.22941 -0.663343 0
M  V30 1068 C 102.453 1.66358 0.319593 0
M  V30 1069 O 103.659 1.7905 0.184713 0
M  V30 1070 H 100.034 0.725907 -0.196376 0
M  V30 1071 H 102.005 2.53736 -1.57037 0
M  V30 1072 C 100.754 3.47642 -0.0632808 0
M  V30 1073 H 100.077 3.91493 -0.810733 0
M  V30 1074 H 101.517 4.2363 0.177177 0
M  V30 1075 C 99.9758 3.1509 1.19248 0
M  V30 1076 O 100.506 3.30673 2.28075 0
M  V30 1077 N 98.7118 2.6924 1.09353 0
M  V30 1078 H 98.2588 2.5676 0.207912 0
M  V30 1079 H 98.2168 2.47833 1.93458 0
M  V30 1080 N 101.989 0.842826 1.3317 0
M  V30 1081 C 103.237 0.439577 1.97262 0
M  V30 1082 C 103.558 -1.00548 1.67078 0
M  V30 1083 O 102.828 -1.70098 0.971779 0
M  V30 1084 H 101.408 0.159558 0.72976 0
M  V30 1085 H 104.07 1.07665 1.62463 0
M  V30 1086 H 103.166 0.574886 3.0676 0
M  V30 1087 N 103.467 -1.45747 0.599634 0
M  V30 1088 C 104.714 -2.02292 0.0917284 0
M  V30 1089 C 105.042 -1.46906 -1.27472 0
M  V30 1090 O 104.297 -0.630652 -1.8526 0
M  V30 1091 C 104.596 -3.57399 -0.00602758 0
M  V30 1092 C 104.262 -4.31902 1.29503 0
M  V30 1093 C 102.924 -4.51974 1.65144 0
M  V30 1094 C 105.276 -4.74551 2.15525 0
M  V30 1095 C 102.604 -5.11949 2.86574 0
M  V30 1096 C 104.956 -5.35868 3.36196 0
M  V30 1097 C 103.62 -5.54165 3.72099 0
M  V30 1098 H 102.89 -0.740239 0.0335658 0
M  V30 1099 H 105.537 -1.7491 0.779661 0
M  V30 1100 H 103.842 -3.84014 -0.777183 0
M  V30 1101 H 105.539 -3.98846 -0.415038 0
M  V30 1102 H 102.129 -4.16588 1.00761 0
M  V30 1103 H 106.313 -4.58784 1.8929 0
M  V30 1104 H 101.569 -5.24305 3.14507 0
M  V30 1105 H 105.743 -5.6787 4.03109 0
M  V30 1106 H 103.37 -6.00406 4.6628 0
M  V30 1107 N 104.945 -0.338344 -1.53925 0
M  V30 1108 C 106.191 0.260143 -2.01125 0
M  V30 1109 C 106.524 1.50617 -1.22589 0
M  V30 1110 O 105.799 1.91979 -0.312113 0
M  V30 1111 C 106.082 0.579499 -3.55407 0
M  V30 1112 C 105.935 -0.678264 -4.44657 0
M  V30 1113 C 107.254 1.39122 -4.17532 0
M  V30 1114 H 104.373 0.0930772 -0.731099 0
M  V30 1115 H 107.015 -0.457852 -1.84401 0
M  V30 1116 H 105.165 1.19118 -3.69788 0
M  V30 1117 H 106.837 -1.31631 -4.42121 0
M  V30 1118 H 105.08 -1.3042 -4.13731 0
M  V30 1119 H 105.751 -0.410143 -5.50474 0
M  V30 1120 H 108.227 0.874035 -4.06817 0
M  V30 1121 H 107.103 1.58342 -5.25565 0
M  V30 1122 H 107.364 2.39178 -3.71815 0
M  V30 1123 N 106.423 1.57458 -0.0668435 0
M  V30 1124 C 107.669 1.93587 0.6043 0
M  V30 1125 C 108.002 0.946722 1.69561 0
M  V30 1126 O 107.277 -0.0248516 1.94484 0
M  V30 1127 C 107.56 3.40014 1.18585 0
M  V30 1128 C 107.413 4.49685 0.101529 0
M  V30 1129 C 108.732 3.87154 2.09284 0
M  V30 1130 H 105.851 0.703958 0.218202 0
M  V30 1131 H 108.493 1.89542 -0.131804 0
M  V30 1132 H 106.643 3.43592 1.81319 0
M  V30 1133 H 108.315 4.5823 -0.531279 0
M  V30 1134 H 106.558 4.30059 -0.568487 0
M  V30 1135 H 107.229 5.49266 0.54874 0
M  V30 1136 H 109.705 3.85551 1.56491 0
M  V30 1137 H 108.581 4.90231 2.46911 0
M  V30 1138 H 108.842 3.2481 2.99918 0
M  V30 1139 N 107.901 -0.206675 1.56239 0
M  V30 1140 C 109.147 -0.925733 1.81113 0
M  V30 1141 C 109.502 -1.81368 0.642135 0
M  V30 1142 O 108.795 -1.88126 -0.363211 0
M  V30 1143 C 108.989 -1.78675 3.09532 0
M  V30 1144 C 108.818 -0.98365 4.3881 0
M  V30 1145 C 107.588 -0.672661 5.00803 0
M  V30 1146 C 109.786 -0.341847 5.13163 0
M  V30 1147 N 107.768 0.150283 6.13716 0
M  V30 1148 C 109.139 0.343815 6.19046 0
M  V30 1149 C 111.194 -0.256392 4.97239 0
M  V30 1150 C 109.897 1.10678 7.10734 0
M  V30 1151 C 111.923 0.493142 5.8934 0
M  V30 1152 C 111.285 1.16729 6.94661 0
M  V30 1153 H 107.384 -0.318524 0.714189 0
M  V30 1154 H 109.968 -0.195378 1.93717 0
M  V30 1155 H 108.139 -2.4888 2.98183 0
M  V30 1156 H 109.871 -2.44441 3.22538 0
M  V30 1157 H 106.626 -0.994294 4.63045 0
M  V30 1158 H 107.05 0.551026 6.74754 0
M  V30 1159 H 111.692 -0.763249 4.15854 0
M  V30 1160 H 109.41 1.6251 7.91591 0
M  V30 1161 H 112.996 0.560465 5.79094 0
M  V30 1162 H 111.876 1.738 7.64698 0
M  V30 1163 N 109.379 -1.50304 -0.473955 0
M  V30 1164 C 110.604 -1.65175 -1.25427 0
M  V30 1165 C 111.029 -0.333673 -1.85117 0
M  V30 1166 O 110.387 0.702114 -1.67153 0
M  V30 1167 C 110.435 -2.74295 -2.34082 0
M  V30 1168 O 109.539 -2.35349 -3.38651 0
M  V30 1169 H 108.88 -0.551944 -0.369126 0
M  V30 1170 H 111.41 -1.96662 -0.564364 0
M  V30 1171 H 111.42 -2.97285 -2.79438 0
M  V30 1172 H 110.095 -3.69959 -1.90008 0
M  V30 1173 H 108.672 -2.22794 -2.99027 0
M  V30 1174 N 110.857 0.726932 -1.39834 0
M  V30 1175 C 111.787 1.85405 -1.41941 0
M  V30 1176 C 112.768 1.67751 -0.281728 0
M  V30 1177 O 113.953 1.8795 -0.488717 0
M  V30 1178 C 111.083 3.23243 -1.2701 0
M  V30 1179 C 110.037 3.55549 -2.38262 0
M  V30 1180 C 109.363 4.9241 -2.08415 0
M  V30 1181 C 110.663 3.577 -3.80589 0
M  V30 1182 H 112.357 1.83899 -2.36266 0
M  V30 1183 H 109.903 0.883349 -1.13723 0
M  V30 1184 H 111.856 4.01775 -1.27103 0
M  V30 1185 H 110.58 3.25296 -0.291564 0
M  V30 1186 H 109.239 2.79351 -2.37399 0
M  V30 1187 H 108.887 4.91052 -1.0898 0
M  V30 1188 H 108.587 5.14992 -2.82943 0
M  V30 1189 H 110.111 5.73289 -2.10171 0
M  V30 1190 H 111.525 4.26293 -3.83337 0
M  V30 1191 H 109.922 3.91804 -4.54543 0
M  V30 1192 H 110.992 2.57328 -4.10987 0
M  V30 1193 N 112.336 1.25143 0.95797 0
M  V30 1194 C 113.299 1.05321 2.03569 0
M  V30 1195 C 114.299 0.007152 1.60798 0
M  V30 1196 O 115.489 0.24903 1.72411 0
M  V30 1197 C 112.621 0.598394 3.35607 0
M  V30 1198 H 113.814 2.00986 2.22586 0
M  V30 1199 H 111.367 1.07502 1.13459 0
M  V30 1200 H 112.102 -0.361014 3.22284 0
M  V30 1201 H 111.887 1.35351 3.67998 0
M  V30 1202 H 113.377 0.48104 4.1482 0
M  V30 1203 N 113.814 -1.1601 1.06675 0
M  V30 1204 C 115.062 -1.86264 0.784229 0
M  V30 1205 C 115.383 -1.82328 -0.691488 0
M  V30 1206 O 114.653 -1.25947 -1.50047 0
M  V30 1207 H 113.233 -0.689621 0.28711 0
M  V30 1208 H 115.895 -1.40664 1.34906 0
M  V30 1209 H 114.991 -2.91595 1.11259 0
M  V30 1210 N 115.292 -0.849877 -1.32721 0
M  V30 1211 C 116.538 -0.460855 -1.9811 0
M  V30 1212 C 116.893 0.971716 -1.66059 0
M  V30 1213 O 116.186 1.67184 -0.935944 0
M  V30 1214 C 116.38 -0.631272 -3.51781 0
M  V30 1215 C 116.209 -2.07886 -3.98765 0
M  V30 1216 C 114.979 -2.71637 -4.26077 0
M  V30 1217 C 117.177 -3.04889 -4.14182 0
M  V30 1218 N 115.159 -4.07356 -4.59276 0
M  V30 1219 C 116.53 -4.25583 -4.50865 0
M  V30 1220 C 118.585 -3.01148 -3.96503 0
M  V30 1221 C 117.288 -5.43027 -4.71714 0
M  V30 1222 C 119.314 -4.17832 -4.18533 0
M  V30 1223 C 118.676 -5.37284 -4.55528 0
M  V30 1224 H 114.775 -0.217283 -0.751207 0
M  V30 1225 H 117.359 -1.10026 -1.60631 0
M  V30 1226 H 115.53 -0.0215966 -3.88394 0
M  V30 1227 H 117.262 -0.212614 -4.04141 0
M  V30 1228 H 114.017 -2.22705 -4.17971 0
M  V30 1229 H 114.441 -4.77351 -4.80068 0
M  V30 1230 H 119.083 -2.0992 -3.67006 0
M  V30 1231 H 116.801 -6.34791 -5.00066 0
M  V30 1232 H 120.387 -4.16368 -4.06361 0
M  V30 1233 H 119.267 -6.26071 -4.72234 0
M  V30 1234 N 116.77 1.45427 -0.607355 0
M  V30 1235 C 118.186 1.57283 -0.270985 0
M  V30 1236 C 118.386 1.59875 1.22647 0
M  V30 1237 O 117.442 1.52893 2.00948 0
M  V30 1238 C 118.755 2.85566 -0.941952 0
M  V30 1239 C 120.303 2.9924 -0.917849 0
M  V30 1240 C 120.778 4.30293 -1.56882 0
M  V30 1241 N 122.269 4.37051 -1.5343 0
M  V30 1242 C 123.004 5.37123 -2.00715 0
M  V30 1243 N 122.5 6.43734 -2.56084 0
M  V30 1244 N 124.293 5.28479 -1.91484 0
M  V30 1245 H 116.444 1.41988 -1.57966 0
M  V30 1246 H 118.707 0.67885 -0.661715 0
M  V30 1247 H 118.413 2.8955 -1.99633 0
M  V30 1248 H 118.287 3.74322 -0.465096 0
M  V30 1249 H 120.674 2.94822 0.127984 0
M  V30 1250 H 120.755 2.11895 -1.43297 0
M  V30 1251 H 120.399 4.35469 -2.61398 0
M  V30 1252 H 120.329 5.16454 -1.02873 0
M  V30 1253 H 122.82 3.60615 -1.12982 0
M  V30 1254 H 123.133 7.16341 -2.89958 0
M  V30 1255 H 121.478 6.44485 -2.60122 0
M  V30 1256 H 124.669 4.44098 -1.47967 0
M  V30 1257 H 124.842 6.0632 -2.28648 0
M  V30 1258 N 118.248 0.346503 1.53744 0
M  V30 1259 C 119.659 -0.136779 1.86198 0
M  V30 1260 C 120.01 -1.49749 1.26766 0
M  V30 1261 O 119.135 -2.08417 0.582355 0
M  V30 1262 C 119.73 -0.254966 3.37839 0
M  V30 1263 C 118.289 -0.682482 3.70161 0
M  V30 1264 C 117.436 0.181981 2.76702 0
M  V30 1265 H 120.387 0.565994 1.48264 0
M  V30 1266 H 120.408 -1.08195 3.64793 0
M  V30 1267 H 119.92 0.735526 3.81066 0
M  V30 1268 H 118.021 -1.68189 3.3248 0
M  V30 1269 H 118.134 -0.470326 4.76786 0
M  V30 1270 H 116.498 -0.34615 2.52337 0
M  V30 1271 H 117.281 1.16966 3.2276 0
M  V30 1272 N 119.726 -1.57421 0.075193 0
M  V30 1273 C 120.689 -2.11791 -0.876203 0
M  V30 1274 C 121.689 -1.04268 -1.22412 0
M  V30 1275 O 122.879 -1.30242 -1.15684 0
M  V30 1276 C 120.011 -2.62207 -2.17854 0
M  V30 1277 H 121.204 -2.9716 -0.40444 0
M  V30 1278 H 118.757 -1.55333 -0.173557 0
M  V30 1279 H 119.492 -1.803 -2.6956 0
M  V30 1280 H 119.277 -3.40802 -1.93897 0
M  V30 1281 H 120.767 -3.04335 -2.85955 0
M  V30 1282 N 121.204 0.198386 -1.56346 0
M  V30 1283 C 122.62 0.549085 -1.49857 0
M  V30 1284 C 122.82 1.86016 -0.774611 0
M  V30 1285 O 121.876 2.50416 -0.323776 0
M  V30 1286 C 123.189 0.606868 -2.94512 0
M  V30 1287 C 124.737 0.695925 -3.05165 0
M  V30 1288 C 125.212 0.784848 -4.51225 0
M  V30 1289 N 126.703 0.848463 -4.55363 0
M  V30 1290 C 127.438 0.937378 -5.65686 0
M  V30 1291 N 126.934 0.9888 -6.85707 0
M  V30 1292 N 128.727 0.974312 -5.53592 0
M  V30 1293 H 120.878 -0.661655 -2.01831 0
M  V30 1294 H 123.141 -0.235261 -0.918344 0
M  V30 1295 H 122.847 -0.28732 -3.50524 0
M  V30 1296 H 122.721 1.46268 -3.47686 0
M  V30 1297 H 125.108 1.58055 -2.49204 0
M  V30 1298 H 125.189 -0.186022 -2.55123 0
M  V30 1299 H 124.833 -0.0954072 -5.0781 0
M  V30 1300 H 124.763 1.68255 -4.98997 0
M  V30 1301 H 127.254 0.818103 -3.68938 0
M  V30 1302 H 127.567 1.05707 -7.65536 0
M  V30 1303 H 125.912 0.957534 -6.88372 0
M  V30 1304 H 129.103 0.930954 -4.58749 0
M  V30 1305 H 129.276 1.04015 -6.39597 0
M  V30 1306 N 122.682 1.50554 0.465978 0
M  V30 1307 C 123.93 1.61479 1.21528 0
M  V30 1308 C 124.251 0.319596 1.92363 0
M  V30 1309 O 123.521 -0.663194 1.84333 0
M  V30 1310 H 122.101 0.595055 0.451573 0
M  V30 1311 H 124.763 1.87355 0.53704 0
M  V30 1312 H 123.859 2.42846 1.96042 0
M  V30 1313 N 124.16 -0.719506 1.40217 0
M  V30 1314 C 125.576 -1.02707 1.22161 0
M  V30 1315 C 125.776 -2.0128 0.0940557 0
M  V30 1316 O 124.832 -2.46452 -0.549318 0
M  V30 1317 C 126.145 -1.57454 2.56181 0
M  V30 1318 C 127.693 -1.69458 2.63159 0
M  V30 1319 C 128.168 -2.27611 3.97438 0
M  V30 1320 N 129.659 -2.35002 3.99159 0
M  V30 1321 C 130.394 -2.80972 4.99842 0
M  V30 1322 N 129.89 -3.26723 6.10921 0
M  V30 1323 N 131.683 -2.80321 4.87213 0
M  V30 1324 H 123.834 -0.0660492 2.12297 0
M  V30 1325 H 126.097 -0.0919077 0.943534 0
M  V30 1326 H 125.803 -0.924873 3.39321 0
M  V30 1327 H 125.677 -2.56036 2.76993 0
M  V30 1328 H 128.064 -2.33543 1.80393 0
M  V30 1329 H 128.145 -0.694867 2.46181 0
M  V30 1330 H 127.789 -1.6415 4.80643 0
M  V30 1331 H 127.719 -3.2829 4.11744 0
M  V30 1332 H 130.21 -2.02685 3.18947 0
M  V30 1333 H 130.523 -3.60355 6.8364 0
M  V30 1334 H 128.868 -3.24692 6.14492 0
M  V30 1335 H 132.059 -2.43912 3.9953 0
M  V30 1336 H 132.232 -3.15831 5.65822 0
M  V30 1337 N 125.638 -1.25649 -0.95132 0
M  V30 1338 C 127.049 -1.09654 -1.51106 0
M  V30 1339 C 127.4 0.326615 -1.93462 0
M  V30 1340 O 126.525 1.21697 -1.78938 0
M  V30 1341 C 127.12 -1.98437 -2.74605 0
M  V30 1342 C 125.679 -1.86618 -3.2688 0
M  V30 1343 C 124.826 -1.9239 -1.99703 0
M  V30 1344 H 127.777 -1.38887 -0.767865 0
M  V30 1345 H 127.798 -1.5263 -3.48546 0
M  V30 1346 H 127.31 -3.02009 -2.43746 0
M  V30 1347 H 125.411 -0.859421 -3.62553 0
M  V30 1348 H 125.524 -2.71607 -3.94673 0
M  V30 1349 H 123.888 -1.36317 -2.15151 0
M  V30 1350 H 124.671 -2.97573 -1.71188 0
M  V30 1351 N 127.117 1.15442 -1.07289 0
M  V30 1352 C 128.047 2.22312 -0.714107 0
M  V30 1353 C 129.028 1.67467 0.298155 0
M  V30 1354 O 130.213 1.93445 0.171048 0
M  V30 1355 C 127.343 3.47124 -0.110448 0
M  V30 1356 C 126.297 4.14926 -1.04979 0
M  V30 1357 C 125.623 5.33807 -0.308924 0
M  V30 1358 C 126.923 4.64762 -2.38314 0
M  V30 1359 H 128.617 2.5258 -1.6076 0
M  V30 1360 H 126.163 1.21404 -0.77441 0
M  V30 1361 H 128.116 4.21124 0.152482 0
M  V30 1362 H 126.84 3.16187 0.81812 0
M  V30 1363 H 125.499 3.42866 -1.29764 0
M  V30 1364 H 125.147 4.99126 0.623084 0
M  V30 1365 H 124.847 5.80113 -0.935036 0
M  V30 1366 H 126.371 6.10576 -0.0537771 0
M  V30 1367 H 127.785 5.30292 -2.1786 0
M  V30 1368 H 126.182 5.21728 -2.96514 0
M  V30 1369 H 127.252 3.80434 -3.00663 0
M  V30 1370 N 128.595 0.856903 1.32268 0
M  V30 1371 C 129.558 0.308171 2.27119 0
M  V30 1372 C 130.558 -0.533421 1.51695 0
M  V30 1373 O 131.748 -0.344607 1.70757 0
M  V30 1374 C 128.88 -0.563757 3.36206 0
M  V30 1375 H 130.073 1.14535 2.77167 0
M  V30 1376 H 127.626 0.631421 1.42978 0
M  V30 1377 H 128.361 -1.42266 2.91429 0
M  V30 1378 H 128.146 0.0386749 3.92081 0
M  V30 1379 H 129.636 -0.940386 4.06874 0
M  V30 1380 N 130.073 -1.45103 0.615059 0
M  V30 1381 C 131.036 -2.29025 -0.0895485 0
M  V30 1382 C 132.036 -1.40174 -0.787906 0
M  V30 1383 O 133.226 -1.62217 -0.634933 0
M  V30 1384 C 130.358 -3.21376 -1.13711 0
M  V30 1385 H 131.551 -2.92807 0.648382 0
M  V30 1386 H 129.104 -1.51749 0.374444 0
M  V30 1387 H 129.839 -2.6241 -1.90556 0
M  V30 1388 H 129.624 -3.86834 -0.640475 0
M  V30 1389 H 131.114 -3.84459 -1.63036 0
M  V30 1390 N 131.551 -0.354651 -1.53558 0
M  V30 1391 C 132.779 0.239515 -2.05509 0
M  V30 1392 C 133.194 1.4333 -1.2289 0
M  V30 1393 O 132.551 1.80538 -0.266899 0
M  V30 1394 C 132.602 0.643719 -3.55723 0
M  V30 1395 O 132.323 -0.502602 -4.35207 0
M  V30 1396 C 133.824 1.29743 -4.23889 0
M  V30 1397 H 131.044 0.0442697 -0.669538 0
M  V30 1398 H 133.588 -0.509856 -1.98042 0
M  V30 1399 H 131.743 1.34302 -3.63376 0
M  V30 1400 H 132.157 -0.178172 -5.24197 0
M  V30 1401 H 133.631 1.53091 -5.30346 0
M  V30 1402 H 134.108 2.25441 -3.76926 0
M  V30 1403 H 134.714 0.639865 -4.20459 0
M  V30 1404 N 133.029 1.57378 -0.0835403 0
M  V30 1405 C 133.959 2.1641 0.87686 0
M  V30 1406 C 134.94 1.09429 1.30228 0
M  V30 1407 O 136.125 1.37516 1.37124 0
M  V30 1408 C 133.255 2.73517 2.14022 0
M  V30 1409 C 132.209 3.85769 1.85381 0
M  V30 1410 C 131.535 4.29529 3.18448 0
M  V30 1411 C 132.835 5.09486 1.14984 0
M  V30 1412 H 134.529 2.96914 0.385059 0
M  V30 1413 H 132.075 1.42823 0.18377 0
M  V30 1414 H 134.028 3.13463 2.81636 0
M  V30 1415 H 132.752 1.90252 2.65465 0
M  V30 1416 H 131.411 3.46345 1.20169 0
M  V30 1417 H 131.059 3.43169 3.67755 0
M  V30 1418 H 130.759 5.05204 3.00071 0
M  V30 1419 H 132.283 4.72099 3.8724 0
M  V30 1420 H 133.697 5.46674 1.72687 0
M  V30 1421 H 132.094 5.90515 1.06826 0
M  V30 1422 H 133.164 4.84724 0.130749 0
M  V30 1423 N 134.507 -0.190092 1.56449 0
M  V30 1424 C 135.753 -0.911052 1.81184 0
M  V30 1425 C 136.086 -1.82699 0.658396 0
M  V30 1426 O 135.361 -1.91491 -0.340775 0
M  V30 1427 C 135.644 -1.72297 3.16205 0
M  V30 1428 C 135.497 -0.831419 4.42049 0
M  V30 1429 C 136.816 -2.69454 3.47969 0
M  V30 1430 H 133.935 -0.32977 0.659106 0
M  V30 1431 H 136.577 -0.178169 1.89163 0
M  V30 1432 H 134.727 -2.34778 3.09534 0
M  V30 1433 H 136.399 -0.220929 4.60771 0
M  V30 1434 H 134.642 -0.138406 4.33579 0
M  V30 1435 H 135.313 -1.43461 5.33032 0
M  V30 1436 H 137.789 -2.17104 3.54972 0
M  V30 1437 H 136.665 -3.23342 4.43555 0
M  V30 1438 H 136.926 -3.48744 2.71717 0
M  V30 1439 N 135.985 -1.50799 -0.457987 0
M  V30 1440 C 136.915 -1.73553 -1.5621 0
M  V30 1441 C 137.896 -0.584774 -1.59732 0
M  V30 1442 O 139.081 -0.825314 -1.7579 0
M  V30 1443 C 136.211 -1.84169 -2.94447 0
M  V30 1444 C 135.165 -2.99461 -3.0579 0
M  V30 1445 C 134.491 -2.95235 -4.45803 0
M  V30 1446 C 135.791 -4.39766 -2.81786 0
M  V30 1447 H 137.485 -2.66 -1.37421 0
M  V30 1448 H 135.031 -1.28002 -0.659662 0
M  V30 1449 H 136.984 -1.98672 -3.71628 0
M  V30 1450 H 135.708 -0.883545 -3.14422 0
M  V30 1451 H 134.367 -2.8463 -2.31044 0
M  V30 1452 H 134.015 -1.97239 -4.62715 0
M  V30 1453 H 133.715 -3.72642 -4.54326 0
M  V30 1454 H 135.239 -3.11803 -5.24987 0
M  V30 1455 H 136.653 -4.55054 -3.4871 0
M  V30 1456 H 135.05 -5.18722 -3.0174 0
M  V30 1457 H 136.12 -4.51229 -1.7754 0
M  V30 1458 N 137.463 0.71206 -1.40597 0
M  V30 1459 C 138.413 1.81783 -1.37619 0
M  V30 1460 C 139.397 1.58896 -0.253162 0
M  V30 1461 O 140.589 1.70009 -0.492547 0
M  V30 1462 C 137.718 3.19944 -1.24462 0
M  V30 1463 C 136.804 3.48582 -2.4156 0
M  V30 1464 N 137.195 3.48016 -3.67041 0
M  V30 1465 C 135.493 3.79056 -2.35016 0
M  V30 1466 C 136.194 3.75096 -4.44609 0
M  V30 1467 N 135.17 3.94022 -3.74497 0
M  V30 1468 H 138.972 1.79683 -2.32575 0
M  V30 1469 H 136.486 0.91134 -1.34419 0
M  V30 1470 H 138.483 3.99133 -1.20411 0
M  V30 1471 H 137.143 3.23267 -0.304762 0
M  V30 1472 H 138.154 3.28782 -4.00153 0
M  V30 1473 H 134.831 3.89848 -1.49415 0
M  V30 1474 H 136.221 3.80934 -5.53479 0
M  V30 1475 N 138.941 1.26152 0.944643 0
M  V30 1476 C 139.871 1.09902 2.06019 0
M  V30 1477 C 140.852 0.00519538 1.70099 0
M  V30 1478 O 142.037 0.176583 1.93396 0
M  V30 1479 C 139.167 0.727562 3.39594 0
M  V30 1480 C 138.121 1.77274 3.89561 0
M  V30 1481 C 137.447 1.25569 5.19747 0
M  V30 1482 C 138.747 3.17357 4.14827 0
M  V30 1483 H 140.441 2.03217 2.19871 0
M  V30 1484 H 137.987 0.978452 1.05652 0
M  V30 1485 H 139.94 0.600777 4.17095 0
M  V30 1486 H 138.664 -0.241287 3.25707 0
M  V30 1487 H 137.323 1.88814 3.14237 0
M  V30 1488 H 136.971 0.276783 5.02238 0
M  V30 1489 H 136.671 1.95433 5.54148 0
M  V30 1490 H 138.195 1.1415 5.99835 0
M  V30 1491 H 139.609 3.08914 4.82954 0
M  V30 1492 H 138.006 3.84781 4.60504 0
M  V30 1493 H 139.076 3.63673 3.20734 0
M  V30 1494 N 140.419 -1.14872 1.07899 0
M  V30 1495 C 141.382 -2.17986 0.708161 0
M  V30 1496 C 142.382 -1.58775 -0.25442 0
M  V30 1497 O 143.572 -1.74166 -0.034645 0
M  V30 1498 C 140.704 -3.40871 0.0446929 0
M  V30 1499 H 141.897 -2.52306 1.62116 0
M  V30 1500 H 139.45 -1.2943 0.876218 0
M  V30 1501 H 140.185 -3.12124 -0.880281 0
M  V30 1502 H 139.97 -3.8511 0.737091 0
M  V30 1503 H 141.46 -4.17121 -0.19991 0
M  V30 1504 N 141.898 -0.863906 -1.31812 0
M  V30 1505 C 142.828 -0.330843 -2.31144 0
M  V30 1506 C 143.809 0.575005 -1.60087 0
M  V30 1507 O 144.994 0.493304 -1.8783 0
M  V30 1508 C 142.124 0.47374 -3.44054 0
M  V30 1509 C 141.078 -0.338481 -4.26659 0
M  V30 1510 C 140.404 0.591412 -5.31419 0
M  V30 1511 C 141.704 -1.56926 -4.98168 0
M  V30 1512 H 143.398 -1.16086 -2.75979 0
M  V30 1513 H 140.944 -0.559657 -1.32679 0
M  V30 1514 H 142.897 0.857143 -4.12591 0
M  V30 1515 H 141.621 1.33721 -2.9797 0
M  V30 1516 H 140.28 -0.703754 -3.59782 0
M  V30 1517 H 139.928 1.45199 -4.81587 0
M  V30 1518 H 139.628 0.0519022 -5.87577 0
M  V30 1519 H 141.152 0.97179 -6.02817 0
M  V30 1520 H 142.566 -1.25764 -5.59336 0
M  V30 1521 H 140.963 -2.04739 -5.64094 0
M  V30 1522 H 142.033 -2.32544 -4.25501 0
M  V30 1523 N 143.376 1.44774 -0.622745 0
M  V30 1524 C 144.339 2.29069 0.0774015 0
M  V30 1525 C 145.339 1.4059 0.780461 0
M  V30 1526 O 146.529 1.62551 0.626322 0
M  V30 1527 C 143.661 3.21974 1.12006 0
M  V30 1528 H 144.854 2.92459 -0.663901 0
M  V30 1529 H 142.407 1.51548 -0.382486 0
M  V30 1530 H 143.142 2.63417 1.89162 0
M  V30 1531 H 142.927 3.87168 0.619951 0
M  V30 1532 H 144.417 3.85318 1.60995 0
M  V30 1533 N 144.854 0.36279 1.53368 0
M  V30 1534 C 146.131 -0.284021 1.93527 0
M  V30 1535 C 146.511 -1.66628 1.29608 0
M  V30 1536 O 145.859 -2.23942 0.45413 0
M  V30 1537 C 146.069 -0.337028 3.47369 0
M  V30 1538 C 147.417 -0.578708 4.20638 0
M  V30 1539 O 148.441 -0.418352 3.53735 0
M  V30 1540 O 147.3 -0.89074 5.39192 0
M  V30 1541 H 144.394 -0.169743 0.809393 0
M  V30 1542 H 146.94 0.41537 1.64538 0
M  V30 1543 H 145.712 0.632217 3.86159 0
M  V30 1544 H 145.335 -1.08243 3.82582 0
M  V30 1545 N 146.332 -1.57332 0.0918853 0
M  V30 1546 C 147.58 -1.93853 -0.571446 0
M  V30 1547 C 147.901 -0.974212 -1.6892 0
M  V30 1548 O 147.171 -0.0257254 -1.95883 0
M  V30 1549 H 145.751 -0.715666 -0.214082 0
M  V30 1550 H 148.413 -1.94287 0.154464 0
M  V30 1551 H 147.509 -2.96191 -0.983729 0
M  V30 1552 N 147.81 0.181792 -1.56548 0
M  V30 1553 C 148.773 1.20894 -1.94724 0
M  V30 1554 C 149.773 1.37738 -0.829747 0
M  V30 1555 O 150.963 1.35323 -1.09697 0
M  V30 1556 C 148.095 2.57593 -2.23291 0
M  V30 1557 H 149.288 0.882275 -2.86629 0
M  V30 1558 H 146.841 0.423838 -1.50444 0
M  V30 1559 H 147.576 2.95291 -1.34067 0
M  V30 1560 H 147.361 2.46735 -3.04736 0
M  V30 1561 H 148.851 3.31637 -2.53785 0
M  V30 1562 N 149.288 1.51039 0.449983 0
M  V30 1563 C 150.534 1.63322 1.20223 0
M  V30 1564 C 150.867 0.34241 1.91158 0
M  V30 1565 O 150.142 -0.657344 1.83055 0
M  V30 1566 C 150.425 2.82801 2.22925 0
M  V30 1567 C 150.278 4.21823 1.56157 0
M  V30 1568 C 151.597 2.97807 3.24035 0
M  V30 1569 H 148.716 0.594407 0.435718 0
M  V30 1570 H 151.358 1.83489 0.493136 0
M  V30 1571 H 149.508 2.65738 2.834 0
M  V30 1572 H 151.18 4.50526 0.991162 0
M  V30 1573 H 149.423 4.25105 0.864172 0
M  V30 1574 H 150.094 5.01391 2.30891 0
M  V30 1575 H 152.57 3.13497 2.73603 0
M  V30 1576 H 151.446 3.82992 3.93202 0
M  V30 1577 H 151.707 2.09328 3.89402 0
M  V30 1578 N 150.766 -0.704594 1.40972 0
M  V30 1579 C 151.696 -1.83124 1.44872 0
M  V30 1580 C 152.677 -1.67281 0.30838 0
M  V30 1581 O 153.862 -1.87149 0.518556 0
M  V30 1582 C 150.992 -3.21181 1.32136 0
M  V30 1583 C 149.946 -3.51714 2.43888 0
M  V30 1584 C 149.272 -4.89032 2.16222 0
M  V30 1585 C 150.572 -3.516 3.86232 0
M  V30 1586 H 152.266 -1.80117 2.39161 0
M  V30 1587 H 149.812 -0.865145 1.15114 0
M  V30 1588 H 151.765 -3.99702 1.33479 0
M  V30 1589 H 150.489 -3.24791 0.343279 0
M  V30 1590 H 149.148 -2.75539 2.41813 0
M  V30 1591 H 148.796 -4.89256 1.16778 0
M  V30 1592 H 148.496 -5.10426 2.911 0
M  V30 1593 H 150.02 -5.69873 2.19265 0
M  V30 1594 H 151.434 -4.2014 3.9007 0
M  V30 1595 H 149.831 -3.84523 4.60719 0
M  V30 1596 H 150.901 -2.50757 4.15029 0
M  V30 1597 N 152.244 -1.26651 -0.937939 0
M  V30 1598 C 153.174 -1.10993 -2.05433 0
M  V30 1599 C 154.155 -0.0142161 -1.70094 0
M  V30 1600 O 155.34 -0.186837 -1.93299 0
M  V30 1601 C 152.47 -0.745561 -3.39203 0
M  V30 1602 C 151.424 -1.79337 -3.88616 0
M  V30 1603 C 150.75 -1.28324 -5.19073 0
M  V30 1604 C 152.05 -3.19553 -4.13138 0
M  V30 1605 H 153.744 -2.0438 -2.1879 0
M  V30 1606 H 151.29 -0.984041 -1.05131 0
M  V30 1607 H 153.243 -0.622888 -4.16771 0
M  V30 1608 H 151.967 0.22401 -3.25831 0
M  V30 1609 H 150.626 -1.90477 -3.13231 0
M  V30 1610 H 150.274 -0.303414 -5.02084 0
M  V30 1611 H 149.974 -1.98369 -5.53103 0
M  V30 1612 H 151.498 -1.1733 -5.99221 0
M  V30 1613 H 152.912 -3.11471 -4.81309 0
M  V30 1614 H 151.309 -3.87218 -4.58457 0
M  V30 1615 H 152.379 -3.65368 -3.18801 0
M  V30 1616 N 153.722 1.14298 -1.08507 0
M  V30 1617 C 154.652 2.21542 -0.737646 0
M  V30 1618 C 155.633 1.67773 0.280377 0
M  V30 1619 O 156.818 1.93616 0.150521 0
M  V30 1620 C 153.948 3.46988 -0.147259 0
M  V30 1621 C 152.902 4.13789 -1.09374 0
M  V30 1622 C 152.228 5.33449 -0.365524 0
M  V30 1623 C 153.528 4.62208 -2.4323 0
M  V30 1624 H 155.222 2.5086 -1.6343 0
M  V30 1625 H 152.768 1.20576 -0.787243 0
M  V30 1626 H 154.721 4.21262 0.107808 0
M  V30 1627 H 153.445 3.17037 0.784538 0
M  V30 1628 H 152.104 3.4147 -1.33393 0
M  V30 1629 H 151.752 4.99759 0.57011 0
M  V30 1630 H 151.452 5.79088 -0.996512 0
M  V30 1631 H 152.976 6.10485 -0.118534 0
M  V30 1632 H 154.39 5.27952 -2.23472 0
M  V30 1633 H 152.787 5.18553 -3.02031 0
M  V30 1634 H 153.857 3.77224 -3.04681 0
M  V30 1635 N 155.201 0.870884 1.31352 0
M  V30 1636 C 156.429 0.49677 2.00848 0
M  V30 1637 C 156.844 -0.910998 1.65367 0
M  V30 1638 O 156.201 -1.59696 0.883374 0
M  V30 1639 C 156.252 0.645308 3.55694 0
M  V30 1640 O 155.973 1.99764 3.89905 0
M  V30 1641 C 157.474 0.272326 4.42463 0
M  V30 1642 H 154.694 0.193462 0.642506 0
M  V30 1643 H 157.238 1.1723 1.67563 0
M  V30 1644 H 155.393 0.0173176 3.87396 0
M  V30 1645 H 155.807 2.00607 4.84621 0
M  V30 1646 H 157.281 0.427208 5.50344 0
M  V30 1647 H 157.758 -0.788587 4.32062 0
M  V30 1648 H 158.364 0.876054 4.1618 0
M  V30 1649 N 156.679 -1.44442 0.630414 0
M  V30 1650 C 158.09 -1.85434 0.217063 0
M  V30 1651 C 158.441 -1.52748 -1.23136 0
M  V30 1652 O 157.566 -0.965205 -1.93682 0
M  V30 1653 C 158.161 -3.36581 0.387168 0
M  V30 1654 C 156.72 -3.76389 0.0283297 0
M  V30 1655 C 155.867 -2.68296 0.700889 0
M  V30 1656 H 158.818 -1.34919 0.83562 0
M  V30 1657 H 158.839 -3.78657 -0.374086 0
M  V30 1658 H 158.351 -3.60339 1.44144 0
M  V30 1659 H 156.452 -3.58246 -1.02423 0
M  V30 1660 H 156.565 -4.77095 0.437892 0
M  V30 1661 H 154.929 -2.54335 0.136267 0
M  V30 1662 H 155.712 -2.94887 1.75774 0
M  V30 1663 N 158.157 -0.370918 -1.53173 0
M  V30 1664 C 159.087 0.464847 -2.28826 0
M  V30 1665 C 160.068 1.07936 -1.31468 0
M  V30 1666 O 161.253 1.0956 -1.60344 0
M  V30 1667 C 158.383 1.60196 -3.08147 0
M  V30 1668 C 157.337 1.11443 -4.13237 0
M  V30 1669 C 156.663 2.3422 -4.80672 0
M  V30 1670 C 157.963 0.195384 -5.21934 0
M  V30 1671 H 159.657 -0.166329 -2.98938 0
M  V30 1672 H 157.203 -0.0814359 -1.4377 0
M  V30 1673 H 159.156 2.19332 -3.59822 0
M  V30 1674 H 157.88 2.26045 -2.35735 0
M  V30 1675 H 156.539 0.545727 -3.62515 0
M  V30 1676 H 156.187 2.98537 -4.04827 0
M  V30 1677 H 155.887 2.02269 -5.51689 0
M  V30 1678 H 157.411 2.94032 -5.35143 0
M  V30 1679 H 158.825 0.694375 -5.69079 0
M  V30 1680 H 157.222 -0.0335027 -6.00091 0
M  V30 1681 H 158.292 -0.760961 -4.78892 0
M  V30 1682 N 159.635 1.57281 -0.100228 0
M  V30 1683 C 160.882 1.94537 0.562268 0
M  V30 1684 C 161.21 0.982315 1.67871 0
M  V30 1685 O 160.465 0.00280936 1.957 0
M  V30 1686 C 160.764 3.38305 1.15259 0
M  V30 1687 C 160.43 4.50618 0.159409 0
M  V30 1688 C 159.092 4.81066 -0.113741 0
M  V30 1689 C 161.444 5.18615 -0.518461 0
M  V30 1690 C 158.772 5.76835 -1.07137 0
M  V30 1691 C 161.124 6.15412 -1.46459 0
M  V30 1692 C 159.788 6.44262 -1.74592 0
M  V30 1693 H 159.058 0.711863 0.205748 0
M  V30 1694 H 161.705 1.90679 -0.17715 0
M  V30 1695 H 160.01 3.38766 1.96836 0
M  V30 1696 H 161.707 3.64435 1.67297 0
M  V30 1697 H 158.297 4.2689 0.382491 0
M  V30 1698 H 162.481 4.95264 -0.320581 0
M  V30 1699 H 157.737 5.975 -1.29628 0
M  V30 1700 H 161.911 6.67194 -1.99564 0
M  V30 1701 H 159.538 7.1828 -2.48953 0
M  V30 1702 N 161.113 -0.173488 1.56642 0
M  V30 1703 C 162.359 -0.891784 1.8214 0
M  V30 1704 C 162.692 -1.8199 0.677736 0
M  V30 1705 O 161.967 -1.91842 -0.320446 0
M  V30 1706 C 162.25 -1.68933 3.18015 0
M  V30 1707 C 162.103 -0.784487 4.42906 0
M  V30 1708 C 163.422 -2.65748 3.50808 0
M  V30 1709 H 160.541 -0.322761 0.662567 0
M  V30 1710 H 163.183 -0.158095 1.89341 0
M  V30 1711 H 161.333 -2.31482 3.12007 0
M  V30 1712 H 163.005 -0.172046 4.60979 0
M  V30 1713 H 161.248 -0.0924117 4.33702 0
M  V30 1714 H 161.919 -1.37799 5.34524 0
M  V30 1715 H 164.395 -2.13327 3.57255 0
M  V30 1716 H 163.271 -3.18619 4.4696 0
M  V30 1717 H 163.532 -3.45842 2.75401 0
M  V30 1718 N 162.591 -1.51276 -0.441967 0
M  V30 1719 C 163.554 -1.7167 -1.51862 0
M  V30 1720 C 164.554 -0.586793 -1.49711 0
M  V30 1721 O 165.744 -0.854276 -1.51815 0
M  V30 1722 C 162.876 -1.76889 -2.91416 0
M  V30 1723 H 164.069 -2.67754 -1.35084 0
M  V30 1724 H 161.622 -1.41196 -0.670333 0
M  V30 1725 H 162.357 -0.826026 -3.13604 0
M  V30 1726 H 162.142 -2.59001 -2.94382 0
M  V30 1727 H 163.632 -1.94522 -3.69528 0
M  V30 1728 N 164.069 0.697108 -1.41344 0
M  V30 1729 C 165.316 1.45714 -1.40619 0
M  V30 1730 C 165.644 1.94494 -0.0147907 0
M  V30 1731 O 164.899 1.69794 0.973066 0
M  V30 1732 C 165.198 2.68553 -2.35826 0
M  V30 1733 C 164.864 2.38438 -3.82698 0
M  V30 1734 C 163.526 2.29936 -4.22709 0
M  V30 1735 C 165.878 2.13567 -4.75435 0
M  V30 1736 C 163.206 1.94656 -5.53467 0
M  V30 1737 C 165.558 1.79797 -6.06511 0
M  V30 1738 C 164.222 1.69789 -6.45545 0
M  V30 1739 H 163.492 0.533206 -0.51456 0
M  V30 1740 H 166.139 0.796901 -1.74131 0
M  V30 1741 H 164.444 3.39503 -1.95563 0
M  V30 1742 H 166.141 3.2669 -2.32539 0
M  V30 1743 H 162.731 2.4595 -3.51008 0
M  V30 1744 H 166.915 2.19082 -4.45328 0
M  V30 1745 H 162.171 1.8546 -5.82593 0
M  V30 1746 H 166.345 1.59572 -6.77872 0
M  V30 1747 H 163.972 1.4222 -7.46778 0
M  V30 1748 N 165.547 1.27147 0.931209 0
M  V30 1749 C 166.477 1.12081 2.04842 0
M  V30 1750 C 167.458 0.0232364 1.70084 0
M  V30 1751 O 168.643 0.197085 1.93197 0
M  V30 1752 C 165.773 0.76354 3.38803 0
M  V30 1753 C 164.727 1.81396 3.87659 0
M  V30 1754 C 164.053 1.31075 5.18385 0
M  V30 1755 C 165.353 3.21739 4.11438 0
M  V30 1756 H 167.047 2.05537 2.17703 0
M  V30 1757 H 164.593 0.989603 1.04608 0
M  V30 1758 H 166.546 0.644982 4.16435 0
M  V30 1759 H 165.27 -0.206727 3.25945 0
M  V30 1760 H 163.929 1.92136 3.12217 0
M  V30 1761 H 163.577 0.330037 5.01916 0
M  V30 1762 H 163.277 2.013 5.52044 0
M  V30 1763 H 164.801 1.20506 5.98591 0
M  V30 1764 H 166.215 3.14019 4.79651 0
M  V30 1765 H 164.612 3.89644 4.56397 0
M  V30 1766 H 165.682 3.67054 3.16859 0
M  V30 1767 N 167.025 -1.13721 1.09112 0
M  V30 1768 C 168.253 -1.88773 0.846899 0
M  V30 1769 C 168.668 -1.7896 -0.601572 0
M  V30 1770 O 168.025 -1.15394 -1.41388 0
M  V30 1771 C 168.076 -3.3849 1.26913 0
M  V30 1772 O 167.797 -3.48043 2.66079 0
M  V30 1773 C 169.298 -4.30518 1.05682 0
M  V30 1774 H 166.518 -0.59772 0.304914 0
M  V30 1775 H 169.062 -1.43977 1.45227 0
M  V30 1776 H 167.217 -3.80881 0.707723 0
M  V30 1777 H 167.631 -4.4109 2.83795 0
M  V30 1778 H 169.105 -5.3391 1.40156 0
M  V30 1779 H 169.582 -4.392 -0.00563416 0
M  V30 1780 H 170.188 -3.93893 1.60402 0
M  V30 1781 N 168.503 -0.877838 -1.30888 0
M  V30 1782 C 169.919 -0.570844 -1.49042 0
M  V30 1783 C 170.119 0.893159 -1.80624 0
M  V30 1784 O 169.175 1.67485 -1.88958 0
M  V30 1785 C 170.488 -1.47784 -2.61878 0
M  V30 1786 C 172.036 -1.48071 -2.75761 0
M  V30 1787 C 172.511 -2.37347 -3.91702 0
M  V30 1788 N 174.002 -2.35271 -3.99001 0
M  V30 1789 C 174.737 -3.01063 -4.88004 0
M  V30 1790 N 174.233 -3.76055 -5.81854 0
M  V30 1791 N 176.026 -2.90332 -4.81315 0
M  V30 1792 H 168.177 -1.82502 -1.0866 0
M  V30 1793 H 170.44 -0.780797 -0.537644 0
M  V30 1794 H 170.146 -2.51993 -2.45341 0
M  V30 1795 H 170.02 -1.18215 -3.58197 0
M  V30 1796 H 172.407 -0.446166 -2.91708 0
M  V30 1797 H 172.488 -1.81668 -1.80085 0
M  V30 1798 H 172.132 -3.40883 -3.76512 0
M  V30 1799 H 172.062 -2.01071 -4.86701 0
M  V30 1800 H 174.553 -1.80768 -3.3186 0
M  V30 1801 H 174.866 -4.23366 -6.46514 0
M  V30 1802 H 173.211 -3.80163 -5.81808 0
M  V30 1803 H 176.402 -2.31278 -4.06974 0
M  V30 1804 H 176.575 -3.41885 -5.50471 0
M  V30 1805 N 169.982 1.44106 -0.638065 0
M  V30 1806 C 170.914 2.28976 0.101205 0
M  V30 1807 C 171.927 1.4167 0.802088 0
M  V30 1808 O 173.116 1.65755 0.662375 0
M  V30 1809 C 170.216 3.18217 1.16581 0
M  V30 1810 C 169.389 4.33978 0.546066 0
M  V30 1811 C 168.448 5.04202 1.50554 0
M  V30 1812 O 167.474 5.59986 1.01999 0
M  V30 1813 N 168.676 5.06296 2.8398 0
M  V30 1814 H 171.441 2.93064 -0.627186 0
M  V30 1815 H 169.002 1.54629 -0.479731 0
M  V30 1816 H 170.994 3.62061 1.80815 0
M  V30 1817 H 169.564 2.55833 1.79634 0
M  V30 1818 H 168.784 3.93239 -0.275046 0
M  V30 1819 H 170.072 5.08675 0.112793 0
M  V30 1820 H 169.47 4.62319 3.26002 0
M  V30 1821 H 168.027 5.53907 3.43556 0
M  V30 1822 N 171.46 0.379036 1.52974 0
M  V30 1823 C 172.423 -0.448865 2.24762 0
M  V30 1824 C 173.423 -0.998689 1.26027 0
M  V30 1825 O 174.613 -0.882313 1.50203 0
M  V30 1826 C 171.745 -1.62872 2.99476 0
M  V30 1827 H 172.938 0.179491 2.99362 0
M  V30 1828 H 170.491 0.13096 1.5575 0
M  V30 1829 H 171.226 -2.29479 2.29151 0
M  V30 1830 H 171.011 -1.24128 3.71934 0
M  V30 1831 H 172.501 -2.2151 3.5401 0
M  V30 1832 N 172.938 -1.57226 0.108567 0
M  V30 1833 C 174.184 -1.95919 -0.546564 0
M  V30 1834 C 174.539 -0.990417 -1.6495 0
M  V30 1835 O 173.832 -0.0186593 -1.91591 0
M  V30 1836 C 174.026 -3.38911 -1.13463 0
M  V30 1837 C 173.855 -4.4961 -0.0901926 0
M  V30 1838 C 172.625 -5.04168 0.338008 0
M  V30 1839 C 174.823 -5.09693 0.686808 0
M  V30 1840 N 172.805 -5.98434 1.36931 0
M  V30 1841 C 174.176 -5.99804 1.56958 0
M  V30 1842 C 176.231 -4.92388 0.738846 0
M  V30 1843 C 174.934 -6.74463 2.49983 0
M  V30 1844 C 176.96 -5.67719 1.65676 0
M  V30 1845 C 176.322 -6.57507 2.52713 0
M  V30 1846 H 172.421 -0.763312 -0.169936 0
M  V30 1847 H 175.005 -1.93728 0.194264 0
M  V30 1848 H 173.176 -3.41769 -1.84522 0
M  V30 1849 H 174.908 -3.64752 -1.75322 0
M  V30 1850 H 171.663 -4.73571 -0.0523673 0
M  V30 1851 H 172.087 -6.5027 1.88356 0
M  V30 1852 H 176.729 -4.22724 0.080084 0
M  V30 1853 H 174.447 -7.4338 3.16878 0
M  V30 1854 H 178.033 -5.56338 1.70233 0
M  V30 1855 H 176.913 -7.14778 3.22586 0
M  V30 1856 N 174.416 0.165178 -1.56732 0
M  V30 1857 C 175.827 0.727046 -1.71962 0
M  V30 1858 C 176.178 1.82508 -0.720078 0
M  V30 1859 O 175.303 2.16082 0.117242 0
M  V30 1860 C 175.898 1.32559 -3.11791 0
M  V30 1861 C 174.457 1.83422 -3.28684 0
M  V30 1862 C 173.604 0.715567 -2.67908 0
M  V30 1863 H 176.555 -0.0602896 -1.58585 0
M  V30 1864 H 176.576 2.19533 -3.10782 0
M  V30 1865 H 176.088 0.526195 -3.84516 0
M  V30 1866 H 174.189 2.65986 -2.60926 0
M  V30 1867 H 174.302 1.97543 -4.36478 0
M  V30 1868 H 172.666 1.13758 -2.27884 0
M  V30 1869 H 173.449 -0.0720836 -3.43224 0
M  V30 1870 N 175.894 1.51508 0.433938 0
M  V30 1871 C 176.824 1.76016 1.53429 0
M  V30 1872 C 177.805 0.610112 1.58782 0
M  V30 1873 O 178.99 0.853177 1.74455 0
M  V30 1874 C 176.12 1.88831 2.9148 0
M  V30 1875 C 175.074 3.04288 3.00987 0
M  V30 1876 C 174.4 3.0229 4.4105 0
M  V30 1877 C 175.7 4.44193 2.74754 0
M  V30 1878 H 177.394 2.68152 1.33171 0
M  V30 1879 H 174.94 1.29035 0.639214 0
M  V30 1880 H 176.893 2.04559 3.6842 0
M  V30 1881 H 175.617 0.933455 3.12976 0
M  V30 1882 H 174.276 2.8827 2.26486 0
M  V30 1883 H 173.924 2.04576 4.59519 0
M  V30 1884 H 173.624 3.79822 4.4834 0
M  V30 1885 H 175.148 3.20116 5.1996 0
M  V30 1886 H 176.562 4.60544 3.41426 0
M  V30 1887 H 174.959 5.23457 2.9345 0
M  V30 1888 H 176.029 4.53996 1.70339 0
M  V30 1889 N 177.372 -0.689602 1.41712 0
M  V30 1890 C 178.62 -1.4468 1.4111 0
M  V30 1891 C 178.941 -1.94986 0.0232196 0
M  V30 1892 O 178.211 -1.72097 -0.935913 0
M  V30 1893 H 176.791 -0.536847 0.519427 0
M  V30 1894 H 179.453 -0.815825 1.77004 0
M  V30 1895 H 178.549 -2.30706 2.10193 0
M  V30 1896 N 178.85 -1.27639 -0.924453 0
M  V30 1897 C 179.782 -1.06442 -2.02985 0
M  V30 1898 C 180.795 -0.0194771 -1.62788 0
M  V30 1899 O 181.984 -0.261388 -1.76576 0
M  V30 1900 C 179.084 -0.59327 -3.33667 0
M  V30 1901 C 178.257 -1.71123 -4.02537 0
M  V30 1902 C 177.316 -1.23527 -5.11495 0
M  V30 1903 O 176.342 -1.93553 -5.35281 0
M  V30 1904 N 177.544 -0.0926678 -5.80426 0
M  V30 1905 H 180.309 -2.01633 -2.2173 0
M  V30 1906 H 177.87 -1.19248 -1.09505 0
M  V30 1907 H 179.862 -0.258686 -4.03872 0
M  V30 1908 H 178.432 0.265502 -3.1147 0
M  V30 1909 H 177.652 -2.21593 -3.26022 0
M  V30 1910 H 178.94 -2.46145 -4.45298 0
M  V30 1911 H 178.338 0.491741 -5.63559 0
M  V30 1912 H 176.895 0.182714 -6.51544 0
M  V30 1913 N 180.328 1.1314 -1.09713 0
M  V30 1914 C 181.291 2.16831 -0.742751 0
M  V30 1915 C 182.291 1.59159 0.229129 0
M  V30 1916 O 183.481 1.74199 0.00693237 0
M  V30 1917 C 180.613 3.40756 -0.0989168 0
M  V30 1918 H 181.806 2.49695 -1.66109 0
M  V30 1919 H 179.359 1.2802 -0.896699 0
M  V30 1920 H 180.094 3.13485 0.830514 0
M  V30 1921 H 179.879 3.83888 -0.798265 0
M  V30 1922 H 181.369 4.17386 0.133524 0
M  V30 1923 N 181.806 0.884767 1.30421 0
M  V30 1924 C 183.054 0.502112 1.95763 0
M  V30 1925 C 183.375 -0.951815 1.70192 0
M  V30 1926 O 182.645 -1.6692 1.0254 0
M  V30 1927 H 181.225 0.182694 0.724315 0
M  V30 1928 H 183.887 1.1278 1.58955 0
M  V30 1929 H 182.983 0.672188 3.04775 0
M  V30 1930 N 183.284 -1.43765 0.645699 0
M  V30 1931 C 184.524 -2.03776 0.159542 0
M  V30 1932 C 184.888 -1.49792 -1.2011 0
M  V30 1933 O 186.089 -2.01398 -1.78023 0
M  V30 1934 C 184.36 -3.57036 0.161251 0
M  V30 1935 S 185.919 -4.3804 -0.258159 0
M  V30 1936 H 182.737 -0.707717 0.0682454 0
M  V30 1937 H 185.339 -1.75941 0.852352 0
M  V30 1938 H 184.043 -3.9383 1.15439 0
M  V30 1939 H 183.574 -3.89503 -0.552339 0
M  V30 1940 H 185.589 -4.7302 -1.49889 0
M  V30 1941 N 184.763 -0.387143 -1.52771 0
M  V30 1942 C 185.71 0.449048 -2.26389 0
M  V30 1943 C 186.68 1.05961 -1.27912 0
M  V30 1944 O 187.865 1.08804 -1.56737 0
M  V30 1945 C 185.005 1.57155 -3.0724 0
M  V30 1946 C 184.118 0.984066 -4.20643 0
M  V30 1947 C 183.253 2.07745 -4.88892 0
M  V30 1948 C 182.292 1.46574 -5.94292 0
M  V30 1949 N 181.429 2.49834 -6.56146 0
M  V30 1950 H 186.269 -0.185205 -2.97424 0
M  V30 1951 H 183.806 -0.103164 -1.46738 0
M  V30 1952 H 185.764 2.23309 -3.52405 0
M  V30 1953 H 184.394 2.17615 -2.38419 0
M  V30 1954 H 183.446 0.212193 -3.79808 0
M  V30 1955 H 184.758 0.497029 -4.96318 0
M  V30 1956 H 183.912 2.81673 -5.3735 0
M  V30 1957 H 182.651 2.59807 -4.12737 0
M  V30 1958 H 181.656 0.711696 -5.45174 0
M  V30 1959 H 182.881 0.953088 -6.72379 0
M  V30 1960 H 180.827 3.0107 -5.82832 0
M  V30 1961 H 180.744 2.05879 -7.27427 0
M  V30 1962 H 182.012 3.23399 -7.09249 0
M  V30 1963 N 186.241 1.57166 -0.116904 0
M  V30 1964 C 187.204 2.14039 0.819742 0
M  V30 1965 C 188.204 1.07477 1.19605 0
M  V30 1966 O 189.394 1.33263 1.1219 0
M  V30 1967 C 186.526 2.67891 2.10826 0
M  V30 1968 H 187.719 2.98128 0.325511 0
M  V30 1969 H 185.272 1.55739 0.132312 0
M  V30 1970 H 186.007 1.87384 2.64685 0
M  V30 1971 H 185.792 3.45823 1.84793 0
M  V30 1972 H 187.282 3.11809 2.77785 0
M  V30 1973 N 187.719 -0.156864 1.56817 0
M  V30 1974 C 188.965 -0.872416 1.83076 0
M  V30 1975 C 189.298 -1.81261 0.697001 0
M  V30 1976 O 188.573 -1.92171 -0.30008 0
M  V30 1977 C 188.856 -1.65551 3.19789 0
M  V30 1978 C 188.709 -0.737467 4.43713 0
M  V30 1979 C 190.028 -2.62012 3.53606 0
M  V30 1980 H 187.147 -0.315715 0.665953 0
M  V30 1981 H 189.789 -0.138004 1.89498 0
M  V30 1982 H 187.939 -2.28159 3.14445 0
M  V30 1983 H 189.611 -0.123143 4.61136 0
M  V30 1984 H 187.854 -0.0464067 4.33775 0
M  V30 1985 H 188.525 -1.32122 5.35955 0
M  V30 1986 H 191.001 -2.09525 3.59497 0
M  V30 1987 H 189.877 -3.13861 4.50314 0
M  V30 1988 H 190.138 -3.42902 2.79053 0
M  V30 1989 N 189.197 -1.51736 -0.425897 0
M  V30 1990 C 190.427 -1.68549 -1.19476 0
M  V30 1991 C 190.835 -0.387288 -1.85194 0
M  V30 1992 O 190.178 0.645142 -1.71999 0
M  V30 1993 C 190.24 -2.75275 -2.31223 0
M  V30 1994 C 189.904 -4.17534 -1.8578 0
M  V30 1995 C 190.901 -5.01936 -1.35485 0
M  V30 1996 C 188.586 -4.6369 -1.93123 0
M  V30 1997 C 190.58 -6.30559 -0.931347 0
M  V30 1998 C 188.267 -5.92307 -1.50384 0
M  V30 1999 C 189.265 -6.75569 -1.00473 0
M  V30 2000 O 188.953 -8.0178 -0.583452 0
M  V30 2001 H 188.685 -0.568525 -0.365725 0
M  V30 2002 H 191.239 -1.98982 -0.509444 0
M  V30 2003 H 189.469 -2.40182 -3.03067 0
M  V30 2004 H 191.158 -2.80853 -2.93047 0
M  V30 2005 H 191.924 -4.67475 -1.29197 0
M  V30 2006 H 187.803 -3.98997 -2.30916 0
M  V30 2007 H 191.347 -6.95498 -0.541084 0
M  V30 2008 H 187.244 -6.2628 -1.56346 0
M  V30 2009 H 188.012 -8.1543 -0.708275 0
M  V30 2010 N 190.675 0.682077 -1.42076 0
M  V30 2011 C 191.905 1.46844 -1.45329 0
M  V30 2012 C 192.313 1.89102 -0.0609328 0
M  V30 2013 O 191.656 1.58238 0.933082 0
M  V30 2014 C 191.718 2.75375 -2.31104 0
M  V30 2015 C 191.382 2.55238 -3.79081 0
M  V30 2016 C 192.379 2.20309 -4.70914 0
M  V30 2017 C 190.064 2.70459 -4.2327 0
M  V30 2018 C 192.058 2.00859 -6.04925 0
M  V30 2019 C 189.745 2.50624 -5.57343 0
M  V30 2020 C 190.743 2.15876 -6.47986 0
M  V30 2021 O 190.431 1.96227 -7.79583 0
M  V30 2022 H 190.163 0.4586 -0.496651 0
M  V30 2023 H 192.717 0.846131 -1.87162 0
M  V30 2024 H 190.947 3.40061 -1.84107 0
M  V30 2025 H 192.636 3.37231 -2.25898 0
M  V30 2026 H 193.402 2.08153 -4.38061 0
M  V30 2027 H 189.281 2.96485 -3.53012 0
M  V30 2028 H 192.825 1.7366 -6.75639 0
M  V30 2029 H 188.722 2.62375 -5.89771 0
M  V30 2030 H 189.49 2.10883 -7.90867 0
M  V30 2031 N 192.153 1.28127 0.917671 0
M  V30 2032 C 193.399 1.15223 1.66888 0
M  V30 2033 C 193.732 -0.299293 1.9188 0
M  V30 2034 O 193.007 -1.21805 1.51637 0
M  V30 2035 C 193.29 1.94706 3.02922 0
M  V30 2036 C 193.143 3.47898 2.85109 0
M  V30 2037 C 194.462 1.75939 4.03402 0
M  V30 2038 H 191.581 0.419946 0.605652 0
M  V30 2039 H 194.223 1.57398 1.06423 0
M  V30 2040 H 192.373 1.58864 3.54534 0
M  V30 2041 H 194.045 3.93624 2.40537 0
M  V30 2042 H 192.288 3.7373 2.20246 0
M  V30 2043 H 192.959 3.98765 3.81694 0
M  V30 2044 H 195.435 2.07209 3.60837 0
M  V30 2045 H 194.311 2.33931 4.96556 0
M  V30 2046 H 194.572 0.709877 4.36364 0
M  V30 2047 N 193.631 -1.12557 1.10312 0
M  V30 2048 C 194.871 -1.8568 0.854543 0
M  V30 2049 C 195.235 -1.82091 -0.608843 0
M  V30 2050 O 196.436 -2.50544 -0.973717 0
M  V30 2051 C 194.707 -3.2942 1.38626 0
M  V30 2052 S 196.266 -4.19931 1.27293 0
M  V30 2053 H 193.084 -0.640427 0.308827 0
M  V30 2054 H 195.686 -1.35599 1.40831 0
M  V30 2055 H 194.39 -3.2959 2.44537 0
M  V30 2056 H 193.921 -3.84566 0.82902 0
M  V30 2057 H 195.936 -4.95668 0.229776 0
M  V30 2058 N 195.109 -0.891671 -1.2995 0
M  V30 2059 C 196.072 -0.36828 -2.26222 0
M  V30 2060 C 197.072 0.493014 -1.53056 0
M  V30 2061 O 198.262 0.299213 -1.71611 0
M  V30 2062 C 195.394 0.47442 -3.37583 0
M  V30 2063 H 196.587 -1.21844 -2.74033 0
M  V30 2064 H 194.14 -0.669107 -1.41254 0
M  V30 2065 H 194.875 1.34489 -2.95099 0
M  V30 2066 H 194.66 -0.142615 -3.91841 0
M  V30 2067 H 196.15 0.83218 -4.09224 0
M  V30 2068 N 196.587 1.43421 -0.653314 0
M  V30 2069 C 197.517 2.33487 0.0246656 0
M  V30 2070 C 198.498 1.49475 0.811863 0
M  V30 2071 O 199.683 1.78139 0.773322 0
M  V30 2072 C 196.813 3.32841 0.99166 0
M  V30 2073 C 195.767 4.26842 0.314568 0
M  V30 2074 C 195.093 5.16236 1.39302 0
M  V30 2075 C 196.393 5.16243 -0.793095 0
M  V30 2076 H 198.087 2.90427 -0.727481 0
M  V30 2077 H 195.633 1.39649 -0.351287 0
M  V30 2078 H 197.586 3.94747 1.47487 0
M  V30 2079 H 196.31 2.74158 1.77497 0
M  V30 2080 H 194.969 3.663 -0.148199 0
M  V30 2081 H 194.617 4.53891 2.16776 0
M  V30 2082 H 194.317 5.79948 0.945223 0
M  V30 2083 H 195.841 5.81015 1.87759 0
M  V30 2084 H 197.255 5.71958 -0.392039 0
M  V30 2085 H 195.652 5.88676 -1.16536 0
M  V30 2086 H 196.722 4.55927 -1.65103 0
M  V30 2087 N 198.065 0.39524 1.52563 0
M  V30 2088 C 199.29 -0.187456 2.06551 0
M  V30 2089 C 199.715 -1.39249 1.26457 0
M  V30 2090 O 199.073 -1.78947 0.291151 0
M  V30 2091 C 199.121 -0.529985 3.56684 0
M  V30 2092 O 198.225 -1.62307 3.79118 0
M  V30 2093 H 197.566 -0.0202537 0.663691 0
M  V30 2094 H 200.096 0.564426 1.96661 0
M  V30 2095 H 200.106 -0.792598 4.00227 0
M  V30 2096 H 198.781 0.350987 4.14416 0
M  V30 2097 H 197.358 -1.3537 3.47461 0
M  V30 2098 N 199.544 -1.57102 0.125237 0
M  V30 2099 C 200.477 -2.11371 -0.860094 0
M  V30 2100 C 201.455 -1.03168 -1.25679 0
M  V30 2101 O 202.639 -1.30862 -1.35674 0
M  V30 2102 C 199.766 -2.61555 -2.1519 0
M  V30 2103 C 198.812 -3.81701 -1.9028 0
M  V30 2104 S 199.645 -5.23797 -1.11343 0
M  V30 2105 C 200.801 -5.77353 -2.41689 0
M  V30 2106 H 201.034 -2.94617 -0.39852 0
M  V30 2107 H 198.567 -1.54145 -0.0886555 0
M  V30 2108 H 200.525 -2.91122 -2.89411 0
M  V30 2109 H 199.186 -1.78479 -2.58465 0
M  V30 2110 H 198.379 -4.14985 -2.86014 0
M  V30 2111 H 197.981 -3.52783 -1.24178 0
M  V30 2112 H 200.273 -5.87458 -3.37489 0
M  V30 2113 H 201.216 -6.75323 -2.12942 0
M  V30 2114 H 201.624 -5.05457 -2.51342 0
M  V30 2115 N 201.022 0.148545 -1.56898 0
M  V30 2116 C 202.252 0.875118 -1.8715 0
M  V30 2117 C 202.66 1.75322 -0.711262 0
M  V30 2118 O 202.003 1.80745 0.328151 0
M  V30 2119 C 202.065 1.7844 -3.12089 0
M  V30 2120 C 201.729 1.08361 -4.43967 0
M  V30 2121 C 202.726 0.438247 -5.1805 0
M  V30 2122 C 200.411 1.07358 -4.90693 0
M  V30 2123 C 202.405 -0.20779 -6.37061 0
M  V30 2124 C 200.092 0.42373 -6.09629 0
M  V30 2125 C 201.09 -0.215829 -6.82659 0
M  V30 2126 O 200.778 -0.855378 -7.99336 0
M  V30 2127 H 200.51 0.258504 -0.624621 0
M  V30 2128 H 203.064 0.14652 -2.04877 0
M  V30 2129 H 201.294 2.55389 -2.90367 0
M  V30 2130 H 202.983 2.38279 -3.286 0
M  V30 2131 H 203.749 0.437817 -4.8302 0
M  V30 2132 H 199.628 1.5608 -4.33774 0
M  V30 2133 H 203.172 -0.70758 -6.94002 0
M  V30 2134 H 199.069 0.421822 -6.4412 0
M  V30 2135 H 199.837 -0.756892 -8.14993 0
M  V30 2136 N 202.5 1.5196 0.417844 0
M  V30 2137 C 203.463 1.74065 1.49111 0
M  V30 2138 C 204.463 0.610537 1.48758 0
M  V30 2139 O 205.653 0.87832 1.50437 0
M  V30 2140 C 202.785 1.81502 2.88565 0
M  V30 2141 H 203.978 2.69869 1.30807 0
M  V30 2142 H 201.531 1.42244 0.647785 0
M  V30 2143 H 202.266 0.875813 3.1225 0
M  V30 2144 H 202.051 2.63651 2.90225 0
M  V30 2145 H 203.541 2.00376 3.66387 0
M  V30 2146 N 203.978 -0.674533 1.42435 0
M  V30 2147 C 205.203 -1.46784 1.46524 0
M  V30 2148 C 205.628 -1.87938 0.078066 0
M  V30 2149 O 204.986 -1.56014 -0.92354 0
M  V30 2150 C 205.034 -2.69307 2.39805 0
M  V30 2151 O 204.138 -3.67587 1.86959 0
M  V30 2152 H 203.479 -0.440959 0.496439 0
M  V30 2153 H 206.009 -0.827326 1.87127 0
M  V30 2154 H 206.019 -3.17374 2.56393 0
M  V30 2155 H 204.694 -2.38692 3.40586 0
M  V30 2156 H 203.271 -3.2662 1.79927 0
M  V30 2157 N 205.456 -1.28612 -0.910864 0
M  V30 2158 C 206.702 -1.16106 -1.66274 0
M  V30 2159 C 207.035 0.289113 -1.92036 0
M  V30 2160 O 206.31 1.21 -1.52281 0
M  V30 2161 C 206.593 -1.96309 -3.01885 0
M  V30 2162 C 206.446 -3.49405 -2.8326 0
M  V30 2163 C 207.765 -1.78076 -4.02463 0
M  V30 2164 H 204.884 -0.423152 -0.603417 0
M  V30 2165 H 207.526 -1.57961 -1.05586 0
M  V30 2166 H 205.676 -1.60742 -3.53687 0
M  V30 2167 H 207.348 -3.94894 -2.38446 0
M  V30 2168 H 205.591 -3.74893 -2.18261 0
M  V30 2169 H 206.262 -4.00784 -3.79574 0
M  V30 2170 H 208.738 -2.0912 -3.59733 0
M  V30 2171 H 207.614 -2.36561 -4.95308 0
M  V30 2172 H 207.875 -0.733008 -4.35981 0
M  V30 2173 N 206.934 1.1197 -1.10907 0
M  V30 2174 C 207.864 2.19928 -0.784473 0
M  V30 2175 C 208.845 1.6833 0.244726 0
M  V30 2176 O 210.03 1.93892 0.109418 0
M  V30 2177 C 207.16 3.46597 -0.220827 0
M  V30 2178 C 206.114 4.11376 -1.18127 0
M  V30 2179 C 205.44 5.32554 -0.478594 0
M  V30 2180 C 206.74 4.56945 -2.52979 0
M  V30 2181 H 208.434 2.47337 -1.68715 0
M  V30 2182 H 205.98 1.18879 -0.812642 0
M  V30 2183 H 207.933 4.21396 0.0184278 0
M  V30 2184 H 206.657 3.1863 0.717113 0
M  V30 2185 H 205.316 3.38564 -1.40606 0
M  V30 2186 H 204.964 5.00856 0.463976 0
M  V30 2187 H 204.664 5.76844 -1.11912 0
M  V30 2188 H 206.188 6.10096 -0.248 0
M  V30 2189 H 207.602 5.23093 -2.3462 0
M  V30 2190 H 205.999 5.1203 -3.12962 0
M  V30 2191 H 207.069 3.70676 -3.12614 0
M  V30 2192 N 208.412 0.89855 1.29475 0
M  V30 2193 C 209.342 0.39201 2.30186 0
M  V30 2194 C 210.323 -0.532359 1.61555 0
M  V30 2195 O 211.508 -0.443331 1.89072 0
M  V30 2196 C 208.638 -0.382353 3.45189 0
M  V30 2197 C 207.592 0.451483 4.25612 0
M  V30 2198 C 206.918 -0.450307 5.328 0
M  V30 2199 C 208.218 1.70079 4.93832 0
M  V30 2200 H 209.912 1.23362 2.72804 0
M  V30 2201 H 207.458 0.594638 1.31149 0
M  V30 2202 H 209.411 -0.747451 4.14718 0
M  V30 2203 H 208.135 -1.25774 3.01411 0
M  V30 2204 H 206.794 0.798897 3.57789 0
M  V30 2205 H 206.442 -1.32379 4.85268 0
M  V30 2206 H 206.142 0.103902 5.87508 0
M  V30 2207 H 207.666 -0.811623 6.05182 0
M  V30 2208 H 209.08 1.40549 5.55805 0
M  V30 2209 H 207.477 2.19623 5.58467 0
M  V30 2210 H 208.547 2.43744 4.19186 0
M  V30 2211 N 209.89 -1.43072 0.660911 0
M  V30 2212 C 211.118 -2.06067 0.185422 0
M  V30 2213 C 211.533 -1.49582 -1.15198 0
M  V30 2214 O 210.89 -0.630134 -1.71276 0
M  V30 2215 C 210.941 -3.61371 0.0966523 0
M  V30 2216 O 210.662 -4.15758 1.38119 0
M  V30 2217 C 212.163 -4.41455 -0.403996 0
M  V30 2218 H 209.383 -0.664459 0.0934604 0
M  V30 2219 H 211.927 -1.83447 0.90373 0
M  V30 2220 H 210.082 -3.8315 -0.572259 0
M  V30 2221 H 210.496 -5.09499 1.24542 0
M  V30 2222 H 211.97 -5.50437 -0.415045 0
M  V30 2223 H 212.447 -4.15036 -1.43674 0
M  V30 2224 H 213.053 -4.24663 0.232691 0
M  V30 2225 N 211.368 -0.403325 -1.52352 0
M  V30 2226 C 212.616 0.174003 -2.0135 0
M  V30 2227 C 212.937 1.46139 -1.29106 0
M  V30 2228 O 212.207 1.91448 -0.415253 0
M  V30 2229 H 210.787 0.0672911 -0.743963 0
M  V30 2230 H 213.449 -0.538235 -1.87321 0
M  V30 2231 H 212.545 0.374254 -3.09848 0
M  V30 2232 N 212.846 1.57033 -0.133567 0
M  V30 2233 C 213.776 2.1909 0.807567 0
M  V30 2234 C 214.757 1.13517 1.26681 0
M  V30 2235 O 215.942 1.41809 1.32679 0
M  V30 2236 C 213.072 2.80188 2.05212 0
M  V30 2237 C 212.026 3.91471 1.73015 0
M  V30 2238 C 211.352 4.39443 3.04622 0
M  V30 2239 C 212.652 5.12886 0.987168 0
M  V30 2240 H 214.346 2.97988 0.290403 0
M  V30 2241 H 211.892 1.43335 0.138239 0
M  V30 2242 H 213.845 3.22264 2.71521 0
M  V30 2243 H 212.569 1.98601 2.59278 0
M  V30 2244 H 211.228 3.49993 1.0909 0
M  V30 2245 H 210.876 3.54695 3.56651 0
M  V30 2246 H 210.576 5.14495 2.83847 0
M  V30 2247 H 212.1 4.8418 3.72024 0
M  V30 2248 H 213.514 5.51891 1.55208 0
M  V30 2249 H 211.911 5.93615 0.87985 0
M  V30 2250 H 212.981 4.84894 -0.0235286 0
M  V30 2251 N 214.325 -0.140222 1.56975 0
M  V30 2252 C 215.255 -1.17456 2.01808 0
M  V30 2253 C 216.236 -1.44415 0.898794 0
M  V30 2254 O 217.421 -1.5522 1.16707 0
M  V30 2255 C 214.551 -2.50607 2.40444 0
M  V30 2256 C 213.505 -2.38155 3.55621 0
M  V30 2257 C 212.831 -3.76078 3.80091 0
M  V30 2258 C 214.131 -1.85991 4.88062 0
M  V30 2259 H 215.825 -0.801743 2.88466 0
M  V30 2260 H 213.371 -0.38422 1.38779 0
M  V30 2261 H 215.324 -3.23197 2.7041 0
M  V30 2262 H 214.048 -2.89737 1.50732 0
M  V30 2263 H 212.707 -1.68016 3.25832 0
M  V30 2264 H 212.355 -4.12656 2.87618 0
M  V30 2265 H 212.055 -3.68606 4.57606 0
M  V30 2266 H 213.579 -4.50206 4.12488 0
M  V30 2267 H 214.993 -2.4838 5.16701 0
M  V30 2268 H 213.39 -1.89393 5.6943 0
M  V30 2269 H 214.46 -0.816023 4.77984 0
M  V30 2270 N 215.803 -1.52179 -0.40978 0
M  V30 2271 C 217.028 -1.70347 -1.18308 0
M  V30 2272 C 217.453 -0.411887 -1.83535 0
M  V30 2273 O 216.811 0.630587 -1.6998 0
M  V30 2274 C 216.859 -2.83977 -2.22238 0
M  V30 2275 O 215.963 -2.495 -3.28365 0
M  V30 2276 H 215.304 -0.567103 -0.345384 0
M  V30 2277 H 217.834 -1.98879 -0.480445 0
M  V30 2278 H 217.844 -3.0887 -2.66577 0
M  V30 2279 H 216.519 -3.77685 -1.74146 0
M  V30 2280 H 215.096 -2.35277 -2.89308 0
M  V30 2281 N 217.281 0.66697 -1.42791 0
M  V30 2282 C 218.211 1.79218 -1.49677 0
M  V30 2283 C 219.192 1.66405 -0.352623 0
M  V30 2284 O 220.377 1.85708 -0.567993 0
M  V30 2285 C 217.507 3.17565 -1.40605 0
M  V30 2286 C 216.461 3.45124 -2.53127 0
M  V30 2287 C 215.787 4.83127 -2.29112 0
M  V30 2288 C 217.087 3.41236 -3.95418 0
M  V30 2289 H 218.781 1.73713 -2.43853 0
M  V30 2290 H 216.327 0.83432 -1.17367 0
M  V30 2291 H 218.28 3.96022 -1.44029 0
M  V30 2292 H 217.004 3.23767 -0.429271 0
M  V30 2293 H 215.663 2.69031 -2.49034 0
M  V30 2294 H 215.311 4.85988 -1.29709 0
M  V30 2295 H 215.011 5.02528 -3.04531 0
M  V30 2296 H 216.535 5.63859 -2.34297 0
M  V30 2297 H 217.949 4.09651 -4.01073 0
M  V30 2298 H 216.346 3.72173 -4.70752 0
M  V30 2299 H 217.416 2.39665 -4.21532 0
M  V30 2300 N 218.759 1.29093 0.90403 0
M  V30 2301 C 219.691 1.09658 2.01266 0
M  V30 2302 C 220.704 0.0453729 1.62737 0
M  V30 2303 O 221.893 0.289446 1.76138 0
M  V30 2304 C 218.993 0.646278 3.32681 0
M  V30 2305 C 218.166 1.77505 3.99763 0
M  V30 2306 C 217.225 1.31649 5.09465 0
M  V30 2307 O 216.251 2.02045 5.32134 0
M  V30 2308 N 217.453 0.184997 5.80205 0
M  V30 2309 H 220.218 2.05135 2.18494 0
M  V30 2310 H 217.779 1.20975 1.07594 0
M  V30 2311 H 219.771 0.322906 4.0341 0
M  V30 2312 H 218.341 -0.215916 3.11853 0
M  V30 2313 H 217.561 2.26752 3.22455 0
M  V30 2314 H 218.849 2.53198 4.41325 0
M  V30 2315 H 218.247 -0.402021 5.6427 0
M  V30 2316 H 216.804 -0.0790358 6.51752 0
M  V30 2317 N 220.237 -1.11381 1.11499 0
M  V30 2318 C 221.653 -1.35143 0.849031 0
M  V30 2319 C 221.853 -1.94515 -0.525938 0
M  V30 2320 O 220.909 -2.1785 -1.27662 0
M  V30 2321 C 222.222 -2.28249 1.95762 0
M  V30 2322 C 223.77 -2.41812 1.98736 0
M  V30 2323 C 224.245 -3.3824 3.088 0
M  V30 2324 N 225.736 -3.45803 3.08179 0
M  V30 2325 C 226.471 -4.20358 3.89982 0
M  V30 2326 N 225.967 -4.97884 4.8175 0
M  V30 2327 N 227.76 -4.15877 3.78157 0
M  V30 2328 H 219.911 -0.712062 2.00109 0
M  V30 2329 H 222.174 -0.376025 0.870235 0
M  V30 2330 H 221.88 -1.91817 2.94787 0
M  V30 2331 H 221.754 -3.28473 1.85433 0
M  V30 2332 H 224.141 -2.77518 1.00338 0
M  V30 2333 H 224.222 -1.41437 2.13141 0
M  V30 2334 H 223.866 -3.03261 4.07425 0
M  V30 2335 H 223.796 -4.38471 2.91635 0
M  V30 2336 H 226.287 -2.90506 2.41691 0
M  V30 2337 H 226.6 -5.52142 5.40702 0
M  V30 2338 H 224.945 -4.97043 4.85771 0
M  V30 2339 H 228.136 -3.544 3.05808 0
M  V30 2340 H 228.309 -4.73723 4.42143 0
M  V30 2341 N 221.715 -0.905404 -1.28997 0
M  V30 2342 C 222.955 -0.541232 -1.97104 0
M  V30 2343 C 223.319 0.896841 -1.69767 0
M  V30 2344 O 224.52 1.36817 -2.31375 0
M  V30 2345 C 222.791 -0.832134 -3.47578 0
M  V30 2346 S 224.35 -0.573127 -4.35041 0
M  V30 2347 H 221.168 -0.200576 -0.682122 0
M  V30 2348 H 223.77 -1.16906 -1.56694 0
M  V30 2349 H 222.474 -1.87687 -3.64968 0
M  V30 2350 H 222.005 -0.192636 -3.92928 0
M  V30 2351 H 224.02 0.579297 -4.92807 0
M  V30 2352 N 223.193 1.4272 -0.668489 0
M  V30 2353 C 224.123 2.335 -0.000100175 0
M  V30 2354 C 225.104 1.50328 0.795964 0
M  V30 2355 O 226.289 1.78949 0.754385 0
M  V30 2356 C 223.419 3.33874 0.956302 0
M  V30 2357 C 222.373 4.27152 0.269278 0
M  V30 2358 C 221.699 5.17684 1.33818 0
M  V30 2359 C 222.999 5.15373 -0.847805 0
M  V30 2360 H 224.693 2.89639 -0.758244 0
M  V30 2361 H 222.239 1.39269 -0.366079 0
M  V30 2362 H 224.192 3.9629 1.43292 0
M  V30 2363 H 222.916 2.76025 1.74579 0
M  V30 2364 H 221.575 3.66123 -0.187042 0
M  V30 2365 H 221.223 4.56165 2.1195 0
M  V30 2366 H 220.923 5.80918 0.883659 0
M  V30 2367 H 222.447 5.82974 1.81586 0
M  V30 2368 H 223.861 5.7151 -0.452681 0
M  V30 2369 H 222.258 5.87407 -1.22773 0
M  V30 2370 H 223.328 4.5415 -1.69929 0
M  V30 2371 N 224.671 0.411399 1.52136 0
M  V30 2372 C 225.634 -0.401089 2.25663 0
M  V30 2373 C 226.634 -0.971732 1.28117 0
M  V30 2374 O 227.824 -0.850254 1.52041 0
M  V30 2375 C 224.956 -1.56483 3.02863 0
M  V30 2376 H 226.149 0.24295 2.98914 0
M  V30 2377 H 223.702 0.163968 1.55438 0
M  V30 2378 H 224.437 -2.24567 2.33967 0
M  V30 2379 H 224.222 -1.16211 3.74483 0
M  V30 2380 H 225.712 -2.13951 3.58629 0
M  V30 2381 N 226.149 -1.5696 0.141893 0
M  V30 2382 C 227.395 -1.9625 -0.511248 0
M  V30 2383 C 227.728 -1.02654 -1.64851 0
M  V30 2384 O 227.003 -0.0679676 -1.94381 0
M  V30 2385 C 227.286 -3.45285 -1.02227 0
M  V30 2386 C 227.139 -4.49658 0.113138 0
M  V30 2387 C 228.458 -3.96698 -1.90574 0
M  V30 2388 H 225.577 -0.713567 -0.184367 0
M  V30 2389 H 228.219 -1.88698 0.222087 0
M  V30 2390 H 226.369 -3.51852 -1.64719 0
M  V30 2391 H 228.041 -4.55174 0.749302 0
M  V30 2392 H 226.284 -4.26857 0.773026 0
M  V30 2393 H 226.955 -5.51258 -0.286053 0
M  V30 2394 H 229.431 -3.92578 -1.37918 0
M  V30 2395 H 228.307 -5.01453 -2.2324 0
M  V30 2396 H 228.568 -3.3875 -2.84079 0
M  V30 2397 N 227.627 0.131896 -1.57047 0
M  V30 2398 C 228.855 0.856461 -1.88341 0
M  V30 2399 C 229.27 1.74042 -0.731757 0
M  V30 2400 O 228.627 1.80051 0.297945 0
M  V30 2401 C 228.678 1.70064 -3.18999 0
M  V30 2402 O 228.399 0.852278 -4.2973 0
M  V30 2403 C 229.9 2.53148 -3.63911 0
M  V30 2404 H 227.12 0.246885 -0.62393 0
M  V30 2405 H 229.664 0.120152 -2.04147 0
M  V30 2406 H 227.819 2.38984 -3.04902 0
M  V30 2407 H 228.233 1.43329 -5.04537 0
M  V30 2408 H 229.707 3.07931 -4.58129 0
M  V30 2409 H 230.184 3.29901 -2.89935 0
M  V30 2410 H 230.79 1.89492 -3.80753 0
M  V30 2411 N 229.106 1.52395 0.401703 0
M  V30 2412 C 230.522 1.41363 0.740864 0
M  V30 2413 C 230.722 0.523982 1.94568 0
M  V30 2414 O 229.778 -0.00741204 2.52499 0
M  V30 2415 C 231.091 2.84011 0.987847 0
M  V30 2416 C 232.639 2.93404 1.09011 0
M  V30 2417 C 233.114 4.37036 1.3698 0
M  V30 2418 N 234.605 4.40304 1.43829 0
M  V30 2419 C 235.34 5.48508 1.67112 0
M  V30 2420 N 234.836 6.66819 1.87949 0
M  V30 2421 N 236.629 5.36034 1.69187 0
M  V30 2422 H 228.78 2.08765 -0.391262 0
M  V30 2423 H 231.043 0.941265 -0.112798 0
M  V30 2424 H 230.749 3.51265 0.174835 0
M  V30 2425 H 230.623 3.25502 1.906 0
M  V30 2426 H 233.01 2.26325 1.8937 0
M  V30 2427 H 233.091 2.55359 0.15015 0
M  V30 2428 H 232.735 5.04676 0.571353 0
M  V30 2429 H 232.665 4.72623 2.3224 0
M  V30 2430 H 235.156 3.55024 1.29486 0
M  V30 2431 H 235.469 7.45063 2.05185 0
M  V30 2432 H 233.814 6.6987 1.85199 0
M  V30 2433 H 237.005 4.42579 1.52451 0
M  V30 2434 H 237.178 6.20434 1.86993 0
M  V30 2435 N 230.584 -0.659388 1.43143 0
M  V30 2436 C 231.995 -1.24041 1.39537 0
M  V30 2437 C 232.346 -1.95963 0.0963364 0
M  V30 2438 O 231.471 -2.00892 -0.804438 0
M  V30 2439 C 232.066 -2.25601 2.52764 0
M  V30 2440 C 230.625 -2.79195 2.52443 0
M  V30 2441 C 229.772 -1.53743 2.30778 0
M  V30 2442 H 232.723 -0.451792 1.52133 0
M  V30 2443 H 232.744 -3.07651 2.23899 0
M  V30 2444 H 232.256 -1.73226 3.47296 0
M  V30 2445 H 230.357 -3.35649 1.61773 0
M  V30 2446 H 230.47 -3.2716 3.50004 0
M  V30 2447 H 228.834 -1.80869 1.79328 0
M  V30 2448 H 229.617 -1.03312 3.27386 0
M  V30 2449 N 232.062 -1.29571 -0.897171 0
M  V30 2450 C 233.309 -1.17689 -1.6479 0
M  V30 2451 C 233.637 0.27107 -1.92602 0
M  V30 2452 O 232.892 1.21193 -1.53658 0
M  V30 2453 C 233.191 -1.9382 -3.00281 0
M  V30 2454 C 232.857 -3.43522 -2.92068 0
M  V30 2455 C 231.519 -3.84348 -2.89535 0
M  V30 2456 C 233.871 -4.38906 -2.81089 0
M  V30 2457 C 231.199 -5.18869 -2.73846 0
M  V30 2458 C 233.551 -5.73521 -2.66939 0
M  V30 2459 C 232.215 -6.13601 -2.62774 0
M  V30 2460 H 231.485 -0.430654 -0.603008 0
M  V30 2461 H 234.132 -1.60536 -1.04404 0
M  V30 2462 H 232.437 -1.4357 -3.64547 0
M  V30 2463 H 234.134 -1.82028 -3.57305 0
M  V30 2464 H 230.724 -3.11072 -2.94842 0
M  V30 2465 H 234.908 -4.08315 -2.82121 0
M  V30 2466 H 230.164 -5.4903 -2.69027 0
M  V30 2467 H 234.338 -6.47078 -2.57416 0
M  V30 2468 H 231.965 -7.17786 -2.50375 0
M  V30 2469 N 233.54 1.10788 -1.12088 0
M  V30 2470 C 234.47 2.19083 -0.807755 0
M  V30 2471 C 235.451 1.6858 0.226859 0
M  V30 2472 O 236.636 1.93997 0.0888475 0
M  V30 2473 C 233.766 3.46344 -0.257576 0
M  V30 2474 C 232.72 4.101 -1.22483 0
M  V30 2475 C 232.046 5.32016 -0.535052 0
M  V30 2476 C 233.346 4.54236 -2.57811 0
M  V30 2477 H 235.04 2.45534 -1.71328 0
M  V30 2478 H 232.586 1.1801 -0.825205 0
M  V30 2479 H 234.539 4.21392 -0.0262679 0
M  V30 2480 H 233.263 3.19373 0.683278 0
M  V30 2481 H 231.922 3.37054 -1.44189 0
M  V30 2482 H 231.57 5.01319 0.410827 0
M  V30 2483 H 231.27 5.75625 -1.18024 0
M  V30 2484 H 232.794 6.09799 -0.312695 0
M  V30 2485 H 234.208 5.20575 -2.40155 0
M  V30 2486 H 232.605 5.08682 -3.18375 0
M  V30 2487 H 233.675 3.6734 -3.16528 0
M  V30 2488 N 235.018 0.912232 1.28515 0
M  V30 2489 C 235.981 0.404223 2.25607 0
M  V30 2490 C 236.981 -0.468602 1.53821 0
M  V30 2491 O 238.171 -0.271873 1.72065 0
M  V30 2492 C 235.303 -0.420653 3.38295 0
M  V30 2493 H 236.496 1.26188 2.7206 0
M  V30 2494 H 234.049 0.691495 1.40171 0
M  V30 2495 H 234.784 -1.29777 2.97201 0
M  V30 2496 H 234.569 0.204935 3.91564 0
M  V30 2497 H 236.059 -0.766971 4.10496 0
M  V30 2498 N 236.496 -1.42363 0.676048 0
M  V30 2499 C 237.907 -1.84649 0.275948 0
M  V30 2500 C 238.258 -1.56588 -1.18214 0
M  V30 2501 O 237.383 -1.02634 -1.90513 0
M  V30 2502 C 237.978 -3.35178 0.494053 0
M  V30 2503 C 236.537 -3.76109 0.148061 0
M  V30 2504 C 235.684 -2.65931 0.785891 0
M  V30 2505 H 238.635 -1.32192 0.878121 0
M  V30 2506 H 238.656 -3.79655 -0.25343 0
M  V30 2507 H 238.168 -3.55571 1.55535 0
M  V30 2508 H 236.269 -3.61323 -0.909742 0
M  V30 2509 H 236.382 -4.7546 0.589454 0
M  V30 2510 H 234.746 -2.53773 0.217113 0
M  V30 2511 H 235.529 -2.89146 1.85067 0
M  V30 2512 N 237.974 -0.419461 -1.51915 0
M  V30 2513 C 239.39 -0.0708431 -1.59443 0
M  V30 2514 C 239.59 1.41796 -1.43164 0
M  V30 2515 O 238.646 2.18596 -1.26381 0
M  V30 2516 C 239.959 -0.574991 -2.95151 0
M  V30 2517 C 241.507 -0.533867 -3.08413 0
M  V30 2518 C 241.982 -1.01469 -4.46618 0
M  V30 2519 N 243.473 -0.971939 -4.52888 0
M  V30 2520 C 244.208 -1.31505 -5.58116 0
M  V30 2521 N 243.704 -1.73014 -6.70849 0
M  V30 2522 N 245.497 -1.23436 -5.48379 0
M  V30 2523 H 237.648 -1.38836 -1.60743 0
M  V30 2524 H 239.911 -0.570998 -0.756747 0
M  V30 2525 H 239.617 -1.61597 -3.12377 0
M  V30 2526 H 239.491 0.00979777 -3.77199 0
M  V30 2527 H 241.878 0.498086 -2.90866 0
M  V30 2528 H 241.959 -1.15484 -2.28248 0
M  V30 2529 H 241.603 -2.04502 -4.6491 0
M  V30 2530 H 241.533 -0.370433 -5.25295 0
M  V30 2531 H 244.024 -0.666893 -3.71969 0
M  V30 2532 H 244.337 -1.97479 -7.47143 0
M  V30 2533 H 242.682 -1.76926 -6.72103 0
M  V30 2534 H 245.873 -0.908869 -4.59192 0
M  V30 2535 H 246.046 -1.50506 -6.30279 0
M  V30 2536 N 239.452 1.56882 -0.150215 0
M  V30 2537 C 240.382 2.19935 0.784284 0
M  V30 2538 C 241.363 1.14854 1.25469 0
M  V30 2539 O 242.548 1.43209 1.31168 0
M  V30 2540 C 239.678 2.82349 2.02229 0
M  V30 2541 C 238.632 3.93285 1.68853 0
M  V30 2542 C 237.958 4.42649 2.99944 0
M  V30 2543 C 239.258 5.13904 0.932714 0
M  V30 2544 H 240.952 2.9828 0.258781 0
M  V30 2545 H 238.498 1.43473 0.123029 0
M  V30 2546 H 240.451 3.25126 2.68088 0
M  V30 2547 H 239.175 2.0134 2.57157 0
M  V30 2548 H 237.834 3.5113 1.05371 0
M  V30 2549 H 237.482 3.58458 3.52869 0
M  V30 2550 H 237.182 5.17476 2.78374 0
M  V30 2551 H 238.706 4.88099 3.66868 0
M  V30 2552 H 240.12 5.53506 1.49345 0
M  V30 2553 H 238.517 5.94515 0.81684 0
M  V30 2554 H 239.587 4.84842 -0.0749568 0
M  V30 2555 N 240.93 -0.123565 1.57115 0
M  V30 2556 C 242.346 -0.476961 1.52306 0
M  V30 2557 C 242.546 -1.82109 0.86248 0
M  V30 2558 O 241.602 -2.48586 0.442884 0
M  V30 2559 C 242.915 -0.465661 2.97073 0
M  V30 2560 C 244.463 -0.549534 3.08138 0
M  V30 2561 C 244.938 -0.568669 4.54456 0
M  V30 2562 N 246.429 -0.630237 4.58892 0
M  V30 2563 C 247.164 -0.666415 5.69514 0
M  V30 2564 N 246.66 -0.660514 6.89644 0
M  V30 2565 N 248.453 -0.709077 5.5761 0
M  V30 2566 H 240.604 0.757198 1.98445 0
M  V30 2567 H 242.867 0.278808 0.906074 0
M  V30 2568 H 242.573 0.454232 3.48754 0
M  V30 2569 H 242.447 -1.29513 3.54269 0
M  V30 2570 H 244.834 -1.45985 2.56461 0
M  V30 2571 H 244.915 0.307532 2.53945 0
M  V30 2572 H 244.559 0.337581 5.06777 0
M  V30 2573 H 244.489 -1.44256 5.06456 0
M  V30 2574 H 246.98 -0.641146 3.72421 0
M  V30 2575 H 247.293 -0.690616 7.69708 0
M  V30 2576 H 245.638 -0.628012 6.92157 0
M  V30 2577 H 248.829 -0.711019 4.62668 0
M  V30 2578 H 249.002 -0.733804 6.43832 0
M  V30 2579 N 242.408 -1.52605 -0.393616 0
M  V30 2580 C 243.633 -1.71592 -1.16495 0
M  V30 2581 C 244.058 -0.43133 -1.83088 0
M  V30 2582 O 243.416 0.612523 -1.7064 0
M  V30 2583 C 243.464 -2.86318 -2.19213 0
M  V30 2584 O 242.568 -2.52969 -3.257 0
M  V30 2585 H 241.909 -0.570734 -0.33935 0
M  V30 2586 H 244.439 -1.99377 -0.459324 0
M  V30 2587 H 244.449 -3.1168 -2.63286 0
M  V30 2588 H 243.124 -3.79511 -1.7013 0
M  V30 2589 H 241.701 -2.38332 -2.86797 0
M  V30 2590 N 243.887 0.651787 -1.4349 0
M  V30 2591 C 245.298 1.233 -1.40193 0
M  V30 2592 C 245.649 1.9591 -0.106727 0
M  V30 2593 O 244.774 2.01316 0.793773 0
M  V30 2594 C 245.369 2.24257 -2.53957 0
M  V30 2595 C 243.928 2.77852 -2.5392 0
M  V30 2596 C 243.075 1.52517 -2.3159 0
M  V30 2597 H 246.026 0.443717 -1.52371 0
M  V30 2598 H 246.047 3.0646 -2.25528 0
M  V30 2599 H 245.559 1.71382 -3.4821 0
M  V30 2600 H 243.66 3.34786 -1.63551 0
M  V30 2601 H 243.773 3.25299 -3.51735 0
M  V30 2602 H 242.137 1.79915 -1.80285 0
M  V30 2603 H 242.92 1.01574 -3.27929 0
M  V30 2604 N 245.365 1.30045 0.890287 0
M  V30 2605 C 246.328 1.15963 1.977 0
M  V30 2606 C 247.328 0.0923777 1.60534 0
M  V30 2607 O 248.518 0.340071 1.70848 0
M  V30 2608 C 245.65 0.775451 3.31963 0
M  V30 2609 H 246.843 2.12502 2.11619 0
M  V30 2610 H 244.396 1.13366 1.07601 0
M  V30 2611 H 245.131 -0.189671 3.23745 0
M  V30 2612 H 244.916 1.54668 3.60306 0
M  V30 2613 H 246.406 0.700251 4.11687 0
M  V30 2614 N 246.843 -1.10192 1.12674 0
M  V30 2615 C 247.773 -2.18652 0.819362 0
M  V30 2616 C 248.754 -1.68698 -0.217915 0
M  V30 2617 O 249.939 -1.94041 -0.0785581 0
M  V30 2618 C 247.069 -3.46202 0.27594 0
M  V30 2619 C 246.023 -4.09444 1.24656 0
M  V30 2620 C 245.349 -5.31725 0.563258 0
M  V30 2621 C 246.649 -4.52863 2.60217 0
M  V30 2622 H 248.343 -2.44622 1.72628 0
M  V30 2623 H 245.889 -1.17571 0.831451 0
M  V30 2624 H 247.842 -4.21372 0.0486149 0
M  V30 2625 H 246.566 -3.1973 -0.666331 0
M  V30 2626 H 245.225 -3.36284 1.45974 0
M  V30 2627 H 244.873 -5.0153 -0.384235 0
M  V30 2628 H 244.573 -5.74991 1.21075 0
M  V30 2629 H 246.097 -6.09624 0.34503 0
M  V30 2630 H 247.511 -5.19294 2.42913 0
M  V30 2631 H 245.908 -5.06986 3.21068 0
M  V30 2632 H 246.978 -3.65656 3.18471 0
M  V30 2633 N 248.321 -0.919034 -1.28029 0
M  V30 2634 C 249.284 -0.416182 -2.2539 0
M  V30 2635 C 250.284 0.460438 -1.54067 0
M  V30 2636 O 251.474 0.262744 -1.72207 0
M  V30 2637 C 248.606 0.402707 -3.38513 0
M  V30 2638 H 249.799 -1.27629 -2.71387 0
M  V30 2639 H 247.352 -0.698919 -1.39803 0
M  V30 2640 H 248.087 1.282 -2.97885 0
M  V30 2641 H 247.872 -0.225698 -3.9145 0
M  V30 2642 H 249.362 0.745191 -4.10897 0
M  V30 2643 N 249.799 1.42003 -0.683588 0
M  V30 2644 C 251.215 1.55625 -0.353976 0
M  V30 2645 C 251.415 1.66151 1.14 0
M  V30 2646 O 250.471 1.63329 1.92561 0
M  V30 2647 C 251.784 2.80171 -1.092 0
M  V30 2648 C 253.332 2.93954 -1.07518 0
M  V30 2649 C 253.807 4.21372 -1.79471 0
M  V30 2650 N 255.298 4.28303 -1.76381 0
M  V30 2651 C 256.033 5.25729 -2.28904 0
M  V30 2652 N 255.529 6.29254 -2.89846 0
M  V30 2653 N 257.322 5.17586 -2.19228 0
M  V30 2654 H 249.473 1.33415 -1.6527 0
M  V30 2655 H 251.736 0.64282 -0.696769 0
M  V30 2656 H 251.442 2.78561 -2.14701 0
M  V30 2657 H 251.316 3.7133 -0.662862 0
M  V30 2658 H 253.703 2.95086 -0.028475 0
M  V30 2659 H 253.784 2.04002 -1.54328 0
M  V30 2660 H 253.428 4.21001 -2.84114 0
M  V30 2661 H 253.358 5.10275 -1.30104 0
M  V30 2662 H 255.849 3.54119 -1.31939 0
M  V30 2663 H 256.162 6.99964 -3.27522 0
M  V30 2664 H 254.507 6.29791 -2.93919 0
M  V30 2665 H 257.698 4.35631 -1.71299 0
M  V30 2666 H 257.871 5.93348 -2.60466 0
M  V30 2667 N 251.277 0.427512 1.51691 0
M  V30 2668 C 252.693 0.0792977 1.59403 0
M  V30 2669 C 252.893 -1.41035 1.43914 0
M  V30 2670 O 251.949 -2.17922 1.27539 0
M  V30 2671 C 253.262 0.590636 2.94842 0
M  V30 2672 C 254.81 0.550215 3.08126 0
M  V30 2673 C 255.285 1.03836 4.46074 0
M  V30 2674 N 256.776 0.995943 4.52366 0
M  V30 2675 C 257.511 1.34463 5.57411 0
M  V30 2676 N 257.007 1.76569 6.69922 0
M  V30 2677 N 258.8 1.26343 5.47717 0
M  V30 2678 H 250.951 1.39687 1.60004 0
M  V30 2679 H 253.214 0.575003 0.753708 0
M  V30 2680 H 252.92 1.63251 3.11516 0
M  V30 2681 H 252.794 0.0102061 3.77199 0
M  V30 2682 H 255.181 -0.482654 2.91126 0
M  V30 2683 H 255.262 1.16693 2.27632 0
M  V30 2684 H 254.906 2.06965 4.63819 0
M  V30 2685 H 254.836 0.398286 5.25092 0
M  V30 2686 H 257.327 0.68661 3.7161 0
M  V30 2687 H 257.64 2.01438 7.46085 0
M  V30 2688 H 255.985 1.80488 6.71155 0
M  V30 2689 H 259.176 0.933209 4.58703 0
M  V30 2690 H 259.349 1.53846 6.29472 0
M  V30 2691 N 252.755 -1.56801 0.158532 0
M  V30 2692 C 253.685 -2.20347 -0.772609 0
M  V30 2693 C 254.666 -1.15518 -1.24859 0
M  V30 2694 O 255.851 -1.43902 -1.30406 0
M  V30 2695 C 252.981 -2.83417 -2.00729 0
M  V30 2696 C 251.935 -3.94174 -1.66765 0
M  V30 2697 C 251.261 -4.44233 -2.97592 0
M  V30 2698 C 252.561 -5.14392 -0.905447 0
M  V30 2699 H 254.255 -2.98413 -0.242959 0
M  V30 2700 H 251.801 -1.43537 -0.115419 0
M  V30 2701 H 253.754 -3.26543 -2.6636 0
M  V30 2702 H 252.478 -2.02701 -2.56086 0
M  V30 2703 H 251.137 -3.51684 -1.03508 0
M  V30 2704 H 250.785 -3.60325 -3.50963 0
M  V30 2705 H 250.485 -5.18945 -2.75626 0
M  V30 2706 H 252.009 -4.90037 -3.64274 0
M  V30 2707 H 253.423 -5.5429 -1.46408 0
M  V30 2708 H 251.82 -5.9494 -0.7853 0
M  V30 2709 H 252.89 -4.84795 0.100668 0
M  V30 2710 N 254.233 0.115231 -1.57178 0
M  V30 2711 C 255.163 1.1423 -2.03651 0
M  V30 2712 C 256.144 1.42967 -0.921655 0
M  V30 2713 O 257.329 1.53343 -1.19162 0
M  V30 2714 C 254.459 2.4675 -2.44401 0
M  V30 2715 C 253.413 2.32467 -3.59365 0
M  V30 2716 C 252.739 3.69984 -3.86026 0
M  V30 2717 C 254.039 1.78203 -4.90959 0
M  V30 2718 H 255.733 0.755749 -2.89705 0
M  V30 2719 H 253.279 0.362093 -1.39373 0
M  V30 2720 H 255.232 3.18854 -2.75517 0
M  V30 2721 H 253.956 2.87302 -1.55322 0
M  V30 2722 H 252.615 1.62811 -3.28463 0
M  V30 2723 H 252.263 4.08028 -2.94147 0
M  V30 2724 H 251.963 3.61279 -4.63412 0
M  V30 2725 H 253.487 4.43587 -4.19599 0
M  V30 2726 H 254.901 2.40128 -5.20587 0
M  V30 2727 H 253.298 1.8031 -5.72371 0
M  V30 2728 H 254.368 0.739876 -4.79222 0
M  V30 2729 N 255.711 1.52812 0.385517 0
M  V30 2730 C 256.641 1.80808 1.47752 0
M  V30 2731 C 257.622 0.660318 1.5676 0
M  V30 2732 O 258.807 0.908246 1.71652 0
M  V30 2733 C 255.937 1.98008 2.85324 0
M  V30 2734 C 254.891 3.13709 2.91154 0
M  V30 2735 C 254.217 3.16169 4.31209 0
M  V30 2736 C 255.517 4.52709 2.60483 0
M  V30 2737 H 257.211 2.72253 1.24573 0
M  V30 2738 H 254.757 1.31003 0.597839 0
M  V30 2739 H 256.71 2.16176 3.61726 0
M  V30 2740 H 255.434 1.03255 3.09848 0
M  V30 2741 H 254.093 2.95329 2.17201 0
M  V30 2742 H 253.741 2.19092 4.52778 0
M  V30 2743 H 253.441 3.93894 4.36029 0
M  V30 2744 H 254.965 3.36496 5.09512 0
M  V30 2745 H 256.379 4.71173 3.26602 0
M  V30 2746 H 254.776 5.32528 2.76648 0
M  V30 2747 H 255.846 4.59186 1.55809 0
M  V30 2748 N 257.189 -0.644168 1.43834 0
M  V30 2749 C 258.152 -1.73857 1.49353 0
M  V30 2750 C 259.152 -1.56315 0.377112 0
M  V30 2751 O 260.342 -1.62048 0.639226 0
M  V30 2752 C 257.474 -3.12819 1.35488 0
M  V30 2753 H 258.667 -1.70342 2.46827 0
M  V30 2754 H 256.22 -0.856652 1.30733 0
M  V30 2755 H 256.955 -3.2194 0.390569 0
M  V30 2756 H 256.74 -3.26958 2.16428 0
M  V30 2757 H 258.23 -3.92606 1.42302 0
M  V30 2758 N 258.668 -1.30515 -0.883378 0
M  V30 2759 C 259.914 -1.19607 -1.63774 0
M  V30 2760 C 260.247 0.248314 -1.92606 0
M  V30 2761 O 259.522 1.17742 -1.54813 0
M  V30 2762 C 259.805 -2.02669 -2.97653 0
M  V30 2763 C 259.658 -3.55335 -2.75784 0
M  V30 2764 C 260.977 -1.86573 -3.98596 0
M  V30 2765 H 258.096 -0.435856 -0.594305 0
M  V30 2766 H 260.738 -1.60165 -1.02212 0
M  V30 2767 H 258.888 -1.68208 -3.50197 0
M  V30 2768 H 260.56 -3.99863 -2.30016 0
M  V30 2769 H 258.803 -3.79438 -2.1026 0
M  V30 2770 H 259.474 -4.08745 -3.70988 0
M  V30 2771 H 261.95 -2.16703 -3.55217 0
M  V30 2772 H 260.826 -2.47014 -4.90179 0
M  V30 2773 H 261.087 -0.825321 -4.34328 0
M  V30 2774 N 260.146 1.09593 -1.13257 0
M  V30 2775 C 261.392 1.82181 -0.904521 0
M  V30 2776 C 261.747 1.83967 0.563358 0
M  V30 2777 O 261.04 1.29566 1.41149 0
M  V30 2778 C 261.234 3.27802 -1.42411 0
M  V30 2779 C 261.063 3.40201 -2.94097 0
M  V30 2780 C 259.833 3.52104 -3.62424 0
M  V30 2781 C 262.031 3.32875 -3.92044 0
M  V30 2782 N 260.013 3.53169 -5.0214 0
M  V30 2783 C 261.384 3.40789 -5.17941 0
M  V30 2784 C 263.439 3.16531 -3.84334 0
M  V30 2785 C 262.142 3.34042 -6.37031 0
M  V30 2786 C 264.168 3.11109 -5.02956 0
M  V30 2787 C 263.53 3.19614 -6.27715 0
M  V30 2788 H 259.629 0.681015 -0.384373 0
M  V30 2789 H 262.213 1.3099 -1.44048 0
M  V30 2790 H 260.384 3.77466 -0.915086 0
M  V30 2791 H 262.116 3.88393 -1.13722 0
M  V30 2792 H 258.871 3.5548 -3.12939 0
M  V30 2793 H 259.295 3.57291 -5.75041 0
M  V30 2794 H 263.937 3.08827 -2.88766 0
M  V30 2795 H 261.655 3.4051 -7.32857 0
M  V30 2796 H 265.241 2.99601 -4.98729 0
M  V30 2797 H 264.121 3.15432 -7.17964 0
M  V30 2798 N 261.624 0.925811 1.2754 0
M  V30 2799 C 262.554 0.440748 2.29303 0
M  V30 2800 C 263.535 -0.497971 1.62648 0
M  V30 2801 O 264.72 -0.403126 1.8997 0
M  V30 2802 C 261.85 -0.309048 3.45922 0
M  V30 2803 C 260.804 0.54166 4.24559 0
M  V30 2804 C 260.13 -0.337191 5.33636 0
M  V30 2805 C 261.43 1.80516 4.90114 0
M  V30 2806 H 263.124 1.29121 2.70126 0
M  V30 2807 H 260.67 0.622323 1.29858 0
M  V30 2808 H 262.623 -0.659315 4.1621 0
M  V30 2809 H 261.347 -1.19352 3.04011 0
M  V30 2810 H 260.006 0.874609 3.56014 0
M  V30 2811 H 259.654 -1.22056 4.87966 0
M  V30 2812 H 259.354 0.228497 5.87156 0
M  V30 2813 H 260.878 -0.683072 6.06767 0
M  V30 2814 H 262.292 1.52307 5.52698 0
M  V30 2815 H 260.689 2.3142 5.53683 0
M  V30 2816 H 261.759 2.52581 4.13921 0
M  V30 2817 N 263.102 -1.41638 0.69111 0
M  V30 2818 C 264.065 -2.29178 0.0319786 0
M  V30 2819 C 265.065 -1.44153 -0.712496 0
M  V30 2820 O 266.255 -1.65354 -0.548053 0
M  V30 2821 C 263.387 -3.26952 -0.965161 0
M  V30 2822 H 264.58 -2.88959 0.802681 0
M  V30 2823 H 262.133 -1.4955 0.454356 0
M  V30 2824 H 262.868 -2.72142 -1.76378 0
M  V30 2825 H 262.653 -3.89685 -0.434522 0
M  V30 2826 H 264.143 -3.92561 -1.42428 0
M  V30 2827 N 264.58 -0.43555 -1.51462 0
M  V30 2828 C 265.543 0.365137 -2.26273 0
M  V30 2829 C 266.543 0.951227 -1.29647 0
M  V30 2830 O 267.733 0.825958 -1.53374 0
M  V30 2831 C 264.865 1.51645 -3.05314 0
M  V30 2832 H 266.058 -0.290474 -2.9849 0
M  V30 2833 H 263.611 -0.188676 -1.55157 0
M  V30 2834 H 264.346 2.20816 -2.3751 0
M  V30 2835 H 264.131 1.10238 -3.76284 0
M  V30 2836 H 265.621 2.08218 -3.61987 0
M  V30 2837 N 266.058 1.56714 -0.166846 0
M  V30 2838 C 266.988 2.20754 0.760913 0
M  V30 2839 C 267.969 1.16178 1.24244 0
M  V30 2840 O 269.154 1.44592 1.29641 0
M  V30 2841 C 266.284 2.84478 1.99223 0
M  V30 2842 C 265.238 3.95053 1.64672 0
M  V30 2843 C 264.564 4.45805 2.95232 0
M  V30 2844 C 265.864 5.14865 0.878155 0
M  V30 2845 H 267.558 2.98537 0.22713 0
M  V30 2846 H 265.104 1.43596 0.107805 0
M  V30 2847 H 267.057 3.27951 2.64624 0
M  V30 2848 H 265.781 2.04056 2.55007 0
M  V30 2849 H 264.44 3.52228 1.01641 0
M  V30 2850 H 264.088 3.62181 3.49047 0
M  V30 2851 H 263.788 5.204 2.7287 0
M  V30 2852 H 265.312 4.91962 3.6167 0
M  V30 2853 H 266.726 5.55059 1.43466 0
M  V30 2854 H 265.123 5.95348 0.753738 0
M  V30 2855 H 266.193 4.84735 -0.126377 0
M  V30 2856 N 267.536 -0.106894 1.57237 0
M  V30 2857 C 268.466 -1.13148 2.04254 0
M  V30 2858 C 269.447 -1.42476 0.929224 0
M  V30 2859 O 270.632 -1.52709 1.19973 0
M  V30 2860 C 267.762 -2.4545 2.45706 0
M  V30 2861 C 266.716 -2.30558 3.60592 0
M  V30 2862 C 266.042 -3.67931 3.87983 0
M  V30 2863 C 267.342 -1.75597 4.91897 0
M  V30 2864 H 269.036 -0.740374 2.90101 0
M  V30 2865 H 266.582 -0.354696 1.39563 0
M  V30 2866 H 268.535 -3.17389 2.77205 0
M  V30 2867 H 267.259 -2.86475 1.56843 0
M  V30 2868 H 265.918 -1.61067 3.29322 0
M  V30 2869 H 265.566 -4.06462 2.96306 0
M  V30 2870 H 265.266 -3.58817 4.65322 0
M  V30 2871 H 266.79 -4.41356 4.21945 0
M  V30 2872 H 268.204 -2.37364 5.21854 0
M  V30 2873 H 266.601 -1.77272 5.73319 0
M  V30 2874 H 267.671 -0.714451 4.79608 0
M  V30 2875 N 269.014 -1.53014 -0.377408 0
M  V30 2876 C 269.944 -1.81589 -1.46791 0
M  V30 2877 C 270.925 -0.668622 -1.56408 0
M  V30 2878 O 272.11 -0.917337 -1.71168 0
M  V30 2879 C 269.24 -1.99519 -2.8427 0
M  V30 2880 C 268.194 -3.15249 -2.89486 0
M  V30 2881 C 267.52 -3.18451 -4.29527 0
M  V30 2882 C 268.82 -4.54084 -2.58079 0
M  V30 2883 H 270.514 -2.7291 -1.23127 0
M  V30 2884 H 268.06 -1.31319 -0.590883 0
M  V30 2885 H 270.013 -2.18092 -3.60575 0
M  V30 2886 H 268.737 -1.04897 -3.09296 0
M  V30 2887 H 267.396 -2.96477 -2.15631 0
M  V30 2888 H 267.044 -2.2149 -4.5161 0
M  V30 2889 H 266.744 -3.962 -4.33934 0
M  V30 2890 H 268.268 -3.39193 -5.07721 0
M  V30 2891 H 269.682 -4.72899 -3.24098 0
M  V30 2892 H 268.079 -5.33987 -2.7382 0
M  V30 2893 H 269.149 -4.60006 -1.53372 0
M  V30 2894 N 270.492 0.636531 -1.44174 0
M  V30 2895 C 271.455 1.73063 -1.50273 0
M  V30 2896 C 272.455 1.56113 -0.385397 0
M  V30 2897 O 273.645 1.61707 -0.64781 0
M  V30 2898 C 270.777 3.12096 -1.37145 0
M  V30 2899 H 271.97 1.69031 -2.47727 0
M  V30 2900 H 269.523 0.849706 -1.31186 0
M  V30 2901 H 270.258 3.21728 -0.407636 0
M  V30 2902 H 270.043 3.25805 -2.18159 0
M  V30 2903 H 271.533 3.91846 -1.44382 0
M  V30 2904 N 271.97 1.30982 0.876444 0
M  V30 2905 C 273.216 1.20474 1.63138 0
M  V30 2906 C 273.549 -0.238096 1.92735 0
M  V30 2907 O 272.824 -1.1692 1.55435 0
M  V30 2908 C 273.107 2.04244 2.96574 0
M  V30 2909 C 272.96 3.56793 2.73896 0
M  V30 2910 C 274.279 1.88684 3.97601 0
M  V30 2911 H 271.398 0.439001 0.591985 0
M  V30 2912 H 274.04 1.60704 1.01361 0
M  V30 2913 H 272.19 1.70063 3.493 0
M  V30 2914 H 273.862 4.01077 2.27892 0
M  V30 2915 H 272.105 3.80548 2.08245 0
M  V30 2916 H 272.776 4.10706 3.68815 0
M  V30 2917 H 275.252 2.18584 3.54062 0
M  V30 2918 H 274.128 2.4961 4.88862 0
M  V30 2919 H 274.389 0.848343 4.33884 0
M  V30 2920 N 273.449 -1.08991 1.13837 0
M  V30 2921 C 274.86 -1.62746 0.914917 0
M  V30 2922 C 275.211 -1.88403 -0.547594 0
M  V30 2923 O 274.336 -1.63706 -1.41525 0
M  V30 2924 C 274.931 -2.95662 1.65437 0
M  V30 2925 C 273.49 -3.46225 1.47666 0
M  V30 2926 C 272.637 -2.20562 1.6807 0
M  V30 2927 H 275.588 -0.922946 1.29102 0
M  V30 2928 H 275.609 -3.63825 1.11407 0
M  V30 2929 H 275.121 -2.76956 2.71877 0
M  V30 2930 H 273.222 -3.70046 0.435478 0
M  V30 2931 H 273.335 -4.23368 2.24268 0
M  V30 2932 H 271.699 -2.29439 1.10589 0
M  V30 2933 H 272.482 -2.0437 2.7584 0
M  V30 2934 N 274.927 -0.932562 -1.27047 0
M  V30 2935 C 275.89 -0.440064 -2.24936 0
M  V30 2936 C 276.89 0.444071 -1.54547 0
M  V30 2937 O 278.08 0.244465 -1.72476 0
M  V30 2938 C 275.212 0.36678 -3.38921 0
M  V30 2939 H 276.405 -1.305 -2.70018 0
M  V30 2940 H 273.958 -0.713707 -1.39054 0
M  V30 2941 H 274.693 1.25033 -2.99228 0
M  V30 2942 H 274.478 -0.267204 -3.91188 0
M  V30 2943 H 275.968 0.701567 -4.11665 0
M  V30 2944 N 276.405 1.4127 -0.698611 0
M  V30 2945 C 277.368 2.29158 -0.044132 0
M  V30 2946 C 278.368 1.44529 0.704841 0
M  V30 2947 O 279.558 1.65643 0.539276 0
M  V30 2948 C 276.69 3.27459 0.947809 0
M  V30 2949 H 277.883 2.88529 -0.817994 0
M  V30 2950 H 275.436 1.49307 -0.46228 0
M  V30 2951 H 276.171 2.73073 1.74933 0
M  V30 2952 H 275.956 3.8991 0.41385 0
M  V30 2953 H 277.446 3.93311 1.40344 0
M  V30 2954 N 277.883 0.443576 1.51229 0
M  V30 2955 C 279.129 -0.120975 2.02439 0
M  V30 2956 C 279.462 -1.41815 1.32674 0
M  V30 2957 O 278.737 -1.89373 0.443622 0
M  V30 2958 C 279.02 -0.333291 3.58554 0
M  V30 2959 C 278.873 0.982968 4.38928 0
M  V30 2960 C 280.192 -1.10028 4.26124 0
M  V30 2961 H 277.311 -0.0424923 0.735774 0
M  V30 2962 H 279.953 0.583794 1.80809 0
M  V30 2963 H 278.103 -0.933614 3.77115 0
M  V30 2964 H 279.775 1.61775 4.32003 0
M  V30 2965 H 278.018 1.58611 4.03763 0
M  V30 2966 H 278.689 0.788379 5.46341 0
M  V30 2967 H 281.165 -0.591711 4.11871 0
M  V30 2968 H 280.041 -1.21761 5.35225 0
M  V30 2969 H 280.302 -2.12996 3.87408 0
M  V30 2970 N 279.361 -1.56624 0.175154 0
M  V30 2971 C 280.591 -2.01082 -0.474283 0
M  V30 2972 C 280.999 -1.05447 -1.57091 0
M  V30 2973 O 280.342 -0.0480595 -1.83637 0
M  V30 2974 C 280.404 -3.41963 -1.10911 0
M  V30 2975 C 280.068 -4.56742 -0.153666 0
M  V30 2976 C 281.065 -5.16076 0.629448 0
M  V30 2977 C 278.75 -5.02277 -0.0483776 0
M  V30 2978 C 280.744 -6.19377 1.50501 0
M  V30 2979 C 278.431 -6.05427 0.830768 0
M  V30 2980 C 279.429 -6.63849 1.60605 0
M  V30 2981 O 279.117 -7.64998 2.47049 0
M  V30 2982 H 278.849 -0.664261 -0.125432 0
M  V30 2983 H 281.403 -2.03549 0.275163 0
M  V30 2984 H 279.633 -3.36422 -1.90676 0
M  V30 2985 H 281.322 -3.70352 -1.66114 0
M  V30 2986 H 282.088 -4.81776 0.558297 0
M  V30 2987 H 277.967 -4.56513 -0.641611 0
M  V30 2988 H 281.511 -6.64906 2.1106 0
M  V30 2989 H 277.408 -6.39151 0.903107 0
M  V30 2990 H 278.176 -7.82336 2.40607 0
M  V30 2991 N 280.839 0.0985539 -1.57292 0
M  V30 2992 C 282.255 0.45267 -1.53046 0
M  V30 2993 C 282.455 1.80713 -0.891342 0
M  V30 2994 O 281.511 2.4785 -0.482375 0
M  V30 2995 C 282.824 0.418341 -2.97776 0
M  V30 2996 C 284.372 0.500443 -3.08973 0
M  V30 2997 C 284.847 0.496297 -4.55303 0
M  V30 2998 N 286.338 0.557151 -4.59837 0
M  V30 2999 C 287.073 0.575726 -5.70502 0
M  V30 3000 N 286.569 0.550714 -6.90608 0
M  V30 3001 N 288.362 0.620277 -5.58667 0
M  V30 3002 H 280.513 -0.788673 -1.97215 0
M  V30 3003 H 282.776 -0.293188 -0.901524 0
M  V30 3004 H 282.482 -0.509659 -3.47988 0
M  V30 3005 H 282.356 1.2386 -3.56284 0
M  V30 3006 H 284.743 1.41886 -2.58751 0
M  V30 3007 H 284.824 -0.347894 -2.53423 0
M  V30 3008 H 284.468 -0.418162 -5.06176 0
M  V30 3009 H 284.398 1.3618 -5.08687 0
M  V30 3010 H 286.889 0.581816 -3.73394 0
M  V30 3011 H 287.202 0.568075 -7.70709 0
M  V30 3012 H 285.547 0.517816 -6.93068 0
M  V30 3013 H 288.738 0.637322 -4.63741 0
M  V30 3014 H 288.911 0.631283 -6.44918 0
M  V30 3015 N 282.317 1.53212 0.369288 0
M  V30 3016 C 283.267 1.75769 1.45222 0
M  V30 3017 C 284.251 0.612136 1.48801 0
M  V30 3018 O 285.443 0.870674 1.54105 0
M  V30 3019 C 282.572 1.94769 2.82701 0
M  V30 3020 C 281.658 3.15315 2.83615 0
M  V30 3021 N 282.049 4.37295 2.54178 0
M  V30 3022 C 280.347 3.15962 3.14776 0
M  V30 3023 C 281.048 5.19015 2.62675 0
M  V30 3024 N 280.024 4.55142 2.97232 0
M  V30 3025 H 283.826 2.67691 1.2132 0
M  V30 3026 H 281.34 1.51787 0.577438 0
M  V30 3027 H 283.337 2.09056 3.60696 0
M  V30 3028 H 281.997 1.04073 3.07569 0
M  V30 3029 H 283.008 4.65091 2.27839 0
M  V30 3030 H 279.685 2.35144 3.44983 0
M  V30 3031 H 281.075 6.26305 2.43294 0
M  V30 3032 N 283.795 -0.628877 1.44509 0
M  V30 3033 C 284.725 -1.75187 1.54376 0
M  V30 3034 C 285.706 -1.65411 0.396618 0
M  V30 3035 O 286.891 -1.84137 0.617031 0
M  V30 3036 C 284.021 -3.13725 1.48976 0
M  V30 3037 C 282.975 -3.38291 2.62189 0
M  V30 3038 C 282.301 -4.76883 2.41841 0
M  V30 3039 C 283.601 -3.30632 4.04326 0
M  V30 3040 H 285.295 -1.67187 2.48373 0
M  V30 3041 H 282.841 -0.802909 1.19538 0
M  V30 3042 H 284.794 -3.92064 1.54478 0
M  V30 3043 H 283.518 -3.22515 0.514961 0
M  V30 3044 H 282.177 -2.62334 2.56079 0
M  V30 3045 H 281.825 -4.82378 1.42548 0
M  V30 3046 H 281.525 -4.94278 3.17747 0
M  V30 3047 H 283.049 -5.57449 2.49165 0
M  V30 3048 H 284.463 -3.98873 4.11793 0
M  V30 3049 H 282.86 -3.59561 4.80454 0
M  V30 3050 H 283.93 -2.28404 4.27738 0
M  V30 3051 N 285.273 -1.31445 -0.869486 0
M  V30 3052 C 286.519 -1.22347 -1.62489 0
M  V30 3053 C 286.874 0.216204 -1.91181 0
M  V30 3054 O 286.167 1.14977 -1.53268 0
M  V30 3055 C 286.361 -2.00145 -2.96102 0
M  V30 3056 C 286.19 -3.51531 -2.80456 0
M  V30 3057 C 284.96 -4.20882 -2.79618 0
M  V30 3058 C 287.158 -4.46471 -2.5528 0
M  V30 3059 N 285.14 -5.58421 -2.55027 0
M  V30 3060 C 286.511 -5.71682 -2.39957 0
M  V30 3061 C 288.566 -4.35892 -2.40629 0
M  V30 3062 C 287.269 -6.87511 -2.11472 0
M  V30 3063 C 289.295 -5.51505 -2.13532 0
M  V30 3064 C 288.657 -6.75707 -1.98998 0
M  V30 3065 H 284.756 -0.502815 -0.598917 0
M  V30 3066 H 287.34 -1.65639 -1.02332 0
M  V30 3067 H 285.511 -1.59221 -3.54264 0
M  V30 3068 H 287.243 -1.83063 -3.60929 0
M  V30 3069 H 283.998 -3.72857 -2.92018 0
M  V30 3070 H 284.422 -6.30841 -2.45701 0
M  V30 3071 H 289.064 -3.40533 -2.50593 0
M  V30 3072 H 286.782 -7.82897 -2.00245 0
M  V30 3073 H 290.368 -5.45238 -2.02995 0
M  V30 3074 H 289.248 -7.63655 -1.78326 0
M  V30 3075 N 286.751 1.08385 -1.14413 0
M  V30 3076 C 288.167 1.32844 -0.884563 0
M  V30 3077 C 288.367 1.95841 0.474181 0
M  V30 3078 O 287.423 2.21158 1.21842 0
M  V30 3079 C 288.736 2.22978 -2.01745 0
M  V30 3080 C 290.284 2.36458 -2.05077 0
M  V30 3081 C 290.759 3.29934 -3.1766 0
M  V30 3082 N 292.25 3.37511 -3.17239 0
M  V30 3083 C 292.985 4.09871 -4.0099 0
M  V30 3084 N 292.481 4.84936 -4.94781 0
M  V30 3085 N 294.274 4.05704 -3.89051 0
M  V30 3086 H 286.425 0.658756 -2.01926 0
M  V30 3087 H 288.688 0.352821 -0.879899 0
M  V30 3088 H 288.394 1.83934 -2.99769 0
M  V30 3089 H 288.268 3.23441 -1.94077 0
M  V30 3090 H 290.655 2.7476 -1.0766 0
M  V30 3091 H 290.736 1.35736 -2.16816 0
M  V30 3092 H 290.38 2.92352 -4.15322 0
M  V30 3093 H 290.31 4.30584 -3.03158 0
M  V30 3094 H 292.801 2.83996 -2.49308 0
M  V30 3095 H 293.114 5.37612 -5.55151 0
M  V30 3096 H 291.459 4.83988 -4.98779 0
M  V30 3097 H 294.65 3.46167 -3.15097 0
M  V30 3098 H 294.823 4.61834 -4.54547 0
M  V30 3099 N 288.23 0.939286 1.26551 0
M  V30 3100 C 289.507 0.5038 1.89001 0
M  V30 3101 C 289.887 -1.01854 1.84903 0
M  V30 3102 O 289.235 -1.87773 1.30206 0
M  V30 3103 C 289.445 1.063 3.32417 0
M  V30 3104 C 290.793 1.13051 4.09273 0
M  V30 3105 O 291.817 1.01345 3.41479 0
M  V30 3106 O 290.676 1.31233 5.30509 0
M  V30 3107 H 287.77 0.163897 0.810597 0
M  V30 3108 H 290.316 1.03173 1.34735 0
M  V30 3109 H 289.088 2.10665 3.29752 0
M  V30 3110 H 288.711 0.517408 3.94219 0
M  V30 3111 N 289.708 -1.40897 0.706093 0
M  V30 3112 C 291.124 -1.55042 0.37869 0
M  V30 3113 C 291.324 -1.67944 -1.11342 0
M  V30 3114 O 290.38 -1.66372 -1.89938 0
M  V30 3115 C 291.693 -2.78398 1.13643 0
M  V30 3116 C 293.241 -2.92206 1.12181 0
M  V30 3117 C 293.716 -4.18463 1.86152 0
M  V30 3118 N 295.207 -4.25443 1.83173 0
M  V30 3119 C 295.942 -5.2202 2.37239 0
M  V30 3120 N 295.438 -6.24563 2.99821 0
M  V30 3121 N 297.231 -5.14033 2.27435 0
M  V30 3122 H 289.382 -1.30769 1.67372 0
M  V30 3123 H 291.645 -0.631653 0.706907 0
M  V30 3124 H 291.351 -2.7511 2.19106 0
M  V30 3125 H 291.225 -3.70228 0.721853 0
M  V30 3126 H 293.612 -2.95004 0.0754171 0
M  V30 3127 H 293.693 -2.01521 1.57554 0
M  V30 3128 H 293.337 -4.16427 2.90776 0
M  V30 3129 H 293.267 -5.08141 1.38206 0
M  V30 3130 H 295.758 -3.51976 1.37556 0
M  V30 3131 H 296.071 -6.94665 3.38616 0
M  V30 3132 H 294.416 -6.25035 3.03902 0
M  V30 3133 H 297.607 -4.3285 1.78208 0
M  V30 3134 H 297.78 -5.89129 2.69873 0
M  V30 3135 N 291.186 -0.45159 -1.50991 0
M  V30 3136 C 292.432 0.110237 -2.025 0
M  V30 3137 C 292.765 1.41109 -1.33424 0
M  V30 3138 O 292.04 1.89135 -0.453659 0
M  V30 3139 C 292.323 0.314271 -3.58726 0
M  V30 3140 C 292.176 -1.00623 -4.38401 0
M  V30 3141 C 293.495 1.07767 -4.26702 0
M  V30 3142 H 290.614 0.0385897 -0.735989 0
M  V30 3143 H 293.256 -0.593374 -1.80497 0
M  V30 3144 H 291.406 0.913601 -3.77605 0
M  V30 3145 H 293.078 -1.64064 -4.31139 0
M  V30 3146 H 291.321 -1.6075 -4.02917 0
M  V30 3147 H 291.992 -0.817341 -5.45915 0
M  V30 3148 H 294.468 0.56986 -4.12179 0
M  V30 3149 H 293.344 1.18921 -5.35863 0
M  V30 3150 H 293.605 2.10939 -3.88532 0
M  V30 3151 N 292.664 1.56529 -0.183458 0
M  V30 3152 C 293.904 1.99141 0.460667 0
M  V30 3153 C 294.268 1.06736 1.59597 0
M  V30 3154 O 295.469 1.38538 2.30349 0
M  V30 3155 C 293.74 3.45358 0.919939 0
M  V30 3156 S 295.299 4.09999 1.56354 0
M  V30 3157 H 292.117 0.695479 0.147748 0
M  V30 3158 H 294.719 1.93429 -0.283782 0
M  V30 3159 H 293.423 4.10315 0.0834208 0
M  V30 3160 H 292.954 3.54862 1.69814 0
M  V30 3161 H 294.969 4.06046 2.85203 0
M  V30 3162 N 294.142 -0.090211 1.57342 0
M  V30 3163 C 295.074 -1.13541 1.99101 0
M  V30 3164 C 296.087 -1.3604 0.894258 0
M  V30 3165 O 297.276 -1.34606 1.17233 0
M  V30 3166 C 294.376 -2.49001 2.29895 0
M  V30 3167 C 293.549 -2.46712 3.61182 0
M  V30 3168 C 292.608 -3.64136 3.79857 0
M  V30 3169 O 291.634 -3.46405 4.51655 0
M  V30 3170 N 292.836 -4.83802 3.20806 0
M  V30 3171 H 295.601 -0.779942 2.89373 0
M  V30 3172 H 293.162 -0.279125 1.59476 0
M  V30 3173 H 295.154 -3.26166 2.39578 0
M  V30 3174 H 293.724 -2.76619 1.45605 0
M  V30 3175 H 292.944 -1.55058 3.62423 0
M  V30 3176 H 294.232 -2.42265 4.4742 0
M  V30 3177 H 293.63 -5.01112 2.62494 0
M  V30 3178 H 292.187 -5.58543 3.35966 0
M  V30 3179 N 295.62 -1.53406 -0.361157 0
M  V30 3180 C 296.55 -1.83136 -1.44857 0
M  V30 3181 C 297.531 -0.685174 -1.5569 0
M  V30 3182 O 298.716 -0.93544 -1.70186 0
M  V30 3183 C 295.846 -2.02522 -2.82138 0
M  V30 3184 C 294.8 -3.18302 -2.86126 0
M  V30 3185 C 294.126 -3.22989 -4.26125 0
M  V30 3186 C 295.426 -4.56796 -2.53248 0
M  V30 3187 H 297.12 -2.74201 -1.20226 0
M  V30 3188 H 294.666 -1.31938 -0.576922 0
M  V30 3189 H 296.619 -2.21904 -3.58241 0
M  V30 3190 H 295.343 -1.08172 -3.08166 0
M  V30 3191 H 294.002 -2.98747 -2.12475 0
M  V30 3192 H 293.65 -2.26267 -4.49235 0
M  V30 3193 H 293.35 -4.00781 -4.29708 0
M  V30 3194 H 294.874 -3.44559 -5.04094 0
M  V30 3195 H 296.288 -4.7631 -3.19064 0
M  V30 3196 H 294.685 -5.36862 -2.68141 0
M  V30 3197 H 295.755 -4.61606 -1.48484 0
M  V30 3198 N 297.098 0.621204 -1.44841 0
M  V30 3199 C 298.338 1.39201 -1.49674 0
M  V30 3200 C 298.702 1.91561 -0.129764 0
M  V30 3201 O 299.903 2.68748 -0.0527814 0
M  V30 3202 C 298.174 2.519 -2.53537 0
M  V30 3203 S 299.733 3.39916 -2.77494 0
M  V30 3204 H 296.551 0.474758 -0.529269 0
M  V30 3205 H 299.153 0.718171 -1.81831 0
M  V30 3206 H 297.857 2.11761 -3.51547 0
M  V30 3207 H 297.388 3.241 -2.22986 0
M  V30 3208 H 299.403 4.49646 -2.0984 0
M  V30 3209 N 298.576 1.31904 0.862503 0
M  V30 3210 C 299.526 1.16772 1.95827 0
M  V30 3211 C 300.51 0.0767098 1.60717 0
M  V30 3212 O 301.702 0.302407 1.74398 0
M  V30 3213 C 298.831 0.884858 3.317 0
M  V30 3214 C 297.917 2.0172 3.73055 0
M  V30 3215 N 298.308 3.265 3.86305 0
M  V30 3216 C 296.606 1.91861 4.02623 0
M  V30 3217 C 297.307 4.00616 4.2176 0
M  V30 3218 N 296.283 3.28847 4.32852 0
M  V30 3219 H 300.085 2.11382 2.04193 0
M  V30 3220 H 297.599 1.2357 1.05377 0
M  V30 3221 H 299.596 0.757419 4.09962 0
M  V30 3222 H 298.256 -0.0529448 3.24657 0
M  V30 3223 H 299.267 3.61529 3.70833 0
M  V30 3224 H 295.944 1.05593 4.03926 0
M  V30 3225 H 297.334 5.08182 4.39546 0
M  V30 3226 N 300.054 -1.07777 1.14986 0
M  V30 3227 C 301.465 -1.61766 0.932127 0
M  V30 3228 C 301.816 -1.88974 -0.527581 0
M  V30 3229 O 300.941 -1.65198 -1.39781 0
M  V30 3230 C 301.536 -2.93891 1.68563 0
M  V30 3231 C 300.095 -3.44639 1.5133 0
M  V30 3232 C 299.242 -2.18767 1.704 0
M  V30 3233 H 302.193 -0.909201 1.30074 0
M  V30 3234 H 302.214 -3.62623 1.15259 0
M  V30 3235 H 301.726 -2.74057 2.74799 0
M  V30 3236 H 299.827 -3.69564 0.474702 0
M  V30 3237 H 299.94 -4.20966 2.28746 0
M  V30 3238 H 298.304 -2.28253 1.13016 0
M  V30 3239 H 299.087 -2.01433 2.77992 0
M  V30 3240 N 301.532 -0.945985 -1.26051 0
M  V30 3241 C 302.757 -0.612525 -1.98149 0
M  V30 3242 C 303.182 0.806623 -1.69927 0
M  V30 3243 O 302.54 1.54411 -0.950108 0
M  V30 3244 C 302.588 -0.866981 -3.50023 0
M  V30 3245 O 301.692 0.0585333 -4.12358 0
M  V30 3246 H 301.033 -0.23379 -0.621481 0
M  V30 3247 H 303.563 -1.27023 -1.60395 0
M  V30 3248 H 303.573 -0.789792 -4.00283 0
M  V30 3249 H 302.248 -1.90135 -3.69894 0
M  V30 3250 H 300.825 -0.0701241 -3.72834 0
M  V30 3251 N 303.011 1.40521 -0.713556 0
M  V30 3252 C 304.422 1.83853 -0.324807 0
M  V30 3253 C 304.773 1.59667 1.14021 0
M  V30 3254 O 303.898 1.07649 1.87725 0
M  V30 3255 C 304.493 3.33751 -0.582746 0
M  V30 3256 C 303.052 3.75584 -0.247727 0
M  V30 3257 C 302.199 2.63753 -0.856121 0
M  V30 3258 H 305.15 1.29817 -0.91286 0
M  V30 3259 H 305.171 3.80194 0.152682 0
M  V30 3260 H 304.683 3.51322 -1.64908 0
M  V30 3261 H 302.784 3.63608 0.813624 0
M  V30 3262 H 302.897 4.7373 -0.715307 0
M  V30 3263 H 301.261 2.53108 -0.28432 0
M  V30 3264 H 302.044 2.84137 -1.92668 0
M  V30 3265 N 304.489 0.459591 1.5075 0
M  V30 3266 C 305.735 -0.0994966 2.02556 0
M  V30 3267 C 306.068 -1.40399 1.3417 0
M  V30 3268 O 305.343 -1.88892 0.463683 0
M  V30 3269 C 305.626 -0.295242 3.58888 0
M  V30 3270 C 305.479 1.02947 4.37861 0
M  V30 3271 C 306.798 -1.05502 4.27267 0
M  V30 3272 H 303.917 -0.034686 0.736183 0
M  V30 3273 H 306.559 0.602938 1.8018 0
M  V30 3274 H 304.709 -0.893563 3.78084 0
M  V30 3275 H 306.381 1.66348 4.30263 0
M  V30 3276 H 304.624 1.62885 4.02058 0
M  V30 3277 H 305.295 0.846281 5.45474 0
M  V30 3278 H 307.771 -0.547993 4.12476 0
M  V30 3279 H 306.647 -1.16077 5.36486 0
M  V30 3280 H 306.908 -2.08875 3.89645 0
M  V30 3281 N 305.967 -1.56429 0.191757 0
M  V30 3282 C 306.917 -2.15548 -0.743184 0
M  V30 3283 C 307.901 -1.09531 -1.17863 0
M  V30 3284 O 309.093 -1.35602 -1.13759 0
M  V30 3285 C 306.222 -2.81577 -1.96391 0
M  V30 3286 C 305.308 -3.9478 -1.54951 0
M  V30 3287 N 305.699 -4.98677 -0.845876 0
M  V30 3288 C 303.997 -4.06319 -1.83905 0
M  V30 3289 C 304.698 -5.78183 -0.638724 0
M  V30 3290 N 303.674 -5.30495 -1.18643 0
M  V30 3291 H 307.476 -2.9324 -0.196839 0
M  V30 3292 H 304.99 -1.62398 -0.0081603 0
M  V30 3293 H 306.987 -3.22321 -2.64415 0
M  V30 3294 H 305.647 -2.05371 -2.51501 0
M  V30 3295 H 306.658 -5.15464 -0.501704 0
M  V30 3296 H 303.335 -3.41238 -2.40548 0
M  V30 3297 H 304.725 -6.71851 -0.0807929 0
M  V30 3298 N 307.445 0.0818655 -1.57387 0
M  V30 3299 C 308.408 1.08265 -2.02018 0
M  V30 3300 C 309.408 1.32183 -0.915664 0
M  V30 3301 O 310.598 1.28073 -1.18081 0
M  V30 3302 C 307.73 2.42871 -2.39221 0
M  V30 3303 H 308.923 0.698204 -2.91659 0
M  V30 3304 H 306.476 0.327303 -1.52835 0
M  V30 3305 H 307.211 2.86167 -1.52575 0
M  V30 3306 H 306.996 2.26855 -3.19811 0
M  V30 3307 H 308.486 3.14826 -2.74362 0
M  V30 3308 N 308.923 1.53595 0.353017 0
M  V30 3309 C 309.886 1.80232 1.41594 0
M  V30 3310 C 310.886 0.673081 1.46035 0
M  V30 3311 O 312.076 0.941335 1.46576 0
M  V30 3312 C 309.208 1.93578 2.80607 0
M  V30 3313 H 310.401 2.75174 1.19244 0
M  V30 3314 H 307.954 1.44864 0.586872 0
M  V30 3315 H 308.689 1.00746 3.08254 0
M  V30 3316 H 308.474 2.75724 2.78781 0
M  V30 3317 H 309.964 2.15735 3.57558 0
M  V30 3318 N 310.401 -0.613514 1.45168 0
M  V30 3319 C 311.364 -1.7065 1.53007 0
M  V30 3320 C 312.364 -1.5548 0.410184 0
M  V30 3321 O 313.554 -1.60656 0.673455 0
M  V30 3322 C 310.686 -3.09875 1.42093 0
M  V30 3323 H 311.879 -1.65068 2.50385 0
M  V30 3324 H 309.432 -0.828728 1.32521 0
M  V30 3325 H 310.167 -3.21039 0.458769 0
M  V30 3326 H 309.952 -3.22293 2.23315 0
M  V30 3327 H 311.442 -3.895 1.50598 0
M  V30 3328 N 311.879 -1.3236 -0.855495 0
M  V30 3329 C 312.829 -1.17809 -1.95205 0
M  V30 3330 C 313.813 -0.0852319 -1.60674 0
M  V30 3331 O 315.005 -0.311651 -1.74235 0
M  V30 3332 C 312.134 -0.902437 -3.31226 0
M  V30 3333 C 311.22 -2.03695 -3.7198 0
M  V30 3334 N 311.611 -3.28544 -3.84568 0
M  V30 3335 C 309.909 -1.93993 -4.016 0
M  V30 3336 C 310.61 -4.02847 -4.19629 0
M  V30 3337 N 309.586 -3.31138 -4.31102 0
M  V30 3338 H 313.388 -2.12462 -2.0307 0
M  V30 3339 H 310.902 -1.24127 -1.0472 0
M  V30 3340 H 312.899 -0.77915 -4.09554 0
M  V30 3341 H 311.559 0.0357267 -3.2468 0
M  V30 3342 H 312.57 -3.6349 -3.68911 0
M  V30 3343 H 309.247 -1.07733 -4.03361 0
M  V30 3344 H 310.637 -5.10506 -4.36845 0
M  V30 3345 N 313.357 1.07166 -1.15556 0
M  V30 3346 C 314.287 2.16403 -0.877046 0
M  V30 3347 C 315.268 1.69217 0.173111 0
M  V30 3348 O 316.453 1.94181 0.027084 0
M  V30 3349 C 313.583 3.45349 -0.367632 0
M  V30 3350 C 312.537 4.05995 -1.35468 0
M  V30 3351 C 311.863 5.30045 -0.704038 0
M  V30 3352 C 313.163 4.45804 -2.72132 0
M  V30 3353 H 314.857 2.39959 -1.79053 0
M  V30 3354 H 312.403 1.15325 -0.862331 0
M  V30 3355 H 314.356 4.21095 -0.160317 0
M  V30 3356 H 313.08 3.21385 0.581326 0
M  V30 3357 H 311.739 3.32296 -1.54839 0
M  V30 3358 H 311.387 5.02373 0.251128 0
M  V30 3359 H 311.087 5.71579 -1.36277 0
M  V30 3360 H 312.611 6.08495 -0.50654 0
M  V30 3361 H 314.025 5.12671 -2.56595 0
M  V30 3362 H 312.422 4.98296 -3.34397 0
M  V30 3363 H 313.492 3.57083 -3.28054 0
M  V30 3364 N 314.835 0.952656 1.25548 0
M  V30 3365 C 316.06 0.623025 1.97821 0
M  V30 3366 C 316.485 -0.7976 1.70352 0
M  V30 3367 O 315.843 -1.53905 0.958283 0
M  V30 3368 C 315.891 0.885532 3.49558 0
M  V30 3369 O 314.995 -0.0366641 4.12384 0
M  V30 3370 H 314.336 0.237082 0.620232 0
M  V30 3371 H 316.866 1.27871 1.59719 0
M  V30 3372 H 316.876 0.811009 3.99858 0
M  V30 3373 H 315.551 1.92094 3.6888 0
M  V30 3374 H 314.128 0.0898954 3.72792 0
M  V30 3375 N 316.313 -1.40141 0.720998 0
M  V30 3376 C 317.243 -2.33339 0.0867621 0
M  V30 3377 C 318.224 -1.53178 -0.739622 0
M  V30 3378 O 319.409 -1.81625 -0.687449 0
M  V30 3379 C 316.539 -3.37194 -0.831728 0
M  V30 3380 C 315.493 -4.27857 -0.110558 0
M  V30 3381 C 314.819 -5.22294 -1.14513 0
M  V30 3382 C 316.119 -5.11872 1.0385 0
M  V30 3383 H 317.813 -2.86626 0.865219 0
M  V30 3384 H 315.359 -1.37814 0.417516 0
M  V30 3385 H 317.312 -4.01335 -1.28485 0
M  V30 3386 H 316.036 -2.82314 -1.64214 0
M  V30 3387 H 314.695 -3.65176 0.322797 0
M  V30 3388 H 314.343 -4.63717 -1.94874 0
M  V30 3389 H 314.043 -5.83797 -0.667446 0
M  V30 3390 H 315.567 -5.89312 -1.59824 0
M  V30 3391 H 316.981 -5.69436 0.664482 0
M  V30 3392 H 315.378 -5.82445 1.4449 0
M  V30 3393 H 316.448 -4.4753 1.86668 0
M  V30 3394 N 317.792 -0.46758 -1.50504 0
M  V30 3395 C 318.702 0.33382 -2.32213 0
M  V30 3396 C 319.718 0.999323 -1.42441 0
M  V30 3397 O 320.894 0.988068 -1.75497 0
M  V30 3398 C 317.959 1.4035 -3.17022 0
M  V30 3399 C 317.02 0.754961 -4.2261 0
M  V30 3400 C 316.253 1.77367 -5.03365 0
M  V30 3401 O 316.476 2.99976 -4.8515 0
M  V30 3402 O 315.41 1.34744 -5.86624 0
M  V30 3403 H 319.236 -0.334067 -3.01857 0
M  V30 3404 H 316.821 -0.229496 -1.47627 0
M  V30 3405 H 318.703 2.02318 -3.69656 0
M  V30 3406 H 317.378 2.05492 -2.5011 0
M  V30 3407 H 316.285 0.0964244 -3.73976 0
M  V30 3408 H 317.618 0.146545 -4.91982 0
M  V30 3409 N 319.27 1.56325 -0.20005 0
M  V30 3410 C 320.498 2.02105 0.442874 0
M  V30 3411 C 320.913 1.08014 1.5485 0
M  V30 3412 O 320.27 0.0858797 1.82298 0
M  V30 3413 C 320.321 3.47549 0.994583 0
M  V30 3414 O 320.042 4.38049 -0.0669322 0
M  V30 3415 C 321.543 4.0887 1.7129 0
M  V30 3416 H 318.763 0.661807 0.110691 0
M  V30 3417 H 321.307 2.02134 -0.310207 0
M  V30 3418 H 319.462 3.48204 1.69803 0
M  V30 3419 H 319.876 5.23368 0.344462 0
M  V30 3420 H 321.35 5.12475 2.05118 0
M  V30 3421 H 321.827 3.52615 2.61838 0
M  V30 3422 H 322.433 4.12002 1.05518 0
M  V30 3423 N 320.748 -0.0735177 1.57428 0
M  V30 3424 C 321.678 -1.0879 2.06608 0
M  V30 3425 C 322.659 -1.40473 0.959237 0
M  V30 3426 O 323.844 -1.5013 1.23185 0
M  V30 3427 C 320.974 -2.40183 2.50857 0
M  V30 3428 C 319.928 -2.22858 3.65402 0
M  V30 3429 C 319.254 -3.59619 3.957 0
M  V30 3430 C 320.554 -1.65123 4.95511 0
M  V30 3431 H 322.248 -0.678673 2.91607 0
M  V30 3432 H 319.794 -0.325013 1.40284 0
M  V30 3433 H 321.747 -3.11437 2.83874 0
M  V30 3434 H 320.471 -2.83083 1.62885 0
M  V30 3435 H 319.13 -1.54045 3.32664 0
M  V30 3436 H 318.778 -4.00086 3.04861 0
M  V30 3437 H 318.478 -3.48866 4.72828 0
M  V30 3438 H 320.002 -4.32306 4.31212 0
M  V30 3439 H 321.416 -2.26241 5.26771 0
M  V30 3440 H 319.813 -1.65071 5.7695 0
M  V30 3441 H 320.883 -0.612559 4.81015 0
M  V30 3442 N 322.226 -1.5378 -0.344866 0
M  V30 3443 C 323.454 -1.74899 -1.10534 0
M  V30 3444 C 323.869 -0.487534 -1.82397 0
M  V30 3445 O 323.226 0.540741 -1.74305 0
M  V30 3446 C 323.277 -2.92822 -2.11984 0
M  V30 3447 O 322.998 -4.14089 -1.43044 0
M  V30 3448 C 324.499 -3.25982 -3.00417 0
M  V30 3449 H 321.719 -0.584426 -0.329678 0
M  V30 3450 H 324.263 -2.006 -0.397474 0
M  V30 3451 H 322.418 -2.69457 -2.78338 0
M  V30 3452 H 322.832 -4.80272 -2.10805 0
M  V30 3453 H 324.306 -4.11848 -3.67539 0
M  V30 3454 H 324.783 -2.42228 -3.66363 0
M  V30 3455 H 325.389 -3.51349 -2.39654 0
M  V30 3456 N 323.704 0.605807 -1.45491 0
M  V30 3457 C 324.667 1.69836 -1.5391 0
M  V30 3458 C 325.667 1.55261 -0.418424 0
M  V30 3459 O 326.857 1.60296 -0.681965 0
M  V30 3460 C 323.989 3.09117 -1.43734 0
M  V30 3461 H 325.182 1.63738 -2.51257 0
M  V30 3462 H 322.735 0.821689 -1.32959 0
M  V30 3463 H 323.47 3.20791 -0.475788 0
M  V30 3464 H 323.255 3.21104 -2.25021 0
M  V30 3465 H 324.745 3.88696 -1.52661 0
M  V30 3466 N 325.182 1.32811 0.848464 0
M  V30 3467 C 326.429 1.23724 1.60308 0
M  V30 3468 C 326.757 -0.1994 1.93475 0
M  V30 3469 O 326.012 -1.15406 1.5805 0
M  V30 3470 C 326.311 2.04831 2.92881 0
M  V30 3471 C 325.977 3.54125 2.79117 0
M  V30 3472 C 324.639 3.94829 2.7507 0
M  V30 3473 C 326.991 4.49036 2.64606 0
M  V30 3474 C 324.319 5.28675 2.544 0
M  V30 3475 C 326.671 5.83033 2.4547 0
M  V30 3476 C 325.335 6.22931 2.39819 0
M  V30 3477 H 324.605 0.452737 0.586609 0
M  V30 3478 H 327.252 1.64301 0.983743 0
M  V30 3479 H 325.557 1.57001 3.58968 0
M  V30 3480 H 327.254 1.95164 3.50303 0
M  V30 3481 H 323.844 3.21801 2.83094 0
M  V30 3482 H 328.028 4.18505 2.66772 0
M  V30 3483 H 323.284 5.58637 2.48465 0
M  V30 3484 H 327.458 6.56186 2.33222 0
M  V30 3485 H 325.085 7.26584 2.23562 0
M  V30 3486 N 326.66 -1.06551 1.16123 0
M  V30 3487 C 327.906 -1.79567 0.94252 0
M  V30 3488 C 328.239 -1.86869 -0.528547 0
M  V30 3489 O 327.514 -1.35838 -1.39206 0
M  V30 3490 C 327.797 -3.24195 1.56747 0
M  V30 3491 C 327.65 -3.24989 3.10969 0
M  V30 3492 C 328.969 -4.21678 1.25998 0
M  V30 3493 H 326.088 -0.651883 0.343828 0
M  V30 3494 H 328.73 -1.2463 1.43413 0
M  V30 3495 H 326.88 -3.71107 1.14942 0
M  V30 3496 H 328.552 -2.86258 3.61737 0
M  V30 3497 H 326.795 -2.63716 3.44436 0
M  V30 3498 H 327.466 -4.27005 3.49815 0
M  V30 3499 H 329.942 -3.83196 1.62174 0
M  V30 3500 H 328.818 -5.21146 1.7233 0
M  V30 3501 H 329.079 -4.4174 0.178367 0
M  V30 3502 N 328.138 -0.959301 -1.25041 0
M  V30 3503 C 329.068 -0.501388 -2.28053 0
M  V30 3504 C 330.049 0.454673 -1.63911 0
M  V30 3505 O 331.234 0.352618 -1.90972 0
M  V30 3506 C 328.364 0.217224 -3.4662 0
M  V30 3507 C 327.318 -0.654034 -4.22973 0
M  V30 3508 C 326.644 0.195589 -5.34342 0
M  V30 3509 C 327.944 -1.93447 -4.85155 0
M  V30 3510 H 329.638 -1.36238 -2.66608 0
M  V30 3511 H 327.184 -0.656534 -1.28163 0
M  V30 3512 H 329.137 0.548732 -4.17812 0
M  V30 3513 H 327.861 1.1125 -3.07068 0
M  V30 3514 H 326.52 -0.968693 -3.5357 0
M  V30 3515 H 326.168 1.09076 -4.91031 0
M  V30 3516 H 325.868 -0.384091 -5.86343 0
M  V30 3517 H 327.392 0.521958 -6.08365 0
M  V30 3518 H 328.806 -1.66908 -5.48466 0
M  V30 3519 H 327.203 -2.46018 -5.47353 0
M  V30 3520 H 328.273 -2.63466 -4.07079 0
M  V30 3521 N 329.616 1.39756 -0.72842 0
M  V30 3522 C 331.027 1.83498 -0.344289 0
M  V30 3523 C 331.378 1.60868 1.12321 0
M  V30 3524 O 330.503 1.09634 1.86573 0
M  V30 3525 C 331.098 3.33114 -0.618112 0
M  V30 3526 C 329.657 3.753 -0.287549 0
M  V30 3527 C 328.804 2.62831 -0.884048 0
M  V30 3528 H 331.755 1.28842 -0.926578 0
M  V30 3529 H 331.776 3.80334 0.112349 0
M  V30 3530 H 331.288 3.49553 -1.68625 0
M  V30 3531 H 329.389 3.64451 0.775012 0
M  V30 3532 H 329.502 4.72945 -0.765512 0
M  V30 3533 H 327.866 2.52792 -0.311149 0
M  V30 3534 H 328.649 2.82078 -1.95671 0
M  V30 3535 N 331.094 0.475555 1.50254 0
M  V30 3536 C 332.341 -0.0778919 2.0235 0
M  V30 3537 C 332.669 -1.39319 1.35722 0
M  V30 3538 O 331.924 -1.89888 0.473395 0
M  V30 3539 C 332.223 -0.305114 3.56095 0
M  V30 3540 C 331.889 0.92903 4.41225 0
M  V30 3541 C 330.551 1.26739 4.6421 0
M  V30 3542 C 332.903 1.75054 4.90923 0
M  V30 3543 C 330.231 2.42724 5.34137 0
M  V30 3544 C 332.583 2.9017 5.62125 0
M  V30 3545 C 331.247 3.24416 5.83362 0
M  V30 3546 H 330.517 -0.0285027 0.740452 0
M  V30 3547 H 333.164 0.630543 1.80821 0
M  V30 3548 H 331.469 -1.09584 3.76163 0
M  V30 3549 H 333.166 -0.747377 3.93974 0
M  V30 3550 H 329.756 0.655428 4.23559 0
M  V30 3551 H 333.94 1.50231 4.73016 0
M  V30 3552 H 329.196 2.69525 5.48786 0
M  V30 3553 H 333.37 3.54169 5.99614 0
M  V30 3554 H 330.997 4.14396 6.37323 0
M  V30 3555 N 332.573 -1.56217 0.208337 0
M  V30 3556 C 333.821 -1.97558 -0.426076 0
M  V30 3557 C 334.142 -1.09683 -1.61229 0
M  V30 3558 O 333.412 -0.170956 -1.95153 0
M  V30 3559 H 331.992 -0.729575 -0.160405 0
M  V30 3560 H 334.654 -1.92606 0.298155 0
M  V30 3561 H 333.75 -3.02672 -0.761312 0
M  V30 3562 N 334.051 0.0651679 -1.57465 0
M  V30 3563 C 334.981 1.07693 -2.07182 0
M  V30 3564 C 335.962 1.39962 -0.966673 0
M  V30 3565 O 337.147 1.49475 -1.2398 0
M  V30 3566 C 334.277 2.3885 -2.52127 0
M  V30 3567 C 333.231 2.20917 -3.66579 0
M  V30 3568 C 332.557 3.57515 -3.97601 0
M  V30 3569 C 333.857 1.62493 -4.9638 0
M  V30 3570 H 335.551 0.663199 -2.91962 0
M  V30 3571 H 333.097 0.317569 -1.40455 0
M  V30 3572 H 335.05 3.09928 -2.85522 0
M  V30 3573 H 333.774 2.82215 -1.64384 0
M  V30 3574 H 332.433 1.52279 -3.33477 0
M  V30 3575 H 332.081 3.98463 -3.06979 0
M  V30 3576 H 331.781 3.46353 -4.74672 0
M  V30 3577 H 333.305 4.30013 -4.33499 0
M  V30 3578 H 334.719 2.23445 -5.27963 0
M  V30 3579 H 333.116 1.62009 -5.77818 0
M  V30 3580 H 334.186 0.587041 -4.81333 0
M  V30 3581 N 335.529 1.53961 0.336706 0
M  V30 3582 C 336.462 1.77255 1.43722 0
M  V30 3583 C 337.44 0.62193 1.50236 0
M  V30 3584 O 338.624 0.857874 1.67847 0
M  V30 3585 C 335.751 1.87733 2.81912 0
M  V30 3586 C 334.797 3.09933 2.92991 0
M  V30 3587 S 335.63 4.68836 2.58753 0
M  V30 3588 C 336.786 4.82202 3.99039 0
M  V30 3589 H 337.019 2.70322 1.23748 0
M  V30 3590 H 334.552 1.44917 0.532777 0
M  V30 3591 H 336.51 1.94455 3.61521 0
M  V30 3592 H 335.171 0.956666 2.99177 0
M  V30 3593 H 334.364 3.1396 3.94265 0
M  V30 3594 H 333.966 3.01472 2.21338 0
M  V30 3595 H 336.258 4.64032 4.9364 0
M  V30 3596 H 337.201 5.84298 4.00002 0
M  V30 3597 H 337.609 4.10604 3.87382 0
M  V30 3598 N 337.007 -0.598083 1.45811 0
M  V30 3599 C 337.937 -1.71873 1.58057 0
M  V30 3600 C 338.918 -1.64533 0.431615 0
M  V30 3601 O 340.103 -1.82787 0.65595 0
M  V30 3602 C 337.233 -3.10495 1.55597 0
M  V30 3603 C 336.187 -3.32654 2.69305 0
M  V30 3604 C 335.513 -4.71646 2.51902 0
M  V30 3605 C 336.813 -3.21981 4.11248 0
M  V30 3606 H 338.507 -1.61881 2.51863 0
M  V30 3607 H 336.053 -0.777372 1.21214 0
M  V30 3608 H 338.006 -3.88699 1.6276 0
M  V30 3609 H 336.73 -3.2135 0.583255 0
M  V30 3610 H 335.389 -2.56843 2.61586 0
M  V30 3611 H 335.037 -4.79246 1.52748 0
M  V30 3612 H 334.737 -4.87426 3.2816 0
M  V30 3613 H 336.261 -5.52038 2.60933 0
M  V30 3614 H 337.675 -3.90049 4.20161 0
M  V30 3615 H 336.072 -3.49289 4.87972 0
M  V30 3616 H 337.142 -2.1928 4.32486 0
M  V30 3617 N 338.485 -1.33259 -0.841409 0
M  V30 3618 C 339.733 -1.24326 -1.59334 0
M  V30 3619 C 340.054 0.191564 -1.94057 0
M  V30 3620 O 339.324 1.11967 -1.60749 0
M  V30 3621 H 337.904 -0.457174 -0.590763 0
M  V30 3622 H 340.566 -1.66947 -1.00571 0
M  V30 3623 H 339.662 -1.8352 -2.52442 0
M  V30 3624 N 339.963 1.05934 -1.16686 0
M  V30 3625 C 341.203 1.80382 -0.961345 0
M  V30 3626 C 341.567 1.85331 0.501643 0
M  V30 3627 O 342.768 2.55795 0.825986 0
M  V30 3628 C 341.039 3.20777 -1.57596 0
M  V30 3629 S 342.598 4.11795 -1.51559 0
M  V30 3630 H 339.416 0.621332 -0.345641 0
M  V30 3631 H 342.018 1.27157 -1.48497 0
M  V30 3632 H 340.722 3.14773 -2.63337 0
M  V30 3633 H 340.253 3.79078 -1.05182 0
M  V30 3634 H 342.268 4.93485 -0.518374 0
M  V30 3635 N 341.441 0.965919 1.2453 0
M  V30 3636 C 342.671 0.643451 1.96324 0
M  V30 3637 C 343.079 -0.790927 1.71875 0
M  V30 3638 O 342.422 -1.54208 0.998273 0
M  V30 3639 C 342.484 0.836078 3.49643 0
M  V30 3640 C 342.148 2.24975 3.97788 0
M  V30 3641 C 343.145 3.22735 4.07601 0
M  V30 3642 C 340.83 2.57697 4.31158 0
M  V30 3643 C 342.824 4.51303 4.50116 0
M  V30 3644 C 340.511 3.86492 4.73357 0
M  V30 3645 C 341.509 4.83107 4.828 0
M  V30 3646 O 341.197 6.09605 5.24058 0
M  V30 3647 H 340.929 0.239223 0.632257 0
M  V30 3648 H 343.483 1.29587 1.59362 0
M  V30 3649 H 341.713 0.12649 3.86493 0
M  V30 3650 H 343.402 0.512965 4.02646 0
M  V30 3651 H 344.168 2.98783 3.82039 0
M  V30 3652 H 340.047 1.83216 4.23028 0
M  V30 3653 H 343.591 5.26716 4.57401 0
M  V30 3654 H 339.488 4.10245 4.98366 0
M  V30 3655 H 340.256 6.13146 5.42213 0
M  V30 3656 N 342.919 -1.39368 0.735821 0
M  V30 3657 C 344.144 -2.05319 0.293052 0
M  V30 3658 C 344.569 -1.55115 -1.064 0
M  V30 3659 O 343.927 -0.695261 -1.67439 0
M  V30 3660 C 343.975 -3.59305 0.305323 0
M  V30 3661 O 343.079 -4.06299 -0.706761 0
M  V30 3662 H 342.42 -0.650529 0.13307 0
M  V30 3663 H 344.95 -1.78386 1.00197 0
M  V30 3664 H 344.96 -4.07724 0.149997 0
M  V30 3665 H 343.635 -3.95207 1.29553 0
M  V30 3666 H 342.212 -3.69292 -0.517504 0
M  V30 3667 N 344.397 -0.483516 -1.5 0
M  V30 3668 C 345.643 0.0672592 -2.02688 0
M  V30 3669 C 345.976 1.38247 -1.36387 0
M  V30 3670 O 345.251 1.88131 -0.493675 0
M  V30 3671 C 345.534 0.238109 -3.59312 0
M  V30 3672 C 345.387 -1.099 -4.36168 0
M  V30 3673 C 346.706 0.986916 -4.28892 0
M  V30 3674 H 343.825 0.0229696 -0.736642 0
M  V30 3675 H 346.467 -0.631527 -1.79197 0
M  V30 3676 H 344.617 0.8333 -3.79458 0
M  V30 3677 H 346.289 -1.73172 -4.27562 0
M  V30 3678 H 344.532 -1.69261 -3.99416 0
M  V30 3679 H 345.203 -0.932954 -5.44059 0
M  V30 3680 H 347.679 0.482302 -4.13295 0
M  V30 3681 H 346.555 1.07527 -5.38265 0
M  V30 3682 H 346.816 2.0265 -3.92919 0
M  V30 3683 N 345.875 1.56104 -0.216619 0
M  V30 3684 C 347.103 2.02563 0.421413 0
M  V30 3685 C 347.518 1.0965 1.53695 0
M  V30 3686 O 346.875 0.10521 1.82196 0
M  V30 3687 C 346.926 3.48584 0.957665 0
M  V30 3688 O 346.647 4.37953 -0.113389 0
M  V30 3689 C 348.148 4.10664 1.66943 0
M  V30 3690 H 345.368 0.662944 0.103665 0
M  V30 3691 H 347.912 2.01793 -0.331629 0
M  V30 3692 H 346.067 3.49985 1.661 0
M  V30 3693 H 346.481 5.23704 0.288932 0
M  V30 3694 H 347.955 5.14622 1.99671 0
M  V30 3695 H 348.432 3.55373 2.58083 0
M  V30 3696 H 349.038 4.13098 1.01142 0
M  V30 3697 N 347.353 -0.0568162 1.57498 0
M  V30 3698 C 348.283 -1.06593 2.0775 0
M  V30 3699 C 349.264 -1.39448 0.974082 0
M  V30 3700 O 350.449 -1.48815 1.24771 0
M  V30 3701 C 347.579 -2.37509 2.5339 0
M  V30 3702 C 346.533 -2.1897 3.67745 0
M  V30 3703 C 345.859 -3.55402 3.99492 0
M  V30 3704 C 347.159 -1.59859 4.97235 0
M  V30 3705 H 348.853 -0.647706 2.9231 0
M  V30 3706 H 346.399 -0.310116 1.40621 0
M  V30 3707 H 348.352 -3.08409 2.87162 0
M  V30 3708 H 347.076 -2.8134 1.65878 0
M  V30 3709 H 345.735 -1.50508 3.3428 0
M  V30 3710 H 345.383 -3.9683 3.09088 0
M  V30 3711 H 345.083 -3.43831 4.76502 0
M  V30 3712 H 346.607 -4.27708 4.35773 0
M  V30 3713 H 348.021 -2.20642 5.29141 0
M  V30 3714 H 346.418 -1.58942 5.78669 0
M  V30 3715 H 347.488 -0.561506 4.81638 0
M  V30 3716 N 348.832 -1.54138 -0.328536 0
M  V30 3717 C 349.795 -1.82462 -1.38709 0
M  V30 3718 C 350.795 -0.696229 -1.44946 0
M  V30 3719 O 351.985 -0.964535 -1.4506 0
M  V30 3720 C 349.117 -1.98018 -2.77492 0
M  V30 3721 H 350.31 -2.77037 -1.14851 0
M  V30 3722 H 347.863 -1.45779 -0.563751 0
M  V30 3723 H 348.598 -1.05637 -3.06613 0
M  V30 3724 H 348.383 -2.80124 -2.74359 0
M  V30 3725 H 349.873 -2.21396 -3.54081 0
M  V30 3726 N 350.31 0.590341 -1.46126 0
M  V30 3727 C 351.726 0.912917 -1.30912 0
M  V30 3728 C 351.926 1.99616 -0.274893 0
M  V30 3729 O 350.982 2.50397 0.325197 0
M  V30 3730 C 352.295 1.3375 -2.69317 0
M  V30 3731 C 353.843 1.45077 -2.77348 0
M  V30 3732 C 354.318 1.90904 -4.16317 0
M  V30 3733 N 355.809 1.9811 -4.18696 0
M  V30 3734 C 356.544 2.34828 -5.23109 0
M  V30 3735 N 356.04 2.70393 -6.37856 0
M  V30 3736 N 357.833 2.35317 -5.10473 0
M  V30 3737 H 349.984 -0.125358 -2.1203 0
M  V30 3738 H 352.247 0.00658481 -0.947977 0
M  V30 3739 H 351.953 0.615614 -3.4627 0
M  V30 3740 H 351.827 2.30058 -2.9892 0
M  V30 3741 H 354.214 2.16353 -2.00687 0
M  V30 3742 H 354.295 0.4704 -2.51438 0
M  V30 3743 H 353.939 1.20209 -4.9347 0
M  V30 3744 H 353.869 2.89886 -4.39629 0
M  V30 3745 H 356.36 1.73146 -3.359 0
M  V30 3746 H 356.673 2.97341 -7.13308 0
M  V30 3747 H 355.018 2.68048 -6.41229 0
M  V30 3748 H 358.209 2.0695 -4.19868 0
M  V30 3749 H 358.382 2.63605 -5.9196 0
M  V30 3750 N 351.788 1.33704 0.83433 0
M  V30 3751 C 352.718 1.26967 1.95963 0
M  V30 3752 C 353.699 0.149337 1.69443 0
M  V30 3753 O 354.884 0.339852 1.91203 0
M  V30 3754 C 352.014 1.01275 3.32206 0
M  V30 3755 C 350.968 2.09652 3.73136 0
M  V30 3756 C 350.294 1.69166 5.07235 0
M  V30 3757 C 351.594 3.51372 3.86439 0
M  V30 3758 H 353.288 2.2112 2.01857 0
M  V30 3759 H 350.834 1.06447 0.969793 0
M  V30 3760 H 352.787 0.952106 4.10503 0
M  V30 3761 H 351.511 0.0356203 3.26581 0
M  V30 3762 H 350.17 2.14766 2.97104 0
M  V30 3763 H 349.818 0.701437 4.98085 0
M  V30 3764 H 349.518 2.41694 5.35591 0
M  V30 3765 H 351.042 1.64576 5.88003 0
M  V30 3766 H 352.456 3.48734 4.55036 0
M  V30 3767 H 350.853 4.22425 4.26236 0
M  V30 3768 H 351.923 3.89546 2.88759 0
M  V30 3769 N 353.266 -1.05314 1.17247 0
M  V30 3770 C 354.682 -1.30452 0.919473 0
M  V30 3771 C 354.882 -1.9703 -0.42209 0
M  V30 3772 O 353.938 -2.24311 -1.15935 0
M  V30 3773 C 355.251 -2.17551 2.07586 0
M  V30 3774 C 356.799 -2.30937 2.11275 0
M  V30 3775 C 357.274 -3.21396 3.26296 0
M  V30 3776 N 358.765 -3.28981 3.26076 0
M  V30 3777 C 359.5 -3.99095 4.11716 0
M  V30 3778 N 358.996 -4.71648 5.07465 0
M  V30 3779 N 360.789 -3.95247 3.9967 0
M  V30 3780 H 352.94 -0.604988 2.03602 0
M  V30 3781 H 355.203 -0.329368 0.888944 0
M  V30 3782 H 354.909 -1.75921 3.0454 0
M  V30 3783 H 354.783 -3.18182 2.02584 0
M  V30 3784 H 357.17 -2.71809 1.14907 0
M  V30 3785 H 357.251 -1.2994 2.20339 0
M  V30 3786 H 356.895 -2.81238 4.22927 0
M  V30 3787 H 356.825 -4.22395 3.14467 0
M  V30 3788 H 359.316 -2.77286 2.5675 0
M  V30 3789 H 359.629 -5.22705 5.6921 0
M  V30 3790 H 357.974 -4.70594 5.11435 0
M  V30 3791 H 361.165 -3.37691 3.24164 0
M  V30 3792 H 361.338 -4.4962 4.66632 0
M  V30 3793 N 354.744 -0.972509 -1.24016 0
M  V30 3794 C 355.992 -0.635776 -1.91839 0
M  V30 3795 C 356.313 0.832312 -1.76345 0
M  V30 3796 O 355.583 1.5946 -1.13795 0
M  V30 3797 H 354.163 -0.232157 -0.710009 0
M  V30 3798 H 356.825 -1.23462 -1.50809 0
M  V30 3799 H 355.921 -0.880545 -2.99421 0
M  V30 3800 N 356.222 1.38976 -0.743202 0
M  V30 3801 C 357.185 2.28901 -0.117014 0
M  V30 3802 C 358.185 1.46698 0.658503 0
M  V30 3803 O 359.375 1.67274 0.486305 0
M  V30 3804 C 356.507 3.30309 0.84315 0
M  V30 3805 H 357.7 2.8578 -0.909373 0
M  V30 3806 H 355.253 1.47761 -0.509547 0
M  V30 3807 H 355.988 2.785 1.66157 0
M  V30 3808 H 355.773 3.91029 0.289594 0
M  V30 3809 H 357.263 3.97577 1.2776 0
M  V30 3810 N 357.7 0.491464 1.49741 0
M  V30 3811 C 359.116 0.146835 1.58923 0
M  V30 3812 C 359.316 -1.34804 1.49767 0
M  V30 3813 O 358.372 -2.12317 1.36667 0
M  V30 3814 C 359.685 0.715157 2.92072 0
M  V30 3815 C 361.233 0.680407 3.05515 0
M  V30 3816 C 361.708 1.22663 4.41269 0
M  V30 3817 N 363.199 1.18691 4.47735 0
M  V30 3818 C 363.934 1.57984 5.51207 0
M  V30 3819 N 363.43 2.04824 6.6183 0
M  V30 3820 N 365.223 1.49459 5.41866 0
M  V30 3821 H 357.374 1.46347 1.53936 0
M  V30 3822 H 359.637 0.606453 0.728642 0
M  V30 3823 H 359.343 1.76317 3.04311 0
M  V30 3824 H 359.217 0.17018 3.76816 0
M  V30 3825 H 361.604 -0.358743 2.92911 0
M  V30 3826 H 361.685 1.26242 2.22478 0
M  V30 3827 H 361.329 2.26451 4.54623 0
M  V30 3828 H 361.259 0.620637 5.2293 0
M  V30 3829 H 363.75 0.843605 3.68364 0
M  V30 3830 H 364.063 2.32901 7.3687 0
M  V30 3831 H 362.408 2.08791 6.62896 0
M  V30 3832 H 365.599 1.12692 4.54333 0
M  V30 3833 H 365.772 1.80406 6.22381 0
M  V30 3834 N 359.178 -1.55987 0.224894 0
M  V30 3835 C 360.424 -1.99433 -0.39973 0
M  V30 3836 C 360.779 -1.11004 -1.57149 0
M  V30 3837 O 360.072 -0.160725 -1.90925 0
M  V30 3838 C 360.266 -3.46394 -0.880106 0
M  V30 3839 C 360.095 -4.4904 0.243565 0
M  V30 3840 C 358.865 -5.00272 0.711056 0
M  V30 3841 C 361.063 -5.03195 1.06299 0
M  V30 3842 N 359.045 -5.86628 1.80944 0
M  V30 3843 C 360.416 -5.86508 2.01017 0
M  V30 3844 C 362.471 -4.8555 1.10205 0
M  V30 3845 C 361.174 -6.54062 2.99324 0
M  V30 3846 C 363.2 -5.53866 2.07332 0
M  V30 3847 C 362.562 -6.3695 3.00789 0
M  V30 3848 H 358.661 -0.773815 -0.112847 0
M  V30 3849 H 361.245 -1.91754 0.337432 0
M  V30 3850 H 359.416 -3.54515 -1.58662 0
M  V30 3851 H 361.148 -3.76752 -1.47783 0
M  V30 3852 H 357.903 -4.72655 0.29906 0
M  V30 3853 H 358.327 -6.34507 2.36073 0
M  V30 3854 H 362.969 -4.20966 0.39343 0
M  V30 3855 H 360.687 -7.17827 3.71147 0
M  V30 3856 H 364.273 -5.42178 2.11032 0
M  V30 3857 H 363.153 -6.8888 3.74718 0
M  V30 3858 N 360.656 0.0484629 -1.57525 0
M  V30 3859 C 361.904 0.741657 -1.88 0
M  V30 3860 C 362.225 1.76918 -0.820054 0
M  V30 3861 O 361.495 1.95335 0.148661 0
M  V30 3862 H 360.075 0.276908 -0.69378 0
M  V30 3863 H 362.737 0.019013 -1.94891 0
M  V30 3864 H 361.833 1.24336 -2.86264 0
M  V30 3865 N 362.134 1.5431 0.320358 0
M  V30 3866 C 363.359 1.76954 1.08175 0
M  V30 3867 C 363.784 0.518193 1.80821 0
M  V30 3868 O 363.142 -0.530411 1.73368 0
M  V30 3869 C 363.19 2.96451 2.05303 0
M  V30 3870 O 362.294 2.68221 3.13259 0
M  V30 3871 H 361.635 0.586275 0.311733 0
M  V30 3872 H 364.165 2.01342 0.363676 0
M  V30 3873 H 364.175 3.23887 2.48116 0
M  V30 3874 H 362.85 3.87196 1.51829 0
M  V30 3875 H 361.427 2.51744 2.75099 0
M  V30 3876 N 363.613 -0.582584 1.46437 0
M  V30 3877 C 364.861 -1.33814 1.51453 0
M  V30 3878 C 365.182 -1.94277 0.167792 0
M  V30 3879 O 364.452 -1.78566 -0.805677 0
M  V30 3880 H 363.032 -0.496838 0.557818 0
M  V30 3881 H 365.694 -0.682281 1.82568 0
M  V30 3882 H 364.79 -2.14479 2.26728 0
M  V30 3883 N 365.091 -1.34144 -0.827227 0
M  V30 3884 C 366.507 -1.13732 -1.11969 0
M  V30 3885 C 366.707 0.0640463 -2.01398 0
M  V30 3886 O 365.763 0.740856 -2.41387 0
M  V30 3887 C 367.076 -2.43047 -1.77055 0
M  V30 3888 C 368.624 -2.49063 -1.89569 0
M  V30 3889 C 369.099 -3.78369 -2.58072 0
M  V30 3890 N 370.59 -3.79505 -2.65575 0
M  V30 3891 C 371.325 -4.76274 -3.19297 0
M  V30 3892 N 370.821 -5.83424 -3.73616 0
M  V30 3893 N 372.614 -4.63735 -3.17658 0
M  V30 3894 H 364.765 -2.11126 -0.232296 0
M  V30 3895 H 367.028 -0.933424 -0.165602 0
M  V30 3896 H 366.734 -3.31025 -1.18807 0
M  V30 3897 H 366.608 -2.56066 -2.76966 0
M  V30 3898 H 368.995 -1.61527 -2.46968 0
M  V30 3899 H 369.076 -2.39975 -0.885745 0
M  V30 3900 H 368.72 -4.66293 -2.01329 0
M  V30 3901 H 368.65 -3.84737 -3.59562 0
M  V30 3902 H 371.141 -3.02074 -2.27068 0
M  V30 3903 H 371.454 -6.53282 -4.12846 0
M  V30 3904 H 369.799 -5.87143 -3.71871 0
M  V30 3905 H 372.99 -3.79177 -2.74486 0
M  V30 3906 H 373.163 -5.39318 -3.59221 0
M  V30 3907 N 366.569 1.04691 -1.17803 0
M  V30 3908 C 367.519 2.10856 -0.867391 0
M  V30 3909 C 368.503 1.601 0.160206 0
M  V30 3910 O 369.695 1.76948 -0.042947 0
M  V30 3911 C 366.824 3.411 -0.388012 0
M  V30 3912 C 365.91 3.9864 -1.44732 0
M  V30 3913 N 366.301 4.30075 -2.66212 0
M  V30 3914 C 364.599 4.26439 -1.30637 0
M  V30 3915 C 365.3 4.76033 -3.34317 0
M  V30 3916 N 364.276 4.76462 -2.61696 0
M  V30 3917 H 368.078 2.33029 -1.79094 0
M  V30 3918 H 365.592 1.22386 -1.0675 0
M  V30 3919 H 367.589 4.16641 -0.146994 0
M  V30 3920 H 366.249 3.20357 0.529271 0
M  V30 3921 H 367.26 4.19917 -3.03134 0
M  V30 3922 H 363.937 4.15056 -0.451129 0
M  V30 3923 H 365.327 5.09427 -4.38103 0
M  V30 3924 N 368.047 0.979072 1.23499 0
M  V30 3925 C 369.295 0.645941 1.91499 0
M  V30 3926 C 369.616 -0.822948 1.76784 0
M  V30 3927 O 368.886 -1.58854 1.14639 0
M  V30 3928 H 367.466 0.235919 0.708767 0
M  V30 3929 H 370.128 1.2426 1.50152 0
M  V30 3930 H 369.224 0.896411 2.9895 0
M  V30 3931 N 369.525 -1.3858 0.750561 0
M  V30 3932 C 370.488 -2.28836 0.129152 0
M  V30 3933 C 371.488 -1.47045 -0.650714 0
M  V30 3934 O 372.678 -1.6753 -0.477428 0
M  V30 3935 C 369.81 -3.30751 -0.825622 0
M  V30 3936 H 371.003 -2.85294 0.924516 0
M  V30 3937 H 368.556 -1.47489 0.517376 0
M  V30 3938 H 369.291 -2.79378 -1.64677 0
M  V30 3939 H 369.076 -3.91177 -0.268852 0
M  V30 3940 H 370.566 -3.98249 -1.2565 0
M  V30 3941 N 371.003 -0.499398 -1.49478 0
M  V30 3942 C 372.419 -0.155261 -1.58843 0
M  V30 3943 C 372.619 1.34008 -1.50479 0
M  V30 3944 O 371.675 2.11589 -1.37791 0
M  V30 3945 C 372.988 -0.730636 -2.91689 0
M  V30 3946 C 374.536 -0.696599 -3.0515 0
M  V30 3947 C 375.011 -1.25001 -4.40612 0
M  V30 3948 N 376.502 -1.21064 -4.47099 0
M  V30 3949 C 377.237 -1.60905 -5.50361 0
M  V30 3950 N 376.733 -2.08331 -6.60735 0
M  V30 3951 N 378.526 -1.52331 -5.41065 0
M  V30 3952 H 370.677 -1.47162 -1.53158 0
M  V30 3953 H 372.94 -0.610309 -0.725415 0
M  V30 3954 H 372.646 -1.77928 -3.03372 0
M  V30 3955 H 372.52 -0.190161 -3.7672 0
M  V30 3956 H 374.907 0.343204 -2.93097 0
M  V30 3957 H 374.988 -1.2742 -2.21806 0
M  V30 3958 H 374.632 -2.28859 -4.53416 0
M  V30 3959 H 374.562 -0.64836 -5.22593 0
M  V30 3960 H 377.053 -0.863128 -3.67911 0
M  V30 3961 H 377.366 -2.36805 -7.35624 0
M  V30 3962 H 375.711 -2.12304 -6.6178 0
M  V30 3963 H 378.902 -1.151 -4.53729 0
M  V30 3964 H 379.075 -1.83704 -6.21415 0
M  V30 3965 N 372.481 1.55866 -0.233164 0
M  V30 3966 C 373.727 1.98897 0.395959 0
M  V30 3967 C 374.06 1.12091 1.58585 0
M  V30 3968 O 373.335 0.181182 1.93654 0
M  V30 3969 C 373.618 3.50658 0.819224 0
M  V30 3970 C 373.471 4.48233 -0.375109 0
M  V30 3971 C 374.79 4.07135 1.67121 0
M  V30 3972 H 371.909 0.723102 0.142451 0
M  V30 3973 H 374.551 1.87082 -0.331725 0
M  V30 3974 H 372.701 3.60857 1.43925 0
M  V30 3975 H 374.373 4.50031 -1.01341 0
M  V30 3976 H 372.616 4.21624 -1.02058 0
M  V30 3977 H 373.287 5.51988 -0.0358328 0
M  V30 3978 H 375.763 3.99952 1.14795 0
M  V30 3979 H 374.639 5.13615 1.93625 0
M  V30 3980 H 374.9 3.54736 2.63846 0
M  V30 3981 N 373.959 -0.0401083 1.57549 0
M  V30 3982 C 375.207 -0.731677 1.8839 0
M  V30 3983 C 375.528 -1.76481 0.829425 0
M  V30 3984 O 374.798 -1.95411 -0.1383 0
M  V30 3985 H 373.378 -0.273225 0.695239 0
M  V30 3986 H 376.04 -0.00867725 1.94898 0
M  V30 3987 H 375.136 -1.22816 2.86919 0
M  V30 3988 N 375.437 -1.54477 -0.31217 0
M  V30 3989 C 376.853 -1.45442 -0.657185 0
M  V30 3990 C 377.053 -0.63653 -1.91182 0
M  V30 3991 O 376.109 -0.139815 -2.52113 0
M  V30 3992 C 377.422 -2.89287 -0.82058 0
M  V30 3993 C 378.97 -2.9926 -0.917188 0
M  V30 3994 C 379.445 -4.44279 -1.11267 0
M  V30 3995 N 380.936 -4.4794 -1.17914 0
M  V30 3996 C 381.671 -5.57318 -1.34848 0
M  V30 3997 N 381.167 -6.76642 -1.48752 0
M  V30 3998 N 382.96 -5.44986 -1.37647 0
M  V30 3999 H 375.111 -2.06129 0.512313 0
M  V30 4000 H 377.374 -0.933088 0.167485 0
M  V30 4001 H 377.08 -3.51687 0.0302604 0
M  V30 4002 H 376.954 -3.36061 -1.71298 0
M  V30 4003 H 379.341 -2.36981 -1.75852 0
M  V30 4004 H 379.422 -2.558 -0.00101257 0
M  V30 4005 H 379.066 -5.07149 -0.27614 0
M  V30 4006 H 378.996 -4.85359 -2.04289 0
M  V30 4007 H 381.487 -3.61969 -1.08567 0
M  V30 4008 H 381.8 -7.55758 -1.61397 0
M  V30 4009 H 380.145 -6.79529 -1.45828 0
M  V30 4010 H 383.336 -4.50715 -1.26388 0
M  V30 4011 H 383.509 -6.3028 -1.50501 0
M  V30 4012 N 376.915 0.57481 -1.46744 0
M  V30 4013 C 377.845 1.69337 -1.60771 0
M  V30 4014 C 378.826 1.63825 -0.457736 0
M  V30 4015 O 380.011 1.8172 -0.684947 0
M  V30 4016 C 377.141 3.0798 -1.60517 0
M  V30 4017 C 376.095 3.28327 -2.74564 0
M  V30 4018 C 375.421 4.67578 -2.59373 0
M  V30 4019 C 376.721 3.15398 -4.16319 0
M  V30 4020 H 378.415 1.57853 -2.54407 0
M  V30 4021 H 375.961 0.75799 -1.22436 0
M  V30 4022 H 377.914 3.86061 -1.68923 0
M  V30 4023 H 376.638 3.20381 -0.634305 0
M  V30 4024 H 375.297 2.52649 -2.65639 0
M  V30 4025 H 374.945 4.76755 -1.60353 0
M  V30 4026 H 374.645 4.82144 -3.35873 0
M  V30 4027 H 376.169 5.47817 -2.69682 0
M  V30 4028 H 377.583 3.83315 -4.26313 0
M  V30 4029 H 375.98 3.41482 -4.93468 0
M  V30 4030 H 377.05 2.12372 -4.3592 0
M  V30 4031 N 378.394 1.34581 0.820102 0
M  V30 4032 C 379.64 1.27285 1.57881 0
M  V30 4033 C 379.973 -0.156137 1.93571 0
M  V30 4034 O 379.248 -1.10222 1.60254 0
M  V30 4035 C 379.531 2.16639 2.87645 0
M  V30 4036 C 379.384 3.68088 2.58517 0
M  V30 4037 C 380.703 2.05378 3.8924 0
M  V30 4038 H 377.822 0.463714 0.572833 0
M  V30 4039 H 380.464 1.64859 0.944539 0
M  V30 4040 H 378.614 1.84725 3.41773 0
M  V30 4041 H 380.286 4.10382 2.10676 0
M  V30 4042 H 378.529 3.89038 1.91917 0
M  V30 4043 H 379.2 4.2598 3.51063 0
M  V30 4044 H 381.676 2.33404 3.44473 0
M  V30 4045 H 380.552 2.7012 4.77835 0
M  V30 4046 H 380.813 1.0316 4.29896 0
M  V30 4047 N 379.872 -1.04064 1.18357 0
M  V30 4048 C 381.097 -1.81454 1.00445 0
M  V30 4049 C 381.522 -1.82823 -0.442423 0
M  V30 4050 O 380.88 -1.24555 -1.31741 0
M  V30 4051 C 380.928 -3.24925 1.56384 0
M  V30 4052 O 380.032 -4.04856 0.785209 0
M  V30 4053 H 379.373 -0.560604 0.355835 0
M  V30 4054 H 381.903 -1.31059 1.57114 0
M  V30 4055 H 381.913 -3.75702 1.59097 0
M  V30 4056 H 380.588 -3.23244 2.61699 0
M  V30 4057 H 379.165 -3.63537 0.830399 0
M  V30 4058 N 381.35 -0.985608 -1.22978 0
M  V30 4059 C 382.313 -0.535071 -2.22867 0
M  V30 4060 C 383.313 0.378123 -1.56291 0
M  V30 4061 O 384.503 0.171092 -1.73358 0
M  V30 4062 C 381.635 0.222702 -3.40172 0
M  V30 4063 H 382.828 -1.41835 -2.6424 0
M  V30 4064 H 380.381 -0.772042 -1.35901 0
M  V30 4065 H 381.116 1.12229 -3.04262 0
M  V30 4066 H 380.901 -0.43288 -3.89703 0
M  V30 4067 H 382.391 0.526335 -4.1427 0
M  V30 4068 N 382.828 1.3818 -0.7579 0
M  V30 4069 C 384.077 1.99261 -0.312744 0
M  V30 4070 C 384.39 1.60846 1.11301 0
M  V30 4071 O 385.596 2.14929 1.65885 0
M  V30 4072 C 384.052 3.56294 -0.50821 0
M  V30 4073 C 383.66 4.03657 -1.94333 0
M  V30 4074 C 385.404 4.24313 -0.125982 0
M  V30 4075 C 383.311 5.53347 -2.08712 0
M  V30 4076 H 382.241 0.745456 -0.113185 0
M  V30 4077 H 384.892 1.57889 -0.935056 0
M  V30 4078 H 383.274 3.95575 0.183353 0
M  V30 4079 H 384.448 3.75655 -2.66871 0
M  V30 4080 H 382.763 3.48376 -2.28086 0
M  V30 4081 H 385.36 5.34279 -0.212125 0
M  V30 4082 H 385.703 4.05962 0.921964 0
M  V30 4083 H 386.236 3.90285 -0.769563 0
M  V30 4084 H 382.975 5.76607 -3.11777 0
M  V30 4085 H 382.495 5.83078 -1.4064 0
M  V30 4086 H 384.174 6.19111 -1.87912 0
M  V30 4087 N 384.306 0.507319 1.49211 0
M  V30 4088 C 385.552 -0.0350047 2.0277 0
M  V30 4089 C 385.885 -1.3606 1.38569 0
M  V30 4090 O 385.16 -1.87321 0.523542 0
M  V30 4091 C 385.443 -0.180916 3.59645 0
M  V30 4092 C 385.296 1.16825 4.34364 0
M  V30 4093 C 386.615 -0.918558 4.30407 0
M  V30 4094 H 383.734 -0.0112473 0.736914 0
M  V30 4095 H 386.376 0.659956 1.7817 0
M  V30 4096 H 384.526 -0.772826 3.80736 0
M  V30 4097 H 386.198 1.79952 4.24753 0
M  V30 4098 H 384.441 1.75594 3.96673 0
M  V30 4099 H 385.112 1.01939 5.42506 0
M  V30 4100 H 387.588 -0.41649 4.1401 0
M  V30 4101 H 386.464 -0.989505 5.39907 0
M  V30 4102 H 386.725 -1.96373 3.96093 0
M  V30 4103 N 385.784 -1.5574 0.241426 0
M  V30 4104 C 386.714 -2.24133 -0.654722 0
M  V30 4105 C 387.695 -1.21974 -1.1856 0
M  V30 4106 O 388.88 -1.50612 -1.22595 0
M  V30 4107 C 386.01 -2.93659 -1.85423 0
M  V30 4108 C 384.964 -4.0246 -1.45636 0
M  V30 4109 C 384.29 -4.59383 -2.73626 0
M  V30 4110 C 385.59 -5.18468 -0.631506 0
M  V30 4111 H 387.284 -2.99281 -0.0844353 0
M  V30 4112 H 384.83 -1.43947 -0.0391707 0
M  V30 4113 H 386.783 -3.40203 -2.48676 0
M  V30 4114 H 385.507 -2.15991 -2.44981 0
M  V30 4115 H 384.166 -3.56676 -0.847202 0
M  V30 4116 H 383.814 -3.78422 -3.3137 0
M  V30 4117 H 383.514 -5.32826 -2.4773 0
M  V30 4118 H 385.038 -5.08658 -3.37786 0
M  V30 4119 H 386.452 -5.61272 -1.1682 0
M  V30 4120 H 384.849 -5.98266 -0.468831 0
M  V30 4121 H 385.919 -4.8358 0.357506 0
M  V30 4122 N 387.262 0.0317525 -1.57568 0
M  V30 4123 C 388.225 1.01783 -2.0536 0
M  V30 4124 C 389.225 1.29203 -0.957253 0
M  V30 4125 O 390.415 1.24251 -1.22095 0
M  V30 4126 C 387.547 2.35137 -2.46827 0
M  V30 4127 H 388.74 0.605062 -2.93733 0
M  V30 4128 H 386.293 0.278514 -1.53799 0
M  V30 4129 H 387.028 2.81168 -1.61602 0
M  V30 4130 H 386.813 2.16566 -3.26866 0
M  V30 4131 H 388.303 3.05938 -2.84239 0
M  V30 4132 N 388.74 1.54641 0.303973 0
M  V30 4133 C 389.987 1.7378 1.03955 0
M  V30 4134 C 390.315 0.521986 1.87365 0
M  V30 4135 O 389.57 -0.496099 1.89308 0
M  V30 4136 C 389.869 2.97753 1.97681 0
M  V30 4137 C 389.535 4.31671 1.30271 0
M  V30 4138 C 388.197 4.68075 1.11619 0
M  V30 4139 C 390.549 5.147 0.82055 0
M  V30 4140 C 387.877 5.8509 0.434304 0
M  V30 4141 C 390.229 6.32416 0.152395 0
M  V30 4142 C 388.893 6.67484 -0.0461067 0
M  V30 4143 H 388.163 0.635908 0.380398 0
M  V30 4144 H 390.81 1.88896 0.314718 0
M  V30 4145 H 389.115 2.77406 2.76682 0
M  V30 4146 H 390.812 3.09756 2.54661 0
M  V30 4147 H 387.402 4.03041 1.45795 0
M  V30 4148 H 391.586 4.87077 0.952374 0
M  V30 4149 H 386.842 6.10806 0.269495 0
M  V30 4150 H 391.016 6.96023 -0.229126 0
M  V30 4151 H 388.643 7.58011 -0.576494 0
M  V30 4152 N 390.218 -0.567019 1.47046 0
M  V30 4153 C 391.466 -1.322 1.52864 0
M  V30 4154 C 391.787 -1.94088 0.188388 0
M  V30 4155 O 391.057 -1.7941 -0.786693 0
M  V30 4156 H 389.637 -0.490894 0.563056 0
M  V30 4157 H 392.299 -0.662879 1.83281 0
M  V30 4158 H 391.395 -2.12062 2.2899 0
M  V30 4159 N 391.696 -1.35014 -0.812953 0
M  V30 4160 C 392.626 -1.30069 -1.93919 0
M  V30 4161 C 393.607 -0.176275 -1.69184 0
M  V30 4162 O 394.792 -0.370227 -1.90638 0
M  V30 4163 C 391.922 -1.06547 -3.30552 0
M  V30 4164 C 390.876 -2.15561 -3.69753 0
M  V30 4165 C 390.202 -1.77214 -5.04479 0
M  V30 4166 C 391.502 -3.57476 -3.808 0
M  V30 4167 H 393.196 -2.24303 -1.98314 0
M  V30 4168 H 390.742 -1.07977 -0.952736 0
M  V30 4169 H 392.695 -1.01729 -4.08937 0
M  V30 4170 H 391.419 -0.0875719 -3.26483 0
M  V30 4171 H 390.078 -2.19466 -2.9365 0
M  V30 4172 H 389.726 -0.780589 -4.96906 0
M  V30 4173 H 389.426 -2.50184 -5.31678 0
M  V30 4174 H 390.95 -1.7391 -5.8531 0
M  V30 4175 H 392.364 -3.55929 -4.4943 0
M  V30 4176 H 390.761 -4.29152 -4.19462 0
M  V30 4177 H 391.831 -3.94091 -2.82525 0
M  V30 4178 N 393.175 1.03435 -1.18907 0
M  V30 4179 C 394.105 2.13503 -0.945448 0
M  V30 4180 C 395.086 1.69682 0.119189 0
M  V30 4181 O 396.271 1.94169 -0.034707 0
M  V30 4182 C 393.401 3.44004 -0.477316 0
M  V30 4183 C 392.355 4.0148 -1.48316 0
M  V30 4184 C 391.681 5.27537 -0.872311 0
M  V30 4185 C 392.981 4.36921 -2.86177 0
M  V30 4186 H 394.675 2.34141 -1.86597 0
M  V30 4187 H 392.221 1.12523 -0.898584 0
M  V30 4188 H 394.174 4.20372 -0.294204 0
M  V30 4189 H 392.898 3.23072 0.478786 0
M  V30 4190 H 391.557 3.27201 -1.65332 0
M  V30 4191 H 391.205 5.02917 0.0911752 0
M  V30 4192 H 390.905 5.66954 -1.54393 0
M  V30 4193 H 392.429 6.06576 -0.699871 0
M  V30 4194 H 393.843 5.04248 -2.72776 0
M  V30 4195 H 392.24 4.87405 -3.50081 0
M  V30 4196 H 393.31 3.46466 -3.39248 0
M  V30 4197 N 394.653 0.992116 1.22453 0
M  V30 4198 C 395.899 0.678177 1.91761 0
M  V30 4199 C 396.254 -0.781141 1.75829 0
M  V30 4200 O 395.547 -1.55747 1.11595 0
M  V30 4201 C 395.741 1.01832 3.42586 0
M  V30 4202 C 395.57 2.50916 3.73191 0
M  V30 4203 C 394.34 3.17308 3.93248 0
M  V30 4204 C 396.538 3.49032 3.77732 0
M  V30 4205 N 394.52 4.55876 4.11157 0
M  V30 4206 C 395.891 4.73055 4.00773 0
M  V30 4207 C 397.946 3.43349 3.60577 0
M  V30 4208 C 396.649 5.92089 4.0844 0
M  V30 4209 C 398.675 4.61759 3.69503 0
M  V30 4210 C 398.037 5.84582 3.92993 0
M  V30 4211 H 394.136 0.299425 0.722405 0
M  V30 4212 H 396.72 1.27197 1.47408 0
M  V30 4213 H 394.891 0.453118 3.85748 0
M  V30 4214 H 396.623 0.660454 3.99274 0
M  V30 4215 H 393.378 2.67778 3.9063 0
M  V30 4216 H 393.802 5.27748 4.24042 0
M  V30 4217 H 398.444 2.49408 3.41402 0
M  V30 4218 H 396.162 6.86435 4.26418 0
M  V30 4219 H 399.748 4.58951 3.57569 0
M  V30 4220 H 398.628 6.74676 3.99728 0
M  V30 4221 N 396.131 -1.37776 0.765217 0
M  V30 4222 C 397.094 -2.28686 0.153416 0
M  V30 4223 C 398.094 -1.47727 -0.635081 0
M  V30 4224 O 399.284 -1.68027 -0.459632 0
M  V30 4225 C 396.416 -3.31608 -0.790495 0
M  V30 4226 H 397.609 -2.84297 0.954723 0
M  V30 4227 H 395.162 -1.46932 0.53299 0
M  V30 4228 H 395.897 -2.81109 -1.61705 0
M  V30 4229 H 395.682 -3.9144 -0.227348 0
M  V30 4230 H 397.172 -3.99559 -1.21419 0
M  V30 4231 N 397.609 -0.515225 -1.4894 0
M  V30 4232 C 399.02 -0.0710067 -1.86565 0
M  V30 4233 C 399.371 1.34733 -1.42623 0
M  V30 4234 O 398.496 2.00653 -0.810379 0
M  V30 4235 C 399.091 -0.122083 -3.3858 0
M  V30 4236 C 397.65 0.266863 -3.75453 0
M  V30 4237 C 396.797 -0.488376 -2.72966 0
M  V30 4238 H 399.748 -0.727266 -1.41055 0
M  V30 4239 H 399.769 0.669818 -3.74558 0
M  V30 4240 H 399.281 -1.15448 -3.70531 0
M  V30 4241 H 397.382 1.30196 -3.49113 0
M  V30 4242 H 397.495 -0.0624811 -4.79059 0
M  V30 4243 H 395.859 0.0635622 -2.54621 0
M  V30 4244 H 396.642 -1.52113 -3.07761 0
M  V30 4245 N 399.087 1.5561 -0.249682 0
M  V30 4246 C 400.317 2.03116 0.377803 0
M  V30 4247 C 400.725 1.12822 1.51881 0
M  V30 4248 O 400.068 0.13562 1.83199 0
M  V30 4249 C 400.13 3.46866 0.944693 0
M  V30 4250 C 399.794 4.56955 -0.0644259 0
M  V30 4251 C 400.791 5.12485 -0.874957 0
M  V30 4252 C 398.476 5.01936 -0.19132 0
M  V30 4253 C 400.47 6.11491 -1.79881 0
M  V30 4254 C 398.157 6.00773 -1.11868 0
M  V30 4255 C 399.155 6.5543 -1.92095 0
M  V30 4256 O 398.843 7.5234 -2.83267 0
M  V30 4257 H 398.575 0.669489 0.0935961 0
M  V30 4258 H 401.129 2.02004 -0.371966 0
M  V30 4259 H 399.359 3.45136 1.74407 0
M  V30 4260 H 401.048 3.77856 1.48255 0
M  V30 4261 H 401.814 4.78564 -0.787523 0
M  V30 4262 H 397.693 4.59055 0.423072 0
M  V30 4263 H 401.237 6.54078 -2.42543 0
M  V30 4264 H 397.134 6.34114 -1.20703 0
M  V30 4265 H 397.902 7.69966 -2.7766 0
M  V30 4266 N 400.565 -0.0233959 1.57583 0
M  V30 4267 C 401.515 -1.03023 2.03397 0
M  V30 4268 C 402.499 -1.31701 0.924315 0
M  V30 4269 O 403.691 -1.31191 1.18819 0
M  V30 4270 C 400.82 -2.32961 2.52159 0
M  V30 4271 C 399.906 -2.07349 3.69956 0
M  V30 4272 N 400.297 -1.51814 4.82479 0
M  V30 4273 C 398.595 -2.37606 3.77438 0
M  V30 4274 C 399.296 -1.42136 5.64068 0
M  V30 4275 N 398.272 -1.89891 5.09355 0
M  V30 4276 H 402.074 -0.594962 2.87815 0
M  V30 4277 H 399.588 -0.229586 1.60769 0
M  V30 4278 H 401.585 -3.05906 2.83244 0
M  V30 4279 H 400.245 -2.77162 1.69149 0
M  V30 4280 H 401.256 -1.20008 5.03804 0
M  V30 4281 H 397.933 -2.84842 3.05239 0
M  V30 4282 H 399.323 -0.996405 6.64471 0
M  V30 4283 N 402.043 -1.548 -0.295768 0
M  V30 4284 C 403.006 -1.85363 -1.34808 0
M  V30 4285 C 404.006 -0.726817 -1.43436 0
M  V30 4286 O 405.196 -0.995088 -1.42981 0
M  V30 4287 C 402.328 -2.03859 -2.73229 0
M  V30 4288 H 403.521 -2.7941 -1.08949 0
M  V30 4289 H 401.074 -1.46942 -0.532702 0
M  V30 4290 H 401.809 -1.12117 -3.04303 0
M  V30 4291 H 401.594 -2.8588 -2.68356 0
M  V30 4292 H 403.084 -2.28857 -3.49305 0
M  V30 4293 N 403.521 0.559213 -1.47345 0
M  V30 4294 C 404.767 1.31843 -1.54095 0
M  V30 4295 C 405.1 1.93149 -0.201726 0
M  V30 4296 O 404.375 1.77759 0.789428 0
M  V30 4297 C 404.658 2.43006 -2.65744 0
M  V30 4298 C 404.511 1.86581 -4.09277 0
M  V30 4299 C 405.83 3.44943 -2.73318 0
M  V30 4300 H 402.949 0.478012 -0.560957 0
M  V30 4301 H 405.591 0.625977 -1.79392 0
M  V30 4302 H 403.741 3.02072 -2.44305 0
M  V30 4303 H 405.413 1.31792 -4.42073 0
M  V30 4304 H 403.656 1.17268 -4.17649 0
M  V30 4305 H 404.327 2.66933 -4.83168 0
M  V30 4306 H 406.803 2.95793 -2.92653 0
M  V30 4307 H 405.679 4.20153 -3.53218 0
M  V30 4308 H 405.94 4.03665 -1.80296 0
M  V30 4309 N 404.999 1.35443 0.805782 0
M  V30 4310 C 405.947 1.28465 1.93906 0
M  V30 4311 C 406.941 0.17943 1.68447 0
M  V30 4312 O 408.147 0.345459 1.76654 0
M  V30 4313 H 404.522 0.399528 0.637088 0
M  V30 4314 H 406.493 2.24206 1.96912 0
M  V30 4315 C 405.242 1.07432 3.30687 0
M  V30 4316 H 404.565 1.91716 3.50835 0
M  V30 4317 H 406.005 1.06591 4.10383 0
M  V30 4318 C 404.464 -0.22179 3.36169 0
M  V30 4319 O 404.994 -1.21731 3.82811 0
M  V30 4320 N 403.2 -0.260841 2.89427 0
M  V30 4321 H 402.747 0.549884 2.51663 0
M  V30 4322 H 402.705 -1.12777 2.93477 0
M  V30 4323 N 406.477 -1.02803 1.19454 0
M  V30 4324 C 407.407 -2.12999 0.956758 0
M  V30 4325 C 408.388 -1.69743 -0.110188 0
M  V30 4326 O 409.573 -1.94148 0.0450038 0
M  V30 4327 C 406.703 -3.43746 0.495553 0
M  V30 4328 C 405.657 -4.00688 1.50443 0
M  V30 4329 C 404.983 -5.27067 0.900275 0
M  V30 4330 C 406.283 -4.35397 2.8849 0
M  V30 4331 H 407.977 -2.33148 1.87836 0
M  V30 4332 H 405.523 -1.12045 0.904539 0
M  V30 4333 H 407.476 -4.2021 0.316493 0
M  V30 4334 H 406.2 -3.23321 -0.461646 0
M  V30 4335 H 404.859 -3.2632 1.67065 0
M  V30 4336 H 404.507 -5.02959 -0.064503 0
M  V30 4337 H 404.207 -5.66127 1.57397 0
M  V30 4338 H 405.731 -6.06196 0.73203 0
M  V30 4339 H 407.145 -5.02795 2.75446 0
M  V30 4340 H 405.542 -4.85541 3.52661 0
M  V30 4341 H 406.612 -3.44662 3.41081 0
M  V30 4342 N 407.956 -0.998596 -1.21925 0
M  V30 4343 C 408.886 -0.573688 -2.26343 0
M  V30 4344 C 409.867 0.402296 -1.65274 0
M  V30 4345 O 411.052 0.291683 -1.91997 0
M  V30 4346 C 408.182 0.106839 -3.47136 0
M  V30 4347 C 407.136 -0.788269 -4.20678 0
M  V30 4348 C 406.462 0.0254927 -5.34694 0
M  V30 4349 C 407.762 -2.08784 -4.78755 0
M  V30 4350 H 409.456 -1.44651 -2.62138 0
M  V30 4351 H 407.002 -0.696975 -1.26009 0
M  V30 4352 H 408.955 0.415531 -4.19346 0
M  V30 4353 H 407.679 1.01424 -3.10452 0
M  V30 4354 H 406.338 -1.08069 -3.50309 0
M  V30 4355 H 405.986 0.933989 -4.94253 0
M  V30 4356 H 405.686 -0.570437 -5.84825 0
M  V30 4357 H 407.21 0.328147 -6.09718 0
M  V30 4358 H 408.624 -1.84272 -5.42878 0
M  V30 4359 H 407.021 -2.63307 -5.39249 0
M  V30 4360 H 408.091 -2.76284 -3.98491 0
M  V30 4361 N 409.434 1.37368 -0.772513 0
M  V30 4362 C 410.366 2.28899 -0.117502 0
M  V30 4363 C 411.379 1.4867 0.663405 0
M  V30 4364 O 412.568 1.71314 0.501372 0
M  V30 4365 C 409.668 3.2788 0.857192 0
M  V30 4366 C 408.841 4.37207 0.129938 0
M  V30 4367 C 407.9 5.16257 1.01811 0
M  V30 4368 O 406.926 5.67159 0.481601 0
M  V30 4369 N 408.128 5.31058 2.3443 0
M  V30 4370 H 410.893 2.85752 -0.903662 0
M  V30 4371 H 408.454 1.49353 -0.62493 0
M  V30 4372 H 410.446 3.77647 1.45482 0
M  V30 4373 H 409.016 2.7179 1.54432 0
M  V30 4374 H 408.236 3.88827 -0.648605 0
M  V30 4375 H 409.524 5.07434 -0.372559 0
M  V30 4376 H 408.922 4.91287 2.80452 0
M  V30 4377 H 407.479 5.84131 2.89197 0
M  V30 4378 N 410.912 0.523116 1.48665 0
M  V30 4379 C 411.875 -0.232592 2.28017 0
M  V30 4380 C 412.875 -0.874021 1.34972 0
M  V30 4381 O 414.065 -0.735132 1.57929 0
M  V30 4382 C 411.197 -1.33586 3.13636 0
M  V30 4383 H 412.39 0.464008 2.96289 0
M  V30 4384 H 409.943 0.278816 1.53793 0
M  V30 4385 H 410.678 -2.06593 2.4998 0
M  V30 4386 H 410.463 -0.881125 3.82071 0
M  V30 4387 H 411.953 -1.86759 3.73511 0
M  V30 4388 N 412.39 -1.55475 0.257931 0
M  V30 4389 C 413.636 -1.99502 -0.364266 0
M  V30 4390 C 413.969 -1.146 -1.56782 0
M  V30 4391 O 413.244 -0.211968 -1.93342 0
M  V30 4392 C 413.527 -3.51917 -0.763333 0
M  V30 4393 C 413.38 -4.4758 0.446371 0
M  V30 4394 C 414.699 -4.09742 -1.60623 0
M  V30 4395 H 411.818 -0.725277 -0.130929 0
M  V30 4396 H 414.46 -1.8653 0.361446 0
M  V30 4397 H 412.61 -3.63101 -1.38166 0
M  V30 4398 H 414.282 -4.48362 1.08487 0
M  V30 4399 H 412.525 -4.19947 1.08753 0
M  V30 4400 H 413.196 -5.51862 0.123645 0
M  V30 4401 H 415.672 -4.01727 -1.08418 0
M  V30 4402 H 414.548 -5.16631 -1.85429 0
M  V30 4403 H 414.809 -3.58889 -2.58169 0
M  V30 4404 N 413.868 0.0150385 -1.57593 0
M  V30 4405 C 414.831 0.995996 -2.06428 0
M  V30 4406 C 415.831 1.2818 -0.970903 0
M  V30 4407 O 417.021 1.22949 -1.23406 0
M  V30 4408 C 414.153 2.32506 -2.49307 0
M  V30 4409 H 415.346 0.573873 -2.94358 0
M  V30 4410 H 412.899 0.262186 -1.54085 0
M  V30 4411 H 413.634 2.79438 -1.64575 0
M  V30 4412 H 413.419 2.13087 -3.29145 0
M  V30 4413 H 414.909 3.02906 -2.87468 0
M  V30 4414 N 415.346 1.54954 0.287554 0
M  V30 4415 C 416.309 1.86076 1.33823 0
M  V30 4416 C 417.309 0.734414 1.43049 0
M  V30 4417 O 418.499 1.00266 1.42452 0
M  V30 4418 C 415.631 2.05305 2.72144 0
M  V30 4419 H 416.824 2.79984 1.07465 0
M  V30 4420 H 414.377 1.47223 0.524902 0
M  V30 4421 H 415.112 1.1373 3.03704 0
M  V30 4422 H 414.897 2.873 2.66836 0
M  V30 4423 H 416.387 2.30706 3.48087 0
M  V30 4424 N 416.824 -0.551391 1.4764 0
M  V30 4425 C 417.754 -1.66757 1.63445 0
M  V30 4426 C 418.735 -1.63077 0.483742 0
M  V30 4427 O 419.92 -1.80607 0.71377 0
M  V30 4428 C 417.05 -3.05387 1.65396 0
M  V30 4429 C 416.004 -3.23918 2.79752 0
M  V30 4430 C 415.33 -4.63393 2.66779 0
M  V30 4431 C 416.63 -3.08735 4.21284 0
M  V30 4432 H 418.324 -1.53786 2.56886 0
M  V30 4433 H 415.87 -0.738415 1.23626 0
M  V30 4434 H 417.823 -3.83325 1.75043 0
M  V30 4435 H 416.547 -3.19332 0.685195 0
M  V30 4436 H 415.206 -2.48391 2.69625 0
M  V30 4437 H 414.854 -4.74144 1.67918 0
M  V30 4438 H 414.554 -4.7674 3.43501 0
M  V30 4439 H 416.078 -5.43458 2.78364 0
M  V30 4440 H 417.492 -3.76484 4.32357 0
M  V30 4441 H 415.889 -3.33588 4.98838 0
M  V30 4442 H 416.959 -2.0541 4.39243 0
M  V30 4443 N 418.302 -1.35869 -0.798587 0
M  V30 4444 C 419.265 -1.29307 -1.89242 0
M  V30 4445 C 420.265 -0.202747 -1.59517 0
M  V30 4446 O 421.455 -0.456957 -1.681 0
M  V30 4447 C 418.587 -1.00229 -3.25833 0
M  V30 4448 H 419.78 -2.26576 -1.96478 0
M  V30 4449 H 417.333 -1.20509 -0.995358 0
M  V30 4450 H 418.068 -0.033801 -3.24282 0
M  V30 4451 H 417.853 -1.79121 -3.48795 0
M  V30 4452 H 419.343 -0.98219 -4.05885 0
M  V30 4453 N 419.78 1.02168 -1.19998 0
M  V30 4454 C 421.191 1.57135 -1.00825 0
M  V30 4455 C 421.542 1.91276 0.436818 0
M  V30 4456 O 420.667 1.71679 1.3174 0
M  V30 4457 C 421.262 2.85514 -1.82393 0
M  V30 4458 C 419.821 3.37027 -1.67601 0
M  V30 4459 C 418.968 2.10388 -1.80644 0
M  V30 4460 H 421.919 0.846106 -1.34264 0
M  V30 4461 H 421.94 3.56711 -1.32429 0
M  V30 4462 H 421.452 2.60634 -2.87561 0
M  V30 4463 H 419.553 3.66878 -0.650485 0
M  V30 4464 H 419.666 4.09572 -2.4857 0
M  V30 4465 H 418.03 2.22601 -1.23778 0
M  V30 4466 H 418.813 1.8794 -2.87286 0
M  V30 4467 N 421.258 1.00505 1.21394 0
M  V30 4468 C 422.669 0.721082 1.72213 0
M  V30 4469 C 423.02 -0.761263 1.80829 0
M  V30 4470 O 422.145 -1.59464 1.46288 0
M  V30 4471 C 422.74 1.30228 3.12772 0
M  V30 4472 C 421.299 1.06743 3.60947 0
M  V30 4473 C 420.446 1.41507 2.38477 0
M  V30 4474 H 423.397 1.17594 1.06571 0
M  V30 4475 H 423.418 0.686955 3.74247 0
M  V30 4476 H 422.93 2.38115 3.06468 0
M  V30 4477 H 421.031 0.00572162 3.726 0
M  V30 4478 H 421.144 1.73936 4.46411 0
M  V30 4479 H 419.508 0.833852 2.40664 0
M  V30 4480 H 420.291 2.50424 2.34824 0
M  V30 4481 N 422.737 -1.36956 0.779787 0
M  V30 4482 C 423.647 -2.33965 0.172491 0
M  V30 4483 C 424.663 -1.60574 -0.670222 0
M  V30 4484 O 425.839 -1.92617 -0.588263 0
M  V30 4485 C 422.904 -3.39761 -0.690173 0
M  V30 4486 C 421.965 -4.28964 0.169924 0
M  V30 4487 C 421.198 -5.29707 -0.651662 0
M  V30 4488 O 421.421 -5.38238 -1.88827 0
M  V30 4489 O 420.355 -6.01873 -0.0566264 0
M  V30 4490 H 424.181 -2.87647 0.974321 0
M  V30 4491 H 421.766 -1.39258 0.541078 0
M  V30 4492 H 423.648 -4.04471 -1.1824 0
M  V30 4493 H 422.323 -2.88394 -1.47006 0
M  V30 4494 H 421.23 -3.67326 0.708696 0
M  V30 4495 H 422.563 -4.83656 0.913085 0
M  V30 4496 N 424.215 -0.530993 -1.48385 0
M  V30 4497 C 425.463 0.00273189 -2.021 0
M  V30 4498 C 425.784 1.34672 -1.41027 0
M  V30 4499 O 425.054 1.8724 -0.576012 0
M  V30 4500 H 423.634 0.00399774 -0.746989 0
M  V30 4501 H 426.296 -0.695054 -1.82085 0
M  V30 4502 H 425.392 0.11031 -3.11905 0
M  V30 4503 N 425.693 1.55336 -0.266172 0
M  V30 4504 C 426.656 2.20878 0.612001 0
M  V30 4505 C 427.656 1.18388 1.08816 0
M  V30 4506 O 428.846 1.4335 0.989774 0
M  V30 4507 C 425.978 2.86765 1.84332 0
M  V30 4508 H 427.171 2.99873 0.0398718 0
M  V30 4509 H 424.724 1.56291 -0.0167309 0
M  V30 4510 H 425.459 2.11759 2.45619 0
M  V30 4511 H 425.244 3.61862 1.5099 0
M  V30 4512 H 426.734 3.36867 2.46801 0
M  V30 4513 N 427.171 -0.0066808 1.57599 0
M  V30 4514 C 428.101 -0.999296 2.11036 0
M  V30 4515 C 429.082 -1.36278 1.01795 0
M  V30 4516 O 430.267 -1.4477 1.29442 0
M  V30 4517 C 427.397 -2.29328 2.60818 0
M  V30 4518 C 426.351 -2.07159 3.74525 0
M  V30 4519 C 425.677 -3.42512 4.10596 0
M  V30 4520 C 426.977 -1.43959 5.02069 0
M  V30 4521 H 428.671 -0.554382 2.94223 0
M  V30 4522 H 426.217 -0.265221 1.41536 0
M  V30 4523 H 428.17 -2.99117 2.96828 0
M  V30 4524 H 426.894 -2.7592 1.74745 0
M  V30 4525 H 425.553 -1.39797 3.38899 0
M  V30 4526 H 425.201 -3.86795 3.21556 0
M  V30 4527 H 424.901 -3.28498 4.87199 0
M  V30 4528 H 426.425 -4.13628 4.4916 0
M  V30 4529 H 427.839 -2.03696 5.35893 0
M  V30 4530 H 426.236 -1.40452 5.83432 0
M  V30 4531 H 427.306 -0.407992 4.83181 0
M  V30 4532 N 428.649 -1.55105 -0.279332 0
M  V30 4533 C 429.612 -1.86783 -1.32834 0
M  V30 4534 C 430.612 -0.74199 -1.42657 0
M  V30 4535 O 431.802 -1.0102 -1.41918 0
M  V30 4536 C 428.934 -2.06746 -2.71052 0
M  V30 4537 H 430.127 -2.8055 -1.05979 0
M  V30 4538 H 427.68 -1.47499 -0.517087 0
M  V30 4539 H 428.415 -1.15339 -3.03097 0
M  V30 4540 H 428.2 -2.88711 -2.65309 0
M  V30 4541 H 429.69 -2.32549 -3.46858 0
M  V30 4542 N 430.127 0.543554 -1.4793 0
M  V30 4543 C 431.074 1.64942 -1.6144 0
M  V30 4544 C 432.044 1.59692 -0.456903 0
M  V30 4545 O 433.229 1.78321 -0.678688 0
M  V30 4546 C 430.369 3.03238 -1.64744 0
M  V30 4547 C 429.482 3.18823 -2.91506 0
M  V30 4548 C 428.617 4.47599 -2.86057 0
M  V30 4549 C 427.656 4.56664 -4.07584 0
M  V30 4550 N 426.793 5.76811 -4.00292 0
M  V30 4551 H 431.633 1.52733 -2.55884 0
M  V30 4552 H 429.17 0.7438 -1.2691 0
M  V30 4553 H 431.128 3.83339 -1.64641 0
M  V30 4554 H 429.758 3.1425 -0.738017 0
M  V30 4555 H 428.81 2.32064 -3.01414 0
M  V30 4556 H 430.122 3.21384 -3.81463 0
M  V30 4557 H 429.276 5.35975 -2.84281 0
M  V30 4558 H 428.015 4.47538 -1.93807 0
M  V30 4559 H 427.02 3.66697 -4.09651 0
M  V30 4560 H 428.245 4.58474 -5.00978 0
M  V30 4561 H 426.191 5.77673 -3.10853 0
M  V30 4562 H 426.108 5.80808 -4.8394 0
M  V30 4563 H 427.376 6.67512 -4.02553 0
M  V30 4564 N 431.605 1.3629 0.791371 0
M  V30 4565 C 432.535 1.33137 1.91825 0
M  V30 4566 C 433.516 0.203168 1.68882 0
M  V30 4567 O 434.701 0.400509 1.90025 0
M  V30 4568 C 431.831 1.11793 3.28816 0
M  V30 4569 C 430.785 2.21417 3.66277 0
M  V30 4570 C 430.111 1.85218 5.01596 0
M  V30 4571 C 431.411 3.63489 3.75064 0
M  V30 4572 H 433.105 2.2743 1.9472 0
M  V30 4573 H 430.651 1.09479 0.935437 0
M  V30 4574 H 432.604 1.08222 4.07266 0
M  V30 4575 H 431.328 0.139501 3.26302 0
M  V30 4576 H 429.987 2.2411 2.90121 0
M  V30 4577 H 429.635 0.859544 4.95602 0
M  V30 4578 H 429.335 2.58611 5.27631 0
M  V30 4579 H 430.859 1.832 5.82469 0
M  V30 4580 H 432.273 3.63034 4.43711 0
M  V30 4581 H 430.67 4.35771 4.12582 0
M  V30 4582 H 431.74 3.98536 2.76219 0
M  V30 4583 N 433.083 -1.0153 1.20538 0
M  V30 4584 C 434.331 -1.74803 1.01432 0
M  V30 4585 C 434.652 -1.8963 -0.454456 0
M  V30 4586 O 433.922 -1.43975 -1.32846 0
M  V30 4587 H 432.502 -0.647598 0.372324 0
M  V30 4588 H 435.164 -1.22402 1.5167 0
M  V30 4589 H 434.26 -2.75114 1.47373 0
M  V30 4590 N 434.561 -1.01147 -1.20859 0
M  V30 4591 C 435.809 -0.696486 -1.89719 0
M  V30 4592 C 436.13 0.775788 -1.78904 0
M  V30 4593 O 435.4 1.55759 -1.18811 0
M  V30 4594 H 433.98 -0.254628 -0.702263 0
M  V30 4595 H 436.642 -1.28197 -1.46804 0
M  V30 4596 H 435.738 -0.975357 -2.96468 0
M  V30 4597 N 436.039 1.36541 -0.78704 0
M  V30 4598 C 437.002 2.28413 -0.189778 0
M  V30 4599 C 438.002 1.48719 0.611499 0
M  V30 4600 O 439.192 1.68737 0.432842 0
M  V30 4601 C 436.324 3.32824 0.737638 0
M  V30 4602 H 437.517 2.82743 -0.999831 0
M  V30 4603 H 435.07 1.46065 -0.556298 0
M  V30 4604 H 435.805 2.83646 1.57212 0
M  V30 4605 H 435.59 3.91752 0.165044 0
M  V30 4606 H 437.08 4.0144 1.15047 0
M  V30 4607 N 437.518 0.538854 1.48102 0
M  V30 4608 C 438.766 0.00798599 2.02098 0
M  V30 4609 C 439.087 -1.33922 1.41739 0
M  V30 4610 O 438.357 -1.86932 0.585934 0
M  V30 4611 H 436.937 -3.62179e-05 0.747 0
M  V30 4612 H 439.599 0.7047 1.81714 0
M  V30 4613 H 438.695 -0.0937672 3.11959 0
M  V30 4614 N 438.996 -1.55193 0.274407 0
M  V30 4615 C 439.928 -2.1989 -0.646595 0
M  V30 4616 C 440.941 -1.1834 -1.11801 0
M  V30 4617 O 442.13 -1.4507 -1.04004 0
M  V30 4618 C 439.23 -2.8104 -1.89393 0
M  V30 4619 C 438.403 -4.08274 -1.56943 0
M  V30 4620 C 437.462 -4.53478 -2.66916 0
M  V30 4621 O 436.488 -5.19267 -2.33132 0
M  V30 4622 N 437.69 -4.2356 -3.9696 0
M  V30 4623 H 440.455 -2.99556 -0.0928686 0
M  V30 4624 H 438.016 -1.61618 0.0954783 0
M  V30 4625 H 440.008 -3.08226 -2.62257 0
M  V30 4626 H 438.578 -2.05372 -2.35672 0
M  V30 4627 H 437.798 -3.88384 -0.674655 0
M  V30 4628 H 439.086 -4.91173 -1.32764 0
M  V30 4629 H 438.484 -3.70799 -4.27229 0
M  V30 4630 H 437.041 -4.55518 -4.66205 0
M  V30 4631 N 440.474 -0.00167713 -1.576 0
M  V30 4632 C 441.437 0.974046 -2.07473 0
M  V30 4633 C 442.437 1.27143 -0.984444 0
M  V30 4634 O 443.627 1.21633 -1.24703 0
M  V30 4635 C 440.759 2.29849 -2.51759 0
M  V30 4636 H 441.952 0.54262 -2.9495 0
M  V30 4637 H 439.505 0.245829 -1.54355 0
M  V30 4638 H 440.24 2.77677 -1.67529 0
M  V30 4639 H 440.025 2.09584 -3.31386 0
M  V30 4640 H 441.515 2.9984 -2.90664 0
M  V30 4641 N 441.952 1.55251 0.271103 0
M  V30 4642 C 442.915 1.87484 1.31842 0
M  V30 4643 C 443.915 0.749545 1.42262 0
M  V30 4644 O 445.105 1.01771 1.4138 0
M  V30 4645 C 442.237 2.0818 2.69951 0
M  V30 4646 H 443.43 2.81108 1.0449 0
M  V30 4647 H 440.983 1.47771 0.509258 0
M  V30 4648 H 441.718 1.16944 3.02481 0
M  V30 4649 H 441.503 2.90114 2.63774 0
M  V30 4650 H 442.993 2.34385 3.4562 0
M  V30 4651 N 443.43 -0.535701 1.48216 0
M  V30 4652 C 444.846 -0.863701 1.3421 0
M  V30 4653 C 445.046 -1.98458 0.34879 0
M  V30 4654 O 444.102 -2.51432 -0.23204 0
M  V30 4655 C 445.415 -1.23662 2.74095 0
M  V30 4656 C 446.963 -1.34683 2.82541 0
M  V30 4657 C 447.438 -1.75322 4.23115 0
M  V30 4658 N 448.929 -1.82434 4.2576 0
M  V30 4659 C 449.664 -2.15252 5.31464 0
M  V30 4660 N 449.16 -2.46533 6.47452 0
M  V30 4661 N 450.953 -2.16209 5.18855 0
M  V30 4662 H 443.104 0.203965 2.11418 0
M  V30 4663 H 445.367 0.0286033 0.947568 0
M  V30 4664 H 445.073 -0.486674 3.48316 0
M  V30 4665 H 444.947 -2.18805 3.07253 0
M  V30 4666 H 447.334 -2.08756 2.08579 0
M  V30 4667 H 447.415 -0.376756 2.5301 0
M  V30 4668 H 447.059 -1.01812 4.97591 0
M  V30 4669 H 446.989 -2.7337 4.50085 0
M  V30 4670 H 449.48 -1.6056 3.42095 0
M  V30 4671 H 449.793 -2.70662 7.23852 0
M  V30 4672 H 448.138 -2.44065 6.50736 0
M  V30 4673 H 451.329 -1.91224 4.2726 0
M  V30 4674 H 451.502 -2.41453 6.01335 0
M  V30 4675 N 444.908 -1.36708 -0.784132 0
M  V30 4676 C 445.871 -1.31307 -1.87859 0
M  V30 4677 C 446.871 -0.219654 -1.59293 0
M  V30 4678 O 448.061 -0.47476 -1.67606 0
M  V30 4679 C 445.193 -1.03679 -3.24751 0
M  V30 4680 H 446.386 -2.28647 -1.94064 0
M  V30 4681 H 443.939 -1.21558 -0.98252 0
M  V30 4682 H 444.674 -0.0681936 -3.24228 0
M  V30 4683 H 444.459 -1.82811 -3.46876 0
M  V30 4684 H 445.949 -1.02518 -4.04821 0
M  V30 4685 N 446.386 1.0089 -1.21074 0
M  V30 4686 C 447.634 1.74262 -1.02358 0
M  V30 4687 C 447.955 1.89869 0.444393 0
M  V30 4688 O 447.225 1.44677 1.32081 0
M  V30 4689 H 445.805 0.645615 -0.375754 0
M  V30 4690 H 448.467 1.21596 -1.52317 0
M  V30 4691 H 447.563 2.74328 -1.4883 0
M  V30 4692 N 447.864 1.01787 1.20321 0
M  V30 4693 C 449.092 0.727194 1.937 0
M  V30 4694 C 449.507 -0.712305 1.74848 0
M  V30 4695 O 448.864 -1.48327 1.06327 0
M  V30 4696 C 448.915 1.05497 3.45764 0
M  V30 4697 O 448.636 2.43794 3.64 0
M  V30 4698 C 450.137 0.785534 4.36285 0
M  V30 4699 H 447.357 0.266939 0.615617 0
M  V30 4700 H 449.901 1.35939 1.52777 0
M  V30 4701 H 448.056 0.468158 3.84561 0
M  V30 4702 H 448.47 2.55656 4.57974 0
M  V30 4703 H 449.944 1.06495 5.4163 0
M  V30 4704 H 450.421 -0.280273 4.38305 0
M  V30 4705 H 451.027 1.35456 4.03152 0
M  V30 4706 N 449.342 -1.36122 0.79427 0
M  V30 4707 C 450.57 -2.03362 0.380989 0
M  V30 4708 C 450.985 -1.59881 -1.00416 0
M  V30 4709 O 450.342 -0.790515 -1.6449 0
M  V30 4710 C 450.393 -3.58804 0.440649 0
M  V30 4711 O 450.114 -4.007 1.77118 0
M  V30 4712 C 451.615 -4.43296 0.0186117 0
M  V30 4713 H 448.835 -0.652526 0.156367 0
M  V30 4714 H 451.379 -1.73998 1.07447 0
M  V30 4715 H 449.534 -3.8686 -0.204458 0
M  V30 4716 H 449.948 -4.95309 1.72538 0
M  V30 4717 H 451.422 -5.51887 0.111488 0
M  V30 4718 H 451.899 -4.2684 -1.03461 0
M  V30 4719 H 452.505 -4.20512 0.636395 0
M  V30 4720 N 450.82 -0.546701 -1.47814 0
M  V30 4721 C 451.783 0.196287 -2.28358 0
M  V30 4722 C 452.783 0.852437 -1.36346 0
M  V30 4723 O 453.973 0.709913 -1.59078 0
M  V30 4724 C 451.105 1.28579 -3.15722 0
M  V30 4725 H 452.298 -0.511086 -2.95513 0
M  V30 4726 H 449.851 -0.303248 -1.5333 0
M  V30 4727 H 450.586 2.0259 -2.53235 0
M  V30 4728 H 450.371 0.820229 -3.83425 0
M  V30 4729 H 451.861 1.80793 -3.76435 0
M  V30 4730 N 452.299 1.55045 -0.282633 0
M  V30 4731 C 453.229 2.2579 0.595066 0
M  V30 4732 C 454.21 1.25074 1.15284 0
M  V30 4733 O 455.395 1.5381 1.18559 0
M  V30 4734 C 452.525 2.98472 1.77572 0
M  V30 4735 C 451.479 4.0618 1.34914 0
M  V30 4736 C 450.805 4.66477 2.6135 0
M  V30 4737 C 452.105 5.1996 0.493821 0
M  V30 4738 H 453.799 2.994 0.00505653 0
M  V30 4739 H 451.345 1.44 0.000992001 0
M  V30 4740 H 453.298 3.46677 2.39568 0
M  V30 4741 H 452.022 2.2241 2.39168 0
M  V30 4742 H 450.681 3.58797 0.752338 0
M  V30 4743 H 450.329 3.87074 3.2122 0
M  V30 4744 H 450.029 5.39207 2.33516 0
M  V30 4745 H 451.553 5.17435 3.24181 0
M  V30 4746 H 452.967 5.64172 1.01898 0
M  V30 4747 H 451.364 5.99299 0.310047 0
M  V30 4748 H 452.434 4.82462 -0.485593 0
M  V30 4749 N 453.777 0.010035 1.57597 0
M  V30 4750 C 454.74 -0.963029 2.07986 0
M  V30 4751 C 455.74 -1.26619 0.991173 0
M  V30 4752 O 456.93 -1.2097 1.25347 0
M  V30 4753 C 454.062 -2.2851 2.52974 0
M  V30 4754 H 455.255 -0.526971 2.95234 0
M  V30 4755 H 452.808 -0.237639 1.54483 0
M  V30 4756 H 453.543 -2.76784 1.69 0
M  V30 4757 H 453.328 -2.07824 3.32493 0
M  V30 4758 H 454.818 -2.98294 2.9225 0
M  V30 4759 N 455.255 -1.55392 -0.262866 0
M  V30 4760 C 456.502 -1.76476 -0.993109 0
M  V30 4761 C 456.83 -0.571479 -1.85915 0
M  V30 4762 O 456.085 0.445733 -1.90556 0
M  V30 4763 C 456.384 -3.02889 -1.89718 0
M  V30 4764 C 456.05 -4.34974 -1.18781 0
M  V30 4765 C 454.712 -4.7087 -0.991699 0
M  V30 4766 C 457.064 -5.16695 -0.683798 0
M  V30 4767 C 454.392 -5.86036 -0.279024 0
M  V30 4768 C 456.744 -6.32598 0.0153327 0
M  V30 4769 C 455.408 -6.67127 0.223062 0
M  V30 4770 H 454.678 -0.64577 -0.363404 0
M  V30 4771 H 457.325 -1.89664 -0.264525 0
M  V30 4772 H 455.63 -2.84644 -2.6923 0
M  V30 4773 H 457.327 -3.16399 -2.46359 0
M  V30 4774 H 453.917 -4.06765 -1.35058 0
M  V30 4775 H 458.101 -4.8943 -0.8229 0
M  V30 4776 H 453.357 -6.11306 -0.107456 0
M  V30 4777 H 457.531 -6.95171 0.413584 0
M  V30 4778 H 455.158 -7.56216 0.777265 0
M  V30 4779 N 456.733 0.527833 -1.48498 0
M  V30 4780 C 457.98 1.28354 -1.56625 0
M  V30 4781 C 458.308 1.93 -0.241096 0
M  V30 4782 O 457.563 1.79967 0.768798 0
M  V30 4783 C 457.862 2.39275 -2.65485 0
M  V30 4784 C 457.528 1.92268 -4.07853 0
M  V30 4785 C 456.19 1.79166 -4.46602 0
M  V30 4786 C 458.542 1.56771 -4.97064 0
M  V30 4787 C 455.87 1.28905 -5.72364 0
M  V30 4788 C 458.222 1.07972 -6.23318 0
M  V30 4789 C 456.886 0.934887 -6.60921 0
M  V30 4790 H 456.156 0.469682 -0.573131 0
M  V30 4791 H 458.803 0.588781 -1.82224 0
M  V30 4792 H 457.108 3.1443 -2.33754 0
M  V30 4793 H 458.805 2.974 -2.68988 0
M  V30 4794 H 455.395 2.03417 -3.77252 0
M  V30 4795 H 459.579 1.65753 -4.67803 0
M  V30 4796 H 454.835 1.16381 -6.00221 0
M  V30 4797 H 459.009 0.795775 -6.91838 0
M  V30 4798 H 456.636 0.543231 -7.58257 0
M  V30 4799 N 458.211 1.37122 0.776871 0
M  V30 4800 C 459.436 1.354 1.57104 0
M  V30 4801 C 459.861 -0.0595562 1.88006 0
M  V30 4802 O 459.219 -1.03514 1.48844 0
M  V30 4803 C 459.267 2.19472 2.8612 0
M  V30 4804 O 458.371 1.59582 3.80273 0
M  V30 4805 H 457.712 0.462869 0.476076 0
M  V30 4806 H 460.242 1.80577 0.961932 0
M  V30 4807 H 460.252 2.32502 3.35271 0
M  V30 4808 H 458.927 3.22222 2.62956 0
M  V30 4809 H 457.504 1.55564 3.38902 0
M  V30 4810 N 459.689 -1.00246 1.21608 0
M  V30 4811 C 460.914 -1.78167 1.06167 0
M  V30 4812 C 461.339 -1.84138 -0.384035 0
M  V30 4813 O 460.697 -1.28683 -1.27712 0
M  V30 4814 C 460.745 -3.19786 1.66642 0
M  V30 4815 O 459.849 -4.02153 0.913613 0
M  V30 4816 H 459.19 -0.549 0.37349 0
M  V30 4817 H 461.72 -1.25994 1.61204 0
M  V30 4818 H 461.73 -3.70451 1.70969 0
M  V30 4819 H 460.405 -3.14754 2.7185 0
M  V30 4820 H 458.982 -3.60711 0.945635 0
M  V30 4821 N 461.167 -1.02423 -1.1978 0
M  V30 4822 C 462.392 -0.7373 -1.93852 0
M  V30 4823 C 462.817 0.696923 -1.74713 0
M  V30 4824 O 462.175 1.48056 -1.04638 0
M  V30 4825 C 462.223 -1.08783 -3.438 0
M  V30 4826 O 461.327 -0.20383 -4.11896 0
M  V30 4827 H 460.668 -0.27284 -0.605355 0
M  V30 4828 H 463.198 -1.36966 -1.51992 0
M  V30 4829 H 463.208 -1.04276 -3.9445 0
M  V30 4830 H 461.883 -2.13274 -3.57053 0
M  V30 4831 H 460.46 -0.307091 -3.71633 0
M  V30 4832 N 462.645 1.35699 -0.801477 0
M  V30 4833 C 463.891 1.99208 -0.380022 0
M  V30 4834 C 464.224 1.63445 1.04878 0
M  V30 4835 O 463.499 0.895223 1.72673 0
M  V30 4836 C 463.782 3.55755 -0.557708 0
M  V30 4837 C 463.635 4.01332 -2.03107 0
M  V30 4838 C 464.954 4.40096 0.0197968 0
M  V30 4839 H 462.073 0.723667 -0.139552 0
M  V30 4840 H 464.715 1.60928 -1.01006 0
M  V30 4841 H 462.865 3.88494 -0.0213741 0
M  V30 4842 H 464.537 3.79026 -2.62939 0
M  V30 4843 H 462.78 3.52429 -2.52936 0
M  V30 4844 H 463.451 5.10234 -2.1063 0
M  V30 4845 H 465.927 4.13786 -0.438179 0
M  V30 4846 H 464.803 5.48735 -0.134477 0
M  V30 4847 H 465.064 4.2786 1.11303 0
M  V30 4848 N 464.123 0.554532 1.47522 0
M  V30 4849 C 465.071 -0.207765 2.3167 0
M  V30 4850 C 466.065 -0.911914 1.4276 0
M  V30 4851 O 467.271 -0.833504 1.59539 0
M  V30 4852 H 463.646 -0.0858726 0.747081 0
M  V30 4853 H 465.617 0.521178 2.93813 0
M  V30 4854 C 464.366 -1.2263 3.25357 0
M  V30 4855 H 463.689 -0.693887 3.93732 0
M  V30 4856 H 465.129 -1.73062 3.87073 0
M  V30 4857 C 463.588 -2.27278 2.4869 0
M  V30 4858 O 464.118 -3.34156 2.22941 0
M  V30 4859 N 462.324 -2.01134 2.09746 0
M  V30 4860 H 461.871 -1.14232 2.30887 0
M  V30 4861 H 461.829 -2.71369 1.58765 0
M  V30 4862 N 465.601 -1.54893 0.290851 0
M  V30 4863 C 467.012 -1.85584 -0.203816 0
M  V30 4864 C 467.363 -1.21285 -1.54222 0
M  V30 4865 O 466.488 -0.506841 -2.10381 0
M  V30 4866 C 467.083 -3.367 -0.376595 0
M  V30 4867 C 465.642 -3.6746 -0.815485 0
M  V30 4868 C 464.789 -2.77178 0.0821087 0
M  V30 4869 H 467.74 -1.50208 0.512175 0
M  V30 4870 H 467.761 -3.60656 -1.21275 0
M  V30 4871 H 467.273 -3.8347 0.59767 0
M  V30 4872 H 465.374 -3.26201 -1.80066 0
M  V30 4873 H 465.487 -4.7478 -0.641905 0
M  V30 4874 H 463.851 -2.50925 -0.436895 0
M  V30 4875 H 464.634 -3.26767 1.05254 0
M  V30 4876 N 467.08 -0.0183926 -1.57589 0
M  V30 4877 C 468.326 0.663543 -1.91638 0
M  V30 4878 C 468.659 1.72392 -0.894134 0
M  V30 4879 O 467.934 1.94316 0.0846449 0
M  V30 4880 C 468.217 1.28984 -3.36207 0
M  V30 4881 C 468.07 0.239761 -4.49161 0
M  V30 4882 C 469.389 2.2109 -3.80536 0
M  V30 4883 H 466.508 0.239746 -0.696915 0
M  V30 4884 H 469.15 -0.073456 -1.89858 0
M  V30 4885 H 467.3 1.91799 -3.37854 0
M  V30 4886 H 468.972 -0.390119 -4.59647 0
M  V30 4887 H 467.215 -0.435972 -4.31604 0
M  V30 4888 H 467.886 0.717383 -5.47319 0
M  V30 4889 H 470.362 1.68273 -3.80557 0
M  V30 4890 H 469.238 2.61869 -4.82406 0
M  V30 4891 H 469.499 3.09764 -3.15434 0
M  V30 4892 N 468.558 1.5553 0.254621 0
M  V30 4893 C 469.488 1.9268 1.31897 0
M  V30 4894 C 470.469 0.790797 1.506 0
M  V30 4895 O 471.654 1.05045 1.63337 0
M  V30 4896 C 468.784 2.21477 2.67517 0
M  V30 4897 C 467.738 3.37256 2.63519 0
M  V30 4898 C 467.064 3.51576 4.02862 0
M  V30 4899 C 468.364 4.73157 2.21179 0
M  V30 4900 H 470.058 2.81832 1.01051 0
M  V30 4901 H 467.604 1.35599 0.484662 0
M  V30 4902 H 469.557 2.46055 3.42104 0
M  V30 4903 H 468.281 1.29144 2.99982 0
M  V30 4904 H 466.94 3.12675 1.9139 0
M  V30 4905 H 466.588 2.56676 4.32581 0
M  V30 4906 H 466.288 4.2943 4.01078 0
M  V30 4907 H 467.812 3.78467 4.79161 0
M  V30 4908 H 469.226 4.97158 2.85494 0
M  V30 4909 H 467.623 5.54058 2.30521 0
M  V30 4910 H 468.693 4.70739 1.16332 0
M  V30 4911 N 470.036 -0.519951 1.48776 0
M  V30 4912 C 471.266 -1.29783 1.60748 0
M  V30 4913 C 471.674 -1.87253 0.27072 0
M  V30 4914 O 471.017 -1.67628 -0.751438 0
M  V30 4915 C 471.079 -2.47984 2.60277 0
M  V30 4916 C 470.743 -2.11526 4.051 0
M  V30 4917 C 471.74 -1.66608 4.92481 0
M  V30 4918 C 469.425 -2.21742 4.50706 0
M  V30 4919 C 471.419 -1.32384 6.23501 0
M  V30 4920 C 469.106 -1.87129 5.81744 0
M  V30 4921 C 470.104 -1.42523 6.67964 0
M  V30 4922 O 469.792 -1.0837 7.96562 0
M  V30 4923 H 469.524 -0.400562 0.544542 0
M  V30 4924 H 472.078 -0.632879 1.95407 0
M  V30 4925 H 470.308 -3.17493 2.2076 0
M  V30 4926 H 471.997 -3.10036 2.61978 0
M  V30 4927 H 472.763 -1.58178 4.58481 0
M  V30 4928 H 468.642 -2.55415 3.83776 0
M  V30 4929 H 472.186 -0.974949 6.90754 0
M  V30 4930 H 468.083 -1.95204 6.15277 0
M  V30 4931 H 468.851 -1.21681 8.09405 0
M  V30 4932 N 471.514 -1.37532 -0.769588 0
M  V30 4933 C 472.76 -1.33057 -1.53048 0
M  V30 4934 C 473.093 0.0841865 -1.94017 0
M  V30 4935 O 472.368 1.04198 -1.64235 0
M  V30 4936 C 472.651 -2.27166 -2.79406 0
M  V30 4937 C 472.504 -3.77429 -2.44677 0
M  V30 4938 C 473.823 -2.19683 -3.81349 0
M  V30 4939 H 470.942 -0.484655 -0.555228 0
M  V30 4940 H 473.584 -1.68251 -0.882702 0
M  V30 4941 H 471.734 -1.97283 -3.34682 0
M  V30 4942 H 473.406 -4.17918 -1.953 0
M  V30 4943 H 471.649 -3.95892 -1.77346 0
M  V30 4944 H 472.32 -4.38716 -3.35011 0
M  V30 4945 H 474.796 -2.46029 -3.35573 0
M  V30 4946 H 473.672 -2.87668 -4.67481 0
M  V30 4947 H 473.933 -1.19045 -4.25771 0
M  V30 4948 N 472.992 0.995999 -1.22138 0
M  V30 4949 C 474.239 1.7351 -1.04406 0
M  V30 4950 C 474.567 1.89884 0.421244 0
M  V30 4951 O 473.822 1.43683 1.32867 0
M  V30 4952 C 474.121 3.14553 -1.6968 0
M  V30 4953 C 473.787 3.18102 -3.19565 0
M  V30 4954 C 472.449 3.18778 -3.60464 0
M  V30 4955 C 474.801 3.14636 -4.15516 0
M  V30 4956 C 472.129 3.13684 -4.95801 0
M  V30 4957 C 474.481 3.11084 -5.50826 0
M  V30 4958 C 473.145 3.10074 -5.91109 0
M  V30 4959 H 472.415 0.634916 -0.38205 0
M  V30 4960 H 475.062 1.1667 -1.51857 0
M  V30 4961 H 473.367 3.74682 -1.14546 0
M  V30 4962 H 475.064 3.70477 -1.53454 0
M  V30 4963 H 471.654 3.18324 -2.86998 0
M  V30 4964 H 475.838 3.13266 -3.84939 0
M  V30 4965 H 471.094 3.11245 -5.26247 0
M  V30 4966 H 475.268 3.07357 -6.24904 0
M  V30 4967 H 472.895 3.05882 -6.95946 0
M  V30 4968 N 474.47 1.03057 1.19235 0
M  V30 4969 C 475.698 0.747697 1.92917 0
M  V30 4970 C 476.113 -0.69372 1.75593 0
M  V30 4971 O 475.47 -1.47191 1.07894 0
M  V30 4972 C 475.521 1.09159 3.44625 0
M  V30 4973 O 475.242 2.47641 3.61394 0
M  V30 4974 C 476.743 0.831763 4.35427 0
M  V30 4975 H 473.963 0.273453 0.612751 0
M  V30 4976 H 476.507 1.37552 1.51327 0
M  V30 4977 H 474.662 0.508919 3.84043 0
M  V30 4978 H 475.076 2.60499 4.55237 0
M  V30 4979 H 476.55 1.12233 5.4047 0
M  V30 4980 H 477.027 -0.233769 4.38577 0
M  V30 4981 H 477.633 1.39725 4.01693 0
M  V30 4982 N 475.948 -1.35272 0.808662 0
M  V30 4983 C 476.911 -2.28082 0.226093 0
M  V30 4984 C 477.911 -1.49673 -0.587762 0
M  V30 4985 O 479.101 -1.69404 -0.405943 0
M  V30 4986 C 476.233 -3.33955 -0.684596 0
M  V30 4987 H 477.426 -2.81116 1.04469 0
M  V30 4988 H 474.979 -1.45162 0.579466 0
M  V30 4989 H 475.714 -2.86111 -1.5268 0
M  V30 4990 H 475.499 -3.91965 -0.102699 0
M  V30 4991 H 476.989 -4.03219 -1.08646 0
M  V30 4992 N 477.426 -0.562348 -1.47226 0
M  V30 4993 C 478.674 -0.0401371 -2.0206 0
M  V30 4994 C 478.995 1.3165 -1.43852 0
M  V30 4995 O 478.265 1.85976 -0.615599 0
M  V30 4996 H 476.845 -0.0118479 -0.746906 0
M  V30 4997 H 479.507 -0.73352 -1.8057 0
M  V30 4998 H 478.603 0.0441254 -3.12069 0
M  V30 4999 N 478.904 1.54736 -0.299062 0
M  V30 5000 C 480.181 1.92187 0.363802 0
M  V30 5001 C 480.561 1.22607 1.71845 0
M  V30 5002 O 479.909 0.361141 2.25628 0
M  V30 5003 C 480.119 3.45678 0.480377 0
M  V30 5004 C 481.467 4.17885 0.752147 0
M  V30 5005 O 482.491 3.51702 0.564264 0
M  V30 5006 O 481.35 5.35048 1.11294 0
M  V30 5007 H 478.444 0.801681 0.203066 0
M  V30 5008 H 480.99 1.66115 -0.346978 0
M  V30 5009 H 479.762 3.88443 -0.471999 0
M  V30 5010 H 479.385 3.77779 1.2397 0
M  V30 5011 N 480.382 0.0267497 1.57577 0
M  V30 5012 C 481.312 -0.954308 2.13108 0
M  V30 5013 C 482.293 -1.34088 1.04663 0
M  V30 5014 O 483.478 -1.41992 1.32484 0
M  V30 5015 C 480.608 -2.23744 2.65624 0
M  V30 5016 C 479.562 -1.99168 3.78835 0
M  V30 5017 C 478.888 -3.33726 4.17769 0
M  V30 5018 C 480.188 -1.33277 5.0501 0
M  V30 5019 H 481.882 -0.491848 2.95332 0
M  V30 5020 H 479.428 -0.23514 1.42067 0
M  V30 5021 H 481.381 -2.92754 3.03106 0
M  V30 5022 H 480.105 -2.72151 1.80558 0
M  V30 5023 H 478.764 -1.32577 3.41788 0
M  V30 5024 H 478.412 -3.79888 3.29688 0
M  V30 5025 H 478.112 -3.18089 4.94058 0
M  V30 5026 H 479.636 -4.04008 4.57832 0
M  V30 5027 H 481.05 -1.92283 5.40093 0
M  V30 5028 H 479.447 -1.28045 5.8628 0
M  V30 5029 H 480.517 -0.305411 4.83937 0
M  V30 5030 N 481.861 -1.55662 -0.24637 0
M  V30 5031 C 482.791 -1.93377 -1.30873 0
M  V30 5032 C 483.772 -0.798773 -1.50179 0
M  V30 5033 O 484.957 -1.0591 -1.62778 0
M  V30 5034 C 482.087 -2.22893 -2.66338 0
M  V30 5035 C 481.041 -3.38649 -2.61727 0
M  V30 5036 C 480.367 -3.53708 -4.00992 0
M  V30 5037 C 481.667 -4.74323 -2.18666 0
M  V30 5038 H 483.361 -2.82363 -0.995552 0
M  V30 5039 H 480.907 -1.35854 -0.477464 0
M  V30 5040 H 482.86 -2.47866 -3.40794 0
M  V30 5041 H 481.584 -1.30733 -2.99293 0
M  V30 5042 H 480.243 -3.13685 -1.89729 0
M  V30 5043 H 479.891 -2.58967 -4.31214 0
M  V30 5044 H 479.591 -4.31551 -3.98795 0
M  V30 5045 H 481.115 -3.81003 -4.77147 0
M  V30 5046 H 482.529 -4.98665 -2.82854 0
M  V30 5047 H 480.926 -5.55273 -2.27579 0
M  V30 5048 H 481.996 -4.71349 -1.13834 0
M  V30 5049 N 483.339 0.512053 -1.4905 0
M  V30 5050 C 484.75 1.09376 -1.51307 0
M  V30 5051 C 485.101 1.94 -0.292971 0
M  V30 5052 O 484.226 2.07965 0.598277 0
M  V30 5053 C 484.821 1.99031 -2.74176 0
M  V30 5054 C 483.38 2.52385 -2.79247 0
M  V30 5055 C 482.527 1.29749 -2.45073 0
M  V30 5056 H 485.478 0.296467 -1.55906 0
M  V30 5057 H 485.499 2.83569 -2.53711 0
M  V30 5058 H 485.011 1.37412 -3.62959 0
M  V30 5059 H 483.112 3.17673 -1.94716 0
M  V30 5060 H 483.225 2.90293 -3.81139 0
M  V30 5061 H 481.589 1.61912 -1.96612 0
M  V30 5062 H 482.372 0.698555 -3.36118 0
M  V30 5063 N 484.817 1.37938 0.762283 0
M  V30 5064 C 486.233 1.18945 1.06415 0
M  V30 5065 C 486.433 0.0321163 2.01474 0
M  V30 5066 O 485.489 -0.624844 2.44647 0
M  V30 5067 C 486.802 2.51218 1.65258 0
M  V30 5068 C 488.35 2.57824 1.7747 0
M  V30 5069 C 488.825 3.90251 2.39725 0
M  V30 5070 N 490.316 3.91744 2.47166 0
M  V30 5071 C 491.051 4.90966 2.96209 0
M  V30 5072 N 490.547 6.00585 3.45354 0
M  V30 5073 N 492.34 4.78363 2.9517 0
M  V30 5074 H 484.491 2.11994 0.131301 0
M  V30 5075 H 486.754 0.940262 0.120879 0
M  V30 5076 H 486.46 3.36317 1.02878 0
M  V30 5077 H 486.334 2.68989 2.64433 0
M  V30 5078 H 488.721 1.73126 2.3898 0
M  V30 5079 H 488.802 2.43928 0.770241 0
M  V30 5080 H 488.446 4.75368 1.78852 0
M  V30 5081 H 488.376 4.01454 3.40796 0
M  V30 5082 H 490.867 3.12563 2.12397 0
M  V30 5083 H 491.18 6.72236 3.81207 0
M  V30 5084 H 489.525 6.04217 3.43434 0
M  V30 5085 H 492.716 3.91841 2.56082 0
M  V30 5086 H 492.889 5.55843 3.33081 0
M  V30 5087 N 486.295 -0.989507 1.22664 0
M  V30 5088 C 487.258 -2.06183 1.00106 0
M  V30 5089 C 488.258 -1.60765 -0.0337726 0
M  V30 5090 O 489.448 -1.72989 0.205072 0
M  V30 5091 C 486.58 -3.37021 0.51279 0
M  V30 5092 H 487.773 -2.27629 1.95256 0
M  V30 5093 H 485.326 -1.16158 1.0458 0
M  V30 5094 H 486.061 -3.21261 -0.442917 0
M  V30 5095 H 485.846 -3.71323 1.25942 0
M  V30 5096 H 487.336 -4.1591 0.375315 0
M  V30 5097 N 487.773 -1.03688 -1.18687 0
M  V30 5098 C 489.021 -0.736572 -1.88199 0
M  V30 5099 C 489.342 0.737665 -1.80509 0
M  V30 5100 O 488.612 1.53204 -1.22088 0
M  V30 5101 H 487.192 -0.269466 -0.696704 0
M  V30 5102 H 489.854 -1.31282 -1.44052 0
M  V30 5103 H 488.95 -1.03802 -2.94332 0
M  V30 5104 N 489.251 1.34841 -0.815825 0
M  V30 5105 C 490.662 1.80937 -0.46029 0
M  V30 5106 C 491.013 1.67685 1.01863 0
M  V30 5107 O 490.138 1.21277 1.79223 0
M  V30 5108 C 490.733 3.28509 -0.828708 0
M  V30 5109 C 489.292 3.72712 -0.525644 0
M  V30 5110 C 488.439 2.56676 -1.04941 0
M  V30 5111 H 491.39 1.22688 -1.00664 0
M  V30 5112 H 491.411 3.80279 -0.129757 0
M  V30 5113 H 490.923 3.38122 -1.90513 0
M  V30 5114 H 489.024 3.68642 0.541666 0
M  V30 5115 H 489.137 4.67119 -1.06474 0
M  V30 5116 H 487.501 2.50302 -0.471286 0
M  V30 5117 H 488.284 2.69063 -2.13214 0
M  V30 5118 N 490.729 0.570148 1.46925 0
M  V30 5119 C 492.145 0.23087 1.57921 0
M  V30 5120 C 492.345 -1.26676 1.56702 0
M  V30 5121 O 491.401 -2.04774 1.47729 0
M  V30 5122 C 492.714 0.868973 2.8787 0
M  V30 5123 C 494.262 0.841397 3.01479 0
M  V30 5124 C 494.737 1.45881 4.34146 0
M  V30 5125 N 496.228 1.42258 4.40814 0
M  V30 5126 C 496.963 1.8698 5.42057 0
M  V30 5127 N 496.459 2.39618 6.50042 0
M  V30 5128 N 498.252 1.77972 5.33181 0
M  V30 5129 H 490.403 1.54301 1.45962 0
M  V30 5130 H 492.666 0.644224 0.69547 0
M  V30 5131 H 492.372 1.922 2.94537 0
M  V30 5132 H 492.246 0.369682 3.75384 0
M  V30 5133 H 494.633 -0.202973 2.94401 0
M  V30 5134 H 494.714 1.37858 2.15474 0
M  V30 5135 H 494.358 2.50231 4.4198 0
M  V30 5136 H 494.288 0.896958 5.18905 0
M  V30 5137 H 496.779 1.03768 3.63374 0
M  V30 5138 H 497.092 2.71633 7.23488 0
M  V30 5139 H 495.437 2.43636 6.50897 0
M  V30 5140 H 498.628 1.36617 4.4772 0
M  V30 5141 H 498.801 2.13143 6.11943 0
M  V30 5142 N 492.207 -1.54576 0.307264 0
M  V30 5143 C 493.454 -2.00263 -0.300167 0
M  V30 5144 C 493.782 -1.19561 -1.53413 0
M  V30 5145 O 493.037 -0.261487 -1.93945 0
M  V30 5146 C 493.336 -3.50572 -0.695253 0
M  V30 5147 C 493.002 -4.48771 0.437679 0
M  V30 5148 C 491.664 -4.7534 0.748681 0
M  V30 5149 C 494.016 -5.0721 1.19949 0
M  V30 5150 C 491.344 -5.5761 1.8245 0
M  V30 5151 C 493.696 -5.90651 2.26527 0
M  V30 5152 C 492.36 -6.15528 2.58227 0
M  V30 5153 H 491.63 -0.732814 -0.109839 0
M  V30 5154 H 494.277 -1.86664 0.427661 0
M  V30 5155 H 492.582 -3.61814 -1.50326 0
M  V30 5156 H 494.279 -3.83352 -1.17653 0
M  V30 5157 H 490.869 -4.282 0.185187 0
M  V30 5158 H 495.053 -4.86679 0.972474 0
M  V30 5159 H 490.309 -5.75121 2.07476 0
M  V30 5160 H 494.483 -6.34957 2.86011 0
M  V30 5161 H 492.11 -6.79066 3.4172 0
M  V30 5162 N 493.685 -0.035106 -1.57561 0
M  V30 5163 C 494.615 0.942993 -2.13612 0
M  V30 5164 C 495.596 1.33531 -1.05373 0
M  V30 5165 O 496.781 1.41287 -1.33235 0
M  V30 5166 C 493.911 2.22332 -2.66807 0
M  V30 5167 C 492.865 1.97156 -3.79886 0
M  V30 5168 C 492.191 3.31506 -4.19533 0
M  V30 5169 C 493.491 1.30596 -5.05709 0
M  V30 5170 H 495.185 0.476179 -2.95589 0
M  V30 5171 H 492.731 0.227602 -1.4219 0
M  V30 5172 H 494.684 2.91142 -3.04654 0
M  V30 5173 H 493.408 2.7119 -1.81999 0
M  V30 5174 H 492.067 1.30763 -3.42486 0
M  V30 5175 H 491.715 3.78134 -3.31698 0
M  V30 5176 H 491.415 3.15465 -4.95738 0
M  V30 5177 H 492.939 4.01574 -4.59968 0
M  V30 5178 H 494.353 1.89416 -5.41105 0
M  V30 5179 H 492.75 1.24934 -5.86951 0
M  V30 5180 H 493.82 0.279742 -4.84092 0
M  V30 5181 N 495.163 1.55791 0.238111 0
M  V30 5182 C 496.391 1.82098 0.982233 0
M  V30 5183 C 496.806 0.612025 1.78605 0
M  V30 5184 O 496.163 -0.419381 1.77616 0
M  V30 5185 C 496.214 3.0673 1.91309 0
M  V30 5186 O 495.935 4.2296 1.14179 0
M  V30 5187 C 497.436 3.45903 2.77248 0
M  V30 5188 H 494.656 0.605748 0.288635 0
M  V30 5189 H 497.2 2.02862 0.258341 0
M  V30 5190 H 495.355 2.87991 2.59114 0
M  V30 5191 H 495.769 4.93653 1.7722 0
M  V30 5192 H 497.243 4.36189 3.38295 0
M  V30 5193 H 497.72 2.66891 3.48806 0
M  V30 5194 H 498.326 3.67024 2.14881 0
M  V30 5195 N 496.642 -0.504142 1.49319 0
M  V30 5196 C 498.058 -0.835039 1.36012 0
M  V30 5197 C 498.258 -1.97674 0.390808 0
M  V30 5198 O 497.314 -2.51867 -0.178655 0
M  V30 5199 C 498.627 -1.17821 2.76656 0
M  V30 5200 C 500.175 -1.2866 2.85334 0
M  V30 5201 C 500.65 -1.66307 4.26739 0
M  V30 5202 N 502.141 -1.73362 4.29534 0
M  V30 5203 C 502.876 -2.0393 5.35911 0
M  V30 5204 N 502.372 -2.32744 6.52535 0
M  V30 5205 N 504.165 -2.05155 5.23324 0
M  V30 5206 H 496.316 0.248764 2.10938 0
M  V30 5207 H 498.579 0.0486962 0.946748 0
M  V30 5208 H 498.285 -0.412682 3.4927 0
M  V30 5209 H 498.159 -2.12239 3.11825 0
M  V30 5210 H 500.546 -2.04285 2.1296 0
M  V30 5211 H 500.627 -0.323004 2.53752 0
M  V30 5212 H 500.271 -0.91234 4.99639 0
M  V30 5213 H 500.201 -2.63761 4.55782 0
M  V30 5214 H 502.692 -1.53268 3.45424 0
M  V30 5215 H 503.005 -2.55248 7.2943 0
M  V30 5216 H 501.35 -2.30207 6.55767 0
M  V30 5217 H 504.541 -1.82119 4.3122 0
M  V30 5218 H 504.714 -2.28644 6.06322 0
M  V30 5219 N 498.12 -1.38341 -0.754957 0
M  V30 5220 C 499.05 -1.38176 -1.88227 0
M  V30 5221 C 500.031 -0.247873 -1.68284 0
M  V30 5222 O 501.216 -0.45075 -1.88896 0
M  V30 5223 C 498.346 -1.20471 -3.25736 0
M  V30 5224 C 497.3 -2.3105 -3.60278 0
M  V30 5225 C 496.626 -1.98452 -4.96509 0
M  V30 5226 C 497.926 -3.73305 -3.65295 0
M  V30 5227 H 499.62 -2.32512 -1.88622 0
M  V30 5228 H 497.166 -1.1192 -0.906082 0
M  V30 5229 H 499.119 -1.18982 -4.04254 0
M  V30 5230 H 497.843 -0.225965 -3.25817 0
M  V30 5231 H 496.502 -2.31723 -2.84078 0
M  V30 5232 H 496.15 -0.990641 -4.93148 0
M  V30 5233 H 495.85 -2.7251 -5.20588 0
M  V30 5234 H 497.374 -1.98578 -5.77407 0
M  V30 5235 H 498.788 -3.7467 -4.3393 0
M  V30 5236 H 497.185 -4.46557 -4.00883 0
M  V30 5237 H 498.255 -4.05719 -2.65556 0
M  V30 5238 N 499.598 0.982988 -1.23187 0
M  V30 5239 C 500.845 1.72392 -1.06241 0
M  V30 5240 C 501.173 1.9032 0.40108 0
M  V30 5241 O 500.428 1.45084 1.31336 0
M  V30 5242 C 500.727 3.12736 -1.73006 0
M  V30 5243 C 500.393 3.14695 -3.22921 0
M  V30 5244 C 499.055 3.14937 -3.63824 0
M  V30 5245 C 501.407 3.10211 -4.1883 0
M  V30 5246 C 498.735 3.08408 -4.99101 0
M  V30 5247 C 501.087 3.05224 -5.54095 0
M  V30 5248 C 499.751 3.03787 -5.94365 0
M  V30 5249 H 499.021 0.630829 -0.388762 0
M  V30 5250 H 501.668 1.15053 -1.53085 0
M  V30 5251 H 499.973 3.73446 -1.18514 0
M  V30 5252 H 501.67 3.68828 -1.57374 0
M  V30 5253 H 498.26 3.15262 -2.90358 0
M  V30 5254 H 502.444 3.09166 -3.8824 0
M  V30 5255 H 497.7 3.05646 -5.29519 0
M  V30 5256 H 501.874 3.00712 -6.28128 0
M  V30 5257 H 499.501 2.98483 -6.99151 0
M  V30 5258 N 501.076 1.04316 1.18135 0
M  V30 5259 C 501.986 0.646876 2.25505 0
M  V30 5260 C 503.002 -0.328008 1.7088 0
M  V30 5261 O 504.178 -0.182309 2.00573 0
M  V30 5262 C 501.243 0.0185664 3.46695 0
M  V30 5263 C 500.304 1.04277 4.16443 0
M  V30 5264 C 499.537 0.444352 5.31847 0
M  V30 5265 O 499.76 -0.748735 5.65465 0
M  V30 5266 O 498.694 1.17428 5.90334 0
M  V30 5267 H 502.52 1.54147 2.61672 0
M  V30 5268 H 500.105 0.814188 1.25265 0
M  V30 5269 H 501.987 -0.331068 4.20097 0
M  V30 5270 H 500.662 -0.849814 3.12346 0
M  V30 5271 H 499.569 1.44425 3.45098 0
M  V30 5272 H 500.902 1.882 4.54798 0
M  V30 5273 N 502.554 -1.34406 0.822964 0
M  V30 5274 C 503.802 -1.97892 0.410245 0
M  V30 5275 C 504.123 -1.65567 -1.03017 0
M  V30 5276 O 503.393 -0.94642 -1.71522 0
M  V30 5277 H 501.973 -0.732049 0.148707 0
M  V30 5278 H 504.635 -1.64043 1.05242 0
M  V30 5279 H 503.731 -3.07579 0.529284 0
M  V30 5280 N 504.032 -0.577932 -1.46621 0
M  V30 5281 C 505.257 -0.0652536 -2.07297 0
M  V30 5282 C 505.682 1.22828 -1.4246 0
M  V30 5283 O 505.04 1.74075 -0.506718 0
M  V30 5284 C 505.088 0.0920589 -3.60482 0
M  V30 5285 O 504.192 1.14972 -3.96049 0
M  V30 5286 H 503.533 -0.06065 -0.661224 0
M  V30 5287 H 506.063 -0.799515 -1.88332 0
M  V30 5288 H 506.073 0.299741 -4.06897 0
M  V30 5289 H 504.748 -0.852612 -4.07067 0
M  V30 5290 H 503.325 0.920879 -3.61351 0
M  V30 5291 N 505.51 1.54411 -0.315457 0
M  V30 5292 C 506.758 2.00023 0.288971 0
M  V30 5293 C 507.079 1.20529 1.5329 0
M  V30 5294 O 506.349 0.304986 1.93511 0
M  V30 5295 H 504.929 0.738891 0.109766 0
M  V30 5296 H 507.591 1.90094 -0.430129 0
M  V30 5297 H 506.687 3.07198 0.550999 0
M  V30 5298 N 506.988 0.0434614 1.5754 0
M  V30 5299 C 507.898 -0.94893 2.14552 0
M  V30 5300 C 508.914 -1.34707 1.10136 0
M  V30 5301 O 510.09 -1.42557 1.42266 0
M  V30 5302 C 507.155 -2.208 2.67298 0
M  V30 5303 C 506.216 -1.86893 3.86484 0
M  V30 5304 C 505.449 -3.06797 4.36705 0
M  V30 5305 O 505.672 -4.19921 3.86034 0
M  V30 5306 O 504.606 -2.8826 5.28384 0
M  V30 5307 H 508.432 -0.494099 2.99654 0
M  V30 5308 H 506.017 -0.177989 1.48336 0
M  V30 5309 H 507.899 -2.94686 3.01228 0
M  V30 5310 H 506.574 -2.65436 1.85272 0
M  V30 5311 H 505.481 -1.10347 3.57455 0
M  V30 5312 H 506.814 -1.47062 4.69716 0
M  V30 5313 N 508.466 -1.55915 -0.229846 0
M  V30 5314 C 509.429 -1.90914 -1.26824 0
M  V30 5315 C 510.429 -0.786999 -1.40225 0
M  V30 5316 O 511.619 -1.05484 -1.38632 0
M  V30 5317 C 508.751 -2.15264 -2.64337 0
M  V30 5318 H 509.944 -2.8378 -0.969998 0
M  V30 5319 H 507.497 -1.49069 -0.4699 0
M  V30 5320 H 508.232 -1.24923 -2.99274 0
M  V30 5321 H 508.017 -2.97005 -2.55989 0
M  V30 5322 H 509.507 -2.43467 -3.39284 0
M  V30 5323 N 509.944 0.496216 -1.49584 0
M  V30 5324 C 511.36 0.827814 -1.36453 0
M  V30 5325 C 511.56 1.97464 -0.401285 0
M  V30 5326 O 510.616 2.51958 0.165296 0
M  V30 5327 C 511.929 1.16352 -2.77277 0
M  V30 5328 C 513.477 1.27145 -2.86013 0
M  V30 5329 C 513.952 1.64042 -4.27615 0
M  V30 5330 N 515.443 1.71082 -4.30448 0
M  V30 5331 C 516.178 2.01085 -5.36984 0
M  V30 5332 N 515.674 2.2928 -6.5376 0
M  V30 5333 N 517.467 2.02376 -5.24405 0
M  V30 5334 H 509.618 -0.259947 -2.10803 0
M  V30 5335 H 511.881 -0.0537163 -0.946477 0
M  V30 5336 H 511.587 0.394153 -3.49484 0
M  V30 5337 H 511.461 2.10582 -3.12946 0
M  V30 5338 H 513.848 2.03152 -2.1404 0
M  V30 5339 H 513.929 0.309542 -2.5392 0
M  V30 5340 H 513.573 0.88583 -5.00115 0
M  V30 5341 H 513.503 2.6134 -4.57175 0
M  V30 5342 H 515.994 1.51434 -3.46232 0
M  V30 5343 H 516.307 2.51376 -7.30774 0
M  V30 5344 H 514.652 2.26726 -6.56978 0
M  V30 5345 H 517.843 1.79829 -4.32179 0
M  V30 5346 H 518.016 2.25425 -6.07526 0
M  V30 5347 N 511.423 1.38739 0.74761 0
M  V30 5348 C 512.671 1.35007 1.50391 0
M  V30 5349 C 512.992 -0.0574274 1.94915 0
M  V30 5350 O 512.262 -1.00628 1.6808 0
M  V30 5351 H 510.842 0.496784 0.557866 0
M  V30 5352 H 513.504 1.73479 0.888319 0
M  V30 5353 H 512.6 2.00474 2.392 0
M  V30 5354 N 512.901 -0.976442 1.23707 0
M  V30 5355 C 514.149 -1.71487 1.06942 0
M  V30 5356 C 514.47 -1.9098 -0.393897 0
M  V30 5357 O 513.74 -1.48128 -1.28198 0
M  V30 5358 H 512.32 -0.635425 0.392739 0
M  V30 5359 H 514.982 -1.17515 1.55487 0
M  V30 5360 H 514.078 -2.70286 1.56051 0
M  V30 5361 N 514.379 -1.04941 -1.1758 0
M  V30 5362 C 515.627 -0.756492 -1.87408 0
M  V30 5363 C 515.948 0.718478 -1.81281 0
M  V30 5364 O 515.218 1.519 -1.23706 0
M  V30 5365 H 513.798 -0.276841 -0.693807 0
M  V30 5366 H 516.46 -1.32803 -1.42652 0
M  V30 5367 H 515.556 -1.06918 -2.93215 0
M  V30 5368 N 515.857 1.33968 -0.830081 0
M  V30 5369 C 517.273 1.51003 -0.516742 0
M  V30 5370 C 517.473 1.77286 0.957694 0
M  V30 5371 O 516.529 1.82797 1.74188 0
M  V30 5372 C 517.842 2.67036 -1.38247 0
M  V30 5373 C 519.39 2.80919 -1.38034 0
M  V30 5374 C 519.865 4.00004 -2.23071 0
M  V30 5375 N 521.356 4.07224 -2.20733 0
M  V30 5376 C 522.091 4.98541 -2.83275 0
M  V30 5377 N 521.587 5.95033 -3.54835 0
M  V30 5378 N 523.38 4.91469 -2.72791 0
M  V30 5379 H 515.531 1.15168 -1.78466 0
M  V30 5380 H 517.794 0.565443 -0.760906 0
M  V30 5381 H 517.5 2.54266 -2.42985 0
M  V30 5382 H 517.374 3.62226 -1.05225 0
M  V30 5383 H 519.761 2.93127 -0.340713 0
M  V30 5384 H 519.842 1.86517 -1.75057 0
M  V30 5385 H 519.486 3.88557 -3.27087 0
M  V30 5386 H 519.416 4.93634 -1.83394 0
M  V30 5387 H 521.907 3.38162 -1.68687 0
M  V30 5388 H 522.22 6.61357 -3.99784 0
M  V30 5389 H 520.565 5.95135 -3.58942 0
M  V30 5390 H 523.756 4.15048 -2.16456 0
M  V30 5391 H 523.929 5.62439 -3.21818 0
M  V30 5392 N 517.335 0.585699 1.46312 0
M  V30 5393 C 518.56 0.0762461 2.0726 0
M  V30 5394 C 518.985 -1.22071 1.43109 0
M  V30 5395 O 518.343 -1.73804 0.515942 0
M  V30 5396 C 518.391 -0.0729404 3.60526 0
M  V30 5397 O 517.495 -1.1287 3.96654 0
M  V30 5398 H 516.836 0.0641558 0.660893 0
M  V30 5399 H 519.366 0.809492 1.87905 0
M  V30 5400 H 519.376 -0.278158 4.07051 0
M  V30 5401 H 518.051 0.874188 4.06609 0
M  V30 5402 H 516.628 -0.901703 3.61834 0
M  V30 5403 N 518.813 -1.54241 0.323641 0
M  V30 5404 C 520.229 -1.59574 -0.0290018 0
M  V30 5405 C 520.429 -1.34017 -1.50472 0
M  V30 5406 O 519.485 -1.12464 -2.26071 0
M  V30 5407 C 520.798 -2.98169 0.389295 0
M  V30 5408 C 522.346 -3.11148 0.339958 0
M  V30 5409 C 522.821 -4.5209 0.733418 0
M  V30 5410 N 524.312 -4.5808 0.686827 0
M  V30 5411 C 525.047 -5.65248 0.963464 0
M  V30 5412 N 524.543 -6.80355 1.30724 0
M  V30 5413 N 526.336 -5.55025 0.88902 0
M  V30 5414 H 518.487 -1.6911 1.28512 0
M  V30 5415 H 520.75 -0.790972 0.522558 0
M  V30 5416 H 520.456 -3.21871 1.41746 0
M  V30 5417 H 520.33 -3.76399 -0.245657 0
M  V30 5418 H 522.717 -2.87182 -0.679002 0
M  V30 5419 H 522.798 -2.35023 1.00985 0
M  V30 5420 H 522.442 -4.76788 1.75029 0
M  V30 5421 H 522.372 -5.26584 0.0412189 0
M  V30 5422 H 524.863 -3.75411 0.43298 0
M  V30 5423 H 525.176 -7.58029 1.5037 0
M  V30 5424 H 523.521 -6.81851 1.3455 0
M  V30 5425 H 526.712 -4.63977 0.619939 0
M  V30 5426 H 526.885 -6.38458 1.10797 0
M  V30 5427 N 520.291 -0.0518155 -1.57515 0
M  V30 5428 C 521.201 0.937539 -2.15052 0
M  V30 5429 C 522.217 1.34121 -1.10849 0
M  V30 5430 O 523.393 1.418 -1.4302 0
M  V30 5431 C 520.458 2.19379 -2.68466 0
M  V30 5432 C 519.519 1.84841 -3.87469 0
M  V30 5433 C 518.752 3.04477 -4.38326 0
M  V30 5434 O 518.975 4.17868 -3.88256 0
M  V30 5435 O 517.909 2.85453 -5.29906 0
M  V30 5436 H 521.735 0.478201 -2.99912 0
M  V30 5437 H 519.32 0.17012 -1.48428 0
M  V30 5438 H 521.202 2.93084 -3.02787 0
M  V30 5439 H 519.877 2.64449 -1.86677 0
M  V30 5440 H 518.784 1.08449 -3.58036 0
M  V30 5441 H 520.117 1.44569 -4.7049 0
M  V30 5442 N 521.769 1.56035 0.221574 0
M  V30 5443 C 523.017 1.78693 0.944102 0
M  V30 5444 C 523.338 0.620317 1.8487 0
M  V30 5445 O 522.608 -0.362784 1.92512 0
M  V30 5446 H 521.188 0.659082 0.351597 0
M  V30 5447 H 523.85 1.93497 0.233435 0
M  V30 5448 H 522.946 2.70837 1.55093 0
M  V30 5449 N 523.247 -0.488276 1.49845 0
M  V30 5450 C 524.475 -1.26527 1.63702 0
M  V30 5451 C 524.89 -1.8618 0.313447 0
M  V30 5452 O 524.247 -1.68432 -0.702624 0
M  V30 5453 C 524.298 -2.3864 2.71538 0
M  V30 5454 O 524.019 -1.81437 3.98763 0
M  V30 5455 C 525.52 -3.29805 2.96215 0
M  V30 5456 H 522.74 -0.383295 0.55075 0
M  V30 5457 H 525.284 -0.584779 1.95961 0
M  V30 5458 H 523.439 -3.02496 2.42023 0
M  V30 5459 H 523.853 -2.55135 4.58265 0
M  V30 5460 H 525.327 -4.04722 3.75372 0
M  V30 5461 H 525.804 -3.87563 2.06619 0
M  V30 5462 H 526.41 -2.71703 3.27196 0
M  V30 5463 N 524.725 -1.39134 -0.740242 0
M  V30 5464 C 525.658 -1.3182 -1.86276 0
M  V30 5465 C 526.636 -0.192794 -1.61453 0
M  V30 5466 O 527.82 -0.372365 -1.84786 0
M  V30 5467 C 524.947 -1.04564 -3.22155 0
M  V30 5468 C 523.993 -2.19224 -3.65846 0
M  V30 5469 S 524.826 -3.81466 -3.75824 0
M  V30 5470 C 525.982 -3.56425 -5.14502 0
M  V30 5471 H 526.215 -2.26822 -1.92195 0
M  V30 5472 H 523.748 -1.25127 -0.904576 0
M  V30 5473 H 525.706 -0.895228 -4.00619 0
M  V30 5474 H 524.367 -0.112578 -3.13898 0
M  V30 5475 H 523.56 -1.95732 -4.6444 0
M  V30 5476 H 523.162 -2.30441 -2.94572 0
M  V30 5477 H 525.454 -3.13366 -6.00673 0
M  V30 5478 H 526.397 -4.54462 -5.43019 0
M  V30 5479 H 526.805 -2.90641 -4.8393 0
M  V30 5480 N 526.204 0.969867 -1.24223 0
M  V30 5481 C 527.114 2.09806 -1.0497 0
M  V30 5482 C 528.13 1.73998 0.00886455 0
M  V30 5483 O 529.306 2.00513 -0.188848 0
M  V30 5484 C 526.371 3.40467 -0.654452 0
M  V30 5485 C 525.432 3.90236 -1.78926 0
M  V30 5486 C 524.665 5.14662 -1.41277 0
M  V30 5487 O 524.888 5.69602 -0.301632 0
M  V30 5488 O 523.822 5.58761 -2.23763 0
M  V30 5489 H 527.648 2.28942 -1.99548 0
M  V30 5490 H 525.233 1.08197 -1.03023 0
M  V30 5491 H 527.115 4.19039 -0.445452 0
M  V30 5492 H 525.79 3.22636 0.262216 0
M  V30 5493 H 524.697 3.12735 -2.05299 0
M  V30 5494 H 526.03 4.1254 -2.68462 0
M  V30 5495 N 527.682 1.05563 1.17022 0
M  V30 5496 C 528.612 0.681026 2.23348 0
M  V30 5497 C 529.593 -0.322983 1.67005 0
M  V30 5498 O 530.778 -0.199746 1.9317 0
M  V30 5499 C 527.908 0.0589053 3.4725 0
M  V30 5500 C 526.862 0.988082 4.16438 0
M  V30 5501 C 526.188 0.229646 5.34207 0
M  V30 5502 C 527.488 2.31388 4.68249 0
M  V30 5503 H 529.182 1.56993 2.54938 0
M  V30 5504 H 526.728 0.756302 1.2254 0
M  V30 5505 H 528.681 -0.214982 4.20851 0
M  V30 5506 H 527.405 -0.864968 3.14938 0
M  V30 5507 H 526.064 1.24659 3.44754 0
M  V30 5508 H 525.712 -0.697111 4.98146 0
M  V30 5509 H 525.412 0.848815 5.81437 0
M  V30 5510 H 526.936 -0.0368694 6.10589 0
M  V30 5511 H 528.35 2.09964 5.33468 0
M  V30 5512 H 526.747 2.88736 5.26072 0
M  V30 5513 H 527.817 2.94982 3.84855 0
M  V30 5514 N 529.16 -1.33526 0.837174 0
M  V30 5515 C 530.576 -1.50727 0.524743 0
M  V30 5516 C 530.776 -1.77792 -0.948279 0
M  V30 5517 O 529.832 -1.83719 -1.73216 0
M  V30 5518 C 531.145 -2.66299 1.39661 0
M  V30 5519 C 532.693 -2.80183 1.39521 0
M  V30 5520 C 533.168 -3.98815 2.25189 0
M  V30 5521 N 534.659 -4.06047 2.2289 0
M  V30 5522 C 535.394 -4.97032 2.85915 0
M  V30 5523 N 534.89 -5.93143 3.57985 0
M  V30 5524 N 536.683 -4.90015 2.75394 0
M  V30 5525 H 528.834 -1.1422 1.79074 0
M  V30 5526 H 531.097 -0.561399 0.763894 0
M  V30 5527 H 530.803 -2.52974 2.4433 0
M  V30 5528 H 530.677 -3.61663 1.07145 0
M  V30 5529 H 533.064 -2.92942 0.356253 0
M  V30 5530 H 533.145 -1.85586 1.76044 0
M  V30 5531 H 532.789 -3.86817 3.29143 0
M  V30 5532 H 532.719 -4.92654 1.86009 0
M  V30 5533 H 535.21 -3.37262 1.70478 0
M  V30 5534 H 535.523 -6.59227 4.03286 0
M  V30 5535 H 533.868 -5.93223 3.62093 0
M  V30 5536 H 537.059 -4.13894 2.18654 0
M  V30 5537 H 537.232 -5.60724 3.24796 0
M  V30 5538 N 530.638 -0.59345 -1.46 0
M  V30 5539 C 531.866 -0.0890934 -2.06708 0
M  V30 5540 C 532.281 1.2205 -1.44046 0
M  V30 5541 O 531.638 1.74029 -0.549551 0
M  V30 5542 C 531.689 0.0720263 -3.61428 0
M  V30 5543 O 531.41 -1.18574 -4.21748 0
M  V30 5544 C 532.911 0.609487 -4.3909 0
M  V30 5545 H 530.131 -0.0623628 -0.668096 0
M  V30 5546 H 532.675 -0.817171 -1.87464 0
M  V30 5547 H 530.83 0.750369 -3.80063 0
M  V30 5548 H 531.244 -1.0064 -5.14754 0
M  V30 5549 H 532.718 0.671363 -5.47902 0
M  V30 5550 H 533.195 1.62878 -4.07882 0
M  V30 5551 H 533.801 -0.03434 -4.25286 0
M  V30 5552 N 532.116 1.54067 -0.331816 0
M  V30 5553 C 533.344 2.05131 0.269996 0
M  V30 5554 C 533.759 1.20749 1.45138 0
M  V30 5555 O 533.116 0.240069 1.80914 0
M  V30 5556 C 533.167 3.54728 0.696456 0
M  V30 5557 O 532.888 4.35906 -0.43794 0
M  V30 5558 C 534.389 4.21916 1.36021 0
M  V30 5559 H 531.609 0.668807 0.0542042 0
M  V30 5560 H 534.153 1.98777 -0.4804 0
M  V30 5561 H 532.308 3.61342 1.39681 0
M  V30 5562 H 532.722 5.24404 -0.100334 0
M  V30 5563 H 534.196 5.28015 1.60947 0
M  V30 5564 H 534.673 3.73538 2.31011 0
M  V30 5565 H 535.279 4.19463 0.702212 0
M  V30 5566 N 533.594 0.0601682 1.57485 0
M  V30 5567 C 535.005 -0.474217 1.80577 0
M  V30 5568 C 535.356 -1.70365 0.973147 0
M  V30 5569 O 534.481 -2.15544 0.192306 0
M  V30 5570 C 535.076 -0.867102 3.27516 0
M  V30 5571 C 533.635 -1.34642 3.51495 0
M  V30 5572 C 532.782 -0.32594 2.75378 0
M  V30 5573 H 535.733 0.285973 1.56102 0
M  V30 5574 H 535.754 -1.72938 3.38929 0
M  V30 5575 H 535.266 0.0278927 3.8809 0
M  V30 5576 H 533.367 -2.2603 2.96212 0
M  V30 5577 H 533.48 -1.33237 4.60201 0
M  V30 5578 H 531.844 -0.800749 2.41785 0
M  V30 5579 H 532.627 0.561125 3.38683 0
M  V30 5580 N 535.072 -1.5615 -0.213296 0
M  V30 5581 C 536.004 -1.89586 -1.28802 0
M  V30 5582 C 537.017 -0.784844 -1.42633 0
M  V30 5583 O 538.206 -1.06319 -1.43383 0
M  V30 5584 C 535.306 -2.09665 -2.66259 0
M  V30 5585 C 534.479 -3.40726 -2.7427 0
M  V30 5586 C 533.538 -3.50137 -3.92798 0
M  V30 5587 O 532.564 -4.23105 -3.8075 0
M  V30 5588 N 533.766 -2.81886 -5.07465 0
M  V30 5589 H 536.531 -2.82368 -1.00442 0
M  V30 5590 H 534.092 -1.56796 -0.403302 0
M  V30 5591 H 536.084 -2.13268 -3.43946 0
M  V30 5592 H 534.654 -1.23469 -2.87183 0
M  V30 5593 H 533.874 -3.4915 -1.82997 0
M  V30 5594 H 535.162 -4.27048 -2.76599 0
M  V30 5595 H 534.56 -2.22397 -5.2015 0
M  V30 5596 H 533.117 -2.91139 -5.83165 0
M  V30 5597 N 536.55 0.480323 -1.50102 0
M  V30 5598 C 537.48 1.58769 -1.71215 0
M  V30 5599 C 538.461 1.60583 -0.560997 0
M  V30 5600 O 539.646 1.76996 -0.799127 0
M  V30 5601 C 536.776 2.97148 -1.79778 0
M  V30 5602 C 535.73 3.10201 -2.94888 0
M  V30 5603 C 535.056 4.50137 -2.88584 0
M  V30 5604 C 536.356 2.88283 -4.35534 0
M  V30 5605 H 538.05 1.41354 -2.6393 0
M  V30 5606 H 535.596 0.678591 -1.27008 0
M  V30 5607 H 537.549 3.74536 -1.93133 0
M  V30 5608 H 536.273 3.15699 -0.836772 0
M  V30 5609 H 534.932 2.35244 -2.81169 0
M  V30 5610 H 534.58 4.65593 -1.90349 0
M  V30 5611 H 534.28 4.59808 -3.65856 0
M  V30 5612 H 535.804 5.29558 -3.03976 0
M  V30 5613 H 537.218 3.55427 -4.49827 0
M  V30 5614 H 535.615 3.09408 -5.14186 0
M  V30 5615 H 536.685 1.84219 -4.48544 0
M  V30 5616 N 538.028 1.39524 0.732853 0
M  V30 5617 C 538.975 1.38416 1.84688 0
M  V30 5618 C 539.945 0.243539 1.64305 0
M  V30 5619 O 541.13 0.438979 1.85681 0
M  V30 5620 C 538.27 1.23555 3.22224 0
M  V30 5621 C 537.383 2.47179 3.54298 0
M  V30 5622 C 536.518 2.2489 4.81246 0
M  V30 5623 C 535.557 3.44178 5.0617 0
M  V30 5624 N 534.694 3.21192 6.24323 0
M  V30 5625 H 539.534 2.33645 1.84971 0
M  V30 5626 H 537.071 1.16059 0.903804 0
M  V30 5627 H 539.029 1.12949 4.0162 0
M  V30 5628 H 537.659 0.31954 3.21215 0
M  V30 5629 H 536.711 2.68379 2.69587 0
M  V30 5630 H 538.023 3.36022 3.68633 0
M  V30 5631 H 537.177 2.11538 5.68627 0
M  V30 5632 H 535.916 1.33443 4.69089 0
M  V30 5633 H 534.921 3.58025 4.17251 0
M  V30 5634 H 536.146 4.36528 5.20212 0
M  V30 5635 H 534.092 2.32413 6.1345 0
M  V30 5636 H 534.009 4.03594 6.39256 0
M  V30 5637 H 535.277 3.1154 7.14537 0
M  V30 5638 N 539.506 -0.963266 1.24736 0
M  V30 5639 C 540.752 -1.70933 1.09131 0
M  V30 5640 C 541.085 -1.90676 -0.368273 0
M  V30 5641 O 540.36 -1.47147 -1.27193 0
M  V30 5642 C 540.643 -3.09744 1.83658 0
M  V30 5643 C 540.496 -2.97465 3.37394 0
M  V30 5644 C 541.815 -4.09483 1.61282 0
M  V30 5645 H 538.934 -0.620398 0.397838 0
M  V30 5646 H 541.576 -1.12028 1.53459 0
M  V30 5647 H 539.726 -3.60031 1.4598 0
M  V30 5648 H 541.398 -2.54571 3.84696 0
M  V30 5649 H 539.641 -2.33576 3.65547 0
M  V30 5650 H 540.312 -3.95822 3.84745 0
M  V30 5651 H 542.788 -3.68073 1.94066 0
M  V30 5652 H 541.664 -5.04666 2.15878 0
M  V30 5653 H 541.925 -4.38639 0.552102 0
M  V30 5654 N 540.985 -1.06182 -1.16461 0
M  V30 5655 C 542.231 -0.779015 -1.87241 0
M  V30 5656 C 542.564 0.692715 -1.81425 0
M  V30 5657 O 541.839 1.5074 -1.22913 0
M  V30 5658 C 542.122 -1.2728 -3.36856 0
M  V30 5659 C 541.975 -2.80821 -3.51368 0
M  V30 5660 C 543.294 -0.879799 -4.31216 0
M  V30 5661 H 540.413 -0.284464 -0.679889 0
M  V30 5662 H 543.055 -1.31755 -1.36896 0
M  V30 5663 H 541.205 -0.814673 -3.79862 0
M  V30 5664 H 542.877 -3.34833 -3.17308 0
M  V30 5665 H 541.12 -3.19606 -2.93316 0
M  V30 5666 H 541.791 -3.10435 -4.56436 0
M  V30 5667 H 544.267 -1.27436 -3.96105 0
M  V30 5668 H 543.143 -1.25278 -5.34412 0
M  V30 5669 H 543.404 0.215372 -4.41575 0
M  V30 5670 N 542.463 1.3308 -0.844243 0
M  V30 5671 C 543.711 1.97215 -0.441676 0
M  V30 5672 C 544.032 1.67185 1.0037 0
M  V30 5673 O 543.302 0.973588 1.69994 0
M  V30 5674 H 541.882 0.72959 -0.160335 0
M  V30 5675 H 544.544 1.62348 -1.07838 0
M  V30 5676 H 543.64 3.06698 -0.57815 0
M  V30 5677 N 543.941 0.601185 1.45683 0
M  V30 5678 C 544.873 -0.159446 2.28645 0
M  V30 5679 C 545.886 -0.837882 1.39583 0
M  V30 5680 O 547.075 -0.704344 1.64016 0
M  V30 5681 C 544.175 -1.24641 3.15147 0
M  V30 5682 C 543.348 -0.656334 4.32448 0
M  V30 5683 C 542.407 -1.63337 5.00208 0
M  V30 5684 O 541.433 -1.16217 5.57209 0
M  V30 5685 N 542.635 -2.96773 4.98905 0
M  V30 5686 H 545.4 0.5524 2.94565 0
M  V30 5687 H 542.961 0.440223 1.558 0
M  V30 5688 H 544.953 -1.8997 3.57342 0
M  V30 5689 H 543.523 -1.86087 2.51178 0
M  V30 5690 H 542.743 0.174879 3.93812 0
M  V30 5691 H 544.031 -0.242211 5.08223 0
M  V30 5692 H 543.429 -3.37662 4.53873 0
M  V30 5693 H 541.986 -3.57541 5.44984 0
M  V30 5694 N 545.419 -1.53889 0.339982 0
M  V30 5695 C 546.667 -2.00458 -0.257112 0
M  V30 5696 C 546.988 -1.22953 -1.51353 0
M  V30 5697 O 546.258 -0.335734 -1.93002 0
M  V30 5698 H 544.838 -0.740544 -0.0979965 0
M  V30 5699 H 547.5 -1.89386 0.460317 0
M  V30 5700 H 546.596 -3.08035 -0.502057 0
M  V30 5701 N 546.897 -0.0685191 -1.57451 0
M  V30 5702 C 548.313 0.288101 -1.56978 0
M  V30 5703 C 548.513 1.70262 -1.07765 0
M  V30 5704 O 547.569 2.4135 -0.742054 0
M  V30 5705 C 548.882 0.100745 -3.00531 0
M  V30 5706 C 550.43 0.170531 -3.12535 0
M  V30 5707 C 550.905 0.0114944 -4.57999 0
M  V30 5708 N 552.396 0.0672065 -4.63151 0
M  V30 5709 C 553.131 -0.0314813 -5.73391 0
M  V30 5710 N 552.627 -0.183503 -6.92557 0
M  V30 5711 N 554.42 0.0253489 -5.62094 0
M  V30 5712 H 546.571 -0.993026 -1.87757 0
M  V30 5713 H 548.834 -0.386981 -0.865419 0
M  V30 5714 H 548.54 -0.875197 -3.40636 0
M  V30 5715 H 548.414 0.854457 -3.67395 0
M  V30 5716 H 550.801 1.13696 -2.72318 0
M  V30 5717 H 550.882 -0.614229 -2.48316 0
M  V30 5718 H 550.526 -0.951684 -4.98904 0
M  V30 5719 H 550.456 0.815617 -5.20245 0
M  V30 5720 H 552.947 0.183246 -3.77455 0
M  V30 5721 H 553.26 -0.251041 -7.72392 0
M  V30 5722 H 551.605 -0.218822 -6.94655 0
M  V30 5723 H 554.796 0.142794 -4.67882 0
M  V30 5724 H 554.969 -0.0550166 -6.47977 0
M  V30 5725 N 548.375 1.56261 0.205012 0
M  V30 5726 C 549.623 1.79684 0.925096 0
M  V30 5727 C 549.944 0.63989 1.84202 0
M  V30 5728 O 549.214 -0.342345 1.92885 0
M  V30 5729 H 547.794 0.662774 0.344587 0
M  V30 5730 H 550.456 1.93734 0.212899 0
M  V30 5731 H 549.552 2.72467 1.52211 0
M  V30 5732 N 549.853 -0.472356 1.50355 0
M  V30 5733 C 550.801 -1.59126 1.69651 0
M  V30 5734 C 551.795 -1.59793 0.56237 0
M  V30 5735 O 553.001 -1.63957 0.742832 0
M  V30 5736 H 549.376 -0.528008 0.535454 0
M  V30 5737 H 551.347 -1.40013 2.63513 0
M  V30 5738 C 550.096 -2.97075 1.8067 0
M  V30 5739 H 549.419 -2.9728 2.67329 0
M  V30 5740 H 550.859 -3.74825 1.98197 0
M  V30 5741 C 549.318 -3.32247 0.558016 0
M  V30 5742 O 549.848 -4.00553 -0.303399 0
M  V30 5743 N 548.054 -2.87659 0.412415 0
M  V30 5744 H 547.601 -2.32246 1.11443 0
M  V30 5745 H 547.559 -3.11556 -0.421908 0
M  V30 5746 N 551.331 -1.39911 -0.725443 0
M  V30 5747 C 552.579 -1.37382 -1.48224 0
M  V30 5748 C 552.9 0.0264107 -1.94982 0
M  V30 5749 O 552.17 0.979408 -1.6966 0
M  V30 5750 H 550.75 -0.505596 -0.549892 0
M  V30 5751 H 553.412 -1.7487 -0.860608 0
M  V30 5752 H 552.508 -2.04254 -2.3598 0
M  V30 5753 N 552.809 0.956637 -1.25245 0
M  V30 5754 C 554.086 1.67716 -1.00651 0
M  V30 5755 C 554.466 2.0585 0.467866 0
M  V30 5756 O 553.814 1.77029 1.44475 0
M  V30 5757 C 554.024 2.90093 -1.94028 0
M  V30 5758 C 555.372 3.6209 -2.21756 0
M  V30 5759 O 556.396 3.00171 -1.9177 0
M  V30 5760 O 555.255 4.7358 -2.72735 0
M  V30 5761 H 552.349 0.733731 -0.381533 0
M  V30 5762 H 554.895 1.00974 -1.3639 0
M  V30 5763 H 553.667 2.58689 -2.93591 0
M  V30 5764 H 553.29 3.64566 -1.58674 0
M  V30 5765 N 554.287 1.06798 1.15896 0
M  V30 5766 C 555.698 0.811355 1.68149 0
M  V30 5767 C 556.049 -0.664339 1.8461 0
M  V30 5768 O 555.174 -1.51485 1.54535 0
M  V30 5769 C 555.769 1.46624 3.05429 0
M  V30 5770 C 554.328 1.25726 3.54781 0
M  V30 5771 C 553.475 1.53949 2.3064 0
M  V30 5772 H 556.426 1.23078 1.00187 0
M  V30 5773 H 556.447 0.88437 3.7008 0
M  V30 5774 H 555.959 2.54025 2.93416 0
M  V30 5775 H 554.06 0.20322 3.72045 0
M  V30 5776 H 554.173 1.97354 4.36564 0
M  V30 5777 H 552.537 0.96025 2.35905 0
M  V30 5778 H 553.32 2.6252 2.2122 0
M  V30 5779 N 555.766 -1.3263 0.851289 0
M  V30 5780 C 557.014 -1.96978 0.452128 0
M  V30 5781 C 557.335 -1.67715 -0.99482 0
M  V30 5782 O 556.605 -0.98259 -1.69476 0
M  V30 5783 H 555.185 -0.72873 0.164202 0
M  V30 5784 H 557.847 -1.61774 1.08698 0
M  V30 5785 H 556.943 -3.06387 0.594407 0
M  V30 5786 N 557.244 -0.608902 -1.45362 0
M  V30 5787 C 558.492 -0.104401 -2.0183 0
M  V30 5788 C 558.813 1.27007 -1.47967 0
M  V30 5789 O 558.083 1.83924 -0.674455 0
M  V30 5790 H 556.663 -0.0356042 -0.746151 0
M  V30 5791 H 559.325 -0.790596 -1.78145 0
M  V30 5792 H 558.421 -0.0551793 -3.12051 0
M  V30 5793 N 558.722 1.53707 -0.348139 0
M  V30 5794 C 559.97 2.00591 0.246478 0
M  V30 5795 C 560.291 1.23753 1.50699 0
M  V30 5796 O 559.561 0.345964 1.92821 0
M  V30 5797 H 558.141 0.741053 0.0940679 0
M  V30 5798 H 560.803 1.89139 -0.470354 0
M  V30 5799 H 559.899 3.08297 0.485714 0
M  V30 5800 N 560.2 0.0768682 1.57412 0
M  V30 5801 C 561.133 -0.924685 2.08626 0
M  V30 5802 C 562.111 -1.28792 0.992542 0
M  V30 5803 O 563.295 -1.39634 1.26628 0
M  V30 5804 C 560.422 -2.23131 2.54814 0
M  V30 5805 C 559.468 -2.01928 3.75669 0
M  V30 5806 S 560.301 -1.27397 5.20125 0
M  V30 5807 C 561.457 -2.59329 5.69648 0
M  V30 5808 H 561.69 -0.488928 2.93252 0
M  V30 5809 H 559.223 -0.136014 1.538 0
M  V30 5810 H 561.181 -2.98226 2.82084 0
M  V30 5811 H 559.842 -2.63831 1.70447 0
M  V30 5812 H 559.035 -2.98639 4.05993 0
M  V30 5813 H 558.637 -1.34967 3.48798 0
M  V30 5814 H 560.929 -3.55394 5.76803 0
M  V30 5815 H 561.872 -2.33608 6.68456 0
M  V30 5816 H 562.28 -2.66767 4.9749 0
M  V30 5817 N 561.678 -1.56367 -0.196722 0
M  V30 5818 C 562.588 -1.97617 -1.2643 0
M  V30 5819 C 563.604 -0.883598 -1.49895 0
M  V30 5820 O 564.78 -1.18921 -1.62541 0
M  V30 5821 C 561.845 -2.30595 -2.58895 0
M  V30 5822 C 560.906 -3.53551 -2.43516 0
M  V30 5823 C 560.139 -3.84946 -3.69665 0
M  V30 5824 O 560.362 -3.17655 -4.73763 0
M  V30 5825 O 559.296 -4.78379 -3.65291 0
M  V30 5826 H 563.122 -2.88648 -0.944233 0
M  V30 5827 H 560.707 -1.43901 -0.401592 0
M  V30 5828 H 562.589 -2.52889 -3.37083 0
M  V30 5829 H 561.264 -1.42732 -2.90533 0
M  V30 5830 H 560.171 -3.36507 -1.63445 0
M  V30 5831 H 561.504 -4.41875 -2.16812 0
M  V30 5832 N 563.156 0.464375 -1.50603 0
M  V30 5833 C 564.103 1.56152 -1.69956 0
M  V30 5834 C 565.073 1.57046 -0.54091 0
M  V30 5835 O 566.258 1.74473 -0.772258 0
M  V30 5836 C 563.398 2.94079 -1.80586 0
M  V30 5837 C 562.511 3.02923 -3.07996 0
M  V30 5838 C 561.646 4.31806 -3.09382 0
M  V30 5839 C 560.685 4.34417 -4.31218 0
M  V30 5840 N 559.822 5.54782 -4.30304 0
M  V30 5841 H 564.662 1.38955 -2.6362 0
M  V30 5842 H 562.199 0.675482 -1.30674 0
M  V30 5843 H 564.157 3.74073 -1.8473 0
M  V30 5844 H 562.787 3.09896 -0.903556 0
M  V30 5845 H 561.839 2.1576 -3.13292 0
M  V30 5846 H 563.151 3.00712 -3.97962 0
M  V30 5847 H 562.305 5.20153 -3.12292 0
M  V30 5848 H 561.044 4.36636 -2.17257 0
M  V30 5849 H 560.049 3.44467 -4.28512 0
M  V30 5850 H 561.274 4.31273 -5.24576 0
M  V30 5851 H 559.22 5.60384 -3.41037 0
M  V30 5852 H 559.137 5.54339 -5.14047 0
M  V30 5853 H 560.405 6.45235 -4.3737 0
M  V30 5854 N 564.634 1.40294 0.718013 0
M  V30 5855 C 565.911 1.2894 1.47084 0
M  V30 5856 C 566.291 -0.0933625 2.10893 0
M  V30 5857 O 565.639 -1.10598 1.99951 0
M  V30 5858 C 565.849 2.4264 2.50852 0
M  V30 5859 C 567.197 2.8276 3.16752 0
M  V30 5860 O 568.221 2.42215 2.61171 0
M  V30 5861 O 567.08 3.528 4.17366 0
M  V30 5862 H 564.174 0.506236 0.653952 0
M  V30 5863 H 566.72 1.52208 0.750394 0
M  V30 5864 H 565.492 3.35009 2.022 0
M  V30 5865 H 565.115 2.21129 3.30435 0
M  V30 5866 N 566.112 -0.949982 1.2575 0
M  V30 5867 C 567.36 -1.6918 1.10555 0
M  V30 5868 C 567.681 -1.91773 -0.353298 0
M  V30 5869 O 566.951 -1.50814 -1.25027 0
M  V30 5870 H 565.531 -0.626952 0.406129 0
M  V30 5871 H 568.193 -1.1419 1.57945 0
M  V30 5872 H 567.289 -2.66915 1.61749 0
M  V30 5873 N 567.59 -1.07411 -1.15328 0
M  V30 5874 C 569.001 -0.820261 -1.67716 0
M  V30 5875 C 569.352 0.654539 -1.8496 0
M  V30 5876 O 568.477 1.50664 -1.55337 0
M  V30 5877 C 569.072 -1.48242 -3.04647 0
M  V30 5878 C 567.631 -1.27606 -3.5411 0
M  V30 5879 C 566.778 -1.5517 -2.29821 0
M  V30 5880 H 569.729 -1.23608 -0.995332 0
M  V30 5881 H 569.75 -0.903984 -3.69606 0
M  V30 5882 H 569.262 -2.55578 -2.92064 0
M  V30 5883 H 567.363 -0.222948 -3.71932 0
M  V30 5884 H 567.476 -1.99667 -4.35511 0
M  V30 5885 H 565.84 -0.972747 -2.35393 0
M  V30 5886 H 566.623 -2.63689 -2.19824 0
M  V30 5887 N 569.068 1.32177 -0.85831 0
M  V30 5888 C 569.978 2.32561 -0.308606 0
M  V30 5889 C 570.994 1.64209 0.575462 0
M  V30 5890 O 572.17 1.95719 0.474961 0
M  V30 5891 C 569.235 3.43207 0.490909 0
M  V30 5892 C 568.296 4.27243 -0.419733 0
M  V30 5893 C 567.529 5.32605 0.341719 0
M  V30 5894 O 567.752 5.48332 1.57125 0
M  V30 5895 O 566.686 6.0118 -0.294379 0
M  V30 5896 H 570.512 2.81477 -1.14037 0
M  V30 5897 H 568.097 1.35866 -0.621349 0
M  V30 5898 H 569.979 4.10677 0.944574 0
M  V30 5899 H 568.654 2.96474 1.29941 0
M  V30 5900 H 567.561 3.62569 -0.921652 0
M  V30 5901 H 568.894 4.7751 -1.19352 0
M  V30 5902 N 570.547 0.616602 1.45037 0
M  V30 5903 C 571.793 0.123965 2.03022 0
M  V30 5904 C 572.148 -1.23508 1.47525 0
M  V30 5905 O 571.441 -1.80453 0.643981 0
M  V30 5906 C 571.635 0.0356829 3.57382 0
M  V30 5907 C 571.464 1.38462 4.27853 0
M  V30 5908 C 570.234 1.96766 4.65415 0
M  V30 5909 C 572.432 2.31536 4.59234 0
M  V30 5910 N 570.414 3.25046 5.20786 0
M  V30 5911 C 571.785 3.4442 5.15533 0
M  V30 5912 C 573.84 2.30796 4.41178 0
M  V30 5913 C 572.543 4.56742 5.55679 0
M  V30 5914 C 574.569 3.42171 4.82362 0
M  V30 5915 C 573.931 4.53778 5.38762 0
M  V30 5916 H 570.03 0.0889428 0.776925 0
M  V30 5917 H 572.614 0.816925 1.76733 0
M  V30 5918 H 570.785 -0.62652 3.83314 0
M  V30 5919 H 572.517 -0.464443 4.02026 0
M  V30 5920 H 569.272 1.4987 4.49261 0
M  V30 5921 H 569.696 3.90592 5.52962 0
M  V30 5922 H 574.338 1.45765 3.96878 0
M  V30 5923 H 572.056 5.42491 5.9894 0
M  V30 5924 H 575.642 3.42757 4.70116 0
M  V30 5925 H 574.522 5.38536 5.70043 0
M  V30 5926 N 572.025 -1.5352 0.356285 0
M  V30 5927 C 573.302 -1.93405 -0.292223 0
M  V30 5928 C 573.682 -1.28901 -1.67176 0
M  V30 5929 O 573.03 -0.444632 -2.24132 0
M  V30 5930 C 573.24 -3.47223 -0.35175 0
M  V30 5931 C 574.588 -4.20389 -0.596534 0
M  V30 5932 O 575.612 -3.53554 -0.433344 0
M  V30 5933 O 574.471 -5.3881 -0.913589 0
M  V30 5934 H 571.565 -0.808666 -0.173172 0
M  V30 5935 H 574.111 -1.64713 0.408391 0
M  V30 5936 H 572.883 -3.86423 0.615841 0
M  V30 5937 H 572.506 -3.8212 -1.09864 0
M  V30 5938 N 573.503 -0.0852151 -1.57369 0
M  V30 5939 C 574.433 0.874556 -2.16503 0
M  V30 5940 C 575.414 1.30111 -1.09568 0
M  V30 5941 O 576.599 1.36977 -1.37662 0
M  V30 5942 C 573.729 2.13731 -2.73745 0
M  V30 5943 C 572.683 1.84971 -3.85966 0
M  V30 5944 C 572.009 3.17991 -4.29867 0
M  V30 5945 C 573.309 1.14442 -5.09608 0
M  V30 5946 H 575.003 0.381899 -2.96954 0
M  V30 5947 H 572.549 0.18225 -1.42842 0
M  V30 5948 H 574.502 2.81302 -3.13763 0
M  V30 5949 H 573.226 2.65263 -1.90534 0
M  V30 5950 H 571.885 1.19801 -3.46473 0
M  V30 5951 H 571.533 3.6739 -3.4356 0
M  V30 5952 H 571.233 2.99534 -5.05523 0
M  V30 5953 H 572.757 3.86737 -4.72511 0
M  V30 5954 H 574.171 1.72105 -5.46857 0
M  V30 5955 H 572.568 1.06197 -5.90629 0
M  V30 5956 H 573.638 0.12559 -4.84737 0
M  V30 5957 O 575.02 1.61406 0.0550718 0
M  V30 5958 H 575.711 1.81412 0.678922 0
M  V30 END ATOM
M  V30 BEGIN BOND
M  V30 END BOND
M  V30 END CTAB
M  END
$$$$
