drugbank_target|Q9NQS7 Inner centromere protein (DB07340)
 OpenBabel12092120413D

  0  0  0     0  0            999 V3000
M  V30 BEGIN CTAB
M  V30 COUNTS 14866 14988 0 0 0
M  V30 BEGIN ATOM
M  V30 1 H -0.908 1.98254 -0.117106 0
M  V30 2 N 0 1.576 0 0
M  V30 3 C 0.933 2.03868 1.02534 0
M  V30 4 C 1.911 0.928543 1.3348 0
M  V30 5 O 3.095 1.19667 1.45644 0
M  V30 6 C 0.222 2.43627 2.35294 0
M  V30 7 C -0.732 3.65373 2.2001 0
M  V30 8 S 0.101 5.13292 1.52614 0
M  V30 9 C 1.257 5.56322 2.86805 0
M  V30 10 H 1.49 2.90518 0.631377 0
M  V30 11 H -0.977 1.52953 0.210867 0
M  V30 12 H 0.981 2.67203 3.11629 0
M  V30 13 H -0.358 1.57376 2.7183 0
M  V30 14 H -1.165 3.90944 3.18086 0
M  V30 15 H -1.563 3.418 1.51819 0
M  V30 16 H 0.729 5.58782 3.83104 0
M  V30 17 H 1.672 6.56266 2.65933 0
M  V30 18 H 2.08 4.83886 2.90714 0
M  V30 19 N 1.4781 -0.272755 1.55222 0
M  V30 20 C 2.7261 -1.00234 1.75492 0
M  V30 21 C 3.0471 -1.8681 0.5592 0
M  V30 22 O 2.3171 -1.91215 -0.425882 0
M  V30 23 H 0.8971 -0.373076 0.647166 0
M  V30 24 H 3.5591 -0.296926 1.92625 0
M  V30 25 H 2.6551 -1.63913 2.65592 0
M  V30 26 N 2.9562 -1.48159 -0.537278 0
M  V30 27 C 4.1842 -1.59454 -1.31841 0
M  V30 28 C 4.5992 -0.252065 -1.8711 0
M  V30 29 O 3.9562 0.757621 -1.66031 0
M  V30 30 C 4.0072 -2.63546 -2.47439 0
M  V30 31 O 3.7282 -3.92583 -1.94449 0
M  V30 32 C 5.2292 -2.85212 -3.39366 0
M  V30 33 H 2.4492 -0.53785 -0.401196 0
M  V30 34 H 4.9932 -1.93932 -0.648891 0
M  V30 35 H 3.1482 -2.31946 -3.1029 0
M  V30 36 H 3.5622 -4.49629 -2.70063 0
M  V30 37 H 5.0362 -3.61863 -4.16844 0
M  V30 38 H 5.5132 -1.93765 -3.94147 0
M  V30 39 H 6.1192 -3.18086 -2.82314 0
M  V30 40 N 4.4343 0.785586 -1.36625 0
M  V30 41 C 5.6623 1.57448 -1.3423 0
M  V30 42 C 6.0773 1.88649 0.0755653 0
M  V30 43 O 5.4343 1.50414 1.03354 0
M  V30 44 C 5.4853 2.89316 -2.16745 0
M  V30 45 O 5.2063 2.59459 -3.53005 0
M  V30 46 C 6.7073 3.83606 -2.22174 0
M  V30 47 H 3.9273 0.488226 -0.4603 0
M  V30 48 H 6.4713 0.974733 -1.79775 0
M  V30 49 H 4.6263 3.4575 -1.74745 0
M  V30 50 H 5.0403 3.43804 -3.96105 0
M  V30 51 H 6.5143 4.73181 -2.8426 0
M  V30 52 H 6.9913 4.21734 -1.22627 0
M  V30 53 H 7.5973 3.33104 -2.64427 0
M  V30 54 N 5.9124 1.20967 1.01018 0
M  V30 55 C 6.8754 0.965918 2.07853 0
M  V30 56 C 7.8754 -0.0610545 1.60684 0
M  V30 57 O 9.0654 0.175681 1.73312 0
M  V30 58 C 6.1974 0.455513 3.37843 0
M  V30 59 H 7.3904 1.91365 2.3091 0
M  V30 60 H 4.9434 1.02594 1.17916 0
M  V30 61 H 5.6784 -0.497381 3.20463 0
M  V30 62 H 5.4634 1.19622 3.73407 0
M  V30 63 H 6.9534 0.304667 4.16487 0
M  V30 64 N 7.3905 -1.2043 1.01659 0
M  V30 65 C 8.8015 -1.71517 0.737482 0
M  V30 66 C 9.1525 -1.81547 -0.743973 0
M  V30 67 O 8.2775 -1.47803 -1.58061 0
M  V30 68 C 8.8725 -3.11515 1.33206 0
M  V30 69 C 7.4315 -3.59912 1.10183 0
M  V30 70 C 6.5785 -2.37116 1.43776 0
M  V30 71 H 9.5295 -1.05444 1.18606 0
M  V30 72 H 9.5505 -3.73575 0.722636 0
M  V30 73 H 9.0625 -3.04182 2.41028 0
M  V30 74 H 7.1635 -3.72577 0.0412756 0
M  V30 75 H 7.2765 -4.44731 1.78188 0
M  V30 76 H 5.6405 -2.39857 0.856778 0
M  V30 77 H 6.4235 -2.32424 2.52654 0
M  V30 78 N 8.8686 -0.792821 -1.36206 0
M  V30 79 C 10.1166 -0.366062 -1.98757 0
M  V30 80 C 10.4376 1.0668 -1.63231 0
M  V30 81 O 9.7076 1.73587 -0.907978 0
M  V30 82 H 8.2876 -0.132364 -0.735179 0
M  V30 83 H 10.9496 -1.01562 -1.66347 0
M  V30 84 H 10.0456 -0.460638 -3.08682 0
M  V30 85 N 10.3467 1.47872 -0.545128 0
M  V30 86 C 11.7577 1.86384 -0.108581 0
M  V30 87 C 12.1087 1.45309 1.31832 0
M  V30 88 O 11.2337 0.850641 1.9898 0
M  V30 89 C 11.8287 3.38265 -0.190274 0
M  V30 90 C 10.3877 3.75914 0.191164 0
M  V30 91 C 9.5347 2.71926 -0.543273 0
M  V30 92 H 12.4857 1.39561 -0.755537 0
M  V30 93 H 12.5067 3.75831 0.594217 0
M  V30 94 H 12.0187 3.6813 -1.2289 0
M  V30 95 H 10.1197 3.51665 1.23136 0
M  V30 96 H 10.2327 4.78836 -0.158987 0
M  V30 97 H 8.5967 2.54697 0.0122495 0
M  V30 98 H 9.3797 3.04634 -1.58282 0
M  V30 99 N 11.8248 0.280983 1.55075 0
M  V30 100 C 13.0738 -0.334784 1.98902 0
M  V30 101 C 13.3868 -1.56534 1.17288 0
M  V30 102 O 14.5928 -2.25443 1.51287 0
M  V30 103 C 13.0488 -0.646994 3.54037 0
M  V30 104 C 12.6568 0.564085 4.44435 0
M  V30 105 C 14.4008 -1.22506 4.06439 0
M  V30 106 C 12.3078 0.226137 5.90967 0
M  V30 107 H 11.2378 -0.128866 0.742906 0
M  V30 108 H 13.8888 0.386556 1.79382 0
M  V30 109 H 12.2708 -1.42739 3.6938 0
M  V30 110 H 13.4448 1.34082 4.40861 0
M  V30 111 H 11.7598 1.0594 4.02698 0
M  V30 112 H 14.3568 -1.49182 5.13468 0
M  V30 113 H 14.6998 -2.16085 3.55827 0
M  V30 114 H 15.2328 -0.50682 3.94558 0
M  V30 115 H 11.9718 1.12996 6.45687 0
M  V30 116 H 11.4918 -0.513717 5.97596 0
M  V30 117 H 13.1708 -0.179539 6.46751 0
M  V30 118 N 13.3029 -1.57598 0.00835791 0
M  V30 119 C 14.2529 -2.05431 -0.989045 0
M  V30 120 C 15.2369 -0.950662 -1.29812 0
M  V30 121 O 16.4289 -1.21438 -1.28771 0
M  V30 122 C 13.5579 -2.56801 -2.27833 0
M  V30 123 C 12.6439 -3.74058 -1.99853 0
M  V30 124 N 13.0349 -4.8544 -1.42062 0
M  V30 125 C 11.3329 -3.82148 -2.29953 0
M  V30 126 C 12.0339 -5.66817 -1.30743 0
M  V30 127 N 11.0099 -5.13077 -1.7959 0
M  V30 128 H 14.8119 -2.88955 -0.536853 0
M  V30 129 H 12.3259 -1.61199 -0.197148 0
M  V30 130 H 14.3229 -2.89349 -3.00137 0
M  V30 131 H 12.9829 -1.74699 -2.73698 0
M  V30 132 H 13.9939 -5.0612 -1.09833 0
M  V30 133 H 10.6709 -3.10916 -2.78635 0
M  V30 134 H 12.0609 -6.66343 -0.862328 0
M  V30 135 N 14.781 0.264519 -1.55364 0
M  V30 136 C 15.711 1.33121 -1.91836 0
M  V30 137 C 16.692 1.51101 -0.781192 0
M  V30 138 O 17.877 1.64003 -1.04003 0
M  V30 139 C 15.007 2.68921 -2.19769 0
M  V30 140 C 13.961 2.65661 -3.35571 0
M  V30 141 C 13.287 4.05093 -3.49004 0
M  V30 142 C 14.587 2.24187 -4.71739 0
M  V30 143 H 16.281 1.02844 -2.81182 0
M  V30 144 H 13.827 0.493286 -1.35287 0
M  V30 145 H 15.78 3.43663 -2.43872 0
M  V30 146 H 14.504 3.00799 -1.27231 0
M  V30 147 H 13.163 1.93377 -3.1145 0
M  V30 148 H 12.811 4.34206 -2.53917 0
M  V30 149 H 12.511 4.03804 -4.26868 0
M  V30 150 H 14.035 4.81561 -3.75408 0
M  V30 151 H 15.449 2.88654 -4.9533 0
M  V30 152 H 13.846 2.34044 -5.52579 0
M  V30 153 H 14.916 1.19327 -4.69988 0
M  V30 154 N 16.2591 1.48442 0.529413 0
M  V30 155 C 17.1891 1.65902 1.64313 0
M  V30 156 C 18.1701 0.507897 1.6234 0
M  V30 157 O 19.3551 0.740503 1.79528 0
M  V30 158 C 16.4851 1.69911 3.02898 0
M  V30 159 C 15.4391 2.8453 3.19729 0
M  V30 160 C 14.7651 2.73629 4.59381 0
M  V30 161 C 16.0651 4.25821 3.02447 0
M  V30 162 H 17.7591 2.5914 1.49955 0
M  V30 163 H 15.3051 1.24709 0.719982 0
M  V30 164 H 17.2581 1.80715 3.80684 0
M  V30 165 H 15.9821 0.732524 3.18279 0
M  V30 166 H 14.6411 2.73283 2.44361 0
M  V30 167 H 14.2891 1.74938 4.71599 0
M  V30 168 H 13.9891 3.50541 4.71588 0
M  V30 169 H 15.5131 2.86401 5.39265 0
M  V30 170 H 16.9271 4.37898 3.70024 0
M  V30 171 H 15.3241 5.03735 3.26146 0
M  V30 172 H 16.3941 4.42244 1.98867 0
M  V30 173 N 17.7372 -0.778329 1.37039 0
M  V30 174 C 18.6472 -1.92253 1.34446 0
M  V30 175 C 19.6632 -1.72267 0.244991 0
M  V30 176 O 20.8392 -1.95615 0.479258 0
M  V30 177 C 17.9042 -3.27282 1.144 0
M  V30 178 C 16.9652 -3.59969 2.33925 0
M  V30 179 C 16.1982 -4.88555 2.14825 0
M  V30 180 O 16.4212 -5.59113 1.12912 0
M  V30 181 O 15.3552 -5.20153 3.02861 0
M  V30 182 H 19.1812 -1.97392 2.30803 0
M  V30 183 H 16.7662 -0.920154 1.17701 0
M  V30 184 H 18.6482 -4.08062 1.05182 0
M  V30 185 H 17.3232 -3.23011 0.211124 0
M  V30 186 H 16.2302 -2.7945 2.48714 0
M  V30 187 H 17.5632 -3.68976 3.25757 0
M  V30 188 N 19.2153 -1.21501 -1.00376 0
M  V30 189 C 20.1453 -0.999478 -2.11028 0
M  V30 190 C 21.1263 0.0759671 -1.6993 0
M  V30 191 O 22.3113 -0.0841106 -1.94018 0
M  V30 192 C 19.4413 -0.564709 -3.42678 0
M  V30 193 C 18.3953 -1.58486 -3.97576 0
M  V30 194 C 17.7213 -1.00628 -5.25146 0
M  V30 195 C 19.0213 -2.97204 -4.29496 0
M  V30 196 H 20.7153 -1.92495 -2.29317 0
M  V30 197 H 18.2613 -0.92693 -1.102 0
M  V30 198 H 20.2143 -0.401091 -4.19487 0
M  V30 199 H 18.9383 0.396411 -3.24185 0
M  V30 200 H 17.5973 -1.73606 -3.22888 0
M  V30 201 H 17.2453 -0.0368439 -5.02987 0
M  V30 202 H 16.9453 -1.68771 -5.62841 0
M  V30 203 H 18.4693 -0.854015 -6.04598 0
M  V30 204 H 19.8833 -2.8552 -4.97143 0
M  V30 205 H 18.2803 -3.62372 -4.78338 0
M  V30 206 H 19.3503 -3.47956 -3.3772 0
M  V30 207 N 20.6934 1.19889 -1.02296 0
M  V30 208 C 21.9334 1.91125 -0.724602 0
M  V30 209 C 22.2974 1.77464 0.732835 0
M  V30 210 O 23.4984 2.43241 1.144 0
M  V30 211 C 21.7694 3.38187 -1.15604 0
M  V30 212 S 23.3284 4.27702 -0.980621 0
M  V30 213 H 20.1464 0.66018 -0.263976 0
M  V30 214 H 22.7484 1.44978 -1.31155 0
M  V30 215 H 21.4524 3.45653 -2.21251 0
M  V30 216 H 20.9834 3.89363 -0.562131 0
M  V30 217 H 22.9984 4.96073 0.112225 0
M  V30 218 N 22.1715 0.800033 1.35784 0
M  V30 219 C 23.4485 0.30088 1.93272 0
M  V30 220 C 23.8285 -1.20857 1.73081 0
M  V30 221 O 23.1765 -2.00502 1.09596 0
M  V30 222 C 23.3865 0.70511 3.41803 0
M  V30 223 C 24.7345 0.690871 4.18942 0
M  V30 224 O 25.7585 0.646244 3.50289 0
M  V30 225 O 24.6175 0.74332 5.41421 0
M  V30 226 H 21.7115 0.0771605 0.823393 0
M  V30 227 H 24.2575 0.88329 1.449 0
M  V30 228 H 23.0295 1.74571 3.50201 0
M  V30 229 H 22.6525 0.0971541 3.97481 0
M  V30 230 N 23.6496 -1.47581 0.552962 0
M  V30 231 C 24.5816 -2.27997 -0.234533 0
M  V30 232 C 25.5946 -1.36753 -0.883321 0
M  V30 233 O 26.7836 -1.61612 -0.757889 0
M  V30 234 C 23.8836 -3.10879 -1.34935 0
M  V30 235 C 23.0566 -4.30056 -0.798158 0
M  V30 236 C 22.1156 -4.94567 -1.79694 0
M  V30 237 O 21.1416 -5.53087 -1.34474 0
M  V30 238 N 22.3436 -4.88878 -3.13015 0
M  V30 239 H 25.1086 -2.96222 0.455255 0
M  V30 240 H 22.6696 -1.57163 0.388761 0
M  V30 241 H 24.6616 -3.50903 -2.01616 0
M  V30 242 H 23.2316 -2.44924 -1.94244 0
M  V30 243 H 22.4516 -3.94174 0.0453079 0
M  V30 244 H 23.7396 -5.07152 -0.409173 0
M  V30 245 H 23.1376 -4.42526 -3.52402 0
M  V30 246 H 21.6946 -5.32934 -3.75266 0
M  V30 247 N 25.1277 -0.289203 -1.54924 0
M  V30 248 C 26.0747 0.592115 -2.23075 0
M  V30 249 C 27.0447 1.13881 -1.20915 0
M  V30 250 O 28.2297 1.18551 -1.495 0
M  V30 251 C 25.3697 1.76376 -2.96623 0
M  V30 252 C 24.4827 1.24959 -4.13533 0
M  V30 253 C 23.6177 2.38416 -4.74691 0
M  V30 254 C 22.6567 1.84072 -5.83767 0
M  V30 255 N 21.7937 2.91057 -6.38929 0
M  V30 256 H 26.6337 0.00432038 -2.98 0
M  V30 257 H 24.1707 -0.00963529 -1.47097 0
M  V30 258 H 26.1287 2.45268 -3.3749 0
M  V30 259 H 24.7587 2.32337 -2.24097 0
M  V30 260 H 23.8107 0.453307 -3.77689 0
M  V30 261 H 25.1227 0.811662 -4.92152 0
M  V30 262 H 24.2767 3.15276 -5.18349 0
M  V30 263 H 23.0157 2.8553 -3.95378 0
M  V30 264 H 22.0207 1.05697 -5.39545 0
M  V30 265 H 23.2457 1.37877 -6.64956 0
M  V30 266 H 21.1917 3.37526 -5.62505 0
M  V30 267 H 21.1087 2.51724 -7.12861 0
M  V30 268 H 22.3767 3.6785 -6.87246 0
M  V30 269 N 26.6058 1.57591 -0.0167156 0
M  V30 270 C 27.5358 2.12496 0.967858 0
M  V30 271 C 28.5168 1.03807 1.34752 0
M  V30 272 O 29.7018 1.31577 1.42833 0
M  V30 273 C 26.8318 2.64194 2.25431 0
M  V30 274 C 25.7858 3.77559 2.01576 0
M  V30 275 C 25.1118 4.15636 3.36379 0
M  V30 276 C 26.4118 5.04151 1.36489 0
M  V30 277 H 28.1058 2.95013 0.510643 0
M  V30 278 H 25.6518 1.41915 0.244181 0
M  V30 279 H 27.6048 3.01236 2.94678 0
M  V30 280 H 26.3288 1.78821 2.73296 0
M  V30 281 H 24.9878 3.40937 1.34751 0
M  V30 282 H 24.6358 3.27263 3.81979 0
M  V30 283 H 24.3358 4.92022 3.21229 0
M  V30 284 H 25.8598 4.5525 4.06915 0
M  V30 285 H 27.2738 5.38857 1.95718 0
M  V30 286 H 25.6708 5.85453 1.31776 0
M  V30 287 H 26.7408 4.83733 0.336219 0
M  V30 288 N 28.0839 -0.256276 1.55502 0
M  V30 289 C 29.0169 -1.34321 1.84481 0
M  V30 290 C 29.9949 -1.46802 0.699131 0
M  V30 291 O 31.1789 -1.63165 0.943904 0
M  V30 292 C 28.3059 -2.71779 2.02123 0
M  V30 293 C 27.3519 -2.76496 3.24734 0
M  V30 294 S 28.1849 -2.3405 4.81644 0
M  V30 295 C 29.3409 -3.73452 5.02279 0
M  V30 296 H 29.5739 -1.09539 2.76385 0
M  V30 297 H 27.1069 -0.45678 1.47489 0
M  V30 298 H 29.0649 -3.50932 2.12972 0
M  V30 299 H 27.7259 -2.93803 1.11078 0
M  V30 300 H 26.9189 -3.77424 3.34016 0
M  V30 301 H 26.5209 -2.05379 3.12563 0
M  V30 302 H 28.8129 -4.6887 4.89047 0
M  V30 303 H 29.7559 -3.6911 6.04287 0
M  V30 304 H 30.1639 -3.6553 4.30172 0
M  V30 305 N 29.562 -1.4872 -0.521534 0
M  V30 306 C 30.472 -1.66569 -1.65203 0
M  V30 307 C 31.488 -0.548197 -1.65139 0
M  V30 308 O 32.664 -0.820339 -1.83936 0
M  V30 309 C 29.729 -1.70917 -3.01642 0
M  V30 310 C 28.79 -2.94356 -3.12495 0
M  V30 311 C 28.023 -2.98487 -4.42426 0
M  V30 312 O 28.246 -2.10786 -5.30024 0
M  V30 313 O 27.18 -3.90746 -4.57822 0
M  V30 314 H 31.006 -2.62298 -1.5308 0
M  V30 315 H 28.591 -1.3222 -0.695565 0
M  V30 316 H 30.473 -1.7625 -3.82771 0
M  V30 317 H 29.148 -0.783633 -3.14071 0
M  V30 318 H 28.055 -2.94552 -2.3063 0
M  V30 319 H 29.388 -3.86322 -3.04986 0
M  V30 320 N 31.0401 0.771051 -1.3745 0
M  V30 321 C 32.2871 1.52963 -1.32697 0
M  V30 322 C 32.6151 1.94299 0.0883274 0
M  V30 323 O 31.8701 1.64397 1.0617 0
M  V30 324 C 32.1691 2.80676 -2.2126 0
M  V30 325 C 31.8351 2.58389 -3.69521 0
M  V30 326 C 30.4971 2.52019 -4.09927 0
M  V30 327 C 32.8491 2.38469 -4.63446 0
M  V30 328 C 30.1771 2.23721 -5.42371 0
M  V30 329 C 32.5291 2.11694 -5.96128 0
M  V30 330 C 31.1931 2.03769 -6.35637 0
M  V30 331 H 30.4631 0.559732 -0.485573 0
M  V30 332 H 33.1101 0.888083 -1.69662 0
M  V30 333 H 31.4151 3.49392 -1.77291 0
M  V30 334 H 33.1121 3.38557 -2.14895 0
M  V30 335 H 29.7021 2.6421 -3.37478 0
M  V30 336 H 33.8861 2.4238 -4.33089 0
M  V30 337 H 29.1421 2.16081 -5.71943 0
M  V30 338 H 33.3161 1.9528 -6.6846 0
M  V30 339 H 30.9431 1.81606 -7.38189 0
M  V30 340 N 32.5182 1.22032 0.997298 0
M  V30 341 C 33.4482 1.01065 2.10495 0
M  V30 342 C 34.4292 -0.0669542 1.69968 0
M  V30 343 O 35.6142 0.0943987 1.9397 0
M  V30 344 C 32.7442 0.582874 3.42374 0
M  V30 345 C 31.6982 1.60592 3.96729 0
M  V30 346 C 31.0242 1.03412 5.24605 0
M  V30 347 C 32.3242 2.99478 4.27914 0
M  V30 348 H 34.0182 1.93708 2.28292 0
M  V30 349 H 31.5642 0.932761 1.09707 0
M  V30 350 H 33.5172 0.423332 4.19268 0
M  V30 351 H 32.2412 -0.379213 3.24391 0
M  V30 352 H 30.9002 1.75316 3.21963 0
M  V30 353 H 30.5482 0.063518 5.0296 0
M  V30 354 H 30.2482 1.71754 5.61938 0
M  V30 355 H 31.7722 0.886066 6.04137 0
M  V30 356 H 33.1862 2.88153 4.95622 0
M  V30 357 H 31.5832 3.64903 4.76409 0
M  V30 358 H 32.6532 3.49742 3.3587 0
M  V30 359 N 33.9963 -1.19345 1.0293 0
M  V30 360 C 35.2363 -1.90738 0.734727 0
M  V30 361 C 35.6003 -1.7785 -0.723414 0
M  V30 362 O 36.8013 -2.43844 -1.13108 0
M  V30 363 C 35.0723 -3.37569 1.17396 0
M  V30 364 S 36.6313 -4.27176 1.00329 0
M  V30 365 H 33.4493 -0.658771 0.267474 0
M  V30 366 H 36.0513 -1.4428 1.31922 0
M  V30 367 H 34.7553 -3.44475 2.23081 0
M  V30 368 H 34.2863 -3.8906 0.582772 0
M  V30 369 H 36.3013 -4.96126 -0.0859152 0
M  V30 370 N 35.4744 -0.807222 -1.35358 0
M  V30 371 C 36.4224 -0.20614 -2.31685 0
M  V30 372 C 37.4164 0.644445 -1.56663 0
M  V30 373 O 38.6224 0.537538 -1.71786 0
M  V30 374 H 34.9974 -0.0479006 -0.750473 0
M  V30 375 H 36.9684 -1.03369 -2.79924 0
M  V30 376 C 35.7174 0.630212 -3.41941 0
M  V30 377 H 35.0404 -0.0149558 -3.99797 0
M  V30 378 H 36.4804 1.01716 -4.11619 0
M  V30 379 C 34.9394 1.79601 -2.85035 0
M  V30 380 O 35.4694 2.89351 -2.78637 0
M  V30 381 N 33.6754 1.60774 -2.42074 0
M  V30 382 H 33.2224 0.715009 -2.47478 0
M  V30 383 H 33.1804 2.38933 -2.04349 0
M  V30 384 N 36.9525 1.47285 -0.560781 0
M  V30 385 C 37.8855 2.27009 0.232821 0
M  V30 386 C 38.8635 1.34273 0.917039 0
M  V30 387 O 40.0475 1.63659 0.935315 0
M  V30 388 C 37.1745 3.11406 1.33206 0
M  V30 389 C 36.2205 4.19746 0.756019 0
M  V30 390 S 37.0535 5.34003 -0.400165 0
M  V30 391 C 38.2095 6.21964 0.700805 0
M  V30 392 H 38.4425 2.93971 -0.443683 0
M  V30 393 H 35.9755 1.50446 -0.347181 0
M  V30 394 H 37.9335 3.60601 1.96156 0
M  V30 395 H 36.5945 2.438 1.98041 0
M  V30 396 H 35.7875 4.78541 1.5816 0
M  V30 397 H 35.3895 3.73451 0.202619 0
M  V30 398 H 37.6815 6.58529 1.59202 0
M  V30 399 H 38.6245 7.07941 0.150126 0
M  V30 400 H 39.0325 5.5566 0.995083 0
M  V30 401 N 38.4306 0.297415 1.54768 0
M  V30 402 C 39.7076 -0.365847 1.92148 0
M  V30 403 C 40.0876 -1.71975 1.22424 0
M  V30 404 O 39.4356 -2.25666 0.358739 0
M  V30 405 C 39.6456 -0.484056 3.45627 0
M  V30 406 C 40.9936 -0.756594 4.17805 0
M  V30 407 O 42.0176 -0.568007 3.51642 0
M  V30 408 O 40.8766 -1.11863 5.34929 0
M  V30 409 H 37.9706 -0.203919 0.801465 0
M  V30 410 H 40.5166 0.34521 1.66152 0
M  V30 411 H 39.2886 0.467865 3.88493 0
M  V30 412 H 38.9116 -1.24372 3.77647 0
M  V30 413 N 39.9087 -1.5758 0.0250728 0
M  V30 414 C 40.8567 -2.11125 -0.97617 0
M  V30 415 C 41.8507 -1.03689 -1.33959 0
M  V30 416 O 43.0567 -1.22128 -1.3223 0
M  V30 417 H 39.4317 -0.674468 -0.332561 0
M  V30 418 H 41.4027 -2.94194 -0.499223 0
M  V30 419 C 40.1517 -2.65017 -2.2508 0
M  V30 420 H 39.4747 -3.47333 -1.9799 0
M  V30 421 H 40.9147 -3.06133 -2.93357 0
M  V30 422 C 39.3737 -1.57574 -2.97779 0
M  V30 423 O 39.9037 -0.973203 -3.89733 0
M  V30 424 N 38.1097 -1.29716 -2.60043 0
M  V30 425 H 37.6567 -1.789 -1.85345 0
M  V30 426 H 37.6147 -0.58051 -3.08994 0
M  V30 427 N 41.3868 0.248026 -1.55636 0
M  V30 428 C 42.3338 1.30707 -1.90222 0
M  V30 429 C 43.3038 1.47881 -0.756332 0
M  V30 430 O 44.4888 1.61883 -1.00988 0
M  V30 431 C 41.6288 2.65769 -2.20138 0
M  V30 432 C 40.7418 2.56612 -3.47526 0
M  V30 433 C 39.8768 3.8402 -3.67017 0
M  V30 434 C 38.9158 3.69476 -4.8801 0
M  V30 435 N 38.0528 4.88774 -5.04029 0
M  V30 436 H 42.8928 1.00512 -2.80538 0
M  V30 437 H 40.4298 0.485055 -1.38873 0
M  V30 438 H 42.3878 3.44386 -2.35487 0
M  V30 439 H 41.0178 2.94115 -1.33027 0
M  V30 440 H 40.0698 1.69571 -3.40514 0
M  V30 441 H 41.3818 2.41774 -4.36287 0
M  V30 442 H 40.5358 4.7108 -3.8232 0
M  V30 443 H 39.2748 4.01754 -2.76487 0
M  V30 444 H 38.2798 2.80799 -4.72686 0
M  V30 445 H 39.5048 3.53238 -5.8 0
M  V30 446 H 37.4508 5.0687 -4.16435 0
M  V30 447 H 37.3678 4.76562 -5.86877 0
M  V30 448 H 38.6358 5.77335 -5.23741 0
M  V30 449 N 42.8649 1.48995 0.513639 0
M  V30 450 C 44.1419 1.48338 1.27495 0
M  V30 451 C 44.5219 0.204065 2.10111 0
M  V30 452 O 43.8699 -0.813881 2.13514 0
M  V30 453 C 44.0799 2.75498 2.14247 0
M  V30 454 C 45.4279 3.24484 2.73852 0
M  V30 455 O 46.4519 2.76528 2.24523 0
M  V30 456 O 45.3109 4.07974 3.6362 0
M  V30 457 H 42.4049 0.593149 0.576284 0
M  V30 458 H 44.9509 1.61246 0.528948 0
M  V30 459 H 43.7229 3.60109 1.53092 0
M  V30 460 H 43.3459 2.6539 2.96064 0
M  V30 461 N 44.343 -0.763751 1.37857 0
M  V30 462 C 45.273 -1.89103 1.36975 0
M  V30 463 C 46.254 -1.68439 0.237152 0
M  V30 464 O 47.439 -1.8918 0.438713 0
M  V30 465 C 44.569 -3.26496 1.18395 0
M  V30 466 C 43.523 -3.61741 2.28751 0
M  V30 467 C 42.849 -4.97762 1.95286 0
M  V30 468 C 44.149 -3.67665 3.70972 0
M  V30 469 H 45.843 -1.90099 2.31307 0
M  V30 470 H 43.389 -0.91319 1.11341 0
M  V30 471 H 45.342 -4.05003 1.16406 0
M  V30 472 H 44.066 -3.25955 0.205215 0
M  V30 473 H 42.725 -2.85547 2.29909 0
M  V30 474 H 42.373 -4.93769 0.959221 0
M  V30 475 H 42.073 -5.22313 2.69189 0
M  V30 476 H 43.597 -5.7866 1.94898 0
M  V30 477 H 45.011 -4.36307 3.719 0
M  V30 478 H 43.408 -4.03718 4.43995 0
M  V30 479 H 44.478 -2.68134 4.0402 0
M  V30 480 N 45.8211 -1.22559 -0.990812 0
M  V30 481 C 47.0671 -1.05297 -1.73322 0
M  V30 482 C 47.4001 0.410655 -1.89808 0
M  V30 483 O 46.6751 1.30439 -1.44277 0
M  V30 484 C 46.9581 -1.76713 -3.13759 0
M  V30 485 C 46.8111 -3.30684 -3.04907 0
M  V30 486 C 48.1301 -1.52121 -4.12974 0
M  V30 487 H 45.2491 -0.38392 -0.629106 0
M  V30 488 H 47.8911 -1.50926 -1.15418 0
M  V30 489 H 46.0411 -1.37924 -3.63193 0
M  V30 490 H 47.7131 -3.7893 -2.63077 0
M  V30 491 H 45.9561 -3.60253 -2.41661 0
M  V30 492 H 46.6271 -3.75833 -4.04294 0
M  V30 493 H 49.1031 -1.85819 -3.72304 0
M  V30 494 H 47.9791 -2.04582 -5.0935 0
M  V30 495 H 48.2401 -0.454257 -4.3976 0
M  V30 496 N 47.2992 1.18797 -1.03562 0
M  V30 497 C 48.5452 1.89192 -0.746867 0
M  V30 498 C 48.9002 1.78531 0.717245 0
M  V30 499 O 48.1932 1.17137 1.51622 0
M  V30 500 C 48.3872 3.38692 -1.14117 0
M  V30 501 C 48.2162 3.63902 -2.64207 0
M  V30 502 C 46.9862 3.81553 -3.31279 0
M  V30 503 C 49.1842 3.64903 -3.62423 0
M  V30 504 N 47.1662 3.94455 -4.70402 0
M  V30 505 C 48.5372 3.83458 -4.87196 0
M  V30 506 C 50.5922 3.47965 -3.56125 0
M  V30 507 C 49.2952 3.86829 -6.06429 0
M  V30 508 C 51.3212 3.52616 -4.7478 0
M  V30 509 C 50.6832 3.71663 -5.9837 0
M  V30 510 H 46.7822 0.711141 -0.325273 0
M  V30 511 H 49.3662 1.42727 -1.32428 0
M  V30 512 H 47.5372 3.83864 -0.591889 0
M  V30 513 H 49.2692 3.96634 -0.803966 0
M  V30 514 H 46.0242 3.80723 -2.81686 0
M  V30 515 H 46.4482 4.0474 -5.42692 0
M  V30 516 H 51.0902 3.32189 -2.61553 0
M  V30 517 H 48.8082 4.01395 -7.01362 0
M  V30 518 H 52.3942 3.40791 -4.71543 0
M  V30 519 H 51.2742 3.75145 -6.88648 0
M  V30 520 N 48.7773 0.814389 1.34928 0
M  V30 521 C 49.7073 0.244827 2.32213 0
M  V30 522 C 50.6883 -0.634024 1.57842 0
M  V30 523 O 51.8733 -0.562676 1.8587 0
M  V30 524 C 49.0033 -0.601106 3.42058 0
M  V30 525 C 47.9573 0.179896 4.27622 0
M  V30 526 C 47.2833 -0.788237 5.28858 0
M  V30 527 C 48.5833 1.38329 5.03649 0
M  V30 528 H 50.2773 1.05763 2.80097 0
M  V30 529 H 47.8233 0.510029 1.34665 0
M  V30 530 H 49.7763 -1.00968 4.09125 0
M  V30 531 H 48.5003 -1.44688 2.92802 0
M  V30 532 H 47.1593 0.569739 3.62146 0
M  V30 533 H 46.8073 -1.62973 4.75866 0
M  V30 534 H 46.5073 -0.269942 5.8698 0
M  V30 535 H 48.0313 -1.19485 5.98795 0
M  V30 536 H 49.4453 1.04918 5.63618 0
M  V30 537 H 47.8423 1.83662 5.71304 0
M  V30 538 H 48.9123 2.16592 4.33839 0
M  V30 539 N 50.2554 -1.46986 0.568584 0
M  V30 540 C 51.1654 -2.33942 -0.17555 0
M  V30 541 C 52.1814 -1.48891 -0.90041 0
M  V30 542 O 53.3574 -1.81794 -0.86676 0
M  V30 543 C 50.4224 -3.25811 -1.18524 0
M  V30 544 C 49.4834 -4.26757 -0.466582 0
M  V30 545 C 48.7164 -5.14236 -1.42817 0
M  V30 546 O 48.9394 -5.04379 -2.66379 0
M  V30 547 O 47.8734 -5.94412 -0.946453 0
M  V30 548 H 51.6994 -2.98896 0.538036 0
M  V30 549 H 49.2844 -1.4573 0.329097 0
M  V30 550 H 51.1664 -3.82527 -1.76779 0
M  V30 551 H 49.8414 -2.63471 -1.88055 0
M  V30 552 H 48.7484 -3.73769 0.157451 0
M  V30 553 H 50.0814 -4.91843 0.187485 0
M  V30 554 N 51.7335 -0.305618 -1.54608 0
M  V30 555 C 52.6435 0.57778 -2.27374 0
M  V30 556 C 53.6595 1.14451 -1.31061 0
M  V30 557 O 54.8355 1.16831 -1.6405 0
M  V30 558 C 51.9005 1.73123 -3.00382 0
M  V30 559 C 50.9615 1.19812 -4.12242 0
M  V30 560 C 50.1945 2.2966 -4.81759 0
M  V30 561 O 50.4175 3.49651 -4.50666 0
M  V30 562 O 49.3515 1.96091 -5.69062 0
M  V30 563 H 53.1775 -0.012624 -3.03697 0
M  V30 564 H 50.7625 -0.0719184 -1.49227 0
M  V30 565 H 52.6445 2.40315 -3.4616 0
M  V30 566 H 51.3195 2.30815 -2.26949 0
M  V30 567 H 50.2265 0.491798 -3.70853 0
M  V30 568 H 51.5595 0.666566 -4.87666 0
M  V30 569 N 53.2116 1.57565 -0.0334293 0
M  V30 570 C 54.4606 1.91155 0.643639 0
M  V30 571 C 54.7736 0.91192 1.73042 0
M  V30 572 O 55.9796 1.13923 2.46442 0
M  V30 573 C 54.4356 3.39443 1.1961 0
M  V30 574 C 54.0436 4.47774 0.142381 0
M  V30 575 C 55.7876 3.82094 1.84944 0
M  V30 576 C 53.6946 5.87162 0.706727 0
M  V30 577 H 52.6246 0.713368 0.244176 0
M  V30 578 H 55.2756 1.8323 -0.0994323 0
M  V30 579 H 53.6576 3.42313 1.99092 0
M  V30 580 H 54.8316 4.56469 -0.630296 0
M  V30 581 H 53.1466 4.14352 -0.412446 0
M  V30 582 H 55.7436 4.83591 2.2813 0
M  V30 583 H 56.0866 3.17386 2.69392 0
M  V30 584 H 56.6196 3.81665 1.12145 0
M  V30 585 H 53.3586 6.55424 -0.0997178 0
M  V30 586 H 52.8786 5.82064 1.44779 0
M  V30 587 H 54.5576 6.35866 1.19514 0
M  V30 588 N 54.6897 -0.239769 1.55765 0
M  V30 589 C 55.6217 -1.32001 1.87372 0
M  V30 590 C 56.6347 -1.43944 0.760522 0
M  V30 591 O 57.8237 -1.45167 1.0387 0
M  V30 592 C 54.9237 -2.69779 2.05115 0
M  V30 593 C 54.0967 -2.80014 3.36022 0
M  V30 594 C 53.1557 -3.98684 3.4342 0
M  V30 595 O 52.1817 -3.87877 4.16582 0
M  V30 596 N 53.3837 -5.12176 2.73232 0
M  V30 597 H 56.1487 -1.0522 2.80622 0
M  V30 598 H 53.7097 -0.429857 1.56089 0
M  V30 599 H 55.7017 -3.47517 2.07399 0
M  V30 600 H 54.2717 -2.89237 1.18577 0
M  V30 601 H 53.4917 -1.88896 3.45994 0
M  V30 602 H 54.7797 -2.83808 4.22292 0
M  V30 603 H 54.1777 -5.2385 2.13536 0
M  V30 604 H 52.7347 -5.88022 2.81199 0
M  V30 605 N 56.1678 -1.49265 -0.50573 0
M  V30 606 C 57.0778 -1.68312 -1.63427 0
M  V30 607 C 58.0938 -0.565682 -1.64548 0
M  V30 608 O 59.2698 -0.839801 -1.83055 0
M  V30 609 C 56.3348 -1.74107 -2.99813 0
M  V30 610 C 55.3958 -2.97653 -3.09356 0
M  V30 611 C 54.6288 -3.03163 -4.39236 0
M  V30 612 O 54.8518 -2.16396 -5.27758 0
M  V30 613 O 53.7858 -3.9558 -4.53652 0
M  V30 614 H 57.6118 -2.63907 -1.50289 0
M  V30 615 H 55.1968 -1.32951 -0.681502 0
M  V30 616 H 57.0788 -1.803 -3.80881 0
M  V30 617 H 55.7538 -0.816901 -3.13223 0
M  V30 618 H 54.6608 -2.96981 -2.27493 0
M  V30 619 H 55.9938 -3.89535 -3.00871 0
M  V30 620 N 57.6459 0.756429 -1.3826 0
M  V30 621 C 58.5559 1.9009 -1.37488 0
M  V30 622 C 59.5719 1.71855 -0.272366 0
M  V30 623 O 60.7479 1.94827 -0.510318 0
M  V30 624 C 57.8129 3.25421 -1.19592 0
M  V30 625 C 56.8739 3.56202 -2.39622 0
M  V30 626 C 56.1069 4.85075 -2.2257 0
M  V30 627 O 56.3299 5.57246 -1.21793 0
M  V30 628 O 55.2639 5.15269 -3.11098 0
M  V30 629 H 59.0899 1.93695 -2.33914 0
M  V30 630 H 56.6749 0.901313 -1.1915 0
M  V30 631 H 58.5569 4.06337 -1.11661 0
M  V30 632 H 57.2319 3.22634 -0.262486 0
M  V30 633 H 56.1389 2.75458 -2.53128 0
M  V30 634 H 57.4719 3.63747 -3.31586 0
M  V30 635 N 59.124 1.23083 0.984299 0
M  V30 636 C 60.087 1.00979 2.05757 0
M  V30 637 C 61.087 -0.0269573 1.60777 0
M  V30 638 O 62.277 0.212403 1.729 0
M  V30 639 C 59.409 0.527072 3.36801 0
M  V30 640 H 60.602 1.9622 2.26799 0
M  V30 641 H 58.155 1.05072 1.15714 0
M  V30 642 H 58.89 -0.429294 3.21446 0
M  V30 643 H 58.675 1.27515 3.70786 0
M  V30 644 H 60.165 0.392942 4.15747 0
M  V30 645 N 60.6021 -1.18246 1.0419 0
M  V30 646 C 61.5121 -2.25574 0.644476 0
M  V30 647 C 62.5281 -1.70845 -0.329826 0
M  V30 648 O 63.7041 -2.00554 -0.184443 0
M  V30 649 C 60.7691 -3.46697 0.014877 0
M  V30 650 C 59.8301 -4.16554 1.03834 0
M  V30 651 C 59.0631 -5.31894 0.438692 0
M  V30 652 O 59.2861 -5.65385 -0.754752 0
M  V30 653 O 58.2201 -5.90459 1.168 0
M  V30 654 H 62.0461 -2.61836 1.53869 0
M  V30 655 H 59.6311 -1.25352 0.812854 0
M  V30 656 H 61.5131 -4.20062 -0.335538 0
M  V30 657 H 60.1881 -3.12255 -0.853138 0
M  V30 658 H 59.0951 -3.45251 1.44057 0
M  V30 659 H 60.4281 -4.54998 1.87716 0
M  V30 660 N 62.0802 -0.821533 -1.34494 0
M  V30 661 C 63.4962 -0.507117 -1.51329 0
M  V30 662 C 63.6962 0.968964 -1.76673 0
M  V30 663 O 62.7522 1.75348 -1.81685 0
M  V30 664 C 64.0652 -1.36544 -2.67911 0
M  V30 665 C 65.6132 -1.36242 -2.81793 0
M  V30 666 C 66.0882 -2.2052 -4.01416 0
M  V30 667 N 67.5792 -2.18136 -4.08621 0
M  V30 668 C 68.3142 -2.80095 -5.00334 0
M  V30 669 N 67.8102 -3.51039 -5.9728 0
M  V30 670 N 69.6032 -2.69656 -4.93196 0
M  V30 671 H 61.7542 -1.77729 -1.16302 0
M  V30 672 H 64.0172 -0.757291 -0.570276 0
M  V30 673 H 63.7232 -2.41361 -2.55808 0
M  V30 674 H 63.5972 -1.02917 -3.62888 0
M  V30 675 H 65.9842 -0.322041 -2.93338 0
M  V30 676 H 66.0652 -1.73866 -1.87628 0
M  V30 677 H 65.7092 -3.24607 -3.90631 0
M  V30 678 H 65.6392 -1.80247 -4.94791 0
M  V30 679 H 68.1302 -1.6653 -3.39229 0
M  V30 680 H 68.4432 -3.95565 -6.63889 0
M  V30 681 H 66.7882 -3.55145 -5.97409 0
M  V30 682 H 69.9792 -2.13808 -4.16418 0
M  V30 683 H 70.1522 -3.1823 -5.64476 0
M  V30 684 N 63.5583 1.46682 -0.576371 0
M  V30 685 C 64.4913 2.27243 0.208731 0
M  V30 686 C 65.4693 1.35238 0.902746 0
M  V30 687 O 66.6533 1.64641 0.917904 0
M  V30 688 C 63.7803 3.12802 1.29896 0
M  V30 689 C 62.8263 4.20524 0.711457 0
M  V30 690 S 63.6593 5.33548 -0.456781 0
M  V30 691 C 64.8153 6.22673 0.634798 0
M  V30 692 H 65.0483 2.93484 -0.474838 0
M  V30 693 H 62.5813 1.50069 -0.363118 0
M  V30 694 H 64.5393 3.62661 1.92321 0
M  V30 695 H 63.2003 2.45887 1.95444 0
M  V30 696 H 62.3933 4.80191 1.53076 0
M  V30 697 H 61.9953 3.73645 0.162999 0
M  V30 698 H 64.2873 6.60181 1.52209 0
M  V30 699 H 65.2303 7.0806 0.0750311 0
M  V30 700 H 65.6383 5.56684 0.936092 0
M  V30 701 N 65.0364 0.313813 1.54444 0
M  V30 702 C 66.2834 -0.291675 2.00388 0
M  V30 703 C 66.6114 -1.52904 1.2021 0
M  V30 704 O 65.8664 -1.93833 0.269707 0
M  V30 705 C 66.1654 -0.680386 3.50864 0
M  V30 706 C 65.8314 0.456699 4.48581 0
M  V30 707 C 64.4934 0.768824 4.75018 0
M  V30 708 C 66.8454 1.22098 5.06697 0
M  V30 709 C 64.1734 1.84812 5.56831 0
M  V30 710 C 66.5254 2.29029 5.89685 0
M  V30 711 C 65.1894 2.60834 6.14428 0
M  V30 712 H 64.4594 -0.106732 0.733273 0
M  V30 713 H 67.1064 0.43557 1.86481 0
M  V30 714 H 65.4114 -1.48791 3.62448 0
M  V30 715 H 67.1084 -1.16026 3.83847 0
M  V30 716 H 63.6984 0.203337 4.28117 0
M  V30 717 H 67.8824 0.993096 4.86263 0
M  V30 718 H 63.1384 2.09912 5.74236 0
M  V30 719 H 67.3124 2.887 6.33739 0
M  V30 720 H 64.9394 3.44596 6.77612 0
M  V30 721 N 66.5145 -1.57545 0.0417849 0
M  V30 722 C 67.7425 -1.96624 -0.643928 0
M  V30 723 C 68.1575 -0.918897 -1.64929 0
M  V30 724 O 67.5145 0.0979323 -1.82237 0
M  V30 725 C 67.5655 -3.35781 -1.33914 0
M  V30 726 O 67.2865 -4.365 -0.374048 0
M  V30 727 C 68.7875 -3.89566 -2.1155 0
M  V30 728 H 66.0075 -0.647316 -0.176702 0
M  V30 729 H 68.5515 -2.04229 0.105304 0
M  V30 730 H 66.7065 -3.29357 -2.03968 0
M  V30 731 H 67.1205 -5.17248 -0.869179 0
M  V30 732 H 68.5945 -4.89242 -2.55628 0
M  V30 733 H 69.0715 -3.24488 -2.9598 0
M  V30 734 H 69.6775 -3.99298 -1.46427 0
M  V30 735 N 67.9926 0.231505 -1.5589 0
M  V30 736 C 69.4086 0.580748 -1.48659 0
M  V30 737 C 69.6086 1.87617 -0.73498 0
M  V30 738 O 68.6646 2.51046 -0.270586 0
M  V30 739 C 69.9776 0.669202 -2.93159 0
M  V30 740 C 71.5256 0.760499 -3.03621 0
M  V30 741 C 72.0006 0.880383 -4.49459 0
M  V30 742 N 73.4916 0.944861 -4.53461 0
M  V30 743 C 74.2266 1.05716 -5.63571 0
M  V30 744 N 73.7226 1.13403 -6.83456 0
M  V30 745 N 75.5156 1.09152 -5.514 0
M  V30 746 H 67.6666 -0.618695 -2.03189 0
M  V30 747 H 69.9296 -0.215728 -0.923128 0
M  V30 748 H 69.6356 -0.212904 -3.51055 0
M  V30 749 H 69.5096 1.5361 -3.44505 0
M  V30 750 H 71.8966 1.63305 -2.45796 0
M  V30 751 H 71.9776 -0.131864 -2.5546 0
M  V30 752 H 71.6216 0.0123284 -5.07899 0
M  V30 753 H 71.5516 1.78802 -4.95316 0
M  V30 754 H 74.0426 0.896176 -3.6712 0
M  V30 755 H 74.3556 1.21921 -7.63122 0
M  V30 756 H 72.7006 1.10333 -6.86186 0
M  V30 757 H 75.8916 1.02805 -4.56671 0
M  V30 758 H 76.0646 1.17558 -6.37247 0
M  V30 759 N 69.4707 1.49531 0.497807 0
M  V30 760 C 70.3807 1.69176 1.62532 0
M  V30 761 C 71.3967 0.5744 1.64246 0
M  V30 762 O 72.5727 0.849497 1.82608 0
M  V30 763 C 69.6377 1.75695 2.98885 0
M  V30 764 C 68.6987 2.9929 3.07773 0
M  V30 765 C 67.9317 3.05488 4.37622 0
M  V30 766 O 68.1547 2.19192 5.26603 0
M  V30 767 O 67.0887 3.9798 4.51548 0
M  V30 768 H 70.9147 2.647 1.48887 0
M  V30 769 H 68.4997 1.3331 0.674441 0
M  V30 770 H 70.3817 1.82317 3.79919 0
M  V30 771 H 69.0567 0.8335 3.12785 0
M  V30 772 H 67.9637 2.98183 2.25915 0
M  V30 773 H 69.2967 3.91125 2.98801 0
M  V30 774 N 70.9488 -0.749086 1.3866 0
M  V30 775 C 72.1958 -1.50833 1.35114 0
M  V30 776 C 72.5238 -1.94415 -0.0574049 0
M  V30 777 O 71.7788 -1.66065 -1.03541 0
M  V30 778 C 72.0778 -2.7712 2.25697 0
M  V30 779 C 71.7438 -2.52477 3.73585 0
M  V30 780 C 70.4058 -2.45466 4.13884 0
M  V30 781 C 72.7578 -2.31066 4.67181 0
M  V30 782 C 70.0858 -2.15064 5.45861 0
M  V30 783 C 72.4378 -2.02183 5.9942 0
M  V30 784 C 71.1018 -1.93631 6.38798 0
M  V30 785 H 70.3718 -0.551936 0.494416 0
M  V30 786 H 73.0188 -0.860979 1.71054 0
M  V30 787 H 71.3238 -3.46528 1.82827 0
M  V30 788 H 73.0208 -3.35096 2.20254 0
M  V30 789 H 69.6108 -2.58807 3.41638 0
M  V30 790 H 73.7948 -2.35459 4.3689 0
M  V30 791 H 69.0508 -2.06954 5.75308 0
M  V30 792 H 73.2248 -1.8462 6.71482 0
M  V30 793 H 70.8518 -1.69839 7.40985 0
M  V30 794 N 72.4269 -1.23603 -0.977757 0
M  V30 795 C 73.6519 -1.09735 -1.75991 0
M  V30 796 C 74.0769 0.346858 -1.84874 0
M  V30 797 O 73.4349 1.25093 -1.3123 0
M  V30 798 C 73.4829 -1.73051 -3.16363 0
M  V30 799 O 72.5869 -0.994452 -4.0023 0
M  V30 800 H 71.9279 -0.384476 -0.541364 0
M  V30 801 H 74.4579 -1.6371 -1.2272 0
M  V30 802 H 74.4679 -1.78398 -3.66931 0
M  V30 803 H 73.1429 -2.78137 -3.09213 0
M  V30 804 H 71.7199 -1.01812 -3.58732 0
M  V30 805 N 73.905 1.17692 -1.04816 0
M  V30 806 C 74.852 2.21581 -0.645797 0
M  V30 807 C 75.822 1.62367 0.350159 0
M  V30 808 O 77.007 1.89254 0.242433 0
M  V30 809 C 74.147 3.45092 -0.0227568 0
M  V30 810 C 73.26 4.18613 -1.06709 0
M  V30 811 C 72.395 5.29602 -0.411767 0
M  V30 812 C 71.434 5.94904 -1.44067 0
M  V30 813 N 70.571 6.97414 -0.809781 0
M  V30 814 H 75.411 2.55353 -1.5362 0
M  V30 815 H 72.948 1.25438 -0.768364 0
M  V30 816 H 74.906 4.15679 0.35588 0
M  V30 817 H 73.536 3.11917 0.831122 0
M  V30 818 H 72.588 3.46779 -1.5636 0
M  V30 819 H 73.9 4.63293 -1.84827 0
M  V30 820 H 73.054 6.06696 0.0206623 0
M  V30 821 H 71.793 4.86045 0.401438 0
M  V30 822 H 70.798 5.16544 -1.88316 0
M  V30 823 H 72.023 6.40542 -2.25571 0
M  V30 824 H 69.969 6.55998 -0.0170186 0
M  V30 825 H 69.886 7.40386 -1.52856 0
M  V30 826 H 71.154 7.78463 -0.401999 0
M  V30 827 N 75.3831 0.828654 1.34056 0
M  V30 828 C 76.2931 0.256725 2.33191 0
M  V30 829 C 77.3091 -0.611898 1.62886 0
M  V30 830 O 78.4851 -0.51844 1.94613 0
M  V30 831 C 75.5501 -0.567238 3.42028 0
M  V30 832 C 74.6111 0.324458 4.28072 0
M  V30 833 C 73.8441 -0.460274 5.31712 0
M  V30 834 O 74.0671 -1.693 5.44696 0
M  V30 835 O 73.0011 0.160391 6.01686 0
M  V30 836 H 76.8271 1.07739 2.83947 0
M  V30 837 H 74.4121 0.59093 1.37217 0
M  V30 838 H 76.2941 -1.03582 4.08471 0
M  V30 839 H 74.9691 -1.36513 2.93506 0
M  V30 840 H 73.8761 0.840659 3.64532 0
M  V30 841 H 75.2091 1.08685 4.8005 0
M  V30 842 N 76.8612 -1.46375 0.584142 0
M  V30 843 C 78.2722 -1.86031 0.157959 0
M  V30 844 C 78.6232 -1.48753 -1.27933 0
M  V30 845 O 77.7482 -0.903098 -1.96655 0
M  V30 846 C 78.3432 -3.37642 0.279892 0
M  V30 847 C 76.9022 -3.76289 -0.09143 0
M  V30 848 C 76.0492 -2.7039 0.615178 0
M  V30 849 H 79.0002 -1.37509 0.792274 0
M  V30 850 H 79.0212 -3.77275 -0.494364 0
M  V30 851 H 78.5332 -3.64742 1.32607 0
M  V30 852 H 76.6342 -3.54806 -1.13769 0
M  V30 853 H 76.7472 -4.78246 0.285886 0
M  V30 854 H 75.1112 -2.5464 0.0552833 0
M  V30 855 H 75.8942 -3.0033 1.66303 0
M  V30 856 N 78.3393 -0.321999 -1.54275 0
M  V30 857 C 79.2493 0.553631 -2.27974 0
M  V30 858 C 80.2653 1.13054 -1.32268 0
M  V30 859 O 81.4413 1.15084 -1.6528 0
M  V30 860 C 78.5063 1.69927 -3.02201 0
M  V30 861 C 77.5673 1.15433 -4.1349 0
M  V30 862 C 76.8003 2.24537 -4.84168 0
M  V30 863 O 77.0233 3.44852 -4.5435 0
M  V30 864 O 75.9573 1.90044 -5.7111 0
M  V30 865 H 79.7833 -0.0448345 -3.03667 0
M  V30 866 H 77.3683 -0.0877418 -1.49142 0
M  V30 867 H 79.2503 2.3663 -3.48689 0
M  V30 868 H 77.9253 2.28395 -2.29385 0
M  V30 869 H 76.8323 0.452436 -3.71354 0
M  V30 870 H 78.1653 0.614805 -4.88345 0
M  V30 871 N 79.8174 1.5752 -0.0501392 0
M  V30 872 C 80.7474 2.14502 0.922566 0
M  V30 873 C 81.7284 1.06642 1.3252 0
M  V30 874 O 82.9134 1.34577 1.4001 0
M  V30 875 C 80.0434 2.68916 2.19776 0
M  V30 876 C 78.9974 3.8175 1.93523 0
M  V30 877 C 78.3234 4.22677 3.27487 0
M  V30 878 C 79.6234 5.06932 1.25765 0
M  V30 879 H 81.3174 2.9603 0.447952 0
M  V30 880 H 78.8634 1.42401 0.214024 0
M  V30 881 H 80.8164 3.07419 2.88222 0
M  V30 882 H 79.5404 1.84578 2.69441 0
M  V30 883 H 78.1994 3.43718 1.27489 0
M  V30 884 H 77.8474 3.35291 3.74952 0
M  V30 885 H 77.5474 4.98725 3.1072 0
M  V30 886 H 79.0714 4.63779 3.97166 0
M  V30 887 H 80.4854 5.42888 1.84244 0
M  V30 888 H 78.8824 5.88116 1.19328 0
M  V30 889 H 79.9524 4.84337 0.233536 0
M  V30 890 N 81.2955 -0.223234 1.56011 0
M  V30 891 C 82.2285 -1.30377 1.87289 0
M  V30 892 C 83.2065 -1.45286 0.730112 0
M  V30 893 O 84.3905 -1.61126 0.978302 0
M  V30 894 C 81.5175 -2.67431 2.07843 0
M  V30 895 C 80.5635 -2.69546 3.30526 0
M  V30 896 S 81.3965 -2.23781 4.865 0
M  V30 897 C 82.5525 -3.62714 5.10088 0
M  V30 898 H 82.7855 -1.03652 2.78646 0
M  V30 899 H 80.3185 -0.425393 1.48424 0
M  V30 900 H 82.2765 -3.46336 2.20368 0
M  V30 901 H 80.9375 -2.91381 1.17285 0
M  V30 902 H 80.1305 -3.70255 3.41947 0
M  V30 903 H 79.7325 -1.98703 3.16849 0
M  V30 904 H 82.0245 -4.58391 4.98883 0
M  V30 905 H 82.9675 -3.5621 6.11981 0
M  V30 906 H 83.3755 -3.56323 4.37829 0
M  V30 907 N 82.7736 -1.49793 -0.48987 0
M  V30 908 C 84.1846 -1.52914 -1.07118 0
M  V30 909 C 84.5356 -0.321738 -1.93544 0
M  V30 910 O 83.6606 0.567338 -2.08831 0
M  V30 911 C 84.2556 -2.771 -1.94938 0
M  V30 912 C 82.8146 -2.82963 -2.48212 0
M  V30 913 C 81.9616 -2.46972 -1.26096 0
M  V30 914 H 84.9126 -1.56329 -0.273289 0
M  V30 915 H 84.9336 -2.57892 -2.79771 0
M  V30 916 H 84.4456 -3.64959 -1.32009 0
M  V30 917 H 82.5466 -1.99411 -3.14748 0
M  V30 918 H 82.6596 -3.85406 -2.84603 0
M  V30 919 H 81.0236 -1.98994 -1.58976 0
M  V30 920 H 81.8066 -3.37118 -0.648581 0
M  V30 921 N 84.2517 0.741722 -1.39055 0
M  V30 922 C 85.1987 1.85566 -1.37237 0
M  V30 923 C 86.1687 1.64457 -0.233072 0
M  V30 924 O 87.3537 1.85957 -0.427147 0
M  V30 925 C 84.4937 3.23004 -1.215 0
M  V30 926 C 83.6067 3.55864 -2.44918 0
M  V30 927 C 82.7417 4.82669 -2.21821 0
M  V30 928 C 81.7807 5.08351 -3.40948 0
M  V30 929 N 80.9177 6.26356 -3.17211 0
M  V30 930 H 85.7577 1.86455 -2.32462 0
M  V30 931 H 83.2947 0.911176 -1.15482 0
M  V30 932 H 85.2527 4.02331 -1.10389 0
M  V30 933 H 83.8827 3.21411 -0.29908 0
M  V30 934 H 82.9347 2.7129 -2.66657 0
M  V30 935 H 84.2467 3.70765 -3.33668 0
M  V30 936 H 83.4007 5.69962 -2.07914 0
M  V30 937 H 82.1397 4.69929 -1.30454 0
M  V30 938 H 81.1447 4.19522 -3.55361 0
M  V30 939 H 82.3697 5.22981 -4.33207 0
M  V30 940 H 80.3157 6.14917 -2.28502 0
M  V30 941 H 80.2327 6.41813 -3.99515 0
M  V30 942 H 81.5007 7.16506 -3.06984 0
M  V30 943 N 85.7298 1.2412 0.971189 0
M  V30 944 C 86.9578 1.10575 1.74874 0
M  V30 945 C 87.3728 -0.342017 1.85676 0
M  V30 946 O 86.7298 -1.23617 1.34258 0
M  V30 947 C 86.7808 1.73579 3.171 0
M  V30 948 O 86.5018 3.12695 3.06844 0
M  V30 949 C 88.0028 1.65598 4.11208 0
M  V30 950 H 85.2228 0.386504 0.548503 0
M  V30 951 H 87.7668 1.64156 1.21955 0
M  V30 952 H 85.9218 1.24009 3.67016 0
M  V30 953 H 86.3358 3.43412 3.96445 0
M  V30 954 H 87.8098 2.1437 5.08674 0
M  V30 955 H 88.2868 0.616532 4.34851 0
M  V30 956 H 88.8928 2.14578 3.67201 0
M  V30 957 N 87.2079 -1.17134 1.05439 0
M  V30 958 C 88.6189 -1.69084 0.791676 0
M  V30 959 C 88.9699 -1.83822 -0.685839 0
M  V30 960 O 88.0949 -1.52757 -1.53278 0
M  V30 961 C 88.6899 -3.07119 1.4305 0
M  V30 962 C 87.2489 -3.56225 1.21577 0
M  V30 963 C 86.3959 -2.32421 1.51247 0
M  V30 964 H 89.3469 -1.01617 1.219 0
M  V30 965 H 89.3679 -3.71087 0.84112 0
M  V30 966 H 88.8799 -2.9636 2.50584 0
M  V30 967 H 86.9809 -3.72257 0.159787 0
M  V30 968 H 87.0939 -4.38837 1.92246 0
M  V30 969 H 85.4579 -2.3701 0.932653 0
M  V30 970 H 86.2409 -2.24268 2.5992 0
M  V30 971 N 88.686 -0.835752 -1.33615 0
M  V30 972 C 89.911 -0.442389 -2.02627 0
M  V30 973 C 90.336 0.947735 -1.62479 0
M  V30 974 O 89.694 1.61907 -0.815826 0
M  V30 975 C 89.742 -0.567216 -3.56111 0
M  V30 976 O 88.846 0.407799 -4.10379 0
M  V30 977 H 88.187 -0.180278 -0.639059 0
M  V30 978 H 90.717 -1.12972 -1.70583 0
M  V30 979 H 90.727 -0.447708 -4.05536 0
M  V30 980 H 89.402 -1.58103 -3.84677 0
M  V30 981 H 87.979 0.246107 -3.72087 0
M  V30 982 N 90.1641 1.46063 -0.591896 0
M  V30 983 C 91.0961 2.28539 0.174001 0
M  V30 984 C 92.1091 1.39047 0.846753 0
M  V30 985 O 93.2981 1.63564 0.714774 0
M  V30 986 C 90.3981 3.14347 1.26645 0
M  V30 987 C 89.5711 4.32021 0.683856 0
M  V30 988 C 88.6301 4.99157 1.66518 0
M  V30 989 O 87.6561 5.56458 1.19763 0
M  V30 990 N 88.8581 4.97005 2.99943 0
M  V30 991 H 91.6231 2.94911 -0.533633 0
M  V30 992 H 89.1841 1.56077 -0.430294 0
M  V30 993 H 91.1761 3.56125 1.92242 0
M  V30 994 H 89.7461 2.49988 1.87682 0
M  V30 995 H 88.9661 3.93915 -0.1498 0
M  V30 996 H 90.2541 5.08059 0.274567 0
M  V30 997 H 89.6521 4.51714 3.40545 0
M  V30 998 H 88.2091 5.42696 3.61004 0
M  V30 999 N 91.6422 0.330177 1.54103 0
M  V30 1000 C 92.5892 -0.532762 2.24567 0
M  V30 1001 C 93.5592 -1.10635 1.23892 0
M  V30 1002 O 94.7442 -1.14546 1.5259 0
M  V30 1003 C 91.8842 -1.6845 3.01195 0
M  V30 1004 C 90.9972 -1.13951 4.167 0
M  V30 1005 C 90.1322 -2.25746 4.80845 0
M  V30 1006 C 89.1712 -1.6853 5.88442 0
M  V30 1007 N 88.3082 -2.74014 6.46421 0
M  V30 1008 H 93.1482 0.0746905 2.97906 0
M  V30 1009 H 90.6852 0.048632 1.4702 0
M  V30 1010 H 92.6432 -2.36234 3.43874 0
M  V30 1011 H 91.2732 -2.26314 2.30178 0
M  V30 1012 H 90.3252 -0.35301 3.78758 0
M  V30 1013 H 91.6372 -0.680892 4.94131 0
M  V30 1014 H 90.7912 -3.01422 5.26526 0
M  V30 1015 H 89.5302 -2.74947 4.0281 0
M  V30 1016 H 88.5352 -0.913543 5.42157 0
M  V30 1017 H 89.7602 -1.20198 6.68378 0
M  V30 1018 H 87.7062 -3.22494 5.71256 0
M  V30 1019 H 87.6232 -2.32735 7.19285 0
M  V30 1020 H 88.8912 -3.49499 6.96757 0
M  V30 1021 N 93.1203 -1.57491 0.0584922 0
M  V30 1022 C 94.0683 -2.13148 -0.931168 0
M  V30 1023 C 95.0623 -1.06507 -1.31729 0
M  V30 1024 O 96.2683 -1.24906 -1.29609 0
M  V30 1025 H 92.6433 -0.68137 -0.31818 0
M  V30 1026 H 94.6143 -2.95187 -0.436707 0
M  V30 1027 C 93.3633 -2.69732 -2.19408 0
M  V30 1028 H 92.6863 -3.51454 -1.90578 0
M  V30 1029 H 94.1263 -3.12287 -2.86798 0
M  V30 1030 C 92.5853 -1.63855 -2.94369 0
M  V30 1031 O 93.1153 -1.05565 -3.87581 0
M  V30 1032 N 91.3213 -1.35202 -2.57233 0
M  V30 1033 H 90.8683 -1.82791 -1.81508 0
M  V30 1034 H 90.8263 -0.645922 -3.07693 0
M  V30 1035 N 94.5984 0.214957 -1.56127 0
M  V30 1036 C 96.0144 0.564948 -1.49267 0
M  V30 1037 C 96.2144 1.86827 -0.754838 0
M  V30 1038 O 95.2704 2.50745 -0.297198 0
M  V30 1039 C 96.5834 0.638071 -2.93852 0
M  V30 1040 C 98.1314 0.728253 -3.0441 0
M  V30 1041 C 98.6064 0.832663 -4.50367 0
M  V30 1042 N 100.097 0.896712 -4.54437 0
M  V30 1043 C 100.832 0.997324 -5.6466 0
M  V30 1044 N 100.328 1.06147 -6.8462 0
M  V30 1045 N 102.121 1.03297 -5.52527 0
M  V30 1046 H 94.2724 -0.640211 -2.02522 0
M  V30 1047 H 96.5354 -0.225507 -0.920788 0
M  V30 1048 H 96.2414 -0.250126 -3.50809 0
M  V30 1049 H 96.1154 1.49947 -3.46115 0
M  V30 1050 H 98.5024 1.60689 -2.47514 0
M  V30 1051 H 98.5834 -0.158952 -2.55306 0
M  V30 1052 H 98.2274 -0.0415417 -5.07883 0
M  V30 1053 H 98.1574 1.73538 -4.97184 0
M  V30 1054 H 100.648 0.857188 -3.6805 0
M  V30 1055 H 100.961 1.1382 -7.64372 0
M  V30 1056 H 99.3064 1.03049 -6.87318 0
M  V30 1057 H 102.497 0.979558 -4.57736 0
M  V30 1058 H 102.67 1.10793 -6.38458 0
M  V30 1059 N 96.0765 1.50051 0.48192 0
M  V30 1060 C 97.4925 1.37237 0.814756 0
M  V30 1061 C 97.6925 0.420109 1.97072 0
M  V30 1062 O 96.7485 -0.141246 2.52105 0
M  V30 1063 C 98.0615 2.78375 1.13701 0
M  V30 1064 C 99.6095 2.87213 1.2441 0
M  V30 1065 C 100.084 4.29161 1.59954 0
M  V30 1066 N 101.575 4.32061 1.66967 0
M  V30 1067 C 102.31 5.38879 1.95952 0
M  V30 1068 N 101.806 6.55918 2.23031 0
M  V30 1069 N 103.599 5.26312 1.97363 0
M  V30 1070 H 95.7505 2.10546 -0.28005 0
M  V30 1071 H 98.0135 0.945921 -0.0627454 0
M  V30 1072 H 97.7195 3.49845 0.360787 0
M  V30 1073 H 97.5935 3.14941 2.07586 0
M  V30 1074 H 99.9805 2.15969 2.01101 0
M  V30 1075 H 100.061 2.54204 0.285299 0
M  V30 1076 H 99.7055 5.00938 0.838067 0
M  V30 1077 H 99.6355 4.59648 2.56966 0
M  V30 1078 H 102.126 3.47661 1.48123 0
M  V30 1079 H 102.439 7.33139 2.44391 0
M  V30 1080 H 100.784 6.59112 2.20447 0
M  V30 1081 H 103.975 4.33876 1.75697 0
M  V30 1082 H 104.148 6.09649 2.19618 0
M  V30 1083 N 97.5546 -0.734337 1.39446 0
M  V30 1084 C 98.5016 -1.84835 1.38219 0
M  V30 1085 C 99.4716 -1.64331 0.24179 0
M  V30 1086 O 100.657 -1.85728 0.437002 0
M  V30 1087 C 97.7966 -3.22355 1.23212 0
M  V30 1088 C 96.9096 -3.5456 2.46801 0
M  V30 1089 C 96.0446 -4.81485 2.24377 0
M  V30 1090 C 95.0836 -5.06536 3.43639 0
M  V30 1091 N 94.2206 -6.24665 3.20528 0
M  V30 1092 H 99.0606 -1.85219 2.33448 0
M  V30 1093 H 96.5976 -0.905039 1.15963 0
M  V30 1094 H 98.5556 -4.0174 1.12522 0
M  V30 1095 H 97.1856 -3.21248 0.316121 0
M  V30 1096 H 96.2376 -2.69872 2.68092 0
M  V30 1097 H 97.5496 -3.6899 3.3563 0
M  V30 1098 H 96.7036 -5.68852 2.10933 0
M  V30 1099 H 95.4426 -4.6923 1.32944 0
M  V30 1100 H 94.4476 -4.17632 3.5758 0
M  V30 1101 H 95.6726 -5.20676 4.35974 0
M  V30 1102 H 93.6186 -6.13696 2.3176 0
M  V30 1103 H 93.5356 -6.39685 4.02913 0
M  V30 1104 H 94.8036 -7.14868 3.10779 0
M  V30 1105 N 99.0327 -1.24633 -0.964593 0
M  V30 1106 C 99.9797 -1.04144 -2.05968 0
M  V30 1107 C 100.95 0.046262 -1.66036 0
M  V30 1108 O 102.135 -0.108972 -1.90489 0
M  V30 1109 C 99.2747 -0.65563 -3.38815 0
M  V30 1110 C 98.3877 -1.81714 -3.91923 0
M  V30 1111 C 97.5227 -1.37662 -5.13052 0
M  V30 1112 C 96.5617 -2.50788 -5.58365 0
M  V30 1113 N 95.6987 -2.07582 -6.70712 0
M  V30 1114 H 100.539 -1.9787 -2.22827 0
M  V30 1115 H 98.0757 -0.9855 -1.09208 0
M  V30 1116 H 100.034 -0.412954 -4.15151 0
M  V30 1117 H 98.6637 0.244627 -3.21872 0
M  V30 1118 H 97.7157 -2.1734 -3.12198 0
M  V30 1119 H 99.0277 -2.66705 -4.21509 0
M  V30 1120 H 98.1817 -1.093 -5.96773 0
M  V30 1121 H 96.9207 -0.497293 -4.85158 0
M  V30 1122 H 95.9257 -2.79906 -4.73215 0
M  V30 1123 H 97.1507 -3.39283 -5.88272 0
M  V30 1124 H 95.0967 -1.22051 -6.44546 0
M  V30 1125 H 95.0137 -2.86125 -6.99763 0
M  V30 1126 H 96.2817 -1.82369 -7.57867 0
M  V30 1127 N 100.511 1.16574 -1.06058 0
M  V30 1128 C 101.927 1.3904 -0.783585 0
M  V30 1129 C 102.127 1.91784 0.618145 0
M  V30 1130 O 101.183 2.11511 1.37911 0
M  V30 1131 C 102.496 2.37329 -1.84649 0
M  V30 1132 C 104.044 2.51018 -1.86973 0
M  V30 1133 C 104.519 3.52588 -2.92311 0
M  V30 1134 N 106.01 3.60113 -2.91329 0
M  V30 1135 C 106.745 4.38486 -3.69482 0
M  V30 1136 N 106.241 5.20302 -4.57447 0
M  V30 1137 N 108.034 4.33446 -3.57885 0
M  V30 1138 H 100.185 0.806725 -1.96483 0
M  V30 1139 H 102.448 0.417117 -0.851303 0
M  V30 1140 H 102.154 2.05663 -2.85299 0
M  V30 1141 H 102.028 3.36946 -1.6955 0
M  V30 1142 H 104.415 2.81989 -0.869827 0
M  V30 1143 H 104.496 1.51445 -2.0615 0
M  V30 1144 H 104.14 3.22354 -3.92492 0
M  V30 1145 H 104.07 4.51886 -2.70383 0
M  V30 1146 H 106.561 3.01707 -2.27555 0
M  V30 1147 H 106.874 5.77311 -5.13743 0
M  V30 1148 H 105.219 5.19653 -4.61503 0
M  V30 1149 H 108.41 3.68586 -2.88551 0
M  V30 1150 H 108.583 4.94279 -4.19037 0
M  V30 1151 N 101.989 0.842826 1.3317 0
M  V30 1152 C 103.405 0.531128 1.50503 0
M  V30 1153 C 103.605 -0.940734 1.78192 0
M  V30 1154 O 102.661 -1.72436 1.84451 0
M  V30 1155 C 103.974 1.40789 2.65705 0
M  V30 1156 C 105.522 1.40708 2.79589 0
M  V30 1157 C 105.997 2.26878 3.97857 0
M  V30 1158 N 107.488 2.24609 4.05099 0
M  V30 1159 C 108.223 2.88019 4.95815 0
M  V30 1160 N 107.719 3.60496 5.9162 0
M  V30 1161 N 109.512 2.77469 4.88843 0
M  V30 1162 H 101.663 1.79557 1.1346 0
M  V30 1163 H 103.926 0.766267 0.558156 0
M  V30 1164 H 103.632 2.454 2.51936 0
M  V30 1165 H 103.506 1.08677 3.61205 0
M  V30 1166 H 105.893 0.368668 2.92788 0
M  V30 1167 H 105.974 1.76829 1.84838 0
M  V30 1168 H 105.618 3.3078 3.85418 0
M  V30 1169 H 105.548 1.88096 4.91861 0
M  V30 1170 H 108.039 1.71906 3.36536 0
M  V30 1171 H 108.352 4.06076 6.57512 0
M  V30 1172 H 106.697 3.64604 5.91683 0
M  V30 1173 H 109.888 2.20406 4.12963 0
M  V30 1174 H 110.061 3.2717 5.59342 0
M  V30 1175 N 103.467 -1.45747 0.599634 0
M  V30 1176 C 104.716 -2.01502 0.0893511 0
M  V30 1177 C 105.029 -1.4748 -1.28488 0
M  V30 1178 O 106.235 -1.95161 -1.88745 0
M  V30 1179 C 104.691 -3.59735 0.109082 0
M  V30 1180 C 104.299 -4.22754 1.48267 0
M  V30 1181 C 106.043 -4.23085 -0.346374 0
M  V30 1182 C 103.95 -5.73115 1.45921 0
M  V30 1183 H 102.88 -0.753417 0.0296347 0
M  V30 1184 H 105.531 -1.67303 0.753788 0
M  V30 1185 H 103.913 -3.91087 -0.621854 0
M  V30 1186 H 105.087 -4.02987 2.23468 0
M  V30 1187 H 103.402 -3.71567 1.87955 0
M  V30 1188 H 105.999 -5.33327 -0.38298 0
M  V30 1189 H 106.342 -3.93201 -1.36743 0
M  V30 1190 H 106.875 -3.9642 0.331038 0
M  V30 1191 H 103.614 -6.07685 2.45762 0
M  V30 1192 H 103.134 -5.95097 0.749665 0
M  V30 1193 H 104.813 -6.3616 1.17941 0
M  V30 1194 N 104.945 -0.338344 -1.53925 0
M  V30 1195 C 106.17 0.263987 -2.05713 0
M  V30 1196 C 106.595 1.43847 -1.21201 0
M  V30 1197 O 105.953 1.79904 -0.224535 0
M  V30 1198 C 106.001 0.662 -3.54471 0
M  V30 1199 O 105.105 1.76265 -3.72833 0
M  V30 1200 H 104.446 0.0448722 -0.662482 0
M  V30 1201 H 106.976 -0.491048 -1.9862 0
M  V30 1202 H 106.986 0.940594 -3.9701 0
M  V30 1203 H 105.661 -0.196937 -4.15433 0
M  V30 1204 H 104.238 1.48173 -3.42198 0
M  V30 1205 N 106.423 1.57458 -0.0668435 0
M  V30 1206 C 107.653 1.97337 0.611677 0
M  V30 1207 C 108.061 0.943744 1.63982 0
M  V30 1208 O 107.404 -0.0785584 1.83532 0
M  V30 1209 C 107.466 3.33511 1.34205 0
M  V30 1210 C 107.13 4.54598 0.467941 0
M  V30 1211 C 108.127 5.19186 -0.272439 0
M  V30 1212 C 105.812 5.0075 0.39427 0
M  V30 1213 C 107.806 6.28274 -1.07476 0
M  V30 1214 C 105.493 6.09711 -0.411729 0
M  V30 1215 C 106.491 6.73335 -1.14492 0
M  V30 1216 O 106.179 7.80199 -1.93763 0
M  V30 1217 H 105.911 0.654042 0.170893 0
M  V30 1218 H 108.465 2.04961 -0.134289 0
M  V30 1219 H 106.695 3.22487 2.13398 0
M  V30 1220 H 108.384 3.58029 1.91233 0
M  V30 1221 H 109.15 4.84477 -0.225086 0
M  V30 1222 H 105.029 4.51009 0.954569 0
M  V30 1223 H 108.573 6.77866 -1.64755 0
M  V30 1224 H 104.47 6.43854 -0.460664 0
M  V30 1225 H 105.238 7.97053 -1.86142 0
M  V30 1226 N 107.901 -0.206675 1.56239 0
M  V30 1227 C 109.147 -0.930218 1.80208 0
M  V30 1228 C 109.48 -1.83387 0.638981 0
M  V30 1229 O 108.755 -1.91119 -0.361066 0
M  V30 1230 C 109.038 -1.75641 3.1436 0
M  V30 1231 C 108.891 -0.878257 4.41142 0
M  V30 1232 C 110.21 -2.73129 3.45092 0
M  V30 1233 H 107.329 -0.336742 0.655571 0
M  V30 1234 H 109.971 -0.198222 1.88963 0
M  V30 1235 H 108.121 -2.38048 3.07027 0
M  V30 1236 H 109.793 -0.269787 4.6051 0
M  V30 1237 H 108.036 -0.184385 4.33408 0
M  V30 1238 H 108.707 -1.49106 5.3148 0
M  V30 1239 H 111.183 -2.20856 3.52649 0
M  V30 1240 H 110.059 -3.28028 4.40101 0
M  V30 1241 H 110.32 -3.51606 2.68003 0
M  V30 1242 N 109.379 -1.50304 -0.473955 0
M  V30 1243 C 110.311 -1.65109 -1.58971 0
M  V30 1244 C 111.324 -0.532676 -1.53839 0
M  V30 1245 O 112.513 -0.805751 -1.59279 0
M  V30 1246 C 109.613 -1.61684 -2.97845 0
M  V30 1247 C 108.786 -2.8951 -3.27876 0
M  V30 1248 C 107.845 -2.78768 -4.4629 0
M  V30 1249 O 106.871 -3.52722 -4.46739 0
M  V30 1250 N 108.073 -1.9213 -5.47783 0
M  V30 1251 H 110.838 -2.61347 -1.46689 0
M  V30 1252 H 108.399 -1.47732 -0.662324 0
M  V30 1253 H 110.391 -1.52114 -3.75024 0
M  V30 1254 H 108.961 -0.731925 -3.03911 0
M  V30 1255 H 108.181 -3.13228 -2.39336 0
M  V30 1256 H 109.469 -3.74199 -3.4475 0
M  V30 1257 H 108.867 -1.31353 -5.50239 0
M  V30 1258 H 107.424 -1.88466 -6.23958 0
M  V30 1259 N 110.857 0.726932 -1.39834 0
M  V30 1260 C 112.134 1.47902 -1.28001 0
M  V30 1261 C 112.514 2.1083 0.106789 0
M  V30 1262 O 111.862 1.99242 1.11869 0
M  V30 1263 C 112.072 2.52392 -2.41038 0
M  V30 1264 C 113.42 3.18546 -2.80737 0
M  V30 1265 O 114.444 2.62708 -2.40547 0
M  V30 1266 O 113.303 4.19604 -3.50135 0
M  V30 1267 H 110.397 0.657163 -0.502062 0
M  V30 1268 H 112.943 0.760071 -1.51727 0
M  V30 1269 H 111.715 2.04329 -3.33715 0
M  V30 1270 H 111.338 3.31837 -2.19021 0
M  V30 1271 N 112.336 1.25143 0.95797 0
M  V30 1272 C 113.246 1.06968 2.08794 0
M  V30 1273 C 114.262 0.00773911 1.73998 0
M  V30 1274 O 115.438 0.207972 2.00323 0
M  V30 1275 C 112.503 0.68691 3.39827 0
M  V30 1276 C 111.564 1.82641 3.88511 0
M  V30 1277 C 110.797 1.46181 5.1329 0
M  V30 1278 O 111.02 0.355971 5.69288 0
M  V30 1279 O 109.954 2.29085 5.566 0
M  V30 1280 H 113.78 2.01723 2.27027 0
M  V30 1281 H 111.365 1.04051 1.07209 0
M  V30 1282 H 113.247 0.485417 4.18595 0
M  V30 1283 H 111.922 -0.231417 3.22872 0
M  V30 1284 H 110.829 2.08274 3.10762 0
M  V30 1285 H 112.162 2.72386 4.09959 0
M  V30 1286 N 113.814 -1.1601 1.06675 0
M  V30 1287 C 114.762 -2.22586 0.675157 0
M  V30 1288 C 115.756 -1.66525 -0.310766 0
M  V30 1289 O 116.962 -1.79145 -0.175215 0
M  V30 1290 H 113.337 -0.724855 0.200223 0
M  V30 1291 H 115.308 -2.52899 1.58381 0
M  V30 1292 C 114.057 -3.47604 0.0817162 0
M  V30 1293 H 113.38 -3.91058 0.831484 0
M  V30 1294 H 114.82 -4.23718 -0.154708 0
M  V30 1295 C 113.279 -3.15718 -1.17576 0
M  V30 1296 O 113.809 -3.31878 -2.26318 0
M  V30 1297 N 112.015 -2.69816 -1.07923 0
M  V30 1298 H 111.562 -2.56866 -0.194293 0
M  V30 1299 H 111.52 -2.48855 -1.92141 0
M  V30 1300 N 115.292 -0.849877 -1.32721 0
M  V30 1301 C 116.708 -0.539102 -1.50219 0
M  V30 1302 C 116.908 0.931271 -1.78689 0
M  V30 1303 O 115.964 1.71455 -1.85363 0
M  V30 1304 C 117.277 -1.42196 -2.64954 0
M  V30 1305 C 118.825 -1.42189 -2.78839 0
M  V30 1306 C 119.3 -2.28985 -3.96648 0
M  V30 1307 N 120.791 -2.26754 -4.03902 0
M  V30 1308 C 121.526 -2.90644 -4.94281 0
M  V30 1309 N 121.022 -3.63629 -5.897 0
M  V30 1310 N 122.815 -2.80057 -4.87365 0
M  V30 1311 H 114.966 -1.80156 -1.12506 0
M  V30 1312 H 117.229 -0.769217 -0.554085 0
M  V30 1313 H 116.935 -2.46733 -2.50631 0
M  V30 1314 H 116.809 -1.10591 -3.60624 0
M  V30 1315 H 119.196 -0.38419 -2.92588 0
M  V30 1316 H 119.277 -1.77807 -1.83898 0
M  V30 1317 H 118.921 -3.32819 -3.83658 0
M  V30 1318 H 118.851 -1.90702 -4.90857 0
M  V30 1319 H 121.342 -1.73688 -3.3562 0
M  V30 1320 H 121.655 -4.09558 -6.55349 0
M  V30 1321 H 120 -3.67737 -5.89741 0
M  V30 1322 H 123.191 -2.22593 -4.11789 0
M  V30 1323 H 123.364 -3.30132 -5.57599 0
M  V30 1324 N 116.77 1.45427 -0.607355 0
M  V30 1325 C 118.047 1.9557 -0.0344566 0
M  V30 1326 C 118.427 1.54979 1.43334 0
M  V30 1327 O 117.775 0.812241 2.13576 0
M  V30 1328 C 117.985 3.48226 -0.232321 0
M  V30 1329 C 119.333 4.2445 -0.113001 0
M  V30 1330 O 120.357 3.55829 -0.162431 0
M  V30 1331 O 119.216 5.465 0.00209442 0
M  V30 1332 H 116.31 0.826222 0.0358667 0
M  V30 1333 H 118.856 1.55594 -0.6774 0
M  V30 1334 H 117.628 3.70739 -1.25174 0
M  V30 1335 H 117.251 3.95092 0.445896 0
M  V30 1336 N 118.248 0.346503 1.53744 0
M  V30 1337 C 119.659 -0.136779 1.86198 0
M  V30 1338 C 120.01 -1.49749 1.26766 0
M  V30 1339 O 119.135 -2.08417 0.582355 0
M  V30 1340 C 119.73 -0.254966 3.37839 0
M  V30 1341 C 118.289 -0.682482 3.70161 0
M  V30 1342 C 117.436 0.181981 2.76702 0
M  V30 1343 H 120.387 0.565994 1.48264 0
M  V30 1344 H 120.408 -1.08195 3.64793 0
M  V30 1345 H 119.92 0.735526 3.81066 0
M  V30 1346 H 118.021 -1.68189 3.3248 0
M  V30 1347 H 118.134 -0.470326 4.76786 0
M  V30 1348 H 116.498 -0.34615 2.52337 0
M  V30 1349 H 117.281 1.16966 3.2276 0
M  V30 1350 N 119.726 -1.57421 0.075193 0
M  V30 1351 C 120.975 -1.92794 -0.592731 0
M  V30 1352 C 121.288 -0.957478 -1.70563 0
M  V30 1353 O 122.494 -1.20417 -2.43335 0
M  V30 1354 C 120.95 -3.42495 -1.10569 0
M  V30 1355 C 120.558 -4.47994 -0.0236121 0
M  V30 1356 C 122.302 -3.86864 -1.74748 0
M  V30 1357 C 120.209 -5.88829 -0.550803 0
M  V30 1358 H 119.139 -0.719591 -0.225177 0
M  V30 1359 H 121.79 -1.82902 0.147978 0
M  V30 1360 H 120.172 -3.47471 -1.89947 0
M  V30 1361 H 121.346 -4.54637 0.751099 0
M  V30 1362 H 119.661 -4.13113 0.522159 0
M  V30 1363 H 122.258 -4.8947 -2.15229 0
M  V30 1364 H 122.601 -3.24417 -2.60882 0
M  V30 1365 H 123.134 -3.84504 -1.01986 0
M  V30 1366 H 119.873 -6.54929 0.273457 0
M  V30 1367 H 119.393 -5.85698 -1.29296 0
M  V30 1368 H 121.072 -6.38811 -1.02613 0
M  V30 1369 N 121.204 0.198386 -1.56346 0
M  V30 1370 C 122.62 0.549085 -1.49857 0
M  V30 1371 C 122.82 1.86016 -0.774611 0
M  V30 1372 O 121.876 2.50416 -0.323776 0
M  V30 1373 C 123.189 0.606868 -2.94512 0
M  V30 1374 C 124.737 0.695925 -3.05165 0
M  V30 1375 C 125.212 0.784848 -4.51225 0
M  V30 1376 N 126.703 0.848463 -4.55363 0
M  V30 1377 C 127.438 0.937378 -5.65686 0
M  V30 1378 N 126.934 0.9888 -6.85707 0
M  V30 1379 N 128.727 0.974312 -5.53592 0
M  V30 1380 H 120.878 -0.661655 -2.01831 0
M  V30 1381 H 123.141 -0.235261 -0.918344 0
M  V30 1382 H 122.847 -0.28732 -3.50524 0
M  V30 1383 H 122.721 1.46268 -3.47686 0
M  V30 1384 H 125.108 1.58055 -2.49204 0
M  V30 1385 H 125.189 -0.186022 -2.55123 0
M  V30 1386 H 124.833 -0.0954072 -5.0781 0
M  V30 1387 H 124.763 1.68255 -4.98997 0
M  V30 1388 H 127.254 0.818103 -3.68938 0
M  V30 1389 H 127.567 1.05707 -7.65536 0
M  V30 1390 H 125.912 0.957534 -6.88372 0
M  V30 1391 H 129.103 0.930954 -4.58749 0
M  V30 1392 H 129.276 1.04015 -6.39597 0
M  V30 1393 N 122.682 1.50554 0.465978 0
M  V30 1394 C 124.098 1.38093 0.800154 0
M  V30 1395 C 124.298 0.440988 1.96615 0
M  V30 1396 O 123.354 -0.114499 2.5224 0
M  V30 1397 C 124.667 2.79565 1.10742 0
M  V30 1398 C 126.215 2.88516 1.21357 0
M  V30 1399 C 126.69 4.30833 1.55393 0
M  V30 1400 N 128.181 4.33807 1.62375 0
M  V30 1401 C 128.916 5.40927 1.90225 0
M  V30 1402 N 128.412 6.58247 2.16062 0
M  V30 1403 N 130.205 5.28376 1.9177 0
M  V30 1404 H 122.356 2.10237 -0.302366 0
M  V30 1405 H 124.619 0.945203 -0.0727746 0
M  V30 1406 H 124.325 3.50208 0.323661 0
M  V30 1407 H 124.199 3.17125 2.04234 0
M  V30 1408 H 126.586 2.1809 1.98799 0
M  V30 1409 H 126.667 2.54492 0.258321 0
M  V30 1410 H 126.311 5.01799 0.784889 0
M  V30 1411 H 126.241 4.62347 2.52076 0
M  V30 1412 H 128.732 3.49212 1.44427 0
M  V30 1413 H 129.045 7.3569 2.36601 0
M  V30 1414 H 127.39 6.61413 2.13444 0
M  V30 1415 H 130.581 4.35715 1.71085 0
M  V30 1416 H 130.754 6.11944 2.13139 0
M  V30 1417 N 124.16 -0.719506 1.40217 0
M  V30 1418 C 125.576 -1.02707 1.22161 0
M  V30 1419 C 125.776 -2.0128 0.0940557 0
M  V30 1420 O 124.832 -2.46452 -0.549318 0
M  V30 1421 C 126.145 -1.57454 2.56181 0
M  V30 1422 C 127.693 -1.69458 2.63159 0
M  V30 1423 C 128.168 -2.27611 3.97438 0
M  V30 1424 N 129.659 -2.35002 3.99159 0
M  V30 1425 C 130.394 -2.80972 4.99842 0
M  V30 1426 N 129.89 -3.26723 6.10921 0
M  V30 1427 N 131.683 -2.80321 4.87213 0
M  V30 1428 H 123.834 -0.0660492 2.12297 0
M  V30 1429 H 126.097 -0.0919077 0.943534 0
M  V30 1430 H 125.803 -0.924873 3.39321 0
M  V30 1431 H 125.677 -2.56036 2.76993 0
M  V30 1432 H 128.064 -2.33543 1.80393 0
M  V30 1433 H 128.145 -0.694867 2.46181 0
M  V30 1434 H 127.789 -1.6415 4.80643 0
M  V30 1435 H 127.719 -3.2829 4.11744 0
M  V30 1436 H 130.21 -2.02685 3.18947 0
M  V30 1437 H 130.523 -3.60355 6.8364 0
M  V30 1438 H 128.868 -3.24692 6.14492 0
M  V30 1439 H 132.059 -2.43912 3.9953 0
M  V30 1440 H 132.232 -3.15831 5.65822 0
M  V30 1441 N 125.638 -1.25649 -0.95132 0
M  V30 1442 C 126.568 -1.08808 -2.06599 0
M  V30 1443 C 127.549 0.00382547 -1.701 0
M  V30 1444 O 128.734 -0.166325 -1.93486 0
M  V30 1445 C 125.864 -0.709542 -3.39975 0
M  V30 1446 C 124.818 -1.75206 -3.90496 0
M  V30 1447 C 124.144 -1.22811 -5.20405 0
M  V30 1448 C 125.444 -3.15153 -4.16504 0
M  V30 1449 H 127.138 -2.02048 -2.20946 0
M  V30 1450 H 124.684 -0.972835 -1.06169 0
M  V30 1451 H 126.637 -0.578649 -4.17408 0
M  V30 1452 H 125.361 0.258556 -3.25575 0
M  V30 1453 H 124.02 -1.87145 -3.15234 0
M  V30 1454 H 123.668 -0.250145 -5.02378 0
M  V30 1455 H 123.368 -1.92492 -5.55176 0
M  V30 1456 H 124.892 -1.10968 -6.00432 0
M  V30 1457 H 126.306 -3.06349 -4.84586 0
M  V30 1458 H 124.703 -3.82333 -4.62538 0
M  V30 1459 H 125.773 -3.61966 -3.22658 0
M  V30 1460 N 127.117 1.15442 -1.07289 0
M  V30 1461 C 128.342 1.90638 -0.816828 0
M  V30 1462 C 128.767 1.77445 0.624083 0
M  V30 1463 O 128.125 1.10671 1.43602 0
M  V30 1464 C 128.173 3.39008 -1.22906 0
M  V30 1465 O 127.277 4.10701 -0.373975 0
M  V30 1466 H 126.618 0.593555 -0.297638 0
M  V30 1467 H 129.148 1.46198 -1.43134 0
M  V30 1468 H 129.158 3.89801 -1.20497 0
M  V30 1469 H 127.833 3.47929 -2.27856 0
M  V30 1470 H 126.41 3.70046 -0.460499 0
M  V30 1471 N 128.595 0.856903 1.32268 0
M  V30 1472 C 130.011 0.547061 1.49931 0
M  V30 1473 C 130.211 -0.921781 1.7918 0
M  V30 1474 O 129.267 -1.70469 1.8627 0
M  V30 1475 C 130.58 1.43599 2.64196 0
M  V30 1476 C 132.128 1.43665 2.78081 0
M  V30 1477 C 132.603 2.31085 3.95428 0
M  V30 1478 N 134.094 2.28893 4.02694 0
M  V30 1479 C 134.829 2.93262 4.92732 0
M  V30 1480 N 134.325 3.66751 5.87763 0
M  V30 1481 N 136.118 2.82638 4.85873 0
M  V30 1482 H 128.269 1.8075 1.11549 0
M  V30 1483 H 130.532 0.772144 0.549997 0
M  V30 1484 H 130.238 2.48058 2.49319 0
M  V30 1485 H 130.112 1.12502 3.60032 0
M  V30 1486 H 132.499 0.399701 2.92381 0
M  V30 1487 H 132.58 1.7878 1.82952 0
M  V30 1488 H 132.224 3.34849 3.81888 0
M  V30 1489 H 132.154 1.93302 4.89839 0
M  V30 1490 H 134.645 1.75466 3.34694 0
M  V30 1491 H 134.958 4.13027 6.53168 0
M  V30 1492 H 133.303 3.70859 5.87783 0
M  V30 1493 H 136.494 2.24774 4.10602 0
M  V30 1494 H 136.667 3.33084 5.55841 0
M  V30 1495 N 130.073 -1.45103 0.615059 0
M  V30 1496 C 131.489 -1.57137 0.279322 0
M  V30 1497 C 131.689 -1.60523 -1.21797 0
M  V30 1498 O 130.745 -1.53956 -2.00134 0
M  V30 1499 C 132.058 -2.85062 0.957083 0
M  V30 1500 C 133.606 -2.98749 0.933706 0
M  V30 1501 C 134.081 -4.29455 1.59162 0
M  V30 1502 N 135.572 -4.36231 1.55746 0
M  V30 1503 C 136.307 -5.36051 2.0356 0
M  V30 1504 N 135.803 -6.42367 2.59494 0
M  V30 1505 N 137.596 -5.27456 1.94284 0
M  V30 1506 H 129.747 -1.41148 1.58717 0
M  V30 1507 H 132.01 -0.675331 0.665306 0
M  V30 1508 H 131.716 -2.88488 2.01166 0
M  V30 1509 H 131.59 -3.7407 0.48494 0
M  V30 1510 H 133.977 -2.94886 -0.112347 0
M  V30 1511 H 134.058 -2.11132 1.44419 0
M  V30 1512 H 133.702 -4.34077 2.63704 0
M  V30 1513 H 133.632 -5.15901 1.0561 0
M  V30 1514 H 136.123 -3.60011 1.14893 0
M  V30 1515 H 136.436 -7.14793 2.93752 0
M  V30 1516 H 134.781 -6.43097 2.63537 0
M  V30 1517 H 137.972 -4.43308 1.5032 0
M  V30 1518 H 138.145 -6.05099 2.3186 0
M  V30 1519 N 131.551 -0.354651 -1.53558 0
M  V30 1520 C 132.498 0.496968 -2.25386 0
M  V30 1521 C 133.468 1.0865 -1.25636 0
M  V30 1522 O 134.653 1.12104 -1.54394 0
M  V30 1523 C 131.793 1.63637 -3.03837 0
M  V30 1524 C 130.906 1.07307 -4.18461 0
M  V30 1525 C 130.041 2.18068 -4.84376 0
M  V30 1526 C 129.08 1.59147 -5.91049 0
M  V30 1527 N 128.217 2.63695 -6.50699 0
M  V30 1528 H 133.057 -0.122075 -2.9775 0
M  V30 1529 H 130.594 -0.0720154 -1.46924 0
M  V30 1530 H 132.552 2.30734 -3.47589 0
M  V30 1531 H 131.182 2.22623 -2.33749 0
M  V30 1532 H 130.234 0.292708 -3.79272 0
M  V30 1533 H 131.546 0.602193 -4.95152 0
M  V30 1534 H 130.7 2.93007 -5.31255 0
M  V30 1535 H 129.439 2.68504 -4.07133 0
M  V30 1536 H 128.444 0.827175 -5.43542 0
M  V30 1537 H 129.669 1.09549 -6.70206 0
M  V30 1538 H 127.615 3.13365 -5.76315 0
M  V30 1539 H 127.532 2.21263 -7.22896 0
M  V30 1540 H 128.8 3.3837 -7.02229 0
M  V30 1541 N 133.029 1.57378 -0.0835403 0
M  V30 1542 C 134.254 1.98682 0.594987 0
M  V30 1543 C 134.679 0.961969 1.61641 0
M  V30 1544 O 134.037 -0.0709989 1.81161 0
M  V30 1545 C 134.085 3.38988 1.2296 0
M  V30 1546 O 133.189 3.39208 2.34546 0
M  V30 1547 H 132.53 0.646368 0.152002 0
M  V30 1548 H 135.06 2.03961 -0.161533 0
M  V30 1549 H 135.07 3.76431 1.57366 0
M  V30 1550 H 133.745 4.13107 0.481228 0
M  V30 1551 H 132.322 3.13548 2.01846 0
M  V30 1552 N 134.507 -0.190092 1.56449 0
M  V30 1553 C 135.923 -0.54113 1.50146 0
M  V30 1554 C 136.123 -1.85603 0.784465 0
M  V30 1555 O 135.179 -2.5024 0.337051 0
M  V30 1556 C 136.492 -0.591241 2.9483 0
M  V30 1557 C 138.04 -0.679732 3.0553 0
M  V30 1558 C 138.515 -0.760908 4.51635 0
M  V30 1559 N 140.006 -0.824302 4.55806 0
M  V30 1560 C 140.741 -0.907365 5.66175 0
M  V30 1561 N 140.237 -0.952422 6.86222 0
M  V30 1562 N 142.03 -0.94494 5.541 0
M  V30 1563 H 134.181 0.67235 2.01478 0
M  V30 1564 H 136.444 0.240127 0.917084 0
M  V30 1565 H 136.15 0.305905 3.50367 0
M  V30 1566 H 136.024 -1.44422 3.48457 0
M  V30 1567 H 138.411 -1.56731 2.50039 0
M  V30 1568 H 138.492 0.199549 2.5502 0
M  V30 1569 H 138.136 0.122336 5.07753 0
M  V30 1570 H 138.066 -1.65606 4.99882 0
M  V30 1571 H 140.557 -0.798526 3.69367 0
M  V30 1572 H 140.87 -1.01645 7.66086 0
M  V30 1573 H 139.215 -0.921014 6.8887 0
M  V30 1574 H 142.406 -0.906612 4.59236 0
M  V30 1575 H 142.579 -1.00622 6.4014 0
M  V30 1576 N 135.985 -1.50799 -0.457987 0
M  V30 1577 C 137.21 -1.66496 -1.23668 0
M  V30 1578 C 137.635 -0.353288 -1.84752 0
M  V30 1579 O 136.993 0.684346 -1.67888 0
M  V30 1580 C 137.041 -2.76763 -2.3116 0
M  V30 1581 O 136.145 -2.38928 -3.36136 0
M  V30 1582 H 135.486 -0.555828 -0.363252 0
M  V30 1583 H 138.016 -1.9725 -0.543474 0
M  V30 1584 H 138.026 -3.00232 -2.76269 0
M  V30 1585 H 136.701 -3.71954 -1.86073 0
M  V30 1586 H 135.278 -2.25953 -2.96647 0
M  V30 1587 N 137.463 0.71206 -1.40597 0
M  V30 1588 C 138.688 1.50617 -1.42581 0
M  V30 1589 C 139.113 1.88079 -0.0282102 0
M  V30 1590 O 138.471 1.53511 0.964579 0
M  V30 1591 C 138.519 2.7557 -2.3258 0
M  V30 1592 O 137.623 3.72414 -1.77148 0
M  V30 1593 H 136.964 0.453966 -0.484573 0
M  V30 1594 H 139.494 0.876649 -1.84868 0
M  V30 1595 H 139.504 3.2406 -2.47889 0
M  V30 1596 H 138.179 2.47639 -3.34138 0
M  V30 1597 H 136.756 3.31276 -1.71204 0
M  V30 1598 N 138.941 1.26152 0.944643 0
M  V30 1599 C 139.873 1.03199 2.04652 0
M  V30 1600 C 140.886 -0.00642356 1.62799 0
M  V30 1601 O 142.075 0.233263 1.76969 0
M  V30 1602 C 139.175 0.540111 3.34568 0
M  V30 1603 C 138.348 1.64697 4.05208 0
M  V30 1604 C 137.407 1.15374 5.13396 0
M  V30 1605 O 136.433 1.85013 5.38293 0
M  V30 1606 N 137.635 0.00031529 5.805 0
M  V30 1607 H 140.4 1.9808 2.2491 0
M  V30 1608 H 137.961 1.17491 1.11389 0
M  V30 1609 H 139.953 0.194401 4.04233 0
M  V30 1610 H 138.523 -0.315021 3.11009 0
M  V30 1611 H 137.743 2.16379 3.29506 0
M  V30 1612 H 139.031 2.3903 4.49157 0
M  V30 1613 H 138.429 -0.581336 5.62705 0
M  V30 1614 H 136.986 -0.286346 6.51171 0
M  V30 1615 N 140.419 -1.14872 1.07899 0
M  V30 1616 C 141.349 -2.2193 0.725887 0
M  V30 1617 C 142.33 -1.67622 -0.28927 0
M  V30 1618 O 143.515 -1.93533 -0.160787 0
M  V30 1619 C 140.645 -3.47061 0.128856 0
M  V30 1620 C 139.599 -4.14363 1.07178 0
M  V30 1621 C 138.925 -5.33636 0.337229 0
M  V30 1622 C 140.225 -4.63492 2.40775 0
M  V30 1623 H 141.919 -2.51724 1.62097 0
M  V30 1624 H 139.465 -1.20991 0.780838 0
M  V30 1625 H 141.418 -4.21199 -0.130147 0
M  V30 1626 H 140.142 -3.16617 -0.80134 0
M  V30 1627 H 138.801 -3.42173 1.3158 0
M  V30 1628 H 138.449 -4.99449 -0.596606 0
M  V30 1629 H 138.149 -5.79609 0.965788 0
M  V30 1630 H 139.673 -6.10539 0.0861567 0
M  V30 1631 H 141.087 -5.2913 2.20669 0
M  V30 1632 H 139.484 -5.20148 2.99276 0
M  V30 1633 H 140.554 -3.78834 3.02676 0
M  V30 1634 N 141.898 -0.863906 -1.31812 0
M  V30 1635 C 143.123 -0.48527 -2.01643 0
M  V30 1636 C 143.548 0.913058 -1.64453 0
M  V30 1637 O 142.906 1.6014 -0.849985 0
M  V30 1638 C 142.954 -0.642625 -3.54828 0
M  V30 1639 O 142.058 0.320659 -4.11151 0
M  V30 1640 H 141.399 -0.193793 -0.635091 0
M  V30 1641 H 143.929 -1.16565 -1.68148 0
M  V30 1642 H 143.939 -0.533628 -4.04495 0
M  V30 1643 H 142.614 -1.66227 -3.81237 0
M  V30 1644 H 141.191 0.167126 -3.72525 0
M  V30 1645 N 143.376 1.44774 -0.622745 0
M  V30 1646 C 144.601 2.06999 -0.128968 0
M  V30 1647 C 145.026 1.4617 1.1839 0
M  V30 1648 O 144.384 0.560007 1.72434 0
M  V30 1649 C 144.432 3.60595 -0.0188351 0
M  V30 1650 O 143.536 3.99398 1.02739 0
M  V30 1651 H 142.877 0.659047 -0.0809544 0
M  V30 1652 H 145.407 1.85784 -0.85705 0
M  V30 1653 H 145.417 4.07627 0.174476 0
M  V30 1654 H 144.092 4.04252 -0.977384 0
M  V30 1655 H 142.669 3.64011 0.809326 0
M  V30 1656 N 144.854 0.36279 1.53368 0
M  V30 1657 C 146.27 0.0116182 1.59596 0
M  V30 1658 C 146.47 -1.47012 1.37803 0
M  V30 1659 O 145.526 -2.23136 1.18181 0
M  V30 1660 C 146.839 0.465052 2.97082 0
M  V30 1661 C 148.387 0.419033 3.10182 0
M  V30 1662 C 148.862 0.848235 4.50077 0
M  V30 1663 N 150.353 0.803183 4.56183 0
M  V30 1664 C 151.088 1.107 5.62613 0
M  V30 1665 N 150.584 1.47996 6.76808 0
M  V30 1666 N 152.377 1.02998 5.52583 0
M  V30 1667 H 144.528 1.32775 1.65785 0
M  V30 1668 H 146.791 0.542518 0.777417 0
M  V30 1669 H 146.497 1.49892 3.18159 0
M  V30 1670 H 146.371 -0.149786 3.76902 0
M  V30 1671 H 148.758 -0.605696 2.88817 0
M  V30 1672 H 148.839 1.06933 2.32377 0
M  V30 1673 H 148.483 1.87107 4.7218 0
M  V30 1674 H 148.413 0.175218 5.26308 0
M  V30 1675 H 150.904 0.52838 3.74188 0
M  V30 1676 H 151.217 1.69613 7.53957 0
M  V30 1677 H 149.562 1.51859 6.78206 0
M  V30 1678 H 152.753 0.737817 4.62249 0
M  V30 1679 H 152.926 1.2701 6.35431 0
M  V30 1680 N 146.332 -1.57332 0.0918853 0
M  V30 1681 C 147.748 -1.57389 -0.264766 0
M  V30 1682 C 147.948 -1.10281 -1.68643 0
M  V30 1683 O 147.004 -0.777801 -2.40222 0
M  V30 1684 C 148.317 -3.00648 -0.0561195 0
M  V30 1685 C 149.865 -3.12754 -0.124116 0
M  V30 1686 C 150.34 -4.57965 0.0564972 0
M  V30 1687 N 151.831 -4.632 0.00155611 0
M  V30 1688 C 152.566 -5.73281 0.116598 0
M  V30 1689 N 152.062 -6.92208 0.286294 0
M  V30 1690 N 153.855 -5.6207 0.0580973 0
M  V30 1691 H 146.006 -1.86262 1.02079 0
M  V30 1692 H 148.269 -0.859579 0.399786 0
M  V30 1693 H 147.975 -3.393 0.925669 0
M  V30 1694 H 147.849 -3.68623 -0.799823 0
M  V30 1695 H 150.236 -2.73976 -1.09641 0
M  V30 1696 H 150.317 -2.47377 0.651024 0
M  V30 1697 H 149.961 -4.97436 1.02564 0
M  V30 1698 H 149.891 -5.21399 -0.738297 0
M  V30 1699 H 152.382 -3.77686 -0.127192 0
M  V30 1700 H 152.695 -7.71934 0.365676 0
M  V30 1701 H 151.04 -6.94254 0.32192 0
M  V30 1702 H 154.231 -4.68043 -0.0733204 0
M  V30 1703 H 154.404 -6.47824 0.151203 0
M  V30 1704 N 147.81 0.181792 -1.56548 0
M  V30 1705 C 148.74 1.22765 -1.98623 0
M  V30 1706 C 149.721 1.46747 -0.860189 0
M  V30 1707 O 150.906 1.58259 -1.12551 0
M  V30 1708 C 148.036 2.56894 -2.33715 0
M  V30 1709 C 146.99 2.475 -3.49182 0
M  V30 1710 C 146.316 3.86023 -3.69986 0
M  V30 1711 C 147.616 1.98866 -4.82959 0
M  V30 1712 H 149.31 0.877942 -2.86239 0
M  V30 1713 H 146.856 0.42088 -1.37712 0
M  V30 1714 H 148.809 3.30253 -2.61746 0
M  V30 1715 H 147.533 2.93632 -1.42997 0
M  V30 1716 H 146.192 1.76596 -3.21262 0
M  V30 1717 H 145.84 4.20136 -2.76576 0
M  V30 1718 H 145.54 3.80609 -4.47672 0
M  V30 1719 H 147.064 4.60984 -4.00407 0
M  V30 1720 H 148.478 2.61992 -5.09934 0
M  V30 1721 H 146.875 2.04424 -5.64208 0
M  V30 1722 H 147.945 0.942465 -4.75653 0
M  V30 1723 N 149.288 1.51039 0.449983 0
M  V30 1724 C 150.704 1.38934 0.785462 0
M  V30 1725 C 150.904 0.461817 1.96136 0
M  V30 1726 O 149.96 -0.0877389 2.52348 0
M  V30 1727 C 151.273 2.80724 1.0777 0
M  V30 1728 C 152.821 2.89787 1.1829 0
M  V30 1729 C 153.296 4.32457 1.50815 0
M  V30 1730 N 154.787 4.35505 1.57764 0
M  V30 1731 C 155.522 5.42914 1.84477 0
M  V30 1732 N 155.018 6.60502 2.09068 0
M  V30 1733 N 156.811 5.3038 1.86155 0
M  V30 1734 H 148.962 2.09904 -0.324647 0
M  V30 1735 H 151.225 0.944378 -0.0827957 0
M  V30 1736 H 150.931 3.50531 0.286498 0
M  V30 1737 H 150.805 3.19273 2.00859 0
M  V30 1738 H 153.192 2.20186 1.96474 0
M  V30 1739 H 153.273 2.54752 0.231314 0
M  V30 1740 H 152.917 5.02603 0.731622 0
M  V30 1741 H 152.847 4.64995 2.47158 0
M  V30 1742 H 155.338 3.50724 1.40715 0
M  V30 1743 H 155.651 7.38158 2.28785 0
M  V30 1744 H 153.996 6.63639 2.06416 0
M  V30 1745 H 157.187 4.37505 1.66454 0
M  V30 1746 H 157.36 6.1417 2.06637 0
M  V30 1747 N 150.766 -0.704594 1.40972 0
M  V30 1748 C 151.991 -1.49858 1.43378 0
M  V30 1749 C 152.416 -1.88061 0.038184 0
M  V30 1750 O 151.774 -1.5402 -0.956425 0
M  V30 1751 C 151.822 -2.74333 2.34038 0
M  V30 1752 O 150.926 -3.7147 1.7912 0
M  V30 1753 H 150.267 -0.45139 0.486974 0
M  V30 1754 H 152.797 -0.866832 1.8533 0
M  V30 1755 H 152.807 -3.22741 2.49604 0
M  V30 1756 H 151.482 -2.45863 3.35446 0
M  V30 1757 H 150.059 -3.30363 1.72958 0
M  V30 1758 N 152.244 -1.26651 -0.937939 0
M  V30 1759 C 153.191 -1.0849 -2.03712 0
M  V30 1760 C 154.161 0.011033 -1.66096 0
M  V30 1761 O 155.346 -0.149353 -1.90215 0
M  V30 1762 C 152.486 -0.72735 -3.37348 0
M  V30 1763 C 151.599 -1.89986 -3.87981 0
M  V30 1764 C 150.734 -1.48513 -5.10017 0
M  V30 1765 C 149.773 -2.62575 -5.5292 0
M  V30 1766 N 148.91 -2.21762 -6.66158 0
M  V30 1767 H 153.75 -2.02551 -2.18579 0
M  V30 1768 H 151.287 -1.00844 -1.07093 0
M  V30 1769 H 153.245 -0.50092 -4.14182 0
M  V30 1770 H 151.875 0.176298 -3.22318 0
M  V30 1771 H 150.927 -2.23913 -3.07518 0
M  V30 1772 H 152.239 -2.75586 -4.15757 0
M  V30 1773 H 151.393 -1.21934 -5.94321 0
M  V30 1774 H 150.132 -0.60009 -4.83994 0
M  V30 1775 H 149.137 -2.8988 -4.67172 0
M  V30 1776 H 150.362 -3.51685 -5.80943 0
M  V30 1777 H 148.308 -1.35696 -6.41812 0
M  V30 1778 H 148.225 -3.00903 -6.93537 0
M  V30 1779 H 149.493 -1.98403 -7.53828 0
M  V30 1780 N 153.722 1.14298 -1.08507 0
M  V30 1781 C 154.999 1.81544 -0.728088 0
M  V30 1782 C 155.379 1.95838 0.78808 0
M  V30 1783 O 154.727 1.51904 1.70697 0
M  V30 1784 C 154.937 3.17169 -1.45619 0
M  V30 1785 C 156.285 3.9265 -1.61591 0
M  V30 1786 O 157.309 3.26762 -1.41793 0
M  V30 1787 O 156.168 5.10807 -1.94263 0
M  V30 1788 H 153.262 0.78491 -0.260471 0
M  V30 1789 H 155.808 1.21307 -1.18671 0
M  V30 1790 H 154.58 3.01934 -2.489 0
M  V30 1791 H 154.203 3.851 -0.989124 0
M  V30 1792 N 155.201 0.870884 1.31352 0
M  V30 1793 C 156.426 0.495957 2.01383 0
M  V30 1794 C 156.851 -0.904324 1.64935 0
M  V30 1795 O 156.209 -1.59687 0.858466 0
M  V30 1796 C 156.257 0.661433 3.54482 0
M  V30 1797 O 155.361 -0.298851 4.11316 0
M  V30 1798 H 154.702 0.197158 0.634054 0
M  V30 1799 H 157.232 1.17455 1.67527 0
M  V30 1800 H 157.242 0.555072 4.04207 0
M  V30 1801 H 155.917 1.68246 3.8035 0
M  V30 1802 H 154.494 -0.147368 3.72609 0
M  V30 1803 N 156.679 -1.44442 0.630414 0
M  V30 1804 C 157.925 -2.02351 0.134816 0
M  V30 1805 C 158.258 -1.4947 -1.23986 0
M  V30 1806 O 157.533 -0.678475 -1.82283 0
M  V30 1807 C 157.816 -3.59898 0.120707 0
M  V30 1808 C 157.669 -4.23063 1.52767 0
M  V30 1809 C 158.988 -4.36585 -0.555127 0
M  V30 1810 H 156.107 -0.73527 0.0504646 0
M  V30 1811 H 158.749 -1.72022 0.806751 0
M  V30 1812 H 156.899 -3.85868 -0.451477 0
M  V30 1813 H 158.571 -4.08202 2.14869 0
M  V30 1814 H 156.814 -3.80586 2.08175 0
M  V30 1815 H 157.485 -5.32071 1.46984 0
M  V30 1816 H 159.961 -4.16044 -0.0685429 0
M  V30 1817 H 158.837 -5.46294 -0.534185 0
M  V30 1818 H 159.098 -4.11138 -1.62535 0
M  V30 1819 N 158.157 -0.370918 -1.53173 0
M  V30 1820 C 159.067 0.480823 -2.2962 0
M  V30 1821 C 160.083 1.08789 -1.35798 0
M  V30 1822 O 161.259 1.09768 -1.68858 0
M  V30 1823 C 158.324 1.60227 -3.07454 0
M  V30 1824 C 157.385 1.0222 -4.16953 0
M  V30 1825 C 156.618 2.0902 -4.91066 0
M  V30 1826 O 156.841 3.30222 -4.65091 0
M  V30 1827 O 155.775 1.71778 -5.76867 0
M  V30 1828 H 159.601 -0.141421 -3.03371 0
M  V30 1829 H 157.186 -0.135146 -1.48787 0
M  V30 1830 H 159.068 2.25417 -3.56041 0
M  V30 1831 H 157.743 2.20982 -2.36535 0
M  V30 1832 H 156.65 0.334064 -3.72605 0
M  V30 1833 H 157.983 0.459131 -4.90054 0
M  V30 1834 N 159.635 1.57281 -0.100228 0
M  V30 1835 C 160.582 2.14305 0.856858 0
M  V30 1836 C 161.552 1.06296 1.27634 0
M  V30 1837 O 162.737 1.34109 1.35718 0
M  V30 1838 C 159.877 2.73184 2.10866 0
M  V30 1839 C 158.99 3.95442 1.73925 0
M  V30 1840 C 158.125 4.42468 2.93931 0
M  V30 1841 C 157.164 5.57303 2.5314 0
M  V30 1842 N 156.301 5.99158 3.65997 0
M  V30 1843 H 161.141 2.95772 0.363726 0
M  V30 1844 H 158.678 1.46139 0.167858 0
M  V30 1845 H 160.636 3.05442 2.84185 0
M  V30 1846 H 159.266 1.94437 2.57671 0
M  V30 1847 H 158.318 3.69464 0.905554 0
M  V30 1848 H 159.63 4.78769 1.39935 0
M  V30 1849 H 158.784 4.76537 3.75496 0
M  V30 1850 H 157.523 3.58052 3.31134 0
M  V30 1851 H 156.528 5.22857 1.70003 0
M  V30 1852 H 157.753 6.43471 2.17075 0
M  V30 1853 H 155.699 5.17687 4.02909 0
M  V30 1854 H 155.616 6.77295 3.35869 0
M  V30 1855 H 156.884 6.3786 4.48057 0
M  V30 1856 N 161.113 -0.173488 1.56642 0
M  V30 1857 C 162.043 -1.2171 1.99271 0
M  V30 1858 C 163.024 -1.46289 0.867959 0
M  V30 1859 O 164.209 -1.5766 1.13388 0
M  V30 1860 C 161.339 -2.55651 2.35074 0
M  V30 1861 C 160.293 -2.45645 3.50489 0
M  V30 1862 C 159.619 -3.84056 3.72028 0
M  V30 1863 C 160.919 -1.96302 4.84007 0
M  V30 1864 H 162.613 -0.86275 2.867 0
M  V30 1865 H 160.159 -0.413571 1.37933 0
M  V30 1866 H 162.112 -3.2886 2.63494 0
M  V30 1867 H 160.836 -2.92869 1.44552 0
M  V30 1868 H 159.495 -1.7489 3.22194 0
M  V30 1869 H 159.143 -4.18664 2.788 0
M  V30 1870 H 158.843 -3.7823 4.49684 0
M  V30 1871 H 160.367 -4.58854 4.02846 0
M  V30 1872 H 161.781 -2.59284 5.11317 0
M  V30 1873 H 160.178 -2.01429 5.65284 0
M  V30 1874 H 161.248 -0.917226 4.76146 0
M  V30 1875 N 162.591 -1.51276 -0.441967 0
M  V30 1876 C 163.554 -1.7167 -1.51862 0
M  V30 1877 C 164.554 -0.586793 -1.49711 0
M  V30 1878 O 165.744 -0.854276 -1.51815 0
M  V30 1879 C 162.876 -1.76889 -2.91416 0
M  V30 1880 H 164.069 -2.67754 -1.35084 0
M  V30 1881 H 161.622 -1.41196 -0.670333 0
M  V30 1882 H 162.357 -0.826026 -3.13604 0
M  V30 1883 H 162.142 -2.59001 -2.94382 0
M  V30 1884 H 163.632 -1.94522 -3.69528 0
M  V30 1885 N 164.069 0.697108 -1.41344 0
M  V30 1886 C 165.297 1.48593 -1.43972 0
M  V30 1887 C 165.712 1.88747 -0.0445612 0
M  V30 1888 O 165.069 1.56682 0.935785 0
M  V30 1889 C 165.12 2.74946 -2.34706 0
M  V30 1890 O 164.841 2.36484 -3.68791 0
M  V30 1891 C 166.342 3.687 -2.46121 0
M  V30 1892 H 163.562 0.457964 -0.490418 0
M  V30 1893 H 166.106 0.858429 -1.8561 0
M  V30 1894 H 164.261 3.33937 -1.9638 0
M  V30 1895 H 164.675 3.17918 -4.17167 0
M  V30 1896 H 166.149 4.54145 -3.13777 0
M  V30 1897 H 166.626 4.13081 -1.49199 0
M  V30 1898 H 167.232 3.15613 -2.85076 0
M  V30 1899 N 165.547 1.27147 0.931209 0
M  V30 1900 C 166.793 1.13446 1.68101 0
M  V30 1901 C 167.126 -0.319628 1.91552 0
M  V30 1902 O 166.401 -1.23407 1.50336 0
M  V30 1903 C 166.684 1.91482 3.0497 0
M  V30 1904 C 166.537 3.44855 2.88782 0
M  V30 1905 C 167.856 1.71651 4.05246 0
M  V30 1906 H 164.975 0.413498 0.610072 0
M  V30 1907 H 167.617 1.56261 1.08086 0
M  V30 1908 H 165.767 1.55095 3.56199 0
M  V30 1909 H 167.439 3.9105 2.44698 0
M  V30 1910 H 165.682 3.71373 2.24198 0
M  V30 1911 H 166.353 3.94694 3.85902 0
M  V30 1912 H 168.829 2.0337 3.63015 0
M  V30 1913 H 167.705 2.28651 4.99009 0
M  V30 1914 H 167.966 0.663555 4.37092 0
M  V30 1915 N 167.025 -1.13721 1.09112 0
M  V30 1916 C 168.271 -1.85198 0.826414 0
M  V30 1917 C 168.604 -1.83129 -0.646319 0
M  V30 1918 O 167.879 -1.2671 -1.47563 0
M  V30 1919 C 168.162 -3.33507 1.35812 0
M  V30 1920 C 168.015 -3.44108 2.89672 0
M  V30 1921 C 169.334 -4.28838 0.989256 0
M  V30 1922 H 166.453 -0.67243 0.301675 0
M  V30 1923 H 169.095 -1.33499 1.35197 0
M  V30 1924 H 167.245 -3.77666 0.911082 0
M  V30 1925 H 168.917 -3.08684 3.428 0
M  V30 1926 H 167.16 -2.85087 3.26967 0
M  V30 1927 H 167.831 -4.48388 3.21951 0
M  V30 1928 H 170.307 -3.92734 1.37475 0
M  V30 1929 H 169.183 -5.31051 1.38838 0
M  V30 1930 H 169.444 -4.4198 -0.102924 0
M  V30 1931 N 168.503 -0.877838 -1.30888 0
M  V30 1932 C 169.751 -0.491723 -1.96027 0
M  V30 1933 C 170.072 0.960827 -1.69685 0
M  V30 1934 O 169.342 1.67462 -1.01654 0
M  V30 1935 H 167.922 -0.17885 -0.725273 0
M  V30 1936 H 170.584 -1.11935 -1.59551 0
M  V30 1937 H 169.68 -0.656016 -3.05128 0
M  V30 1938 N 169.982 1.44106 -0.638065 0
M  V30 1939 C 170.892 2.34513 0.0637334 0
M  V30 1940 C 171.908 1.53018 0.828346 0
M  V30 1941 O 173.084 1.85723 0.779036 0
M  V30 1942 C 170.149 3.31095 1.02844 0
M  V30 1943 C 169.21 4.28497 0.26244 0
M  V30 1944 C 168.443 5.20465 1.1812 0
M  V30 1945 O 168.666 5.16514 2.42011 0
M  V30 1946 O 167.6 5.98251 0.661774 0
M  V30 1947 H 171.426 2.95989 -0.68003 0
M  V30 1948 H 169.011 1.43994 -0.398252 0
M  V30 1949 H 170.893 3.90526 1.58327 0
M  V30 1950 H 169.568 2.72144 1.7527 0
M  V30 1951 H 168.475 3.72592 -0.335602 0
M  V30 1952 H 169.808 4.90388 -0.421936 0
M  V30 1953 N 171.46 0.379036 1.52974 0
M  V30 1954 C 172.408 -0.476033 2.27677 0
M  V30 1955 C 173.402 -1.0719 1.31174 0
M  V30 1956 O 174.608 -1.01355 1.48752 0
M  V30 1957 H 170.983 -0.172255 0.732006 0
M  V30 1958 H 172.954 0.175615 2.97883 0
M  V30 1959 C 171.703 -1.5967 3.0887 0
M  V30 1960 H 171.026 -1.1475 3.82978 0
M  V30 1961 H 172.466 -2.16943 3.64296 0
M  V30 1962 C 170.925 -2.54682 2.20542 0
M  V30 1963 O 171.455 -3.57836 1.82527 0
M  V30 1964 N 169.661 -2.24183 1.84907 0
M  V30 1965 H 169.208 -1.40333 2.1602 0
M  V30 1966 H 169.166 -2.88006 1.26096 0
M  V30 1967 N 172.938 -1.57226 0.108567 0
M  V30 1968 C 174.186 -1.94448 -0.550853 0
M  V30 1969 C 174.507 -0.992074 -1.67878 0
M  V30 1970 O 173.777 -0.0465 -1.95845 0
M  V30 1971 H 172.357 -0.717897 -0.206479 0
M  V30 1972 H 175.019 -1.94112 0.175062 0
M  V30 1973 H 174.115 -2.97218 -0.952259 0
M  V30 1974 N 174.416 0.165178 -1.56732 0
M  V30 1975 C 175.641 0.900253 -1.86843 0
M  V30 1976 C 176.066 1.74766 -0.695596 0
M  V30 1977 O 175.424 1.77786 0.35522 0
M  V30 1978 C 175.472 1.74777 -3.15413 0
M  V30 1979 O 174.576 2.85007 -2.98068 0
M  V30 1980 H 173.917 0.251832 -0.614391 0
M  V30 1981 H 176.447 0.161468 -2.03962 0
M  V30 1982 H 176.457 2.14646 -3.46974 0
M  V30 1983 H 175.132 1.12537 -4.00385 0
M  V30 1984 H 173.709 2.48676 -2.77875 0
M  V30 1985 N 175.894 1.51508 0.433938 0
M  V30 1986 C 177.14 1.64588 1.18484 0
M  V30 1987 C 177.473 0.362666 1.90784 0
M  V30 1988 O 176.748 -0.637892 1.83742 0
M  V30 1989 C 177.031 2.85149 2.19913 0
M  V30 1990 C 176.884 4.23456 1.51674 0
M  V30 1991 C 178.203 3.01227 3.20858 0
M  V30 1992 H 175.322 0.598994 0.429389 0
M  V30 1993 H 177.964 1.84002 0.473647 0
M  V30 1994 H 176.114 2.68729 2.80566 0
M  V30 1995 H 177.786 4.51552 0.943322 0
M  V30 1996 H 176.029 4.25998 0.819035 0
M  V30 1997 H 176.7 5.03812 2.2556 0
M  V30 1998 H 179.176 3.16382 2.70263 0
M  V30 1999 H 178.052 3.87141 3.89118 0
M  V30 2000 H 178.313 2.13447 3.8716 0
M  V30 2001 N 177.372 -0.689602 1.41712 0
M  V30 2002 C 178.302 -1.81577 1.46806 0
M  V30 2003 C 179.283 -1.66945 0.326105 0
M  V30 2004 O 180.468 -1.86588 0.538377 0
M  V30 2005 C 177.598 -3.19762 1.35535 0
M  V30 2006 C 176.552 -3.49107 2.47605 0
M  V30 2007 C 175.878 -4.86711 2.21397 0
M  V30 2008 C 177.178 -3.47483 3.89939 0
M  V30 2009 H 178.872 -1.7757 2.41058 0
M  V30 2010 H 176.418 -0.852887 1.16025 0
M  V30 2011 H 178.371 -3.98263 1.3771 0
M  V30 2012 H 177.095 -3.24409 0.377708 0
M  V30 2013 H 175.754 -2.72959 2.44722 0
M  V30 2014 H 175.402 -4.8799 1.21961 0
M  V30 2015 H 175.102 -5.0731 2.96497 0
M  V30 2016 H 176.626 -5.67515 2.25297 0
M  V30 2017 H 178.04 -4.1598 3.94505 0
M  V30 2018 H 176.437 -3.79615 4.64771 0
M  V30 2019 H 177.507 -2.46341 4.17665 0
M  V30 2020 N 178.85 -1.27639 -0.924453 0
M  V30 2021 C 180.266 -1.05113 -1.20097 0
M  V30 2022 C 180.466 0.213262 -2.00368 0
M  V30 2023 O 179.522 0.91787 -2.35226 0
M  V30 2024 C 180.835 -2.29244 -1.94596 0
M  V30 2025 C 182.383 -2.34315 -2.07522 0
M  V30 2026 C 182.858 -3.58183 -2.85427 0
M  V30 2027 N 184.349 -3.5876 -2.92994 0
M  V30 2028 C 185.084 -4.51277 -3.53746 0
M  V30 2029 N 184.58 -5.54102 -4.15863 0
M  V30 2030 N 186.373 -4.38894 -3.51181 0
M  V30 2031 H 178.524 -2.08821 -0.388264 0
M  V30 2032 H 180.787 -0.918568 -0.234385 0
M  V30 2033 H 180.493 -3.21301 -1.43034 0
M  V30 2034 H 180.367 -2.34816 -2.95197 0
M  V30 2035 H 182.754 -1.42762 -2.58269 0
M  V30 2036 H 182.835 -2.32744 -1.06131 0
M  V30 2037 H 182.479 -4.50074 -2.35363 0
M  V30 2038 H 182.409 -3.57006 -3.8711 0
M  V30 2039 H 184.9 -2.84398 -2.4885 0
M  V30 2040 H 185.213 -6.20859 -4.60168 0
M  V30 2041 H 183.558 -5.57941 -4.144 0
M  V30 2042 H 186.749 -3.57772 -3.01856 0
M  V30 2043 H 186.922 -5.11186 -3.98237 0
M  V30 2044 N 180.328 1.1314 -1.09713 0
M  V30 2045 C 181.744 1.36477 -0.827423 0
M  V30 2046 C 181.944 1.93654 0.556817 0
M  V30 2047 O 181 2.15791 1.31112 0
M  V30 2048 C 182.313 2.31334 -1.92106 0
M  V30 2049 C 183.861 2.44943 -1.94864 0
M  V30 2050 C 184.336 3.4311 -3.0338 0
M  V30 2051 N 185.827 3.50662 -3.02639 0
M  V30 2052 C 186.562 4.2651 -3.83246 0
M  V30 2053 N 186.058 5.05485 -4.73768 0
M  V30 2054 N 187.851 4.2184 -3.71493 0
M  V30 2055 H 180.002 0.743807 -1.9895 0
M  V30 2056 H 182.265 0.389823 -0.864143 0
M  V30 2057 H 181.971 1.96483 -2.91698 0
M  V30 2058 H 181.845 3.31381 -1.80184 0
M  V30 2059 H 184.232 2.79079 -0.959099 0
M  V30 2060 H 184.313 1.4481 -2.10864 0
M  V30 2061 H 183.957 3.09704 -4.02549 0
M  V30 2062 H 183.887 4.43055 -2.84622 0
M  V30 2063 H 186.378 2.94315 -2.37039 0
M  V30 2064 H 186.691 5.60675 -5.3185 0
M  V30 2065 H 185.036 5.04708 -4.77802 0
M  V30 2066 H 188.227 3.5922 -3.00131 0
M  V30 2067 H 188.4 4.80697 -4.3455 0
M  V30 2068 N 181.806 0.884767 1.30421 0
M  V30 2069 C 183.052 0.503851 1.96441 0
M  V30 2070 C 183.385 -0.944518 1.69684 0
M  V30 2071 O 182.66 -1.66737 1.00145 0
M  V30 2072 C 182.943 0.779085 3.51571 0
M  V30 2073 C 182.796 2.27807 3.87846 0
M  V30 2074 C 184.115 0.255452 4.39358 0
M  V30 2075 H 181.234 0.184533 0.713524 0
M  V30 2076 H 183.876 1.10872 1.54297 0
M  V30 2077 H 182.026 0.264274 3.876 0
M  V30 2078 H 183.698 2.86127 3.61841 0
M  V30 2079 H 181.941 2.74479 3.35922 0
M  V30 2080 H 182.612 2.42125 4.96064 0
M  V30 2081 H 185.088 0.696079 4.10236 0
M  V30 2082 H 183.964 0.477361 5.4682 0
M  V30 2083 H 184.225 -0.843293 4.33983 0
M  V30 2084 N 183.284 -1.43765 0.645699 0
M  V30 2085 C 184.512 -2.06253 0.163556 0
M  V30 2086 C 184.927 -1.48352 -1.16778 0
M  V30 2087 O 184.284 -0.611932 -1.71935 0
M  V30 2088 C 184.335 -3.61453 0.0583186 0
M  V30 2089 O 184.056 -4.172 1.33702 0
M  V30 2090 C 185.557 -4.41002 -0.450795 0
M  V30 2091 H 182.777 -0.665413 0.0864077 0
M  V30 2092 H 185.321 -1.84396 0.884222 0
M  V30 2093 H 183.476 -3.82522 -0.612865 0
M  V30 2094 H 183.89 -5.10791 1.19131 0
M  V30 2095 H 185.364 -5.49966 -0.473403 0
M  V30 2096 H 185.841 -4.13488 -1.48068 0
M  V30 2097 H 186.447 -4.24886 0.187637 0
M  V30 2098 N 184.763 -0.387143 -1.52771 0
M  V30 2099 C 186.179 -0.037007 -1.59557 0
M  V30 2100 C 186.379 1.44801 -1.40124 0
M  V30 2101 O 185.435 2.21227 -1.21716 0
M  V30 2102 C 186.748 -0.512256 -2.96305 0
M  V30 2103 C 188.296 -0.468328 -3.09476 0
M  V30 2104 C 188.771 -0.919731 -4.4867 0
M  V30 2105 N 190.262 -0.875656 -4.54848 0
M  V30 2106 C 190.997 -1.19637 -5.6078 0
M  V30 2107 N 190.493 -1.58745 -6.74368 0
M  V30 2108 N 192.286 -1.11776 -5.50874 0
M  V30 2109 H 184.437 -1.35395 -1.63652 0
M  V30 2110 H 186.7 -0.554818 -0.768688 0
M  V30 2111 H 186.406 -1.54935 -3.15734 0
M  V30 2112 H 186.28 0.089805 -3.77093 0
M  V30 2113 H 188.667 0.559671 -2.89744 0
M  V30 2114 H 188.748 -1.10616 -2.30646 0
M  V30 2115 H 188.392 -1.94595 -4.69143 0
M  V30 2116 H 188.322 -0.258927 -5.25963 0
M  V30 2117 H 190.813 -0.587843 -3.733 0
M  V30 2118 H 191.126 -1.81586 -7.51163 0
M  V30 2119 H 189.471 -1.6263 -6.75705 0
M  V30 2120 H 192.662 -0.811264 -4.61016 0
M  V30 2121 H 192.835 -1.37103 -6.3333 0
M  V30 2122 N 186.241 1.57166 -0.116904 0
M  V30 2123 C 187.204 2.14039 0.819742 0
M  V30 2124 C 188.204 1.07477 1.19605 0
M  V30 2125 O 189.394 1.33263 1.1219 0
M  V30 2126 C 186.526 2.67891 2.10826 0
M  V30 2127 H 187.719 2.98128 0.325511 0
M  V30 2128 H 185.272 1.55739 0.132312 0
M  V30 2129 H 186.007 1.87384 2.64685 0
M  V30 2130 H 185.792 3.45823 1.84793 0
M  V30 2131 H 187.282 3.11809 2.77785 0
M  V30 2132 N 187.719 -0.156864 1.56817 0
M  V30 2133 C 188.682 -1.17781 1.96622 0
M  V30 2134 C 189.682 -1.36401 0.851555 0
M  V30 2135 O 190.872 -1.33561 1.11836 0
M  V30 2136 C 188.004 -2.54008 2.27361 0
M  V30 2137 H 189.197 -0.836564 2.87996 0
M  V30 2138 H 186.75 -0.39985 1.51099 0
M  V30 2139 H 187.485 -2.9312 1.38748 0
M  V30 2140 H 187.27 -2.41856 3.08623 0
M  V30 2141 H 188.76 -3.27558 2.59029 0
M  V30 2142 N 189.197 -1.51736 -0.425897 0
M  V30 2143 C 190.16 -1.73271 -1.50032 0
M  V30 2144 C 191.16 -0.602639 -1.4908 0
M  V30 2145 O 192.35 -0.87033 -1.509 0
M  V30 2146 C 189.482 -1.79969 -2.89523 0
M  V30 2147 H 190.675 -2.69172 -1.32237 0
M  V30 2148 H 188.228 -1.41899 -0.65532 0
M  V30 2149 H 188.963 -0.859241 -3.1271 0
M  V30 2150 H 188.748 -2.62109 -2.91619 0
M  V30 2151 H 190.238 -1.9843 -3.67444 0
M  V30 2152 N 190.675 0.682077 -1.42076 0
M  V30 2153 C 191.638 1.77756 -1.44691 0
M  V30 2154 C 192.638 1.5726 -0.335535 0
M  V30 2155 O 193.828 1.63686 -0.596037 0
M  V30 2156 C 190.96 3.16301 -1.27146 0
M  V30 2157 H 192.153 1.76826 -2.42224 0
M  V30 2158 H 189.706 0.891012 -1.28416 0
M  V30 2159 H 190.441 3.22862 -0.305075 0
M  V30 2160 H 190.226 3.32581 -2.07683 0
M  V30 2161 H 191.716 3.96241 -1.31843 0
M  V30 2162 N 192.153 1.28127 0.917671 0
M  V30 2163 C 193.116 1.11744 2.00115 0
M  V30 2164 C 194.116 0.0583052 1.60694 0
M  V30 2165 O 195.306 0.303755 1.71531 0
M  V30 2166 C 192.438 0.704862 3.33533 0
M  V30 2167 H 193.631 2.07966 2.16079 0
M  V30 2168 H 191.184 1.11058 1.09981 0
M  V30 2169 H 191.919 -0.258299 3.2327 0
M  V30 2170 H 191.704 1.4699 3.63505 0
M  V30 2171 H 193.194 0.612768 4.1308 0
M  V30 2172 N 193.631 -1.12557 1.10312 0
M  V30 2173 C 194.594 -2.16434 0.75424 0
M  V30 2174 C 195.594 -1.59278 -0.220685 0
M  V30 2175 O 196.784 -1.742 0.00230591 0
M  V30 2176 C 193.916 -3.40699 0.116987 0
M  V30 2177 H 195.109 -2.48811 1.67431 0
M  V30 2178 H 192.662 -1.27542 0.903475 0
M  V30 2179 H 193.397 -3.13921 -0.813877 0
M  V30 2180 H 193.182 -3.83459 0.818613 0
M  V30 2181 H 194.672 -4.17451 -0.111387 0
M  V30 2182 N 195.109 -0.891671 -1.2995 0
M  V30 2183 C 196.072 -0.36828 -2.26222 0
M  V30 2184 C 197.072 0.493014 -1.53056 0
M  V30 2185 O 198.262 0.299213 -1.71611 0
M  V30 2186 C 195.394 0.47442 -3.37583 0
M  V30 2187 H 196.587 -1.21844 -2.74033 0
M  V30 2188 H 194.14 -0.669107 -1.41254 0
M  V30 2189 H 194.875 1.34489 -2.95099 0
M  V30 2190 H 194.66 -0.142615 -3.91841 0
M  V30 2191 H 196.15 0.83218 -4.09224 0
M  V30 2192 N 196.587 1.43421 -0.653314 0
M  V30 2193 C 197.55 2.29182 0.0287951 0
M  V30 2194 C 198.55 1.42213 0.750465 0
M  V30 2195 O 199.74 1.63843 0.591701 0
M  V30 2196 C 196.872 3.24278 1.05151 0
M  V30 2197 H 198.065 2.90985 -0.725786 0
M  V30 2198 H 195.618 1.50702 -0.414545 0
M  V30 2199 H 196.353 2.6737 1.83532 0
M  V30 2200 H 196.138 3.88396 0.537687 0
M  V30 2201 H 197.628 3.88647 1.52786 0
M  V30 2202 N 198.065 0.39524 1.52563 0
M  V30 2203 C 199.293 -0.184943 2.06072 0
M  V30 2204 C 199.708 -1.40021 1.26647 0
M  V30 2205 O 199.065 -1.79767 0.314672 0
M  V30 2206 C 199.116 -0.549179 3.57304 0
M  V30 2207 O 198.837 0.617813 4.33722 0
M  V30 2208 C 200.338 -1.18459 4.2718 0
M  V30 2209 H 197.558 -0.0265025 0.670476 0
M  V30 2210 H 200.102 0.562184 1.96621 0
M  V30 2211 H 198.257 -1.2462 3.66809 0
M  V30 2212 H 198.671 0.317091 5.23541 0
M  V30 2213 H 200.145 -1.38976 5.34219 0
M  V30 2214 H 200.622 -2.15368 3.82771 0
M  V30 2215 H 201.228 -0.528163 4.22008 0
M  V30 2216 N 199.544 -1.57102 0.125237 0
M  V30 2217 C 200.477 -2.11371 -0.860094 0
M  V30 2218 C 201.455 -1.03168 -1.25679 0
M  V30 2219 O 202.639 -1.30862 -1.35674 0
M  V30 2220 C 199.766 -2.61555 -2.1519 0
M  V30 2221 C 198.812 -3.81701 -1.9028 0
M  V30 2222 S 199.645 -5.23797 -1.11343 0
M  V30 2223 C 200.801 -5.77353 -2.41689 0
M  V30 2224 H 201.034 -2.94617 -0.39852 0
M  V30 2225 H 198.567 -1.54145 -0.0886555 0
M  V30 2226 H 200.525 -2.91122 -2.89411 0
M  V30 2227 H 199.186 -1.78479 -2.58465 0
M  V30 2228 H 198.379 -4.14985 -2.86014 0
M  V30 2229 H 197.981 -3.52783 -1.24178 0
M  V30 2230 H 200.273 -5.87458 -3.37489 0
M  V30 2231 H 201.216 -6.75323 -2.12942 0
M  V30 2232 H 201.624 -5.05457 -2.51342 0
M  V30 2233 N 201.022 0.148545 -1.56898 0
M  V30 2234 C 201.985 1.16736 -1.97244 0
M  V30 2235 C 202.985 1.35947 -0.858777 0
M  V30 2236 O 204.175 1.32966 -1.12542 0
M  V30 2237 C 201.307 2.52798 -2.28705 0
M  V30 2238 H 202.5 0.821279 -2.88435 0
M  V30 2239 H 200.053 0.391831 -1.51309 0
M  V30 2240 H 200.788 2.92381 -1.403 0
M  V30 2241 H 200.573 2.40216 -3.09901 0
M  V30 2242 H 202.063 3.26179 -2.60762 0
M  V30 2243 N 202.5 1.5196 0.417844 0
M  V30 2244 C 203.43 1.77634 1.51554 0
M  V30 2245 C 204.411 0.626918 1.58126 0
M  V30 2246 O 205.596 0.871632 1.7354 0
M  V30 2247 C 202.726 1.91911 2.8946 0
M  V30 2248 C 201.68 3.07463 2.97743 0
M  V30 2249 C 201.006 3.06951 4.37819 0
M  V30 2250 C 202.306 4.47082 2.70027 0
M  V30 2251 H 204 2.6955 1.3032 0
M  V30 2252 H 201.546 1.29706 0.625492 0
M  V30 2253 H 203.499 2.08455 3.6623 0
M  V30 2254 H 202.223 0.966598 3.11969 0
M  V30 2255 H 200.882 2.90656 2.23416 0
M  V30 2256 H 200.53 2.09438 4.57323 0
M  V30 2257 H 200.23 3.84556 4.44286 0
M  V30 2258 H 201.754 3.25613 5.16535 0
M  V30 2259 H 203.168 4.6414 3.36522 0
M  V30 2260 H 201.565 5.2654 2.87881 0
M  V30 2261 H 202.635 4.55777 1.65514 0
M  V30 2262 N 203.978 -0.674533 1.42435 0
M  V30 2263 C 204.941 -1.76986 1.45632 0
M  V30 2264 C 205.941 -1.5708 0.343871 0
M  V30 2265 O 207.131 -1.63367 0.604709 0
M  V30 2266 C 204.263 -3.15623 1.28822 0
M  V30 2267 H 205.456 -1.75539 2.43158 0
M  V30 2268 H 203.009 -0.884189 1.28887 0
M  V30 2269 H 203.744 -3.22696 0.322193 0
M  V30 2270 H 203.529 -3.31475 2.09444 0
M  V30 2271 H 205.019 -3.95537 1.33942 0
M  V30 2272 N 205.456 -1.28612 -0.910864 0
M  V30 2273 C 206.419 -1.12803 -1.9952 0
M  V30 2274 C 207.419 -0.0668264 -1.60661 0
M  V30 2275 O 208.609 -0.312847 -1.71368 0
M  V30 2276 C 205.741 -0.72254 -3.33155 0
M  V30 2277 H 206.934 -2.09109 -2.14973 0
M  V30 2278 H 204.487 -1.11639 -1.09391 0
M  V30 2279 H 205.222 0.241152 -3.23402 0
M  V30 2280 H 205.007 -1.48916 -3.62721 0
M  V30 2281 H 206.497 -0.634666 -4.12749 0
M  V30 2282 N 206.934 1.1197 -1.10907 0
M  V30 2283 C 208.345 1.65114 -0.871446 0
M  V30 2284 C 208.696 1.86885 0.597353 0
M  V30 2285 O 207.821 1.59896 1.45816 0
M  V30 2286 C 208.416 2.99944 -1.5754 0
M  V30 2287 C 206.975 3.50018 -1.38435 0
M  V30 2288 C 206.122 2.24941 -1.62164 0
M  V30 2289 H 209.073 0.956851 -1.2661 0
M  V30 2290 H 209.094 3.66651 -1.01721 0
M  V30 2291 H 208.606 2.84067 -2.64438 0
M  V30 2292 H 206.707 3.71071 -0.337214 0
M  V30 2293 H 206.82 4.29165 -2.12965 0
M  V30 2294 H 205.184 2.3229 -1.04467 0
M  V30 2295 H 205.967 2.11612 -2.70324 0
M  V30 2296 N 208.412 0.89855 1.29475 0
M  V30 2297 C 209.637 0.538561 2.00285 0
M  V30 2298 C 210.062 -0.869135 1.66816 0
M  V30 2299 O 209.42 -1.57831 0.892145 0
M  V30 2300 C 209.468 0.736475 3.52999 0
M  V30 2301 O 208.572 -0.211537 4.11857 0
M  V30 2302 H 207.913 0.210563 0.62973 0
M  V30 2303 H 210.443 1.20982 1.64998 0
M  V30 2304 H 210.453 0.640685 4.02938 0
M  V30 2305 H 209.128 1.76276 3.76696 0
M  V30 2306 H 207.705 -0.0682991 3.72837 0
M  V30 2307 N 209.89 -1.43072 0.660911 0
M  V30 2308 C 211.115 -2.06584 0.183805 0
M  V30 2309 C 211.54 -1.49257 -1.14472 0
M  V30 2310 O 210.898 -0.605528 -1.70889 0
M  V30 2311 C 210.946 -3.60418 0.114434 0
M  V30 2312 O 210.05 -4.01981 -0.921137 0
M  V30 2313 H 209.391 -0.656669 0.0983994 0
M  V30 2314 H 211.921 -1.83447 0.906006 0
M  V30 2315 H 211.931 -4.07946 -0.0663394 0
M  V30 2316 H 210.606 -4.01519 1.08422 0
M  V30 2317 H 209.183 -3.66029 -0.71253 0
M  V30 2318 N 211.368 -0.403325 -1.52352 0
M  V30 2319 C 212.779 0.0675782 -1.86578 0
M  V30 2320 C 213.13 1.44941 -1.32236 0
M  V30 2321 O 212.255 2.06112 -0.659307 0
M  V30 2322 C 212.85 0.129404 -3.38553 0
M  V30 2323 C 211.409 0.544629 -3.72439 0
M  V30 2324 C 210.556 -0.284551 -2.75836 0
M  V30 2325 H 213.507 -0.620631 -1.46061 0
M  V30 2326 H 213.528 0.94581 -3.68558 0
M  V30 2327 H 213.04 -0.87645 -3.78074 0
M  V30 2328 H 211.141 1.55734 -3.38493 0
M  V30 2329 H 211.254 0.293046 -4.78203 0
M  V30 2330 H 209.618 0.252258 -2.53448 0
M  V30 2331 H 210.401 -1.28865 -3.18196 0
M  V30 2332 N 212.846 1.57033 -0.133567 0
M  V30 2333 C 214.074 2.00044 0.528195 0
M  V30 2334 C 214.489 1.01349 1.59291 0
M  V30 2335 O 213.846 0.00848369 1.82498 0
M  V30 2336 C 213.897 3.43018 1.1411 0
M  V30 2337 O 213.618 4.37939 0.11892 0
M  V30 2338 C 215.119 4.01237 1.88477 0
M  V30 2339 H 212.339 0.656517 0.138661 0
M  V30 2340 H 214.883 2.03267 -0.224196 0
M  V30 2341 H 213.038 3.40688 1.84418 0
M  V30 2342 H 213.452 5.21436 0.56613 0
M  V30 2343 H 214.926 5.03314 2.26669 0
M  V30 2344 H 215.403 3.41193 2.76558 0
M  V30 2345 H 216.009 4.07156 1.22898 0
M  V30 2346 N 214.325 -0.140222 1.56975 0
M  V30 2347 C 215.736 -0.699596 1.73097 0
M  V30 2348 C 216.087 -1.8134 0.749022 0
M  V30 2349 O 215.212 -2.16241 -0.0828503 0
M  V30 2350 C 215.807 -1.27582 3.1386 0
M  V30 2351 C 214.366 -1.78169 3.31561 0
M  V30 2352 C 213.513 -0.672855 2.69013 0
M  V30 2353 H 216.464 0.0855115 1.58469 0
M  V30 2354 H 216.485 -2.14561 3.14235 0
M  V30 2355 H 215.997 -0.464955 3.85305 0
M  V30 2356 H 214.098 -2.61801 2.65124 0
M  V30 2357 H 214.211 -1.90574 4.39566 0
M  V30 2358 H 212.575 -1.10118 2.29665 0
M  V30 2359 H 213.358 0.126679 3.43066 0
M  V30 2360 N 215.803 -1.52179 -0.40978 0
M  V30 2361 C 216.713 -1.78364 -1.52392 0
M  V30 2362 C 217.729 -0.669183 -1.60617 0
M  V30 2363 O 218.905 -0.954518 -1.77344 0
M  V30 2364 C 215.97 -1.92822 -2.88133 0
M  V30 2365 C 215.031 -3.16725 -2.898 0
M  V30 2366 C 214.264 -3.30483 -4.19067 0
M  V30 2367 O 214.487 -2.49522 -5.12928 0
M  V30 2368 O 213.421 -4.2363 -4.27576 0
M  V30 2369 H 217.247 -2.72931 -1.33201 0
M  V30 2370 H 214.832 -1.37016 -0.59557 0
M  V30 2371 H 216.714 -2.04157 -3.68643 0
M  V30 2372 H 215.389 -1.01444 -3.07393 0
M  V30 2373 H 214.296 -3.10848 -2.08146 0
M  V30 2374 H 215.629 -4.07881 -2.75489 0
M  V30 2375 N 217.281 0.66697 -1.42791 0
M  V30 2376 C 218.506 1.46004 -1.47301 0
M  V30 2377 C 218.931 1.87894 -0.0880317 0
M  V30 2378 O 218.289 1.56502 0.915253 0
M  V30 2379 C 218.337 2.68031 -2.41229 0
M  V30 2380 O 217.441 3.6659 -1.88906 0
M  V30 2381 H 216.782 0.43832 -0.49877 0
M  V30 2382 H 219.312 0.817391 -1.87563 0
M  V30 2383 H 219.322 3.1601 -2.58073 0
M  V30 2384 H 217.997 2.36883 -3.41847 0
M  V30 2385 H 216.574 3.25661 -1.81656 0
M  V30 2386 N 218.759 1.29093 0.90403 0
M  V30 2387 C 220.17 1.15186 1.46932 0
M  V30 2388 C 220.521 -0.254587 1.94541 0
M  V30 2389 O 219.646 -1.14972 1.83332 0
M  V30 2390 C 220.241 2.08492 2.67051 0
M  V30 2391 C 218.8 1.98621 3.19729 0
M  V30 2392 C 217.947 1.9967 1.92425 0
M  V30 2393 H 220.898 1.41641 0.715789 0
M  V30 2394 H 220.919 1.65461 3.42641 0
M  V30 2395 H 220.431 3.10847 2.3237 0
M  V30 2396 H 218.532 0.993389 3.59114 0
M  V30 2397 H 218.645 2.86068 3.8432 0
M  V30 2398 H 217.009 1.44208 2.09943 0
M  V30 2399 H 217.792 3.03721 1.60026 0
M  V30 2400 N 220.237 -1.11381 1.11499 0
M  V30 2401 C 221.465 -1.86934 0.88675 0
M  V30 2402 C 221.88 -1.80195 -0.563476 0
M  V30 2403 O 221.237 -1.18367 -1.38908 0
M  V30 2404 C 221.288 -3.35722 1.34064 0
M  V30 2405 O 221.009 -3.4232 2.73401 0
M  V30 2406 C 222.51 -4.2818 1.14791 0
M  V30 2407 H 219.73 -0.591117 0.317523 0
M  V30 2408 H 222.274 -1.40865 1.48248 0
M  V30 2409 H 220.429 -3.79294 0.788355 0
M  V30 2410 H 220.843 -4.34971 2.93087 0
M  V30 2411 H 222.317 -5.30817 1.5145 0
M  V30 2412 H 222.794 -4.39113 0.0875279 0
M  V30 2413 H 223.4 -3.90402 1.68721 0
M  V30 2414 N 221.715 -0.905404 -1.28997 0
M  V30 2415 C 222.648 -0.331959 -2.25773 0
M  V30 2416 C 223.626 0.559099 -1.52685 0
M  V30 2417 O 224.81 0.50463 -1.8162 0
M  V30 2418 C 221.937 0.526276 -3.34586 0
M  V30 2419 C 220.983 -0.298249 -4.25456 0
M  V30 2420 S 221.816 -1.69968 -5.0781 0
M  V30 2421 C 222.972 -0.848519 -6.20122 0
M  V30 2422 H 223.205 -1.15222 -2.74064 0
M  V30 2423 H 220.738 -0.706112 -1.37308 0
M  V30 2424 H 222.696 1.01565 -3.97737 0
M  V30 2425 H 221.357 1.32084 -2.84978 0
M  V30 2426 H 220.55 0.357607 -5.0273 0
M  V30 2427 H 220.152 -0.720968 -3.66985 0
M  V30 2428 H 222.444 -0.0744325 -6.77459 0
M  V30 2429 H 223.387 -1.59353 -6.89937 0
M  V30 2430 H 223.795 -0.400383 -5.63078 0
M  V30 2431 N 223.193 1.4272 -0.668489 0
M  V30 2432 C 224.123 2.335 -0.000100175 0
M  V30 2433 C 225.104 1.50328 0.795964 0
M  V30 2434 O 226.289 1.78949 0.754385 0
M  V30 2435 C 223.419 3.33874 0.956302 0
M  V30 2436 C 222.373 4.27152 0.269278 0
M  V30 2437 C 221.699 5.17684 1.33818 0
M  V30 2438 C 222.999 5.15373 -0.847805 0
M  V30 2439 H 224.693 2.89639 -0.758244 0
M  V30 2440 H 222.239 1.39269 -0.366079 0
M  V30 2441 H 224.192 3.9629 1.43292 0
M  V30 2442 H 222.916 2.76025 1.74579 0
M  V30 2443 H 221.575 3.66123 -0.187042 0
M  V30 2444 H 221.223 4.56165 2.1195 0
M  V30 2445 H 220.923 5.80918 0.883659 0
M  V30 2446 H 222.447 5.82974 1.81586 0
M  V30 2447 H 223.861 5.7151 -0.452681 0
M  V30 2448 H 222.258 5.87407 -1.22773 0
M  V30 2449 H 223.328 4.5415 -1.69929 0
M  V30 2450 N 224.671 0.411399 1.52136 0
M  V30 2451 C 225.899 -0.163076 2.06256 0
M  V30 2452 C 226.314 -1.3867 1.28125 0
M  V30 2453 O 225.671 -1.79423 0.333721 0
M  V30 2454 C 225.722 -0.511252 3.57867 0
M  V30 2455 O 225.443 0.66378 4.33042 0
M  V30 2456 C 226.944 -1.13921 4.28412 0
M  V30 2457 H 224.164 -0.0193897 0.67072 0
M  V30 2458 H 226.708 0.583007 1.96013 0
M  V30 2459 H 224.863 -1.20723 3.6811 0
M  V30 2460 H 225.277 0.372601 5.23175 0
M  V30 2461 H 226.751 -1.33302 5.35663 0
M  V30 2462 H 227.228 -2.11296 3.85033 0
M  V30 2463 H 227.834 -0.483373 4.22544 0
M  V30 2464 N 226.149 -1.5696 0.141893 0
M  V30 2465 C 227.096 -2.16501 -0.799737 0
M  V30 2466 C 228.066 -1.09643 -1.24771 0
M  V30 2467 O 229.251 -1.3766 -1.32115 0
M  V30 2468 C 226.391 -2.78679 -2.03549 0
M  V30 2469 C 225.504 -3.99914 -1.6338 0
M  V30 2470 C 224.639 -4.50106 -2.82096 0
M  V30 2471 C 223.678 -5.63819 -2.38275 0
M  V30 2472 N 222.815 -6.08651 -3.49983 0
M  V30 2473 H 227.655 -2.96632 -0.285179 0
M  V30 2474 H 225.192 -1.46533 -0.129053 0
M  V30 2475 H 227.15 -3.1287 -2.75986 0
M  V30 2476 H 225.78 -2.012 -2.52425 0
M  V30 2477 H 224.832 -3.71735 -0.807279 0
M  V30 2478 H 226.144 -4.82311 -1.27192 0
M  V30 2479 H 225.298 -4.86325 -3.62729 0
M  V30 2480 H 224.037 -3.66706 -3.21525 0
M  V30 2481 H 223.042 -5.2718 -1.56081 0
M  V30 2482 H 224.267 -6.49 -1.99938 0
M  V30 2483 H 222.213 -5.28188 -3.89042 0
M  V30 2484 H 222.13 -6.85961 -3.17794 0
M  V30 2485 H 223.398 -6.49515 -4.30988 0
M  V30 2486 N 227.627 0.131896 -1.57047 0
M  V30 2487 C 228.574 1.16236 -1.99393 0
M  V30 2488 C 229.544 1.41863 -0.863943 0
M  V30 2489 O 230.729 1.53946 -1.12718 0
M  V30 2490 C 227.869 2.48708 -2.39245 0
M  V30 2491 C 226.982 2.30127 -3.65603 0
M  V30 2492 C 226.117 3.55738 -3.94492 0
M  V30 2493 C 225.156 3.32259 -5.14073 0
M  V30 2494 N 224.293 4.50039 -5.38896 0
M  V30 2495 H 229.133 0.794251 -2.87221 0
M  V30 2496 H 226.67 0.380707 -1.42088 0
M  V30 2497 H 228.628 3.25969 -2.60384 0
M  V30 2498 H 227.258 2.83437 -1.54478 0
M  V30 2499 H 226.31 1.43845 -3.52154 0
M  V30 2500 H 227.622 2.08746 -4.5302 0
M  V30 2501 H 226.776 4.41423 -4.1621 0
M  V30 2502 H 225.515 3.80138 -3.05526 0
M  V30 2503 H 224.52 2.44963 -4.92212 0
M  V30 2504 H 225.745 3.09242 -6.04604 0
M  V30 2505 H 223.691 4.74584 -4.52886 0
M  V30 2506 H 223.608 4.31716 -6.2061 0
M  V30 2507 H 224.876 5.36895 -5.65123 0
M  V30 2508 N 229.106 1.52395 0.401703 0
M  V30 2509 C 230.517 1.58899 0.980202 0
M  V30 2510 C 230.868 0.434032 1.91339 0
M  V30 2511 O 229.993 -0.444619 2.11783 0
M  V30 2512 C 230.588 2.87994 1.78451 0
M  V30 2513 C 229.147 2.96953 2.31292 0
M  V30 2514 C 228.294 2.53903 1.11483 0
M  V30 2515 H 231.245 1.57657 0.18168 0
M  V30 2516 H 231.266 2.73765 2.64259 0
M  V30 2517 H 230.778 3.72035 1.10506 0
M  V30 2518 H 228.879 2.17422 3.02586 0
M  V30 2519 H 228.992 4.01344 2.61649 0
M  V30 2520 H 227.356 2.07925 1.47104 0
M  V30 2521 H 228.139 3.40326 0.450928 0
M  V30 2522 N 230.584 -0.659388 1.43143 0
M  V30 2523 C 231.494 -1.80167 1.50256 0
M  V30 2524 C 232.51 -1.69571 0.390106 0
M  V30 2525 O 233.686 -1.90849 0.643319 0
M  V30 2526 C 230.751 -3.16409 1.41725 0
M  V30 2527 C 229.812 -3.38848 2.63591 0
M  V30 2528 C 229.045 -4.68591 2.55458 0
M  V30 2529 O 229.268 -5.47532 1.59891 0
M  V30 2530 O 228.202 -4.92614 3.45854 0
M  V30 2531 H 232.028 -1.77121 2.46702 0
M  V30 2532 H 229.613 -0.817092 1.25076 0
M  V30 2533 H 231.495 -3.9768 1.39387 0
M  V30 2534 H 230.17 -3.20059 0.484118 0
M  V30 2535 H 229.077 -2.57366 2.71502 0
M  V30 2536 H 230.41 -3.4004 3.55856 0
M  V30 2537 N 232.062 -1.29571 -0.897171 0
M  V30 2538 C 233.339 -1.08365 -1.62839 0
M  V30 2539 C 233.719 0.371331 -2.07808 0
M  V30 2540 O 233.067 1.3606 -1.83576 0
M  V30 2541 C 233.277 -2.0735 -2.80726 0
M  V30 2542 C 234.625 -2.38406 -3.51351 0
M  V30 2543 O 235.649 -2.05564 -2.90898 0
M  V30 2544 O 234.508 -2.9453 -4.60341 0
M  V30 2545 H 231.602 -0.415345 -0.715134 0
M  V30 2546 H 234.148 -1.40952 -0.945018 0
M  V30 2547 H 232.92 -3.05339 -2.44711 0
M  V30 2548 H 232.543 -1.75507 -3.56767 0
M  V30 2549 N 233.54 1.10788 -1.12088 0
M  V30 2550 C 234.488 2.19111 -0.780587 0
M  V30 2551 C 235.482 1.67818 0.230961 0
M  V30 2552 O 236.688 1.79777 0.0895427 0
M  V30 2553 H 233.063 0.714477 -0.234578 0
M  V30 2554 H 235.034 2.45055 -1.70266 0
M  V30 2555 C 233.783 3.46818 -0.24747 0
M  V30 2556 H 233.106 3.86646 -1.01712 0
M  V30 2557 H 234.546 4.23973 -0.0476291 0
M  V30 2558 C 233.005 3.20968 1.02378 0
M  V30 2559 O 233.535 3.42298 2.10226 0
M  V30 2560 N 231.741 2.74658 0.949271 0
M  V30 2561 H 231.288 2.57501 0.0715173 0
M  V30 2562 H 231.246 2.57739 1.80049 0
M  V30 2563 N 235.018 0.912232 1.28515 0
M  V30 2564 C 235.968 0.370649 2.24967 0
M  V30 2565 C 236.952 -0.516375 1.52389 0
M  V30 2566 O 238.144 -0.356345 1.73376 0
M  V30 2567 C 235.273 -0.389526 3.41083 0
M  V30 2568 C 234.359 0.51313 4.20984 0
M  V30 2569 N 234.75 1.62604 4.78951 0
M  V30 2570 C 233.048 0.313235 4.44899 0
M  V30 2571 C 233.749 2.18619 5.39055 0
M  V30 2572 N 232.725 1.47765 5.23132 0
M  V30 2573 H 236.527 1.22061 2.67354 0
M  V30 2574 H 234.041 0.764712 1.43269 0
M  V30 2575 H 236.038 -0.794353 4.09262 0
M  V30 2576 H 234.698 -1.2366 3.0023 0
M  V30 2577 H 235.709 2.00864 4.77362 0
M  V30 2578 H 232.386 -0.494452 4.14562 0
M  V30 2579 H 233.776 3.12228 5.94948 0
M  V30 2580 N 236.496 -1.42363 0.676048 0
M  V30 2581 C 237.724 -2.05859 0.207268 0
M  V30 2582 C 238.139 -1.50796 -1.13605 0
M  V30 2583 O 237.496 -0.648265 -1.70598 0
M  V30 2584 C 237.547 -3.61248 0.134975 0
M  V30 2585 O 237.268 -4.1427 1.42521 0
M  V30 2586 C 238.769 -4.41859 -0.357151 0
M  V30 2587 H 235.989 -0.663431 0.100503 0
M  V30 2588 H 238.533 -1.82479 0.923136 0
M  V30 2589 H 236.688 -3.83735 -0.531588 0
M  V30 2590 H 237.102 -5.0815 1.29939 0
M  V30 2591 H 238.576 -5.50847 -0.356641 0
M  V30 2592 H 239.053 -4.16536 -1.39264 0
M  V30 2593 H 239.659 -4.24392 0.27772 0
M  V30 2594 N 237.974 -0.419461 -1.51915 0
M  V30 2595 C 238.906 0.43646 -2.25006 0
M  V30 2596 C 239.919 1.00149 -1.28351 0
M  V30 2597 O 241.108 0.898674 -1.54227 0
M  V30 2598 C 238.208 1.6206 -2.9764 0
M  V30 2599 C 237.381 1.17763 -4.21249 0
M  V30 2600 C 236.44 2.22985 -4.76617 0
M  V30 2601 O 235.466 1.83151 -5.38929 0
M  V30 2602 N 236.668 3.55271 -4.59089 0
M  V30 2603 H 239.433 -0.18989 -2.99098 0
M  V30 2604 H 236.994 -0.247386 -1.59999 0
M  V30 2605 H 238.986 2.32038 -3.31573 0
M  V30 2606 H 237.556 2.15266 -2.2667 0
M  V30 2607 H 236.776 0.305582 -3.93014 0
M  V30 2608 H 238.064 0.858781 -5.015 0
M  V30 2609 H 237.462 3.90377 -4.09417 0
M  V30 2610 H 236.019 4.21195 -4.97432 0
M  V30 2611 N 239.452 1.56882 -0.150215 0
M  V30 2612 C 240.692 1.98119 0.502804 0
M  V30 2613 C 241.056 1.03327 1.61826 0
M  V30 2614 O 242.257 1.33621 2.33236 0
M  V30 2615 C 240.528 3.43329 0.992988 0
M  V30 2616 S 242.087 4.0659 1.65015 0
M  V30 2617 H 238.905 0.692189 0.162467 0
M  V30 2618 H 241.507 1.93988 -0.242689 0
M  V30 2619 H 240.211 4.10046 0.170436 0
M  V30 2620 H 239.742 3.5118 1.77303 0
M  V30 2621 H 241.757 3.99906 2.93752 0
M  V30 2622 N 240.93 -0.123565 1.57115 0
M  V30 2623 C 241.862 -1.17739 1.96648 0
M  V30 2624 C 242.875 -1.37906 0.865201 0
M  V30 2625 O 244.064 -1.37062 1.14351 0
M  V30 2626 C 241.164 -2.53821 2.24562 0
M  V30 2627 C 240.337 -2.54317 3.55867 0
M  V30 2628 C 239.396 -3.72112 3.72047 0
M  V30 2629 O 238.422 -3.55907 4.44206 0
M  V30 2630 N 239.624 -4.90498 3.10471 0
M  V30 2631 H 242.389 -0.841147 2.87654 0
M  V30 2632 H 239.95 -0.31289 1.58848 0
M  V30 2633 H 241.942 -3.31175 2.32606 0
M  V30 2634 H 240.512 -2.79645 1.39705 0
M  V30 2635 H 239.732 -1.62711 3.59053 0
M  V30 2636 H 241.02 -2.51701 4.42181 0
M  V30 2637 H 240.418 -5.06567 2.51806 0
M  V30 2638 H 238.975 -5.65544 3.24043 0
M  V30 2639 N 242.408 -1.52605 -0.393616 0
M  V30 2640 C 243.338 -1.80022 -1.48709 0
M  V30 2641 C 244.319 -0.651995 -1.57108 0
M  V30 2642 O 245.504 -0.89913 -1.72132 0
M  V30 2643 C 242.634 -1.96492 -2.86371 0
M  V30 2644 C 241.588 -3.12161 -2.92813 0
M  V30 2645 C 240.914 -3.13877 -4.3288 0
M  V30 2646 C 242.214 -4.51322 -2.6288 0
M  V30 2647 H 243.908 -2.71589 -1.26015 0
M  V30 2648 H 241.454 -1.30684 -0.604778 0
M  V30 2649 H 243.407 -2.14255 -3.62867 0
M  V30 2650 H 242.131 -1.01611 -3.10391 0
M  V30 2651 H 240.79 -2.94173 -2.18764 0
M  V30 2652 H 240.438 -2.16687 -4.53933 0
M  V30 2653 H 240.138 -3.91576 -4.38112 0
M  V30 2654 H 241.662 -3.33789 -5.1129 0
M  V30 2655 H 243.076 -4.69435 -3.29096 0
M  V30 2656 H 241.473 -5.31053 -2.79468 0
M  V30 2657 H 242.543 -4.58353 -1.58242 0
M  V30 2658 N 243.887 0.651787 -1.4349 0
M  V30 2659 C 245.133 1.41376 -1.45398 0
M  V30 2660 C 245.466 1.94041 -0.0784823 0
M  V30 2661 O 244.741 1.72379 0.900878 0
M  V30 2662 C 245.024 2.59414 -2.49752 0
M  V30 2663 C 244.877 2.12232 -3.96582 0
M  V30 2664 C 246.196 3.61626 -2.50827 0
M  V30 2665 H 243.315 0.512719 -0.529422 0
M  V30 2666 H 245.957 0.738796 -1.75048 0
M  V30 2667 H 244.107 3.16997 -2.246 0
M  V30 2668 H 245.779 1.59639 -4.32797 0
M  V30 2669 H 244.022 1.43592 -4.09346 0
M  V30 2670 H 244.693 2.9712 -4.65214 0
M  V30 2671 H 247.169 3.13805 -2.7325 0
M  V30 2672 H 246.045 4.41766 -3.25783 0
M  V30 2673 H 246.306 4.14314 -1.5426 0
M  V30 2674 N 245.365 1.30045 0.890287 0
M  V30 2675 C 246.776 1.16738 1.45702 0
M  V30 2676 C 247.127 -0.233939 1.948 0
M  V30 2677 O 246.252 -1.13021 1.84541 0
M  V30 2678 C 246.847 2.11313 2.64825 0
M  V30 2679 C 245.406 2.02001 3.17604 0
M  V30 2680 C 244.553 2.01699 1.90296 0
M  V30 2681 H 247.504 1.42392 0.700726 0
M  V30 2682 H 247.525 1.69086 3.40867 0
M  V30 2683 H 247.037 3.13294 2.2906 0
M  V30 2684 H 245.138 1.03142 3.5804 0
M  V30 2685 H 245.251 2.90128 3.81264 0
M  V30 2686 H 243.615 1.46427 2.08402 0
M  V30 2687 H 244.398 3.05402 1.56795 0
M  V30 2688 N 246.843 -1.10192 1.12674 0
M  V30 2689 C 248.089 -1.82475 0.884915 0
M  V30 2690 C 248.422 -1.85093 -0.58773 0
M  V30 2691 O 247.697 -1.3134 -1.43457 0
M  V30 2692 C 247.98 -3.29018 1.46353 0
M  V30 2693 C 247.833 -3.34718 3.00473 0
M  V30 2694 C 249.152 -4.25473 1.12519 0
M  V30 2695 H 246.271 -0.662492 0.322915 0
M  V30 2696 H 248.913 -1.2913 1.39375 0
M  V30 2697 H 247.063 -3.74576 1.03077 0
M  V30 2698 H 248.735 -2.97622 3.52447 0
M  V30 2699 H 246.978 -2.74541 3.35872 0
M  V30 2700 H 247.649 -4.37918 3.36053 0
M  V30 2701 H 250.125 -3.88161 1.499 0
M  V30 2702 H 249.001 -5.26365 1.55663 0
M  V30 2703 H 249.262 -4.42084 0.0377407 0
M  V30 2704 N 248.321 -0.919034 -1.28029 0
M  V30 2705 C 249.567 -0.555757 -1.95036 0
M  V30 2706 C 249.9 0.899198 -1.72128 0
M  V30 2707 O 249.175 1.64023 -1.04531 0
M  V30 2708 C 249.458 -0.872024 -3.49382 0
M  V30 2709 C 249.311 -2.3801 -3.81669 0
M  V30 2710 C 250.63 -0.37185 -4.38526 0
M  V30 2711 H 247.749 -0.203386 -0.708381 0
M  V30 2712 H 250.391 -1.14924 -1.51303 0
M  V30 2713 H 248.541 -0.366946 -3.86763 0
M  V30 2714 H 250.213 -2.9562 -3.54128 0
M  V30 2715 H 248.456 -2.83289 -3.28526 0
M  V30 2716 H 249.127 -2.55192 -4.8947 0
M  V30 2717 H 251.603 -0.804602 -4.08247 0
M  V30 2718 H 250.479 -0.622173 -5.45362 0
M  V30 2719 H 250.74 0.727934 -4.36066 0
M  V30 2720 N 249.799 1.42003 -0.683588 0
M  V30 2721 C 250.709 2.34597 -0.0109075 0
M  V30 2722 C 251.725 1.55576 0.779245 0
M  V30 2723 O 252.901 1.88107 0.719555 0
M  V30 2724 C 249.966 3.34199 0.922588 0
M  V30 2725 C 249.027 4.29115 0.125984 0
M  V30 2726 C 248.26 5.23959 1.01502 0
M  V30 2727 O 248.483 5.23952 2.25456 0
M  V30 2728 O 247.417 6.00053 0.47111 0
M  V30 2729 H 251.243 2.93675 -0.773853 0
M  V30 2730 H 248.828 1.42654 -0.443861 0
M  V30 2731 H 250.71 3.95365 1.45823 0
M  V30 2732 H 249.385 2.77582 1.66523 0
M  V30 2733 H 248.292 3.71335 -0.453969 0
M  V30 2734 H 249.625 4.88798 -0.577736 0
M  V30 2735 N 251.277 0.427512 1.51691 0
M  V30 2736 C 252.526 -0.143679 2.01188 0
M  V30 2737 C 252.839 -1.44642 1.31674 0
M  V30 2738 O 254.045 -2.09997 1.72086 0
M  V30 2739 C 252.501 -0.306602 3.58592 0
M  V30 2740 C 252.109 0.985125 4.37035 0
M  V30 2741 C 253.853 -0.832091 4.16265 0
M  V30 2742 C 251.76 0.788382 5.86122 0
M  V30 2743 H 250.69 -0.0574701 0.751807 0
M  V30 2744 H 253.341 0.555772 1.74881 0
M  V30 2745 H 251.723 -1.06882 3.81303 0
M  V30 2746 H 252.897 1.75492 4.26074 0
M  V30 2747 H 251.212 1.4384 3.90767 0
M  V30 2748 H 253.809 -0.995617 5.25349 0
M  V30 2749 H 254.152 -1.81186 3.74803 0
M  V30 2750 H 254.685 -0.128444 3.97593 0
M  V30 2751 H 251.424 1.74025 6.31978 0
M  V30 2752 H 250.944 0.0582143 5.99772 0
M  V30 2753 H 252.623 0.437722 6.45518 0
M  V30 2754 N 252.755 -1.56801 0.158532 0
M  V30 2755 C 254.003 -1.96102 -0.488712 0
M  V30 2756 C 254.324 -1.04498 -1.64636 0
M  V30 2757 O 253.594 -0.108783 -1.95598 0
M  V30 2758 H 252.174 -0.724102 -0.183535 0
M  V30 2759 H 254.836 -1.93457 0.236728 0
M  V30 2760 H 253.932 -3.00097 -0.857219 0
M  V30 2761 N 254.233 0.115231 -1.57178 0
M  V30 2762 C 255.482 0.820945 -1.84237 0
M  V30 2763 C 255.795 1.80866 -0.744761 0
M  V30 2764 O 257.001 2.56083 -0.901871 0
M  V30 2765 C 255.457 1.51072 -3.26658 0
M  V30 2766 C 255.065 0.563795 -4.44438 0
M  V30 2767 C 256.809 2.20134 -3.62962 0
M  V30 2768 C 254.716 1.25701 -5.77887 0
M  V30 2769 H 253.646 0.310328 -0.687177 0
M  V30 2770 H 256.297 0.0737134 -1.83352 0
M  V30 2771 H 254.679 2.30471 -3.22024 0
M  V30 2772 H 255.853 -0.197247 -4.60378 0
M  V30 2773 H 254.168 -0.0200638 -4.16395 0
M  V30 2774 H 256.765 2.72696 -4.59936 0
M  V30 2775 H 257.108 2.98107 -2.90582 0
M  V30 2776 H 257.641 1.47619 -3.69396 0
M  V30 2777 H 254.38 0.518493 -6.53446 0
M  V30 2778 H 253.9 1.98997 -5.65827 0
M  V30 2779 H 255.579 1.78915 -6.2177 0
M  V30 2780 N 255.711 1.52812 0.385517 0
M  V30 2781 C 256.936 1.72207 1.15583 0
M  V30 2782 C 257.361 0.441034 1.82857 0
M  V30 2783 O 256.719 -0.603465 1.70962 0
M  V30 2784 C 256.767 2.87476 2.17692 0
M  V30 2785 O 255.871 2.54693 3.24354 0
M  V30 2786 H 255.212 0.572526 0.336319 0
M  V30 2787 H 257.742 1.99618 0.448744 0
M  V30 2788 H 257.752 3.13072 2.6163 0
M  V30 2789 H 256.427 3.80408 1.68115 0
M  V30 2790 H 255.004 2.3985 2.85529 0
M  V30 2791 N 257.189 -0.644168 1.43834 0
M  V30 2792 C 258.099 -1.78563 1.52159 0
M  V30 2793 C 259.115 -1.69147 0.408069 0
M  V30 2794 O 260.291 -1.90156 0.663524 0
M  V30 2795 C 257.356 -3.14888 1.45073 0
M  V30 2796 C 256.417 -3.36034 2.6717 0
M  V30 2797 C 255.65 -4.65855 2.60413 0
M  V30 2798 O 255.873 -5.45805 1.65689 0
M  V30 2799 O 254.807 -4.88918 3.5106 0
M  V30 2800 H 258.633 -1.74494 2.48567 0
M  V30 2801 H 256.218 -0.80378 1.25935 0
M  V30 2802 H 258.1 -3.96179 1.43597 0
M  V30 2803 H 256.775 -3.19528 0.518037 0
M  V30 2804 H 255.682 -2.54472 2.74217 0
M  V30 2805 H 257.015 -3.36247 3.59442 0
M  V30 2806 N 258.668 -1.30515 -0.883378 0
M  V30 2807 C 260.084 -1.08881 -1.16692 0
M  V30 2808 C 260.284 0.149409 -2.00945 0
M  V30 2809 O 259.34 0.84257 -2.38027 0
M  V30 2810 C 260.653 -2.35319 -1.87204 0
M  V30 2811 C 262.201 -2.40799 -1.99962 0
M  V30 2812 C 262.676 -3.67083 -2.73887 0
M  V30 2813 N 264.167 -3.679 -2.81432 0
M  V30 2814 C 264.902 -4.62303 -3.3921 0
M  V30 2815 N 264.398 -5.67052 -3.98025 0
M  V30 2816 N 266.191 -4.49845 -3.3704 0
M  V30 2817 H 258.342 -2.09951 -0.321633 0
M  V30 2818 H 260.605 -0.92556 -0.205043 0
M  V30 2819 H 260.311 -3.25689 -1.3274 0
M  V30 2820 H 260.185 -2.44089 -2.87577 0
M  V30 2821 H 262.572 -1.50907 -2.53597 0
M  V30 2822 H 262.653 -2.36003 -0.98673 0
M  V30 2823 H 262.297 -4.57334 -2.20925 0
M  V30 2824 H 262.227 -3.69141 -3.75556 0
M  V30 2825 H 264.718 -2.92171 -2.39676 0
M  V30 2826 H 265.031 -6.35184 -4.40183 0
M  V30 2827 H 263.376 -5.70842 -3.96439 0
M  V30 2828 H 266.567 -3.67194 -2.90321 0
M  V30 2829 H 266.74 -5.23597 -3.81772 0
M  V30 2830 N 260.146 1.09593 -1.13257 0
M  V30 2831 C 261.078 2.16015 -0.766167 0
M  V30 2832 C 262.091 1.61423 0.211303 0
M  V30 2833 O 263.28 1.78498 -0.00863946 0
M  V30 2834 C 260.38 3.38706 -0.114662 0
M  V30 2835 C 259.553 4.22717 -1.12379 0
M  V30 2836 C 258.612 5.23835 -0.498301 0
M  V30 2837 O 257.638 5.573 -1.15781 0
M  V30 2838 N 258.84 5.75886 0.730417 0
M  V30 2839 H 261.605 2.48055 -1.68193 0
M  V30 2840 H 259.166 1.25292 -1.02535 0
M  V30 2841 H 261.158 4.03464 0.315991 0
M  V30 2842 H 259.728 3.04569 0.704011 0
M  V30 2843 H 258.948 3.54122 -1.73179 0
M  V30 2844 H 260.236 4.75673 -1.80589 0
M  V30 2845 H 259.634 5.50911 1.28504 0
M  V30 2846 H 258.191 6.42387 1.10376 0
M  V30 2847 N 261.624 0.925811 1.2754 0
M  V30 2848 C 262.572 0.413897 2.28888 0
M  V30 2849 C 263.566 -0.500779 1.61829 0
M  V30 2850 O 264.772 -0.38069 1.75928 0
M  V30 2851 H 261.147 0.115274 0.743112 0
M  V30 2852 H 263.118 1.28151 2.69481 0
M  V30 2853 C 261.867 -0.319792 3.46226 0
M  V30 2854 H 261.19 0.374846 3.98039 0
M  V30 2855 H 262.63 -0.642435 4.19105 0
M  V30 2856 C 261.089 -1.53209 3.00048 0
M  V30 2857 O 261.619 -2.6309 3.03557 0
M  V30 2858 N 259.825 -1.38326 2.55566 0
M  V30 2859 H 259.372 -0.489292 2.5291 0
M  V30 2860 H 259.33 -2.19564 2.25031 0
M  V30 2861 N 263.102 -1.41638 0.69111 0
M  V30 2862 C 264.065 -2.29178 0.0319786 0
M  V30 2863 C 265.065 -1.44153 -0.712496 0
M  V30 2864 O 266.255 -1.65354 -0.548053 0
M  V30 2865 C 263.387 -3.26952 -0.965161 0
M  V30 2866 H 264.58 -2.88959 0.802681 0
M  V30 2867 H 262.133 -1.4955 0.454356 0
M  V30 2868 H 262.868 -2.72142 -1.76378 0
M  V30 2869 H 262.653 -3.89685 -0.434522 0
M  V30 2870 H 264.143 -3.92561 -1.42428 0
M  V30 2871 N 264.58 -0.43555 -1.51462 0
M  V30 2872 C 265.49 0.383001 -2.31453 0
M  V30 2873 C 266.506 1.02931 -1.4029 0
M  V30 2874 O 267.682 1.02507 -1.73362 0
M  V30 2875 C 264.747 1.47043 -3.13973 0
M  V30 2876 C 263.808 0.844433 -4.20913 0
M  V30 2877 C 263.041 1.88004 -4.9949 0
M  V30 2878 O 263.264 3.10199 -4.78678 0
M  V30 2879 O 262.198 1.47157 -5.83634 0
M  V30 2880 H 266.024 -0.269964 -3.02498 0
M  V30 2881 H 263.609 -0.19813 -1.4808 0
M  V30 2882 H 265.491 2.10113 -3.65281 0
M  V30 2883 H 264.166 2.10751 -2.45695 0
M  V30 2884 H 263.073 0.175729 -3.73687 0
M  V30 2885 H 264.406 0.250869 -4.9156 0
M  V30 2886 N 266.058 1.56714 -0.166846 0
M  V30 2887 C 266.99 2.14914 0.796537 0
M  V30 2888 C 268.003 1.10357 1.19688 0
M  V30 2889 O 269.192 1.37561 1.13751 0
M  V30 2890 C 266.292 2.67326 2.08303 0
M  V30 2891 C 265.465 3.96493 1.84696 0
M  V30 2892 C 264.524 4.34014 2.97521 0
M  V30 2893 O 263.55 5.01973 2.6835 0
M  V30 2894 N 264.752 3.95208 4.25196 0
M  V30 2895 H 267.517 2.98205 0.299006 0
M  V30 2896 H 265.078 1.61892 0.0160839 0
M  V30 2897 H 267.07 2.89428 2.82867 0
M  V30 2898 H 265.64 1.88649 2.4926 0
M  V30 2899 H 264.86 3.82814 0.940602 0
M  V30 2900 H 266.148 4.8086 1.66285 0
M  V30 2901 H 265.546 3.40487 4.51758 0
M  V30 2902 H 264.103 4.2232 4.96477 0
M  V30 2903 N 267.536 -0.106894 1.57237 0
M  V30 2904 C 268.486 -1.1366 1.9765 0
M  V30 2905 C 269.47 -1.36416 0.853203 0
M  V30 2906 O 270.662 -1.37305 1.11697 0
M  V30 2907 C 267.791 -2.46 2.39455 0
M  V30 2908 C 266.877 -2.26668 3.58445 0
M  V30 2909 N 267.268 -1.77176 4.73754 0
M  V30 2910 C 265.566 -2.57279 3.64312 0
M  V30 2911 C 266.267 -1.71836 5.5574 0
M  V30 2912 N 265.243 -2.16623 4.98573 0
M  V30 2913 H 269.045 -0.74669 2.84256 0
M  V30 2914 H 266.559 -0.314483 1.59326 0
M  V30 2915 H 268.556 -3.2049 2.6663 0
M  V30 2916 H 267.216 -2.85738 1.54219 0
M  V30 2917 H 268.227 -1.46545 4.96734 0
M  V30 2918 H 264.904 -3.00622 2.89711 0
M  V30 2919 H 266.294 -1.34723 6.58255 0
M  V30 2920 N 269.014 -1.53014 -0.377408 0
M  V30 2921 C 270.26 -1.68872 -1.12294 0
M  V30 2922 C 270.593 -0.433224 -1.89306 0
M  V30 2923 O 269.868 0.569258 -1.85983 0
M  V30 2924 C 270.151 -2.93115 -2.09179 0
M  V30 2925 C 270.004 -4.28794 -1.35853 0
M  V30 2926 C 271.323 -3.12928 -3.09458 0
M  V30 2927 H 268.442 -0.614518 -0.406862 0
M  V30 2928 H 271.084 -1.85633 -0.40503 0
M  V30 2929 H 269.234 -2.78956 -2.70399 0
M  V30 2930 H 270.906 -4.54742 -0.775082 0
M  V30 2931 H 269.149 -4.28744 -0.660364 0
M  V30 2932 H 269.82 -5.11837 -2.06706 0
M  V30 2933 H 272.296 -3.26194 -2.58334 0
M  V30 2934 H 271.172 -4.01316 -3.74482 0
M  V30 2935 H 271.433 -2.27669 -3.78971 0
M  V30 2936 N 270.492 0.636531 -1.44174 0
M  V30 2937 C 271.72 1.42353 -1.50144 0
M  V30 2938 C 272.135 1.88389 -0.124575 0
M  V30 2939 O 271.492 1.6051 0.868489 0
M  V30 2940 C 271.543 2.64744 -2.46156 0
M  V30 2941 O 271.264 2.20629 -3.7849 0
M  V30 2942 C 272.765 3.57929 -2.61537 0
M  V30 2943 H 269.985 0.436752 -0.5094 0
M  V30 2944 H 272.529 0.778933 -1.89084 0
M  V30 2945 H 270.684 3.25307 -2.10366 0
M  V30 2946 H 271.098 2.99938 -4.30276 0
M  V30 2947 H 272.572 4.40428 -3.32757 0
M  V30 2948 H 273.049 4.06382 -1.66585 0
M  V30 2949 H 273.655 3.03238 -2.98206 0
M  V30 2950 N 271.97 1.30982 0.876444 0
M  V30 2951 C 272.902 1.13902 1.98894 0
M  V30 2952 C 273.915 0.0798815 1.62604 0
M  V30 2953 O 275.104 0.326743 1.75484 0
M  V30 2954 C 272.204 0.716699 3.31235 0
M  V30 2955 C 271.377 1.85945 3.95908 0
M  V30 2956 C 270.436 1.42426 5.06558 0
M  V30 2957 O 269.462 2.13287 5.27729 0
M  V30 2958 N 270.664 0.308025 5.79682 0
M  V30 2959 H 273.429 2.09724 2.14094 0
M  V30 2960 H 270.99 1.2323 1.05004 0
M  V30 2961 H 272.982 0.408403 4.02634 0
M  V30 2962 H 271.552 -0.149719 3.12241 0
M  V30 2963 H 270.772 2.33541 3.17573 0
M  V30 2964 H 272.06 2.62503 4.35855 0
M  V30 2965 H 271.458 -0.282241 5.64995 0
M  V30 2966 H 270.015 0.0592282 6.51773 0
M  V30 2967 N 273.449 -1.08991 1.13837 0
M  V30 2968 C 274.379 -2.17771 0.842507 0
M  V30 2969 C 275.36 -1.6892 -0.20001 0
M  V30 2970 O 276.545 -1.94113 -0.0579731 0
M  V30 2971 C 273.675 -3.4589 0.312644 0
M  V30 2972 C 272.629 -4.08099 1.28992 0
M  V30 2973 C 271.955 -5.31098 0.619623 0
M  V30 2974 C 273.255 -4.50077 2.65005 0
M  V30 2975 H 274.949 -2.42777 1.75213 0
M  V30 2976 H 272.495 -1.16682 0.843875 0
M  V30 2977 H 274.448 -4.21297 0.0933043 0
M  V30 2978 H 273.172 -3.20419 -0.632382 0
M  V30 2979 H 271.831 -3.34717 1.49533 0
M  V30 2980 H 271.479 -5.0191 -0.33102 0
M  V30 2981 H 271.179 -5.73674 1.27167 0
M  V30 2982 H 272.703 -6.09224 0.409669 0
M  V30 2983 H 274.117 -5.16688 2.48407 0
M  V30 2984 H 272.514 -5.03553 3.26427 0
M  V30 2985 H 273.584 -3.62257 3.22332 0
M  V30 2986 N 274.927 -0.932562 -1.27047 0
M  V30 2987 C 275.86 -0.379774 -2.25018 0
M  V30 2988 C 276.838 0.526587 -1.53837 0
M  V30 2989 O 278.022 0.465992 -1.82649 0
M  V30 2990 C 275.149 0.455187 -3.35627 0
M  V30 2991 C 274.195 -0.388428 -4.24728 0
M  V30 2992 S 275.028 -1.80701 -5.04091 0
M  V30 2993 C 276.184 -0.979865 -6.18182 0
M  V30 2994 H 276.417 -1.2101 -2.71558 0
M  V30 2995 H 273.95 -0.735078 -1.35779 0
M  V30 2996 H 275.908 0.931052 -3.99802 0
M  V30 2997 H 274.569 1.26009 -2.87716 0
M  V30 2998 H 273.762 0.25089 -5.03375 0
M  V30 2999 H 273.364 -0.798649 -3.65373 0
M  V30 3000 H 275.656 -0.218115 -6.77149 0
M  V30 3001 H 276.599 -1.73951 -6.86401 0
M  V30 3002 H 277.007 -0.51973 -5.62102 0
M  V30 3003 N 276.405 1.4127 -0.698611 0
M  V30 3004 C 277.63 2.06024 -0.238512 0
M  V30 3005 C 278.055 1.5224 1.10475 0
M  V30 3006 O 277.413 0.650623 1.69223 0
M  V30 3007 C 277.461 3.59988 -0.209952 0
M  V30 3008 O 276.565 4.04282 0.814235 0
M  V30 3009 H 275.906 0.653829 -0.115775 0
M  V30 3010 H 278.436 1.8098 -0.954326 0
M  V30 3011 H 278.446 4.07979 -0.0418436 0
M  V30 3012 H 277.121 3.98503 -1.1903 0
M  V30 3013 H 275.698 3.6779 0.615234 0
M  V30 3014 N 277.883 0.443576 1.51229 0
M  V30 3015 C 279.111 -0.11929 2.06556 0
M  V30 3016 C 279.526 -1.35921 1.31038 0
M  V30 3017 O 278.883 -1.78675 0.371704 0
M  V30 3018 C 278.934 -0.435228 3.5887 0
M  V30 3019 O 278.655 0.755486 4.31537 0
M  V30 3020 C 280.156 -1.04808 4.30732 0
M  V30 3021 H 277.376 -0.0051584 0.67098 0
M  V30 3022 H 279.92 0.624453 1.94733 0
M  V30 3023 H 278.075 -1.12887 3.70588 0
M  V30 3024 H 278.489 0.483491 5.22267 0
M  V30 3025 H 279.963 -1.2191 5.3837 0
M  V30 3026 H 280.44 -2.03081 3.89429 0
M  V30 3027 H 281.046 -0.393637 4.23474 0
M  V30 3028 N 279.361 -1.56624 0.175154 0
M  V30 3029 C 280.271 -2.21741 -0.766042 0
M  V30 3030 C 281.287 -1.21023 -1.25018 0
M  V30 3031 O 282.463 -1.53697 -1.3015 0
M  V30 3032 C 279.528 -2.84839 -1.97655 0
M  V30 3033 C 278.589 -4.00769 -1.53892 0
M  V30 3034 C 277.822 -4.60849 -2.69173 0
M  V30 3035 O 278.045 -4.19823 -3.86141 0
M  V30 3036 O 276.979 -5.50655 -2.43028 0
M  V30 3037 H 280.805 -3.02738 -0.241585 0
M  V30 3038 H 278.39 -1.49305 -0.053222 0
M  V30 3039 H 280.272 -3.24834 -2.68442 0
M  V30 3040 H 278.947 -2.06836 -2.48999 0
M  V30 3041 H 277.854 -3.65436 -0.80044 0
M  V30 3042 H 279.187 -4.80376 -1.07236 0
M  V30 3043 N 280.839 0.0985539 -1.57292 0
M  V30 3044 C 282.25 0.653457 -1.74891 0
M  V30 3045 C 282.601 1.7929 -0.796838 0
M  V30 3046 O 281.726 2.16385 0.0254886 0
M  V30 3047 C 282.321 1.19216 -3.17133 0
M  V30 3048 C 280.88 1.69316 -3.36168 0
M  V30 3049 C 280.027 0.601294 -2.70702 0
M  V30 3050 H 282.978 -0.127497 -1.58187 0
M  V30 3051 H 282.999 2.06154 -3.19814 0
M  V30 3052 H 282.511 0.362635 -3.86402 0
M  V30 3053 H 280.612 2.5468 -2.71972 0
M  V30 3054 H 280.725 1.78853 -4.44464 0
M  V30 3055 H 279.089 1.0399 -2.32504 0
M  V30 3056 H 279.872 -0.217592 -3.4261 0
M  V30 3057 N 282.317 1.53212 0.369288 0
M  V30 3058 C 283.247 1.82365 1.45826 0
M  V30 3059 C 284.228 0.676907 1.56051 0
M  V30 3060 O 285.413 0.926401 1.70679 0
M  V30 3061 C 282.543 2.01023 2.83208 0
M  V30 3062 C 281.497 3.1678 2.8781 0
M  V30 3063 C 280.823 3.20724 4.27832 0
M  V30 3064 C 282.123 4.55447 2.55667 0
M  V30 3065 H 283.817 2.73559 1.21678 0
M  V30 3066 H 281.363 1.3163 0.583911 0
M  V30 3067 H 283.316 2.20001 3.59413 0
M  V30 3068 H 282.04 1.06536 3.08736 0
M  V30 3069 H 280.699 2.97616 2.14056 0
M  V30 3070 H 280.347 2.23882 4.50429 0
M  V30 3071 H 280.047 3.98496 4.31827 0
M  V30 3072 H 281.571 3.41881 5.05915 0
M  V30 3073 H 282.985 4.74611 3.21586 0
M  V30 3074 H 281.382 5.35432 2.70984 0
M  V30 3075 H 282.452 4.60812 1.5093 0
M  V30 3076 N 283.795 -0.628877 1.44509 0
M  V30 3077 C 285.206 -1.21054 1.42137 0
M  V30 3078 C 285.557 -1.95715 0.137881 0
M  V30 3079 O 284.682 -2.02554 -0.761645 0
M  V30 3080 C 285.277 -2.20189 2.57493 0
M  V30 3081 C 283.836 -2.73777 2.58308 0
M  V30 3082 C 282.983 -1.48813 2.33987 0
M  V30 3083 H 285.934 -0.41942 1.53057 0
M  V30 3084 H 285.955 -3.02833 2.30375 0
M  V30 3085 H 285.467 -1.6582 3.50892 0
M  V30 3086 H 283.568 -3.32142 1.68856 0
M  V30 3087 H 283.681 -3.19662 3.56865 0
M  V30 3088 H 282.045 -1.77024 1.83124 0
M  V30 3089 H 282.828 -0.963442 3.29504 0
M  V30 3090 N 285.273 -1.31445 -0.869486 0
M  V30 3091 C 286.689 -1.10113 -1.15531 0
M  V30 3092 C 286.889 0.128087 -2.01092 0
M  V30 3093 O 285.945 0.817276 -2.38908 0
M  V30 3094 C 287.258 -2.37291 -1.84698 0
M  V30 3095 C 288.806 -2.42906 -1.97397 0
M  V30 3096 C 289.281 -3.69967 -2.69979 0
M  V30 3097 N 290.772 -3.70864 -2.77514 0
M  V30 3098 C 291.507 -4.65875 -3.34287 0
M  V30 3099 N 291.003 -5.71242 -3.91988 0
M  V30 3100 N 292.796 -4.53394 -3.3225 0
M  V30 3101 H 284.947 -2.1028 -0.299347 0
M  V30 3102 H 287.21 -0.927683 -0.195214 0
M  V30 3103 H 286.916 -3.27078 -1.29278 0
M  V30 3104 H 286.79 -2.47125 -2.84972 0
M  V30 3105 H 289.177 -1.53588 -2.51982 0
M  V30 3106 H 289.258 -2.37036 -0.961643 0
M  V30 3107 H 288.902 -4.59652 -2.16062 0
M  V30 3108 H 288.832 -3.73103 -3.7162 0
M  V30 3109 H 291.323 -2.94697 -2.36563 0
M  V30 3110 H 291.636 -6.39817 -4.33421 0
M  V30 3111 H 289.981 -5.75015 -3.90362 0
M  V30 3112 H 293.172 -3.70252 -2.8641 0
M  V30 3113 H 293.345 -5.27617 -3.76197 0
M  V30 3114 N 286.751 1.08385 -1.14413 0
M  V30 3115 C 287.979 1.84517 -0.936001 0
M  V30 3116 C 288.394 1.81626 0.515503 0
M  V30 3117 O 287.751 1.22008 1.35721 0
M  V30 3118 C 287.802 3.32049 -1.42918 0
M  V30 3119 O 287.523 3.34951 -2.82381 0
M  V30 3120 C 289.024 4.24986 -1.26103 0
M  V30 3121 H 286.244 0.582491 -0.333084 0
M  V30 3122 H 288.788 1.36885 -1.5193 0
M  V30 3123 H 286.943 3.7707 -0.888641 0
M  V30 3124 H 287.357 4.27048 -3.04517 0
M  V30 3125 H 288.831 5.26615 -1.6547 0
M  V30 3126 H 289.308 4.38726 -0.20392 0
M  V30 3127 H 289.914 3.85791 -1.79012 0
M  V30 3128 N 288.23 0.939286 1.26551 0
M  V30 3129 C 289.16 0.465044 2.28822 0
M  V30 3130 C 290.141 -0.480692 1.63167 0
M  V30 3131 O 291.326 -0.382955 1.90387 0
M  V30 3132 C 288.456 -0.27234 3.46231 0
M  V30 3133 C 287.41 0.58666 4.2396 0
M  V30 3134 C 286.736 -0.280573 5.33963 0
M  V30 3135 C 288.036 1.85704 4.88171 0
M  V30 3136 H 289.73 1.31979 2.68741 0
M  V30 3137 H 287.276 0.636061 1.29191 0
M  V30 3138 H 289.229 -0.615133 4.16886 0
M  V30 3139 H 287.953 -1.16121 3.0526 0
M  V30 3140 H 286.612 0.91232 3.55067 0
M  V30 3141 H 286.26 -1.16874 4.89234 0
M  V30 3142 H 285.96 0.29076 5.8688 0
M  V30 3143 H 287.484 -0.618678 6.07458 0
M  V30 3144 H 288.898 1.58161 5.51052 0
M  V30 3145 H 287.295 2.37279 5.51197 0
M  V30 3146 H 288.365 2.56957 4.11219 0
M  V30 3147 N 289.708 -1.40897 0.706093 0
M  V30 3148 C 290.933 -2.05895 0.249435 0
M  V30 3149 C 291.358 -1.52823 -1.09666 0
M  V30 3150 O 290.716 -0.659589 -1.68876 0
M  V30 3151 C 290.764 -3.59872 0.22904 0
M  V30 3152 O 289.868 -4.04708 -0.792784 0
M  V30 3153 H 289.209 -0.653206 0.119241 0
M  V30 3154 H 291.739 -1.80471 0.96391 0
M  V30 3155 H 291.749 -4.07951 0.0634791 0
M  V30 3156 H 290.424 -3.97866 1.21141 0
M  V30 3157 H 289.001 -3.68111 -0.59572 0
M  V30 3158 N 291.186 -0.45159 -1.50991 0
M  V30 3159 C 292.597 0.00818571 -1.86698 0
M  V30 3160 C 292.948 1.40661 -1.3678 0
M  V30 3161 O 292.073 2.0391 -0.724546 0
M  V30 3162 C 292.668 0.0216303 -3.38793 0
M  V30 3163 C 291.227 0.425865 -3.73983 0
M  V30 3164 C 290.374 -0.372163 -2.74791 0
M  V30 3165 H 293.325 -0.666785 -1.44013 0
M  V30 3166 H 293.346 0.828078 -3.7138 0
M  V30 3167 H 292.858 -0.996288 -3.75094 0
M  V30 3168 H 290.959 1.44886 -3.43277 0
M  V30 3169 H 291.072 0.140761 -4.78893 0
M  V30 3170 H 289.436 0.171498 -2.54122 0
M  V30 3171 H 290.219 -1.38922 -3.13935 0
M  V30 3172 N 292.664 1.56529 -0.183458 0
M  V30 3173 C 293.892 2.01623 0.464285 0
M  V30 3174 C 294.307 1.06366 1.55986 0
M  V30 3175 O 293.664 0.0665398 1.82379 0
M  V30 3176 C 293.715 3.46475 1.03139 0
M  V30 3177 O 293.436 4.38095 -0.0204675 0
M  V30 3178 C 294.937 4.0703 1.75617 0
M  V30 3179 H 292.157 0.660596 0.117704 0
M  V30 3180 H 294.701 2.02451 -0.288751 0
M  V30 3181 H 292.856 3.46383 1.73486 0
M  V30 3182 H 293.27 5.22973 0.399952 0
M  V30 3183 H 294.744 5.10271 2.10542 0
M  V30 3184 H 295.221 3.49819 2.65563 0
M  V30 3185 H 295.827 4.1086 1.09882 0
M  V30 3186 N 294.142 -0.090211 1.57342 0
M  V30 3187 C 295.553 -0.644173 1.75235 0
M  V30 3188 C 295.904 -1.78865 0.806335 0
M  V30 3189 O 295.029 -2.16395 -0.0140128 0
M  V30 3190 C 295.624 -1.17532 3.1776 0
M  V30 3191 C 294.183 -1.67531 3.37061 0
M  V30 3192 C 293.33 -0.58693 2.71017 0
M  V30 3193 H 296.281 0.135884 1.58117 0
M  V30 3194 H 296.302 -2.04455 3.20902 0
M  V30 3195 H 295.814 -0.342138 3.86589 0
M  V30 3196 H 293.915 -2.53234 2.73319 0
M  V30 3197 H 294.028 -1.76493 4.45406 0
M  V30 3198 H 292.392 -1.02756 2.33052 0
M  V30 3199 H 293.175 0.235758 3.4249 0
M  V30 3200 N 295.62 -1.53406 -0.361157 0
M  V30 3201 C 296.583 -1.79479 -1.42548 0
M  V30 3202 C 297.583 -0.665327 -1.4639 0
M  V30 3203 O 298.773 -0.933549 -1.47073 0
M  V30 3204 C 295.905 -1.92087 -2.8163 0
M  V30 3205 H 297.098 -2.74538 -1.20701 0
M  V30 3206 H 294.651 -1.4455 -0.594546 0
M  V30 3207 H 295.386 -0.991099 -3.08784 0
M  V30 3208 H 295.171 -2.74241 -2.80239 0
M  V30 3209 H 296.661 -2.13836 -3.58697 0
M  V30 3210 N 297.098 0.621204 -1.44841 0
M  V30 3211 C 298.323 1.41244 -1.51871 0
M  V30 3212 C 298.748 1.87519 -0.147764 0
M  V30 3213 O 298.106 1.59334 0.865 0
M  V30 3214 C 298.154 2.60221 -2.49634 0
M  V30 3215 O 297.258 3.60395 -2.00473 0
M  V30 3216 H 296.599 0.42223 -0.512463 0
M  V30 3217 H 299.129 0.757305 -1.90069 0
M  V30 3218 H 299.139 3.0764 -2.67996 0
M  V30 3219 H 297.814 2.25887 -3.4921 0
M  V30 3220 H 296.391 3.19717 -1.91925 0
M  V30 3221 N 298.576 1.31904 0.862503 0
M  V30 3222 C 299.539 1.20131 1.95195 0
M  V30 3223 C 300.539 0.126409 1.60302 0
M  V30 3224 O 301.729 0.376234 1.70089 0
M  V30 3225 C 298.861 0.845691 3.30244 0
M  V30 3226 H 300.054 2.16943 2.07064 0
M  V30 3227 H 297.607 1.15622 1.05172 0
M  V30 3228 H 298.342 -0.120957 3.24074 0
M  V30 3229 H 298.127 1.62276 3.56944 0
M  V30 3230 H 299.617 0.787418 4.10109 0
M  V30 3231 N 300.054 -1.07777 1.14986 0
M  V30 3232 C 301.282 -1.84018 0.945773 0
M  V30 3233 C 301.697 -1.81897 -0.505863 0
M  V30 3234 O 301.054 -1.22726 -1.35072 0
M  V30 3235 C 301.105 -3.31287 1.44677 0
M  V30 3236 O 300.826 -3.33449 2.84154 0
M  V30 3237 C 302.327 -4.24311 1.28355 0
M  V30 3238 H 299.547 -0.580716 0.336169 0
M  V30 3239 H 302.091 -1.36077 1.52654 0
M  V30 3240 H 300.246 -3.76594 0.908625 0
M  V30 3241 H 300.66 -4.25427 3.06777 0
M  V30 3242 H 302.134 -5.2573 1.68261 0
M  V30 3243 H 302.611 -4.38612 0.227184 0
M  V30 3244 H 303.217 -3.84836 1.81056 0
M  V30 3245 N 301.532 -0.945985 -1.26051 0
M  V30 3246 C 302.495 -0.463897 -2.24456 0
M  V30 3247 C 303.495 0.427655 -1.55009 0
M  V30 3248 O 304.685 0.226157 -1.72726 0
M  V30 3249 C 301.817 0.330812 -3.39291 0
M  V30 3250 H 303.01 -1.33357 -2.68619 0
M  V30 3251 H 300.563 -0.728416 -1.38289 0
M  V30 3252 H 301.298 1.21852 -3.00537 0
M  V30 3253 H 301.083 -0.308679 -3.90883 0
M  V30 3254 H 302.573 0.657865 -4.12386 0
M  V30 3255 N 303.011 1.40521 -0.713556 0
M  V30 3256 C 304.422 1.83853 -0.324807 0
M  V30 3257 C 304.773 1.59667 1.14021 0
M  V30 3258 O 303.898 1.07649 1.87725 0
M  V30 3259 C 304.493 3.33751 -0.582746 0
M  V30 3260 C 303.052 3.75584 -0.247727 0
M  V30 3261 C 302.199 2.63753 -0.856121 0
M  V30 3262 H 305.15 1.29817 -0.91286 0
M  V30 3263 H 305.171 3.80194 0.152682 0
M  V30 3264 H 304.683 3.51322 -1.64908 0
M  V30 3265 H 302.784 3.63608 0.813624 0
M  V30 3266 H 302.897 4.7373 -0.715307 0
M  V30 3267 H 301.261 2.53108 -0.28432 0
M  V30 3268 H 302.044 2.84137 -1.92668 0
M  V30 3269 N 304.489 0.459591 1.5075 0
M  V30 3270 C 305.717 -0.0973749 2.06671 0
M  V30 3271 C 306.132 -1.34524 1.32472 0
M  V30 3272 O 305.489 -1.7827 0.390634 0
M  V30 3273 C 305.54 -0.39714 3.59312 0
M  V30 3274 O 305.261 0.801214 4.30711 0
M  V30 3275 C 306.762 -1.00234 4.31819 0
M  V30 3276 H 303.982 0.00195854 0.670997 0
M  V30 3277 H 306.526 0.645072 1.94059 0
M  V30 3278 H 304.681 -1.08951 3.71764 0
M  V30 3279 H 305.095 0.538857 5.21725 0
M  V30 3280 H 306.569 -1.16193 5.39632 0
M  V30 3281 H 307.046 -1.98939 3.91561 0
M  V30 3282 H 307.652 -0.348699 4.23868 0
M  V30 3283 N 305.967 -1.56429 0.191757 0
M  V30 3284 C 307.192 -2.02309 -0.456706 0
M  V30 3285 C 307.617 -1.07103 -1.5463 0
M  V30 3286 O 306.975 -0.0539677 -1.8122 0
M  V30 3287 C 307.023 -3.46654 -0.993159 0
M  V30 3288 O 306.127 -3.54559 -2.10622 0
M  V30 3289 H 305.468 -0.655303 -0.107114 0
M  V30 3290 H 307.998 -2.02364 0.301653 0
M  V30 3291 H 308.008 -3.86377 -1.31061 0
M  V30 3292 H 306.683 -4.1544 -0.195504 0
M  V30 3293 H 305.26 -3.26708 -1.79767 0
M  V30 3294 N 307.445 0.0818655 -1.57387 0
M  V30 3295 C 308.377 1.12484 -1.997 0
M  V30 3296 C 309.39 1.35564 -0.90146 0
M  V30 3297 O 310.579 1.33982 -1.17945 0
M  V30 3298 C 307.679 2.47778 -2.31213 0
M  V30 3299 C 306.852 2.44793 -3.62485 0
M  V30 3300 C 305.911 3.62117 -3.81782 0
M  V30 3301 O 304.937 3.44005 -4.53486 0
M  V30 3302 N 306.139 4.82094 -3.23367 0
M  V30 3303 H 308.904 0.764585 -2.89783 0
M  V30 3304 H 306.465 0.270664 -1.59621 0
M  V30 3305 H 308.457 3.24891 -2.41304 0
M  V30 3306 H 307.027 2.75843 -1.4707 0
M  V30 3307 H 306.247 1.53134 -3.6324 0
M  V30 3308 H 307.535 2.39889 -4.48699 0
M  V30 3309 H 306.933 4.99713 -2.65148 0
M  V30 3310 H 305.49 5.56753 -3.38923 0
M  V30 3311 N 308.923 1.53595 0.353017 0
M  V30 3312 C 310.171 1.70049 1.09215 0
M  V30 3313 C 310.492 0.461406 1.89463 0
M  V30 3314 O 309.762 -0.524633 1.88744 0
M  V30 3315 H 308.342 0.626912 0.40619 0
M  V30 3316 H 311.004 1.90822 0.396585 0
M  V30 3317 H 310.1 2.56718 1.77488 0
M  V30 3318 N 310.401 -0.613514 1.45168 0
M  V30 3319 C 311.65 -1.36874 1.4815 0
M  V30 3320 C 311.963 -1.952 0.124982 0
M  V30 3321 O 313.169 -2.71481 0.0324176 0
M  V30 3322 C 311.625 -2.47905 2.60904 0
M  V30 3323 C 311.233 -1.96016 4.02842 0
M  V30 3324 C 312.977 -3.24965 2.73126 0
M  V30 3325 C 310.884 -3.04494 5.06988 0
M  V30 3326 H 309.814 -0.514428 0.551253 0
M  V30 3327 H 312.465 -0.658182 1.7129 0
M  V30 3328 H 310.847 -3.21618 2.31037 0
M  V30 3329 H 312.021 -1.29051 4.4236 0
M  V30 3330 H 310.336 -1.31719 3.95018 0
M  V30 3331 H 312.933 -4.05865 3.48106 0
M  V30 3332 H 313.276 -3.75588 1.79553 0
M  V30 3333 H 313.809 -2.5835 3.0249 0
M  V30 3334 H 310.548 -2.58795 6.0225 0
M  V30 3335 H 310.068 -3.70044 4.72046 0
M  V30 3336 H 311.747 -3.68976 5.31475 0
M  V30 3337 N 311.879 -1.3236 -0.855495 0
M  V30 3338 C 313.29 -1.2056 -1.42556 0
M  V30 3339 C 313.641 0.182209 -1.95352 0
M  V30 3340 O 312.766 1.08088 -1.87472 0
M  V30 3341 C 313.361 -2.1826 -2.59129 0
M  V30 3342 C 311.92 -2.10351 -3.12137 0
M  V30 3343 C 311.067 -2.06674 -1.84882 0
M  V30 3344 H 314.018 -1.442 -0.662727 0
M  V30 3345 H 314.039 -1.78064 -3.36264 0
M  V30 3346 H 313.551 -3.19257 -2.20673 0
M  V30 3347 H 311.652 -1.12599 -3.55179 0
M  V30 3348 H 311.765 -3.00135 -3.73438 0
M  V30 3349 H 310.129 -1.51901 -2.04446 0
M  V30 3350 H 310.912 -3.09451 -1.48643 0
M  V30 3351 N 313.357 1.07166 -1.15556 0
M  V30 3352 C 314.585 1.83514 -0.955519 0
M  V30 3353 C 315 1.82163 0.49621 0
M  V30 3354 O 314.357 1.23441 1.34419 0
M  V30 3355 C 314.408 3.30515 -1.46432 0
M  V30 3356 O 314.129 3.31937 -2.85918 0
M  V30 3357 C 315.63 4.23625 -1.30603 0
M  V30 3358 H 312.85 0.578926 -0.339244 0
M  V30 3359 H 315.394 1.35265 -1.53374 0
M  V30 3360 H 313.549 3.76106 -0.928584 0
M  V30 3361 H 313.963 4.23794 -3.09029 0
M  V30 3362 H 315.437 5.24831 -1.71047 0
M  V30 3363 H 315.914 4.38485 -0.250441 0
M  V30 3364 H 316.52 3.83871 -1.83094 0
M  V30 3365 N 314.835 0.952656 1.25548 0
M  V30 3366 C 316.06 0.623025 1.97821 0
M  V30 3367 C 316.485 -0.7976 1.70352 0
M  V30 3368 O 315.843 -1.53905 0.958283 0
M  V30 3369 C 315.891 0.885532 3.49558 0
M  V30 3370 O 314.995 -0.0366641 4.12384 0
M  V30 3371 H 314.336 0.237082 0.620232 0
M  V30 3372 H 316.866 1.27871 1.59719 0
M  V30 3373 H 316.876 0.811009 3.99858 0
M  V30 3374 H 315.551 1.92094 3.6888 0
M  V30 3375 H 314.128 0.0898954 3.72792 0
M  V30 3376 N 316.313 -1.40141 0.720998 0
M  V30 3377 C 317.59 -1.94677 0.189757 0
M  V30 3378 C 317.97 -1.65879 -1.30566 0
M  V30 3379 O 317.318 -0.979391 -2.06447 0
M  V30 3380 C 317.528 -3.45279 0.508304 0
M  V30 3381 C 318.876 -4.22209 0.449934 0
M  V30 3382 O 319.9 -3.53413 0.444677 0
M  V30 3383 O 318.759 -5.44788 0.432189 0
M  V30 3384 H 315.853 -0.826459 0.0299026 0
M  V30 3385 H 318.399 -1.49719 0.7989 0
M  V30 3386 H 317.171 -3.59619 1.54239 0
M  V30 3387 H 316.794 -3.97386 -0.130525 0
M  V30 3388 N 317.792 -0.46758 -1.50504 0
M  V30 3389 C 318.702 0.33382 -2.32213 0
M  V30 3390 C 319.718 0.999323 -1.42441 0
M  V30 3391 O 320.894 0.988068 -1.75497 0
M  V30 3392 C 317.959 1.4035 -3.17022 0
M  V30 3393 C 317.02 0.754961 -4.2261 0
M  V30 3394 C 316.253 1.77367 -5.03365 0
M  V30 3395 O 316.476 2.99976 -4.8515 0
M  V30 3396 O 315.41 1.34744 -5.86624 0
M  V30 3397 H 319.236 -0.334067 -3.01857 0
M  V30 3398 H 316.821 -0.229496 -1.47627 0
M  V30 3399 H 318.703 2.02318 -3.69656 0
M  V30 3400 H 317.378 2.05492 -2.5011 0
M  V30 3401 H 316.285 0.0964244 -3.73976 0
M  V30 3402 H 317.618 0.146545 -4.91982 0
M  V30 3403 N 319.27 1.56325 -0.20005 0
M  V30 3404 C 320.18 2.22931 0.730668 0
M  V30 3405 C 321.196 1.22997 1.23076 0
M  V30 3406 O 322.372 1.55748 1.27689 0
M  V30 3407 C 319.437 2.87948 1.93098 0
M  V30 3408 C 318.498 4.03166 1.47497 0
M  V30 3409 C 317.731 4.65073 2.61807 0
M  V30 3410 O 317.954 4.25913 3.79413 0
M  V30 3411 O 316.888 5.54452 2.34237 0
M  V30 3412 H 320.714 3.03084 0.193391 0
M  V30 3413 H 318.299 1.49371 0.0294621 0
M  V30 3414 H 320.181 3.29063 2.6324 0
M  V30 3415 H 318.856 2.10771 2.45677 0
M  V30 3416 H 317.763 3.66664 0.742201 0
M  V30 3417 H 319.096 4.82022 0.995796 0
M  V30 3418 N 320.748 -0.0735177 1.57428 0
M  V30 3419 C 321.973 -0.789787 1.91774 0
M  V30 3420 C 322.398 -1.70413 0.796306 0
M  V30 3421 O 321.756 -1.79555 -0.250961 0
M  V30 3422 C 321.804 -1.5609 3.25067 0
M  V30 3423 O 320.908 -2.67144 3.14178 0
M  V30 3424 H 320.249 -0.215582 0.628029 0
M  V30 3425 H 322.779 -0.0422781 2.04556 0
M  V30 3426 H 322.789 -1.94052 3.58898 0
M  V30 3427 H 321.464 -0.890015 4.06265 0
M  V30 3428 H 320.041 -2.32052 2.91901 0
M  V30 3429 N 322.226 -1.5378 -0.344866 0
M  V30 3430 C 323.454 -1.74899 -1.10534 0
M  V30 3431 C 323.869 -0.487534 -1.82397 0
M  V30 3432 O 323.226 0.540741 -1.74305 0
M  V30 3433 C 323.277 -2.92822 -2.11984 0
M  V30 3434 O 322.998 -4.14089 -1.43044 0
M  V30 3435 C 324.499 -3.25982 -3.00417 0
M  V30 3436 H 321.719 -0.584426 -0.329678 0
M  V30 3437 H 324.263 -2.006 -0.397474 0
M  V30 3438 H 322.418 -2.69457 -2.78338 0
M  V30 3439 H 322.832 -4.80272 -2.10805 0
M  V30 3440 H 324.306 -4.11848 -3.67539 0
M  V30 3441 H 324.783 -2.42228 -3.66363 0
M  V30 3442 H 325.389 -3.51349 -2.39654 0
M  V30 3443 N 323.704 0.605807 -1.45491 0
M  V30 3444 C 325.115 1.18777 -1.44045 0
M  V30 3445 C 325.466 1.95471 -0.169001 0
M  V30 3446 O 324.591 2.0374 0.729324 0
M  V30 3447 C 325.186 2.16064 -2.60963 0
M  V30 3448 C 323.745 2.69633 -2.62631 0
M  V30 3449 C 322.892 1.45072 -2.36325 0
M  V30 3450 H 325.843 0.395017 -1.53705 0
M  V30 3451 H 325.864 2.9913 -2.35163 0
M  V30 3452 H 325.376 1.60217 -3.53486 0
M  V30 3453 H 323.477 3.29414 -1.74119 0
M  V30 3454 H 323.59 3.13944 -3.61906 0
M  V30 3455 H 321.954 1.74089 -1.85917 0
M  V30 3456 H 322.737 0.910899 -3.30995 0
M  V30 3457 N 325.182 1.32811 0.848464 0
M  V30 3458 C 326.129 1.22265 1.95755 0
M  V30 3459 C 327.099 0.103413 1.65778 0
M  V30 3460 O 328.284 0.280033 1.88734 0
M  V30 3461 C 325.424 0.958014 3.31536 0
M  V30 3462 C 324.537 2.16262 3.73971 0
M  V30 3463 C 323.672 1.83295 4.98575 0
M  V30 3464 C 322.711 3.00041 5.33518 0
M  V30 3465 N 321.848 2.67125 6.49299 0
M  V30 3466 H 326.688 2.17128 2.04107 0
M  V30 3467 H 324.225 1.07982 0.998913 0
M  V30 3468 H 326.183 0.785052 4.09747 0
M  V30 3469 H 324.813 0.046159 3.22767 0
M  V30 3470 H 323.865 2.44565 2.91362 0
M  V30 3471 H 325.177 3.03572 3.95785 0
M  V30 3472 H 324.331 1.62586 5.84509 0
M  V30 3473 H 323.07 0.932078 4.7871 0
M  V30 3474 H 322.075 3.21374 4.46093 0
M  V30 3475 H 323.3 3.90869 5.55336 0
M  V30 3476 H 321.246 1.79586 6.3094 0
M  V30 3477 H 321.163 3.47965 6.71161 0
M  V30 3478 H 322.431 2.49861 7.3837 0
M  V30 3479 N 326.66 -1.06551 1.16123 0
M  V30 3480 C 327.607 -2.13961 0.865414 0
M  V30 3481 C 328.577 -1.65066 -0.185055 0
M  V30 3482 O 329.762 -1.90732 -0.05083 0
M  V30 3483 C 326.902 -3.43113 0.369776 0
M  V30 3484 C 326.015 -4.05756 1.48276 0
M  V30 3485 C 325.15 -5.22773 0.942414 0
M  V30 3486 C 324.189 -5.77395 2.03179 0
M  V30 3487 N 323.326 -6.85731 1.50721 0
M  V30 3488 H 328.166 -2.38605 1.78527 0
M  V30 3489 H 325.703 -1.17072 0.890646 0
M  V30 3490 H 327.661 -4.17151 0.0640643 0
M  V30 3491 H 326.291 -3.18695 -0.513143 0
M  V30 3492 H 325.343 -3.29292 1.9045 0
M  V30 3493 H 326.655 -4.42351 2.30493 0
M  V30 3494 H 325.809 -6.03827 0.589729 0
M  V30 3495 H 324.548 -4.87618 0.0895191 0
M  V30 3496 H 323.553 -4.94981 2.3932 0
M  V30 3497 H 324.778 -6.14603 2.8886 0
M  V30 3498 H 322.724 -6.52499 0.676811 0
M  V30 3499 H 322.641 -7.21254 2.26557 0
M  V30 3500 H 323.909 -7.7047 1.18303 0
M  V30 3501 N 328.138 -0.959301 -1.25041 0
M  V30 3502 C 329.363 -0.633507 -1.97488 0
M  V30 3503 C 329.788 0.788555 -1.70773 0
M  V30 3504 O 329.146 1.53394 -0.966431 0
M  V30 3505 C 329.194 -0.904057 -3.49083 0
M  V30 3506 O 328.298 0.0147939 -4.12397 0
M  V30 3507 H 327.639 -0.240368 -0.618966 0
M  V30 3508 H 330.169 -1.28717 -1.59038 0
M  V30 3509 H 330.179 -0.832203 -3.99423 0
M  V30 3510 H 328.854 -1.94048 -3.67856 0
M  V30 3511 H 327.431 -0.109664 -3.72739 0
M  V30 3512 N 329.616 1.39756 -0.72842 0
M  V30 3513 C 330.563 2.30647 -0.0841519 0
M  V30 3514 C 331.533 1.48869 0.7367 0
M  V30 3515 O 332.718 1.77574 0.698015 0
M  V30 3516 C 329.858 3.35165 0.822091 0
M  V30 3517 C 328.971 4.31999 -0.0106663 0
M  V30 3518 C 328.106 5.23585 0.896241 0
M  V30 3519 C 327.145 6.12072 0.0583381 0
M  V30 3520 N 326.282 6.96035 0.920818 0
M  V30 3521 H 331.122 2.85173 -0.864891 0
M  V30 3522 H 328.659 1.40422 -0.438179 0
M  V30 3523 H 330.617 3.94345 1.36189 0
M  V30 3524 H 329.247 2.8211 1.56888 0
M  V30 3525 H 328.299 3.74492 -0.66781 0
M  V30 3526 H 329.611 4.9443 -0.658825 0
M  V30 3527 H 328.765 5.87759 1.50412 0
M  V30 3528 H 327.504 4.61459 1.57819 0
M  V30 3529 H 326.509 5.46916 -0.562389 0
M  V30 3530 H 327.734 6.76261 -0.6203 0
M  V30 3531 H 325.68 6.36485 1.58818 0
M  V30 3532 H 325.597 7.55284 0.32899 0
M  V30 3533 H 326.865 7.64646 1.51447 0
M  V30 3534 N 331.094 0.475555 1.50254 0
M  V30 3535 C 332.057 -0.305016 2.27161 0
M  V30 3536 C 333.057 -0.916519 1.32123 0
M  V30 3537 O 334.247 -0.785003 1.5551 0
M  V30 3538 C 331.379 -1.43496 3.09227 0
M  V30 3539 H 332.572 0.369511 2.97615 0
M  V30 3540 H 330.125 0.229747 1.54602 0
M  V30 3541 H 330.86 -2.14441 2.43281 0
M  V30 3542 H 330.645 -1.00223 3.79075 0
M  V30 3543 H 332.135 -1.98548 3.67381 0
M  V30 3544 N 332.573 -1.56217 0.208337 0
M  V30 3545 C 333.989 -1.58919 -0.14729 0
M  V30 3546 C 334.189 -1.22486 -1.59998 0
M  V30 3547 O 333.245 -0.953849 -2.3379 0
M  V30 3548 C 334.558 -3.00236 0.167048 0
M  V30 3549 C 336.106 -3.12813 0.108219 0
M  V30 3550 C 336.581 -4.56284 0.396049 0
M  V30 3551 N 338.072 -4.61912 0.345142 0
M  V30 3552 C 338.807 -5.70837 0.541523 0
M  V30 3553 N 338.303 -6.88178 0.798968 0
M  V30 3554 N 340.096 -5.60091 0.474867 0
M  V30 3555 H 332.247 -1.78177 1.15614 0
M  V30 3556 H 334.51 -0.827555 0.462446 0
M  V30 3557 H 334.216 -3.31499 1.1748 0
M  V30 3558 H 334.09 -3.7354 -0.524184 0
M  V30 3559 H 336.477 -2.81354 -0.890157 0
M  V30 3560 H 336.558 -2.41866 0.832729 0
M  V30 3561 H 336.202 -4.88458 1.3918 0
M  V30 3562 H 336.132 -5.25439 -0.349502 0
M  V30 3563 H 338.623 -3.77589 0.153316 0
M  V30 3564 H 338.936 -7.67095 0.93727 0
M  V30 3565 H 337.281 -6.89953 0.836013 0
M  V30 3566 H 340.472 -4.67297 0.274064 0
M  V30 3567 H 340.645 -6.44917 0.631326 0
M  V30 3568 N 334.051 0.0651679 -1.57465 0
M  V30 3569 C 335.3 0.761916 -1.86756 0
M  V30 3570 C 335.613 1.78406 -0.801925 0
M  V30 3571 O 336.819 2.53084 -0.982885 0
M  V30 3572 C 335.275 1.40603 -3.31299 0
M  V30 3573 C 334.883 0.422115 -4.46007 0
M  V30 3574 C 336.627 2.08476 -3.69781 0
M  V30 3575 C 334.534 1.07252 -5.81593 0
M  V30 3576 H 333.464 0.288308 -0.696702 0
M  V30 3577 H 336.115 0.015344 -1.83494 0
M  V30 3578 H 334.497 2.20109 -3.29193 0
M  V30 3579 H 335.671 -0.343613 -4.59517 0
M  V30 3580 H 333.986 -0.152527 -4.16121 0
M  V30 3581 H 336.583 2.57925 -4.68379 0
M  V30 3582 H 336.926 2.88712 -2.99919 0
M  V30 3583 H 337.459 1.35792 -3.73905 0
M  V30 3584 H 334.198 0.310342 -6.54765 0
M  V30 3585 H 333.718 1.80895 -5.71872 0
M  V30 3586 H 335.397 1.59043 -6.27148 0
M  V30 3587 N 335.529 1.53961 0.336706 0
M  V30 3588 C 336.459 1.85417 1.41925 0
M  V30 3589 C 337.44 0.709856 1.5458 0
M  V30 3590 O 338.625 0.962396 1.68676 0
M  V30 3591 C 335.755 2.06985 2.78881 0
M  V30 3592 C 334.709 3.22813 2.81026 0
M  V30 3593 C 334.035 3.29727 4.20932 0
M  V30 3594 C 335.335 4.60767 2.45949 0
M  V30 3595 H 337.029 2.76079 1.15848 0
M  V30 3596 H 334.575 1.32839 0.555859 0
M  V30 3597 H 336.528 2.27575 3.54665 0
M  V30 3598 H 335.252 1.13061 3.06406 0
M  V30 3599 H 333.911 3.0209 2.07695 0
M  V30 3600 H 333.559 2.33385 4.45579 0
M  V30 3601 H 333.259 4.07566 4.23277 0
M  V30 3602 H 334.783 3.52536 4.98549 0
M  V30 3603 H 336.197 4.81325 3.11446 0
M  V30 3604 H 334.594 5.4106 2.59566 0
M  V30 3605 H 335.664 4.6391 1.41122 0
M  V30 3606 N 337.007 -0.598083 1.45811 0
M  V30 3607 C 337.917 -1.73632 1.57763 0
M  V30 3608 C 338.933 -1.67763 0.461676 0
M  V30 3609 O 340.109 -1.87949 0.723685 0
M  V30 3610 C 337.174 -3.10114 1.55018 0
M  V30 3611 C 336.235 -3.27364 2.77726 0
M  V30 3612 C 335.468 -4.57334 2.75102 0
M  V30 3613 O 335.691 -5.40258 1.8297 0
M  V30 3614 O 334.625 -4.77502 3.66437 0
M  V30 3615 H 338.451 -1.66498 2.53992 0
M  V30 3616 H 336.036 -0.763308 1.28429 0
M  V30 3617 H 337.918 -3.9141 1.56129 0
M  V30 3618 H 336.593 -3.17718 0.619431 0
M  V30 3619 H 335.5 -2.45619 2.82174 0
M  V30 3620 H 336.833 -3.24641 3.69958 0
M  V30 3621 N 338.485 -1.33259 -0.841409 0
M  V30 3622 C 339.71 -1.2775 -1.63385 0
M  V30 3623 C 340.135 0.149188 -1.87507 0
M  V30 3624 O 339.493 1.10498 -1.43736 0
M  V30 3625 C 339.541 -2.05571 -2.96265 0
M  V30 3626 O 338.645 -1.41257 -3.87453 0
M  V30 3627 H 337.986 -0.439627 -0.497618 0
M  V30 3628 H 340.516 -1.75782 -1.04699 0
M  V30 3629 H 340.526 -2.16241 -3.45982 0
M  V30 3630 H 339.201 -3.09309 -2.7803 0
M  V30 3631 H 337.778 -1.39217 -3.45938 0
M  V30 3632 N 339.963 1.05934 -1.16686 0
M  V30 3633 C 341.212 1.78188 -0.945085 0
M  V30 3634 C 341.525 1.88338 0.528021 0
M  V30 3635 O 342.731 2.57258 0.867799 0
M  V30 3636 C 341.187 3.20277 -1.64167 0
M  V30 3637 C 340.795 3.18281 -3.15279 0
M  V30 3638 C 342.539 3.97039 -1.502 0
M  V30 3639 C 340.446 4.55112 -3.7766 0
M  V30 3640 H 339.376 0.667866 -0.349959 0
M  V30 3641 H 342.027 1.18794 -1.39858 0
M  V30 3642 H 340.409 3.79952 -1.11589 0
M  V30 3643 H 341.583 2.68167 -3.74731 0
M  V30 3644 H 339.898 2.55018 -3.29173 0
M  V30 3645 H 342.495 4.98194 -1.94183 0
M  V30 3646 H 342.838 4.13845 -0.451461 0
M  V30 3647 H 343.371 3.43894 -1.99954 0
M  V30 3648 H 340.11 4.43512 -4.82677 0
M  V30 3649 H 339.63 5.05406 -3.22994 0
M  V30 3650 H 341.309 5.24064 -3.79428 0
M  V30 3651 N 341.441 0.965919 1.2453 0
M  V30 3652 C 342.669 0.644385 1.96609 0
M  V30 3653 C 343.084 -0.785823 1.71669 0
M  V30 3654 O 342.441 -1.52703 0.999399 0
M  V30 3655 C 342.492 0.907375 3.49927 0
M  V30 3656 O 342.213 2.28136 3.74013 0
M  V30 3657 C 343.714 0.599784 4.39224 0
M  V30 3658 H 340.934 0.240588 0.626385 0
M  V30 3659 H 343.478 1.29337 1.58405 0
M  V30 3660 H 341.633 0.304631 3.862 0
M  V30 3661 H 342.047 2.36002 4.68405 0
M  V30 3662 H 343.521 0.834263 5.45659 0
M  V30 3663 H 343.998 -0.465921 4.36722 0
M  V30 3664 H 344.604 1.18235 4.08535 0
M  V30 3665 N 342.919 -1.39368 0.735821 0
M  V30 3666 C 344.165 -2.00794 0.284544 0
M  V30 3667 C 344.498 -1.58255 -1.12557 0
M  V30 3668 O 343.773 -0.811819 -1.76748 0
M  V30 3669 C 344.056 -3.58011 0.387337 0
M  V30 3670 C 343.909 -4.10566 1.83728 0
M  V30 3671 C 345.228 -4.395 -0.22975 0
M  V30 3672 H 342.347 -0.729501 0.104866 0
M  V30 3673 H 344.989 -1.65564 0.93213 0
M  V30 3674 H 343.139 -3.88154 -0.164006 0
M  V30 3675 H 344.811 -3.91139 2.44556 0
M  V30 3676 H 343.054 -3.64095 2.35833 0
M  V30 3677 H 343.725 -5.19702 1.86047 0
M  V30 3678 H 346.201 -4.15406 0.240257 0
M  V30 3679 H 345.077 -5.48752 -0.127485 0
M  V30 3680 H 345.338 -4.22062 -1.3159 0
M  V30 3681 N 344.397 -0.483516 -1.5 0
M  V30 3682 C 345.622 0.0667119 -2.07293 0
M  V30 3683 C 346.047 1.3164 -1.3436 0
M  V30 3684 O 345.405 1.76945 -0.394987 0
M  V30 3685 C 345.453 0.321126 -3.59167 0
M  V30 3686 O 344.557 1.39927 -3.87936 0
M  V30 3687 H 343.898 -0.0184758 -0.663743 0
M  V30 3688 H 346.428 -0.678125 -1.93035 0
M  V30 3689 H 346.438 0.557906 -4.04168 0
M  V30 3690 H 345.113 -0.592007 -4.11665 0
M  V30 3691 H 343.69 1.14882 -3.54763 0
M  V30 3692 N 345.875 1.56104 -0.216619 0
M  V30 3693 C 347.1 2.0301 0.424462 0
M  V30 3694 C 347.525 1.0955 1.52907 0
M  V30 3695 O 346.883 0.0827914 1.81111 0
M  V30 3696 C 346.931 3.4819 0.937883 0
M  V30 3697 O 346.035 3.57865 2.04955 0
M  V30 3698 H 345.376 0.656925 0.0966755 0
M  V30 3699 H 347.906 2.01859 -0.33381 0
M  V30 3700 H 347.916 3.88413 1.24897 0
M  V30 3701 H 346.591 4.15699 0.129387 0
M  V30 3702 H 345.168 3.29527 1.74546 0
M  V30 3703 N 347.353 -0.0568162 1.57498 0
M  V30 3704 C 348.283 -1.06593 2.0775 0
M  V30 3705 C 349.264 -1.39448 0.974082 0
M  V30 3706 O 350.449 -1.48815 1.24771 0
M  V30 3707 C 347.579 -2.37509 2.5339 0
M  V30 3708 C 346.533 -2.1897 3.67745 0
M  V30 3709 C 345.859 -3.55402 3.99492 0
M  V30 3710 C 347.159 -1.59859 4.97235 0
M  V30 3711 H 348.853 -0.647706 2.9231 0
M  V30 3712 H 346.399 -0.310116 1.40621 0
M  V30 3713 H 348.352 -3.08409 2.87162 0
M  V30 3714 H 347.076 -2.8134 1.65878 0
M  V30 3715 H 345.735 -1.50508 3.3428 0
M  V30 3716 H 345.383 -3.9683 3.09088 0
M  V30 3717 H 345.083 -3.43831 4.76502 0
M  V30 3718 H 346.607 -4.27708 4.35773 0
M  V30 3719 H 348.021 -2.20642 5.29141 0
M  V30 3720 H 346.418 -1.58942 5.78669 0
M  V30 3721 H 347.488 -0.561506 4.81638 0
M  V30 3722 N 348.832 -1.54138 -0.328536 0
M  V30 3723 C 349.765 -1.78014 -1.4278 0
M  V30 3724 C 350.743 -0.629889 -1.49904 0
M  V30 3725 O 351.927 -0.866763 -1.6739 0
M  V30 3726 C 349.054 -1.89225 -2.80912 0
M  V30 3727 C 348.1 -3.11483 -2.91343 0
M  V30 3728 S 348.933 -4.70201 -2.56263 0
M  V30 3729 C 350.089 -4.84312 -3.96476 0
M  V30 3730 H 350.322 -2.70974 -1.22313 0
M  V30 3731 H 347.855 -1.45197 -0.525084 0
M  V30 3732 H 349.813 -1.9637 -3.60485 0
M  V30 3733 H 348.474 -0.972518 -2.98665 0
M  V30 3734 H 347.667 -3.16046 -3.92595 0
M  V30 3735 H 347.269 -3.02642 -2.19736 0
M  V30 3736 H 349.561 -4.66643 -4.91173 0
M  V30 3737 H 350.504 -5.86411 -3.96898 0
M  V30 3738 H 350.912 -4.12652 -3.85199 0
M  V30 3739 N 350.31 0.590341 -1.46126 0
M  V30 3740 C 351.273 1.68194 -1.55703 0
M  V30 3741 C 352.273 1.54808 -0.434868 0
M  V30 3742 O 353.463 1.59564 -0.698928 0
M  V30 3743 C 350.595 3.07575 -1.47005 0
M  V30 3744 H 351.788 1.61064 -2.52979 0
M  V30 3745 H 349.341 0.807541 -1.33823 0
M  V30 3746 H 350.076 3.20268 -0.509785 0
M  V30 3747 H 349.861 3.187 -2.28414 0
M  V30 3748 H 351.351 3.87055 -1.56776 0
M  V30 3749 N 351.788 1.33704 0.83433 0
M  V30 3750 C 353.016 1.28467 1.62185 0
M  V30 3751 C 353.431 -0.143526 1.88254 0
M  V30 3752 O 352.788 -1.08709 1.4659 0
M  V30 3753 C 352.839 2.06174 2.96942 0
M  V30 3754 O 352.56 3.43422 2.72016 0
M  V30 3755 C 354.061 2.08201 3.91366 0
M  V30 3756 H 351.281 0.4424 0.504503 0
M  V30 3757 H 353.825 1.76145 1.03891 0
M  V30 3758 H 351.98 1.62167 3.51825 0
M  V30 3759 H 352.394 3.83453 3.57861 0
M  V30 3760 H 353.868 2.67017 4.83121 0
M  V30 3761 H 354.345 1.07343 4.2588 0
M  V30 3762 H 354.951 2.52246 3.42421 0
M  V30 3763 N 353.266 -1.05314 1.17247 0
M  V30 3764 C 354.677 -1.59753 0.96623 0
M  V30 3765 C 355.028 -1.9005 -0.487378 0
M  V30 3766 O 354.153 -1.68126 -1.36245 0
M  V30 3767 C 354.748 -2.90249 1.74759 0
M  V30 3768 C 353.307 -3.41352 1.58606 0
M  V30 3769 C 352.454 -2.15103 1.75002 0
M  V30 3770 H 355.405 -0.881406 1.31973 0
M  V30 3771 H 355.426 -3.60097 1.22925 0
M  V30 3772 H 354.938 -2.68166 2.8055 0
M  V30 3773 H 353.039 -3.68474 0.552985 0
M  V30 3774 H 353.152 -4.16019 2.37624 0
M  V30 3775 H 351.516 -2.25804 1.17833 0
M  V30 3776 H 352.299 -1.95491 2.82202 0
M  V30 3777 N 354.744 -0.972509 -1.24016 0
M  V30 3778 C 355.676 -0.464375 -2.24446 0
M  V30 3779 C 356.689 0.4295 -1.57032 0
M  V30 3780 O 357.878 0.234902 -1.76948 0
M  V30 3781 C 354.978 0.348385 -3.37105 0
M  V30 3782 C 354.151 -0.53673 -4.34094 0
M  V30 3783 C 353.21 0.220838 -5.25736 0
M  V30 3784 O 352.236 -0.386867 -5.67884 0
M  V30 3785 N 353.438 1.50907 -5.60542 0
M  V30 3786 H 356.203 -1.32788 -2.68677 0
M  V30 3787 H 353.764 -0.844877 -1.38107 0
M  V30 3788 H 355.756 0.863341 -3.95384 0
M  V30 3789 H 354.326 1.11285 -2.92121 0
M  V30 3790 H 353.546 -1.23261 -3.74433 0
M  V30 3791 H 354.834 -1.14022 -4.95859 0
M  V30 3792 H 354.232 2.02444 -5.28236 0
M  V30 3793 H 352.789 1.96962 -6.21329 0
M  V30 3794 N 356.222 1.38976 -0.743202 0
M  V30 3795 C 357.499 1.94351 -0.220705 0
M  V30 3796 C 357.879 1.67935 1.2791 0
M  V30 3797 O 357.227 1.01211 2.04862 0
M  V30 3798 C 357.437 3.44426 -0.563171 0
M  V30 3799 C 358.785 4.2144 -0.517046 0
M  V30 3800 O 359.809 3.52661 -0.500846 0
M  V30 3801 O 358.668 5.44032 -0.518806 0
M  V30 3802 H 355.762 0.825879 -0.043047 0
M  V30 3803 H 358.308 1.48429 -0.822618 0
M  V30 3804 H 357.08 3.5712 -1.59941 0
M  V30 3805 H 356.703 3.97543 0.0672883 0
M  V30 3806 N 357.7 0.491464 1.49741 0
M  V30 3807 C 359.111 0.0413169 1.86654 0
M  V30 3808 C 359.462 -1.36985 1.40462 0
M  V30 3809 O 358.587 -2.01917 0.778354 0
M  V30 3810 C 359.182 0.0682023 3.38731 0
M  V30 3811 C 357.741 -0.32656 3.74981 0
M  V30 3812 C 356.888 0.444888 2.73708 0
M  V30 3813 H 359.839 0.704733 1.42194 0
M  V30 3814 H 359.86 -0.729322 3.73445 0
M  V30 3815 H 359.372 1.09539 3.72321 0
M  V30 3816 H 357.473 -1.35734 3.46997 0
M  V30 3817 H 357.586 -0.013741 4.79098 0
M  V30 3818 H 355.95 -0.104062 2.54487 0
M  V30 3819 H 356.733 1.47197 3.10142 0
M  V30 3820 N 359.178 -1.55987 0.224894 0
M  V30 3821 C 360.125 -2.20436 -0.68385 0
M  V30 3822 C 361.095 -1.16102 -1.18783 0
M  V30 3823 O 362.28 -1.4447 -1.24632 0
M  V30 3824 C 359.42 -2.89076 -1.88491 0
M  V30 3825 C 358.533 -4.08012 -1.41951 0
M  V30 3826 C 357.668 -4.64426 -2.5784 0
M  V30 3827 C 356.707 -5.75656 -2.08053 0
M  V30 3828 N 355.844 -6.26347 -3.17227 0
M  V30 3829 H 360.684 -2.97727 -0.12754 0
M  V30 3830 H 358.221 -1.47011 -0.0511978 0
M  V30 3831 H 360.179 -3.27059 -2.59014 0
M  V30 3832 H 358.809 -2.14298 -2.41405 0
M  V30 3833 H 357.861 -3.75492 -0.609095 0
M  V30 3834 H 359.173 -4.88375 -1.01447 0
M  V30 3835 H 358.327 -5.04869 -3.3644 0
M  V30 3836 H 357.066 -3.83233 -3.01635 0
M  V30 3837 H 356.071 -5.34712 -1.27916 0
M  V30 3838 H 357.296 -6.58686 -1.65255 0
M  V30 3839 H 355.242 -5.48067 -3.60497 0
M  V30 3840 H 355.159 -7.01843 -2.80986 0
M  V30 3841 H 356.427 -6.71447 -3.95953 0
M  V30 3842 N 360.656 0.0484629 -1.57525 0
M  V30 3843 C 361.904 0.741657 -1.88 0
M  V30 3844 C 362.225 1.76918 -0.820054 0
M  V30 3845 O 361.495 1.95335 0.148661 0
M  V30 3846 H 360.075 0.276908 -0.69378 0
M  V30 3847 H 362.737 0.019013 -1.94891 0
M  V30 3848 H 361.833 1.24336 -2.86264 0
M  V30 3849 N 362.134 1.5431 0.320358 0
M  V30 3850 C 363.066 1.80262 1.41556 0
M  V30 3851 C 364.079 0.684723 1.477 0
M  V30 3852 O 365.268 0.961886 1.50366 0
M  V30 3853 C 362.368 1.90825 2.8007 0
M  V30 3854 C 361.541 3.21023 2.97091 0
M  V30 3855 C 360.6 3.22247 4.15985 0
M  V30 3856 O 359.626 3.95871 4.08992 0
M  V30 3857 N 360.828 2.46258 5.25678 0
M  V30 3858 H 363.593 2.74778 1.19655 0
M  V30 3859 H 361.154 1.53646 0.510358 0
M  V30 3860 H 363.146 1.89067 3.57821 0
M  V30 3861 H 361.716 1.03392 2.95006 0
M  V30 3862 H 360.936 3.35715 2.06614 0
M  V30 3863 H 362.224 4.0698 3.05361 0
M  V30 3864 H 361.622 1.86037 5.34235 0
M  V30 3865 H 360.179 2.50275 6.01835 0
M  V30 3866 N 363.613 -0.582584 1.46437 0
M  V30 3867 C 364.861 -1.33814 1.51453 0
M  V30 3868 C 365.182 -1.94277 0.167792 0
M  V30 3869 O 364.452 -1.78566 -0.805677 0
M  V30 3870 H 363.032 -0.496838 0.557818 0
M  V30 3871 H 365.694 -0.682281 1.82568 0
M  V30 3872 H 364.79 -2.14479 2.26728 0
M  V30 3873 N 365.091 -1.34144 -0.827227 0
M  V30 3874 C 366.337 -1.26446 -1.58554 0
M  V30 3875 C 366.67 0.1664 -1.93486 0
M  V30 3876 O 365.945 1.1107 -1.59667 0
M  V30 3877 C 366.228 -2.15111 -2.8879 0
M  V30 3878 C 366.081 -3.66712 -2.60465 0
M  V30 3879 C 367.4 -2.03311 -3.90324 0
M  V30 3880 H 364.519 -0.46067 -0.575284 0
M  V30 3881 H 367.161 -1.64356 -0.953269 0
M  V30 3882 H 365.311 -1.8291 -3.42748 0
M  V30 3883 H 366.983 -4.09259 -2.1285 0
M  V30 3884 H 365.226 -3.88014 -1.93978 0
M  V30 3885 H 365.897 -4.24112 -3.53317 0
M  V30 3886 H 368.373 -2.31574 -3.45706 0
M  V30 3887 H 367.249 -2.67582 -4.79261 0
M  V30 3888 H 367.51 -1.00879 -4.30437 0
M  V30 3889 N 366.569 1.04691 -1.17803 0
M  V30 3890 C 367.817 1.7743 -0.967617 0
M  V30 3891 C 368.138 1.88359 0.504574 0
M  V30 3892 O 367.408 1.40402 1.36617 0
M  V30 3893 H 365.988 0.657242 -0.355024 0
M  V30 3894 H 368.65 1.2638 -1.48371 0
M  V30 3895 H 367.746 2.78924 -1.40027 0
M  V30 3896 N 368.047 0.979072 1.23499 0
M  V30 3897 C 369.275 0.665202 1.95915 0
M  V30 3898 C 369.69 -0.767571 1.72493 0
M  V30 3899 O 369.047 -1.51635 1.01554 0
M  V30 3900 C 369.098 0.944438 3.48945 0
M  V30 3901 O 368.819 2.3209 3.71572 0
M  V30 3902 C 370.32 0.646336 4.38563 0
M  V30 3903 H 367.54 0.247218 0.623798 0
M  V30 3904 H 370.084 1.31009 1.57025 0
M  V30 3905 H 368.239 0.345575 3.85856 0
M  V30 3906 H 368.653 2.40957 4.65876 0
M  V30 3907 H 370.127 0.892091 5.44744 0
M  V30 3908 H 370.604 -0.419575 4.37191 0
M  V30 3909 H 371.21 1.22562 4.07258 0
M  V30 3910 N 369.525 -1.3858 0.750561 0
M  V30 3911 C 370.773 -1.99789 0.30477 0
M  V30 3912 C 371.094 -1.59874 -1.11649 0
M  V30 3913 O 370.364 -0.85417 -1.76297 0
M  V30 3914 H 368.944 -0.738902 0.109694 0
M  V30 3915 H 371.606 -1.69391 0.963983 0
M  V30 3916 H 370.702 -3.09952 0.365499 0
M  V30 3917 N 371.003 -0.499398 -1.49478 0
M  V30 3918 C 372.419 -0.155261 -1.58843 0
M  V30 3919 C 372.619 1.34008 -1.50479 0
M  V30 3920 O 371.675 2.11589 -1.37791 0
M  V30 3921 C 372.988 -0.730636 -2.91689 0
M  V30 3922 C 374.536 -0.696599 -3.0515 0
M  V30 3923 C 375.011 -1.25001 -4.40612 0
M  V30 3924 N 376.502 -1.21064 -4.47099 0
M  V30 3925 C 377.237 -1.60905 -5.50361 0
M  V30 3926 N 376.733 -2.08331 -6.60735 0
M  V30 3927 N 378.526 -1.52331 -5.41065 0
M  V30 3928 H 370.677 -1.47162 -1.53158 0
M  V30 3929 H 372.94 -0.610309 -0.725415 0
M  V30 3930 H 372.646 -1.77928 -3.03372 0
M  V30 3931 H 372.52 -0.190161 -3.7672 0
M  V30 3932 H 374.907 0.343204 -2.93097 0
M  V30 3933 H 374.988 -1.2742 -2.21806 0
M  V30 3934 H 374.632 -2.28859 -4.53416 0
M  V30 3935 H 374.562 -0.64836 -5.22593 0
M  V30 3936 H 377.053 -0.863128 -3.67911 0
M  V30 3937 H 377.366 -2.36805 -7.35624 0
M  V30 3938 H 375.711 -2.12304 -6.6178 0
M  V30 3939 H 378.902 -1.151 -4.53729 0
M  V30 3940 H 379.075 -1.83704 -6.21415 0
M  V30 3941 N 372.481 1.55866 -0.233164 0
M  V30 3942 C 373.706 2.03449 0.402906 0
M  V30 3943 C 374.131 1.11166 1.51736 0
M  V30 3944 O 373.489 0.101996 1.81013 0
M  V30 3945 C 373.537 3.49165 0.9009 0
M  V30 3946 O 372.641 3.60019 2.01147 0
M  V30 3947 H 371.982 0.657913 0.0897025 0
M  V30 3948 H 374.512 2.01493 -0.355201 0
M  V30 3949 H 374.522 3.89716 1.2077 0
M  V30 3950 H 373.197 4.15813 0.0852889 0
M  V30 3951 H 371.774 3.3136 1.71042 0
M  V30 3952 N 373.959 -0.0401083 1.57549 0
M  V30 3953 C 374.922 -1.02871 2.04817 0
M  V30 3954 C 375.922 -1.29708 0.950388 0
M  V30 3955 O 377.112 -1.24897 1.21435 0
M  V30 3956 C 374.244 -2.36443 2.45576 0
M  V30 3957 H 375.437 -0.620631 2.93408 0
M  V30 3958 H 372.99 -0.286667 1.53649 0
M  V30 3959 H 373.725 -2.82021 1.60108 0
M  V30 3960 H 373.51 -2.18296 3.25713 0
M  V30 3961 H 375 -3.07441 2.82612 0
M  V30 3962 N 375.437 -1.54477 -0.31217 0
M  V30 3963 C 376.662 -1.77526 -1.07235 0
M  V30 3964 C 377.087 -0.527775 -1.80544 0
M  V30 3965 O 376.445 0.52121 -1.73646 0
M  V30 3966 C 376.493 -2.97535 -2.03728 0
M  V30 3967 O 375.597 -2.69878 -3.11833 0
M  V30 3968 H 374.938 -0.58792 -0.30862 0
M  V30 3969 H 377.468 -2.01532 -0.352993 0
M  V30 3970 H 377.478 -3.25198 -2.46395 0
M  V30 3971 H 376.153 -3.87996 -1.49774 0
M  V30 3972 H 374.73 -2.53199 -2.7376 0
M  V30 3973 N 376.915 0.57481 -1.46744 0
M  V30 3974 C 377.862 1.68329 -1.57905 0
M  V30 3975 C 378.832 1.60625 -0.422927 0
M  V30 3976 O 380.017 1.79721 -0.640711 0
M  V30 3977 C 377.157 3.06665 -1.58274 0
M  V30 3978 C 376.27 3.24935 -2.84678 0
M  V30 3979 C 375.405 4.53566 -2.76499 0
M  V30 3980 C 374.444 4.65207 -3.97806 0
M  V30 3981 N 373.581 5.85172 -3.87967 0
M  V30 3982 H 378.421 1.58127 -2.52587 0
M  V30 3983 H 375.958 0.770552 -1.25303 0
M  V30 3984 H 377.916 3.86745 -1.56473 0
M  V30 3985 H 376.546 3.15745 -0.671194 0
M  V30 3986 H 375.598 2.38405 -2.96424 0
M  V30 3987 H 376.91 3.29403 -3.7456 0
M  V30 3988 H 376.064 5.41885 -2.72848 0
M  V30 3989 H 374.803 4.51548 -1.8427 0
M  V30 3990 H 373.808 3.75304 -4.0178 0
M  V30 3991 H 375.033 4.68997 -4.9114 0
M  V30 3992 H 372.979 5.84137 -2.98529 0
M  V30 3993 H 372.896 5.90943 -4.71511 0
M  V30 3994 H 374.164 6.759 -3.88303 0
M  V30 3995 N 378.394 1.34581 0.820102 0
M  V30 3996 C 379.324 1.29038 1.94606 0
M  V30 3997 C 380.305 0.1673 1.69275 0
M  V30 3998 O 381.49 0.360112 1.90832 0
M  V30 3999 C 378.62 1.04793 3.31113 0
M  V30 4000 C 377.574 2.13597 3.70891 0
M  V30 4001 C 376.9 1.74537 5.05412 0
M  V30 4002 C 378.2 3.55451 3.8269 0
M  V30 4003 H 379.894 2.23248 1.99501 0
M  V30 4004 H 377.44 1.0747 0.958449 0
M  V30 4005 H 379.393 0.995592 4.0947 0
M  V30 4006 H 378.117 0.0702565 3.26524 0
M  V30 4007 H 376.776 2.17905 2.9481 0
M  V30 4008 H 376.424 0.754226 4.97313 0
M  V30 4009 H 376.124 2.47361 5.32997 0
M  V30 4010 H 377.648 1.70803 5.86224 0
M  V30 4011 H 379.062 3.5354 4.51312 0
M  V30 4012 H 377.459 4.26922 4.21732 0
M  V30 4013 H 378.529 3.92587 2.84611 0
M  V30 4014 N 379.872 -1.04064 1.18357 0
M  V30 4015 C 381.288 -1.2947 0.933258 0
M  V30 4016 C 381.488 -1.97466 -0.401169 0
M  V30 4017 O 380.544 -2.25528 -1.13549 0
M  V30 4018 C 381.857 -2.15337 2.09882 0
M  V30 4019 C 383.405 -2.28683 2.13712 0
M  V30 4020 C 383.88 -3.17917 3.29686 0
M  V30 4021 N 385.371 -3.25504 3.29547 0
M  V30 4022 C 386.106 -3.94706 4.15926 0
M  V30 4023 N 385.602 -4.66239 5.12439 0
M  V30 4024 N 387.395 -3.90986 4.0384 0
M  V30 4025 H 379.546 -0.583359 2.04232 0
M  V30 4026 H 381.809 -0.319921 0.892387 0
M  V30 4027 H 381.515 -1.72682 3.06389 0
M  V30 4028 H 381.389 -3.16015 2.05947 0
M  V30 4029 H 383.776 -2.70575 1.17784 0
M  V30 4030 H 383.857 -1.27596 2.21705 0
M  V30 4031 H 383.501 -2.76736 4.25887 0
M  V30 4032 H 383.431 -4.19036 3.1893 0
M  V30 4033 H 385.922 -2.74547 2.59677 0
M  V30 4034 H 386.235 -5.16638 5.74722 0
M  V30 4035 H 384.58 -4.65143 5.16398 0
M  V30 4036 H 387.771 -3.34234 3.27727 0
M  V30 4037 H 387.944 -4.44646 4.71375 0
M  V30 4038 N 381.35 -0.985608 -1.22978 0
M  V30 4039 C 382.599 -0.652881 -1.90841 0
M  V30 4040 C 382.912 0.817842 -1.77681 0
M  V30 4041 O 384.118 1.26185 -2.40395 0
M  V30 4042 C 382.574 -1.11717 -3.42122 0
M  V30 4043 C 382.182 -2.6126 -3.63933 0
M  V30 4044 C 383.926 -0.85843 -4.1573 0
M  V30 4045 C 381.833 -3.0133 -5.08876 0
M  V30 4046 H 380.763 -0.240491 -0.714619 0
M  V30 4047 H 383.414 -1.1942 -1.39324 0
M  V30 4048 H 381.796 -0.504027 -3.92779 0
M  V30 4049 H 382.97 -3.27858 -3.23799 0
M  V30 4050 H 381.285 -2.84937 -3.03644 0
M  V30 4051 H 383.882 -1.13359 -5.22546 0
M  V30 4052 H 384.225 0.205461 -4.15793 0
M  V30 4053 H 384.758 -1.43341 -3.71077 0
M  V30 4054 H 381.497 -4.06864 -5.13947 0
M  V30 4055 H 381.017 -2.3943 -5.49939 0
M  V30 4056 H 382.696 -2.92224 -5.77247 0
M  V30 4057 N 382.828 1.3818 -0.7579 0
M  V30 4058 C 383.791 2.28764 -0.141286 0
M  V30 4059 C 384.791 1.47388 0.642907 0
M  V30 4060 O 385.981 1.67781 0.468536 0
M  V30 4061 C 383.113 3.31184 0.808069 0
M  V30 4062 H 384.306 2.848 -0.939633 0
M  V30 4063 H 381.859 1.47212 -0.525191 0
M  V30 4064 H 382.594 2.80247 1.63193 0
M  V30 4065 H 382.379 3.91314 0.248104 0
M  V30 4066 H 383.869 3.98909 1.23536 0
M  V30 4067 N 384.306 0.507319 1.49211 0
M  V30 4068 C 385.238 -0.304532 2.27168 0
M  V30 4069 C 386.251 -0.924956 1.33972 0
M  V30 4070 O 387.44 -0.807227 1.59205 0
M  V30 4071 C 384.54 -1.44431 3.06583 0
M  V30 4072 C 383.713 -0.930026 4.27398 0
M  V30 4073 C 382.772 -1.94817 4.88807 0
M  V30 4074 O 381.798 -1.51418 5.4869 0
M  V30 4075 N 383 -3.279 4.79022 0
M  V30 4076 H 385.765 0.36395 2.97482 0
M  V30 4077 H 383.326 0.340249 1.58284 0
M  V30 4078 H 385.318 -2.12311 3.44537 0
M  V30 4079 H 383.888 -2.01684 2.38835 0
M  V30 4080 H 383.108 -0.0759244 3.94127 0
M  V30 4081 H 384.396 -0.564932 5.05654 0
M  V30 4082 H 383.794 -3.65843 4.3148 0
M  V30 4083 H 382.351 -3.91476 5.21142 0
M  V30 4084 N 385.784 -1.5574 0.241426 0
M  V30 4085 C 387.03 -1.99104 -0.385406 0
M  V30 4086 C 387.363 -1.1293 -1.57988 0
M  V30 4087 O 386.638 -0.191449 -1.93555 0
M  V30 4088 C 386.921 -3.51087 -0.800616 0
M  V30 4089 C 386.774 -4.48028 0.398874 0
M  V30 4090 C 388.093 -4.08015 -1.64959 0
M  V30 4091 H 385.212 -0.723848 -0.138614 0
M  V30 4092 H 387.854 -1.86903 0.341642 0
M  V30 4093 H 386.004 -3.61615 -1.4201 0
M  V30 4094 H 387.676 -4.49487 1.03726 0
M  V30 4095 H 385.919 -4.21077 1.04293 0
M  V30 4096 H 386.59 -5.51962 0.0651056 0
M  V30 4097 H 389.066 -4.00555 -1.12672 0
M  V30 4098 H 387.942 -5.14635 -1.90898 0
M  V30 4099 H 388.203 -3.56131 -2.61961 0
M  V30 4100 N 387.262 0.0317525 -1.57568 0
M  V30 4101 C 388.487 0.738664 -1.938 0
M  V30 4102 C 388.912 1.68242 -0.841208 0
M  V30 4103 O 388.27 1.80157 0.203267 0
M  V30 4104 C 388.318 1.47417 -3.29091 0
M  V30 4105 O 387.422 2.5872 -3.2115 0
M  V30 4106 H 386.763 0.198856 -0.633524 0
M  V30 4107 H 389.293 -0.0119713 -2.04596 0
M  V30 4108 H 389.303 1.84468 -3.63917 0
M  V30 4109 H 387.978 0.781988 -4.08482 0
M  V30 4110 H 386.555 2.24231 -2.97951 0
M  V30 4111 N 388.74 1.54641 0.303973 0
M  V30 4112 C 390.151 1.64811 0.877163 0
M  V30 4113 C 390.502 0.554838 1.88191 0
M  V30 4114 O 389.627 -0.309033 2.14182 0
M  V30 4115 C 390.222 2.9876 1.59775 0
M  V30 4116 C 388.781 3.11061 2.11938 0
M  V30 4117 C 387.928 2.60479 0.951097 0
M  V30 4118 H 390.879 1.58493 0.0810486 0
M  V30 4119 H 390.9 2.90017 2.46314 0
M  V30 4120 H 390.412 3.7831 0.866226 0
M  V30 4121 H 388.513 2.36225 2.88146 0
M  V30 4122 H 388.626 4.17171 2.35595 0
M  V30 4123 H 386.99 2.16859 1.33583 0
M  V30 4124 H 387.773 3.42504 0.233581 0
M  V30 4125 N 390.218 -0.567019 1.47046 0
M  V30 4126 C 391.466 -1.322 1.52864 0
M  V30 4127 C 391.787 -1.94088 0.188388 0
M  V30 4128 O 391.057 -1.7941 -0.786693 0
M  V30 4129 H 389.637 -0.490894 0.563056 0
M  V30 4130 H 392.299 -0.662879 1.83281 0
M  V30 4131 H 391.395 -2.12062 2.2899 0
M  V30 4132 N 391.696 -1.35014 -0.812953 0
M  V30 4133 C 393.107 -1.25035 -1.38648 0
M  V30 4134 C 393.458 0.119967 -1.95833 0
M  V30 4135 O 392.583 1.02069 -1.90816 0
M  V30 4136 C 393.178 -2.26394 -2.52054 0
M  V30 4137 C 391.737 -2.20175 -3.05287 0
M  V30 4138 C 390.884 -2.12451 -1.78213 0
M  V30 4139 H 393.835 -1.46235 -0.616516 0
M  V30 4140 H 393.856 -1.88672 -3.30429 0
M  V30 4141 H 393.368 -3.26116 -2.10404 0
M  V30 4142 H 391.469 -1.23841 -3.51417 0
M  V30 4143 H 391.582 -3.11863 -3.63701 0
M  V30 4144 H 389.946 -1.58328 -1.9951 0
M  V30 4145 H 390.729 -3.14024 -1.38723 0
M  V30 4146 N 393.175 1.03435 -1.18907 0
M  V30 4147 C 394.591 1.28973 -0.940111 0
M  V30 4148 C 394.791 1.97676 0.390691 0
M  V30 4149 O 393.847 2.26127 1.12352 0
M  V30 4150 C 395.16 2.14221 -2.11021 0
M  V30 4151 C 396.708 2.27547 -2.14922 0
M  V30 4152 C 397.183 3.16164 -3.31367 0
M  V30 4153 N 398.674 3.23752 -3.31269 0
M  V30 4154 C 399.409 3.92495 -4.18014 0
M  V30 4155 N 398.905 4.63515 -5.14904 0
M  V30 4156 N 400.698 3.88838 -4.05908 0
M  V30 4157 H 392.849 0.57252 -2.04538 0
M  V30 4158 H 395.112 0.315184 -0.894071 0
M  V30 4159 H 394.818 1.71054 -3.073 0
M  V30 4160 H 394.692 3.14919 -2.0762 0
M  V30 4161 H 397.079 2.69947 -1.19217 0
M  V30 4162 H 397.16 1.26418 -2.22378 0
M  V30 4163 H 396.804 2.74474 -4.27348 0
M  V30 4164 H 396.734 4.17339 -3.21148 0
M  V30 4165 H 399.225 2.73167 -2.61129 0
M  V30 4166 H 399.538 5.13583 -5.77453 0
M  V30 4167 H 397.883 4.62398 -5.18857 0
M  V30 4168 H 401.074 3.32491 -3.29495 0
M  V30 4169 H 401.247 4.4214 -4.73726 0
M  V30 4170 N 394.653 0.992116 1.22453 0
M  V30 4171 C 395.93 0.583508 1.86694 0
M  V30 4172 C 396.31 -0.9392 1.89056 0
M  V30 4173 O 395.658 -1.82081 1.38053 0
M  V30 4174 C 395.868 1.20304 3.2761 0
M  V30 4175 C 397.216 1.30308 4.0411 0
M  V30 4176 O 398.24 1.15737 3.36873 0
M  V30 4177 O 397.099 1.53615 5.24466 0
M  V30 4178 H 394.193 0.198129 0.802916 0
M  V30 4179 H 396.739 1.08794 1.30238 0
M  V30 4180 H 395.511 2.24461 3.2052 0
M  V30 4181 H 395.134 0.684144 3.9167 0
M  V30 4182 N 396.131 -1.37776 0.765217 0
M  V30 4183 C 397.356 -2.04651 0.336537 0
M  V30 4184 C 397.781 -1.57337 -1.03086 0
M  V30 4185 O 397.139 -0.730621 -1.65927 0
M  V30 4186 C 397.187 -3.58577 0.381468 0
M  V30 4187 O 396.291 -4.07706 -0.62042 0
M  V30 4188 H 395.632 -0.64756 0.146838 0
M  V30 4189 H 398.162 -1.76221 1.03959 0
M  V30 4190 H 398.172 -4.07314 0.236448 0
M  V30 4191 H 396.847 -3.9237 1.37907 0
M  V30 4192 H 395.424 -3.70306 -0.439056 0
M  V30 4193 N 397.609 -0.515225 -1.4894 0
M  V30 4194 C 399.02 -0.0710067 -1.86565 0
M  V30 4195 C 399.371 1.34733 -1.42623 0
M  V30 4196 O 398.496 2.00653 -0.810379 0
M  V30 4197 C 399.091 -0.122083 -3.3858 0
M  V30 4198 C 397.65 0.266863 -3.75453 0
M  V30 4199 C 396.797 -0.488376 -2.72966 0
M  V30 4200 H 399.748 -0.727266 -1.41055 0
M  V30 4201 H 399.769 0.669818 -3.74558 0
M  V30 4202 H 399.281 -1.15448 -3.70531 0
M  V30 4203 H 397.382 1.30196 -3.49113 0
M  V30 4204 H 397.495 -0.0624811 -4.79059 0
M  V30 4205 H 395.859 0.0635622 -2.54621 0
M  V30 4206 H 396.642 -1.52113 -3.07761 0
M  V30 4207 N 399.087 1.5561 -0.249682 0
M  V30 4208 C 400.05 2.20217 0.635394 0
M  V30 4209 C 401.05 1.17227 1.10066 0
M  V30 4210 O 402.24 1.42292 1.00492 0
M  V30 4211 C 399.372 2.84794 1.87363 0
M  V30 4212 H 400.565 2.99814 0.0716752 0
M  V30 4213 H 398.118 1.563 -0.000153234 0
M  V30 4214 H 398.853 2.09142 2.47851 0
M  V30 4215 H 398.638 3.60241 1.5482 0
M  V30 4216 H 400.128 3.3423 2.5036 0
M  V30 4217 N 400.565 -0.0233959 1.57583 0
M  V30 4218 C 401.812 -0.713063 1.8953 0
M  V30 4219 C 402.14 -1.75056 0.847673 0
M  V30 4220 O 401.395 -1.95119 -0.150636 0
M  V30 4221 C 401.694 -1.41428 3.28227 0
M  V30 4222 C 401.36 -0.512222 4.47981 0
M  V30 4223 C 400.022 -0.263785 4.80476 0
M  V30 4224 C 402.374 0.110248 5.21083 0
M  V30 4225 C 399.702 0.615804 5.83459 0
M  V30 4226 C 402.054 0.977573 6.25001 0
M  V30 4227 C 400.718 1.23542 6.55968 0
M  V30 4228 H 399.988 -0.260928 0.69354 0
M  V30 4229 H 402.635 0.0271047 1.91481 0
M  V30 4230 H 400.94 -2.22791 3.22291 0
M  V30 4231 H 402.637 -1.95355 3.50196 0
M  V30 4232 H 399.227 -0.716013 4.22577 0
M  V30 4233 H 403.411 -0.0687137 4.96252 0
M  V30 4234 H 398.667 0.82382 6.05824 0
M  V30 4235 H 402.841 1.46638 6.80786 0
M  V30 4236 H 400.468 1.91871 7.35588 0
M  V30 4237 N 402.043 -1.548 -0.295768 0
M  V30 4238 C 403.454 -1.65274 -0.868411 0
M  V30 4239 C 403.805 -0.56481 -1.87894 0
M  V30 4240 O 402.93 0.29767 -2.14343 0
M  V30 4241 C 403.525 -2.99603 -1.58188 0
M  V30 4242 C 402.084 -3.12181 -2.10286 0
M  V30 4243 C 401.231 -2.6098 -0.93727 0
M  V30 4244 H 404.182 -1.58534 -0.0726422 0
M  V30 4245 H 404.203 -2.91319 -2.44772 0
M  V30 4246 H 403.715 -3.78764 -0.846151 0
M  V30 4247 H 401.816 -2.3775 -2.8689 0
M  V30 4248 H 401.929 -4.18415 -2.33379 0
M  V30 4249 H 400.293 -2.17564 -1.32431 0
M  V30 4250 H 401.076 -3.42623 -0.215414 0
M  V30 4251 N 403.521 0.559213 -1.47345 0
M  V30 4252 C 404.798 1.31997 -1.44348 0
M  V30 4253 C 405.178 2.1064 -0.139358 0
M  V30 4254 O 404.526 2.1091 0.879153 0
M  V30 4255 C 404.736 2.22618 -2.68779 0
M  V30 4256 C 406.084 2.83701 -3.1591 0
M  V30 4257 O 407.108 2.32921 -2.69493 0
M  V30 4258 O 405.967 3.75993 -3.966 0
M  V30 4259 H 403.061 0.594251 -0.575147 0
M  V30 4260 H 405.607 0.578282 -1.59543 0
M  V30 4261 H 404.379 1.64093 -3.55231 0
M  V30 4262 H 404.002 3.04085 -2.5616 0
M  V30 4263 N 404.999 1.35443 0.805782 0
M  V30 4264 C 406.224 1.32037 1.59941 0
M  V30 4265 C 406.649 -0.0994215 1.87837 0
M  V30 4266 O 406.007 -1.06648 1.46615 0
M  V30 4267 C 406.055 2.13354 2.90711 0
M  V30 4268 O 405.159 1.5148 3.83572 0
M  V30 4269 H 404.5 0.452666 0.485787 0
M  V30 4270 H 407.03 1.78496 1.00002 0
M  V30 4271 H 407.04 2.25338 3.40128 0
M  V30 4272 H 405.715 3.16572 2.69732 0
M  V30 4273 H 404.292 1.4834 3.42125 0
M  V30 4274 N 406.477 -1.02803 1.19454 0
M  V30 4275 C 407.888 -1.57667 0.999899 0
M  V30 4276 C 408.239 -1.91041 -0.446956 0
M  V30 4277 O 407.364 -1.70978 -1.32648 0
M  V30 4278 C 407.959 -2.86477 1.80877 0
M  V30 4279 C 406.518 -3.37911 1.65811 0
M  V30 4280 C 405.665 -2.11343 1.79526 0
M  V30 4281 H 408.616 -0.853214 1.33813 0
M  V30 4282 H 408.637 -3.57408 1.30536 0
M  V30 4283 H 408.149 -2.62155 2.86175 0
M  V30 4284 H 406.25 -3.67218 0.63102 0
M  V30 4285 H 406.363 -4.10885 2.46395 0
M  V30 4286 H 404.727 -2.23254 1.22596 0
M  V30 4287 H 405.51 -1.89461 2.86285 0
M  V30 4288 N 407.956 -0.998596 -1.21925 0
M  V30 4289 C 409.202 -0.688337 -1.91399 0
M  V30 4290 C 409.557 0.771805 -1.76241 0
M  V30 4291 O 408.85 1.55153 -1.1242 0
M  V30 4292 C 409.044 -1.03648 -3.42041 0
M  V30 4293 C 408.873 -2.52892 -3.71855 0
M  V30 4294 C 407.643 -3.19389 -3.91559 0
M  V30 4295 C 409.841 -3.5103 -3.75875 0
M  V30 4296 N 407.823 -4.5805 -4.08734 0
M  V30 4297 C 409.194 -4.75174 -3.98259 0
M  V30 4298 C 411.249 -3.45257 -3.58751 0
M  V30 4299 C 409.952 -5.94247 -4.05294 0
M  V30 4300 C 411.978 -4.63712 -3.67049 0
M  V30 4301 C 411.34 -5.86658 -3.89887 0
M  V30 4302 H 407.439 -0.303251 -0.720807 0
M  V30 4303 H 410.023 -1.27977 -1.46731 0
M  V30 4304 H 408.194 -0.473569 -3.85502 0
M  V30 4305 H 409.926 -0.681619 -3.98919 0
M  V30 4306 H 406.681 -2.69846 -3.89205 0
M  V30 4307 H 407.105 -5.29989 -4.21237 0
M  V30 4308 H 411.747 -2.51215 -3.40075 0
M  V30 4309 H 409.465 -6.88687 -4.22772 0
M  V30 4310 H 413.051 -4.6084 -3.5513 0
M  V30 4311 H 411.931 -6.76786 -3.96144 0
M  V30 4312 N 409.434 1.37368 -0.772513 0
M  V30 4313 C 410.85 1.53059 -0.452231 0
M  V30 4314 C 411.05 1.73065 1.03203 0
M  V30 4315 O 410.106 1.75245 1.81784 0
M  V30 4316 C 411.419 2.72659 -1.26797 0
M  V30 4317 C 412.967 2.86521 -1.25995 0
M  V30 4318 C 413.442 4.09105 -2.05905 0
M  V30 4319 N 414.933 4.16219 -2.03263 0
M  V30 4320 C 415.668 5.10107 -2.61875 0
M  V30 4321 N 415.164 6.09547 -3.29278 0
M  V30 4322 N 416.957 5.02596 -2.51701 0
M  V30 4323 H 409.108 1.22634 -1.7342 0
M  V30 4324 H 411.371 0.597206 -0.736239 0
M  V30 4325 H 411.077 2.64343 -2.31982 0
M  V30 4326 H 410.951 3.66363 -0.897672 0
M  V30 4327 H 413.338 2.94308 -0.216081 0
M  V30 4328 H 413.419 1.93774 -1.66989 0
M  V30 4329 H 413.063 4.0208 -3.10313 0
M  V30 4330 H 412.993 5.00968 -1.62292 0
M  V30 4331 H 415.484 3.45012 -1.54192 0
M  V30 4332 H 415.797 6.77718 -3.71374 0
M  V30 4333 H 414.142 6.09824 -3.33377 0
M  V30 4334 H 417.333 4.23855 -1.98657 0
M  V30 4335 H 417.506 5.75582 -2.97673 0
M  V30 4336 N 410.912 0.523116 1.48665 0
M  V30 4337 C 411.822 -0.247406 2.33292 0
M  V30 4338 C 412.838 -0.945769 1.46052 0
M  V30 4339 O 414.014 -0.922253 1.79043 0
M  V30 4340 C 411.079 -1.28487 3.22012 0
M  V30 4341 C 410.14 -0.597592 4.2512 0
M  V30 4342 C 409.373 -1.58563 5.09601 0
M  V30 4343 O 409.596 -2.81763 4.95949 0
M  V30 4344 O 408.53 -1.12879 5.91221 0
M  V30 4345 H 412.356 0.445869 3.00409 0
M  V30 4346 H 409.941 0.284128 1.46673 0
M  V30 4347 H 411.823 -1.88459 3.7691 0
M  V30 4348 H 410.498 -1.96068 2.57564 0
M  V30 4349 H 409.405 0.0424407 3.74076 0
M  V30 4350 H 410.738 0.0361517 4.92187 0
M  V30 4351 N 412.39 -1.55475 0.257931 0
M  V30 4352 C 413.806 -1.59307 -0.0966563 0
M  V30 4353 C 414.006 -1.27514 -1.5602 0
M  V30 4354 O 413.062 -1.02774 -2.30637 0
M  V30 4355 C 414.375 -2.99552 0.262481 0
M  V30 4356 C 415.923 -3.1231 0.207683 0
M  V30 4357 C 416.398 -4.54793 0.541012 0
M  V30 4358 N 417.889 -4.6058 0.491921 0
M  V30 4359 C 418.624 -5.68825 0.722857 0
M  V30 4360 N 418.12 -6.85287 1.0175 0
M  V30 4361 N 419.913 -5.58296 0.652815 0
M  V30 4362 H 412.064 -1.74409 1.21224 0
M  V30 4363 H 414.327 -0.812424 0.48854 0
M  V30 4364 H 414.033 -3.27593 1.27967 0
M  V30 4365 H 413.907 -3.75019 -0.40508 0
M  V30 4366 H 416.294 -2.84044 -0.800195 0
M  V30 4367 H 416.375 -2.39095 0.909255 0
M  V30 4368 H 416.019 -4.83783 1.5465 0
M  V30 4369 H 415.949 -5.26285 -0.18216 0
M  V30 4370 H 418.44 -3.7691 0.273366 0
M  V30 4371 H 418.753 -7.63725 1.18084 0
M  V30 4372 H 417.098 -6.86945 1.05509 0
M  V30 4373 H 420.289 -4.66189 0.422592 0
M  V30 4374 H 420.462 -6.42582 0.836182 0
M  V30 4375 N 413.868 0.0150385 -1.57593 0
M  V30 4376 C 415.114 0.704043 -1.90187 0
M  V30 4377 C 415.447 1.74249 -0.857366 0
M  V30 4378 O 414.722 1.94092 0.125843 0
M  V30 4379 C 415.005 1.36087 -3.33395 0
M  V30 4380 C 414.858 0.334981 -4.48551 0
M  V30 4381 C 416.177 2.29112 -3.7576 0
M  V30 4382 H 413.296 0.254475 -0.691673 0
M  V30 4383 H 415.938 -0.0331678 -1.89971 0
M  V30 4384 H 414.088 1.98922 -3.3371 0
M  V30 4385 H 415.76 -0.292534 -4.60372 0
M  V30 4386 H 414.003 -0.344325 -4.32431 0
M  V30 4387 H 414.674 0.833316 -5.45674 0
M  V30 4388 H 417.15 1.76308 -3.76902 0
M  V30 4389 H 416.026 2.72043 -4.76743 0
M  V30 4390 H 416.287 3.16385 -3.08793 0
M  V30 4391 N 415.346 1.54954 0.287554 0
M  V30 4392 C 416.276 1.89839 1.35954 0
M  V30 4393 C 417.257 0.758675 1.52244 0
M  V30 4394 O 418.442 1.01557 1.65529 0
M  V30 4395 C 415.572 2.15753 2.72154 0
M  V30 4396 C 414.526 3.3159 2.70614 0
M  V30 4397 C 413.852 3.42952 4.10229 0
M  V30 4398 C 415.152 4.68359 2.31165 0
M  V30 4399 H 416.846 2.79625 1.07007 0
M  V30 4400 H 414.392 1.3454 0.513316 0
M  V30 4401 H 416.345 2.38743 3.47246 0
M  V30 4402 H 415.069 1.22752 3.02654 0
M  V30 4403 H 413.728 3.08545 1.97979 0
M  V30 4404 H 413.376 2.47443 4.37928 0
M  V30 4405 H 413.076 4.20826 4.10097 0
M  V30 4406 H 414.6 3.68218 4.87081 0
M  V30 4407 H 416.014 4.9099 2.95976 0
M  V30 4408 H 414.411 5.49044 2.42221 0
M  V30 4409 H 415.481 4.68165 1.26291 0
M  V30 4410 N 416.824 -0.551391 1.4764 0
M  V30 4411 C 417.787 -1.64007 1.60107 0
M  V30 4412 C 418.787 -1.53601 0.47576 0
M  V30 4413 O 419.977 -1.57655 0.740988 0
M  V30 4414 C 417.109 -3.03569 1.55108 0
M  V30 4415 H 418.302 -1.543 2.57161 0
M  V30 4416 H 415.855 -0.771776 1.35917 0
M  V30 4417 H 416.59 -3.18804 0.594519 0
M  V30 4418 H 416.375 -3.12532 2.36783 0
M  V30 4419 H 417.865 -3.82762 1.66982 0
M  V30 4420 N 418.302 -1.35869 -0.798587 0
M  V30 4421 C 419.713 -1.26498 -1.37314 0
M  V30 4422 C 420.064 0.0991899 -1.95949 0
M  V30 4423 O 419.189 1.0004 -1.91888 0
M  V30 4424 C 419.784 -2.29054 -2.49639 0
M  V30 4425 C 418.343 -2.234 -3.02935 0
M  V30 4426 C 417.49 -2.14329 -1.75949 0
M  V30 4427 H 420.441 -1.46881 -0.600971 0
M  V30 4428 H 420.462 -1.92166 -3.28409 0
M  V30 4429 H 419.974 -3.2833 -2.06933 0
M  V30 4430 H 418.075 -1.27562 -3.50084 0
M  V30 4431 H 418.188 -3.15703 -3.60372 0
M  V30 4432 H 416.552 -1.60435 -1.9782 0
M  V30 4433 H 417.335 -3.15477 -1.35384 0
M  V30 4434 N 419.78 1.02168 -1.19998 0
M  V30 4435 C 421.029 1.75091 -1.0013 0
M  V30 4436 C 421.342 1.89923 0.467835 0
M  V30 4437 O 422.548 2.59888 0.785515 0
M  V30 4438 C 421.004 3.14892 -1.74273 0
M  V30 4439 C 420.612 3.0809 -3.25245 0
M  V30 4440 C 422.356 3.9206 -1.62755 0
M  V30 4441 C 420.263 4.42867 -3.91948 0
M  V30 4442 H 419.193 0.656394 -0.37103 0
M  V30 4443 H 421.844 1.14284 -1.43567 0
M  V30 4444 H 420.226 3.7621 -1.2362 0
M  V30 4445 H 421.4 2.5611 -3.83072 0
M  V30 4446 H 419.715 2.44416 -3.3712 0
M  V30 4447 H 422.312 4.91764 -2.09934 0
M  V30 4448 H 422.655 4.12199 -0.582894 0
M  V30 4449 H 423.188 3.37359 -2.10793 0
M  V30 4450 H 419.927 4.27931 -4.96543 0
M  V30 4451 H 419.447 4.94874 -3.3891 0
M  V30 4452 H 421.126 5.11728 -3.95909 0
M  V30 4453 N 421.258 1.00505 1.21394 0
M  V30 4454 C 422.188 0.585684 2.26035 0
M  V30 4455 C 423.169 -0.393525 1.65485 0
M  V30 4456 O 424.354 -0.281497 1.92149 0
M  V30 4457 C 421.484 -0.0884283 3.47187 0
M  V30 4458 C 420.438 0.810567 4.20254 0
M  V30 4459 C 419.764 0.00286382 5.347 0
M  V30 4460 C 421.064 2.1132 4.77641 0
M  V30 4461 H 422.758 1.46039 2.61368 0
M  V30 4462 H 420.304 0.703648 1.25638 0
M  V30 4463 H 422.257 -0.393286 4.19561 0
M  V30 4464 H 420.981 -0.997766 3.10986 0
M  V30 4465 H 419.64 1.09925 3.49731 0
M  V30 4466 H 419.288 -0.907765 4.94741 0
M  V30 4467 H 418.988 0.601444 5.84514 0
M  V30 4468 H 420.512 -0.295808 6.09883 0
M  V30 4469 H 421.926 1.87148 5.41893 0
M  V30 4470 H 420.323 2.66164 5.37845 0
M  V30 4471 H 421.393 2.78393 3.9702 0
M  V30 4472 N 422.737 -1.36956 0.779787 0
M  V30 4473 C 424.148 -1.82094 0.412156 0
M  V30 4474 C 424.499 -1.64926 -1.06273 0
M  V30 4475 O 423.624 -1.16483 -1.82375 0
M  V30 4476 C 424.219 -3.3059 0.741319 0
M  V30 4477 C 422.778 -3.73974 0.426641 0
M  V30 4478 C 421.925 -2.59368 0.980987 0
M  V30 4479 H 424.876 -1.25314 0.973758 0
M  V30 4480 H 424.897 -3.80489 0.028887 0
M  V30 4481 H 424.409 -3.43054 1.81482 0
M  V30 4482 H 422.51 -3.67076 -0.639215 0
M  V30 4483 H 422.623 -4.69778 0.940515 0
M  V30 4484 H 420.987 -2.51463 0.404757 0
M  V30 4485 H 421.77 -2.74621 2.06005 0
M  V30 4486 N 424.215 -0.530993 -1.48385 0
M  V30 4487 C 425.492 0.0671788 -1.95485 0
M  V30 4488 C 425.872 1.51191 -1.47324 0
M  V30 4489 O 425.22 2.17507 -0.700202 0
M  V30 4490 C 425.43 -0.0511206 -3.48963 0
M  V30 4491 C 426.778 0.107632 -4.24464 0
M  V30 4492 O 427.802 0.0226248 -3.56193 0
M  V30 4493 O 426.661 0.285972 -5.45751 0
M  V30 4494 H 423.755 0.0787365 -0.823243 0
M  V30 4495 H 426.301 -0.595662 -1.58902 0
M  V30 4496 H 425.073 -1.05747 -3.7674 0
M  V30 4497 H 424.696 0.650525 -3.92242 0
M  V30 4498 N 425.693 1.55336 -0.266172 0
M  V30 4499 C 426.641 2.23587 0.641228 0
M  V30 4500 C 427.635 1.22986 1.16494 0
M  V30 4501 O 428.841 1.40943 1.1196 0
M  V30 4502 H 425.216 0.717452 0.225315 0
M  V30 4503 H 427.187 2.9837 0.0426561 0
M  V30 4504 C 425.936 2.96369 1.81826 0
M  V30 4505 H 425.259 3.73563 1.42445 0
M  V30 4506 H 426.699 3.47459 2.42998 0
M  V30 4507 C 425.158 2.0133 2.70125 0
M  V30 4508 O 425.688 1.55875 3.70224 0
M  V30 4509 N 423.894 1.6802 2.37102 0
M  V30 4510 H 423.441 2.05181 1.55751 0
M  V30 4511 H 423.399 1.047 2.96454 0
M  V30 4512 N 427.171 -0.0066808 1.57599 0
M  V30 4513 C 428.418 -0.69292 1.90276 0
M  V30 4514 C 428.746 -1.74148 0.866192 0
M  V30 4515 O 428.001 -1.95268 -0.129933 0
M  V30 4516 C 428.3 -1.37939 3.29708 0
M  V30 4517 C 427.966 -0.464679 4.48499 0
M  V30 4518 C 426.628 -0.212809 4.80729 0
M  V30 4519 C 428.98 0.16551 5.20937 0
M  V30 4520 C 426.308 0.677653 5.82773 0
M  V30 4521 C 428.66 1.04381 6.23929 0
M  V30 4522 C 427.324 1.30492 6.54621 0
M  V30 4523 H 426.594 -0.253558 0.696268 0
M  V30 4524 H 429.241 0.0474123 1.91441 0
M  V30 4525 H 427.546 -2.1936 3.24636 0
M  V30 4526 H 429.243 -1.9163 3.52249 0
M  V30 4527 H 425.833 -0.671153 4.23313 0
M  V30 4528 H 430.017 -0.0160756 4.96297 0
M  V30 4529 H 425.273 0.88803 6.04917 0
M  V30 4530 H 429.447 1.53851 6.79193 0
M  V30 4531 H 427.074 1.99662 7.33512 0
M  V30 4532 N 428.649 -1.55105 -0.279332 0
M  V30 4533 C 429.874 -1.7976 -1.03446 0
M  V30 4534 C 430.299 -0.565952 -1.79384 0
M  V30 4535 O 429.657 0.484259 -1.74713 0
M  V30 4536 C 429.705 -3.0179 -1.97371 0
M  V30 4537 O 428.809 -2.76432 -3.06038 0
M  V30 4538 H 428.15 -0.594334 -0.29608 0
M  V30 4539 H 430.68 -2.02235 -0.310165 0
M  V30 4540 H 430.69 -3.30351 -2.39441 0
M  V30 4541 H 429.365 -3.91085 -1.4151 0
M  V30 4542 H 427.942 -2.58949 -2.68328 0
M  V30 4543 N 430.127 0.543554 -1.4793 0
M  V30 4544 C 431.355 1.32516 -1.58894 0
M  V30 4545 C 431.77 1.87215 -0.244131 0
M  V30 4546 O 431.127 1.65709 0.764652 0
M  V30 4547 C 431.178 2.48554 -2.62494 0
M  V30 4548 O 430.899 1.96112 -3.91755 0
M  V30 4549 C 432.4 3.40572 -2.8377 0
M  V30 4550 H 429.62 0.403472 -0.536145 0
M  V30 4551 H 432.164 0.657106 -1.93655 0
M  V30 4552 H 430.319 3.1127 -2.30629 0
M  V30 4553 H 430.733 2.71967 -4.4848 0
M  V30 4554 H 432.207 4.18375 -3.60093 0
M  V30 4555 H 432.684 3.94965 -1.92092 0
M  V30 4556 H 433.29 2.8366 -3.16887 0
M  V30 4557 N 431.605 1.3629 0.791371 0
M  V30 4558 C 433.016 1.27225 1.36641 0
M  V30 4559 C 433.367 -0.0887968 1.95999 0
M  V30 4560 O 432.492 -0.990207 1.92416 0
M  V30 4561 C 433.087 2.30375 2.48421 0
M  V30 4562 C 431.646 2.25004 3.01746 0
M  V30 4563 C 430.793 2.15259 1.7481 0
M  V30 4564 H 433.744 1.47198 0.593173 0
M  V30 4565 H 433.765 1.93905 3.27385 0
M  V30 4566 H 433.277 3.29422 2.05189 0
M  V30 4567 H 431.378 1.29417 3.49403 0
M  V30 4568 H 431.491 3.1761 3.58693 0
M  V30 4569 H 429.855 1.61482 1.96966 0
M  V30 4570 H 430.638 3.16191 1.33709 0
M  V30 4571 N 433.083 -1.0153 1.20538 0
M  V30 4572 C 434.311 -1.78746 1.04199 0
M  V30 4573 C 434.726 -1.84323 -0.408733 0
M  V30 4574 O 434.083 -1.29714 -1.28377 0
M  V30 4575 C 434.134 -3.23152 1.62035 0
M  V30 4576 O 433.855 -3.17918 3.0143 0
M  V30 4577 C 435.356 -4.16911 1.50666 0
M  V30 4578 H 432.576 -0.56208 0.366479 0
M  V30 4579 H 435.12 -1.27794 1.59653 0
M  V30 4580 H 433.275 -3.71248 1.10697 0
M  V30 4581 H 433.689 -4.08567 3.28897 0
M  V30 4582 H 435.163 -5.16072 1.95892 0
M  V30 4583 H 435.64 -4.36791 0.459363 0
M  V30 4584 H 436.246 -3.74698 2.01201 0
M  V30 4585 N 434.561 -1.01147 -1.20859 0
M  V30 4586 C 435.809 -0.696486 -1.89719 0
M  V30 4587 C 436.13 0.775788 -1.78904 0
M  V30 4588 O 435.4 1.55759 -1.18811 0
M  V30 4589 H 433.98 -0.254628 -0.702263 0
M  V30 4590 H 436.642 -1.28197 -1.46804 0
M  V30 4591 H 435.738 -0.975357 -2.96468 0
M  V30 4592 N 436.039 1.36541 -0.78704 0
M  V30 4593 C 437.264 2.0409 -0.369053 0
M  V30 4594 C 437.689 1.58957 1.00569 0
M  V30 4595 O 437.047 0.756926 1.64743 0
M  V30 4596 C 437.095 3.57924 -0.438466 0
M  V30 4597 O 436.199 4.08642 0.555479 0
M  V30 4598 H 435.54 0.645142 -0.157122 0
M  V30 4599 H 438.07 1.74545 -1.06749 0
M  V30 4600 H 438.08 4.06887 -0.301218 0
M  V30 4601 H 436.755 3.90127 -1.44132 0
M  V30 4602 H 435.332 3.70958 0.380088 0
M  V30 4603 N 437.518 0.538854 1.48102 0
M  V30 4604 C 438.934 0.19732 1.58376 0
M  V30 4605 C 439.134 -1.29971 1.5398 0
M  V30 4606 O 438.19 -2.07861 1.43352 0
M  V30 4607 C 439.503 0.807716 2.89649 0
M  V30 4608 C 441.051 0.77726 3.03196 0
M  V30 4609 C 441.526 1.36639 4.37143 0
M  V30 4610 N 443.017 1.32875 4.43732 0
M  V30 4611 C 443.752 1.7544 5.45901 0
M  V30 4612 N 443.248 2.25776 6.54979 0
M  V30 4613 N 445.041 1.66623 5.36836 0
M  V30 4614 H 437.192 1.5117 1.49202 0
M  V30 4615 H 439.455 0.629327 0.708979 0
M  V30 4616 H 439.161 1.85909 2.98548 0
M  V30 4617 H 439.035 0.289975 3.76084 0
M  V30 4618 H 441.422 -0.265374 2.93904 0
M  V30 4619 H 441.503 1.33256 2.18349 0
M  V30 4620 H 441.147 2.408 4.47189 0
M  V30 4621 H 441.077 0.786689 5.20691 0
M  V30 4622 H 443.568 0.96037 3.65493 0
M  V30 4623 H 443.881 2.56226 7.29087 0
M  V30 4624 H 442.226 2.29775 6.55918 0
M  V30 4625 H 445.417 1.27089 4.50517 0
M  V30 4626 H 445.59 2.00115 6.16326 0
M  V30 4627 N 438.996 -1.55193 0.274407 0
M  V30 4628 C 440.224 -2.03987 -0.345943 0
M  V30 4629 C 440.639 -1.15279 -1.4952 0
M  V30 4630 O 439.996 -0.172759 -1.8168 0
M  V30 4631 C 440.047 -3.51898 -0.827631 0
M  V30 4632 O 439.768 -4.37231 0.275855 0
M  V30 4633 C 441.269 -4.16577 -1.51587 0
M  V30 4634 H 438.489 -0.666335 -0.0789892 0
M  V30 4635 H 441.033 -2.00423 0.406294 0
M  V30 4636 H 439.188 -3.55909 -1.52996 0
M  V30 4637 H 439.602 -5.24415 -0.0943638 0
M  V30 4638 H 441.076 -5.21678 -1.80433 0
M  V30 4639 H 441.553 -3.64707 -2.44716 0
M  V30 4640 H 442.159 -4.16568 -0.857409 0
M  V30 4641 N 440.474 -0.00167713 -1.576 0
M  V30 4642 C 441.751 0.719951 -1.81868 0
M  V30 4643 C 442.131 1.91895 -0.879747 0
M  V30 4644 O 441.479 2.28389 0.0711423 0
M  V30 4645 C 441.689 1.12409 -3.30402 0
M  V30 4646 C 443.037 1.52724 -3.96182 0
M  V30 4647 O 444.061 1.21784 -3.34734 0
M  V30 4648 O 442.92 2.10265 -5.04431 0
M  V30 4649 H 440.014 0.350707 -0.748955 0
M  V30 4650 H 442.56 -0.0272597 -1.69678 0
M  V30 4651 H 441.332 0.269532 -3.90371 0
M  V30 4652 H 440.955 1.93035 -3.47596 0
M  V30 4653 N 441.952 1.55251 0.271103 0
M  V30 4654 C 443.177 1.80306 1.02491 0
M  V30 4655 C 443.602 0.575457 1.79081 0
M  V30 4656 O 442.96 -0.474987 1.74967 0
M  V30 4657 C 443.008 3.02832 1.95768 0
M  V30 4658 O 442.112 2.78051 3.04568 0
M  V30 4659 H 441.453 0.595896 0.292923 0
M  V30 4660 H 443.983 2.02397 0.299436 0
M  V30 4661 H 443.993 3.31616 2.37686 0
M  V30 4662 H 442.668 3.9183 1.39434 0
M  V30 4663 H 441.245 2.60369 2.66951 0
M  V30 4664 N 443.43 -0.535701 1.48216 0
M  V30 4665 C 444.362 -1.65662 1.58394 0
M  V30 4666 C 445.375 -1.5591 0.468607 0
M  V30 4667 O 446.564 -1.62475 0.7392 0
M  V30 4668 C 443.664 -3.04276 1.4923 0
M  V30 4669 C 442.837 -3.39567 2.75705 0
M  V30 4670 C 441.896 -4.57436 2.60075 0
M  V30 4671 O 440.922 -4.60942 3.33948 0
M  V30 4672 N 442.124 -5.55259 1.69315 0
M  V30 4673 H 444.889 -1.5737 2.55058 0
M  V30 4674 H 442.45 -0.722845 1.44867 0
M  V30 4675 H 444.442 -3.80994 1.36477 0
M  V30 4676 H 443.012 -3.06677 0.605632 0
M  V30 4677 H 442.232 -2.52083 3.03064 0
M  V30 4678 H 443.52 -3.59929 3.59623 0
M  V30 4679 H 442.918 -5.552 1.08489 0
M  V30 4680 H 441.475 -6.31218 1.62504 0
M  V30 4681 N 444.908 -1.36708 -0.784132 0
M  V30 4682 C 446.133 -1.34565 -1.5782 0
M  V30 4683 C 446.558 0.0695257 -1.87971 0
M  V30 4684 O 445.916 1.04302 -1.48293 0
M  V30 4685 C 445.964 -2.17952 -2.87279 0
M  V30 4686 O 445.068 -1.57563 -3.81114 0
M  V30 4687 H 444.409 -0.460337 -0.478524 0
M  V30 4688 H 446.939 -1.80064 -0.971495 0
M  V30 4689 H 446.949 -2.30721 -3.365 0
M  V30 4690 H 445.624 -3.20823 -2.64661 0
M  V30 4691 H 444.201 -1.53764 -3.39722 0
M  V30 4692 N 446.386 1.0089 -1.21074 0
M  V30 4693 C 447.632 1.74866 -1.02712 0
M  V30 4694 C 447.965 1.89178 0.438787 0
M  V30 4695 O 447.24 1.42325 1.32567 0
M  V30 4696 C 447.523 3.16347 -1.72036 0
M  V30 4697 C 447.376 3.09782 -3.26121 0
M  V30 4698 C 448.695 4.15187 -1.45973 0
M  V30 4699 H 445.814 0.634736 -0.374539 0
M  V30 4700 H 448.456 1.17646 -1.49196 0
M  V30 4701 H 446.606 3.65201 -1.32517 0
M  V30 4702 H 448.278 2.68673 -3.74983 0
M  V30 4703 H 446.521 2.46982 -3.56626 0
M  V30 4704 H 447.192 4.09829 -3.6979 0
M  V30 4705 H 449.668 3.75022 -1.80272 0
M  V30 4706 H 448.544 5.12331 -1.96999 0
M  V30 4707 H 448.805 4.40386 -0.388924 0
M  V30 4708 N 447.864 1.01787 1.20321 0
M  V30 4709 C 449.28 0.732951 1.41774 0
M  V30 4710 C 449.48 -0.686883 1.89431 0
M  V30 4711 O 448.536 -1.45446 2.06402 0
M  V30 4712 C 449.849 1.75973 2.43832 0
M  V30 4713 C 451.397 1.77802 2.57596 0
M  V30 4714 C 451.872 2.7941 3.62897 0
M  V30 4715 N 453.363 2.78157 3.70382 0
M  V30 4716 C 454.098 3.53434 4.51521 0
M  V30 4717 N 453.594 4.38392 5.36455 0
M  V30 4718 N 455.387 3.42026 4.46066 0
M  V30 4719 H 447.538 1.93447 0.877035 0
M  V30 4720 H 449.801 0.835712 0.447536 0
M  V30 4721 H 449.507 2.77699 2.15815 0
M  V30 4722 H 449.381 1.57292 3.4284 0
M  V30 4723 H 451.768 0.767602 2.84942 0
M  V30 4724 H 451.849 2.00557 1.58779 0
M  V30 4725 H 451.493 3.80616 3.36295 0
M  V30 4726 H 451.423 2.53916 4.61339 0
M  V30 4727 H 453.914 2.16531 3.09714 0
M  V30 4728 H 454.227 4.92596 5.95457 0
M  V30 4729 H 452.572 4.4247 5.35953 0
M  V30 4730 H 455.763 2.75075 3.78749 0
M  V30 4731 H 455.936 4.00946 5.09064 0
M  V30 4732 N 449.342 -1.36122 0.79427 0
M  V30 4733 C 450.292 -2.27373 0.169017 0
M  V30 4734 C 451.276 -1.4719 -0.649913 0
M  V30 4735 O 452.468 -1.69518 -0.50919 0
M  V30 4736 C 449.597 -3.36264 -0.691455 0
M  V30 4737 C 448.683 -4.2388 0.13653 0
M  V30 4738 N 449.074 -4.91519 1.19345 0
M  V30 4739 C 447.372 -4.45921 -0.0838499 0
M  V30 4740 C 448.073 -5.56369 1.6979 0
M  V30 4741 N 447.049 -5.34204 1.00634 0
M  V30 4742 H 450.851 -2.77154 0.977897 0
M  V30 4743 H 448.365 -1.49504 0.634208 0
M  V30 4744 H 450.362 -4.00572 -1.15534 0
M  V30 4745 H 449.022 -2.88037 -1.49883 0
M  V30 4746 H 450.033 -4.9334 1.57594 0
M  V30 4747 H 446.71 -4.08518 -0.861341 0
M  V30 4748 H 448.1 -6.20368 2.58055 0
M  V30 4749 N 450.82 -0.546701 -1.47814 0
M  V30 4750 C 452.045 -0.021268 -2.07389 0
M  V30 4751 C 452.47 1.25822 -1.39822 0
M  V30 4752 O 451.828 1.75111 -0.46968 0
M  V30 4753 C 451.876 0.168502 -3.60206 0
M  V30 4754 O 450.98 1.23347 -3.93522 0
M  V30 4755 H 450.321 -0.0466108 -0.662362 0
M  V30 4756 H 452.851 -0.759387 -1.89985 0
M  V30 4757 H 452.861 0.385982 -4.0617 0
M  V30 4758 H 451.536 -0.766075 -4.08784 0
M  V30 4759 H 450.113 0.997319 -3.59316 0
M  V30 4760 N 452.299 1.55045 -0.282633 0
M  V30 4761 C 453.71 1.85473 0.213655 0
M  V30 4762 C 454.061 1.20465 1.54863 0
M  V30 4763 O 453.186 0.495676 2.10647 0
M  V30 4764 C 453.781 3.36496 0.394445 0
M  V30 4765 C 452.34 3.67022 0.834961 0
M  V30 4766 C 451.487 2.77218 -0.0674081 0
M  V30 4767 H 454.438 1.50478 -0.504202 0
M  V30 4768 H 454.459 3.60007 1.23186 0
M  V30 4769 H 453.971 3.83782 -0.577326 0
M  V30 4770 H 452.072 3.25241 1.81794 0
M  V30 4771 H 452.185 4.74433 0.667075 0
M  V30 4772 H 450.549 2.5069 0.450196 0
M  V30 4773 H 451.332 3.2732 -1.0352 0
M  V30 4774 N 453.777 0.010035 1.57597 0
M  V30 4775 C 455.026 -0.671945 1.90178 0
M  V30 4776 C 455.339 -1.74376 0.886131 0
M  V30 4777 O 456.545 -2.48107 1.10252 0
M  V30 4778 C 455.001 -1.24636 3.3763 0
M  V30 4779 C 454.609 -0.208838 4.47513 0
M  V30 4780 C 456.353 -1.90595 3.79307 0
M  V30 4781 C 454.26 -0.793814 5.86048 0
M  V30 4782 H 453.19 -0.25474 0.709665 0
M  V30 4783 H 455.841 0.0722206 1.83358 0
M  V30 4784 H 454.223 -2.04152 3.3932 0
M  V30 4785 H 455.397 0.562463 4.57354 0
M  V30 4786 H 453.712 0.350889 4.14919 0
M  V30 4787 H 456.309 -2.35284 4.80151 0
M  V30 4788 H 456.652 -2.74074 3.13352 0
M  V30 4789 H 457.185 -1.17798 3.79958 0
M  V30 4790 H 453.924 0.00240855 6.555 0
M  V30 4791 H 453.444 -1.53404 5.79851 0
M  V30 4792 H 455.123 -1.2894 6.34022 0
M  V30 4793 N 455.255 -1.55392 -0.262866 0
M  V30 4794 C 456.218 -1.88181 -1.30846 0
M  V30 4795 C 457.218 -0.757079 -1.41862 0
M  V30 4796 O 458.408 -1.02519 -1.40838 0
M  V30 4797 C 455.54 -2.09609 -2.68844 0
M  V30 4798 H 456.733 -2.81659 -1.02997 0
M  V30 4799 H 454.286 -1.48039 -0.501414 0
M  V30 4800 H 455.021 -1.18547 -3.01856 0
M  V30 4801 H 454.806 -2.91508 -2.62231 0
M  V30 4802 H 456.296 -2.36215 -3.44372 0
M  V30 4803 N 456.733 0.527833 -1.48498 0
M  V30 4804 C 458.144 1.10975 -1.50138 0
M  V30 4805 C 458.495 1.943 -0.272378 0
M  V30 4806 O 457.62 2.07319 0.620301 0
M  V30 4807 C 458.215 2.01927 -2.72049 0
M  V30 4808 C 456.774 2.55332 -2.76554 0
M  V30 4809 C 455.921 1.32341 -2.43683 0
M  V30 4810 H 458.872 0.312986 -1.55583 0
M  V30 4811 H 458.893 2.86244 -2.50689 0
M  V30 4812 H 458.405 1.41254 -3.61481 0
M  V30 4813 H 456.506 3.19721 -1.91336 0
M  V30 4814 H 456.619 2.94319 -3.78038 0
M  V30 4815 H 454.983 1.63989 -1.94884 0
M  V30 4816 H 455.766 0.734165 -3.35358 0
M  V30 4817 N 458.211 1.37122 0.776871 0
M  V30 4818 C 459.436 1.354 1.57104 0
M  V30 4819 C 459.861 -0.0595562 1.88006 0
M  V30 4820 O 459.219 -1.03514 1.48844 0
M  V30 4821 C 459.267 2.19472 2.8612 0
M  V30 4822 O 458.371 1.59582 3.80273 0
M  V30 4823 H 457.712 0.462869 0.476076 0
M  V30 4824 H 460.242 1.80577 0.961932 0
M  V30 4825 H 460.252 2.32502 3.35271 0
M  V30 4826 H 458.927 3.22222 2.62956 0
M  V30 4827 H 457.504 1.55564 3.38902 0
M  V30 4828 N 459.689 -1.00246 1.21608 0
M  V30 4829 C 460.914 -1.78167 1.06167 0
M  V30 4830 C 461.339 -1.84138 -0.384035 0
M  V30 4831 O 460.697 -1.28683 -1.27712 0
M  V30 4832 C 460.745 -3.19786 1.66642 0
M  V30 4833 O 459.849 -4.02153 0.913613 0
M  V30 4834 H 459.19 -0.549 0.37349 0
M  V30 4835 H 461.72 -1.25994 1.61204 0
M  V30 4836 H 461.73 -3.70451 1.70969 0
M  V30 4837 H 460.405 -3.14754 2.7185 0
M  V30 4838 H 458.982 -3.60711 0.945635 0
M  V30 4839 N 461.167 -1.02423 -1.1978 0
M  V30 4840 C 462.578 -0.748389 -1.71044 0
M  V30 4841 C 462.929 0.732398 -1.82017 0
M  V30 4842 O 462.054 1.57116 -1.48807 0
M  V30 4843 C 462.649 -1.35187 -3.1066 0
M  V30 4844 C 461.208 -1.12472 -3.59203 0
M  V30 4845 C 460.355 -1.45283 -2.36195 0
M  V30 4846 H 463.306 -1.19275 -1.04686 0
M  V30 4847 H 463.327 -0.746408 -3.73107 0
M  V30 4848 H 462.839 -2.4296 -3.02642 0
M  V30 4849 H 460.94 -0.0649983 -3.72543 0
M  V30 4850 H 461.053 -1.81016 -4.43588 0
M  V30 4851 H 459.417 -0.872034 -2.39307 0
M  V30 4852 H 460.2 -2.54129 -2.30811 0
M  V30 4853 N 462.645 1.35699 -0.801477 0
M  V30 4854 C 463.87 2.03687 -0.390678 0
M  V30 4855 C 464.295 1.60015 0.988778 0
M  V30 4856 O 463.653 0.774357 1.63931 0
M  V30 4857 C 463.701 3.57439 -0.476404 0
M  V30 4858 O 462.805 4.09208 0.512106 0
M  V30 4859 H 462.146 0.64344 -0.163956 0
M  V30 4860 H 464.676 1.73403 -1.08594 0
M  V30 4861 H 464.686 4.06544 -0.344357 0
M  V30 4862 H 463.361 3.88576 -1.48262 0
M  V30 4863 H 461.938 3.7134 0.340721 0
M  V30 4864 N 464.123 0.554532 1.47522 0
M  V30 4865 C 465.534 0.120446 1.86311 0
M  V30 4866 C 465.885 -1.30904 1.46145 0
M  V30 4867 O 465.01 -1.98434 0.863294 0
M  V30 4868 C 465.605 0.211808 3.38137 0
M  V30 4869 C 464.164 -0.167224 3.76028 0
M  V30 4870 C 463.311 0.560576 2.71575 0
M  V30 4871 H 466.262 0.764408 1.39077 0
M  V30 4872 H 466.283 -0.570275 3.76202 0
M  V30 4873 H 465.795 1.25232 3.6734 0
M  V30 4874 H 463.896 -1.20894 3.52442 0
M  V30 4875 H 464.009 0.189473 4.78725 0
M  V30 4876 H 462.373 0.00396836 2.547 0
M  V30 4877 H 463.156 1.60219 3.0362 0
M  V30 4878 N 465.601 -1.54893 0.290851 0
M  V30 4879 C 466.533 -2.20564 -0.623236 0
M  V30 4880 C 467.546 -1.19519 -1.1054 0
M  V30 4881 O 468.735 -1.46165 -1.02459 0
M  V30 4882 C 465.835 -2.83033 -1.86401 0
M  V30 4883 C 465.008 -4.09916 -1.52604 0
M  V30 4884 C 464.067 -4.56284 -2.62091 0
M  V30 4885 O 463.093 -5.2171 -2.27612 0
M  V30 4886 N 464.295 -4.27746 -3.92446 0
M  V30 4887 H 467.06 -2.99638 -0.0610915 0
M  V30 4888 H 464.621 -1.61508 0.112615 0
M  V30 4889 H 466.613 -3.1099 -2.58973 0
M  V30 4890 H 465.183 -2.0786 -2.33481 0
M  V30 4891 H 464.403 -3.89078 -0.633424 0
M  V30 4892 H 465.691 -4.92554 -1.27547 0
M  V30 4893 H 465.089 -3.7531 -4.23272 0
M  V30 4894 H 463.646 -4.60437 -4.61347 0
M  V30 4895 N 467.08 -0.0183926 -1.57589 0
M  V30 4896 C 468.326 0.663543 -1.91638 0
M  V30 4897 C 468.659 1.72392 -0.894134 0
M  V30 4898 O 467.934 1.94316 0.0846449 0
M  V30 4899 C 468.217 1.28984 -3.36207 0
M  V30 4900 C 468.07 0.239761 -4.49161 0
M  V30 4901 C 469.389 2.2109 -3.80536 0
M  V30 4902 H 466.508 0.239746 -0.696915 0
M  V30 4903 H 469.15 -0.073456 -1.89858 0
M  V30 4904 H 467.3 1.91799 -3.37854 0
M  V30 4905 H 468.972 -0.390119 -4.59647 0
M  V30 4906 H 467.215 -0.435972 -4.31604 0
M  V30 4907 H 467.886 0.717383 -5.47319 0
M  V30 4908 H 470.362 1.68273 -3.80557 0
M  V30 4909 H 469.238 2.61869 -4.82406 0
M  V30 4910 H 469.499 3.09764 -3.15434 0
M  V30 4911 N 468.558 1.5553 0.254621 0
M  V30 4912 C 469.488 1.9268 1.31897 0
M  V30 4913 C 470.469 0.790797 1.506 0
M  V30 4914 O 471.654 1.05045 1.63337 0
M  V30 4915 C 468.784 2.21477 2.67517 0
M  V30 4916 C 467.738 3.37256 2.63519 0
M  V30 4917 C 467.064 3.51576 4.02862 0
M  V30 4918 C 468.364 4.73157 2.21179 0
M  V30 4919 H 470.058 2.81832 1.01051 0
M  V30 4920 H 467.604 1.35599 0.484662 0
M  V30 4921 H 469.557 2.46055 3.42104 0
M  V30 4922 H 468.281 1.29144 2.99982 0
M  V30 4923 H 466.94 3.12675 1.9139 0
M  V30 4924 H 466.588 2.56676 4.32581 0
M  V30 4925 H 466.288 4.2943 4.01078 0
M  V30 4926 H 467.812 3.78467 4.79161 0
M  V30 4927 H 469.226 4.97158 2.85494 0
M  V30 4928 H 467.623 5.54058 2.30521 0
M  V30 4929 H 468.693 4.70739 1.16332 0
M  V30 4930 N 470.036 -0.519951 1.48776 0
M  V30 4931 C 470.999 -1.60574 1.6355 0
M  V30 4932 C 471.999 -1.52557 0.508234 0
M  V30 4933 O 473.189 -1.56047 0.774262 0
M  V30 4934 C 470.321 -3.00211 1.61512 0
M  V30 4935 H 471.514 -1.4881 2.60376 0
M  V30 4936 H 469.067 -0.742772 1.37523 0
M  V30 4937 H 469.802 -3.17471 0.662009 0
M  V30 4938 H 469.587 -3.07439 2.43359 0
M  V30 4939 H 471.077 -3.79134 1.75064 0
M  V30 4940 N 471.514 -1.37532 -0.769588 0
M  V30 4941 C 472.446 -1.29347 -1.89214 0
M  V30 4942 C 473.459 -0.208842 -1.61455 0
M  V30 4943 O 474.648 -0.465158 -1.72333 0
M  V30 4944 C 471.748 -0.977649 -3.24492 0
M  V30 4945 C 470.921 -2.16817 -3.7988 0
M  V30 4946 C 469.98 -1.82229 -4.93639 0
M  V30 4947 O 469.006 -2.54548 -5.09111 0
M  V30 4948 N 470.208 -0.767696 -5.75401 0
M  V30 4949 H 472.973 -2.26073 -1.96751 0
M  V30 4950 H 470.534 -1.31185 -0.948795 0
M  V30 4951 H 472.526 -0.727065 -3.98115 0
M  V30 4952 H 471.096 -0.0988777 -3.12444 0
M  V30 4953 H 470.316 -2.58038 -2.9801 0
M  V30 4954 H 471.604 -2.96308 -4.13617 0
M  V30 4955 H 471.002 -0.167626 -5.65452 0
M  V30 4956 H 469.559 -0.576973 -6.49241 0
M  V30 4957 N 472.992 0.995999 -1.22138 0
M  V30 4958 C 473.939 2.08551 -0.988687 0
M  V30 4959 C 474.909 1.65864 0.0885021 0
M  V30 4960 O 476.094 1.90704 -0.0604589 0
M  V30 4961 C 473.234 3.40374 -0.569191 0
M  V30 4962 C 472.347 3.96421 -1.71681 0
M  V30 4963 C 471.482 5.1639 -1.2456 0
M  V30 4964 C 470.521 5.64567 -2.36497 0
M  V30 4965 N 469.658 6.75777 -1.90445 0
M  V30 4966 H 474.498 2.2779 -1.92135 0
M  V30 4967 H 472.035 1.1168 -0.957388 0
M  V30 4968 H 473.993 4.16068 -0.307166 0
M  V30 4969 H 472.623 3.21145 0.326462 0
M  V30 4970 H 471.675 3.17628 -2.09324 0
M  V30 4971 H 472.987 4.2816 -2.55891 0
M  V30 4972 H 472.141 5.99362 -0.940774 0
M  V30 4973 H 470.88 4.86266 -0.373662 0
M  V30 4974 H 469.885 4.80185 -2.67772 0
M  V30 4975 H 471.11 5.96716 -3.24202 0
M  V30 4976 H 469.056 6.47443 -1.05609 0
M  V30 4977 H 468.973 7.06818 -2.68223 0
M  V30 4978 H 470.241 7.62262 -1.63022 0
M  V30 4979 N 474.47 1.03057 1.19235 0
M  V30 4980 C 475.7 0.746613 1.92638 0
M  V30 4981 C 476.108 -0.698708 1.75826 0
M  V30 4982 O 475.451 -1.487 1.07861 0
M  V30 4983 C 475.513 1.02024 3.44719 0
M  V30 4984 C 475.177 2.45745 3.85303 0
M  V30 4985 C 476.174 3.43887 3.8992 0
M  V30 4986 C 473.859 2.8019 4.16892 0
M  V30 4987 C 475.853 4.74529 4.2556 0
M  V30 4988 C 473.54 4.1104 4.52205 0
M  V30 4989 C 474.538 5.0802 4.56513 0
M  V30 4990 O 474.226 6.36527 4.91008 0
M  V30 4991 H 473.958 0.272401 0.618687 0
M  V30 4992 H 476.512 1.37853 1.52269 0
M  V30 4993 H 474.742 0.331184 3.85279 0
M  V30 4994 H 476.431 0.725677 3.9936 0
M  V30 4995 H 477.197 3.18614 3.65664 0
M  V30 4996 H 473.076 2.05382 4.12722 0
M  V30 4997 H 476.62 5.50222 4.28838 0
M  V30 4998 H 472.517 4.36086 4.7592 0
M  V30 4999 H 473.285 6.41025 5.08949 0
M  V30 5000 N 475.948 -1.35272 0.808662 0
M  V30 5001 C 477.173 -2.03477 0.401475 0
M  V30 5002 C 477.598 -1.60537 -0.980279 0
M  V30 5003 O 476.956 -0.78304 -1.63518 0
M  V30 5004 C 477.004 -3.57181 0.495354 0
M  V30 5005 O 476.108 -4.09474 -0.490397 0
M  V30 5006 H 475.449 -0.642561 0.167366 0
M  V30 5007 H 477.979 -1.72824 1.09512 0
M  V30 5008 H 477.989 -4.06356 0.365912 0
M  V30 5009 H 476.664 -3.87784 1.5032 0
M  V30 5010 H 475.241 -3.71516 -0.321023 0
M  V30 5011 N 477.426 -0.562348 -1.47226 0
M  V30 5012 C 478.356 0.170627 -2.32876 0
M  V30 5013 C 479.337 0.903748 -1.44106 0
M  V30 5014 O 480.522 0.883206 -1.72954 0
M  V30 5015 C 477.652 1.19786 -3.25989 0
M  V30 5016 C 476.606 0.580875 -4.2404 0
M  V30 5017 C 475.932 1.71311 -5.06514 0
M  V30 5018 C 477.232 -0.468714 -5.20193 0
M  V30 5019 H 478.926 -0.544441 -2.94408 0
M  V30 5020 H 476.472 -0.263271 -1.41573 0
M  V30 5021 H 478.425 1.71884 -3.84752 0
M  V30 5022 H 477.149 1.94294 -2.62521 0
M  V30 5023 H 475.808 0.0811538 -3.6651 0
M  V30 5024 H 475.456 2.44736 -4.39447 0
M  V30 5025 H 475.156 1.30604 -5.72902 0
M  V30 5026 H 476.68 2.23725 -5.68137 0
M  V30 5027 H 478.094 -0.0336028 -5.7329 0
M  V30 5028 H 476.491 -0.794957 -5.94811 0
M  V30 5029 H 477.561 -1.36269 -4.65359 0
M  V30 5030 N 478.904 1.54736 -0.299062 0
M  V30 5031 C 480.15 2.00397 0.311244 0
M  V30 5032 C 480.483 1.18716 1.53688 0
M  V30 5033 O 479.758 0.263154 1.92712 0
M  V30 5034 C 480.041 3.53817 0.669761 0
M  V30 5035 C 479.894 4.46239 -0.564882 0
M  V30 5036 C 481.213 4.13856 1.49702 0
M  V30 5037 H 478.332 0.728493 0.111653 0
M  V30 5038 H 480.974 1.85506 -0.410774 0
M  V30 5039 H 479.124 3.66637 1.28491 0
M  V30 5040 H 480.796 4.45328 -1.20337 0
M  V30 5041 H 479.039 4.16916 -1.19849 0
M  V30 5042 H 479.71 5.5134 -0.269918 0
M  V30 5043 H 482.186 4.04461 0.977284 0
M  V30 5044 H 481.062 5.21365 1.71666 0
M  V30 5045 H 481.323 3.65608 2.48563 0
M  V30 5046 N 480.382 0.0267497 1.57577 0
M  V30 5047 C 481.345 -0.940916 2.08996 0
M  V30 5048 C 482.345 -1.25561 1.00455 0
M  V30 5049 O 483.535 -1.19634 1.26623 0
M  V30 5050 C 480.667 -2.25814 2.55384 0
M  V30 5051 H 481.86 -0.495628 2.95776 0
M  V30 5052 H 479.413 -0.221241 1.54726 0
M  V30 5053 H 480.148 -2.74976 1.71926 0
M  V30 5054 H 479.933 -2.04285 3.34679 0
M  V30 5055 H 481.423 -2.95178 2.95398 0
M  V30 5056 N 481.861 -1.55662 -0.24637 0
M  V30 5057 C 482.808 -1.90361 -1.30504 0
M  V30 5058 C 483.778 -0.757905 -1.47801 0
M  V30 5059 O 484.963 -1.01161 -1.61775 0
M  V30 5060 C 482.103 -2.2042 -2.65535 0
M  V30 5061 C 481.216 -3.47799 -2.56242 0
M  V30 5062 C 480.351 -3.67426 -3.8363 0
M  V30 5063 C 479.39 -4.88403 -3.68956 0
M  V30 5064 N 478.527 -5.04548 -4.88237 0
M  V30 5065 H 483.367 -2.80645 -1.00213 0
M  V30 5066 H 480.904 -1.38924 -0.483577 0
M  V30 5067 H 482.862 -2.35853 -3.44135 0
M  V30 5068 H 481.492 -1.3334 -2.93973 0
M  V30 5069 H 480.544 -3.40694 -1.69208 0
M  V30 5070 H 481.856 -4.36544 -2.4131 0
M  V30 5071 H 481.01 -3.82821 -4.70673 0
M  V30 5072 H 479.749 -2.76914 -4.01459 0
M  V30 5073 H 478.754 -4.72984 -2.80296 0
M  V30 5074 H 479.979 -5.80375 -3.52621 0
M  V30 5075 H 477.925 -4.16974 -5.06427 0
M  V30 5076 H 477.842 -5.87384 -4.75937 0
M  V30 5077 H 479.11 -5.24355 -5.76777 0
M  V30 5078 N 483.339 0.512053 -1.4905 0
M  V30 5079 C 484.271 1.63121 -1.6101 0
M  V30 5080 C 485.284 1.55145 -0.493352 0
M  V30 5081 O 486.473 1.61278 -0.764955 0
M  V30 5082 C 483.573 3.01863 -1.54052 0
M  V30 5083 C 482.746 3.35138 -2.81072 0
M  V30 5084 C 481.805 4.5324 -2.67319 0
M  V30 5085 O 480.831 4.55571 -3.41238 0
M  V30 5086 N 482.033 5.52495 -1.78127 0
M  V30 5087 H 484.798 1.53292 -2.5753 0
M  V30 5088 H 482.359 0.699706 -1.45999 0
M  V30 5089 H 484.351 3.78774 -1.42521 0
M  V30 5090 H 482.921 3.05675 -0.654345 0
M  V30 5091 H 482.141 2.4723 -3.07036 0
M  V30 5092 H 483.429 3.54162 -3.65304 0
M  V30 5093 H 482.827 5.53403 -1.17308 0
M  V30 5094 H 481.384 6.28553 -1.72525 0
M  V30 5095 N 484.817 1.37938 0.762283 0
M  V30 5096 C 485.727 1.36681 1.90671 0
M  V30 5097 C 486.743 0.265078 1.71969 0
M  V30 5098 O 487.919 0.502055 1.95042 0
M  V30 5099 C 484.984 1.18211 3.25925 0
M  V30 5100 C 484.045 2.3811 3.57214 0
M  V30 5101 C 483.278 2.20512 4.86014 0
M  V30 5102 O 483.501 1.19429 5.57757 0
M  V30 5103 O 482.435 3.08911 5.16583 0
M  V30 5104 H 486.261 2.33091 1.94685 0
M  V30 5105 H 483.846 1.18767 0.906356 0
M  V30 5106 H 485.728 1.09937 4.06807 0
M  V30 5107 H 484.403 0.248807 3.22742 0
M  V30 5108 H 483.31 2.51958 2.76529 0
M  V30 5109 H 484.643 3.30041 3.65149 0
M  V30 5110 N 486.295 -0.989507 1.22664 0
M  V30 5111 C 487.52 -1.77031 1.08051 0
M  V30 5112 C 487.945 -1.84535 -0.364483 0
M  V30 5113 O 487.303 -1.3003 -1.2634 0
M  V30 5114 C 487.351 -3.18 1.70024 0
M  V30 5115 O 486.455 -4.01161 0.956216 0
M  V30 5116 H 485.796 -0.545008 0.379292 0
M  V30 5117 H 488.326 -1.24277 1.62531 0
M  V30 5118 H 488.336 -3.68616 1.74888 0
M  V30 5119 H 487.011 -3.11853 2.75174 0
M  V30 5120 H 485.588 -3.59687 0.98384 0
M  V30 5121 N 487.773 -1.03688 -1.18687 0
M  V30 5122 C 489.019 -0.739123 -1.88851 0
M  V30 5123 C 489.352 0.731042 -1.79915 0
M  V30 5124 O 488.627 1.53313 -1.19688 0
M  V30 5125 C 488.91 -1.20106 -3.3948 0
M  V30 5126 C 488.763 -2.73304 -3.57246 0
M  V30 5127 C 490.082 -0.788134 -4.32986 0
M  V30 5128 H 487.201 -0.269978 -0.68577 0
M  V30 5129 H 489.843 -1.28822 -1.3966 0
M  V30 5130 H 487.993 -0.733915 -3.81505 0
M  V30 5131 H 489.665 -3.28027 -3.24339 0
M  V30 5132 H 487.908 -3.13313 -3.00029 0
M  V30 5133 H 488.579 -3.00684 -4.62918 0
M  V30 5134 H 491.055 -1.19005 -3.98719 0
M  V30 5135 H 489.931 -1.13915 -5.36949 0
M  V30 5136 H 490.192 0.308988 -4.41019 0
M  V30 5137 N 489.251 1.34841 -0.815825 0
M  V30 5138 C 490.497 1.98793 -0.401129 0
M  V30 5139 C 490.83 1.64548 1.03139 0
M  V30 5140 O 490.105 0.913487 1.71714 0
M  V30 5141 C 490.388 3.55143 -0.595409 0
M  V30 5142 C 490.241 3.99155 -2.07352 0
M  V30 5143 C 491.56 4.40092 -0.0268823 0
M  V30 5144 H 488.679 0.722146 -0.14722 0
M  V30 5145 H 491.321 1.59847 -1.02707 0
M  V30 5146 H 489.471 3.8845 -0.0625779 0
M  V30 5147 H 491.143 3.76216 -2.66945 0
M  V30 5148 H 489.386 3.49726 -2.56659 0
M  V30 5149 H 490.057 5.07971 -2.1603 0
M  V30 5150 H 492.533 4.13298 -0.482042 0
M  V30 5151 H 491.409 5.48562 -0.19267 0
M  V30 5152 H 491.67 4.29016 1.06759 0
M  V30 5153 N 490.729 0.570148 1.46925 0
M  V30 5154 C 492.145 0.23087 1.57921 0
M  V30 5155 C 492.345 -1.26676 1.56702 0
M  V30 5156 O 491.401 -2.04774 1.47729 0
M  V30 5157 C 492.714 0.868973 2.8787 0
M  V30 5158 C 494.262 0.841397 3.01479 0
M  V30 5159 C 494.737 1.45881 4.34146 0
M  V30 5160 N 496.228 1.42258 4.40814 0
M  V30 5161 C 496.963 1.8698 5.42057 0
M  V30 5162 N 496.459 2.39618 6.50042 0
M  V30 5163 N 498.252 1.77972 5.33181 0
M  V30 5164 H 490.403 1.54301 1.45962 0
M  V30 5165 H 492.666 0.644224 0.69547 0
M  V30 5166 H 492.372 1.922 2.94537 0
M  V30 5167 H 492.246 0.369682 3.75384 0
M  V30 5168 H 494.633 -0.202973 2.94401 0
M  V30 5169 H 494.714 1.37858 2.15474 0
M  V30 5170 H 494.358 2.50231 4.4198 0
M  V30 5171 H 494.288 0.896958 5.18905 0
M  V30 5172 H 496.779 1.03768 3.63374 0
M  V30 5173 H 497.092 2.71633 7.23488 0
M  V30 5174 H 495.437 2.43636 6.50897 0
M  V30 5175 H 498.628 1.36617 4.4772 0
M  V30 5176 H 498.801 2.13143 6.11943 0
M  V30 5177 N 492.207 -1.54576 0.307264 0
M  V30 5178 C 493.623 -1.59534 -0.0459251 0
M  V30 5179 C 493.823 -1.32414 -1.51884 0
M  V30 5180 O 492.879 -1.1006 -2.27251 0
M  V30 5181 C 494.192 -2.98566 0.357649 0
M  V30 5182 C 495.74 -3.11491 0.306937 0
M  V30 5183 C 496.215 -4.52842 0.685427 0
M  V30 5184 N 497.706 -4.58782 0.638203 0
M  V30 5185 C 498.441 -5.66238 0.903458 0
M  V30 5186 N 497.937 -6.81703 1.23501 0
M  V30 5187 N 499.73 -5.55937 0.830102 0
M  V30 5188 H 491.881 -1.70464 1.26712 0
M  V30 5189 H 494.144 -0.79647 0.514139 0
M  V30 5190 H 493.85 -3.23356 1.38325 0
M  V30 5191 H 493.724 -3.76117 -0.285565 0
M  V30 5192 H 496.111 -2.86446 -0.709424 0
M  V30 5193 H 496.192 -2.36081 0.984861 0
M  V30 5194 H 495.836 -4.78618 1.69963 0
M  V30 5195 H 495.766 -5.26598 -0.0146346 0
M  V30 5196 H 498.257 -3.75849 0.393138 0
M  V30 5197 H 498.57 -7.59582 1.42322 0
M  V30 5198 H 496.915 -6.8324 1.27311 0
M  V30 5199 H 500.106 -4.64608 0.570693 0
M  V30 5200 H 500.279 -6.39597 1.04019 0
M  V30 5201 N 493.685 -0.035106 -1.57561 0
M  V30 5202 C 494.648 0.929819 -2.09492 0
M  V30 5203 C 495.648 1.25026 -1.01119 0
M  V30 5204 O 496.838 1.18961 -1.27255 0
M  V30 5205 C 493.97 2.24457 -2.56577 0
M  V30 5206 H 495.163 0.479935 -2.96035 0
M  V30 5207 H 492.716 0.213033 -1.54841 0
M  V30 5208 H 493.451 2.74061 -1.73382 0
M  V30 5209 H 493.236 2.02508 -3.35757 0
M  V30 5210 H 494.726 2.93607 -2.96959 0
M  V30 5211 N 495.163 1.55791 0.238111 0
M  V30 5212 C 496.388 1.8244 0.986432 0
M  V30 5213 C 496.813 0.613314 1.7782 0
M  V30 5214 O 496.171 -0.437767 1.75935 0
M  V30 5215 C 496.219 3.06917 1.893 0
M  V30 5216 O 495.323 2.84449 2.98601 0
M  V30 5217 H 494.664 0.601975 0.280218 0
M  V30 5218 H 497.194 2.02987 0.256437 0
M  V30 5219 H 497.204 3.36583 2.30598 0
M  V30 5220 H 495.879 3.947 1.31091 0
M  V30 5221 H 494.456 2.65972 2.61368 0
M  V30 5222 N 496.642 -0.504142 1.49319 0
M  V30 5223 C 498.058 -0.835039 1.36012 0
M  V30 5224 C 498.258 -1.97674 0.390808 0
M  V30 5225 O 497.314 -2.51867 -0.178655 0
M  V30 5226 C 498.627 -1.17821 2.76656 0
M  V30 5227 C 500.175 -1.2866 2.85334 0
M  V30 5228 C 500.65 -1.66307 4.26739 0
M  V30 5229 N 502.141 -1.73362 4.29534 0
M  V30 5230 C 502.876 -2.0393 5.35911 0
M  V30 5231 N 502.372 -2.32744 6.52535 0
M  V30 5232 N 504.165 -2.05155 5.23324 0
M  V30 5233 H 496.316 0.248764 2.10938 0
M  V30 5234 H 498.579 0.0486962 0.946748 0
M  V30 5235 H 498.285 -0.412682 3.4927 0
M  V30 5236 H 498.159 -2.12239 3.11825 0
M  V30 5237 H 500.546 -2.04285 2.1296 0
M  V30 5238 H 500.627 -0.323004 2.53752 0
M  V30 5239 H 500.271 -0.91234 4.99639 0
M  V30 5240 H 500.201 -2.63761 4.55782 0
M  V30 5241 H 502.692 -1.53268 3.45424 0
M  V30 5242 H 503.005 -2.55248 7.2943 0
M  V30 5243 H 501.35 -2.30207 6.55767 0
M  V30 5244 H 504.541 -1.82119 4.3122 0
M  V30 5245 H 504.714 -2.28644 6.06322 0
M  V30 5246 N 498.12 -1.38341 -0.754957 0
M  V30 5247 C 499.536 -1.19508 -1.05783 0
M  V30 5248 C 499.736 -0.0428005 -2.01455 0
M  V30 5249 O 498.792 0.611861 -2.44975 0
M  V30 5250 C 500.105 -2.52091 -1.63923 0
M  V30 5251 C 501.653 -2.58762 -1.76101 0
M  V30 5252 C 502.128 -3.91517 -2.37652 0
M  V30 5253 N 503.619 -3.93049 -2.45085 0
M  V30 5254 C 504.354 -4.9253 -2.93602 0
M  V30 5255 N 503.85 -6.02408 -3.42165 0
M  V30 5256 N 505.643 -4.79921 -2.92629 0
M  V30 5257 H 497.794 -2.1206 -0.120056 0
M  V30 5258 H 500.057 -0.94089 -0.11589 0
M  V30 5259 H 499.763 -3.36858 -1.01093 0
M  V30 5260 H 499.637 -2.70388 -2.63003 0
M  V30 5261 H 502.024 -1.74391 -2.38058 0
M  V30 5262 H 502.105 -2.44333 -0.757294 0
M  V30 5263 H 501.749 -4.76309 -1.76329 0
M  V30 5264 H 501.679 -4.03256 -3.38662 0
M  V30 5265 H 504.17 -3.13685 -2.10736 0
M  V30 5266 H 504.483 -6.74248 -3.77637 0
M  V30 5267 H 502.828 -6.0603 -3.40225 0
M  V30 5268 H 506.019 -3.93194 -2.54001 0
M  V30 5269 H 506.192 -5.57601 -3.30128 0
M  V30 5270 N 499.598 0.982988 -1.23187 0
M  V30 5271 C 500.528 2.09301 -1.03515 0
M  V30 5272 C 501.509 1.70035 0.0471136 0
M  V30 5273 O 502.694 1.93847 -0.117029 0
M  V30 5274 C 499.824 3.4167 -0.622791 0
M  V30 5275 C 498.778 3.94828 -1.65211 0
M  V30 5276 C 498.104 5.23362 -1.09527 0
M  V30 5277 C 499.404 4.2439 -3.04451 0
M  V30 5278 H 501.098 2.26016 -1.96359 0
M  V30 5279 H 498.644 1.08611 -0.945501 0
M  V30 5280 H 500.597 4.18746 -0.472233 0
M  V30 5281 H 499.321 3.24811 0.341329 0
M  V30 5282 H 497.98 3.19895 -1.79061 0
M  V30 5283 H 497.628 5.02852 -0.122211 0
M  V30 5284 H 497.328 5.59895 -1.783 0
M  V30 5285 H 498.852 6.03062 -0.956511 0
M  V30 5286 H 500.266 4.92225 -2.93917 0
M  V30 5287 H 498.663 4.72118 -3.70438 0
M  V30 5288 H 499.733 3.31765 -3.53638 0
M  V30 5289 N 501.076 1.04316 1.18135 0
M  V30 5290 C 502.039 0.640794 2.2006 0
M  V30 5291 C 503.039 -0.303124 1.57917 0
M  V30 5292 O 504.229 -0.0881855 1.73977 0
M  V30 5293 C 501.361 -0.060148 3.40847 0
M  V30 5294 H 502.554 1.54281 2.57172 0
M  V30 5295 H 500.107 0.836004 1.32063 0
M  V30 5296 H 500.842 -0.975845 3.0927 0
M  V30 5297 H 500.627 0.618319 3.87194 0
M  V30 5298 H 502.117 -0.328082 4.16309 0
M  V30 5299 N 502.554 -1.34406 0.822964 0
M  V30 5300 C 503.501 -2.29519 0.24284 0
M  V30 5301 C 504.471 -1.5359 -0.632397 0
M  V30 5302 O 505.656 -1.8196 -0.57403 0
M  V30 5303 C 502.796 -3.40032 -0.58925 0
M  V30 5304 C 501.909 -4.30899 0.308236 0
M  V30 5305 C 501.044 -5.28515 -0.533425 0
M  V30 5306 C 500.083 -6.1102 0.363444 0
M  V30 5307 N 499.22 -7.00725 -0.439147 0
M  V30 5308 H 504.06 -2.78537 1.05929 0
M  V30 5309 H 501.597 -1.3707 0.533872 0
M  V30 5310 H 503.555 -4.0279 -1.087 0
M  V30 5311 H 502.185 -2.92248 -1.37081 0
M  V30 5312 H 501.237 -3.69002 0.924203 0
M  V30 5313 H 502.549 -4.88717 0.997862 0
M  V30 5314 H 501.703 -5.96725 -1.09565 0
M  V30 5315 H 500.442 -4.71235 -1.25656 0
M  V30 5316 H 499.447 -5.41743 0.937812 0
M  V30 5317 H 500.672 -6.70381 1.08469 0
M  V30 5318 H 498.618 -6.45913 -1.14595 0
M  V30 5319 H 498.535 -7.55756 0.19209 0
M  V30 5320 H 499.803 -7.73263 -0.984124 0
M  V30 5321 N 504.032 -0.577932 -1.46621 0
M  V30 5322 C 504.979 0.158048 -2.30258 0
M  V30 5323 C 505.949 0.888669 -1.40328 0
M  V30 5324 O 507.134 0.880283 -1.6928 0
M  V30 5325 C 504.274 1.16884 -3.24703 0
M  V30 5326 C 503.387 0.442163 -4.29731 0
M  V30 5327 C 502.522 1.44007 -5.11308 0
M  V30 5328 C 501.561 0.69952 -6.0809 0
M  V30 5329 N 500.698 1.64525 -6.82551 0
M  V30 5330 H 505.538 -0.561242 -2.92667 0
M  V30 5331 H 503.075 -0.288591 -1.44241 0
M  V30 5332 H 505.033 1.7677 -3.779 0
M  V30 5333 H 503.663 1.85591 -2.64113 0
M  V30 5334 H 502.715 -0.271632 -3.79429 0
M  V30 5335 H 504.027 -0.136992 -4.98612 0
M  V30 5336 H 503.181 2.11186 -5.68758 0
M  V30 5337 H 501.92 2.05315 -4.42377 0
M  V30 5338 H 500.925 0.0139217 -5.49798 0
M  V30 5339 H 502.15 0.091894 -6.79038 0
M  V30 5340 H 500.096 2.24653 -6.16334 0
M  V30 5341 H 500.013 1.11878 -7.47676 0
M  V30 5342 H 501.281 2.30754 -7.44562 0
M  V30 5343 N 505.51 1.54411 -0.315457 0
M  V30 5344 C 506.738 2.04833 0.291738 0
M  V30 5345 C 507.153 1.19203 1.46411 0
M  V30 5346 O 506.51 0.220867 1.81159 0
M  V30 5347 C 506.561 3.53969 0.73404 0
M  V30 5348 O 506.282 4.36346 -0.391682 0
M  V30 5349 C 507.783 4.2045 1.40489 0
M  V30 5350 H 505.003 0.668195 0.0612947 0
M  V30 5351 H 507.547 1.99276 -0.45929 0
M  V30 5352 H 505.702 3.5984 1.43506 0
M  V30 5353 H 506.116 5.24481 -0.0447088 0
M  V30 5354 H 507.59 5.26278 1.66539 0
M  V30 5355 H 508.067 3.71067 2.3496 0
M  V30 5356 H 508.673 4.18694 0.746662 0
M  V30 5357 N 506.988 0.0434614 1.5754 0
M  V30 5358 C 507.951 -0.918696 2.09982 0
M  V30 5359 C 508.951 -1.24488 1.01781 0
M  V30 5360 O 510.141 -1.18284 1.27885 0
M  V30 5361 C 507.273 -2.23093 2.57764 0
M  V30 5362 H 508.466 -0.464229 2.96285 0
M  V30 5363 H 506.019 -0.204818 1.54952 0
M  V30 5364 H 506.754 -2.73137 1.74832 0
M  V30 5365 H 506.539 -2.00724 3.36827 0
M  V30 5366 H 508.029 -2.92028 2.98512 0
M  V30 5367 N 508.466 -1.55915 -0.229846 0
M  V30 5368 C 509.376 -1.94891 -1.30593 0
M  V30 5369 C 510.392 -0.851604 -1.51736 0
M  V30 5370 O 511.568 -1.15447 -1.65027 0
M  V30 5371 C 508.633 -2.25052 -2.63728 0
M  V30 5372 C 507.694 -3.48306 -2.5096 0
M  V30 5373 C 506.927 -3.77019 -3.77747 0
M  V30 5374 O 507.15 -3.07534 -4.80395 0
M  V30 5375 O 506.084 -4.70523 -3.75356 0
M  V30 5376 H 509.91 -2.86581 -1.00525 0
M  V30 5377 H 507.495 -1.43017 -0.432025 0
M  V30 5378 H 509.377 -2.45682 -3.42372 0
M  V30 5379 H 508.052 -1.36538 -2.93495 0
M  V30 5380 H 506.959 -3.32964 -1.70546 0
M  V30 5381 H 508.292 -4.37177 -2.26136 0
M  V30 5382 N 509.944 0.496216 -1.49584 0
M  V30 5383 C 510.854 1.62352 -1.69349 0
M  V30 5384 C 511.87 1.64184 -0.576147 0
M  V30 5385 O 513.046 1.82517 -0.85144 0
M  V30 5386 C 510.111 2.98698 -1.76013 0
M  V30 5387 C 509.172 3.07454 -2.99617 0
M  V30 5388 C 508.405 4.37296 -3.05953 0
M  V30 5389 O 508.628 5.2637 -2.19752 0
M  V30 5390 O 507.562 4.51124 -3.9846 0
M  V30 5391 H 511.388 1.48606 -2.64859 0
M  V30 5392 H 508.973 0.673022 -1.33382 0
M  V30 5393 H 510.855 3.79725 -1.82721 0
M  V30 5394 H 509.53 3.12696 -0.836828 0
M  V30 5395 H 508.437 2.25597 -2.98424 0
M  V30 5396 H 509.77 2.98385 -3.91443 0
M  V30 5397 N 511.423 1.38739 0.74761 0
M  V30 5398 C 512.834 1.31507 1.32524 0
M  V30 5399 C 513.185 -0.0263963 1.96182 0
M  V30 5400 O 512.31 -0.92849 1.95469 0
M  V30 5401 C 512.905 2.38162 2.40966 0
M  V30 5402 C 511.464 2.34489 2.94434 0
M  V30 5403 C 510.611 2.20712 1.67873 0
M  V30 5404 H 513.562 1.4901 0.546043 0
M  V30 5405 H 513.583 2.04222 3.21051 0
M  V30 5406 H 513.095 3.35783 1.94605 0
M  V30 5407 H 511.196 1.40467 3.45108 0
M  V30 5408 H 511.309 3.28861 3.48407 0
M  V30 5409 H 509.673 1.67667 1.91729 0
M  V30 5410 H 510.456 3.20285 1.23582 0
M  V30 5411 N 512.901 -0.976442 1.23707 0
M  V30 5412 C 513.864 -2.0511 1.02287 0
M  V30 5413 C 514.864 -1.60791 -0.0167195 0
M  V30 5414 O 516.054 -1.72761 0.223408 0
M  V30 5415 C 513.186 -3.36458 0.548507 0
M  V30 5416 H 514.379 -2.25545 1.9766 0
M  V30 5417 H 511.932 -1.15042 1.05806 0
M  V30 5418 H 512.667 -3.21713 -0.408818 0
M  V30 5419 H 512.452 -3.69967 1.29874 0
M  V30 5420 H 513.942 -4.15489 0.419406 0
M  V30 5421 N 514.379 -1.04941 -1.1758 0
M  V30 5422 C 515.342 -0.652456 -2.19717 0
M  V30 5423 C 516.342 0.294745 -1.58076 0
M  V30 5424 O 517.532 0.0789579 -1.74021 0
M  V30 5425 C 514.664 0.0420712 -3.40874 0
M  V30 5426 H 515.857 -1.55642 -2.5635 0
M  V30 5427 H 513.41 -0.842995 -1.31618 0
M  V30 5428 H 514.145 0.95943 -3.09783 0
M  V30 5429 H 513.93 -0.638844 -3.86861 0
M  V30 5430 H 515.42 0.306 -4.16477 0
M  V30 5431 N 515.857 1.33968 -0.830081 0
M  V30 5432 C 517.082 2.02813 -0.433796 0
M  V30 5433 C 517.507 1.62076 0.954614 0
M  V30 5434 O 516.865 0.808955 1.62252 0
M  V30 5435 C 516.913 3.56348 -0.552115 0
M  V30 5436 O 516.017 4.10202 0.425191 0
M  V30 5437 H 515.358 0.639817 -0.177567 0
M  V30 5438 H 517.888 1.7106 -1.12248 0
M  V30 5439 H 517.898 4.05722 -0.430513 0
M  V30 5440 H 516.573 3.85344 -1.56471 0
M  V30 5441 H 515.15 3.71979 0.261878 0
M  V30 5442 N 517.335 0.585699 1.46312 0
M  V30 5443 C 518.583 0.072278 2.01971 0
M  V30 5444 C 518.904 -1.29345 1.45928 0
M  V30 5445 O 518.174 -1.84973 0.645109 0
M  V30 5446 H 516.754 0.023729 0.746623 0
M  V30 5447 H 519.416 0.762155 1.7938 0
M  V30 5448 H 518.512 0.00552767 3.121 0
M  V30 5449 N 518.813 -1.54241 0.323641 0
M  V30 5450 C 520.229 -1.59574 -0.0290018 0
M  V30 5451 C 520.429 -1.34017 -1.50472 0
M  V30 5452 O 519.485 -1.12464 -2.26071 0
M  V30 5453 C 520.798 -2.98169 0.389295 0
M  V30 5454 C 522.346 -3.11148 0.339958 0
M  V30 5455 C 522.821 -4.5209 0.733418 0
M  V30 5456 N 524.312 -4.5808 0.686827 0
M  V30 5457 C 525.047 -5.65248 0.963464 0
M  V30 5458 N 524.543 -6.80355 1.30724 0
M  V30 5459 N 526.336 -5.55025 0.88902 0
M  V30 5460 H 518.487 -1.6911 1.28512 0
M  V30 5461 H 520.75 -0.790972 0.522558 0
M  V30 5462 H 520.456 -3.21871 1.41746 0
M  V30 5463 H 520.33 -3.76399 -0.245657 0
M  V30 5464 H 522.717 -2.87182 -0.679002 0
M  V30 5465 H 522.798 -2.35023 1.00985 0
M  V30 5466 H 522.442 -4.76788 1.75029 0
M  V30 5467 H 522.372 -5.26584 0.0412189 0
M  V30 5468 H 524.863 -3.75411 0.43298 0
M  V30 5469 H 525.176 -7.58029 1.5037 0
M  V30 5470 H 523.521 -6.81851 1.3455 0
M  V30 5471 H 526.712 -4.63977 0.619939 0
M  V30 5472 H 526.885 -6.38458 1.10797 0
M  V30 5473 N 520.291 -0.0518155 -1.57515 0
M  V30 5474 C 521.54 0.621286 -1.91893 0
M  V30 5475 C 521.853 1.71966 -0.932052 0
M  V30 5476 O 523.059 2.45096 -1.16791 0
M  V30 5477 C 521.515 1.15641 -3.40816 0
M  V30 5478 C 521.123 0.0901146 -4.47909 0
M  V30 5479 C 522.867 1.80472 -3.84227 0
M  V30 5480 C 520.774 0.638154 -5.87947 0
M  V30 5481 H 519.704 0.235835 -0.716169 0
M  V30 5482 H 522.355 -0.120809 -1.83102 0
M  V30 5483 H 520.737 1.95084 -3.44613 0
M  V30 5484 H 521.911 -0.683525 -4.55702 0
M  V30 5485 H 520.226 -0.460774 -4.13843 0
M  V30 5486 H 522.823 2.22471 -4.86221 0
M  V30 5487 H 523.166 2.65669 -3.20508 0
M  V30 5488 H 523.699 1.07683 -3.82948 0
M  V30 5489 H 520.438 -0.176202 -6.55263 0
M  V30 5490 H 519.958 1.37976 -5.83714 0
M  V30 5491 H 521.637 1.12085 -6.37217 0
M  V30 5492 N 521.769 1.56035 0.221574 0
M  V30 5493 C 523.018 1.78245 0.944016 0
M  V30 5494 C 523.331 0.620371 1.85501 0
M  V30 5495 O 524.537 0.726103 2.6161 0
M  V30 5496 C 522.993 3.15659 1.7288 0
M  V30 5497 C 522.601 4.39591 0.863942 0
M  V30 5498 C 524.345 3.47195 2.44246 0
M  V30 5499 C 522.252 5.6803 1.64607 0
M  V30 5500 H 521.182 0.664547 0.356222 0
M  V30 5501 H 523.833 1.8243 0.197904 0
M  V30 5502 H 522.215 3.0565 2.51781 0
M  V30 5503 H 523.389 4.60655 0.115464 0
M  V30 5504 H 521.704 4.15572 0.262407 0
M  V30 5505 H 524.301 4.40381 3.03263 0
M  V30 5506 H 524.644 2.69693 3.1713 0
M  V30 5507 H 525.177 3.58533 1.72334 0
M  V30 5508 H 521.916 6.48425 0.960507 0
M  V30 5509 H 521.436 5.51027 2.36917 0
M  V30 5510 H 523.115 6.08203 2.20675 0
M  V30 5511 N 523.247 -0.488276 1.49845 0
M  V30 5512 C 524.487 -1.2516 1.61599 0
M  V30 5513 C 524.851 -1.89615 0.301706 0
M  V30 5514 O 526.052 -2.67182 0.29453 0
M  V30 5515 C 524.323 -2.2805 2.75187 0
M  V30 5516 S 525.882 -3.13552 3.0697 0
M  V30 5517 H 522.7 -0.425178 0.569864 0
M  V30 5518 H 525.302 -0.551545 1.87559 0
M  V30 5519 H 524.006 -1.7925 3.69185 0
M  V30 5520 H 523.537 -3.02708 2.5126 0
M  V30 5521 H 525.552 -4.28927 2.49471 0
M  V30 5522 N 524.725 -1.39134 -0.740242 0
M  V30 5523 C 525.675 -1.33928 -1.84519 0
M  V30 5524 C 526.659 -0.221097 -1.59374 0
M  V30 5525 O 527.851 -0.458195 -1.70967 0
M  V30 5526 C 524.98 -1.17991 -3.22387 0
M  V30 5527 C 524.066 -2.34488 -3.53378 0
M  V30 5528 N 524.457 -3.59954 -3.5534 0
M  V30 5529 C 522.755 -2.27331 -3.83714 0
M  V30 5530 C 523.456 -4.36962 -3.83978 0
M  V30 5531 N 522.432 -3.66482 -4.01487 0
M  V30 5532 H 526.234 -2.28907 -1.84333 0
M  V30 5533 H 523.748 -1.32555 -0.938237 0
M  V30 5534 H 525.745 -1.12345 -4.01478 0
M  V30 5535 H 524.405 -0.23957 -3.23815 0
M  V30 5536 H 525.416 -3.93448 -3.36778 0
M  V30 5537 H 522.093 -1.41531 -3.92779 0
M  V30 5538 H 523.483 -5.45692 -3.92008 0
M  V30 5539 N 526.204 0.969867 -1.24223 0
M  V30 5540 C 527.429 1.75289 -1.10853 0
M  V30 5541 C 527.854 1.85091 0.335079 0
M  V30 5542 O 527.212 1.32024 1.24255 0
M  V30 5543 C 527.26 3.15255 -1.75062 0
M  V30 5544 O 526.364 3.99589 -1.01992 0
M  V30 5545 H 525.705 0.538904 -0.387915 0
M  V30 5546 H 528.235 1.21675 -1.64488 0
M  V30 5547 H 528.245 3.65787 -1.80731 0
M  V30 5548 H 526.92 3.07436 -2.801 0
M  V30 5549 H 525.497 3.58077 -1.04094 0
M  V30 5550 N 527.682 1.05563 1.17022 0
M  V30 5551 C 528.912 0.787307 1.91011 0
M  V30 5552 C 529.32 -0.661256 1.77268 0
M  V30 5553 O 528.663 -1.46379 1.10991 0
M  V30 5554 C 528.725 1.09313 3.42478 0
M  V30 5555 C 528.389 2.53863 3.80004 0
M  V30 5556 C 529.386 3.52081 3.82538 0
M  V30 5557 C 527.071 2.88969 4.10855 0
M  V30 5558 C 529.065 4.83449 4.15399 0
M  V30 5559 C 526.752 4.2054 4.43384 0
M  V30 5560 C 527.75 5.17589 4.45635 0
M  V30 5561 O 527.438 6.46799 4.77395 0
M  V30 5562 H 527.17 0.285463 0.61277 0
M  V30 5563 H 529.724 1.41051 1.49311 0
M  V30 5564 H 527.954 0.412833 3.8449 0
M  V30 5565 H 529.643 0.810224 3.97731 0
M  V30 5566 H 530.409 3.26299 3.58823 0
M  V30 5567 H 526.288 2.1409 4.08272 0
M  V30 5568 H 529.832 5.59194 4.1707 0
M  V30 5569 H 525.729 4.46083 4.66563 0
M  V30 5570 H 526.497 6.51677 4.95237 0
M  V30 5571 N 529.16 -1.33526 0.837174 0
M  V30 5572 C 530.09 -2.31764 0.284206 0
M  V30 5573 C 531.071 -1.58896 -0.607142 0
M  V30 5574 O 532.256 -1.86798 -0.531047 0
M  V30 5575 C 529.386 -3.43029 -0.542962 0
M  V30 5576 C 528.34 -4.27255 0.252451 0
M  V30 5577 C 527.666 -5.3012 -0.69836 0
M  V30 5578 C 528.966 -5.01229 1.46858 0
M  V30 5579 H 530.66 -2.78262 1.10502 0
M  V30 5580 H 528.206 -1.3378 0.532812 0
M  V30 5581 H 530.159 -4.1078 -0.940096 0
M  V30 5582 H 528.883 -2.95216 -1.39697 0
M  V30 5583 H 527.542 -3.61127 0.631124 0
M  V30 5584 H 527.19 -4.78564 -1.54872 0
M  V30 5585 H 526.89 -5.87353 -0.170274 0
M  V30 5586 H 528.414 -6.00737 -1.09305 0
M  V30 5587 H 529.828 -5.61756 1.14469 0
M  V30 5588 H 528.225 -5.68104 1.93333 0
M  V30 5589 H 529.295 -4.301 2.23924 0
M  V30 5590 N 530.638 -0.59345 -1.46 0
M  V30 5591 C 531.548 0.135817 -2.34207 0
M  V30 5592 C 532.564 0.875008 -1.50398 0
M  V30 5593 O 533.74 0.835778 -1.83239 0
M  V30 5594 C 530.805 1.12977 -3.27776 0
M  V30 5595 C 529.866 0.394081 -4.27487 0
M  V30 5596 C 529.099 1.34068 -5.16586 0
M  V30 5597 O 529.322 2.5778 -5.08828 0
M  V30 5598 O 528.256 0.845426 -5.95933 0
M  V30 5599 H 532.082 -0.588691 -2.9794 0
M  V30 5600 H 529.667 -0.353784 -1.45151 0
M  V30 5601 H 531.549 1.70261 -3.85473 0
M  V30 5602 H 530.224 1.83556 -2.66625 0
M  V30 5603 H 529.131 -0.220869 -3.73447 0
M  V30 5604 H 530.464 -0.270939 -4.91454 0
M  V30 5605 N 532.116 1.54067 -0.331816 0
M  V30 5606 C 533.532 1.59587 0.0205388 0
M  V30 5607 C 533.732 1.34813 1.49759 0
M  V30 5608 O 532.788 1.13661 2.25471 0
M  V30 5609 C 534.101 2.97959 -0.405103 0
M  V30 5610 C 535.649 3.10964 -0.356454 0
M  V30 5611 C 536.124 4.51694 -0.757384 0
M  V30 5612 N 537.615 4.57709 -0.71111 0
M  V30 5613 C 538.35 5.64729 -0.993427 0
M  V30 5614 N 537.846 6.79652 -1.3433 0
M  V30 5615 N 539.639 5.54546 -0.918442 0
M  V30 5616 H 531.79 1.68426 -1.29407 0
M  V30 5617 H 534.053 0.78819 -0.526745 0
M  V30 5618 H 533.759 3.21115 -1.43451 0
M  V30 5619 H 533.633 3.76524 0.225692 0
M  V30 5620 H 536.02 2.87538 0.663763 0
M  V30 5621 H 536.101 2.34484 -1.02229 0
M  V30 5622 H 535.745 4.75853 -1.77555 0
M  V30 5623 H 535.675 5.26555 -0.0691444 0
M  V30 5624 H 538.166 3.75176 -0.452883 0
M  V30 5625 H 538.479 7.57221 -1.54388 0
M  V30 5626 H 536.824 6.81128 -1.38164 0
M  V30 5627 H 540.015 4.63641 -0.644536 0
M  V30 5628 H 540.188 6.37861 -1.14181 0
M  V30 5629 N 533.594 0.0601682 1.57485 0
M  V30 5630 C 534.524 -0.90889 2.15085 0
M  V30 5631 C 535.505 -1.31838 1.07484 0
M  V30 5632 O 536.69 -1.3915 1.35466 0
M  V30 5633 C 533.82 -2.18059 2.7031 0
M  V30 5634 C 532.774 -1.91088 3.82974 0
M  V30 5635 C 532.1 -3.24789 4.24754 0
M  V30 5636 C 533.4 -1.22535 5.07723 0
M  V30 5637 H 535.094 -0.429093 2.96309 0
M  V30 5638 H 532.64 -0.204952 1.42534 0
M  V30 5639 H 534.593 -2.86258 3.09248 0
M  V30 5640 H 533.317 -2.6826 1.8629 0
M  V30 5641 H 531.976 -1.25297 3.44523 0
M  V30 5642 H 531.624 -3.72809 3.37672 0
M  V30 5643 H 531.324 -3.07538 5.00694 0
M  V30 5644 H 532.848 -3.94205 4.66299 0
M  V30 5645 H 534.262 -1.80783 5.4405 0
M  V30 5646 H 532.659 -1.1558 5.88864 0
M  V30 5647 H 533.729 -0.202692 4.84476 0
M  V30 5648 N 535.072 -1.5615 -0.213296 0
M  V30 5649 C 536.002 -1.96109 -1.26742 0
M  V30 5650 C 536.983 -0.830448 -1.48451 0
M  V30 5651 O 538.168 -1.09339 -1.60495 0
M  V30 5652 C 535.298 -2.28492 -2.61551 0
M  V30 5653 C 534.252 -3.44124 -2.54485 0
M  V30 5654 C 533.578 -3.62134 -3.93399 0
M  V30 5655 C 534.878 -4.78855 -2.08556 0
M  V30 5656 H 536.572 -2.84412 -0.935434 0
M  V30 5657 H 534.118 -1.36836 -0.44854 0
M  V30 5658 H 536.071 -2.55039 -3.3546 0
M  V30 5659 H 534.795 -1.37052 -2.96453 0
M  V30 5660 H 533.454 -3.17639 -1.83033 0
M  V30 5661 H 533.102 -2.68055 -4.25623 0
M  V30 5662 H 532.802 -4.39913 -3.89551 0
M  V30 5663 H 534.326 -3.91038 -4.68958 0
M  V30 5664 H 535.74 -5.04552 -2.72213 0
M  V30 5665 H 534.137 -5.59975 -2.1575 0
M  V30 5666 H 535.207 -4.73657 -1.03811 0
M  V30 5667 N 536.55 0.480323 -1.50102 0
M  V30 5668 C 537.498 1.60024 -1.68805 0
M  V30 5669 C 538.492 1.60089 -0.553888 0
M  V30 5670 O 539.698 1.64349 -0.734127 0
M  V30 5671 H 536.073 0.530841 -0.532646 0
M  V30 5672 H 538.044 1.41408 -2.62767 0
M  V30 5673 C 536.793 2.98029 -1.79092 0
M  V30 5674 H 536.116 2.98694 -2.65748 0
M  V30 5675 H 537.556 3.75871 -1.96206 0
M  V30 5676 C 536.015 3.32538 -0.540388 0
M  V30 5677 O 536.545 4.00386 0.324637 0
M  V30 5678 N 534.751 2.87873 -0.397154 0
M  V30 5679 H 534.298 2.32834 -1.1021 0
M  V30 5680 H 534.256 3.11328 0.438425 0
M  V30 5681 N 538.028 1.39524 0.732853 0
M  V30 5682 C 539.274 1.37068 1.49467 0
M  V30 5683 C 539.607 -0.0327166 1.94172 0
M  V30 5684 O 538.882 -0.998071 1.66939 0
M  V30 5685 C 539.165 2.34494 2.73285 0
M  V30 5686 C 539.018 3.83784 2.34585 0
M  V30 5687 C 540.337 2.29717 3.75391 0
M  V30 5688 H 537.456 0.499206 0.542183 0
M  V30 5689 H 540.098 1.70532 0.837783 0
M  V30 5690 H 538.248 2.06087 3.29333 0
M  V30 5691 H 539.92 4.22949 1.84151 0
M  V30 5692 H 538.163 4.00455 1.66787 0
M  V30 5693 H 538.834 4.47444 3.23262 0
M  V30 5694 H 541.31 2.54839 3.28932 0
M  V30 5695 H 540.186 2.99962 4.59689 0
M  V30 5696 H 540.447 1.30291 4.22465 0
M  V30 5697 N 539.506 -0.963266 1.24736 0
M  V30 5698 C 540.416 -2.09246 1.06082 0
M  V30 5699 C 541.432 -1.74 0.000363101 0
M  V30 5700 O 542.608 -2.0041 0.199479 0
M  V30 5701 C 539.673 -3.40115 0.672498 0
M  V30 5702 C 538.734 -3.89282 1.80993 0
M  V30 5703 C 537.967 -5.13905 1.44004 0
M  V30 5704 O 538.19 -5.69434 0.331835 0
M  V30 5705 O 537.124 -5.57566 2.26723 0
M  V30 5706 H 540.95 -2.27881 2.00759 0
M  V30 5707 H 538.535 -1.07649 1.03595 0
M  V30 5708 H 540.417 -4.18797 0.467668 0
M  V30 5709 H 539.092 -3.22771 -0.245102 0
M  V30 5710 H 537.999 -3.11642 2.06955 0
M  V30 5711 H 539.332 -4.1111 2.70646 0
M  V30 5712 N 540.985 -1.06182 -1.16461 0
M  V30 5713 C 542.231 -0.779015 -1.87241 0
M  V30 5714 C 542.564 0.692715 -1.81425 0
M  V30 5715 O 541.839 1.5074 -1.22913 0
M  V30 5716 C 542.122 -1.2728 -3.36856 0
M  V30 5717 C 541.975 -2.80821 -3.51368 0
M  V30 5718 C 543.294 -0.879799 -4.31216 0
M  V30 5719 H 540.413 -0.284464 -0.679889 0
M  V30 5720 H 543.055 -1.31755 -1.36896 0
M  V30 5721 H 541.205 -0.814673 -3.79862 0
M  V30 5722 H 542.877 -3.34833 -3.17308 0
M  V30 5723 H 541.12 -3.19606 -2.93316 0
M  V30 5724 H 541.791 -3.10435 -4.56436 0
M  V30 5725 H 544.267 -1.27436 -3.96105 0
M  V30 5726 H 543.143 -1.25278 -5.34412 0
M  V30 5727 H 543.404 0.215372 -4.41575 0
M  V30 5728 N 542.463 1.3308 -0.844243 0
M  V30 5729 C 543.874 1.7992 -0.498566 0
M  V30 5730 C 544.225 1.69808 0.982834 0
M  V30 5731 O 543.35 1.25051 1.7661 0
M  V30 5732 C 543.945 3.26677 -0.898204 0
M  V30 5733 C 542.504 3.71513 -0.604583 0
M  V30 5734 C 541.651 2.54393 -1.10362 0
M  V30 5735 H 544.602 1.20526 -1.03244 0
M  V30 5736 H 544.623 3.79918 -0.21039 0
M  V30 5737 H 544.135 3.34004 -1.97643 0
M  V30 5738 H 542.236 3.69708 0.46335 0
M  V30 5739 H 542.349 4.64755 -1.16358 0
M  V30 5740 H 540.713 2.49246 -0.524273 0
M  V30 5741 H 541.496 2.6448 -2.18873 0
M  V30 5742 N 543.941 0.601185 1.45683 0
M  V30 5743 C 544.873 -0.159446 2.28645 0
M  V30 5744 C 545.886 -0.837882 1.39583 0
M  V30 5745 O 547.075 -0.704344 1.64016 0
M  V30 5746 C 544.175 -1.24641 3.15147 0
M  V30 5747 C 543.348 -0.656334 4.32448 0
M  V30 5748 C 542.407 -1.63337 5.00208 0
M  V30 5749 O 541.433 -1.16217 5.57209 0
M  V30 5750 N 542.635 -2.96773 4.98905 0
M  V30 5751 H 545.4 0.5524 2.94565 0
M  V30 5752 H 542.961 0.440223 1.558 0
M  V30 5753 H 544.953 -1.8997 3.57342 0
M  V30 5754 H 543.523 -1.86087 2.51178 0
M  V30 5755 H 542.743 0.174879 3.93812 0
M  V30 5756 H 544.031 -0.242211 5.08223 0
M  V30 5757 H 543.429 -3.37662 4.53873 0
M  V30 5758 H 541.986 -3.57541 5.44984 0
M  V30 5759 N 545.419 -1.53889 0.339982 0
M  V30 5760 C 546.366 -2.24902 -0.518452 0
M  V30 5761 C 547.336 -1.24593 -1.09844 0
M  V30 5762 O 548.521 -1.53317 -1.13572 0
M  V30 5763 C 545.661 -3.02262 -1.66529 0
M  V30 5764 C 544.774 -4.17418 -1.11295 0
M  V30 5765 C 543.909 -4.82273 -2.2268 0
M  V30 5766 C 542.948 -5.89503 -1.6478 0
M  V30 5767 N 542.085 -6.48153 -2.69893 0
M  V30 5768 H 546.925 -2.97853 0.0936579 0
M  V30 5769 H 544.462 -1.46986 0.0579924 0
M  V30 5770 H 546.42 -3.45371 -2.3404 0
M  V30 5771 H 545.05 -2.31614 -2.24844 0
M  V30 5772 H 544.102 -3.78976 -0.328886 0
M  V30 5773 H 545.414 -4.94554 -0.649414 0
M  V30 5774 H 544.568 -5.28435 -2.98063 0
M  V30 5775 H 543.307 -4.04552 -2.72376 0
M  V30 5776 H 542.312 -5.42728 -0.879004 0
M  V30 5777 H 543.537 -6.6913 -1.1594 0
M  V30 5778 H 541.483 -5.73298 -3.1885 0
M  V30 5779 H 541.4 -7.20752 -2.28151 0
M  V30 5780 H 542.668 -6.98968 -3.45056 0
M  V30 5781 N 546.897 -0.0685191 -1.57451 0
M  V30 5782 C 548.143 0.602239 -1.93652 0
M  V30 5783 C 548.476 1.6946 -0.948526 0
M  V30 5784 O 547.751 1.94487 0.022782 0
M  V30 5785 C 548.034 1.18223 -3.4014 0
M  V30 5786 C 547.887 0.0967431 -4.49696 0
M  V30 5787 C 549.206 2.08872 -3.87377 0
M  V30 5788 H 546.325 0.217453 -0.70419 0
M  V30 5789 H 548.967 -0.133821 -1.89528 0
M  V30 5790 H 547.117 1.80953 -3.43785 0
M  V30 5791 H 548.789 -0.536155 -4.58174 0
M  V30 5792 H 547.032 -0.573063 -4.29998 0
M  V30 5793 H 547.703 0.542894 -5.49324 0
M  V30 5794 H 550.179 1.56081 -3.85717 0
M  V30 5795 H 549.055 2.46389 -4.90493 0
M  V30 5796 H 549.316 2.99572 -3.25129 0
M  V30 5797 N 548.375 1.56261 0.205012 0
M  V30 5798 C 549.623 1.79684 0.925096 0
M  V30 5799 C 549.944 0.63989 1.84202 0
M  V30 5800 O 549.214 -0.342345 1.92885 0
M  V30 5801 H 547.794 0.662774 0.344587 0
M  V30 5802 H 550.456 1.93734 0.212899 0
M  V30 5803 H 549.552 2.72467 1.52211 0
M  V30 5804 N 549.853 -0.472356 1.50355 0
M  V30 5805 C 551.078 -1.25251 1.65309 0
M  V30 5806 C 551.503 -1.85081 0.335643 0
M  V30 5807 O 550.861 -1.67227 -0.700335 0
M  V30 5808 C 550.909 -2.3379 2.74544 0
M  V30 5809 O 550.013 -3.38401 2.35709 0
M  V30 5810 H 549.354 -0.368539 0.552336 0
M  V30 5811 H 551.884 -0.562271 1.96722 0
M  V30 5812 H 551.894 -2.79121 2.97583 0
M  V30 5813 H 550.569 -1.89614 3.70161 0
M  V30 5814 H 549.146 -2.9879 2.23112 0
M  V30 5815 N 551.331 -1.39911 -0.725443 0
M  V30 5816 C 552.241 -1.41688 -1.8698 0
M  V30 5817 C 553.257 -0.310579 -1.71206 0
M  V30 5818 O 554.433 -0.55359 -1.93642 0
M  V30 5819 C 551.498 -1.26811 -3.22676 0
M  V30 5820 C 550.559 -2.47497 -3.50776 0
M  V30 5821 C 549.792 -2.3332 -4.79997 0
M  V30 5822 O 550.015 -1.34175 -5.54394 0
M  V30 5823 O 548.949 -3.22498 -5.08211 0
M  V30 5824 H 552.775 -2.38171 -1.88436 0
M  V30 5825 H 550.36 -1.21128 -0.874548 0
M  V30 5826 H 552.242 -1.20684 -4.03749 0
M  V30 5827 H 550.917 -0.334289 -3.21969 0
M  V30 5828 H 549.824 -2.59201 -2.69751 0
M  V30 5829 H 551.157 -3.39606 -3.5627 0
M  V30 5830 N 552.809 0.956637 -1.25245 0
M  V30 5831 C 553.741 2.05628 -1.01242 0
M  V30 5832 C 554.754 1.62785 0.0219579 0
M  V30 5833 O 555.943 1.77184 -0.216365 0
M  V30 5834 C 553.043 3.35069 -0.508161 0
M  V30 5835 C 552.216 4.06761 -1.60823 0
M  V30 5836 C 551.275 5.14473 -1.1047 0
M  V30 5837 O 550.301 5.40033 -1.79868 0
M  V30 5838 N 551.503 5.80474 0.0550773 0
M  V30 5839 H 554.268 2.2679 -1.95925 0
M  V30 5840 H 551.829 1.12505 -1.16423 0
M  V30 5841 H 553.821 4.044 -0.155819 0
M  V30 5842 H 552.391 3.10694 0.344683 0
M  V30 5843 H 551.611 3.31555 -2.13224 0
M  V30 5844 H 552.899 4.51418 -2.34733 0
M  V30 5845 H 552.297 5.62125 0.635004 0
M  V30 5846 H 550.854 6.50868 0.348469 0
M  V30 5847 N 554.287 1.06798 1.15896 0
M  V30 5848 C 555.234 0.683314 2.20453 0
M  V30 5849 C 556.204 -0.32255 1.62938 0
M  V30 5850 O 557.389 -0.210276 1.89638 0
M  V30 5851 C 554.529 0.0813266 3.45004 0
M  V30 5852 C 553.642 1.13799 4.16742 0
M  V30 5853 C 552.777 0.501598 5.28826 0
M  V30 5854 C 551.816 1.54144 5.92373 0
M  V30 5855 N 550.953 0.928038 6.9594 0
M  V30 5856 H 555.793 1.57932 2.52708 0
M  V30 5857 H 553.33 0.789544 1.24115 0
M  V30 5858 H 555.288 -0.285274 4.16224 0
M  V30 5859 H 553.918 -0.77806 3.13283 0
M  V30 5860 H 552.97 1.62223 3.44075 0
M  V30 5861 H 554.282 1.92664 4.60089 0
M  V30 5862 H 553.436 0.0823162 6.06644 0
M  V30 5863 H 552.175 -0.318883 4.86656 0
M  V30 5864 H 551.18 1.97056 5.13273 0
M  V30 5865 H 552.405 2.3641 6.36621 0
M  V30 5866 H 550.351 0.12836 6.55874 0
M  V30 5867 H 550.268 1.65401 7.37685 0
M  V30 5868 H 551.536 0.534071 7.77668 0
M  V30 5869 N 555.766 -1.3263 0.851289 0
M  V30 5870 C 556.676 -2.32722 0.296268 0
M  V30 5871 C 557.692 -1.63901 -0.584162 0
M  V30 5872 O 558.868 -1.95465 -0.485334 0
M  V30 5873 C 555.933 -3.42942 -0.509103 0
M  V30 5874 C 554.994 -4.2746 0.397069 0
M  V30 5875 C 554.227 -5.32416 -0.36996 0
M  V30 5876 O 554.45 -5.47491 -1.6003 0
M  V30 5877 O 553.384 -6.01327 0.262493 0
M  V30 5878 H 557.21 -2.82078 1.12543 0
M  V30 5879 H 554.795 -1.36194 0.614135 0
M  V30 5880 H 556.677 -4.1017 -0.96634 0
M  V30 5881 H 555.352 -2.95781 -1.31512 0
M  V30 5882 H 554.259 -3.63053 0.902411 0
M  V30 5883 H 555.592 -4.78136 1.16818 0
M  V30 5884 N 557.244 -0.608902 -1.45362 0
M  V30 5885 C 558.655 -0.189511 -1.85736 0
M  V30 5886 C 559.006 1.2539 -1.50903 0
M  V30 5887 O 558.131 1.95094 -0.936347 0
M  V30 5888 C 558.726 -0.33716 -3.37118 0
M  V30 5889 C 557.285 0.0275487 -3.7639 0
M  V30 5890 C 556.432 -0.660983 -2.69307 0
M  V30 5891 H 559.383 -0.815499 -1.36144 0
M  V30 5892 H 559.404 0.430257 -3.7806 0
M  V30 5893 H 558.916 -1.38779 -3.62439 0
M  V30 5894 H 557.017 1.0773 -3.56686 0
M  V30 5895 H 557.13 -0.367018 -4.77692 0
M  V30 5896 H 555.494 -0.0984958 -2.54509 0
M  V30 5897 H 556.277 -1.71377 -2.97464 0
M  V30 5898 N 558.722 1.53707 -0.348139 0
M  V30 5899 C 560.133 1.86213 0.134797 0
M  V30 5900 C 560.484 1.26925 1.49614 0
M  V30 5901 O 559.609 0.584573 2.08355 0
M  V30 5902 C 560.204 3.37866 0.251371 0
M  V30 5903 C 558.763 3.70233 0.678543 0
M  V30 5904 C 557.91 2.76683 -0.184925 0
M  V30 5905 H 560.861 1.48204 -0.567571 0
M  V30 5906 H 560.882 3.64908 1.07806 0
M  V30 5907 H 560.394 3.80988 -0.739581 0
M  V30 5908 H 558.495 3.32659 1.67835 0
M  V30 5909 H 558.608 4.76836 0.465251 0
M  V30 5910 H 556.972 2.52374 0.343465 0
M  V30 5911 H 557.755 3.22635 -1.1731 0
M  V30 5912 N 560.2 0.0768682 1.57412 0
M  V30 5913 C 561.11 -0.903207 2.16516 0
M  V30 5914 C 562.126 -1.32341 1.12968 0
M  V30 5915 O 563.302 -1.39507 1.45258 0
M  V30 5916 C 560.367 -2.1508 2.71922 0
M  V30 5917 C 559.428 -1.78653 3.90361 0
M  V30 5918 C 558.661 -2.97465 4.43114 0
M  V30 5919 O 558.884 -4.11638 3.94854 0
M  V30 5920 O 557.818 -2.76987 5.3438 0
M  V30 5921 H 561.644 -0.430427 3.00634 0
M  V30 5922 H 559.229 -0.146485 1.4868 0
M  V30 5923 H 561.111 -2.8823 3.07411 0
M  V30 5924 H 559.786 -2.61446 1.9086 0
M  V30 5925 H 558.693 -1.0274 3.59716 0
M  V30 5926 H 560.026 -1.37066 4.7273 0
M  V30 5927 N 561.678 -1.56367 -0.196722 0
M  V30 5928 C 562.588 -1.97617 -1.2643 0
M  V30 5929 C 563.604 -0.883598 -1.49895 0
M  V30 5930 O 564.78 -1.18921 -1.62541 0
M  V30 5931 C 561.845 -2.30595 -2.58895 0
M  V30 5932 C 560.906 -3.53551 -2.43516 0
M  V30 5933 C 560.139 -3.84946 -3.69665 0
M  V30 5934 O 560.362 -3.17655 -4.73763 0
M  V30 5935 O 559.296 -4.78379 -3.65291 0
M  V30 5936 H 563.122 -2.88648 -0.944233 0
M  V30 5937 H 560.707 -1.43901 -0.401592 0
M  V30 5938 H 562.589 -2.52889 -3.37083 0
M  V30 5939 H 561.264 -1.42732 -2.90533 0
M  V30 5940 H 560.171 -3.36507 -1.63445 0
M  V30 5941 H 561.504 -4.41875 -2.16812 0
M  V30 5942 N 563.156 0.464375 -1.50603 0
M  V30 5943 C 564.119 1.54393 -1.69397 0
M  V30 5944 C 565.119 1.50566 -0.564504 0
M  V30 5945 O 566.309 1.53066 -0.831645 0
M  V30 5946 C 563.441 2.9401 -1.72543 0
M  V30 5947 H 564.634 1.39044 -2.65719 0
M  V30 5948 H 562.187 0.69122 -1.40185 0
M  V30 5949 H 562.922 3.14795 -0.77938 0
M  V30 5950 H 562.707 2.98195 -2.54602 0
M  V30 5951 H 564.197 3.72375 -1.89015 0
M  V30 5952 N 564.634 1.40294 0.718013 0
M  V30 5953 C 565.544 1.42678 1.86226 0
M  V30 5954 C 566.56 0.319655 1.71039 0
M  V30 5955 O 567.736 0.563852 1.93346 0
M  V30 5956 C 564.801 1.2852 3.21999 0
M  V30 5957 C 563.862 2.49354 3.49458 0
M  V30 5958 C 563.095 2.35863 4.78753 0
M  V30 5959 O 563.318 1.37114 5.53675 0
M  V30 5960 O 562.252 3.25189 5.06494 0
M  V30 5961 H 566.078 2.39167 1.87171 0
M  V30 5962 H 563.663 1.2159 0.868112 0
M  V30 5963 H 565.545 1.22824 4.03103 0
M  V30 5964 H 564.22 0.351359 3.21787 0
M  V30 5965 H 563.127 2.60628 2.68373 0
M  V30 5966 H 564.46 3.41491 3.54464 0
M  V30 5967 N 566.112 -0.949982 1.2575 0
M  V30 5968 C 567.523 -1.50989 1.09815 0
M  V30 5969 C 567.874 -1.93497 -0.324556 0
M  V30 5970 O 566.999 -1.79068 -1.21506 0
M  V30 5971 C 567.594 -2.74394 1.98729 0
M  V30 5972 C 566.153 -3.26682 1.86965 0
M  V30 5973 C 565.3 -1.99498 1.92603 0
M  V30 5974 H 568.251 -0.766387 1.38968 0
M  V30 5975 H 568.272 -3.48383 1.53001 0
M  V30 5976 H 567.784 -2.43425 3.02268 0
M  V30 5977 H 565.885 -3.62461 0.863279 0
M  V30 5978 H 565.998 -3.94383 2.72027 0
M  V30 5979 H 564.362 -2.15005 1.36546 0
M  V30 5980 H 565.145 -1.70871 2.97755 0
M  V30 5981 N 567.59 -1.07411 -1.15328 0
M  V30 5982 C 568.836 -0.798831 -1.86404 0
M  V30 5983 C 569.169 0.673433 -1.8215 0
M  V30 5984 O 568.444 1.49428 -1.24505 0
M  V30 5985 C 568.727 -1.30846 -3.35487 0
M  V30 5986 C 568.58 -2.84532 -3.4837 0
M  V30 5987 C 569.899 -0.925486 -4.30259 0
M  V30 5988 H 567.018 -0.291659 -0.676834 0
M  V30 5989 H 569.66 -1.332 -1.35491 0
M  V30 5990 H 567.81 -0.854916 -3.78977 0
M  V30 5991 H 569.482 -3.3818 -3.13739 0
M  V30 5992 H 567.725 -3.22699 -2.8991 0
M  V30 5993 H 568.396 -3.15259 -4.53118 0
M  V30 5994 H 570.872 -1.3163 -3.94731 0
M  V30 5995 H 569.748 -1.3094 -5.33053 0
M  V30 5996 H 570.009 0.168525 -4.41779 0
M  V30 5997 N 569.068 1.32177 -0.85831 0
M  V30 5998 C 570.031 2.27086 -0.310588 0
M  V30 5999 C 571.031 1.51751 0.531806 0
M  V30 6000 O 572.221 1.70794 0.34279 0
M  V30 6001 C 569.353 3.36266 0.560179 0
M  V30 6002 H 570.546 2.77045 -1.1483 0
M  V30 6003 H 568.099 1.42911 -0.632942 0
M  V30 6004 H 568.834 2.9158 1.41956 0
M  V30 6005 H 568.619 3.92077 -0.0428473 0
M  V30 6006 H 570.109 4.06974 0.936056 0
M  V30 6007 N 570.547 0.616602 1.45037 0
M  V30 6008 C 571.51 -0.0871112 2.29034 0
M  V30 6009 C 572.51 -0.786414 1.40258 0
M  V30 6010 O 573.7 -0.633207 1.62284 0
M  V30 6011 C 570.832 -1.13369 3.21497 0
M  V30 6012 H 572.025 0.651497 2.92738 0
M  V30 6013 H 569.578 0.376058 1.51709 0
M  V30 6014 H 570.313 -1.90277 2.62612 0
M  V30 6015 H 570.098 -0.636358 3.86902 0
M  V30 6016 H 571.588 -1.62627 3.84633 0
M  V30 6017 N 572.025 -1.5352 0.356285 0
M  V30 6018 C 572.988 -2.24071 -0.482182 0
M  V30 6019 C 573.988 -1.24531 -1.01729 0
M  V30 6020 O 575.178 -1.48876 -0.904513 0
M  V30 6021 C 572.31 -2.97025 -1.67299 0
M  V30 6022 H 573.503 -2.99596 0.135031 0
M  V30 6023 H 571.056 -1.55928 0.107825 0
M  V30 6024 H 571.791 -2.25719 -2.32855 0
M  V30 6025 H 571.576 -3.7005 -1.29636 0
M  V30 6026 H 573.066 -3.50683 -2.26741 0
M  V30 6027 N 573.503 -0.0852151 -1.57369 0
M  V30 6028 C 574.413 0.891712 -2.16992 0
M  V30 6029 C 575.429 1.3174 -1.13669 0
M  V30 6030 O 576.605 1.38735 -1.45995 0
M  V30 6031 C 573.67 2.13635 -2.73059 0
M  V30 6032 C 572.731 1.7658 -3.91303 0
M  V30 6033 C 571.964 2.95111 -4.44686 0
M  V30 6034 O 572.187 4.09539 -3.97032 0
M  V30 6035 O 571.121 2.74149 -5.35841 0
M  V30 6036 H 574.947 0.414477 -3.00858 0
M  V30 6037 H 572.532 0.138598 -1.48756 0
M  V30 6038 H 574.414 2.86595 -3.08935 0
M  V30 6039 H 573.089 2.6043 -1.92244 0
M  V30 6040 H 571.996 1.00831 -3.60255 0
M  V30 6041 H 573.329 1.34557 -4.7345 0
M  V30 6042 N 574.981 1.5647 0.188427 0
M  V30 6043 C 576.392 1.70864 0.752494 0
M  V30 6044 C 576.743 0.692905 1.83557 0
M  V30 6045 O 575.868 -0.149307 2.15884 0
M  V30 6046 C 576.463 3.09789 1.37173 0
M  V30 6047 C 575.022 3.25925 1.88281 0
M  V30 6048 C 574.169 2.66817 0.755259 0
M  V30 6049 H 577.12 1.58657 -0.0367408 0
M  V30 6050 H 577.141 3.07489 2.24122 0
M  V30 6051 H 576.653 3.83693 0.583219 0
M  V30 6052 H 574.754 2.56948 2.6983 0
M  V30 6053 H 574.867 4.33498 2.04001 0
M  V30 6054 H 573.231 2.2617 1.17128 0
M  V30 6055 H 574.014 3.43294 -0.0211237 0
M  V30 6056 N 576.459 -0.456382 1.50847 0
M  V30 6057 C 577.369 -1.57805 1.73594 0
M  V30 6058 C 578.385 -1.62599 0.619476 0
M  V30 6059 O 579.561 -1.80195 0.899532 0
M  V30 6060 C 576.626 -2.93926 1.8387 0
M  V30 6061 C 575.687 -2.99402 3.07663 0
M  V30 6062 C 574.92 -4.29031 3.1744 0
M  V30 6063 O 575.143 -5.20358 2.33631 0
M  V30 6064 O 574.077 -4.40401 4.10281 0
M  V30 6065 H 577.903 -1.41531 2.68705 0
M  V30 6066 H 575.488 -0.637422 1.3512 0
M  V30 6067 H 577.37 -3.74747 1.92725 0
M  V30 6068 H 576.045 -3.10368 0.91944 0
M  V30 6069 H 574.952 -2.17606 3.043 0
M  V30 6070 H 576.285 -2.87901 3.99216 0
M  V30 6071 N 577.937 -1.40673 -0.710563 0
M  V30 6072 C 579.183 -1.39428 -1.47267 0
M  V30 6073 C 579.516 0.00182129 -1.942 0
M  V30 6074 O 578.791 0.971387 -1.68506 0
M  V30 6075 C 579.074 -2.38812 -2.6952 0
M  V30 6076 C 578.927 -3.87467 -2.28449 0
M  V30 6077 C 580.246 -2.3566 -3.71689 0
M  V30 6078 H 577.365 -0.507768 -0.534173 0
M  V30 6079 H 580.007 -1.71843 -0.810547 0
M  V30 6080 H 578.157 -2.113 -3.26013 0
M  V30 6081 H 579.829 -4.25825 -1.77399 0
M  V30 6082 H 578.072 -4.03058 -1.60395 0
M  V30 6083 H 578.743 -4.5253 -3.16103 0
M  V30 6084 H 581.219 -2.6004 -3.24836 0
M  V30 6085 H 580.095 -3.07237 -4.54859 0
M  V30 6086 H 580.356 -1.36996 -4.20339 0
M  V30 6087 N 579.415 0.9433 -1.26252 0
M  V30 6088 C 580.826 1.50404 -1.10614 0
M  V30 6089 C 581.177 1.93666 0.31429 0
M  V30 6090 O 580.302 1.79709 1.20555 0
M  V30 6091 C 580.897 2.73336 -2.00182 0
M  V30 6092 C 579.456 3.25686 -1.88695 0
M  V30 6093 C 578.603 1.98474 -1.93658 0
M  V30 6094 H 581.554 0.759006 -1.39373 0
M  V30 6095 H 581.575 3.47567 -1.54847 0
M  V30 6096 H 581.087 2.41818 -3.03555 0
M  V30 6097 H 579.188 3.61998 -0.882489 0
M  V30 6098 H 579.301 3.92935 -2.74115 0
M  V30 6099 H 577.665 2.14278 -1.37684 0
M  V30 6100 H 578.448 1.6929 -2.98657 0
M  V30 6101 N 580.893 1.08022 1.14757 0
M  V30 6102 C 581.803 0.718292 2.23333 0
M  V30 6103 C 582.819 -0.273477 1.71837 0
M  V30 6104 O 583.995 -0.118406 2.01052 0
M  V30 6105 C 581.06 0.128855 3.4646 0
M  V30 6106 C 580.121 1.17473 4.12915 0
M  V30 6107 C 579.354 0.61333 5.30164 0
M  V30 6108 O 579.577 -0.568458 5.6756 0
M  V30 6109 O 578.511 1.3615 5.86299 0
M  V30 6110 H 582.337 1.62394 2.56636 0
M  V30 6111 H 579.922 0.853628 1.22611 0
M  V30 6112 H 581.804 -0.197249 4.20938 0
M  V30 6113 H 580.479 -0.750014 3.14891 0
M  V30 6114 H 579.386 1.5533 3.40328 0
M  V30 6115 H 580.719 2.02574 4.48581 0
M  V30 6116 N 582.371 -1.3172 0.865308 0
M  V30 6117 C 583.319 -2.30569 0.306674 0
M  V30 6118 C 584.313 -1.59317 -0.575724 0
M  V30 6119 O 585.519 -1.73961 -0.462343 0
M  V30 6120 H 581.894 -0.747681 0.0804834 0
M  V30 6121 H 583.865 -2.75165 1.15441 0
M  V30 6122 C 582.614 -3.44358 -0.480952 0
M  V30 6123 H 581.937 -3.99354 0.18876 0
M  V30 6124 H 583.377 -4.15652 -0.837241 0
M  V30 6125 C 581.836 -2.92574 -1.67039 0
M  V30 6126 O 582.366 -2.90954 -2.76964 0
M  V30 6127 N 580.572 -2.48835 -1.50097 0
M  V30 6128 H 580.119 -2.50353 -0.606738 0
M  V30 6129 H 580.077 -2.14543 -2.29823 0
M  V30 6130 N 583.85 -0.624285 -1.44708 0
M  V30 6131 C 584.798 0.0969952 -2.32398 0
M  V30 6132 C 585.792 0.842762 -1.46949 0
M  V30 6133 O 586.998 0.756436 -1.63334 0
M  V30 6134 H 583.373 0.0501306 -0.750327 0
M  V30 6135 H 585.344 -0.660767 -2.90992 0
M  V30 6136 C 584.093 1.06967 -3.30837 0
M  V30 6137 H 583.416 0.505242 -3.96595 0
M  V30 6138 H 584.856 1.54397 -3.94889 0
M  V30 6139 C 583.315 2.15153 -2.5925 0
M  V30 6140 O 583.845 3.23139 -2.3863 0
M  V30 6141 N 582.051 1.90898 -2.19103 0
M  V30 6142 H 581.598 1.03086 -2.36074 0
M  V30 6143 H 581.556 2.63485 -1.71531 0
M  V30 6144 N 585.328 1.53329 -0.364422 0
M  V30 6145 C 586.576 2.00842 0.225189 0
M  V30 6146 C 586.897 1.25345 1.49378 0
M  V30 6147 O 586.167 0.366396 1.92443 0
M  V30 6148 H 584.747 0.742009 0.0862027 0
M  V30 6149 H 587.409 1.8863 -0.490389 0
M  V30 6150 H 586.505 3.08795 0.452987 0
M  V30 6151 N 586.806 0.0935595 1.57322 0
M  V30 6152 C 587.754 -0.883457 2.15169 0
M  V30 6153 C 588.748 -1.29324 1.09415 0
M  V30 6154 O 589.954 -1.26795 1.27762 0
M  V30 6155 H 586.329 -0.302923 0.688289 0
M  V30 6156 H 588.3 -0.370845 2.96087 0
M  V30 6157 C 587.049 -2.13345 2.74552 0
M  V30 6158 H 586.372 -1.82702 3.55612 0
M  V30 6159 H 587.812 -2.7977 3.18598 0
M  V30 6160 C 586.271 -2.90646 1.70371 0
M  V30 6161 O 586.801 -3.85133 1.14173 0
M  V30 6162 N 585.007 -2.54157 1.40899 0
M  V30 6163 H 584.554 -1.77391 1.86789 0
M  V30 6164 H 584.512 -3.06178 0.714301 0
M  V30 6165 N 588.284 -1.56567 -0.180126 0
M  V30 6166 C 589.232 -1.96632 -1.24251 0
M  V30 6167 C 590.226 -0.853818 -1.46309 0
M  V30 6168 O 591.432 -1.0389 -1.46993 0
M  V30 6169 H 587.807 -0.625476 -0.417473 0
M  V30 6170 H 589.778 -2.85201 -0.877679 0
M  V30 6171 C 588.527 -2.33486 -2.57642 0
M  V30 6172 H 587.85 -3.18626 -2.4149 0
M  V30 6173 H 589.29 -2.65371 -3.30688 0
M  V30 6174 C 587.749 -1.17499 -3.15746 0
M  V30 6175 O 588.279 -0.457956 -3.99081 0
M  V30 6176 N 586.485 -0.94786 -2.74707 0
M  V30 6177 H 586.032 -1.53269 -2.07042 0
M  V30 6178 H 585.99 -0.173626 -3.1392 0
M  V30 6179 N 589.762 0.448376 -1.51087 0
M  V30 6180 C 590.987 1.22605 -1.6728 0
M  V30 6181 C 591.412 1.84524 -0.365045 0
M  V30 6182 O 590.77 1.6832 0.673642 0
M  V30 6183 C 590.818 2.29393 -2.78229 0
M  V30 6184 O 589.922 3.34608 -2.41063 0
M  V30 6185 H 589.263 0.359705 -0.558129 0
M  V30 6186 H 591.793 0.530903 -1.97592 0
M  V30 6187 H 591.803 2.74352 -3.01986 0
M  V30 6188 H 590.478 1.83701 -3.73131 0
M  V30 6189 H 589.055 2.95202 -2.27838 0
M  V30 6190 N 591.24 1.41047 0.703093 0
M  V30 6191 C 592.486 1.41209 1.46396 0
M  V30 6192 C 592.841 0.0180188 1.92392 0
M  V30 6193 O 592.134 -0.954739 1.66118 0
M  V30 6194 C 592.328 2.34686 2.6955 0
M  V30 6195 C 592.157 3.83044 2.35601 0
M  V30 6196 C 590.927 4.51777 2.26331 0
M  V30 6197 C 593.125 4.74215 1.9906 0
M  V30 6198 N 591.107 5.85302 1.85188 0
M  V30 6199 C 592.478 5.96631 1.68616 0
M  V30 6200 C 594.533 4.61932 1.85805 0
M  V30 6201 C 593.236 7.08134 1.26249 0
M  V30 6202 C 595.262 5.73389 1.44842 0
M  V30 6203 C 594.624 6.94899 1.15304 0
M  V30 6204 H 590.723 0.571951 0.533288 0
M  V30 6205 H 593.307 1.76859 0.814179 0
M  V30 6206 H 591.478 2.01143 3.32259 0
M  V30 6207 H 593.21 2.25618 3.35974 0
M  V30 6208 H 589.965 4.05618 2.44482 0
M  V30 6209 H 590.389 6.56049 1.67119 0
M  V30 6210 H 595.031 3.68494 2.07298 0
M  V30 6211 H 592.749 8.01445 1.035 0
M  V30 6212 H 596.335 5.65886 1.35146 0
M  V30 6213 H 595.215 7.79679 0.840854 0
M  V30 6214 N 592.718 -0.936591 1.26751 0
M  V30 6215 C 594.129 -1.49816 1.1141 0
M  V30 6216 C 594.48 -1.9383 -0.304015 0
M  V30 6217 O 593.605 -1.80346 -1.196 0
M  V30 6218 C 594.2 -2.72271 2.01629 0
M  V30 6219 C 592.759 -3.2468 1.9042 0
M  V30 6220 C 591.906 -1.97444 1.94708 0
M  V30 6221 H 594.857 -0.751604 1.39773 0
M  V30 6222 H 594.878 -3.46741 1.56688 0
M  V30 6223 H 594.39 -2.40205 3.04833 0
M  V30 6224 H 592.491 -3.61525 0.901674 0
M  V30 6225 H 592.604 -3.91476 2.76195 0
M  V30 6226 H 590.968 -2.13545 1.38818 0
M  V30 6227 H 591.751 -1.67703 2.9955 0
M  V30 6228 N 594.196 -1.08629 -1.14182 0
M  V30 6229 C 595.146 -0.687882 -2.17376 0
M  V30 6230 C 596.13 0.293632 -1.58198 0
M  V30 6231 O 597.322 0.105292 -1.76687 0
M  V30 6232 C 594.451 -0.101184 -3.43151 0
M  V30 6233 C 593.537 -1.10862 -4.09354 0
M  V30 6234 N 593.928 -2.29285 -4.50846 0
M  V30 6235 C 592.226 -0.944897 -4.35876 0
M  V30 6236 C 592.927 -2.93305 -5.02342 0
M  V30 6237 N 591.903 -2.20903 -4.96692 0
M  V30 6238 H 595.705 -1.58963 -2.472 0
M  V30 6239 H 593.219 -0.961329 -1.3089 0
M  V30 6240 H 595.216 0.202209 -4.16409 0
M  V30 6241 H 593.876 0.795522 -3.14804 0
M  V30 6242 H 594.887 -2.66927 -4.43813 0
M  V30 6243 H 591.564 -0.102186 -4.17375 0
M  V30 6244 H 592.954 -3.93932 -5.44304 0
M  V30 6245 N 595.674 1.31259 -0.872281 0
M  V30 6246 C 596.622 2.30404 -0.318897 0
M  V30 6247 C 597.616 1.5962 0.567267 0
M  V30 6248 O 598.822 1.74204 0.453111 0
M  V30 6249 H 595.197 0.747243 -0.0844474 0
M  V30 6250 H 597.168 2.74549 -1.16899 0
M  V30 6251 C 595.917 3.44608 0.462683 0
M  V30 6252 H 595.24 3.99248 -0.209936 0
M  V30 6253 H 596.68 4.1609 0.815187 0
M  V30 6254 C 595.139 2.93456 1.65485 0
M  V30 6255 O 595.669 2.92418 2.75417 0
M  V30 6256 N 593.875 2.49628 1.48776 0
M  V30 6257 H 593.422 2.50671 0.593452 0
M  V30 6258 H 593.38 2.15759 2.28682 0
M  V30 6259 N 597.152 0.631951 1.44375 0
M  V30 6260 C 598.429 0.067646 1.95483 0
M  V30 6261 C 598.809 -1.40683 1.57389 0
M  V30 6262 O 598.157 -2.12167 0.848375 0
M  V30 6263 C 598.367 0.291392 3.47781 0
M  V30 6264 C 599.715 0.185028 4.24197 0
M  V30 6265 O 600.739 0.222803 3.55503 0
M  V30 6266 O 599.598 0.0906642 5.46425 0
M  V30 6267 H 596.692 -0.0218379 0.826712 0
M  V30 6268 H 599.238 0.703711 1.54421 0
M  V30 6269 H 598.01 1.31449 3.68561 0
M  V30 6270 H 597.633 -0.378772 3.95792 0
M  V30 6271 N 598.631 -1.53133 0.372548 0
M  V30 6272 C 599.859 -2.05774 -0.215515 0
M  V30 6273 C 600.274 -1.24555 -1.41886 0
M  V30 6274 O 599.631 -0.287951 -1.80214 0
M  V30 6275 C 599.682 -3.5645 -0.602161 0
M  V30 6276 O 599.403 -4.34591 0.553359 0
M  V30 6277 C 600.904 -4.25374 -1.24787 0
M  V30 6278 H 598.124 -0.670009 -0.0364529 0
M  V30 6279 H 600.668 -1.97434 0.532934 0
M  V30 6280 H 598.823 -3.64918 -1.30052 0
M  V30 6281 H 599.237 -5.23954 0.239336 0
M  V30 6282 H 600.711 -5.32097 -1.46891 0
M  V30 6283 H 601.188 -3.79531 -2.21026 0
M  V30 6284 H 601.794 -4.21177 -0.590752 0
M  V30 6285 N 600.109 -0.101901 -1.5727 0
M  V30 6286 C 601.019 0.868647 -2.17926 0
M  V30 6287 C 602.035 1.30527 -1.1506 0
M  V30 6288 O 603.211 1.37178 -1.47459 0
M  V30 6289 C 600.276 2.10727 -2.75309 0
M  V30 6290 C 599.337 1.7242 -3.93154 0
M  V30 6291 C 598.57 2.90377 -4.47791 0
M  V30 6292 O 598.793 4.05305 -4.01353 0
M  V30 6293 O 597.727 2.6845 -5.38719 0
M  V30 6294 H 601.553 0.382544 -3.01281 0
M  V30 6295 H 599.138 0.122812 -1.48894 0
M  V30 6296 H 601.02 2.83303 -3.11958 0
M  V30 6297 H 599.695 2.58376 -1.94996 0
M  V30 6298 H 598.602 0.970039 -3.61305 0
M  V30 6299 H 599.935 1.29528 -4.74851 0
M  V30 6300 N 601.587 1.56661 0.17182 0
M  V30 6301 C 602.836 1.81158 0.886831 0
M  V30 6302 C 603.149 0.679072 1.83434 0
M  V30 6303 O 604.355 0.808964 2.59168 0
M  V30 6304 C 602.811 3.20999 1.6275 0
M  V30 6305 C 602.419 4.42117 0.723652 0
M  V30 6306 C 604.163 3.5479 2.33076 0
M  V30 6307 C 602.07 5.7298 1.46452 0
M  V30 6308 H 601 0.675543 0.334899 0
M  V30 6309 H 603.651 1.82967 0.139765 0
M  V30 6310 H 602.033 3.13506 2.4193 0
M  V30 6311 H 603.207 4.60789 -0.0311485 0
M  V30 6312 H 601.522 4.16197 0.130063 0
M  V30 6313 H 604.119 4.49806 2.89099 0
M  V30 6314 H 604.462 2.79646 3.08389 0
M  V30 6315 H 604.995 3.63834 1.6084 0
M  V30 6316 H 601.734 6.51152 0.753729 0
M  V30 6317 H 601.254 5.58285 2.19266 0
M  V30 6318 H 602.933 6.14916 2.01214 0
M  V30 6319 N 603.065 -0.440357 1.51323 0
M  V30 6320 C 604.028 -1.51679 1.71832 0
M  V30 6321 C 605.028 -1.49648 0.588386 0
M  V30 6322 O 606.218 -1.51724 0.855891 0
M  V30 6323 C 603.35 -2.91228 1.77199 0
M  V30 6324 H 604.543 -1.34799 2.67898 0
M  V30 6325 H 602.096 -0.66883 1.41267 0
M  V30 6326 H 602.831 -3.13516 0.829363 0
M  V30 6327 H 602.616 -2.94107 2.59314 0
M  V30 6328 H 604.106 -3.69321 1.94915 0
M  V30 6329 N 604.543 -1.41418 -0.695603 0
M  V30 6330 C 605.491 -1.43467 -1.83084 0
M  V30 6331 C 606.485 -0.312719 -1.66489 0
M  V30 6332 O 607.691 -0.484744 -1.7335 0
M  V30 6333 H 604.066 -0.448891 -0.603325 0
M  V30 6334 H 606.037 -2.39144 -1.78473 0
M  V30 6335 C 604.786 -1.3337 -3.21104 0
M  V30 6336 H 604.109 -2.18989 -3.3449 0
M  V30 6337 H 605.549 -1.38865 -4.00615 0
M  V30 6338 C 604.008 -0.0460484 -3.36869 0
M  V30 6339 O 604.538 0.909258 -3.91274 0
M  V30 6340 N 602.744 0.0300222 -2.90584 0
M  V30 6341 H 602.291 -0.748129 -2.46497 0
M  V30 6342 H 602.249 0.890991 -3.01511 0
M  V30 6343 N 606.021 0.929856 -1.27246 0
M  V30 6344 C 607.246 1.71674 -1.16374 0
M  V30 6345 C 607.671 1.86064 0.276024 0
M  V30 6346 O 607.029 1.3591 1.19992 0
M  V30 6347 C 607.077 3.09526 -1.85003 0
M  V30 6348 O 606.181 3.96142 -1.14653 0
M  V30 6349 H 605.522 0.52629 -0.404863 0
M  V30 6350 H 608.052 1.16381 -1.68276 0
M  V30 6351 H 608.062 3.59852 -1.92276 0
M  V30 6352 H 606.737 2.98369 -2.89739 0
M  V30 6353 H 605.314 3.54584 -1.15433 0
M  V30 6354 N 607.499 1.09233 1.13605 0
M  V30 6355 C 608.727 0.848908 1.88683 0
M  V30 6356 C 609.142 -0.599667 1.79024 0
M  V30 6357 O 608.499 -1.41265 1.15544 0
M  V30 6358 C 608.55 1.27273 3.38355 0
M  V30 6359 O 608.271 2.66449 3.47759 0
M  V30 6360 C 609.772 1.0614 4.30406 0
M  V30 6361 H 606.992 0.305549 0.597395 0
M  V30 6362 H 609.536 1.4538 1.43823 0
M  V30 6363 H 607.691 0.711776 3.80805 0
M  V30 6364 H 608.105 2.84264 4.40788 0
M  V30 6365 H 609.579 1.40725 5.33761 0
M  V30 6366 H 610.056 -0.000960332 4.392 0
M  V30 6367 H 610.662 1.60821 3.93722 0
M  V30 6368 N 608.977 -1.30795 0.87923 0
M  V30 6369 C 610.388 -1.78535 0.546093 0
M  V30 6370 C 610.739 -1.72354 -0.937467 0
M  V30 6371 O 609.864 -1.2969 -1.73233 0
M  V30 6372 C 610.459 -3.24181 0.9845 0
M  V30 6373 C 609.018 -3.69779 0.702871 0
M  V30 6374 C 608.165 -2.51377 1.17068 0
M  V30 6375 H 611.116 -1.17746 1.06403 0
M  V30 6376 H 611.137 -3.79227 0.311045 0
M  V30 6377 H 610.649 -3.28647 2.06429 0
M  V30 6378 H 608.75 -3.70806 -0.365166 0
M  V30 6379 H 608.863 -4.61507 1.28639 0
M  V30 6380 H 607.227 -2.47768 0.590172 0
M  V30 6381 H 608.01 -2.58584 2.25808 0
M  V30 6382 N 610.455 -0.639598 -1.44038 0
M  V30 6383 C 611.403 0.0723409 -2.32487 0
M  V30 6384 C 612.397 0.827129 -1.47834 0
M  V30 6385 O 613.603 0.73907 -1.64127 0
M  V30 6386 H 609.978 0.0421696 -0.750817 0
M  V30 6387 H 611.949 -0.691593 -2.90275 0
M  V30 6388 C 610.698 1.03452 -3.31953 0
M  V30 6389 H 610.021 0.46315 -3.97108 0
M  V30 6390 H 611.461 1.502 -3.96505 0
M  V30 6391 C 609.92 2.12392 -2.61518 0
M  V30 6392 O 610.45 3.2059 -2.42044 0
M  V30 6393 N 608.656 1.88563 -2.21116 0
M  V30 6394 H 608.203 1.00577 -2.37154 0
M  V30 6395 H 608.161 2.61651 -1.74316 0
M  V30 6396 N 611.933 1.52934 -0.380664 0
M  V30 6397 C 613.344 1.86457 0.0952684 0
M  V30 6398 C 613.695 1.3007 1.46889 0
M  V30 6399 O 612.82 0.628636 2.07068 0
M  V30 6400 C 613.415 3.38323 0.179648 0
M  V30 6401 C 611.974 3.71589 0.599858 0
M  V30 6402 C 611.121 2.76228 -0.243572 0
M  V30 6403 H 614.072 1.46966 -0.59888 0
M  V30 6404 H 614.093 3.67113 1.00042 0
M  V30 6405 H 613.605 3.79333 -0.820228 0
M  V30 6406 H 611.706 3.36144 1.60742 0
M  V30 6407 H 611.819 4.77715 0.364003 0
M  V30 6408 H 610.183 2.53045 0.289855 0
M  V30 6409 H 610.966 3.20074 -1.24127 0
M  V30 6410 N 613.412 0.11024 1.57214 0
M  V30 6411 C 614.359 -0.843195 2.14846 0
M  V30 6412 C 615.329 -1.26954 1.07107 0
M  V30 6413 O 616.514 -1.34861 1.34971 0
M  V30 6414 C 613.654 -2.09123 2.74521 0
M  V30 6415 C 612.767 -1.71404 3.96541 0
M  V30 6416 C 611.902 -2.91107 4.44331 0
M  V30 6417 C 610.941 -2.49586 5.58903 0
M  V30 6418 N 610.078 -3.62175 6.01477 0
M  V30 6419 H 614.918 -0.344886 2.95998 0
M  V30 6420 H 612.455 -0.15855 1.46243 0
M  V30 6421 H 614.413 -2.82234 3.07246 0
M  V30 6422 H 613.043 -2.56427 1.96074 0
M  V30 6423 H 612.095 -0.88201 3.70033 0
M  V30 6424 H 613.407 -1.36884 4.7965 0
M  V30 6425 H 612.561 -3.72454 4.78919 0
M  V30 6426 H 611.3 -3.28848 3.60153 0
M  V30 6427 H 610.305 -1.6667 5.23929 0
M  V30 6428 H 611.53 -2.12973 6.4484 0
M  V30 6429 H 609.476 -3.99605 5.20242 0
M  V30 6430 H 609.393 -3.3155 6.79419 0
M  V30 6431 H 610.661 -4.43987 6.407 0
M  V30 6432 N 614.89 -1.56749 -0.16351 0
M  V30 6433 C 616.301 -1.72039 -0.725216 0
M  V30 6434 C 616.652 -0.72202 -1.82432 0
M  V30 6435 O 615.777 0.114942 -2.16095 0
M  V30 6436 C 616.372 -3.11932 -1.32227 0
M  V30 6437 C 614.931 -3.28879 -1.83072 0
M  V30 6438 C 614.078 -2.67984 -0.712716 0
M  V30 6439 H 617.029 -1.58579 0.0619772 0
M  V30 6440 H 617.05 -3.11015 -2.19202 0
M  V30 6441 H 616.562 -3.84572 -0.522103 0
M  V30 6442 H 614.663 -2.61209 -2.65708 0
M  V30 6443 H 614.776 -4.36688 -1.97079 0
M  V30 6444 H 613.14 -2.28005 -1.13515 0
M  V30 6445 H 613.923 -3.43216 0.0757361 0
M  V30 6446 N 616.368 0.432326 -1.51554 0
M  V30 6447 C 617.331 1.50765 -1.72634 0
M  V30 6448 C 618.331 1.49334 -0.596314 0
M  V30 6449 O 619.521 1.51268 -0.863925 0
M  V30 6450 C 616.653 2.90284 -1.7874 0
M  V30 6451 H 617.846 1.33377 -2.68609 0
M  V30 6452 H 615.399 0.661329 -1.4162 0
M  V30 6453 H 616.134 3.13071 -0.845977 0
M  V30 6454 H 615.919 2.92727 -2.6087 0
M  V30 6455 H 617.409 3.68282 -1.96871 0
M  V30 6456 N 617.846 1.41785 0.688094 0
M  V30 6457 C 618.809 1.43936 1.78368 0
M  V30 6458 C 619.809 0.328866 1.57401 0
M  V30 6459 O 620.999 0.589093 1.63937 0
M  V30 6460 C 618.131 1.25804 3.16838 0
M  V30 6461 H 619.324 2.41472 1.77852 0
M  V30 6462 H 616.877 1.28037 0.896448 0
M  V30 6463 H 617.612 0.291386 3.22988 0
M  V30 6464 H 617.397 2.06272 3.33458 0
M  V30 6465 H 618.887 1.30162 3.96797 0
M  V30 6466 N 619.324 -0.923095 1.27737 0
M  V30 6467 C 620.549 -1.71054 1.17283 0
M  V30 6468 C 620.974 -1.86208 -0.266153 0
M  V30 6469 O 620.332 -1.36545 -1.1927 0
M  V30 6470 C 620.38 -3.0854 1.86642 0
M  V30 6471 O 619.484 -3.95528 1.16752 0
M  V30 6472 H 618.825 -0.524136 0.407649 0
M  V30 6473 H 621.355 -1.15487 1.6889 0
M  V30 6474 H 621.365 -3.58828 1.94182 0
M  V30 6475 H 620.04 -2.96828 2.91317 0
M  V30 6476 H 618.617 -3.53967 1.17312 0
M  V30 6477 N 620.802 -1.09834 -1.13024 0
M  V30 6478 C 622.027 -0.85909 -1.88771 0
M  V30 6479 C 622.452 0.584402 -1.78791 0
M  V30 6480 O 621.81 1.41101 -1.13842 0
M  V30 6481 C 621.858 -1.30427 -3.36186 0
M  V30 6482 O 620.962 -0.465368 -4.09766 0
M  V30 6483 H 620.303 -0.310786 -0.586778 0
M  V30 6484 H 622.833 -1.46355 -1.42973 0
M  V30 6485 H 622.843 -1.2915 -3.8702 0
M  V30 6486 H 621.518 -2.3555 -3.42767 0
M  V30 6487 H 620.095 -0.542814 -3.68928 0
M  V30 6488 N 622.28 1.30327 -0.886154 0
M  V30 6489 C 623.691 1.78243 -0.555554 0
M  V30 6490 C 624.042 1.72849 0.928314 0
M  V30 6491 O 623.167 1.30607 1.72542 0
M  V30 6492 C 623.762 3.23654 -1.00168 0
M  V30 6493 C 622.321 3.69401 -0.722471 0
M  V30 6494 C 621.468 2.50753 -1.18399 0
M  V30 6495 H 624.419 1.1718 -1.07026 0
M  V30 6496 H 624.44 3.79056 -0.331152 0
M  V30 6497 H 623.952 3.27548 -2.08169 0
M  V30 6498 H 622.053 3.70995 0.345496 0
M  V30 6499 H 622.166 4.60818 -1.31085 0
M  V30 6500 H 620.53 2.47452 -0.603303 0
M  V30 6501 H 621.313 2.57383 -2.27176 0
M  V30 6502 N 623.758 0.647228 1.43697 0
M  V30 6503 C 624.668 -0.0487997 2.34549 0
M  V30 6504 C 625.684 -0.818586 1.53542 0
M  V30 6505 O 626.86 -0.767195 1.86215 0
M  V30 6506 C 623.925 -1.00734 3.31743 0
M  V30 6507 C 622.986 -0.23515 4.28655 0
M  V30 6508 C 622.219 -1.14803 5.21206 0
M  V30 6509 O 622.442 -2.38717 5.18045 0
M  V30 6510 O 621.376 -0.623667 5.9866 0
M  V30 6511 H 625.202 0.698863 2.9555 0
M  V30 6512 H 622.787 0.407412 1.43738 0
M  V30 6513 H 624.669 -1.55837 3.91526 0
M  V30 6514 H 623.344 -1.73534 2.73254 0
M  V30 6515 H 622.251 0.359319 3.7237 0
M  V30 6516 H 623.584 0.453152 4.9011 0
M  V30 6517 N 625.236 -1.5273 0.388769 0
M  V30 6518 C 626.464 -2.05992 -0.193677 0
M  V30 6519 C 626.879 -1.26053 -1.40557 0
M  V30 6520 O 626.236 -0.307049 -1.79898 0
M  V30 6521 C 626.287 -3.57068 -0.564321 0
M  V30 6522 O 626.008 -4.3398 0.599422 0
M  V30 6523 C 627.509 -4.26674 -1.20269 0
M  V30 6524 H 624.729 -0.670358 -0.0293445 0
M  V30 6525 H 627.273 -1.96857 0.553844 0
M  V30 6526 H 625.428 -3.66277 -1.26174 0
M  V30 6527 H 625.842 -5.2367 0.294895 0
M  V30 6528 H 627.316 -5.33625 -1.4124 0
M  V30 6529 H 627.793 -3.81854 -2.16989 0
M  V30 6530 H 628.399 -4.2178 -0.546047 0
M  V30 6531 N 626.714 -0.118576 -1.57153 0
M  V30 6532 C 628.125 0.40687 -1.82213 0
M  V30 6533 C 628.476 1.66636 -1.03571 0
M  V30 6534 O 627.601 2.14682 -0.272171 0
M  V30 6535 C 628.196 0.744949 -3.30509 0
M  V30 6536 C 626.755 1.21503 -3.5625 0
M  V30 6537 C 625.902 0.223511 -2.76398 0
M  V30 6538 H 628.853 -0.343712 -1.54933 0
M  V30 6539 H 628.874 1.6024 -3.45114 0
M  V30 6540 H 628.386 -0.171911 -3.87719 0
M  V30 6541 H 626.487 2.1488 -3.04396 0
M  V30 6542 H 626.6 1.16065 -4.64829 0
M  V30 6543 H 624.964 0.71046 -2.44591 0
M  V30 6544 H 625.747 -0.686439 -3.36367 0
M  V30 6545 N 628.193 1.56834 0.155195 0
M  V30 6546 C 629.418 1.87412 0.888337 0
M  V30 6547 C 629.843 0.70671 1.74319 0
M  V30 6548 O 629.201 -0.343892 1.78009 0
M  V30 6549 C 629.249 3.1652 1.72765 0
M  V30 6550 O 628.353 2.99877 2.83103 0
M  V30 6551 H 627.694 0.615983 0.247914 0
M  V30 6552 H 630.224 2.04061 0.148478 0
M  V30 6553 H 630.234 3.48334 2.12433 0
M  V30 6554 H 628.909 4.01094 1.09985 0
M  V30 6555 H 627.486 2.79453 2.46902 0
M  V30 6556 N 629.671 -0.424282 1.51781 0
M  V30 6557 C 630.634 -1.49848 1.73431 0
M  V30 6558 C 631.634 -1.49016 0.604225 0
M  V30 6559 O 632.824 -1.50808 0.871935 0
M  V30 6560 C 629.956 -2.89332 1.80277 0
M  V30 6561 H 631.149 -1.3195 2.69312 0
M  V30 6562 H 628.702 -0.653809 1.41968 0
M  V30 6563 H 629.437 -3.12618 0.862568 0
M  V30 6564 H 629.222 -2.9134 2.62419 0
M  V30 6565 H 630.712 -3.67233 1.98821 0
M  V30 6566 N 631.149 -1.42148 -0.680565 0
M  V30 6567 C 632.397 -1.42029 -1.43779 0
M  V30 6568 C 632.718 -0.0356347 -1.94967 0
M  V30 6569 O 631.988 0.924936 -1.7269 0
M  V30 6570 H 630.568 -0.522835 -0.533529 0
M  V30 6571 H 633.23 -1.7752 -0.804538 0
M  V30 6572 H 632.326 -2.11658 -2.29363 0
M  V30 6573 N 632.627 0.916307 -1.28225 0
M  V30 6574 C 633.559 2.02303 -1.07732 0
M  V30 6575 C 634.572 1.62773 -0.0298421 0
M  V30 6576 O 635.761 1.76406 -0.272626 0
M  V30 6577 C 632.861 3.33282 -0.614504 0
M  V30 6578 C 632.034 4.01439 -1.73682 0
M  V30 6579 C 631.093 5.10698 -1.26781 0
M  V30 6580 O 630.119 5.34038 -1.96958 0
M  V30 6581 N 631.321 5.80355 -0.129624 0
M  V30 6582 H 634.086 2.20442 -2.03041 0
M  V30 6583 H 631.647 1.08744 -1.19943 0
M  V30 6584 H 633.639 4.03699 -0.284397 0
M  V30 6585 H 632.209 3.11633 0.245664 0
M  V30 6586 H 631.429 3.24604 -2.23665 0
M  V30 6587 H 632.717 4.43721 -2.48976 0
M  V30 6588 H 632.115 5.6386 0.455847 0
M  V30 6589 H 630.672 6.51647 0.141224 0
M  V30 6590 N 634.105 1.10431 1.1244 0
M  V30 6591 C 635.037 0.710945 2.17895 0
M  V30 6592 C 636.05 -0.252315 1.60833 0
M  V30 6593 O 637.239 -0.03679 1.78462 0
M  V30 6594 C 634.339 0.0284262 3.38888 0
M  V30 6595 C 633.512 1.01585 4.2544 0
M  V30 6596 C 632.571 0.364826 5.24934 0
M  V30 6597 O 631.597 1.01561 5.60066 0
M  V30 6598 N 632.799 -0.87674 5.73841 0
M  V30 6599 H 635.564 1.61826 2.52255 0
M  V30 6600 H 633.125 0.993132 1.27861 0
M  V30 6601 H 635.117 -0.418568 4.0253 0
M  V30 6602 H 633.687 -0.781294 3.02679 0
M  V30 6603 H 632.907 1.64111 3.58415 0
M  V30 6604 H 634.195 1.68425 4.80115 0
M  V30 6605 H 633.593 -1.42483 5.47462 0
M  V30 6606 H 632.15 -1.26688 6.39369 0
M  V30 6607 N 635.583 -1.29855 0.893053 0
M  V30 6608 C 636.493 -2.31661 0.370157 0
M  V30 6609 C 637.509 -1.65677 -0.531723 0
M  V30 6610 O 638.685 -1.9691 -0.422902 0
M  V30 6611 C 635.75 -3.44388 -0.399741 0
M  V30 6612 C 634.811 -4.2598 0.532861 0
M  V30 6613 C 634.044 -5.33324 -0.200388 0
M  V30 6614 O 634.267 -5.52305 -1.42531 0
M  V30 6615 O 633.201 -6.00188 0.453668 0
M  V30 6616 H 637.027 -2.78354 1.2146 0
M  V30 6617 H 634.612 -1.34171 0.657153 0
M  V30 6618 H 636.494 -4.13037 -0.835358 0
M  V30 6619 H 635.169 -2.99815 -1.22035 0
M  V30 6620 H 634.076 -3.59998 1.01746 0
M  V30 6621 H 635.409 -4.74178 1.3197 0
M  V30 6622 N 637.061 -0.65484 -1.43351 0
M  V30 6623 C 638.024 0.0263562 -2.29185 0
M  V30 6624 C 639.024 0.748951 -1.42293 0
M  V30 6625 O 640.214 0.589957 -1.63906 0
M  V30 6626 C 637.346 1.04806 -3.2439 0
M  V30 6627 H 638.539 -0.728883 -2.90908 0
M  V30 6628 H 636.092 -0.416149 -1.50658 0
M  V30 6629 H 636.827 1.83247 -2.67565 0
M  V30 6630 H 636.612 0.533554 -3.88453 0
M  V30 6631 H 638.102 1.52372 -3.88809 0
M  V30 6632 N 638.539 1.52521 -0.396863 0
M  V30 6633 C 639.486 2.26671 0.434624 0
M  V30 6634 C 640.456 1.28584 1.05144 0
M  V30 6635 O 641.641 1.57426 1.07804 0
M  V30 6636 C 638.781 3.08234 1.55196 0
M  V30 6637 C 637.894 4.21261 0.957262 0
M  V30 6638 C 637.029 4.90205 2.04627 0
M  V30 6639 C 636.068 5.95213 1.42787 0
M  V30 6640 N 635.205 6.57723 2.45651 0
M  V30 6641 H 640.045 2.973 -0.204139 0
M  V30 6642 H 637.582 1.46669 -0.112505 0
M  V30 6643 H 639.54 3.53819 2.2106 0
M  V30 6644 H 638.17 2.398 2.16092 0
M  V30 6645 H 637.222 3.79935 0.188005 0
M  V30 6646 H 638.534 4.96624 0.465416 0
M  V30 6647 H 637.688 5.39133 2.78246 0
M  V30 6648 H 636.427 4.14383 2.57174 0
M  V30 6649 H 635.432 5.45616 0.676968 0
M  V30 6650 H 636.657 6.72972 0.910255 0
M  V30 6651 H 634.603 5.84737 2.97353 0
M  V30 6652 H 634.52 7.28723 2.01243 0
M  V30 6653 H 635.788 7.11293 3.18876 0
M  V30 6654 N 640.017 0.126909 1.57088 0
M  V30 6655 C 641.245 -0.53667 1.99819 0
M  V30 6656 C 641.66 -1.5972 1.00673 0
M  V30 6657 O 641.017 -1.825 0.000747365 0
M  V30 6658 C 641.068 -1.15563 3.42531 0
M  V30 6659 O 640.789 -0.137483 4.37884 0
M  V30 6660 C 642.29 -1.90176 4.00435 0
M  V30 6661 H 639.51 -0.141443 0.655923 0
M  V30 6662 H 642.054 0.215578 2.03361 0
M  V30 6663 H 640.209 -1.85861 3.39904 0
M  V30 6664 H 640.623 -0.588229 5.21191 0
M  V30 6665 H 642.097 -2.28801 5.02349 0
M  V30 6666 H 642.574 -2.78002 3.40017 0
M  V30 6667 H 643.18 -1.24623 4.06632 0
M  V30 6668 N 641.495 -1.56914 -0.146875 0
M  V30 6669 C 642.772 -1.74273 -0.888165 0
M  V30 6670 C 643.152 -0.69496 -1.99333 0
M  V30 6671 O 642.5 0.286093 -2.26702 0
M  V30 6672 C 642.71 -3.18336 -1.43051 0
M  V30 6673 C 644.058 -3.80024 -1.89387 0
M  V30 6674 O 645.082 -3.21765 -1.52792 0
M  V30 6675 O 643.941 -4.82367 -2.56874 0
M  V30 6676 H 641.035 -0.712565 -0.419738 0
M  V30 6677 H 643.581 -1.6918 -0.132791 0
M  V30 6678 H 642.353 -3.86092 -0.636274 0
M  V30 6679 H 641.976 -3.27854 -2.24938 0
M  V30 6680 N 642.974 0.416227 -1.52004 0
M  V30 6681 C 643.906 1.52552 -1.71058 0
M  V30 6682 C 644.919 1.51693 -0.59102 0
M  V30 6683 O 646.108 1.56087 -0.865973 0
M  V30 6684 C 643.208 2.91455 -1.72937 0
M  V30 6685 C 642.381 3.16584 -3.01816 0
M  V30 6686 C 641.44 4.35322 -2.95603 0
M  V30 6687 O 640.466 4.32947 -3.6952 0
M  V30 6688 N 641.668 5.40049 -2.12903 0
M  V30 6689 H 644.433 1.36604 -2.66757 0
M  V30 6690 H 641.994 0.60544 -1.50153 0
M  V30 6691 H 643.986 3.68944 -1.66321 0
M  V30 6692 H 642.556 3.00895 -0.847418 0
M  V30 6693 H 641.776 2.27203 -3.22137 0
M  V30 6694 H 643.064 3.30213 -3.87088 0
M  V30 6695 H 642.462 5.44823 -1.52265 0
M  V30 6696 H 641.019 6.16308 -2.1215 0
M  V30 6697 N 644.452 1.42507 0.673017 0
M  V30 6698 C 645.415 1.4582 1.76831 0
M  V30 6699 C 646.415 0.345542 1.57043 0
M  V30 6700 O 647.605 0.606447 1.63303 0
M  V30 6701 C 644.737 1.29158 3.15485 0
M  V30 6702 H 645.93 2.43345 1.7528 0
M  V30 6703 H 643.483 1.28981 0.882817 0
M  V30 6704 H 644.218 0.325626 3.22661 0
M  V30 6705 H 644.003 2.09797 3.31252 0
M  V30 6706 H 645.493 1.34363 3.95394 0
M  V30 6707 N 645.93 -0.909495 1.28709 0
M  V30 6708 C 647.207 -1.63865 1.06806 0
M  V30 6709 C 647.587 -2.07445 -0.391143 0
M  V30 6710 O 646.935 -1.82269 -1.37805 0
M  V30 6711 C 647.145 -2.82692 2.04661 0
M  V30 6712 C 648.493 -3.5361 2.35042 0
M  V30 6713 O 649.517 -2.92847 2.02779 0
M  V30 6714 O 648.376 -4.63131 2.90124 0
M  V30 6715 H 645.47 -0.719065 0.408502 0
M  V30 6716 H 648.016 -0.958424 1.40044 0
M  V30 6717 H 646.788 -2.47614 3.0299 0
M  V30 6718 H 646.411 -3.58426 1.72095 0
M  V30 6719 N 647.408 -1.11026 -1.11852 0
M  V30 6720 C 648.656 -0.854769 -1.83134 0
M  V30 6721 C 648.977 0.621375 -1.84835 0
M  V30 6722 O 648.247 1.45129 -1.31584 0
M  V30 6723 H 646.827 -0.313229 -0.678157 0
M  V30 6724 H 649.489 -1.40178 -1.35411 0
M  V30 6725 H 648.585 -1.22311 -2.87135 0
M  V30 6726 N 648.886 1.2938 -0.899927 0
M  V30 6727 C 650.297 1.77644 -0.574427 0
M  V30 6728 C 650.648 1.73824 0.909928 0
M  V30 6729 O 649.773 1.32429 1.71147 0
M  V30 6730 C 650.368 3.22573 -1.03595 0
M  V30 6731 C 648.927 3.68614 -0.76161 0
M  V30 6732 C 648.074 2.49483 -1.21052 0
M  V30 6733 H 651.025 1.16038 -1.08263 0
M  V30 6734 H 651.046 3.78684 -0.371337 0
M  V30 6735 H 650.558 3.25321 -2.11631 0
M  V30 6736 H 648.659 3.7134 0.306127 0
M  V30 6737 H 648.772 4.59402 -1.35965 0
M  V30 6738 H 647.136 2.46798 -0.629515 0
M  V30 6739 H 647.919 2.54959 -2.29893 0
M  V30 6740 N 650.364 0.662433 1.43002 0
M  V30 6741 C 651.78 0.330835 1.56133 0
M  V30 6742 C 651.98 -1.16454 1.64441 0
M  V30 6743 O 651.036 -1.94964 1.60453 0
M  V30 6744 C 652.349 1.05029 2.81761 0
M  V30 6745 C 653.897 1.03142 2.95518 0
M  V30 6746 C 654.372 1.73196 4.2399 0
M  V30 6747 N 655.863 1.70004 4.30875 0
M  V30 6748 C 656.598 2.21074 5.29069 0
M  V30 6749 N 656.094 2.80473 6.33488 0
M  V30 6750 N 657.887 2.1152 5.20784 0
M  V30 6751 H 650.038 1.63272 1.35853 0
M  V30 6752 H 652.301 0.687149 0.653092 0
M  V30 6753 H 652.007 2.10542 2.81718 0
M  V30 6754 H 651.881 0.607664 3.72273 0
M  V30 6755 H 654.268 -0.0153339 2.95096 0
M  V30 6756 H 654.349 1.51282 2.0627 0
M  V30 6757 H 653.993 2.77833 4.25172 0
M  V30 6758 H 653.923 1.22515 5.1215 0
M  V30 6759 H 656.414 1.26667 3.56039 0
M  V30 6760 H 656.727 3.17094 7.04749 0
M  V30 6761 H 655.072 2.84538 6.34085 0
M  V30 6762 H 658.263 1.64814 4.38126 0
M  V30 6763 H 658.436 2.51629 5.97149 0
M  V30 6764 N 651.842 -1.52309 0.404946 0
M  V30 6765 C 652.752 -2.30634 -0.429555 0
M  V30 6766 C 653.768 -1.38187 -1.05737 0
M  V30 6767 O 654.944 -1.71261 -1.05979 0
M  V30 6768 C 652.009 -3.10947 -1.53339 0
M  V30 6769 C 651.07 -4.19126 -0.929065 0
M  V30 6770 C 650.303 -4.95601 -1.9803 0
M  V30 6771 O 650.526 -4.72331 -3.1978 0
M  V30 6772 O 649.46 -5.80551 -1.58886 0
M  V30 6773 H 653.286 -3.0298 0.208963 0
M  V30 6774 H 650.871 -1.4845 0.168255 0
M  V30 6775 H 652.753 -3.60974 -2.1743 0
M  V30 6776 H 651.428 -2.41399 -2.15658 0
M  V30 6777 H 650.335 -3.73257 -0.250982 0
M  V30 6778 H 651.668 -4.90955 -0.349855 0
M  V30 6779 N 653.32 -0.135238 -1.57019 0
M  V30 6780 C 654.731 0.387521 -1.82634 0
M  V30 6781 C 655.082 1.65528 -1.05332 0
M  V30 6782 O 654.207 2.14381 -0.294926 0
M  V30 6783 C 654.802 0.709852 -3.3128 0
M  V30 6784 C 653.361 1.17718 -3.57518 0
M  V30 6785 C 652.508 0.194183 -2.76619 0
M  V30 6786 H 655.459 -0.360126 -1.5456 0
M  V30 6787 H 655.48 1.5657 -3.46794 0
M  V30 6788 H 654.992 -0.213024 -3.87515 0
M  V30 6789 H 653.093 2.1164 -3.06658 0
M  V30 6790 H 653.206 1.11128 -4.66034 0
M  V30 6791 H 651.57 0.684478 -2.4533 0
M  V30 6792 H 652.353 -0.722076 -3.3562 0
M  V30 6793 N 654.798 1.5699 0.138552 0
M  V30 6794 C 656.209 1.73171 0.697754 0
M  V30 6795 C 656.56 0.750952 1.8126 0
M  V30 6796 O 655.685 -0.080549 2.1625 0
M  V30 6797 C 656.28 3.13996 1.27248 0
M  V30 6798 C 654.839 3.3175 1.77816 0
M  V30 6799 C 653.986 2.69084 0.669991 0
M  V30 6800 H 656.937 1.5846 -0.0871979 0
M  V30 6801 H 656.958 3.14463 2.14227 0
M  V30 6802 H 656.47 3.85354 0.460855 0
M  V30 6803 H 654.571 2.65403 2.61519 0
M  V30 6804 H 654.684 4.39768 1.90107 0
M  V30 6805 H 653.048 2.29782 1.09874 0
M  V30 6806 H 653.831 3.43053 -0.130329 0
M  V30 6807 N 656.276 -0.40816 1.52223 0
M  V30 6808 C 657.208 -1.51642 1.71864 0
M  V30 6809 C 658.221 -1.51378 0.599056 0
M  V30 6810 O 659.41 -1.55626 0.874239 0
M  V30 6811 C 656.51 -2.90534 1.74481 0
M  V30 6812 C 655.683 -3.14979 3.03491 0
M  V30 6813 C 654.742 -4.33749 2.97907 0
M  V30 6814 O 653.768 -4.30982 3.71811 0
M  V30 6815 N 654.97 -5.38912 2.15764 0
M  V30 6816 H 657.735 -1.35188 2.67478 0
M  V30 6817 H 655.296 -0.597468 1.50472 0
M  V30 6818 H 657.288 -3.68056 1.68275 0
M  V30 6819 H 655.858 -3.00441 0.863363 0
M  V30 6820 H 655.078 -2.25492 3.23337 0
M  V30 6821 H 656.366 -3.28156 3.88833 0
M  V30 6822 H 655.764 -5.44008 1.55152 0
M  V30 6823 H 654.321 -6.15174 2.15415 0
M  V30 6824 N 657.755 -1.42862 -0.66545 0
M  V30 6825 C 658.98 -1.47456 -1.45848 0
M  V30 6826 C 659.405 -0.0900312 -1.87884 0
M  V30 6827 O 658.763 0.913587 -1.56599 0
M  V30 6828 C 658.811 -2.41514 -2.67774 0
M  V30 6829 O 657.915 -1.89296 -3.66389 0
M  V30 6830 H 657.256 -0.499236 -0.437789 0
M  V30 6831 H 659.786 -1.8765 -0.815394 0
M  V30 6832 H 659.796 -2.58409 -3.15735 0
M  V30 6833 H 658.471 -3.42099 -2.36519 0
M  V30 6834 H 657.048 -1.82003 -3.25468 0
M  V30 6835 N 659.233 0.902656 -1.29189 0
M  V30 6836 C 660.196 1.98797 -1.14071 0
M  V30 6837 C 661.196 1.60615 -0.0770549 0
M  V30 6838 O 662.386 1.71165 -0.323753 0
M  V30 6839 C 659.518 3.32688 -0.743739 0
M  V30 6840 H 660.711 2.13637 -2.10473 0
M  V30 6841 H 658.264 1.08678 -1.12334 0
M  V30 6842 H 658.999 3.23549 0.220554 0
M  V30 6843 H 658.784 3.61765 -1.51223 0
M  V30 6844 H 660.274 4.12337 -0.660935 0
M  V30 6845 N 660.711 1.11618 1.11262 0
M  V30 6846 C 662.127 0.850468 1.35053 0
M  V30 6847 C 662.327 -0.523868 1.94571 0
M  V30 6848 O 661.383 -1.2743 2.17986 0
M  V30 6849 C 662.696 1.96005 2.28041 0
M  V30 6850 C 664.244 1.98993 2.416 0
M  V30 6851 C 664.719 3.0916 3.37911 0
M  V30 6852 N 666.21 3.08547 3.45475 0
M  V30 6853 C 666.945 3.9043 4.19943 0
M  V30 6854 N 666.441 4.8228 4.97371 0
M  V30 6855 N 668.234 3.786 4.15474 0
M  V30 6856 H 660.385 2.00184 0.709932 0
M  V30 6857 H 662.648 0.870635 0.375099 0
M  V30 6858 H 662.354 2.9499 1.91503 0
M  V30 6859 H 662.228 1.85782 3.28275 0
M  V30 6860 H 664.615 1.00633 2.77411 0
M  V30 6861 H 664.696 2.13292 1.4121 0
M  V30 6862 H 664.34 4.07748 3.02827 0
M  V30 6863 H 664.27 2.92102 4.3816 0
M  V30 6864 H 666.761 2.42 2.90249 0
M  V30 6865 H 667.074 5.41289 5.51567 0
M  V30 6866 H 665.419 4.863 4.96525 0
M  V30 6867 H 668.61 3.06185 3.54074 0
M  V30 6868 H 668.783 4.42647 4.73253 0
M  V30 6869 N 662.189 -1.289 0.906776 0
M  V30 6870 C 663.605 -1.47733 0.603902 0
M  V30 6871 C 663.805 -1.82568 -0.852702 0
M  V30 6872 O 662.861 -1.92642 -1.63234 0
M  V30 6873 C 664.174 -2.58522 1.53581 0
M  V30 6874 C 665.722 -2.72394 1.54177 0
M  V30 6875 C 666.197 -3.86318 2.46013 0
M  V30 6876 N 667.688 -3.93661 2.441 0
M  V30 6877 C 668.423 -4.81177 3.11859 0
M  V30 6878 N 667.919 -5.73333 3.88923 0
M  V30 6879 N 669.712 -4.74728 3.00981 0
M  V30 6880 H 661.863 -1.04567 1.84877 0
M  V30 6881 H 664.126 -0.520118 0.792579 0
M  V30 6882 H 663.832 -2.39667 2.57396 0
M  V30 6883 H 663.706 -3.55475 1.26165 0
M  V30 6884 H 666.093 -2.90641 0.511034 0
M  V30 6885 H 666.174 -1.75993 1.85634 0
M  V30 6886 H 665.818 -3.68826 3.49185 0
M  V30 6887 H 665.748 -4.82102 2.11862 0
M  V30 6888 H 668.239 -3.27751 1.88115 0
M  V30 6889 H 668.552 -6.36923 4.37663 0
M  V30 6890 H 666.897 -5.73196 3.93029 0
M  V30 6891 H 670.088 -4.01722 2.40286 0
M  V30 6892 H 670.261 -5.42719 3.54062 0
M  V30 6893 N 663.667 -0.670007 -1.42649 0
M  V30 6894 C 664.614 0.0112928 -2.30797 0
M  V30 6895 C 665.584 0.797627 -1.45695 0
M  V30 6896 O 666.769 0.770845 -1.74535 0
M  V30 6897 C 663.909 0.95998 -3.31479 0
M  V30 6898 C 663.022 0.167975 -4.31673 0
M  V30 6899 C 662.157 1.11198 -5.19431 0
M  V30 6900 C 661.196 0.311381 -6.11307 0
M  V30 6901 N 660.333 1.20784 -6.91633 0
M  V30 6902 H 665.173 -0.746231 -2.88505 0
M  V30 6903 H 662.71 -0.379739 -1.42114 0
M  V30 6904 H 664.668 1.52379 -3.88377 0
M  V30 6905 H 663.298 1.68419 -2.75382 0
M  V30 6906 H 662.35 -0.512385 -3.76933 0
M  V30 6907 H 663.662 -0.453814 -4.96731 0
M  V30 6908 H 662.816 1.74587 -5.81037 0
M  V30 6909 H 661.555 1.76766 -4.54538 0
M  V30 6910 H 660.56 -0.335758 -5.48774 0
M  V30 6911 H 661.785 -0.340135 -6.78248 0
M  V30 6912 H 659.731 1.85001 -6.29373 0
M  V30 6913 H 659.648 0.64102 -7.53277 0
M  V30 6914 H 660.916 1.82936 -7.5773 0
M  V30 6915 N 665.145 1.52092 -0.413018 0
M  V30 6916 C 666.561 1.59471 -0.0640836 0
M  V30 6917 C 666.761 1.42562 1.42402 0
M  V30 6918 O 665.817 1.25453 2.19129 0
M  V30 6919 C 667.13 2.95392 -0.562474 0
M  V30 6920 C 668.678 3.08637 -0.520788 0
M  V30 6921 C 669.153 4.47044 -0.995752 0
M  V30 6922 N 670.644 4.53296 -0.952732 0
M  V30 6923 C 671.379 5.58669 -1.29138 0
M  V30 6924 N 670.875 6.71576 -1.70168 0
M  V30 6925 N 672.668 5.48898 -1.2111 0
M  V30 6926 H 664.819 1.6133 -1.38153 0
M  V30 6927 H 667.082 0.75916 -0.567785 0
M  V30 6928 H 666.788 3.13059 -1.60271 0
M  V30 6929 H 666.662 3.77191 0.0257875 0
M  V30 6930 H 669.049 2.90652 0.510412 0
M  V30 6931 H 669.13 2.28735 -1.14515 0
M  V30 6932 H 668.774 4.65773 -2.0253 0
M  V30 6933 H 668.704 5.25448 -0.348162 0
M  V30 6934 H 671.195 3.72248 -0.651119 0
M  V30 6935 H 671.508 7.47973 -1.9431 0
M  V30 6936 H 669.853 6.72847 -1.74075 0
M  V30 6937 H 673.044 4.59573 -0.889396 0
M  V30 6938 H 673.217 6.30912 -1.47833 0
M  V30 6939 N 666.623 0.143563 1.56945 0
M  V30 6940 C 667.848 -0.518701 2.00809 0
M  V30 6941 C 668.273 -1.5785 1.02298 0
M  V30 6942 O 667.631 -1.813 -0.0017839 0
M  V30 6943 C 667.679 -1.09929 3.43436 0
M  V30 6944 O 666.783 -2.21425 3.47915 0
M  V30 6945 H 666.124 -0.127215 0.6517 0
M  V30 6946 H 668.654 0.239283 2.03196 0
M  V30 6947 H 668.664 -1.4288 3.82164 0
M  V30 6948 H 667.339 -0.323162 4.14643 0
M  V30 6949 H 665.916 -1.89728 3.21026 0
M  V30 6950 N 668.101 -1.57061 -0.130224 0
M  V30 6951 C 669.331 -1.88159 -0.853217 0
M  V30 6952 C 669.739 -0.731675 -1.7448 0
M  V30 6953 O 669.082 0.307035 -1.81116 0
M  V30 6954 C 669.144 -3.1415 -1.74785 0
M  V30 6955 C 668.808 -4.45202 -1.03173 0
M  V30 6956 C 669.805 -5.18526 -0.377759 0
M  V30 6957 C 667.49 -4.91912 -1.01624 0
M  V30 6958 C 669.484 -6.36775 0.282123 0
M  V30 6959 C 667.171 -6.10082 -0.352555 0
M  V30 6960 C 668.169 -6.82361 0.295483 0
M  V30 6961 O 667.857 -7.98284 0.948606 0
M  V30 6962 H 667.589 -0.627596 -0.251197 0
M  V30 6963 H 670.143 -2.05034 -0.1226 0
M  V30 6964 H 668.373 -2.93328 -2.51983 0
M  V30 6965 H 670.062 -3.31359 -2.34427 0
M  V30 6966 H 670.828 -4.83498 -0.381417 0
M  V30 6967 H 666.707 -4.35566 -1.51007 0
M  V30 6968 H 670.251 -6.93129 0.788525 0
M  V30 6969 H 666.148 -6.44569 -0.346621 0
M  V30 6970 H 666.916 -8.14054 0.851954 0
M  V30 6971 N 669.579 0.400081 -1.52437 0
M  V30 6972 C 670.526 1.48803 -1.76426 0
M  V30 6973 C 671.496 1.5461 -0.607032 0
M  V30 6974 O 672.681 1.71041 -0.845563 0
M  V30 6975 C 669.821 2.86156 -1.92896 0
M  V30 6976 C 668.934 2.89587 -3.20567 0
M  V30 6977 C 668.069 4.18296 -3.27417 0
M  V30 6978 C 667.108 4.15736 -4.49255 0
M  V30 6979 N 666.245 5.36032 -4.53447 0
M  V30 6980 H 671.085 1.27649 -2.69276 0
M  V30 6981 H 668.622 0.619451 -1.33421 0
M  V30 6982 H 670.58 3.65901 -2.00429 0
M  V30 6983 H 669.21 3.05785 -1.03418 0
M  V30 6984 H 668.262 2.02278 -3.22161 0
M  V30 6985 H 669.574 2.83562 -4.10358 0
M  V30 6986 H 668.728 5.06439 -3.34072 0
M  V30 6987 H 667.467 4.27028 -2.35581 0
M  V30 6988 H 666.472 3.25982 -4.42737 0
M  V30 6989 H 667.697 4.08636 -5.42396 0
M  V30 6990 H 665.643 5.45415 -3.64498 0
M  V30 6991 H 665.56 5.32038 -5.37096 0
M  V30 6992 H 666.828 6.26104 -4.64343 0
M  V30 6993 N 671.057 1.43213 0.657864 0
M  V30 6994 C 671.989 1.43974 1.78337 0
M  V30 6995 C 673.002 0.336482 1.59285 0
M  V30 6996 O 674.191 0.600631 1.68091 0
M  V30 6997 C 671.291 1.23242 3.15697 0
M  V30 6998 C 670.464 2.46319 3.61449 0
M  V30 6999 C 669.523 2.2088 4.77597 0
M  V30 7000 O 668.549 2.942 4.87273 0
M  V30 7001 N 669.751 1.22251 5.67481 0
M  V30 7002 H 672.516 2.40993 1.78164 0
M  V30 7003 H 670.077 1.3831 0.841549 0
M  V30 7004 H 672.069 1.04113 3.91079 0
M  V30 7005 H 670.639 0.346849 3.1067 0
M  V30 7006 H 669.859 2.80904 2.76563 0
M  V30 7007 H 671.147 3.28239 3.88763 0
M  V30 7008 H 670.545 0.616433 5.62331 0
M  V30 7009 H 669.102 1.09107 6.42603 0
M  V30 7010 N 672.536 -0.895792 1.29666 0
M  V30 7011 C 673.499 -1.98189 1.15124 0
M  V30 7012 C 674.499 -1.60572 0.0855717 0
M  V30 7013 O 675.689 -1.70991 0.332826 0
M  V30 7014 C 672.821 -3.32289 0.761372 0
M  V30 7015 H 674.014 -2.12518 2.11603 0
M  V30 7016 H 671.567 -1.0808 1.12908 0
M  V30 7017 H 672.302 -3.23662 -0.203393 0
M  V30 7018 H 672.087 -3.60958 1.53139 0
M  V30 7019 H 673.577 -4.1198 0.682792 0
M  V30 7020 N 674.014 -1.12206 -1.10668 0
M  V30 7021 C 675.26 -0.877172 -1.82848 0
M  V30 7022 C 675.593 0.595571 -1.84842 0
M  V30 7023 O 674.868 1.44013 -1.30731 0
M  V30 7024 C 675.151 -1.44957 -3.29635 0
M  V30 7025 C 675.004 -2.99051 -3.35989 0
M  V30 7026 C 676.323 -1.10714 -4.25946 0
M  V30 7027 H 673.442 -0.320103 -0.663854 0
M  V30 7028 H 676.084 -1.38827 -1.2972 0
M  V30 7029 H 674.234 -1.01488 -3.7501 0
M  V30 7030 H 675.906 -3.51182 -2.99113 0
M  V30 7031 H 674.149 -3.34705 -2.75962 0
M  V30 7032 H 674.82 -3.34194 -4.39339 0
M  V30 7033 H 677.296 -1.48254 -3.88793 0
M  V30 7034 H 676.172 -1.5343 -5.2702 0
M  V30 7035 H 676.433 -0.019 -4.42096 0
M  V30 7036 N 675.492 1.28418 -0.913599 0
M  V30 7037 C 676.717 1.99643 -0.561899 0
M  V30 7038 C 677.142 1.67819 0.849608 0
M  V30 7039 O 676.5 0.910503 1.56779 0
M  V30 7040 C 676.548 3.52116 -0.777622 0
M  V30 7041 O 675.652 4.12076 0.163457 0
M  V30 7042 H 674.993 0.627229 -0.217898 0
M  V30 7043 H 677.523 1.63575 -1.229 0
M  V30 7044 H 677.533 4.02163 -0.687666 0
M  V30 7045 H 676.208 3.74613 -1.8066 0
M  V30 7046 H 674.785 3.72892 0.0247827 0
M  V30 7047 N 676.97 0.677563 1.42291 0
M  V30 7048 C 677.88 0.000962654 2.346 0
M  V30 7049 C 678.896 -0.785833 1.55244 0
M  V30 7050 O 680.072 -0.727523 1.87801 0
M  V30 7051 C 677.137 -0.936746 3.33805 0
M  V30 7052 C 676.198 -0.144173 4.29058 0
M  V30 7053 C 675.431 -1.03722 5.23524 0
M  V30 7054 O 675.654 -2.27675 5.22992 0
M  V30 7055 O 674.588 -0.496542 5.99848 0
M  V30 7056 H 678.414 0.761397 2.94001 0
M  V30 7057 H 675.999 0.43781 1.42841 0
M  V30 7058 H 677.881 -1.47497 3.94744 0
M  V30 7059 H 676.556 -1.67698 2.76874 0
M  V30 7060 H 675.463 0.438224 3.71524 0
M  V30 7061 H 676.796 0.55701 4.89038 0
M  V30 7062 N 678.448 -1.51871 0.421078 0
M  V30 7063 C 679.378 -2.30231 -0.389363 0
M  V30 7064 C 680.359 -1.34946 -1.03555 0
M  V30 7065 O 681.544 -1.63859 -1.04229 0
M  V30 7066 C 678.674 -3.13247 -1.49979 0
M  V30 7067 C 677.628 -4.16677 -0.977966 0
M  V30 7068 C 676.954 -4.88112 -2.1829 0
M  V30 7069 C 678.254 -5.22295 -0.0236775 0
M  V30 7070 H 679.948 -2.98229 0.264524 0
M  V30 7071 H 677.494 -1.43424 0.12866 0
M  V30 7072 H 679.447 -3.66838 -2.07383 0
M  V30 7073 H 678.171 -2.4304 -2.18173 0
M  V30 7074 H 676.83 -3.64114 -0.426245 0
M  V30 7075 H 676.478 -4.14423 -2.85066 0
M  V30 7076 H 676.178 -5.58041 -1.84021 0
M  V30 7077 H 677.702 -5.44521 -2.76278 0
M  V30 7078 H 679.116 -5.71055 -0.506899 0
M  V30 7079 H 677.513 -5.99656 0.230782 0
M  V30 7080 H 678.583 -4.76131 0.917999 0
M  V30 7081 N 679.926 -0.151884 -1.56866 0
M  V30 7082 C 681.203 0.543328 -1.87902 0
M  V30 7083 C 681.583 1.82636 -1.05864 0
M  V30 7084 O 680.931 2.28028 -0.146868 0
M  V30 7085 C 681.141 0.804056 -3.39611 0
M  V30 7086 C 682.489 1.14267 -4.08935 0
M  V30 7087 O 683.513 0.893248 -3.44818 0
M  V30 7088 O 682.372 1.61229 -5.22176 0
M  V30 7089 H 679.466 0.277724 -0.778973 0
M  V30 7090 H 682.012 -0.188862 -1.68646 0
M  V30 7091 H 680.784 -0.103772 -3.91162 0
M  V30 7092 H 680.407 1.59025 -3.64413 0
M  V30 7093 N 681.404 1.57128 0.121893 0
M  V30 7094 C 682.314 2.03425 1.16857 0
M  V30 7095 C 683.33 0.954108 1.45509 0
M  V30 7096 O 684.506 1.26541 1.56682 0
M  V30 7097 C 681.571 2.42685 2.47599 0
M  V30 7098 C 680.632 3.64767 2.2637 0
M  V30 7099 C 679.865 4.02145 3.50878 0
M  V30 7100 O 680.088 3.39897 4.58068 0
M  V30 7101 O 679.022 4.95262 3.42051 0
M  V30 7102 H 682.848 2.92825 0.80544 0
M  V30 7103 H 680.433 1.45654 0.332477 0
M  V30 7104 H 682.315 2.68684 3.24634 0
M  V30 7105 H 680.99 1.56432 2.83392 0
M  V30 7106 H 679.897 3.43922 1.47203 0
M  V30 7107 H 681.23 4.51716 1.95482 0
M  V30 7108 N 682.882 -0.391992 1.52647 0
M  V30 7109 C 683.792 -1.503 1.80131 0
M  V30 7110 C 684.808 -1.59825 0.687882 0
M  V30 7111 O 685.984 -1.76218 0.975149 0
M  V30 7112 C 683.049 -2.85863 1.96171 0
M  V30 7113 C 682.11 -2.86084 3.20085 0
M  V30 7114 C 681.343 -4.15181 3.35351 0
M  V30 7115 O 681.566 -5.09981 2.55491 0
M  V30 7116 O 680.5 -4.22603 4.28591 0
M  V30 7117 H 684.326 -1.30007 2.74466 0
M  V30 7118 H 681.911 -0.579539 1.37701 0
M  V30 7119 H 683.793 -3.66236 2.08445 0
M  V30 7120 H 682.468 -3.06189 1.05025 0
M  V30 7121 H 681.375 -2.04504 3.13256 0
M  V30 7122 H 682.708 -2.7071 4.11068 0
M  V30 7123 N 684.36 -1.4356 -0.65026 0
M  V30 7124 C 685.292 -1.44918 -1.77571 0
M  V30 7125 C 686.305 -0.344925 -1.59104 0
M  V30 7126 O 687.494 -0.609537 -1.6777 0
M  V30 7127 C 684.594 -1.24914 -3.15039 0
M  V30 7128 C 683.767 -2.48232 -3.60138 0
M  V30 7129 C 682.826 -2.23409 -4.76419 0
M  V30 7130 O 681.852 -2.9678 -4.85706 0
M  V30 7131 N 683.054 -1.25259 -5.66825 0
M  V30 7132 H 685.819 -2.41935 -1.76883 0
M  V30 7133 H 683.38 -1.38754 -0.834202 0
M  V30 7134 H 685.372 -1.06185 -3.90521 0
M  V30 7135 H 683.942 -0.363319 -3.10481 0
M  V30 7136 H 683.162 -2.82366 -2.75069 0
M  V30 7137 H 684.45 -3.30296 -3.87017 0
M  V30 7138 H 683.848 -0.646246 -5.61997 0
M  V30 7139 H 682.405 -1.12513 -6.42016 0
M  V30 7140 N 685.838 0.888903 -1.30139 0
M  V30 7141 C 686.788 1.9814 -1.12803 0
M  V30 7142 C 687.772 1.60839 -0.0443137 0
M  V30 7143 O 688.964 1.74971 -0.267208 0
M  V30 7144 C 686.093 3.33416 -0.817849 0
M  V30 7145 C 685.179 3.77043 -1.94163 0
M  V30 7146 N 685.57 3.92805 -3.18651 0
M  V30 7147 C 683.868 4.06407 -1.8371 0
M  V30 7148 C 684.569 4.29746 -3.92038 0
M  V30 7149 N 683.545 4.3939 -3.20059 0
M  V30 7150 H 687.347 2.08411 -2.07225 0
M  V30 7151 H 684.861 1.07845 -1.21421 0
M  V30 7152 H 686.858 4.11405 -0.674668 0
M  V30 7153 H 685.518 3.24484 0.118344 0
M  V30 7154 H 686.529 3.78042 -3.53984 0
M  V30 7155 H 683.206 4.05972 -0.974331 0
M  V30 7156 H 684.596 4.49695 -4.99223 0
M  V30 7157 N 687.317 1.12792 1.10072 0
M  V30 7158 C 688.247 0.821688 2.18565 0
M  V30 7159 C 689.228 -0.21612 1.68721 0
M  V30 7160 O 690.413 -0.0764932 1.94049 0
M  V30 7161 C 687.543 0.279624 3.46172 0
M  V30 7162 C 686.497 1.25092 4.09312 0
M  V30 7163 C 685.823 0.568916 5.31665 0
M  V30 7164 C 687.123 2.60699 4.52585 0
M  V30 7165 H 688.817 1.72888 2.44438 0
M  V30 7166 H 686.363 0.832702 1.17482 0
M  V30 7167 H 688.316 0.053099 4.21367 0
M  V30 7168 H 687.04 -0.662929 3.19801 0
M  V30 7169 H 685.699 1.46332 3.36129 0
M  V30 7170 H 685.347 -0.378898 5.01571 0
M  V30 7171 H 685.047 1.21687 5.74862 0
M  V30 7172 H 686.571 0.351517 6.09587 0
M  V30 7173 H 687.985 2.43465 5.19035 0
M  V30 7174 H 686.382 3.21608 5.06644 0
M  V30 7175 H 687.452 3.1886 3.65317 0
M  V30 7176 N 688.795 -1.27931 0.920396 0
M  V30 7177 C 689.705 -2.30824 0.419212 0
M  V30 7178 C 690.721 -1.66767 -0.496461 0
M  V30 7179 O 691.897 -1.97763 -0.38104 0
M  V30 7180 C 688.962 -3.45158 -0.326601 0
M  V30 7181 C 688.023 -4.24754 0.623098 0
M  V30 7182 C 687.256 -5.33629 -0.0872172 0
M  V30 7183 O 687.479 -5.55204 -1.30784 0
M  V30 7184 O 686.413 -5.99091 0.580875 0
M  V30 7185 H 690.239 -2.75716 1.27337 0
M  V30 7186 H 687.824 -1.32747 0.685465 0
M  V30 7187 H 689.706 -4.14716 -0.747559 0
M  V30 7188 H 688.381 -3.02336 -1.15648 0
M  V30 7189 H 687.288 -3.57759 1.09359 0
M  V30 7190 H 688.621 -4.71272 1.41998 0
M  V30 7191 N 690.273 -0.685099 -1.4193 0
M  V30 7192 C 691.55 -0.140152 -1.95097 0
M  V30 7193 C 691.93 1.34745 -1.62502 0
M  V30 7194 O 691.278 2.08872 -0.926534 0
M  V30 7195 C 691.488 -0.420268 -3.4646 0
M  V30 7196 C 692.836 -0.342338 -4.23218 0
M  V30 7197 O 693.86 -0.354592 -3.54431 0
M  V30 7198 O 692.719 -0.293404 -5.45712 0
M  V30 7199 H 689.813 -0.00885998 -0.826953 0
M  V30 7200 H 692.359 -0.760539 -1.51703 0
M  V30 7201 H 691.131 -1.45037 -3.63428 0
M  V30 7202 H 690.754 0.231616 -3.96925 0
M  V30 7203 N 691.751 1.51645 -0.429126 0
M  V30 7204 C 692.661 2.31288 0.392809 0
M  V30 7205 C 693.677 1.39852 1.03525 0
M  V30 7206 O 694.853 1.72926 1.03241 0
M  V30 7207 C 691.918 3.13347 1.48372 0
M  V30 7208 C 690.979 4.20551 0.862268 0
M  V30 7209 C 690.212 4.98688 1.9012 0
M  V30 7210 O 690.435 4.77359 3.12225 0
M  V30 7211 O 689.369 5.83005 1.4963 0
M  V30 7212 H 693.195 3.02609 -0.257138 0
M  V30 7213 H 690.78 1.48163 -0.191851 0
M  V30 7214 H 692.662 3.64387 2.1166 0
M  V30 7215 H 691.337 2.44799 2.1179 0
M  V30 7216 H 690.244 3.73609 0.191568 0
M  V30 7217 H 691.577 4.91449 0.271704 0
M  V30 7218 N 693.229 0.160201 1.56784 0
M  V30 7219 C 694.139 -0.787167 2.21 0
M  V30 7220 C 695.155 -1.26167 1.19825 0
M  V30 7221 O 696.331 -1.31611 1.52448 0
M  V30 7222 C 693.396 -2.00364 2.8294 0
M  V30 7223 C 692.457 -1.5771 3.99282 0
M  V30 7224 C 691.69 -2.73558 4.58259 0
M  V30 7225 O 691.913 -3.90129 4.16119 0
M  V30 7226 O 690.847 -2.48271 5.48311 0
M  V30 7227 H 694.673 -0.270462 3.02493 0
M  V30 7228 H 692.258 -0.0674666 1.49248 0
M  V30 7229 H 694.14 -2.71529 3.22257 0
M  V30 7230 H 692.815 -2.50961 2.04451 0
M  V30 7231 H 691.722 -0.835274 3.64656 0
M  V30 7232 H 693.055 -1.11815 4.79331 0
M  V30 7233 N 694.707 -1.5719 -0.113559 0
M  V30 7234 C 695.637 -2.03772 -1.14013 0
M  V30 7235 C 696.618 -0.923176 -1.42869 0
M  V30 7236 O 697.803 -1.19325 -1.53216 0
M  V30 7237 C 694.933 -2.44663 -2.4649 0
M  V30 7238 C 693.887 -3.59612 -2.32085 0
M  V30 7239 C 693.213 -3.8642 -3.69573 0
M  V30 7240 C 694.513 -4.91149 -1.7768 0
M  V30 7241 H 696.207 -2.89785 -0.752665 0
M  V30 7242 H 693.753 -1.39412 -0.360609 0
M  V30 7243 H 695.706 -2.75857 -3.18561 0
M  V30 7244 H 694.43 -1.55628 -2.87137 0
M  V30 7245 H 693.089 -3.28636 -1.62461 0
M  V30 7246 H 692.737 -2.94581 -4.07715 0
M  V30 7247 H 692.437 -4.63797 -3.60786 0
M  V30 7248 H 693.961 -4.2007 -4.4314 0
M  V30 7249 H 695.375 -5.20843 -2.39574 0
M  V30 7250 H 693.772 -5.72562 -1.79701 0
M  V30 7251 H 694.842 -4.79301 -0.734776 0
M  V30 7252 N 696.185 0.383891 -1.52853 0
M  V30 7253 C 697.117 1.48889 -1.74255 0
M  V30 7254 C 698.13 1.50405 -0.623063 0
M  V30 7255 O 699.319 1.54215 -0.898887 0
M  V30 7256 C 696.419 2.87721 -1.79081 0
M  V30 7257 C 695.592 3.10111 -3.08464 0
M  V30 7258 C 694.651 4.28954 -3.0477 0
M  V30 7259 O 693.677 4.25012 -3.78621 0
M  V30 7260 N 694.879 5.35411 -2.24311 0
M  V30 7261 H 697.644 1.30915 -2.69595 0
M  V30 7262 H 695.205 0.573454 -1.51404 0
M  V30 7263 H 697.197 3.65333 -1.7411 0
M  V30 7264 H 695.767 2.99029 -0.911052 0
M  V30 7265 H 694.987 2.20319 -3.26884 0
M  V30 7266 H 696.275 3.21928 -3.94005 0
M  V30 7267 H 695.673 5.41471 -1.63787 0
M  V30 7268 H 694.23 6.1167 -2.25175 0
M  V30 7269 N 697.663 1.43903 0.642637 0
M  V30 7270 C 699.074 1.40975 1.22404 0
M  V30 7271 C 699.425 0.1192 1.95838 0
M  V30 7272 O 698.55 -0.780939 2.01818 0
M  V30 7273 C 699.145 2.5538 2.22636 0
M  V30 7274 C 697.704 2.55684 2.76229 0
M  V30 7275 C 696.851 2.32556 1.51039 0
M  V30 7276 H 699.802 1.5265 0.434006 0
M  V30 7277 H 699.823 2.27474 3.05017 0
M  V30 7278 H 699.335 3.49294 1.69161 0
M  V30 7279 H 697.436 1.65679 3.33738 0
M  V30 7280 H 697.549 3.53799 3.23053 0
M  V30 7281 H 695.913 1.81427 1.78764 0
M  V30 7282 H 696.696 3.28569 0.99484 0
M  V30 7283 N 699.141 -0.881989 1.30609 0
M  V30 7284 C 700.552 -1.44956 1.17664 0
M  V30 7285 C 700.903 -1.94945 -0.221531 0
M  V30 7286 O 700.028 -1.85257 -1.11844 0
M  V30 7287 C 700.623 -2.63474 2.12995 0
M  V30 7288 C 699.182 -3.16312 2.04019 0
M  V30 7289 C 698.329 -1.89008 2.02907 0
M  V30 7290 H 701.28 -0.691645 1.42835 0
M  V30 7291 H 701.301 -3.39783 1.71253 0
M  V30 7292 H 700.813 -2.2706 3.14746 0
M  V30 7293 H 698.914 -3.57376 1.0542 0
M  V30 7294 H 699.027 -3.79409 2.9255 0
M  V30 7295 H 697.391 -2.07465 1.47751 0
M  V30 7296 H 698.174 -1.54848 3.06394 0
M  V30 7297 N 700.619 -1.13374 -1.09472 0
M  V30 7298 C 702.035 -0.871846 -1.33682 0
M  V30 7299 C 702.235 0.492847 -1.9538 0
M  V30 7300 O 701.291 1.23946 -2.19985 0
M  V30 7301 C 702.604 -1.99608 -2.24893 0
M  V30 7302 C 704.152 -2.02812 -2.38404 0
M  V30 7303 C 704.627 -3.14497 -3.3295 0
M  V30 7304 N 706.118 -3.14004 -3.40523 0
M  V30 7305 C 706.853 -3.97061 -4.13679 0
M  V30 7306 N 706.349 -4.90131 -4.89636 0
M  V30 7307 N 708.142 -3.85162 -4.09398 0
M  V30 7308 H 700.293 -2.01288 -0.677995 0
M  V30 7309 H 702.556 -0.876492 -0.361201 0
M  V30 7310 H 702.262 -2.98 -1.86786 0
M  V30 7311 H 702.136 -1.90981 -3.25278 0
M  V30 7312 H 704.523 -1.05034 -2.75775 0
M  V30 7313 H 704.604 -2.15511 -1.37799 0
M  V30 7314 H 704.248 -4.12514 -2.96302 0
M  V30 7315 H 704.178 -2.99035 -4.33458 0
M  V30 7316 H 706.669 -2.46587 -2.86362 0
M  V30 7317 H 706.982 -5.49996 -5.42885 0
M  V30 7318 H 705.327 -4.94138 -4.88726 0
M  V30 7319 H 708.518 -3.11779 -3.49158 0
M  V30 7320 H 708.691 -4.5012 -4.6615 0
M  V30 7321 N 702.098 1.27442 -0.927168 0
M  V30 7322 C 703.323 1.99036 -0.583042 0
M  V30 7323 C 703.748 1.68711 0.83176 0
M  V30 7324 O 703.106 0.927081 1.55804 0
M  V30 7325 C 703.154 3.51271 -0.814925 0
M  V30 7326 O 702.258 4.12226 0.119742 0
M  V30 7327 H 701.599 0.624883 -0.224538 0
M  V30 7328 H 704.129 1.62263 -1.24628 0
M  V30 7329 H 704.139 4.01411 -0.730282 0
M  V30 7330 H 702.814 3.72676 -1.84623 0
M  V30 7331 H 701.391 3.72897 -0.0147688 0
M  V30 7332 N 703.576 0.692616 1.41565 0
M  V30 7333 C 704.523 0.0254264 2.30786 0
M  V30 7334 C 705.493 -0.774347 1.46946 0
M  V30 7335 O 706.678 -0.742981 1.7574 0
M  V30 7336 C 703.818 -0.907123 3.32964 0
M  V30 7337 C 702.931 -0.0992784 4.31886 0
M  V30 7338 C 702.066 -1.0292 5.21134 0
M  V30 7339 C 701.105 -0.214088 6.11725 0
M  V30 7340 N 700.242 -1.09766 6.93467 0
M  V30 7341 H 705.082 0.792036 2.87282 0
M  V30 7342 H 702.619 0.4023 1.41492 0
M  V30 7343 H 704.577 -1.46181 3.90752 0
M  V30 7344 H 703.207 -1.64016 2.78026 0
M  V30 7345 H 702.259 0.572287 3.76071 0
M  V30 7346 H 703.571 0.532782 4.95946 0
M  V30 7347 H 702.725 -1.65321 5.83741 0
M  V30 7348 H 701.464 -1.69512 4.57293 0
M  V30 7349 H 700.469 0.42302 5.4817 0
M  V30 7350 H 701.694 0.447995 6.77621 0
M  V30 7351 H 699.64 -1.74965 6.32237 0
M  V30 7352 H 699.557 -0.521099 7.54202 0
M  V30 7353 H 700.825 -1.70858 7.60544 0
M  V30 7354 N 705.054 -1.51416 0.437162 0
M  V30 7355 C 706.282 -2.06503 -0.128045 0
M  V30 7356 C 706.697 -1.30461 -1.36475 0
M  V30 7357 O 706.054 -0.364127 -1.78831 0
M  V30 7358 C 706.105 -3.58683 -0.450437 0
M  V30 7359 O 705.826 -4.31853 0.737186 0
M  V30 7360 C 707.327 -4.30284 -1.06633 0
M  V30 7361 H 704.547 -0.670952 -0.00800269 0
M  V30 7362 H 707.091 -1.94996 0.616193 0
M  V30 7363 H 705.246 -3.70106 -1.14457 0
M  V30 7364 H 705.66 -5.22467 0.461347 0
M  V30 7365 H 707.134 -5.37848 -1.24191 0
M  V30 7366 H 707.611 -3.88564 -2.0473 0
M  V30 7367 H 708.217 -4.23304 -0.411585 0
M  V30 7368 N 706.532 -0.168513 -1.56696 0
M  V30 7369 C 707.943 0.348694 -1.83415 0
M  V30 7370 C 708.294 1.63257 -1.0882 0
M  V30 7371 O 707.419 2.13707 -0.340333 0
M  V30 7372 C 708.014 0.639423 -3.32711 0
M  V30 7373 C 706.573 1.10108 -3.59935 0
M  V30 7374 C 705.72 0.135464 -2.76969 0
M  V30 7375 H 708.671 -0.392829 -1.53761 0
M  V30 7376 H 708.692 1.49179 -3.50037 0
M  V30 7377 H 708.204 -0.295173 -3.86976 0
M  V30 7378 H 706.305 2.05088 -3.11079 0
M  V30 7379 H 706.418 1.01218 -4.68286 0
M  V30 7380 H 704.782 0.632286 -2.46727 0
M  V30 7381 H 705.565 -0.793104 -3.34013 0
M  V30 7382 N 708.01 1.57248 0.105221 0
M  V30 7383 C 709.235 1.90143 0.828264 0
M  V30 7384 C 709.66 0.761811 1.71983 0
M  V30 7385 O 709.018 -0.287086 1.79013 0
M  V30 7386 C 709.066 3.21856 1.62608 0
M  V30 7387 O 708.17 3.08732 2.7342 0
M  V30 7388 H 707.511 0.623558 0.228192 0
M  V30 7389 H 710.041 2.0443 0.0834826 0
M  V30 7390 H 710.051 3.54916 2.01243 0
M  V30 7391 H 708.726 4.0439 0.971687 0
M  V30 7392 H 707.303 2.87167 2.37886 0
M  V30 7393 N 709.488 -0.375779 1.53054 0
M  V30 7394 C 710.713 -1.14484 1.7294 0
M  V30 7395 C 711.138 -1.82572 0.452668 0
M  V30 7396 O 710.496 -1.71343 -0.592567 0
M  V30 7397 C 710.544 -2.15857 2.88857 0
M  V30 7398 O 709.648 -3.22725 2.56753 0
M  V30 7399 H 708.989 -0.332666 0.574656 0
M  V30 7400 H 711.519 -0.436025 1.999 0
M  V30 7401 H 711.529 -2.59631 3.14731 0
M  V30 7402 H 710.204 -1.65689 3.81471 0
M  V30 7403 H 708.781 -2.83996 2.41663 0
M  V30 7404 N 710.966 -1.44241 -0.634997 0
M  V30 7405 C 712.377 -1.41622 -1.21655 0
M  V30 7406 C 712.728 -0.129584 -1.95772 0
M  V30 7407 O 711.853 0.770225 -2.02229 0
M  V30 7408 C 712.448 -2.56557 -2.21278 0
M  V30 7409 C 711.007 -2.57145 -2.7487 0
M  V30 7410 C 710.154 -2.33354 -1.49804 0
M  V30 7411 H 713.105 -1.52878 -0.425905 0
M  V30 7412 H 713.126 -2.29089 -3.03807 0
M  V30 7413 H 712.638 -3.50186 -1.67306 0
M  V30 7414 H 710.739 -1.67447 -3.32855 0
M  V30 7415 H 710.852 -3.55507 -3.21172 0
M  V30 7416 H 709.216 -1.82372 -1.77799 0
M  V30 7417 H 709.999 -3.29092 -0.977402 0
M  V30 7418 N 712.444 0.87505 -1.31075 0
M  V30 7419 C 713.684 1.64174 -1.21763 0
M  V30 7420 C 714.048 1.90713 0.221933 0
M  V30 7421 O 715.249 2.652 0.438458 0
M  V30 7422 C 713.52 2.93932 -2.0332 0
M  V30 7423 S 715.079 3.84841 -2.10815 0
M  V30 7424 H 711.897 0.563358 -0.433761 0
M  V30 7425 H 714.499 1.03788 -1.65675 0
M  V30 7426 H 713.203 2.72349 -3.07009 0
M  V30 7427 H 712.734 3.59345 -1.60108 0
M  V30 7428 H 714.749 4.80385 -1.24276 0
M  V30 7429 N 713.922 1.13953 1.08869 0
M  V30 7430 C 715.333 0.916649 1.62648 0
M  V30 7431 C 715.684 -0.545589 1.88462 0
M  V30 7432 O 714.809 -1.41351 1.63856 0
M  V30 7433 C 715.404 1.65751 2.95486 0
M  V30 7434 C 713.963 1.48034 3.46068 0
M  V30 7435 C 713.11 1.68305 2.20383 0
M  V30 7436 H 716.061 1.292 0.921572 0
M  V30 7437 H 716.082 1.11794 3.63707 0
M  V30 7438 H 715.594 2.72171 2.76667 0
M  V30 7439 H 713.695 0.439416 3.7 0
M  V30 7440 H 713.808 2.24719 4.23129 0
M  V30 7441 H 712.172 1.10833 2.29321 0
M  V30 7442 H 712.955 2.76057 2.04077 0
M  V30 7443 N 715.4 -1.26948 0.933913 0
M  V30 7444 C 716.363 -2.24889 0.442457 0
M  V30 7445 C 717.363 -1.54594 -0.442426 0
M  V30 7446 O 718.553 -1.72502 -0.242629 0
M  V30 7447 C 715.685 -3.3896 -0.363173 0
M  V30 7448 H 716.878 -2.69879 1.30787 0
M  V30 7449 H 714.431 -1.38978 0.715187 0
M  V30 7450 H 715.166 -2.99361 -1.24714 0
M  V30 7451 H 714.951 -3.9116 0.271366 0
M  V30 7452 H 716.441 -4.11739 -0.697186 0
M  V30 7453 N 716.879 -0.700114 -1.41195 0
M  V30 7454 C 718.104 -0.240704 -2.05998 0
M  V30 7455 C 718.529 1.10313 -1.52357 0
M  V30 7456 O 717.887 1.69154 -0.652424 0
M  V30 7457 C 717.935 -0.213783 -3.59966 0
M  V30 7458 O 717.039 0.809933 -4.04368 0
M  V30 7459 H 716.38 -0.116471 -0.653705 0
M  V30 7460 H 718.91 -0.956251 -1.80878 0
M  V30 7461 H 718.92 -0.0461852 -4.07974 0
M  V30 7462 H 717.595 -1.19454 -3.98376 0
M  V30 7463 H 716.172 0.611319 -3.67855 0
M  V30 7464 N 718.357 1.51182 -0.445186 0
M  V30 7465 C 719.304 2.27939 0.362291 0
M  V30 7466 C 720.274 1.31864 1.01 0
M  V30 7467 O 721.459 1.60776 1.02741 0
M  V30 7468 C 718.599 3.13016 1.45311 0
M  V30 7469 C 717.712 4.24093 0.822757 0
M  V30 7470 C 716.847 4.96467 1.88928 0
M  V30 7471 C 715.886 5.99454 1.23778 0
M  V30 7472 N 715.023 6.65206 2.24602 0
M  V30 7473 H 719.863 2.965 -0.29862 0
M  V30 7474 H 717.4 1.46237 -0.15911 0
M  V30 7475 H 719.358 3.60673 2.09692 0
M  V30 7476 H 717.988 2.46553 2.08354 0
M  V30 7477 H 717.04 3.80341 0.0670364 0
M  V30 7478 H 718.352 4.97853 0.307184 0
M  V30 7479 H 717.506 5.47712 2.60953 0
M  V30 7480 H 716.245 4.22355 2.4386 0
M  V30 7481 H 715.25 5.47494 0.503042 0
M  V30 7482 H 716.475 6.75527 0.695694 0
M  V30 7483 H 714.421 5.93901 2.78599 0
M  V30 7484 H 714.338 7.34756 1.77958 0
M  V30 7485 H 715.606 7.21078 2.96085 0
M  V30 7486 N 719.835 0.176821 1.56605 0
M  V30 7487 C 721.081 -0.467406 1.9734 0
M  V30 7488 C 721.414 -1.62523 1.06301 0
M  V30 7489 O 720.689 -1.94182 0.11125 0
M  V30 7490 C 720.972 -0.945106 3.47476 0
M  V30 7491 C 720.825 0.213273 4.49294 0
M  V30 7492 C 722.144 -1.8169 4.00845 0
M  V30 7493 H 719.263 -0.168426 0.717497 0
M  V30 7494 H 721.905 0.264065 1.88156 0
M  V30 7495 H 720.055 -1.56841 3.55434 0
M  V30 7496 H 721.727 0.850508 4.53392 0
M  V30 7497 H 719.97 0.867918 4.25029 0
M  V30 7498 H 720.641 -0.163187 5.51759 0
M  V30 7499 H 723.117 -1.29139 3.95553 0
M  V30 7500 H 721.993 -2.12015 5.06301 0
M  V30 7501 H 722.254 -2.76463 3.44994 0
M  V30 7502 N 721.313 -1.57302 -0.09688 0
M  V30 7503 C 722.559 -1.86273 -0.801885 0
M  V30 7504 C 722.892 -0.765694 -1.78468 0
M  V30 7505 O 722.167 0.226495 -1.93177 0
M  V30 7506 C 722.45 -3.25876 -1.53221 0
M  V30 7507 C 722.303 -4.46205 -0.567529 0
M  V30 7508 C 723.622 -3.63352 -2.48321 0
M  V30 7509 H 720.741 -0.67752 -0.29006 0
M  V30 7510 H 723.383 -1.89887 -0.0655577 0
M  V30 7511 H 721.533 -3.22926 -2.15988 0
M  V30 7512 H 723.205 -4.6127 0.0529982 0
M  V30 7513 H 721.448 -4.33636 0.119233 0
M  V30 7514 H 722.119 -5.40608 -1.11564 0
M  V30 7515 H 724.595 -3.67234 -1.95648 0
M  V30 7516 H 723.471 -4.61968 -2.9644 0
M  V30 7517 H 723.732 -2.91941 -3.31998 0
M  V30 7518 N 722.791 0.367657 -1.53252 0
M  V30 7519 C 724.207 0.709191 -1.42978 0
M  V30 7520 C 724.407 1.93352 -0.567193 0
M  V30 7521 O 723.463 2.52453 -0.0488349 0
M  V30 7522 C 724.776 0.924338 -2.86141 0
M  V30 7523 C 726.324 1.02448 -2.95759 0
M  V30 7524 C 726.799 1.27211 -4.39979 0
M  V30 7525 N 728.29 1.33986 -4.43398 0
M  V30 7526 C 729.025 1.54852 -5.52095 0
M  V30 7527 N 728.521 1.73049 -6.7084 0
M  V30 7528 N 730.314 1.57205 -5.39669 0
M  V30 7529 H 722.465 -0.437669 -2.07842 0
M  V30 7530 H 724.728 -0.133737 -0.938519 0
M  V30 7531 H 724.434 0.0965455 -3.51567 0
M  V30 7532 H 724.308 1.83302 -3.29667 0
M  V30 7533 H 726.695 1.84282 -2.30487 0
M  V30 7534 H 726.776 0.0932301 -2.5563 0
M  V30 7535 H 726.42 0.458792 -5.05824 0
M  V30 7536 H 726.35 2.21654 -4.77679 0
M  V30 7537 H 728.841 1.21545 -3.5782 0
M  V30 7538 H 729.154 1.88538 -7.49449 0
M  V30 7539 H 727.499 1.70231 -6.7383 0
M  V30 7540 H 730.69 1.42555 -4.45865 0
M  V30 7541 H 730.863 1.73126 -6.24445 0
M  V30 7542 N 724.269 1.44576 0.627338 0
M  V30 7543 C 725.68 1.42266 1.20902 0
M  V30 7544 C 726.031 0.139964 1.957 0
M  V30 7545 O 725.156 -0.759489 2.02634 0
M  V30 7546 C 725.751 2.57727 2.19914 0
M  V30 7547 C 724.31 2.58599 2.73502 0
M  V30 7548 C 723.457 2.34145 1.48564 0
M  V30 7549 H 726.408 1.53102 0.417791 0
M  V30 7550 H 726.429 2.30697 3.02588 0
M  V30 7551 H 725.941 3.51068 1.65447 0
M  V30 7552 H 724.042 1.6921 3.31962 0
M  V30 7553 H 724.155 3.57205 3.19282 0
M  V30 7554 H 722.519 1.83313 1.76829 0
M  V30 7555 H 723.302 3.29606 0.959935 0
M  V30 7556 N 725.747 -0.868086 1.31537 0
M  V30 7557 C 726.677 -1.99131 1.21939 0
M  V30 7558 C 727.658 -1.69768 0.106166 0
M  V30 7559 O 728.843 -1.92006 0.291081 0
M  V30 7560 C 725.973 -3.34676 0.927879 0
M  V30 7561 C 724.927 -3.7835 2.00088 0
M  V30 7562 C 724.253 -5.11375 1.56203 0
M  V30 7563 C 725.553 -3.95256 3.41424 0
M  V30 7564 H 727.247 -2.07419 2.15911 0
M  V30 7565 H 724.793 -0.996569 1.03945 0
M  V30 7566 H 726.746 -4.12793 0.847327 0
M  V30 7567 H 725.47 -3.26565 -0.0475042 0
M  V30 7568 H 724.129 -3.02474 2.07135 0
M  V30 7569 H 723.777 -4.99709 0.57445 0
M  V30 7570 H 723.477 -5.41568 2.27985 0
M  V30 7571 H 725.001 -5.92001 1.49558 0
M  V30 7572 H 726.415 -4.63764 3.3704 0
M  V30 7573 H 724.812 -4.36849 4.1144 0
M  V30 7574 H 725.882 -2.98579 3.82072 0
M  V30 7575 N 727.225 -1.14528 -1.08264 0
M  V30 7576 C 728.641 -0.885976 -1.3275 0
M  V30 7577 C 728.841 0.472096 -1.95892 0
M  V30 7578 O 727.897 1.21606 -2.21288 0
M  V30 7579 C 729.21 -2.01982 -2.22764 0
M  V30 7580 C 730.758 -2.05329 -2.36239 0
M  V30 7581 C 731.233 -3.1801 -3.29596 0
M  V30 7582 N 732.724 -3.17598 -3.37173 0
M  V30 7583 C 733.459 -4.01426 -4.09444 0
M  V30 7584 N 732.955 -4.95297 -4.8441 0
M  V30 7585 N 734.748 -3.89482 -4.0529 0
M  V30 7586 H 726.899 -2.01996 -0.656607 0
M  V30 7587 H 729.162 -0.880274 -0.351884 0
M  V30 7588 H 728.868 -2.99964 -1.83615 0
M  V30 7589 H 728.742 -1.94421 -3.23234 0
M  V30 7590 H 731.129 -1.07953 -2.74646 0
M  V30 7591 H 731.21 -2.1696 -1.35506 0
M  V30 7592 H 730.854 -4.15633 -2.9191 0
M  V30 7593 H 730.784 -3.03616 -4.30261 0
M  V30 7594 H 733.275 -2.4961 -2.83731 0
M  V30 7595 H 733.588 -5.55723 -5.37021 0
M  V30 7596 H 731.933 -4.99293 -4.83457 0
M  V30 7597 H 735.124 -3.15465 -3.45832 0
M  V30 7598 H 735.297 -4.55039 -4.6135 0
M  V30 7599 N 728.703 1.26451 -0.940633 0
M  V30 7600 C 729.931 1.97868 -0.604642 0
M  V30 7601 C 730.346 1.70051 0.820251 0
M  V30 7602 O 729.703 0.96843 1.54686 0
M  V30 7603 C 729.754 3.51684 -0.836689 0
M  V30 7604 O 729.475 3.78533 -2.20554 0
M  V30 7605 C 730.976 4.40343 -0.511169 0
M  V30 7606 H 728.196 0.631105 -0.227919 0
M  V30 7607 H 730.74 1.60979 -1.26119 0
M  V30 7608 H 728.895 3.86736 -0.226759 0
M  V30 7609 H 729.309 4.73065 -2.26517 0
M  V30 7610 H 730.783 5.47229 -0.724157 0
M  V30 7611 H 731.26 4.35694 0.553815 0
M  V30 7612 H 731.866 4.10834 -1.0998 0
M  V30 7613 N 730.181 0.707592 1.40822 0
M  V30 7614 C 731.428 0.243671 2.01029 0
M  V30 7615 C 731.756 -1.16057 1.5608 0
M  V30 7616 O 731.011 -1.7999 0.768251 0
M  V30 7617 C 731.31 0.262892 3.56432 0
M  V30 7618 C 730.976 1.61632 4.20935 0
M  V30 7619 C 729.638 1.98682 4.38268 0
M  V30 7620 C 731.99 2.50619 4.5699 0
M  V30 7621 C 729.318 3.2428 4.88937 0
M  V30 7622 C 731.67 3.75562 5.09054 0
M  V30 7623 C 730.334 4.12739 5.24598 0
M  V30 7624 H 729.604 0.0891654 0.735616 0
M  V30 7625 H 732.251 0.909051 1.68548 0
M  V30 7626 H 730.556 -0.486052 3.88773 0
M  V30 7627 H 732.253 -0.113775 4.00839 0
M  V30 7628 H 728.843 1.31818 4.07826 0
M  V30 7629 H 733.027 2.23272 4.43242 0
M  V30 7630 H 728.283 3.53064 4.99155 0
M  V30 7631 H 732.457 4.44692 5.35931 0
M  V30 7632 H 730.084 5.10132 5.63622 0
M  V30 7633 N 731.66 -1.50943 0.453197 0
M  V30 7634 C 732.59 -2.31005 -0.34044 0
M  V30 7635 C 733.571 -1.37112 -1.00669 0
M  V30 7636 O 734.756 -1.66033 -1.0073 0
M  V30 7637 C 731.886 -3.16358 -1.433 0
M  V30 7638 C 730.84 -4.18658 -0.889363 0
M  V30 7639 C 730.166 -4.92633 -2.07887 0
M  V30 7640 C 731.466 -5.22227 0.0871142 0
M  V30 7641 H 733.16 -2.97601 0.327723 0
M  V30 7642 H 730.706 -1.43119 0.159054 0
M  V30 7643 H 732.659 -3.71155 -1.99555 0
M  V30 7644 H 731.383 -2.47613 -2.12968 0
M  V30 7645 H 730.042 -3.64936 -0.348915 0
M  V30 7646 H 729.69 -4.20376 -2.76211 0
M  V30 7647 H 729.39 -5.61819 -1.72143 0
M  V30 7648 H 730.914 -5.50258 -2.64666 0
M  V30 7649 H 732.328 -5.72001 -0.385656 0
M  V30 7650 H 730.725 -5.99032 0.357926 0
M  V30 7651 H 731.795 -4.74077 1.01879 0
M  V30 7652 N 733.138 -0.185124 -1.56509 0
M  V30 7653 C 734.088 0.752315 -2.15231 0
M  V30 7654 C 735.072 1.18327 -1.0903 0
M  V30 7655 O 736.264 1.14333 -1.35119 0
M  V30 7656 C 733.393 1.97583 -2.80742 0
M  V30 7657 C 732.479 1.56623 -3.94119 0
M  V30 7658 N 732.87 0.867008 -4.98314 0
M  V30 7659 C 731.168 1.85626 -4.05535 0
M  V30 7660 C 731.869 0.663228 -5.77907 0
M  V30 7661 N 730.845 1.20891 -5.29987 0
M  V30 7662 H 734.647 0.209267 -2.93154 0
M  V30 7663 H 732.161 0.0150444 -1.62393 0
M  V30 7664 H 734.158 2.65779 -3.21197 0
M  V30 7665 H 732.818 2.52369 -2.04303 0
M  V30 7666 H 733.829 0.52355 -5.15247 0
M  V30 7667 H 730.506 2.41992 -3.40215 0
M  V30 7668 H 731.896 0.109273 -6.71811 0
M  V30 7669 N 734.616 1.57351 0.0885366 0
M  V30 7670 C 735.844 1.90631 0.804196 0
M  V30 7671 C 736.259 0.779474 1.71958 0
M  V30 7672 O 735.616 -0.248179 1.80805 0
M  V30 7673 C 735.667 3.23568 1.61202 0
M  V30 7674 O 735.388 4.31917 0.733447 0
M  V30 7675 C 736.889 3.70753 2.43016 0
M  V30 7676 H 734.109 0.630501 0.229585 0
M  V30 7677 H 736.653 2.044 0.0638092 0
M  V30 7678 H 734.808 3.11377 2.30485 0
M  V30 7679 H 735.222 5.08297 1.29361 0
M  V30 7680 H 736.696 4.66447 2.9518 0
M  V30 7681 H 737.173 2.98922 3.2178 0
M  V30 7682 H 737.779 3.85834 1.7892 0
M  V30 7683 N 736.094 -0.359525 1.53444 0
M  V30 7684 C 737.34 -1.10315 1.70172 0
M  V30 7685 C 737.673 -1.88788 0.455287 0
M  V30 7686 O 736.948 -1.86635 -0.547514 0
M  V30 7687 C 737.231 -2.05744 2.95536 0
M  V30 7688 C 737.084 -1.3084 4.3035 0
M  V30 7689 C 738.403 -3.05784 3.16518 0
M  V30 7690 H 735.522 -0.399662 0.619225 0
M  V30 7691 H 738.164 -0.383338 1.86093 0
M  V30 7692 H 736.314 -2.67125 2.82093 0
M  V30 7693 H 737.986 -0.721959 4.55615 0
M  V30 7694 H 736.229 -0.610283 4.29486 0
M  V30 7695 H 736.9 -2.00718 5.14214 0
M  V30 7696 H 739.376 -2.5451 3.29187 0
M  V30 7697 H 738.252 -3.69772 4.05659 0
M  V30 7698 H 738.513 -3.76289 2.32076 0
M  V30 7699 N 737.572 -1.44907 -0.619662 0
M  V30 7700 C 738.504 -1.48652 -1.74457 0
M  V30 7701 C 739.517 -0.378596 -1.58337 0
M  V30 7702 O 740.706 -0.644987 -1.6644 0
M  V30 7703 C 737.806 -1.31568 -3.12319 0
M  V30 7704 C 736.979 -2.55816 -3.54792 0
M  V30 7705 C 736.038 -2.33465 -4.71573 0
M  V30 7706 O 735.064 -3.07015 -4.79302 0
M  V30 7707 N 736.266 -1.37254 -5.6404 0
M  V30 7708 H 739.031 -2.45632 -1.71712 0
M  V30 7709 H 736.592 -1.40492 -0.804582 0
M  V30 7710 H 738.584 -1.14445 -3.88181 0
M  V30 7711 H 737.154 -0.429095 -3.09641 0
M  V30 7712 H 736.374 -2.88137 -2.69018 0
M  V30 7713 H 737.662 -3.38431 -3.79924 0
M  V30 7714 H 737.06 -0.765309 -5.60499 0
M  V30 7715 H 735.617 -1.26106 -6.39485 0
M  V30 7716 N 739.05 0.861098 -1.31996 0
M  V30 7717 C 740.466 1.14827 -1.10846 0
M  V30 7718 C 740.666 2.0117 0.11528 0
M  V30 7719 O 739.722 2.39423 0.802048 0
M  V30 7720 C 741.035 1.83183 -2.38462 0
M  V30 7721 C 742.583 1.95847 -2.44158 0
M  V30 7722 C 743.058 2.67617 -3.71679 0
M  V30 7723 N 744.549 2.75147 -3.72624 0
M  V30 7724 C 745.284 3.31314 -4.67994 0
M  V30 7725 N 744.78 3.88343 -5.73726 0
M  V30 7726 N 746.573 3.29356 -4.55501 0
M  V30 7727 H 738.724 0.285951 -2.10466 0
M  V30 7728 H 740.987 0.189303 -0.928907 0
M  V30 7729 H 740.693 1.27193 -3.27895 0
M  V30 7730 H 740.567 2.83393 -2.48935 0
M  V30 7731 H 742.954 2.50999 -1.55189 0
M  V30 7732 H 743.035 0.94653 -2.37644 0
M  V30 7733 H 742.679 2.13131 -4.61018 0
M  V30 7734 H 742.609 3.69237 -3.75462 0
M  V30 7735 H 745.1 2.34682 -2.96197 0
M  V30 7736 H 745.413 4.29338 -6.42564 0
M  V30 7737 H 743.758 3.86693 -5.77489 0
M  V30 7738 H 746.949 2.84047 -3.72069 0
M  V30 7739 H 747.122 3.7283 -5.30001 0
M  V30 7740 N 740.528 1.15101 1.07655 0
M  V30 7741 C 741.476 0.840714 2.16875 0
M  V30 7742 C 742.47 -0.184594 1.68391 0
M  V30 7743 O 743.676 -0.0399315 1.79956 0
M  V30 7744 H 740.051 0.254192 0.707736 0
M  V30 7745 H 742.022 1.76959 2.40266 0
M  V30 7746 C 740.771 0.343018 3.46004 0
M  V30 7747 H 740.094 1.12335 3.83694 0
M  V30 7748 H 741.534 0.16453 4.23681 0
M  V30 7749 C 739.993 -0.934881 3.23669 0
M  V30 7750 O 740.523 -2.00706 3.47965 0
M  V30 7751 N 738.729 -0.873167 2.77172 0
M  V30 7752 H 738.276 -0.000479072 2.576 0
M  V30 7753 H 738.234 -1.72873 2.62607 0
M  V30 7754 N 742.006 -1.2595 0.947325 0
M  V30 7755 C 742.938 -2.25336 0.41906 0
M  V30 7756 C 743.951 -1.56135 -0.461051 0
M  V30 7757 O 745.14 -1.76438 -0.270505 0
M  V30 7758 C 742.24 -3.36334 -0.416233 0
M  V30 7759 C 741.413 -4.35088 0.449162 0
M  V30 7760 C 740.472 -5.25185 -0.326716 0
M  V30 7761 O 739.498 -5.68548 0.272374 0
M  V30 7762 N 740.7 -5.57388 -1.6217 0
M  V30 7763 H 743.465 -2.71298 1.27348 0
M  V30 7764 H 741.026 -1.39781 0.81688 0
M  V30 7765 H 743.018 -3.93564 -0.942826 0
M  V30 7766 H 741.588 -2.89819 -1.17148 0
M  V30 7767 H 740.808 -3.76841 1.15692 0
M  V30 7768 H 742.096 -4.98056 1.04008 0
M  V30 7769 H 741.494 -5.2405 -2.13046 0
M  V30 7770 H 740.051 -6.17234 -2.0944 0
M  V30 7771 N 743.484 -0.715051 -1.40445 0
M  V30 7772 C 744.417 -0.0112426 -2.28197 0
M  V30 7773 C 745.395 0.768211 -1.43308 0
M  V30 7774 O 746.579 0.754961 -1.72721 0
M  V30 7775 C 743.706 0.991453 -3.23864 0
M  V30 7776 C 742.752 0.302873 -4.25423 0
M  V30 7777 S 743.585 -0.968852 -5.26663 0
M  V30 7778 C 744.741 0.0317538 -6.25892 0
M  V30 7779 H 744.974 -0.755467 -2.87541 0
M  V30 7780 H 742.507 -0.506054 -1.45871 0
M  V30 7781 H 744.465 1.56475 -3.79507 0
M  V30 7782 H 743.126 1.70838 -2.63578 0
M  V30 7783 H 742.319 1.06086 -4.92709 0
M  V30 7784 H 741.921 -0.197853 -3.73476 0
M  V30 7785 H 744.213 0.878764 -6.71777 0
M  V30 7786 H 745.156 -0.607698 -7.05488 0
M  V30 7787 H 745.564 0.39524 -5.63115 0
M  V30 7788 N 744.962 1.50701 -0.461195 0
M  V30 7789 C 745.892 2.31182 0.328184 0
M  V30 7790 C 746.873 1.37644 0.999408 0
M  V30 7791 O 748.058 1.66565 0.99848 0
M  V30 7792 C 745.188 3.17113 1.41621 0
M  V30 7793 C 744.142 4.19124 0.867148 0
M  V30 7794 C 743.468 4.93728 2.05272 0
M  V30 7795 C 744.768 5.22174 -0.114808 0
M  V30 7796 H 746.462 2.97423 -0.343501 0
M  V30 7797 H 744.008 1.43033 -0.166641 0
M  V30 7798 H 745.961 3.72208 1.97584 0
M  V30 7799 H 744.685 2.48739 2.11652 0
M  V30 7800 H 743.344 3.65116 0.329557 0
M  V30 7801 H 742.992 4.21835 2.73978 0
M  V30 7802 H 742.692 5.62724 1.69161 0
M  V30 7803 H 744.216 5.51654 2.61744 0
M  V30 7804 H 745.63 5.72198 0.355316 0
M  V30 7805 H 744.027 5.98833 -0.389689 0
M  V30 7806 H 745.097 4.7353 -1.04391 0
M  V30 7807 N 746.441 0.193421 1.56409 0
M  V30 7808 C 747.374 -0.767384 2.1491 0
M  V30 7809 C 748.352 -1.21075 1.08534 0
M  V30 7810 O 749.536 -1.29856 1.36637 0
M  V30 7811 C 746.663 -2.03615 2.70663 0
M  V30 7812 C 745.709 -1.73505 3.89613 0
M  V30 7813 S 746.542 -0.884645 5.28142 0
M  V30 7814 C 747.698 -2.1636 5.87315 0
M  V30 7815 H 747.931 -0.270053 2.96071 0
M  V30 7816 H 745.464 -0.0215546 1.54385 0
M  V30 7817 H 747.422 -2.7648 3.03429 0
M  V30 7818 H 746.083 -2.50461 1.89547 0
M  V30 7819 H 745.276 -2.67701 4.27027 0
M  V30 7820 H 744.878 -1.08723 3.57848 0
M  V30 7821 H 747.17 -3.11629 6.01576 0
M  V30 7822 H 748.113 -1.8338 6.83943 0
M  V30 7823 H 748.521 -2.29129 5.15907 0
M  V30 7824 N 747.919 -1.57396 -0.0801906 0
M  V30 7825 C 749.147 -1.91055 -0.794075 0
M  V30 7826 C 749.562 -0.788583 -1.71542 0
M  V30 7827 O 748.919 0.238587 -1.80934 0
M  V30 7828 C 748.97 -3.24418 -1.59484 0
M  V30 7829 O 748.691 -4.323 -0.710532 0
M  V30 7830 C 750.192 -3.72037 -2.41046 0
M  V30 7831 H 747.412 -0.63171 -0.226238 0
M  V30 7832 H 749.956 -2.04431 -0.0529685 0
M  V30 7833 H 748.111 -3.12595 -2.2883 0
M  V30 7834 H 748.525 -5.08976 -1.26663 0
M  V30 7835 H 749.999 -4.68006 -2.92702 0
M  V30 7836 H 750.476 -3.00624 -3.2019 0
M  V30 7837 H 751.082 -3.86777 -1.76871 0
M  V30 7838 N 749.397 0.351382 -1.53633 0
M  V30 7839 C 750.808 0.927429 -1.62036 0
M  V30 7840 C 751.159 1.89809 -0.496706 0
M  V30 7841 O 750.284 2.1313 0.374749 0
M  V30 7842 C 750.879 1.68886 -2.93706 0
M  V30 7843 C 749.438 2.21404 -3.04397 0
M  V30 7844 C 748.585 1.03075 -2.57431 0
M  V30 7845 H 751.536 0.129748 -1.58169 0
M  V30 7846 H 751.557 2.55116 -2.82305 0
M  V30 7847 H 751.069 0.982149 -3.75467 0
M  V30 7848 H 749.17 2.95274 -2.27253 0
M  V30 7849 H 749.283 2.48312 -4.09729 0
M  V30 7850 H 747.647 1.40188 -2.12649 0
M  V30 7851 H 748.43 0.338793 -3.41624 0
M  V30 7852 N 750.875 1.45233 0.611969 0
M  V30 7853 C 752.103 1.52539 1.39784 0
M  V30 7854 C 752.518 0.156533 1.8815 0
M  V30 7855 O 751.875 -0.84112 1.61961 0
M  V30 7856 C 751.926 2.50614 2.60528 0
M  V30 7857 O 751.647 3.8218 2.14173 0
M  V30 7858 C 753.148 2.67574 3.53439 0
M  V30 7859 H 750.368 0.51674 0.428043 0
M  V30 7860 H 752.912 1.90379 0.746727 0
M  V30 7861 H 751.067 2.15858 3.2169 0
M  V30 7862 H 751.481 4.35305 2.92592 0
M  V30 7863 H 752.955 3.40184 4.34717 0
M  V30 7864 H 753.432 1.73458 4.03496 0
M  V30 7865 H 754.038 3.0331 2.98133 0
M  V30 7866 N 752.353 -0.854086 1.3245 0
M  V30 7867 C 753.578 -1.64597 1.26185 0
M  V30 7868 C 754.003 -1.87357 -0.167074 0
M  V30 7869 O 753.361 -1.42675 -1.11864 0
M  V30 7870 C 753.409 -2.98213 2.02734 0
M  V30 7871 O 752.513 -3.88784 1.37554 0
M  V30 7872 H 751.854 -0.50179 0.434859 0
M  V30 7873 H 754.384 -1.06372 1.74775 0
M  V30 7874 H 754.394 -3.4803 2.1293 0
M  V30 7875 H 753.069 -2.80969 3.06642 0
M  V30 7876 H 751.646 -3.4725 1.3591 0
M  V30 7877 N 753.831 -1.1567 -1.07043 0
M  V30 7878 C 754.794 -0.858906 -2.12498 0
M  V30 7879 C 755.794 0.142735 -1.60165 0
M  V30 7880 O 756.984 -0.0872678 -1.73981 0
M  V30 7881 C 754.116 -0.283021 -3.39723 0
M  V30 7882 H 755.309 -1.79368 -2.40348 0
M  V30 7883 H 752.862 -0.964608 -1.22984 0
M  V30 7884 H 753.597 0.659796 -3.17517 0
M  V30 7885 H 753.382 -1.00467 -3.7901 0
M  V30 7886 H 754.872 -0.0923543 -4.17498 0
M  V30 7887 N 755.309 1.25446 -0.953992 0
M  V30 7888 C 756.72 1.75047 -0.649255 0
M  V30 7889 C 757.071 1.77527 0.835385 0
M  V30 7890 O 756.196 1.39569 1.65377 0
M  V30 7891 C 756.791 3.17889 -1.17183 0
M  V30 7892 C 755.35 3.65052 -0.917267 0
M  V30 7893 C 754.497 2.44124 -1.31525 0
M  V30 7894 H 757.448 1.11342 -1.13087 0
M  V30 7895 H 757.469 3.76768 -0.531616 0
M  V30 7896 H 756.981 3.16052 -2.25239 0
M  V30 7897 H 755.082 3.72305 0.148354 0
M  V30 7898 H 755.195 4.53222 -1.55328 0
M  V30 7899 H 753.559 2.43906 -0.733624 0
M  V30 7900 H 754.342 2.44979 -2.405 0
M  V30 7901 N 756.787 0.722489 1.40064 0
M  V30 7902 C 758.203 0.396758 1.5459 0
M  V30 7903 C 758.403 -1.09375 1.69232 0
M  V30 7904 O 757.459 -1.87984 1.68578 0
M  V30 7905 C 758.772 1.16885 2.77053 0
M  V30 7906 C 760.32 1.15583 2.90877 0
M  V30 7907 C 760.795 1.91023 4.16262 0
M  V30 7908 N 762.286 1.88126 4.23276 0
M  V30 7909 C 763.021 2.43315 5.19216 0
M  V30 7910 N 762.517 3.07089 6.21022 0
M  V30 7911 N 764.31 2.33418 5.11344 0
M  V30 7912 H 756.461 1.68887 1.28806 0
M  V30 7913 H 758.724 0.714231 0.62336 0
M  V30 7914 H 758.43 2.22301 2.72534 0
M  V30 7915 H 758.304 0.765011 3.69361 0
M  V30 7916 H 760.691 0.10984 2.94896 0
M  V30 7917 H 760.772 1.59895 1.99668 0
M  V30 7918 H 760.416 2.95616 4.13006 0
M  V30 7919 H 760.346 1.44126 5.06493 0
M  V30 7920 H 762.837 1.41654 3.50346 0
M  V30 7921 H 763.15 3.467 6.90666 0
M  V30 7922 H 761.495 3.11175 6.21446 0
M  V30 7923 H 764.686 1.83248 4.30741 0
M  V30 7924 H 764.859 2.7673 5.85939 0
M  V30 7925 N 758.265 -1.50454 0.469181 0
M  V30 7926 C 759.49 -2.0722 -0.0864892 0
M  V30 7927 C 759.915 -1.33098 -1.32916 0
M  V30 7928 O 759.273 -0.378084 -1.77314 0
M  V30 7929 C 759.321 -3.58845 -0.355384 0
M  V30 7930 O 758.425 -3.86583 -1.43622 0
M  V30 7931 H 757.766 -0.663889 0.0121414 0
M  V30 7932 H 760.296 -1.93674 0.659674 0
M  V30 7933 H 760.306 -4.03617 -0.596447 0
M  V30 7934 H 758.981 -4.12211 0.552698 0
M  V30 7935 H 757.558 -3.5365 -1.18262 0
M  V30 7936 N 759.743 -0.201713 -1.56304 0
M  V30 7937 C 760.989 0.435952 -1.98059 0
M  V30 7938 C 761.322 1.60811 -1.08873 0
M  V30 7939 O 760.597 1.9398 -0.142128 0
M  V30 7940 C 760.88 0.889706 -3.48936 0
M  V30 7941 C 760.733 -0.284725 -4.48898 0
M  V30 7942 C 762.052 1.7529 -4.03685 0
M  V30 7943 H 759.171 0.15699 -0.720085 0
M  V30 7944 H 761.813 -0.293965 -1.87712 0
M  V30 7945 H 759.963 1.51166 -3.57884 0
M  V30 7946 H 761.635 -0.922531 -4.51981 0
M  V30 7947 H 759.878 -0.935427 -4.23594 0
M  V30 7948 H 760.549 0.0753865 -5.51949 0
M  V30 7949 H 763.025 1.2283 -3.97558 0
M  V30 7950 H 761.901 2.03933 -5.0961 0
M  V30 7951 H 762.162 2.70939 -3.49348 0
M  V30 7952 N 761.222 1.57436 0.0718424 0
M  V30 7953 C 762.155 1.98982 1.11721 0
M  V30 7954 C 763.133 0.866731 1.37574 0
M  V30 7955 O 764.317 1.12903 1.50948 0
M  V30 7956 C 761.444 2.32648 2.46155 0
M  V30 7957 C 760.49 3.54964 2.36437 0
M  V30 7958 S 761.323 5.05802 1.75854 0
M  V30 7959 C 762.479 5.42669 3.11867 0
M  V30 7960 H 762.712 2.87338 0.763154 0
M  V30 7961 H 760.245 1.51833 0.280372 0
M  V30 7962 H 762.203 2.52719 3.23486 0
M  V30 7963 H 760.864 1.44821 2.78722 0
M  V30 7964 H 760.057 3.76038 3.35577 0
M  V30 7965 H 759.659 3.34524 1.67242 0
M  V30 7966 H 761.951 5.40737 4.08178 0
M  V30 7967 H 762.894 6.43461 2.95573 0
M  V30 7968 H 763.302 4.70131 3.1247 0
M  V30 7969 N 762.7 -0.34323 1.53817 0
M  V30 7970 C 763.647 -1.42153 1.81827 0
M  V30 7971 C 764.617 -1.52251 0.663996 0
M  V30 7972 O 765.802 -1.67784 0.908461 0
M  V30 7973 C 762.942 -2.78799 2.03384 0
M  V30 7974 C 762.055 -2.7749 3.31094 0
M  V30 7975 C 761.19 -4.05856 3.42717 0
M  V30 7976 C 760.229 -3.98776 4.64375 0
M  V30 7977 N 759.366 -5.18833 4.73029 0
M  V30 7978 H 764.206 -1.17567 2.73829 0
M  V30 7979 H 761.743 -0.569506 1.35628 0
M  V30 7980 H 763.701 -3.58211 2.13872 0
M  V30 7981 H 762.331 -3.01736 1.14696 0
M  V30 7982 H 761.383 -1.90182 3.29446 0
M  V30 7983 H 762.695 -2.68137 4.206 0
M  V30 7984 H 761.849 -4.93691 3.52638 0
M  V30 7985 H 760.588 -4.1799 2.51267 0
M  V30 7986 H 759.593 -3.09325 4.5453 0
M  V30 7987 H 760.818 -3.88224 5.57189 0
M  V30 7988 H 758.764 -5.31511 3.84489 0
M  V30 7989 H 758.681 -5.11737 5.56472 0
M  V30 7990 H 759.949 -6.08439 4.87261 0
M  V30 7991 N 764.178 -1.45556 -0.604258 0
M  V30 7992 C 765.403 -1.53509 -1.39462 0
M  V30 7993 C 765.828 -0.169638 -1.87333 0
M  V30 7994 O 765.186 0.846346 -1.60333 0
M  V30 7995 C 765.234 -2.52654 -2.5729 0
M  V30 7996 O 764.338 -2.04666 -3.5803 0
M  V30 7997 H 763.679 -0.517355 -0.416221 0
M  V30 7998 H 766.209 -1.90939 -0.735072 0
M  V30 7999 H 766.219 -2.71568 -3.04491 0
M  V30 8000 H 764.894 -3.51823 -2.21797 0
M  V30 8001 H 763.471 -1.95643 -3.17456 0
M  V30 8002 N 765.656 0.84705 -1.32902 0
M  V30 8003 C 766.903 1.60176 -1.23894 0
M  V30 8004 C 767.231 1.93496 0.197341 0
M  V30 8005 O 766.486 1.58173 1.15238 0
M  V30 8006 C 766.785 2.92663 -2.05142 0
M  V30 8007 C 766.451 2.7874 -3.54422 0
M  V30 8008 C 765.113 2.7465 -3.95121 0
M  V30 8009 C 767.465 2.64128 -4.49317 0
M  V30 8010 C 764.793 2.53837 -5.28946 0
M  V30 8011 C 767.145 2.44849 -5.83294 0
M  V30 8012 C 765.809 2.39156 -6.23186 0
M  V30 8013 H 765.079 0.586127 -0.453361 0
M  V30 8014 H 767.726 0.981994 -1.64405 0
M  V30 8015 H 766.031 3.588 -1.57383 0
M  V30 8016 H 767.728 3.50095 -1.95537 0
M  V30 8017 H 764.318 2.82751 -3.22102 0
M  V30 8018 H 768.502 2.66327 -4.18788 0
M  V30 8019 H 763.758 2.4787 -5.58901 0
M  V30 8020 H 767.932 2.32524 -6.56434 0
M  V30 8021 H 765.559 2.22789 -7.26821 0
M  V30 8022 N 767.134 1.16236 1.06428 0
M  V30 8023 C 768.383 0.937523 1.78587 0
M  V30 8024 C 768.696 -0.536 1.88113 0
M  V30 8025 O 769.902 -0.878697 2.56887 0
M  V30 8026 C 768.358 1.62808 3.2097 0
M  V30 8027 C 767.966 3.13927 3.19615 0
M  V30 8028 C 769.71 1.48515 3.97673 0
M  V30 8029 C 767.617 3.75727 4.56709 0
M  V30 8030 H 766.547 0.347125 0.669343 0
M  V30 8031 H 769.198 1.39353 1.19385 0
M  V30 8032 H 767.58 1.09977 3.80422 0
M  V30 8033 H 768.754 3.7359 2.69753 0
M  V30 8034 H 767.069 3.28089 2.56411 0
M  V30 8035 H 769.666 1.92069 4.99013 0
M  V30 8036 H 770.009 0.433913 4.14032 0
M  V30 8037 H 770.542 1.98494 3.44739 0
M  V30 8038 H 767.281 4.80793 4.45554 0
M  V30 8039 H 766.801 3.20849 5.0677 0
M  V30 8040 H 768.48 3.77203 5.25668 0
M  V30 8041 N 768.612 -1.24939 0.960631 0
M  V30 8042 C 769.559 -2.25658 0.484459 0
M  V30 8043 C 770.529 -1.59422 -0.466242 0
M  V30 8044 O 771.714 -1.87015 -0.378169 0
M  V30 8045 C 768.854 -3.44359 -0.225958 0
M  V30 8046 C 767.967 -4.25214 0.762682 0
M  V30 8047 C 767.102 -5.31192 0.0290931 0
M  V30 8048 C 766.141 -6.03739 1.00827 0
M  V30 8049 N 765.278 -7.01437 0.305155 0
M  V30 8050 H 770.118 -2.65758 1.34821 0
M  V30 8051 H 767.655 -1.30648 0.675983 0
M  V30 8052 H 769.613 -4.12035 -0.654472 0
M  V30 8053 H 768.243 -3.05118 -1.05371 0
M  V30 8054 H 767.295 -3.57144 1.30966 0
M  V30 8055 H 768.607 -4.75406 1.50964 0
M  V30 8056 H 767.761 -6.04971 -0.457763 0
M  V30 8057 H 766.5 -4.81889 -0.750614 0
M  V30 8058 H 765.505 -5.2877 1.50607 0
M  V30 8059 H 766.73 -6.55131 1.7883 0
M  V30 8060 H 764.676 -6.54415 -0.455704 0
M  V30 8061 H 764.593 -7.49475 0.991104 0
M  V30 8062 H 765.861 -7.79336 -0.159966 0
M  V30 8063 N 770.09 -0.729906 -1.39679 0
M  V30 8064 C 771.506 -0.404951 -1.54377 0
M  V30 8065 C 771.706 1.08476 -1.6981 0
M  V30 8066 O 770.762 1.87087 -1.69572 0
M  V30 8067 C 772.075 -1.18352 -2.76429 0
M  V30 8068 C 773.623 -1.17124 -2.9026 0
M  V30 8069 C 774.098 -1.93227 -4.15244 0
M  V30 8070 N 775.589 -1.90368 -4.22273 0
M  V30 8071 C 776.324 -2.46065 -5.17918 0
M  V30 8072 N 775.82 -3.10378 -6.19385 0
M  V30 8073 N 777.613 -2.36127 -5.10099 0
M  V30 8074 H 769.764 -1.69567 -1.27909 0
M  V30 8075 H 772.027 -0.717527 -0.619564 0
M  V30 8076 H 771.733 -2.23743 -2.71352 0
M  V30 8077 H 771.607 -0.784589 -3.6895 0
M  V30 8078 H 773.994 -0.125478 -2.94833 0
M  V30 8079 H 774.075 -1.60951 -1.98817 0
M  V30 8080 H 773.719 -2.97802 -4.11432 0
M  V30 8081 H 773.649 -1.4681 -5.05722 0
M  V30 8082 H 776.14 -1.4351 -3.4959 0
M  V30 8083 H 776.453 -3.50358 -6.88817 0
M  V30 8084 H 774.798 -3.14467 -6.19787 0
M  V30 8085 H 777.989 -1.85529 -4.29763 0
M  V30 8086 H 778.162 -2.79833 -5.84463 0
M  V30 8087 N 771.568 1.50203 -0.477153 0
M  V30 8088 C 772.516 2.30278 0.327826 0
M  V30 8089 C 773.51 1.37831 0.984839 0
M  V30 8090 O 774.716 1.54994 0.915251 0
M  V30 8091 H 771.091 0.741612 0.124564 0
M  V30 8092 H 773.062 2.96124 -0.367853 0
M  V30 8093 C 771.811 3.18548 1.39365 0
M  V30 8094 H 771.134 3.89596 0.897475 0
M  V30 8095 H 772.574 3.77561 1.92934 0
M  V30 8096 C 771.033 2.36548 2.39889 0
M  V30 8097 O 771.563 2.05282 3.45286 0
M  V30 8098 N 769.769 1.99015 2.11758 0
M  V30 8099 H 769.316 2.24641 1.26071 0
M  V30 8100 H 769.274 1.44454 2.7925 0
M  V30 8101 N 773.046 0.209999 1.56195 0
M  V30 8102 C 774.274 -0.429996 2.02382 0
M  V30 8103 C 774.689 -1.54159 1.08998 0
M  V30 8104 O 774.046 -1.82239 0.0974856 0
M  V30 8105 C 774.097 -0.972433 3.48175 0
M  V30 8106 O 773.818 0.0948231 4.37997 0
M  V30 8107 C 775.319 -1.68683 4.09952 0
M  V30 8108 H 772.539 -0.106475 0.662498 0
M  V30 8109 H 775.083 0.323072 2.01932 0
M  V30 8110 H 773.238 -1.67582 3.49278 0
M  V30 8111 H 773.652 -0.31113 5.23576 0
M  V30 8112 H 775.126 -2.01851 5.13771 0
M  V30 8113 H 775.603 -2.59587 3.54276 0
M  V30 8114 H 776.209 -1.02893 4.12666 0
M  V30 8115 N 774.524 -1.57472 -0.0634922 0
M  V30 8116 C 775.935 -1.76303 -0.614337 0
M  V30 8117 C 776.286 -0.836578 -1.77471 0
M  V30 8118 O 775.411 -0.0227184 -2.16388 0
M  V30 8119 C 776.006 -3.19709 -1.12122 0
M  V30 8120 C 774.565 -3.39856 -1.61786 0
M  V30 8121 C 773.712 -2.71975 -0.540845 0
M  V30 8122 H 776.663 -1.57864 0.162702 0
M  V30 8123 H 776.684 -3.24326 -1.98979 0
M  V30 8124 H 776.196 -3.87114 -0.276472 0
M  V30 8125 H 774.297 -2.77578 -2.48558 0
M  V30 8126 H 774.41 -4.48338 -1.68908 0
M  V30 8127 H 772.774 -2.34763 -0.987854 0
M  V30 8128 H 773.557 -3.4204 0.293856 0
M  V30 8129 N 776.003 0.335068 -1.53997 0
M  V30 8130 C 776.933 1.41727 -1.85568 0
M  V30 8131 C 777.914 1.54505 -0.7115 0
M  V30 8132 O 779.099 1.68573 -0.964191 0
M  V30 8133 C 776.229 2.7866 -2.07282 0
M  V30 8134 C 775.183 2.80682 -3.23112 0
M  V30 8135 C 774.509 4.20581 -3.30175 0
M  V30 8136 C 775.809 2.45458 -4.61029 0
M  V30 8137 H 777.503 1.15555 -2.76202 0
M  V30 8138 H 775.049 0.554445 -1.32898 0
M  V30 8139 H 777.002 3.54423 -2.27952 0
M  V30 8140 H 775.726 3.06286 -1.13387 0
M  V30 8141 H 774.385 2.07373 -3.02311 0
M  V30 8142 H 774.033 4.4533 -2.33859 0
M  V30 8143 H 773.733 4.22843 -4.08016 0
M  V30 8144 H 775.257 4.98174 -3.53066 0
M  V30 8145 H 776.671 3.10934 -4.81656 0
M  V30 8146 H 775.068 2.5899 -5.41336 0
M  V30 8147 H 776.138 1.40628 -4.6406 0
M  V30 8148 N 777.481 1.45874 0.596531 0
M  V30 8149 C 778.897 1.30524 0.918459 0
M  V30 8150 C 779.097 0.266429 1.99731 0
M  V30 8151 O 778.153 -0.335809 2.50257 0
M  V30 8152 C 779.466 2.68747 1.3489 0
M  V30 8153 C 781.014 2.7673 1.46251 0
M  V30 8154 C 781.489 4.15504 1.92667 0
M  V30 8155 N 782.98 4.17853 1.99883 0
M  V30 8156 C 783.715 5.22109 2.37044 0
M  V30 8157 N 783.211 6.36704 2.73094 0
M  V30 8158 N 785.004 5.09471 2.37479 0
M  V30 8159 H 777.155 2.12081 -0.116368 0
M  V30 8160 H 779.418 0.947941 0.0106033 0
M  V30 8161 H 779.124 3.46006 0.630288 0
M  V30 8162 H 778.998 2.97942 2.31323 0
M  V30 8163 H 781.385 1.99768 2.17202 0
M  V30 8164 H 781.466 2.51236 0.481054 0
M  V30 8165 H 781.11 4.92956 1.223 0
M  V30 8166 H 781.04 4.38396 2.91747 0
M  V30 8167 H 783.531 3.35163 1.74568 0
M  V30 8168 H 783.844 7.12041 3.00362 0
M  V30 8169 H 782.189 6.40087 2.70764 0
M  V30 8170 H 785.38 4.18987 2.08728 0
M  V30 8171 H 785.553 5.90837 2.66112 0
M  V30 8172 N 778.959 -0.83999 1.33349 0
M  V30 8173 C 779.892 -1.95415 1.17848 0
M  V30 8174 C 780.87 -1.6243 0.0742296 0
M  V30 8175 O 782.054 -1.87014 0.23626 0
M  V30 8176 C 779.181 -3.28938 0.807295 0
M  V30 8177 C 778.227 -3.80895 1.91888 0
M  V30 8178 S 779.06 -4.02709 3.52967 0
M  V30 8179 C 780.216 -5.39185 3.17853 0
M  V30 8180 H 780.449 -2.08265 2.12162 0
M  V30 8181 H 777.982 -0.993643 1.18178 0
M  V30 8182 H 779.94 -4.06093 0.599914 0
M  V30 8183 H 778.601 -3.13881 -0.117234 0
M  V30 8184 H 777.794 -4.77508 1.6125 0
M  V30 8185 H 777.396 -3.10633 2.08286 0
M  V30 8186 H 779.688 -6.21978 2.68608 0
M  V30 8187 H 780.631 -5.74795 4.13542 0
M  V30 8188 H 781.039 -5.03885 2.5448 0
M  V30 8189 N 780.437 -1.16799 -1.0581 0
M  V30 8190 C 781.714 -0.862616 -1.75551 0
M  V30 8191 C 782.094 0.6385 -2.01212 0
M  V30 8192 O 781.442 1.58784 -1.64317 0
M  V30 8193 C 781.652 -1.6907 -3.05314 0
M  V30 8194 C 783 -1.90675 -3.79379 0
M  V30 8195 O 784.024 -1.65976 -3.15167 0
M  V30 8196 O 782.883 -2.32145 -4.94743 0
M  V30 8197 H 779.977 -0.318789 -0.763088 0
M  V30 8198 H 782.523 -1.27461 -1.12034 0
M  V30 8199 H 781.295 -2.70912 -2.82352 0
M  V30 8200 H 780.918 -1.27606 -3.76567 0
M  V30 8201 N 781.915 1.24427 -0.967243 0
M  V30 8202 C 783.326 1.74349 -0.667785 0
M  V30 8203 C 783.677 1.78403 0.816509 0
M  V30 8204 O 782.802 1.41315 1.63887 0
M  V30 8205 C 783.397 3.16628 -1.20548 0
M  V30 8206 C 781.956 3.64059 -0.955934 0
M  V30 8207 C 781.103 2.42715 -1.34106 0
M  V30 8208 H 784.054 1.10136 -1.14262 0
M  V30 8209 H 784.075 3.76183 -0.571547 0
M  V30 8210 H 783.587 3.13646 -2.28578 0
M  V30 8211 H 781.688 3.72441 0.108858 0
M  V30 8212 H 781.801 4.51549 -1.60126 0
M  V30 8213 H 780.165 2.43114 -0.759452 0
M  V30 8214 H 780.948 2.42414 -2.43085 0
M  V30 8215 N 783.393 0.737304 1.3929 0
M  V30 8216 C 784.34 0.0988364 2.30588 0
M  V30 8217 C 785.31 -0.727206 1.49335 0
M  V30 8218 O 786.495 -0.686694 1.78014 0
M  V30 8219 C 783.635 -0.800734 3.35682 0
M  V30 8220 C 782.748 0.0381731 4.31983 0
M  V30 8221 C 781.883 -0.862884 5.24145 0
M  V30 8222 C 780.922 -0.0193639 6.12097 0
M  V30 8223 N 780.059 -0.87648 6.96608 0
M  V30 8224 H 784.899 0.883031 2.84617 0
M  V30 8225 H 782.436 0.447111 1.4014 0
M  V30 8226 H 784.394 -1.33676 3.95205 0
M  V30 8227 H 783.024 -1.55088 2.83103 0
M  V30 8228 H 782.076 0.691641 3.74059 0
M  V30 8229 H 783.388 0.690294 4.94 0
M  V30 8230 H 782.542 -1.46667 5.88705 0
M  V30 8231 H 781.281 -1.54878 4.62454 0
M  V30 8232 H 780.286 0.597202 5.46547 0
M  V30 8233 H 781.511 0.663348 6.75852 0
M  V30 8234 H 779.457 -1.54762 6.37483 0
M  V30 8235 H 779.374 -0.280892 7.55478 0
M  V30 8236 H 780.642 -1.46575 7.65595 0
M  V30 8237 N 784.871 -1.49948 0.485112 0
M  V30 8238 C 786.111 -2.04301 -0.0635728 0
M  V30 8239 C 786.475 -1.35804 -1.35725 0
M  V30 8240 O 787.676 -1.80789 -1.98919 0
M  V30 8241 C 785.947 -3.56666 -0.228962 0
M  V30 8242 S 787.506 -4.32614 -0.734185 0
M  V30 8243 H 784.324 -0.710939 -0.00931895 0
M  V30 8244 H 786.926 -1.84185 0.655455 0
M  V30 8245 H 785.63 -4.04068 0.718148 0
M  V30 8246 H 785.161 -3.8116 -0.973696 0
M  V30 8247 H 787.176 -4.53859 -2.00565 0
M  V30 8248 N 786.349 -0.21828 -1.56081 0
M  V30 8249 C 787.574 0.422302 -2.03055 0
M  V30 8250 C 787.999 1.5279 -1.09713 0
M  V30 8251 O 787.357 1.81102 -0.0847187 0
M  V30 8252 C 787.405 0.934177 -3.48289 0
M  V30 8253 O 786.509 2.04574 -3.58083 0
M  V30 8254 H 785.85 0.0959764 -0.657027 0
M  V30 8255 H 788.38 -0.335958 -2.01823 0
M  V30 8256 H 788.39 1.24484 -3.88546 0
M  V30 8257 H 787.065 0.124963 -4.15712 0
M  V30 8258 H 785.642 1.74196 -3.29712 0
M  V30 8259 N 787.827 1.57504 0.0551401 0
M  V30 8260 C 789.074 1.88055 0.751104 0
M  V30 8261 C 789.402 0.812231 1.76729 0
M  V30 8262 O 788.657 -0.189918 1.94776 0
M  V30 8263 C 788.956 3.25311 1.48013 0
M  V30 8264 C 788.622 4.46858 0.602375 0
M  V30 8265 C 787.284 4.79847 0.360536 0
M  V30 8266 C 789.636 5.212 -0.00524047 0
M  V30 8267 C 786.964 5.84582 -0.498127 0
M  V30 8268 C 789.316 6.26844 -0.851453 0
M  V30 8269 C 787.98 6.58324 -1.103 0
M  V30 8270 H 787.25 0.688142 0.274848 0
M  V30 8271 H 789.897 1.91497 0.0114795 0
M  V30 8272 H 788.202 3.17737 2.29239 0
M  V30 8273 H 789.899 3.46189 2.02371 0
M  V30 8274 H 786.489 4.21049 0.801007 0
M  V30 8275 H 790.673 4.96013 0.168682 0
M  V30 8276 H 785.929 6.07361 -0.701594 0
M  V30 8277 H 790.103 6.83603 -1.32893 0
M  V30 8278 H 787.73 7.39304 -1.77011 0
M  V30 8279 N 789.305 -0.326896 1.54172 0
M  V30 8280 C 790.551 -1.06681 1.72473 0
M  V30 8281 C 790.884 -1.87779 0.49523 0
M  V30 8282 O 790.159 -1.87754 -0.507803 0
M  V30 8283 C 790.442 -1.99429 2.99834 0
M  V30 8284 C 790.295 -1.21682 4.33028 0
M  V30 8285 C 791.614 -2.99002 3.22933 0
M  V30 8286 H 788.733 -0.386438 0.627563 0
M  V30 8287 H 791.375 -0.343779 1.86864 0
M  V30 8288 H 789.525 -2.61081 2.87696 0
M  V30 8289 H 791.197 -0.625153 4.57044 0
M  V30 8290 H 789.44 -0.519045 4.30684 0
M  V30 8291 H 790.111 -1.89766 5.18356 0
M  V30 8292 H 792.587 -2.4747 3.34511 0
M  V30 8293 H 791.463 -3.61085 4.13412 0
M  V30 8294 H 791.724 -3.71281 2.40006 0
M  V30 8295 N 790.784 -1.46188 -0.588786 0
M  V30 8296 C 791.694 -1.58865 -1.72624 0
M  V30 8297 C 792.71 -0.472348 -1.67466 0
M  V30 8298 O 793.886 -0.735638 -1.87484 0
M  V30 8299 C 790.951 -1.56989 -3.0912 0
M  V30 8300 C 790.012 -2.79804 -3.25589 0
M  V30 8301 C 789.245 -2.78009 -4.55573 0
M  V30 8302 O 789.468 -1.86406 -5.39082 0
M  V30 8303 O 788.402 -3.6947 -4.75159 0
M  V30 8304 H 792.228 -2.55047 -1.64878 0
M  V30 8305 H 789.813 -1.28912 -0.755115 0
M  V30 8306 H 791.695 -1.58618 -3.90408 0
M  V30 8307 H 790.37 -0.639648 -3.17317 0
M  V30 8308 H 789.277 -2.83732 -2.43818 0
M  V30 8309 H 790.61 -3.72017 -3.22279 0
M  V30 8310 N 792.262 0.832906 -1.33792 0
M  V30 8311 C 793.209 1.94314 -1.24541 0
M  V30 8312 C 794.179 1.65646 -0.122753 0
M  V30 8313 O 795.364 1.88394 -0.30204 0
M  V30 8314 C 792.504 3.30395 -0.996641 0
M  V30 8315 C 791.617 3.71422 -2.20612 0
M  V30 8316 C 790.752 4.96401 -1.89101 0
M  V30 8317 C 789.791 5.2998 -3.06247 0
M  V30 8318 N 788.928 6.46137 -2.74685 0
M  V30 8319 H 793.768 2.01559 -2.19495 0
M  V30 8320 H 791.305 0.986243 -1.09141 0
M  V30 8321 H 793.263 4.08803 -0.832817 0
M  V30 8322 H 791.893 3.22691 -0.0838242 0
M  V30 8323 H 790.945 2.88488 -2.47949 0
M  V30 8324 H 792.257 3.92215 -3.0817 0
M  V30 8325 H 791.411 5.82572 -1.69396 0
M  V30 8326 H 790.15 4.7759 -0.987882 0
M  V30 8327 H 789.155 4.42312 -3.26559 0
M  V30 8328 H 790.38 5.50737 -3.97323 0
M  V30 8329 H 788.326 6.28801 -1.86938 0
M  V30 8330 H 788.243 6.67054 -3.55774 0
M  V30 8331 H 789.511 7.35403 -2.58461 0
M  V30 8332 N 793.74 1.17359 1.05189 0
M  V30 8333 C 794.65 0.904984 2.16442 0
M  V30 8334 C 795.666 -0.12686 1.73537 0
M  V30 8335 O 796.842 0.0524127 2.01332 0
M  V30 8336 C 793.907 0.422019 3.44122 0
M  V30 8337 C 792.968 1.52045 4.01473 0
M  V30 8338 C 792.201 1.06044 5.23059 0
M  V30 8339 O 792.424 -0.0854023 5.70336 0
M  V30 8340 O 791.358 1.85349 5.72651 0
M  V30 8341 H 795.184 1.8356 2.41949 0
M  V30 8342 H 792.769 0.95447 1.14936 0
M  V30 8343 H 794.651 0.160208 4.21095 0
M  V30 8344 H 793.326 -0.480444 3.20115 0
M  V30 8345 H 792.233 1.83615 3.25939 0
M  V30 8346 H 793.566 2.39863 4.29798 0
M  V30 8347 N 795.218 -1.23913 0.973828 0
M  V30 8348 C 796.634 -1.44325 0.681363 0
M  V30 8349 C 796.834 -1.86832 -0.754728 0
M  V30 8350 O 795.89 -2.01024 -1.52793 0
M  V30 8351 C 797.203 -2.50017 1.67069 0
M  V30 8352 C 798.751 -2.63838 1.68399 0
M  V30 8353 C 799.226 -3.72734 2.66145 0
M  V30 8354 N 800.717 -3.80169 2.64624 0
M  V30 8355 C 801.452 -4.6397 3.36927 0
M  V30 8356 N 800.948 -5.51911 4.18767 0
M  V30 8357 N 802.741 -4.58106 3.25722 0
M  V30 8358 H 794.892 -0.946204 1.9016 0
M  V30 8359 H 797.155 -0.477374 0.819035 0
M  V30 8360 H 796.861 -2.25686 2.69738 0
M  V30 8361 H 796.735 -3.48287 1.4483 0
M  V30 8362 H 799.122 -2.87524 0.664379 0
M  V30 8363 H 799.203 -1.65906 1.94702 0
M  V30 8364 H 798.847 -3.49797 3.68245 0
M  V30 8365 H 798.777 -4.70193 2.3712 0
M  V30 8366 H 801.268 -3.17319 2.05224 0
M  V30 8367 H 801.581 -6.12828 4.70809 0
M  V30 8368 H 799.926 -5.51556 4.2286 0
M  V30 8369 H 803.117 -3.8842 2.61242 0
M  V30 8370 H 803.29 -5.23188 3.82333 0
M  V30 8371 N 796.696 -0.74468 -1.38897 0
M  V30 8372 C 797.628 -0.0713608 -2.29089 0
M  V30 8373 C 798.641 0.693224 -1.47303 0
M  V30 8374 O 799.83 0.535785 -1.70269 0
M  V30 8375 C 796.93 0.923078 -3.26087 0
M  V30 8376 C 796.103 0.217998 -4.36856 0
M  V30 8377 C 795.162 1.12192 -5.14101 0
M  V30 8378 O 794.188 0.595771 -5.66073 0
M  V30 8379 N 795.39 2.45082 -5.26227 0
M  V30 8380 H 798.155 -0.845906 -2.87514 0
M  V30 8381 H 795.716 -0.594712 -1.50581 0
M  V30 8382 H 797.708 1.53061 -3.74639 0
M  V30 8383 H 796.278 1.59876 -2.68623 0
M  V30 8384 H 795.498 -0.570134 -3.90055 0
M  V30 8385 H 796.786 -0.270248 -5.08082 0
M  V30 8386 H 796.184 2.90294 -4.85537 0
M  V30 8387 H 794.741 3.00907 -5.78185 0
M  V30 8388 N 798.174 1.49689 -0.493057 0
M  V30 8389 C 799.59 1.58907 -0.148526 0
M  V30 8390 C 799.79 1.4991 1.34645 0
M  V30 8391 O 798.846 1.36893 2.12171 0
M  V30 8392 C 800.159 2.91996 -0.718265 0
M  V30 8393 C 801.707 3.05443 -0.683658 0
M  V30 8394 C 802.182 4.41138 -1.23132 0
M  V30 8395 N 803.673 4.47608 -1.19167 0
M  V30 8396 C 804.408 5.51038 -1.5857 0
M  V30 8397 N 803.904 6.61612 -2.05528 0
M  V30 8398 N 805.697 5.41706 -1.50036 0
M  V30 8399 H 797.848 1.5378 -1.46511 0
M  V30 8400 H 800.111 0.727996 -0.607228 0
M  V30 8401 H 799.817 3.04123 -1.7664 0
M  V30 8402 H 799.691 3.76798 -0.17419 0
M  V30 8403 H 802.078 2.92949 0.355626 0
M  V30 8404 H 802.159 2.22344 -1.26479 0
M  V30 8405 H 801.803 4.54382 -2.26935 0
M  V30 8406 H 801.733 5.22864 -0.626201 0
M  V30 8407 H 804.224 3.68274 -0.847524 0
M  V30 8408 H 804.537 7.36622 -2.33685 0
M  V30 8409 H 802.882 6.62674 -2.09497 0
M  V30 8410 H 806.073 4.54212 -1.13176 0
M  V30 8411 H 806.246 6.22188 -1.81068 0
M  V30 8412 N 799.652 0.226554 1.55963 0
M  V30 8413 C 800.582 -0.676079 2.23498 0
M  V30 8414 C 801.563 -1.19718 1.20837 0
M  V30 8415 O 802.748 -1.24027 1.49436 0
M  V30 8416 C 799.878 -1.88217 2.91876 0
M  V30 8417 C 798.832 -1.4947 4.01052 0
M  V30 8418 C 798.158 -2.77997 4.56751 0
M  V30 8419 C 799.458 -0.680951 5.17842 0
M  V30 8420 H 801.152 -0.112989 2.99187 0
M  V30 8421 H 798.698 -0.0529046 1.43903 0
M  V30 8422 H 800.651 -2.51911 3.37815 0
M  V30 8423 H 799.375 -2.47031 2.13643 0
M  V30 8424 H 798.034 -0.881199 3.55852 0
M  V30 8425 H 797.682 -3.34966 3.75243 0
M  V30 8426 H 797.382 -2.52803 5.30438 0
M  V30 8427 H 798.906 -3.42625 5.05411 0
M  V30 8428 H 800.32 -1.22171 5.60131 0
M  V30 8429 H 798.717 -0.525898 5.97791 0
M  V30 8430 H 799.787 0.311346 4.83899 0
M  V30 8431 N 801.13 -1.57531 -0.0467866 0
M  V30 8432 C 802.04 -2.08768 -1.07018 0
M  V30 8433 C 803.056 -1.02245 -1.40791 0
M  V30 8434 O 804.232 -1.33873 -1.50466 0
M  V30 8435 C 801.297 -2.54221 -2.35738 0
M  V30 8436 C 800.358 -3.75152 -2.08709 0
M  V30 8437 C 799.591 -4.18428 -3.31291 0
M  V30 8438 O 799.814 -3.61365 -4.4133 0
M  V30 8439 O 798.748 -5.11018 -3.18032 0
M  V30 8440 H 802.574 -2.96334 -0.664812 0
M  V30 8441 H 800.159 -1.47074 -0.262605 0
M  V30 8442 H 802.041 -2.83866 -3.11445 0
M  V30 8443 H 800.716 -1.69774 -2.75605 0
M  V30 8444 H 799.623 -3.50553 -1.30627 0
M  V30 8445 H 800.956 -4.60528 -1.73708 0
M  V30 8446 N 802.608 0.318715 -1.54344 0
M  V30 8447 C 803.556 1.41254 -1.84798 0
M  V30 8448 C 804.55 1.53325 -0.720256 0
M  V30 8449 O 805.756 1.55653 -0.903992 0
M  V30 8450 H 802.131 0.471468 -0.585851 0
M  V30 8451 H 804.102 1.12795 -2.7626 0
M  V30 8452 C 802.851 2.77395 -2.09637 0
M  V30 8453 H 802.174 2.68881 -2.95876 0
M  V30 8454 H 803.614 3.52987 -2.34896 0
M  V30 8455 C 802.073 3.24948 -0.889398 0
M  V30 8456 O 802.603 4.01573 -0.101063 0
M  V30 8457 N 800.809 2.82051 -0.699684 0
M  V30 8458 H 800.356 2.19858 -1.3424 0
M  V30 8459 H 800.314 3.1422 0.106368 0
M  V30 8460 N 804.086 1.46499 0.581025 0
M  V30 8461 C 805.016 1.60052 1.70017 0
M  V30 8462 C 805.997 0.450788 1.64018 0
M  V30 8463 O 807.182 0.677237 1.82009 0
M  V30 8464 C 804.312 1.5921 3.08658 0
M  V30 8465 C 803.266 2.73169 3.29488 0
M  V30 8466 C 802.592 2.57389 4.68674 0
M  V30 8467 C 803.892 4.14978 3.1716 0
M  V30 8468 H 805.586 2.53735 1.5893 0
M  V30 8469 H 803.132 1.22113 0.763173 0
M  V30 8470 H 805.085 1.67285 3.86773 0
M  V30 8471 H 803.809 0.620718 3.20647 0
M  V30 8472 H 802.468 2.64566 2.53773 0
M  V30 8473 H 802.116 1.58331 4.77431 0
M  V30 8474 H 801.816 3.33826 4.83564 0
M  V30 8475 H 803.34 2.67358 5.48956 0
M  V30 8476 H 804.754 4.24684 3.85119 0
M  V30 8477 H 803.151 4.92016 3.4357 0
M  V30 8478 H 804.221 4.35016 2.14218 0
M  V30 8479 N 805.565 -0.825799 1.34232 0
M  V30 8480 C 806.981 -1.11848 1.13851 0
M  V30 8481 C 807.181 -2.01405 -0.0619031 0
M  V30 8482 O 806.237 -2.41465 -0.738287 0
M  V30 8483 C 807.55 -1.76797 2.43235 0
M  V30 8484 C 809.098 -1.89304 2.49265 0
M  V30 8485 C 809.573 -2.57669 3.78643 0
M  V30 8486 N 811.064 -2.65171 3.79788 0
M  V30 8487 C 811.799 -3.1879 4.76614 0
M  V30 8488 N 811.295 -3.72995 5.83821 0
M  V30 8489 N 813.088 -3.17164 4.64073 0
M  V30 8490 H 805.239 -0.230049 2.11151 0
M  V30 8491 H 807.502 -0.164609 0.9336 0
M  V30 8492 H 807.208 -1.18455 3.31152 0
M  V30 8493 H 807.082 -2.76693 2.56361 0
M  V30 8494 H 809.469 -2.46796 1.6179 0
M  V30 8495 H 809.55 -0.883191 2.4007 0
M  V30 8496 H 809.194 -2.00833 4.66507 0
M  V30 8497 H 809.124 -3.59152 3.8512 0
M  V30 8498 H 811.615 -2.26746 3.02315 0
M  V30 8499 H 811.928 -4.12151 6.53721 0
M  V30 8500 H 810.273 -3.71246 5.87538 0
M  V30 8501 H 813.464 -2.74082 3.79469 0
M  V30 8502 H 813.637 -3.58647 5.397 0
M  V30 8503 N 807.043 -1.17915 -1.04565 0
M  V30 8504 C 808.459 -0.927761 -1.29864 0
M  V30 8505 C 808.659 0.409536 -1.97294 0
M  V30 8506 O 807.715 1.14505 -2.25044 0
M  V30 8507 C 809.028 -2.08967 -2.16225 0
M  V30 8508 C 810.576 -2.12741 -2.29587 0
M  V30 8509 C 811.051 -3.28335 -3.19312 0
M  V30 8510 N 812.542 -3.28164 -3.26898 0
M  V30 8511 C 813.277 -4.14249 -3.96466 0
M  V30 8512 N 812.773 -5.10457 -4.68407 0
M  V30 8513 N 814.566 -4.02179 -3.92694 0
M  V30 8514 H 806.717 -2.03983 -0.592011 0
M  V30 8515 H 808.98 -0.891023 -0.323701 0
M  V30 8516 H 808.686 -3.05654 -1.73979 0
M  V30 8517 H 808.56 -2.04606 -3.16885 0
M  V30 8518 H 810.947 -1.16636 -2.71072 0
M  V30 8519 H 811.028 -2.21162 -1.28535 0
M  V30 8520 H 810.672 -4.2471 -2.78539 0
M  V30 8521 H 810.602 -3.17151 -4.20384 0
M  V30 8522 H 813.093 -2.58511 -2.75646 0
M  V30 8523 H 813.406 -5.72526 -5.1907 0
M  V30 8524 H 811.751 -5.14422 -4.67328 0
M  V30 8525 H 814.942 -3.26308 -3.3562 0
M  V30 8526 H 815.115 -4.69486 -4.4664 0
M  V30 8527 N 808.521 1.23394 -0.980386 0
M  V30 8528 C 809.468 2.24859 -0.520298 0
M  V30 8529 C 810.438 1.60144 0.440821 0
M  V30 8530 O 811.623 1.87593 0.348369 0
M  V30 8531 C 808.763 3.44675 0.171145 0
M  V30 8532 C 807.876 4.23947 -0.830233 0
M  V30 8533 C 807.011 5.31079 -0.113597 0
M  V30 8534 C 806.05 6.02058 -1.10419 0
M  V30 8535 N 805.187 7.00862 -0.416709 0
M  V30 8536 H 810.027 2.63579 -1.39032 0
M  V30 8537 H 807.564 1.29556 -0.696682 0
M  V30 8538 H 809.522 4.13024 0.588838 0
M  V30 8539 H 808.152 3.06755 1.00504 0
M  V30 8540 H 807.204 3.55016 -1.36631 0
M  V30 8541 H 808.516 4.72945 -1.58508 0
M  V30 8542 H 807.67 6.05622 0.36146 0
M  V30 8543 H 806.409 4.83022 0.673854 0
M  V30 8544 H 805.414 5.26307 -1.59 0
M  V30 8545 H 806.639 6.52203 -1.8923 0
M  V30 8546 H 804.585 6.55057 0.351535 0
M  V30 8547 H 804.502 7.47804 -1.11021 0
M  V30 8548 H 805.77 7.79492 0.0359606 0
M  V30 8549 N 809.999 0.752036 1.385 0
M  V30 8550 C 810.909 0.125318 2.34265 0
M  V30 8551 C 811.925 -0.702437 1.59191 0
M  V30 8552 O 813.101 -0.626951 1.91393 0
M  V30 8553 C 810.166 -0.758486 3.38301 0
M  V30 8554 C 809.227 0.0834636 4.29219 0
M  V30 8555 C 808.46 -0.758252 5.28286 0
M  V30 8556 O 808.683 -1.99632 5.34325 0
M  V30 8557 O 807.617 -0.177878 6.01637 0
M  V30 8558 H 811.443 0.91617 2.89551 0
M  V30 8559 H 809.028 0.512911 1.4032 0
M  V30 8560 H 810.91 -1.26365 4.02007 0
M  V30 8561 H 809.585 -1.52786 2.85374 0
M  V30 8562 H 808.492 0.634545 3.68679 0
M  V30 8563 H 809.825 0.815455 4.85398 0
M  V30 8564 N 811.477 -1.49425 0.500989 0
M  V30 8565 C 812.387 -2.32899 -0.282011 0
M  V30 8566 C 813.403 -1.44632 -0.967346 0
M  V30 8567 O 814.579 -1.77654 -0.94873 0
M  V30 8568 C 811.644 -3.20069 -1.33253 0
M  V30 8569 C 810.705 -4.24186 -0.660636 0
M  V30 8570 C 809.938 -5.07191 -1.6611 0
M  V30 8571 O 810.161 -4.91712 -2.89094 0
M  V30 8572 O 809.095 -5.8948 -1.21643 0
M  V30 8573 H 812.921 -3.01038 0.401224 0
M  V30 8574 H 810.506 -1.47079 0.262323 0
M  V30 8575 H 812.388 -3.74071 -1.94033 0
M  V30 8576 H 811.063 -2.54625 -1.9987 0
M  V30 8577 H 809.97 -3.74098 -0.0130959 0
M  V30 8578 H 811.303 -4.92186 -0.0369179 0
M  V30 8579 N 812.955 -0.234822 -1.55841 0
M  V30 8580 C 813.918 0.656378 -2.196 0
M  V30 8581 C 814.918 1.11179 -1.16171 0
M  V30 8582 O 816.108 1.01845 -1.41326 0
M  V30 8583 C 813.24 1.90072 -2.82993 0
M  V30 8584 H 814.433 0.100281 -2.99732 0
M  V30 8585 H 811.986 0.0147613 -1.56293 0
M  V30 8586 H 812.721 2.49836 -2.06767 0
M  V30 8587 H 812.506 1.5825 -3.58747 0
M  V30 8588 H 813.996 2.53538 -3.31826 0
M  V30 8589 N 814.433 1.57553 0.0384317 0
M  V30 8590 C 815.343 2.09333 1.0591 0
M  V30 8591 C 816.359 1.0299 1.40247 0
M  V30 8592 O 817.535 1.34669 1.49754 0
M  V30 8593 C 814.6 2.55468 2.34386 0
M  V30 8594 C 813.661 3.76254 2.06716 0
M  V30 8595 C 812.894 4.20179 3.29067 0
M  V30 8596 O 813.117 3.637 4.39407 0
M  V30 8597 O 812.051 5.12697 3.15317 0
M  V30 8598 H 815.877 2.96683 0.649087 0
M  V30 8599 H 813.462 1.47211 0.254802 0
M  V30 8600 H 815.344 2.85514 3.09935 0
M  V30 8601 H 814.019 1.71234 2.74701 0
M  V30 8602 H 812.926 3.51241 1.28766 0
M  V30 8603 H 814.259 4.61443 1.71263 0
M  V30 8604 N 815.911 -0.310526 1.54511 0
M  V30 8605 C 816.843 -1.40405 1.8116 0
M  V30 8606 C 817.856 -1.47261 0.694114 0
M  V30 8607 O 819.045 -1.49751 0.971441 0
M  V30 8608 C 816.145 -2.78849 1.92604 0
M  V30 8609 C 815.318 -2.95041 3.22908 0
M  V30 8610 C 814.377 -4.13925 3.24889 0
M  V30 8611 O 813.403 -4.06463 3.98467 0
M  V30 8612 N 814.605 -5.24099 2.496 0
M  V30 8613 H 817.37 -1.17903 2.75534 0
M  V30 8614 H 814.931 -0.500564 1.53967 0
M  V30 8615 H 816.923 -3.5661 1.91342 0
M  V30 8616 H 815.493 -2.94342 1.05268 0
M  V30 8617 H 814.713 -2.04472 3.37023 0
M  V30 8618 H 816.001 -3.02763 4.08916 0
M  V30 8619 H 815.399 -5.33039 1.89435 0
M  V30 8620 H 813.956 -6.0023 2.54102 0
M  V30 8621 N 817.389 -1.46805 -0.573248 0
M  V30 8622 C 818.319 -1.60951 -1.69165 0
M  V30 8623 C 819.3 -0.45948 -1.63777 0
M  V30 8624 O 820.485 -0.68688 -1.81647 0
M  V30 8625 C 817.615 -1.60844 -3.07809 0
M  V30 8626 C 816.569 -2.74913 -3.28035 0
M  V30 8627 C 815.895 -2.59871 -4.67302 0
M  V30 8628 C 817.195 -4.16654 -3.14955 0
M  V30 8629 H 818.889 -2.54574 -1.57582 0
M  V30 8630 H 816.435 -1.22516 -0.756686 0
M  V30 8631 H 818.388 -1.69334 -3.85881 0
M  V30 8632 H 817.112 -0.637714 -3.20314 0
M  V30 8633 H 815.771 -2.65908 -2.52366 0
M  V30 8634 H 815.419 -1.60861 -4.76585 0
M  V30 8635 H 815.119 -3.36386 -4.81786 0
M  V30 8636 H 816.643 -2.70265 -5.4753 0
M  V30 8637 H 818.057 -4.26721 -3.82861 0
M  V30 8638 H 816.454 -4.93831 -3.40956 0
M  V30 8639 H 817.524 -4.36146 -2.11908 0
M  V30 8640 N 818.867 0.818669 -1.34668 0
M  V30 8641 C 820.283 1.11243 -1.14443 0
M  V30 8642 C 820.483 2.01435 0.0512212 0
M  V30 8643 O 819.539 2.41854 0.725471 0
M  V30 8644 C 820.852 1.75504 -2.4417 0
M  V30 8645 C 822.4 1.8798 -2.50265 0
M  V30 8646 C 822.875 2.55657 -3.80004 0
M  V30 8647 N 824.366 2.63153 -3.81189 0
M  V30 8648 C 825.101 3.16258 -4.78298 0
M  V30 8649 N 824.597 3.69893 -5.85791 0
M  V30 8650 N 826.39 3.14698 -4.65748 0
M  V30 8651 H 818.541 0.218848 -2.1127 0
M  V30 8652 H 820.804 0.159655 -0.934459 0
M  V30 8653 H 820.51 1.16697 -3.31775 0
M  V30 8654 H 820.384 2.75329 -2.57825 0
M  V30 8655 H 822.771 2.45934 -1.63096 0
M  V30 8656 H 822.852 0.870447 -2.40535 0
M  V30 8657 H 822.496 1.98356 -4.67565 0
M  V30 8658 H 822.426 3.57105 -3.87019 0
M  V30 8659 H 824.917 2.2514 -3.03513 0
M  V30 8660 H 825.23 4.08678 -6.55898 0
M  V30 8661 H 823.575 3.68125 -5.89499 0
M  V30 8662 H 826.766 2.72066 -3.80917 0
M  V30 8663 H 826.939 3.5578 -5.41594 0
M  V30 8664 N 820.346 1.18468 1.03938 0
M  V30 8665 C 821.762 0.934635 1.29371 0
M  V30 8666 C 821.962 -0.399067 1.97509 0
M  V30 8667 O 821.018 -1.13309 2.25648 0
M  V30 8668 C 822.331 2.10111 2.15114 0
M  V30 8669 C 823.879 2.13955 2.28456 0
M  V30 8670 C 824.354 3.30024 3.17566 0
M  V30 8671 N 825.845 3.29893 3.25153 0
M  V30 8672 C 826.58 4.16346 3.94263 0
M  V30 8673 N 826.076 5.12934 4.65693 0
M  V30 8674 N 827.869 4.04256 3.90556 0
M  V30 8675 H 820.02 2.04294 0.581185 0
M  V30 8676 H 822.283 0.892727 0.318971 0
M  V30 8677 H 821.989 3.06572 1.72355 0
M  V30 8678 H 821.863 2.06283 3.15796 0
M  V30 8679 H 824.25 1.18072 2.7045 0
M  V30 8680 H 824.331 2.2184 1.2736 0
M  V30 8681 H 823.975 4.26181 2.76283 0
M  V30 8682 H 823.905 3.19376 4.18697 0
M  V30 8683 H 826.396 2.59969 2.74271 0
M  V30 8684 H 826.709 5.75271 5.16026 0
M  V30 8685 H 825.054 5.16893 4.64593 0
M  V30 8686 H 828.245 3.28083 3.33885 0
M  V30 8687 H 828.418 4.71848 4.44144 0
M  V30 8688 N 821.824 -1.22873 0.986916 0
M  V30 8689 C 822.756 -2.23889 0.490537 0
M  V30 8690 C 823.769 -1.57523 -0.411144 0
M  V30 8691 O 824.958 -1.7721 -0.214236 0
M  V30 8692 C 822.058 -3.37488 -0.30902 0
M  V30 8693 C 821.231 -4.33438 0.587354 0
M  V30 8694 C 820.29 -5.25958 -0.159467 0
M  V30 8695 O 819.316 -5.67394 0.453115 0
M  V30 8696 N 820.518 -5.62265 -1.44355 0
M  V30 8697 H 823.283 -2.67109 1.35914 0
M  V30 8698 H 820.844 -1.37111 0.860937 0
M  V30 8699 H 822.836 -3.96365 -0.817139 0
M  V30 8700 H 821.406 -2.934 -1.07868 0
M  V30 8701 H 820.626 -3.72969 1.27622 0
M  V30 8702 H 821.914 -4.94495 1.19801 0
M  V30 8703 H 821.312 -5.30562 -1.96266 0
M  V30 8704 H 819.869 -6.23585 -1.89698 0
M  V30 8705 N 823.302 -0.75937 -1.38099 0
M  V30 8706 C 824.249 -0.135508 -2.30402 0
M  V30 8707 C 825.219 0.703356 -1.50473 0
M  V30 8708 O 826.404 0.658287 -1.79084 0
M  V30 8709 C 823.544 0.747228 -3.36913 0
M  V30 8710 C 822.657 -0.106893 -4.31868 0
M  V30 8711 C 821.792 0.779388 -5.25451 0
M  V30 8712 C 820.831 -0.0780179 -6.1205 0
M  V30 8713 N 819.968 0.765545 -6.97914 0
M  V30 8714 H 824.808 -0.9282 -2.83176 0
M  V30 8715 H 822.345 -0.46935 -1.39411 0
M  V30 8716 H 824.303 1.27371 -3.97281 0
M  V30 8717 H 822.933 1.50565 -2.85535 0
M  V30 8718 H 821.985 -0.751063 -3.72912 0
M  V30 8719 H 823.297 -0.768798 -4.9284 0
M  V30 8720 H 822.451 1.37282 -5.90964 0
M  V30 8721 H 821.19 1.47501 -4.6486 0
M  V30 8722 H 820.195 -0.684078 -5.45528 0
M  V30 8723 H 821.42 -0.770786 -6.74712 0
M  V30 8724 H 819.366 1.44601 -6.39864 0
M  V30 8725 H 819.283 0.160666 -7.55829 0
M  V30 8726 H 820.551 1.34377 -7.6783 0
M  V30 8727 N 824.78 1.49157 -0.508906 0
M  V30 8728 C 826.026 2.02773 0.0328469 0
M  V30 8729 C 826.359 1.38714 1.35912 0
M  V30 8730 O 825.634 0.525536 1.87266 0
M  V30 8731 C 825.917 3.59664 0.177088 0
M  V30 8732 C 825.77 4.34239 -1.17287 0
M  V30 8733 C 827.089 4.30505 0.913977 0
M  V30 8734 H 824.208 0.736926 0.0104631 0
M  V30 8735 H 826.85 1.781 -0.661851 0
M  V30 8736 H 825 3.80818 0.768774 0
M  V30 8737 H 826.672 4.24561 -1.80404 0
M  V30 8738 H 824.915 3.96486 -1.76016 0
M  V30 8739 H 825.586 5.42397 -1.02516 0
M  V30 8740 H 828.062 4.14054 0.412084 0
M  V30 8741 H 826.938 5.40012 0.983759 0
M  V30 8742 H 827.199 3.96302 1.95951 0
M  V30 8743 N 826.258 0.243083 1.55714 0
M  V30 8744 C 827.168 -0.668913 2.24862 0
M  V30 8745 C 828.184 -1.19638 1.26344 0
M  V30 8746 O 829.36 -1.23345 1.5921 0
M  V30 8747 C 826.425 -1.85084 2.93163 0
M  V30 8748 C 825.486 -1.36323 4.07081 0
M  V30 8749 C 824.719 -2.48882 4.72116 0
M  V30 8750 O 824.942 -3.67523 4.36214 0
M  V30 8751 O 823.876 -2.18857 5.60701 0
M  V30 8752 H 827.702 -0.109737 3.03502 0
M  V30 8753 H 825.287 0.0117411 1.49395 0
M  V30 8754 H 827.169 -2.54065 3.36197 0
M  V30 8755 H 825.844 -2.39771 2.17466 0
M  V30 8756 H 824.751 -0.640804 3.68571 0
M  V30 8757 H 826.084 -0.86249 4.84584 0
M  V30 8758 N 827.736 -1.57571 -0.0300757 0
M  V30 8759 C 828.646 -2.09892 -1.04798 0
M  V30 8760 C 829.662 -1.03732 -1.39698 0
M  V30 8761 O 830.838 -1.35461 -1.49038 0
M  V30 8762 C 827.903 -2.56707 -2.33028 0
M  V30 8763 C 826.964 -3.77345 -2.04718 0
M  V30 8764 C 826.197 -4.21918 -3.26834 0
M  V30 8765 O 826.42 -3.66025 -4.37472 0
M  V30 8766 O 825.354 -5.14362 -3.12594 0
M  V30 8767 H 829.18 -2.97023 -0.633344 0
M  V30 8768 H 826.765 -1.47344 -0.246991 0
M  V30 8769 H 828.647 -2.87154 -3.08417 0
M  V30 8770 H 827.322 -1.72688 -2.73789 0
M  V30 8771 H 826.229 -3.51919 -1.26901 0
M  V30 8772 H 827.562 -4.62345 -1.68813 0
M  V30 8773 N 829.214 0.302327 -1.54673 0
M  V30 8774 C 830.491 1.05721 -1.64567 0
M  V30 8775 C 830.871 2.0526 -0.493108 0
M  V30 8776 O 830.219 2.22729 0.510315 0
M  V30 8777 C 830.429 1.74025 -3.02517 0
M  V30 8778 C 831.777 2.26271 -3.59286 0
M  V30 8779 O 832.801 1.8406 -3.0496 0
M  V30 8780 O 831.66 3.0361 -4.54404 0
M  V30 8781 H 828.754 0.488577 -0.667249 0
M  V30 8782 H 831.3 0.300521 -1.67018 0
M  V30 8783 H 830.072 1.0174 -3.77842 0
M  V30 8784 H 829.695 2.56454 -3.03838 0
M  V30 8785 N 830.692 1.47107 0.565454 0
M  V30 8786 C 831.639 1.58974 1.6732 0
M  V30 8787 C 832.609 0.433146 1.60353 0
M  V30 8788 O 833.794 0.652141 1.79309 0
M  V30 8789 C 830.934 1.60224 3.05651 0
M  V30 8790 C 830.047 2.86741 3.23116 0
M  V30 8791 C 829.182 2.79381 4.51796 0
M  V30 8792 C 828.221 4.0076 4.62664 0
M  V30 8793 N 827.358 3.91685 5.8269 0
M  V30 8794 H 832.198 2.53588 1.56515 0
M  V30 8795 H 829.735 1.25791 0.762558 0
M  V30 8796 H 831.693 1.58933 3.85741 0
M  V30 8797 H 830.323 0.691285 3.15311 0
M  V30 8798 H 829.375 2.97936 2.36513 0
M  V30 8799 H 830.687 3.7665 3.27011 0
M  V30 8800 H 829.841 2.76293 5.40136 0
M  V30 8801 H 828.58 1.87142 4.50366 0
M  V30 8802 H 827.585 4.04162 3.72738 0
M  V30 8803 H 828.81 4.94117 4.6586 0
M  V30 8804 H 826.756 3.02243 5.82224 0
M  V30 8805 H 826.673 4.75264 5.87929 0
M  V30 8806 H 827.941 3.92599 6.73414 0
M  V30 8807 N 832.17 -0.811516 1.35101 0
M  V30 8808 C 833.586 -1.10634 1.15031 0
M  V30 8809 C 833.786 -2.01459 -0.0405379 0
M  V30 8810 O 832.842 -2.42235 -0.712635 0
M  V30 8811 C 834.155 -1.74207 2.45097 0
M  V30 8812 C 835.703 -1.8665 2.51258 0
M  V30 8813 C 836.178 -2.53638 3.81355 0
M  V30 8814 N 837.669 -2.61128 3.82579 0
M  V30 8815 C 838.404 -3.13717 4.79968 0
M  V30 8816 N 837.9 -3.66782 5.87744 0
M  V30 8817 N 839.693 -3.12224 4.67411 0
M  V30 8818 H 831.844 -0.207641 2.11383 0
M  V30 8819 H 834.107 -0.154697 0.935293 0
M  V30 8820 H 833.813 -1.14936 3.32389 0
M  V30 8821 H 833.687 -2.73958 2.59281 0
M  V30 8822 H 836.074 -2.45066 1.64398 0
M  V30 8823 H 836.155 -0.857678 2.40993 0
M  V30 8824 H 835.799 -1.95873 4.68611 0
M  V30 8825 H 835.729 -3.55047 3.88907 0
M  V30 8826 H 838.22 -2.23527 3.04703 0
M  V30 8827 H 838.533 -4.05194 6.58056 0
M  V30 8828 H 836.878 -3.64994 5.91443 0
M  V30 8829 H 840.069 -2.70042 3.82354 0
M  V30 8830 H 840.242 -3.52903 5.43474 0
M  V30 8831 N 833.648 -1.19017 -1.03309 0
M  V30 8832 C 835.064 -0.941483 -1.28873 0
M  V30 8833 C 835.264 0.388587 -1.97718 0
M  V30 8834 O 834.32 1.12111 -2.26246 0
M  V30 8835 C 835.633 -2.11249 -2.13996 0
M  V30 8836 C 837.181 -2.15164 -2.27318 0
M  V30 8837 C 837.656 -3.31704 -3.15811 0
M  V30 8838 N 839.147 -3.31613 -3.23399 0
M  V30 8839 C 839.882 -4.18431 -3.9205 0
M  V30 8840 N 839.378 -5.15397 -4.62966 0
M  V30 8841 N 841.171 -4.06321 -3.88406 0
M  V30 8842 H 833.322 -2.04599 -0.570343 0
M  V30 8843 H 835.585 -0.894406 -0.314232 0
M  V30 8844 H 835.291 -3.07482 -1.70727 0
M  V30 8845 H 835.165 -2.07955 -3.14697 0
M  V30 8846 H 837.552 -1.19504 -2.6982 0
M  V30 8847 H 837.633 -2.22513 -1.26182 0
M  V30 8848 H 837.277 -4.2764 -2.74019 0
M  V30 8849 H 837.207 -3.21592 -4.16997 0
M  V30 8850 H 839.698 -2.6142 -2.72888 0
M  V30 8851 H 840.011 -5.78 -5.12968 0
M  V30 8852 H 838.356 -5.19349 -4.61846 0
M  V30 8853 H 841.547 -3.29849 -3.3214 0
M  V30 8854 H 841.72 -4.74196 -4.41635 0
M  V30 8855 N 835.127 1.22348 -0.993418 0
M  V30 8856 C 836.543 1.43222 -0.704238 0
M  V30 8857 C 836.743 1.88009 0.724909 0
M  V30 8858 O 835.799 2.03429 1.49575 0
M  V30 8859 C 837.112 2.47328 -1.71025 0
M  V30 8860 C 838.66 2.61126 -1.72576 0
M  V30 8861 C 839.135 3.68453 -2.72041 0
M  V30 8862 N 840.626 3.75911 -2.70639 0
M  V30 8863 C 841.361 4.58551 -3.44266 0
M  V30 8864 N 840.857 5.45179 -4.27495 0
M  V30 8865 N 842.65 4.52866 -3.32969 0
M  V30 8866 H 834.801 0.915832 -1.91641 0
M  V30 8867 H 837.064 0.464283 -0.826526 0
M  V30 8868 H 836.77 2.21366 -2.73295 0
M  V30 8869 H 836.644 3.45939 -1.50353 0
M  V30 8870 H 839.031 2.86431 -0.710037 0
M  V30 8871 H 839.112 1.62787 -1.97317 0
M  V30 8872 H 838.756 3.43895 -3.73763 0
M  V30 8873 H 838.686 4.66362 -2.4457 0
M  V30 8874 H 841.177 3.14014 -2.10247 0
M  V30 8875 H 841.49 6.0526 -4.80499 0
M  V30 8876 H 839.835 5.44759 -4.31582 0
M  V30 8877 H 843.026 3.84215 -2.67389 0
M  V30 8878 H 843.199 5.17039 -3.90608 0
M  V30 8879 N 836.605 0.766683 1.37694 0
M  V30 8880 C 837.535 0.163432 2.32927 0
M  V30 8881 C 838.516 -0.688861 1.55527 0
M  V30 8882 O 839.701 -0.627363 1.83787 0
M  V30 8883 C 836.831 -0.720416 3.39746 0
M  V30 8884 C 835.785 0.0301718 4.27989 0
M  V30 8885 C 835.111 -0.972788 5.25776 0
M  V30 8886 C 836.411 1.20623 5.0818 0
M  V30 8887 H 838.105 0.958988 2.83626 0
M  V30 8888 H 835.651 0.462601 1.36367 0
M  V30 8889 H 837.604 -1.15221 4.05342 0
M  V30 8890 H 836.328 -1.54844 2.8756 0
M  V30 8891 H 834.987 0.442685 3.63917 0
M  V30 8892 H 834.635 -1.79522 4.69873 0
M  V30 8893 H 834.335 -0.475145 5.85676 0
M  V30 8894 H 835.859 -1.40362 5.94248 0
M  V30 8895 H 837.273 0.851341 5.66944 0
M  V30 8896 H 835.67 1.63561 5.7738 0
M  V30 8897 H 836.74 2.01281 4.41151 0
M  V30 8898 N 838.083 -1.48885 0.516809 0
M  V30 8899 C 838.993 -2.33185 -0.257293 0
M  V30 8900 C 840.009 -1.4565 -0.951952 0
M  V30 8901 O 841.185 -1.78651 -0.929834 0
M  V30 8902 C 838.25 -3.21465 -1.29851 0
M  V30 8903 C 837.311 -4.24863 -0.615608 0
M  V30 8904 C 836.544 -5.08925 -1.60722 0
M  V30 8905 O 836.767 -4.9475 -2.83863 0
M  V30 8906 O 835.701 -5.90737 -1.15384 0
M  V30 8907 H 839.527 -3.00596 0.433131 0
M  V30 8908 H 837.112 -1.46792 0.277908 0
M  V30 8909 H 838.994 -3.76108 -1.90055 0
M  V30 8910 H 837.669 -2.5673 -1.97158 0
M  V30 8911 H 836.576 -3.74091 0.0265829 0
M  V30 8912 H 837.909 -4.92198 0.0152871 0
M  V30 8913 N 839.561 -0.251338 -1.55583 0
M  V30 8914 C 840.471 0.656978 -2.25213 0
M  V30 8915 C 841.487 1.18966 -1.26977 0
M  V30 8916 O 842.663 1.22499 -1.59862 0
M  V30 8917 C 839.728 1.83527 -2.94141 0
M  V30 8918 C 838.789 1.34162 -4.07798 0
M  V30 8919 C 838.022 2.46375 -4.73429 0
M  V30 8920 O 838.245 3.65205 -4.38157 0
M  V30 8921 O 837.179 2.15881 -5.61853 0
M  V30 8922 H 841.005 0.0936395 -3.03556 0
M  V30 8923 H 838.59 -0.0196638 -1.49387 0
M  V30 8924 H 840.472 2.52279 -3.3754 0
M  V30 8925 H 839.147 2.38614 -2.18735 0
M  V30 8926 H 838.054 0.621249 -3.68906 0
M  V30 8927 H 839.387 0.836779 -4.85035 0
M  V30 8928 N 841.039 1.57585 0.0217189 0
M  V30 8929 C 842.285 1.89887 0.712099 0
M  V30 8930 C 842.618 0.849971 1.74611 0
M  V30 8931 O 841.893 -0.13407 1.94037 0
M  V30 8932 C 842.176 3.32815 1.37499 0
M  V30 8933 C 842.029 4.48405 0.353993 0
M  V30 8934 C 843.348 3.74786 2.30703 0
M  V30 8935 H 840.467 0.690588 0.257405 0
M  V30 8936 H 843.109 1.89983 -0.0251145 0
M  V30 8937 H 841.259 3.32863 2.00335 0
M  V30 8938 H 842.931 4.60491 -0.273015 0
M  V30 8939 H 841.174 4.32573 -0.32599 0
M  V30 8940 H 841.845 5.45316 0.85644 0
M  V30 8941 H 844.321 3.76151 1.77904 0
M  V30 8942 H 843.197 4.75585 2.74061 0
M  V30 8943 H 843.458 3.07449 3.17691 0
M  V30 8944 N 842.517 -0.29412 1.54831 0
M  V30 8945 C 843.464 -1.36296 1.86258 0
M  V30 8946 C 844.434 -1.50061 0.712097 0
M  V30 8947 O 845.619 -1.64809 0.961381 0
M  V30 8948 C 842.759 -2.72187 2.12151 0
M  V30 8949 C 841.872 -2.66816 3.39755 0
M  V30 8950 C 841.007 -3.94747 3.55455 0
M  V30 8951 C 840.046 -3.838 4.76827 0
M  V30 8952 N 839.183 -5.03521 4.89296 0
M  V30 8953 H 844.023 -1.08796 2.7743 0
M  V30 8954 H 841.56 -0.526069 1.37371 0
M  V30 8955 H 843.518 -3.51225 2.25159 0
M  V30 8956 H 842.148 -2.97934 1.24237 0
M  V30 8957 H 841.2 -1.79605 3.3533 0
M  V30 8958 H 842.512 -2.5462 4.28917 0
M  V30 8959 H 841.666 -4.82223 3.68166 0
M  V30 8960 H 840.405 -4.09785 2.64438 0
M  V30 8961 H 839.41 -2.94708 4.64141 0
M  V30 8962 H 840.635 -3.70301 5.69258 0
M  V30 8963 H 838.581 -5.1901 4.01204 0
M  V30 8964 H 838.498 -4.93775 5.72471 0
M  V30 8965 H 839.766 -5.92629 5.06371 0
M  V30 8966 N 843.995 -1.47404 -0.557645 0
M  V30 8967 C 844.925 -1.62736 -1.67449 0
M  V30 8968 C 845.906 -0.476824 -1.6328 0
M  V30 8969 O 847.091 -0.706108 -1.80908 0
M  V30 8970 C 844.221 -1.641 -3.06086 0
M  V30 8971 C 843.175 -2.78377 -3.25101 0
M  V30 8972 C 842.501 -2.64812 -4.6452 0
M  V30 8973 C 843.801 -4.19971 -3.10518 0
M  V30 8974 H 845.495 -2.56232 -1.54873 0
M  V30 8975 H 843.041 -1.23312 -0.743649 0
M  V30 8976 H 844.994 -1.73417 -3.84063 0
M  V30 8977 H 843.718 -0.671652 -3.19619 0
M  V30 8978 H 842.377 -2.6857 -2.49531 0
M  V30 8979 H 842.025 -1.65906 -4.74852 0
M  V30 8980 H 841.725 -3.41477 -4.78191 0
M  V30 8981 H 843.249 -2.76057 -5.44633 0
M  V30 8982 H 844.663 -4.30757 -3.78313 0
M  V30 8983 H 843.06 -4.97419 -3.35699 0
M  V30 8984 H 844.13 -4.38369 -2.0727 0
M  V30 8985 N 845.473 0.80434 -1.35529 0
M  V30 8986 C 846.42 1.91629 -1.28635 0
M  V30 8987 C 847.39 1.65348 -0.157862 0
M  V30 8988 O 848.575 1.87711 -0.341934 0
M  V30 8989 C 845.715 3.28207 -1.0665 0
M  V30 8990 C 844.828 3.66659 -2.28441 0
M  V30 8991 C 843.963 4.92279 -1.99588 0
M  V30 8992 C 843.002 5.23365 -3.1742 0
M  V30 8993 N 842.139 6.40165 -2.88328 0
M  V30 8994 H 846.979 1.96858 -2.23721 0
M  V30 8995 H 844.516 0.962871 -1.11208 0
M  V30 8996 H 846.474 4.06945 -0.919343 0
M  V30 8997 H 845.104 3.22441 -0.152253 0
M  V30 8998 H 844.156 2.83164 -2.54013 0
M  V30 8999 H 845.468 3.8559 -3.1642 0
M  V30 9000 H 844.622 5.78847 -1.81715 0
M  V30 9001 H 843.361 4.75387 -1.08896 0
M  V30 9002 H 842.366 4.35285 -3.35867 0
M  V30 9003 H 843.591 5.42185 -4.08916 0
M  V30 9004 H 841.537 6.24694 -2.00233 0
M  V30 9005 H 841.454 6.59357 -3.69843 0
M  V30 9006 H 842.722 7.29755 -2.74002 0
M  V30 9007 N 846.951 1.19563 1.02676 0
M  V30 9008 C 848.367 0.948304 1.28372 0
M  V30 9009 C 848.567 -0.378096 1.97921 0
M  V30 9010 O 847.623 -1.1091 2.26838 0
M  V30 9011 C 848.936 2.12381 2.12873 0
M  V30 9012 C 850.484 2.16366 2.26174 0
M  V30 9013 C 850.959 3.33374 3.14048 0
M  V30 9014 N 852.45 3.33323 3.21636 0
M  V30 9015 C 853.185 4.20504 3.89825 0
M  V30 9016 N 852.681 5.17845 4.60227 0
M  V30 9017 N 854.474 4.08375 3.86246 0
M  V30 9018 H 846.625 2.04899 0.559485 0
M  V30 9019 H 848.888 0.89606 0.309484 0
M  V30 9020 H 848.594 3.08383 1.69094 0
M  V30 9021 H 848.468 2.09621 3.1359 0
M  V30 9022 H 850.855 1.20933 2.69182 0
M  V30 9023 H 850.936 2.23179 1.25 0
M  V30 9024 H 850.58 4.29087 2.71747 0
M  V30 9025 H 850.51 3.23798 4.15286 0
M  V30 9026 H 853.001 2.62863 2.71498 0
M  V30 9027 H 853.314 5.80712 5.09896 0
M  V30 9028 H 851.659 5.21791 4.59085 0
M  V30 9029 H 854.85 3.31606 3.30386 0
M  V30 9030 H 855.023 4.76532 4.39114 0
M  V30 9031 N 848.429 -1.21819 0.999893 0
M  V30 9032 C 849.339 -2.27691 0.565159 0
M  V30 9033 C 850.355 -1.69587 -0.389398 0
M  V30 9034 O 851.531 -1.99786 -0.254499 0
M  V30 9035 C 848.596 -3.46537 -0.106432 0
M  V30 9036 C 847.657 -4.19932 0.891964 0
M  V30 9037 C 846.89 -5.33103 0.252327 0
M  V30 9038 O 847.113 -5.62398 -0.952103 0
M  V30 9039 O 846.047 -5.94184 0.960698 0
M  V30 9040 H 849.873 -2.67059 1.44613 0
M  V30 9041 H 847.458 -1.28119 0.768499 0
M  V30 9042 H 849.34 -4.18631 -0.482301 0
M  V30 9043 H 848.015 -3.09079 -0.961865 0
M  V30 9044 H 846.922 -3.5008 1.3189 0
M  V30 9045 H 848.255 -4.61287 1.71682 0
M  V30 9046 N 849.908 -0.773975 -1.37286 0
M  V30 9047 C 850.818 -0.162571 -2.34036 0
M  V30 9048 C 851.834 0.677022 -1.60289 0
M  V30 9049 O 853.01 0.596423 -1.92366 0
M  V30 9050 C 850.075 0.70457 -3.39465 0
M  V30 9051 C 849.136 -0.151738 -4.29032 0
M  V30 9052 C 848.369 0.674111 -5.29426 0
M  V30 9053 O 848.592 1.91107 -5.37433 0
M  V30 9054 O 847.526 0.0821398 -6.01844 0
M  V30 9055 H 851.352 -0.962119 -2.88057 0
M  V30 9056 H 848.937 -0.53517 -1.39486 0
M  V30 9057 H 850.819 1.19954 -4.03967 0
M  V30 9058 H 849.494 1.48227 -2.87768 0
M  V30 9059 H 848.401 -0.693118 -3.67623 0
M  V30 9060 H 849.734 -0.892575 -4.84039 0
M  V30 9061 N 851.386 1.48609 -0.524698 0
M  V30 9062 C 852.802 1.58557 -0.182199 0
M  V30 9063 C 853.002 1.52732 1.31435 0
M  V30 9064 O 852.058 1.41362 2.0922 0
M  V30 9065 C 853.371 2.90406 -0.78004 0
M  V30 9066 C 854.919 3.03924 -0.748293 0
M  V30 9067 C 855.394 4.38427 -1.32462 0
M  V30 9068 N 856.885 4.4498 -1.28635 0
M  V30 9069 C 857.62 5.47551 -1.70223 0
M  V30 9070 N 857.116 6.57103 -2.19515 0
M  V30 9071 N 858.909 5.38402 -1.61493 0
M  V30 9072 H 851.06 1.50638 -1.4974 0
M  V30 9073 H 853.323 0.714952 -0.622533 0
M  V30 9074 H 853.029 3.00308 -1.83052 0
M  V30 9075 H 852.903 3.76343 -0.254075 0
M  V30 9076 H 855.29 2.93638 0.293407 0
M  V30 9077 H 855.371 2.19611 -1.31167 0
M  V30 9078 H 855.015 4.49466 -2.36522 0
M  V30 9079 H 854.945 5.21418 -0.736967 0
M  V30 9080 H 857.436 3.66393 -0.92545 0
M  V30 9081 H 857.749 7.31499 -2.49257 0
M  V30 9082 H 856.094 6.58081 -2.23506 0
M  V30 9083 H 859.285 4.5171 -1.22785 0
M  V30 9084 H 859.458 6.18208 -1.94225 0
M  V30 9085 N 852.864 0.259585 1.55447 0
M  V30 9086 C 853.794 -0.62852 2.24882 0
M  V30 9087 C 854.775 -1.17128 1.23349 0
M  V30 9088 O 855.96 -1.20829 1.52033 0
M  V30 9089 C 853.09 -1.81983 2.95803 0
M  V30 9090 C 852.044 -1.40929 4.04132 0
M  V30 9091 C 851.37 -2.68246 4.62545 0
M  V30 9092 C 852.67 -0.570956 5.1917 0
M  V30 9093 H 854.364 -0.0495021 2.99359 0
M  V30 9094 H 851.91 -0.0223688 1.43983 0
M  V30 9095 H 853.863 -2.44689 3.43082 0
M  V30 9096 H 852.587 -2.42444 2.18835 0
M  V30 9097 H 851.246 -0.805519 3.57641 0
M  V30 9098 H 850.894 -3.26931 3.82263 0
M  V30 9099 H 850.594 -2.41495 5.35681 0
M  V30 9100 H 852.118 -3.31827 5.12565 0
M  V30 9101 H 853.532 -1.10262 5.62597 0
M  V30 9102 H 851.929 -0.398979 5.98772 0
M  V30 9103 H 852.999 0.413918 4.8313 0
M  V30 9104 N 854.342 -1.57594 -0.0133615 0
M  V30 9105 C 855.758 -1.5527 -0.369255 0
M  V30 9106 C 855.958 -0.987751 -1.7563 0
M  V30 9107 O 855.014 -0.615683 -2.44879 0
M  V30 9108 C 856.327 -2.99602 -0.25672 0
M  V30 9109 C 857.875 -3.11227 -0.332647 0
M  V30 9110 C 858.35 -4.57321 -0.249387 0
M  V30 9111 N 859.841 -4.62177 -0.3077 0
M  V30 9112 C 860.576 -5.72781 -0.26641 0
M  V30 9113 N 860.072 -6.92575 -0.176494 0
M  V30 9114 N 861.865 -5.61204 -0.317295 0
M  V30 9115 H 854.016 -1.92662 0.894154 0
M  V30 9116 H 856.279 -0.884352 0.341505 0
M  V30 9117 H 855.985 -3.44723 0.697072 0
M  V30 9118 H 855.859 -3.6246 -1.04415 0
M  V30 9119 H 858.246 -2.66045 -1.27688 0
M  V30 9120 H 858.327 -2.51171 0.484412 0
M  V30 9121 H 857.971 -5.03174 0.691242 0
M  V30 9122 H 857.901 -5.15306 -1.08476 0
M  V30 9123 H 860.392 -3.75994 -0.379069 0
M  V30 9124 H 860.705 -7.72653 -0.150518 0
M  V30 9125 H 859.05 -6.94854 -0.142314 0
M  V30 9126 H 862.241 -4.66509 -0.385643 0
M  V30 9127 H 862.414 -6.47388 -0.28165 0
M  V30 9128 N 855.82 0.285905 -1.54985 0
M  V30 9129 C 856.767 1.35306 -1.86978 0
M  V30 9130 C 857.737 1.49682 -0.720046 0
M  V30 9131 O 858.922 1.64297 -0.970107 0
M  V30 9132 C 856.062 2.71059 -2.13591 0
M  V30 9133 C 855.175 2.6501 -3.41165 0
M  V30 9134 C 854.31 3.92856 -3.57544 0
M  V30 9135 C 853.349 3.81266 -4.78855 0
M  V30 9136 N 852.486 5.00919 -4.9196 0
M  V30 9137 H 857.326 1.07323 -2.78003 0
M  V30 9138 H 854.863 0.518776 -1.37649 0
M  V30 9139 H 856.821 3.50026 -2.27019 0
M  V30 9140 H 855.451 2.97271 -1.25816 0
M  V30 9141 H 854.503 1.77824 -3.36278 0
M  V30 9142 H 855.815 2.52342 -4.30262 0
M  V30 9143 H 854.969 4.80263 -3.70718 0
M  V30 9144 H 853.708 4.08377 -2.66608 0
M  V30 9145 H 852.713 2.92243 -4.65698 0
M  V30 9146 H 853.938 3.67277 -5.71213 0
M  V30 9147 H 851.884 5.16875 -4.03951 0
M  V30 9148 H 851.801 4.90732 -5.75081 0
M  V30 9149 H 853.069 5.89935 -5.09507 0
M  V30 9150 N 857.298 1.47698 0.54982 0
M  V30 9151 C 858.544 1.54931 1.30859 0
M  V30 9152 C 858.877 0.214021 1.93017 0
M  V30 9153 O 858.152 -0.778093 1.78258 0
M  V30 9154 C 858.435 2.67286 2.41309 0
M  V30 9155 C 858.288 4.10457 1.83971 0
M  V30 9156 C 859.607 2.75509 3.43195 0
M  V30 9157 H 856.726 0.56399 0.474431 0
M  V30 9158 H 859.368 1.79787 0.614541 0
M  V30 9159 H 857.518 2.46224 3.0051 0
M  V30 9160 H 859.19 4.42903 1.28974 0
M  V30 9161 H 857.433 4.18387 1.14606 0
M  V30 9162 H 858.104 4.84857 2.63851 0
M  V30 9163 H 860.58 2.94531 2.93923 0
M  V30 9164 H 859.456 3.55886 4.17895 0
M  V30 9165 H 859.717 1.82863 4.02509 0
M  V30 9166 N 858.776 -0.797141 1.35954 0
M  V30 9167 C 859.706 -1.92387 1.32323 0
M  V30 9168 C 860.687 -1.68967 0.196007 0
M  V30 9169 O 861.872 -1.90193 0.39245 0
M  V30 9170 C 859.002 -3.29286 1.10398 0
M  V30 9171 C 857.956 -3.67212 2.19862 0
M  V30 9172 C 857.282 -5.02377 1.8309 0
M  V30 9173 C 858.582 -3.76602 3.61896 0
M  V30 9174 H 860.276 -1.95683 2.26602 0
M  V30 9175 H 857.822 -0.94007 1.09081 0
M  V30 9176 H 859.775 -4.07721 1.06495 0
M  V30 9177 H 858.499 -3.26358 0.125668 0
M  V30 9178 H 857.158 -2.91069 2.22878 0
M  V30 9179 H 856.806 -4.95961 0.838527 0
M  V30 9180 H 856.506 -5.28722 2.56372 0
M  V30 9181 H 858.03 -5.8324 1.80729 0
M  V30 9182 H 859.444 -4.45246 3.6115 0
M  V30 9183 H 857.841 -4.14425 4.34018 0
M  V30 9184 H 858.911 -2.77906 3.97361 0
M  V30 9185 N 860.254 -1.20106 -1.0204 0
M  V30 9186 C 861.186 -0.904236 -2.10609 0
M  V30 9187 C 862.199 0.106487 -1.62451 0
M  V30 9188 O 863.388 -0.124035 -1.78069 0
M  V30 9189 C 860.488 -0.333423 -3.37256 0
M  V30 9190 C 859.661 -1.39476 -4.14566 0
M  V30 9191 C 858.72 -0.835961 -5.19517 0
M  V30 9192 O 857.746 -1.51573 -5.48648 0
M  V30 9193 N 858.948 0.356531 -5.79404 0
M  V30 9194 H 861.713 -1.8388 -2.36661 0
M  V30 9195 H 859.274 -1.10422 -1.184 0
M  V30 9196 H 861.266 0.0544571 -4.04663 0
M  V30 9197 H 859.836 0.505608 -3.08484 0
M  V30 9198 H 859.056 -1.95714 -3.42184 0
M  V30 9199 H 860.344 -2.10967 -4.63001 0
M  V30 9200 H 859.742 0.926143 -5.58067 0
M  V30 9201 H 858.299 0.686093 -6.48179 0
M  V30 9202 N 861.732 1.21287 -1.00634 0
M  V30 9203 C 862.695 2.21927 -0.572821 0
M  V30 9204 C 863.695 1.5691 0.351541 0
M  V30 9205 O 864.885 1.73623 0.141643 0
M  V30 9206 C 862.017 3.40501 0.164932 0
M  V30 9207 H 863.21 2.61795 -1.463 0
M  V30 9208 H 860.763 1.34571 -0.794998 0
M  V30 9209 H 861.498 3.06123 1.07049 0
M  V30 9210 H 861.283 3.88912 -0.498962 0
M  V30 9211 H 862.773 4.15103 0.455945 0
M  V30 9212 N 863.21 0.781244 1.36873 0
M  V30 9213 C 864.626 0.461968 1.52768 0
M  V30 9214 C 864.826 -1.02099 1.73719 0
M  V30 9215 O 863.882 -1.80665 1.76399 0
M  V30 9216 C 865.195 1.2853 2.71846 0
M  V30 9217 C 866.743 1.27817 2.85713 0
M  V30 9218 C 867.218 2.08506 4.07786 0
M  V30 9219 N 868.709 2.05909 4.14917 0
M  V30 9220 C 869.444 2.65118 5.08429 0
M  V30 9221 N 868.94 3.33152 6.07438 0
M  V30 9222 N 870.733 2.54896 5.00983 0
M  V30 9223 H 862.884 1.74198 1.21527 0
M  V30 9224 H 865.147 0.740027 0.592506 0
M  V30 9225 H 864.853 2.3366 2.62861 0
M  V30 9226 H 864.727 0.920981 3.65784 0
M  V30 9227 H 867.114 0.234817 2.94164 0
M  V30 9228 H 867.195 1.68219 1.92707 0
M  V30 9229 H 866.839 3.12867 4.00096 0
M  V30 9230 H 866.769 1.65479 4.99924 0
M  V30 9231 H 869.26 1.56386 3.44023 0
M  V30 9232 H 869.573 3.75681 6.75339 0
M  V30 9233 H 867.918 3.37253 6.07689 0
M  V30 9234 H 871.109 2.01352 4.22581 0
M  V30 9235 H 871.282 3.01332 5.73675 0
M  V30 9236 N 864.689 -1.48329 0.532571 0
M  V30 9237 C 865.599 -2.33445 -0.232546 0
M  V30 9238 C 866.615 -1.46651 -0.93645 0
M  V30 9239 O 867.791 -1.79627 -0.910834 0
M  V30 9240 C 864.856 -3.22824 -1.26434 0
M  V30 9241 C 863.917 -4.25492 -0.570511 0
M  V30 9242 C 863.15 -5.10601 -1.55315 0
M  V30 9243 O 863.373 -4.97733 -2.78599 0
M  V30 9244 O 862.307 -5.91927 -1.09112 0
M  V30 9245 H 866.133 -3.00119 0.464988 0
M  V30 9246 H 863.718 -1.46489 0.293462 0
M  V30 9247 H 865.6 -3.78103 -1.86055 0
M  V30 9248 H 864.275 -2.58807 -1.94424 0
M  V30 9249 H 863.182 -3.74041 0.0662587 0
M  V30 9250 H 864.515 -4.92154 0.0674904 0
M  V30 9251 N 866.167 -0.267825 -1.55308 0
M  V30 9252 C 867.583 0.0865107 -1.59365 0
M  V30 9253 C 867.783 1.55205 -1.28505 0
M  V30 9254 O 866.839 2.29978 -1.04241 0
M  V30 9255 C 868.152 -0.28155 -2.99379 0
M  V30 9256 C 869.7 -0.227565 -3.12172 0
M  V30 9257 C 870.175 -0.569959 -4.5444 0
M  V30 9258 N 871.666 -0.521238 -4.60258 0
M  V30 9259 C 872.401 -0.759061 -5.68354 0
M  V30 9260 N 871.897 -1.06112 -6.84626 0
M  V30 9261 N 873.69 -0.688351 -5.57869 0
M  V30 9262 H 865.841 -1.22332 -1.73633 0
M  V30 9263 H 868.104 -0.493703 -0.809297 0
M  V30 9264 H 867.81 -1.3005 -3.26772 0
M  V30 9265 H 867.684 0.381192 -3.75269 0
M  V30 9266 H 870.071 0.782093 -2.84548 0
M  V30 9267 H 870.152 -0.924461 -2.38511 0
M  V30 9268 H 869.796 -1.57727 -4.82788 0
M  V30 9269 H 869.726 0.148646 -5.2639 0
M  V30 9270 H 872.217 -0.297359 -3.76728 0
M  V30 9271 H 872.53 -1.22945 -7.62958 0
M  V30 9272 H 870.875 -1.09881 -6.86259 0
M  V30 9273 H 874.066 -0.452268 -4.6591 0
M  V30 9274 H 874.239 -0.877081 -6.42037 0
M  V30 9275 N 867.645 1.57599 0.00500368 0
M  V30 9276 C 868.891 1.90631 0.691919 0
M  V30 9277 C 869.224 0.868443 1.737 0
M  V30 9278 O 868.499 -0.113482 1.94169 0
M  V30 9279 C 868.782 3.34255 1.33961 0
M  V30 9280 C 868.635 4.48755 0.306413 0
M  V30 9281 C 869.954 3.77211 2.26715 0
M  V30 9282 H 867.073 0.693279 0.250066 0
M  V30 9283 H 869.715 1.89946 -0.0452634 0
M  V30 9284 H 867.865 3.3497 1.96793 0
M  V30 9285 H 869.537 4.60176 -0.321841 0
M  V30 9286 H 867.78 4.32203 -0.371852 0
M  V30 9287 H 868.451 5.46193 0.798554 0
M  V30 9288 H 870.927 3.78017 1.73904 0
M  V30 9289 H 869.803 4.78466 2.69002 0
M  V30 9290 H 870.064 3.10801 3.14413 0
M  V30 9291 N 869.123 -0.277682 1.55134 0
M  V30 9292 C 870.033 -1.36524 1.90783 0
M  V30 9293 C 871.049 -1.54283 0.804542 0
M  V30 9294 O 872.225 -1.68499 1.10318 0
M  V30 9295 C 869.29 -2.70524 2.16835 0
M  V30 9296 C 868.351 -2.61552 3.40424 0
M  V30 9297 C 867.584 -3.89162 3.65224 0
M  V30 9298 O 867.807 -4.89624 2.92616 0
M  V30 9299 O 866.741 -3.89647 4.58758 0
M  V30 9300 H 870.567 -1.0929 2.83354 0
M  V30 9301 H 868.152 -0.475799 1.41621 0
M  V30 9302 H 870.034 -3.49765 2.35038 0
M  V30 9303 H 868.709 -2.97555 1.27448 0
M  V30 9304 H 867.616 -1.80704 3.27562 0
M  V30 9305 H 868.949 -2.39472 4.30016 0
M  V30 9306 N 870.601 -1.47988 -0.541979 0
M  V30 9307 C 871.533 -1.5769 -1.66332 0
M  V30 9308 C 872.546 -0.461994 -1.56107 0
M  V30 9309 O 873.735 -0.732306 -1.62787 0
M  V30 9310 C 870.835 -1.47939 -3.04905 0
M  V30 9311 C 870.008 -2.74263 -3.40733 0
M  V30 9312 C 869.067 -2.58133 -4.58534 0
M  V30 9313 O 868.093 -3.31991 -4.62354 0
M  V30 9314 N 869.295 -1.6696 -5.55972 0
M  V30 9315 H 872.06 -2.54389 -1.5845 0
M  V30 9316 H 869.621 -1.4456 -0.728979 0
M  V30 9317 H 871.613 -1.34861 -3.81569 0
M  V30 9318 H 870.183 -0.592626 -3.06931 0
M  V30 9319 H 869.403 -3.01992 -2.53366 0
M  V30 9320 H 870.691 -3.58094 -3.6145 0
M  V30 9321 H 870.089 -1.06134 -5.55655 0
M  V30 9322 H 868.646 -1.59826 -6.31901 0
M  V30 9323 N 872.079 0.78992 -1.36375 0
M  V30 9324 C 873.012 1.90907 -1.25019 0
M  V30 9325 C 873.99 1.62043 -0.134463 0
M  V30 9326 O 875.174 1.86008 -0.305506 0
M  V30 9327 C 872.301 3.25716 -0.928822 0
M  V30 9328 C 871.347 3.73511 -2.05892 0
M  V30 9329 S 872.18 3.89332 -3.6767 0
M  V30 9330 C 873.336 5.27017 -3.37645 0
M  V30 9331 H 873.569 2.00247 -2.19746 0
M  V30 9332 H 871.102 0.949097 -1.21785 0
M  V30 9333 H 873.06 4.03586 -0.750219 0
M  V30 9334 H 871.721 3.141 0.000658424 0
M  V30 9335 H 870.914 4.71195 -1.78862 0
M  V30 9336 H 870.516 3.02688 -2.19672 0
M  V30 9337 H 872.808 6.1158 -2.91507 0
M  V30 9338 H 873.751 5.5905 -4.3459 0
M  V30 9339 H 874.159 4.94093 -2.73006 0
M  V30 9340 N 873.557 1.20646 1.01402 0
M  V30 9341 C 874.504 0.957618 2.09996 0
M  V30 9342 C 875.474 -0.113115 1.65714 0
M  V30 9343 O 876.659 0.032142 1.90773 0
M  V30 9344 C 873.799 0.5186 3.41181 0
M  V30 9345 C 872.912 1.65777 3.98926 0
M  V30 9346 C 872.047 1.16881 5.18182 0
M  V30 9347 C 871.086 2.2809 5.68015 0
M  V30 9348 N 870.223 1.80392 6.7853 0
M  V30 9349 H 875.063 1.88732 2.30617 0
M  V30 9350 H 872.6 0.940703 1.13089 0
M  V30 9351 H 874.558 0.245367 4.16478 0
M  V30 9352 H 873.188 -0.3741 3.20625 0
M  V30 9353 H 872.24 2.04586 3.207 0
M  V30 9354 H 873.552 2.49507 4.31912 0
M  V30 9355 H 872.706 0.851694 6.00692 0
M  V30 9356 H 871.445 0.301434 4.86768 0
M  V30 9357 H 870.45 2.60614 4.84108 0
M  V30 9358 H 871.675 3.15308 6.01463 0
M  V30 9359 H 869.621 0.959856 6.4894 0
M  V30 9360 H 869.538 2.57701 7.10722 0
M  V30 9361 H 870.806 1.51688 7.64598 0
M  V30 9362 N 875.035 -1.20752 1.01276 0
M  V30 9363 C 875.945 -2.27079 0.589277 0
M  V30 9364 C 876.961 -1.6999 -0.371389 0
M  V30 9365 O 878.137 -2.00044 -0.233294 0
M  V30 9366 C 875.202 -3.4663 -0.0696715 0
M  V30 9367 C 874.263 -4.18962 0.936454 0
M  V30 9368 C 873.496 -5.32806 0.308856 0
M  V30 9369 O 873.719 -5.63376 -0.8924 0
M  V30 9370 O 872.653 -5.93131 1.02367 0
M  V30 9371 H 876.479 -2.6551 1.47438 0
M  V30 9372 H 874.064 -1.27297 0.782045 0
M  V30 9373 H 875.946 -4.19119 -0.437873 0
M  V30 9374 H 874.621 -3.10082 -0.929029 0
M  V30 9375 H 873.528 -3.48661 1.35595 0
M  V30 9376 H 874.861 -4.59441 1.76565 0
M  V30 9377 N 876.513 -0.788492 -1.36457 0
M  V30 9378 C 877.423 -0.187385 -2.3385 0
M  V30 9379 C 878.439 0.659984 -1.60998 0
M  V30 9380 O 879.615 0.575986 -1.92988 0
M  V30 9381 C 876.68 0.668525 -3.40194 0
M  V30 9382 C 875.741 -0.197234 -4.28847 0
M  V30 9383 C 874.974 0.61792 -5.30111 0
M  V30 9384 O 875.197 1.85396 -5.3943 0
M  V30 9385 O 874.131 0.0183016 -6.01897 0
M  V30 9386 H 877.957 -0.992617 -2.87021 0
M  V30 9387 H 875.542 -0.549934 -1.3891 0
M  V30 9388 H 877.424 1.15663 -4.05216 0
M  V30 9389 H 876.099 1.45166 -2.89324 0
M  V30 9390 H 875.006 -0.73207 -3.66867 0
M  V30 9391 H 876.339 -0.943863 -4.83065 0
M  V30 9392 N 877.991 1.48044 -0.54043 0
M  V30 9393 C 878.938 2.29781 0.216597 0
M  V30 9394 C 879.908 1.38021 0.924094 0
M  V30 9395 O 881.093 1.66985 0.923078 0
M  V30 9396 C 878.233 3.21623 1.2511 0
M  V30 9397 C 877.346 4.28467 0.551384 0
M  V30 9398 C 876.481 5.07477 1.56972 0
M  V30 9399 C 875.52 6.06113 0.854048 0
M  V30 9400 N 874.657 6.78143 1.81842 0
M  V30 9401 H 879.497 2.94001 -0.486578 0
M  V30 9402 H 877.034 1.44929 -0.251789 0
M  V30 9403 H 878.992 3.73279 1.8633 0
M  V30 9404 H 877.622 2.59305 1.92252 0
M  V30 9405 H 876.674 3.79997 -0.174982 0
M  V30 9406 H 877.986 4.98799 -0.0100542 0
M  V30 9407 H 877.14 5.63199 2.25592 0
M  V30 9408 H 875.879 4.37008 2.16507 0
M  V30 9409 H 874.884 5.49585 0.153838 0
M  V30 9410 H 876.109 6.78584 0.264675 0
M  V30 9411 H 874.055 6.10417 2.40265 0
M  V30 9412 H 873.972 7.44587 1.3087 0
M  V30 9413 H 875.24 7.38448 2.49628 0
M  V30 9414 N 879.47 0.276058 1.55163 0
M  V30 9415 C 880.417 -0.611006 2.22565 0
M  V30 9416 C 881.387 -1.14902 1.19945 0
M  V30 9417 O 882.572 -1.19815 1.48489 0
M  V30 9418 C 879.712 -1.78885 2.95117 0
M  V30 9419 C 878.825 -1.2846 4.12458 0
M  V30 9420 C 877.96 -2.42432 4.72652 0
M  V30 9421 C 876.999 -1.89015 5.82185 0
M  V30 9422 N 876.136 -2.96463 6.36439 0
M  V30 9423 H 880.976 -0.0295849 2.97985 0
M  V30 9424 H 878.513 -0.00283607 1.471 0
M  V30 9425 H 880.471 -2.48121 3.35398 0
M  V30 9426 H 879.101 -2.34229 2.22119 0
M  V30 9427 H 878.153 -0.485312 3.77292 0
M  V30 9428 H 879.465 -0.853358 4.91446 0
M  V30 9429 H 878.619 -3.19659 5.15658 0
M  V30 9430 H 877.358 -2.88872 3.92943 0
M  V30 9431 H 876.363 -1.10267 5.38629 0
M  V30 9432 H 877.588 -1.43509 6.63763 0
M  V30 9433 H 875.534 -3.42283 5.59623 0
M  V30 9434 H 875.451 -2.57759 7.10701 0
M  V30 9435 H 876.719 -3.73663 6.84103 0
M  V30 9436 N 880.948 -1.576 0.00335426 0
M  V30 9437 C 881.895 -2.08632 -0.986975 0
M  V30 9438 C 882.865 -0.982491 -1.33927 0
M  V30 9439 O 884.05 -1.25513 -1.43705 0
M  V30 9440 C 881.19 -2.59705 -2.27261 0
M  V30 9441 C 880.303 -3.84002 -1.97905 0
M  V30 9442 C 879.438 -4.23563 -3.20574 0
M  V30 9443 C 878.477 -5.40688 -2.8692 0
M  V30 9444 N 877.614 -5.75526 -4.02136 0
M  V30 9445 H 882.454 -2.92977 -0.544855 0
M  V30 9446 H 879.991 -1.44831 -0.257376 0
M  V30 9447 H 881.949 -2.87395 -3.02423 0
M  V30 9448 H 880.579 -1.7823 -2.69136 0
M  V30 9449 H 879.631 -3.63199 -1.13096 0
M  V30 9450 H 880.943 -4.69261 -1.69102 0
M  V30 9451 H 880.097 -4.52554 -4.04079 0
M  V30 9452 H 878.836 -3.37019 -3.52518 0
M  V30 9453 H 877.841 -5.11417 -2.01822 0
M  V30 9454 H 879.066 -6.2891 -2.5622 0
M  V30 9455 H 877.012 -4.9194 -4.33971 0
M  V30 9456 H 876.929 -6.55367 -3.76869 0
M  V30 9457 H 878.197 -6.0911 -4.8642 0
M  V30 9458 N 882.426 0.269451 -1.5528 0
M  V30 9459 C 883.358 1.35553 -1.84819 0
M  V30 9460 C 884.371 1.45369 -0.732914 0
M  V30 9461 O 885.56 1.47122 -1.0108 0
M  V30 9462 C 882.66 2.73645 -1.9993 0
M  V30 9463 C 881.833 2.86376 -3.30617 0
M  V30 9464 C 880.892 4.05165 -3.35749 0
M  V30 9465 O 879.918 3.95756 -4.09104 0
M  V30 9466 N 881.12 5.17297 -2.63408 0
M  V30 9467 H 883.885 1.10557 -2.78563 0
M  V30 9468 H 881.446 0.459566 -1.5524 0
M  V30 9469 H 883.438 3.51411 -2.00729 0
M  V30 9470 H 882.008 2.91448 -1.13035 0
M  V30 9471 H 881.228 1.95465 -3.42326 0
M  V30 9472 H 882.516 2.91815 -4.16799 0
M  V30 9473 H 881.914 5.2783 -2.03501 0
M  V30 9474 H 880.471 5.93281 -2.69927 0
M  V30 9475 N 883.904 1.48273 0.534124 0
M  V30 9476 C 885.153 1.55334 1.28663 0
M  V30 9477 C 885.466 0.230345 1.94239 0
M  V30 9478 O 886.672 0.179161 2.70908 0
M  V30 9479 C 885.128 2.73927 2.33435 0
M  V30 9480 C 884.736 4.12852 1.73947 0
M  V30 9481 C 886.48 2.90298 3.09722 0
M  V30 9482 C 884.387 5.22711 2.76636 0
M  V30 9483 H 883.317 0.578262 0.483869 0
M  V30 9484 H 885.968 1.74598 0.564602 0
M  V30 9485 H 884.35 2.48089 3.08655 0
M  V30 9486 H 885.524 4.48691 1.04944 0
M  V30 9487 H 883.839 4.01562 1.10167 0
M  V30 9488 H 886.436 3.69542 3.86449 0
M  V30 9489 H 886.779 1.99598 3.6533 0
M  V30 9490 H 887.312 3.16017 2.41616 0
M  V30 9491 H 884.051 6.15362 2.25852 0
M  V30 9492 H 883.571 4.91364 3.43979 0
M  V30 9493 H 885.25 5.50648 3.39699 0
M  V30 9494 N 885.382 -0.782676 1.36792 0
M  V30 9495 C 886.292 -1.92679 1.33835 0
M  V30 9496 C 887.308 -1.72344 0.23952 0
M  V30 9497 O 888.484 -1.95766 0.473045 0
M  V30 9498 C 885.549 -3.27644 1.1336 0
M  V30 9499 C 884.61 -3.6071 2.32781 0
M  V30 9500 C 883.843 -4.89234 2.13273 0
M  V30 9501 O 884.066 -5.59468 1.11136 0
M  V30 9502 O 883 -5.21112 3.01208 0
M  V30 9503 H 886.826 -1.98124 2.30175 0
M  V30 9504 H 884.411 -0.923887 1.17408 0
M  V30 9505 H 886.293 -4.08394 1.03886 0
M  V30 9506 H 884.968 -3.23076 0.200868 0
M  V30 9507 H 883.875 -2.80238 2.47825 0
M  V30 9508 H 885.208 -3.70008 3.24584 0
M  V30 9509 N 886.86 -1.21182 -1.00761 0
M  V30 9510 C 887.792 -0.926523 -2.09638 0
M  V30 9511 C 888.805 0.0892511 -1.62555 0
M  V30 9512 O 889.994 -0.142915 -1.77927 0
M  V30 9513 C 887.094 -0.369175 -3.36883 0
M  V30 9514 C 886.267 -1.43866 -4.13063 0
M  V30 9515 C 885.326 -0.891015 -5.18601 0
M  V30 9516 O 884.352 -1.57384 -5.47009 0
M  V30 9517 N 885.554 0.295057 -5.7975 0
M  V30 9518 H 888.319 -1.8638 -2.34697 0
M  V30 9519 H 885.88 -1.11671 -1.17223 0
M  V30 9520 H 887.872 0.011534 -4.04698 0
M  V30 9521 H 886.442 0.472861 -3.09003 0
M  V30 9522 H 885.662 -1.99332 -3.40089 0
M  V30 9523 H 886.95 -2.15866 -4.60738 0
M  V30 9524 H 886.348 0.8669 -5.59018 0
M  V30 9525 H 884.905 0.617306 -6.4887 0
M  V30 9526 N 888.338 1.20213 -1.01915 0
M  V30 9527 C 889.285 2.2309 -0.591571 0
M  V30 9528 C 890.255 1.61465 0.389649 0
M  V30 9529 O 891.44 1.88606 0.288511 0
M  V30 9530 C 888.58 3.45045 0.0614028 0
M  V30 9531 C 887.693 4.21091 -0.964688 0
M  V30 9532 C 886.828 5.30448 -0.282499 0
M  V30 9533 C 885.867 5.98241 -1.29517 0
M  V30 9534 N 885.004 6.99182 -0.639472 0
M  V30 9535 H 889.844 2.59023 -1.47347 0
M  V30 9536 H 887.381 1.27274 -0.737547 0
M  V30 9537 H 889.339 4.14688 0.45714 0
M  V30 9538 H 887.969 3.09797 0.906937 0
M  V30 9539 H 887.021 3.50489 -1.47857 0
M  V30 9540 H 888.333 4.67662 -1.73475 0
M  V30 9541 H 887.487 6.06466 0.168603 0
M  V30 9542 H 886.226 4.84922 0.519843 0
M  V30 9543 H 885.231 5.20982 -1.75663 0
M  V30 9544 H 886.456 6.45853 -2.09884 0
M  V30 9545 H 884.402 6.55844 0.142955 0
M  V30 9546 H 884.319 7.43893 -1.34756 0
M  V30 9547 H 885.587 7.79212 -0.212047 0
M  V30 9548 N 889.816 0.795718 1.36037 0
M  V30 9549 C 891.063 0.371024 1.99072 0
M  V30 9550 C 891.391 -1.05896 1.63145 0
M  V30 9551 O 890.646 -1.7474 0.881163 0
M  V30 9552 C 890.945 0.489038 3.54038 0
M  V30 9553 C 890.611 1.88075 4.09803 0
M  V30 9554 C 889.273 2.26152 4.24745 0
M  V30 9555 C 891.625 2.79174 4.40126 0
M  V30 9556 C 888.953 3.54718 4.67324 0
M  V30 9557 C 891.305 4.07175 4.8414 0
M  V30 9558 C 889.969 4.45266 4.97287 0
M  V30 9559 H 889.239 0.135767 0.728456 0
M  V30 9560 H 891.886 1.0144 1.62426 0
M  V30 9561 H 890.191 -0.237823 3.91078 0
M  V30 9562 H 891.888 0.141374 4.00751 0
M  V30 9563 H 888.478 1.57488 3.98617 0
M  V30 9564 H 892.662 2.51009 4.28145 0
M  V30 9565 H 887.918 3.84093 4.75691 0
M  V30 9566 H 892.092 4.77875 5.06565 0
M  V30 9567 H 889.719 5.44943 5.30038 0
M  V30 9568 N 891.294 -1.47756 0.548274 0
M  V30 9569 C 892.257 -2.28379 -0.193857 0
M  V30 9570 C 893.257 -1.36436 -0.850986 0
M  V30 9571 O 894.447 -1.59154 -0.70822 0
M  V30 9572 C 891.579 -3.15858 -1.28243 0
M  V30 9573 H 892.772 -2.95458 0.514231 0
M  V30 9574 H 890.325 -1.53298 0.304879 0
M  V30 9575 H 891.06 -2.5345 -2.0232 0
M  V30 9576 H 890.845 -3.83512 -0.816148 0
M  V30 9577 H 892.335 -3.76627 -1.80393 0
M  V30 9578 N 892.772 -0.284283 -1.55015 0
M  V30 9579 C 893.704 0.63258 -2.20298 0
M  V30 9580 C 894.717 1.11045 -1.1905 0
M  V30 9581 O 895.906 1.03078 -1.4573 0
M  V30 9582 C 893.006 1.87599 -2.82241 0
M  V30 9583 C 892.179 1.5434 -4.09265 0
M  V30 9584 C 891.238 2.64023 -4.55169 0
M  V30 9585 O 890.264 2.29821 -5.20741 0
M  V30 9586 N 891.466 3.94255 -4.26079 0
M  V30 9587 H 894.231 0.0737928 -2.99609 0
M  V30 9588 H 891.792 -0.105767 -1.61554 0
M  V30 9589 H 893.784 2.60289 -3.0989 0
M  V30 9590 H 892.354 2.3436 -2.06868 0
M  V30 9591 H 891.574 0.649912 -3.88806 0
M  V30 9592 H 892.862 1.29634 -4.92009 0
M  V30 9593 H 892.26 4.24859 -3.73512 0
M  V30 9594 H 890.817 4.63295 -4.58477 0
M  V30 9595 N 894.251 1.57596 -0.0117121 0
M  V30 9596 C 895.5 1.9025 0.669921 0
M  V30 9597 C 895.813 0.887986 1.74282 0
M  V30 9598 O 897.019 1.10516 2.47989 0
M  V30 9599 C 895.475 3.37762 1.24277 0
M  V30 9600 C 895.083 4.47535 0.204076 0
M  V30 9601 C 896.827 3.79509 1.90192 0
M  V30 9602 C 894.734 5.86132 0.787577 0
M  V30 9603 H 893.664 0.709935 0.253984 0
M  V30 9604 H 896.315 1.8335 -0.0741718 0
M  V30 9605 H 894.697 3.39537 2.03791 0
M  V30 9606 H 895.871 4.57294 -0.56733 0
M  V30 9607 H 894.186 4.14881 -0.355305 0
M  V30 9608 H 896.783 4.80402 2.34773 0
M  V30 9609 H 897.126 3.13643 2.7374 0
M  V30 9610 H 897.659 3.80084 1.17394 0
M  V30 9611 H 894.398 6.55499 -0.00938418 0
M  V30 9612 H 893.918 5.80014 1.52787 0
M  V30 9613 H 895.597 6.34158 1.28265 0
M  V30 9614 N 895.729 -0.261212 1.5542 0
M  V30 9615 C 897.006 -1.01321 1.67312 0
M  V30 9616 C 897.386 -2.0388 0.547356 0
M  V30 9617 O 896.734 -2.24003 -0.451083 0
M  V30 9618 C 896.944 -1.65943 3.07024 0
M  V30 9619 C 898.292 -2.16666 3.65159 0
M  V30 9620 O 899.316 -1.75909 3.09733 0
M  V30 9621 O 898.175 -2.91455 4.62294 0
M  V30 9622 H 895.269 -0.470714 0.679968 0
M  V30 9623 H 897.815 -0.256133 1.67756 0
M  V30 9624 H 896.587 -0.916868 3.80407 0
M  V30 9625 H 896.21 -2.48308 3.1053 0
M  V30 9626 N 897.207 -1.48554 -0.526253 0
M  V30 9627 C 898.117 -1.66044 -1.65731 0
M  V30 9628 C 899.133 -0.542951 -1.65312 0
M  V30 9629 O 900.309 -0.814495 -1.84195 0
M  V30 9630 C 897.374 -1.69959 -3.02184 0
M  V30 9631 C 896.435 -2.93362 -3.13428 0
M  V30 9632 C 895.668 -2.97081 -4.43372 0
M  V30 9633 O 895.891 -2.09103 -5.3069 0
M  V30 9634 O 894.825 -3.8929 -4.59061 0
M  V30 9635 H 898.651 -2.61811 -1.53912 0
M  V30 9636 H 896.236 -1.31999 -0.699759 0
M  V30 9637 H 898.118 -1.75033 -3.83329 0
M  V30 9638 H 896.793 -0.773658 -3.14319 0
M  V30 9639 H 895.7 -2.93818 -2.31564 0
M  V30 9640 H 897.033 -3.85352 -3.06211 0
M  V30 9641 N 898.685 0.775411 -1.37205 0
M  V30 9642 C 899.632 1.88857 -1.32671 0
M  V30 9643 C 900.602 1.64976 -0.192899 0
M  V30 9644 O 901.787 1.86944 -0.381673 0
M  V30 9645 C 898.927 3.25871 -1.13588 0
M  V30 9646 C 898.04 3.61731 -2.36167 0
M  V30 9647 C 897.175 4.87934 -2.09985 0
M  V30 9648 C 896.214 5.16514 -3.2845 0
M  V30 9649 N 895.351 6.33905 -3.01842 0
M  V30 9650 H 900.191 1.92068 -2.27846 0
M  V30 9651 H 897.728 0.939066 -1.13225 0
M  V30 9652 H 899.686 4.04903 -1.00546 0
M  V30 9653 H 898.316 3.22045 -0.220613 0
M  V30 9654 H 897.368 2.77712 -2.59962 0
M  V30 9655 H 898.68 3.78792 -3.24528 0
M  V30 9656 H 897.834 5.74863 -1.93953 0
M  V30 9657 H 896.573 4.7297 -1.18956 0
M  V30 9658 H 895.578 4.28063 -3.45025 0
M  V30 9659 H 896.803 5.33389 -4.20325 0
M  V30 9660 H 894.749 6.20306 -2.13439 0
M  V30 9661 H 894.666 6.51364 -3.83746 0
M  V30 9662 H 895.934 7.23779 -2.8942 0
M  V30 9663 N 900.163 1.21714 1.00117 0
M  V30 9664 C 901.391 1.06278 1.77518 0
M  V30 9665 C 901.806 -0.387193 1.84787 0
M  V30 9666 O 901.163 -1.26854 1.31203 0
M  V30 9667 C 901.214 1.65795 3.21239 0
M  V30 9668 O 900.935 3.05119 3.14378 0
M  V30 9669 C 902.436 1.55521 4.15124 0
M  V30 9670 H 899.656 0.373013 0.557765 0
M  V30 9671 H 902.2 1.61133 1.25922 0
M  V30 9672 H 900.355 1.15022 3.69931 0
M  V30 9673 H 900.769 3.33643 4.04701 0
M  V30 9674 H 902.243 2.01902 5.13751 0
M  V30 9675 H 902.72 0.510307 4.36225 0
M  V30 9676 H 903.326 2.0556 3.72324 0
M  V30 9677 N 901.641 -1.19671 1.02551 0
M  V30 9678 C 902.551 -2.26441 0.613329 0
M  V30 9679 C 903.567 -1.70375 -0.353339 0
M  V30 9680 O 904.743 -2.0028 -0.212064 0
M  V30 9681 C 901.808 -3.46684 -0.0329028 0
M  V30 9682 C 900.869 -4.17945 0.980837 0
M  V30 9683 C 900.102 -5.32448 0.36535 0
M  V30 9684 O 900.325 -5.64291 -0.832596 0
M  V30 9685 O 899.259 -5.92012 1.08652 0
M  V30 9686 H 903.085 -2.63932 1.50246 0
M  V30 9687 H 900.67 -1.2646 0.795502 0
M  V30 9688 H 902.552 -4.1956 -0.393395 0
M  V30 9689 H 901.227 -3.1105 -0.896089 0
M  V30 9690 H 900.134 -3.47204 1.39286 0
M  V30 9691 H 901.467 -4.57542 1.81428 0
M  V30 9692 N 903.119 -0.802921 -1.35613 0
M  V30 9693 C 904.066 -0.20874 -2.29854 0
M  V30 9694 C 905.036 0.655128 -1.52634 0
M  V30 9695 O 906.221 0.600979 -1.81088 0
M  V30 9696 C 903.361 0.639663 -3.3912 0
M  V30 9697 C 902.474 -0.244234 -4.31309 0
M  V30 9698 C 901.609 0.611825 -5.27665 0
M  V30 9699 C 900.648 -0.272698 -6.11492 0
M  V30 9700 N 899.785 0.543122 -6.99996 0
M  V30 9701 H 904.625 -1.01782 -2.80079 0
M  V30 9702 H 902.162 -0.513465 -1.37848 0
M  V30 9703 H 904.12 1.14668 -4.01132 0
M  V30 9704 H 902.75 1.41404 -2.9018 0
M  V30 9705 H 901.802 -0.869322 -3.70334 0
M  V30 9706 H 903.114 -0.925202 -4.90144 0
M  V30 9707 H 902.268 1.18412 -5.95032 0
M  V30 9708 H 901.007 1.32637 -4.69317 0
M  V30 9709 H 900.012 -0.857287 -5.43075 0
M  V30 9710 H 901.237 -0.985051 -6.71918 0
M  V30 9711 H 899.183 1.24171 -6.44141 0
M  V30 9712 H 899.1 -0.0798767 -7.55958 0
M  V30 9713 H 900.368 1.09881 -7.71717 0
M  V30 9714 N 904.597 1.47463 -0.556102 0
M  V30 9715 C 905.56 2.28478 0.181743 0
M  V30 9716 C 906.56 1.36886 0.843738 0
M  V30 9717 O 907.75 1.59527 0.69977 0
M  V30 9718 C 904.882 3.16534 1.26566 0
M  V30 9719 H 906.075 2.95182 -0.529892 0
M  V30 9720 H 903.628 1.53134 -0.313005 0
M  V30 9721 H 904.363 2.5452 2.00973 0
M  V30 9722 H 904.148 3.83939 0.795798 0
M  V30 9723 H 905.638 3.77579 1.78393 0
M  V30 9724 N 906.075 0.2925 1.54862 0
M  V30 9725 C 907.022 -0.587365 2.23201 0
M  V30 9726 C 907.992 -1.13623 1.21157 0
M  V30 9727 O 909.177 -1.18233 1.49752 0
M  V30 9728 C 906.317 -1.75745 2.96998 0
M  V30 9729 C 905.43 -1.24078 4.13798 0
M  V30 9730 C 904.565 -2.37405 4.75197 0
M  V30 9731 C 903.604 -1.82829 5.84157 0
M  V30 9732 N 902.741 -2.89696 6.39547 0
M  V30 9733 H 907.581 0.00202207 2.98 0
M  V30 9734 H 905.118 0.012766 1.47094 0
M  V30 9735 H 907.076 -2.44549 3.38011 0
M  V30 9736 H 905.706 -2.3186 2.24591 0
M  V30 9737 H 904.758 -0.445268 3.77785 0
M  V30 9738 H 906.07 -0.801186 4.92324 0
M  V30 9739 H 905.224 -3.14172 5.19019 0
M  V30 9740 H 903.963 -2.84688 3.95985 0
M  V30 9741 H 902.968 -1.04548 5.39768 0
M  V30 9742 H 904.193 -1.36461 6.65248 0
M  V30 9743 H 902.139 -3.36328 5.63222 0
M  V30 9744 H 902.056 -2.50206 7.13395 0
M  V30 9745 H 903.324 -3.66386 6.88027 0
M  V30 9746 N 907.553 -1.57587 0.0200696 0
M  V30 9747 C 908.463 -2.13119 -0.980676 0
M  V30 9748 C 909.479 -1.08124 -1.36328 0
M  V30 9749 O 910.655 -1.40134 -1.44653 0
M  V30 9750 C 907.72 -2.63991 -2.24743 0
M  V30 9751 C 906.781 -3.83667 -1.9261 0
M  V30 9752 C 906.014 -4.32103 -3.13246 0
M  V30 9753 O 906.237 -3.79758 -4.25606 0
M  V30 9754 O 905.171 -5.24047 -2.96072 0
M  V30 9755 H 908.997 -2.98887 -0.538528 0
M  V30 9756 H 906.582 -1.48055 -0.19999 0
M  V30 9757 H 908.464 -2.9682 -2.99125 0
M  V30 9758 H 907.139 -1.81311 -2.68157 0
M  V30 9759 H 906.046 -3.55778 -1.15641 0
M  V30 9760 H 907.379 -4.67482 -1.54019 0
M  V30 9761 N 909.032 0.252966 -1.55557 0
M  V30 9762 C 909.942 1.33472 -1.92931 0
M  V30 9763 C 910.958 1.52983 -0.828985 0
M  V30 9764 O 912.134 1.66723 -1.12984 0
M  V30 9765 C 909.199 2.6704 -2.21112 0
M  V30 9766 C 908.26 2.56103 -3.44542 0
M  V30 9767 C 907.493 3.83302 -3.71369 0
M  V30 9768 O 907.716 4.84907 -3.00368 0
M  V30 9769 O 906.65 3.823 -4.64898 0
M  V30 9770 H 910.476 1.04768 -2.85057 0
M  V30 9771 H 908.061 0.453208 -1.4236 0
M  V30 9772 H 909.943 3.45981 -2.40572 0
M  V30 9773 H 908.618 2.95489 -1.32166 0
M  V30 9774 H 907.525 1.7547 -3.30396 0
M  V30 9775 H 908.858 2.32601 -4.33772 0
M  V30 9776 N 910.51 1.48831 0.518367 0
M  V30 9777 C 911.926 1.35209 0.847979 0
M  V30 9778 C 912.126 0.371927 1.98038 0
M  V30 9779 O 911.182 -0.202681 2.51685 0
M  V30 9780 C 912.495 2.7552 1.20455 0
M  V30 9781 C 914.043 2.84094 1.31377 0
M  V30 9782 C 914.518 4.25132 1.70372 0
M  V30 9783 N 916.009 4.27861 1.77453 0
M  V30 9784 C 916.744 5.3394 2.09035 0
M  V30 9785 N 916.24 6.50285 2.3896 0
M  V30 9786 N 918.033 5.21343 2.10139 0
M  V30 9787 H 910.184 2.11166 -0.228624 0
M  V30 9788 H 912.447 0.94717 -0.0396599 0
M  V30 9789 H 912.153 3.48861 0.445991 0
M  V30 9790 H 912.027 3.09785 2.15204 0
M  V30 9791 H 914.414 2.11001 2.06307 0
M  V30 9792 H 914.495 2.53433 0.347203 0
M  V30 9793 H 914.139 4.98745 0.959975 0
M  V30 9794 H 914.069 4.53245 2.68098 0
M  V30 9795 H 916.56 3.43945 1.56557 0
M  V30 9796 H 916.873 7.26961 2.62196 0
M  V30 9797 H 915.218 6.5354 2.36454 0
M  V30 9798 H 918.409 4.29462 1.86225 0
M  V30 9799 H 918.582 6.04112 2.34419 0
M  V30 9800 N 911.988 -0.768124 1.37614 0
M  V30 9801 C 912.918 -1.89537 1.36374 0
M  V30 9802 C 913.899 -1.68513 0.231803 0
M  V30 9803 O 915.084 -1.89318 0.432705 0
M  V30 9804 C 912.214 -3.26871 1.17358 0
M  V30 9805 C 911.168 -3.62466 2.27602 0
M  V30 9806 C 910.494 -4.9838 1.93705 0
M  V30 9807 C 911.794 -3.68841 3.69802 0
M  V30 9808 H 913.488 -1.90832 2.30702 0
M  V30 9809 H 911.034 -0.91672 1.11051 0
M  V30 9810 H 912.987 -4.05371 1.15119 0
M  V30 9811 H 911.711 -3.26018 0.194865 0
M  V30 9812 H 910.37 -2.86276 2.29002 0
M  V30 9813 H 910.018 -4.94071 0.943539 0
M  V30 9814 H 909.718 -5.23165 2.6753 0
M  V30 9815 H 911.242 -5.79276 1.93059 0
M  V30 9816 H 912.656 -4.37485 3.70513 0
M  V30 9817 H 911.053 -4.05126 4.42711 0
M  V30 9818 H 912.123 -2.69415 4.03167 0
M  V30 9819 N 913.466 -1.22244 -0.994698 0
M  V30 9820 C 914.429 -0.992308 -2.06606 0
M  V30 9821 C 915.429 0.0405872 -1.60749 0
M  V30 9822 O 916.619 -0.197737 -1.73074 0
M  V30 9823 C 913.751 -0.498499 -3.37236 0
M  V30 9824 H 914.944 -1.9429 -2.28455 0
M  V30 9825 H 912.497 -1.04087 -1.166 0
M  V30 9826 H 913.232 0.456531 -3.21071 0
M  V30 9827 H 913.017 -1.24367 -3.71854 0
M  V30 9828 H 914.507 -0.35768 -4.16065 0
M  V30 9829 N 914.944 1.19125 -1.03184 0
M  V30 9830 C 915.854 2.26112 -0.625329 0
M  V30 9831 C 916.87 1.7056 0.344298 0
M  V30 9832 O 918.046 2.0039 0.20144 0
M  V30 9833 C 915.111 3.46697 0.0145169 0
M  V30 9834 C 914.172 4.17419 -1.00299 0
M  V30 9835 C 913.405 5.32247 -0.393581 0
M  V30 9836 O 913.628 5.64724 0.802659 0
M  V30 9837 O 912.562 5.91428 -1.1179 0
M  V30 9838 H 916.388 2.63131 -1.51643 0
M  V30 9839 H 913.973 1.26036 -0.802197 0
M  V30 9840 H 915.855 4.19762 0.371139 0
M  V30 9841 H 914.53 3.11521 0.879581 0
M  V30 9842 H 913.437 3.4646 -1.41125 0
M  V30 9843 H 914.77 4.56573 -1.83852 0
M  V30 9844 N 916.422 0.810101 1.35185 0
M  V30 9845 C 917.332 0.224565 2.33523 0
M  V30 9846 C 918.348 -0.634287 1.62027 0
M  V30 9847 O 919.524 -0.545211 1.9388 0
M  V30 9848 C 916.589 -0.614319 3.41214 0
M  V30 9849 C 915.65 0.265435 4.28479 0
M  V30 9850 C 914.883 -0.533506 5.31027 0
M  V30 9851 O 915.106 -1.7679 5.42311 0
M  V30 9852 O 914.04 0.0774573 6.0185 0
M  V30 9853 H 917.866 1.03815 2.85405 0
M  V30 9854 H 915.451 0.571964 1.38018 0
M  V30 9855 H 917.333 -1.09201 4.07005 0
M  V30 9856 H 916.008 -1.40545 2.91597 0
M  V30 9857 H 914.915 0.790343 3.65656 0
M  V30 9858 H 916.248 1.0206 4.81503 0
M  V30 9859 N 917.9 -1.47166 0.563914 0
M  V30 9860 C 918.847 -2.30097 -0.180013 0
M  V30 9861 C 919.817 -1.39473 -0.902019 0
M  V30 9862 O 921.002 -1.68432 -0.896396 0
M  V30 9863 C 918.142 -3.23573 -1.19978 0
M  V30 9864 C 917.255 -4.2929 -0.483149 0
M  V30 9865 C 916.39 -5.0991 -1.48879 0
M  V30 9866 C 915.429 -6.07395 -0.757513 0
M  V30 9867 N 914.566 -6.8095 -1.71031 0
M  V30 9868 H 919.406 -2.93189 0.53329 0
M  V30 9869 H 916.943 -1.4451 0.274814 0
M  V30 9870 H 918.901 -3.76196 -1.80368 0
M  V30 9871 H 917.531 -2.6233 -1.88103 0
M  V30 9872 H 916.583 -3.79671 0.235414 0
M  V30 9873 H 917.895 -4.9872 0.0894075 0
M  V30 9874 H 917.049 -5.66717 -2.16603 0
M  V30 9875 H 915.788 -4.40397 -2.09527 0
M  V30 9876 H 914.793 -5.4976 -0.0663841 0
M  V30 9877 H 916.018 -6.78919 -0.156685 0
M  V30 9878 H 913.964 -6.14162 -2.30524 0
M  V30 9879 H 913.881 -7.46574 -1.19007 0
M  V30 9880 H 915.149 -7.42326 -2.37849 0
M  V30 9881 N 919.378 -0.300708 -1.54705 0
M  V30 9882 C 920.341 0.562648 -2.22187 0
M  V30 9883 C 921.341 1.06152 -1.20782 0
M  V30 9884 O 922.531 0.957596 -1.45519 0
M  V30 9885 C 919.663 1.77899 -2.908 0
M  V30 9886 H 920.856 -0.0269361 -2.99888 0
M  V30 9887 H 918.409 -0.0515412 -1.56215 0
M  V30 9888 H 919.144 2.40841 -2.17177 0
M  V30 9889 H 918.929 1.42892 -3.65136 0
M  V30 9890 H 920.419 2.39236 -3.42281 0
M  V30 9891 N 920.856 1.57574 -0.0284266 0
M  V30 9892 C 921.803 2.10176 0.953658 0
M  V30 9893 C 922.773 1.00367 1.32347 0
M  V30 9894 O 923.958 1.27783 1.4169 0
M  V30 9895 C 921.098 2.63287 2.231 0
M  V30 9896 C 920.211 3.87102 1.91771 0
M  V30 9897 C 919.346 4.28609 3.13795 0
M  V30 9898 C 918.385 5.45184 2.78282 0
M  V30 9899 N 917.522 5.81851 3.92929 0
M  V30 9900 H 922.362 2.93806 0.498176 0
M  V30 9901 H 919.899 1.45222 0.234302 0
M  V30 9902 H 921.857 2.9217 2.97813 0
M  V30 9903 H 920.487 1.82489 2.66266 0
M  V30 9904 H 919.539 3.64952 1.07303 0
M  V30 9905 H 920.851 4.71892 1.61615 0
M  V30 9906 H 920.005 4.58925 3.96829 0
M  V30 9907 H 918.744 3.42585 3.47112 0
M  V30 9908 H 917.749 5.14563 1.93661 0
M  V30 9909 H 918.974 6.32907 2.46182 0
M  V30 9910 H 916.92 4.98782 4.2609 0
M  V30 9911 H 916.837 6.6128 3.66395 0
M  V30 9912 H 918.105 6.16772 4.76669 0
M  V30 9913 N 922.334 -0.244713 1.55689 0
M  V30 9914 C 923.281 -1.30301 1.905 0
M  V30 9915 C 924.251 -1.4772 0.759478 0
M  V30 9916 O 925.436 -1.61667 1.01333 0
M  V30 9917 C 922.576 -2.653 2.20703 0
M  V30 9918 C 921.689 -2.55872 3.48071 0
M  V30 9919 C 920.824 -3.83238 3.67834 0
M  V30 9920 C 919.863 -3.68436 4.88796 0
M  V30 9921 N 919 -4.877 5.05068 0
M  V30 9922 H 923.84 -0.999143 2.80751 0
M  V30 9923 H 921.377 -0.482099 1.38976 0
M  V30 9924 H 923.335 -3.43884 2.36219 0
M  V30 9925 H 921.965 -2.93831 1.33653 0
M  V30 9926 H 921.017 -1.68846 3.40874 0
M  V30 9927 H 922.329 -2.40845 4.36801 0
M  V30 9928 H 921.483 -4.70266 3.83321 0
M  V30 9929 H 920.222 -4.01165 2.77341 0
M  V30 9930 H 919.227 -2.79793 4.73282 0
M  V30 9931 H 920.452 -3.52003 5.8075 0
M  V30 9932 H 918.398 -5.05983 4.17513 0
M  V30 9933 H 918.315 -4.75312 5.8789 0
M  V30 9934 H 919.583 -5.76219 5.24969 0
M  V30 9935 N 923.813 -1.49104 -0.510467 0
M  V30 9936 C 924.76 -1.65074 -1.61305 0
M  V30 9937 C 925.73 -0.492362 -1.58635 0
M  V30 9938 O 926.915 -0.718241 -1.76765 0
M  V30 9939 C 924.055 -1.71457 -2.99493 0
M  V30 9940 C 923.168 -2.98536 -3.12251 0
M  V30 9941 C 922.303 -2.95957 -4.41116 0
M  V30 9942 C 921.342 -4.17655 -4.47471 0
M  V30 9943 N 920.479 -4.13041 -5.67751 0
M  V30 9944 H 925.319 -2.59222 -1.46996 0
M  V30 9945 H 922.856 -1.28535 -0.715346 0
M  V30 9946 H 924.814 -1.7314 -3.79577 0
M  V30 9947 H 923.444 -0.807834 -3.12528 0
M  V30 9948 H 922.496 -3.06509 -2.25292 0
M  V30 9949 H 923.808 -3.88527 -3.12807 0
M  V30 9950 H 922.962 -2.96149 -5.2951 0
M  V30 9951 H 921.701 -2.03728 -4.4311 0
M  V30 9952 H 920.706 -4.17717 -3.57481 0
M  V30 9953 H 921.931 -5.11066 -4.472 0
M  V30 9954 H 919.877 -3.23643 -5.70606 0
M  V30 9955 H 919.794 -4.96757 -5.69884 0
M  V30 9956 H 921.062 -4.17322 -6.58379 0
M  V30 9957 N 925.291 0.760815 -1.38019 0
M  V30 9958 C 926.254 1.85604 -1.34476 0
M  V30 9959 C 927.254 1.58897 -0.24666 0
M  V30 9960 O 928.444 1.66776 -0.50314 0
M  V30 9961 C 925.576 3.22945 -1.09176 0
M  V30 9962 H 926.769 1.90155 -2.31908 0
M  V30 9963 H 924.322 0.961746 -1.23208 0
M  V30 9964 H 925.057 3.24066 -0.123216 0
M  V30 9965 H 924.842 3.43723 -1.88672 0
M  V30 9966 H 926.332 4.03022 -1.09375 0
M  V30 9967 N 926.769 1.22769 0.988202 0
M  V30 9968 C 927.732 1.00325 2.06076 0
M  V30 9969 C 928.732 -0.0320618 1.60768 0
M  V30 9970 O 929.922 0.206912 1.72967 0
M  V30 9971 C 927.054 0.516376 3.36966 0
M  V30 9972 H 928.247 1.95499 2.27421 0
M  V30 9973 H 925.8 1.04704 1.16047 0
M  V30 9974 H 926.535 -0.439498 3.21308 0
M  V30 9975 H 926.32 1.26337 3.71189 0
M  V30 9976 H 927.81 0.37974 4.1587 0
M  V30 9977 N 928.247 -1.18576 1.03814 0
M  V30 9978 C 929.21 -2.2033 0.63146 0
M  V30 9979 C 930.21 -1.57787 -0.309816 0
M  V30 9980 O 931.4 -1.73938 -0.0955598 0
M  V30 9981 C 928.532 -3.40818 -0.0745963 0
M  V30 9982 H 929.725 -2.57824 1.53189 0
M  V30 9983 H 927.278 -1.32416 0.830398 0
M  V30 9984 H 928.013 -3.08853 -0.988947 0
M  V30 9985 H 927.798 -3.87453 0.6019 0
M  V30 9986 H 929.288 -4.16166 -0.345727 0
M  V30 9987 N 929.725 -0.817259 -1.34754 0
M  V30 9988 C 930.672 -0.233108 -2.2962 0
M  V30 9989 C 931.642 0.638902 -1.53321 0
M  V30 9990 O 932.827 0.581739 -1.81715 0
M  V30 9991 C 929.967 0.603659 -3.39779 0
M  V30 9992 C 929.08 -0.289967 -4.31026 0
M  V30 9993 C 928.215 0.555825 -5.28284 0
M  V30 9994 C 927.254 -0.337539 -6.11169 0
M  V30 9995 N 926.391 0.468847 -7.00533 0
M  V30 9996 H 931.231 -1.04747 -2.78984 0
M  V30 9997 H 928.768 -0.528056 -1.37295 0
M  V30 9998 H 930.726 1.10407 -4.02326 0
M  V30 9999 H 929.356 1.38319 -2.91664 0
M  V30 10000 H 928.408 -0.908552 -3.69391 0
M  V30 10001 H 929.72 -0.977136 -4.89135 0
M  V30 10002 H 928.874 1.12094 -5.96255 0
M  V30 10003 H 927.613 1.27652 -4.70698 0
M  V30 10004 H 926.618 -0.914839 -5.42135 0
M  V30 10005 H 927.843 -1.05626 -6.70835 0
M  V30 10006 H 925.789 1.17332 -6.45422 0
M  V30 10007 H 925.706 -0.160052 -7.55831 0
M  V30 10008 H 926.974 1.01689 -7.72839 0
M  V30 10009 N 931.203 1.46865 -0.571711 0
M  V30 10010 C 932.15 2.30189 0.167808 0
M  V30 10011 C 933.12 1.3995 0.89461 0
M  V30 10012 O 934.305 1.68905 0.887451 0
M  V30 10013 C 931.445 3.24205 1.1826 0
M  V30 10014 C 930.558 4.2954 0.460376 0
M  V30 10015 C 929.693 5.10693 1.46173 0
M  V30 10016 C 928.732 6.07788 0.725291 0
M  V30 10017 N 927.869 6.81847 1.67417 0
M  V30 10018 H 932.709 2.92902 -0.548831 0
M  V30 10019 H 930.246 1.44362 -0.282474 0
M  V30 10020 H 932.204 3.77147 1.7837 0
M  V30 10021 H 930.834 2.63324 1.86709 0
M  V30 10022 H 929.886 3.79541 -0.255546 0
M  V30 10023 H 931.198 4.98665 -0.115855 0
M  V30 10024 H 930.352 5.67857 2.13595 0
M  V30 10025 H 929.091 4.41502 2.07188 0
M  V30 10026 H 928.096 5.49787 0.037228 0
M  V30 10027 H 929.321 6.78993 0.120678 0
M  V30 10028 H 927.267 6.15376 2.27263 0
M  V30 10029 H 927.184 7.47195 1.15046 0
M  V30 10030 H 928.452 7.43577 2.33908 0
M  V30 10031 N 932.681 0.308908 1.54543 0
M  V30 10032 C 933.614 -0.605854 2.20011 0
M  V30 10033 C 934.592 -1.1269 1.17216 0
M  V30 10034 O 935.776 -1.19363 1.45893 0
M  V30 10035 C 932.903 -1.82977 2.85021 0
M  V30 10036 C 931.949 -1.44126 4.0141 0
M  V30 10037 S 932.782 -0.490445 5.33249 0
M  V30 10038 C 933.938 -1.72198 6.01746 0
M  V30 10039 H 934.171 -0.0496911 2.97258 0
M  V30 10040 H 931.704 0.0930238 1.5412 0
M  V30 10041 H 933.662 -2.53211 3.23102 0
M  V30 10042 H 932.323 -2.35711 2.07604 0
M  V30 10043 H 931.516 -2.35288 4.45708 0
M  V30 10044 H 931.118 -0.818788 3.64927 0
M  V30 10045 H 933.41 -2.66147 6.23034 0
M  V30 10046 H 934.353 -1.32142 6.95661 0
M  V30 10047 H 934.761 -1.90229 5.31482 0
M  V30 10048 N 934.159 -1.57557 0.0367827 0
M  V30 10049 C 935.069 -2.14148 -0.958017 0
M  V30 10050 C 936.085 -1.09564 -1.35173 0
M  V30 10051 O 937.261 -1.4166 -1.43158 0
M  V30 10052 C 934.326 -2.6636 -2.21931 0
M  V30 10053 C 933.387 -3.85688 -1.8853 0
M  V30 10054 C 932.62 -4.35401 -3.08645 0
M  V30 10055 O 932.843 -3.8425 -4.21554 0
M  V30 10056 O 931.777 -5.27158 -2.90497 0
M  V30 10057 H 935.603 -2.99442 -0.506797 0
M  V30 10058 H 933.188 -1.48259 -0.184275 0
M  V30 10059 H 935.07 -2.99976 -2.9596 0
M  V30 10060 H 933.745 -1.84145 -2.66219 0
M  V30 10061 H 932.652 -3.56985 -1.11861 0
M  V30 10062 H 933.985 -4.69089 -1.49052 0
M  V30 10063 N 935.637 0.236453 -1.55816 0
M  V30 10064 C 936.547 1.31418 -1.94336 0
M  V30 10065 C 937.563 1.52095 -0.845164 0
M  V30 10066 O 938.739 1.65515 -1.14746 0
M  V30 10067 C 935.804 2.6468 -2.23932 0
M  V30 10068 C 934.865 2.52435 -3.47239 0
M  V30 10069 C 934.098 3.79342 -3.75414 0
M  V30 10070 O 934.321 4.81694 -3.05495 0
M  V30 10071 O 933.255 3.77347 -4.68927 0
M  V30 10072 H 937.081 1.01739 -2.86152 0
M  V30 10073 H 934.666 0.438084 -1.42833 0
M  V30 10074 H 936.548 3.4341 -2.44228 0
M  V30 10075 H 935.223 2.94071 -1.35292 0
M  V30 10076 H 934.13 1.71955 -3.32238 0
M  V30 10077 H 935.463 2.27987 -4.36214 0
M  V30 10078 N 937.115 1.49373 0.502552 0
M  V30 10079 C 938.361 1.59016 1.25864 0
M  V30 10080 C 938.694 0.27532 1.92238 0
M  V30 10081 O 937.969 -0.720988 1.80643 0
M  V30 10082 C 938.252 2.74828 2.32683 0
M  V30 10083 C 938.105 4.16102 1.7082 0
M  V30 10084 C 939.424 2.86288 3.34256 0
M  V30 10085 H 936.543 0.578798 0.456248 0
M  V30 10086 H 939.185 1.81651 0.557032 0
M  V30 10087 H 937.335 2.5566 2.92524 0
M  V30 10088 H 939.007 4.46782 1.14818 0
M  V30 10089 H 937.25 4.21822 1.01238 0
M  V30 10090 H 937.921 4.93006 2.48292 0
M  V30 10091 H 940.397 3.03733 2.84404 0
M  V30 10092 H 939.273 3.69001 4.06362 0
M  V30 10093 H 939.534 1.95576 3.96488 0
M  V30 10094 N 938.594 -0.753485 1.38421 0
M  V30 10095 C 939.504 -1.89797 1.37892 0
M  V30 10096 C 940.52 -1.71797 0.276023 0
M  V30 10097 O 941.696 -1.94718 0.514464 0
M  V30 10098 C 938.761 -3.25166 1.20284 0
M  V30 10099 C 937.822 -3.55691 2.4038 0
M  V30 10100 C 937.055 -4.84601 2.23602 0
M  V30 10101 O 937.278 -5.56985 1.22979 0
M  V30 10102 O 936.212 -5.14605 3.12194 0
M  V30 10103 H 940.038 -1.93197 2.34326 0
M  V30 10104 H 937.623 -0.898775 1.19342 0
M  V30 10105 H 939.505 -4.06099 1.12525 0
M  V30 10106 H 938.18 -3.22577 0.269352 0
M  V30 10107 H 937.087 -2.74919 2.53714 0
M  V30 10108 H 938.42 -3.6304 3.32359 0
M  V30 10109 N 940.072 -1.23292 -0.981677 0
M  V30 10110 C 941.035 -1.01417 -2.05542 0
M  V30 10111 C 942.035 0.0235354 -1.60783 0
M  V30 10112 O 943.225 -0.216082 -1.72855 0
M  V30 10113 C 940.357 -0.534239 -3.36688 0
M  V30 10114 H 941.55 -1.96702 -2.26381 0
M  V30 10115 H 939.103 -1.05318 -1.1549 0
M  V30 10116 H 939.838 0.422452 -3.21537 0
M  V30 10117 H 939.623 -1.28304 -3.70514 0
M  V30 10118 H 941.113 -0.40179 -4.15663 0
M  V30 10119 N 941.55 1.18024 -1.04442 0
M  V30 10120 C 942.966 1.40107 -0.76435 0
M  V30 10121 C 943.166 1.90914 0.644516 0
M  V30 10122 O 942.222 2.0959 1.40813 0
M  V30 10123 C 943.535 2.39851 -1.81361 0
M  V30 10124 C 945.083 2.53571 -1.83496 0
M  V30 10125 C 945.558 3.56583 -2.87424 0
M  V30 10126 N 947.049 3.64094 -2.86339 0
M  V30 10127 C 947.784 4.43537 -3.63405 0
M  V30 10128 N 947.28 5.26557 -4.50233 0
M  V30 10129 N 949.073 4.38336 -3.51877 0
M  V30 10130 H 941.224 0.833726 -1.95353 0
M  V30 10131 H 943.487 0.42881 -0.845474 0
M  V30 10132 H 943.193 2.09576 -2.82438 0
M  V30 10133 H 943.067 3.39251 -1.6489 0
M  V30 10134 H 945.454 2.83161 -0.830883 0
M  V30 10135 H 945.535 1.54272 -2.04044 0
M  V30 10136 H 945.179 3.27733 -3.88012 0
M  V30 10137 H 945.109 4.55569 -2.6413 0
M  V30 10138 H 947.6 3.04814 -2.23376 0
M  V30 10139 H 947.913 5.84336 -5.05738 0
M  V30 10140 H 946.258 5.25964 -4.54298 0
M  V30 10141 H 949.449 3.72528 -2.83444 0
M  V30 10142 H 949.622 5.00007 -4.12186 0
M  V30 10143 N 943.028 0.824394 1.34319 0
M  V30 10144 C 944.444 0.510336 1.51221 0
M  V30 10145 C 944.644 -0.965201 1.76879 0
M  V30 10146 O 943.7 -1.74961 1.82057 0
M  V30 10147 C 945.013 1.37114 2.6762 0
M  V30 10148 C 946.561 1.36842 2.81502 0
M  V30 10149 C 947.036 2.21374 4.00946 0
M  V30 10150 N 948.527 2.19005 4.08156 0
M  V30 10151 C 949.262 2.81159 4.99737 0
M  V30 10152 N 948.758 3.52309 5.96532 0
M  V30 10153 N 950.551 2.70706 4.9262 0
M  V30 10154 H 942.702 1.77976 1.15924 0
M  V30 10155 H 944.965 0.758503 0.568663 0
M  V30 10156 H 944.671 2.41905 2.55294 0
M  V30 10157 H 944.545 1.03689 3.62669 0
M  V30 10158 H 946.932 0.328284 2.93268 0
M  V30 10159 H 947.013 1.74265 1.87257 0
M  V30 10160 H 946.657 3.25437 3.8994 0
M  V30 10161 H 946.587 1.813 4.94407 0
M  V30 10162 H 949.078 1.67252 3.38874 0
M  V30 10163 H 949.391 3.96977 6.63045 0
M  V30 10164 H 947.736 3.56415 5.96652 0
M  V30 10165 H 950.927 2.14694 4.15962 0
M  V30 10166 H 951.1 3.19431 5.63798 0
M  V30 10167 N 944.506 -1.46559 0.579492 0
M  V30 10168 C 945.453 -2.30275 -0.155598 0
M  V30 10169 C 946.423 -1.40422 -0.887175 0
M  V30 10170 O 947.608 -1.69373 -0.878481 0
M  V30 10171 C 944.748 -3.24827 -1.16539 0
M  V30 10172 C 943.861 -4.29778 -0.43759 0
M  V30 10173 C 942.996 -5.11461 -1.43462 0
M  V30 10174 C 942.035 -6.08164 -0.693048 0
M  V30 10175 N 941.172 -6.82726 -1.63799 0
M  V30 10176 H 946.012 -2.92607 0.564356 0
M  V30 10177 H 943.549 -1.44211 0.290126 0
M  V30 10178 H 945.507 -3.78088 -1.76368 0
M  V30 10179 H 944.137 -2.64311 -1.8531 0
M  V30 10180 H 943.189 -3.794 0.27567 0
M  V30 10181 H 944.501 -4.98597 0.142298 0
M  V30 10182 H 943.655 -5.68982 -2.1058 0
M  V30 10183 H 942.394 -4.42595 -2.04844 0
M  V30 10184 H 941.399 -5.49799 -0.00807093 0
M  V30 10185 H 942.624 -6.79047 -0.0846678 0
M  V30 10186 H 940.57 -6.16572 -2.23997 0
M  V30 10187 H 940.487 -7.47795 -1.11082 0
M  V30 10188 H 941.755 -7.44807 -2.29962 0
M  V30 10189 N 945.984 -0.3171 -1.54377 0
M  V30 10190 C 946.916 0.58571 -2.2159 0
M  V30 10191 C 947.929 1.08495 -1.21378 0
M  V30 10192 O 949.118 0.999638 -1.47883 0
M  V30 10193 C 946.218 1.8157 -2.86156 0
M  V30 10194 C 945.391 1.45625 -4.12447 0
M  V30 10195 C 944.45 2.54308 -4.60667 0
M  V30 10196 O 943.476 2.18724 -5.25498 0
M  V30 10197 N 944.678 3.85129 -4.34345 0
M  V30 10198 H 947.443 0.0102247 -2.99698 0
M  V30 10199 H 945.004 -0.140011 -1.61293 0
M  V30 10200 H 946.996 2.53657 -3.15341 0
M  V30 10201 H 945.566 2.29919 -2.11793 0
M  V30 10202 H 944.786 0.567294 -3.90097 0
M  V30 10203 H 946.074 1.19169 -4.94648 0
M  V30 10204 H 945.472 4.16841 -3.8244 0
M  V30 10205 H 944.029 4.53466 -4.68201 0
M  V30 10206 N 947.462 1.57535 -0.0451378 0
M  V30 10207 C 948.372 2.14653 0.946646 0
M  V30 10208 C 949.388 1.10279 1.3459 0
M  V30 10209 O 950.564 1.42417 1.42405 0
M  V30 10210 C 947.629 2.67533 2.20515 0
M  V30 10211 C 946.69 3.86682 1.86481 0
M  V30 10212 C 945.923 4.37031 3.06332 0
M  V30 10213 O 946.146 3.86481 4.1951 0
M  V30 10214 O 945.08 5.28691 2.87697 0
M  V30 10215 H 948.906 2.99706 0.49091 0
M  V30 10216 H 946.491 1.48355 0.17641 0
M  V30 10217 H 948.373 3.01542 2.94365 0
M  V30 10218 H 947.048 1.85554 2.65238 0
M  V30 10219 H 945.955 3.57573 1.09966 0
M  V30 10220 H 947.288 4.69873 1.46562 0
M  V30 10221 N 948.94 -0.228186 1.55939 0
M  V30 10222 C 949.85 -1.30386 1.9503 0
M  V30 10223 C 950.866 -1.51645 0.853218 0
M  V30 10224 O 952.042 -1.64904 1.15623 0
M  V30 10225 C 949.107 -2.63489 2.25332 0
M  V30 10226 C 948.168 -2.5059 3.48573 0
M  V30 10227 C 947.401 -3.77345 3.7742 0
M  V30 10228 O 947.624 -4.80067 3.08045 0
M  V30 10229 O 946.558 -3.74855 4.70922 0
M  V30 10230 H 950.384 -1.0022 2.86687 0
M  V30 10231 H 947.969 -0.430503 1.43063 0
M  V30 10232 H 949.851 -3.4211 2.46046 0
M  V30 10233 H 948.526 -2.93349 1.3685 0
M  V30 10234 H 947.433 -1.70191 3.33145 0
M  V30 10235 H 948.766 -2.2567 4.37417 0
M  V30 10236 N 950.418 -1.49637 -0.494624 0
M  V30 10237 C 951.328 -1.69522 -1.62172 0
M  V30 10238 C 952.344 -0.577894 -1.64123 0
M  V30 10239 O 953.52 -0.853382 -1.82426 0
M  V30 10240 C 950.585 -1.7633 -2.9851 0
M  V30 10241 C 949.646 -2.99944 -3.07135 0
M  V30 10242 C 948.879 -3.06419 -4.36971 0
M  V30 10243 O 949.102 -2.20312 -5.26136 0
M  V30 10244 O 948.036 -3.9894 -4.507 0
M  V30 10245 H 951.862 -2.65017 -1.48324 0
M  V30 10246 H 949.447 -1.33454 -0.671603 0
M  V30 10247 H 951.329 -1.83125 -3.7953 0
M  V30 10248 H 950.004 -0.840155 -3.12607 0
M  V30 10249 H 948.911 -2.98664 -2.2528 0
M  V30 10250 H 950.244 -3.9176 -2.97968 0
M  V30 10251 N 951.896 0.746133 -1.38819 0
M  V30 10252 C 952.859 1.84167 -1.36437 0
M  V30 10253 C 953.859 1.58626 -0.263499 0
M  V30 10254 O 955.049 1.66233 -0.520801 0
M  V30 10255 C 952.181 3.21769 -1.12596 0
M  V30 10256 H 953.374 1.87684 -2.33912 0
M  V30 10257 H 950.927 0.948625 -1.24221 0
M  V30 10258 H 951.662 3.23917 -0.15758 0
M  V30 10259 H 951.447 3.41702 -1.92307 0
M  V30 10260 H 952.937 4.0184 -1.13643 0
M  V30 10261 N 953.375 1.23811 0.975125 0
M  V30 10262 C 954.791 1.0019 1.24234 0
M  V30 10263 C 954.991 -0.293811 1.99346 0
M  V30 10264 O 954.047 -1.01189 2.31337 0
M  V30 10265 C 955.36 2.21218 2.03674 0
M  V30 10266 C 956.908 2.25764 2.16793 0
M  V30 10267 C 957.383 3.46394 2.99626 0
M  V30 10268 N 958.874 3.46665 3.07209 0
M  V30 10269 C 959.609 4.3666 3.71639 0
M  V30 10270 N 959.105 5.36899 4.37849 0
M  V30 10271 N 960.898 4.2439 3.68578 0
M  V30 10272 H 953.049 2.07087 0.472076 0
M  V30 10273 H 955.312 0.90838 0.271201 0
M  V30 10274 H 955.018 3.15277 1.55862 0
M  V30 10275 H 954.892 2.22733 3.04417 0
M  V30 10276 H 957.279 1.32242 2.63811 0
M  V30 10277 H 957.36 2.28279 1.15422 0
M  V30 10278 H 957.004 4.40227 2.53304 0
M  V30 10279 H 956.934 3.41121 4.01178 0
M  V30 10280 H 959.425 2.74142 2.60105 0
M  V30 10281 H 959.738 6.01816 4.84807 0
M  V30 10282 H 958.083 5.40793 4.36541 0
M  V30 10283 H 961.274 3.4532 3.16025 0
M  V30 10284 H 961.447 4.94727 4.18508 0
M  V30 10285 N 954.853 -1.17469 1.05066 0
M  V30 10286 C 956.269 -1.39699 0.771769 0
M  V30 10287 C 956.469 -1.91253 -0.634382 0
M  V30 10288 O 955.525 -2.10334 -1.39699 0
M  V30 10289 C 956.838 -2.38886 1.82631 0
M  V30 10290 C 958.386 -2.52595 1.84838 0
M  V30 10291 C 958.861 -3.55054 2.89311 0
M  V30 10292 N 960.352 -3.6257 2.88266 0
M  V30 10293 C 961.087 -4.41603 3.65752 0
M  V30 10294 N 960.583 -5.24162 4.53019 0
M  V30 10295 N 962.376 -4.36464 3.54197 0
M  V30 10296 H 954.527 -0.823355 1.95792 0
M  V30 10297 H 956.79 -0.42432 0.847736 0
M  V30 10298 H 956.496 -2.08075 2.83545 0
M  V30 10299 H 956.37 -3.38371 1.66687 0
M  V30 10300 H 958.757 -2.82717 0.845888 0
M  V30 10301 H 958.838 -1.53188 2.04859 0
M  V30 10302 H 958.482 -3.2567 3.89745 0
M  V30 10303 H 958.412 -4.54162 2.66542 0
M  V30 10304 H 960.903 -3.03625 2.24989 0
M  V30 10305 H 961.216 -5.81646 5.0883 0
M  V30 10306 H 959.561 -5.23547 4.57081 0
M  V30 10307 H 962.752 -3.7102 2.85416 0
M  V30 10308 H 962.925 -4.97814 4.14832 0
M  V30 10309 N 956.331 -0.831506 -1.3388 0
M  V30 10310 C 957.261 -0.274378 -2.31882 0
M  V30 10311 C 958.242 0.613872 -1.58637 0
M  V30 10312 O 959.427 0.538961 -1.86571 0
M  V30 10313 C 956.557 0.557498 -3.42796 0
M  V30 10314 C 955.511 -0.234337 -4.27358 0
M  V30 10315 C 954.837 0.720825 -5.29819 0
M  V30 10316 C 956.137 -1.44732 -5.01847 0
M  V30 10317 H 957.831 -1.09322 -2.78728 0
M  V30 10318 H 955.377 -0.527136 -1.34005 0
M  V30 10319 H 957.33 0.957501 -4.10378 0
M  V30 10320 H 956.054 1.40947 -2.94621 0
M  V30 10321 H 954.713 -0.61581 -3.61391 0
M  V30 10322 H 954.361 1.569 -4.77903 0
M  V30 10323 H 954.061 0.195171 -5.87276 0
M  V30 10324 H 955.585 1.1185 -6.00268 0
M  V30 10325 H 956.999 -1.12087 -5.62236 0
M  V30 10326 H 955.396 -1.90923 -5.68919 0
M  V30 10327 H 956.466 -2.22099 -4.31045 0
M  V30 10328 N 957.809 1.4625 -0.587256 0
M  V30 10329 C 959.225 1.57641 -0.249284 0
M  V30 10330 C 959.425 1.58169 1.24839 0
M  V30 10331 O 958.481 1.50109 2.03036 0
M  V30 10332 C 959.794 2.86837 -0.902509 0
M  V30 10333 C 961.342 3.00476 -0.876524 0
M  V30 10334 C 961.817 4.32414 -1.50938 0
M  V30 10335 N 963.308 4.39124 -1.47392 0
M  V30 10336 C 964.043 5.39838 -1.93293 0
M  V30 10337 N 963.539 6.47202 -2.47188 0
M  V30 10338 N 965.332 5.31068 -1.84183 0
M  V30 10339 H 957.483 1.44151 -1.55994 0
M  V30 10340 H 959.746 0.687905 -0.652297 0
M  V30 10341 H 959.452 2.92274 -1.95624 0
M  V30 10342 H 959.326 3.74927 -0.413466 0
M  V30 10343 H 961.713 2.94618 0.168601 0
M  V30 10344 H 961.794 2.1385 -1.40363 0
M  V30 10345 H 961.438 4.3903 -2.55372 0
M  V30 10346 H 961.368 5.17823 -0.957455 0
M  V30 10347 H 963.859 3.62138 -1.08002 0
M  V30 10348 H 964.172 7.20269 -2.80058 0
M  V30 10349 H 962.517 6.48009 -2.51216 0
M  V30 10350 H 965.708 4.46095 -1.41833 0
M  V30 10351 H 965.881 6.09414 -2.2027 0
M  V30 10352 N 959.287 0.325282 1.54207 0
M  V30 10353 C 960.533 -0.269944 2.01601 0
M  V30 10354 C 960.888 -1.49643 1.20933 0
M  V30 10355 O 960.181 -1.89486 0.283838 0
M  V30 10356 C 960.375 -0.654292 3.5136 0
M  V30 10357 C 960.204 0.533397 4.46525 0
M  V30 10358 C 958.974 1.03304 4.94628 0
M  V30 10359 C 961.172 1.38613 4.95269 0
M  V30 10360 N 959.154 2.18495 5.73701 0
M  V30 10361 C 960.525 2.38519 5.72284 0
M  V30 10362 C 962.58 1.41369 4.77409 0
M  V30 10363 C 961.283 3.40988 6.3334 0
M  V30 10364 C 963.309 2.4271 5.39301 0
M  V30 10365 C 962.671 3.41343 6.16169 0
M  V30 10366 H 958.77 -0.0625778 0.779492 0
M  V30 10367 H 961.354 0.460711 1.89171 0
M  V30 10368 H 959.525 -1.35408 3.64032 0
M  V30 10369 H 961.257 -1.23114 3.85519 0
M  V30 10370 H 958.012 0.604045 4.69732 0
M  V30 10371 H 958.436 2.76605 6.17915 0
M  V30 10372 H 963.078 0.664796 4.17541 0
M  V30 10373 H 960.796 4.16784 6.92327 0
M  V30 10374 H 964.382 2.45647 5.27398 0
M  V30 10375 H 963.262 4.18476 6.6321 0
M  V30 10376 N 960.765 -1.57509 0.0534917 0
M  V30 10377 C 961.695 -2.14698 -0.917999 0
M  V30 10378 C 962.676 -1.06924 -1.32292 0
M  V30 10379 O 963.861 -1.34875 -1.39723 0
M  V30 10380 C 960.991 -2.69383 -2.19203 0
M  V30 10381 C 959.945 -3.82161 -1.9271 0
M  V30 10382 C 959.271 -4.23373 -3.26587 0
M  V30 10383 C 960.571 -5.07199 -1.24686 0
M  V30 10384 H 962.265 -2.96125 -0.44165 0
M  V30 10385 H 959.811 -1.42446 -0.210993 0
M  V30 10386 H 961.764 -3.08031 -2.87567 0
M  V30 10387 H 960.488 -1.85151 -2.69048 0
M  V30 10388 H 959.147 -3.43989 -1.26757 0
M  V30 10389 H 958.795 -3.36089 -3.74237 0
M  V30 10390 H 958.495 -4.99385 -3.09658 0
M  V30 10391 H 960.019 -4.64623 -3.96178 0
M  V30 10392 H 961.433 -5.43279 -1.83088 0
M  V30 10393 H 959.83 -5.88369 -1.18076 0
M  V30 10394 H 960.9 -4.84386 -0.223227 0
M  V30 10395 N 962.243 0.219913 -1.56058 0
M  V30 10396 C 963.175 1.29604 -1.89038 0
M  V30 10397 C 964.188 1.42964 -0.778791 0
M  V30 10398 O 965.377 1.43832 -1.0571 0
M  V30 10399 C 962.477 2.67145 -2.08534 0
M  V30 10400 C 961.65 2.75712 -3.39561 0
M  V30 10401 C 960.709 3.94279 -3.48469 0
M  V30 10402 O 959.735 3.8254 -4.21487 0
M  V30 10403 N 960.937 5.08655 -2.79732 0
M  V30 10404 H 963.702 1.01638 -2.81939 0
M  V30 10405 H 961.263 0.409945 -1.56624 0
M  V30 10406 H 963.255 3.44847 -2.11808 0
M  V30 10407 H 961.825 2.87704 -1.2225 0
M  V30 10408 H 961.045 1.84475 -3.48371 0
M  V30 10409 H 962.333 2.78407 -4.25872 0
M  V30 10410 H 961.731 5.21088 -2.2019 0
M  V30 10411 H 960.288 5.84394 -2.88665 0
M  V30 10412 N 963.721 1.49897 0.486681 0
M  V30 10413 C 964.653 1.63755 1.60365 0
M  V30 10414 C 965.666 0.519614 1.54285 0
M  V30 10415 O 966.855 0.792219 1.59957 0
M  V30 10416 C 963.955 1.59153 2.99205 0
M  V30 10417 C 963.128 2.8672 3.30319 0
M  V30 10418 C 962.187 2.74974 4.48638 0
M  V30 10419 O 961.213 3.48922 4.49714 0
M  V30 10420 N 962.415 1.87479 5.49392 0
M  V30 10421 H 965.18 2.60094 1.48899 0
M  V30 10422 H 962.741 1.47166 0.674825 0
M  V30 10423 H 964.733 1.4893 3.76301 0
M  V30 10424 H 963.303 0.706133 3.0452 0
M  V30 10425 H 962.523 3.11188 2.41983 0
M  V30 10426 H 963.811 3.71262 3.47911 0
M  V30 10427 H 963.209 1.26684 5.51333 0
M  V30 10428 H 961.766 1.83169 6.25534 0
M  V30 10429 N 965.199 -0.738761 1.39212 0
M  V30 10430 C 966.109 -1.88324 1.39897 0
M  V30 10431 C 967.125 -1.71494 0.294229 0
M  V30 10432 O 968.301 -1.94162 0.535087 0
M  V30 10433 C 965.366 -3.23871 1.23726 0
M  V30 10434 C 964.427 -3.53121 2.44139 0
M  V30 10435 C 963.66 -4.82202 2.2873 0
M  V30 10436 O 963.883 -5.55649 1.28879 0
M  V30 10437 O 962.817 -5.11265 3.17634 0
M  V30 10438 H 966.643 -1.90701 2.36362 0
M  V30 10439 H 964.228 -0.886067 1.20288 0
M  V30 10440 H 966.11 -4.04882 1.16826 0
M  V30 10441 H 964.785 -3.22274 0.303551 0
M  V30 10442 H 963.692 -2.72212 2.56615 0
M  V30 10443 H 965.025 -3.59495 3.36191 0
M  V30 10444 N 966.677 -1.24326 -0.968545 0
M  V30 10445 C 967.587 -1.05194 -2.09694 0
M  V30 10446 C 968.603 0.00701291 -1.73999 0
M  V30 10447 O 969.779 -0.190981 -2.00492 0
M  V30 10448 C 966.844 -0.658075 -3.40397 0
M  V30 10449 C 965.905 -1.79341 -3.90045 0
M  V30 10450 C 965.138 -1.41824 -5.14511 0
M  V30 10451 O 965.361 -0.307693 -5.69569 0
M  V30 10452 O 964.295 -2.24358 -5.58522 0
M  V30 10453 H 968.121 -1.99791 -2.2873 0
M  V30 10454 H 965.706 -1.03138 -1.08088 0
M  V30 10455 H 967.588 -0.449911 -4.18991 0
M  V30 10456 H 966.263 0.258782 -3.22664 0
M  V30 10457 H 965.17 -2.05632 -3.12516 0
M  V30 10458 H 966.503 -2.68901 -4.12254 0
M  V30 10459 N 968.156 1.1691 -1.05688 0
M  V30 10460 C 969.066 2.24735 -0.67315 0
M  V30 10461 C 970.082 1.71252 0.308043 0
M  V30 10462 O 971.258 2.00772 0.158889 0
M  V30 10463 C 968.323 3.4665 -0.059026 0
M  V30 10464 C 967.384 4.15198 -1.0913 0
M  V30 10465 C 966.617 5.31292 -0.50639 0
M  V30 10466 O 966.84 5.663 0.682692 0
M  V30 10467 O 965.774 5.88923 -1.2431 0
M  V30 10468 H 969.6 2.59855 -1.57191 0
M  V30 10469 H 967.185 1.24306 -0.828751 0
M  V30 10470 H 969.067 4.20455 0.282018 0
M  V30 10471 H 967.742 3.13316 0.813304 0
M  V30 10472 H 966.649 3.43389 -1.48442 0
M  V30 10473 H 967.982 4.52571 -1.93495 0
M  V30 10474 N 969.634 0.838594 1.33437 0
M  V30 10475 C 970.544 0.274048 2.32994 0
M  V30 10476 C 971.56 -0.599776 1.63336 0
M  V30 10477 O 972.736 -0.503963 1.94993 0
M  V30 10478 C 969.801 -0.541804 3.4244 0
M  V30 10479 C 968.862 0.356262 4.27819 0
M  V30 10480 C 968.095 -0.420747 5.32039 0
M  V30 10481 O 968.318 -1.65247 5.45939 0
M  V30 10482 O 967.252 0.205101 6.0155 0
M  V30 10483 H 971.078 1.09846 2.83139 0
M  V30 10484 H 968.663 0.601111 1.36774 0
M  V30 10485 H 970.545 -1.00544 4.0923 0
M  V30 10486 H 969.22 -1.34328 2.94513 0
M  V30 10487 H 968.127 0.867726 3.63897 0
M  V30 10488 H 969.46 1.1225 4.79229 0
M  V30 10489 N 971.112 -1.45937 0.595003 0
M  V30 10490 C 972.528 -1.57507 0.257641 0
M  V30 10491 C 972.728 -1.58829 -1.23998 0
M  V30 10492 O 971.784 -1.51183 -2.02237 0
M  V30 10493 C 973.097 -2.86354 0.917708 0
M  V30 10494 C 974.645 -3.00007 0.892446 0
M  V30 10495 C 975.12 -4.31607 1.53229 0
M  V30 10496 N 976.611 -4.38336 1.49719 0
M  V30 10497 C 977.346 -5.38805 1.96154 0
M  V30 10498 N 976.842 -6.45882 2.50617 0
M  V30 10499 N 978.635 -5.30084 1.86997 0
M  V30 10500 H 970.786 -1.43322 1.56756 0
M  V30 10501 H 973.049 -0.684436 0.655936 0
M  V30 10502 H 972.755 -2.91233 1.97171 0
M  V30 10503 H 972.629 -3.74703 0.433344 0
M  V30 10504 H 975.016 -2.94703 -0.152975 0
M  V30 10505 H 975.097 -2.13103 1.41495 0
M  V30 10506 H 974.741 -4.3767 2.57697 0
M  V30 10507 H 974.671 -5.17308 0.984903 0
M  V30 10508 H 977.162 -3.6156 1.09921 0
M  V30 10509 H 977.475 -7.18774 2.83874 0
M  V30 10510 H 975.82 -6.46668 2.54649 0
M  V30 10511 H 979.011 -4.45337 1.44196 0
M  V30 10512 H 979.184 -6.08237 2.23499 0
M  V30 10513 N 972.59 -0.333456 -1.54032 0
M  V30 10514 C 974.006 0.0188405 -1.59589 0
M  V30 10515 C 974.206 1.49615 -1.34972 0
M  V30 10516 O 973.262 2.2535 -1.13901 0
M  V30 10517 C 974.575 -0.408273 -2.97915 0
M  V30 10518 C 976.123 -0.359763 -3.10926 0
M  V30 10519 C 976.598 -0.76219 -4.51613 0
M  V30 10520 N 978.089 -0.715981 -4.57633 0
M  V30 10521 C 978.824 -0.999436 -5.64623 0
M  V30 10522 N 978.32 -1.35053 -6.79509 0
M  V30 10523 N 980.113 -0.924343 -5.54448 0
M  V30 10524 H 972.264 -1.29587 -1.68289 0
M  V30 10525 H 974.527 -0.527584 -0.787629 0
M  V30 10526 H 974.233 -1.43793 -3.20962 0
M  V30 10527 H 974.107 0.221685 -3.76548 0
M  V30 10528 H 976.494 0.660703 -2.87609 0
M  V30 10529 H 976.575 -1.02479 -2.34375 0
M  V30 10530 H 976.219 -1.78062 -4.75664 0
M  V30 10531 H 976.149 -0.0747478 -5.26547 0
M  V30 10532 H 978.64 -0.456875 -3.75128 0
M  V30 10533 H 978.953 -1.55194 -7.57057 0
M  V30 10534 H 977.298 -1.38889 -6.80981 0
M  V30 10535 H 980.489 -0.649469 -4.63573 0
M  V30 10536 H 980.662 -1.1486 -6.37739 0
M  V30 10537 N 974.068 1.57479 -0.061844 0
M  V30 10538 C 975.018 2.0867 0.918749 0
M  V30 10539 C 976.002 0.994174 1.26511 0
M  V30 10540 O 977.194 1.25738 1.24575 0
M  V30 10541 C 974.323 2.64386 2.18986 0
M  V30 10542 C 973.409 3.80626 1.87042 0
M  V30 10543 N 973.8 4.89982 1.25504 0
M  V30 10544 C 972.098 3.89733 2.1685 0
M  V30 10545 C 972.799 5.70928 1.11429 0
M  V30 10546 N 971.775 5.18877 1.62072 0
M  V30 10547 H 975.577 2.90611 0.438469 0
M  V30 10548 H 973.091 1.61775 0.142321 0
M  V30 10549 H 975.088 2.9937 2.90144 0
M  V30 10550 H 973.748 1.83888 2.67611 0
M  V30 10551 H 974.759 5.09556 0.925914 0
M  V30 10552 H 971.436 3.20194 2.67921 0
M  V30 10553 H 972.826 6.68886 0.635665 0
M  V30 10554 N 975.546 -0.211634 1.56173 0
M  V30 10555 C 976.478 -1.286 1.89723 0
M  V30 10556 C 977.491 -1.42549 0.786361 0
M  V30 10557 O 978.68 -1.4327 1.06471 0
M  V30 10558 C 975.78 -2.66036 2.09948 0
M  V30 10559 C 974.953 -2.73908 3.41018 0
M  V30 10560 C 974.012 -3.92425 3.50555 0
M  V30 10561 O 973.038 -3.803 4.2351 0
M  V30 10562 N 974.24 -5.07165 2.82426 0
M  V30 10563 H 977.005 -1.00142 2.82474 0
M  V30 10564 H 974.566 -0.401633 1.56839 0
M  V30 10565 H 976.558 -3.43719 2.13634 0
M  V30 10566 H 975.128 -2.87052 1.23774 0
M  V30 10567 H 974.348 -1.82625 3.49345 0
M  V30 10568 H 975.636 -2.76145 4.27342 0
M  V30 10569 H 975.034 -5.19913 2.2295 0
M  V30 10570 H 973.591 -5.82855 2.9176 0
M  V30 10571 N 977.024 -1.50153 -0.478725 0
M  V30 10572 C 977.934 -1.71232 -1.60364 0
M  V30 10573 C 978.95 -0.595269 -1.63501 0
M  V30 10574 O 980.126 -0.872683 -1.81511 0
M  V30 10575 C 977.191 -1.79487 -2.96623 0
M  V30 10576 C 976.252 -3.03185 -3.03937 0
M  V30 10577 C 975.485 -3.11036 -4.33696 0
M  V30 10578 O 975.708 -2.2588 -5.23769 0
M  V30 10579 O 974.642 -4.03698 -4.46443 0
M  V30 10580 H 978.468 -2.66575 -1.45505 0
M  V30 10581 H 976.053 -1.34158 -0.65741 0
M  V30 10582 H 977.935 -1.8714 -3.77567 0
M  V30 10583 H 976.61 -0.873264 -3.11698 0
M  V30 10584 H 975.517 -3.01036 -2.22099 0
M  V30 10585 H 976.85 -3.94898 -2.93796 0
M  V30 10586 N 978.502 0.731368 -1.39602 0
M  V30 10587 C 979.432 1.85855 -1.41351 0
M  V30 10588 C 980.413 1.67839 -0.2764 0
M  V30 10589 O 981.598 1.88104 -0.482747 0
M  V30 10590 C 978.728 3.23644 -1.25983 0
M  V30 10591 C 977.682 3.56304 -2.37132 0
M  V30 10592 C 977.008 4.93069 -2.0685 0
M  V30 10593 C 978.308 3.58906 -3.79452 0
M  V30 10594 H 980.002 1.84648 -2.3568 0
M  V30 10595 H 977.548 0.886955 -1.13442 0
M  V30 10596 H 979.501 4.02176 -1.25826 0
M  V30 10597 H 978.225 3.25387 -0.281234 0
M  V30 10598 H 976.884 2.80104 -2.36511 0
M  V30 10599 H 976.532 4.91396 -1.0742 0
M  V30 10600 H 976.232 5.15888 -2.81306 0
M  V30 10601 H 977.756 5.73953 -2.0835 0
M  V30 10602 H 979.17 4.27508 -3.81982 0
M  V30 10603 H 977.567 3.93246 -4.53297 0
M  V30 10604 H 978.637 2.58631 -4.10168 0
M  V30 10605 N 979.98 1.24838 0.961938 0
M  V30 10606 C 980.91 1.07053 2.07514 0
M  V30 10607 C 981.891 -0.0182465 1.7009 0
M  V30 10608 O 983.076 0.149915 1.9362 0
M  V30 10609 C 980.206 0.680693 3.40564 0
M  V30 10610 C 979.16 1.71889 3.91967 0
M  V30 10611 C 978.486 1.18395 5.21428 0
M  V30 10612 C 979.786 3.1161 4.19161 0
M  V30 10613 H 981.48 2.00167 2.22651 0
M  V30 10614 H 979.026 0.963799 1.0699 0
M  V30 10615 H 980.979 0.54324 4.17884 0
M  V30 10616 H 979.703 -0.28615 3.25344 0
M  V30 10617 H 978.362 1.84465 3.16809 0
M  V30 10618 H 978.01 0.207543 5.02572 0
M  V30 10619 H 977.71 1.87778 5.56788 0
M  V30 10620 H 979.234 1.05873 6.01351 0
M  V30 10621 H 980.648 3.0223 4.87165 0
M  V30 10622 H 979.045 3.78398 4.65763 0
M  V30 10623 H 980.115 3.59218 3.25715 0
M  V30 10624 N 981.458 -1.16348 1.06306 0
M  V30 10625 C 982.39 -2.20316 0.631929 0
M  V30 10626 C 983.403 -1.59819 -0.310133 0
M  V30 10627 O 984.592 -1.78213 -0.101103 0
M  V30 10628 C 981.692 -3.3877 -0.0937645 0
M  V30 10629 C 980.865 -4.28826 0.861816 0
M  V30 10630 C 979.924 -5.25908 0.175346 0
M  V30 10631 O 978.95 -5.63363 0.813039 0
M  V30 10632 N 980.152 -5.70307 -1.08305 0
M  V30 10633 H 982.917 -2.57925 1.52626 0
M  V30 10634 H 980.478 -1.31358 0.946392 0
M  V30 10635 H 982.47 -4.00759 -0.563412 0
M  V30 10636 H 981.04 -2.99666 -0.889904 0
M  V30 10637 H 980.26 -3.64098 1.51083 0
M  V30 10638 H 981.548 -4.85875 1.51007 0
M  V30 10639 H 980.946 -5.4197 -1.62127 0
M  V30 10640 H 979.503 -6.34387 -1.49656 0
M  V30 10641 N 982.937 -0.845659 -1.3299 0
M  V30 10642 C 983.884 -0.281761 -2.29074 0
M  V30 10643 C 984.854 0.606237 -1.54641 0
M  V30 10644 O 986.039 0.543063 -1.82908 0
M  V30 10645 C 983.179 0.531451 -3.40983 0
M  V30 10646 C 982.292 -0.381328 -4.30314 0
M  V30 10647 C 981.427 0.443643 -5.29344 0
M  V30 10648 C 980.466 -0.467101 -6.10315 0
M  V30 10649 N 979.603 0.320148 -7.0137 0
M  V30 10650 H 984.443 -1.10641 -2.76699 0
M  V30 10651 H 981.98 -0.55706 -1.36144 0
M  V30 10652 H 983.938 1.01848 -4.04577 0
M  V30 10653 H 982.568 1.32101 -2.94532 0
M  V30 10654 H 981.62 -0.986701 -3.6738 0
M  V30 10655 H 982.932 -1.08067 -4.86953 0
M  V30 10656 H 982.086 0.994212 -5.98498 0
M  V30 10657 H 980.825 1.17639 -4.73299 0
M  V30 10658 H 979.83 -1.02963 -5.40073 0
M  V30 10659 H 981.055 -1.19832 -6.68444 0
M  V30 10660 H 979.001 1.03615 -6.47765 0
M  V30 10661 H 978.918 -0.320338 -7.55321 0
M  V30 10662 H 980.186 0.852735 -7.74822 0
M  V30 10663 N 984.415 1.45619 -0.602734 0
M  V30 10664 C 985.362 2.30493 0.118944 0
M  V30 10665 C 986.332 1.41816 0.864723 0
M  V30 10666 O 987.517 1.7075 0.851424 0
M  V30 10667 C 984.657 3.2664 1.11356 0
M  V30 10668 C 983.77 4.3042 0.369161 0
M  V30 10669 C 982.905 5.13678 1.35307 0
M  V30 10670 C 981.944 6.09189 0.596207 0
M  V30 10671 N 981.081 6.85245 1.52916 0
M  V30 10672 H 985.921 2.91672 -0.610836 0
M  V30 10673 H 983.458 1.43731 -0.313032 0
M  V30 10674 H 985.416 3.80846 1.7033 0
M  V30 10675 H 984.046 2.67225 1.81081 0
M  V30 10676 H 983.098 3.78913 -0.335994 0
M  V30 10677 H 984.41 4.98307 -0.221603 0
M  V30 10678 H 983.564 5.7226 2.01502 0
M  V30 10679 H 982.303 4.45798 1.97777 0
M  V30 10680 H 981.308 5.49743 -0.0793984 0
M  V30 10681 H 982.533 6.79096 -0.0233734 0
M  V30 10682 H 980.479 6.20058 2.14159 0
M  V30 10683 H 980.396 7.49467 0.991713 0
M  V30 10684 H 981.664 7.48371 2.18083 0
M  V30 10685 N 985.893 0.34162 1.53853 0
M  V30 10686 C 986.84 -0.516058 2.24957 0
M  V30 10687 C 987.81 -1.09711 1.2471 0
M  V30 10688 O 988.995 -1.13409 1.53438 0
M  V30 10689 C 986.135 -1.66207 3.02439 0
M  V30 10690 C 985.248 -1.10851 4.17536 0
M  V30 10691 C 984.383 -2.22167 4.82509 0
M  V30 10692 C 983.422 -1.64152 5.89678 0
M  V30 10693 N 982.559 -2.69203 6.4844 0
M  V30 10694 H 987.399 0.0968275 2.97843 0
M  V30 10695 H 984.936 0.0595565 1.46979 0
M  V30 10696 H 986.894 -2.33672 3.4562 0
M  V30 10697 H 985.524 -2.24597 2.31853 0
M  V30 10698 H 984.576 -0.324853 3.7901 0
M  V30 10699 H 985.888 -0.644151 4.94623 0
M  V30 10700 H 985.042 -2.97501 5.28751 0
M  V30 10701 H 983.781 -2.71946 4.04842 0
M  V30 10702 H 982.786 -0.873228 5.42821 0
M  V30 10703 H 984.011 -1.15228 6.69253 0
M  V30 10704 H 981.957 -3.1824 5.73637 0
M  V30 10705 H 981.874 -2.27383 7.20994 0
M  V30 10706 H 983.142 -3.44312 6.99335 0
M  V30 10707 N 987.371 -1.57444 0.0701946 0
M  V30 10708 C 988.281 -2.16132 -0.912377 0
M  V30 10709 C 989.297 -1.12406 -1.32819 0
M  V30 10710 O 990.473 -1.44665 -1.40121 0
M  V30 10711 C 987.538 -2.71008 -2.16231 0
M  V30 10712 C 986.599 -3.896 -1.80306 0
M  V30 10713 C 985.832 -4.4185 -2.9934 0
M  V30 10714 O 986.055 -3.93106 -4.13309 0
M  V30 10715 O 984.989 -5.33201 -2.7925 0
M  V30 10716 H 988.815 -3.00449 -0.443167 0
M  V30 10717 H 986.4 -1.48617 -0.152786 0
M  V30 10718 H 988.282 -3.06186 -2.8953 0
M  V30 10719 H 986.957 -1.8975 -2.62253 0
M  V30 10720 H 985.864 -3.59277 -1.04264 0
M  V30 10721 H 987.197 -4.72145 -1.39068 0
M  V30 10722 N 988.849 0.203349 -1.56283 0
M  V30 10723 C 989.759 1.27266 -1.9708 0
M  V30 10724 C 990.775 1.50268 -0.877236 0
M  V30 10725 O 991.951 1.63044 -1.18231 0
M  V30 10726 C 989.016 2.59871 -2.29495 0
M  V30 10727 C 988.077 2.45012 -3.52516 0
M  V30 10728 C 987.31 3.71293 -3.83376 0
M  V30 10729 O 987.533 4.75106 -3.15643 0
M  V30 10730 O 986.467 3.67316 -4.76826 0
M  V30 10731 H 990.293 0.956461 -2.88246 0
M  V30 10732 H 987.878 0.407688 -1.4373 0
M  V30 10733 H 989.76 3.38152 -2.51458 0
M  V30 10734 H 988.435 2.91135 -1.415 0
M  V30 10735 H 987.342 1.6487 -3.35811 0
M  V30 10736 H 988.675 2.18683 -4.40952 0
M  V30 10737 N 990.327 1.50405 0.470755 0
M  V30 10738 C 991.237 1.7208 1.59454 0
M  V30 10739 C 992.253 0.603932 1.63183 0
M  V30 10740 O 993.429 0.882296 1.81046 0
M  V30 10741 C 990.494 1.81057 2.95667 0
M  V30 10742 C 989.555 3.04792 3.02324 0
M  V30 10743 C 988.788 3.13332 4.3204 0
M  V30 10744 O 989.011 2.28655 5.22564 0
M  V30 10745 O 987.945 4.0606 4.44296 0
M  V30 10746 H 991.771 2.67343 1.44089 0
M  V30 10747 H 989.356 1.34505 0.650286 0
M  V30 10748 H 991.238 1.8914 3.76569 0
M  V30 10749 H 989.913 0.889782 3.11231 0
M  V30 10750 H 988.82 3.0221 2.205 0
M  V30 10751 H 990.153 3.96451 2.91698 0
M  V30 10752 N 991.805 -0.723954 1.39988 0
M  V30 10753 C 992.737 -1.84859 1.35498 0
M  V30 10754 C 993.75 -1.60681 0.261812 0
M  V30 10755 O 994.939 -1.7071 0.521566 0
M  V30 10756 C 992.039 -3.21103 1.08381 0
M  V30 10757 C 991.212 -3.72546 2.2919 0
M  V30 10758 C 990.271 -4.8738 1.9836 0
M  V30 10759 O 989.297 -5.00467 2.71149 0
M  V30 10760 N 990.499 -5.72566 0.956461 0
M  V30 10761 H 993.264 -1.89212 2.3242 0
M  V30 10762 H 990.825 -0.905152 1.34233 0
M  V30 10763 H 992.817 -3.9551 0.857564 0
M  V30 10764 H 991.387 -3.1195 0.201549 0
M  V30 10765 H 990.607 -2.89365 2.67697 0
M  V30 10766 H 991.895 -4.03652 3.09746 0
M  V30 10767 H 991.293 -5.64595 0.353444 0
M  V30 10768 H 989.85 -6.46993 0.790118 0
M  V30 10769 N 993.283 -1.25346 -0.955304 0
M  V30 10770 C 994.193 -1.07412 -2.08566 0
M  V30 10771 C 995.209 -0.0114424 -1.73996 0
M  V30 10772 O 996.385 -0.212236 -2.00279 0
M  V30 10773 C 993.45 -0.694141 -3.3968 0
M  V30 10774 C 992.511 -1.83468 -3.88121 0
M  V30 10775 C 991.744 -1.47274 -5.12978 0
M  V30 10776 O 991.967 -0.368086 -5.69211 0
M  V30 10777 O 990.901 -2.30269 -5.56111 0
M  V30 10778 H 994.727 -2.02206 -2.26598 0
M  V30 10779 H 992.312 -1.04279 -1.06988 0
M  V30 10780 H 994.194 -0.494325 -4.18491 0
M  V30 10781 H 992.869 0.224545 -3.2292 0
M  V30 10782 H 991.776 -2.08935 -3.10318 0
M  V30 10783 H 993.109 -2.73258 -4.09379 0
M  V30 10784 N 994.761 1.15782 -1.06922 0
M  V30 10785 C 996.177 1.38454 -0.793896 0
M  V30 10786 C 996.377 1.92238 0.603875 0
M  V30 10787 O 995.433 2.1253 1.36335 0
M  V30 10788 C 996.746 2.3595 -1.86408 0
M  V30 10789 C 998.294 2.49622 -1.88833 0
M  V30 10790 C 998.769 3.50406 -2.94923 0
M  V30 10791 N 1000.26 3.57938 -2.93997 0
M  V30 10792 C 1001 4.35728 -3.72731 0
M  V30 10793 N 1000.49 5.16888 -4.61301 0
M  V30 10794 N 1002.28 4.30774 -3.61096 0
M  V30 10795 H 994.435 0.792101 -1.97077 0
M  V30 10796 H 996.698 0.410779 -0.85438 0
M  V30 10797 H 996.404 2.03537 -2.86819 0
M  V30 10798 H 996.278 3.35677 -1.72049 0
M  V30 10799 H 998.665 2.81335 -0.890759 0
M  V30 10800 H 998.746 1.49909 -2.0727 0
M  V30 10801 H 998.39 3.19429 -3.94877 0
M  V30 10802 H 998.32 4.49864 -2.73734 0
M  V30 10803 H 1000.81 3.00007 -2.29791 0
M  V30 10804 H 1001.12 5.73477 -5.18019 0
M  V30 10805 H 999.469 5.16209 -4.65353 0
M  V30 10806 H 1002.66 3.66432 -2.91282 0
M  V30 10807 H 1002.83 4.91151 -4.22699 0
M  V30 10808 N 996.239 0.8527 1.3254 0
M  V30 10809 C 997.169 0.311234 2.31416 0
M  V30 10810 C 998.15 -0.588557 1.59593 0
M  V30 10811 O 999.335 -0.509211 1.87405 0
M  V30 10812 C 996.465 -0.502892 3.4364 0
M  V30 10813 C 995.419 0.302296 4.26931 0
M  V30 10814 C 994.745 -0.636445 5.30899 0
M  V30 10815 C 996.045 1.52697 4.99481 0
M  V30 10816 H 997.739 1.13742 2.76953 0
M  V30 10817 H 995.285 0.548389 1.33149 0
M  V30 10818 H 997.238 -0.892092 4.11849 0
M  V30 10819 H 995.962 -1.36242 2.96826 0
M  V30 10820 H 994.621 0.673226 3.60365 0
M  V30 10821 H 994.269 -1.49277 4.80339 0
M  V30 10822 H 993.969 -0.101716 5.87512 0
M  V30 10823 H 995.493 -1.02286 6.01972 0
M  V30 10824 H 996.907 1.21017 5.60382 0
M  V30 10825 H 995.304 1.9995 5.65809 0
M  V30 10826 H 996.374 2.28929 4.27457 0
M  V30 10827 N 997.718 -1.45297 0.610449 0
M  V30 10828 C 999.134 -1.57225 0.274332 0
M  V30 10829 C 999.334 -1.60136 -1.22306 0
M  V30 10830 O 998.39 -1.5332 -2.00622 0
M  V30 10831 C 999.703 -2.85365 0.948028 0
M  V30 10832 C 1001.25 -2.99044 0.924216 0
M  V30 10833 C 1001.73 -4.29958 1.57798 0
M  V30 10834 N 1003.22 -4.36723 1.5436 0
M  V30 10835 C 1003.95 -5.36695 2.01857 0
M  V30 10836 N 1003.45 -6.43187 2.57453 0
M  V30 10837 N 1005.24 -5.28071 1.92608 0
M  V30 10838 H 997.392 -1.41651 1.58268 0
M  V30 10839 H 999.655 -0.67744 0.663158 0
M  V30 10840 H 999.361 -2.89125 2.00249 0
M  V30 10841 H 999.235 -3.74222 0.473062 0
M  V30 10842 H 1001.62 -2.94849 -0.121709 0
M  V30 10843 H 1001.7 -2.1159 1.43748 0
M  V30 10844 H 1001.35 -4.34912 2.62325 0
M  V30 10845 H 1001.28 -5.16234 1.03972 0
M  V30 10846 H 1003.77 -3.60374 1.13749 0
M  V30 10847 H 1004.08 -7.15722 2.91482 0
M  V30 10848 H 1002.43 -6.4393 2.61493 0
M  V30 10849 H 1005.62 -4.43783 1.48912 0
M  V30 10850 H 1005.79 -6.05832 2.29938 0
M  V30 10851 N 999.196 -0.349774 -1.5367 0
M  V30 10852 C 1000.14 0.504121 -2.25227 0
M  V30 10853 C 1001.11 1.09048 -1.2529 0
M  V30 10854 O 1002.3 1.12594 -1.54037 0
M  V30 10855 C 999.438 1.64601 -3.03316 0
M  V30 10856 C 998.551 1.08635 -4.18118 0
M  V30 10857 C 997.686 2.19605 -4.83681 0
M  V30 10858 C 996.725 1.61023 -5.90541 0
M  V30 10859 N 995.862 2.6576 -6.49858 0
M  V30 10860 H 1000.7 -0.112621 -2.97787 0
M  V30 10861 H 998.239 -0.0673503 -1.46946 0
M  V30 10862 H 1000.2 2.31836 -3.46854 0
M  V30 10863 H 998.827 2.23364 -2.33041 0
M  V30 10864 H 997.879 0.304748 -3.79177 0
M  V30 10865 H 999.191 0.617911 -4.94958 0
M  V30 10866 H 998.345 2.94693 -5.30322 0
M  V30 10867 H 997.084 2.69795 -4.06278 0
M  V30 10868 H 996.089 0.844428 -5.43277 0
M  V30 10869 H 997.314 1.11677 -6.69855 0
M  V30 10870 H 995.26 3.15193 -5.75317 0
M  V30 10871 H 995.177 2.23557 -7.2219 0
M  V30 10872 H 996.445 3.40598 -7.01151 0
M  V30 10873 N 1000.67 1.57404 -0.0785433 0
M  V30 10874 C 1001.64 2.11977 0.871693 0
M  V30 10875 C 1002.64 1.04529 1.2219 0
M  V30 10876 O 1003.83 1.30488 1.15406 0
M  V30 10877 C 1000.96 2.6267 2.17296 0
M  V30 10878 H 1002.15 2.97246 0.398115 0
M  V30 10879 H 999.705 1.5537 0.170251 0
M  V30 10880 H 1000.44 1.80873 2.69175 0
M  V30 10881 H 1000.22 3.41214 1.93171 0
M  V30 10882 H 1001.71 3.04943 2.85306 0
M  V30 10883 N 1002.15 -0.195058 1.56388 0
M  V30 10884 C 1003.11 -1.2254 1.93692 0
M  V30 10885 C 1004.11 -1.38437 0.81804 0
M  V30 10886 O 1005.3 -1.36248 1.08545 0
M  V30 10887 C 1002.44 -2.59476 2.21099 0
M  V30 10888 H 1003.63 -0.906544 2.8587 0
M  V30 10889 H 1001.18 -0.436577 1.50079 0
M  V30 10890 H 1001.92 -2.96417 1.31558 0
M  V30 10891 H 1001.7 -2.4931 3.02634 0
M  V30 10892 H 1003.19 -3.33777 2.50964 0
M  V30 10893 N 1003.63 -1.50653 -0.462772 0
M  V30 10894 C 1004.54 -1.72923 -1.58539 0
M  V30 10895 C 1005.56 -0.612577 -1.6286 0
M  V30 10896 O 1006.73 -0.891885 -1.80575 0
M  V30 10897 C 1003.8 -1.82623 -2.94703 0
M  V30 10898 C 1002.86 -3.06392 -3.00704 0
M  V30 10899 C 1002.09 -3.15618 -4.30373 0
M  V30 10900 O 1002.31 -2.31423 -5.21344 0
M  V30 10901 O 1001.25 -4.0841 -4.42136 0
M  V30 10902 H 1005.07 -2.68103 -1.42669 0
M  V30 10903 H 1002.66 -1.34848 -0.643144 0
M  V30 10904 H 1004.54 -1.91134 -3.7556 0
M  V30 10905 H 1003.22 -0.906275 -3.10754 0
M  V30 10906 H 1002.12 -3.03375 -2.18894 0
M  V30 10907 H 1003.46 -3.97992 -2.89591 0
M  V30 10908 N 1005.11 0.71652 -1.4037 0
M  V30 10909 C 1006.07 1.81231 -1.40313 0
M  V30 10910 C 1007.07 1.58032 -0.297087 0
M  V30 10911 O 1008.26 1.65091 -0.555944 0
M  V30 10912 C 1005.39 3.19308 -1.19395 0
M  V30 10913 H 1006.59 1.8268 -2.3784 0
M  V30 10914 H 1004.14 0.922062 -1.26205 0
M  V30 10915 H 1004.87 3.2351 -0.226252 0
M  V30 10916 H 1004.66 3.37546 -1.99512 0
M  V30 10917 H 1006.15 3.99339 -1.22141 0
M  V30 10918 N 1006.59 1.25851 0.948643 0
M  V30 10919 C 1007.53 1.06759 2.04625 0
M  V30 10920 C 1008.5 -0.0251144 1.66081 0
M  V30 10921 O 1009.69 0.133221 1.90334 0
M  V30 10922 C 1006.83 0.698724 3.37952 0
M  V30 10923 C 1005.94 1.8669 3.89578 0
M  V30 10924 C 1005.08 1.44184 5.11258 0
M  V30 10925 C 1004.12 2.57878 5.55126 0
M  V30 10926 N 1003.25 2.16106 6.68014 0
M  V30 10927 H 1008.09 2.00691 2.20289 0
M  V30 10928 H 1005.63 0.999327 1.07944 0
M  V30 10929 H 1007.59 0.465788 4.14592 0
M  V30 10930 H 1006.22 -0.203618 3.22157 0
M  V30 10931 H 1005.27 2.21298 3.09405 0
M  V30 10932 H 1006.58 2.72051 4.18079 0
M  V30 10933 H 1005.74 1.16891 5.95333 0
M  V30 10934 H 1004.47 0.559035 4.84485 0
M  V30 10935 H 1003.48 2.85909 4.69612 0
M  V30 10936 H 1004.7 3.46747 5.83904 0
M  V30 10937 H 1002.65 1.3025 6.42939 0
M  V30 10938 H 1002.57 2.95012 6.96063 0
M  V30 10939 H 1003.84 1.92005 7.55483 0
M  V30 10940 N 1008.06 -1.15214 1.07534 0
M  V30 10941 C 1009.48 -1.38031 0.801228 0
M  V30 10942 C 1009.68 -1.92556 -0.593672 0
M  V30 10943 O 1008.74 -2.1325 -1.35206 0
M  V30 10944 C 1010.05 -2.34958 1.87657 0
M  V30 10945 C 1011.6 -2.48617 1.90154 0
M  V30 10946 C 1012.07 -3.48837 2.96777 0
M  V30 10947 N 1013.56 -3.56374 2.95892 0
M  V30 10948 C 1014.3 -4.33746 3.75036 0
M  V30 10949 N 1013.79 -5.14435 4.64036 0
M  V30 10950 N 1015.59 -4.28853 3.63375 0
M  V30 10951 H 1007.74 -0.781639 1.97495 0
M  V30 10952 H 1010 -0.406243 0.856546 0
M  V30 10953 H 1009.71 -2.02013 2.87895 0
M  V30 10954 H 1009.58 -3.3476 1.73827 0
M  V30 10955 H 1011.97 -2.80859 0.905666 0
M  V30 10956 H 1012.05 -1.48808 2.08062 0
M  V30 10957 H 1011.69 -3.1733 3.96565 0
M  V30 10958 H 1011.62 -4.48406 2.76116 0
M  V30 10959 H 1014.11 -2.98784 2.31379 0
M  V30 10960 H 1014.43 -5.70722 5.21053 0
M  V30 10961 H 1012.77 -5.13734 4.68084 0
M  V30 10962 H 1015.96 -3.64882 2.93221 0
M  V30 10963 H 1016.14 -4.88903 4.25298 0
M  V30 10964 N 1009.54 -0.859717 -1.32086 0
M  V30 10965 C 1010.47 -0.323502 -2.31248 0
M  V30 10966 C 1011.45 0.580085 -1.59903 0
M  V30 10967 O 1012.64 0.499265 -1.87673 0
M  V30 10968 C 1009.77 0.484661 -3.43902 0
M  V30 10969 C 1008.72 -0.324933 -4.26765 0
M  V30 10970 C 1008.05 0.608281 -5.31229 0
M  V30 10971 C 1009.35 -1.55344 -4.98664 0
M  V30 10972 H 1011.04 -1.15209 -2.76346 0
M  V30 10973 H 1008.59 -0.555442 -1.32856 0
M  V30 10974 H 1010.54 0.870238 -4.12316 0
M  V30 10975 H 1009.27 1.34666 -2.97544 0
M  V30 10976 H 1007.92 -0.692328 -3.60003 0
M  V30 10977 H 1007.57 1.46727 -4.81124 0
M  V30 10978 H 1007.27 0.0705571 -5.87558 0
M  V30 10979 H 1008.8 0.990925 -6.02506 0
M  V30 10980 H 1010.21 -1.23987 -5.59732 0
M  V30 10981 H 1008.61 -2.02947 -5.64741 0
M  V30 10982 H 1009.68 -2.31192 -4.26237 0
M  V30 10983 N 1011.02 1.44971 -0.618145 0
M  V30 10984 C 1011.98 2.29044 0.0846739 0
M  V30 10985 C 1012.98 1.40341 0.784921 0
M  V30 10986 O 1014.17 1.62351 0.631479 0
M  V30 10987 C 1011.31 3.21617 1.13027 0
M  V30 10988 H 1012.5 2.92668 -0.654612 0
M  V30 10989 H 1010.05 1.51668 -0.377672 0
M  V30 10990 H 1010.79 2.62815 1.89997 0
M  V30 10991 H 1010.57 3.86969 0.63224 0
M  V30 10992 H 1012.06 3.84805 1.62218 0
M  V30 10993 N 1012.5 0.357919 1.53482 0
M  V30 10994 C 1013.41 -0.500273 2.29204 0
M  V30 10995 C 1014.42 -1.09936 1.3487 0
M  V30 10996 O 1015.6 -1.11195 1.67921 0
M  V30 10997 C 1012.67 -1.62828 3.06085 0
M  V30 10998 C 1011.73 -1.05751 4.16071 0
M  V30 10999 C 1010.96 -2.13176 4.89277 0
M  V30 11000 O 1011.18 -3.34153 4.62274 0
M  V30 11001 O 1010.12 -1.76663 5.7539 0
M  V30 11002 H 1013.94 0.115696 3.0348 0
M  V30 11003 H 1011.53 0.122527 1.48897 0
M  V30 11004 H 1013.41 -2.28427 3.54117 0
M  V30 11005 H 1012.08 -2.22979 2.34653 0
M  V30 11006 H 1010.99 -0.365642 3.72309 0
M  V30 11007 H 1012.32 -0.500661 4.89647 0
M  V30 11008 N 1013.98 -1.5736 0.0868897 0
M  V30 11009 C 1014.91 -2.10582 -0.904858 0
M  V30 11010 C 1015.92 -1.04124 -1.25148 0
M  V30 11011 O 1017.11 -1.31595 -1.20603 0
M  V30 11012 C 1014.21 -2.56381 -2.21635 0
M  V30 11013 C 1013.38 -3.86581 -2.04631 0
M  V30 11014 C 1012.44 -4.18313 -3.19219 0
M  V30 11015 O 1011.47 -4.87669 -2.93544 0
M  V30 11016 N 1012.67 -3.73061 -4.44754 0
M  V30 11017 H 1015.44 -2.96297 -0.450352 0
M  V30 11018 H 1013 -1.616 -0.0984376 0
M  V30 11019 H 1014.99 -2.7466 -2.97227 0
M  V30 11020 H 1013.56 -1.75721 -2.58536 0
M  V30 11021 H 1012.78 -3.77532 -1.13417 0
M  V30 11022 H 1014.07 -4.71777 -1.90537 0
M  V30 11023 H 1013.46 -3.1706 -4.68497 0
M  V30 11024 H 1012.02 -3.96511 -5.17322 0
M  V30 11025 N 1015.45 0.186762 -1.56489 0
M  V30 11026 C 1016.87 0.537933 -1.50261 0
M  V30 11027 C 1017.07 1.85435 -0.788414 0
M  V30 11028 O 1016.13 2.50168 -0.342377 0
M  V30 11029 C 1017.44 0.584965 -2.94955 0
M  V30 11030 C 1018.99 0.673228 -3.05674 0
M  V30 11031 C 1019.46 0.751294 -4.51796 0
M  V30 11032 N 1020.95 0.814599 -4.55981 0
M  V30 11033 C 1021.69 0.895313 -5.66367 0
M  V30 11034 N 1021.18 0.937814 -6.86423 0
M  V30 11035 N 1022.98 0.933145 -5.543 0
M  V30 11036 H 1015.13 -0.676636 -2.01334 0
M  V30 11037 H 1017.39 -0.242079 -0.916571 0
M  V30 11038 H 1017.1 -0.313361 -3.50301 0
M  V30 11039 H 1016.97 1.4368 -3.48763 0
M  V30 11040 H 1019.36 1.56198 -2.50372 0
M  V30 11041 H 1019.44 -0.204976 -2.54977 0
M  V30 11042 H 1019.08 -0.133143 -5.07725 0
M  V30 11043 H 1019.01 1.64542 -5.00233 0
M  V30 11044 H 1021.5 0.790662 -3.69536 0
M  V30 11045 H 1021.82 1.00015 -7.66301 0
M  V30 11046 H 1020.16 0.906351 -6.89065 0
M  V30 11047 H 1023.35 0.896836 -4.59428 0
M  V30 11048 H 1023.53 0.992588 -6.40353 0
M  V30 11049 N 1016.93 1.50896 0.454776 0
M  V30 11050 C 1017.84 1.73762 1.5762 0
M  V30 11051 C 1018.86 0.621206 1.62533 0
M  V30 11052 O 1020.03 0.901449 1.801 0
M  V30 11053 C 1017.1 1.84183 2.9373 0
M  V30 11054 C 1016.16 3.07982 2.99075 0
M  V30 11055 C 1015.39 3.17896 4.28693 0
M  V30 11056 O 1015.62 2.34184 5.20109 0
M  V30 11057 O 1014.55 4.10749 4.39964 0
M  V30 11058 H 1018.38 2.68856 1.41245 0
M  V30 11059 H 1015.96 1.35187 0.635984 0
M  V30 11060 H 1017.84 1.93123 3.74542 0
M  V30 11061 H 1016.52 0.922742 3.10269 0
M  V30 11062 H 1015.43 3.04531 2.17282 0
M  V30 11063 H 1016.76 3.99523 2.87476 0
M  V30 11064 N 1018.41 -0.709066 1.40748 0
M  V30 11065 C 1019.34 -1.83412 1.37451 0
M  V30 11066 C 1020.36 -1.60394 0.27884 0
M  V30 11067 O 1021.54 -1.70147 0.539642 0
M  V30 11068 C 1018.64 -3.19935 1.1178 0
M  V30 11069 C 1017.82 -3.70095 2.33128 0
M  V30 11070 C 1016.88 -4.85249 2.03518 0
M  V30 11071 O 1015.9 -4.97563 2.76442 0
M  V30 11072 N 1017.1 -5.7152 1.01714 0
M  V30 11073 H 1019.87 -1.86736 2.34414 0
M  V30 11074 H 1017.43 -0.890863 1.35186 0
M  V30 11075 H 1019.42 -3.94578 0.899464 0
M  V30 11076 H 1017.99 -3.11718 0.234624 0
M  V30 11077 H 1017.21 -2.8651 2.70751 0
M  V30 11078 H 1018.5 -4.00344 3.1401 0
M  V30 11079 H 1017.9 -5.64188 0.413307 0
M  V30 11080 H 1016.46 -6.46119 0.858696 0
M  V30 11081 N 1019.89 -1.26353 -0.941956 0
M  V30 11082 C 1020.8 -1.09618 -2.07415 0
M  V30 11083 C 1021.82 -0.0298963 -1.73974 0
M  V30 11084 O 1022.99 -0.233466 -2.00042 0
M  V30 11085 C 1020.06 -0.73013 -3.38925 0
M  V30 11086 C 1019.12 -1.87574 -3.86153 0
M  V30 11087 C 1018.35 -1.52706 -5.11387 0
M  V30 11088 O 1018.57 -0.428438 -5.68789 0
M  V30 11089 O 1017.51 -2.36154 -5.53638 0
M  V30 11090 H 1021.33 -2.04598 -2.2444 0
M  V30 11091 H 1018.92 -1.05407 -1.05876 0
M  V30 11092 H 1020.8 -0.538684 -4.17943 0
M  V30 11093 H 1019.48 0.190282 -3.2314 0
M  V30 11094 H 1018.38 -2.12214 -3.08084 0
M  V30 11095 H 1019.72 -2.77585 -4.06457 0
M  V30 11096 N 1021.37 1.14642 -1.08144 0
M  V30 11097 C 1022.78 1.37604 -0.808537 0
M  V30 11098 C 1022.98 1.92868 0.583452 0
M  V30 11099 O 1022.04 2.13964 1.34073 0
M  V30 11100 C 1023.35 2.3396 -1.889 0
M  V30 11101 C 1024.9 2.47605 -1.9147 0
M  V30 11102 C 1025.38 3.47258 -2.98623 0
M  V30 11103 N 1026.87 3.548 -2.97777 0
M  V30 11104 C 1027.6 4.31751 -3.77331 0
M  V30 11105 N 1027.1 5.11966 -4.66757 0
M  V30 11106 N 1028.89 4.2692 -3.65645 0
M  V30 11107 H 1021.04 0.771154 -1.97906 0
M  V30 11108 H 1023.3 0.401694 -0.858688 0
M  V30 11109 H 1023.01 2.00484 -2.88962 0
M  V30 11110 H 1022.88 3.33833 -1.756 0
M  V30 11111 H 1025.27 2.80375 -0.920548 0
M  V30 11112 H 1025.35 1.47702 -2.08848 0
M  V30 11113 H 1025 3.15223 -3.98243 0
M  V30 11114 H 1024.93 4.46935 -2.7849 0
M  V30 11115 H 1027.42 2.97553 -2.3296 0
M  V30 11116 H 1027.73 5.67951 -5.24072 0
M  V30 11117 H 1026.08 5.11245 -4.70801 0
M  V30 11118 H 1029.27 3.63322 -2.95152 0
M  V30 11119 H 1029.44 4.8664 -4.27885 0
M  V30 11120 N 1022.85 0.866709 1.31628 0
M  V30 11121 C 1024.26 0.558188 1.49521 0
M  V30 11122 C 1024.46 -0.90844 1.7986 0
M  V30 11123 O 1023.52 -1.6908 1.87531 0
M  V30 11124 C 1024.83 1.45559 2.63122 0
M  V30 11125 C 1026.38 1.45728 2.77006 0
M  V30 11126 C 1026.85 2.34017 3.937 0
M  V30 11127 N 1028.34 2.31879 4.00982 0
M  V30 11128 C 1029.08 2.96915 4.90539 0
M  V30 11129 N 1028.58 3.71109 5.85021 0
M  V30 11130 N 1030.37 2.86241 4.83759 0
M  V30 11131 H 1022.52 1.81574 1.10203 0
M  V30 11132 H 1024.78 0.77621 0.544244 0
M  V30 11133 H 1024.49 2.49904 2.47469 0
M  V30 11134 H 1024.36 1.15174 3.59186 0
M  V30 11135 H 1026.75 0.421419 2.92075 0
M  V30 11136 H 1026.83 1.80134 1.81619 0
M  V30 11137 H 1026.47 3.37678 3.79389 0
M  V30 11138 H 1026.4 1.96937 4.88388 0
M  V30 11139 H 1028.9 1.77948 3.33381 0
M  V30 11140 H 1029.21 4.1787 6.5008 0
M  V30 11141 H 1027.55 3.75217 5.8501 0
M  V30 11142 H 1030.74 2.27819 4.08921 0
M  V30 11143 H 1030.92 3.37206 5.5335 0
M  V30 11144 N 1024.32 -1.44642 0.625825 0
M  V30 11145 C 1025.23 -2.34451 -0.0836134 0
M  V30 11146 C 1026.25 -1.5231 -0.841289 0
M  V30 11147 O 1027.43 -1.85056 -0.794754 0
M  V30 11148 C 1024.49 -3.30211 -1.05648 0
M  V30 11149 C 1023.55 -4.28259 -0.298759 0
M  V30 11150 C 1022.78 -5.19444 -1.22528 0
M  V30 11151 O 1023.01 -5.14444 -2.46382 0
M  V30 11152 O 1021.94 -5.97668 -0.71247 0
M  V30 11153 H 1025.77 -2.96555 0.654912 0
M  V30 11154 H 1023.35 -1.44327 0.386029 0
M  V30 11155 H 1025.23 -3.8917 -1.61632 0
M  V30 11156 H 1023.91 -2.70648 -1.77571 0
M  V30 11157 H 1022.82 -3.72863 0.304001 0
M  V30 11158 H 1024.15 -4.90728 0.380345 0
M  V30 11159 N 1025.8 -0.366053 -1.5329 0
M  V30 11160 C 1026.73 0.514916 -2.23341 0
M  V30 11161 C 1027.75 1.04579 -1.24768 0
M  V30 11162 O 1028.94 0.952084 -1.50989 0
M  V30 11163 C 1026.04 1.72374 -2.91788 0
M  V30 11164 C 1025.21 1.32429 -4.16871 0
M  V30 11165 C 1024.27 2.39524 -4.68524 0
M  V30 11166 O 1023.29 2.01895 -5.32191 0
M  V30 11167 N 1024.5 3.71116 -4.46378 0
M  V30 11168 H 1027.26 -0.0851272 -2.99579 0
M  V30 11169 H 1024.82 -0.191255 -1.60766 0
M  V30 11170 H 1026.81 2.43496 -3.23252 0
M  V30 11171 H 1025.38 2.23064 -2.19 0
M  V30 11172 H 1024.6 0.442901 -3.91704 0
M  V30 11173 H 1025.89 1.03372 -4.98188 0
M  V30 11174 H 1025.29 4.04463 -3.95508 0
M  V30 11175 H 1023.85 4.38341 -4.82391 0
M  V30 11176 N 1027.28 1.57312 -0.0952337 0
M  V30 11177 C 1028.19 2.17556 0.877877 0
M  V30 11178 C 1029.21 1.14505 1.31014 0
M  V30 11179 O 1030.38 1.46876 1.37802 0
M  V30 11180 C 1027.45 2.74413 2.11892 0
M  V30 11181 C 1026.51 3.92419 1.74085 0
M  V30 11182 C 1025.74 4.46556 2.92273 0
M  V30 11183 O 1025.96 3.99631 4.07002 0
M  V30 11184 O 1024.9 5.37576 2.70732 0
M  V30 11185 H 1028.72 3.01116 0.395312 0
M  V30 11186 H 1026.31 1.48841 0.129123 0
M  V30 11187 H 1028.19 3.10754 2.84622 0
M  V30 11188 H 1026.87 1.93899 2.59201 0
M  V30 11189 H 1025.77 3.6089 0.985346 0
M  V30 11190 H 1027.11 4.74298 1.31539 0
M  V30 11191 N 1028.76 -0.17846 1.56586 0
M  V30 11192 C 1030.17 -0.529957 1.50544 0
M  V30 11193 C 1030.37 -1.85015 0.798237 0
M  V30 11194 O 1029.43 -2.49983 0.355639 0
M  V30 11195 C 1030.74 -0.569314 2.95261 0
M  V30 11196 C 1032.29 -0.657008 3.06027 0
M  V30 11197 C 1032.77 -0.727323 4.52188 0
M  V30 11198 N 1034.26 -0.790406 4.56406 0
M  V30 11199 C 1034.99 -0.865265 5.66834 0
M  V30 11200 N 1034.49 -0.901398 6.86911 0
M  V30 11201 N 1036.28 -0.903736 5.54787 0
M  V30 11202 H 1028.43 0.687304 2.00972 0
M  V30 11203 H 1030.69 0.246936 0.915274 0
M  V30 11204 H 1030.4 0.331934 3.5013 0
M  V30 11205 H 1030.27 -1.41828 3.4952 0
M  V30 11206 H 1032.66 -1.54868 2.51197 0
M  V30 11207 H 1032.74 0.218495 2.54865 0
M  V30 11208 H 1032.39 0.160067 5.07648 0
M  V30 11209 H 1032.32 -1.61887 5.01099 0
M  V30 11210 H 1034.81 -0.771054 3.6995 0
M  V30 11211 H 1035.12 -0.959494 7.6682 0
M  V30 11212 H 1033.47 -0.869795 6.89536 0
M  V30 11213 H 1036.66 -0.872459 4.59898 0
M  V30 11214 H 1036.83 -0.958615 6.4087 0
M  V30 11215 N 1030.24 -1.51135 -0.446768 0
M  V30 11216 C 1031.65 -1.39101 -0.782504 0
M  V30 11217 C 1031.85 -0.46599 -1.96038 0
M  V30 11218 O 1030.91 0.0823679 -2.52366 0
M  V30 11219 C 1032.22 -2.80953 -1.07173 0
M  V30 11220 C 1033.77 -2.90038 -1.17673 0
M  V30 11221 C 1034.24 -4.32777 -1.49894 0
M  V30 11222 N 1035.73 -4.3584 -1.56837 0
M  V30 11223 C 1036.47 -5.43305 -1.83322 0
M  V30 11224 N 1035.97 -6.60945 -2.07662 0
M  V30 11225 N 1037.76 -5.30775 -1.85026 0
M  V30 11226 H 1029.91 -2.09835 0.329114 0
M  V30 11227 H 1032.17 -0.944199 0.0848054 0
M  V30 11228 H 1031.88 -3.50591 -0.279037 0
M  V30 11229 H 1031.75 -3.197 -2.00179 0
M  V30 11230 H 1034.14 -2.20603 -1.96005 0
M  V30 11231 H 1034.22 -2.54801 -0.225892 0
M  V30 11232 H 1033.86 -5.02757 -0.720924 0
M  V30 11233 H 1033.79 -4.6552 -2.46168 0
M  V30 11234 H 1036.29 -3.51023 -1.39968 0
M  V30 11235 H 1036.6 -7.38643 -2.27214 0
M  V30 11236 H 1034.94 -6.64077 -2.05003 0
M  V30 11237 H 1038.13 -4.37858 -1.65523 0
M  V30 11238 H 1038.31 -6.14609 -2.05329 0
M  V30 11239 N 1031.71 0.701592 -1.41122 0
M  V30 11240 C 1032.62 1.84548 -1.44841 0
M  V30 11241 C 1033.64 1.70654 -0.339594 0
M  V30 11242 O 1034.82 1.92675 -0.586378 0
M  V30 11243 C 1031.88 3.20477 -1.3227 0
M  V30 11244 C 1030.94 3.46524 -2.53415 0
M  V30 11245 C 1030.17 4.75968 -2.41434 0
M  V30 11246 O 1030.4 5.52037 -1.43566 0
M  V30 11247 O 1029.33 5.02664 -3.31078 0
M  V30 11248 H 1033.16 1.84367 -2.41335 0
M  V30 11249 H 1030.74 0.853863 -1.22595 0
M  V30 11250 H 1032.62 4.01642 -1.2752 0
M  V30 11251 H 1031.3 3.21355 -0.388889 0
M  V30 11252 H 1030.21 2.65313 -2.63742 0
M  V30 11253 H 1031.54 3.50455 -3.45604 0
M  V30 11254 N 1033.19 1.2685 0.935242 0
M  V30 11255 C 1034.12 1.04717 2.0388 0
M  V30 11256 C 1035.14 0.00567507 1.62799 0
M  V30 11257 O 1036.33 0.246408 1.76791 0
M  V30 11258 C 1033.43 0.56496 3.34158 0
M  V30 11259 C 1032.6 1.67704 4.03973 0
M  V30 11260 C 1031.66 1.19186 5.12524 0
M  V30 11261 O 1030.68 1.89008 5.36903 0
M  V30 11262 N 1031.89 0.0434554 5.80484 0
M  V30 11263 H 1034.65 1.99746 2.23431 0
M  V30 11264 H 1032.21 1.18316 1.10512 0
M  V30 11265 H 1034.2 0.224436 4.04077 0
M  V30 11266 H 1032.77 -0.291899 3.11234 0
M  V30 11267 H 1031.99 2.18821 3.27889 0
M  V30 11268 H 1033.28 2.42361 4.47368 0
M  V30 11269 H 1032.68 -0.539502 5.63122 0
M  V30 11270 H 1031.24 -0.237946 6.51366 0
M  V30 11271 N 1034.67 -1.14067 1.0875 0
M  V30 11272 C 1035.58 -2.22871 0.732498 0
M  V30 11273 C 1036.6 -1.72008 -0.26253 0
M  V30 11274 O 1037.77 -2.01123 -0.105601 0
M  V30 11275 C 1034.84 -3.46371 0.150913 0
M  V30 11276 C 1033.9 -4.12158 1.201 0
M  V30 11277 C 1033.13 -5.29763 0.647075 0
M  V30 11278 O 1033.35 -5.67911 -0.532307 0
M  V30 11279 O 1032.29 -5.8542 1.3988 0
M  V30 11280 H 1036.11 -2.55596 1.64025 0
M  V30 11281 H 1033.7 -1.22065 0.861417 0
M  V30 11282 H 1035.58 -4.21055 -0.170442 0
M  V30 11283 H 1034.26 -3.15362 -0.729948 0
M  V30 11284 H 1033.16 -3.39332 1.57494 0
M  V30 11285 H 1034.5 -4.47282 2.05426 0
M  V30 11286 N 1036.15 -0.873678 -1.31166 0
M  V30 11287 C 1037.56 -0.566109 -1.49223 0
M  V30 11288 C 1037.76 0.898889 -1.80339 0
M  V30 11289 O 1036.82 1.68084 -1.88425 0
M  V30 11290 C 1038.13 -1.46952 -2.62346 0
M  V30 11291 C 1039.68 -1.47195 -2.76229 0
M  V30 11292 C 1040.16 -2.36102 -3.92454 0
M  V30 11293 N 1041.65 -2.34003 -3.99746 0
M  V30 11294 C 1042.38 -2.99513 -4.88958 0
M  V30 11295 N 1041.88 -3.74206 -5.83045 0
M  V30 11296 N 1043.67 -2.88802 -4.82234 0
M  V30 11297 H 1035.82 -1.82156 -1.09239 0
M  V30 11298 H 1038.09 -0.779086 -0.54012 0
M  V30 11299 H 1037.79 -2.51213 -2.4614 0
M  V30 11300 H 1037.67 -1.17077 -3.5857 0
M  V30 11301 H 1040.05 -0.436902 -2.91848 0
M  V30 11302 H 1040.13 -1.81095 -1.80661 0
M  V30 11303 H 1039.78 -3.39685 -3.77593 0
M  V30 11304 H 1039.71 -1.99524 -4.87337 0
M  V30 11305 H 1042.2 -1.79713 -3.32433 0
M  V30 11306 H 1042.51 -4.21312 -6.47855 0
M  V30 11307 H 1040.86 -3.78314 -5.83012 0
M  V30 11308 H 1044.05 -2.29984 -4.07707 0
M  V30 11309 H 1044.22 -3.40136 -5.51554 0
M  V30 11310 N 1037.63 1.44308 -0.633487 0
M  V30 11311 C 1039.04 1.56768 -0.29931 0
M  V30 11312 C 1039.24 1.62061 1.19743 0
M  V30 11313 O 1038.3 1.56492 1.98158 0
M  V30 11314 C 1039.61 2.8382 -0.993307 0
M  V30 11315 C 1041.16 2.97536 -0.971674 0
M  V30 11316 C 1041.63 4.27393 -1.64618 0
M  V30 11317 N 1043.13 4.34212 -1.61288 0
M  V30 11318 C 1043.86 5.33415 -2.1037 0
M  V30 11319 N 1043.36 6.3901 -2.67653 0
M  V30 11320 N 1045.15 5.24939 -2.00985 0
M  V30 11321 H 1037.3 1.39115 -1.60501 0
M  V30 11322 H 1039.56 0.666804 -0.673852 0
M  V30 11323 H 1039.27 2.85902 -2.04823 0
M  V30 11324 H 1039.14 3.73422 -0.532537 0
M  V30 11325 H 1041.53 2.95005 0.0747854 0
M  V30 11326 H 1041.61 2.09276 -1.47096 0
M  V30 11327 H 1041.26 4.30683 -2.6921 0
M  V30 11328 H 1041.19 5.14515 -1.12171 0
M  V30 11329 H 1043.68 3.58519 -1.19468 0
M  V30 11330 H 1043.99 7.10994 -3.02831 0
M  V30 11331 H 1042.33 6.39689 -2.71705 0
M  V30 11332 H 1045.53 4.41357 -1.55953 0
M  V30 11333 H 1045.7 6.02097 -2.39547 0
M  V30 11334 N 1039.1 0.374177 1.53094 0
M  V30 11335 C 1040.01 -0.475935 2.29722 0
M  V30 11336 C 1041.03 -1.085 1.36029 0
M  V30 11337 O 1042.21 -1.09408 1.69091 0
M  V30 11338 C 1039.27 -1.59572 3.07795 0
M  V30 11339 C 1038.33 -1.01332 4.17169 0
M  V30 11340 C 1037.57 -2.07975 4.9151 0
M  V30 11341 O 1037.79 -3.29232 4.65793 0
M  V30 11342 O 1036.72 -1.7055 5.77232 0
M  V30 11343 H 1040.55 0.147877 3.0334 0
M  V30 11344 H 1038.13 0.138312 1.48758 0
M  V30 11345 H 1040.02 -2.24658 3.5652 0
M  V30 11346 H 1038.69 -2.20478 2.37005 0
M  V30 11347 H 1037.6 -0.326133 3.72676 0
M  V30 11348 H 1038.93 -0.4487 4.90151 0
M  V30 11349 N 1040.58 -1.57259 0.103575 0
M  V30 11350 C 1041.51 -2.1153 -0.882472 0
M  V30 11351 C 1042.53 -1.05446 -1.24036 0
M  V30 11352 O 1043.72 -1.32867 -1.192 0
M  V30 11353 C 1040.82 -2.58717 -2.18903 0
M  V30 11354 C 1039.99 -3.8873 -2.00519 0
M  V30 11355 C 1039.05 -4.21675 -3.14764 0
M  V30 11356 O 1038.07 -4.90755 -2.88355 0
M  V30 11357 N 1039.28 -3.77757 -4.40772 0
M  V30 11358 H 1042.04 -2.96758 -0.418901 0
M  V30 11359 H 1039.6 -1.61696 -0.0812921 0
M  V30 11360 H 1041.59 -2.77797 -2.94297 0
M  V30 11361 H 1040.16 -1.78454 -2.56657 0
M  V30 11362 H 1039.38 -3.78714 -1.09406 0
M  V30 11363 H 1040.67 -4.73771 -1.85522 0
M  V30 11364 H 1040.07 -3.22011 -4.65108 0
M  V30 11365 H 1038.63 -4.01975 -5.13088 0
M  V30 11366 N 1042.06 0.170153 -1.56679 0
M  V30 11367 C 1042.97 1.23057 -1.99735 0
M  V30 11368 C 1043.99 1.48374 -0.908912 0
M  V30 11369 O 1045.16 1.60499 -1.21663 0
M  V30 11370 C 1042.23 2.54944 -2.34956 0
M  V30 11371 C 1041.29 2.3748 -3.57634 0
M  V30 11372 C 1040.52 3.63078 -3.91165 0
M  V30 11373 O 1040.74 4.68304 -3.2565 0
M  V30 11374 O 1039.68 3.57119 -4.8451 0
M  V30 11375 H 1043.5 0.895104 -2.9021 0
M  V30 11376 H 1041.09 0.377109 -1.44562 0
M  V30 11377 H 1042.97 3.32742 -2.58574 0
M  V30 11378 H 1041.65 2.88068 -1.47643 0
M  V30 11379 H 1040.55 1.57709 -3.39232 0
M  V30 11380 H 1041.89 2.0928 -4.45491 0
M  V30 11381 N 1043.54 1.5137 0.438746 0
M  V30 11382 C 1044.95 1.39514 0.775116 0
M  V30 11383 C 1045.15 0.47638 1.95788 0
M  V30 11384 O 1044.21 -0.0689832 2.52406 0
M  V30 11385 C 1045.52 2.81517 1.05681 0
M  V30 11386 C 1047.07 2.90658 1.16133 0
M  V30 11387 C 1047.55 4.33566 1.47597 0
M  V30 11388 N 1049.04 4.36665 1.54524 0
M  V30 11389 C 1049.77 5.4427 1.80438 0
M  V30 11390 N 1049.27 6.62037 2.04154 0
M  V30 11391 N 1051.06 5.31749 1.82208 0
M  V30 11392 H 1043.21 2.09657 -0.340237 0
M  V30 11393 H 1045.48 0.943736 -0.0898115 0
M  V30 11394 H 1045.18 3.50734 0.260441 0
M  V30 11395 H 1045.06 3.20757 1.98481 0
M  V30 11396 H 1047.44 2.2164 1.94833 0
M  V30 11397 H 1047.52 2.54917 0.212376 0
M  V30 11398 H 1047.17 5.03133 0.694251 0
M  V30 11399 H 1047.1 4.66819 2.43696 0
M  V30 11400 H 1049.59 3.51761 1.38105 0
M  V30 11401 H 1049.9 7.39838 2.23293 0
M  V30 11402 H 1048.25 6.65155 2.01479 0
M  V30 11403 H 1051.44 4.3873 1.63198 0
M  V30 11404 H 1051.61 6.15689 2.02067 0
M  V30 11405 N 1045.02 -0.694098 1.41492 0
M  V30 11406 C 1046.43 -1.00487 1.23994 0
M  V30 11407 C 1046.63 -2.01078 0.130346 0
M  V30 11408 O 1045.69 -2.47403 -0.504775 0
M  V30 11409 C 1047 -1.52808 2.58979 0
M  V30 11410 C 1048.55 -1.64684 2.66173 0
M  V30 11411 C 1049.02 -2.20406 4.01479 0
M  V30 11412 N 1050.52 -2.27765 4.03333 0
M  V30 11413 C 1051.25 -2.7191 5.04829 0
M  V30 11414 N 1050.75 -3.1565 6.16714 0
M  V30 11415 N 1052.54 -2.71487 4.9219 0
M  V30 11416 H 1044.69 -0.027746 2.12382 0
M  V30 11417 H 1046.95 -0.0748741 0.945039 0
M  V30 11418 H 1046.66 -0.863519 3.40934 0
M  V30 11419 H 1046.53 -2.50998 2.81566 0
M  V30 11420 H 1048.92 -2.30251 1.84576 0
M  V30 11421 H 1049 -0.65035 2.47395 0
M  V30 11422 H 1048.65 -1.55454 4.83525 0
M  V30 11423 H 1048.58 -3.2081 4.17599 0
M  V30 11424 H 1051.07 -1.96899 3.22551 0
M  V30 11425 H 1051.38 -3.47966 6.90029 0
M  V30 11426 H 1049.72 -3.13555 6.20248 0
M  V30 11427 H 1052.92 -2.36666 4.03865 0
M  V30 11428 H 1053.09 -3.05573 5.71427 0
M  V30 11429 N 1046.49 -1.27344 -0.928501 0
M  V30 11430 C 1047.4 -1.11812 -2.06241 0
M  V30 11431 C 1048.42 -0.048347 -1.73933 0
M  V30 11432 O 1049.6 -0.25467 -1.99783 0
M  V30 11433 C 1046.66 -0.766036 -3.38131 0
M  V30 11434 C 1045.72 -1.91659 -3.84142 0
M  V30 11435 C 1044.96 -1.58121 -5.09738 0
M  V30 11436 O 1045.18 -0.488742 -5.68302 0
M  V30 11437 O 1044.11 -2.42013 -5.51102 0
M  V30 11438 H 1047.94 -2.06967 -2.22258 0
M  V30 11439 H 1045.52 -1.06524 -1.04752 0
M  V30 11440 H 1047.41 -0.582982 -4.17348 0
M  V30 11441 H 1046.08 0.155998 -3.23324 0
M  V30 11442 H 1044.99 -2.1547 -3.05816 0
M  V30 11443 H 1046.32 -2.8188 -4.0349 0
M  V30 11444 N 1047.97 1.13488 -1.09353 0
M  V30 11445 C 1048.9 2.18563 -0.69012 0
M  V30 11446 C 1049.92 1.60585 0.267651 0
M  V30 11447 O 1051.11 1.78419 0.0538176 0
M  V30 11448 C 1048.21 3.389 0.00391255 0
M  V30 11449 C 1047.38 4.2639 -0.975209 0
M  V30 11450 C 1046.44 5.25258 -0.314719 0
M  V30 11451 O 1045.46 5.6101 -0.962119 0
M  V30 11452 N 1046.67 5.72978 0.931458 0
M  V30 11453 H 1049.43 2.53788 -1.59411 0
M  V30 11454 H 1046.99 1.28803 -0.980886 0
M  V30 11455 H 1048.98 4.02112 0.45696 0
M  V30 11456 H 1047.55 3.0192 0.81014 0
M  V30 11457 H 1046.77 3.59964 -1.60684 0
M  V30 11458 H 1048.06 4.817 -1.63836 0
M  V30 11459 H 1047.46 5.46078 1.477 0
M  V30 11460 H 1046.02 6.38131 1.32784 0
M  V30 11461 N 1049.45 0.880621 1.30701 0
M  V30 11462 C 1050.36 0.348034 2.32004 0
M  V30 11463 C 1051.38 -0.547508 1.65162 0
M  V30 11464 O 1052.55 -0.441673 1.96497 0
M  V30 11465 C 1049.62 -0.432585 3.43991 0
M  V30 11466 C 1048.68 0.492189 4.26469 0
M  V30 11467 C 1047.91 -0.25127 5.33108 0
M  V30 11468 O 1048.14 -1.47795 5.5092 0
M  V30 11469 O 1047.07 0.396376 6.00593 0
M  V30 11470 H 1050.9 1.18798 2.79501 0
M  V30 11471 H 1048.48 0.64432 1.34792 0
M  V30 11472 H 1050.36 -0.874733 4.12221 0
M  V30 11473 H 1049.04 -1.2489 2.98637 0
M  V30 11474 H 1047.94 0.983058 3.60953 0
M  V30 11475 H 1049.28 1.27439 4.75416 0
M  V30 11476 N 1050.93 -1.4397 0.641131 0
M  V30 11477 C 1052.35 -1.56607 0.30762 0
M  V30 11478 C 1052.55 -1.62694 -1.18882 0
M  V30 11479 O 1051.6 -1.57541 -1.97325 0
M  V30 11480 C 1052.91 -2.83289 1.00834 0
M  V30 11481 C 1054.46 -2.97016 0.98744 0
M  V30 11482 C 1054.94 -4.26514 1.66882 0
M  V30 11483 N 1056.43 -4.33351 1.63589 0
M  V30 11484 C 1057.16 -5.32292 2.13196 0
M  V30 11485 N 1056.66 -6.37582 2.71038 0
M  V30 11486 N 1058.45 -5.23866 2.03766 0
M  V30 11487 H 1050.6 -1.38262 1.61237 0
M  V30 11488 H 1052.87 -0.663221 0.677378 0
M  V30 11489 H 1052.57 -2.84812 2.06337 0
M  V30 11490 H 1052.45 -3.73134 0.552333 0
M  V30 11491 H 1054.83 -2.95041 -0.0591395 0
M  V30 11492 H 1054.91 -2.08493 1.48203 0
M  V30 11493 H 1054.56 -4.2925 2.71491 0
M  V30 11494 H 1054.49 -5.13912 1.14898 0
M  V30 11495 H 1056.98 -3.5788 1.21368 0
M  V30 11496 H 1057.29 -7.09378 3.06597 0
M  V30 11497 H 1055.64 -6.38239 2.75093 0
M  V30 11498 H 1058.83 -4.40524 1.58291 0
M  V30 11499 H 1059 -6.00819 2.42737 0
M  V30 11500 N 1052.41 -0.382291 -1.52893 0
M  V30 11501 C 1053.82 -0.031941 -1.59568 0
M  V30 11502 C 1054.02 1.45245 -1.39664 0
M  V30 11503 O 1053.08 2.21612 -1.21013 0
M  V30 11504 C 1054.39 -0.502846 -2.96466 0
M  V30 11505 C 1055.94 -0.4585 -3.09624 0
M  V30 11506 C 1056.42 -0.905481 -4.4896 0
M  V30 11507 N 1057.91 -0.861211 -4.55124 0
M  V30 11508 C 1058.64 -1.17856 -5.61157 0
M  V30 11509 N 1058.14 -1.56603 -6.74868 0
M  V30 11510 N 1059.93 -1.10027 -5.51226 0
M  V30 11511 H 1052.08 -1.34875 -1.64081 0
M  V30 11512 H 1054.34 -0.552375 -0.770446 0
M  V30 11513 H 1054.05 -1.53931 -3.16225 0
M  V30 11514 H 1053.92 0.101777 -3.77063 0
M  V30 11515 H 1056.31 0.568868 -2.89565 0
M  V30 11516 H 1056.39 -1.09884 -2.30996 0
M  V30 11517 H 1056.04 -1.93105 -4.69759 0
M  V30 11518 H 1055.97 -0.242227 -5.26043 0
M  V30 11519 H 1058.46 -0.575988 -3.73485 0
M  V30 11520 H 1058.77 -1.792 -7.51736 0
M  V30 11521 H 1057.12 -1.60484 -6.76217 0
M  V30 11522 H 1060.31 -0.796623 -4.61272 0
M  V30 11523 H 1060.48 -1.35091 -6.33762 0
M  V30 11524 N 1053.89 1.57202 -0.111913 0
M  V30 11525 C 1054.8 2.18475 0.854753 0
M  V30 11526 C 1055.81 1.15888 1.29792 0
M  V30 11527 O 1056.99 1.48329 1.36237 0
M  V30 11528 C 1054.05 2.76645 2.0897 0
M  V30 11529 C 1053.11 3.94244 1.69913 0
M  V30 11530 C 1052.35 4.49631 2.8752 0
M  V30 11531 O 1052.57 4.03926 4.02741 0
M  V30 11532 O 1051.5 5.40417 2.65015 0
M  V30 11533 H 1055.33 3.01519 0.363352 0
M  V30 11534 H 1052.91 1.4897 0.113329 0
M  V30 11535 H 1054.8 3.13755 2.81311 0
M  V30 11536 H 1053.47 1.96637 2.5713 0
M  V30 11537 H 1052.38 3.61915 0.947013 0
M  V30 11538 H 1053.71 4.75666 1.26501 0
M  V30 11539 N 1055.36 -0.161842 1.56767 0
M  V30 11540 C 1056.3 -1.22499 1.93718 0
M  V30 11541 C 1057.31 -1.39975 0.831314 0
M  V30 11542 O 1058.5 -1.3981 1.10975 0
M  V30 11543 C 1055.6 -2.59222 2.18306 0
M  V30 11544 C 1054.77 -2.6292 3.4956 0
M  V30 11545 C 1053.83 -3.81074 3.62863 0
M  V30 11546 O 1052.86 -3.66633 4.35395 0
M  V30 11547 N 1054.06 -4.97923 2.98418 0
M  V30 11548 H 1056.82 -0.911043 2.85517 0
M  V30 11549 H 1054.38 -0.351533 1.58038 0
M  V30 11550 H 1056.38 -3.36749 2.24461 0
M  V30 11551 H 1054.95 -2.82969 1.32844 0
M  V30 11552 H 1054.17 -1.71418 3.54978 0
M  V30 11553 H 1055.45 -2.62409 4.35911 0
M  V30 11554 H 1054.85 -5.12557 2.39378 0
M  V30 11555 H 1053.41 -5.73277 3.10155 0
M  V30 11556 N 1056.84 -1.516 -0.430713 0
M  V30 11557 C 1057.75 -1.76247 -1.54836 0
M  V30 11558 C 1058.77 -0.646985 -1.61524 0
M  V30 11559 O 1059.94 -0.929987 -1.78643 0
M  V30 11560 C 1057.01 -1.88833 -2.90763 0
M  V30 11561 C 1056.07 -3.12701 -2.94137 0
M  V30 11562 C 1055.3 -3.24676 -4.23581 0
M  V30 11563 O 1055.53 -2.42429 -5.16318 0
M  V30 11564 O 1054.46 -4.17697 -4.33374 0
M  V30 11565 H 1058.29 -2.71069 -1.3695 0
M  V30 11566 H 1055.87 -1.36182 -0.614396 0
M  V30 11567 H 1057.75 -1.99057 -3.71422 0
M  V30 11568 H 1056.43 -0.971987 -3.08762 0
M  V30 11569 H 1055.33 -3.0795 -2.1241 0
M  V30 11570 H 1056.67 -4.04045 -2.81084 0
M  V30 11571 N 1058.32 0.686584 -1.41858 0
M  V30 11572 C 1059.74 0.998283 -1.24525 0
M  V30 11573 C 1059.94 2.01006 -0.141007 0
M  V30 11574 O 1058.99 2.47667 0.491648 0
M  V30 11575 C 1060.3 1.51432 -2.59786 0
M  V30 11576 C 1061.85 1.6327 -2.67043 0
M  V30 11577 C 1062.33 2.18274 -4.02642 0
M  V30 11578 N 1063.82 2.25622 -4.04535 0
M  V30 11579 C 1064.55 2.69229 -5.06264 0
M  V30 11580 N 1064.05 3.12375 -6.1838 0
M  V30 11581 N 1065.84 2.68873 -4.93623 0
M  V30 11582 H 1057.99 0.0164825 -2.12394 0
M  V30 11583 H 1060.26 0.0698613 -0.945422 0
M  V30 11584 H 1059.96 0.845426 -3.41388 0
M  V30 11585 H 1059.84 2.49502 -2.82894 0
M  V30 11586 H 1062.22 2.29269 -1.85794 0
M  V30 11587 H 1062.3 0.637221 -2.47736 0
M  V30 11588 H 1061.95 1.52887 -4.84343 0
M  V30 11589 H 1061.88 3.18591 -4.19294 0
M  V30 11590 H 1064.37 1.95186 -3.23591 0
M  V30 11591 H 1064.68 3.44301 -6.91864 0
M  V30 11592 H 1063.03 3.10262 -6.21902 0
M  V30 11593 H 1066.22 2.34521 -4.05114 0
M  V30 11594 H 1066.39 3.02539 -5.7304 0
M  V30 11595 N 1059.8 1.27835 0.921735 0
M  V30 11596 C 1060.73 1.06874 2.02758 0
M  V30 11597 C 1061.74 0.0229418 1.62784 0
M  V30 11598 O 1062.93 0.265145 1.7652 0
M  V30 11599 C 1060.03 0.60037 3.3354 0
M  V30 11600 C 1059.2 1.71979 4.02172 0
M  V30 11601 C 1058.26 1.24615 5.11231 0
M  V30 11602 O 1057.29 1.94692 5.34868 0
M  V30 11603 N 1058.49 0.105021 5.80405 0
M  V30 11604 H 1061.26 2.02105 2.213 0
M  V30 11605 H 1058.82 1.19481 1.09251 0
M  V30 11606 H 1060.81 0.267281 4.03816 0
M  V30 11607 H 1059.38 -0.258872 3.11526 0
M  V30 11608 H 1058.6 2.22287 3.25549 0
M  V30 11609 H 1059.89 2.47092 4.44773 0
M  V30 11610 H 1059.29 -0.479745 5.63662 0
M  V30 11611 H 1057.84 -0.168846 6.51581 0
M  V30 11612 N 1061.28 -1.12907 1.09954 0
M  V30 11613 C 1062.21 -2.20585 0.765799 0
M  V30 11614 C 1063.19 -1.68117 -0.258989 0
M  V30 11615 O 1064.37 -1.93792 -0.125853 0
M  V30 11616 C 1061.5 -3.46772 0.191435 0
M  V30 11617 C 1060.46 -4.12363 1.14635 0
M  V30 11618 C 1059.78 -5.3294 0.433426 0
M  V30 11619 C 1061.08 -4.59073 2.49096 0
M  V30 11620 H 1062.78 -2.48759 1.66612 0
M  V30 11621 H 1060.32 -1.19563 0.802534 0
M  V30 11622 H 1062.27 -4.21365 -0.0541535 0
M  V30 11623 H 1061 -3.18011 -0.744101 0
M  V30 11624 H 1059.66 -3.39744 1.37731 0
M  V30 11625 H 1059.31 -5.00444 -0.506422 0
M  V30 11626 H 1059.01 -5.77772 1.07018 0
M  V30 11627 H 1060.53 -6.10284 0.196267 0
M  V30 11628 H 1061.94 -5.25063 2.30177 0
M  V30 11629 H 1060.34 -5.14665 3.0861 0
M  V30 11630 H 1061.41 -3.73313 3.0946 0
M  V30 11631 N 1062.75 -0.88754 -1.30232 0
M  V30 11632 C 1063.72 -0.361095 -2.26338 0
M  V30 11633 C 1064.72 0.497871 -1.52898 0
M  V30 11634 O 1065.91 0.30466 -1.71515 0
M  V30 11635 C 1063.04 0.485135 -3.3743 0
M  V30 11636 H 1064.23 -1.20973 -2.74419 0
M  V30 11637 H 1061.78 -0.664619 -1.41466 0
M  V30 11638 H 1062.52 1.35425 -2.9467 0
M  V30 11639 H 1062.3 -0.130173 -3.91884 0
M  V30 11640 H 1063.79 0.845169 -4.08958 0
M  V30 11641 N 1064.23 1.43628 -0.648757 0
M  V30 11642 C 1065.14 2.34554 0.0463037 0
M  V30 11643 C 1066.16 1.53629 0.816952 0
M  V30 11644 O 1067.33 1.86297 0.765212 0
M  V30 11645 C 1064.4 3.3185 1.00381 0
M  V30 11646 C 1063.46 4.2868 0.230589 0
M  V30 11647 C 1062.69 5.21328 1.14249 0
M  V30 11648 O 1062.92 5.18298 2.38166 0
M  V30 11649 O 1061.85 5.98726 0.617296 0
M  V30 11650 H 1065.68 2.95475 -0.702008 0
M  V30 11651 H 1063.26 1.43694 -0.408942 0
M  V30 11652 H 1065.14 3.91692 1.5542 0
M  V30 11653 H 1063.82 2.73439 1.73243 0
M  V30 11654 H 1062.73 3.72332 -0.363282 0
M  V30 11655 H 1064.06 4.90061 -0.458368 0
M  V30 11656 N 1065.71 0.390394 1.52688 0
M  V30 11657 C 1066.64 -0.479319 2.24132 0
M  V30 11658 C 1067.66 -1.0258 1.26416 0
M  V30 11659 O 1068.84 -0.927943 1.52484 0
M  V30 11660 C 1065.94 -1.67711 2.94493 0
M  V30 11661 C 1065.12 -1.2578 4.18925 0
M  V30 11662 C 1064.18 -2.3204 4.72275 0
M  V30 11663 O 1063.2 -1.93402 5.35336 0
M  V30 11664 N 1064.4 -3.63967 4.52226 0
M  V30 11665 H 1067.17 0.132777 2.99406 0
M  V30 11666 H 1064.73 0.216807 1.60442 0
M  V30 11667 H 1066.72 -2.38323 3.27084 0
M  V30 11668 H 1065.29 -2.19552 2.22521 0
M  V30 11669 H 1064.51 -0.380528 3.92359 0
M  V30 11670 H 1065.8 -0.954329 4.9977 0
M  V30 11671 H 1065.2 -3.98119 4.01892 0
M  V30 11672 H 1063.76 -4.30611 4.89303 0
M  V30 11673 N 1067.19 -1.57141 0.120249 0
M  V30 11674 C 1068.1 -2.18925 -0.843155 0
M  V30 11675 C 1069.11 -1.16575 -1.29175 0
M  V30 11676 O 1070.29 -1.4905 -1.35448 0
M  V30 11677 C 1067.36 -2.7775 -2.075 0
M  V30 11678 C 1066.42 -3.95139 -1.6782 0
M  V30 11679 C 1065.65 -4.51149 -2.85132 0
M  V30 11680 O 1065.87 -4.06056 -4.00593 0
M  V30 11681 O 1064.81 -5.41815 -2.62145 0
M  V30 11682 H 1068.63 -3.01707 -0.347357 0
M  V30 11683 H 1066.22 -1.49028 -0.105427 0
M  V30 11684 H 1068.1 -3.15243 -2.79643 0
M  V30 11685 H 1066.77 -1.97998 -2.56083 0
M  V30 11686 H 1065.68 -3.62412 -0.927807 0
M  V30 11687 H 1067.01 -4.7633 -1.23977 0
M  V30 11688 N 1068.67 0.153526 -1.5685 0
M  V30 11689 C 1070.08 0.505939 -1.51368 0
M  V30 11690 C 1070.28 1.83721 -0.82757 0
M  V30 11691 O 1069.34 2.49385 -0.395364 0
M  V30 11692 C 1070.65 0.522269 -2.9613 0
M  V30 11693 C 1072.2 0.608238 -3.07033 0
M  V30 11694 C 1072.67 0.655292 -4.53288 0
M  V30 11695 N 1074.17 0.717695 -4.57606 0
M  V30 11696 C 1074.9 0.774977 -5.68139 0
M  V30 11697 N 1074.4 0.792003 -6.88258 0
M  V30 11698 N 1076.19 0.81536 -5.56155 0
M  V30 11699 H 1068.34 -0.71919 -1.99853 0
M  V30 11700 H 1070.6 -0.261466 -0.91123 0
M  V30 11701 H 1070.31 -0.387595 -3.49558 0
M  V30 11702 H 1070.18 1.3625 -3.51733 0
M  V30 11703 H 1072.57 1.50852 -2.53629 0
M  V30 11704 H 1072.65 -0.259014 -2.54485 0
M  V30 11705 H 1072.3 -0.240809 -5.07329 0
M  V30 11706 H 1072.23 1.53894 -5.03611 0
M  V30 11707 H 1074.72 0.7121 -3.7113 0
M  V30 11708 H 1075.03 0.837378 -7.6825 0
M  V30 11709 H 1073.37 0.759986 -6.90832 0
M  V30 11710 H 1076.57 0.799183 -4.61227 0
M  V30 11711 H 1076.74 0.856537 -6.42314 0
M  V30 11712 N 1070.14 1.51827 0.422667 0
M  V30 11713 C 1071.56 1.40328 0.760275 0
M  V30 11714 C 1071.76 0.497119 1.95272 0
M  V30 11715 O 1070.82 -0.0422083 2.52465 0
M  V30 11716 C 1072.13 2.82622 1.02689 0
M  V30 11717 C 1073.68 2.91874 1.13044 0
M  V30 11718 C 1074.15 4.35107 1.4299 0
M  V30 11719 N 1075.64 4.3828 1.49883 0
M  V30 11720 C 1076.38 5.46153 1.74655 0
M  V30 11721 N 1075.87 6.64165 1.9712 0
M  V30 11722 N 1077.67 5.33651 1.76558 0
M  V30 11723 H 1069.82 2.09285 -0.362455 0
M  V30 11724 H 1072.08 0.94273 -0.0998161 0
M  V30 11725 H 1071.79 3.50991 0.223226 0
M  V30 11726 H 1071.66 3.22844 1.95068 0
M  V30 11727 H 1074.05 2.23694 1.92471 0
M  V30 11728 H 1074.13 2.55128 0.185326 0
M  V30 11729 H 1073.77 5.03841 0.640848 0
M  V30 11730 H 1073.7 4.69377 2.38731 0
M  V30 11731 H 1076.19 3.53206 1.34366 0
M  V30 11732 H 1076.51 7.42165 2.15434 0
M  V30 11733 H 1074.85 6.67255 1.94413 0
M  V30 11734 H 1078.04 4.40436 1.58536 0
M  V30 11735 H 1078.22 6.17798 1.95525 0
M  V30 11736 N 1071.62 -0.679052 1.4222 0
M  V30 11737 C 1073.04 -0.991665 1.25053 0
M  V30 11738 C 1073.24 -2.00928 0.151665 0
M  V30 11739 O 1072.29 -2.47925 -0.478507 0
M  V30 11740 C 1073.61 -1.50053 2.60585 0
M  V30 11741 C 1075.16 -1.61852 2.67905 0
M  V30 11742 C 1075.63 -2.16135 4.03794 0
M  V30 11743 N 1077.12 -2.23474 4.05726 0
M  V30 11744 C 1077.86 -2.66541 5.07685 0
M  V30 11745 N 1077.35 -3.09092 6.20028 0
M  V30 11746 N 1079.15 -2.66252 4.95042 0
M  V30 11747 H 1071.3 -0.00521851 2.12399 0
M  V30 11748 H 1073.56 -0.0648465 0.94578 0
M  V30 11749 H 1073.27 -0.82731 3.41831 0
M  V30 11750 H 1073.14 -2.47998 2.84213 0
M  V30 11751 H 1075.53 -2.28281 1.87008 0
M  V30 11752 H 1075.61 -0.624074 2.4807 0
M  V30 11753 H 1075.25 -1.50316 4.85147 0
M  V30 11754 H 1075.18 -3.16363 4.20978 0
M  V30 11755 H 1077.67 -1.93467 3.24621 0
M  V30 11756 H 1077.99 -3.40627 6.93681 0
M  V30 11757 H 1076.33 -3.06959 6.23539 0
M  V30 11758 H 1079.52 -2.32369 4.06352 0
M  V30 11759 H 1079.69 -2.99496 5.74636 0
M  V30 11760 N 1073.1 -1.28322 -0.914942 0
M  V30 11761 C 1074.01 -1.13993 -2.05043 0
M  V30 11762 C 1075.03 -0.0667921 -1.73872 0
M  V30 11763 O 1076.2 -0.275845 -1.99502 0
M  V30 11764 C 1073.27 -0.801856 -3.373 0
M  V30 11765 C 1072.33 -1.95723 -3.82088 0
M  V30 11766 C 1071.56 -1.63519 -5.08033 0
M  V30 11767 O 1071.78 -0.54899 -5.67752 0
M  V30 11768 O 1070.72 -2.47844 -5.48504 0
M  V30 11769 H 1074.54 -2.09313 -2.2005 0
M  V30 11770 H 1072.13 -1.0763 -1.03616 0
M  V30 11771 H 1074.01 -0.627214 -4.16706 0
M  V30 11772 H 1072.69 0.121696 -3.23471 0
M  V30 11773 H 1071.59 -2.18702 -3.03514 0
M  V30 11774 H 1072.93 -2.86144 -4.00478 0
M  V30 11775 N 1074.58 1.12322 -1.10551 0
M  V30 11776 C 1075.51 2.17819 -0.713263 0
M  V30 11777 C 1076.52 1.6086 0.250604 0
M  V30 11778 O 1077.71 1.78466 0.0348909 0
M  V30 11779 C 1074.81 3.38885 -0.0320325 0
M  V30 11780 C 1073.99 4.25332 -1.02038 0
M  V30 11781 C 1073.04 5.24895 -0.370412 0
M  V30 11782 O 1072.07 5.59958 -1.02157 0
M  V30 11783 N 1073.27 5.73934 0.870633 0
M  V30 11784 H 1076.04 2.52083 -1.62094 0
M  V30 11785 H 1073.6 1.27755 -0.994492 0
M  V30 11786 H 1075.59 4.02574 0.414285 0
M  V30 11787 H 1074.16 3.02762 0.778072 0
M  V30 11788 H 1073.38 3.5824 -1.64492 0
M  V30 11789 H 1074.67 4.79936 -1.68936 0
M  V30 11790 H 1074.07 5.47614 1.419 0
M  V30 11791 H 1072.62 6.39504 1.26008 0
M  V30 11792 N 1076.06 0.894434 1.2976 0
M  V30 11793 C 1076.97 0.372622 2.31622 0
M  V30 11794 C 1077.98 -0.52996 1.65733 0
M  V30 11795 O 1079.16 -0.420807 1.96955 0
M  V30 11796 C 1076.22 -0.396076 3.4443 0
M  V30 11797 C 1075.28 0.537394 4.25923 0
M  V30 11798 C 1074.52 -0.194713 5.33345 0
M  V30 11799 O 1074.74 -1.41943 5.52457 0
M  V30 11800 O 1073.67 0.460055 6.00139 0
M  V30 11801 H 1077.5 1.21756 2.78225 0
M  V30 11802 H 1075.09 0.65858 1.34101 0
M  V30 11803 H 1076.97 -0.830962 4.13126 0
M  V30 11804 H 1075.64 -1.21716 2.99945 0
M  V30 11805 H 1074.55 1.02129 3.5989 0
M  V30 11806 H 1075.88 1.32475 4.74037 0
M  V30 11807 N 1077.53 -1.43282 0.656365 0
M  V30 11808 C 1078.95 -1.56272 0.324213 0
M  V30 11809 C 1079.15 -1.63946 -1.1715 0
M  V30 11810 O 1078.21 -1.59625 -1.95643 0
M  V30 11811 C 1079.52 -2.82204 1.03833 0
M  V30 11812 C 1081.07 -2.95952 1.01889 0
M  V30 11813 C 1081.54 -4.2472 1.71397 0
M  V30 11814 N 1083.03 -4.31591 1.68176 0
M  V30 11815 C 1083.77 -5.30001 2.1883 0
M  V30 11816 N 1083.26 -6.34671 2.77785 0
M  V30 11817 N 1085.06 -5.21676 2.09311 0
M  V30 11818 H 1077.21 -1.36544 1.62694 0
M  V30 11819 H 1079.47 -0.655999 0.684375 0
M  V30 11820 H 1079.18 -2.82608 2.09346 0
M  V30 11821 H 1079.05 -3.72527 0.591878 0
M  V30 11822 H 1081.44 -2.95087 -0.0278431 0
M  V30 11823 H 1081.52 -2.0691 1.50406 0
M  V30 11824 H 1081.16 -4.26346 2.76028 0
M  V30 11825 H 1081.09 -5.12665 1.20342 0
M  V30 11826 H 1083.58 -3.56573 1.25157 0
M  V30 11827 H 1083.9 -7.06087 3.14104 0
M  V30 11828 H 1082.24 -6.35285 2.81847 0
M  V30 11829 H 1085.43 -4.3882 1.62955 0
M  V30 11830 H 1085.61 -5.9821 2.49095 0
M  V30 11831 N 1079.01 -0.398486 -1.52479 0
M  V30 11832 C 1079.94 0.423498 -2.29627 0
M  V30 11833 C 1080.92 1.05547 -1.33394 0
M  V30 11834 O 1082.11 1.0665 -1.62294 0
M  V30 11835 C 1079.24 1.54612 -3.10986 0
M  V30 11836 C 1078.19 1.03971 -4.15179 0
M  V30 11837 C 1077.52 2.25512 -4.84818 0
M  V30 11838 C 1078.82 0.10121 -5.22202 0
M  V30 11839 H 1080.51 -0.220222 -2.98589 0
M  V30 11840 H 1078.06 -0.107355 -1.43599 0
M  V30 11841 H 1080.01 2.12806 -3.63719 0
M  V30 11842 H 1078.74 2.21756 -2.39774 0
M  V30 11843 H 1077.4 0.480251 -3.63441 0
M  V30 11844 H 1077.04 2.91187 -4.10145 0
M  V30 11845 H 1076.74 1.92285 -5.55248 0
M  V30 11846 H 1078.27 2.84331 -5.40359 0
M  V30 11847 H 1079.68 0.591617 -5.70239 0
M  V30 11848 H 1078.08 -0.141737 -5.99933 0
M  V30 11849 H 1079.15 -0.847216 -4.77441 0
M  V30 11850 N 1080.49 1.57075 -0.12858 0
M  V30 11851 C 1081.42 2.12907 0.848708 0
M  V30 11852 C 1082.44 1.07406 1.22343 0
M  V30 11853 O 1083.63 1.34746 1.17071 0
M  V30 11854 C 1080.73 2.62167 2.1476 0
M  V30 11855 C 1079.9 3.91871 1.94309 0
M  V30 11856 C 1078.96 4.26629 3.08016 0
M  V30 11857 O 1077.98 4.9528 2.80511 0
M  V30 11858 N 1079.19 3.84721 4.34706 0
M  V30 11859 H 1081.95 2.97387 0.371636 0
M  V30 11860 H 1079.51 1.61805 0.0555574 0
M  V30 11861 H 1081.5 2.82444 2.89841 0
M  V30 11862 H 1080.07 1.82514 2.53786 0
M  V30 11863 H 1079.29 3.80406 1.03367 0
M  V30 11864 H 1080.58 4.76662 1.77962 0
M  V30 11865 H 1079.98 3.2937 4.59926 0
M  V30 11866 H 1078.54 4.10087 5.06628 0
M  V30 11867 N 1081.97 -0.145205 1.5693 0
M  V30 11868 C 1082.93 -1.16316 1.97492 0
M  V30 11869 C 1083.93 -1.35764 0.861668 0
M  V30 11870 O 1085.12 -1.32726 1.12825 0
M  V30 11871 C 1082.25 -2.52311 2.29242 0
M  V30 11872 H 1083.45 -0.815138 2.8861 0
M  V30 11873 H 1081 -0.38861 1.51392 0
M  V30 11874 H 1081.74 -2.92081 1.40922 0
M  V30 11875 H 1081.52 -2.39555 3.10412 0
M  V30 11876 H 1083.01 -3.25624 2.61456 0
M  V30 11877 N 1083.45 -1.52049 -0.414609 0
M  V30 11878 C 1084.36 -1.7788 -1.52958 0
M  V30 11879 C 1085.37 -0.66408 -1.60829 0
M  V30 11880 O 1086.55 -0.948882 -1.77646 0
M  V30 11881 C 1083.61 -1.91906 -2.88744 0
M  V30 11882 C 1082.68 -3.15803 -2.90804 0
M  V30 11883 C 1081.91 -3.29151 -4.20114 0
M  V30 11884 O 1082.13 -2.47892 -5.13718 0
M  V30 11885 O 1081.07 -4.2227 -4.28919 0
M  V30 11886 H 1084.89 -2.72506 -1.34067 0
M  V30 11887 H 1082.48 -1.36826 -0.599918 0
M  V30 11888 H 1084.36 -2.02986 -3.6929 0
M  V30 11889 H 1083.03 -1.00468 -3.07714 0
M  V30 11890 H 1081.94 -3.10185 -2.09131 0
M  V30 11891 H 1083.27 -4.07004 -2.76783 0
M  V30 11892 N 1084.93 0.6715 -1.42579 0
M  V30 11893 C 1086.34 0.985019 -1.25577 0
M  V30 11894 C 1086.54 2.00845 -0.162319 0
M  V30 11895 O 1085.6 2.48175 0.465352 0
M  V30 11896 C 1086.91 1.48668 -2.61377 0
M  V30 11897 C 1088.46 1.60429 -2.68759 0
M  V30 11898 C 1088.93 2.13991 -4.04935 0
M  V30 11899 N 1090.42 2.21319 -4.06906 0
M  V30 11900 C 1091.16 2.63845 -5.09091 0
M  V30 11901 N 1090.66 3.05799 -6.21658 0
M  V30 11902 N 1092.45 2.63623 -4.96447 0
M  V30 11903 H 1084.6 -0.00604561 -2.12399 0
M  V30 11904 H 1086.86 0.0598299 -0.94611 0
M  V30 11905 H 1086.57 0.80917 -3.42265 0
M  V30 11906 H 1086.44 2.46487 -2.85524 0
M  V30 11907 H 1088.83 2.27286 -1.88216 0
M  V30 11908 H 1088.91 0.610909 -2.48398 0
M  V30 11909 H 1088.55 1.47741 -4.85937 0
M  V30 11910 H 1088.48 3.14126 -4.2265 0
M  V30 11911 H 1090.98 1.91743 -3.25643 0
M  V30 11912 H 1091.29 3.36944 -6.95477 0
M  V30 11913 H 1089.63 3.03648 -6.25158 0
M  V30 11914 H 1092.82 2.30211 -4.07579 0
M  V30 11915 H 1093 2.96444 -5.76216 0
M  V30 11916 N 1086.4 1.28806 0.908124 0
M  V30 11917 C 1087.31 1.15079 2.04436 0
M  V30 11918 C 1088.33 0.076012 1.73834 0
M  V30 11919 O 1089.51 0.286421 1.99353 0
M  V30 11920 C 1086.57 0.819733 3.3687 0
M  V30 11921 C 1085.63 1.97746 3.81045 0
M  V30 11922 C 1084.86 1.66211 5.07158 0
M  V30 11923 O 1085.09 0.579092 5.67453 0
M  V30 11924 O 1084.02 2.5075 5.47182 0
M  V30 11925 H 1087.85 2.10477 2.18937 0
M  V30 11926 H 1085.43 1.08177 1.03044 0
M  V30 11927 H 1087.31 0.649304 4.16368 0
M  V30 11928 H 1085.99 -0.10454 3.23531 0
M  V30 11929 H 1084.9 2.20308 3.02349 0
M  V30 11930 H 1086.23 2.88264 3.98955 0
M  V30 11931 N 1087.88 -1.11734 1.11145 0
M  V30 11932 C 1088.81 -2.1976 0.789152 0
M  V30 11933 C 1089.79 -1.68382 -0.241143 0
M  V30 11934 O 1090.98 -1.93914 -0.105292 0
M  V30 11935 C 1088.11 -3.46549 0.228204 0
M  V30 11936 C 1087.06 -4.11123 1.19002 0
M  V30 11937 C 1086.39 -5.32451 0.489928 0
M  V30 11938 C 1087.69 -4.56406 2.53951 0
M  V30 11939 H 1089.38 -2.46978 1.69241 0
M  V30 11940 H 1086.93 -1.18705 0.81517 0
M  V30 11941 H 1088.88 -4.21399 -0.00945908 0
M  V30 11942 H 1087.6 -3.18782 -0.71033 0
M  V30 11943 H 1086.26 -3.38264 1.41326 0
M  V30 11944 H 1085.91 -5.00953 -0.453315 0
M  V30 11945 H 1085.61 -5.76605 1.1314 0
M  V30 11946 H 1087.14 -6.10042 0.260984 0
M  V30 11947 H 1088.55 -5.22592 2.35733 0
M  V30 11948 H 1086.95 -5.11363 3.14051 0
M  V30 11949 H 1088.02 -3.7001 3.13402 0
M  V30 11950 N 1089.36 -0.901303 -1.29284 0
M  V30 11951 C 1090.29 -0.337552 -2.26701 0
M  V30 11952 C 1091.3 0.517039 -1.54371 0
M  V30 11953 O 1092.49 0.333937 -1.75349 0
M  V30 11954 C 1089.59 0.537214 -3.34615 0
M  V30 11955 C 1088.77 -0.292017 -4.36424 0
M  V30 11956 C 1087.83 0.515837 -5.23666 0
M  V30 11957 O 1086.85 -0.0672303 -5.6916 0
M  V30 11958 N 1088.05 1.82159 -5.51179 0
M  V30 11959 H 1090.82 -1.17484 -2.75713 0
M  V30 11960 H 1088.38 -0.765957 -1.42635 0
M  V30 11961 H 1090.37 1.0841 -3.8991 0
M  V30 11962 H 1088.94 1.2752 -2.85408 0
M  V30 11963 H 1088.16 -1.02031 -3.80767 0
M  V30 11964 H 1089.45 -0.859855 -5.01482 0
M  V30 11965 H 1088.85 2.318 -5.16028 0
M  V30 11966 H 1087.4 2.31556 -6.09282 0
M  V30 11967 N 1090.84 1.42931 -0.663954 0
M  V30 11968 C 1091.75 2.3459 0.0214234 0
M  V30 11969 C 1092.76 1.54487 0.800611 0
M  V30 11970 O 1093.94 1.87098 0.74541 0
M  V30 11971 C 1091 3.32896 0.968556 0
M  V30 11972 C 1090.07 4.28901 0.185108 0
M  V30 11973 C 1089.3 5.2251 1.08713 0
M  V30 11974 O 1089.52 5.20795 2.32655 0
M  V30 11975 O 1088.46 5.99347 0.553758 0
M  V30 11976 H 1092.28 2.94714 -0.733308 0
M  V30 11977 H 1089.87 1.43252 -0.424159 0
M  V30 11978 H 1091.75 3.93318 1.51257 0
M  V30 11979 H 1090.42 2.75261 1.70333 0
M  V30 11980 H 1089.33 3.71926 -0.402752 0
M  V30 11981 H 1090.66 4.89547 -0.510319 0
M  V30 11982 N 1092.32 0.406567 1.52266 0
M  V30 11983 C 1093.73 0.0573228 1.59497 0
M  V30 11984 C 1093.93 -1.43005 1.41957 0
M  V30 11985 O 1092.99 -2.19659 1.24523 0
M  V30 11986 C 1094.3 0.549947 2.95628 0
M  V30 11987 C 1095.85 0.5077 3.08855 0
M  V30 11988 C 1096.32 0.976792 4.47463 0
M  V30 11989 N 1097.81 0.933508 4.53696 0
M  V30 11990 C 1098.55 1.26769 5.59211 0
M  V30 11991 N 1098.05 1.6732 6.72292 0
M  V30 11992 N 1099.84 1.18782 5.49406 0
M  V30 11993 H 1091.99 1.37468 1.61914 0
M  V30 11994 H 1094.25 0.564562 0.76156 0
M  V30 11995 H 1093.96 1.58943 3.13736 0
M  V30 11996 H 1093.83 -0.0417767 3.77177 0
M  V30 11997 H 1096.22 -0.522728 2.90433 0
M  V30 11998 H 1096.3 1.13545 2.29219 0
M  V30 11999 H 1095.94 2.00554 4.66627 0
M  V30 12000 H 1095.87 0.325885 5.25591 0
M  V30 12001 H 1098.37 0.635333 3.72521 0
M  V30 12002 H 1098.68 1.91137 7.4879 0
M  V30 12003 H 1097.02 1.71221 6.73579 0
M  V30 12004 H 1100.21 0.869906 4.59946 0
M  V30 12005 H 1100.39 1.45157 6.31533 0
M  V30 12006 N 1093.79 -1.57004 0.136909 0
M  V30 12007 C 1094.7 -2.19807 -0.819887 0
M  V30 12008 C 1095.72 -1.17939 -1.27932 0
M  V30 12009 O 1096.9 -1.50478 -1.3386 0
M  V30 12010 C 1093.96 -2.79935 -2.04542 0
M  V30 12011 C 1093.02 -3.96897 -1.6362 0
M  V30 12012 C 1092.26 -4.54148 -2.80331 0
M  V30 12013 O 1092.48 -4.10282 -3.96264 0
M  V30 12014 O 1091.41 -5.44565 -2.56384 0
M  V30 12015 H 1095.24 -3.02058 -0.315337 0
M  V30 12016 H 1092.82 -1.49131 -0.0896151 0
M  V30 12017 H 1094.71 -3.18191 -2.76283 0
M  V30 12018 H 1093.38 -2.00703 -2.53969 0
M  V30 12019 H 1092.29 -3.63376 -0.889316 0
M  V30 12020 H 1093.62 -4.77618 -1.18918 0
M  V30 12021 N 1095.27 0.136881 -1.57004 0
M  V30 12022 C 1096.22 1.16869 -1.99023 0
M  V30 12023 C 1097.19 1.42137 -0.859435 0
M  V30 12024 O 1098.37 1.54303 -1.12229 0
M  V30 12025 C 1095.51 2.49466 -2.38455 0
M  V30 12026 C 1094.63 2.31286 -3.64871 0
M  V30 12027 C 1093.76 3.56989 -3.9336 0
M  V30 12028 C 1092.8 3.33889 -5.13015 0
M  V30 12029 N 1091.94 4.51748 -5.37464 0
M  V30 12030 H 1096.78 0.803366 -2.86967 0
M  V30 12031 H 1094.32 0.385216 -1.41967 0
M  V30 12032 H 1096.27 3.26794 -2.59348 0
M  V30 12033 H 1094.9 2.83926 -1.53577 0
M  V30 12034 H 1093.96 1.44962 -3.51696 0
M  V30 12035 H 1095.27 2.10183 -4.52355 0
M  V30 12036 H 1094.42 4.42742 -4.14806 0
M  V30 12037 H 1093.16 3.81106 -3.04318 0
M  V30 12038 H 1092.17 2.46525 -4.91432 0
M  V30 12039 H 1093.39 3.1116 -6.03619 0
M  V30 12040 H 1091.34 4.76019 -4.51377 0
M  V30 12041 H 1091.25 4.33684 -6.19237 0
M  V30 12042 H 1092.52 5.38686 -5.63416 0
M  V30 12043 N 1096.75 1.52266 0.40654 0
M  V30 12044 C 1097.71 1.75168 1.47814 0
M  V30 12045 C 1098.71 0.621575 1.48301 0
M  V30 12046 O 1099.9 0.889476 1.4978 0
M  V30 12047 C 1097.04 1.83642 2.87208 0
M  V30 12048 H 1098.23 2.70834 1.28798 0
M  V30 12049 H 1095.78 1.42722 0.637196 0
M  V30 12050 H 1096.52 0.898994 3.1159 0
M  V30 12051 H 1096.3 2.65801 2.88257 0
M  V30 12052 H 1097.79 2.03093 3.64888 0
M  V30 12053 N 1098.23 -0.663929 1.42933 0
M  V30 12054 C 1099.16 -1.78899 1.50058 0
M  V30 12055 C 1100.14 -1.66329 0.356164 0
M  V30 12056 O 1101.32 -1.85587 0.571944 0
M  V30 12057 C 1098.45 -3.17265 1.41281 0
M  V30 12058 C 1097.41 -3.44584 2.53861 0
M  V30 12059 C 1096.73 -4.82638 2.3014 0
M  V30 12060 C 1098.03 -3.40394 3.96143 0
M  V30 12061 H 1099.73 -1.73194 2.44222 0
M  V30 12062 H 1097.27 -0.83182 1.17545 0
M  V30 12063 H 1099.23 -3.95715 1.44872 0
M  V30 12064 H 1097.95 -3.23675 0.43616 0
M  V30 12065 H 1096.61 -2.685 2.49606 0
M  V30 12066 H 1096.26 -4.85711 1.30743 0
M  V30 12067 H 1095.96 -5.01879 3.056 0
M  V30 12068 H 1097.48 -5.63359 2.35497 0
M  V30 12069 H 1098.9 -4.08796 4.01943 0
M  V30 12070 H 1097.29 -3.7117 4.71543 0
M  V30 12071 H 1098.36 -2.38767 4.22041 0
M  V30 12072 N 1099.71 -1.29285 -0.901281 0
M  V30 12073 C 1101.12 -1.07263 -1.18182 0
M  V30 12074 C 1101.32 0.177087 -2.0072 0
M  V30 12075 O 1100.38 0.875292 -2.36844 0
M  V30 12076 C 1101.69 -2.32717 -1.9043 0
M  V30 12077 C 1103.24 -2.3802 -2.03262 0
M  V30 12078 C 1103.71 -3.63273 -2.7892 0
M  V30 12079 N 1105.21 -3.63986 -2.86475 0
M  V30 12080 C 1105.94 -4.57585 -3.45549 0
M  V30 12081 N 1105.44 -5.61513 -4.05801 0
M  V30 12082 N 1107.23 -4.45157 -3.43208 0
M  V30 12083 H 1099.38 -2.09487 -0.350536 0
M  V30 12084 H 1101.64 -0.922647 -0.217778 0
M  V30 12085 H 1101.35 -3.23828 -1.37216 0
M  V30 12086 H 1101.22 -2.40102 -2.90913 0
M  V30 12087 H 1103.61 -1.47398 -2.55652 0
M  V30 12088 H 1103.69 -2.3462 -1.01916 0
M  V30 12089 H 1103.34 -4.54246 -2.27206 0
M  V30 12090 H 1103.27 -3.6393 -3.80608 0
M  V30 12091 H 1105.76 -2.8884 -2.43679 0
M  V30 12092 H 1106.07 -6.29058 -4.48894 0
M  V30 12093 H 1104.41 -5.65325 -4.04268 0
M  V30 12094 H 1107.61 -3.63158 -2.95354 0
M  V30 12095 H 1107.78 -5.18286 -3.88952 0
M  V30 12096 N 1101.18 1.11143 -1.11736 0
M  V30 12097 C 1102.11 2.19339 -0.800795 0
M  V30 12098 C 1103.1 1.68508 0.23221 0
M  V30 12099 O 1104.28 1.93967 0.0950063 0
M  V30 12100 C 1101.41 3.46424 -0.246579 0
M  V30 12101 C 1100.36 4.10487 -1.21181 0
M  V30 12102 C 1099.69 5.32183 -0.518158 0
M  V30 12103 C 1100.99 4.55052 -2.56368 0
M  V30 12104 H 1102.68 2.46077 -1.70548 0
M  V30 12105 H 1100.23 1.18271 -0.821454 0
M  V30 12106 H 1102.18 4.21398 -0.0128889 0
M  V30 12107 H 1100.91 3.19154 0.693415 0
M  V30 12108 H 1099.57 3.3751 -1.43118 0
M  V30 12109 H 1099.21 5.01187 0.426742 0
M  V30 12110 H 1098.91 5.75997 -1.16196 0
M  V30 12111 H 1100.44 6.09895 -0.293333 0
M  V30 12112 H 1101.85 5.21335 -2.38501 0
M  V30 12113 H 1100.25 5.0969 -3.16758 0
M  V30 12114 H 1101.32 3.68343 -3.1536 0
M  V30 12115 N 1102.66 0.908147 1.28804 0
M  V30 12116 C 1103.59 0.34957 2.26519 0
M  V30 12117 C 1104.61 -0.508845 1.54643 0
M  V30 12118 O 1105.8 -0.324633 1.75523 0
M  V30 12119 C 1102.9 -0.519461 3.34895 0
M  V30 12120 C 1102.07 0.315157 4.36263 0
M  V30 12121 C 1101.13 -0.488059 5.23932 0
M  V30 12122 O 1100.15 0.0974133 5.69117 0
M  V30 12123 N 1101.36 -1.79233 5.52137 0
M  V30 12124 H 1104.12 1.18945 2.75086 0
M  V30 12125 H 1101.68 0.77351 1.42227 0
M  V30 12126 H 1103.67 -1.0634 3.90479 0
M  V30 12127 H 1102.24 -1.26004 2.8608 0
M  V30 12128 H 1101.46 1.04049 3.8022 0
M  V30 12129 H 1102.75 0.886438 5.01019 0
M  V30 12130 H 1102.15 -2.2906 5.1725 0
M  V30 12131 H 1100.71 -2.28322 6.10502 0
M  V30 12132 N 1104.14 -1.42577 0.671525 0
M  V30 12133 C 1105.09 -2.30798 -0.00883676 0
M  V30 12134 C 1106.06 -1.4578 -0.796076 0
M  V30 12135 O 1107.24 -1.74617 -0.768987 0
M  V30 12136 C 1104.38 -3.31581 -0.956452 0
M  V30 12137 C 1103.5 -4.31691 -0.163381 0
M  V30 12138 C 1102.63 -5.19549 -1.10645 0
M  V30 12139 C 1101.67 -6.1134 -0.304876 0
M  V30 12140 N 1100.81 -6.91761 -1.20048 0
M  V30 12141 H 1105.65 -2.88426 0.749301 0
M  V30 12142 H 1103.18 -1.42074 0.381251 0
M  V30 12143 H 1105.14 -3.88539 -1.51966 0
M  V30 12144 H 1103.77 -2.75561 -1.68126 0
M  V30 12145 H 1102.82 -3.76879 0.516396 0
M  V30 12146 H 1104.14 -4.96683 0.459099 0
M  V30 12147 H 1103.29 -5.81223 -1.73969 0
M  V30 12148 H 1102.03 -4.54726 -1.76282 0
M  V30 12149 H 1101.03 -5.48738 0.341597 0
M  V30 12150 H 1102.26 -6.78211 0.347352 0
M  V30 12151 H 1100.2 -6.2957 -1.84331 0
M  V30 12152 H 1100.12 -7.53345 -0.633003 0
M  V30 12153 H 1101.39 -7.57924 -1.82129 0
M  V30 12154 N 1105.62 -0.414636 -1.52048 0
M  V30 12155 C 1106.53 0.414861 -2.30903 0
M  V30 12156 C 1107.54 1.04855 -1.38858 0
M  V30 12157 O 1108.72 1.04886 -1.71933 0
M  V30 12158 C 1105.79 1.51356 -3.11917 0
M  V30 12159 C 1104.85 0.902359 -4.19709 0
M  V30 12160 C 1104.08 1.9487 -4.96852 0
M  V30 12161 O 1104.3 3.16766 -4.74358 0
M  V30 12162 O 1103.24 1.55186 -5.8155 0
M  V30 12163 H 1107.06 -0.228251 -3.02841 0
M  V30 12164 H 1104.65 -0.177704 -1.48339 0
M  V30 12165 H 1106.53 2.15127 -3.62351 0
M  V30 12166 H 1105.2 2.14117 -2.42767 0
M  V30 12167 H 1104.11 0.22721 -3.73409 0
M  V30 12168 H 1105.44 0.318587 -4.91168 0
M  V30 12169 N 1107.1 1.56929 -0.145233 0
M  V30 12170 C 1108.03 2.13796 0.826078 0
M  V30 12171 C 1109.04 1.08697 1.21197 0
M  V30 12172 O 1110.23 1.3598 1.15635 0
M  V30 12173 C 1107.33 2.6443 2.11967 0
M  V30 12174 C 1106.5 3.9391 1.90142 0
M  V30 12175 C 1105.56 4.29872 3.03474 0
M  V30 12176 O 1104.59 4.98227 2.75242 0
M  V30 12177 N 1105.79 3.8931 4.30602 0
M  V30 12178 H 1108.56 2.97764 0.340073 0
M  V30 12179 H 1106.12 1.61854 0.0383928 0
M  V30 12180 H 1108.11 2.85502 2.86829 0
M  V30 12181 H 1106.68 1.85196 2.51836 0
M  V30 12182 H 1105.9 3.81481 0.993268 0
M  V30 12183 H 1107.19 4.78523 1.72896 0
M  V30 12184 H 1106.58 3.34229 4.56407 0
M  V30 12185 H 1105.14 4.15438 5.0225 0
M  V30 12186 N 1108.58 -0.128553 1.57075 0
M  V30 12187 C 1109.51 -1.15953 2.02675 0
M  V30 12188 C 1110.49 -1.43743 0.909501 0
M  V30 12189 O 1111.67 -1.54348 1.17857 0
M  V30 12190 C 1108.8 -2.48813 2.423 0
M  V30 12191 C 1107.76 -2.35506 3.57381 0
M  V30 12192 C 1107.08 -3.73243 3.82875 0
M  V30 12193 C 1108.38 -1.82359 4.89431 0
M  V30 12194 H 1110.08 -0.780283 2.89054 0
M  V30 12195 H 1107.62 -0.373896 1.39061 0
M  V30 12196 H 1109.57 -3.21179 2.72804 0
M  V30 12197 H 1108.3 -2.88609 1.52881 0
M  V30 12198 H 1106.96 -1.6559 3.27071 0
M  V30 12199 H 1106.61 -4.10507 2.90677 0
M  V30 12200 H 1106.31 -3.65195 4.60333 0
M  V30 12201 H 1107.83 -4.47128 4.15823 0
M  V30 12202 H 1109.24 -2.44533 5.18533 0
M  V30 12203 H 1107.64 -1.85156 5.70822 0
M  V30 12204 H 1108.71 -0.780478 4.78578 0
M  V30 12205 N 1110.05 -1.5248 -0.398459 0
M  V30 12206 C 1110.99 -1.72826 -1.50545 0
M  V30 12207 C 1112 -0.608683 -1.50993 0
M  V30 12208 O 1113.19 -0.88413 -1.55066 0
M  V30 12209 C 1110.29 -1.76327 -2.89417 0
M  V30 12210 C 1109.46 -3.05491 -3.1304 0
M  V30 12211 C 1108.52 -3.00663 -4.31843 0
M  V30 12212 O 1107.55 -3.74548 -4.28605 0
M  V30 12213 N 1108.75 -2.19191 -5.37527 0
M  V30 12214 H 1111.51 -2.68333 -1.33482 0
M  V30 12215 H 1109.07 -1.5085 -0.587875 0
M  V30 12216 H 1111.07 -1.70616 -3.66977 0
M  V30 12217 H 1109.64 -0.882476 -2.99885 0
M  V30 12218 H 1108.86 -3.24767 -2.23428 0
M  V30 12219 H 1110.14 -3.90915 -3.25673 0
M  V30 12220 H 1109.54 -1.58613 -5.43009 0
M  V30 12221 H 1108.1 -2.19328 -6.1379 0
M  V30 12222 N 1111.53 0.65634 -1.43283 0
M  V30 12223 C 1112.95 0.971645 -1.26614 0
M  V30 12224 C 1113.15 2.00662 -0.183612 0
M  V30 12225 O 1112.2 2.48654 0.439003 0
M  V30 12226 C 1113.52 1.45888 -2.6294 0
M  V30 12227 C 1115.06 1.57569 -2.70446 0
M  V30 12228 C 1115.54 2.09684 -4.07181 0
M  V30 12229 N 1117.03 2.16991 -4.0923 0
M  V30 12230 C 1117.77 2.5843 -5.11861 0
M  V30 12231 N 1117.26 2.99188 -6.24867 0
M  V30 12232 N 1119.05 2.58342 -4.99215 0
M  V30 12233 H 1111.21 -0.028573 -2.12381 0
M  V30 12234 H 1113.47 0.0497918 -0.946691 0
M  V30 12235 H 1113.17 0.772823 -3.43104 0
M  V30 12236 H 1113.05 2.43445 -2.88122 0
M  V30 12237 H 1115.44 2.25277 -1.90616 0
M  V30 12238 H 1115.52 0.584529 -2.49032 0
M  V30 12239 H 1115.16 1.42579 -4.87477 0
M  V30 12240 H 1115.09 3.09625 -4.25958 0
M  V30 12241 H 1117.58 1.88278 -3.27658 0
M  V30 12242 H 1117.89 3.29549 -6.99012 0
M  V30 12243 H 1116.24 2.97 -6.28344 0
M  V30 12244 H 1119.43 2.25875 -4.09998 0
M  V30 12245 H 1119.6 2.90316 -5.79328 0
M  V30 12246 N 1113.01 1.29761 0.894412 0
M  V30 12247 C 1113.92 1.1724 2.03204 0
M  V30 12248 C 1114.94 0.0944452 1.73743 0
M  V30 12249 O 1116.11 0.307549 1.99038 0
M  V30 12250 C 1113.18 0.855416 3.35981 0
M  V30 12251 C 1112.24 2.01777 3.78926 0
M  V30 12252 C 1111.47 1.71581 5.05367 0
M  V30 12253 O 1111.69 0.639245 5.66807 0
M  V30 12254 O 1110.63 2.56539 5.44492 0
M  V30 12255 H 1114.45 2.12787 2.16692 0
M  V30 12256 H 1112.04 1.09264 1.0189 0
M  V30 12257 H 1113.92 0.693429 4.15656 0
M  V30 12258 H 1112.6 -0.0702195 3.23624 0
M  V30 12259 H 1111.5 2.23502 2.99996 0
M  V30 12260 H 1112.84 2.92479 3.95875 0
M  V30 12261 N 1114.49 -1.10549 1.12324 0
M  V30 12262 C 1115.42 -2.18911 0.812416 0
M  V30 12263 C 1116.4 -1.68628 -0.22327 0
M  V30 12264 O 1117.58 -1.94015 -0.0847184 0
M  V30 12265 C 1114.71 -3.46288 0.264947 0
M  V30 12266 C 1113.67 -4.09838 1.23356 0
M  V30 12267 C 1112.99 -5.31901 0.546374 0
M  V30 12268 C 1114.29 -4.53686 2.58778 0
M  V30 12269 H 1115.99 -2.45169 1.71851 0
M  V30 12270 H 1113.53 -1.17834 0.827715 0
M  V30 12271 H 1115.49 -4.21385 0.0352364 0
M  V30 12272 H 1114.21 -3.19517 -0.676479 0
M  V30 12273 H 1112.87 -3.36746 1.44906 0
M  V30 12274 H 1112.52 -5.01406 -0.400157 0
M  V30 12275 H 1112.22 -5.75372 1.19249 0
M  V30 12276 H 1113.74 -6.09731 0.325673 0
M  V30 12277 H 1115.16 -5.20063 2.41263 0
M  V30 12278 H 1113.55 -5.08003 3.19457 0
M  V30 12279 H 1114.62 -3.66665 3.17309 0
M  V30 12280 N 1115.97 -0.914965 -1.28321 0
M  V30 12281 C 1116.88 -0.409424 -2.31 0
M  V30 12282 C 1117.89 0.503526 -1.66555 0
M  V30 12283 O 1119.07 0.38942 -1.97599 0
M  V30 12284 C 1116.13 0.34123 -3.45017 0
M  V30 12285 C 1115.19 -0.605087 -4.25014 0
M  V30 12286 C 1114.43 0.109837 -5.33587 0
M  V30 12287 O 1114.65 1.33136 -5.54645 0
M  V30 12288 O 1113.58 -0.555474 -5.99331 0
M  V30 12289 H 1117.41 -1.26167 -2.76253 0
M  V30 12290 H 1114.99 -0.679831 -1.33036 0
M  V30 12291 H 1116.88 0.765132 -4.14396 0
M  V30 12292 H 1115.55 1.16929 -3.01843 0
M  V30 12293 H 1114.46 -1.07841 -3.58219 0
M  V30 12294 H 1115.79 -1.39999 -4.7187 0
M  V30 12295 N 1117.44 1.42219 -0.679077 0
M  V30 12296 C 1118.35 2.346 -0.00345919 0
M  V30 12297 C 1119.37 1.55327 0.784181 0
M  V30 12298 O 1120.55 1.87878 0.725524 0
M  V30 12299 C 1117.61 3.33905 0.933194 0
M  V30 12300 C 1116.67 4.29073 0.139607 0
M  V30 12301 C 1115.9 5.23634 1.03165 0
M  V30 12302 O 1116.13 5.23234 2.27119 0
M  V30 12303 O 1115.06 5.99901 0.490159 0
M  V30 12304 H 1118.89 2.9392 -0.764525 0
M  V30 12305 H 1116.47 1.42794 -0.439329 0
M  V30 12306 H 1118.35 3.949 1.47077 0
M  V30 12307 H 1117.03 2.77052 1.67404 0
M  V30 12308 H 1115.94 3.71478 -0.442177 0
M  V30 12309 H 1117.27 4.88979 -0.562214 0
M  V30 12310 N 1118.92 0.422693 1.51826 0
M  V30 12311 C 1119.87 -0.396088 2.27376 0
M  V30 12312 C 1120.84 -1.02946 1.30351 0
M  V30 12313 O 1122.02 -1.05116 1.59233 0
M  V30 12314 C 1119.16 -1.49942 3.10824 0
M  V30 12315 C 1118.28 -0.885623 4.22825 0
M  V30 12316 C 1117.41 -1.96278 4.93608 0
M  V30 12317 C 1116.45 -1.32664 5.97551 0
M  V30 12318 N 1115.59 -2.34452 6.61798 0
M  V30 12319 H 1120.43 0.254571 2.96911 0
M  V30 12320 H 1117.96 0.137383 1.46457 0
M  V30 12321 H 1119.92 -2.15023 3.57521 0
M  V30 12322 H 1118.55 -2.11991 2.43433 0
M  V30 12323 H 1117.6 -0.123491 3.80199 0
M  V30 12324 H 1118.92 -0.381057 4.97342 0
M  V30 12325 H 1118.07 -2.69055 5.43778 0
M  V30 12326 H 1116.81 -2.50103 4.18688 0
M  V30 12327 H 1115.81 -0.584262 5.46687 0
M  V30 12328 H 1117.04 -0.7959 6.7442 0
M  V30 12329 H 1114.99 -2.87385 5.897 0
M  V30 12330 H 1114.9 -1.88845 7.32034 0
M  V30 12331 H 1116.17 -3.06757 7.16603 0
M  V30 12332 N 1120.4 -1.5685 0.153553 0
M  V30 12333 C 1121.35 -2.1709 -0.783626 0
M  V30 12334 C 1122.32 -1.10567 -1.23952 0
M  V30 12335 O 1123.5 -1.38638 -1.31088 0
M  V30 12336 C 1120.64 -2.80183 -2.01473 0
M  V30 12337 C 1119.75 -4.01117 -1.60403 0
M  V30 12338 C 1118.89 -4.5219 -2.78743 0
M  V30 12339 C 1117.93 -5.65574 -2.34079 0
M  V30 12340 N 1117.07 -6.11235 -3.4545 0
M  V30 12341 H 1121.91 -2.96836 -0.263127 0
M  V30 12342 H 1119.44 -1.46625 -0.11816 0
M  V30 12343 H 1121.4 -3.14912 -2.73654 0
M  V30 12344 H 1120.03 -2.03071 -2.50923 0
M  V30 12345 H 1119.08 -3.72325 -0.779631 0
M  V30 12346 H 1120.39 -4.83243 -1.23605 0
M  V30 12347 H 1119.55 -4.89008 -3.59105 0
M  V30 12348 H 1118.29 -3.69085 -3.18791 0
M  V30 12349 H 1117.29 -5.28326 -1.52158 0
M  V30 12350 H 1118.52 -6.50468 -1.95109 0
M  V30 12351 H 1116.46 -5.31064 -3.85106 0
M  V30 12352 H 1116.38 -6.88304 -3.12687 0
M  V30 12353 H 1117.65 -6.527 -4.26149 0
M  V30 12354 N 1121.88 0.120221 -1.57141 0
M  V30 12355 C 1122.82 1.14751 -2.00252 0
M  V30 12356 C 1123.79 1.41217 -0.874462 0
M  V30 12357 O 1124.98 1.53104 -1.13859 0
M  V30 12358 C 1122.12 2.46923 -2.41087 0
M  V30 12359 C 1121.23 2.27403 -3.67303 0
M  V30 12360 C 1120.37 3.52797 -3.97125 0
M  V30 12361 C 1119.41 3.28429 -5.16528 0
M  V30 12362 N 1118.54 4.46022 -5.42226 0
M  V30 12363 H 1123.38 0.772884 -2.87803 0
M  V30 12364 H 1120.92 0.370137 -1.42367 0
M  V30 12365 H 1122.88 3.24025 -2.62799 0
M  V30 12366 H 1121.51 2.82281 -1.5658 0
M  V30 12367 H 1120.56 1.41224 -3.53214 0
M  V30 12368 H 1121.87 2.05373 -4.54558 0
M  V30 12369 H 1121.03 4.38318 -4.19479 0
M  V30 12370 H 1119.77 3.77857 -3.08343 0
M  V30 12371 H 1118.77 2.41299 -4.94019 0
M  V30 12372 H 1120 3.0474 -6.06886 0
M  V30 12373 H 1117.94 4.71205 -4.56401 0
M  V30 12374 H 1117.86 4.27092 -6.23802 0
M  V30 12375 H 1119.13 5.3268 -5.69098 0
M  V30 12376 N 1123.36 1.52689 0.390367 0
M  V30 12377 C 1124.3 1.7737 1.47677 0
M  V30 12378 C 1125.27 0.616864 1.54221 0
M  V30 12379 O 1126.46 0.856437 1.70499 0
M  V30 12380 C 1123.6 1.94715 2.84921 0
M  V30 12381 C 1122.71 3.22405 2.8754 0
M  V30 12382 C 1121.85 3.30074 4.16202 0
M  V30 12383 C 1120.89 4.51893 4.12867 0
M  V30 12384 N 1120.02 4.56851 5.33134 0
M  V30 12385 H 1124.86 2.70084 1.25932 0
M  V30 12386 H 1122.4 1.33813 0.610943 0
M  V30 12387 H 1124.36 2.02755 3.64618 0
M  V30 12388 H 1122.99 1.05363 3.0512 0
M  V30 12389 H 1122.04 3.23442 2.00223 0
M  V30 12390 H 1123.35 4.12156 2.80943 0
M  V30 12391 H 1122.51 3.3729 5.04302 0
M  V30 12392 H 1121.24 2.38295 4.25519 0
M  V30 12393 H 1120.25 4.44803 3.23156 0
M  V30 12394 H 1121.47 5.44987 4.05174 0
M  V30 12395 H 1119.42 3.67963 5.43083 0
M  V30 12396 H 1119.34 5.40472 5.28607 0
M  V30 12397 H 1120.61 4.6832 6.23134 0
M  V30 12398 N 1124.83 -0.648732 1.43629 0
M  V30 12399 C 1125.74 -1.79046 1.51591 0
M  V30 12400 C 1126.76 -1.69276 0.402697 0
M  V30 12401 O 1127.94 -1.90366 0.657484 0
M  V30 12402 C 1125 -3.15347 1.44073 0
M  V30 12403 C 1124.06 -3.3688 2.66102 0
M  V30 12404 C 1123.3 -4.66679 2.58933 0
M  V30 12405 O 1123.52 -5.46328 1.63956 0
M  V30 12406 O 1122.45 -4.9003 3.49506 0
M  V30 12407 H 1126.28 -1.75283 2.48011 0
M  V30 12408 H 1123.86 -0.807774 1.2568 0
M  V30 12409 H 1125.75 -3.96633 1.42339 0
M  V30 12410 H 1124.42 -3.19691 0.50789 0
M  V30 12411 H 1123.33 -2.55341 2.73407 0
M  V30 12412 H 1124.66 -3.37386 3.58373 0
M  V30 12413 N 1126.31 -1.30234 -0.887518 0
M  V30 12414 C 1127.22 -1.18316 -2.02579 0
M  V30 12415 C 1128.24 -0.103658 -1.73691 0
M  V30 12416 O 1129.41 -0.3181 -1.98872 0
M  V30 12417 C 1126.48 -0.873222 -3.35523 0
M  V30 12418 C 1125.54 -2.03783 -3.7785 0
M  V30 12419 C 1124.77 -1.74258 -5.0445 0
M  V30 12420 O 1125 -0.669295 -5.6646 0
M  V30 12421 O 1123.93 -2.59423 -5.43124 0
M  V30 12422 H 1127.76 -2.13933 -2.15561 0
M  V30 12423 H 1125.34 -1.09803 -1.0131 0
M  V30 12424 H 1127.22 -0.715463 -4.15282 0
M  V30 12425 H 1125.9 0.053056 -3.23657 0
M  V30 12426 H 1124.81 -2.2509 -2.98806 0
M  V30 12427 H 1126.14 -2.94574 -3.94318 0
M  V30 12428 N 1127.79 1.09952 -1.12909 0
M  V30 12429 C 1128.72 2.16257 -0.759305 0
M  V30 12430 C 1129.74 1.61355 0.216427 0
M  V30 12431 O 1130.92 1.785 -0.00297224 0
M  V30 12432 C 1128.02 3.38741 -0.103908 0
M  V30 12433 C 1127.2 4.23072 -1.11037 0
M  V30 12434 C 1126.26 5.23991 -0.481667 0
M  V30 12435 O 1125.28 5.57665 -1.14011 0
M  V30 12436 N 1126.48 5.75652 0.748698 0
M  V30 12437 H 1129.25 2.48588 -1.67405 0
M  V30 12438 H 1126.81 1.25617 -1.02137 0
M  V30 12439 H 1128.8 4.03362 0.328799 0
M  V30 12440 H 1127.37 3.04344 0.713677 0
M  V30 12441 H 1126.59 3.5467 -1.72054 0
M  V30 12442 H 1127.88 4.76244 -1.79078 0
M  V30 12443 H 1127.28 5.505 1.30253 0
M  V30 12444 H 1125.84 6.42033 1.12415 0
M  V30 12445 N 1129.27 0.921757 1.27833 0
M  V30 12446 C 1130.2 0.373575 2.26135 0
M  V30 12447 C 1131.21 -0.492414 1.55174 0
M  V30 12448 O 1132.4 -0.305998 1.75858 0
M  V30 12449 C 1129.5 -0.483911 3.35427 0
M  V30 12450 C 1128.68 0.361411 4.35904 0
M  V30 12451 C 1127.73 -0.432461 5.2442 0
M  V30 12452 O 1126.76 0.15777 5.68981 0
M  V30 12453 N 1127.96 -1.73367 5.54007 0
M  V30 12454 H 1130.73 1.21856 2.73809 0
M  V30 12455 H 1128.29 0.788552 1.41398 0
M  V30 12456 H 1130.28 -1.02193 3.91585 0
M  V30 12457 H 1128.85 -1.22963 2.874 0
M  V30 12458 H 1128.07 1.08076 3.79095 0
M  V30 12459 H 1129.36 0.939528 5.0005 0
M  V30 12460 H 1128.76 -2.23561 5.19651 0
M  V30 12461 H 1127.31 -2.21834 6.12889 0
M  V30 12462 N 1130.75 -1.41857 0.686609 0
M  V30 12463 C 1132.16 -1.55549 0.357288 0
M  V30 12464 C 1132.36 -1.66394 -1.13646 0
M  V30 12465 O 1131.42 -1.63739 -1.92213 0
M  V30 12466 C 1132.73 -2.79938 1.09796 0
M  V30 12467 C 1134.28 -2.93724 1.08143 0
M  V30 12468 C 1134.75 -4.20989 1.80367 0
M  V30 12469 N 1136.25 -4.27927 1.77293 0
M  V30 12470 C 1136.98 -5.2524 2.30022 0
M  V30 12471 N 1136.48 -6.28636 2.91185 0
M  V30 12472 N 1138.27 -5.17118 2.20329 0
M  V30 12473 H 1130.42 -1.33063 1.65554 0
M  V30 12474 H 1132.68 -0.641335 0.698135 0
M  V30 12475 H 1132.39 -2.78104 2.15293 0
M  V30 12476 H 1132.26 -3.71188 0.670763 0
M  V30 12477 H 1134.65 -2.9508 0.0347554 0
M  V30 12478 H 1134.73 -2.03673 1.54761 0
M  V30 12479 H 1134.38 -4.20395 2.85009 0
M  V30 12480 H 1134.31 -5.09997 1.3119 0
M  V30 12481 H 1136.8 -3.53838 1.32692 0
M  V30 12482 H 1137.11 -6.99265 3.29011 0
M  V30 12483 H 1135.45 -6.29164 2.95259 0
M  V30 12484 H 1138.65 -4.35265 1.72226 0
M  V30 12485 H 1138.82 -5.92792 2.61728 0
M  V30 12486 N 1132.22 -0.430739 -1.51599 0
M  V30 12487 C 1133.15 0.374695 -2.30474 0
M  V30 12488 C 1134.14 1.02694 -1.35602 0
M  V30 12489 O 1135.32 1.03184 -1.6452 0
M  V30 12490 C 1132.45 1.47981 -3.14196 0
M  V30 12491 C 1131.4 0.951415 -4.17291 0
M  V30 12492 C 1130.73 2.15177 -4.89492 0
M  V30 12493 C 1132.03 -0.00957951 -5.22299 0
M  V30 12494 H 1133.72 -0.283508 -2.98055 0
M  V30 12495 H 1131.27 -0.13779 -1.43339 0
M  V30 12496 H 1133.22 2.05043 -3.68151 0
M  V30 12497 H 1131.95 2.16621 -2.44424 0
M  V30 12498 H 1130.61 0.403052 -3.64378 0
M  V30 12499 H 1130.25 2.82421 -4.1623 0
M  V30 12500 H 1129.95 1.80464 -5.59202 0
M  V30 12501 H 1131.48 2.72806 -5.46269 0
M  V30 12502 H 1132.89 0.470527 -5.71366 0
M  V30 12503 H 1131.29 -0.268959 -5.99497 0
M  V30 12504 H 1132.36 -0.948297 -4.75537 0
M  V30 12505 N 1133.7 1.56767 -0.161869 0
M  V30 12506 C 1134.67 2.16299 0.758104 0
M  V30 12507 C 1135.67 1.10859 1.16478 0
M  V30 12508 O 1136.86 1.36422 1.08327 0
M  V30 12509 C 1133.99 2.73819 2.03067 0
M  V30 12510 H 1135.18 2.98938 0.239992 0
M  V30 12511 H 1132.73 1.56054 0.0876532 0
M  V30 12512 H 1133.47 1.94887 2.59209 0
M  V30 12513 H 1133.25 3.50974 1.74813 0
M  V30 12514 H 1134.74 3.19638 2.68741 0
M  V30 12515 N 1135.18 -0.111886 1.57202 0
M  V30 12516 C 1136.09 -1.1556 2.04165 0
M  V30 12517 C 1137.11 -1.44898 0.963354 0
M  V30 12518 O 1138.28 -1.55873 1.27536 0
M  V30 12519 C 1135.35 -2.46048 2.44256 0
M  V30 12520 C 1134.41 -2.24043 3.66201 0
M  V30 12521 C 1133.64 -3.4831 4.04371 0
M  V30 12522 O 1133.86 -4.55895 3.42806 0
M  V30 12523 O 1132.8 -3.38891 4.9743 0
M  V30 12524 H 1136.62 -0.786778 2.93332 0
M  V30 12525 H 1134.21 -0.323196 1.45862 0
M  V30 12526 H 1136.09 -3.22916 2.70745 0
M  V30 12527 H 1134.77 -2.8239 1.58233 0
M  V30 12528 H 1133.67 -1.4501 3.44852 0
M  V30 12529 H 1135.01 -1.92602 4.52952 0
M  V30 12530 N 1136.66 -1.52894 -0.382264 0
M  V30 12531 C 1138.07 -1.42295 -0.722802 0
M  V30 12532 C 1138.27 -0.548717 -1.93885 0
M  V30 12533 O 1137.33 -0.0247431 -2.52488 0
M  V30 12534 C 1138.64 -2.85246 -0.9516 0
M  V30 12535 C 1140.19 -2.94768 -1.05265 0
M  V30 12536 C 1140.67 -4.38745 -1.31404 0
M  V30 12537 N 1142.16 -4.421 -1.38211 0
M  V30 12538 C 1142.89 -5.50592 -1.60113 0
M  V30 12539 N 1142.39 -6.69158 -1.79442 0
M  V30 12540 N 1144.18 -5.38145 -1.62347 0
M  V30 12541 H 1136.33 -2.0825 0.417816 0
M  V30 12542 H 1138.6 -0.939753 0.124776 0
M  V30 12543 H 1138.3 -3.51459 -0.130088 0
M  V30 12544 H 1138.18 -3.27903 -1.86439 0
M  V30 12545 H 1140.56 -2.28718 -1.86472 0
M  V30 12546 H 1140.64 -2.55529 -0.117619 0
M  V30 12547 H 1140.29 -5.05363 -0.507038 0
M  V30 12548 H 1140.22 -4.75542 -2.26202 0
M  V30 12549 H 1142.71 -3.56644 -1.24954 0
M  V30 12550 H 1143.02 -7.47615 -1.95681 0
M  V30 12551 H 1141.37 -6.72175 -1.76653 0
M  V30 12552 H 1144.56 -4.44485 -1.46803 0
M  V30 12553 H 1144.73 -6.22764 -1.79077 0
M  V30 12554 N 1138.14 0.641106 -1.43971 0
M  V30 12555 C 1139.07 1.76645 -1.46046 0
M  V30 12556 C 1140.08 1.58881 -0.355049 0
M  V30 12557 O 1141.27 1.67379 -0.620207 0
M  V30 12558 C 1138.37 3.14237 -1.26918 0
M  V30 12559 C 1137.54 3.5855 -2.50521 0
M  V30 12560 C 1136.6 4.74986 -2.26438 0
M  V30 12561 O 1135.63 4.83807 -2.99866 0
M  V30 12562 N 1136.83 5.66016 -1.28866 0
M  V30 12563 H 1139.6 1.75339 -2.43056 0
M  V30 12564 H 1137.16 0.82535 -1.39282 0
M  V30 12565 H 1139.15 3.89837 -1.0867 0
M  V30 12566 H 1137.72 3.10244 -0.383082 0
M  V30 12567 H 1136.94 2.73265 -2.84112 0
M  V30 12568 H 1138.23 3.84906 -3.32754 0
M  V30 12569 H 1137.63 5.61574 -0.682018 0
M  V30 12570 H 1136.18 6.41286 -1.16599 0
M  V30 12571 N 1139.62 1.30703 0.880598 0
M  V30 12572 C 1140.55 1.20033 2.00286 0
M  V30 12573 C 1141.53 0.0899614 1.69862 0
M  V30 12574 O 1142.71 0.272747 1.92275 0
M  V30 12575 C 1139.84 0.895902 3.35546 0
M  V30 12576 C 1138.8 1.96468 3.80242 0
M  V30 12577 C 1138.12 1.51316 5.12843 0
M  V30 12578 C 1139.42 3.37637 3.98496 0
M  V30 12579 H 1141.12 2.13922 2.0947 0
M  V30 12580 H 1138.66 1.02989 1.00644 0
M  V30 12581 H 1140.61 0.807899 4.13583 0
M  V30 12582 H 1139.34 -0.0786636 3.26505 0
M  V30 12583 H 1138 2.0424 3.04437 0
M  V30 12584 H 1137.65 0.52674 5.00234 0
M  V30 12585 H 1137.35 2.22807 5.43719 0
M  V30 12586 H 1138.87 1.43903 5.93401 0
M  V30 12587 H 1140.28 3.326 4.66959 0
M  V30 12588 H 1138.68 4.07253 4.40755 0
M  V30 12589 H 1139.75 3.79205 3.02211 0
M  V30 12590 N 1141.09 -1.09351 1.1349 0
M  V30 12591 C 1142.03 -2.15852 0.770763 0
M  V30 12592 C 1143.04 -1.61468 -0.207866 0
M  V30 12593 O 1144.23 -1.78496 0.0124385 0
M  V30 12594 C 1141.33 -3.38681 0.121871 0
M  V30 12595 C 1140.5 -4.22477 1.13279 0
M  V30 12596 C 1139.56 -5.23728 0.509448 0
M  V30 12597 O 1138.59 -5.57052 1.16967 0
M  V30 12598 N 1139.79 -5.76041 -0.718159 0
M  V30 12599 H 1142.55 -2.47696 1.6872 0
M  V30 12600 H 1140.11 -1.25074 1.02801 0
M  V30 12601 H 1142.11 -4.03531 -0.307404 0
M  V30 12602 H 1140.68 -3.04718 -0.697527 0
M  V30 12603 H 1139.9 -3.53753 1.73933 0
M  V30 12604 H 1141.18 -4.75288 1.81601 0
M  V30 12605 H 1140.58 -5.51183 -1.27331 0
M  V30 12606 H 1139.14 -6.4262 -1.09008 0
M  V30 12607 N 1142.57 -0.928524 -1.27343 0
M  V30 12608 C 1143.48 -0.433901 -2.30553 0
M  V30 12609 C 1144.5 0.485832 -1.6708 0
M  V30 12610 O 1145.67 0.36844 -1.98001 0
M  V30 12611 C 1142.74 0.304617 -3.45359 0
M  V30 12612 C 1141.8 -0.650131 -4.24349 0
M  V30 12613 C 1141.03 0.0532372 -5.33673 0
M  V30 12614 O 1141.26 1.27246 -5.56026 0
M  V30 12615 O 1140.19 -0.619009 -5.98709 0
M  V30 12616 H 1144.02 -1.2909 -2.74899 0
M  V30 12617 H 1141.6 -0.693903 -1.32308 0
M  V30 12618 H 1143.48 0.721137 -4.15184 0
M  V30 12619 H 1142.16 1.13721 -3.03066 0
M  V30 12620 H 1141.06 -1.11635 -3.57055 0
M  V30 12621 H 1142.4 -1.44996 -4.70358 0
M  V30 12622 N 1144.05 1.41491 -0.694123 0
M  V30 12623 C 1144.96 2.34583 -0.0283414 0
M  V30 12624 C 1145.98 1.5615 0.767662 0
M  V30 12625 O 1147.15 1.88637 0.705556 0
M  V30 12626 C 1144.22 3.34876 0.897726 0
M  V30 12627 C 1143.28 4.29197 0.0940905 0
M  V30 12628 C 1142.51 5.24699 0.976051 0
M  V30 12629 O 1142.73 5.25613 2.21556 0
M  V30 12630 O 1141.67 6.00387 0.426503 0
M  V30 12631 H 1145.49 2.93092 -0.795656 0
M  V30 12632 H 1143.08 1.4232 -0.45445 0
M  V30 12633 H 1144.96 3.96438 1.4288 0
M  V30 12634 H 1143.64 2.78812 1.64456 0
M  V30 12635 H 1142.54 3.70988 -0.481552 0
M  V30 12636 H 1143.88 4.88355 -0.614045 0
M  V30 12637 N 1145.53 0.438773 1.51369 0
M  V30 12638 C 1146.46 -0.407771 2.25543 0
M  V30 12639 C 1147.47 -0.985065 1.29616 0
M  V30 12640 O 1148.66 -0.878961 1.55359 0
M  V30 12641 C 1145.76 -1.58257 2.9968 0
M  V30 12642 C 1144.93 -1.12389 4.22714 0
M  V30 12643 C 1143.99 -2.16897 4.79418 0
M  V30 12644 O 1143.02 -1.76273 5.41218 0
M  V30 12645 N 1144.22 -3.49396 4.63576 0
M  V30 12646 H 1146.99 0.227963 2.98832 0
M  V30 12647 H 1144.55 0.267741 1.59671 0
M  V30 12648 H 1146.54 -2.27796 3.34501 0
M  V30 12649 H 1145.11 -2.12362 2.29393 0
M  V30 12650 H 1144.33 -0.255509 3.93371 0
M  V30 12651 H 1145.62 -0.794848 5.02553 0
M  V30 12652 H 1145.02 -3.85132 4.14355 0
M  V30 12653 H 1143.57 -4.14826 5.02755 0
M  V30 12654 N 1147.01 -1.56678 0.170181 0
M  V30 12655 C 1147.92 -2.21496 -0.773079 0
M  V30 12656 C 1148.93 -1.20626 -1.25401 0
M  V30 12657 O 1150.11 -1.53283 -1.30638 0
M  V30 12658 C 1147.17 -2.8421 -1.98558 0
M  V30 12659 C 1146.23 -4.00278 -1.55164 0
M  V30 12660 C 1145.47 -4.59992 -2.70634 0
M  V30 12661 O 1145.69 -4.18595 -3.87472 0
M  V30 12662 O 1144.62 -5.49881 -2.44775 0
M  V30 12663 H 1148.45 -3.02659 -0.251195 0
M  V30 12664 H 1146.03 -1.49288 -0.0579621 0
M  V30 12665 H 1147.92 -3.2398 -2.69472 0
M  V30 12666 H 1146.59 -2.06045 -2.49654 0
M  V30 12667 H 1145.5 -3.6518 -0.812038 0
M  V30 12668 H 1146.83 -4.80033 -1.0876 0
M  V30 12669 N 1148.48 0.103547 -1.57259 0
M  V30 12670 C 1149.43 1.12621 -2.01458 0
M  V30 12671 C 1150.4 1.40282 -0.889391 0
M  V30 12672 O 1151.59 1.51887 -1.15477 0
M  V30 12673 C 1148.73 2.44352 -2.43692 0
M  V30 12674 C 1147.84 2.23495 -3.69695 0
M  V30 12675 C 1146.97 3.48565 -4.00844 0
M  V30 12676 C 1146.01 3.22932 -5.19982 0
M  V30 12677 N 1145.15 4.40246 -5.46926 0
M  V30 12678 H 1149.99 0.742315 -2.88606 0
M  V30 12679 H 1147.53 0.355016 -1.42752 0
M  V30 12680 H 1149.48 3.2122 -2.66221 0
M  V30 12681 H 1148.11 2.80605 -1.59565 0
M  V30 12682 H 1147.17 1.3747 -3.54692 0
M  V30 12683 H 1148.48 2.0054 -4.56711 0
M  V30 12684 H 1147.63 4.33844 -4.24104 0
M  V30 12685 H 1146.37 3.74565 -3.12333 0
M  V30 12686 H 1145.38 2.36045 -4.96551 0
M  V30 12687 H 1146.6 2.98286 -6.10084 0
M  V30 12688 H 1144.55 4.66338 -4.61373 0
M  V30 12689 H 1144.46 4.20452 -6.28296 0
M  V30 12690 H 1145.73 5.26614 -5.74716 0
M  V30 12691 N 1149.96 1.53094 0.37415 0
M  V30 12692 C 1150.91 1.78927 1.45787 0
M  V30 12693 C 1151.88 0.633187 1.53558 0
M  V30 12694 O 1153.06 0.874472 1.69581 0
M  V30 12695 C 1150.2 1.97726 2.8284 0
M  V30 12696 C 1149.32 3.25436 2.84104 0
M  V30 12697 C 1148.45 3.3447 4.12678 0
M  V30 12698 C 1147.49 4.56246 4.08051 0
M  V30 12699 N 1146.63 4.6248 5.28258 0
M  V30 12700 H 1151.47 2.71404 1.2306 0
M  V30 12701 H 1149 1.34453 0.596716 0
M  V30 12702 H 1150.96 2.06611 3.62447 0
M  V30 12703 H 1149.59 1.08593 3.03986 0
M  V30 12704 H 1148.64 3.25548 1.96781 0
M  V30 12705 H 1149.96 4.15112 2.76556 0
M  V30 12706 H 1149.11 3.4262 5.00696 0
M  V30 12707 H 1147.85 2.42795 4.22968 0
M  V30 12708 H 1146.85 4.48206 3.1842 0
M  V30 12709 H 1148.08 5.49254 3.99371 0
M  V30 12710 H 1146.03 3.73703 5.3915 0
M  V30 12711 H 1145.94 5.46049 5.22845 0
M  V30 12712 H 1147.21 4.74903 6.18132 0
M  V30 12713 N 1151.44 -0.633461 1.44309 0
M  V30 12714 C 1152.4 -1.72743 1.50641 0
M  V30 12715 C 1153.4 -1.56031 0.388718 0
M  V30 12716 O 1154.59 -1.61568 0.651251 0
M  V30 12717 C 1151.72 -3.11804 1.37809 0
M  V30 12718 H 1152.92 -1.68503 2.48086 0
M  V30 12719 H 1150.47 -0.846912 1.31366 0
M  V30 12720 H 1151.21 -3.2164 0.414483 0
M  V30 12721 H 1150.99 -3.2534 2.18852 0
M  V30 12722 H 1152.48 -3.91538 1.45216 0
M  V30 12723 N 1152.92 -1.31168 -0.873655 0
M  V30 12724 C 1153.87 -1.18507 -1.98052 0
M  V30 12725 C 1154.84 -0.0717583 -1.65945 0
M  V30 12726 O 1156.02 -0.243965 -1.89234 0
M  V30 12727 C 1153.16 -0.894571 -3.33304 0
M  V30 12728 C 1152.27 -2.09086 -3.7803 0
M  V30 12729 C 1151.41 -1.73747 -5.01982 0
M  V30 12730 C 1150.45 -2.89805 -5.39147 0
M  V30 12731 N 1149.58 -2.54686 -6.54278 0
M  V30 12732 H 1154.42 -2.13193 -2.08213 0
M  V30 12733 H 1151.96 -1.06056 -1.01934 0
M  V30 12734 H 1153.92 -0.706714 -4.11171 0
M  V30 12735 H 1152.55 0.0154449 -3.22796 0
M  V30 12736 H 1151.6 -2.38961 -2.95976 0
M  V30 12737 H 1152.91 -2.95963 -4.01506 0
M  V30 12738 H 1152.07 -1.51402 -5.87505 0
M  V30 12739 H 1150.81 -0.840553 -4.80402 0
M  V30 12740 H 1149.81 -3.12803 -4.52144 0
M  V30 12741 H 1151.04 -3.802 -5.62694 0
M  V30 12742 H 1148.98 -1.67513 -6.34252 0
M  V30 12743 H 1148.9 -3.35093 -6.77679 0
M  V30 12744 H 1150.17 -2.35725 -7.43003 0
M  V30 12745 N 1154.4 1.08748 -1.14068 0
M  V30 12746 C 1155.31 2.19123 -0.837998 0
M  V30 12747 C 1156.32 1.73065 0.180164 0
M  V30 12748 O 1157.5 2.01398 0.00952285 0
M  V30 12749 C 1154.56 3.45257 -0.316 0
M  V30 12750 C 1153.62 4.05959 -1.39628 0
M  V30 12751 C 1152.86 5.26072 -0.899095 0
M  V30 12752 O 1153.08 5.69804 0.260744 0
M  V30 12753 O 1152.01 5.7808 -1.67652 0
M  V30 12754 H 1155.84 2.4748 -1.76033 0
M  V30 12755 H 1153.43 1.17816 -0.918675 0
M  V30 12756 H 1155.31 4.21389 -0.0306425 0
M  V30 12757 H 1153.98 3.18486 0.578654 0
M  V30 12758 H 1152.89 3.31432 -1.73505 0
M  V30 12759 H 1154.22 4.36971 -2.26533 0
M  V30 12760 N 1155.87 0.935264 1.26849 0
M  V30 12761 C 1156.84 0.44485 2.24842 0
M  V30 12762 C 1157.84 -0.440781 1.54641 0
M  V30 12763 O 1159.03 -0.240793 1.72528 0
M  V30 12764 C 1156.16 -0.359566 3.38998 0
M  V30 12765 H 1157.35 1.31074 2.6974 0
M  V30 12766 H 1154.91 0.716665 1.38901 0
M  V30 12767 H 1155.64 -1.24396 2.99493 0
M  V30 12768 H 1155.43 0.275529 3.91131 0
M  V30 12769 H 1156.92 -0.692804 4.11813 0
M  V30 12770 N 1157.35 -1.41121 0.701616 0
M  V30 12771 C 1158.32 -2.29148 0.0490091 0
M  V30 12772 C 1159.32 -1.44679 -0.701763 0
M  V30 12773 O 1160.51 -1.65757 -0.53575 0
M  V30 12774 C 1157.64 -3.2766 -0.940837 0
M  V30 12775 H 1158.83 -2.88354 0.824133 0
M  V30 12776 H 1156.38 -1.49209 0.465457 0
M  V30 12777 H 1157.12 -2.73445 -1.74351 0
M  V30 12778 H 1156.9 -3.89997 -0.405551 0
M  V30 12779 H 1158.39 -3.93609 -1.39507 0
M  V30 12780 N 1158.83 -0.446794 -1.51134 0
M  V30 12781 C 1160.08 0.116263 -2.01765 0
M  V30 12782 C 1160.4 1.42382 -1.33238 0
M  V30 12783 O 1159.67 1.9018 -0.469915 0
M  V30 12784 H 1158.25 0.0459558 -0.745585 0
M  V30 12785 H 1160.91 -0.591664 -1.85702 0
M  V30 12786 H 1160.01 0.285358 -3.10793 0
M  V30 12787 N 1160.31 1.56586 -0.178487 0
M  V30 12788 C 1161.27 2.17091 0.73512 0
M  V30 12789 C 1162.27 1.12088 1.15295 0
M  V30 12790 O 1163.46 1.37563 1.06874 0
M  V30 12791 C 1160.59 2.75957 2.00151 0
M  V30 12792 H 1161.79 2.99176 0.208272 0
M  V30 12793 H 1159.34 1.56138 0.0710967 0
M  V30 12794 H 1160.07 1.97626 2.57127 0
M  V30 12795 H 1159.86 3.52809 1.7108 0
M  V30 12796 H 1161.35 3.2247 2.65335 0
M  V30 12797 N 1161.79 -0.095206 1.57312 0
M  V30 12798 C 1163.01 -0.81614 1.90667 0
M  V30 12799 C 1163.44 -1.71494 0.772746 0
M  V30 12800 O 1162.79 -1.79192 -0.275682 0
M  V30 12801 C 1162.84 -1.60555 3.22885 0
M  V30 12802 O 1161.95 -2.71448 3.10467 0
M  V30 12803 H 1161.29 -0.224217 0.624998 0
M  V30 12804 H 1163.82 -0.070464 2.04479 0
M  V30 12805 H 1163.83 -1.98979 3.5619 0
M  V30 12806 H 1162.5 -0.945918 4.05 0
M  V30 12807 H 1161.08 -2.36053 2.88675 0
M  V30 12808 N 1163.26 -1.53291 -0.366026 0
M  V30 12809 C 1164.21 -1.79697 -1.44836 0
M  V30 12810 C 1165.18 -0.641321 -1.5322 0
M  V30 12811 O 1166.37 -0.883453 -1.69115 0
M  V30 12812 C 1163.51 -1.99223 -2.81788 0
M  V30 12813 C 1162.62 -3.26938 -2.82375 0
M  V30 12814 C 1161.75 -3.36654 -4.10898 0
M  V30 12815 C 1160.79 -4.58404 -4.05626 0
M  V30 12816 N 1159.93 -4.65275 -5.25798 0
M  V30 12817 H 1164.77 -2.72053 -1.21619 0
M  V30 12818 H 1162.31 -1.34768 -0.589577 0
M  V30 12819 H 1164.27 -2.0853 -3.61346 0
M  V30 12820 H 1162.9 -1.10204 -3.03406 0
M  V30 12821 H 1161.95 -3.26587 -1.95052 0
M  V30 12822 H 1163.26 -4.16573 -2.74351 0
M  V30 12823 H 1162.41 -3.4527 -4.98872 0
M  V30 12824 H 1161.15 -2.45035 -4.21674 0
M  V30 12825 H 1160.16 -4.49888 -3.16039 0
M  V30 12826 H 1161.38 -5.51364 -3.96453 0
M  V30 12827 H 1159.33 -3.76557 -5.3716 0
M  V30 12828 H 1159.25 -5.48814 -5.19942 0
M  V30 12829 H 1160.51 -4.78175 -6.15605 0
M  V30 12830 N 1164.74 0.6258 -1.44643 0
M  V30 12831 C 1165.71 1.71941 -1.51555 0
M  V30 12832 C 1166.71 1.55822 -0.396988 0
M  V30 12833 O 1167.9 1.61221 -0.65981 0
M  V30 12834 C 1165.03 3.11068 -1.39461 0
M  V30 12835 H 1166.22 1.67185 -2.48976 0
M  V30 12836 H 1163.77 0.839934 -1.31814 0
M  V30 12837 H 1164.51 3.21416 -0.431534 0
M  V30 12838 H 1164.29 3.24175 -2.20574 0
M  V30 12839 H 1165.78 3.90762 -1.4729 0
M  V30 12840 N 1166.22 1.31629 0.866686 0
M  V30 12841 C 1167.15 1.22151 1.99001 0
M  V30 12842 C 1168.13 0.107972 1.69757 0
M  V30 12843 O 1169.32 0.293125 1.91975 0
M  V30 12844 C 1166.45 0.93144 3.34577 0
M  V30 12845 C 1165.4 2.0049 3.78137 0
M  V30 12846 C 1164.73 1.56747 5.11209 0
M  V30 12847 C 1166.03 3.41844 3.94892 0
M  V30 12848 H 1167.72 2.16132 2.0719 0
M  V30 12849 H 1165.27 1.04051 0.995463 0
M  V30 12850 H 1167.22 0.851719 4.12703 0
M  V30 12851 H 1165.94 -0.0440289 3.2657 0
M  V30 12852 H 1164.6 2.07457 3.02253 0
M  V30 12853 H 1164.25 0.579767 4.99648 0
M  V30 12854 H 1163.95 2.28562 5.41326 0
M  V30 12855 H 1165.47 1.50188 5.91841 0
M  V30 12856 H 1166.89 3.37534 4.63405 0
M  V30 12857 H 1165.29 4.11905 4.36411 0
M  V30 12858 H 1166.36 3.82389 2.98172 0
M  V30 12859 N 1167.7 -1.08142 1.14644 0
M  V30 12860 C 1168.65 -2.17229 0.831513 0
M  V30 12861 C 1169.64 -1.68311 -0.19173 0
M  V30 12862 O 1170.85 -1.79937 -0.0475596 0
M  V30 12863 H 1167.22 -0.708807 0.25119 0
M  V30 12864 H 1169.19 -2.41014 1.75939 0
M  V30 12865 C 1167.94 -3.46146 0.328347 0
M  V30 12866 H 1167.27 -3.84166 1.10708 0
M  V30 12867 H 1168.71 -4.23747 0.146568 0
M  V30 12868 C 1167.16 -3.2327 -0.948594 0
M  V30 12869 O 1167.69 -3.47111 -2.0218 0
M  V30 12870 N 1165.9 -2.76799 -0.884909 0
M  V30 12871 H 1165.45 -2.57597 -0.011399 0
M  V30 12872 H 1165.41 -2.61871 -1.73985 0
M  V30 12873 N 1169.18 -0.941978 -1.26351 0
M  V30 12874 C 1170.42 -0.590845 -1.94002 0
M  V30 12875 C 1170.76 0.868004 -1.73722 0
M  V30 12876 O 1170.03 1.62111 -1.07472 0
M  V30 12877 C 1170.31 -0.934901 -3.47752 0
M  V30 12878 C 1170.17 -2.44855 -3.77314 0
M  V30 12879 C 1171.49 -0.450888 -4.37784 0
M  V30 12880 H 1168.61 -0.21613 -0.704597 0
M  V30 12881 H 1171.25 -1.17634 -1.49205 0
M  V30 12882 H 1169.4 -0.436648 -3.86038 0
M  V30 12883 H 1171.07 -3.01959 -3.48738 0
M  V30 12884 H 1169.31 -2.89169 -3.23363 0
M  V30 12885 H 1169.98 -2.6398 -4.84787 0
M  V30 12886 H 1172.46 -0.878107 -4.06729 0
M  V30 12887 H 1171.34 -0.720439 -5.44152 0
M  V30 12888 H 1171.6 0.649162 -4.37308 0
M  V30 12889 N 1170.66 1.40747 -0.709091 0
M  V30 12890 C 1171.88 2.05319 -0.255258 0
M  V30 12891 C 1172.3 1.53406 1.10054 0
M  V30 12892 O 1171.66 0.687905 1.69039 0
M  V30 12893 C 1171.71 3.60835 -0.219251 0
M  V30 12894 O 1171.43 4.1083 -1.52151 0
M  V30 12895 C 1172.93 4.42572 0.253927 0
M  V30 12896 H 1170.15 0.660904 -0.115959 0
M  V30 12897 H 1172.69 1.80274 -0.965474 0
M  V30 12898 H 1170.85 3.84872 0.441882 0
M  V30 12899 H 1171.26 5.04979 -1.41764 0
M  V30 12900 H 1172.74 5.51529 0.22798 0
M  V30 12901 H 1173.21 4.19673 1.29504 0
M  V30 12902 H 1173.82 4.23629 -0.376694 0
M  V30 12903 N 1172.13 0.454803 1.50895 0
M  V30 12904 C 1173.38 -0.105927 2.02523 0
M  V30 12905 C 1173.71 -1.40825 1.33724 0
M  V30 12906 O 1172.99 -1.89038 0.457683 0
M  V30 12907 C 1173.27 -0.306635 3.58792 0
M  V30 12908 C 1173.12 1.01556 4.38185 0
M  V30 12909 C 1174.44 -1.06858 4.2693 0
M  V30 12910 H 1171.56 -0.0370232 0.736069 0
M  V30 12911 H 1174.2 0.597215 1.8037 0
M  V30 12912 H 1172.35 -0.905563 3.77799 0
M  V30 12913 H 1174.03 1.64981 4.30789 0
M  V30 12914 H 1172.27 1.61608 4.02574 0
M  V30 12915 H 1172.94 0.828959 5.4574 0
M  V30 12916 H 1175.42 -0.561086 4.123 0
M  V30 12917 H 1174.29 -1.1778 5.36115 0
M  V30 12918 H 1174.55 -2.10111 3.8898 0
M  V30 12919 N 1173.61 -1.56489 0.186789 0
M  V30 12920 C 1174.89 -1.89066 -0.501337 0
M  V30 12921 C 1175.27 -1.09906 -1.80233 0
M  V30 12922 O 1174.62 -0.197626 -2.27644 0
M  V30 12923 C 1174.83 -3.41318 -0.728207 0
M  V30 12924 C 1176.17 -4.11379 -1.0513 0
M  V30 12925 O 1177.2 -3.46722 -0.816216 0
M  V30 12926 O 1176.06 -5.25638 -1.49557 0
M  V30 12927 H 1173.15 -0.784966 -0.260303 0
M  V30 12928 H 1175.7 -1.68183 0.226382 0
M  V30 12929 H 1174.47 -3.90834 0.19088 0
M  V30 12930 H 1174.09 -3.67865 -1.50869 0
M  V30 12931 N 1175.09 0.086862 -1.5736 0
M  V30 12932 C 1176.34 0.790008 -1.8678 0
M  V30 12933 C 1176.67 1.77977 -0.777042 0
M  V30 12934 O 1175.94 1.93317 0.21419 0
M  V30 12935 C 1176.23 1.51143 -3.26845 0
M  V30 12936 C 1176.08 0.539106 -4.46558 0
M  V30 12937 C 1177.4 2.46003 -3.64926 0
M  V30 12938 H 1174.52 0.285741 -0.679354 0
M  V30 12939 H 1177.16 0.0534655 -1.89925 0
M  V30 12940 H 1175.31 2.13928 -3.24295 0
M  V30 12941 H 1176.98 -0.0823679 -4.61226 0
M  V30 12942 H 1175.22 -0.146842 -4.33551 0
M  V30 12943 H 1175.9 1.0812 -5.41308 0
M  V30 12944 H 1178.37 1.93306 -3.68473 0
M  V30 12945 H 1177.25 2.93493 -4.63846 0
M  V30 12946 H 1177.51 3.30133 -2.94049 0
M  V30 12947 N 1176.57 1.53483 0.357892 0
M  V30 12948 C 1177.5 1.76757 1.4591 0
M  V30 12949 C 1178.51 0.648502 1.49326 0
M  V30 12950 O 1179.7 0.924932 1.52667 0
M  V30 12951 C 1176.8 1.83938 2.8464 0
M  V30 12952 C 1175.97 3.13683 3.04831 0
M  V30 12953 C 1175.03 3.12007 4.23719 0
M  V30 12954 O 1174.06 3.8578 4.18524 0
M  V30 12955 N 1175.26 2.33366 5.31527 0
M  V30 12956 H 1178.03 2.71778 1.2632 0
M  V30 12957 H 1175.59 1.52355 0.547673 0
M  V30 12958 H 1177.58 1.80285 3.62325 0
M  V30 12959 H 1176.15 0.961675 2.9744 0
M  V30 12960 H 1175.37 3.30576 2.14739 0
M  V30 12961 H 1176.66 3.99412 3.15194 0
M  V30 12962 H 1176.06 1.72954 5.38613 0
M  V30 12963 H 1174.61 2.35524 6.07759 0
M  V30 12964 N 1178.05 -0.61812 1.44973 0
M  V30 12965 C 1179.27 -1.40921 1.52171 0
M  V30 12966 C 1179.7 -1.87487 0.151755 0
M  V30 12967 O 1179.05 -1.59518 -0.861606 0
M  V30 12968 C 1179.1 -2.59689 2.50188 0
M  V30 12969 O 1178.21 -3.59967 2.0124 0
M  V30 12970 H 1177.55 -0.421138 0.51336 0
M  V30 12971 H 1180.08 -0.753258 1.90229 0
M  V30 12972 H 1180.09 -3.07069 2.6865 0
M  V30 12973 H 1178.76 -2.25144 3.4969 0
M  V30 12974 H 1177.34 -3.19308 1.92605 0
M  V30 12975 N 1179.52 -1.32087 -0.859693 0
M  V30 12976 C 1180.93 -1.20107 -1.42938 0
M  V30 12977 C 1181.29 0.188411 -1.95293 0
M  V30 12978 O 1180.41 1.08683 -1.87128 0
M  V30 12979 C 1181.01 -2.17436 -2.59821 0
M  V30 12980 C 1179.56 -2.09359 -3.12803 0
M  V30 12981 C 1178.71 -2.06086 -1.85537 0
M  V30 12982 H 1181.66 -1.43989 -0.667302 0
M  V30 12983 H 1181.68 -1.76996 -3.36828 0
M  V30 12984 H 1181.2 -3.18555 -2.21685 0
M  V30 12985 H 1179.3 -1.1147 -3.55535 0
M  V30 12986 H 1179.41 -2.98947 -3.74389 0
M  V30 12987 H 1177.77 -1.51251 -2.04928 0
M  V30 12988 H 1178.56 -3.08978 -1.49625 0
M  V30 12989 N 1181 1.07532 -1.15215 0
M  V30 12990 C 1181.96 2.1286 -0.84989 0
M  V30 12991 C 1182.96 1.60103 0.149524 0
M  V30 12992 O 1184.15 1.74017 -0.0798918 0
M  V30 12993 C 1181.29 3.3984 -0.268617 0
M  V30 12994 H 1182.48 2.41106 -1.78347 0
M  V30 12995 H 1180.03 1.23392 -0.959386 0
M  V30 12996 H 1180.77 3.17235 0.67325 0
M  V30 12997 H 1180.55 3.79433 -0.988592 0
M  V30 12998 H 1182.04 4.17533 -0.0746554 0
M  V30 12999 N 1182.48 0.948665 1.2585 0
M  V30 13000 C 1183.72 0.60782 1.95154 0
M  V30 13001 C 1184.08 -0.838703 1.72713 0
M  V30 13002 O 1185.29 -1.28885 2.35886 0
M  V30 13003 C 1183.56 0.949628 3.44553 0
M  V30 13004 S 1185.12 0.720456 4.32845 0
M  V30 13005 H 1181.93 0.223613 0.674921 0
M  V30 13006 H 1184.54 1.22157 1.52636 0
M  V30 13007 H 1183.24 1.99966 3.58388 0
M  V30 13008 H 1182.77 0.325891 3.92048 0
M  V30 13009 H 1184.79 -0.411697 4.94489 0
M  V30 13010 N 1183.96 -1.40369 0.716545 0
M  V30 13011 C 1185.19 -2.05181 0.266143 0
M  V30 13012 C 1185.6 -1.53988 -1.09239 0
M  V30 13013 O 1184.96 -0.696859 -1.68672 0
M  V30 13014 C 1185.01 -3.60713 0.238384 0
M  V30 13015 O 1184.73 -4.10018 1.54328 0
M  V30 13016 C 1186.23 -4.42701 -0.230453 0
M  V30 13017 H 1183.45 -0.66028 0.119463 0
M  V30 13018 H 1186 -1.7976 0.97502 0
M  V30 13019 H 1184.15 -3.85101 -0.421466 0
M  V30 13020 H 1184.56 -5.0422 1.4444 0
M  V30 13021 H 1186.04 -5.51642 -0.198728 0
M  V30 13022 H 1186.52 -4.20354 -1.27276 0
M  V30 13023 H 1187.12 -4.23423 0.399155 0
M  V30 13024 N 1185.44 -0.462799 -1.50652 0
M  V30 13025 C 1186.66 0.0952726 -2.07181 0
M  V30 13026 C 1187.09 1.33479 -1.32533 0
M  V30 13027 O 1186.44 1.77473 -0.370564 0
M  V30 13028 C 1186.49 0.370592 -3.58691 0
M  V30 13029 O 1185.6 1.4526 -3.85971 0
M  V30 13030 H 1184.94 -0.00932702 -0.663934 0
M  V30 13031 H 1187.47 -0.651458 -1.93951 0
M  V30 13032 H 1187.48 0.613551 -4.0336 0
M  V30 13033 H 1186.15 -0.535219 -4.12442 0
M  V30 13034 H 1184.73 1.1976 -3.53146 0
M  V30 13035 N 1186.91 1.56388 -0.195085 0
M  V30 13036 C 1188.14 2.0167 0.448637 0
M  V30 13037 C 1188.55 1.07439 1.55736 0
M  V30 13038 O 1187.9 0.071441 1.83561 0
M  V30 13039 C 1187.96 3.43348 1.06547 0
M  V30 13040 C 1187.62 4.569 0.0954901 0
M  V30 13041 C 1188.62 5.15232 -0.695116 0
M  V30 13042 C 1186.3 5.02298 -0.0155889 0
M  V30 13043 C 1188.3 6.1741 -1.58377 0
M  V30 13044 C 1185.98 6.0432 -0.907799 0
M  V30 13045 C 1186.98 6.6175 -1.69045 0
M  V30 13046 O 1186.67 7.6179 -2.56771 0
M  V30 13047 H 1186.4 0.665805 0.116962 0
M  V30 13048 H 1188.96 2.03182 -0.301062 0
M  V30 13049 H 1187.19 3.38823 1.86376 0
M  V30 13050 H 1188.88 3.72438 1.61385 0
M  V30 13051 H 1189.64 4.81026 -0.619604 0
M  V30 13052 H 1185.52 4.57293 0.583424 0
M  V30 13053 H 1189.06 6.62164 -2.1951 0
M  V30 13054 H 1184.96 6.37949 -0.984427 0
M  V30 13055 H 1185.73 7.79209 -2.50551 0
M  V30 13056 N 1188.39 -0.0785156 1.57404 0
M  V30 13057 C 1189.32 -1.12058 1.99939 0
M  V30 13058 C 1190.34 -1.35372 0.904343 0
M  V30 13059 O 1191.53 -1.33731 1.1823 0
M  V30 13060 C 1188.63 -2.47285 2.31739 0
M  V30 13061 C 1187.8 -2.44021 3.63005 0
M  V30 13062 C 1186.86 -3.61303 3.82552 0
M  V30 13063 O 1185.88 -3.43039 4.54217 0
M  V30 13064 N 1187.09 -4.81404 3.24392 0
M  V30 13065 H 1189.85 -0.758416 2.89945 0
M  V30 13066 H 1187.41 -0.267266 1.59679 0
M  V30 13067 H 1189.4 -3.24377 2.41995 0
M  V30 13068 H 1187.97 -2.75529 1.47657 0
M  V30 13069 H 1187.19 -1.52361 3.63565 0
M  V30 13070 H 1188.48 -2.38934 4.49208 0
M  V30 13071 H 1187.88 -4.99147 2.66211 0
M  V30 13072 H 1186.44 -5.56031 3.40107 0
M  V30 13073 N 1189.87 -1.5367 -0.349747 0
M  V30 13074 C 1190.8 -1.7603 -1.4522 0
M  V30 13075 C 1191.78 -0.609171 -1.50758 0
M  V30 13076 O 1192.97 -0.843613 -1.68569 0
M  V30 13077 C 1190.09 -1.85336 -2.83493 0
M  V30 13078 C 1189.14 -3.07438 -2.95608 0
M  V30 13079 S 1189.97 -4.66625 -2.62719 0
M  V30 13080 C 1191.13 -4.78802 -4.03112 0
M  V30 13081 H 1191.36 -2.69263 -1.26035 0
M  V30 13082 H 1188.89 -1.4446 -0.545044 0
M  V30 13083 H 1190.85 -1.91383 -3.63157 0
M  V30 13084 H 1189.51 -0.931267 -2.99977 0
M  V30 13085 H 1188.71 -3.10606 -3.96913 0
M  V30 13086 H 1188.31 -2.99585 -2.23886 0
M  V30 13087 H 1190.6 -4.5983 -4.97557 0
M  V30 13088 H 1191.54 -5.80886 -4.04941 0
M  V30 13089 H 1191.95 -4.07305 -3.90849 0
M  V30 13090 N 1191.35 0.610423 -1.45298 0
M  V30 13091 C 1192.58 1.39621 -1.52688 0
M  V30 13092 C 1192.99 1.88133 -0.158535 0
M  V30 13093 O 1192.35 1.62051 0.839396 0
M  V30 13094 C 1192.4 2.60261 -2.50891 0
M  V30 13095 O 1192.12 2.13766 -3.82408 0
M  V30 13096 C 1193.62 3.53154 -2.6795 0
M  V30 13097 H 1190.84 0.427493 -0.517195 0
M  V30 13098 H 1193.39 0.744701 -1.90459 0
M  V30 13099 H 1191.54 3.2146 -2.162 0
M  V30 13100 H 1191.95 2.92128 -4.35616 0
M  V30 13101 H 1193.43 4.34355 -3.40647 0
M  V30 13102 H 1193.91 4.03311 -1.73888 0
M  V30 13103 H 1194.51 2.9781 -3.03627 0
M  V30 13104 N 1192.83 1.32541 0.852676 0
M  V30 13105 C 1194.24 1.20863 1.42299 0
M  V30 13106 C 1194.59 -0.178051 1.9539 0
M  V30 13107 O 1193.71 -1.07689 1.87702 0
M  V30 13108 C 1194.31 2.18811 2.58664 0
M  V30 13109 C 1192.87 2.11015 3.11689 0
M  V30 13110 C 1192.01 2.07067 1.84441 0
M  V30 13111 H 1194.97 1.44341 0.659657 0
M  V30 13112 H 1194.99 1.78779 3.35884 0
M  V30 13113 H 1194.5 3.19726 2.19993 0
M  V30 13114 H 1192.6 1.13354 3.54939 0
M  V30 13115 H 1192.71 3.00929 3.72799 0
M  V30 13116 H 1191.08 1.52335 2.04123 0
M  V30 13117 H 1191.86 3.09767 1.47984 0
M  V30 13118 N 1194.3 -1.0692 1.15784 0
M  V30 13119 C 1195.24 -2.14168 0.816375 0
M  V30 13120 C 1196.25 -1.61872 -0.17357 0
M  V30 13121 O 1197.44 -1.78429 0.0502973 0
M  V30 13122 C 1194.54 -3.38346 0.193682 0
M  V30 13123 C 1193.71 -4.19979 1.22215 0
M  V30 13124 C 1192.77 -5.2253 0.620424 0
M  V30 13125 O 1191.8 -5.54446 1.28757 0
M  V30 13126 N 1193 -5.77434 -0.595811 0
M  V30 13127 H 1195.76 -2.44062 1.73937 0
M  V30 13128 H 1193.32 -1.22865 1.05431 0
M  V30 13129 H 1195.32 -4.04092 -0.22174 0
M  V30 13130 H 1193.89 -3.06129 -0.632735 0
M  V30 13131 H 1193.11 -3.49984 1.81397 0
M  V30 13132 H 1194.39 -4.71329 1.91641 0
M  V30 13133 H 1193.79 -5.5376 -1.15611 0
M  V30 13134 H 1192.35 -6.44788 -0.953529 0
M  V30 13135 N 1195.78 -0.955326 -1.25345 0
M  V30 13136 C 1197.03 -0.609278 -1.92697 0
M  V30 13137 C 1197.35 0.856535 -1.75181 0
M  V30 13138 O 1196.62 1.61013 -1.11587 0
M  V30 13139 H 1195.2 -0.22235 -0.713141 0
M  V30 13140 H 1197.86 -1.21372 -1.52496 0
M  V30 13141 H 1196.96 -0.839198 -3.00606 0
M  V30 13142 N 1197.26 1.39987 -0.723979 0
M  V30 13143 C 1198.21 2.27938 -0.0531058 0
M  V30 13144 C 1199.2 1.43693 0.723965 0
M  V30 13145 O 1200.39 1.66707 0.594785 0
M  V30 13146 C 1197.52 3.32311 0.861659 0
M  V30 13147 C 1196.6 4.24026 0.079327 0
M  V30 13148 N 1196.99 4.96954 -0.941805 0
M  V30 13149 C 1195.29 4.44917 0.310637 0
M  V30 13150 C 1195.99 5.64287 -1.41261 0
M  V30 13151 N 1194.97 5.38632 -0.733217 0
M  V30 13152 H 1198.77 2.81771 -0.835608 0
M  V30 13153 H 1196.28 1.52538 -0.557315 0
M  V30 13154 H 1198.28 3.94174 1.35766 0
M  V30 13155 H 1196.94 2.80038 1.64344 0
M  V30 13156 H 1197.95 5.0072 -1.32288 0
M  V30 13157 H 1194.63 4.03606 1.06809 0
M  V30 13158 H 1196.02 6.32695 -2.26155 0
M  V30 13159 N 1198.74 0.470782 1.50404 0
M  V30 13160 C 1200.16 0.124919 1.5911 0
M  V30 13161 C 1200.36 -1.36855 1.47895 0
M  V30 13162 O 1199.41 -2.1418 1.33728 0
M  V30 13163 C 1200.72 0.674839 2.9303 0
M  V30 13164 C 1202.27 0.638239 3.06424 0
M  V30 13165 C 1202.75 1.1657 4.42917 0
M  V30 13166 N 1204.24 1.1251 4.49328 0
M  V30 13167 C 1204.97 1.50373 5.53331 0
M  V30 13168 N 1204.47 1.95684 6.6459 0
M  V30 13169 N 1206.26 1.41978 5.43874 0
M  V30 13170 H 1198.41 1.44212 1.55938 0
M  V30 13171 H 1200.68 0.596354 0.73693 0
M  V30 13172 H 1200.38 1.72106 3.06712 0
M  V30 13173 H 1200.26 0.118234 3.77015 0
M  V30 13174 H 1202.64 -0.399075 2.92389 0
M  V30 13175 H 1202.72 1.23164 2.24197 0
M  V30 13176 H 1202.37 2.20164 4.57701 0
M  V30 13177 H 1202.3 0.548513 5.23736 0
M  V30 13178 H 1204.79 0.79276 3.69491 0
M  V30 13179 H 1205.1 2.22724 7.40009 0
M  V30 13180 H 1203.45 1.99636 6.65711 0
M  V30 13181 H 1206.64 1.0642 4.55842 0
M  V30 13182 H 1206.81 1.71812 6.24808 0
M  V30 13183 N 1200.22 -1.56282 0.203376 0
M  V30 13184 C 1201.18 -2.18233 -0.700489 0
M  V30 13185 C 1202.18 -1.13908 -1.13497 0
M  V30 13186 O 1203.37 -1.39246 -1.04672 0
M  V30 13187 C 1200.5 -2.79107 -1.95735 0
M  V30 13188 H 1201.7 -2.99469 -0.160649 0
M  V30 13189 H 1199.25 -1.56232 -0.0462475 0
M  V30 13190 H 1199.98 -2.01691 -2.53951 0
M  V30 13191 H 1199.77 -3.55486 -1.65446 0
M  V30 13192 H 1201.26 -3.2665 -2.60172 0
M  V30 13193 N 1201.7 0.070167 -1.57444 0
M  V30 13194 C 1203.11 0.621805 -1.76041 0
M  V30 13195 C 1203.46 1.77824 -0.829047 0
M  V30 13196 O 1202.58 2.16396 -0.0135453 0
M  V30 13197 C 1203.18 1.13476 -3.19231 0
M  V30 13198 C 1201.74 1.63225 -3.39167 0
M  V30 13199 C 1200.88 0.552369 -2.71743 0
M  V30 13200 H 1203.83 -0.156009 -1.57931 0
M  V30 13201 H 1203.86 2.00352 -3.2348 0
M  V30 13202 H 1203.37 0.29288 -3.86993 0
M  V30 13203 H 1201.47 2.49733 -2.76522 0
M  V30 13204 H 1201.58 1.70807 -4.47618 0
M  V30 13205 H 1199.95 0.997797 -2.34342 0
M  V30 13206 H 1200.73 -0.279354 -3.42162 0
M  V30 13207 N 1203.17 1.53854 0.341593 0
M  V30 13208 C 1204.58 1.62623 0.917093 0
M  V30 13209 C 1204.94 0.508781 1.89488 0
M  V30 13210 O 1204.06 -0.361171 2.13365 0
M  V30 13211 C 1204.66 2.94775 1.67012 0
M  V30 13212 C 1203.21 3.058 2.19461 0
M  V30 13213 C 1202.36 2.58082 1.01433 0
M  V30 13214 H 1205.31 1.58248 0.119674 0
M  V30 13215 H 1205.33 2.83924 2.53313 0
M  V30 13216 H 1204.85 3.76085 0.958221 0
M  V30 13217 H 1202.95 2.29128 2.93821 0
M  V30 13218 H 1203.06 4.11302 2.45698 0
M  V30 13219 H 1201.42 2.13537 1.38831 0
M  V30 13220 H 1202.21 3.41833 0.317033 0
M  V30 13221 N 1204.65 -0.602709 1.4562 0
M  V30 13222 C 1205.6 -1.71312 1.54664 0
M  V30 13223 C 1206.57 -1.61403 0.392197 0
M  V30 13224 O 1207.75 -1.80911 0.606297 0
M  V30 13225 C 1204.89 -3.09629 1.52393 0
M  V30 13226 C 1204.01 -3.30308 2.78425 0
M  V30 13227 C 1203.14 -4.5876 2.67793 0
M  V30 13228 C 1202.18 -4.72713 3.88855 0
M  V30 13229 N 1201.32 -5.92469 3.76729 0
M  V30 13230 H 1206.16 -1.62918 2.49523 0
M  V30 13231 H 1203.69 -0.794324 1.2381 0
M  V30 13232 H 1205.65 -3.89661 1.49064 0
M  V30 13233 H 1204.28 -3.16968 0.610816 0
M  V30 13234 H 1203.33 -2.44018 2.9182 0
M  V30 13235 H 1204.65 -3.36491 3.68205 0
M  V30 13236 H 1203.8 -5.46993 2.62457 0
M  V30 13237 H 1202.54 -4.54983 1.75619 0
M  V30 13238 H 1201.54 -3.82903 3.94545 0
M  V30 13239 H 1202.77 -4.78284 4.82101 0
M  V30 13240 H 1200.72 -5.89728 2.87328 0
M  V30 13241 H 1200.63 -5.99833 4.60148 0
M  V30 13242 H 1201.9 -6.83187 3.75334 0
M  V30 13243 N 1206.13 -1.32992 -0.845635 0
M  V30 13244 C 1207.38 -1.23415 -1.59536 0
M  V30 13245 C 1207.69 0.200278 -1.94572 0
M  V30 13246 O 1208.9 0.417993 -2.68263 0
M  V30 13247 C 1207.35 -2.16207 -2.8772 0
M  V30 13248 C 1206.96 -3.64782 -2.60073 0
M  V30 13249 C 1208.71 -2.15488 -3.65739 0
M  V30 13250 C 1206.61 -4.49508 -3.84313 0
M  V30 13251 H 1205.54 -0.458366 -0.598679 0
M  V30 13252 H 1208.19 -1.58012 -0.932981 0
M  V30 13253 H 1206.58 -1.74535 -3.55462 0
M  V30 13254 H 1207.75 -4.14852 -2.00585 0
M  V30 13255 H 1206.06 -3.67723 -1.95369 0
M  V30 13256 H 1208.66 -2.76021 -4.57948 0
M  V30 13257 H 1209 -1.14818 -4.00153 0
M  V30 13258 H 1209.54 -2.55487 -3.04912 0
M  V30 13259 H 1206.28 -5.51027 -3.55035 0
M  V30 13260 H 1205.8 -4.04185 -4.43165 0
M  V30 13261 H 1207.48 -4.62969 -4.51961 0
M  V30 13262 N 1207.61 1.06304 -1.1635 0
M  V30 13263 C 1208.56 2.15879 -0.865967 0
M  V30 13264 C 1209.55 1.68595 0.164929 0
M  V30 13265 O 1210.76 1.7999 0.0189271 0
M  V30 13266 H 1207.13 0.704721 -0.262435 0
M  V30 13267 H 1209.1 2.38185 -1.79751 0
M  V30 13268 C 1207.85 3.4558 -0.383374 0
M  V30 13269 H 1207.17 3.82356 -1.16806 0
M  V30 13270 H 1208.61 4.2346 -0.213964 0
M  V30 13271 C 1207.07 3.24738 0.897044 0
M  V30 13272 O 1207.6 3.50284 1.96632 0
M  V30 13273 N 1205.81 2.78172 0.840761 0
M  V30 13274 H 1205.36 2.57583 -0.029584 0
M  V30 13275 H 1205.31 2.64606 1.69797 0
M  V30 13276 N 1209.09 0.96196 1.24836 0
M  V30 13277 C 1210.5 0.660388 1.7463 0
M  V30 13278 C 1210.85 -0.824064 1.78055 0
M  V30 13279 O 1209.97 -1.64485 1.40619 0
M  V30 13280 C 1210.57 1.19205 3.17137 0
M  V30 13281 C 1209.13 0.940493 3.64461 0
M  V30 13282 C 1208.27 1.33076 2.43282 0
M  V30 13283 H 1211.22 1.13794 1.1062 0
M  V30 13284 H 1211.25 0.555595 3.76422 0
M  V30 13285 H 1210.76 2.27247 3.14612 0
M  V30 13286 H 1208.86 -0.124645 3.72391 0
M  V30 13287 H 1208.97 1.5821 4.52224 0
M  V30 13288 H 1207.34 0.749139 2.43434 0
M  V30 13289 H 1208.12 2.42055 2.43442 0
M  V30 13290 N 1210.56 -1.39601 0.731392 0
M  V30 13291 C 1211.84 -1.94531 0.20422 0
M  V30 13292 C 1212.22 -1.66845 -1.29329 0
M  V30 13293 O 1211.57 -0.994706 -2.05713 0
M  V30 13294 C 1211.78 -3.44891 0.53395 0
M  V30 13295 C 1213.13 -4.21863 0.481298 0
M  V30 13296 O 1214.15 -3.53073 0.470929 0
M  V30 13297 O 1213.01 -5.44452 0.472663 0
M  V30 13298 H 1210.1 -0.826214 0.0360436 0
M  V30 13299 H 1212.65 -1.49121 0.810005 0
M  V30 13300 H 1211.42 -3.58463 1.56907 0
M  V30 13301 H 1211.04 -3.97472 -0.10099 0
M  V30 13302 N 1212.04 -0.478751 -1.50152 0
M  V30 13303 C 1212.99 0.325375 -2.30313 0
M  V30 13304 C 1213.98 0.983372 -1.37935 0
M  V30 13305 O 1215.19 0.913601 -1.55091 0
M  V30 13306 H 1211.57 0.123775 -0.741744 0
M  V30 13307 H 1213.54 -0.371004 -2.96085 0
M  V30 13308 C 1212.29 1.39026 -3.18696 0
M  V30 13309 H 1211.61 0.893329 -3.89692 0
M  V30 13310 H 1213.05 1.92533 -3.77766 0
M  V30 13311 C 1211.51 2.39637 -2.36803 0
M  V30 13312 O 1212.04 3.45067 -2.05649 0
M  V30 13313 N 1210.24 2.11546 -1.9924 0
M  V30 13314 H 1209.79 1.25832 -2.24775 0
M  V30 13315 H 1209.75 2.79096 -1.44751 0
M  V30 13316 N 1213.52 1.56172 -0.211661 0
M  V30 13317 C 1214.75 2.02135 0.427222 0
M  V30 13318 C 1215.16 1.09084 1.54587 0
M  V30 13319 O 1214.5 0.090906 1.83475 0
M  V30 13320 C 1214.56 3.44459 1.029 0
M  V30 13321 C 1214.23 4.56976 0.0470243 0
M  V30 13322 C 1215.22 5.14466 -0.749724 0
M  V30 13323 C 1212.91 5.02253 -0.0688634 0
M  V30 13324 C 1214.9 6.15696 -1.64916 0
M  V30 13325 C 1212.59 6.03323 -0.971844 0
M  V30 13326 C 1213.59 6.5992 -1.76055 0
M  V30 13327 O 1213.28 7.59024 -2.64837 0
M  V30 13328 H 1213.01 0.667008 0.109894 0
M  V30 13329 H 1215.56 2.02851 -0.322595 0
M  V30 13330 H 1213.79 3.4078 1.82772 0
M  V30 13331 H 1215.48 3.74128 1.57425 0
M  V30 13332 H 1216.25 4.80342 -0.670588 0
M  V30 13333 H 1212.13 4.57886 0.534889 0
M  V30 13334 H 1215.67 6.59798 -2.26521 0
M  V30 13335 H 1211.57 6.36869 -1.05203 0
M  V30 13336 H 1212.34 7.76508 -2.58801 0
M  V30 13337 N 1215 -0.0618163 1.57479 0
M  V30 13338 C 1216.25 -0.757569 1.87364 0
M  V30 13339 C 1216.57 -1.77607 0.805025 0
M  V30 13340 O 1215.84 -1.95202 -0.165216 0
M  V30 13341 H 1214.42 -0.28278 0.691408 0
M  V30 13342 H 1217.08 -0.0355354 1.94868 0
M  V30 13343 H 1216.18 -1.26758 2.85199 0
M  V30 13344 N 1216.48 -1.54033 -0.333429 0
M  V30 13345 C 1217.41 -1.7756 -1.43345 0
M  V30 13346 C 1218.39 -0.625126 -1.50103 0
M  V30 13347 O 1219.57 -0.861444 -1.67665 0
M  V30 13348 C 1216.7 -1.88332 -2.81511 0
M  V30 13349 C 1215.74 -3.10556 -2.92331 0
M  V30 13350 S 1216.58 -4.69385 -2.57755 0
M  V30 13351 C 1217.73 -4.8305 -3.98011 0
M  V30 13352 H 1217.97 -2.70584 -1.23172 0
M  V30 13353 H 1215.5 -1.4503 -0.529691 0
M  V30 13354 H 1217.46 -1.95224 -3.61106 0
M  V30 13355 H 1216.12 -0.963031 -2.98972 0
M  V30 13356 H 1215.31 -3.14798 -3.93596 0
M  V30 13357 H 1214.91 -3.01943 -2.20696 0
M  V30 13358 H 1217.21 -4.65081 -4.92652 0
M  V30 13359 H 1218.15 -5.85148 -3.98757 0
M  V30 13360 H 1218.56 -4.11427 -3.86507 0
M  V30 13361 N 1217.95 0.594978 -1.45938 0
M  V30 13362 C 1219.23 1.35477 -1.41086 0
M  V30 13363 C 1219.61 2.10917 -0.0879512 0
M  V30 13364 O 1218.96 2.08704 0.930323 0
M  V30 13365 C 1219.17 2.29106 -2.63271 0
M  V30 13366 C 1220.52 2.9132 -3.08898 0
M  V30 13367 O 1221.54 2.39423 -2.63733 0
M  V30 13368 O 1220.4 3.85553 -3.87313 0
M  V30 13369 H 1217.49 0.6081 -0.560485 0
M  V30 13370 H 1220.04 0.617016 -1.58085 0
M  V30 13371 H 1218.81 1.72707 -3.51124 0
M  V30 13372 H 1218.44 3.10241 -2.48669 0
M  V30 13373 N 1219.43 1.33438 0.838571 0
M  V30 13374 C 1220.36 1.26344 1.96365 0
M  V30 13375 C 1221.34 0.143956 1.6949 0
M  V30 13376 O 1222.53 0.333779 1.9131 0
M  V30 13377 C 1219.66 1.0022 3.32526 0
M  V30 13378 C 1218.61 2.08466 3.73799 0
M  V30 13379 C 1217.94 1.67555 5.07769 0
M  V30 13380 C 1219.24 3.50144 3.87552 0
M  V30 13381 H 1220.93 2.20478 2.02558 0
M  V30 13382 H 1218.48 1.06139 0.973168 0
M  V30 13383 H 1220.43 0.939068 4.10803 0
M  V30 13384 H 1219.16 0.0252514 3.2659 0
M  V30 13385 H 1217.81 2.13822 2.97785 0
M  V30 13386 H 1217.46 0.685619 4.98305 0
M  V30 13387 H 1217.16 2.39993 5.36356 0
M  V30 13388 H 1218.69 1.62708 5.88522 0
M  V30 13389 H 1220.1 3.47287 4.56141 0
M  V30 13390 H 1218.5 4.21069 4.27575 0
M  V30 13391 H 1219.57 3.88628 2.89994 0
M  V30 13392 N 1220.91 -1.05686 1.16912 0
M  V30 13393 C 1221.86 -2.15417 0.877404 0
M  V30 13394 C 1222.85 -1.6868 -0.155986 0
M  V30 13395 O 1224.06 -1.79998 -0.00938156 0
M  V30 13396 H 1220.43 -0.70332 0.266168 0
M  V30 13397 H 1222.4 -2.37228 1.81012 0
M  V30 13398 C 1221.15 -3.45372 0.401696 0
M  V30 13399 H 1220.48 -3.81732 1.18832 0
M  V30 13400 H 1221.92 -4.2334 0.236418 0
M  V30 13401 C 1220.38 -3.25209 -0.87981 0
M  V30 13402 O 1220.91 -3.51322 -1.94771 0
M  V30 13403 N 1219.11 -2.78614 -0.825997 0
M  V30 13404 H 1218.66 -2.57564 0.0432439 0
M  V30 13405 H 1218.62 -2.65503 -1.68391 0
M  V30 13406 N 1222.39 -0.968567 -1.24324 0
M  V30 13407 C 1223.61 -0.648166 -1.97012 0
M  V30 13408 C 1224.04 0.775842 -1.71354 0
M  V30 13409 O 1223.4 1.52672 -0.977804 0
M  V30 13410 C 1223.44 -0.929974 -3.48402 0
M  V30 13411 O 1222.55 -0.015854 -4.12397 0
M  V30 13412 H 1221.89 -0.244961 -0.617163 0
M  V30 13413 H 1224.42 -1.29895 -1.58077 0
M  V30 13414 H 1224.43 -0.861863 -3.98793 0
M  V30 13415 H 1223.1 -1.96776 -3.66404 0
M  V30 13416 H 1221.68 -0.137361 -3.72647 0
M  V30 13417 N 1223.87 1.39211 -0.738786 0
M  V30 13418 C 1225.14 1.9442 -0.214533 0
M  V30 13419 C 1225.52 1.67528 1.28443 0
M  V30 13420 O 1224.87 1.0056 2.05183 0
M  V30 13421 C 1225.08 3.44603 -0.552232 0
M  V30 13422 C 1226.43 4.21602 -0.503663 0
M  V30 13423 O 1227.45 3.52819 -0.489647 0
M  V30 13424 O 1226.31 5.44194 -0.50153 0
M  V30 13425 H 1223.41 0.826011 -0.0404247 0
M  V30 13426 H 1225.95 1.48689 -0.817902 0
M  V30 13427 H 1224.72 3.57626 -1.58806 0
M  V30 13428 H 1224.35 3.9752 0.0799096 0
M  V30 13429 N 1225.34 0.486708 1.49896 0
M  V30 13430 C 1226.62 -0.125183 1.95199 0
M  V30 13431 C 1227 -1.55498 1.42771 0
M  V30 13432 O 1226.35 -2.1949 0.635322 0
M  V30 13433 C 1226.56 -0.0524982 3.48961 0
M  V30 13434 C 1227.91 -0.233595 4.23957 0
M  V30 13435 O 1228.93 -0.128357 3.55969 0
M  V30 13436 O 1227.79 -0.447862 5.44662 0
M  V30 13437 H 1224.88 -0.103141 0.820543 0
M  V30 13438 H 1227.43 0.548226 1.60601 0
M  V30 13439 H 1226.2 0.945163 3.79714 0
M  V30 13440 H 1225.83 -0.766683 3.90138 0
M  V30 13441 N 1226.82 -1.56058 0.219941 0
M  V30 13442 C 1228.05 -2.031 -0.42014 0
M  V30 13443 C 1228.47 -1.09875 -1.52673 0
M  V30 13444 O 1227.83 -0.0866458 -1.81093 0
M  V30 13445 C 1227.88 -3.48389 -0.93047 0
M  V30 13446 O 1226.98 -3.583 -2.04192 0
M  V30 13447 H 1226.32 -0.657129 -0.0952772 0
M  V30 13448 H 1228.85 -2.01787 0.338105 0
M  V30 13449 H 1228.86 -3.88678 -1.2407 0
M  V30 13450 H 1227.54 -4.15725 -0.120539 0
M  V30 13451 H 1226.12 -3.29898 -1.73845 0
M  V30 13452 N 1228.3 0.053464 -1.57509 0
M  V30 13453 C 1229.53 0.761533 -1.92375 0
M  V30 13454 C 1229.94 1.70179 -0.817585 0
M  V30 13455 O 1229.3 1.81313 0.207843 0
M  V30 13456 C 1229.35 1.53954 -3.27078 0
M  V30 13457 O 1229.07 0.637054 -4.33443 0
M  V30 13458 C 1230.57 2.34697 -3.76075 0
M  V30 13459 H 1227.79 0.215483 -0.635459 0
M  V30 13460 H 1230.34 0.0182624 -2.04492 0
M  V30 13461 H 1228.49 2.23492 -3.16434 0
M  V30 13462 H 1228.91 1.18006 -5.11053 0
M  V30 13463 H 1230.38 2.84716 -4.72906 0
M  V30 13464 H 1230.86 3.15041 -3.06016 0
M  V30 13465 H 1231.46 1.70281 -3.89724 0
M  V30 13466 N 1229.78 1.54207 0.325255 0
M  V30 13467 C 1231.06 1.6298 1.08153 0
M  V30 13468 C 1231.44 0.462583 2.05969 0
M  V30 13469 O 1230.78 -0.543323 2.21947 0
M  V30 13470 C 1230.99 2.999 1.78497 0
M  V30 13471 C 1232.34 3.55888 2.3158 0
M  V30 13472 O 1233.37 3.02194 1.88566 0
M  V30 13473 O 1232.23 4.49847 3.10322 0
M  V30 13474 H 1229.32 0.659923 0.498429 0
M  V30 13475 H 1231.87 1.66553 0.325282 0
M  V30 13476 H 1230.64 3.7629 1.07338 0
M  V30 13477 H 1230.26 2.99997 2.60936 0
M  V30 13478 N 1231.26 -0.58723 1.46251 0
M  V30 13479 C 1232.53 -1.34727 1.41802 0
M  V30 13480 C 1232.91 -2.10867 0.0991354 0
M  V30 13481 O 1232.26 -2.09194 -0.919242 0
M  V30 13482 C 1232.47 -2.27706 2.64482 0
M  V30 13483 C 1233.82 -2.89678 3.10438 0
M  V30 13484 O 1234.84 -2.38021 2.64999 0
M  V30 13485 O 1233.7 -3.83493 3.89352 0
M  V30 13486 H 1230.8 -0.605119 0.563702 0
M  V30 13487 H 1233.34 -0.608623 1.5841 0
M  V30 13488 H 1232.12 -1.70842 3.52035 0
M  V30 13489 H 1231.74 -3.08918 2.50311 0
M  V30 13490 N 1232.74 -1.33881 -0.831482 0
M  V30 13491 C 1233.65 -1.26802 -1.97379 0
M  V30 13492 C 1234.66 -0.177233 -1.73095 0
M  V30 13493 O 1235.84 -0.402163 -1.97344 0
M  V30 13494 C 1232.9 -1.01474 -3.31517 0
M  V30 13495 C 1231.96 -2.19626 -3.68867 0
M  V30 13496 C 1231.2 -1.95497 -4.96605 0
M  V30 13497 O 1231.42 -0.908948 -5.63111 0
M  V30 13498 O 1230.35 -2.82226 -5.31632 0
M  V30 13499 H 1234.18 -2.22883 -2.06293 0
M  V30 13500 H 1231.76 -1.14001 -0.965613 0
M  V30 13501 H 1233.65 -0.890954 -4.11874 0
M  V30 13502 H 1232.32 -0.0842656 -3.2359 0
M  V30 13503 H 1231.23 -2.37561 -2.88991 0
M  V30 13504 H 1232.56 -3.11034 -3.81469 0
M  V30 13505 N 1234.21 1.05064 -1.1747 0
M  V30 13506 C 1235.18 2.1101 -0.89485 0
M  V30 13507 C 1236.18 1.60384 0.11553 0
M  V30 13508 O 1237.37 1.73808 -0.116785 0
M  V30 13509 C 1234.5 3.39194 -0.340642 0
M  V30 13510 H 1235.69 2.37269 -1.83421 0
M  V30 13511 H 1233.24 1.21329 -0.985343 0
M  V30 13512 H 1233.98 3.18591 0.605808 0
M  V30 13513 H 1233.76 3.77251 -1.06885 0
M  V30 13514 H 1235.25 4.17281 -0.163204 0
M  V30 13515 N 1235.69 0.975146 1.23809 0
M  V30 13516 C 1236.64 0.482305 2.2284 0
M  V30 13517 C 1237.63 -0.439787 1.54773 0
M  V30 13518 O 1238.82 -0.269496 1.74936 0
M  V30 13519 C 1235.95 -0.219056 3.426 0
M  V30 13520 C 1235.03 0.722299 4.17904 0
M  V30 13521 N 1235.42 1.86271 4.70252 0
M  V30 13522 C 1233.72 0.53457 4.42785 0
M  V30 13523 C 1234.42 2.45212 5.2749 0
M  V30 13524 N 1233.4 1.73652 5.15117 0
M  V30 13525 H 1237.2 1.35234 2.60939 0
M  V30 13526 H 1234.71 0.835162 1.3928 0
M  V30 13527 H 1236.71 -0.589401 4.12713 0
M  V30 13528 H 1235.37 -1.08544 3.0602 0
M  V30 13529 H 1236.38 2.24404 4.66758 0
M  V30 13530 H 1233.06 -0.287232 4.16511 0
M  V30 13531 H 1234.45 3.41491 5.78648 0
M  V30 13532 N 1237.17 -1.38817 0.746158 0
M  V30 13533 C 1238.58 -1.83045 0.367629 0
M  V30 13534 C 1238.93 -1.62285 -1.10263 0
M  V30 13535 O 1238.06 -1.12001 -1.85162 0
M  V30 13536 C 1238.65 -3.323 0.660482 0
M  V30 13537 C 1237.21 -3.74903 0.335318 0
M  V30 13538 C 1236.36 -2.61683 0.917446 0
M  V30 13539 H 1239.31 -1.27651 0.94291 0
M  V30 13540 H 1239.33 -3.80446 -0.0639061 0
M  V30 13541 H 1238.84 -3.47377 1.73062 0
M  V30 13542 H 1236.94 -3.65408 -0.728538 0
M  V30 13543 H 1237.06 -4.71932 0.825677 0
M  V30 13544 H 1235.42 -2.52376 0.343316 0
M  V30 13545 H 1236.2 -2.79563 1.99247 0
M  V30 13546 N 1238.65 -0.49465 -1.49636 0
M  V30 13547 C 1240.06 -0.150217 -1.58892 0
M  V30 13548 C 1240.26 1.34485 -1.50053 0
M  V30 13549 O 1239.32 2.12026 -1.37118 0
M  V30 13550 C 1240.63 -0.721372 -2.91919 0
M  V30 13551 C 1242.18 -0.686908 -3.0537 0
M  V30 13552 C 1242.66 -1.23601 -4.41006 0
M  V30 13553 N 1244.15 -1.19644 -4.47481 0
M  V30 13554 C 1244.88 -1.59157 -5.50869 0
M  V30 13555 N 1244.38 -2.06232 -6.61393 0
M  V30 13556 N 1246.17 -1.50612 -5.41546 0
M  V30 13557 H 1238.32 -1.46675 -1.53624 0
M  V30 13558 H 1240.58 -0.608003 -0.727349 0
M  V30 13559 H 1240.29 -1.76964 -3.03935 0
M  V30 13560 H 1240.16 -0.178199 -3.76779 0
M  V30 13561 H 1242.55 0.352508 -2.92987 0
M  V30 13562 H 1242.63 -1.26716 -2.22209 0
M  V30 13563 H 1242.28 -2.27418 -4.5414 0
M  V30 13564 H 1242.21 -0.631765 -5.22797 0
M  V30 13565 H 1244.7 -0.851443 -3.68183 0
M  V30 13566 H 1245.01 -2.34469 -7.36372 0
M  V30 13567 H 1243.36 -2.10202 -6.6245 0
M  V30 13568 H 1246.55 -1.13659 -4.54092 0
M  V30 13569 H 1246.72 -1.8173 -6.21995 0
M  V30 13570 N 1240.13 1.55939 -0.228214 0
M  V30 13571 C 1241.07 2.20581 0.679157 0
M  V30 13572 C 1242.04 1.16355 1.18536 0
M  V30 13573 O 1243.23 1.44735 1.24324 0
M  V30 13574 C 1240.37 2.89477 1.87875 0
M  V30 13575 C 1239.48 4.08313 1.41083 0
M  V30 13576 C 1238.62 4.64974 2.56851 0
M  V30 13577 C 1237.65 5.76098 2.06828 0
M  V30 13578 N 1236.79 6.27021 3.15894 0
M  V30 13579 H 1241.63 2.97753 0.121203 0
M  V30 13580 H 1239.17 1.47021 0.0480688 0
M  V30 13581 H 1241.13 3.2761 2.58317 0
M  V30 13582 H 1239.76 2.14811 2.40948 0
M  V30 13583 H 1238.81 3.75621 0.601102 0
M  V30 13584 H 1240.12 4.8859 1.00408 0
M  V30 13585 H 1239.27 5.05584 3.35365 0
M  V30 13586 H 1238.01 3.83875 3.00818 0
M  V30 13587 H 1237.02 5.34984 1.26778 0
M  V30 13588 H 1238.24 6.59037 1.63852 0
M  V30 13589 H 1236.19 5.48833 3.5933 0
M  V30 13590 H 1236.11 7.02439 2.79491 0
M  V30 13591 H 1237.37 6.72289 3.94523 0
M  V30 13592 N 1241.6 -0.0451101 1.57535 0
M  V30 13593 C 1243.02 -0.59372 1.77008 0
M  V30 13594 C 1243.37 -1.76482 0.857233 0
M  V30 13595 O 1242.49 -2.16347 0.0479703 0
M  V30 13596 C 1243.09 -1.08383 3.20996 0
M  V30 13597 C 1241.65 -1.57808 3.41721 0
M  V30 13598 C 1240.79 -0.509067 2.72587 0
M  V30 13599 H 1243.74 0.181114 1.57663 0
M  V30 13600 H 1243.76 -1.95181 3.26626 0
M  V30 13601 H 1243.28 -0.231276 3.8741 0
M  V30 13602 H 1241.38 -2.45302 2.8046 0
M  V30 13603 H 1241.49 -1.63664 4.50279 0
M  V30 13604 H 1239.85 -0.960389 2.359 0
M  V30 13605 H 1240.64 0.333753 3.41674 0
M  V30 13606 N 1243.08 -1.54377 -0.317073 0
M  V30 13607 C 1244.33 -1.72105 -1.0518 0
M  V30 13608 C 1244.64 -0.505166 -1.88964 0
M  V30 13609 O 1245.85 -0.563912 -2.65579 0
M  V30 13610 C 1244.31 -3.04435 -1.91957 0
M  V30 13611 C 1243.91 -4.33449 -1.13253 0
M  V30 13612 C 1245.66 -3.31524 -2.65127 0
M  V30 13613 C 1243.57 -5.56837 -1.99214 0
M  V30 13614 H 1242.5 -0.641392 -0.396399 0
M  V30 13615 H 1245.15 -1.80868 -0.309673 0
M  V30 13616 H 1243.53 -2.89595 -2.70094 0
M  V30 13617 H 1244.7 -4.59074 -0.39842 0
M  V30 13618 H 1243.02 -4.13173 -0.517372 0
M  V30 13619 H 1245.61 -4.20906 -3.29761 0
M  V30 13620 H 1245.96 -2.49688 -3.33109 0
M  V30 13621 H 1246.49 -3.47261 -1.94048 0
M  V30 13622 H 1243.23 -6.41294 -1.35729 0
M  V30 13623 H 1242.75 -5.35421 -2.70341 0
M  V30 13624 H 1244.43 -5.93488 -2.57646 0
M  V30 13625 N 1244.56 0.579466 -1.4656 0
M  V30 13626 C 1245.97 1.1616 -1.46164 0
M  V30 13627 C 1246.32 1.95134 -0.20423 0
M  V30 13628 O 1245.45 2.05022 0.692457 0
M  V30 13629 C 1246.04 2.11322 -2.64818 0
M  V30 13630 C 1244.6 2.64852 -2.67452 0
M  V30 13631 C 1243.75 1.40786 -2.38903 0
M  V30 13632 H 1246.7 0.367229 -1.54393 0
M  V30 13633 H 1246.72 2.94839 -2.4052 0
M  V30 13634 H 1246.23 1.53815 -3.56318 0
M  V30 13635 H 1244.33 3.26219 -1.80032 0
M  V30 13636 H 1244.45 3.07366 -3.67509 0
M  V30 13637 H 1242.81 1.70707 -1.89027 0
M  V30 13638 H 1243.59 0.851049 -3.32584 0
M  V30 13639 N 1246.04 1.3432 0.824371 0
M  V30 13640 C 1247.27 1.29669 1.61226 0
M  V30 13641 C 1247.68 -0.129532 1.88355 0
M  V30 13642 O 1247.04 -1.07616 1.47394 0
M  V30 13643 C 1247.09 2.08375 2.95402 0
M  V30 13644 O 1246.81 3.45434 2.69456 0
M  V30 13645 C 1248.31 2.11103 3.89808 0
M  V30 13646 H 1245.53 0.446137 0.501201 0
M  V30 13647 H 1248.08 1.76912 1.02579 0
M  V30 13648 H 1246.23 1.64777 3.5061 0
M  V30 13649 H 1246.64 3.86101 3.55001 0
M  V30 13650 H 1248.12 2.706 4.81124 0
M  V30 13651 H 1248.6 1.10505 4.25071 0
M  V30 13652 H 1249.2 2.54784 3.40537 0
M  V30 13653 N 1247.52 -1.0444 1.18026 0
M  V30 13654 C 1248.76 -1.77972 0.984767 0
M  V30 13655 C 1249.12 -1.86294 -0.480861 0
M  V30 13656 O 1248.41 -1.35724 -1.35239 0
M  V30 13657 C 1248.6 -3.21134 1.56869 0
M  V30 13658 C 1248.43 -3.26765 3.08958 0
M  V30 13659 C 1247.2 -3.35612 3.77747 0
M  V30 13660 C 1249.4 -3.15083 4.06482 0
M  V30 13661 N 1247.38 -3.30454 5.17372 0
M  V30 13662 C 1248.75 -3.17382 5.32606 0
M  V30 13663 C 1250.81 -2.99099 3.98051 0
M  V30 13664 C 1249.51 -3.05338 6.51277 0
M  V30 13665 C 1251.54 -2.88399 5.16314 0
M  V30 13666 C 1250.9 -2.91338 6.41328 0
M  V30 13667 H 1247 -0.66322 0.414323 0
M  V30 13668 H 1249.58 -1.24444 1.49739 0
M  V30 13669 H 1247.75 -3.73016 1.0823 0
M  V30 13670 H 1249.49 -3.82943 1.30908 0
M  V30 13671 H 1246.24 -3.41189 3.28462 0
M  V30 13672 H 1246.67 -3.31324 5.90384 0
M  V30 13673 H 1251.31 -2.95659 3.02234 0
M  V30 13674 H 1249.03 -3.07531 7.47296 0
M  V30 13675 H 1252.61 -2.77091 5.11578 0
M  V30 13676 H 1251.49 -2.83141 7.31301 0
M  V30 13677 N 1248.99 -0.981699 -1.2329 0
M  V30 13678 C 1249.96 -0.527992 -2.23036 0
M  V30 13679 C 1250.96 0.383083 -1.5617 0
M  V30 13680 O 1252.15 0.176595 -1.73303 0
M  V30 13681 C 1249.28 0.233501 -3.40099 0
M  V30 13682 H 1250.47 -1.40995 -2.64689 0
M  V30 13683 H 1248.03 -0.767724 -1.36146 0
M  V30 13684 H 1248.76 1.13194 -3.03904 0
M  V30 13685 H 1248.55 -0.420505 -3.89839 0
M  V30 13686 H 1250.04 0.539485 -4.14101 0
M  V30 13687 N 1250.47 1.3842 -0.753509 0
M  V30 13688 C 1251.89 1.53668 -0.431095 0
M  V30 13689 C 1252.09 1.71626 1.05578 0
M  V30 13690 O 1251.14 1.72723 1.84182 0
M  V30 13691 C 1252.46 2.74381 -1.23027 0
M  V30 13692 C 1254.01 2.8823 -1.22034 0
M  V30 13693 C 1254.48 4.11904 -2.00248 0
M  V30 13694 N 1255.97 4.18981 -1.97508 0
M  V30 13695 C 1256.71 5.13667 -2.5482 0
M  V30 13696 N 1256.2 6.14027 -3.20846 0
M  V30 13697 N 1258 5.06017 -2.44751 0
M  V30 13698 H 1250.15 1.25012 -1.71714 0
M  V30 13699 H 1252.41 0.607296 -0.727939 0
M  V30 13700 H 1252.12 2.67515 -2.28317 0
M  V30 13701 H 1251.99 3.67565 -0.847098 0
M  V30 13702 H 1254.38 2.94578 -0.175502 0
M  V30 13703 H 1254.46 1.96057 -1.64303 0
M  V30 13704 H 1254.1 4.06318 -3.04742 0
M  V30 13705 H 1254.03 5.03157 -1.55373 0
M  V30 13706 H 1256.52 3.47104 -1.49423 0
M  V30 13707 H 1256.84 6.82771 -3.61999 0
M  V30 13708 H 1255.18 6.1436 -3.24941 0
M  V30 13709 H 1258.37 4.26552 -1.92797 0
M  V30 13710 H 1258.54 5.7963 -2.89713 0
M  V30 13711 N 1251.95 0.502579 1.49372 0
M  V30 13712 C 1253.2 -0.0412993 2.02058 0
M  V30 13713 C 1253.52 -1.37338 1.38431 0
M  V30 13714 O 1252.79 -1.88305 0.540175 0
M  V30 13715 H 1251.37 -0.0182522 0.746777 0
M  V30 13716 H 1254.03 0.660179 1.83378 0
M  V30 13717 H 1253.13 -0.169812 3.11638 0
M  V30 13718 N 1253.43 -1.55816 0.23648 0
M  V30 13719 C 1254.66 -2.03083 -0.395584 0
M  V30 13720 C 1255.07 -1.11599 -1.52286 0
M  V30 13721 O 1254.43 -0.128403 -1.82048 0
M  V30 13722 C 1254.48 -3.49776 -0.913197 0
M  V30 13723 O 1254.2 -4.37773 0.169151 0
M  V30 13724 C 1255.7 -4.12756 -1.617 0
M  V30 13725 H 1252.92 -0.66421 -0.0952146 0
M  V30 13726 H 1255.47 -2.01354 0.357299 0
M  V30 13727 H 1253.62 -3.52072 -1.6163 0
M  V30 13728 H 1254.03 -5.24029 -0.222217 0
M  V30 13729 H 1255.51 -5.17123 -1.93101 0
M  V30 13730 H 1255.99 -3.58631 -2.53537 0
M  V30 13731 H 1256.59 -4.14353 -0.958736 0
M  V30 13732 N 1254.91 0.036755 -1.57557 0
M  V30 13733 C 1256.32 0.584324 -1.7732 0
M  V30 13734 C 1256.67 1.76025 -0.86658 0
M  V30 13735 O 1255.79 2.16318 -0.059443 0
M  V30 13736 C 1256.39 1.06679 -3.21566 0
M  V30 13737 C 1254.95 1.55994 -3.42553 0
M  V30 13738 C 1254.09 0.494604 -2.72853 0
M  V30 13739 H 1257.05 -0.189473 -1.57565 0
M  V30 13740 H 1257.07 1.93446 -3.27657 0
M  V30 13741 H 1256.58 0.210727 -3.87527 0
M  V30 13742 H 1254.68 2.43811 -2.81757 0
M  V30 13743 H 1254.79 1.61274 -4.5114 0
M  V30 13744 H 1253.16 0.947865 -2.36406 0
M  V30 13745 H 1253.94 -0.351868 -3.41492 0
M  V30 13746 N 1256.39 1.54543 0.308881 0
M  V30 13747 C 1257.32 1.87947 1.38557 0
M  V30 13748 C 1258.3 0.737622 1.53275 0
M  V30 13749 O 1259.48 0.992664 1.66913 0
M  V30 13750 C 1256.61 2.11982 2.75102 0
M  V30 13751 C 1255.57 3.2783 2.75158 0
M  V30 13752 C 1254.89 3.37266 4.14917 0
M  V30 13753 C 1256.19 4.65129 2.37598 0
M  V30 13754 H 1257.89 2.78123 1.1085 0
M  V30 13755 H 1255.43 1.3382 0.531808 0
M  V30 13756 H 1257.38 2.33935 3.50503 0
M  V30 13757 H 1256.11 1.18569 3.04317 0
M  V30 13758 H 1254.77 3.05787 2.02212 0
M  V30 13759 H 1254.42 2.41384 4.41296 0
M  V30 13760 H 1254.12 4.15135 4.15857 0
M  V30 13761 H 1255.64 3.61471 4.92109 0
M  V30 13762 H 1257.05 4.86865 3.02714 0
M  V30 13763 H 1255.45 5.45653 2.49765 0
M  V30 13764 H 1256.52 4.6638 1.32731 0
M  V30 13765 N 1257.86 -0.571685 1.46866 0
M  V30 13766 C 1259.09 -1.36008 1.56578 0
M  V30 13767 C 1259.51 -1.86909 0.211326 0
M  V30 13768 O 1258.87 -1.62179 -0.810421 0
M  V30 13769 C 1258.92 -2.51598 2.58323 0
M  V30 13770 O 1258.02 -3.53383 2.1259 0
M  V30 13771 H 1257.36 -0.404593 0.526498 0
M  V30 13772 H 1259.89 -0.692357 1.92529 0
M  V30 13773 H 1259.9 -2.98366 2.78283 0
M  V30 13774 H 1258.58 -2.13904 3.56676 0
M  V30 13775 H 1257.16 -3.13019 2.02666 0
M  V30 13776 N 1259.34 -1.34755 -0.817236 0
M  V30 13777 C 1260.27 -1.22648 -1.93624 0
M  V30 13778 C 1261.29 -0.152226 -1.62087 0
M  V30 13779 O 1262.48 -0.404578 -1.73855 0
M  V30 13780 C 1259.58 -0.863519 -3.27714 0
M  V30 13781 C 1258.75 -2.03394 -3.87233 0
M  V30 13782 C 1257.81 -1.64846 -4.99712 0
M  V30 13783 O 1256.83 -2.3658 -5.17705 0
M  V30 13784 N 1258.04 -0.565909 -5.77735 0
M  V30 13785 H 1260.8 -2.19051 -2.0454 0
M  V30 13786 H 1258.36 -1.27785 -0.994113 0
M  V30 13787 H 1260.35 -0.58733 -4.00415 0
M  V30 13788 H 1258.92 0.0104987 -3.12598 0
M  V30 13789 H 1258.14 -2.47454 -3.06856 0
M  V30 13790 H 1259.43 -2.81655 -4.23731 0
M  V30 13791 H 1258.83 0.030313 -5.65692 0
M  V30 13792 H 1257.39 -0.349467 -6.50862 0
M  V30 13793 N 1260.82 1.03812 -1.18578 0
M  V30 13794 C 1261.78 2.10049 -0.91718 0
M  V30 13795 C 1262.78 1.60498 0.0985122 0
M  V30 13796 O 1263.97 1.73674 -0.135213 0
M  V30 13797 C 1261.1 3.38813 -0.376599 0
M  V30 13798 H 1262.3 2.3531 -1.85927 0
M  V30 13799 H 1259.85 1.20277 -0.998156 0
M  V30 13800 H 1260.59 3.19216 0.571983 0
M  V30 13801 H 1260.37 3.76096 -1.10881 0
M  V30 13802 H 1261.86 4.17084 -0.207453 0
M  V30 13803 N 1262.3 0.988223 1.22768 0
M  V30 13804 C 1263.55 0.656941 1.90702 0
M  V30 13805 C 1263.86 -0.814058 1.77855 0
M  V30 13806 O 1265.07 -1.25673 2.40663 0
M  V30 13807 C 1263.52 1.12445 3.41883 0
M  V30 13808 C 1263.13 2.62034 3.63376 0
M  V30 13809 C 1264.87 0.867277 4.15546 0
M  V30 13810 C 1262.78 3.02412 5.08233 0
M  V30 13811 H 1261.71 0.242012 0.714105 0
M  V30 13812 H 1264.36 1.19716 1.39069 0
M  V30 13813 H 1262.74 0.512386 3.92671 0
M  V30 13814 H 1263.92 3.28546 3.23101 0
M  V30 13815 H 1262.23 2.85583 3.03037 0
M  V30 13816 H 1264.83 1.14471 5.22303 0
M  V30 13817 H 1265.17 -0.196611 4.15835 0
M  V30 13818 H 1265.71 1.4413 3.70771 0
M  V30 13819 H 1262.44 4.07957 5.1308 0
M  V30 13820 H 1261.96 2.406 5.49429 0
M  V30 13821 H 1263.64 2.93452 5.76624 0
M  V30 13822 N 1263.78 -1.38018 0.760839 0
M  V30 13823 C 1265.02 -1.99194 0.316984 0
M  V30 13824 C 1265.34 -1.61083 -1.10958 0
M  V30 13825 O 1266.54 -2.15281 -1.65428 0
M  V30 13826 C 1265 -3.56185 0.515792 0
M  V30 13827 C 1264.61 -4.03242 1.95191 0
M  V30 13828 C 1266.35 -4.24285 0.135013 0
M  V30 13829 C 1264.26 -5.52902 2.0989 0
M  V30 13830 H 1263.19 -0.745214 0.114771 0
M  V30 13831 H 1265.84 -1.5769 0.938415 0
M  V30 13832 H 1264.22 -3.95613 -0.174934 0
M  V30 13833 H 1265.4 -3.75086 2.6767 0
M  V30 13834 H 1263.71 -3.47889 2.28827 0
M  V30 13835 H 1266.31 -5.34233 0.223495 0
M  V30 13836 H 1266.65 -4.06158 -0.913322 0
M  V30 13837 H 1267.18 -3.90121 0.777868 0
M  V30 13838 H 1263.92 -5.75942 3.13003 0
M  V30 13839 H 1263.44 -5.82778 1.41881 0
M  V30 13840 H 1265.12 -6.18709 1.89229 0
M  V30 13841 N 1265.25 -0.510493 -1.49103 0
M  V30 13842 C 1266.2 0.282297 -2.26246 0
M  V30 13843 C 1267.19 0.927187 -1.31499 0
M  V30 13844 O 1268.38 0.833216 -1.56162 0
M  V30 13845 C 1265.51 1.34046 -3.16049 0
M  V30 13846 C 1264.59 0.701334 -4.18261 0
M  V30 13847 N 1264.99 -0.201593 -5.05398 0
M  V30 13848 C 1263.28 0.960822 -4.35527 0
M  V30 13849 C 1263.98 -0.568383 -5.78916 0
M  V30 13850 N 1262.96 0.0659546 -5.4356 0
M  V30 13851 H 1266.76 -0.41264 -2.90989 0
M  V30 13852 H 1264.28 -0.327201 -1.5907 0
M  V30 13853 H 1266.27 1.92195 -3.69955 0
M  V30 13854 H 1264.93 2.03697 -2.52859 0
M  V30 13855 H 1265.94 -0.573004 -5.1472 0
M  V30 13856 H 1262.62 1.64938 -3.83539 0
M  V30 13857 H 1264.01 -1.30763 -6.59053 0
M  V30 13858 N 1266.73 1.55688 -0.24474 0
M  V30 13859 C 1267.66 2.18616 0.68844 0
M  V30 13860 C 1268.68 1.16185 1.14039 0
M  V30 13861 O 1269.87 1.43059 1.06754 0
M  V30 13862 C 1266.97 2.77375 1.94721 0
M  V30 13863 C 1266.14 4.05204 1.64706 0
M  V30 13864 C 1265.2 4.48302 2.75521 0
M  V30 13865 O 1264.22 5.14723 2.42999 0
M  V30 13866 N 1265.43 4.15907 4.04971 0
M  V30 13867 H 1268.19 2.99324 0.150018 0
M  V30 13868 H 1265.75 1.61771 -0.0646183 0
M  V30 13869 H 1267.74 3.03165 2.68091 0
M  V30 13870 H 1266.31 2.00837 2.39548 0
M  V30 13871 H 1265.53 3.87026 0.74865 0
M  V30 13872 H 1266.82 4.8855 1.42114 0
M  V30 13873 H 1266.22 3.62579 4.34227 0
M  V30 13874 H 1264.78 4.46538 4.74813 0
M  V30 13875 N 1268.21 -0.0283989 1.57574 0
M  V30 13876 C 1269.44 -0.729772 1.93282 0
M  V30 13877 C 1269.85 -1.69384 0.842959 0
M  V30 13878 O 1269.19 -1.82722 -0.189286 0
M  V30 13879 C 1269.25 -1.54107 3.24794 0
M  V30 13880 C 1268.92 -0.741709 4.50941 0
M  V30 13881 C 1269.91 -0.0416985 5.19883 0
M  V30 13882 C 1267.6 -0.696053 4.97454 0
M  V30 13883 C 1269.59 0.693261 6.33619 0
M  V30 13884 C 1267.28 0.042651 6.11085 0
M  V30 13885 C 1268.28 0.736067 6.79022 0
M  V30 13886 O 1267.97 1.46278 7.9048 0
M  V30 13887 H 1267.7 -0.210092 0.642524 0
M  V30 13888 H 1270.25 0.0102277 2.05397 0
M  V30 13889 H 1268.48 -2.3249 3.09007 0
M  V30 13890 H 1270.17 -2.12512 3.45823 0
M  V30 13891 H 1270.94 -0.0679975 4.84952 0
M  V30 13892 H 1266.82 -1.22528 4.44419 0
M  V30 13893 H 1270.36 1.23504 6.8658 0
M  V30 13894 H 1266.26 0.0708708 6.45461 0
M  V30 13895 H 1267.02 1.37652 8.06842 0
M  V30 13896 N 1269.69 -1.54705 -0.300681 0
M  V30 13897 C 1270.92 -1.77735 -1.05327 0
M  V30 13898 C 1271.33 -0.53709 -1.81417 0
M  V30 13899 O 1270.67 0.502663 -1.76689 0
M  V30 13900 C 1270.73 -2.93222 -2.07993 0
M  V30 13901 C 1270.39 -4.313 -1.51095 0
M  V30 13902 C 1271.39 -5.11317 -0.94082 0
M  V30 13903 C 1269.08 -4.77901 -1.54648 0
M  V30 13904 C 1271.07 -6.36055 -0.413791 0
M  V30 13905 C 1268.76 -6.02602 -1.01558 0
M  V30 13906 C 1269.76 -6.81515 -0.450209 0
M  V30 13907 O 1269.44 -8.03867 0.0726375 0
M  V30 13908 H 1269.18 -0.596468 -0.318122 0
M  V30 13909 H 1271.73 -2.02475 -0.345404 0
M  V30 13910 H 1269.96 -2.64108 -2.82461 0
M  V30 13911 H 1271.65 -3.03826 -2.69156 0
M  V30 13912 H 1272.41 -4.76458 -0.906268 0
M  V30 13913 H 1268.29 -4.16507 -1.97594 0
M  V30 13914 H 1271.84 -6.97594 0.0281534 0
M  V30 13915 H 1267.73 -6.36948 -1.04728 0
M  V30 13916 H 1268.5 -8.1849 -0.0406321 0
M  V30 13917 N 1271.17 0.563888 -1.47167 0
M  V30 13918 C 1272.12 1.66687 -1.55562 0
M  V30 13919 C 1273.1 1.55455 -0.415024 0
M  V30 13920 O 1274.29 1.64051 -0.664557 0
M  V30 13921 C 1271.42 3.05469 -1.56665 0
M  V30 13922 C 1270.51 3.21928 -2.76085 0
M  V30 13923 N 1270.9 3.08477 -4.00844 0
M  V30 13924 C 1269.2 3.52913 -2.72706 0
M  V30 13925 C 1269.9 3.27447 -4.80784 0
M  V30 13926 N 1268.87 3.53474 -4.12986 0
M  V30 13927 H 1272.68 1.54846 -2.498 0
M  V30 13928 H 1270.19 0.76846 -1.43068 0
M  V30 13929 H 1272.19 3.84655 -1.60768 0
M  V30 13930 H 1270.85 3.18427 -0.635174 0
M  V30 13931 H 1271.86 2.85944 -4.31806 0
M  V30 13932 H 1268.53 3.7244 -1.88666 0
M  V30 13933 H 1269.92 3.22072 -5.89677 0
M  V30 13934 N 1272.64 1.35187 0.810078 0
M  V30 13935 C 1274.06 1.25329 1.38381 0
M  V30 13936 C 1274.41 -0.115799 1.95858 0
M  V30 13937 O 1273.53 -1.01663 1.91033 0
M  V30 13938 C 1274.13 2.2693 2.51572 0
M  V30 13939 C 1272.69 2.20824 3.04818 0
M  V30 13940 C 1271.83 2.1283 1.7776 0
M  V30 13941 H 1274.78 1.46366 0.613402 0
M  V30 13942 H 1274.8 1.89375 3.30026 0
M  V30 13943 H 1274.32 3.26563 2.09709 0
M  V30 13944 H 1272.42 1.24589 3.51153 0
M  V30 13945 H 1272.53 3.12637 3.63036 0
M  V30 13946 H 1270.89 1.58752 1.99173 0
M  V30 13947 H 1271.68 3.14318 1.38054 0
M  V30 13948 N 1274.12 -1.03182 1.19127 0
M  V30 13949 C 1275.53 -1.57984 0.994888 0
M  V30 13950 C 1275.88 -1.90898 -0.453019 0
M  V30 13951 O 1275.01 -1.70556 -1.33191 0
M  V30 13952 C 1275.6 -2.8705 1.79966 0
M  V30 13953 C 1274.16 -3.38435 1.64737 0
M  V30 13954 C 1273.31 -2.11912 1.78854 0
M  V30 13955 H 1276.26 -0.857458 1.33542 0
M  V30 13956 H 1276.28 -3.57821 1.294 0
M  V30 13957 H 1275.79 -2.63062 2.85341 0
M  V30 13958 H 1273.9 -3.67416 0.619358 0
M  V30 13959 H 1274.01 -4.11665 2.45089 0
M  V30 13960 H 1272.37 -2.23642 1.21886 0
M  V30 13961 H 1273.16 -1.90369 2.85682 0
M  V30 13962 N 1275.6 -0.99472 -1.22242 0
M  V30 13963 C 1276.55 -0.53946 -2.26258 0
M  V30 13964 C 1277.54 0.410796 -1.64344 0
M  V30 13965 O 1278.75 0.283116 -1.7776 0
M  V30 13966 H 1275.12 -0.156069 -0.735627 0
M  V30 13967 H 1277.09 -1.42814 -2.62005 0
M  V30 13968 C 1275.84 0.12842 -3.47463 0
M  V30 13969 H 1275.17 -0.593727 -3.95367 0
M  V30 13970 H 1276.61 0.410393 -4.22009 0
M  V30 13971 C 1275.07 1.36433 -3.08038 0
M  V30 13972 O 1275.6 2.45953 -3.176 0
M  V30 13973 N 1273.8 1.24026 -2.62804 0
M  V30 13974 H 1273.35 0.349111 -2.55223 0
M  V30 13975 H 1273.31 2.06824 -2.36794 0
M  V30 13976 N 1277.08 1.37613 -0.768148 0
M  V30 13977 C 1278.01 2.3291 -0.165911 0
M  V30 13978 C 1278.99 1.556 0.687205 0
M  V30 13979 O 1280.17 1.83854 0.625407 0
M  V30 13980 C 1277.3 3.39822 0.7168 0
M  V30 13981 C 1276.26 4.27986 -0.0347264 0
M  V30 13982 C 1275.58 5.2588 0.967192 0
M  V30 13983 C 1276.88 5.08052 -1.21164 0
M  V30 13984 H 1278.58 2.83524 -0.962006 0
M  V30 13985 H 1276.12 1.36318 -0.464051 0
M  V30 13986 H 1278.08 4.05464 1.14789 0
M  V30 13987 H 1276.8 2.87725 1.54538 0
M  V30 13988 H 1275.46 3.6387 -0.446557 0
M  V30 13989 H 1275.11 4.70064 1.79022 0
M  V30 13990 H 1274.81 5.85726 0.468913 0
M  V30 13991 H 1276.33 5.94397 1.3973 0
M  V30 13992 H 1277.75 5.66853 -0.857373 0
M  V30 13993 H 1276.14 5.77206 -1.64176 0
M  V30 13994 H 1277.21 4.40936 -2.0175 0
M  V30 13995 N 1278.56 0.518393 1.4883 0
M  V30 13996 C 1279.49 -0.239685 2.32267 0
M  V30 13997 C 1280.47 -0.94613 1.41359 0
M  V30 13998 O 1281.65 -0.934162 1.70256 0
M  V30 13999 C 1278.78 -1.29411 3.22289 0
M  V30 14000 C 1277.74 -0.706504 4.22129 0
M  V30 14001 C 1277.06 -1.86273 5.01205 0
M  V30 14002 C 1278.36 0.314079 5.21355 0
M  V30 14003 H 1280.06 0.4568 2.95895 0
M  V30 14004 H 1277.6 0.221126 1.42292 0
M  V30 14005 H 1279.56 -1.8323 3.7948 0
M  V30 14006 H 1278.28 -2.02001 2.56638 0
M  V30 14007 H 1276.94 -0.189924 3.66108 0
M  V30 14008 H 1276.59 -2.57674 4.31988 0
M  V30 14009 H 1276.29 -1.47554 5.68772 0
M  V30 14010 H 1277.81 -2.40492 5.61245 0
M  V30 14011 H 1279.22 -0.136604 5.73137 0
M  V30 14012 H 1277.62 0.618026 5.96909 0
M  V30 14013 H 1278.69 1.22394 4.69199 0
M  V30 14014 N 1280.03 -1.55556 0.252993 0
M  V30 14015 C 1280.94 -2.25283 -0.654581 0
M  V30 14016 C 1281.96 -1.27103 -1.18831 0
M  V30 14017 O 1283.14 -1.59993 -1.22329 0
M  V30 14018 C 1280.2 -2.94336 -1.83214 0
M  V30 14019 C 1279.26 -4.0794 -1.33728 0
M  V30 14020 C 1278.5 -4.73691 -2.45871 0
M  V30 14021 O 1278.72 -4.38545 -3.64738 0
M  V30 14022 O 1277.65 -5.62083 -2.15283 0
M  V30 14023 H 1281.48 -3.03565 -0.0904091 0
M  V30 14024 H 1279.06 -1.49385 0.0212535 0
M  V30 14025 H 1280.95 -3.37808 -2.5192 0
M  V30 14026 H 1279.62 -2.18989 -2.38381 0
M  V30 14027 H 1278.53 -3.68971 -0.617323 0
M  V30 14028 H 1279.86 -4.85124 -0.831617 0
M  V30 14029 N 1281.51 0.0200419 -1.57587 0
M  V30 14030 C 1282.44 1.01715 -2.10181 0
M  V30 14031 C 1283.42 1.37136 -1.00636 0
M  V30 14032 O 1284.61 1.45862 -1.2821 0
M  V30 14033 C 1281.74 2.31531 -2.58865 0
M  V30 14034 C 1280.69 2.10327 -3.72755 0
M  V30 14035 C 1280.02 3.45981 -4.07678 0
M  V30 14036 C 1281.32 1.4821 -5.0083 0
M  V30 14037 H 1283.01 0.579307 -2.93742 0
M  V30 14038 H 1280.56 0.277211 -1.41307 0
M  V30 14039 H 1282.51 3.01623 -2.94281 0
M  V30 14040 H 1281.24 2.77392 -1.72399 0
M  V30 14041 H 1279.89 1.42665 -3.37701 0
M  V30 14042 H 1279.54 3.89508 -3.18265 0
M  V30 14043 H 1279.24 3.32616 -4.84397 0
M  V30 14044 H 1280.77 4.17421 -4.45637 0
M  V30 14045 H 1282.18 2.08232 -5.34146 0
M  V30 14046 H 1280.58 1.45393 -5.82221 0
M  V30 14047 H 1281.65 0.448942 -4.82817 0
M  V30 14048 N 1282.99 1.54862 0.292472 0
M  V30 14049 C 1284.24 1.74548 1.02661 0
M  V30 14050 C 1284.57 0.535895 1.86972 0
M  V30 14051 O 1283.82 -0.482016 1.89671 0
M  V30 14052 C 1284.12 2.99214 1.95463 0
M  V30 14053 C 1283.79 4.32628 1.2706 0
M  V30 14054 C 1282.45 4.68892 1.08138 0
M  V30 14055 C 1284.8 5.15296 0.782278 0
M  V30 14056 C 1282.13 5.85397 0.39081 0
M  V30 14057 C 1284.48 6.32512 0.105392 0
M  V30 14058 C 1283.14 6.67431 -0.0957097 0
M  V30 14059 H 1282.41 0.638717 0.375662 0
M  V30 14060 H 1285.06 1.89125 0.300672 0
M  V30 14061 H 1283.37 2.79454 2.74613 0
M  V30 14062 H 1285.06 3.1164 2.52352 0
M  V30 14063 H 1281.65 4.04113 1.42796 0
M  V30 14064 H 1285.84 4.87771 0.916151 0
M  V30 14065 H 1281.09 6.10989 0.224095 0
M  V30 14066 H 1285.27 6.95833 -0.280845 0
M  V30 14067 H 1282.89 7.57562 -0.63281 0
M  V30 14068 N 1284.47 -0.556076 1.47464 0
M  V30 14069 C 1285.72 -1.31061 1.53842 0
M  V30 14070 C 1286.04 -1.93943 0.202806 0
M  V30 14071 O 1285.31 -1.7999 -0.773338 0
M  V30 14072 H 1283.89 -0.486696 0.566689 0
M  V30 14073 H 1286.55 -0.64924 1.83769 0
M  V30 14074 H 1285.65 -2.10354 2.30559 0
M  V30 14075 N 1285.95 -1.35615 -0.802897 0
M  V30 14076 C 1287.18 -1.32217 -1.59142 0
M  V30 14077 C 1287.59 0.0995496 -1.88537 0
M  V30 14078 O 1286.95 1.05258 -1.49087 0
M  V30 14079 C 1287 -2.13048 -2.92049 0
M  V30 14080 O 1286.72 -3.49677 -2.63927 0
M  V30 14081 C 1288.22 -2.17278 -3.864 0
M  V30 14082 H 1285.44 -0.454054 -0.49404 0
M  V30 14083 H 1287.98 -1.78521 -0.997516 0
M  V30 14084 H 1286.14 -1.70334 -3.47944 0
M  V30 14085 H 1286.55 -3.917 -3.48814 0
M  V30 14086 H 1288.03 -2.7822 -4.76758 0
M  V30 14087 H 1288.5 -1.17253 -4.23259 0
M  V30 14088 H 1289.11 -2.6017 -3.3644 0
M  V30 14089 N 1287.43 1.02549 -1.19673 0
M  V30 14090 C 1288.67 1.75408 -0.995732 0
M  V30 14091 C 1288.99 1.89773 0.473863 0
M  V30 14092 O 1290.19 2.59638 0.793762 0
M  V30 14093 C 1288.65 3.15444 -1.73273 0
M  V30 14094 C 1288.26 3.09121 -3.24266 0
M  V30 14095 C 1290 3.92575 -1.61509 0
M  V30 14096 C 1287.91 4.44109 -3.9054 0
M  V30 14097 H 1286.84 0.657569 -0.368944 0
M  V30 14098 H 1289.49 1.14739 -1.43203 0
M  V30 14099 H 1287.87 3.76601 -1.22425 0
M  V30 14100 H 1289.05 2.57325 -3.82257 0
M  V30 14101 H 1287.36 2.45485 -3.36342 0
M  V30 14102 H 1289.96 4.92428 -2.08372 0
M  V30 14103 H 1290.3 4.12382 -0.569804 0
M  V30 14104 H 1290.83 3.38027 -2.09721 0
M  V30 14105 H 1287.57 4.29506 -4.95182 0
M  V30 14106 H 1287.09 4.95947 -3.37337 0
M  V30 14107 H 1288.77 5.12982 -3.94282 0
M  V30 14108 N 1288.9 1.00119 1.21713 0
M  V30 14109 C 1289.83 0.578504 2.2622 0
M  V30 14110 C 1290.81 -0.398777 1.6536 0
M  V30 14111 O 1292 -0.287596 1.92059 0
M  V30 14112 C 1289.13 -0.0994508 3.47158 0
M  V30 14113 C 1288.08 0.79722 4.2051 0
M  V30 14114 C 1287.41 -0.0141125 5.34698 0
M  V30 14115 C 1288.71 2.09802 4.7831 0
M  V30 14116 H 1290.4 1.45208 2.6183 0
M  V30 14117 H 1287.95 0.699656 1.2586 0
M  V30 14118 H 1289.9 -0.406605 4.19434 0
M  V30 14119 H 1288.63 -1.00763 3.10667 0
M  V30 14120 H 1287.29 1.08814 3.50079 0
M  V30 14121 H 1286.93 -0.923468 4.9445 0
M  V30 14122 H 1286.63 0.582883 5.84702 0
M  V30 14123 H 1288.16 -0.31517 6.09786 0
M  V30 14124 H 1289.57 1.85427 5.42485 0
M  V30 14125 H 1287.97 2.64455 5.38687 0
M  V30 14126 H 1289.04 2.77132 3.97902 0
M  V30 14127 N 1290.38 -1.37203 0.775435 0
M  V30 14128 C 1291.79 -1.82224 0.406372 0
M  V30 14129 C 1292.14 -1.64587 -1.06796 0
M  V30 14130 O 1291.27 -1.15903 -1.82744 0
M  V30 14131 C 1291.86 -3.30824 0.730819 0
M  V30 14132 C 1290.42 -3.74108 0.414766 0
M  V30 14133 C 1289.57 -2.59679 0.972747 0
M  V30 14134 H 1292.52 -1.25623 0.969775 0
M  V30 14135 H 1292.54 -3.80496 0.0168066 0
M  V30 14136 H 1292.05 -3.43628 1.80392 0
M  V30 14137 H 1290.15 -3.66871 -0.650866 0
M  V30 14138 H 1290.27 -4.70074 0.925595 0
M  V30 14139 H 1288.63 -2.51591 0.396772 0
M  V30 14140 H 1289.41 -2.75274 2.05132 0
M  V30 14141 N 1291.86 -0.526279 -1.48553 0
M  V30 14142 C 1292.79 0.227364 -2.3239 0
M  V30 14143 C 1293.77 0.93862 -1.41859 0
M  V30 14144 O 1294.96 0.925119 -1.70749 0
M  V30 14145 C 1292.09 1.277 -3.22971 0
M  V30 14146 C 1291.04 0.684107 -4.22497 0
M  V30 14147 C 1290.37 1.83612 -5.02186 0
M  V30 14148 C 1291.67 -0.341723 -5.21181 0
M  V30 14149 H 1293.36 -0.472486 -2.95648 0
M  V30 14150 H 1290.91 -0.228669 -1.42173 0
M  V30 14151 H 1292.86 1.81215 -3.80446 0
M  V30 14152 H 1291.58 2.00638 -2.57705 0
M  V30 14153 H 1290.24 0.170505 -3.66203 0
M  V30 14154 H 1289.89 2.55379 -4.33348 0
M  V30 14155 H 1289.59 1.44536 -5.69547 0
M  V30 14156 H 1291.11 2.37513 -5.62512 0
M  V30 14157 H 1292.53 0.106207 -5.73202 0
M  V30 14158 H 1290.92 -0.649673 -5.96573 0
M  V30 14159 H 1291.99 -1.2488 -4.68543 0
M  V30 14160 N 1293.34 1.5542 -0.261239 0
M  V30 14161 C 1294.61 1.91243 0.41056 0
M  V30 14162 C 1294.99 1.1838 1.74784 0
M  V30 14163 O 1294.34 0.306013 2.26442 0
M  V30 14164 C 1294.55 3.44404 0.56453 0
M  V30 14165 C 1295.9 4.15927 0.853827 0
M  V30 14166 O 1296.92 3.50222 0.649861 0
M  V30 14167 O 1295.78 5.32175 1.24308 0
M  V30 14168 H 1292.88 0.796491 0.222555 0
M  V30 14169 H 1295.42 1.66912 -0.306367 0
M  V30 14170 H 1294.2 3.89478 -0.377134 0
M  V30 14171 H 1293.82 3.74644 1.33145 0
M  V30 14172 N 1294.82 -0.0116844 1.57596 0
M  V30 14173 C 1295.75 -1.00599 2.10718 0
M  V30 14174 C 1296.73 -1.36601 1.01362 0
M  V30 14175 O 1297.91 -1.4518 1.28982 0
M  V30 14176 C 1295.04 -2.30155 2.60089 0
M  V30 14177 C 1294 -2.08347 3.73866 0
M  V30 14178 C 1293.32 -3.43814 4.09507 0
M  V30 14179 C 1294.62 -1.45552 5.01609 0
M  V30 14180 H 1296.32 -0.563721 2.94045 0
M  V30 14181 H 1293.86 -0.269714 1.41452 0
M  V30 14182 H 1295.81 -3.00058 2.95877 0
M  V30 14183 H 1294.54 -2.76473 1.73868 0
M  V30 14184 H 1293.2 -1.40872 3.38453 0
M  V30 14185 H 1292.85 -3.87814 3.20326 0
M  V30 14186 H 1292.55 -3.30043 4.86154 0
M  V30 14187 H 1294.07 -4.15052 4.47844 0
M  V30 14188 H 1295.48 -2.05396 5.35243 0
M  V30 14189 H 1293.88 -1.42304 5.82983 0
M  V30 14190 H 1294.95 -0.423331 4.83049 0
M  V30 14191 N 1296.29 -1.55015 -0.284256 0
M  V30 14192 C 1297.2 -1.90203 -1.37332 0
M  V30 14193 C 1298.22 -0.797994 -1.54622 0
M  V30 14194 O 1299.4 -1.09602 -1.68965 0
M  V30 14195 C 1296.46 -2.15687 -2.71441 0
M  V30 14196 C 1295.52 -3.39313 -2.62993 0
M  V30 14197 C 1294.75 -3.63571 -3.90707 0
M  V30 14198 O 1294.98 -2.90538 -4.9086 0
M  V30 14199 O 1293.91 -4.57102 -3.91589 0
M  V30 14200 H 1297.74 -2.82888 -1.1049 0
M  V30 14201 H 1295.32 -1.41418 -0.481798 0
M  V30 14202 H 1297.2 -2.33553 -3.50758 0
M  V30 14203 H 1295.88 -1.26185 -2.98092 0
M  V30 14204 H 1294.79 -3.26793 -1.82091 0
M  V30 14205 H 1296.12 -4.28997 -2.41293 0
M  V30 14206 N 1297.77 0.548248 -1.47757 0
M  V30 14207 C 1299.05 1.3092 -1.45325 0
M  V30 14208 C 1299.43 2.1053 -0.155008 0
M  V30 14209 O 1298.78 2.11558 0.863455 0
M  V30 14210 C 1298.99 2.20614 -2.70426 0
M  V30 14211 C 1300.33 2.81345 -3.18009 0
M  V30 14212 O 1301.36 2.30911 -2.71216 0
M  V30 14213 O 1300.22 3.73036 -3.99383 0
M  V30 14214 H 1297.31 0.58996 -0.579548 0
M  V30 14215 H 1299.86 0.56641 -1.59968 0
M  V30 14216 H 1298.63 1.61449 -3.56441 0
M  V30 14217 H 1298.25 3.02173 -2.58413 0
M  V30 14218 N 1299.25 1.36039 0.795694 0
M  V30 14219 C 1300.5 1.29251 1.54845 0
M  V30 14220 C 1300.81 -0.127926 1.95181 0
M  V30 14221 O 1302.02 -0.318141 2.6963 0
M  V30 14222 C 1300.47 2.26736 2.79497 0
M  V30 14223 C 1300.08 3.74183 2.46355 0
M  V30 14224 C 1301.83 2.28913 3.5749 0
M  V30 14225 C 1299.73 4.63462 3.67365 0
M  V30 14226 H 1298.66 0.48027 0.581255 0
M  V30 14227 H 1301.31 1.61366 0.873693 0
M  V30 14228 H 1299.7 1.87608 3.4874 0
M  V30 14229 H 1300.87 4.22011 1.8505 0
M  V30 14230 H 1299.18 3.7472 1.81586 0
M  V30 14231 H 1301.78 2.92828 4.47388 0
M  V30 14232 H 1302.12 1.2959 3.95616 0
M  V30 14233 H 1302.66 2.66627 2.9522 0
M  V30 14234 H 1299.4 5.63824 3.34339 0
M  V30 14235 H 1298.92 4.20354 4.27858 0
M  V30 14236 H 1300.6 4.79424 4.34467 0
M  V30 14237 N 1300.73 -1.01913 1.20215 0
M  V30 14238 C 1301.98 -1.7547 1.01076 0
M  V30 14239 C 1302.3 -1.89045 -0.457404 0
M  V30 14240 O 1301.56 -1.41121 -1.35585 0
M  V30 14241 C 1301.86 -3.17734 1.63646 0
M  V30 14242 C 1301.52 -3.24143 3.13436 0
M  V30 14243 C 1300.19 -3.25599 3.54315 0
M  V30 14244 C 1302.54 -3.22508 4.09436 0
M  V30 14245 C 1299.87 -3.23089 4.89725 0
M  V30 14246 C 1302.22 -3.21539 5.44789 0
M  V30 14247 C 1300.88 -3.21298 5.85085 0
M  V30 14248 H 1300.15 -0.642092 0.369864 0
M  V30 14249 H 1302.8 -1.19547 1.49602 0
M  V30 14250 H 1301.1 -3.76799 1.07375 0
M  V30 14251 H 1302.8 -3.73338 1.46356 0
M  V30 14252 H 1299.39 -3.23743 2.80871 0
M  V30 14253 H 1303.57 -3.20555 3.7889 0
M  V30 14254 H 1298.83 -3.21231 5.20212 0
M  V30 14255 H 1303 -3.19226 6.18924 0
M  V30 14256 H 1300.63 -3.19107 6.89982 0
M  V30 14257 N 1302.21 -1.00763 -1.2118 0
M  V30 14258 C 1303.15 -0.570257 -2.23644 0
M  V30 14259 C 1304.12 0.405039 -1.61086 0
M  V30 14260 O 1305.31 0.306496 -1.88322 0
M  V30 14261 C 1302.45 0.094325 -3.44971 0
M  V30 14262 C 1301.56 -0.924463 -4.21993 0
M  V30 14263 C 1300.7 -0.231869 -5.30694 0
M  V30 14264 C 1299.74 -1.23803 -5.99449 0
M  V30 14265 N 1298.87 -0.572725 -6.9976 0
M  V30 14266 H 1303.71 -1.44869 -2.60417 0
M  V30 14267 H 1301.25 -0.725369 -1.27972 0
M  V30 14268 H 1303.21 0.496689 -4.14233 0
M  V30 14269 H 1301.84 0.936457 -3.08918 0
M  V30 14270 H 1300.89 -1.44505 -3.51884 0
M  V30 14271 H 1302.2 -1.69004 -4.69296 0
M  V30 14272 H 1301.36 0.226465 -6.06277 0
M  V30 14273 H 1300.09 0.566092 -4.84403 0
M  V30 14274 H 1299.1 -1.70684 -5.22635 0
M  V30 14275 H 1300.32 -2.03711 -6.47826 0
M  V30 14276 H 1298.27 0.205531 -6.55678 0
M  V30 14277 H 1298.19 -1.27651 -7.45145 0
M  V30 14278 H 1299.46 -0.137683 -7.79378 0
M  V30 14279 N 1303.68 1.3679 -0.7827 0
M  V30 14280 C 1304.63 2.30139 -0.174595 0
M  V30 14281 C 1305.6 1.51645 0.677714 0
M  V30 14282 O 1306.79 1.80176 0.627796 0
M  V30 14283 C 1303.93 3.38133 0.689936 0
M  V30 14284 C 1303.04 4.31624 -0.180179 0
M  V30 14285 C 1302.17 5.26698 0.69009 0
M  V30 14286 C 1301.21 6.1183 -0.181891 0
M  V30 14287 N 1300.35 6.99113 0.646977 0
M  V30 14288 H 1305.19 2.81559 -0.97613 0
M  V30 14289 H 1302.73 1.38595 -0.492944 0
M  V30 14290 H 1304.69 3.99386 1.2061 0
M  V30 14291 H 1303.32 2.88049 1.45696 0
M  V30 14292 H 1302.37 3.71583 -0.81425 0
M  V30 14293 H 1303.68 4.91464 -0.852337 0
M  V30 14294 H 1302.83 5.93209 1.27232 0
M  V30 14295 H 1301.57 4.67297 1.3959 0
M  V30 14296 H 1300.58 5.44288 -0.776572 0
M  V30 14297 H 1301.8 6.73306 -0.885195 0
M  V30 14298 H 1299.75 6.42227 1.3372 0
M  V30 14299 H 1299.67 7.55993 0.0323547 0
M  V30 14300 H 1300.93 7.7 1.21325 0
M  V30 14301 N 1305.16 0.53415 1.48272 0
M  V30 14302 C 1306.39 0.00368464 2.074 0
M  V30 14303 C 1306.81 -1.27003 1.38751 0
M  V30 14304 O 1306.17 -1.75502 0.454817 0
M  V30 14305 C 1306.22 -0.199034 3.6005 0
M  V30 14306 O 1305.32 -1.26679 3.92462 0
M  V30 14307 H 1304.66 0.0409936 0.662733 0
M  V30 14308 H 1307.19 0.743253 1.90622 0
M  V30 14309 H 1307.2 -0.420404 4.05828 0
M  V30 14310 H 1305.88 0.731391 4.09418 0
M  V30 14311 H 1304.46 -1.02775 3.58457 0
M  V30 14312 N 1306.64 -1.55279 0.269478 0
M  V30 14313 C 1307.59 -2.22304 -0.620435 0
M  V30 14314 C 1308.56 -1.19457 -1.15409 0
M  V30 14315 O 1309.74 -1.4798 -1.20443 0
M  V30 14316 C 1306.88 -2.94356 -1.80134 0
M  V30 14317 C 1306 -4.1191 -1.30207 0
M  V30 14318 C 1305.13 -4.71621 -2.44433 0
M  V30 14319 C 1304.17 -5.81379 -1.91481 0
M  V30 14320 N 1303.31 -6.35176 -2.99158 0
M  V30 14321 H 1308.15 -2.9797 -0.0422165 0
M  V30 14322 H 1305.68 -1.47097 -0.00907173 0
M  V30 14323 H 1307.64 -3.34343 -2.4954 0
M  V30 14324 H 1306.27 -2.21124 -2.35168 0
M  V30 14325 H 1305.32 -3.77082 -0.501301 0
M  V30 14326 H 1306.64 -4.9108 -0.874183 0
M  V30 14327 H 1305.79 -5.14298 -3.21842 0
M  V30 14328 H 1304.53 -3.91715 -2.90535 0
M  V30 14329 H 1303.53 -5.38157 -1.12549 0
M  V30 14330 H 1304.76 -6.63149 -1.46322 0
M  V30 14331 H 1302.7 -5.58167 -3.44652 0
M  V30 14332 H 1302.62 -7.09602 -2.60769 0
M  V30 14333 H 1303.89 -6.82512 -3.7656 0
M  V30 14334 N 1308.12 0.00332656 -1.576 0
M  V30 14335 C 1309.53 0.546581 -1.7852 0
M  V30 14336 C 1309.88 1.74147 -0.903722 0
M  V30 14337 O 1309.01 2.16144 -0.105314 0
M  V30 14338 C 1309.6 0.998344 -3.23757 0
M  V30 14339 C 1308.16 1.48693 -3.45785 0
M  V30 14340 C 1307.31 0.436617 -2.73841 0
M  V30 14341 H 1310.26 -0.222852 -1.57128 0
M  V30 14342 H 1310.28 1.86452 -3.31686 0
M  V30 14343 H 1309.79 0.128479 -3.87887 0
M  V30 14344 H 1307.89 2.3778 -2.86865 0
M  V30 14345 H 1308 1.51668 -4.5446 0
M  V30 14346 H 1306.37 0.897506 -2.38363 0
M  V30 14347 H 1307.15 -0.424225 -3.40669 0
M  V30 14348 N 1309.6 1.55164 0.276031 0
M  V30 14349 C 1311.01 1.46936 0.623061 0
M  V30 14350 C 1311.21 0.680977 1.89644 0
M  V30 14351 O 1310.27 0.198618 2.51718 0
M  V30 14352 C 1311.58 2.91123 0.752839 0
M  V30 14353 C 1313.13 3.01319 0.847093 0
M  V30 14354 C 1313.6 4.46755 1.00867 0
M  V30 14355 N 1315.1 4.5057 1.07427 0
M  V30 14356 C 1315.83 5.60314 1.21804 0
M  V30 14357 N 1315.33 6.7993 1.32919 0
M  V30 14358 N 1317.12 5.4805 1.2489 0
M  V30 14359 H 1309.27 2.04877 -0.560282 0
M  V30 14360 H 1311.53 0.928925 -0.189217 0
M  V30 14361 H 1311.24 3.51521 -0.112333 0
M  V30 14362 H 1311.11 3.39967 1.63408 0
M  V30 14363 H 1313.5 2.41021 1.70274 0
M  V30 14364 H 1313.58 2.55733 -0.0586896 0
M  V30 14365 H 1313.23 5.07655 0.1577 0
M  V30 14366 H 1313.16 4.89995 1.92906 0
M  V30 14367 H 1315.65 3.64404 1.00089 0
M  V30 14368 H 1315.96 7.59319 1.43714 0
M  V30 14369 H 1314.3 6.82747 1.29929 0
M  V30 14370 H 1317.5 4.53542 1.15834 0
M  V30 14371 H 1317.67 6.33621 1.3575 0
M  V30 14372 N 1311.07 -0.540404 1.48045 0
M  V30 14373 C 1312.3 -1.31986 1.58944 0
M  V30 14374 C 1312.71 -1.87608 0.244889 0
M  V30 14375 O 1312.06 -1.66576 -0.774467 0
M  V30 14376 C 1312.12 -2.51547 2.56835 0
M  V30 14377 C 1311.78 -2.17089 4.02146 0
M  V30 14378 C 1312.78 -1.73379 4.90138 0
M  V30 14379 C 1310.46 -2.27932 4.47607 0
M  V30 14380 C 1312.46 -1.40964 6.21617 0
M  V30 14381 C 1310.14 -1.95129 5.7911 0
M  V30 14382 C 1311.14 -1.51715 6.65937 0
M  V30 14383 O 1310.83 -1.19337 7.94993 0
M  V30 14384 H 1310.56 -0.408028 0.538971 0
M  V30 14385 H 1313.12 -0.659748 1.94516 0
M  V30 14386 H 1311.35 -3.20505 2.16364 0
M  V30 14387 H 1313.04 -3.13617 2.57681 0
M  V30 14388 H 1313.8 -1.64481 4.56258 0
M  V30 14389 H 1309.68 -2.6068 3.8022 0
M  V30 14390 H 1313.22 -1.07005 6.89344 0
M  V30 14391 H 1309.12 -2.03664 6.12528 0
M  V30 14392 H 1309.89 -1.32824 8.07651 0
M  V30 14393 N 1312.55 -1.36459 -0.788468 0
M  V30 14394 C 1313.5 -1.27391 -1.89092 0
M  V30 14395 C 1314.49 -0.165201 -1.6005 0
M  V30 14396 O 1315.68 -0.398097 -1.72465 0
M  V30 14397 C 1312.81 -1.06639 -3.26317 0
M  V30 14398 C 1311.89 -2.21981 -3.61366 0
M  V30 14399 N 1312.28 -3.47302 -3.67716 0
M  V30 14400 C 1310.58 -2.13767 -3.91433 0
M  V30 14401 C 1311.28 -4.2326 -3.99031 0
M  V30 14402 N 1310.26 -3.52211 -4.14063 0
M  V30 14403 H 1314.06 -2.22318 -1.92229 0
M  V30 14404 H 1311.58 -1.29191 -0.98404 0
M  V30 14405 H 1313.57 -0.982292 -4.05162 0
M  V30 14406 H 1312.23 -0.126129 -3.24455 0
M  V30 14407 H 1313.24 -3.81424 -3.50337 0
M  V30 14408 H 1309.92 -1.27702 -3.9749 0
M  V30 14409 H 1311.31 -5.31643 -4.1086 0
M  V30 14410 N 1314.03 1.01274 -1.20754 0
M  V30 14411 C 1314.98 2.09894 -0.959852 0
M  V30 14412 C 1315.95 1.65726 0.111351 0
M  V30 14413 O 1317.13 1.90769 -0.0341721 0
M  V30 14414 C 1314.27 3.41126 -0.52223 0
M  V30 14415 C 1313.39 3.98749 -1.66202 0
M  V30 14416 C 1312.52 5.18057 -1.17432 0
M  V30 14417 C 1311.56 5.67772 -2.28694 0
M  V30 14418 N 1310.7 6.78338 -1.81114 0
M  V30 14419 H 1315.54 2.30416 -1.88977 0
M  V30 14420 H 1313.07 1.12989 -0.941906 0
M  V30 14421 H 1315.03 4.16451 -0.249799 0
M  V30 14422 H 1313.66 3.20665 0.370688 0
M  V30 14423 H 1312.71 3.20483 -2.04927 0
M  V30 14424 H 1314.03 4.31646 -2.49967 0
M  V30 14425 H 1313.18 6.00601 -0.858086 0
M  V30 14426 H 1311.92 4.86735 -0.306614 0
M  V30 14427 H 1310.92 4.8383 -2.61129 0
M  V30 14428 H 1312.15 6.01127 -3.15948 0
M  V30 14429 H 1310.09 6.48837 -0.966761 0
M  V30 14430 H 1310.01 7.10448 -2.58457 0
M  V30 14431 H 1311.28 7.64437 -1.52502 0
M  V30 14432 N 1315.51 1.01404 1.20644 0
M  V30 14433 C 1316.93 0.728446 1.42006 0
M  V30 14434 C 1317.13 -0.692894 1.89212 0
M  V30 14435 O 1316.18 -1.46101 2.05939 0
M  V30 14436 C 1317.49 1.75198 2.44389 0
M  V30 14437 C 1319.04 1.76983 2.58159 0
M  V30 14438 C 1319.52 2.78256 3.63782 0
M  V30 14439 N 1321.01 2.7698 3.71263 0
M  V30 14440 C 1321.74 3.51999 4.52641 0
M  V30 14441 N 1321.24 4.36687 5.37844 0
M  V30 14442 N 1323.03 3.40608 4.47149 0
M  V30 14443 H 1315.18 1.93168 0.883172 0
M  V30 14444 H 1317.45 0.834287 0.450187 0
M  V30 14445 H 1317.15 2.77013 2.16695 0
M  V30 14446 H 1317.03 1.56203 3.43337 0
M  V30 14447 H 1319.41 0.758551 2.85184 0
M  V30 14448 H 1319.49 2.00051 1.59415 0
M  V30 14449 H 1319.14 3.79546 3.37501 0
M  V30 14450 H 1319.07 2.5245 4.62143 0
M  V30 14451 H 1321.56 2.15546 3.104 0
M  V30 14452 H 1321.87 4.90703 5.97018 0
M  V30 14453 H 1320.22 4.40766 5.37355 0
M  V30 14454 H 1323.41 2.73872 3.79621 0
M  V30 14455 H 1323.58 3.99327 5.10335 0
M  V30 14456 N 1316.99 -1.36373 0.789944 0
M  V30 14457 C 1318.22 -2.03482 0.37453 0
M  V30 14458 C 1318.63 -1.59562 -1.00923 0
M  V30 14459 O 1317.99 -0.785289 -1.64741 0
M  V30 14460 C 1318.04 -3.58942 0.429255 0
M  V30 14461 O 1317.76 -4.01261 1.75845 0
M  V30 14462 C 1319.26 -4.433 0.00453729 0
M  V30 14463 H 1316.48 -0.653019 0.154295 0
M  V30 14464 H 1319.02 -1.74339 1.06894 0
M  V30 14465 H 1317.18 -3.86793 -0.21674 0
M  V30 14466 H 1317.59 -4.95854 1.70964 0
M  V30 14467 H 1319.07 -5.5192 0.0939653 0
M  V30 14468 H 1319.54 -4.26509 -1.04816 0
M  V30 14469 H 1320.15 -4.20712 0.623041 0
M  V30 14470 N 1318.47 -0.542005 -1.47987 0
M  V30 14471 C 1319.69 -0.0146835 -2.07395 0
M  V30 14472 C 1320.12 1.26266 -1.39422 0
M  V30 14473 O 1319.47 1.75259 -0.464118 0
M  V30 14474 C 1319.52 0.179937 -3.60151 0
M  V30 14475 O 1318.63 1.24596 -3.93128 0
M  V30 14476 H 1317.97 -0.0445076 -0.662507 0
M  V30 14477 H 1320.5 -0.753352 -1.90226 0
M  V30 14478 H 1320.51 0.398876 -4.06046 0
M  V30 14479 H 1319.18 -0.753093 -4.09025 0
M  V30 14480 H 1317.76 1.00872 -3.58997 0
M  V30 14481 N 1319.94 1.55134 -0.277709 0
M  V30 14482 C 1321.17 2.04519 0.344472 0
M  V30 14483 C 1321.59 1.15466 1.4849 0
M  V30 14484 O 1320.95 0.153798 1.80646 0
M  V30 14485 C 1321 3.51602 0.800527 0
M  V30 14486 O 1320.1 3.65632 1.90754 0
M  V30 14487 H 1319.44 0.660212 0.0708226 0
M  V30 14488 H 1321.97 2.00393 -0.412764 0
M  V30 14489 H 1321.98 3.93015 1.09559 0
M  V30 14490 H 1320.66 4.15886 -0.033838 0
M  V30 14491 H 1319.24 3.36122 1.61481 0
M  V30 14492 N 1321.42 0.00503138 1.57599 0
M  V30 14493 C 1322.38 -0.969628 2.0768 0
M  V30 14494 C 1323.38 -1.26933 0.987148 0
M  V30 14495 O 1324.57 -1.21368 1.24962 0
M  V30 14496 C 1321.71 -2.29312 2.52247 0
M  V30 14497 H 1322.9 -0.536342 2.95065 0
M  V30 14498 H 1320.45 -0.242543 1.54407 0
M  V30 14499 H 1321.19 -2.7732 1.6812 0
M  V30 14500 H 1320.97 -2.08878 3.31832 0
M  V30 14501 H 1322.46 -2.99221 2.91302 0
M  V30 14502 N 1322.9 -1.55308 -0.267798 0
M  V30 14503 C 1324.15 -1.7642 -1.00019 0
M  V30 14504 C 1324.48 -0.566559 -1.85752 0
M  V30 14505 O 1323.75 0.435752 -1.89556 0
M  V30 14506 C 1324.04 -3.07229 -1.87836 0
M  V30 14507 C 1323.89 -4.37358 -1.05061 0
M  V30 14508 C 1325.21 -3.34113 -2.86455 0
M  V30 14509 H 1322.33 -0.641859 -0.362197 0
M  V30 14510 H 1324.97 -1.8804 -0.272188 0
M  V30 14511 H 1323.12 -2.97454 -2.49907 0
M  V30 14512 H 1324.79 -4.59098 -0.450208 0
M  V30 14513 H 1323.03 -4.32351 -0.354242 0
M  V30 14514 H 1323.71 -5.25223 -1.69838 0
M  V30 14515 H 1326.18 -3.43715 -2.34519 0
M  V30 14516 H 1325.06 -4.26896 -3.45038 0
M  V30 14517 H 1325.32 -2.54005 -3.61848 0
M  V30 14518 N 1324.38 0.532545 -1.4833 0
M  V30 14519 C 1325.62 1.28795 -1.57427 0
M  V30 14520 C 1325.98 1.90848 -0.243885 0
M  V30 14521 O 1325.27 1.76183 0.753 0
M  V30 14522 C 1325.47 2.40117 -2.64724 0
M  V30 14523 C 1325.29 1.88976 -4.08066 0
M  V30 14524 C 1324.06 1.71696 -4.75235 0
M  V30 14525 C 1326.26 1.41979 -4.94314 0
M  V30 14526 N 1324.24 1.15154 -6.03003 0
M  V30 14527 C 1325.62 0.973661 -6.12307 0
M  V30 14528 C 1327.67 1.30258 -4.80559 0
M  V30 14529 C 1326.37 0.42195 -7.18061 0
M  V30 14530 C 1328.4 0.764867 -5.86433 0
M  V30 14531 C 1327.76 0.328799 -7.03632 0
M  V30 14532 H 1323.86 0.462412 -0.630634 0
M  V30 14533 H 1326.44 0.600796 -1.85199 0
M  V30 14534 H 1324.62 3.06332 -2.38779 0
M  V30 14535 H 1326.35 3.07146 -2.63521 0
M  V30 14536 H 1323.1 1.95143 -4.31528 0
M  V30 14537 H 1323.53 0.888999 -6.71138 0
M  V30 14538 H 1328.17 1.62578 -3.90293 0
M  V30 14539 H 1325.89 0.0864233 -8.08054 0
M  V30 14540 H 1329.47 0.677391 -5.77843 0
M  V30 14541 H 1328.35 -0.0808116 -7.84158 0
M  V30 14542 N 1325.86 1.36875 0.78122 0
M  V30 14543 C 1326.8 1.31941 1.91557 0
M  V30 14544 C 1327.8 0.209783 1.68096 0
M  V30 14545 O 1329 0.377266 1.76002 0
M  V30 14546 H 1325.38 0.410955 0.629778 0
M  V30 14547 H 1327.35 2.27721 1.92836 0
M  V30 14548 C 1326.1 1.13379 3.28695 0
M  V30 14549 H 1325.42 1.98013 3.47319 0
M  V30 14550 H 1326.86 1.13976 4.08394 0
M  V30 14551 C 1325.32 -0.161119 3.36515 0
M  V30 14552 O 1325.85 -1.14806 3.84945 0
M  V30 14553 N 1324.06 -0.208594 2.8985 0
M  V30 14554 H 1323.6 0.595187 2.5063 0
M  V30 14555 H 1323.56 -1.07465 2.95463 0
M  V30 14556 N 1327.33 -1.00632 1.21289 0
M  V30 14557 C 1328.56 -1.78503 1.05601 0
M  V30 14558 C 1328.98 -1.84015 -0.389879 0
M  V30 14559 O 1328.34 -1.28277 -1.2812 0
M  V30 14560 C 1328.39 -3.20313 1.65626 0
M  V30 14561 O 1327.49 -4.02441 0.900841 0
M  V30 14562 H 1326.83 -0.550183 0.371746 0
M  V30 14563 H 1329.36 -1.26505 1.60803 0
M  V30 14564 H 1329.37 -3.70992 1.69792 0
M  V30 14565 H 1328.05 -3.15616 2.7085 0
M  V30 14566 H 1326.63 -3.61009 0.934178 0
M  V30 14567 N 1328.81 -1.02043 -1.20104 0
M  V30 14568 C 1330.22 -0.742954 -1.71281 0
M  V30 14569 C 1330.57 0.738173 -1.81784 0
M  V30 14570 O 1329.7 1.57588 -1.48307 0
M  V30 14571 C 1330.29 -1.342 -3.11088 0
M  V30 14572 C 1328.85 -1.11331 -3.59559 0
M  V30 14573 C 1328 -1.44532 -2.36655 0
M  V30 14574 H 1330.95 -1.18942 -1.05064 0
M  V30 14575 H 1330.97 -0.734558 -3.73342 0
M  V30 14576 H 1330.48 -2.41998 -3.03411 0
M  V30 14577 H 1328.58 -0.05317 -3.72562 0
M  V30 14578 H 1328.7 -1.79606 -4.4416 0
M  V30 14579 H 1327.06 -0.864431 -2.39582 0
M  V30 14580 H 1327.84 -2.53394 -2.31616 0
M  V30 14581 N 1330.29 1.35952 -0.797165 0
M  V30 14582 C 1331.7 1.81554 -0.435311 0
M  V30 14583 C 1332.05 1.66266 1.04164 0
M  V30 14584 O 1331.18 1.18796 1.80877 0
M  V30 14585 C 1331.77 3.29619 -0.783358 0
M  V30 14586 C 1330.33 3.73401 -0.47423 0
M  V30 14587 C 1329.48 2.58098 -1.01394 0
M  V30 14588 H 1332.43 1.24064 -0.989638 0
M  V30 14589 H 1332.45 3.80421 -0.0773381 0
M  V30 14590 H 1331.96 3.40715 -1.85836 0
M  V30 14591 H 1330.06 3.6786 0.592418 0
M  V30 14592 H 1330.18 4.68542 -1.00026 0
M  V30 14593 H 1328.54 2.50927 -0.436747 0
M  V30 14594 H 1329.32 2.71976 -2.09485 0
M  V30 14595 N 1331.77 0.549846 1.47697 0
M  V30 14596 C 1332.7 -0.190364 2.32723 0
M  V30 14597 C 1333.68 -0.915933 1.43334 0
M  V30 14598 O 1334.86 -0.897838 1.72199 0
M  V30 14599 C 1331.99 -1.22545 3.24961 0
M  V30 14600 C 1330.95 -0.616805 4.23532 0
M  V30 14601 C 1330.27 -1.75599 5.05044 0
M  V30 14602 C 1331.57 0.424595 5.20571 0
M  V30 14603 H 1333.27 0.519461 2.94859 0
M  V30 14604 H 1330.81 0.251259 1.41791 0
M  V30 14605 H 1332.77 -1.75139 3.83281 0
M  V30 14606 H 1331.49 -1.96512 2.60865 0
M  V30 14607 H 1330.15 -0.112224 3.66428 0
M  V30 14608 H 1329.8 -2.48453 4.37356 0
M  V30 14609 H 1329.5 -1.35456 5.71774 0
M  V30 14610 H 1331.02 -2.28533 5.6622 0
M  V30 14611 H 1332.44 -0.0150025 5.73298 0
M  V30 14612 H 1330.83 0.7445 5.95464 0
M  V30 14613 H 1331.9 1.32318 4.66497 0
M  V30 14614 N 1333.25 -1.54984 0.285932 0
M  V30 14615 C 1334.18 -2.20365 -0.630236 0
M  V30 14616 C 1335.19 -1.19168 -1.10918 0
M  V30 14617 O 1336.38 -1.45839 -1.02923 0
M  V30 14618 C 1333.48 -2.8244 -1.87299 0
M  V30 14619 C 1332.65 -4.09429 -1.53905 0
M  V30 14620 C 1331.71 -4.55449 -2.63538 0
M  V30 14621 O 1330.74 -5.20985 -2.29267 0
M  V30 14622 N 1331.94 -4.26498 -3.93802 0
M  V30 14623 H 1334.71 -2.99617 -0.0706044 0
M  V30 14624 H 1332.27 -1.61543 0.107486 0
M  V30 14625 H 1334.26 -3.10167 -2.59959 0
M  V30 14626 H 1332.83 -2.07117 -2.34139 0
M  V30 14627 H 1332.05 -3.88875 -0.645774 0
M  V30 14628 H 1333.34 -4.92146 -1.29111 0
M  V30 14629 H 1332.73 -3.73964 -4.24461 0
M  V30 14630 H 1331.29 -4.5897 -4.62807 0
M  V30 14631 N 1334.72 -0.0133892 -1.57594 0
M  V30 14632 C 1335.97 0.667313 -1.90765 0
M  V30 14633 C 1336.29 1.73564 -0.888847 0
M  V30 14634 O 1335.56 1.95768 0.0718946 0
M  V30 14635 H 1334.14 0.24947 -0.704112 0
M  V30 14636 H 1336.81 -0.0574789 -1.94815 0
M  V30 14637 H 1335.9 1.13007 -2.90922 0
M  V30 14638 N 1336.2 1.55448 0.259558 0
M  V30 14639 C 1337.17 1.88459 1.30445 0
M  V30 14640 C 1338.17 0.760096 1.41701 0
M  V30 14641 O 1339.36 1.02819 1.4062 0
M  V30 14642 C 1336.49 2.10181 2.68397 0
M  V30 14643 H 1337.68 2.81877 1.02398 0
M  V30 14644 H 1335.23 1.48145 0.498262 0
M  V30 14645 H 1335.97 1.19189 3.01603 0
M  V30 14646 H 1335.75 2.92066 2.6161 0
M  V30 14647 H 1337.24 2.36947 3.43869 0
M  V30 14648 N 1337.68 -0.524672 1.4861 0
M  V30 14649 C 1339.1 -0.853703 1.34848 0
M  V30 14650 C 1339.3 -1.98194 0.363529 0
M  V30 14651 O 1338.35 -2.51597 -0.213348 0
M  V30 14652 C 1339.67 -1.21622 2.75006 0
M  V30 14653 C 1341.21 -1.3258 2.83534 0
M  V30 14654 C 1341.69 -1.72172 4.24406 0
M  V30 14655 N 1343.18 -1.79265 4.27105 0
M  V30 14656 C 1343.91 -2.11296 5.33049 0
M  V30 14657 N 1343.41 -2.41714 6.49266 0
M  V30 14658 N 1345.2 -2.12347 5.20447 0
M  V30 14659 H 1337.35 0.219671 2.11261 0
M  V30 14660 H 1339.62 0.0356444 0.94733 0
M  V30 14661 H 1339.32 -0.460776 3.48669 0
M  V30 14662 H 1339.2 -2.16516 3.0887 0
M  V30 14663 H 1341.58 -2.072 2.10124 0
M  V30 14664 H 1341.67 -0.357943 2.53283 0
M  V30 14665 H 1341.31 -0.981108 4.98334 0
M  V30 14666 H 1341.24 -2.70017 4.52104 0
M  V30 14667 H 1343.73 -1.58013 3.43279 0
M  V30 14668 H 1344.04 -2.65276 7.25843 0
M  V30 14669 H 1342.39 -2.39222 6.52532 0
M  V30 14670 H 1345.58 -1.88044 4.28669 0
M  V30 14671 H 1345.75 -2.36978 6.03113 0
M  V30 14672 N 1339.16 -1.37287 -0.77395 0
M  V30 14673 C 1340.4 -1.3257 -1.5347 0
M  V30 14674 C 1340.74 0.090346 -1.9399 0
M  V30 14675 O 1340.01 1.04719 -1.63903 0
M  V30 14676 C 1340.3 -2.26277 -2.80126 0
M  V30 14677 C 1340.15 -3.76651 -2.45874 0
M  V30 14678 C 1341.47 -2.18471 -3.82045 0
M  V30 14679 H 1338.59 -0.48289 -0.556764 0
M  V30 14680 H 1341.23 -1.6797 -0.888039 0
M  V30 14681 H 1339.38 -1.96219 -3.35306 0
M  V30 14682 H 1341.05 -4.17296 -1.96626 0
M  V30 14683 H 1339.29 -3.95327 -1.78602 0
M  V30 14684 H 1339.96 -4.3765 -3.36403 0
M  V30 14685 H 1342.44 -2.44962 -3.36352 0
M  V30 14686 H 1341.32 -2.86183 -4.68392 0
M  V30 14687 H 1341.58 -1.17692 -4.26147 0
M  V30 14688 N 1340.64 0.999871 -1.21821 0
M  V30 14689 C 1342.05 1.5529 -1.03642 0
M  V30 14690 C 1342.4 1.92032 0.402246 0
M  V30 14691 O 1341.52 1.74027 1.28622 0
M  V30 14692 C 1342.12 2.82177 -1.87514 0
M  V30 14693 C 1340.68 3.33949 -1.73653 0
M  V30 14694 C 1339.82 2.07095 -1.84409 0
M  V30 14695 H 1342.78 0.821751 -1.35768 0
M  V30 14696 H 1342.8 3.54264 -1.38842 0
M  V30 14697 H 1342.31 2.55405 -2.92216 0
M  V30 14698 H 1340.41 3.65645 -0.716554 0
M  V30 14699 H 1340.52 4.05022 -2.55918 0
M  V30 14700 H 1338.89 2.20332 -1.27773 0
M  V30 14701 H 1339.67 1.82728 -2.90629 0
M  V30 14702 N 1342.11 1.02678 1.19562 0
M  V30 14703 C 1343.34 0.741424 1.93695 0
M  V30 14704 C 1343.76 -0.693203 1.74861 0
M  V30 14705 O 1343.12 -1.47833 1.04953 0
M  V30 14706 C 1343.17 1.09514 3.43568 0
M  V30 14707 O 1342.27 0.212596 4.11852 0
M  V30 14708 H 1341.62 0.274128 0.604773 0
M  V30 14709 H 1344.15 1.37289 1.517 0
M  V30 14710 H 1344.16 1.05115 3.94227 0
M  V30 14711 H 1342.83 2.14034 3.56598 0
M  V30 14712 H 1341.41 0.315 3.71567 0
M  V30 14713 N 1343.59 -1.35528 0.804364 0
M  V30 14714 C 1344.82 -2.03604 0.395013 0
M  V30 14715 C 1345.24 -1.60225 -0.985371 0
M  V30 14716 O 1344.6 -0.777844 -1.63766 0
M  V30 14717 C 1344.65 -3.57337 0.484011 0
M  V30 14718 O 1343.75 -4.09316 -0.503395 0
M  V30 14719 H 1343.09 -0.643089 0.165325 0
M  V30 14720 H 1345.62 -1.73171 1.08963 0
M  V30 14721 H 1345.63 -4.0647 0.353009 0
M  V30 14722 H 1344.31 -3.8826 1.49088 0
M  V30 14723 H 1342.89 -3.71412 -0.332817 0
M  V30 14724 N 1345.07 -0.557671 -1.47404 0
M  V30 14725 C 1346 0.178019 -2.3282 0
M  V30 14726 C 1346.98 0.908318 -1.43818 0
M  V30 14727 O 1348.17 0.888693 -1.72673 0
M  V30 14728 C 1345.3 1.2082 -3.25607 0
M  V30 14729 C 1344.25 0.594335 -4.23853 0
M  V30 14730 C 1343.58 1.72919 -5.05968 0
M  V30 14731 C 1344.88 -0.452196 -5.20339 0
M  V30 14732 H 1346.57 -0.535091 -2.9458 0
M  V30 14733 H 1344.12 -0.258775 -1.41656 0
M  V30 14734 H 1346.07 1.73104 -3.84204 0
M  V30 14735 H 1344.79 1.95126 -2.61903 0
M  V30 14736 H 1343.45 0.0927898 -3.66483 0
M  V30 14737 H 1343.1 2.4613 -4.38668 0
M  V30 14738 H 1342.8 1.32422 -5.72484 0
M  V30 14739 H 1344.33 2.25527 -5.67424 0
M  V30 14740 H 1345.74 -0.0154011 -5.73298 0
M  V30 14741 H 1344.14 -0.776068 -5.95061 0
M  V30 14742 H 1345.21 -1.34791 -4.65789 0
M  V30 14743 N 1346.55 1.54831 -0.294147 0
M  V30 14744 C 1347.51 2.21946 0.572061 0
M  V30 14745 C 1348.51 1.20331 1.06663 0
M  V30 14746 O 1349.7 1.45112 0.963757 0
M  V30 14747 C 1346.83 2.90044 1.7913 0
M  V30 14748 H 1348.03 2.99897 -0.0142234 0
M  V30 14749 H 1345.58 1.56235 -0.0449187 0
M  V30 14750 H 1346.32 2.16154 2.4176 0
M  V30 14751 H 1346.1 3.64527 1.44439 0
M  V30 14752 H 1347.59 3.41263 2.40684 0
M  V30 14753 N 1348.03 0.0217466 1.57585 0
M  V30 14754 C 1349.26 -0.667911 1.95506 0
M  V30 14755 C 1349.67 -1.66616 0.89642 0
M  V30 14756 O 1349.01 -1.83232 -0.131059 0
M  V30 14757 C 1349.07 -1.43696 3.29533 0
M  V30 14758 C 1348.73 -0.59787 4.53072 0
M  V30 14759 C 1349.73 0.12372 5.19753 0
M  V30 14760 C 1347.42 -0.53744 4.99417 0
M  V30 14761 C 1349.41 0.894491 6.31092 0
M  V30 14762 C 1347.1 0.237041 6.1064 0
M  V30 14763 C 1348.1 0.95172 6.76337 0
M  V30 14764 O 1347.78 1.71352 7.85426 0
M  V30 14765 H 1347.52 -0.189544 0.648883 0
M  V30 14766 H 1350.07 0.0755682 2.05261 0
M  V30 14767 H 1348.3 -2.22541 3.16247 0
M  V30 14768 H 1349.99 -2.01402 3.52409 0
M  V30 14769 H 1350.75 0.0863208 4.84923 0
M  V30 14770 H 1346.63 -1.08327 4.48092 0
M  V30 14771 H 1350.18 1.45285 6.82304 0
M  V30 14772 H 1346.07 0.276183 6.44909 0
M  V30 14773 H 1346.84 1.63252 8.02054 0
M  V30 14774 N 1349.51 -1.55583 -0.251311 0
M  V30 14775 C 1350.73 -1.81597 -1.00186 0
M  V30 14776 C 1351.16 -0.598216 -1.78334 0
M  V30 14777 O 1350.51 0.452667 -1.75558 0
M  V30 14778 C 1350.56 -3.05301 -1.91895 0
M  V30 14779 O 1349.67 -2.81907 -3.01002 0
M  V30 14780 H 1349.01 -0.599578 -0.285311 0
M  V30 14781 H 1351.54 -2.02762 -0.273638 0
M  V30 14782 H 1351.55 -3.34616 -2.33444 0
M  V30 14783 H 1350.22 -3.93574 -1.34433 0
M  V30 14784 H 1348.8 -2.63747 -2.63613 0
M  V30 14785 N 1350.98 0.516783 -1.48886 0
M  V30 14786 C 1351.91 1.62897 -1.67292 0
M  V30 14787 C 1352.89 1.61903 -0.521671 0
M  V30 14788 O 1354.08 1.78892 -0.755728 0
M  V30 14789 C 1351.21 3.01444 -1.72478 0
M  V30 14790 C 1350.16 3.173 -2.87236 0
M  V30 14791 C 1349.49 4.5704 -2.77522 0
M  V30 14792 C 1350.79 2.98818 -4.28375 0
M  V30 14793 H 1352.48 1.47748 -2.60405 0
M  V30 14794 H 1350.03 0.709361 -1.25316 0
M  V30 14795 H 1351.98 3.79135 -1.83942 0
M  V30 14796 H 1350.71 3.17645 -0.759538 0
M  V30 14797 H 1349.37 2.4203 -2.75349 0
M  V30 14798 H 1349.01 4.70096 -1.78938 0
M  V30 14799 H 1348.71 4.68593 -3.54534 0
M  V30 14800 H 1350.24 5.36813 -2.90972 0
M  V30 14801 H 1351.65 3.66291 -4.41026 0
M  V30 14802 H 1350.05 3.21854 -5.06488 0
M  V30 14803 H 1351.12 1.95102 -4.43918 0
M  V30 14804 N 1352.46 1.37696 0.766659 0
M  V30 14805 C 1353.41 1.33871 1.88009 0
M  V30 14806 C 1354.38 0.2034 1.6485 0
M  V30 14807 O 1355.56 0.393569 1.86697 0
M  V30 14808 C 1352.7 1.1566 3.25141 0
M  V30 14809 C 1351.82 2.38465 3.6022 0
M  V30 14810 C 1350.95 2.13087 4.86587 0
M  V30 14811 C 1349.99 3.31732 5.14413 0
M  V30 14812 N 1349.13 3.05872 6.3197 0
M  V30 14813 H 1353.97 2.29065 1.90613 0
M  V30 14814 H 1351.5 1.13821 0.931837 0
M  V30 14815 H 1353.46 1.03122 4.04255 0
M  V30 14816 H 1352.09 0.241115 3.21898 0
M  V30 14817 H 1351.14 2.61725 2.76051 0
M  V30 14818 H 1352.46 3.26933 3.76718 0
M  V30 14819 H 1351.61 1.97609 5.73616 0
M  V30 14820 H 1350.35 1.21965 4.72203 0
M  V30 14821 H 1349.35 3.47743 4.25858 0
M  V30 14822 H 1350.58 4.23712 5.30702 0
M  V30 14823 H 1348.53 2.17384 6.18935 0
M  V30 14824 H 1348.44 3.87885 6.48908 0
M  V30 14825 H 1349.71 2.94023 7.21922 0
M  V30 14826 N 1353.94 -0.993397 1.22349 0
M  V30 14827 C 1354.89 -2.0834 0.993123 0
M  V30 14828 C 1355.86 -1.65883 -0.0849717 0
M  V30 14829 O 1357.04 -1.90691 0.0645176 0
M  V30 14830 C 1354.18 -3.40252 0.576434 0
M  V30 14831 C 1353.29 -3.96055 1.72524 0
M  V30 14832 C 1352.43 -5.16123 1.25659 0
M  V30 14833 C 1351.47 -5.64062 2.37698 0
M  V30 14834 N 1350.61 -6.7537 1.91883 0
M  V30 14835 H 1355.45 -2.27381 1.92619 0
M  V30 14836 H 1352.98 -1.11476 0.959763 0
M  V30 14837 H 1354.94 -4.16001 0.316021 0
M  V30 14838 H 1353.57 -3.21214 -0.319626 0
M  V30 14839 H 1352.62 -3.17182 2.1 0
M  V30 14840 H 1353.93 -4.27614 2.56802 0
M  V30 14841 H 1353.09 -5.9916 0.953528 0
M  V30 14842 H 1351.83 -4.86186 0.384011 0
M  V30 14843 H 1350.83 -4.79614 2.68794 0
M  V30 14844 H 1352.06 -5.96025 3.25471 0
M  V30 14845 H 1350 -6.47217 1.06986 0
M  V30 14846 H 1349.92 -7.06246 2.69727 0
M  V30 14847 H 1351.19 -7.61914 1.64644 0
M  V30 14848 N 1355.42 -1.03311 -1.19015 0
M  V30 14849 C 1356.37 -0.588076 -2.20285 0
M  V30 14850 C 1357.35 0.365442 -1.56695 0
M  V30 14851 O 1358.54 0.185725 -1.76023 0
M  V30 14852 C 1355.67 0.0553478 -3.43255 0
M  V30 14853 C 1354.76 -0.920863 -4.13982 0
M  V30 14854 N 1355.15 -2.08495 -4.60829 0
M  V30 14855 C 1353.45 -0.74522 -4.3973 0
M  V30 14856 C 1354.15 -2.701 -5.1519 0
M  V30 14857 N 1353.12 -1.98031 -5.06246 0
M  V30 14858 H 1356.93 -1.47529 -2.54189 0
M  V30 14859 H 1354.44 -0.900663 -1.35136 0
M  V30 14860 H 1356.44 0.39182 -4.15055 0
M  V30 14861 H 1355.1 0.938199 -3.1085 0
M  V30 14862 H 1356.11 -2.46418 -4.5552 0
M  V30 14863 H 1352.79 0.088182 -4.17407 0
M  V30 14864 H 1354.18 -3.6871 -5.61696 0
M  V30 14865 O 1356.93 1.30812 -0.947122 0
M  V30 14866 H 1357.63 1.84895 -0.577368 0
M  V30 END ATOM
M  V30 BEGIN BOND
M  V30 END BOND
M  V30 END CTAB
M  END
$$$$
