drugbank_target|Q9NQ25 SLAM family member 7 (DB06317)
 OpenBabel12092120333D

  0  0  0     0  0            999 V3000
M  V30 BEGIN CTAB
M  V30 COUNTS 5262 5322 0 0 0
M  V30 BEGIN ATOM
M  V30 1 H -0.908 1.98254 -0.117106 0
M  V30 2 N 0 1.576 0 0
M  V30 3 C 0.933 2.03868 1.02534 0
M  V30 4 C 1.911 0.928543 1.3348 0
M  V30 5 O 3.095 1.19667 1.45644 0
M  V30 6 C 0.222 2.43627 2.35294 0
M  V30 7 C -0.732 3.65373 2.2001 0
M  V30 8 S 0.101 5.13292 1.52614 0
M  V30 9 C 1.257 5.56322 2.86805 0
M  V30 10 H 1.49 2.90518 0.631377 0
M  V30 11 H -0.977 1.52953 0.210867 0
M  V30 12 H 0.981 2.67203 3.11629 0
M  V30 13 H -0.358 1.57376 2.7183 0
M  V30 14 H -1.165 3.90944 3.18086 0
M  V30 15 H -1.563 3.418 1.51819 0
M  V30 16 H 0.729 5.58782 3.83104 0
M  V30 17 H 1.672 6.56266 2.65933 0
M  V30 18 H 2.08 4.83886 2.90714 0
M  V30 19 N 1.4781 -0.272755 1.55222 0
M  V30 20 C 2.4411 -1.32041 1.87344 0
M  V30 21 C 3.4411 -1.42342 0.74803 0
M  V30 22 O 4.6311 -1.41488 1.0162 0
M  V30 23 C 1.7631 -2.70173 2.07893 0
M  V30 24 H 2.9561 -1.04789 2.80997 0
M  V30 25 H 0.5091 -0.51083 1.47717 0
M  V30 26 H 1.2441 -3.02605 1.16622 0
M  V30 27 H 1.0291 -2.64082 2.89833 0
M  V30 28 H 2.5191 -3.45869 2.34017 0
M  V30 29 N 2.9562 -1.48159 -0.537278 0
M  V30 30 C 4.2042 -1.55497 -1.29094 0
M  V30 31 C 4.5252 -0.227454 -1.93669 0
M  V30 32 O 3.7952 0.750386 -1.80959 0
M  V30 33 H 2.3752 -0.572832 -0.47945 0
M  V30 34 H 5.0372 -1.84579 -0.625818 0
M  V30 35 H 4.1332 -2.33216 -2.07405 0
M  V30 36 N 4.4343 0.785586 -1.36625 0
M  V30 37 C 5.6593 1.57963 -1.34397 0
M  V30 38 C 6.0843 1.87964 0.071526 0
M  V30 39 O 5.4423 1.48182 1.0446 0
M  V30 40 C 5.4903 2.87511 -2.17646 0
M  V30 41 O 4.5943 3.81281 -1.57158 0
M  V30 42 H 3.9353 0.479014 -0.459828 0
M  V30 43 H 6.4653 0.973411 -1.79961 0
M  V30 44 H 6.4753 3.36745 -2.30362 0
M  V30 45 H 5.1503 2.65002 -3.20541 0
M  V30 46 H 3.7273 3.39885 -1.53403 0
M  V30 47 N 5.9124 1.20967 1.01018 0
M  V30 48 C 7.3234 1.02319 1.56165 0
M  V30 49 C 7.6744 -0.418546 1.91684 0
M  V30 50 O 6.7994 -1.30096 1.72928 0
M  V30 51 C 7.3944 1.85109 2.8376 0
M  V30 52 C 5.9534 1.70809 3.35412 0
M  V30 53 C 5.1004 1.82643 2.08655 0
M  V30 54 H 8.0514 1.35065 0.833255 0
M  V30 55 H 8.0724 1.35827 3.55431 0
M  V30 56 H 7.5844 2.90035 2.57878 0
M  V30 57 H 5.6854 0.685464 3.66241 0
M  V30 58 H 5.7984 2.52467 4.07182 0
M  V30 59 H 4.1624 1.25896 2.21409 0
M  V30 60 H 4.9454 2.89066 1.85191 0
M  V30 61 N 7.3905 -1.2043 1.01659 0
M  V30 62 C 8.6185 -1.93777 0.725132 0
M  V30 63 C 9.0335 -1.74772 -0.714166 0
M  V30 64 O 8.3905 -1.06169 -1.4844 0
M  V30 65 C 8.4415 -3.45876 1.05129 0
M  V30 66 O 8.1625 -3.6426 2.43406 0
M  V30 67 C 9.6635 -4.36368 0.780891 0
M  V30 68 H 6.8835 -0.615901 0.266284 0
M  V30 69 H 9.4275 -1.52922 1.35776 0
M  V30 70 H 7.5825 -3.8461 0.464065 0
M  V30 71 H 7.9965 -4.58246 2.55169 0
M  V30 72 H 9.4705 -5.41743 1.05918 0
M  V30 73 H 9.9475 -4.38275 -0.284937 0
M  V30 74 H 10.5535 -4.03296 1.35027 0
M  V30 75 N 8.8686 -0.792821 -1.36206 0
M  V30 76 C 10.1086 -0.372238 -2.00982 0
M  V30 77 C 10.4726 1.03749 -1.61555 0
M  V30 78 O 11.6736 1.55934 -2.18948 0
M  V30 79 C 9.9446 -0.534566 -3.5338 0
M  V30 80 S 11.5036 -0.202365 -4.38333 0
M  V30 81 H 8.3216 -0.142044 -0.696667 0
M  V30 82 H 10.9236 -1.03206 -1.66039 0
M  V30 83 H 9.6276 -1.5608 -3.79562 0
M  V30 84 H 9.1586 0.141065 -3.93147 0
M  V30 85 H 11.1736 0.994869 -4.86124 0
M  V30 86 N 10.3467 1.47872 -0.545128 0
M  V30 87 C 11.2767 2.32661 0.197793 0
M  V30 88 C 12.2577 1.43041 0.920504 0
M  V30 89 O 13.4427 1.71912 0.90333 0
M  V30 90 C 10.5727 3.24569 1.23582 0
M  V30 91 C 9.5267 4.23333 0.630323 0
M  V30 92 C 8.8527 5.0448 1.77211 0
M  V30 93 C 10.1527 5.20704 -0.407974 0
M  V30 94 H 11.8467 2.95024 -0.510045 0
M  V30 95 H 9.3927 1.4187 -0.246731 0
M  V30 96 H 11.3457 3.8272 1.76362 0
M  V30 97 H 10.0697 2.60236 1.97344 0
M  V30 98 H 8.7287 3.6639 0.123922 0
M  V30 99 H 8.3767 4.36561 2.49847 0
M  V30 100 H 8.0767 5.71339 1.37281 0
M  V30 101 H 9.6007 5.65487 2.3034 0
M  V30 102 H 11.0147 5.7329 0.033305 0
M  V30 103 H 9.4117 5.95699 -0.725486 0
M  V30 104 H 10.4817 4.66917 -1.30828 0
M  V30 105 N 11.8248 0.280983 1.55075 0
M  V30 106 C 13.0528 -0.337293 2.04132 0
M  V30 107 C 13.4678 -1.4903 1.15912 0
M  V30 108 O 12.8248 -1.81606 0.180459 0
M  V30 109 C 12.8758 -0.812706 3.52246 0
M  V30 110 O 12.5968 0.294387 4.3711 0
M  V30 111 C 14.0978 -1.4982 4.17216 0
M  V30 112 H 11.3178 -0.0761638 0.666663 0
M  V30 113 H 13.8618 0.414787 2.00249 0
M  V30 114 H 12.0168 -1.51486 3.56554 0
M  V30 115 H 12.4308 -0.0721325 5.2445 0
M  V30 116 H 13.9048 -1.7822 5.22438 0
M  V30 117 H 14.3818 -2.43168 3.65741 0
M  V30 118 H 14.9878 -0.839742 4.16927 0
M  V30 119 N 13.3029 -1.57598 0.00835791 0
M  V30 120 C 14.2329 -2.1198 -0.979113 0
M  V30 121 C 15.2139 -1.03091 -1.35301 0
M  V30 122 O 16.3989 -1.30818 -1.43528 0
M  V30 123 C 13.5289 -2.62995 -2.26828 0
M  V30 124 C 12.4829 -3.76485 -2.03576 0
M  V30 125 C 11.8089 -4.13846 -3.38579 0
M  V30 126 C 13.1089 -5.0342 -1.39161 0
M  V30 127 H 14.8029 -2.94738 -0.526281 0
M  V30 128 H 12.3489 -1.41783 -0.251704 0
M  V30 129 H 14.3019 -2.99669 -2.96271 0
M  V30 130 H 13.0259 -1.7737 -2.7424 0
M  V30 131 H 11.6849 -3.40217 -1.36557 0
M  V30 132 H 11.3329 -3.25232 -3.83709 0
M  V30 133 H 11.0329 -4.90312 -3.23834 0
M  V30 134 H 12.5569 -4.53086 -4.09323 0
M  V30 135 H 13.9709 -5.37812 -1.98573 0
M  V30 136 H 12.3679 -5.84746 -1.34878 0
M  V30 137 H 13.4379 -4.83548 -0.361868 0
M  V30 138 N 14.781 0.264519 -1.55364 0
M  V30 139 C 16.03 0.992812 -1.75574 0
M  V30 140 C 16.343 1.87142 -0.568979 0
M  V30 141 O 17.549 2.63513 -0.653682 0
M  V30 142 C 16.005 1.81519 -3.10771 0
M  V30 143 C 15.613 0.984839 -4.37041 0
M  V30 144 C 17.357 2.53727 -3.40327 0
M  V30 145 C 15.264 1.80209 -5.63275 0
M  V30 146 H 14.194 0.374412 -0.65447 0
M  V30 147 H 16.845 0.248138 -1.81815 0
M  V30 148 H 15.227 2.60115 -2.98591 0
M  V30 149 H 16.401 0.242455 -4.60162 0
M  V30 150 H 14.716 0.37691 -4.14691 0
M  V30 151 H 17.313 3.15292 -4.3185 0
M  V30 152 H 17.656 3.24447 -2.60845 0
M  V30 153 H 18.189 1.82156 -3.53644 0
M  V30 154 H 14.928 1.13896 -6.45529 0
M  V30 155 H 14.448 2.52022 -5.44284 0
M  V30 156 H 16.127 2.37364 -6.01887 0
M  V30 157 N 16.2591 1.48442 0.529413 0
M  V30 158 C 17.4891 1.59919 1.30804 0
M  V30 159 C 17.8971 0.258792 1.87422 0
M  V30 160 O 17.2401 -0.762096 1.67146 0
M  V30 161 C 17.3021 2.58693 2.49636 0
M  V30 162 C 16.9661 4.03745 2.14101 0
M  V30 163 C 17.9631 4.9141 1.6974 0
M  V30 164 C 15.6481 4.49285 2.24607 0
M  V30 165 C 17.6421 6.22645 1.36351 0
M  V30 166 C 15.3291 5.8054 1.9083 0
M  V30 167 C 16.3271 6.67043 1.46773 0
M  V30 168 O 16.0151 7.95856 1.1344 0
M  V30 169 H 15.7471 0.541981 0.404021 0
M  V30 170 H 18.3011 1.95 0.645309 0
M  V30 171 H 16.5311 2.18734 3.18892 0
M  V30 172 H 18.2201 2.59999 3.11698 0
M  V30 173 H 18.9861 4.57465 1.61094 0
M  V30 174 H 14.8651 3.82142 2.57854 0
M  V30 175 H 18.4091 6.90119 1.01891 0
M  V30 176 H 14.3061 6.14022 1.99117 0
M  V30 177 H 15.0741 8.08613 1.26832 0
M  V30 178 N 17.7372 -0.778329 1.37039 0
M  V30 179 C 18.9862 -1.53189 1.3121 0
M  V30 180 C 19.2992 -1.95328 -0.103095 0
M  V30 181 O 20.5052 -2.70012 -0.283826 0
M  V30 182 C 18.9612 -2.76591 2.30272 0
M  V30 183 C 18.5692 -2.41577 3.77286 0
M  V30 184 C 20.3132 -3.5455 2.33441 0
M  V30 185 C 18.2202 -3.61441 4.68096 0
M  V30 186 H 17.1502 -0.5751 0.487622 0
M  V30 187 H 19.8012 -0.853101 1.62464 0
M  V30 188 H 18.1832 -3.46326 1.92027 0
M  V30 189 H 19.3572 -1.79668 4.2433 0
M  V30 190 H 17.6722 -1.76806 3.76999 0
M  V30 191 H 20.2692 -4.43628 2.98493 0
M  V30 192 H 20.6122 -3.93936 1.34611 0
M  V30 193 H 21.1452 -2.91805 2.7036 0
M  V30 194 H 17.8842 -3.27142 5.6803 0
M  V30 195 H 17.4042 -4.22478 4.25761 0
M  V30 196 H 19.0832 -4.28335 4.8491 0
M  V30 197 N 19.2153 -1.21501 -1.00376 0
M  V30 198 C 20.1453 -0.999478 -2.11028 0
M  V30 199 C 21.1263 0.0759671 -1.6993 0
M  V30 200 O 22.3113 -0.0841106 -1.94018 0
M  V30 201 C 19.4413 -0.564709 -3.42678 0
M  V30 202 C 18.3953 -1.58486 -3.97576 0
M  V30 203 C 17.7213 -1.00628 -5.25146 0
M  V30 204 C 19.0213 -2.97204 -4.29496 0
M  V30 205 H 20.7153 -1.92495 -2.29317 0
M  V30 206 H 18.2613 -0.92693 -1.102 0
M  V30 207 H 20.2143 -0.401091 -4.19487 0
M  V30 208 H 18.9383 0.396411 -3.24185 0
M  V30 209 H 17.5973 -1.73606 -3.22888 0
M  V30 210 H 17.2453 -0.0368439 -5.02987 0
M  V30 211 H 16.9453 -1.68771 -5.62841 0
M  V30 212 H 18.4693 -0.854015 -6.04598 0
M  V30 213 H 19.8833 -2.8552 -4.97143 0
M  V30 214 H 18.2803 -3.62372 -4.78338 0
M  V30 215 H 19.3503 -3.47956 -3.3772 0
M  V30 216 N 20.6934 1.19889 -1.02296 0
M  V30 217 C 21.9394 1.89973 -0.726759 0
M  V30 218 C 22.2944 1.7776 0.73614 0
M  V30 219 O 21.5874 1.15523 1.52856 0
M  V30 220 C 21.7814 3.39883 -1.10518 0
M  V30 221 C 21.6104 3.66684 -2.60332 0
M  V30 222 C 20.3804 3.85045 -3.27213 0
M  V30 223 C 22.5784 3.68727 -3.58532 0
M  V30 224 N 20.5604 3.99422 -4.66192 0
M  V30 225 C 21.9314 3.88604 -4.83101 0
M  V30 226 C 23.9864 3.51722 -3.52414 0
M  V30 227 C 22.6894 3.9324 -6.02292 0
M  V30 228 C 24.7154 3.57632 -4.71013 0
M  V30 229 C 24.0774 3.77988 -5.94394 0
M  V30 230 H 20.1764 0.714551 -0.317712 0
M  V30 231 H 22.7604 1.44123 -1.30907 0
M  V30 232 H 20.9314 3.8447 -0.551142 0
M  V30 233 H 22.6634 3.97464 -0.761853 0
M  V30 234 H 19.4184 3.83689 -2.77632 0
M  V30 235 H 19.8424 4.10473 -5.38368 0
M  V30 236 H 24.4844 3.34945 -2.58015 0
M  V30 237 H 22.2024 4.08811 -6.97065 0
M  V30 238 H 25.7884 3.45773 -4.67902 0
M  V30 239 H 24.6684 3.82428 -6.8463 0
M  V30 240 N 22.1715 0.800033 1.35784 0
M  V30 241 C 23.1035 0.163596 2.28615 0
M  V30 242 C 24.1165 -0.633317 1.49976 0
M  V30 243 O 25.3055 -0.466754 1.72289 0
M  V30 244 C 22.4055 -0.790958 3.29541 0
M  V30 245 C 21.5785 -0.0418255 4.3738 0
M  V30 246 C 20.6375 -0.91389 5.18203 0
M  V30 247 O 19.6635 -0.367234 5.68014 0
M  V30 248 N 20.8655 -2.23682 5.35674 0
M  V30 249 H 23.6305 0.96105 2.83873 0
M  V30 250 H 21.1915 0.654894 1.48063 0
M  V30 251 H 23.1835 -1.37844 3.80501 0
M  V30 252 H 21.7535 -1.48925 2.74846 0
M  V30 253 H 20.9735 0.726813 3.87442 0
M  V30 254 H 22.2615 0.474719 5.06581 0
M  V30 255 H 21.6595 -2.70497 4.96838 0
M  V30 256 H 20.2165 -2.77369 5.89839 0
M  V30 257 N 23.6496 -1.47581 0.552962 0
M  V30 258 C 24.5796 -2.32762 -0.185451 0
M  V30 259 C 25.5606 -1.43527 -0.912905 0
M  V30 260 O 26.7456 -1.72388 -0.894201 0
M  V30 261 C 23.8756 -3.25219 -1.21859 0
M  V30 262 C 22.8296 -4.23661 -0.607864 0
M  V30 263 C 22.1556 -5.05413 -1.74533 0
M  V30 264 C 23.4556 -5.20481 0.435582 0
M  V30 265 H 25.1496 -2.94749 0.525684 0
M  V30 266 H 22.6956 -1.41738 0.254251 0
M  V30 267 H 24.6486 -3.8365 -1.7433 0
M  V30 268 H 23.3726 -2.61279 -1.95961 0
M  V30 269 H 22.0316 -3.66451 -0.104489 0
M  V30 270 H 21.6796 -4.3788 -2.47529 0
M  V30 271 H 21.3796 -5.72059 -1.34249 0
M  V30 272 H 22.9036 -5.66701 -2.27338 0
M  V30 273 H 24.3176 -5.733 -0.00290157 0
M  V30 274 H 22.7146 -5.95305 0.757067 0
M  V30 275 H 23.7846 -4.66217 1.33303 0
M  V30 276 N 25.1277 -0.289203 -1.54924 0
M  V30 277 C 26.3557 0.326463 -2.04308 0
M  V30 278 C 26.7707 1.48413 -1.16701 0
M  V30 279 O 26.1277 1.81507 -0.190087 0
M  V30 280 C 26.1787 0.794014 -3.52672 0
M  V30 281 O 25.8997 -0.317564 -4.36948 0
M  V30 282 C 27.4007 1.47605 -4.18004 0
M  V30 283 H 24.6207 0.0726272 -0.667058 0
M  V30 284 H 27.1647 -0.425401 -2.00026 0
M  V30 285 H 25.3197 1.49593 -3.57352 0
M  V30 286 H 25.7337 0.0443186 -5.24481 0
M  V30 287 H 27.2077 1.75447 -5.23376 0
M  V30 288 H 27.6847 2.41224 -3.67025 0
M  V30 289 H 28.2907 0.81762 -4.17367 0
M  V30 290 N 26.6058 1.57591 -0.0167156 0
M  V30 291 C 27.8538 1.90906 0.663285 0
M  V30 292 C 28.1748 0.892509 1.73376 0
M  V30 293 O 27.4448 -0.0677623 1.95783 0
M  V30 294 H 26.0248 0.704637 0.247983 0
M  V30 295 H 28.6868 1.94803 -0.0615909 0
M  V30 296 H 27.7828 2.9116 1.12393 0
M  V30 297 N 28.0839 -0.256276 1.55502 0
M  V30 298 C 29.3089 -1.00766 1.81276 0
M  V30 299 C 29.7339 -1.78524 0.59252 0
M  V30 300 O 29.0919 -1.75413 -0.45827 0
M  V30 301 C 29.1399 -1.92869 3.04687 0
M  V30 302 O 28.2439 -3.019 2.80945 0
M  V30 303 H 27.5849 -0.287224 0.598664 0
M  V30 304 H 30.1149 -0.280109 2.02674 0
M  V30 305 H 30.1249 -2.34511 3.33869 0
M  V30 306 H 28.7999 -1.35689 3.93143 0
M  V30 307 H 27.3769 -2.64454 2.62904 0
M  V30 308 N 29.562 -1.4872 -0.521534 0
M  V30 309 C 30.525 -1.63379 -1.60748 0
M  V30 310 C 31.525 -0.50661 -1.52611 0
M  V30 311 O 32.715 -0.772601 -1.5613 0
M  V30 312 C 29.847 -1.61192 -3.00383 0
M  V30 313 H 31.04 -2.60217 -1.49087 0
M  V30 314 H 28.593 -1.37444 -0.744235 0
M  V30 315 H 29.328 -0.65863 -3.17541 0
M  V30 316 H 29.113 -2.43032 -3.07698 0
M  V30 317 H 30.603 -1.7466 -3.7932 0
M  V30 318 N 31.0401 0.771051 -1.3745 0
M  V30 319 C 32.0031 1.86598 -1.33093 0
M  V30 320 C 33.0031 1.59076 -0.234845 0
M  V30 321 O 34.1931 1.67145 -0.490732 0
M  V30 322 C 31.3251 3.23747 -1.06773 0
M  V30 323 H 32.5181 1.91873 -2.30488 0
M  V30 324 H 30.0711 0.970876 -1.2249 0
M  V30 325 H 30.8061 3.24148 -0.099129 0
M  V30 326 H 30.5911 3.45115 -1.86112 0
M  V30 327 H 32.0811 4.03824 -1.06377 0
M  V30 328 N 32.5182 1.22032 0.997298 0
M  V30 329 C 33.7432 1.06921 1.77715 0
M  V30 330 C 34.1682 -0.376226 1.84299 0
M  V30 331 O 33.5262 -1.27165 1.29223 0
M  V30 332 C 33.5742 1.67996 3.19076 0
M  V30 333 O 32.6782 0.930653 4.01762 0
M  V30 334 H 32.0192 0.375814 0.547412 0
M  V30 335 H 34.5492 1.61737 1.25309 0
M  V30 336 H 34.5592 1.72538 3.69723 0
M  V30 337 H 33.2342 2.73182 3.13599 0
M  V30 338 H 31.8112 0.960917 3.60307 0
M  V30 339 N 33.9963 -1.19345 1.0293 0
M  V30 340 C 35.2443 -1.88665 0.724574 0
M  V30 341 C 35.5653 -1.80036 -0.749144 0
M  V30 342 O 34.8353 -1.2111 -1.53978 0
M  V30 343 H 33.4153 -0.698406 0.265025 0
M  V30 344 H 36.0773 -1.44885 1.30362 0
M  V30 345 H 35.1733 -2.94987 1.01926 0
M  V30 346 N 35.4744 -0.807222 -1.35358 0
M  V30 347 C 36.8854 -0.44876 -1.81226 0
M  V30 348 C 37.2364 1.02929 -1.67033 0
M  V30 349 O 36.3614 1.79991 -1.20133 0
M  V30 350 C 36.9564 -0.807774 -3.2903 0
M  V30 351 C 35.5154 -0.501901 -3.73039 0
M  V30 352 C 34.6624 -1.03304 -2.57339 0
M  V30 353 H 37.6134 -0.998808 -1.23327 0
M  V30 354 H 37.6344 -0.10554 -3.80354 0
M  V30 355 H 37.1464 -1.88357 -3.39328 0
M  V30 356 H 35.2474 0.565128 -3.68289 0
M  V30 357 H 35.3604 -1.03497 -4.67787 0
M  V30 358 H 33.7244 -0.455339 -2.50597 0
M  V30 359 H 34.5074 -2.11496 -2.70415 0
M  V30 360 N 36.9525 1.47285 -0.560781 0
M  V30 361 C 38.1985 2.02764 -0.0381184 0
M  V30 362 C 38.5315 1.43384 1.30976 0
M  V30 363 O 37.8065 0.590733 1.85312 0
M  V30 364 C 38.0895 3.60064 0.0511427 0
M  V30 365 C 37.9425 4.2987 -1.32408 0
M  V30 366 C 39.2615 4.33439 0.762795 0
M  V30 367 H 36.3805 0.736841 -0.0153264 0
M  V30 368 H 39.0225 1.75675 -0.723759 0
M  V30 369 H 37.1725 3.83274 0.635065 0
M  V30 370 H 38.8445 4.17989 -1.95148 0
M  V30 371 H 37.0875 3.90085 -1.8978 0
M  V30 372 H 37.7585 5.38478 -1.21431 0
M  V30 373 H 40.2345 4.15243 0.266965 0
M  V30 374 H 39.1105 5.43124 0.794221 0
M  V30 375 H 39.3715 4.02915 1.81966 0
M  V30 376 N 38.4306 0.297415 1.54768 0
M  V30 377 C 39.3776 -0.580276 2.23386 0
M  V30 378 C 40.3476 -1.13238 1.21517 0
M  V30 379 O 41.5326 -1.17757 1.50126 0
M  V30 380 C 38.6726 -1.74801 2.97555 0
M  V30 381 C 37.7856 -1.22764 4.1419 0
M  V30 382 C 36.9206 -2.35895 4.75949 0
M  V30 383 C 35.9596 -1.80974 5.84735 0
M  V30 384 N 35.0966 -2.87664 6.40464 0
M  V30 385 H 39.9366 0.0114833 2.97998 0
M  V30 386 H 37.4736 0.0174361 1.4709 0
M  V30 387 H 39.4316 -2.43475 3.38786 0
M  V30 388 H 38.0616 -2.31145 2.25326 0
M  V30 389 H 37.1136 -0.433271 3.77924 0
M  V30 390 H 38.4256 -0.785551 4.92575 0
M  V30 391 H 37.5796 -3.12523 5.20014 0
M  V30 392 H 36.3186 -2.83429 3.96887 0
M  V30 393 H 35.3236 -1.02834 5.40097 0
M  V30 394 H 36.5486 -1.34348 6.65678 0
M  V30 395 H 34.4946 -3.34538 5.64287 0
M  V30 396 H 34.4116 -2.4794 7.14186 0
M  V30 397 H 35.6796 -3.642 6.89187 0
M  V30 398 N 39.9087 -1.5758 0.0250728 0
M  V30 399 C 40.8187 -2.1343 -0.973905 0
M  V30 400 C 41.8347 -1.08556 -1.35984 0
M  V30 401 O 43.0107 -1.40592 -1.44207 0
M  V30 402 C 40.0757 -2.64703 -2.23904 0
M  V30 403 C 39.1367 -3.84276 -1.91391 0
M  V30 404 C 38.3697 -4.33095 -3.11873 0
M  V30 405 O 38.5927 -3.81107 -4.24398 0
M  V30 406 O 37.5267 -5.24984 -2.94406 0
M  V30 407 H 41.3527 -2.99057 -0.529036 0
M  V30 408 H 38.9377 -1.48118 -0.195288 0
M  V30 409 H 40.8197 -2.97769 -2.98181 0
M  V30 410 H 39.4947 -1.82161 -2.6758 0
M  V30 411 H 38.4017 -3.56143 -1.14511 0
M  V30 412 H 39.7347 -4.67968 -1.52534 0
M  V30 413 N 41.3868 0.248026 -1.55636 0
M  V30 414 C 42.3168 1.31079 -1.93237 0
M  V30 415 C 43.2978 1.50264 -0.797174 0
M  V30 416 O 44.4828 1.62891 -1.05737 0
M  V30 417 C 41.6128 2.66575 -2.22609 0
M  V30 418 C 40.5668 2.62087 -3.3837 0
M  V30 419 C 39.8928 4.01369 -3.53281 0
M  V30 420 C 41.1928 2.19171 -4.7409 0
M  V30 421 H 42.8868 0.998556 -2.82257 0
M  V30 422 H 40.4328 0.47891 -1.35803 0
M  V30 423 H 42.3858 3.41057 -2.47503 0
M  V30 424 H 41.1098 2.99432 -1.30414 0
M  V30 425 H 39.7688 1.90063 -3.13483 0
M  V30 426 H 39.4168 4.31489 -2.58508 0
M  V30 427 H 39.1168 3.99254 -4.31127 0
M  V30 428 H 40.6408 4.77552 -3.80495 0
M  V30 429 H 42.0548 2.83384 -4.98363 0
M  V30 430 H 40.4518 2.2817 -5.5503 0
M  V30 431 H 41.5218 1.14336 -4.71227 0
M  V30 432 N 42.8649 1.48995 0.513639 0
M  V30 433 C 44.1109 1.58076 1.27042 0
M  V30 434 C 44.4439 0.261026 1.92438 0
M  V30 435 O 43.7189 -0.734393 1.80103 0
M  V30 436 C 44.0019 2.73091 2.34719 0
M  V30 437 C 43.8549 4.14821 1.73907 0
M  V30 438 C 45.1739 2.83796 3.36375 0
M  V30 439 H 42.2929 0.575391 0.460536 0
M  V30 440 H 44.9349 1.81232 0.570516 0
M  V30 441 H 43.0849 2.53479 2.94416 0
M  V30 442 H 44.7569 4.45917 1.18135 0
M  V30 443 H 42.9999 4.21058 1.0437 0
M  V30 444 H 43.6709 4.91147 2.51949 0
M  V30 445 H 46.1469 3.01611 2.86653 0
M  V30 446 H 45.0229 3.65971 4.09093 0
M  V30 447 H 45.2839 1.92624 3.9793 0
M  V30 448 N 44.343 -0.763751 1.37857 0
M  V30 449 C 45.591 -1.51957 1.33243 0
M  V30 450 C 45.912 -1.94835 -0.0801709 0
M  V30 451 O 45.182 -1.66894 -1.02582 0
M  V30 452 H 43.762 -0.563626 0.49024 0
M  V30 453 H 46.424 -0.908504 1.7243 0
M  V30 454 H 45.52 -2.41523 1.97669 0
M  V30 455 N 45.8211 -1.22559 -0.990812 0
M  V30 456 C 47.0461 -1.07862 -1.77145 0
M  V30 457 C 47.4711 0.366447 -1.84496 0
M  V30 458 O 46.8291 1.26478 -1.29896 0
M  V30 459 C 46.8771 -1.69686 -3.18181 0
M  V30 460 O 45.9811 -0.951946 -4.01263 0
M  V30 461 H 45.3221 -0.378712 -0.545411 0
M  V30 462 H 47.8521 -1.62399 -1.2445 0
M  V30 463 H 47.8621 -1.74496 -3.68802 0
M  V30 464 H 46.5371 -2.74841 -3.12146 0
M  V30 465 H 45.1141 -0.980011 -3.59792 0
M  V30 466 N 47.2992 1.18797 -1.03562 0
M  V30 467 C 48.5452 1.8893 -0.737113 0
M  V30 468 C 48.8782 1.79837 0.732956 0
M  V30 469 O 48.1532 1.19525 1.5344 0
M  V30 470 C 48.4362 3.39607 -1.19745 0
M  V30 471 C 48.2892 3.57537 -2.72924 0
M  V30 472 C 49.6082 4.33069 -0.783526 0
M  V30 473 H 46.7272 0.686057 -0.269249 0
M  V30 474 H 49.3692 1.39797 -1.28673 0
M  V30 475 H 47.5192 3.81583 -0.729855 0
M  V30 476 H 49.1912 3.24688 -3.27682 0
M  V30 477 H 47.4342 3.00363 -3.12993 0
M  V30 478 H 48.1052 4.63238 -3.00191 0
M  V30 479 H 50.5812 3.98846 -1.18581 0
M  V30 480 H 49.4572 5.3707 -1.13343 0
M  V30 481 H 49.7182 4.40986 0.313681 0
M  V30 482 N 48.7773 0.814389 1.34928 0
M  V30 483 C 50.0253 0.397636 1.9815 0
M  V30 484 C 50.3463 -1.04069 1.64908 0
M  V30 485 O 49.6163 -1.72121 0.93548 0
M  V30 486 H 48.1963 0.144043 0.732981 0
M  V30 487 H 50.8583 1.04195 1.6471 0
M  V30 488 H 49.9543 0.509688 3.0791 0
M  V30 489 N 50.2554 -1.46986 0.568584 0
M  V30 490 C 51.5034 -2.02041 0.0487022 0
M  V30 491 C 51.8244 -1.44408 -1.31039 0
M  V30 492 O 51.0944 -0.623477 -1.85714 0
M  V30 493 H 49.6744 -0.746849 0.015014 0
M  V30 494 H 52.3364 -1.80257 0.741168 0
M  V30 495 H 51.4324 -3.12085 -0.0308961 0
M  V30 496 N 51.7335 -0.305618 -1.54608 0
M  V30 497 C 52.6965 0.555591 -2.22364 0
M  V30 498 C 53.6965 1.05768 -1.21119 0
M  V30 499 O 54.8865 0.952972 -1.45822 0
M  V30 500 C 52.0185 1.76974 -2.91364 0
M  V30 501 H 53.2115 -0.0364572 -2.99878 0
M  V30 502 H 50.7645 -0.0565007 -1.56198 0
M  V30 503 H 51.4995 2.40151 -2.17941 0
M  V30 504 H 51.2845 1.41732 -3.65588 0
M  V30 505 H 52.7745 2.38148 -3.43038 0
M  V30 506 N 53.2116 1.57565 -0.0334293 0
M  V30 507 C 54.4576 1.92262 0.645226 0
M  V30 508 C 54.7906 0.910543 1.71531 0
M  V30 509 O 54.0656 -0.066099 1.94388 0
M  V30 510 C 54.3486 3.37422 1.2577 0
M  V30 511 C 54.2016 4.49369 0.196891 0
M  V30 512 C 55.5206 3.82628 2.17449 0
M  V30 513 H 52.6396 0.699171 0.233085 0
M  V30 514 H 55.2816 1.89779 -0.0915694 0
M  V30 515 H 53.4316 3.39669 1.88566 0
M  V30 516 H 55.1036 4.59254 -0.433962 0
M  V30 517 H 53.3466 4.31168 -0.477137 0
M  V30 518 H 54.0176 5.47978 0.665124 0
M  V30 519 H 56.4936 3.82145 1.64634 0
M  V30 520 H 55.3696 4.84883 2.57254 0
M  V30 521 H 55.6306 3.18376 3.0674 0
M  V30 522 N 54.6897 -0.239769 1.55765 0
M  V30 523 C 55.9177 -0.98417 1.81994 0
M  V30 524 C 56.3327 -1.7867 0.610124 0
M  V30 525 O 55.6897 -1.77571 -0.421271 0
M  V30 526 C 55.7407 -1.91635 3.06526 0
M  V30 527 O 55.4617 -1.14629 4.22838 0
M  V30 528 C 56.9627 -2.77616 3.45607 0
M  V30 529 H 54.1827 -0.28928 0.605441 0
M  V30 530 H 56.7267 -0.260499 2.02834 0
M  V30 531 H 54.8817 -2.5942 2.87715 0
M  V30 532 H 55.2957 -1.77745 4.93464 0
M  V30 533 H 56.7697 -3.38759 4.35828 0
M  V30 534 H 57.2467 -3.4909 2.6652 0
M  V30 535 H 57.8527 -2.15271 3.66795 0
M  V30 536 N 56.1678 -1.49265 -0.50573 0
M  V30 537 C 57.4148 -1.58513 -1.26015 0
M  V30 538 C 57.7428 -0.26972 -1.92621 0
M  V30 539 O 56.9978 0.741997 -1.81088 0
M  V30 540 C 57.2968 -2.69008 -2.35308 0
M  V30 541 C 56.9628 -4.10662 -1.86192 0
M  V30 542 C 55.6248 -4.49212 -1.72516 0
M  V30 543 C 57.9768 -4.99336 -1.49375 0
M  V30 544 C 55.3048 -5.74214 -1.20394 0
M  V30 545 C 57.6568 -6.24852 -0.987072 0
M  V30 546 C 56.3208 -6.62236 -0.836669 0
M  V30 547 H 55.5908 -0.580041 -0.461122 0
M  V30 548 H 58.2378 -1.83078 -0.561665 0
M  V30 549 H 56.5428 -2.38396 -3.10926 0
M  V30 550 H 58.2398 -2.73373 -2.93374 0
M  V30 551 H 54.8298 -3.8023 -1.97795 0
M  V30 552 H 59.0138 -4.70212 -1.5879 0
M  V30 553 H 54.2698 -6.01883 -1.07458 0
M  V30 554 H 58.4438 -6.92944 -0.692983 0
M  V30 555 H 56.0708 -7.58979 -0.430607 0
M  V30 556 N 57.6459 0.756429 -1.3826 0
M  V30 557 C 59.0569 1.33359 -1.30661 0
M  V30 558 C 59.4079 1.96161 0.0388875 0
M  V30 559 O 58.5329 1.94874 0.940918 0
M  V30 560 C 59.1279 2.42477 -2.36622 0
M  V30 561 C 57.6869 2.95922 -2.3261 0
M  V30 562 C 56.8339 1.69275 -2.19639 0
M  V30 563 H 59.7849 0.55552 -1.4866 0
M  V30 564 H 59.8059 3.22345 -2.02174 0
M  V30 565 H 59.3179 1.96739 -3.34538 0
M  V30 566 H 57.4189 3.45996 -1.38267 0
M  V30 567 H 57.5319 3.50494 -3.26636 0
M  V30 568 H 55.8959 1.92793 -1.66442 0
M  V30 569 H 56.6789 1.25619 -3.19491 0
M  V30 570 N 59.124 1.23083 0.984299 0
M  V30 571 C 60.054 1.03292 2.09411 0
M  V30 572 C 61.035 -0.048923 1.7003 0
M  V30 573 O 62.22 0.114967 1.93859 0
M  V30 574 C 59.35 0.619155 3.41736 0
M  V30 575 C 58.304 1.64791 3.95004 0
M  V30 576 C 57.63 1.0897 5.23478 0
M  V30 577 C 58.93 3.03999 4.24714 0
M  V30 578 H 60.624 1.96119 2.26225 0
M  V30 579 H 58.17 0.944344 1.08711 0
M  V30 580 H 60.123 0.467777 4.18796 0
M  V30 581 H 58.847 -0.344786 3.24775 0
M  V30 582 H 57.506 1.78721 3.20085 0
M  V30 583 H 57.154 0.11686 5.02864 0
M  V30 584 H 56.854 1.77704 5.60085 0
M  V30 585 H 58.378 0.950093 6.03163 0
M  V30 586 H 59.792 2.93393 4.92538 0
M  V30 587 H 58.189 3.69936 4.72512 0
M  V30 588 H 59.259 3.53285 3.32142 0
M  V30 589 N 60.6021 -1.18246 1.0419 0
M  V30 590 C 61.5491 -2.2192 0.634037 0
M  V30 591 C 62.5191 -1.62179 -0.358765 0
M  V30 592 O 63.7041 -1.89122 -0.252466 0
M  V30 593 C 60.8441 -3.451 0.00445535 0
M  V30 594 C 59.9571 -4.19174 1.04487 0
M  V30 595 C 59.0921 -5.29813 0.383676 0
M  V30 596 C 58.1311 -5.9566 1.4091 0
M  V30 597 N 57.2681 -6.97834 0.772784 0
M  V30 598 H 62.1081 -2.56164 1.52263 0
M  V30 599 H 59.6451 -1.25843 0.761701 0
M  V30 600 H 61.6031 -4.15485 -0.377919 0
M  V30 601 H 60.2331 -3.11472 -0.847652 0
M  V30 602 H 59.2851 -3.47604 1.54518 0
M  V30 603 H 60.5971 -4.64267 1.82368 0
M  V30 604 H 59.7511 -6.06677 -0.0528366 0
M  V30 605 H 58.4901 -4.85825 -0.427208 0
M  V30 606 H 57.4951 -5.17535 1.85574 0
M  V30 607 H 58.7201 -6.4173 2.22171 0
M  V30 608 H 56.6661 -6.55998 -0.0177708 0
M  V30 609 H 56.5831 -7.41186 1.48928 0
M  V30 610 H 57.8511 -7.78665 0.36071 0
M  V30 611 N 62.0802 -0.821533 -1.34494 0
M  V30 612 C 63.3052 -0.420873 -2.03085 0
M  V30 613 C 63.7302 0.964915 -1.61465 0
M  V30 614 O 63.0882 1.62763 -0.798607 0
M  V30 615 C 63.1362 -0.529414 -3.56693 0
M  V30 616 O 62.2402 0.451302 -4.09923 0
M  V30 617 H 61.5812 -0.173489 -0.640935 0
M  V30 618 H 64.1112 -1.11157 -1.71771 0
M  V30 619 H 64.1212 -0.404671 -4.05988 0
M  V30 620 H 62.7962 -1.54014 -3.86332 0
M  V30 621 H 61.3732 0.285558 -3.71805 0
M  V30 622 N 63.5583 1.46682 -0.576371 0
M  V30 623 C 64.5053 2.30241 0.160499 0
M  V30 624 C 65.4753 1.40233 0.890162 0
M  V30 625 O 66.6603 1.69186 0.882084 0
M  V30 626 C 63.8003 3.24578 1.1723 0
M  V30 627 C 62.9133 4.29684 0.446736 0
M  V30 628 C 62.0483 5.11154 1.44551 0
M  V30 629 C 61.0873 6.08015 0.70599 0
M  V30 630 N 60.2243 6.82376 1.65251 0
M  V30 631 H 65.0643 2.92727 -0.558127 0
M  V30 632 H 62.6013 1.44272 -0.287056 0
M  V30 633 H 64.5593 3.77711 1.77172 0
M  V30 634 H 63.1893 2.63916 1.85872 0
M  V30 635 H 62.2413 3.79458 -0.267594 0
M  V30 636 H 63.5533 4.98626 -0.131686 0
M  V30 637 H 62.7073 5.68533 2.11791 0
M  V30 638 H 61.4463 4.42158 2.05786 0
M  V30 639 H 60.4513 5.49796 0.0197725 0
M  V30 640 H 61.6763 6.79028 0.09912 0
M  V30 641 H 59.6223 6.16094 2.25308 0
M  V30 642 H 59.5393 7.47556 1.12673 0
M  V30 643 H 60.8073 7.44316 2.31546 0
M  V30 644 N 65.0364 0.313813 1.54444 0
M  V30 645 C 66.2824 -0.292108 2.00685 0
M  V30 646 C 66.6154 -1.52548 1.20177 0
M  V30 647 O 65.8904 -1.92452 0.281531 0
M  V30 648 C 66.1734 -0.635968 3.5444 0
M  V30 649 C 66.0264 0.607437 4.4568 0
M  V30 650 C 67.3454 -1.45747 4.15266 0
M  V30 651 H 64.4644 -0.104697 0.729526 0
M  V30 652 H 67.1064 0.428457 1.85106 0
M  V30 653 H 65.2564 -1.24986 3.67846 0
M  V30 654 H 66.9284 1.24581 4.44159 0
M  V30 655 H 65.1714 1.23822 4.15753 0
M  V30 656 H 65.8424 0.322515 5.51057 0
M  V30 657 H 68.3184 -0.938645 4.05375 0
M  V30 658 H 67.1944 -1.66683 5.2298 0
M  V30 659 H 67.4554 -2.45063 3.67963 0
M  V30 660 N 66.5145 -1.57545 0.0417849 0
M  V30 661 C 67.4615 -2.10977 -0.935805 0
M  V30 662 C 68.4315 -1.01486 -1.31491 0
M  V30 663 O 69.6165 -1.2898 -1.40602 0
M  V30 664 C 66.7565 -2.65169 -2.2086 0
M  V30 665 C 65.8695 -3.88714 -1.88482 0
M  V30 666 C 65.0045 -4.31254 -3.1015 0
M  V30 667 C 64.0435 -5.47524 -2.7365 0
M  V30 668 N 63.1805 -5.85162 -3.87982 0
M  V30 669 H 68.0205 -2.94218 -0.473249 0
M  V30 670 H 65.5575 -1.45415 -0.221981 0
M  V30 671 H 67.5155 -2.94685 -2.95325 0
M  V30 672 H 66.1455 -1.8474 -2.64709 0
M  V30 673 H 65.1975 -3.65849 -1.04205 0
M  V30 674 H 66.5095 -4.73245 -1.57608 0
M  V30 675 H 65.6635 -4.62273 -3.92923 0
M  V30 676 H 64.4025 -3.45516 -3.44195 0
M  V30 677 H 63.4075 -5.16187 -1.89291 0
M  V30 678 H 64.6325 -6.34971 -2.40807 0
M  V30 679 H 62.5785 -5.02377 -4.21846 0
M  V30 680 H 62.4955 -6.64362 -3.60775 0
M  V30 681 H 63.7635 -6.20791 -4.71422 0
M  V30 682 N 67.9926 0.231505 -1.5589 0
M  V30 683 C 68.9246 1.31006 -1.8807 0
M  V30 684 C 69.9376 1.43539 -0.768145 0
M  V30 685 O 71.1266 1.44614 -1.04638 0
M  V30 686 C 68.2266 2.68688 -2.06543 0
M  V30 687 C 67.3996 2.78228 -3.37502 0
M  V30 688 C 66.4586 3.96857 -3.4553 0
M  V30 689 O 65.4846 3.85662 -4.18633 0
M  V30 690 N 66.6866 5.1072 -2.75944 0
M  V30 691 H 69.4516 1.03731 -2.81176 0
M  V30 692 H 67.0126 0.421573 -1.56315 0
M  V30 693 H 69.0046 3.46412 -2.09239 0
M  V30 694 H 67.5746 2.88605 -1.20109 0
M  V30 695 H 66.7946 1.87059 -3.46991 0
M  V30 696 H 68.0826 2.81564 -4.23791 0
M  V30 697 H 67.4806 5.2271 -2.16311 0
M  V30 698 H 66.0376 5.86523 -2.84314 0
M  V30 699 N 69.4707 1.49531 0.497807 0
M  V30 700 C 70.7167 1.59415 1.25358 0
M  V30 701 C 71.0497 0.281422 1.9215 0
M  V30 702 O 70.3247 -0.715249 1.80871 0
M  V30 703 C 70.6077 2.75566 2.3181 0
M  V30 704 C 70.4607 4.16642 1.69498 0
M  V30 705 C 71.7797 2.87347 3.33346 0
M  V30 706 H 68.8987 0.580244 0.454408 0
M  V30 707 H 71.5407 1.81827 0.551262 0
M  V30 708 H 69.6907 2.56587 2.91711 0
M  V30 709 H 71.3627 4.47145 1.13399 0
M  V30 710 H 69.6057 4.22141 0.998978 0
M  V30 711 H 70.2767 4.93792 2.46725 0
M  V30 712 H 72.7527 3.04634 2.83438 0
M  V30 713 H 71.6287 3.70289 4.05188 0
M  V30 714 H 71.8897 1.96834 3.95865 0
M  V30 715 N 70.9488 -0.749086 1.3866 0
M  V30 716 C 72.2258 -1.4992 1.25632 0
M  V30 717 C 72.6058 -2.10633 -0.140317 0
M  V30 718 O 71.9538 -1.97437 -1.15025 0
M  V30 719 C 72.1638 -2.56195 2.36992 0
M  V30 720 C 73.5118 -3.22972 2.75634 0
M  V30 721 O 74.5358 -2.66502 2.36337 0
M  V30 722 O 73.3948 -4.25122 3.43415 0
M  V30 723 H 70.4888 -0.665067 0.491544 0
M  V30 724 H 73.0348 -0.784113 1.50498 0
M  V30 725 H 71.8068 -2.09612 3.30422 0
M  V30 726 H 71.4298 -3.35279 2.13714 0
M  V30 727 N 72.4269 -1.23603 -0.977757 0
M  V30 728 C 73.6519 -1.09735 -1.75991 0
M  V30 729 C 74.0769 0.346858 -1.84874 0
M  V30 730 O 73.4349 1.25093 -1.3123 0
M  V30 731 C 73.4829 -1.73051 -3.16363 0
M  V30 732 O 72.5869 -0.994452 -4.0023 0
M  V30 733 H 71.9279 -0.384476 -0.541364 0
M  V30 734 H 74.4579 -1.6371 -1.2272 0
M  V30 735 H 74.4679 -1.78398 -3.66931 0
M  V30 736 H 73.1429 -2.78137 -3.09213 0
M  V30 737 H 71.7199 -1.01812 -3.58732 0
M  V30 738 N 73.905 1.17692 -1.04816 0
M  V30 739 C 75.154 1.87192 -0.751132 0
M  V30 740 C 75.467 1.8169 0.724441 0
M  V30 741 O 76.673 2.46625 1.13527 0
M  V30 742 C 75.129 3.35857 -1.29338 0
M  V30 743 C 74.737 3.4987 -2.79812 0
M  V30 744 C 76.481 4.10709 -1.07322 0
M  V30 745 C 74.388 4.92536 -3.27356 0
M  V30 746 H 73.318 0.701162 -0.277288 0
M  V30 747 H 75.969 1.32932 -1.26496 0
M  V30 748 H 74.351 3.89631 -0.707376 0
M  V30 749 H 75.525 3.06332 -3.44235 0
M  V30 750 H 73.84 2.88433 -3.00325 0
M  V30 751 H 76.437 5.15952 -1.4035 0
M  V30 752 H 76.78 4.16299 -0.0108001 0
M  V30 753 H 77.313 3.6313 -1.62423 0
M  V30 754 H 74.052 4.92119 -4.33012 0
M  V30 755 H 73.572 5.3676 -2.67673 0
M  V30 756 H 75.251 5.61288 -3.21815 0
M  V30 757 N 75.3831 0.828654 1.34056 0
M  V30 758 C 76.6291 0.42008 1.98402 0
M  V30 759 C 76.9621 -1.01564 1.65525 0
M  V30 760 O 76.2371 -1.70834 0.929831 0
M  V30 761 C 76.5201 0.62927 3.54559 0
M  V30 762 C 76.3731 2.11152 3.97159 0
M  V30 763 C 77.6921 0.0688756 4.40046 0
M  V30 764 H 74.8111 0.154104 0.720709 0
M  V30 765 H 77.4531 1.04228 1.5886 0
M  V30 766 H 75.6031 0.0996418 3.88372 0
M  V30 767 H 77.2751 2.70522 3.73651 0
M  V30 768 H 75.5181 2.59985 3.47261 0
M  V30 769 H 76.1891 2.20868 5.05887 0
M  V30 770 H 78.6651 0.521458 4.1282 0
M  V30 771 H 77.5411 0.245006 5.48353 0
M  V30 772 H 77.8021 -1.0266 4.30015 0
M  V30 773 N 76.8612 -1.46375 0.584142 0
M  V30 774 C 78.1072 -2.03248 0.0787103 0
M  V30 775 C 78.4622 -1.44737 -1.26763 0
M  V30 776 O 77.7552 -0.603625 -1.81843 0
M  V30 777 C 77.9492 -3.57373 -0.0439342 0
M  V30 778 C 77.7782 -4.30831 1.28897 0
M  V30 779 C 76.5482 -4.69683 1.8635 0
M  V30 780 C 78.7462 -4.64278 2.21248 0
M  V30 781 N 76.7282 -5.27898 3.13365 0
M  V30 782 C 78.0992 -5.23078 3.32851 0
M  V30 783 C 80.1542 -4.46209 2.20911 0
M  V30 784 C 78.8572 -5.65715 4.44251 0
M  V30 785 C 80.8832 -4.89864 3.31341 0
M  V30 786 C 80.2452 -5.48736 4.41665 0
M  V30 787 H 76.3442 -0.778714 0.0716144 0
M  V30 788 H 78.9282 -1.78509 0.777355 0
M  V30 789 H 77.0992 -3.81823 -0.711749 0
M  V30 790 H 78.8312 -4.00892 -0.553881 0
M  V30 791 H 75.5862 -4.52488 1.39826 0
M  V30 792 H 76.0102 -5.61525 3.78178 0
M  V30 793 H 80.6522 -4.00027 1.36888 0
M  V30 794 H 78.3702 -6.10875 5.29015 0
M  V30 795 H 81.9562 -4.77634 3.322 0
M  V30 796 H 80.8362 -5.81898 5.25704 0
M  V30 797 N 78.3393 -0.321999 -1.54275 0
M  V30 798 C 79.5673 0.283052 -2.04955 0
M  V30 799 C 79.9823 1.45904 -1.19823 0
M  V30 800 O 79.3393 1.81063 -0.228545 0
M  V30 801 C 79.3903 0.719028 -3.54277 0
M  V30 802 O 79.1113 -0.410175 -4.36176 0
M  V30 803 C 80.6123 1.38705 -4.21041 0
M  V30 804 H 77.8323 0.0584616 -0.668448 0
M  V30 805 H 80.3763 -0.467734 -1.99079 0
M  V30 806 H 78.5313 1.41979 -3.60445 0
M  V30 807 H 78.9453 -0.0669416 -5.24457 0
M  V30 808 H 80.4193 1.64306 -5.2698 0
M  V30 809 H 80.8963 2.33385 -3.72059 0
M  V30 810 H 81.5023 0.728906 -4.19007 0
M  V30 811 N 79.8174 1.5752 -0.0501392 0
M  V30 812 C 81.0644 1.9265 0.623874 0
M  V30 813 C 81.3924 0.928411 1.70912 0
M  V30 814 O 80.6474 -0.0594525 1.9561 0
M  V30 815 C 80.9464 3.34467 1.25963 0
M  V30 816 C 80.6124 4.49883 0.302689 0
M  V30 817 C 79.2744 4.81184 0.0393636 0
M  V30 818 C 81.6264 5.20002 -0.353205 0
M  V30 819 C 78.9544 5.79951 -0.887308 0
M  V30 820 C 81.3064 6.1976 -1.26806 0
M  V30 821 C 79.9704 6.49491 -1.54007 0
M  V30 822 H 79.2404 0.704957 0.228292 0
M  V30 823 H 81.8874 1.91146 -0.116398 0
M  V30 824 H 80.1924 3.32333 2.07514 0
M  V30 825 H 81.8894 3.58928 1.78806 0
M  V30 826 H 78.4794 4.25457 0.518109 0
M  V30 827 H 82.6634 4.96033 -0.162854 0
M  V30 828 H 77.9194 6.01322 -1.10553 0
M  V30 829 H 82.0934 6.73205 -1.78236 0
M  V30 830 H 79.7204 7.25837 -2.25976 0
M  V30 831 N 81.2955 -0.223234 1.56011 0
M  V30 832 C 82.2435 -1.29627 1.93131 0
M  V30 833 C 83.2375 -1.48608 0.813146 0
M  V30 834 O 84.4435 -1.49802 0.997966 0
M  V30 835 H 80.8185 -0.434563 0.613726 0
M  V30 836 H 82.7895 -0.955995 2.82672 0
M  V30 837 C 81.5385 -2.63983 2.26292 0
M  V30 838 H 80.8615 -2.50185 3.11846 0
M  V30 839 H 82.3015 -3.3788 2.56151 0
M  V30 840 C 80.7605 -3.18866 1.08747 0
M  V30 841 O 81.2905 -4.00192 0.347727 0
M  V30 842 N 79.4965 -2.77217 0.871743 0
M  V30 843 H 79.0435 -2.1119 1.47501 0
M  V30 844 H 79.0015 -3.1428 0.0869905 0
M  V30 845 N 82.7736 -1.49793 -0.48987 0
M  V30 846 C 84.0016 -1.63568 -1.26701 0
M  V30 847 C 84.4166 -0.311465 -1.86213 0
M  V30 848 O 83.7736 0.704416 -1.68357 0
M  V30 849 C 83.8246 -2.71284 -2.38929 0
M  V30 850 O 83.5456 -3.9857 -1.81861 0
M  V30 851 C 85.0466 -2.95864 -3.3012 0
M  V30 852 H 82.2666 -0.550342 -0.383881 0
M  V30 853 H 84.8106 -1.95898 -0.586864 0
M  V30 854 H 82.9656 -2.417 -3.02753 0
M  V30 855 H 83.3796 -4.57993 -2.55622 0
M  V30 856 H 84.8536 -3.74941 -4.05121 0
M  V30 857 H 85.3306 -2.06206 -3.87783 0
M  V30 858 H 85.9366 -3.26907 -2.72051 0
M  V30 859 N 84.2517 0.741722 -1.39055 0
M  V30 860 C 85.4797 1.53098 -1.39171 0
M  V30 861 C 85.8947 1.88794 0.0155099 0
M  V30 862 O 85.2517 1.53626 0.985159 0
M  V30 863 C 85.3027 2.82274 -2.2584 0
M  V30 864 O 85.0237 2.48097 -3.61081 0
M  V30 865 C 86.5247 3.76343 -2.34266 0
M  V30 866 H 83.7447 0.473335 -0.4756 0
M  V30 867 H 86.2887 0.917045 -1.82785 0
M  V30 868 H 84.4437 3.40015 -1.85656 0
M  V30 869 H 84.8577 3.31029 -4.06842 0
M  V30 870 H 86.3317 4.63898 -2.9917 0
M  V30 871 H 86.8087 4.17619 -1.35982 0
M  V30 872 H 87.4147 3.24523 -2.74891 0
M  V30 873 N 85.7298 1.2412 0.971189 0
M  V30 874 C 87.1408 1.07236 1.52831 0
M  V30 875 C 87.4918 -0.357352 1.92918 0
M  V30 876 O 86.6168 -1.24528 1.76979 0
M  V30 877 C 87.2118 1.94043 2.77728 0
M  V30 878 C 85.7708 1.81394 3.29808 0
M  V30 879 C 84.9178 1.89189 2.02738 0
M  V30 880 H 87.8688 1.37648 0.789864 0
M  V30 881 H 87.8898 1.47066 3.5093 0
M  V30 882 H 87.4018 2.98093 2.4852 0
M  V30 883 H 85.5028 0.801634 3.63874 0
M  V30 884 H 85.6158 2.65294 3.98944 0
M  V30 885 H 83.9798 1.32877 2.17292 0
M  V30 886 H 84.7628 2.94812 1.759 0
M  V30 887 N 87.2079 -1.17134 1.05439 0
M  V30 888 C 88.1379 -2.2342 0.678649 0
M  V30 889 C 89.1189 -1.66971 -0.32476 0
M  V30 890 O 90.3039 -1.93149 -0.201802 0
M  V30 891 C 87.4339 -3.47256 0.0552099 0
M  V30 892 C 86.3879 -4.16543 0.98365 0
M  V30 893 C 85.7139 -5.34231 0.223961 0
M  V30 894 C 87.0139 -4.68495 2.3089 0
M  V30 895 H 88.7079 -2.55105 1.56722 0
M  V30 896 H 86.2539 -1.2262 0.754998 0
M  V30 897 H 88.2069 -4.20828 -0.21946 0
M  V30 898 H 86.9309 -3.14846 -0.868319 0
M  V30 899 H 85.5899 -3.44887 1.24293 0
M  V30 900 H 85.2379 -4.98071 -0.702412 0
M  V30 901 H 84.9379 -5.81527 0.842627 0
M  V30 902 H 86.4619 -6.10585 -0.0433671 0
M  V30 903 H 87.8759 -5.33691 2.09396 0
M  V30 904 H 86.2729 -5.26379 2.88176 0
M  V30 905 H 87.3429 -3.85169 2.94572 0
M  V30 906 N 88.686 -0.835752 -1.33615 0
M  V30 907 C 89.932 -0.430596 -1.98176 0
M  V30 908 C 90.265 1.00684 -1.66061 0
M  V30 909 O 89.54 1.70339 -0.938877 0
M  V30 910 C 89.823 -0.648065 -3.5422 0
M  V30 911 C 89.676 -2.13255 -3.96033 0
M  V30 912 C 90.995 -0.0922113 -4.40003 0
M  V30 913 H 88.114 -0.157924 -0.719881 0
M  V30 914 H 90.756 -1.05069 -1.58305 0
M  V30 915 H 88.906 -0.120237 -3.88314 0
M  V30 916 H 90.578 -2.725 -3.72211 0
M  V30 917 H 88.821 -2.61823 -3.45878 0
M  V30 918 H 89.492 -2.23547 -5.04708 0
M  V30 919 H 91.968 -0.543343 -4.12537 0
M  V30 920 H 90.844 -0.274083 -5.48215 0
M  V30 921 H 91.105 1.00378 -4.30554 0
M  V30 922 N 90.1641 1.46063 -0.591896 0
M  V30 923 C 91.3921 2.06717 -0.0868936 0
M  V30 924 C 91.8071 1.43916 1.22203 0
M  V30 925 O 91.1641 0.547698 1.74088 0
M  V30 926 C 91.2151 3.6142 0.0758725 0
M  V30 927 O 90.9361 4.21874 -1.18126 0
M  V30 928 C 92.4371 4.39025 0.61416 0
M  V30 929 H 89.6571 0.668162 -0.0616518 0
M  V30 930 H 92.2011 1.8755 -0.815175 0
M  V30 931 H 90.3561 3.79983 0.754413 0
M  V30 932 H 90.7701 5.14861 -1.00092 0
M  V30 933 H 92.2441 5.4783 0.677193 0
M  V30 934 H 92.7211 4.07708 1.63312 0
M  V30 935 H 93.3271 4.2529 -0.0298142 0
M  V30 936 N 91.6422 0.330177 1.54103 0
M  V30 937 C 92.8912 -0.271336 1.99867 0
M  V30 938 C 93.2042 -1.52723 1.22209 0
M  V30 939 O 94.4102 -2.20515 1.58383 0
M  V30 940 C 92.8662 -0.534032 3.55916 0
M  V30 941 C 92.4742 0.705193 4.42415 0
M  V30 942 C 94.2182 -1.09514 4.1013 0
M  V30 943 C 92.1252 0.414035 5.89949 0
M  V30 944 H 91.0552 -0.105166 0.74663 0
M  V30 945 H 93.7062 0.443429 1.78062 0
M  V30 946 H 92.0882 -1.30915 3.73734 0
M  V30 947 H 93.2622 1.4804 4.36372 0
M  V30 948 H 91.5772 1.18698 3.99124 0
M  V30 949 H 94.1742 -1.3277 5.17954 0
M  V30 950 H 94.5172 -2.04656 3.62521 0
M  V30 951 H 95.0502 -0.381038 3.95971 0
M  V30 952 H 91.7892 1.33481 6.41766 0
M  V30 953 H 91.3092 -0.323336 5.98928 0
M  V30 954 H 92.9882 0.0263105 6.46995 0
M  V30 955 N 93.1203 -1.57491 0.0584922 0
M  V30 956 C 94.0523 -2.08916 -0.942694 0
M  V30 957 C 95.0653 -1.0185 -1.27006 0
M  V30 958 O 96.2543 -1.29398 -1.22957 0
M  V30 959 C 93.3543 -2.52341 -2.26224 0
M  V30 960 C 92.5273 -3.82827 -2.1157 0
M  V30 961 C 91.5863 -4.12487 -3.26712 0
M  V30 962 O 90.6123 -4.82295 -3.02292 0
M  V30 963 N 91.8143 -3.64978 -4.5141 0
M  V30 964 H 94.5793 -2.95437 -0.503722 0
M  V30 965 H 92.1403 -1.61397 -0.12757 0
M  V30 966 H 94.1323 -2.69254 -3.02133 0
M  V30 967 H 92.7023 -1.7103 -2.61663 0
M  V30 968 H 91.9223 -3.75425 -1.20208 0
M  V30 969 H 93.2103 -4.68263 -1.99015 0
M  V30 970 H 92.6083 -3.08558 -4.7414 0
M  V30 971 H 91.1653 -3.87115 -5.2439 0
M  V30 972 N 94.5984 0.214957 -1.56127 0
M  V30 973 C 96.0094 0.781386 -1.69562 0
M  V30 974 C 96.3604 1.84707 -0.66165 0
M  V30 975 O 95.4854 2.156 0.185927 0
M  V30 976 C 96.0804 1.42411 -3.07416 0
M  V30 977 C 94.6394 1.93786 -3.22683 0
M  V30 978 C 93.7864 0.800438 -2.65496 0
M  V30 979 H 96.7374 -0.00980633 -1.58697 0
M  V30 980 H 96.7584 2.29309 -3.0364 0
M  V30 981 H 96.2704 0.64826 -3.82648 0
M  V30 982 H 94.3714 2.74152 -2.52332 0
M  V30 983 H 94.4844 2.1133 -4.29973 0
M  V30 984 H 92.8484 1.2095 -2.2415 0
M  V30 985 H 93.6314 0.0371471 -3.4328 0
M  V30 986 N 96.0765 1.50051 0.48192 0
M  V30 987 C 96.9865 1.7089 1.60728 0
M  V30 988 C 98.0025 0.591788 1.63627 0
M  V30 989 O 99.1785 0.868817 1.81696 0
M  V30 990 C 96.2435 1.78855 2.97005 0
M  V30 991 C 95.3045 3.02537 3.04581 0
M  V30 992 C 94.5375 3.10112 4.34357 0
M  V30 993 O 94.7605 2.24765 5.24249 0
M  V30 994 O 93.6945 4.02747 4.47301 0
M  V30 995 H 97.5205 2.66264 1.46072 0
M  V30 996 H 95.1055 1.34018 0.660264 0
M  V30 997 H 96.9875 1.86336 3.77964 0
M  V30 998 H 95.6625 0.866628 3.11883 0
M  V30 999 H 94.5695 3.00563 2.22739 0
M  V30 1000 H 95.9025 3.94272 2.94636 0
M  V30 1001 N 97.5546 -0.734337 1.39446 0
M  V30 1002 C 98.8026 -1.49096 1.36436 0
M  V30 1003 C 99.1236 -1.94961 -0.0388255 0
M  V30 1004 O 98.3936 -1.69033 -0.990191 0
M  V30 1005 H 96.9736 -0.5531 0.502085 0
M  V30 1006 H 99.6356 -0.871725 1.74319 0
M  V30 1007 H 98.7316 -2.37276 2.02747 0
M  V30 1008 N 99.0327 -1.24633 -0.964593 0
M  V30 1009 C 100.281 -1.08573 -1.70459 0
M  V30 1010 C 100.602 0.375655 -1.91347 0
M  V30 1011 O 99.8717 1.26779 -1.49345 0
M  V30 1012 H 98.4517 -0.398784 -0.631649 0
M  V30 1013 H 101.114 -1.56601 -1.16026 0
M  V30 1014 H 100.21 -1.58623 -2.68785 0
M  V30 1015 N 100.511 1.16574 -1.06058 0
M  V30 1016 C 101.739 1.90952 -0.796552 0
M  V30 1017 C 102.154 1.77302 0.648808 0
M  V30 1018 O 101.511 1.11605 1.44397 0
M  V30 1019 C 101.562 3.41736 -1.17894 0
M  V30 1020 O 101.283 3.54975 -2.56758 0
M  V30 1021 C 102.784 4.33169 -0.942308 0
M  V30 1022 H 100.004 0.605594 -0.288959 0
M  V30 1023 H 102.548 1.47777 -1.41358 0
M  V30 1024 H 100.703 3.82623 -0.606491 0
M  V30 1025 H 101.117 4.4846 -2.72 0
M  V30 1026 H 102.591 5.37439 -1.25952 0
M  V30 1027 H 103.068 4.3903 0.122078 0
M  V30 1028 H 103.674 3.98007 -1.49902 0
M  V30 1029 N 101.989 0.842826 1.3317 0
M  V30 1030 C 103.238 0.436738 1.96915 0
M  V30 1031 C 103.551 -1.01025 1.67491 0
M  V30 1032 O 104.757 -1.5212 2.24881 0
M  V30 1033 C 103.213 0.730021 3.52418 0
M  V30 1034 C 102.821 2.19195 3.90714 0
M  V30 1035 C 104.565 0.391076 4.22695 0
M  V30 1036 C 102.472 2.42907 5.39212 0
M  V30 1037 H 101.402 0.15958 0.736919 0
M  V30 1038 H 104.053 1.03196 1.51733 0
M  V30 1039 H 102.435 0.0643755 3.95948 0
M  V30 1040 H 103.609 2.8984 3.58231 0
M  V30 1041 H 101.924 2.49425 3.33431 0
M  V30 1042 H 104.521 0.545817 5.31907 0
M  V30 1043 H 104.864 -0.666294 4.10933 0
M  V30 1044 H 105.397 1.01212 3.84709 0
M  V30 1045 H 102.136 3.47224 5.55982 0
M  V30 1046 H 101.656 1.76827 5.73142 0
M  V30 1047 H 103.335 2.2626 6.06148 0
M  V30 1048 N 103.467 -1.45747 0.599634 0
M  V30 1049 C 104.716 -2.01502 0.0893511 0
M  V30 1050 C 105.029 -1.4748 -1.28488 0
M  V30 1051 O 106.235 -1.95161 -1.88745 0
M  V30 1052 C 104.691 -3.59735 0.109082 0
M  V30 1053 C 104.299 -4.22754 1.48267 0
M  V30 1054 C 106.043 -4.23085 -0.346374 0
M  V30 1055 C 103.95 -5.73115 1.45921 0
M  V30 1056 H 102.88 -0.753417 0.0296347 0
M  V30 1057 H 105.531 -1.67303 0.753788 0
M  V30 1058 H 103.913 -3.91087 -0.621854 0
M  V30 1059 H 105.087 -4.02987 2.23468 0
M  V30 1060 H 103.402 -3.71567 1.87955 0
M  V30 1061 H 105.999 -5.33327 -0.38298 0
M  V30 1062 H 106.342 -3.93201 -1.36743 0
M  V30 1063 H 106.875 -3.9642 0.331038 0
M  V30 1064 H 103.614 -6.07685 2.45762 0
M  V30 1065 H 103.134 -5.95097 0.749665 0
M  V30 1066 H 104.813 -6.3616 1.17941 0
M  V30 1067 N 104.945 -0.338344 -1.53925 0
M  V30 1068 C 106.191 0.260143 -2.01125 0
M  V30 1069 C 106.524 1.50617 -1.22589 0
M  V30 1070 O 105.799 1.91979 -0.312113 0
M  V30 1071 C 106.082 0.579499 -3.55407 0
M  V30 1072 C 105.935 -0.678264 -4.44657 0
M  V30 1073 C 107.254 1.39122 -4.17532 0
M  V30 1074 H 104.373 0.0930772 -0.731099 0
M  V30 1075 H 107.015 -0.457852 -1.84401 0
M  V30 1076 H 105.165 1.19118 -3.69788 0
M  V30 1077 H 106.837 -1.31631 -4.42121 0
M  V30 1078 H 105.08 -1.3042 -4.13731 0
M  V30 1079 H 105.751 -0.410143 -5.50474 0
M  V30 1080 H 108.227 0.874035 -4.06817 0
M  V30 1081 H 107.103 1.58342 -5.25565 0
M  V30 1082 H 107.364 2.39178 -3.71815 0
M  V30 1083 N 106.423 1.57458 -0.0668435 0
M  V30 1084 C 107.651 1.97624 0.612565 0
M  V30 1085 C 108.066 0.94502 1.63447 0
M  V30 1086 O 107.423 -0.0689276 1.8237 0
M  V30 1087 C 107.474 3.37869 1.28555 0
M  V30 1088 O 107.195 4.3704 0.304557 0
M  V30 1089 C 108.696 3.92882 2.05325 0
M  V30 1090 H 105.916 0.650045 0.166381 0
M  V30 1091 H 108.46 2.04035 -0.137782 0
M  V30 1092 H 106.615 3.3256 1.98702 0
M  V30 1093 H 107.029 5.18565 0.786779 0
M  V30 1094 H 108.503 4.93247 2.47812 0
M  V30 1095 H 108.98 3.29156 2.9078 0
M  V30 1096 H 109.586 4.01577 1.40056 0
M  V30 1097 N 107.901 -0.206675 1.56239 0
M  V30 1098 C 108.833 -1.27997 1.9013 0
M  V30 1099 C 109.846 -1.42299 0.790883 0
M  V30 1100 O 111.035 -1.42931 1.06925 0
M  V30 1101 C 108.135 -2.65368 2.10792 0
M  V30 1102 C 107.308 -2.72824 3.41886 0
M  V30 1103 C 106.367 -3.9131 3.51799 0
M  V30 1104 O 105.393 -3.78953 4.24716 0
M  V30 1105 N 106.595 -5.06265 2.84035 0
M  V30 1106 H 109.36 -0.992444 2.82791 0
M  V30 1107 H 106.921 -0.396652 1.56966 0
M  V30 1108 H 108.913 -3.43039 2.14724 0
M  V30 1109 H 107.483 -2.86657 1.24685 0
M  V30 1110 H 106.703 -1.81515 3.49923 0
M  V30 1111 H 107.991 -2.74786 4.28217 0
M  V30 1112 H 107.389 -5.19203 2.246 0
M  V30 1113 H 105.946 -5.81925 2.93609 0
M  V30 1114 N 109.379 -1.50304 -0.473955 0
M  V30 1115 C 110.327 -1.69482 -1.59307 0
M  V30 1116 C 111.321 -0.560669 -1.59853 0
M  V30 1117 O 112.527 -0.741087 -1.64036 0
M  V30 1118 H 108.902 -0.534892 -0.528578 0
M  V30 1119 H 110.873 -2.63364 -1.40293 0
M  V30 1120 C 109.622 -1.80354 -2.97267 0
M  V30 1121 H 108.945 -2.67012 -2.97564 0
M  V30 1122 H 110.385 -1.97798 -3.75036 0
M  V30 1123 C 108.844 -0.55448 -3.32306 0
M  V30 1124 O 109.374 0.307661 -4.0052 0
M  V30 1125 N 107.58 -0.409354 -2.87702 0
M  V30 1126 H 107.127 -1.11196 -2.32364 0
M  V30 1127 H 107.085 0.425223 -3.11511 0
M  V30 1128 N 110.857 0.726932 -1.39834 0
M  V30 1129 C 112.273 1.03354 -1.21615 0
M  V30 1130 C 112.473 2.01327 -0.08338 0
M  V30 1131 O 111.529 2.46158 0.56238 0
M  V30 1132 C 112.842 1.58811 -2.55342 0
M  V30 1133 C 114.39 1.70851 -2.62257 0
M  V30 1134 C 114.865 2.29716 -3.96225 0
M  V30 1135 N 116.356 2.37116 -3.97907 0
M  V30 1136 C 117.091 2.83619 -4.98345 0
M  V30 1137 N 116.587 3.29958 -6.09179 0
M  V30 1138 N 118.38 2.82901 -4.8572 0
M  V30 1139 H 110.531 0.0773069 -2.12259 0
M  V30 1140 H 112.794 0.0969102 -0.943034 0
M  V30 1141 H 112.5 0.942855 -3.38826 0
M  V30 1142 H 112.374 2.57502 -2.75632 0
M  V30 1143 H 114.761 2.34497 -1.79152 0
M  V30 1144 H 114.842 0.707913 -2.45809 0
M  V30 1145 H 114.486 1.66696 -4.79765 0
M  V30 1146 H 114.416 3.30469 -4.09997 0
M  V30 1147 H 116.907 2.04374 -3.17868 0
M  V30 1148 H 117.22 3.63976 -6.8172 0
M  V30 1149 H 115.565 3.27946 -6.12761 0
M  V30 1150 H 118.756 2.46027 -3.98231 0
M  V30 1151 H 118.929 3.18827 -5.6414 0
M  V30 1152 N 112.336 1.25143 0.95797 0
M  V30 1153 C 113.284 1.05019 2.07542 0
M  V30 1154 C 114.278 -0.0178751 1.69391 0
M  V30 1155 O 115.484 0.137472 1.79474 0
M  V30 1156 H 111.859 0.32265 0.679265 0
M  V30 1157 H 113.83 1.99759 2.21673 0
M  V30 1158 C 112.579 0.682074 3.40944 0
M  V30 1159 H 111.902 1.49573 3.70767 0
M  V30 1160 H 113.342 0.580945 4.20001 0
M  V30 1161 C 111.801 -0.611608 3.31302 0
M  V30 1162 O 112.331 -1.65465 3.66038 0
M  V30 1163 N 110.537 -0.595982 2.84423 0
M  V30 1164 H 110.084 0.253192 2.56353 0
M  V30 1165 H 110.042 -1.46173 2.78354 0
M  V30 1166 N 113.814 -1.1601 1.06675 0
M  V30 1167 C 115.23 -1.38622 0.790948 0
M  V30 1168 C 115.43 -1.92109 -0.607965 0
M  V30 1169 O 114.486 -2.12239 -1.36787 0
M  V30 1170 C 115.799 -2.36347 1.85905 0
M  V30 1171 C 117.347 -2.50023 1.88301 0
M  V30 1172 C 117.822 -3.51033 2.94176 0
M  V30 1173 N 119.313 -3.58563 2.93235 0
M  V30 1174 C 120.048 -4.36521 3.71803 0
M  V30 1175 N 119.544 -5.17869 4.602 0
M  V30 1176 N 121.337 -4.31541 3.60178 0
M  V30 1177 H 113.488 -0.796294 1.96908 0
M  V30 1178 H 115.751 -0.412597 0.853503 0
M  V30 1179 H 115.457 -2.04147 2.86386 0
M  V30 1180 H 115.331 -3.36042 1.71334 0
M  V30 1181 H 117.718 -2.81524 0.884769 0
M  V30 1182 H 117.799 -1.5035 2.06951 0
M  V30 1183 H 117.443 -3.20268 3.94196 0
M  V30 1184 H 117.373 -4.50445 2.72776 0
M  V30 1185 H 119.864 -3.00496 2.29152 0
M  V30 1186 H 120.177 -5.74578 5.16797 0
M  V30 1187 H 118.522 -5.17199 4.64253 0
M  V30 1188 H 121.713 -3.67051 2.90502 0
M  V30 1189 H 121.886 -4.9205 4.21653 0
M  V30 1190 N 115.292 -0.849877 -1.32721 0
M  V30 1191 C 116.202 -0.293791 -2.32753 0
M  V30 1192 C 117.218 0.585906 -1.63839 0
M  V30 1193 O 118.394 0.487413 -1.95413 0
M  V30 1194 C 115.459 0.512752 -3.42887 0
M  V30 1195 C 114.52 -0.39252 -4.27502 0
M  V30 1196 C 113.753 0.375625 -5.32377 0
M  V30 1197 O 113.976 1.60613 -5.4732 0
M  V30 1198 O 112.91 -0.256094 -6.01355 0
M  V30 1199 H 116.736 -1.12242 -2.82197 0
M  V30 1200 H 114.321 -0.612685 -1.36259 0
M  V30 1201 H 116.203 0.970704 -4.10067 0
M  V30 1202 H 114.878 1.31826 -2.95641 0
M  V30 1203 H 113.785 -0.898547 -3.63149 0
M  V30 1204 H 115.118 -1.16309 -4.7826 0
M  V30 1205 N 116.77 1.45427 -0.607355 0
M  V30 1206 C 118.186 1.57283 -0.270985 0
M  V30 1207 C 118.386 1.59875 1.22647 0
M  V30 1208 O 117.442 1.52893 2.00948 0
M  V30 1209 C 118.755 2.85566 -0.941952 0
M  V30 1210 C 120.303 2.9924 -0.917849 0
M  V30 1211 C 120.778 4.30293 -1.56882 0
M  V30 1212 N 122.269 4.37051 -1.5343 0
M  V30 1213 C 123.004 5.37123 -2.00715 0
M  V30 1214 N 122.5 6.43734 -2.56084 0
M  V30 1215 N 124.293 5.28479 -1.91484 0
M  V30 1216 H 116.444 1.41988 -1.57966 0
M  V30 1217 H 118.707 0.67885 -0.661715 0
M  V30 1218 H 118.413 2.8955 -1.99633 0
M  V30 1219 H 118.287 3.74322 -0.465096 0
M  V30 1220 H 120.674 2.94822 0.127984 0
M  V30 1221 H 120.755 2.11895 -1.43297 0
M  V30 1222 H 120.399 4.35469 -2.61398 0
M  V30 1223 H 120.329 5.16454 -1.02873 0
M  V30 1224 H 122.82 3.60615 -1.12982 0
M  V30 1225 H 123.133 7.16341 -2.89958 0
M  V30 1226 H 121.478 6.44485 -2.60122 0
M  V30 1227 H 124.669 4.44098 -1.47967 0
M  V30 1228 H 124.842 6.0632 -2.28648 0
M  V30 1229 N 118.248 0.346503 1.53744 0
M  V30 1230 C 119.494 -0.249473 2.0126 0
M  V30 1231 C 119.827 -1.49965 1.23386 0
M  V30 1232 O 119.102 -1.91811 0.32229 0
M  V30 1233 C 119.385 -0.560643 3.55709 0
M  V30 1234 C 119.238 0.701836 4.44291 0
M  V30 1235 C 120.557 -1.36905 4.18264 0
M  V30 1236 H 117.676 -0.0891987 0.731582 0
M  V30 1237 H 120.318 0.467624 1.84156 0
M  V30 1238 H 118.468 -1.17156 3.70414 0
M  V30 1239 H 120.14 1.33974 4.41417 0
M  V30 1240 H 118.383 1.32612 4.13033 0
M  V30 1241 H 119.054 0.43933 5.50249 0
M  V30 1242 H 121.53 -0.852448 4.07275 0
M  V30 1243 H 120.406 -1.55553 5.26398 0
M  V30 1244 H 120.667 -2.37203 3.73078 0
M  V30 1245 N 119.726 -1.57421 0.075193 0
M  V30 1246 C 121.003 -1.85029 -0.634329 0
M  V30 1247 C 121.383 -0.968305 -1.87582 0
M  V30 1248 O 120.731 -0.0354749 -2.28472 0
M  V30 1249 C 120.941 -3.35286 -0.968742 0
M  V30 1250 C 122.289 -4.02875 -1.34077 0
M  V30 1251 O 123.313 -3.40051 -1.06037 0
M  V30 1252 O 122.172 -5.13691 -1.86506 0
M  V30 1253 H 119.266 -0.7645 -0.315387 0
M  V30 1254 H 121.812 -1.69366 0.106382 0
M  V30 1255 H 120.584 -3.91203 -0.0871376 0
M  V30 1256 H 120.207 -3.56223 -1.7661 0
M  V30 1257 N 121.204 0.198386 -1.56346 0
M  V30 1258 C 122.451 0.919286 -1.80431 0
M  V30 1259 C 122.779 1.83393 -0.647866 0
M  V30 1260 O 122.034 1.92236 0.366556 0
M  V30 1261 C 122.333 1.77031 -3.10475 0
M  V30 1262 C 121.999 1.00693 -4.39513 0
M  V30 1263 C 120.661 0.796145 -4.74568 0
M  V30 1264 C 123.013 0.469559 -5.19081 0
M  V30 1265 C 120.341 0.0364588 -5.86689 0
M  V30 1266 C 122.693 -0.2769 -6.31994 0
M  V30 1267 C 121.357 -0.49873 -6.65634 0
M  V30 1268 H 120.627 0.336391 -0.660244 0
M  V30 1269 H 123.274 0.185872 -1.90596 0
M  V30 1270 H 121.579 2.5723 -2.95533 0
M  V30 1271 H 123.276 2.33065 -3.26315 0
M  V30 1272 H 119.866 1.18122 -4.12001 0
M  V30 1273 H 124.05 0.619816 -4.92414 0
M  V30 1274 H 119.306 -0.145412 -6.11227 0
M  V30 1275 H 123.48 -0.700684 -6.92866 0
M  V30 1276 H 121.107 -1.0893 -7.52355 0
M  V30 1277 N 122.682 1.50554 0.465978 0
M  V30 1278 C 124.093 1.54599 1.04671 0
M  V30 1279 C 124.444 0.352488 1.93008 0
M  V30 1280 O 123.569 -0.534044 2.09707 0
M  V30 1281 C 124.164 2.80166 1.90505 0
M  V30 1282 C 122.723 2.86876 2.43678 0
M  V30 1283 C 121.87 2.48947 1.22151 0
M  V30 1284 H 124.821 1.56744 0.248384 0
M  V30 1285 H 124.842 2.62311 2.75633 0
M  V30 1286 H 124.354 3.67013 1.26186 0
M  V30 1287 H 122.455 2.04393 3.11536 0
M  V30 1288 H 122.568 3.89885 2.78436 0
M  V30 1289 H 120.932 2.01498 1.5579 0
M  V30 1290 H 121.715 3.38107 0.594866 0
M  V30 1291 N 124.16 -0.719506 1.40217 0
M  V30 1292 C 125.437 -1.47221 1.28784 0
M  V30 1293 C 125.817 -2.10883 -0.0956067 0
M  V30 1294 O 125.165 -1.99833 -1.10811 0
M  V30 1295 C 125.375 -2.5111 2.42373 0
M  V30 1296 C 126.723 -3.17053 2.82423 0
M  V30 1297 O 127.747 -2.61429 2.41937 0
M  V30 1298 O 126.606 -4.17742 3.52355 0
M  V30 1299 H 123.7 -0.654491 0.50554 0
M  V30 1300 H 126.246 -0.752014 1.52128 0
M  V30 1301 H 125.018 -2.02556 3.34793 0
M  V30 1302 H 124.641 -3.3067 2.20778 0
M  V30 1303 N 125.638 -1.25649 -0.95132 0
M  V30 1304 C 126.886 -1.10375 -1.69298 0
M  V30 1305 C 127.207 0.355339 -1.91735 0
M  V30 1306 O 126.477 1.25188 -1.50681 0
M  V30 1307 H 125.057 -0.405461 -0.627384 0
M  V30 1308 H 127.719 -1.57823 -1.14358 0
M  V30 1309 H 126.815 -1.61465 -2.67087 0
M  V30 1310 N 127.117 1.15442 -1.07289 0
M  V30 1311 C 128.365 1.85845 -0.794096 0
M  V30 1312 C 128.686 1.82692 0.681809 0
M  V30 1313 O 127.956 1.26741 1.49377 0
M  V30 1314 H 126.536 0.688089 -0.290763 0
M  V30 1315 H 129.198 1.39947 -1.3565 0
M  V30 1316 H 128.294 2.91001 -1.12804 0
M  V30 1317 N 128.595 0.856903 1.32268 0
M  V30 1318 C 129.825 0.47475 2.01071 0
M  V30 1319 C 130.233 -0.933746 1.64553 0
M  V30 1320 O 129.576 -1.62114 0.863989 0
M  V30 1321 C 129.638 0.536746 3.55471 0
M  V30 1322 C 129.302 1.90453 4.15423 0
M  V30 1323 C 130.299 2.87029 4.33486 0
M  V30 1324 C 127.984 2.20229 4.51447 0
M  V30 1325 C 129.978 4.11532 4.86744 0
M  V30 1326 C 127.665 3.44984 5.0441 0
M  V30 1327 C 128.663 4.40452 5.22007 0
M  V30 1328 O 128.351 5.62998 5.73837 0
M  V30 1329 H 128.083 0.184778 0.650256 0
M  V30 1330 H 130.637 1.15615 1.69771 0
M  V30 1331 H 128.867 -0.20152 3.86175 0
M  V30 1332 H 130.556 0.169875 4.05544 0
M  V30 1333 H 131.322 2.6533 4.05986 0
M  V30 1334 H 127.201 1.46705 4.37034 0
M  V30 1335 H 130.745 4.86056 5.00395 0
M  V30 1336 H 126.642 3.66532 5.31342 0
M  V30 1337 H 127.41 5.64987 5.92226 0
M  V30 1338 N 130.073 -1.45103 0.615059 0
M  V30 1339 C 131.298 -2.07064 0.117988 0
M  V30 1340 C 131.723 -1.4554 -1.19163 0
M  V30 1341 O 131.081 -0.550855 -1.72729 0
M  V30 1342 C 131.129 -3.606 -0.000288387 0
M  V30 1343 O 130.233 -3.98847 -1.04856 0
M  V30 1344 H 129.574 -0.659467 0.0774581 0
M  V30 1345 H 132.104 -1.86236 0.847186 0
M  V30 1346 H 132.114 -4.07529 -0.196091 0
M  V30 1347 H 130.789 -4.04765 0.955932 0
M  V30 1348 H 129.366 -3.63577 -0.828619 0
M  V30 1349 N 131.551 -0.354651 -1.53558 0
M  V30 1350 C 132.481 0.489091 -2.2832 0
M  V30 1351 C 133.462 1.09324 -1.30316 0
M  V30 1352 O 134.647 1.11255 -1.59173 0
M  V30 1353 C 131.777 1.63456 -3.0643 0
M  V30 1354 C 130.731 1.1582 -4.12031 0
M  V30 1355 C 130.057 2.39305 -4.7816 0
M  V30 1356 C 131.357 0.250731 -5.21698 0
M  V30 1357 H 133.051 -0.134614 -2.99097 0
M  V30 1358 H 130.597 -0.0661826 -1.43848 0
M  V30 1359 H 132.55 2.23136 -3.57475 0
M  V30 1360 H 131.274 2.28533 -2.33325 0
M  V30 1361 H 129.933 0.584146 -3.61916 0
M  V30 1362 H 129.581 3.02814 -4.01637 0
M  V30 1363 H 129.281 2.08109 -5.49513 0
M  V30 1364 H 130.805 2.99691 -5.31994 0
M  V30 1365 H 132.219 0.754695 -5.68311 0
M  V30 1366 H 130.616 0.0301468 -6.00092 0
M  V30 1367 H 131.686 -0.710125 -4.79672 0
M  V30 1368 N 133.029 1.57378 -0.0835403 0
M  V30 1369 C 133.976 2.13384 0.879539 0
M  V30 1370 C 134.946 1.04936 1.28754 0
M  V30 1371 O 136.131 1.32662 1.37133 0
M  V30 1372 C 133.271 2.70932 2.13752 0
M  V30 1373 C 132.384 3.93575 1.7811 0
M  V30 1374 C 131.519 4.39326 2.98607 0
M  V30 1375 C 130.558 5.54587 2.59037 0
M  V30 1376 N 129.695 5.95243 3.72331 0
M  V30 1377 H 134.535 2.9537 0.395076 0
M  V30 1378 H 132.072 1.45953 0.183349 0
M  V30 1379 H 134.03 3.02411 2.87408 0
M  V30 1380 H 132.66 1.91693 2.59718 0
M  V30 1381 H 131.712 3.68483 0.94469 0
M  V30 1382 H 133.024 4.77258 1.45005 0
M  V30 1383 H 132.178 4.72528 3.80529 0
M  V30 1384 H 130.917 3.5452 3.34913 0
M  V30 1385 H 129.922 5.21024 1.75539 0
M  V30 1386 H 131.147 6.41133 2.23887 0
M  V30 1387 H 129.093 5.13385 4.08378 0
M  V30 1388 H 129.01 6.73694 3.43034 0
M  V30 1389 H 130.278 6.33072 4.54797 0
M  V30 1390 N 134.507 -0.190092 1.56449 0
M  V30 1391 C 135.437 -1.23816 1.97969 0
M  V30 1392 C 136.418 -1.47201 0.852395 0
M  V30 1393 O 137.603 -1.58854 1.1171 0
M  V30 1394 C 134.733 -2.5813 2.3235 0
M  V30 1395 C 133.687 -2.49348 3.47864 0
M  V30 1396 C 133.013 -3.8798 3.67934 0
M  V30 1397 C 134.313 -2.01424 4.81898 0
M  V30 1398 H 136.007 -0.89311 2.85769 0
M  V30 1399 H 133.553 -0.428177 1.37487 0
M  V30 1400 H 135.506 -3.31637 2.59991 0
M  V30 1401 H 134.23 -2.94386 1.41438 0
M  V30 1402 H 132.889 -1.78297 3.20321 0
M  V30 1403 H 132.537 -4.21597 2.74344 0
M  V30 1404 H 132.237 -3.82978 4.45648 0
M  V30 1405 H 133.761 -4.63101 3.97957 0
M  V30 1406 H 135.175 -2.64693 5.08538 0
M  V30 1407 H 133.572 -2.07413 5.63116 0
M  V30 1408 H 134.642 -0.967677 4.75146 0
M  V30 1409 N 135.985 -1.50799 -0.457987 0
M  V30 1410 C 137.21 -1.66496 -1.23668 0
M  V30 1411 C 137.635 -0.353288 -1.84752 0
M  V30 1412 O 136.993 0.684346 -1.67888 0
M  V30 1413 C 137.041 -2.76763 -2.3116 0
M  V30 1414 O 136.145 -2.38928 -3.36136 0
M  V30 1415 H 135.486 -0.555828 -0.363252 0
M  V30 1416 H 138.016 -1.9725 -0.543474 0
M  V30 1417 H 138.026 -3.00232 -2.76269 0
M  V30 1418 H 136.701 -3.71954 -1.86073 0
M  V30 1419 H 135.278 -2.25953 -2.96647 0
M  V30 1420 N 137.463 0.71206 -1.40597 0
M  V30 1421 C 138.41 1.82613 -1.41142 0
M  V30 1422 C 139.38 1.63925 -0.267903 0
M  V30 1423 O 140.565 1.85009 -0.466495 0
M  V30 1424 C 137.705 3.20354 -1.28324 0
M  V30 1425 C 136.818 3.50589 -2.52411 0
M  V30 1426 C 135.953 4.77855 -2.32009 0
M  V30 1427 C 134.992 5.01005 -3.51654 0
M  V30 1428 N 134.129 6.19487 -3.30425 0
M  V30 1429 H 138.969 1.81482 -2.36365 0
M  V30 1430 H 136.506 0.886475 -1.17388 0
M  V30 1431 H 138.464 3.99899 -1.18899 0
M  V30 1432 H 137.094 3.20705 -0.367189 0
M  V30 1433 H 136.146 2.65573 -2.72351 0
M  V30 1434 H 137.458 3.63604 -3.41458 0
M  V30 1435 H 136.612 5.65424 -2.19956 0
M  V30 1436 H 135.351 4.67056 -1.40392 0
M  V30 1437 H 134.356 4.1189 -3.64179 0
M  V30 1438 H 135.581 5.13674 -4.44202 0
M  V30 1439 H 133.527 6.09932 -2.41494 0
M  V30 1440 H 133.444 6.33194 -4.13039 0
M  V30 1441 H 134.712 7.09834 -3.22113 0
M  V30 1442 N 138.941 1.26152 0.944643 0
M  V30 1443 C 139.871 1.09902 2.06019 0
M  V30 1444 C 140.852 0.00519538 1.70099 0
M  V30 1445 O 142.037 0.176583 1.93396 0
M  V30 1446 C 139.167 0.727562 3.39594 0
M  V30 1447 C 138.121 1.77274 3.89561 0
M  V30 1448 C 137.447 1.25569 5.19747 0
M  V30 1449 C 138.747 3.17357 4.14827 0
M  V30 1450 H 140.441 2.03217 2.19871 0
M  V30 1451 H 137.987 0.978452 1.05652 0
M  V30 1452 H 139.94 0.600777 4.17095 0
M  V30 1453 H 138.664 -0.241287 3.25707 0
M  V30 1454 H 137.323 1.88814 3.14237 0
M  V30 1455 H 136.971 0.276783 5.02238 0
M  V30 1456 H 136.671 1.95433 5.54148 0
M  V30 1457 H 138.195 1.1415 5.99835 0
M  V30 1458 H 139.609 3.08914 4.82954 0
M  V30 1459 H 138.006 3.84781 4.60504 0
M  V30 1460 H 139.076 3.63673 3.20734 0
M  V30 1461 N 140.419 -1.14872 1.07899 0
M  V30 1462 C 141.366 -2.19791 0.704319 0
M  V30 1463 C 142.336 -1.63238 -0.306987 0
M  V30 1464 O 143.521 -1.8983 -0.192171 0
M  V30 1465 C 140.661 -3.44911 0.114244 0
M  V30 1466 C 139.774 -4.15637 1.1777 0
M  V30 1467 C 138.909 -5.28324 0.552037 0
M  V30 1468 C 137.948 -5.90875 1.59789 0
M  V30 1469 N 137.085 -6.95022 0.994404 0
M  V30 1470 H 141.925 -2.5119 1.60336 0
M  V30 1471 H 139.462 -1.23356 0.801352 0
M  V30 1472 H 141.42 -4.16477 -0.245544 0
M  V30 1473 H 140.05 -3.14011 -0.74813 0
M  V30 1474 H 139.102 -3.42512 1.65499 0
M  V30 1475 H 140.414 -4.5823 1.97046 0
M  V30 1476 H 139.568 -6.06538 0.1402 0
M  V30 1477 H 138.307 -4.86939 -0.272431 0
M  V30 1478 H 137.312 -5.11369 2.01945 0
M  V30 1479 H 138.537 -6.34337 2.42474 0
M  V30 1480 H 136.483 -6.55722 0.190939 0
M  V30 1481 H 136.4 -7.36073 1.72432 0
M  V30 1482 H 137.668 -7.77123 0.608253 0
M  V30 1483 N 141.898 -0.863906 -1.31812 0
M  V30 1484 C 142.845 -0.313303 -2.28664 0
M  V30 1485 C 143.815 0.584868 -1.55462 0
M  V30 1486 O 145 0.517805 -1.83639 0
M  V30 1487 C 142.14 0.48441 -3.41683 0
M  V30 1488 C 141.253 -0.440594 -4.29747 0
M  V30 1489 C 140.388 0.370652 -5.29905 0
M  V30 1490 C 139.427 -0.551164 -6.09613 0
M  V30 1491 N 138.564 0.223462 -7.01744 0
M  V30 1492 H 143.404 -1.14444 -2.75148 0
M  V30 1493 H 140.941 -0.575769 -1.35364 0
M  V30 1494 H 142.899 0.962627 -4.05943 0
M  V30 1495 H 141.529 1.28029 -2.96325 0
M  V30 1496 H 140.581 -1.03724 -3.65986 0
M  V30 1497 H 141.893 -1.14767 -4.85417 0
M  V30 1498 H 141.047 0.911638 -5.99812 0
M  V30 1499 H 139.786 1.11105 -4.74876 0
M  V30 1500 H 138.791 -1.10396 -5.38603 0
M  V30 1501 H 140.016 -1.29032 -6.66729 0
M  V30 1502 H 137.962 0.946787 -6.49132 0
M  V30 1503 H 137.879 -0.424399 -7.54808 0
M  V30 1504 H 139.147 0.745876 -7.75923 0
M  V30 1505 N 143.376 1.44774 -0.622745 0
M  V30 1506 C 144.324 2.32387 0.0994683 0
M  V30 1507 C 145.318 1.46859 0.844326 0
M  V30 1508 O 146.524 1.63254 0.758174 0
M  V30 1509 H 142.899 0.750273 0.0509291 0
M  V30 1510 H 144.87 2.91062 -0.65767 0
M  V30 1511 C 143.619 3.30723 1.07319 0
M  V30 1512 H 142.942 3.96541 0.509462 0
M  V30 1513 H 144.382 3.94725 1.54817 0
M  V30 1514 C 142.841 2.59021 2.15429 0
M  V30 1515 O 143.371 2.38286 3.23393 0
M  V30 1516 N 141.577 2.189 1.91131 0
M  V30 1517 H 141.124 2.35964 1.03337 0
M  V30 1518 H 141.082 1.71251 2.63668 0
M  V30 1519 N 144.854 0.36279 1.53368 0
M  V30 1520 C 146.131 -0.284021 1.93527 0
M  V30 1521 C 146.511 -1.66628 1.29608 0
M  V30 1522 O 145.859 -2.23942 0.45413 0
M  V30 1523 C 146.069 -0.337028 3.47369 0
M  V30 1524 C 147.417 -0.578708 4.20638 0
M  V30 1525 O 148.441 -0.418352 3.53735 0
M  V30 1526 O 147.3 -0.89074 5.39192 0
M  V30 1527 H 144.394 -0.169743 0.809393 0
M  V30 1528 H 146.94 0.41537 1.64538 0
M  V30 1529 H 145.712 0.632217 3.86159 0
M  V30 1530 H 145.335 -1.08243 3.82582 0
M  V30 1531 N 146.332 -1.57332 0.0918853 0
M  V30 1532 C 147.557 -1.98995 -0.584442 0
M  V30 1533 C 147.982 -0.970528 -1.61128 0
M  V30 1534 O 147.34 0.0613904 -1.81196 0
M  V30 1535 C 147.388 -3.39636 -1.21161 0
M  V30 1536 O 146.492 -3.40447 -2.32744 0
M  V30 1537 H 145.833 -0.647165 -0.148572 0
M  V30 1538 H 148.363 -2.03873 0.172347 0
M  V30 1539 H 148.373 -3.7726 -1.55367 0
M  V30 1540 H 147.048 -4.13356 -0.459313 0
M  V30 1541 H 145.625 -3.14614 -2.0018 0
M  V30 1542 N 147.81 0.181792 -1.56548 0
M  V30 1543 C 149.058 0.89832 -1.81038 0
M  V30 1544 C 149.379 1.83232 -0.667164 0
M  V30 1545 O 148.649 1.93372 0.313673 0
M  V30 1546 H 147.229 0.33471 -0.667816 0
M  V30 1547 H 149.891 0.184116 -1.94028 0
M  V30 1548 H 148.987 1.4815 -2.74696 0
M  V30 1549 N 149.288 1.51039 0.449983 0
M  V30 1550 C 150.537 1.62317 1.19733 0
M  V30 1551 C 150.85 0.339101 1.92638 0
M  V30 1552 O 152.056 0.331069 2.69474 0
M  V30 1553 C 150.512 2.86608 2.17678 0
M  V30 1554 C 150.12 4.21972 1.50479 0
M  V30 1555 C 151.864 3.07239 2.92924 0
M  V30 1556 C 149.771 5.37426 2.46834 0
M  V30 1557 H 148.701 0.604532 0.450619 0
M  V30 1558 H 151.352 1.77494 0.465625 0
M  V30 1559 H 149.734 2.65037 2.94231 0
M  V30 1560 H 150.908 4.53878 0.795716 0
M  V30 1561 H 149.223 4.07117 0.874344 0
M  V30 1562 H 151.82 3.90668 3.65079 0
M  V30 1563 H 152.163 2.19807 3.5354 0
M  V30 1564 H 152.696 3.29091 2.23481 0
M  V30 1565 H 149.435 6.27079 1.90926 0
M  V30 1566 H 148.955 5.09912 3.15832 0
M  V30 1567 H 150.634 5.68862 3.08228 0
M  V30 1568 N 150.766 -0.704594 1.40972 0
M  V30 1569 C 151.996 -1.49138 1.42974 0
M  V30 1570 C 152.404 -1.89175 0.0308406 0
M  V30 1571 O 151.747 -1.56734 -0.958138 0
M  V30 1572 C 151.809 -2.79016 2.26694 0
M  V30 1573 C 151.473 -2.61236 3.74973 0
M  V30 1574 C 152.47 -2.27773 4.67349 0
M  V30 1575 C 150.155 -2.77158 4.18914 0
M  V30 1576 C 152.149 -2.10457 6.01653 0
M  V30 1577 C 149.836 -2.59459 5.53285 0
M  V30 1578 C 150.834 -2.26158 6.4447 0
M  V30 1579 O 150.522 -2.08605 7.76363 0
M  V30 1580 H 150.254 -0.466443 0.489292 0
M  V30 1581 H 152.808 -0.8758 1.85793 0
M  V30 1582 H 151.038 -3.42947 1.78673 0
M  V30 1583 H 152.727 -3.40782 2.20504 0
M  V30 1584 H 153.493 -2.15095 4.34694 0
M  V30 1585 H 149.372 -3.02064 3.48251 0
M  V30 1586 H 152.916 -1.84387 6.72791 0
M  V30 1587 H 148.813 -2.71725 5.85522 0
M  V30 1588 H 149.581 -2.23439 7.87412 0
M  V30 1589 N 152.244 -1.26651 -0.937939 0
M  V30 1590 C 153.474 -1.15006 -1.71631 0
M  V30 1591 C 153.882 0.297026 -1.86854 0
M  V30 1592 O 153.225 1.21493 -1.37786 0
M  V30 1593 C 153.287 -1.74984 -3.14039 0
M  V30 1594 C 152.951 -3.24103 -3.2219 0
M  V30 1595 C 153.948 -4.20877 -3.05219 0
M  V30 1596 C 151.633 -3.64625 -3.45476 0
M  V30 1597 C 153.627 -5.56151 -3.11408 0
M  V30 1598 C 151.314 -5.00032 -3.513 0
M  V30 1599 C 152.312 -5.95604 -3.34282 0
M  V30 1600 O 152 -7.28545 -3.3982 0
M  V30 1601 H 151.732 -0.401183 -0.544085 0
M  V30 1602 H 154.286 -1.67832 -1.18413 0
M  V30 1603 H 152.516 -1.16624 -3.68695 0
M  V30 1604 H 154.205 -1.58199 -3.73802 0
M  V30 1605 H 154.971 -3.90908 -2.87081 0
M  V30 1606 H 150.85 -2.90718 -3.57777 0
M  V30 1607 H 154.394 -6.30727 -2.98043 0
M  V30 1608 H 150.291 -5.29659 -3.68959 0
M  V30 1609 H 151.059 -7.3686 -3.56343 0
M  V30 1610 N 153.722 1.14298 -1.08507 0
M  V30 1611 C 154.968 1.85633 -0.816581 0
M  V30 1612 C 155.301 1.82784 0.656021 0
M  V30 1613 O 154.576 1.25926 1.48233 0
M  V30 1614 C 154.859 3.34223 -1.34041 0
M  V30 1615 C 154.712 3.45639 -2.87843 0
M  V30 1616 C 156.031 4.29356 -0.9665 0
M  V30 1617 H 153.15 0.67402 -0.298104 0
M  V30 1618 H 155.792 1.34214 -1.34487 0
M  V30 1619 H 153.942 3.78144 -0.89104 0
M  V30 1620 H 155.614 3.10498 -3.41158 0
M  V30 1621 H 153.857 2.86817 -3.25451 0
M  V30 1622 H 154.528 4.50089 -3.19569 0
M  V30 1623 H 157.004 3.93457 -1.35391 0
M  V30 1624 H 155.88 5.3178 -1.3602 0
M  V30 1625 H 156.141 4.41919 0.126362 0
M  V30 1626 N 155.201 0.870884 1.31352 0
M  V30 1627 C 156.449 0.48132 1.96285 0
M  V30 1628 C 156.77 -0.969813 1.69173 0
M  V30 1629 O 156.04 -1.67998 1.00764 0
M  V30 1630 H 154.62 0.175002 0.726212 0
M  V30 1631 H 157.282 1.11087 1.60143 0
M  V30 1632 H 156.378 0.639825 3.05471 0
M  V30 1633 N 156.679 -1.44442 0.630414 0
M  V30 1634 C 157.928 -2.01267 0.132073 0
M  V30 1635 C 158.241 -1.50172 -1.25331 0
M  V30 1636 O 159.447 -1.9912 -1.84562 0
M  V30 1637 C 157.903 -3.59422 0.185362 0
M  V30 1638 C 157.511 -4.19514 1.57201 0
M  V30 1639 C 159.255 -4.23724 -0.256553 0
M  V30 1640 C 157.162 -5.69891 1.58045 0
M  V30 1641 H 156.092 -0.752619 0.0456092 0
M  V30 1642 H 158.743 -1.65666 0.789106 0
M  V30 1643 H 157.125 -3.92318 -0.538759 0
M  V30 1644 H 158.299 -3.98156 2.31966 0
M  V30 1645 H 156.614 -3.67496 1.95795 0
M  V30 1646 H 159.211 -5.34019 -0.269767 0
M  V30 1647 H 159.554 -3.96013 -1.28372 0
M  V30 1648 H 160.087 -3.95629 0.41505 0
M  V30 1649 H 156.826 -6.02336 2.58597 0
M  V30 1650 H 156.346 -5.93373 0.875725 0
M  V30 1651 H 158.025 -6.33515 1.31408 0
M  V30 1652 N 158.157 -0.370918 -1.53173 0
M  V30 1653 C 159.387 0.217389 -2.05453 0
M  V30 1654 C 159.795 1.42568 -1.24382 0
M  V30 1655 O 159.138 1.81571 -0.278839 0
M  V30 1656 C 159.2 0.669827 -3.53205 0
M  V30 1657 C 158.864 -0.4225 -4.55043 0
M  V30 1658 C 159.861 -1.27407 -5.04047 0
M  V30 1659 C 157.546 -0.58427 -4.9889 0
M  V30 1660 C 159.54 -2.27271 -5.95505 0
M  V30 1661 C 157.227 -1.58627 -5.90153 0
M  V30 1662 C 158.225 -2.42892 -6.38351 0
M  V30 1663 O 157.913 -3.41382 -7.27814 0
M  V30 1664 H 157.645 0.0408171 -0.674767 0
M  V30 1665 H 160.199 -0.5292 -1.98466 0
M  V30 1666 H 158.429 1.4681 -3.57748 0
M  V30 1667 H 160.118 1.18173 -3.88317 0
M  V30 1668 H 160.884 -1.16031 -4.70916 0
M  V30 1669 H 156.763 0.061851 -4.60959 0
M  V30 1670 H 160.307 -2.93079 -6.33049 0
M  V30 1671 H 156.204 -1.70048 -6.22699 0
M  V30 1672 H 156.972 -3.37173 -7.45826 0
M  V30 1673 N 159.635 1.57281 -0.100228 0
M  V30 1674 C 160.86 1.99302 0.573881 0
M  V30 1675 C 161.285 0.979059 1.60611 0
M  V30 1676 O 160.643 -0.0517803 1.81226 0
M  V30 1677 C 160.691 3.40274 1.19358 0
M  V30 1678 O 159.795 3.41676 2.30935 0
M  V30 1679 H 159.136 0.647944 0.145138 0
M  V30 1680 H 161.666 2.03779 -0.183156 0
M  V30 1681 H 161.676 3.78078 1.53365 0
M  V30 1682 H 160.351 4.13594 0.437385 0
M  V30 1683 H 158.928 3.15672 1.98509 0
M  V30 1684 N 161.113 -0.173488 1.56642 0
M  V30 1685 C 162.338 -0.910149 1.86363 0
M  V30 1686 C 162.763 -1.75132 0.686318 0
M  V30 1687 O 162.121 -1.77595 -0.364643 0
M  V30 1688 C 162.169 -1.76447 3.14482 0
M  V30 1689 O 161.273 -2.86584 2.96553 0
M  V30 1690 H 160.614 -0.255086 0.613047 0
M  V30 1691 H 163.144 -0.172283 2.03873 0
M  V30 1692 H 163.154 -2.16483 3.45831 0
M  V30 1693 H 161.829 -1.14658 3.99783 0
M  V30 1694 H 160.406 -2.50146 2.76553 0
M  V30 1695 N 162.591 -1.51276 -0.441967 0
M  V30 1696 C 163.816 -1.67799 -1.21895 0
M  V30 1697 C 164.241 -0.372864 -1.84367 0
M  V30 1698 O 163.599 0.666501 -1.68604 0
M  V30 1699 C 163.647 -2.79199 -2.28211 0
M  V30 1700 O 162.751 -2.42479 -3.33583 0
M  V30 1701 H 162.092 -0.559649 -0.357336 0
M  V30 1702 H 164.622 -1.97815 -0.522522 0
M  V30 1703 H 164.632 -3.03146 -2.73069 0
M  V30 1704 H 163.307 -3.73906 -1.82118 0
M  V30 1705 H 161.884 -2.29087 -2.94234 0
M  V30 1706 N 164.069 0.697108 -1.41344 0
M  V30 1707 C 164.999 1.82353 -1.45841 0
M  V30 1708 C 165.98 1.67115 -0.317247 0
M  V30 1709 O 167.165 1.86871 -0.528474 0
M  V30 1710 C 164.295 3.20476 -1.33838 0
M  V30 1711 C 163.249 3.50415 -2.4575 0
M  V30 1712 C 162.575 4.87878 -2.18813 0
M  V30 1713 C 163.875 3.49546 -3.88091 0
M  V30 1714 H 165.569 1.78846 -2.40113 0
M  V30 1715 H 163.115 0.859028 -1.15571 0
M  V30 1716 H 165.068 3.98988 -1.35596 0
M  V30 1717 H 163.792 3.24604 -0.360498 0
M  V30 1718 H 162.451 2.74253 -2.43271 0
M  V30 1719 H 162.099 4.8863 -1.19371 0
M  V30 1720 H 161.799 5.08875 -2.93803 0
M  V30 1721 H 163.323 5.68702 -2.22284 0
M  V30 1722 H 164.737 4.18066 -3.92293 0
M  V30 1723 H 163.134 3.82075 -4.62751 0
M  V30 1724 H 164.204 2.48552 -4.16353 0
M  V30 1725 N 165.547 1.27147 0.931209 0
M  V30 1726 C 166.479 1.05364 2.03546 0
M  V30 1727 C 167.492 0.0108438 1.62796 0
M  V30 1728 O 168.681 0.25202 1.76712 0
M  V30 1729 C 165.781 0.575566 3.33977 0
M  V30 1730 C 164.954 1.68985 4.03439 0
M  V30 1731 C 164.013 1.20813 5.12143 0
M  V30 1732 O 163.039 1.90712 5.363 0
M  V30 1733 N 164.241 0.0618851 5.80467 0
M  V30 1734 H 167.006 2.00454 2.22796 0
M  V30 1735 H 164.567 1.18666 1.10136 0
M  V30 1736 H 166.559 0.237264 4.04004 0
M  V30 1737 H 165.129 -0.282016 3.11325 0
M  V30 1738 H 164.349 2.19861 3.27192 0
M  V30 1739 H 165.637 2.4378 4.46597 0
M  V30 1740 H 165.035 -0.521621 5.6329 0
M  V30 1741 H 163.592 -0.217264 6.51438 0
M  V30 1742 N 167.025 -1.13721 1.09112 0
M  V30 1743 C 167.957 -2.1871 0.685467 0
M  V30 1744 C 168.97 -1.60527 -0.271068 0
M  V30 1745 O 170.159 -1.78407 -0.0576148 0
M  V30 1746 C 167.259 -3.38898 -0.0111255 0
M  V30 1747 C 166.432 -4.26597 0.966131 0
M  V30 1748 C 165.491 -5.25324 0.303539 0
M  V30 1749 O 164.517 -5.61213 0.950177 0
M  V30 1750 N 165.719 -5.72779 -0.943651 0
M  V30 1751 H 168.484 -2.54126 1.58871 0
M  V30 1752 H 166.045 -1.29012 0.978143 0
M  V30 1753 H 168.037 -4.02014 -0.465517 0
M  V30 1754 H 166.607 -3.01747 -0.816565 0
M  V30 1755 H 165.827 -3.60306 1.59917 0
M  V30 1756 H 167.115 -4.82048 1.6281 0
M  V30 1757 H 166.513 -5.45762 -1.48862 0
M  V30 1758 H 165.07 -6.37847 -1.34142 0
M  V30 1759 N 168.503 -0.877838 -1.30888 0
M  V30 1760 C 169.914 -0.544193 -1.78593 0
M  V30 1761 C 170.265 0.939301 -1.72254 0
M  V30 1762 O 169.39 1.7337 -1.29505 0
M  V30 1763 C 169.985 -0.98105 -3.24285 0
M  V30 1764 C 168.544 -0.698935 -3.69854 0
M  V30 1765 C 167.691 -1.168 -2.51502 0
M  V30 1766 H 170.642 -1.06278 -1.17859 0
M  V30 1767 H 170.663 -0.307009 -3.79259 0
M  V30 1768 H 170.175 -2.06079 -3.28866 0
M  V30 1769 H 168.276 0.369112 -3.70767 0
M  V30 1770 H 168.389 -1.28148 -4.61644 0
M  V30 1771 H 166.753 -0.587535 -2.47831 0
M  V30 1772 H 167.536 -2.25533 -2.58824 0
M  V30 1773 N 169.982 1.44106 -0.638065 0
M  V30 1774 C 171.207 2.0685 -0.150916 0
M  V30 1775 C 171.632 1.47417 1.16833 0
M  V30 1776 O 170.99 0.578264 1.71831 0
M  V30 1777 C 171.038 3.60555 -0.05708 0
M  V30 1778 O 170.142 4.00465 0.984972 0
M  V30 1779 H 169.483 0.658151 -0.0879399 0
M  V30 1780 H 172.013 1.84865 -0.876707 0
M  V30 1781 H 172.023 4.07789 0.131232 0
M  V30 1782 H 170.698 4.03193 -1.02021 0
M  V30 1783 H 169.275 3.64849 0.770672 0
M  V30 1784 N 171.46 0.379036 1.52974 0
M  V30 1785 C 172.688 -0.20679 2.05864 0
M  V30 1786 C 173.103 -1.41356 1.25155 0
M  V30 1787 O 172.46 -1.8009 0.295588 0
M  V30 1788 C 172.511 -0.587045 3.56702 0
M  V30 1789 O 172.232 0.571776 4.34353 0
M  V30 1790 C 173.733 -1.22983 4.25899 0
M  V30 1791 H 170.953 -0.0336123 0.670158 0
M  V30 1792 H 173.497 0.541298 1.97206 0
M  V30 1793 H 171.652 -1.28504 3.65466 0
M  V30 1794 H 172.066 0.261544 5.23847 0
M  V30 1795 H 173.54 -1.44635 5.32715 0
M  V30 1796 H 174.017 -2.19416 3.80465 0
M  V30 1797 H 174.623 -0.572892 4.21424 0
M  V30 1798 N 172.938 -1.57226 0.108567 0
M  V30 1799 C 173.87 -2.11809 -0.875752 0
M  V30 1800 C 174.883 -1.05839 -1.23701 0
M  V30 1801 O 176.072 -1.33245 -1.18778 0
M  V30 1802 C 173.172 -2.59411 -2.18081 0
M  V30 1803 C 172.345 -3.89364 -1.99284 0
M  V30 1804 C 171.404 -4.22672 -3.13424 0
M  V30 1805 O 170.43 -4.91668 -2.86795 0
M  V30 1806 N 171.632 -3.79154 -4.3957 0
M  V30 1807 H 174.397 -2.9689 -0.409477 0
M  V30 1808 H 171.958 -1.61721 -0.076158 0
M  V30 1809 H 173.95 -2.7873 -2.93414 0
M  V30 1810 H 172.52 -1.79268 -2.5609 0
M  V30 1811 H 171.74 -3.79059 -1.08203 0
M  V30 1812 H 173.028 -4.74358 -1.84017 0
M  V30 1813 H 172.426 -3.23486 -4.64083 0
M  V30 1814 H 170.983 -4.03602 -5.11809 0
M  V30 1815 N 174.416 0.165178 -1.56732 0
M  V30 1816 C 175.326 1.22423 -2.00125 0
M  V30 1817 C 176.342 1.48084 -0.913619 0
M  V30 1818 O 177.518 1.60112 -1.22172 0
M  V30 1819 C 174.583 2.54197 -2.35764 0
M  V30 1820 C 173.644 2.36343 -3.58386 0
M  V30 1821 C 172.877 3.61834 -3.92316 0
M  V30 1822 O 173.1 4.67267 -3.27135 0
M  V30 1823 O 172.034 3.55579 -4.85641 0
M  V30 1824 H 175.86 0.885886 -2.90492 0
M  V30 1825 H 173.445 0.372518 -1.44681 0
M  V30 1826 H 175.327 3.3192 -2.59629 0
M  V30 1827 H 174.002 2.87598 -1.48557 0
M  V30 1828 H 172.909 1.56632 -3.39731 0
M  V30 1829 H 174.242 2.07865 -4.46154 0
M  V30 1830 N 175.894 1.51508 0.433938 0
M  V30 1831 C 177.124 1.67914 1.20369 0
M  V30 1832 C 177.532 0.377461 1.85397 0
M  V30 1833 O 176.875 -0.654255 1.71654 0
M  V30 1834 C 176.937 2.74045 2.32679 0
M  V30 1835 C 176.601 4.16543 1.87991 0
M  V30 1836 C 177.598 5.01211 1.38145 0
M  V30 1837 C 175.283 4.6266 1.95579 0
M  V30 1838 C 177.277 6.30056 0.964774 0
M  V30 1839 C 174.964 5.91501 1.53523 0
M  V30 1840 C 175.962 6.75027 1.04055 0
M  V30 1841 O 175.65 8.01459 0.625964 0
M  V30 1842 H 175.382 0.566578 0.368735 0
M  V30 1843 H 177.936 1.98709 0.51999 0
M  V30 1844 H 176.166 2.38572 3.04336 0
M  V30 1845 H 177.855 2.79295 2.94532 0
M  V30 1846 H 178.621 4.66783 1.31675 0
M  V30 1847 H 174.5 3.97767 2.33029 0
M  V30 1848 H 178.044 6.95202 0.57796 0
M  V30 1849 H 173.941 6.25442 1.59665 0
M  V30 1850 H 174.709 8.15043 0.751509 0
M  V30 1851 N 177.372 -0.689602 1.41712 0
M  V30 1852 C 178.618 -1.45181 1.41599 0
M  V30 1853 C 178.951 -1.94181 0.0270081 0
M  V30 1854 O 178.226 -1.6993 -0.946265 0
M  V30 1855 C 178.509 -2.65945 2.42787 0
M  V30 1856 C 178.362 -2.22672 3.90816 0
M  V30 1857 C 179.681 -3.68149 2.41151 0
M  V30 1858 H 176.8 -0.526576 0.515642 0
M  V30 1859 H 179.442 -0.784947 1.73028 0
M  V30 1860 H 177.592 -3.2284 2.16116 0
M  V30 1861 H 179.264 -1.71058 4.28412 0
M  V30 1862 H 177.507 -1.54394 4.05395 0
M  V30 1863 H 178.178 -3.0935 4.57172 0
M  V30 1864 H 180.654 -3.2094 2.64834 0
M  V30 1865 H 179.53 -4.50248 3.13955 0
M  V30 1866 H 179.791 -4.18259 1.43221 0
M  V30 1867 N 178.85 -1.27639 -0.924453 0
M  V30 1868 C 179.78 -1.13166 -2.04244 0
M  V30 1869 C 180.761 -0.032256 -1.70069 0
M  V30 1870 O 181.946 -0.207328 -1.9309 0
M  V30 1871 C 179.076 -0.781496 -3.38393 0
M  V30 1872 C 178.03 -1.83449 -3.86692 0
M  V30 1873 C 177.356 -1.33822 -5.17683 0
M  V30 1874 C 178.656 -3.23917 -4.09726 0
M  V30 1875 H 180.35 -2.06689 -2.1661 0
M  V30 1876 H 177.896 -0.995136 -1.04082 0
M  V30 1877 H 179.849 -0.667057 -4.16087 0
M  V30 1878 H 178.573 0.189439 -3.2605 0
M  V30 1879 H 177.232 -1.93789 -3.11193 0
M  V30 1880 H 176.88 -0.35665 -5.01734 0
M  V30 1881 H 176.58 -2.04224 -5.50968 0
M  V30 1882 H 178.104 -1.23679 -5.97943 0
M  V30 1883 H 179.518 -3.16559 -4.77978 0
M  V30 1884 H 177.915 -3.92059 -4.54324 0
M  V30 1885 H 178.985 -3.68729 -3.14908 0
M  V30 1886 N 180.328 1.1314 -1.09713 0
M  V30 1887 C 181.278 2.16709 -0.708593 0
M  V30 1888 C 182.262 1.58471 0.278523 0
M  V30 1889 O 183.454 1.76779 0.088427 0
M  V30 1890 C 180.583 3.43039 -0.133923 0
M  V30 1891 C 179.669 4.08277 -1.14763 0
M  V30 1892 N 180.06 4.48637 -2.33577 0
M  V30 1893 C 178.358 4.34954 -0.986446 0
M  V30 1894 C 179.059 4.9952 -2.98085 0
M  V30 1895 N 178.035 4.94561 -2.25632 0
M  V30 1896 H 181.837 2.45672 -1.61315 0
M  V30 1897 H 179.351 1.29967 -0.973775 0
M  V30 1898 H 181.348 4.16583 0.162465 0
M  V30 1899 H 180.008 3.15549 0.765447 0
M  V30 1900 H 181.019 4.41246 -2.7115 0
M  V30 1901 H 177.696 4.17258 -0.142008 0
M  V30 1902 H 179.086 5.40521 -3.99108 0
M  V30 1903 N 181.806 0.884767 1.30421 0
M  V30 1904 C 183.052 0.503851 1.96441 0
M  V30 1905 C 183.385 -0.944518 1.69684 0
M  V30 1906 O 182.66 -1.66737 1.00145 0
M  V30 1907 C 182.943 0.779085 3.51571 0
M  V30 1908 C 182.796 2.27807 3.87846 0
M  V30 1909 C 184.115 0.255452 4.39358 0
M  V30 1910 H 181.234 0.184533 0.713524 0
M  V30 1911 H 183.876 1.10872 1.54297 0
M  V30 1912 H 182.026 0.264274 3.876 0
M  V30 1913 H 183.698 2.86127 3.61841 0
M  V30 1914 H 181.941 2.74479 3.35922 0
M  V30 1915 H 182.612 2.42125 4.96064 0
M  V30 1916 H 185.088 0.696079 4.10236 0
M  V30 1917 H 183.964 0.477361 5.4682 0
M  V30 1918 H 184.225 -0.843293 4.33983 0
M  V30 1919 N 183.284 -1.43765 0.645699 0
M  V30 1920 C 184.514 -2.05953 0.163318 0
M  V30 1921 C 184.922 -1.48432 -1.17322 0
M  V30 1922 O 184.265 -0.607295 -1.73371 0
M  V30 1923 C 184.327 -3.59499 -0.0103065 0
M  V30 1924 C 183.991 -4.39563 1.25035 0
M  V30 1925 C 184.988 -4.72108 2.17739 0
M  V30 1926 C 182.673 -4.79697 1.48983 0
M  V30 1927 C 184.667 -5.43688 3.3269 0
M  V30 1928 C 182.354 -5.51023 2.64229 0
M  V30 1929 C 183.352 -5.8294 3.55908 0
M  V30 1930 O 183.04 -6.5281 4.69142 0
M  V30 1931 H 182.772 -0.670798 0.0836986 0
M  V30 1932 H 185.326 -1.85384 0.884407 0
M  V30 1933 H 183.556 -3.78613 -0.78669 0
M  V30 1934 H 185.245 -4.03408 -0.449087 0
M  V30 1935 H 186.011 -4.41627 2.00476 0
M  V30 1936 H 181.89 -4.54266 0.785078 0
M  V30 1937 H 185.434 -5.68517 4.04269 0
M  V30 1938 H 181.331 -5.8092 2.81429 0
M  V30 1939 H 182.099 -6.71288 4.6831 0
M  V30 1940 N 184.763 -0.387143 -1.52771 0
M  V30 1941 C 185.673 0.456442 -2.30117 0
M  V30 1942 C 186.689 1.07342 -1.36944 0
M  V30 1943 O 187.865 1.07971 -1.70013 0
M  V30 1944 C 184.93 1.56957 -3.09136 0
M  V30 1945 C 183.991 0.977916 -4.18014 0
M  V30 1946 C 183.224 2.038 -4.93256 0
M  V30 1947 O 183.447 3.25271 -4.68567 0
M  V30 1948 O 182.381 1.6565 -5.78657 0
M  V30 1949 H 186.207 -0.17359 -3.03203 0
M  V30 1950 H 183.792 -0.150919 -1.48636 0
M  V30 1951 H 185.674 2.21628 -3.58412 0
M  V30 1952 H 184.349 2.18461 -2.38865 0
M  V30 1953 H 183.256 0.294525 -3.72939 0
M  V30 1954 H 184.589 0.407128 -4.90513 0
M  V30 1955 N 186.241 1.57166 -0.116904 0
M  V30 1956 C 187.191 2.11756 0.845178 0
M  V30 1957 C 188.175 1.03783 1.22955 0
M  V30 1958 O 189.367 1.3002 1.20099 0
M  V30 1959 C 186.496 2.71886 2.09602 0
M  V30 1960 C 185.582 3.86937 1.7361 0
M  V30 1961 N 185.973 4.94073 1.08284 0
M  V30 1962 C 184.271 3.97082 2.03082 0
M  V30 1963 C 184.972 5.74477 0.913855 0
M  V30 1964 N 183.948 5.2423 1.43818 0
M  V30 1965 H 187.75 2.91967 0.336523 0
M  V30 1966 H 185.264 1.62174 0.0856332 0
M  V30 1967 H 187.261 3.09338 2.79492 0
M  V30 1968 H 185.921 1.93138 2.61013 0
M  V30 1969 H 186.932 5.12483 0.747067 0
M  V30 1970 H 183.609 3.29372 2.56554 0
M  V30 1971 H 184.999 6.70701 0.40125 0
M  V30 1972 N 187.719 -0.156864 1.56817 0
M  V30 1973 C 188.649 -1.19589 2.00551 0
M  V30 1974 C 189.63 -1.4536 0.883426 0
M  V30 1975 O 190.815 -1.56449 1.15054 0
M  V30 1976 C 187.945 -2.53143 2.37773 0
M  V30 1977 C 186.899 -2.41913 3.53075 0
M  V30 1978 C 186.225 -3.80088 3.76081 0
M  V30 1979 C 187.525 -1.91157 4.86062 0
M  V30 1980 H 189.219 -0.832293 2.87599 0
M  V30 1981 H 186.765 -0.398918 1.38364 0
M  V30 1982 H 188.718 -3.26047 2.66967 0
M  V30 1983 H 187.442 -2.91319 1.4765 0
M  V30 1984 H 186.101 -1.71462 3.24031 0
M  V30 1985 H 185.749 -4.15683 2.83225 0
M  V30 1986 H 185.449 -3.73439 4.53671 0
M  V30 1987 H 186.973 -4.54556 4.0769 0
M  V30 1988 H 188.387 -2.53846 5.14038 0
M  V30 1989 H 186.784 -1.95422 5.67389 0
M  V30 1990 H 187.854 -0.866673 4.77092 0
M  V30 1991 N 189.197 -1.51736 -0.425897 0
M  V30 1992 C 190.422 -1.69082 -1.20108 0
M  V30 1993 C 190.847 -0.392398 -1.83962 0
M  V30 1994 O 190.205 0.64858 -1.69302 0
M  V30 1995 C 190.253 -2.81604 -2.25237 0
M  V30 1996 O 189.357 -2.46004 -3.30992 0
M  V30 1997 H 188.698 -0.563408 -0.35138 0
M  V30 1998 H 191.228 -1.98358 -0.501512 0
M  V30 1999 H 191.238 -3.06025 -2.69838 0
M  V30 2000 H 189.913 -3.75817 -1.78142 0
M  V30 2001 H 188.49 -2.32195 -2.91787 0
M  V30 2002 N 190.675 0.682077 -1.42076 0
M  V30 2003 C 191.622 1.79578 -1.44984 0
M  V30 2004 C 192.592 1.6332 -0.302614 0
M  V30 2005 O 193.777 1.83978 -0.505633 0
M  V30 2006 C 190.917 3.1756 -1.35091 0
M  V30 2007 C 190.03 3.45156 -2.59791 0
M  V30 2008 C 189.165 4.72826 -2.42093 0
M  V30 2009 C 188.204 4.93433 -3.62202 0
M  V30 2010 N 187.341 6.12338 -3.43491 0
M  V30 2011 H 192.181 1.76427 -2.40161 0
M  V30 2012 H 189.718 0.861376 -1.19242 0
M  V30 2013 H 191.676 3.97287 -1.27354 0
M  V30 2014 H 190.306 3.19854 -0.435133 0
M  V30 2015 H 189.358 2.59736 -2.77923 0
M  V30 2016 H 190.67 3.5628 -3.49094 0
M  V30 2017 H 189.824 5.60631 -2.319 0
M  V30 2018 H 188.563 4.63973 -1.50268 0
M  V30 2019 H 187.568 4.04073 -3.72834 0
M  V30 2020 H 188.793 5.04136 -4.54998 0
M  V30 2021 H 186.739 6.04672 -2.54377 0
M  V30 2022 H 186.656 6.2429 -4.26377 0
M  V30 2023 H 187.924 7.02841 -3.37097 0
M  V30 2024 N 192.153 1.28127 0.917671 0
M  V30 2025 C 193.564 1.13622 1.48145 0
M  V30 2026 C 193.915 -0.275207 1.9426 0
M  V30 2027 O 193.04 -1.1691 1.82102 0
M  V30 2028 C 193.635 2.05648 2.69248 0
M  V30 2029 C 192.194 1.95219 3.21818 0
M  V30 2030 C 191.341 1.97618 1.94532 0
M  V30 2031 H 194.292 1.40874 0.730772 0
M  V30 2032 H 194.313 1.61818 3.44377 0
M  V30 2033 H 193.825 3.08365 2.35653 0
M  V30 2034 H 191.926 0.955244 3.60147 0
M  V30 2035 H 192.039 2.81976 3.87333 0
M  V30 2036 H 190.403 1.41973 2.11461 0
M  V30 2037 H 191.186 3.02007 1.63238 0
M  V30 2038 N 193.631 -1.12557 1.10312 0
M  V30 2039 C 194.578 -2.18247 0.750781 0
M  V30 2040 C 195.548 -1.63853 -0.272293 0
M  V30 2041 O 196.733 -1.90195 -0.151862 0
M  V30 2042 C 193.873 -3.44591 0.187379 0
M  V30 2043 C 192.986 -4.13046 1.2656 0
M  V30 2044 C 192.121 -5.27034 0.663978 0
M  V30 2045 C 191.16 -5.87353 1.72287 0
M  V30 2046 N 190.297 -6.92757 1.1416 0
M  V30 2047 H 195.137 -2.47732 1.65628 0
M  V30 2048 H 192.674 -1.21629 0.827337 0
M  V30 2049 H 194.632 -4.16904 -0.157148 0
M  V30 2050 H 193.262 -3.15527 -0.681355 0
M  V30 2051 H 192.314 -3.38924 1.72727 0
M  V30 2052 H 193.626 -4.53947 2.06721 0
M  V30 2053 H 192.78 -6.06104 0.268824 0
M  V30 2054 H 191.519 -4.87407 -0.169082 0
M  V30 2055 H 190.524 -5.06971 2.12746 0
M  V30 2056 H 191.749 -6.29051 2.55875 0
M  V30 2057 H 189.695 -6.5517 0.329984 0
M  V30 2058 H 189.612 -7.3225 1.88007 0
M  V30 2059 H 190.88 -7.75658 0.772956 0
M  V30 2060 N 195.109 -0.891671 -1.2995 0
M  V30 2061 C 196.355 -0.514261 -1.96171 0
M  V30 2062 C 196.688 0.935506 -1.70182 0
M  V30 2063 O 195.963 1.66204 -1.01028 0
M  V30 2064 C 196.246 -0.797719 -3.51153 0
M  V30 2065 C 196.099 -2.2986 -3.86632 0
M  V30 2066 C 197.418 -0.278749 -4.39216 0
M  V30 2067 H 194.537 -0.188314 -0.712535 0
M  V30 2068 H 197.179 -1.11689 -1.53706 0
M  V30 2069 H 195.329 -0.284826 -3.87455 0
M  V30 2070 H 197.001 -2.88042 -3.60319 0
M  V30 2071 H 195.244 -2.76257 -3.34462 0
M  V30 2072 H 195.915 -2.44753 -4.94773 0
M  V30 2073 H 198.391 -0.717825 -4.09862 0
M  V30 2074 H 197.267 -0.506353 -5.46559 0
M  V30 2075 H 197.528 0.820266 -4.34424 0
M  V30 2076 N 196.587 1.43421 -0.653314 0
M  V30 2077 C 197.815 2.06163 -0.174491 0
M  V30 2078 C 198.23 1.48969 1.1599 0
M  V30 2079 O 197.587 0.621042 1.71608 0
M  V30 2080 C 197.638 3.61417 -0.0774865 0
M  V30 2081 O 197.359 4.16485 -1.35912 0
M  V30 2082 C 198.86 4.41235 0.427402 0
M  V30 2083 H 196.08 0.664946 -0.0899353 0
M  V30 2084 H 198.624 1.83924 -0.893988 0
M  V30 2085 H 196.779 3.82841 0.59257 0
M  V30 2086 H 197.193 5.10153 -1.21839 0
M  V30 2087 H 198.667 5.5021 0.44423 0
M  V30 2088 H 199.144 4.14268 1.45873 0
M  V30 2089 H 199.75 4.2478 -0.210167 0
M  V30 2090 N 198.065 0.39524 1.52563 0
M  V30 2091 C 198.998 -0.4813 2.23067 0
M  V30 2092 C 199.976 -1.05927 1.23362 0
M  V30 2093 O 201.16 -1.10979 1.52368 0
M  V30 2094 C 198.287 -1.66676 2.9485 0
M  V30 2095 C 197.333 -1.21348 4.08873 0
M  V30 2096 S 198.166 -0.190102 5.35162 0
M  V30 2097 C 199.322 -1.38121 6.1047 0
M  V30 2098 H 199.555 0.117381 2.97068 0
M  V30 2099 H 197.088 0.179458 1.53354 0
M  V30 2100 H 199.046 -2.3466 3.36816 0
M  V30 2101 H 197.707 -2.23676 2.20518 0
M  V30 2102 H 196.9 -2.09877 4.58222 0
M  V30 2103 H 196.502 -0.612486 3.68951 0
M  V30 2104 H 198.794 -2.30726 6.37002 0
M  V30 2105 H 199.737 -0.928521 7.01986 0
M  V30 2106 H 200.145 -1.60071 5.41329 0
M  V30 2107 N 199.544 -1.57102 0.125237 0
M  V30 2108 C 200.792 -1.95021 -0.530198 0
M  V30 2109 C 201.113 -1.00982 -1.66816 0
M  V30 2110 O 200.383 -0.0672693 -1.95784 0
M  V30 2111 H 198.963 -0.720046 -0.198853 0
M  V30 2112 H 201.625 -1.93916 0.19564 0
M  V30 2113 H 200.721 -2.98211 -0.920681 0
M  V30 2114 N 201.022 0.148545 -1.56898 0
M  V30 2115 C 201.952 1.18524 -2.01182 0
M  V30 2116 C 202.933 1.4489 -0.891123 0
M  V30 2117 O 204.118 1.55836 -1.15882 0
M  V30 2118 C 201.248 2.51879 -2.39112 0
M  V30 2119 C 200.202 2.40038 -3.54353 0
M  V30 2120 C 199.528 3.78089 -3.78091 0
M  V30 2121 C 200.828 1.88577 -4.87069 0
M  V30 2122 H 202.522 0.817029 -2.88036 0
M  V30 2123 H 200.068 0.391575 -1.38574 0
M  V30 2124 H 202.021 3.24627 -2.68692 0
M  V30 2125 H 200.745 2.90532 -1.49193 0
M  V30 2126 H 199.404 1.69742 -3.24936 0
M  V30 2127 H 199.052 4.14175 -2.85426 0
M  V30 2128 H 198.752 3.71028 -4.55645 0
M  V30 2129 H 200.276 4.52387 -4.10095 0
M  V30 2130 H 201.69 2.51117 -5.15377 0
M  V30 2131 H 200.087 1.9241 -5.68417 0
M  V30 2132 H 201.157 0.84136 -4.77545 0
M  V30 2133 N 202.5 1.5196 0.417844 0
M  V30 2134 C 203.432 1.70895 1.52733 0
M  V30 2135 C 204.445 0.589405 1.51756 0
M  V30 2136 O 205.634 0.864312 1.56179 0
M  V30 2137 C 202.734 1.72627 2.91639 0
M  V30 2138 C 201.907 3.01479 3.16905 0
M  V30 2139 C 200.966 2.95139 4.35637 0
M  V30 2140 O 199.992 3.69059 4.3334 0
M  V30 2141 N 201.194 2.12328 5.40275 0
M  V30 2142 H 203.959 2.66612 1.36888 0
M  V30 2143 H 201.52 1.50089 0.607037 0
M  V30 2144 H 203.512 1.65928 3.6912 0
M  V30 2145 H 202.082 0.844216 3.00985 0
M  V30 2146 H 201.302 3.21895 2.27546 0
M  V30 2147 H 202.59 3.86736 3.30625 0
M  V30 2148 H 201.988 1.51685 5.44985 0
M  V30 2149 H 200.545 2.11494 6.16534 0
M  V30 2150 N 203.978 -0.674533 1.42435 0
M  V30 2151 C 205.203 -1.46784 1.46524 0
M  V30 2152 C 205.628 -1.87938 0.078066 0
M  V30 2153 O 204.986 -1.56014 -0.92354 0
M  V30 2154 C 205.034 -2.69307 2.39805 0
M  V30 2155 O 204.138 -3.67587 1.86959 0
M  V30 2156 H 203.479 -0.440959 0.496439 0
M  V30 2157 H 206.009 -0.827326 1.87127 0
M  V30 2158 H 206.019 -3.17374 2.56393 0
M  V30 2159 H 204.694 -2.38692 3.40586 0
M  V30 2160 H 203.271 -3.2662 1.79927 0
M  V30 2161 N 205.456 -1.28612 -0.910864 0
M  V30 2162 C 206.404 -1.1265 -2.03501 0
M  V30 2163 C 207.398 -0.0450054 -1.6934 0
M  V30 2164 O 208.604 -0.203988 -1.7884 0
M  V30 2165 H 204.979 -0.347639 -0.666822 0
M  V30 2166 H 206.95 -2.07849 -2.14106 0
M  V30 2167 C 205.699 -0.808143 -3.38178 0
M  V30 2168 H 205.022 -1.63231 -3.6496 0
M  V30 2169 H 206.462 -0.736426 -4.17556 0
M  V30 2170 C 204.921 0.488226 -3.33344 0
M  V30 2171 O 205.451 1.51766 -3.71927 0
M  V30 2172 N 203.657 0.490009 -2.86439 0
M  V30 2173 H 203.204 -0.348161 -2.55236 0
M  V30 2174 H 203.162 1.35741 -2.83587 0
M  V30 2175 N 206.934 1.1197 -1.10907 0
M  V30 2176 C 207.881 2.17846 -0.762345 0
M  V30 2177 C 208.851 1.63995 0.263599 0
M  V30 2178 O 210.036 1.90273 0.141773 0
M  V30 2179 C 207.176 3.44487 -0.205651 0
M  V30 2180 C 206.289 4.12369 -1.28748 0
M  V30 2181 C 205.424 5.26674 -0.691919 0
M  V30 2182 C 204.463 5.86431 -1.75399 0
M  V30 2183 N 203.6 6.92142 -1.17833 0
M  V30 2184 H 208.44 2.46851 -1.6694 0
M  V30 2185 H 205.977 1.21188 -0.833776 0
M  V30 2186 H 207.935 4.16981 0.135037 0
M  V30 2187 H 206.565 3.15884 0.664613 0
M  V30 2188 H 205.617 3.38003 -1.74522 0
M  V30 2189 H 206.929 4.52844 -2.09125 0
M  V30 2190 H 206.083 6.05953 -0.300963 0
M  V30 2191 H 204.822 4.8749 0.143232 0
M  V30 2192 H 203.827 5.05835 -2.15432 0
M  V30 2193 H 205.052 6.27685 -2.59208 0
M  V30 2194 H 202.998 6.54985 -0.364725 0
M  V30 2195 H 202.915 7.31242 -1.91887 0
M  V30 2196 H 204.183 7.75237 -0.81408 0
M  V30 2197 N 208.412 0.89855 1.29475 0
M  V30 2198 C 209.36 0.365253 2.29714 0
M  V30 2199 C 210.354 -0.534993 1.6073 0
M  V30 2200 O 211.56 -0.417921 1.75081 0
M  V30 2201 H 207.935 0.0994853 0.74539 0
M  V30 2202 H 209.906 1.22406 2.72138 0
M  V30 2203 C 208.655 -0.393159 3.4547 0
M  V30 2204 H 207.978 0.290332 3.98744 0
M  V30 2205 H 209.418 -0.731189 4.17648 0
M  V30 2206 C 207.877 -1.59539 2.9673 0
M  V30 2207 O 208.407 -2.69469 2.97908 0
M  V30 2208 N 206.613 -1.43716 2.52575 0
M  V30 2209 H 206.16 -0.542828 2.51816 0
M  V30 2210 H 206.118 -2.24288 2.20323 0
M  V30 2211 N 209.89 -1.43072 0.660911 0
M  V30 2212 C 211.138 -2.01323 0.177094 0
M  V30 2213 C 211.459 -1.5245 -1.2159 0
M  V30 2214 O 210.729 -0.740322 -1.81373 0
M  V30 2215 H 209.309 -0.744382 0.0624804 0
M  V30 2216 H 211.971 -1.75179 0.854305 0
M  V30 2217 H 211.067 -3.11649 0.167641 0
M  V30 2218 N 211.368 -0.403325 -1.52352 0
M  V30 2219 C 212.596 0.174012 -2.06167 0
M  V30 2220 C 213.011 1.39347 -1.27388 0
M  V30 2221 O 212.368 1.79597 -0.324201 0
M  V30 2222 C 212.419 0.530223 -3.5759 0
M  V30 2223 O 212.14 -0.640806 -4.33388 0
M  V30 2224 C 213.641 1.16192 -4.27802 0
M  V30 2225 H 210.861 0.0229464 -0.670608 0
M  V30 2226 H 213.405 -0.572604 -1.9632 0
M  V30 2227 H 211.56 1.22673 -3.67464 0
M  V30 2228 H 211.974 -0.344851 -5.23365 0
M  V30 2229 H 213.448 1.36141 -5.34948 0
M  V30 2230 H 213.925 2.13335 -3.83907 0
M  V30 2231 H 214.531 0.505775 -4.22282 0
M  V30 2232 N 212.846 1.57033 -0.133567 0
M  V30 2233 C 214.086 1.97575 0.523789 0
M  V30 2234 C 214.45 1.01605 1.62912 0
M  V30 2235 O 215.651 1.3114 2.3464 0
M  V30 2236 C 213.922 3.42256 1.02935 0
M  V30 2237 S 215.481 4.04817 1.69319 0
M  V30 2238 H 212.299 0.690427 0.169799 0
M  V30 2239 H 214.901 1.94234 -0.222101 0
M  V30 2240 H 213.605 4.09842 0.213917 0
M  V30 2241 H 213.136 3.4928 1.81017 0
M  V30 2242 H 215.151 3.96767 2.97977 0
M  V30 2243 N 214.325 -0.140222 1.56975 0
M  V30 2244 C 215.571 -0.852949 1.83991 0
M  V30 2245 C 215.904 -1.80512 0.716187 0
M  V30 2246 O 215.179 -1.92479 -0.279681 0
M  V30 2247 C 215.462 -1.6215 3.21527 0
M  V30 2248 C 215.315 -0.690363 4.4447 0
M  V30 2249 C 216.634 -2.58247 3.56366 0
M  V30 2250 H 213.753 -0.308634 0.669264 0
M  V30 2251 H 216.395 -0.117898 1.89634 0
M  V30 2252 H 214.545 -2.24812 3.16847 0
M  V30 2253 H 216.217 -0.0742264 4.6124 0
M  V30 2254 H 214.46 -0.000396433 4.338 0
M  V30 2255 H 215.131 -1.2643 5.37326 0
M  V30 2256 H 217.607 -2.05701 3.61699 0
M  V30 2257 H 216.483 -3.09067 4.53617 0
M  V30 2258 H 216.744 -3.39923 2.82674 0
M  V30 2259 N 215.803 -1.52179 -0.40978 0
M  V30 2260 C 217.031 -1.70054 -1.17853 0
M  V30 2261 C 217.446 -0.409735 -1.843 0
M  V30 2262 O 216.803 0.614183 -1.71855 0
M  V30 2263 C 216.854 -2.83568 -2.24213 0
M  V30 2264 O 216.575 -4.0765 -1.60478 0
M  V30 2265 C 218.076 -3.12947 -3.13973 0
M  V30 2266 H 215.296 -0.569917 -0.354169 0
M  V30 2267 H 217.84 -1.98734 -0.482198 0
M  V30 2268 H 215.995 -2.57409 -2.89516 0
M  V30 2269 H 216.409 -4.70899 -2.30986 0
M  V30 2270 H 217.883 -3.95889 -3.84677 0
M  V30 2271 H 218.36 -2.26472 -3.76307 0
M  V30 2272 H 218.966 -3.40868 -2.5434 0
M  V30 2273 N 217.281 0.66697 -1.42791 0
M  V30 2274 C 218.229 1.80157 -1.47127 0
M  V30 2275 C 219.223 1.65825 -0.346199 0
M  V30 2276 O 220.429 1.72338 -0.519572 0
M  V30 2277 H 216.804 0.594158 -0.460956 0
M  V30 2278 H 218.775 1.73619 -2.42692 0
M  V30 2279 C 217.524 3.18351 -1.39813 0
M  V30 2280 H 216.847 3.3001 -2.25684 0
M  V30 2281 H 218.287 3.97736 -1.46908 0
M  V30 2282 C 216.746 3.36707 -0.11391 0
M  V30 2283 O 217.276 3.93027 0.830241 0
M  V30 2284 N 215.482 2.90586 -0.0285295 0
M  V30 2285 H 215.029 2.4494 -0.79764 0
M  V30 2286 H 214.987 3.03245 0.830063 0
M  V30 2287 N 218.759 1.29093 0.90403 0
M  V30 2288 C 219.689 1.16401 2.02418 0
M  V30 2289 C 220.67 0.0593085 1.69997 0
M  V30 2290 O 221.855 0.238021 1.92736 0
M  V30 2291 C 218.985 0.835233 3.37107 0
M  V30 2292 C 217.939 1.89578 3.83724 0
M  V30 2293 C 217.265 1.42041 5.15489 0
M  V30 2294 C 218.565 3.30394 4.04521 0
M  V30 2295 H 220.259 2.10109 2.13295 0
M  V30 2296 H 217.805 1.01157 1.02486 0
M  V30 2297 H 219.758 0.733169 4.14973 0
M  V30 2298 H 218.482 -0.137543 3.2631 0
M  V30 2299 H 217.141 1.98715 3.08071 0
M  V30 2300 H 216.789 0.436426 5.01103 0
M  V30 2301 H 216.489 2.12964 5.4765 0
M  V30 2302 H 218.013 1.33176 5.959 0
M  V30 2303 H 219.427 3.24123 4.72882 0
M  V30 2304 H 217.824 3.99237 4.48029 0
M  V30 2305 H 218.894 3.73692 3.09002 0
M  V30 2306 N 220.237 -1.11381 1.11499 0
M  V30 2307 C 221.465 -1.86934 0.88675 0
M  V30 2308 C 221.88 -1.80195 -0.563476 0
M  V30 2309 O 221.237 -1.18367 -1.38908 0
M  V30 2310 C 221.288 -3.35722 1.34064 0
M  V30 2311 O 221.009 -3.4232 2.73401 0
M  V30 2312 C 222.51 -4.2818 1.14791 0
M  V30 2313 H 219.73 -0.591117 0.317523 0
M  V30 2314 H 222.274 -1.40865 1.48248 0
M  V30 2315 H 220.429 -3.79294 0.788355 0
M  V30 2316 H 220.843 -4.34971 2.93087 0
M  V30 2317 H 222.317 -5.30817 1.5145 0
M  V30 2318 H 222.794 -4.39113 0.0875279 0
M  V30 2319 H 223.4 -3.90402 1.68721 0
M  V30 2320 N 221.715 -0.905404 -1.28997 0
M  V30 2321 C 222.955 -0.541232 -1.97104 0
M  V30 2322 C 223.319 0.896841 -1.69767 0
M  V30 2323 O 224.52 1.36817 -2.31375 0
M  V30 2324 C 222.791 -0.832134 -3.47578 0
M  V30 2325 S 224.35 -0.573127 -4.35041 0
M  V30 2326 H 221.168 -0.200576 -0.682122 0
M  V30 2327 H 223.77 -1.16906 -1.56694 0
M  V30 2328 H 222.474 -1.87687 -3.64968 0
M  V30 2329 H 222.005 -0.192636 -3.92928 0
M  V30 2330 H 224.02 0.579297 -4.92807 0
M  V30 2331 N 223.193 1.4272 -0.668489 0
M  V30 2332 C 224.433 2.03497 -0.19194 0
M  V30 2333 C 224.797 1.51684 1.17712 0
M  V30 2334 O 225.998 2.04205 1.74796 0
M  V30 2335 C 224.269 3.56734 -0.218032 0
M  V30 2336 S 225.828 4.38395 0.188438 0
M  V30 2337 H 222.646 0.706542 -0.0794959 0
M  V30 2338 H 225.248 1.74563 -0.880235 0
M  V30 2339 H 223.952 3.91943 -1.2169 0
M  V30 2340 H 223.483 3.90333 0.490303 0
M  V30 2341 H 225.498 4.75345 1.42345 0
M  V30 2342 N 224.671 0.411399 1.52136 0
M  V30 2343 C 225.604 -0.457614 2.23565 0
M  V30 2344 C 226.582 -1.04613 1.24478 0
M  V30 2345 O 227.766 -1.09356 1.53536 0
M  V30 2346 C 224.893 -1.6354 2.96602 0
M  V30 2347 C 223.939 -1.17005 4.10137 0
M  V30 2348 S 224.772 -0.13333 5.35334 0
M  V30 2349 C 225.928 -1.31638 6.119 0
M  V30 2350 H 226.161 0.148883 2.96927 0
M  V30 2351 H 223.694 0.195713 1.53155 0
M  V30 2352 H 225.652 -2.31074 3.39286 0
M  V30 2353 H 224.313 -2.21324 2.22878 0
M  V30 2354 H 223.506 -2.05005 4.60422 0
M  V30 2355 H 223.108 -0.573319 3.6958 0
M  V30 2356 H 225.4 -2.23957 6.39413 0
M  V30 2357 H 226.343 -0.854014 7.02931 0
M  V30 2358 H 226.751 -1.54321 5.42997 0
M  V30 2359 N 226.149 -1.5696 0.141893 0
M  V30 2360 C 227.059 -2.20066 -0.812905 0
M  V30 2361 C 228.075 -1.18344 -1.27557 0
M  V30 2362 O 229.251 -1.50902 -1.33381 0
M  V30 2363 C 226.316 -2.80583 -2.03652 0
M  V30 2364 C 225.377 -3.97414 -1.62359 0
M  V30 2365 C 224.61 -4.55036 -2.78887 0
M  V30 2366 O 224.833 -4.11538 -3.94959 0
M  V30 2367 O 223.767 -5.45376 -2.54653 0
M  V30 2368 H 227.593 -3.02157 -0.305746 0
M  V30 2369 H 225.178 -1.49159 -0.0848799 0
M  V30 2370 H 227.06 -3.19067 -2.75272 0
M  V30 2371 H 225.735 -2.01508 -2.5333 0
M  V30 2372 H 224.642 -3.63656 -0.877775 0
M  V30 2373 H 225.975 -4.77994 -1.17401 0
M  V30 2374 N 227.627 0.131896 -1.57047 0
M  V30 2375 C 228.577 1.1679 -1.95816 0
M  V30 2376 C 229.561 1.37756 -0.831393 0
M  V30 2377 O 230.753 1.39065 -1.09499 0
M  V30 2378 C 227.882 2.49778 -2.35512 0
M  V30 2379 C 226.968 2.32342 -3.54793 0
M  V30 2380 N 227.359 1.8469 -4.70875 0
M  V30 2381 C 225.657 2.63043 -3.60173 0
M  V30 2382 C 226.358 1.80656 -5.52936 0
M  V30 2383 N 225.334 2.24528 -4.95064 0
M  V30 2384 H 229.136 0.791818 -2.83033 0
M  V30 2385 H 226.65 0.339791 -1.58805 0
M  V30 2386 H 228.647 3.24692 -2.61498 0
M  V30 2387 H 227.307 2.88156 -1.49654 0
M  V30 2388 H 228.318 1.54429 -4.9434 0
M  V30 2389 H 224.995 3.05193 -2.84892 0
M  V30 2390 H 226.385 1.45178 -6.56028 0
M  V30 2391 N 229.106 1.52395 0.401703 0
M  V30 2392 C 230.354 1.66488 1.14569 0
M  V30 2393 C 230.675 0.400897 1.90835 0
M  V30 2394 O 229.945 -0.584415 1.8698 0
M  V30 2395 H 228.525 0.613672 0.425929 0
M  V30 2396 H 231.187 1.89464 0.457093 0
M  V30 2397 H 230.283 2.50942 1.85566 0
M  V30 2398 N 230.584 -0.659388 1.43143 0
M  V30 2399 C 231.494 -1.80167 1.50256 0
M  V30 2400 C 232.51 -1.69571 0.390106 0
M  V30 2401 O 233.686 -1.90849 0.643319 0
M  V30 2402 C 230.751 -3.16409 1.41725 0
M  V30 2403 C 229.812 -3.38848 2.63591 0
M  V30 2404 C 229.045 -4.68591 2.55458 0
M  V30 2405 O 229.268 -5.47532 1.59891 0
M  V30 2406 O 228.202 -4.92614 3.45854 0
M  V30 2407 H 232.028 -1.77121 2.46702 0
M  V30 2408 H 229.613 -0.817092 1.25076 0
M  V30 2409 H 231.495 -3.9768 1.39387 0
M  V30 2410 H 230.17 -3.20059 0.484118 0
M  V30 2411 H 229.077 -2.57366 2.71502 0
M  V30 2412 H 230.41 -3.4004 3.55856 0
M  V30 2413 N 232.062 -1.29571 -0.897171 0
M  V30 2414 C 232.972 -1.16808 -2.03453 0
M  V30 2415 C 233.988 -0.0907471 -1.73763 0
M  V30 2416 O 235.164 -0.303312 -1.99103 0
M  V30 2417 C 232.229 -0.848264 -3.36163 0
M  V30 2418 C 231.29 -2.0097 -3.79354 0
M  V30 2419 C 230.523 -1.70505 -5.05731 0
M  V30 2420 O 230.746 -0.62718 -5.66941 0
M  V30 2421 O 229.68 -2.5538 -5.45036 0
M  V30 2422 H 233.506 -2.12325 -2.17144 0
M  V30 2423 H 231.091 -1.09047 -1.02123 0
M  V30 2424 H 232.973 -0.684581 -4.15802 0
M  V30 2425 H 231.648 0.0771071 -3.23608 0
M  V30 2426 H 230.555 -2.22863 -3.00471 0
M  V30 2427 H 231.888 -2.91636 -3.96496 0
M  V30 2428 N 233.54 1.10788 -1.12088 0
M  V30 2429 C 234.817 1.79136 -0.785476 0
M  V30 2430 C 235.197 1.98246 0.725377 0
M  V30 2431 O 234.545 1.57258 1.65778 0
M  V30 2432 C 234.755 3.12375 -1.55636 0
M  V30 2433 C 236.103 3.8731 -1.74001 0
M  V30 2434 O 237.127 3.22085 -1.52117 0
M  V30 2435 O 235.986 5.04369 -2.10415 0
M  V30 2436 H 233.08 0.776226 -0.285311 0
M  V30 2437 H 235.626 1.1747 -1.2247 0
M  V30 2438 H 234.398 2.93863 -2.5838 0
M  V30 2439 H 234.021 3.81758 -1.11114 0
M  V30 2440 N 235.018 0.912232 1.28515 0
M  V30 2441 C 236.264 0.545405 1.95328 0
M  V30 2442 C 236.597 -0.908313 1.71649 0
M  V30 2443 O 235.872 -1.64575 1.03659 0
M  V30 2444 C 236.155 0.853483 3.4984 0
M  V30 2445 C 236.008 2.35982 3.82926 0
M  V30 2446 C 237.327 0.348589 4.38717 0
M  V30 2447 H 234.446 0.199626 0.709449 0
M  V30 2448 H 237.088 1.1412 1.5191 0
M  V30 2449 H 235.238 0.34643 3.86952 0
M  V30 2450 H 236.91 2.93738 3.55691 0
M  V30 2451 H 235.153 2.81543 3.30024 0
M  V30 2452 H 235.824 2.52593 4.90816 0
M  V30 2453 H 238.3 0.78294 4.08668 0
M  V30 2454 H 237.176 0.593242 5.45685 0
M  V30 2455 H 237.437 -0.751049 4.35674 0
M  V30 2456 N 236.496 -1.42363 0.676048 0
M  V30 2457 C 237.745 -2.00745 0.196037 0
M  V30 2458 C 238.058 -1.54083 -1.20489 0
M  V30 2459 O 239.264 -2.04891 -1.78134 0
M  V30 2460 C 237.72 -3.58651 0.299616 0
M  V30 2461 C 237.328 -4.143 1.70468 0
M  V30 2462 C 239.072 -4.24326 -0.121619 0
M  V30 2463 C 236.979 -5.64574 1.76096 0
M  V30 2464 H 235.909 -0.750787 0.0695301 0
M  V30 2465 H 238.56 -1.63072 0.841412 0
M  V30 2466 H 236.942 -3.93833 -0.413673 0
M  V30 2467 H 238.116 -3.90575 2.44515 0
M  V30 2468 H 236.431 -3.61081 2.07387 0
M  V30 2469 H 239.028 -5.34607 -0.0997362 0
M  V30 2470 H 239.371 -3.99897 -1.15708 0
M  V30 2471 H 239.904 -3.94108 0.540706 0
M  V30 2472 H 236.643 -5.93804 2.77628 0
M  V30 2473 H 236.163 -5.90286 1.06406 0
M  V30 2474 H 237.842 -6.29013 1.51496 0
M  V30 2475 N 237.974 -0.419461 -1.51915 0
M  V30 2476 C 239.204 0.151915 -2.06041 0
M  V30 2477 C 239.612 1.38539 -1.28855 0
M  V30 2478 O 238.955 1.80592 -0.336463 0
M  V30 2479 C 239.017 0.557119 -3.55157 0
M  V30 2480 C 238.681 -0.567054 -4.53468 0
M  V30 2481 C 239.678 -1.43379 -4.99738 0
M  V30 2482 C 237.363 -0.742693 -4.96779 0
M  V30 2483 C 239.357 -2.46102 -5.87973 0
M  V30 2484 C 237.044 -1.77322 -5.84808 0
M  V30 2485 C 238.042 -2.63078 -6.30301 0
M  V30 2486 O 237.73 -3.64364 -7.16585 0
M  V30 2487 H 237.462 0.0193293 -0.675724 0
M  V30 2488 H 240.016 -0.592073 -1.96682 0
M  V30 2489 H 238.246 1.35355 -3.62238 0
M  V30 2490 H 239.935 1.05759 -3.9188 0
M  V30 2491 H 240.701 -1.30954 -4.66986 0
M  V30 2492 H 236.58 -0.0848307 -4.60922 0
M  V30 2493 H 240.124 -3.13071 -6.23404 0
M  V30 2494 H 236.021 -1.89773 -6.16974 0
M  V30 2495 H 236.789 -3.60731 -7.34721 0
M  V30 2496 N 239.452 1.56882 -0.150215 0
M  V30 2497 C 240.68 2.00593 0.506948 0
M  V30 2498 C 241.095 1.03033 1.58208 0
M  V30 2499 O 240.452 0.0278396 1.82479 0
M  V30 2500 C 240.503 3.44209 1.10465 0
M  V30 2501 O 240.224 4.3804 0.0724636 0
M  V30 2502 C 241.725 4.03214 1.84211 0
M  V30 2503 H 238.945 0.65795 0.13169 0
M  V30 2504 H 241.489 2.03018 -0.245743 0
M  V30 2505 H 239.644 3.42625 1.80795 0
M  V30 2506 H 240.058 5.22007 0.510793 0
M  V30 2507 H 241.532 5.0569 2.21318 0
M  V30 2508 H 242.009 3.44107 2.72923 0
M  V30 2509 H 242.615 4.08437 1.18572 0
M  V30 2510 N 240.93 -0.123565 1.57115 0
M  V30 2511 C 242.176 -0.828428 1.85765 0
M  V30 2512 C 242.531 -1.77709 0.737371 0
M  V30 2513 O 241.824 -1.89787 -0.262978 0
M  V30 2514 C 242.018 -1.62016 3.18568 0
M  V30 2515 C 241.847 -0.749663 4.43407 0
M  V30 2516 C 240.617 -0.406251 5.03664 0
M  V30 2517 C 242.815 -0.0693505 5.14253 0
M  V30 2518 N 240.797 0.475389 6.12057 0
M  V30 2519 C 242.168 0.671474 6.16353 0
M  V30 2520 C 244.223 0.00754393 4.97899 0
M  V30 2521 C 242.926 1.48197 7.03868 0
M  V30 2522 C 244.952 0.804845 5.85898 0
M  V30 2523 C 244.314 1.53388 6.87497 0
M  V30 2524 H 240.413 -0.280219 0.73007 0
M  V30 2525 H 242.997 -0.0924183 1.94481 0
M  V30 2526 H 241.168 -2.32724 3.10957 0
M  V30 2527 H 242.9 -2.27 3.35042 0
M  V30 2528 H 239.655 -0.747446 4.67665 0
M  V30 2529 H 240.079 0.907924 6.70884 0
M  V30 2530 H 244.721 -0.541741 4.19315 0
M  V30 2531 H 242.439 2.04242 7.81864 0
M  V30 2532 H 246.025 0.866642 5.75309 0
M  V30 2533 H 244.905 2.1409 7.5441 0
M  V30 2534 N 242.408 -1.52605 -0.393616 0
M  V30 2535 C 243.355 -1.77055 -1.48054 0
M  V30 2536 C 244.325 -0.61358 -1.54352 0
M  V30 2537 O 245.51 -0.852806 -1.70681 0
M  V30 2538 C 242.65 -1.94108 -2.85335 0
M  V30 2539 C 241.763 -3.21792 -2.88226 0
M  V30 2540 C 240.898 -3.29188 -4.16904 0
M  V30 2541 C 239.937 -4.51013 -4.13828 0
M  V30 2542 N 239.074 -4.55716 -5.34105 0
M  V30 2543 H 243.914 -2.69815 -1.26506 0
M  V30 2544 H 241.451 -1.33683 -0.61379 0
M  V30 2545 H 243.409 -2.01979 -3.65049 0
M  V30 2546 H 242.039 -1.04713 -3.05344 0
M  V30 2547 H 241.091 -3.23015 -2.00911 0
M  V30 2548 H 242.403 -4.11557 -2.8182 0
M  V30 2549 H 241.557 -3.36216 -5.05018 0
M  V30 2550 H 240.296 -2.37389 -4.26026 0
M  V30 2551 H 239.301 -4.44115 -3.24102 0
M  V30 2552 H 240.526 -5.44123 -4.06333 0
M  V30 2553 H 238.472 -3.66807 -5.43865 0
M  V30 2554 H 238.389 -5.39346 -5.29756 0
M  V30 2555 H 239.657 -4.66993 -6.2413 0
M  V30 2556 N 243.887 0.651787 -1.4349 0
M  V30 2557 C 244.85 1.74647 -1.48429 0
M  V30 2558 C 245.85 1.56513 -0.368817 0
M  V30 2559 O 247.04 1.62385 -0.630623 0
M  V30 2560 C 244.172 3.13533 -1.33827 0
M  V30 2561 H 245.365 1.71649 -2.4592 0
M  V30 2562 H 242.918 0.863573 -1.30277 0
M  V30 2563 H 243.653 3.22142 -0.37349 0
M  V30 2564 H 243.438 3.28101 -2.14691 0
M  V30 2565 H 244.928 3.93356 -1.40218 0
M  V30 2566 N 245.365 1.30045 0.890287 0
M  V30 2567 C 246.295 1.18541 2.01172 0
M  V30 2568 C 247.276 0.0773356 1.69924 0
M  V30 2569 O 248.461 0.25845 1.92473 0
M  V30 2570 C 245.591 0.870941 3.36202 0
M  V30 2571 C 244.545 1.93637 3.81692 0
M  V30 2572 C 243.871 1.475 5.13953 0
M  V30 2573 C 245.171 3.34666 4.00994 0
M  V30 2574 H 246.865 2.12359 2.11054 0
M  V30 2575 H 244.411 1.02238 1.01407 0
M  V30 2576 H 246.364 0.777141 4.14172 0
M  V30 2577 H 245.088 -0.102926 3.26438 0
M  V30 2578 H 243.747 2.01972 3.05946 0
M  V30 2579 H 243.395 0.489551 5.00612 0
M  V30 2580 H 243.095 2.1876 5.4536 0
M  V30 2581 H 244.619 1.39489 5.94454 0
M  V30 2582 H 246.033 3.2912 4.69417 0
M  V30 2583 H 244.43 4.03966 4.43769 0
M  V30 2584 H 245.5 3.76949 3.05021 0
M  V30 2585 N 246.843 -1.10192 1.12674 0
M  V30 2586 C 248.091 -1.81845 0.881861 0
M  V30 2587 C 248.412 -1.85737 -0.593867 0
M  V30 2588 O 247.682 -1.33724 -1.4316 0
M  V30 2589 H 246.262 -0.673432 0.323261 0
M  V30 2590 H 248.924 -1.33316 1.42172 0
M  V30 2591 H 248.02 -2.85288 1.2656 0
M  V30 2592 N 248.321 -0.919034 -1.28029 0
M  V30 2593 C 249.253 -0.368762 -2.26214 0
M  V30 2594 C 250.266 0.495716 -1.55069 0
M  V30 2595 O 251.455 0.30974 -1.75792 0
M  V30 2596 C 248.555 0.491049 -3.35324 0
M  V30 2597 C 247.728 -0.352133 -4.3598 0
M  V30 2598 C 246.787 0.443622 -5.24327 0
M  V30 2599 O 245.813 -0.14566 -5.69014 0
M  V30 2600 N 247.015 1.74545 -5.53637 0
M  V30 2601 H 249.78 -1.21273 -2.74068 0
M  V30 2602 H 247.341 -0.785541 -1.41566 0
M  V30 2603 H 249.333 1.03026 -3.91366 0
M  V30 2604 H 247.903 1.23574 -2.87138 0
M  V30 2605 H 247.123 -1.07269 -3.79324 0
M  V30 2606 H 248.411 -0.928883 -5.00249 0
M  V30 2607 H 247.809 2.24666 -5.19174 0
M  V30 2608 H 246.366 2.23138 -6.12416 0
M  V30 2609 N 249.799 1.42003 -0.683588 0
M  V30 2610 C 250.762 2.29191 -0.0198243 0
M  V30 2611 C 251.762 1.43773 0.72013 0
M  V30 2612 O 252.952 1.65061 0.556815 0
M  V30 2613 C 250.084 3.26435 0.982487 0
M  V30 2614 H 251.277 2.8938 -0.787345 0
M  V30 2615 H 248.83 1.49789 -0.446418 0
M  V30 2616 H 249.565 2.71203 1.77819 0
M  V30 2617 H 249.35 3.89449 0.455182 0
M  V30 2618 H 250.84 3.918 1.44508 0
M  V30 2619 N 251.277 0.427512 1.51691 0
M  V30 2620 C 252.24 -0.377132 2.26076 0
M  V30 2621 C 253.24 -0.958089 1.29141 0
M  V30 2622 O 254.43 -0.83408 1.52934 0
M  V30 2623 C 251.562 -1.53262 3.04506 0
M  V30 2624 H 252.755 0.27464 2.9864 0
M  V30 2625 H 250.308 0.180445 1.55255 0
M  V30 2626 H 251.043 -2.22072 2.36335 0
M  V30 2627 H 250.828 -1.12232 3.75694 0
M  V30 2628 H 252.318 -2.10135 3.60878 0
M  V30 2629 N 252.755 -1.56801 0.158532 0
M  V30 2630 C 253.703 -2.18638 -0.793729 0
M  V30 2631 C 254.697 -1.14669 -1.24689 0
M  V30 2632 O 255.903 -1.32895 -1.21403 0
M  V30 2633 H 252.278 -0.700226 -0.274204 0
M  V30 2634 H 254.249 -2.97367 -0.248095 0
M  V30 2635 C 252.998 -2.83139 -2.0181 0
M  V30 2636 H 252.321 -3.62863 -1.67841 0
M  V30 2637 H 253.761 -3.29894 -2.66357 0
M  V30 2638 C 252.22 -1.82244 -2.83353 0
M  V30 2639 O 252.75 -1.3 -3.80083 0
M  V30 2640 N 250.956 -1.51288 -2.48114 0
M  V30 2641 H 250.503 -1.93964 -1.69516 0
M  V30 2642 H 250.461 -0.840296 -3.02963 0
M  V30 2643 N 254.233 0.115231 -1.57178 0
M  V30 2644 C 255.143 1.15994 -2.03918 0
M  V30 2645 C 256.159 1.45103 -0.960268 0
M  V30 2646 O 257.335 1.56144 -1.27204 0
M  V30 2647 C 254.4 2.46568 -2.43732 0
M  V30 2648 C 253.461 2.24822 -3.65723 0
M  V30 2649 C 252.694 3.4917 -4.03629 0
M  V30 2650 O 252.917 4.56623 -3.41835 0
M  V30 2651 O 251.851 3.39949 -4.96708 0
M  V30 2652 H 255.677 0.793019 -2.93164 0
M  V30 2653 H 253.262 0.3263 -1.45793 0
M  V30 2654 H 255.144 3.23492 -2.70057 0
M  V30 2655 H 253.819 2.82726 -1.57631 0
M  V30 2656 H 252.726 1.45744 -3.44542 0
M  V30 2657 H 254.059 1.93566 -4.52541 0
M  V30 2658 N 255.711 1.52812 0.385517 0
M  V30 2659 C 256.936 1.72207 1.15583 0
M  V30 2660 C 257.361 0.441034 1.82857 0
M  V30 2661 O 256.719 -0.603465 1.70962 0
M  V30 2662 C 256.767 2.87476 2.17692 0
M  V30 2663 O 255.871 2.54693 3.24354 0
M  V30 2664 H 255.212 0.572526 0.336319 0
M  V30 2665 H 257.742 1.99618 0.448744 0
M  V30 2666 H 257.752 3.13072 2.6163 0
M  V30 2667 H 256.427 3.80408 1.68115 0
M  V30 2668 H 255.004 2.3985 2.85529 0
M  V30 2669 N 257.189 -0.644168 1.43834 0
M  V30 2670 C 258.139 -1.7501 1.46135 0
M  V30 2671 C 259.123 -1.57507 0.328685 0
M  V30 2672 O 260.315 -1.67465 0.5731 0
M  V30 2673 C 257.444 -3.13641 1.39585 0
M  V30 2674 C 256.53 -3.3666 2.57916 0
M  V30 2675 N 256.921 -3.30107 3.83227 0
M  V30 2676 C 255.219 -3.67411 2.52834 0
M  V30 2677 C 255.92 -3.53456 4.61999 0
M  V30 2678 N 254.896 -3.75705 3.9287 0
M  V30 2679 H 258.698 -1.68382 2.40883 0
M  V30 2680 H 256.212 -0.846169 1.38614 0
M  V30 2681 H 258.209 -3.92933 1.39317 0
M  V30 2682 H 256.869 -3.21444 0.45865 0
M  V30 2683 H 257.88 -3.09316 4.15384 0
M  V30 2684 H 254.557 -3.82275 1.67845 0
M  V30 2685 H 255.947 -3.54093 5.71024 0
M  V30 2686 N 258.668 -1.30515 -0.883378 0
M  V30 2687 C 259.616 -1.16941 -2.01066 0
M  V30 2688 C 260.61 -0.0809148 -1.69207 0
M  V30 2689 O 261.816 -0.241877 -1.78367 0
M  V30 2690 H 258.191 -0.361705 -0.659298 0
M  V30 2691 H 260.162 -2.12344 -2.09649 0
M  V30 2692 C 258.911 -0.879694 -3.36388 0
M  V30 2693 H 258.234 -1.70936 -3.61415 0
M  V30 2694 H 259.674 -0.82483 -4.159 0
M  V30 2695 C 258.133 0.417409 -3.34304 0
M  V30 2696 O 258.663 1.43843 -3.75063 0
M  V30 2697 N 256.869 0.429141 -2.87414 0
M  V30 2698 H 256.416 -0.402222 -2.5444 0
M  V30 2699 H 256.374 1.29696 -2.86403 0
M  V30 2700 N 260.146 1.09593 -1.13257 0
M  V30 2701 C 261.394 1.81375 -0.891492 0
M  V30 2702 C 261.715 1.86049 0.584009 0
M  V30 2703 O 260.985 1.34481 1.42449 0
M  V30 2704 H 259.565 0.671708 -0.326828 0
M  V30 2705 H 262.227 1.3256 -1.42877 0
M  V30 2706 H 261.323 2.84612 -1.28071 0
M  V30 2707 N 261.624 0.925811 1.2754 0
M  V30 2708 C 262.849 0.580924 1.99098 0
M  V30 2709 C 263.274 -0.833555 1.68622 0
M  V30 2710 O 262.632 -1.55903 0.925422 0
M  V30 2711 C 262.68 0.811186 3.51358 0
M  V30 2712 O 261.784 -0.124129 4.12213 0
M  V30 2713 H 261.125 0.223873 0.625122 0
M  V30 2714 H 263.655 1.24455 1.62395 0
M  V30 2715 H 263.665 0.72601 4.01489 0
M  V30 2716 H 262.34 1.84227 3.72872 0
M  V30 2717 H 260.917 0.0108006 3.72898 0
M  V30 2718 N 263.102 -1.41638 0.69111 0
M  V30 2719 C 264.351 -2.00526 0.217318 0
M  V30 2720 C 264.664 -1.55353 -1.18848 0
M  V30 2721 O 265.87 -2.06769 -1.75951 0
M  V30 2722 C 264.326 -3.58313 0.337639 0
M  V30 2723 C 263.934 -4.12469 1.74852 0
M  V30 2724 C 265.678 -4.24431 -0.0766066 0
M  V30 2725 C 263.585 -5.62675 1.82074 0
M  V30 2726 H 262.515 -0.750008 0.0774893 0
M  V30 2727 H 265.166 -1.6217 0.858661 0
M  V30 2728 H 263.548 -3.9425 -0.371879 0
M  V30 2729 H 264.722 -3.8796 2.48644 0
M  V30 2730 H 263.037 -3.58861 2.11205 0
M  V30 2731 H 265.634 -5.34683 -0.0430284 0
M  V30 2732 H 265.977 -4.01101 -1.1146 0
M  V30 2733 H 266.51 -3.93512 0.582476 0
M  V30 2734 H 263.249 -5.90826 2.83911 0
M  V30 2735 H 262.769 -5.89124 1.12661 0
M  V30 2736 H 264.448 -6.27371 1.58159 0
M  V30 2737 N 264.58 -0.43555 -1.51462 0
M  V30 2738 C 265.51 0.367376 -2.30592 0
M  V30 2739 C 266.491 1.02263 -1.35928 0
M  V30 2740 O 267.676 1.02661 -1.64847 0
M  V30 2741 C 264.806 1.46983 -3.14664 0
M  V30 2742 C 263.76 0.938161 -4.17591 0
M  V30 2743 C 263.086 2.13622 -4.90173 0
M  V30 2744 C 264.386 -0.0261621 -5.22293 0
M  V30 2745 H 266.08 -0.292969 -2.97963 0
M  V30 2746 H 263.626 -0.14234 -1.43295 0
M  V30 2747 H 265.579 2.03873 -3.688 0
M  V30 2748 H 264.303 2.15843 -2.4511 0
M  V30 2749 H 262.962 0.391481 -3.64504 0
M  V30 2750 H 262.61 2.81098 -4.17124 0
M  V30 2751 H 262.31 1.78688 -5.59772 0
M  V30 2752 H 263.834 2.7107 -5.47132 0
M  V30 2753 H 265.248 0.452384 -5.71512 0
M  V30 2754 H 263.645 -0.287992 -5.99409 0
M  V30 2755 H 264.715 -0.963391 -4.75233 0
M  V30 2756 N 266.058 1.56714 -0.166846 0
M  V30 2757 C 267.469 1.83378 0.350646 0
M  V30 2758 C 267.82 1.08646 1.63372 0
M  V30 2759 O 266.945 0.338058 2.13743 0
M  V30 2760 C 267.54 3.32643 0.642963 0
M  V30 2761 C 266.099 3.59818 1.10491 0
M  V30 2762 C 265.246 2.76954 0.138411 0
M  V30 2763 H 268.197 1.53803 -0.391193 0
M  V30 2764 H 268.218 3.49878 1.49551 0
M  V30 2765 H 267.73 3.87007 -0.291055 0
M  V30 2766 H 265.831 3.1086 2.05418 0
M  V30 2767 H 265.944 4.68178 1.01716 0
M  V30 2768 H 264.308 2.4666 0.634911 0
M  V30 2769 H 265.091 3.34097 -0.789549 0
M  V30 2770 N 267.536 -0.106894 1.57237 0
M  V30 2771 C 268.785 -0.811163 1.8467 0
M  V30 2772 C 269.098 -1.80469 0.754342 0
M  V30 2773 O 270.304 -2.55601 0.915439 0
M  V30 2774 C 268.76 -1.49337 3.27454 0
M  V30 2775 C 268.368 -0.540217 4.44731 0
M  V30 2776 C 270.112 -2.18206 3.64124 0
M  V30 2777 C 268.019 -1.22634 5.78545 0
M  V30 2778 H 266.949 -0.306679 0.688813 0
M  V30 2779 H 269.6 -0.0639887 1.83388 0
M  V30 2780 H 267.982 -2.2876 3.23241 0
M  V30 2781 H 269.156 0.221659 4.60267 0
M  V30 2782 H 267.471 0.042146 4.16379 0
M  V30 2783 H 270.068 -2.70253 4.61376 0
M  V30 2784 H 270.411 -2.96562 2.92158 0
M  V30 2785 H 270.944 -1.45658 3.70174 0
M  V30 2786 H 267.683 -0.483832 6.53712 0
M  V30 2787 H 267.203 -1.95993 5.66874 0
M  V30 2788 H 268.882 -1.75615 6.2271 0
M  V30 2789 N 269.014 -1.53014 -0.377408 0
M  V30 2790 C 270.239 -1.72818 -1.14668 0
M  V30 2791 C 270.664 -0.450725 -1.8262 0
M  V30 2792 O 270.022 0.59439 -1.7128 0
M  V30 2793 C 270.07 -2.88627 -2.16164 0
M  V30 2794 O 269.174 -2.56409 -3.22998 0
M  V30 2795 H 268.515 -0.574301 -0.333278 0
M  V30 2796 H 271.045 -1.99853 -0.438152 0
M  V30 2797 H 271.055 -3.14455 -2.59966 0
M  V30 2798 H 269.73 -3.81294 -1.66095 0
M  V30 2799 H 268.307 -2.4136 -2.84253 0
M  V30 2800 N 270.492 0.636531 -1.44174 0
M  V30 2801 C 271.738 1.39649 -1.47884 0
M  V30 2802 C 272.093 1.92098 -0.107747 0
M  V30 2803 O 271.386 1.70391 0.876208 0
M  V30 2804 C 271.58 2.58309 -2.47005 0
M  V30 2805 C 271.409 2.17476 -3.93617 0
M  V30 2806 C 270.179 2.0501 -4.61843 0
M  V30 2807 C 272.377 1.76722 -4.82984 0
M  V30 2808 N 270.359 1.57683 -5.93304 0
M  V30 2809 C 271.73 1.40601 -6.03847 0
M  V30 2810 C 273.785 1.64054 -4.70096 0
M  V30 2811 C 272.488 0.930787 -7.13252 0
M  V30 2812 C 274.514 1.17937 -5.79521 0
M  V30 2813 C 273.876 0.827625 -6.99521 0
M  V30 2814 H 269.975 0.506027 -0.596205 0
M  V30 2815 H 272.559 0.730791 -1.80465 0
M  V30 2816 H 270.73 3.22514 -2.16423 0
M  V30 2817 H 272.462 3.25083 -2.41045 0
M  V30 2818 H 269.217 2.25294 -4.16581 0
M  V30 2819 H 269.641 1.36334 -6.63131 0
M  V30 2820 H 274.283 1.89882 -3.77762 0
M  V30 2821 H 272.001 0.660012 -8.054 0
M  V30 2822 H 275.587 1.08601 -5.71574 0
M  V30 2823 H 274.467 0.476231 -7.82753 0
M  V30 2824 N 271.97 1.30982 0.876444 0
M  V30 2825 C 273.386 1.09498 1.16113 0
M  V30 2826 C 273.586 -0.13875 2.01022 0
M  V30 2827 O 272.642 -0.829935 2.38471 0
M  V30 2828 C 273.955 2.36308 1.85954 0
M  V30 2829 C 275.503 2.41856 1.98683 0
M  V30 2830 C 275.978 3.6853 2.71937 0
M  V30 2831 N 277.469 3.69387 2.79477 0
M  V30 2832 C 278.204 4.64096 3.36753 0
M  V30 2833 N 277.7 5.69155 3.95012 0
M  V30 2834 N 279.493 4.51626 3.3465 0
M  V30 2835 H 271.644 2.10118 0.310494 0
M  V30 2836 H 273.907 0.926634 0.200131 0
M  V30 2837 H 273.613 3.26388 1.31011 0
M  V30 2838 H 273.487 2.4561 2.86278 0
M  V30 2839 H 275.874 1.52249 2.52793 0
M  V30 2840 H 275.955 2.36523 0.9742 0
M  V30 2841 H 275.599 4.58499 2.18496 0
M  V30 2842 H 275.529 3.71127 3.73593 0
M  V30 2843 H 278.02 2.93438 2.38123 0
M  V30 2844 H 278.333 6.3751 4.36808 0
M  V30 2845 H 276.678 5.72937 3.93406 0
M  V30 2846 H 279.869 3.68728 2.8837 0
M  V30 2847 H 280.042 5.25614 3.7899 0
M  V30 2848 N 273.449 -1.08991 1.13837 0
M  V30 2849 C 274.695 -1.81699 0.91417 0
M  V30 2850 C 275.05 -1.84264 -0.553594 0
M  V30 2851 O 274.343 -1.30313 -1.4046 0
M  V30 2852 C 274.537 -3.27042 1.44147 0
M  V30 2853 C 274.366 -3.38637 2.95897 0
M  V30 2854 C 273.136 -3.50177 3.64286 0
M  V30 2855 C 275.334 -3.30791 3.93804 0
M  V30 2856 N 273.316 -3.50501 5.04006 0
M  V30 2857 C 274.687 -3.38037 5.19741 0
M  V30 2858 C 276.742 -3.14488 3.86007 0
M  V30 2859 C 275.445 -3.30659 6.38793 0
M  V30 2860 C 277.471 -3.08438 5.04599 0
M  V30 2861 C 276.833 -3.1628 6.29402 0
M  V30 2862 H 272.932 -0.678967 0.387979 0
M  V30 2863 H 275.516 -1.30224 1.4474 0
M  V30 2864 H 273.687 -3.76976 0.935091 0
M  V30 2865 H 275.419 -3.87785 1.1578 0
M  V30 2866 H 272.174 -3.53815 3.1482 0
M  V30 2867 H 272.598 -3.54236 5.76928 0
M  V30 2868 H 277.24 -3.07291 2.90399 0
M  V30 2869 H 274.958 -3.36618 7.34652 0
M  V30 2870 H 278.544 -2.96952 5.0031 0
M  V30 2871 H 277.424 -3.1162 7.19627 0
M  V30 2872 N 274.927 -0.932562 -1.27047 0
M  V30 2873 C 276.175 -0.574422 -1.93765 0
M  V30 2874 C 276.496 0.887993 -1.73608 0
M  V30 2875 O 275.766 1.62999 -1.08665 0
M  V30 2876 H 274.346 -0.209451 -0.717035 0
M  V30 2877 H 277.008 -1.18601 -1.5466 0
M  V30 2878 H 276.104 -0.784841 -3.02071 0
M  V30 2879 N 276.405 1.4127 -0.698611 0
M  V30 2880 C 277.315 2.34573 -0.0357891 0
M  V30 2881 C 278.331 1.56393 0.762701 0
M  V30 2882 O 279.507 1.8886 0.699564 0
M  V30 2883 C 276.572 3.35159 0.887089 0
M  V30 2884 C 275.633 4.29225 0.0804634 0
M  V30 2885 C 274.866 5.25006 0.959387 0
M  V30 2886 O 275.089 5.26314 2.19886 0
M  V30 2887 O 274.023 6.00519 0.407439 0
M  V30 2888 H 277.849 2.92838 -0.804957 0
M  V30 2889 H 275.434 1.42175 -0.458966 0
M  V30 2890 H 277.316 3.9689 1.41621 0
M  V30 2891 H 275.991 2.79333 1.6357 0
M  V30 2892 H 274.898 3.70833 -0.493328 0
M  V30 2893 H 276.231 4.88157 -0.629547 0
M  V30 2894 N 277.883 0.443576 1.51229 0
M  V30 2895 C 279.108 -0.121648 2.07043 0
M  V30 2896 C 279.533 -1.35156 1.30823 0
M  V30 2897 O 278.891 -1.7793 0.347934 0
M  V30 2898 C 278.939 -0.41624 3.5819 0
M  V30 2899 O 278.043 -1.50163 3.8409 0
M  V30 2900 H 277.384 0.000871367 0.663999 0
M  V30 2901 H 279.914 0.626706 1.94765 0
M  V30 2902 H 279.924 -0.664867 4.02546 0
M  V30 2903 H 278.599 0.482653 4.1309 0
M  V30 2904 H 277.176 -1.24248 3.51592 0
M  V30 2905 N 279.361 -1.56624 0.175154 0
M  V30 2906 C 280.638 -1.88688 -0.515373 0
M  V30 2907 C 281.018 -1.08564 -1.81044 0
M  V30 2908 O 280.366 -0.180703 -2.27784 0
M  V30 2909 C 280.576 -3.40768 -0.753552 0
M  V30 2910 C 281.924 -4.10587 -1.08184 0
M  V30 2911 O 282.948 -3.46106 -0.841961 0
M  V30 2912 O 281.807 -5.24512 -1.53459 0
M  V30 2913 H 278.901 -0.78301 -0.26613 0
M  V30 2914 H 281.447 -1.68347 0.213877 0
M  V30 2915 H 280.219 -3.90965 0.161829 0
M  V30 2916 H 279.842 -3.66733 -1.53598 0
M  V30 2917 N 280.839 0.0985539 -1.57292 0
M  V30 2918 C 281.772 1.15082 -1.97057 0
M  V30 2919 C 282.75 1.39025 -0.843255 0
M  V30 2920 O 283.934 1.52842 -1.10325 0
M  V30 2921 C 281.061 2.50069 -2.28437 0
M  V30 2922 C 280.107 2.42428 -3.509 0
M  V30 2923 S 280.94 1.84414 -5.02744 0
M  V30 2924 C 282.096 3.21032 -5.37298 0
M  V30 2925 H 282.329 0.811815 -2.86002 0
M  V30 2926 H 279.862 0.306102 -1.51335 0
M  V30 2927 H 281.82 3.27729 -2.47192 0
M  V30 2928 H 280.481 2.8114 -1.40069 0
M  V30 2929 H 279.674 3.41911 -3.70288 0
M  V30 2930 H 279.276 1.72896 -3.31637 0
M  V30 2931 H 281.568 4.17297 -5.33731 0
M  V30 2932 H 282.511 3.06452 -6.38352 0
M  V30 2933 H 282.919 3.20404 -4.64759 0
M  V30 2934 N 282.317 1.53212 0.369288 0
M  V30 2935 C 283.545 1.73119 1.13303 0
M  V30 2936 C 283.96 0.458455 1.83149 0
M  V30 2937 O 283.317 -0.568403 1.73423 0
M  V30 2938 C 283.368 2.89413 2.16616 0
M  V30 2939 O 283.089 4.11761 1.49614 0
M  V30 2940 C 284.59 3.21161 3.05566 0
M  V30 2941 H 281.81 0.579107 0.338934 0
M  V30 2942 H 284.354 1.99942 0.429338 0
M  V30 2943 H 282.509 2.64994 2.82589 0
M  V30 2944 H 282.923 4.76858 2.18419 0
M  V30 2945 H 284.397 4.05949 3.74045 0
M  V30 2946 H 284.874 2.36369 3.70171 0
M  V30 2947 H 285.48 3.47492 2.45213 0
M  V30 2948 N 283.795 -0.628877 1.44509 0
M  V30 2949 C 285.042 -1.38839 1.47411 0
M  V30 2950 C 285.37 -1.94202 0.10757 0
M  V30 2951 O 284.625 -1.74243 -0.890947 0
M  V30 2952 C 284.924 -2.56995 2.48371 0
M  V30 2953 C 284.59 -2.19908 3.93639 0
M  V30 2954 C 283.252 -2.09506 4.33198 0
M  V30 2955 C 285.604 -1.9064 4.85083 0
M  V30 2956 C 282.932 -1.68028 5.62124 0
M  V30 2957 C 285.284 -1.50655 6.14399 0
M  V30 2958 C 283.948 -1.38796 6.5291 0
M  V30 2959 H 283.218 -0.508048 0.539414 0
M  V30 2960 H 285.865 -0.712913 1.77735 0
M  V30 2961 H 284.17 -3.29786 2.11538 0
M  V30 2962 H 285.867 -3.15223 2.47861 0
M  V30 2963 H 282.457 -2.28922 3.62343 0
M  V30 2964 H 286.641 -1.97585 4.55273 0
M  V30 2965 H 281.897 -1.57452 5.90778 0
M  V30 2966 H 286.071 -1.27048 6.84713 0
M  V30 2967 H 283.698 -1.06429 7.52713 0
M  V30 2968 N 285.273 -1.31445 -0.869486 0
M  V30 2969 C 286.522 -1.20517 -1.61736 0
M  V30 2970 C 286.835 0.235341 -1.94179 0
M  V30 2971 O 288.041 0.466312 -2.67465 0
M  V30 2972 C 286.497 -2.10982 -2.91573 0
M  V30 2973 C 286.105 -3.60032 -2.66611 0
M  V30 2974 C 287.849 -2.08856 -3.69567 0
M  V30 2975 C 285.756 -4.42503 -3.92358 0
M  V30 2976 H 284.686 -0.447493 -0.606849 0
M  V30 2977 H 287.337 -1.56303 -0.96133 0
M  V30 2978 H 285.719 -1.68095 -3.58553 0
M  V30 2979 H 286.893 -4.11167 -2.08035 0
M  V30 2980 H 285.208 -3.64139 -2.0197 0
M  V30 2981 H 287.805 -2.67716 -4.62852 0
M  V30 2982 H 288.148 -1.07582 -4.02159 0
M  V30 2983 H 288.681 -2.49945 -3.09471 0
M  V30 2984 H 285.42 -5.44533 -3.64916 0
M  V30 2985 H 284.94 -3.96125 -4.50383 0
M  V30 2986 H 286.619 -4.54741 -4.60238 0
M  V30 2987 N 286.751 1.08385 -1.14413 0
M  V30 2988 C 287.991 1.8238 -0.922868 0
M  V30 2989 C 288.355 1.84225 0.540842 0
M  V30 2990 O 289.556 2.53985 0.880058 0
M  V30 2991 C 287.827 3.24048 -1.50757 0
M  V30 2992 S 289.386 4.14917 -1.4279 0
M  V30 2993 H 286.204 0.628524 -0.332384 0
M  V30 2994 H 288.806 1.30278 -1.45766 0
M  V30 2995 H 287.51 3.20288 -2.56601 0
M  V30 2996 H 287.041 3.81224 -0.971178 0
M  V30 2997 H 289.056 4.94473 -0.413582 0
M  V30 2998 N 288.23 0.939286 1.26551 0
M  V30 2999 C 289.476 0.586715 1.94128 0
M  V30 3000 C 289.809 -0.8717 1.73537 0
M  V30 3001 O 289.084 -1.62339 1.07127 0
M  V30 3002 C 289.367 0.927497 3.4795 0
M  V30 3003 C 289.22 2.44052 3.77834 0
M  V30 3004 C 290.539 0.441569 4.37879 0
M  V30 3005 H 287.658 0.21463 0.705055 0
M  V30 3006 H 290.3 1.17316 1.49455 0
M  V30 3007 H 288.45 0.428431 3.8613 0
M  V30 3008 H 290.122 3.01216 3.4938 0
M  V30 3009 H 288.365 2.8848 3.23978 0
M  V30 3010 H 289.036 2.62947 4.85348 0
M  V30 3011 H 291.512 0.869448 4.06915 0
M  V30 3012 H 290.388 0.708856 5.44304 0
M  V30 3013 H 290.649 -0.658467 4.37169 0
M  V30 3014 N 289.708 -1.40897 0.706093 0
M  V30 3015 C 290.671 -2.29131 0.0562841 0
M  V30 3016 C 291.671 -1.44901 -0.697166 0
M  V30 3017 O 292.861 -1.65926 -0.530484 0
M  V30 3018 C 289.993 -3.27957 -0.93043 0
M  V30 3019 H 291.186 -2.88091 0.833284 0
M  V30 3020 H 288.739 -1.4906 0.470192 0
M  V30 3021 H 289.474 -2.73997 -1.73482 0
M  V30 3022 H 289.259 -3.90124 -0.393166 0
M  V30 3023 H 290.749 -3.94049 -1.38256 0
M  V30 3024 N 291.186 -0.45159 -1.50991 0
M  V30 3025 C 292.602 -0.104647 -1.59257 0
M  V30 3026 C 292.802 1.38728 -1.4614 0
M  V30 3027 O 291.858 2.15866 -1.30989 0
M  V30 3028 C 293.171 -0.637468 -2.93865 0
M  V30 3029 C 294.719 -0.599166 -3.07212 0
M  V30 3030 C 295.194 -1.1092 -4.44366 0
M  V30 3031 N 296.685 -1.06778 -4.50725 0
M  V30 3032 C 297.42 -1.43314 -5.55201 0
M  V30 3033 N 296.916 -1.87204 -6.67028 0
M  V30 3034 N 298.709 -1.3504 -5.45638 0
M  V30 3035 H 290.86 -1.42214 -1.57762 0
M  V30 3036 H 293.123 -0.586921 -0.744465 0
M  V30 3037 H 292.829 -1.68187 -3.08879 0
M  V30 3038 H 292.703 -0.0702139 -3.77135 0
M  V30 3039 H 295.09 0.436277 -2.91857 0
M  V30 3040 H 295.171 -1.20299 -2.25747 0
M  V30 3041 H 294.815 -2.14318 -4.60467 0
M  V30 3042 H 294.745 -0.481773 -5.24392 0
M  V30 3043 H 297.236 -0.745643 -3.70471 0
M  V30 3044 H 297.549 -2.13282 -7.42786 0
M  V30 3045 H 295.894 -1.91142 -6.68199 0
M  V30 3046 H 299.085 -1.00607 -4.57161 0
M  V30 3047 H 299.258 -1.63841 -6.26945 0
M  V30 3048 N 292.664 1.56529 -0.183458 0
M  V30 3049 C 293.612 2.19873 0.758845 0
M  V30 3050 C 294.606 1.16638 1.22849 0
M  V30 3051 O 295.812 1.3481 1.19274 0
M  V30 3052 H 292.187 0.7045 0.263029 0
M  V30 3053 H 294.158 2.97724 0.200755 0
M  V30 3054 C 292.907 2.86314 1.9728 0
M  V30 3055 H 292.23 3.65487 1.62047 0
M  V30 3056 H 293.67 3.3409 2.61075 0
M  V30 3057 C 292.129 1.86729 2.80418 0
M  V30 3058 O 292.659 1.36031 3.77966 0
M  V30 3059 N 290.865 1.55216 2.45675 0
M  V30 3060 H 290.412 1.96636 1.66409 0
M  V30 3061 H 290.37 0.888388 3.01588 0
M  V30 3062 N 294.142 -0.090211 1.57342 0
M  V30 3063 C 295.553 -0.644173 1.75235 0
M  V30 3064 C 295.904 -1.78865 0.806335 0
M  V30 3065 O 295.029 -2.16395 -0.0140128 0
M  V30 3066 C 295.624 -1.17532 3.1776 0
M  V30 3067 C 294.183 -1.67531 3.37061 0
M  V30 3068 C 293.33 -0.58693 2.71017 0
M  V30 3069 H 296.281 0.135884 1.58117 0
M  V30 3070 H 296.302 -2.04455 3.20902 0
M  V30 3071 H 295.814 -0.342138 3.86589 0
M  V30 3072 H 293.915 -2.53234 2.73319 0
M  V30 3073 H 294.028 -1.76493 4.45406 0
M  V30 3074 H 292.392 -1.02756 2.33052 0
M  V30 3075 H 293.175 0.235758 3.4249 0
M  V30 3076 N 295.62 -1.53406 -0.361157 0
M  V30 3077 C 296.866 -1.70054 -1.10496 0
M  V30 3078 C 297.199 -0.453278 -1.88836 0
M  V30 3079 O 296.474 0.5495 -1.86576 0
M  V30 3080 C 296.757 -2.95317 -2.06058 0
M  V30 3081 C 296.61 -4.3021 -1.31298 0
M  V30 3082 C 297.929 -3.16193 -3.06121 0
M  V30 3083 H 295.048 -0.618799 -0.400321 0
M  V30 3084 H 297.69 -1.86052 -0.385318 0
M  V30 3085 H 295.84 -2.81809 -2.67425 0
M  V30 3086 H 297.512 -4.55538 -0.726807 0
M  V30 3087 H 295.755 -4.29421 -0.614853 0
M  V30 3088 H 296.426 -5.14 -2.01265 0
M  V30 3089 H 298.902 -3.28916 -2.5486 0
M  V30 3090 H 297.778 -4.05266 -3.70204 0
M  V30 3091 H 298.039 -2.31676 -3.76535 0
M  V30 3092 N 297.098 0.621204 -1.44841 0
M  V30 3093 C 298.323 1.41244 -1.51871 0
M  V30 3094 C 298.748 1.87519 -0.147764 0
M  V30 3095 O 298.106 1.59334 0.865 0
M  V30 3096 C 298.154 2.60221 -2.49634 0
M  V30 3097 O 297.258 3.60395 -2.00473 0
M  V30 3098 H 296.599 0.42223 -0.512463 0
M  V30 3099 H 299.129 0.757305 -1.90069 0
M  V30 3100 H 299.139 3.0764 -2.67996 0
M  V30 3101 H 297.814 2.25887 -3.4921 0
M  V30 3102 H 296.391 3.19717 -1.91925 0
M  V30 3103 N 298.576 1.31904 0.862503 0
M  V30 3104 C 299.992 1.10724 1.14945 0
M  V30 3105 C 300.192 -0.117421 2.01158 0
M  V30 3106 O 299.248 -0.804595 2.39338 0
M  V30 3107 C 300.561 2.38267 1.83437 0
M  V30 3108 C 302.109 2.43949 1.96106 0
M  V30 3109 C 302.584 3.71394 2.68013 0
M  V30 3110 N 304.075 3.72331 2.75543 0
M  V30 3111 C 304.81 4.67641 3.31812 0
M  V30 3112 N 304.306 5.73313 3.88953 0
M  V30 3113 N 306.099 4.5515 3.29841 0
M  V30 3114 H 298.25 2.10436 0.288191 0
M  V30 3115 H 300.513 0.928705 0.190292 0
M  V30 3116 H 300.219 3.27759 1.27542 0
M  V30 3117 H 300.093 2.48633 2.83657 0
M  V30 3118 H 302.48 1.54922 2.51164 0
M  V30 3119 H 302.561 2.37543 0.949059 0
M  V30 3120 H 302.205 4.60791 2.13621 0
M  V30 3121 H 302.135 3.75069 3.69636 0
M  V30 3122 H 304.626 2.95947 2.34997 0
M  V30 3123 H 304.939 6.42107 4.30022 0
M  V30 3124 H 303.284 5.77077 3.87308 0
M  V30 3125 H 306.475 3.71766 2.84443 0
M  V30 3126 H 306.648 5.29604 3.73394 0
M  V30 3127 N 300.054 -1.07777 1.14986 0
M  V30 3128 C 301.002 -2.16964 0.838406 0
M  V30 3129 C 301.996 -1.68372 -0.186386 0
M  V30 3130 O 303.202 -1.79951 -0.0418465 0
M  V30 3131 H 299.577 -0.708006 0.253439 0
M  V30 3132 H 301.548 -2.40454 1.76704 0
M  V30 3133 C 300.297 -3.4604 0.339335 0
M  V30 3134 H 299.62 -3.83813 1.11927 0
M  V30 3135 H 301.06 -4.23698 0.160021 0
M  V30 3136 C 299.519 -3.23569 -0.938325 0
M  V30 3137 O 300.049 -3.47752 -2.01077 0
M  V30 3138 N 298.255 -2.77079 -0.876117 0
M  V30 3139 H 297.802 -2.576 -0.00322037 0
M  V30 3140 H 297.76 -2.62422 -1.73153 0
M  V30 3141 N 301.532 -0.945985 -1.26051 0
M  V30 3142 C 302.779 -0.596118 -1.93527 0
M  V30 3143 C 303.107 0.865559 -1.74179 0
M  V30 3144 O 302.362 1.63524 -1.0751 0
M  V30 3145 C 302.661 -0.890475 -3.46129 0
M  V30 3146 C 302.327 -2.3368 -3.85622 0
M  V30 3147 C 300.989 -2.73216 -3.96114 0
M  V30 3148 C 303.341 -3.27648 -4.05334 0
M  V30 3149 C 300.669 -4.05806 -4.2372 0
M  V30 3150 C 303.021 -4.59841 -4.3443 0
M  V30 3151 C 301.685 -4.99185 -4.43137 0
M  V30 3152 H 300.955 -0.218135 -0.708165 0
M  V30 3153 H 303.602 -1.1934 -1.49768 0
M  V30 3154 H 301.907 -0.210711 -3.91233 0
M  V30 3155 H 303.604 -0.598478 -3.96509 0
M  V30 3156 H 300.194 -2.02015 -3.78005 0
M  V30 3157 H 304.378 -2.98298 -3.96651 0
M  V30 3158 H 299.634 -4.35945 -4.28675 0
M  V30 3159 H 303.808 -5.32641 -4.48628 0
M  V30 3160 H 301.435 -6.01952 -4.64282 0
M  V30 3161 N 303.011 1.40521 -0.713556 0
M  V30 3162 C 304.236 2.05759 -0.26035 0
M  V30 3163 C 304.661 1.53403 1.08854 0
M  V30 3164 O 304.019 0.668535 1.68524 0
M  V30 3165 C 304.067 3.59745 -0.248122 0
M  V30 3166 O 303.171 4.05123 0.77131 0
M  V30 3167 H 302.512 0.652564 -0.122703 0
M  V30 3168 H 305.042 1.79958 -0.973467 0
M  V30 3169 H 305.052 4.07911 -0.0851129 0
M  V30 3170 H 303.727 3.97218 -1.2325 0
M  V30 3171 H 302.304 3.68422 0.57619 0
M  V30 3172 N 304.489 0.459591 1.5075 0
M  V30 3173 C 305.714 -0.0996819 2.0716 0
M  V30 3174 C 306.139 -1.33761 1.32249 0
M  V30 3175 O 305.497 -1.77551 0.366786 0
M  V30 3176 C 305.545 -0.378226 3.58611 0
M  V30 3177 O 304.649 -1.46081 3.85661 0
M  V30 3178 H 303.99 0.00791392 0.663953 0
M  V30 3179 H 306.52 0.647329 1.9409 0
M  V30 3180 H 306.53 -0.622135 4.03229 0
M  V30 3181 H 305.205 0.526439 4.12555 0
M  V30 3182 H 303.782 -1.20511 3.5289 0
M  V30 3183 N 305.967 -1.56429 0.191757 0
M  V30 3184 C 307.378 -1.83912 -0.321428 0
M  V30 3185 C 307.729 -1.11231 -1.61623 0
M  V30 3186 O 306.854 -0.37202 -2.13178 0
M  V30 3187 C 307.449 -3.33624 -0.589961 0
M  V30 3188 C 306.008 -3.6153 -1.04753 0
M  V30 3189 C 305.155 -2.7714 -0.0943327 0
M  V30 3190 H 308.106 -1.53161 0.415612 0
M  V30 3191 H 308.127 -3.52213 -1.43966 0
M  V30 3192 H 307.639 -3.86495 0.352588 0
M  V30 3193 H 305.74 -3.14089 -2.00447 0
M  V30 3194 H 305.853 -4.69737 -0.942549 0
M  V30 3195 H 304.217 -2.47638 -0.595589 0
M  V30 3196 H 305 -3.32799 0.842601 0
M  V30 3197 N 307.445 0.0818655 -1.57387 0
M  V30 3198 C 308.694 0.781681 -1.85937 0
M  V30 3199 C 309.007 1.79246 -0.782957 0
M  V30 3200 O 310.213 2.54112 -0.955987 0
M  V30 3201 C 308.669 1.44109 -3.29789 0
M  V30 3202 C 308.277 0.469396 -4.45534 0
M  V30 3203 C 310.021 2.12386 -3.67549 0
M  V30 3204 C 307.928 1.13415 -5.80423 0
M  V30 3205 H 306.858 0.295682 -0.693605 0
M  V30 3206 H 309.509 0.0348051 -1.83467 0
M  V30 3207 H 307.891 2.23588 -3.2684 0
M  V30 3208 H 309.065 -0.294856 -4.59856 0
M  V30 3209 H 307.38 -0.108383 -4.16259 0
M  V30 3210 H 309.977 2.62878 -4.65617 0
M  V30 3211 H 310.32 2.91877 -2.96839 0
M  V30 3212 H 310.853 1.39751 -3.72444 0
M  V30 3213 H 307.592 0.379771 -6.54399 0
M  V30 3214 H 307.112 1.8695 -5.69921 0
M  V30 3215 H 308.791 1.65686 -6.25426 0
M  V30 3216 N 308.923 1.53595 0.353017 0
M  V30 3217 C 309.853 1.83902 1.43883 0
M  V30 3218 C 310.834 0.693421 1.55324 0
M  V30 3219 O 312.019 0.944452 1.69687 0
M  V30 3220 C 309.149 2.04016 2.8106 0
M  V30 3221 C 308.103 3.19814 2.84434 0
M  V30 3222 C 307.429 3.25244 4.24406 0
M  V30 3223 C 308.729 4.58133 2.50822 0
M  V30 3224 H 310.423 2.74835 1.1877 0
M  V30 3225 H 307.969 1.32242 0.569917 0
M  V30 3226 H 309.922 2.238 3.57059 0
M  V30 3227 H 308.646 1.09804 3.07588 0
M  V30 3228 H 307.305 2.9987 2.10887 0
M  V30 3229 H 306.953 2.28646 4.48029 0
M  V30 3230 H 306.653 4.03054 4.27576 0
M  V30 3231 H 308.177 3.47228 5.0226 0
M  V30 3232 H 309.591 4.77995 3.16534 0
M  V30 3233 H 307.988 5.38276 2.6529 0
M  V30 3234 H 309.058 4.62387 1.46034 0
M  V30 3235 N 310.401 -0.613514 1.45168 0
M  V30 3236 C 311.364 -1.7065 1.53007 0
M  V30 3237 C 312.364 -1.5548 0.410184 0
M  V30 3238 O 313.554 -1.60656 0.673455 0
M  V30 3239 C 310.686 -3.09875 1.42093 0
M  V30 3240 H 311.879 -1.65068 2.50385 0
M  V30 3241 H 309.432 -0.828728 1.32521 0
M  V30 3242 H 310.167 -3.21039 0.458769 0
M  V30 3243 H 309.952 -3.22293 2.23315 0
M  V30 3244 H 311.442 -3.895 1.50598 0
M  V30 3245 N 311.879 -1.3236 -0.855495 0
M  V30 3246 C 313.295 -1.11332 -1.14356 0
M  V30 3247 C 313.495 0.106751 -2.01217 0
M  V30 3248 O 312.551 0.791891 -2.39761 0
M  V30 3249 C 313.864 -2.39237 -1.82171 0
M  V30 3250 C 315.412 -2.44986 -1.9481 0
M  V30 3251 C 315.887 -3.7281 -2.66039 0
M  V30 3252 N 317.378 -3.73787 -2.73565 0
M  V30 3253 C 318.113 -4.69394 -3.29327 0
M  V30 3254 N 317.609 -5.75367 -3.85907 0
M  V30 3255 N 319.402 -4.56893 -3.27423 0
M  V30 3256 H 311.553 -2.10586 -0.277027 0
M  V30 3257 H 313.816 -0.929701 -0.185364 0
M  V30 3258 H 313.522 -3.28431 -1.25802 0
M  V30 3259 H 313.396 -2.50134 -2.82335 0
M  V30 3260 H 315.783 -1.56252 -2.50338 0
M  V30 3261 H 315.864 -2.38043 -0.936448 0
M  V30 3262 H 315.508 -4.61918 -2.11174 0
M  V30 3263 H 315.438 -3.77024 -3.67642 0
M  V30 3264 H 317.929 -2.97189 -2.33424 0
M  V30 3265 H 318.242 -6.44378 -4.26611 0
M  V30 3266 H 316.587 -5.79123 -3.84242 0
M  V30 3267 H 319.778 -3.73269 -2.82467 0
M  V30 3268 H 319.951 -5.31577 -3.7058 0
M  V30 3269 N 313.357 1.07166 -1.15556 0
M  V30 3270 C 314.304 2.14417 -0.854055 0
M  V30 3271 C 315.274 1.64965 0.193806 0
M  V30 3272 O 316.459 1.90703 0.0609443 0
M  V30 3273 C 313.599 3.43304 -0.351574 0
M  V30 3274 C 312.712 4.06537 -1.46123 0
M  V30 3275 C 311.847 5.23266 -0.914677 0
M  V30 3276 C 310.886 5.78464 -2.00114 0
M  V30 3277 N 310.023 6.86521 -1.47083 0
M  V30 3278 H 314.863 2.39548 -1.77259 0
M  V30 3279 H 312.4 1.17543 -0.884425 0
M  V30 3280 H 314.358 4.17179 -0.0419409 0
M  V30 3281 H 312.988 3.18419 0.530037 0
M  V30 3282 H 312.04 3.30297 -1.88701 0
M  V30 3283 H 313.352 4.43567 -2.28144 0
M  V30 3284 H 312.506 6.04131 -0.557698 0
M  V30 3285 H 311.245 4.87658 -0.0636583 0
M  V30 3286 H 310.25 4.96243 -2.36692 0
M  V30 3287 H 311.475 6.16126 -2.85597 0
M  V30 3288 H 309.421 6.52849 -0.642198 0
M  V30 3289 H 309.338 7.22446 -2.22729 0
M  V30 3290 H 310.606 7.71087 -1.14215 0
M  V30 3291 N 314.835 0.952656 1.25548 0
M  V30 3292 C 315.765 0.489287 2.28316 0
M  V30 3293 C 316.746 -0.463359 1.63667 0
M  V30 3294 O 317.931 -0.36274 1.90782 0
M  V30 3295 C 315.061 -0.235603 3.465 0
M  V30 3296 C 314.015 0.631593 4.23314 0
M  V30 3297 C 313.341 -0.223923 5.34231 0
M  V30 3298 C 314.641 1.90871 4.86174 0
M  V30 3299 H 316.335 1.34822 2.67326 0
M  V30 3300 H 313.881 0.649728 1.28509 0
M  V30 3301 H 315.834 -0.570882 4.17515 0
M  V30 3302 H 314.558 -1.12877 3.06474 0
M  V30 3303 H 313.217 0.949929 3.54079 0
M  V30 3304 H 312.865 -1.11678 4.90446 0
M  V30 3305 H 312.565 0.35299 5.86539 0
M  V30 3306 H 314.089 -0.554214 6.0808 0
M  V30 3307 H 315.503 1.63997 5.49343 0
M  V30 3308 H 313.9 2.43112 5.4865 0
M  V30 3309 H 314.97 2.61304 4.08471 0
M  V30 3310 N 316.313 -1.40141 0.720998 0
M  V30 3311 C 317.553 -2.02644 0.267335 0
M  V30 3312 C 317.917 -1.55948 -1.12001 0
M  V30 3313 O 319.118 -2.10552 -1.67097 0
M  V30 3314 C 317.389 -3.55679 0.350281 0
M  V30 3315 S 318.948 -4.38793 -0.0256004 0
M  V30 3316 H 315.766 -0.703105 0.105664 0
M  V30 3317 H 318.368 -1.71175 0.944416 0
M  V30 3318 H 317.072 -3.87157 1.36153 0
M  V30 3319 H 316.603 -3.91883 -0.345096 0
M  V30 3320 H 318.618 -4.803 -1.24604 0
M  V30 3321 N 317.792 -0.46758 -1.50504 0
M  V30 3322 C 318.702 0.33382 -2.32213 0
M  V30 3323 C 319.718 0.999323 -1.42441 0
M  V30 3324 O 320.894 0.988068 -1.75497 0
M  V30 3325 C 317.959 1.4035 -3.17022 0
M  V30 3326 C 317.02 0.754961 -4.2261 0
M  V30 3327 C 316.253 1.77367 -5.03365 0
M  V30 3328 O 316.476 2.99976 -4.8515 0
M  V30 3329 O 315.41 1.34744 -5.86624 0
M  V30 3330 H 319.236 -0.334067 -3.01857 0
M  V30 3331 H 316.821 -0.229496 -1.47627 0
M  V30 3332 H 318.703 2.02318 -3.69656 0
M  V30 3333 H 317.378 2.05492 -2.5011 0
M  V30 3334 H 316.285 0.0964244 -3.73976 0
M  V30 3335 H 317.618 0.146545 -4.91982 0
M  V30 3336 N 319.27 1.56325 -0.20005 0
M  V30 3337 C 320.518 1.97329 0.436547 0
M  V30 3338 C 320.839 1.08826 1.61808 0
M  V30 3339 O 320.109 0.160604 1.95241 0
M  V30 3340 H 318.689 0.728714 0.164272 0
M  V30 3341 H 321.351 1.92761 -0.287937 0
M  V30 3342 H 320.447 3.02264 0.777353 0
M  V30 3343 N 320.748 -0.0735177 1.57428 0
M  V30 3344 C 321.711 -1.07192 2.02589 0
M  V30 3345 C 322.711 -1.31695 0.922661 0
M  V30 3346 O 323.901 -1.27445 1.18758 0
M  V30 3347 C 321.033 -2.41599 2.40506 0
M  V30 3348 H 322.226 -0.682727 2.92025 0
M  V30 3349 H 319.779 -0.319193 1.53006 0
M  V30 3350 H 320.514 -2.85354 1.5409 0
M  V30 3351 H 320.299 -2.25156 3.21009 0
M  V30 3352 H 321.789 -3.13367 2.76027 0
M  V30 3353 N 322.226 -1.5378 -0.344866 0
M  V30 3354 C 323.189 -1.80981 -1.40637 0
M  V30 3355 C 324.189 -0.680816 -1.45676 0
M  V30 3356 O 325.379 -0.949095 -1.46075 0
M  V30 3357 C 322.511 -1.95063 -2.79577 0
M  V30 3358 H 323.704 -2.75803 -1.17783 0
M  V30 3359 H 321.257 -1.45173 -0.579181 0
M  V30 3360 H 321.992 -1.02379 -3.07716 0
M  V30 3361 H 321.777 -2.77198 -2.77315 0
M  V30 3362 H 323.267 -2.17629 -3.56409 0
M  V30 3363 N 323.704 0.605807 -1.45491 0
M  V30 3364 C 324.981 1.36522 -1.40075 0
M  V30 3365 C 325.361 2.10976 -0.0722744 0
M  V30 3366 O 324.709 2.08007 0.945808 0
M  V30 3367 C 324.919 2.31056 -2.61561 0
M  V30 3368 C 326.267 2.93608 -3.06724 0
M  V30 3369 O 327.291 2.41376 -2.61946 0
M  V30 3370 O 326.15 3.88421 -3.84437 0
M  V30 3371 H 323.244 0.612248 -0.555951 0
M  V30 3372 H 325.79 0.628747 -1.57623 0
M  V30 3373 H 324.562 1.75311 -3.49831 0
M  V30 3374 H 324.185 3.12081 -2.46356 0
M  V30 3375 N 325.182 1.32811 0.848464 0
M  V30 3376 C 326.459 1.14334 1.58704 0
M  V30 3377 C 326.839 -0.293948 2.09043 0
M  V30 3378 O 326.187 -1.29153 1.88499 0
M  V30 3379 C 326.397 2.17626 2.72837 0
M  V30 3380 C 327.745 2.51282 3.42261 0
M  V30 3381 O 328.769 2.16219 2.83068 0
M  V30 3382 O 327.628 3.11413 4.49093 0
M  V30 3383 H 324.722 0.441601 0.699226 0
M  V30 3384 H 327.268 1.44362 0.892053 0
M  V30 3385 H 326.04 3.14211 2.3321 0
M  V30 3386 H 325.663 1.88628 3.50008 0
M  V30 3387 N 326.66 -1.06551 1.16123 0
M  V30 3388 C 328.071 -1.60768 0.949232 0
M  V30 3389 C 328.422 -1.89523 -0.507508 0
M  V30 3390 O 327.547 -1.66671 -1.38021 0
M  V30 3391 C 328.142 -2.92086 1.71671 0
M  V30 3392 C 326.701 -3.43015 1.54977 0
M  V30 3393 C 325.848 -2.16947 1.72711 0
M  V30 3394 H 328.799 -0.895354 1.31031 0
M  V30 3395 H 328.82 -3.6138 1.19099 0
M  V30 3396 H 328.332 -2.71127 2.7769 0
M  V30 3397 H 326.433 -3.69039 0.513873 0
M  V30 3398 H 326.546 -4.18516 2.33198 0
M  V30 3399 H 324.91 -2.27041 1.15431 0
M  V30 3400 H 325.693 -1.98473 2.80113 0
M  V30 3401 N 328.138 -0.959301 -1.25041 0
M  V30 3402 C 329.415 -0.533805 -1.88175 0
M  V30 3403 C 329.795 0.988994 -1.865 0
M  V30 3404 O 329.143 1.85677 -1.33177 0
M  V30 3405 C 329.353 -1.11575 -3.30684 0
M  V30 3406 C 330.701 -1.19548 -4.07423 0
M  V30 3407 O 331.725 -1.06765 -3.39823 0
M  V30 3408 O 330.584 -1.39656 -5.28354 0
M  V30 3409 H 327.678 -0.176772 -0.807887 0
M  V30 3410 H 330.224 -1.05303 -1.33076 0
M  V30 3411 H 328.996 -2.15884 -3.26358 0
M  V30 3412 H 328.619 -0.580059 -3.93346 0
M  V30 3413 N 329.616 1.39756 -0.72842 0
M  V30 3414 C 330.841 2.05472 -0.282159 0
M  V30 3415 C 331.266 1.54549 1.07221 0
M  V30 3416 O 330.624 0.686372 1.67805 0
M  V30 3417 C 330.672 3.59462 -0.286264 0
M  V30 3418 O 329.776 4.05918 0.728298 0
M  V30 3419 H 329.117 0.651226 -0.129618 0
M  V30 3420 H 331.647 1.78915 -0.992499 0
M  V30 3421 H 331.657 4.07798 -0.128373 0
M  V30 3422 H 330.332 3.95889 -1.27456 0
M  V30 3423 H 328.909 3.69012 0.537081 0
M  V30 3424 N 331.094 0.475555 1.50254 0
M  V30 3425 C 332.319 -0.0777042 2.07254 0
M  V30 3426 C 332.744 -1.3235 1.3366 0
M  V30 3427 O 332.102 -1.77152 0.385597 0
M  V30 3428 C 332.15 -0.340169 3.58992 0
M  V30 3429 O 331.254 -1.41982 3.87188 0
M  V30 3430 H 330.595 0.0149556 0.663832 0
M  V30 3431 H 333.125 0.667878 1.93392 0
M  V30 3432 H 333.135 -0.579332 4.03866 0
M  V30 3433 H 331.81 0.570167 4.11973 0
M  V30 3434 H 330.387 -1.16762 3.54148 0
M  V30 3435 N 332.573 -1.56217 0.208337 0
M  V30 3436 C 333.506 -2.15633 -0.746842 0
M  V30 3437 C 334.484 -1.09685 -1.20034 0
M  V30 3438 O 335.668 -1.3787 -1.28547 0
M  V30 3439 C 332.795 -2.72594 -2.01023 0
M  V30 3440 C 331.841 -3.91251 -1.69779 0
M  V30 3441 S 332.674 -5.28962 -0.834209 0
M  V30 3442 C 333.83 -5.89353 -2.10745 0
M  V30 3443 H 334.063 -2.96315 -0.241789 0
M  V30 3444 H 331.596 -1.54398 -0.00682183 0
M  V30 3445 H 333.554 -3.06053 -2.73572 0
M  V30 3446 H 332.215 -1.91929 -2.48641 0
M  V30 3447 H 331.408 -4.29562 -2.63614 0
M  V30 3448 H 331.01 -3.58869 -1.05303 0
M  V30 3449 H 333.302 -6.04522 -3.05875 0
M  V30 3450 H 334.245 -6.85661 -1.76845 0
M  V30 3451 H 334.653 -5.1807 -2.24196 0
M  V30 3452 N 334.051 0.0651679 -1.57465 0
M  V30 3453 C 335.297 0.764193 -1.87851 0
M  V30 3454 C 335.63 1.76889 -0.801495 0
M  V30 3455 O 334.905 1.93594 0.187528 0
M  V30 3456 C 335.188 1.46625 -3.28897 0
M  V30 3457 C 335.041 0.477515 -4.47258 0
M  V30 3458 C 336.36 2.4095 -3.68281 0
M  V30 3459 H 333.479 0.276351 -0.683227 0
M  V30 3460 H 336.121 0.0272868 -1.8998 0
M  V30 3461 H 334.271 2.09438 -3.27212 0
M  V30 3462 H 335.943 -0.145922 -4.61069 0
M  V30 3463 H 334.186 -0.206576 -4.33308 0
M  V30 3464 H 334.857 1.0065 -5.42746 0
M  V30 3465 H 337.333 1.88209 -3.71102 0
M  V30 3466 H 336.209 2.87072 -4.67847 0
M  V30 3467 H 336.47 3.26049 -2.98571 0
M  V30 3468 N 335.529 1.53961 0.336706 0
M  V30 3469 C 336.459 1.85417 1.41925 0
M  V30 3470 C 337.44 0.709856 1.5458 0
M  V30 3471 O 338.625 0.962396 1.68676 0
M  V30 3472 C 335.755 2.06985 2.78881 0
M  V30 3473 C 334.709 3.22813 2.81026 0
M  V30 3474 C 334.035 3.29727 4.20932 0
M  V30 3475 C 335.335 4.60767 2.45949 0
M  V30 3476 H 337.029 2.76079 1.15848 0
M  V30 3477 H 334.575 1.32839 0.555859 0
M  V30 3478 H 336.528 2.27575 3.54665 0
M  V30 3479 H 335.252 1.13061 3.06406 0
M  V30 3480 H 333.911 3.0209 2.07695 0
M  V30 3481 H 333.559 2.33385 4.45579 0
M  V30 3482 H 333.259 4.07566 4.23277 0
M  V30 3483 H 334.783 3.52536 4.98549 0
M  V30 3484 H 336.197 4.81325 3.11446 0
M  V30 3485 H 334.594 5.4106 2.59566 0
M  V30 3486 H 335.664 4.6391 1.41122 0
M  V30 3487 N 337.007 -0.598083 1.45811 0
M  V30 3488 C 337.937 -1.71873 1.58057 0
M  V30 3489 C 338.918 -1.64533 0.431615 0
M  V30 3490 O 340.103 -1.82787 0.65595 0
M  V30 3491 C 337.233 -3.10495 1.55597 0
M  V30 3492 C 336.187 -3.32654 2.69305 0
M  V30 3493 C 335.513 -4.71646 2.51902 0
M  V30 3494 C 336.813 -3.21981 4.11248 0
M  V30 3495 H 338.507 -1.61881 2.51863 0
M  V30 3496 H 336.053 -0.777372 1.21214 0
M  V30 3497 H 338.006 -3.88699 1.6276 0
M  V30 3498 H 336.73 -3.2135 0.583255 0
M  V30 3499 H 335.389 -2.56843 2.61586 0
M  V30 3500 H 335.037 -4.79246 1.52748 0
M  V30 3501 H 334.737 -4.87426 3.2816 0
M  V30 3502 H 336.261 -5.52038 2.60933 0
M  V30 3503 H 337.675 -3.90049 4.20161 0
M  V30 3504 H 336.072 -3.49289 4.87972 0
M  V30 3505 H 337.142 -2.1928 4.32486 0
M  V30 3506 N 338.485 -1.33259 -0.841409 0
M  V30 3507 C 339.725 -1.25902 -1.61022 0
M  V30 3508 C 340.089 0.173325 -1.91216 0
M  V30 3509 O 341.29 0.370824 -2.6623 0
M  V30 3510 C 339.561 -2.10735 -2.88662 0
M  V30 3511 S 341.12 -2.20541 -3.79351 0
M  V30 3512 H 337.938 -0.447958 -0.552137 0
M  V30 3513 H 340.54 -1.68263 -0.995382 0
M  V30 3514 H 339.244 -3.1384 -2.64448 0
M  V30 3515 H 338.775 -1.69201 -3.55154 0
M  V30 3516 H 340.79 -1.36462 -4.77067 0
M  V30 3517 N 339.963 1.05934 -1.16686 0
M  V30 3518 C 340.893 2.1546 -0.899949 0
M  V30 3519 C 341.874 1.69391 0.155154 0
M  V30 3520 O 343.059 1.94199 0.00648693 0
M  V30 3521 C 340.189 3.44939 -0.404241 0
M  V30 3522 C 339.143 4.04536 -1.39767 0
M  V30 3523 C 338.469 5.29268 -0.760216 0
M  V30 3524 C 339.769 4.42893 -2.76845 0
M  V30 3525 H 341.463 2.38046 -1.81588 0
M  V30 3526 H 339.009 1.14404 -0.874514 0
M  V30 3527 H 340.962 4.20901 -0.204971 0
M  V30 3528 H 339.686 3.21983 0.547206 0
M  V30 3529 H 338.345 3.30635 -1.58355 0
M  V30 3530 H 337.993 5.02611 0.197831 0
M  V30 3531 H 337.693 5.70101 -1.42332 0
M  V30 3532 H 339.217 6.07924 -0.57105 0
M  V30 3533 H 340.631 5.09921 -2.62019 0
M  V30 3534 H 339.028 4.94721 -3.39663 0
M  V30 3535 H 340.098 3.53584 -3.31823 0
M  V30 3536 N 341.441 0.965919 1.2453 0
M  V30 3537 C 342.371 0.513476 2.27784 0
M  V30 3538 C 343.352 -0.445974 1.6415 0
M  V30 3539 O 344.537 -0.342485 1.91156 0
M  V30 3540 C 341.667 -0.198839 3.4673 0
M  V30 3541 C 340.621 0.676456 4.2262 0
M  V30 3542 C 339.947 -0.167248 5.34438 0
M  V30 3543 C 341.247 1.96017 4.84123 0
M  V30 3544 H 342.941 1.3765 2.65881 0
M  V30 3545 H 340.487 0.663321 1.27813 0
M  V30 3546 H 342.44 -0.526567 4.18097 0
M  V30 3547 H 341.164 -1.0962 3.07654 0
M  V30 3548 H 339.823 0.98743 3.53052 0
M  V30 3549 H 339.471 -1.0647 4.91603 0
M  V30 3550 H 339.171 0.415181 5.86131 0
M  V30 3551 H 340.695 -0.489688 6.08633 0
M  V30 3552 H 342.109 1.69814 5.47573 0
M  V30 3553 H 340.506 2.48918 5.4604 0
M  V30 3554 H 341.576 2.65622 4.05676 0
M  V30 3555 N 342.919 -1.39368 0.735821 0
M  V30 3556 C 343.849 -2.33234 0.111506 0
M  V30 3557 C 344.83 -1.53954 -0.723334 0
M  V30 3558 O 346.015 -1.82344 -0.668147 0
M  V30 3559 C 343.145 -3.38057 -0.795917 0
M  V30 3560 C 342.099 -4.2795 -0.065172 0
M  V30 3561 C 341.425 -5.23479 -1.08967 0
M  V30 3562 C 342.725 -5.10741 1.09273 0
M  V30 3563 H 344.419 -2.85692 0.895571 0
M  V30 3564 H 341.965 -1.37364 0.432109 0
M  V30 3565 H 343.918 -4.02675 -1.24221 0
M  V30 3566 H 342.642 -2.8404 -1.61211 0
M  V30 3567 H 341.301 -3.64813 0.361511 0
M  V30 3568 H 340.949 -4.65758 -1.89944 0
M  V30 3569 H 340.649 -5.84472 -0.605489 0
M  V30 3570 H 342.173 -5.90974 -1.53565 0
M  V30 3571 H 343.587 -5.68699 0.724841 0
M  V30 3572 H 341.984 -5.8088 1.50659 0
M  V30 3573 H 343.054 -4.45525 1.91404 0
M  V30 3574 N 344.397 -0.483516 -1.5 0
M  V30 3575 C 345.643 0.0672592 -2.02688 0
M  V30 3576 C 345.976 1.38247 -1.36387 0
M  V30 3577 O 345.251 1.88131 -0.493675 0
M  V30 3578 C 345.534 0.238109 -3.59312 0
M  V30 3579 C 345.387 -1.099 -4.36168 0
M  V30 3580 C 346.706 0.986916 -4.28892 0
M  V30 3581 H 343.825 0.0229696 -0.736642 0
M  V30 3582 H 346.467 -0.631527 -1.79197 0
M  V30 3583 H 344.617 0.8333 -3.79458 0
M  V30 3584 H 346.289 -1.73172 -4.27562 0
M  V30 3585 H 344.532 -1.69261 -3.99416 0
M  V30 3586 H 345.203 -0.932954 -5.44059 0
M  V30 3587 H 347.679 0.482302 -4.13295 0
M  V30 3588 H 346.555 1.07527 -5.38265 0
M  V30 3589 H 346.816 2.0265 -3.92919 0
M  V30 3590 N 345.875 1.56104 -0.216619 0
M  V30 3591 C 347.286 1.844 0.292128 0
M  V30 3592 C 347.637 1.13788 1.59833 0
M  V30 3593 O 346.762 0.405888 2.12559 0
M  V30 3594 C 347.357 3.3452 0.53681 0
M  V30 3595 C 345.916 3.63151 0.989876 0
M  V30 3596 C 345.063 2.77255 0.0502302 0
M  V30 3597 H 348.014 1.52481 -0.439926 0
M  V30 3598 H 348.035 3.54459 1.38345 0
M  V30 3599 H 347.547 3.85885 -0.414031 0
M  V30 3600 H 345.648 3.17238 1.95425 0
M  V30 3601 H 345.761 4.71177 0.867698 0
M  V30 3602 H 344.125 2.48555 0.556117 0
M  V30 3603 H 344.908 3.31416 -0.89544 0
M  V30 3604 N 347.353 -0.0568162 1.57498 0
M  V30 3605 C 348.283 -1.06593 2.0775 0
M  V30 3606 C 349.264 -1.39448 0.974082 0
M  V30 3607 O 350.449 -1.48815 1.24771 0
M  V30 3608 C 347.579 -2.37509 2.5339 0
M  V30 3609 C 346.533 -2.1897 3.67745 0
M  V30 3610 C 345.859 -3.55402 3.99492 0
M  V30 3611 C 347.159 -1.59859 4.97235 0
M  V30 3612 H 348.853 -0.647706 2.9231 0
M  V30 3613 H 346.399 -0.310116 1.40621 0
M  V30 3614 H 348.352 -3.08409 2.87162 0
M  V30 3615 H 347.076 -2.8134 1.65878 0
M  V30 3616 H 345.735 -1.50508 3.3428 0
M  V30 3617 H 345.383 -3.9683 3.09088 0
M  V30 3618 H 345.083 -3.43831 4.76502 0
M  V30 3619 H 346.607 -4.27708 4.35773 0
M  V30 3620 H 348.021 -2.20642 5.29141 0
M  V30 3621 H 346.418 -1.58942 5.78669 0
M  V30 3622 H 347.488 -0.561506 4.81638 0
M  V30 3623 N 348.832 -1.54138 -0.328536 0
M  V30 3624 C 349.762 -1.86167 -1.40939 0
M  V30 3625 C 350.743 -0.718044 -1.54202 0
M  V30 3626 O 351.928 -0.971328 -1.68163 0
M  V30 3627 C 349.058 -2.08461 -2.77779 0
M  V30 3628 C 348.012 -3.24299 -2.7931 0
M  V30 3629 C 347.338 -3.31955 -4.19178 0
M  V30 3630 C 348.638 -4.62065 -2.43502 0
M  V30 3631 H 350.332 -2.76689 -1.14383 0
M  V30 3632 H 347.878 -1.33132 -0.548806 0
M  V30 3633 H 349.831 -2.29453 -3.53454 0
M  V30 3634 H 348.555 -1.14684 -3.05802 0
M  V30 3635 H 347.214 -3.03187 -2.0609 0
M  V30 3636 H 346.862 -2.35745 -4.44335 0
M  V30 3637 H 346.562 -4.09805 -4.2111 0
M  V30 3638 H 348.086 -3.55175 -4.96672 0
M  V30 3639 H 349.5 -4.8297 -3.08889 0
M  V30 3640 H 347.897 -5.42429 -2.56693 0
M  V30 3641 H 348.967 -4.64652 -1.38659 0
M  V30 3642 N 350.31 0.590341 -1.46126 0
M  V30 3643 C 351.24 1.71032 -1.58966 0
M  V30 3644 C 352.221 1.64302 -0.440335 0
M  V30 3645 O 353.406 1.82436 -0.665634 0
M  V30 3646 C 350.536 3.09665 -1.57241 0
M  V30 3647 C 349.49 3.31221 -2.71066 0
M  V30 3648 C 348.816 4.70303 -2.54399 0
M  V30 3649 C 350.116 3.19796 -4.1295 0
M  V30 3650 H 351.81 1.60543 -2.52718 0
M  V30 3651 H 349.356 0.770933 -1.21625 0
M  V30 3652 H 351.309 3.87831 -1.64819 0
M  V30 3653 H 350.033 3.21036 -0.600289 0
M  V30 3654 H 348.692 2.55452 -2.62944 0
M  V30 3655 H 348.34 4.78429 -1.55288 0
M  V30 3656 H 348.04 4.85679 -3.30741 0
M  V30 3657 H 349.564 5.50647 -2.63857 0
M  V30 3658 H 350.978 3.87815 -4.22223 0
M  V30 3659 H 349.375 3.46696 -4.89818 0
M  V30 3660 H 350.445 2.16983 -4.33643 0
M  V30 3661 N 351.788 1.33704 0.83433 0
M  V30 3662 C 353.013 1.28615 1.62705 0
M  V30 3663 C 353.438 -0.139242 1.87584 0
M  V30 3664 O 352.796 -1.09734 1.4432 0
M  V30 3665 C 352.844 2.07139 2.95171 0
M  V30 3666 O 351.948 1.4331 3.86699 0
M  V30 3667 H 351.289 0.44226 0.49528 0
M  V30 3668 H 353.819 1.76335 1.03766 0
M  V30 3669 H 353.829 2.18073 3.44831 0
M  V30 3670 H 352.504 3.10779 2.76386 0
M  V30 3671 H 351.081 1.4105 3.45195 0
M  V30 3672 N 353.266 -1.05314 1.17247 0
M  V30 3673 C 354.196 -2.1498 0.911362 0
M  V30 3674 C 355.177 -1.69471 -0.146169 0
M  V30 3675 O 356.362 -1.942 0.003812 0
M  V30 3676 C 353.492 -3.4472 0.422528 0
M  V30 3677 C 352.446 -4.03789 1.4191 0
M  V30 3678 C 351.772 -5.28858 0.788274 0
M  V30 3679 C 353.072 -4.41418 2.7919 0
M  V30 3680 H 354.766 -2.3708 1.82848 0
M  V30 3681 H 352.312 -1.13938 0.880569 0
M  V30 3682 H 354.265 -4.20787 0.227289 0
M  V30 3683 H 352.989 -3.22269 -0.530123 0
M  V30 3684 H 351.648 -3.2979 1.60106 0
M  V30 3685 H 351.296 -5.02709 -0.171173 0
M  V30 3686 H 350.996 -5.69338 1.45353 0
M  V30 3687 H 352.52 -6.07612 0.603282 0
M  V30 3688 H 353.934 -5.08524 2.64719 0
M  V30 3689 H 352.331 -4.92913 3.42282 0
M  V30 3690 H 353.401 -3.51819 3.33693 0
M  V30 3691 N 354.744 -0.972509 -1.24016 0
M  V30 3692 C 355.991 -0.637034 -1.92219 0
M  V30 3693 C 356.319 0.828418 -1.75976 0
M  V30 3694 O 355.574 1.61206 -1.10955 0
M  V30 3695 C 355.873 -0.963694 -3.44162 0
M  V30 3696 C 355.539 -2.41807 -3.80579 0
M  V30 3697 C 354.201 -2.81556 -3.9023 0
M  V30 3698 C 356.553 -3.36172 -3.98293 0
M  V30 3699 C 353.881 -4.14702 -4.15017 0
M  V30 3700 C 356.233 -4.68952 -4.24578 0
M  V30 3701 C 354.897 -5.08472 -4.32449 0
M  V30 3702 H 354.167 -0.233107 -0.703379 0
M  V30 3703 H 356.814 -1.2249 -1.47202 0
M  V30 3704 H 355.119 -0.29365 -3.90698 0
M  V30 3705 H 356.816 -0.682449 -3.9515 0
M  V30 3706 H 353.406 -2.09988 -3.73635 0
M  V30 3707 H 357.59 -3.06644 -3.90234 0
M  V30 3708 H 352.846 -4.4494 -4.19331 0
M  V30 3709 H 357.02 -5.42037 -4.37229 0
M  V30 3710 H 354.647 -6.11665 -4.51409 0
M  V30 3711 N 356.222 1.38976 -0.743202 0
M  V30 3712 C 357.468 2.0064 -0.295189 0
M  V30 3713 C 357.801 1.5885 1.11716 0
M  V30 3714 O 357.076 0.821181 1.76315 0
M  V30 3715 C 357.359 3.578 -0.406318 0
M  V30 3716 C 357.212 4.09586 -1.85903 0
M  V30 3717 C 358.531 4.39616 0.206439 0
M  V30 3718 H 355.65 0.728935 -0.108733 0
M  V30 3719 H 358.292 1.65067 -0.940897 0
M  V30 3720 H 356.442 3.88235 0.143419 0
M  V30 3721 H 358.114 3.89837 -2.46627 0
M  V30 3722 H 356.357 3.6284 -2.3776 0
M  V30 3723 H 357.028 5.18708 -1.888 0
M  V30 3724 H 359.504 4.15273 -0.262283 0
M  V30 3725 H 358.38 5.48812 0.0983819 0
M  V30 3726 H 358.641 4.22754 1.2935 0
M  V30 3727 N 357.7 0.491464 1.49741 0
M  V30 3728 C 358.63 -0.28154 2.31796 0
M  V30 3729 C 359.611 -0.971473 1.3963 0
M  V30 3730 O 360.796 -0.964719 1.68543 0
M  V30 3731 C 357.926 -1.35203 3.19902 0
M  V30 3732 C 356.88 -0.782529 4.20786 0
M  V30 3733 C 356.206 -1.95283 4.97764 0
M  V30 3734 C 357.506 0.21999 5.21837 0
M  V30 3735 H 359.2 0.403355 2.96671 0
M  V30 3736 H 356.746 0.195425 1.42668 0
M  V30 3737 H 358.699 -1.90045 3.76113 0
M  V30 3738 H 357.423 -2.06598 2.52953 0
M  V30 3739 H 356.082 -0.255928 3.65706 0
M  V30 3740 H 355.73 -2.65423 4.2727 0
M  V30 3741 H 355.43 -1.57789 5.66018 0
M  V30 3742 H 356.954 -2.50577 5.56816 0
M  V30 3743 H 358.368 -0.23996 5.72798 0
M  V30 3744 H 356.765 0.51026 5.97927 0
M  V30 3745 H 357.835 1.13911 4.7133 0
M  V30 3746 N 359.178 -1.55987 0.224894 0
M  V30 3747 C 360.426 -1.97998 -0.405099 0
M  V30 3748 C 360.747 -1.11387 -1.60056 0
M  V30 3749 O 360.017 -0.191645 -1.9496 0
M  V30 3750 H 358.597 -0.731235 -0.152658 0
M  V30 3751 H 361.259 -1.92279 0.318567 0
M  V30 3752 H 360.355 -3.03463 -0.729167 0
M  V30 3753 N 360.656 0.0484629 -1.57525 0
M  V30 3754 C 361.586 1.0549 -2.08313 0
M  V30 3755 C 362.567 1.38929 -0.981463 0
M  V30 3756 O 363.752 1.48151 -1.25558 0
M  V30 3757 C 360.882 2.36162 -2.54646 0
M  V30 3758 C 359.836 2.17016 -3.68901 0
M  V30 3759 C 359.162 3.53278 -4.01371 0
M  V30 3760 C 360.462 1.57219 -4.98076 0
M  V30 3761 H 362.156 0.632195 -2.92649 0
M  V30 3762 H 359.702 0.302654 -1.40784 0
M  V30 3763 H 361.655 3.06882 -2.88793 0
M  V30 3764 H 360.379 2.80456 -1.67368 0
M  V30 3765 H 359.038 1.48733 -3.35073 0
M  V30 3766 H 358.686 3.95185 -3.11188 0
M  V30 3767 H 358.386 3.41299 -4.78318 0
M  V30 3768 H 359.91 4.25391 -4.38035 0
M  V30 3769 H 361.324 2.17832 -5.30304 0
M  V30 3770 H 359.721 1.55871 -5.79503 0
M  V30 3771 H 360.791 0.535956 -4.81929 0
M  V30 3772 N 362.134 1.5431 0.320358 0
M  V30 3773 C 363.381 1.72668 1.05792 0
M  V30 3774 C 363.709 0.502084 1.87908 0
M  V30 3775 O 362.964 -0.516149 1.88771 0
M  V30 3776 C 363.263 2.95639 2.00828 0
M  V30 3777 C 362.929 4.30265 1.34843 0
M  V30 3778 C 361.591 4.66865 1.16578 0
M  V30 3779 C 363.943 5.13801 0.875095 0
M  V30 3780 C 361.271 5.84597 0.496336 0
M  V30 3781 C 363.623 6.32219 0.219463 0
M  V30 3782 C 362.287 6.67495 0.0246915 0
M  V30 3783 H 361.557 0.631837 0.387121 0
M  V30 3784 H 364.204 1.88552 0.334735 0
M  V30 3785 H 362.509 2.74456 2.79609 0
M  V30 3786 H 364.206 3.07038 2.57932 0
M  V30 3787 H 360.796 4.01472 1.50061 0
M  V30 3788 H 364.98 4.86039 1.00398 0
M  V30 3789 H 360.236 6.10486 0.334264 0
M  V30 3790 H 364.41 6.96227 -0.155291 0
M  V30 3791 H 362.037 7.5858 -0.496065 0
M  V30 3792 N 363.613 -0.582584 1.46437 0
M  V30 3793 C 364.543 -1.70187 1.59871 0
M  V30 3794 C 365.524 -1.64066 0.449042 0
M  V30 3795 O 366.709 -1.82081 0.6753 0
M  V30 3796 C 363.839 -3.08827 1.58881 0
M  V30 3797 C 362.793 -3.29779 2.72819 0
M  V30 3798 C 362.119 -4.68947 2.5689 0
M  V30 3799 C 363.419 -3.17601 4.1464 0
M  V30 3800 H 365.113 -1.592 2.53566 0
M  V30 3801 H 362.659 -0.764472 1.22032 0
M  V30 3802 H 364.612 -3.86951 1.66873 0
M  V30 3803 H 363.336 -3.20713 0.617306 0
M  V30 3804 H 361.995 -2.54054 2.64296 0
M  V30 3805 H 361.643 -4.77599 1.57823 0
M  V30 3806 H 361.343 -4.83919 3.33312 0
M  V30 3807 H 362.867 -5.4924 2.66773 0
M  V30 3808 H 364.281 -3.8557 4.24274 0
M  V30 3809 H 362.678 -3.44094 4.9165 0
M  V30 3810 H 363.748 -2.14681 4.34788 0
M  V30 3811 N 365.091 -1.34144 -0.827227 0
M  V30 3812 C 366.337 -1.27455 -1.58515 0
M  V30 3813 C 366.692 0.155271 -1.91772 0
M  V30 3814 O 365.985 1.10042 -1.56848 0
M  V30 3815 C 366.179 -2.09464 -2.89585 0
M  V30 3816 C 366.008 -3.60276 -2.69131 0
M  V30 3817 C 364.778 -4.29565 -2.66087 0
M  V30 3818 C 366.976 -4.54367 -2.40947 0
M  V30 3819 N 364.958 -5.66252 -2.37132 0
M  V30 3820 C 366.329 -5.79027 -2.21648 0
M  V30 3821 C 368.384 -4.43327 -2.26639 0
M  V30 3822 C 367.087 -6.93891 -1.89492 0
M  V30 3823 C 369.113 -5.58019 -1.95878 0
M  V30 3824 C 368.475 -6.81695 -1.774 0
M  V30 3825 H 364.574 -0.521614 -0.582617 0
M  V30 3826 H 367.158 -1.68811 -0.970105 0
M  V30 3827 H 365.329 -1.70411 -3.49019 0
M  V30 3828 H 367.061 -1.94453 -3.54923 0
M  V30 3829 H 363.816 -3.81959 -2.80008 0
M  V30 3830 H 364.24 -6.38338 -2.25507 0
M  V30 3831 H 368.882 -3.48333 -2.39633 0
M  V30 3832 H 366.6 -7.88871 -1.75236 0
M  V30 3833 H 370.186 -5.5142 -1.85546 0
M  V30 3834 H 369.066 -7.68942 -1.53941 0
M  V30 3835 N 366.569 1.04691 -1.17803 0
M  V30 3836 C 367.816 1.77782 -0.969532 0
M  V30 3837 C 368.144 1.87926 0.501401 0
M  V30 3838 O 367.399 1.37918 1.38842 0
M  V30 3839 C 367.698 3.21467 -1.56186 0
M  V30 3840 C 367.364 3.3137 -3.05786 0
M  V30 3841 C 366.026 3.3378 -3.46619 0
M  V30 3842 C 368.378 3.31976 -4.01797 0
M  V30 3843 C 365.706 3.34431 -4.82051 0
M  V30 3844 C 368.058 3.34167 -5.37136 0
M  V30 3845 C 366.722 3.34866 -5.77426 0
M  V30 3846 H 365.992 0.650549 -0.354777 0
M  V30 3847 H 368.639 1.23006 -1.46772 0
M  V30 3848 H 366.944 3.79203 -0.985515 0
M  V30 3849 H 368.641 3.76652 -1.37602 0
M  V30 3850 H 365.231 3.3021 -2.73238 0
M  V30 3851 H 369.415 3.29311 -3.71306 0
M  V30 3852 H 364.671 3.33285 -5.12573 0
M  V30 3853 H 368.845 3.33585 -6.11305 0
M  V30 3854 H 366.472 3.35124 -6.82346 0
M  V30 3855 N 368.047 0.979072 1.23499 0
M  V30 3856 C 368.977 0.537606 2.27227 0
M  V30 3857 C 369.958 -0.428539 1.64613 0
M  V30 3858 O 371.143 -0.322191 1.91509 0
M  V30 3859 C 368.273 -0.162052 3.46922 0
M  V30 3860 C 367.227 0.721242 4.21879 0
M  V30 3861 C 366.553 -0.110555 5.34586 0
M  V30 3862 C 367.853 2.01141 4.82016 0
M  V30 3863 H 369.547 1.40462 2.64406 0
M  V30 3864 H 367.093 0.67684 1.27102 0
M  V30 3865 H 369.046 -0.482192 4.18632 0
M  V30 3866 H 367.77 -1.06351 3.08799 0
M  V30 3867 H 366.429 1.02482 3.51984 0
M  V30 3868 H 366.077 -1.0125 4.92704 0
M  V30 3869 H 365.777 0.477325 5.85658 0
M  V30 3870 H 367.301 -0.425107 6.09118 0
M  V30 3871 H 368.715 1.75612 5.45741 0
M  V30 3872 H 367.112 2.54695 5.43369 0
M  V30 3873 H 368.182 2.69909 4.02836 0
M  V30 3874 N 369.525 -1.3858 0.750561 0
M  V30 3875 C 370.472 -2.30483 0.120835 0
M  V30 3876 C 371.442 -1.50022 -0.712923 0
M  V30 3877 O 372.627 -1.78662 -0.669676 0
M  V30 3878 C 369.767 -3.36431 -0.768666 0
M  V30 3879 C 368.88 -4.31927 0.0793922 0
M  V30 3880 C 368.015 -5.24944 -0.81283 0
M  V30 3881 C 367.054 -6.12088 0.0390447 0
M  V30 3882 N 366.191 -6.97412 -0.809969 0
M  V30 3883 H 371.031 -2.83761 0.91015 0
M  V30 3884 H 368.568 -1.39707 0.460463 0
M  V30 3885 H 370.526 -3.96462 -1.29898 0
M  V30 3886 H 369.156 -2.8457 -1.5238 0
M  V30 3887 H 368.208 -3.73382 0.727303 0
M  V30 3888 H 369.52 -4.93319 0.737401 0
M  V30 3889 H 368.674 -5.90078 -1.41042 0
M  V30 3890 H 367.413 -4.63911 -1.50458 0
M  V30 3891 H 366.418 -5.45952 0.649328 0
M  V30 3892 H 367.643 -6.75189 0.727809 0
M  V30 3893 H 365.589 -6.38931 -1.48672 0
M  V30 3894 H 365.506 -7.55712 -0.208789 0
M  V30 3895 H 366.774 -7.66959 -1.39263 0
M  V30 3896 N 371.003 -0.499398 -1.49478 0
M  V30 3897 C 372.419 -0.155261 -1.58843 0
M  V30 3898 C 372.619 1.34008 -1.50479 0
M  V30 3899 O 371.675 2.11589 -1.37791 0
M  V30 3900 C 372.988 -0.730636 -2.91689 0
M  V30 3901 C 374.536 -0.696599 -3.0515 0
M  V30 3902 C 375.011 -1.25001 -4.40612 0
M  V30 3903 N 376.502 -1.21064 -4.47099 0
M  V30 3904 C 377.237 -1.60905 -5.50361 0
M  V30 3905 N 376.733 -2.08331 -6.60735 0
M  V30 3906 N 378.526 -1.52331 -5.41065 0
M  V30 3907 H 370.677 -1.47162 -1.53158 0
M  V30 3908 H 372.94 -0.610309 -0.725415 0
M  V30 3909 H 372.646 -1.77928 -3.03372 0
M  V30 3910 H 372.52 -0.190161 -3.7672 0
M  V30 3911 H 374.907 0.343204 -2.93097 0
M  V30 3912 H 374.988 -1.2742 -2.21806 0
M  V30 3913 H 374.632 -2.28859 -4.53416 0
M  V30 3914 H 374.562 -0.64836 -5.22593 0
M  V30 3915 H 377.053 -0.863128 -3.67911 0
M  V30 3916 H 377.366 -2.36805 -7.35624 0
M  V30 3917 H 375.711 -2.12304 -6.6178 0
M  V30 3918 H 378.902 -1.151 -4.53729 0
M  V30 3919 H 379.075 -1.83704 -6.21415 0
M  V30 3920 N 372.481 1.55866 -0.233164 0
M  V30 3921 C 373.391 2.24431 0.683217 0
M  V30 3922 C 374.407 1.2558 1.2044 0
M  V30 3923 O 375.583 1.58422 1.24356 0
M  V30 3924 C 372.648 2.91979 1.86947 0
M  V30 3925 C 371.709 4.06204 1.38912 0
M  V30 3926 C 370.942 4.70522 2.51883 0
M  V30 3927 O 371.165 4.33865 3.70293 0
M  V30 3928 O 370.099 5.59296 2.22423 0
M  V30 3929 H 373.925 3.03426 0.129059 0
M  V30 3930 H 371.51 1.494 -0.0022283 0
M  V30 3931 H 373.392 3.34573 2.56201 0
M  V30 3932 H 372.067 2.15935 2.41151 0
M  V30 3933 H 370.974 3.68155 0.664259 0
M  V30 3934 H 372.307 4.84025 0.893328 0
M  V30 3935 N 373.959 -0.0401083 1.57549 0
M  V30 3936 C 375.375 -0.395556 1.54621 0
M  V30 3937 C 375.575 -1.77281 0.957799 0
M  V30 3938 O 374.631 -2.45888 0.574031 0
M  V30 3939 C 375.944 -0.307535 2.99123 0
M  V30 3940 C 377.492 -0.385425 3.10618 0
M  V30 3941 C 377.967 -0.326973 4.56831 0
M  V30 3942 N 379.458 -0.386102 4.61588 0
M  V30 3943 C 380.193 -0.363591 5.72246 0
M  V30 3944 N 379.689 -0.29402 6.92176 0
M  V30 3945 N 381.482 -0.412503 5.60584 0
M  V30 3946 H 373.633 0.861325 1.94152 0
M  V30 3947 H 375.896 0.326445 0.890021 0
M  V30 3948 H 375.602 0.638461 3.45856 0
M  V30 3949 H 375.476 -1.10552 3.60636 0
M  V30 3950 H 377.863 -1.32185 2.63839 0
M  V30 3951 H 377.944 0.44171 2.51957 0
M  V30 3952 H 377.588 0.605738 5.04275 0
M  V30 3953 H 377.518 -1.17207 5.13391 0
M  V30 3954 H 380.009 -0.442832 3.75296 0
M  V30 3955 H 380.322 -0.28164 7.72287 0
M  V30 3956 H 378.667 -0.260232 6.94513 0
M  V30 3957 H 381.858 -0.464769 4.65787 0
M  V30 3958 H 382.031 -0.391492 6.46816 0
M  V30 3959 N 375.437 -1.54477 -0.31217 0
M  V30 3960 C 376.369 -1.81011 -1.40598 0
M  V30 3961 C 377.382 -0.692546 -1.47335 0
M  V30 3962 O 378.571 -0.969847 -1.49854 0
M  V30 3963 C 375.671 -1.92307 -2.79054 0
M  V30 3964 C 374.844 -3.22594 -2.95384 0
M  V30 3965 C 373.903 -3.24448 -4.1427 0
M  V30 3966 O 372.929 -3.98035 -4.06887 0
M  V30 3967 N 374.131 -2.49042 -5.24365 0
M  V30 3968 H 376.896 -2.75408 -1.18196 0
M  V30 3969 H 374.457 -1.53914 -0.502202 0
M  V30 3970 H 376.449 -1.90962 -3.56813 0
M  V30 3971 H 375.019 -1.04955 -2.94454 0
M  V30 3972 H 374.239 -3.36806 -2.04831 0
M  V30 3973 H 375.527 -4.08593 -3.03198 0
M  V30 3974 H 374.925 -1.88867 -5.33241 0
M  V30 3975 H 373.482 -2.53463 -6.005 0
M  V30 3976 N 376.915 0.57481 -1.46744 0
M  V30 3977 C 377.825 1.711 -1.60505 0
M  V30 3978 C 378.841 1.67008 -0.488307 0
M  V30 3979 O 380.017 1.86774 -0.753495 0
M  V30 3980 C 377.082 3.07608 -1.59932 0
M  V30 3981 C 376.143 3.22904 -2.82898 0
M  V30 3982 C 375.376 4.529 -2.82343 0
M  V30 3983 O 375.599 5.37278 -1.91542 0
M  V30 3984 O 374.533 4.71611 -3.73987 0
M  V30 3985 H 378.359 1.62436 -2.56609 0
M  V30 3986 H 375.944 0.742779 -1.29627 0
M  V30 3987 H 377.826 3.88877 -1.62336 0
M  V30 3988 H 376.501 3.16692 -0.669898 0
M  V30 3989 H 375.408 2.41099 -2.86046 0
M  V30 3990 H 376.741 3.18715 -3.75076 0
M  V30 3991 N 378.394 1.34581 0.820102 0
M  V30 3992 C 379.304 1.28471 1.96297 0
M  V30 3993 C 380.32 0.191902 1.72939 0
M  V30 3994 O 381.496 0.418879 1.96996 0
M  V30 3995 C 378.561 1.04281 3.30645 0
M  V30 3996 C 377.622 2.22745 3.66992 0
M  V30 3997 C 376.855 1.997 4.9493 0
M  V30 3998 O 377.078 0.956656 5.6232 0
M  V30 3999 O 376.012 2.86723 5.2922 0
M  V30 4000 H 379.838 2.24624 2.04396 0
M  V30 4001 H 377.423 1.14816 0.955913 0
M  V30 4002 H 379.305 0.925841 4.11104 0
M  V30 4003 H 377.98 0.111697 3.23507 0
M  V30 4004 H 376.887 2.40003 2.86966 0
M  V30 4005 H 378.22 3.14257 3.78819 0
M  V30 4006 N 379.872 -1.04064 1.18357 0
M  V30 4007 C 381.102 -1.80654 1.00238 0
M  V30 4008 C 381.51 -1.83713 -0.452362 0
M  V30 4009 O 380.853 -1.27135 -1.32599 0
M  V30 4010 C 380.915 -3.27582 1.48088 0
M  V30 4011 C 380.579 -3.48184 2.96002 0
M  V30 4012 C 381.576 -3.39372 3.93856 0
M  V30 4013 C 379.261 -3.7478 3.34433 0
M  V30 4014 C 381.255 -3.5686 5.28138 0
M  V30 4015 C 378.942 -3.91915 4.68877 0
M  V30 4016 C 379.94 -3.82956 5.65539 0
M  V30 4017 O 379.628 -3.996 6.97549 0
M  V30 4018 H 379.36 -0.575751 0.354241 0
M  V30 4019 H 381.914 -1.32044 1.57333 0
M  V30 4020 H 380.144 -3.77161 0.853588 0
M  V30 4021 H 381.833 -3.8573 1.2636 0
M  V30 4022 H 382.599 -3.18789 3.65511 0
M  V30 4023 H 378.478 -3.80852 2.59756 0
M  V30 4024 H 382.022 -3.49783 6.03571 0
M  V30 4025 H 377.919 -4.11992 4.96923 0
M  V30 4026 H 378.687 -4.1676 7.04452 0
M  V30 4027 N 381.35 -0.985608 -1.22978 0
M  V30 4028 C 382.599 -0.652881 -1.90841 0
M  V30 4029 C 382.912 0.817842 -1.77681 0
M  V30 4030 O 384.118 1.26185 -2.40395 0
M  V30 4031 C 382.574 -1.11717 -3.42122 0
M  V30 4032 C 382.182 -2.6126 -3.63933 0
M  V30 4033 C 383.926 -0.85843 -4.1573 0
M  V30 4034 C 381.833 -3.0133 -5.08876 0
M  V30 4035 H 380.763 -0.240491 -0.714619 0
M  V30 4036 H 383.414 -1.1942 -1.39324 0
M  V30 4037 H 381.796 -0.504027 -3.92779 0
M  V30 4038 H 382.97 -3.27858 -3.23799 0
M  V30 4039 H 381.285 -2.84937 -3.03644 0
M  V30 4040 H 383.882 -1.13359 -5.22546 0
M  V30 4041 H 384.225 0.205461 -4.15793 0
M  V30 4042 H 384.758 -1.43341 -3.71077 0
M  V30 4043 H 381.497 -4.06864 -5.13947 0
M  V30 4044 H 381.017 -2.3943 -5.49939 0
M  V30 4045 H 382.696 -2.92224 -5.77247 0
M  V30 4046 N 382.828 1.3818 -0.7579 0
M  V30 4047 C 383.738 2.3421 -0.135247 0
M  V30 4048 C 384.754 1.59487 0.695683 0
M  V30 4049 O 385.93 1.91657 0.618832 0
M  V30 4050 C 382.995 3.3862 0.744139 0
M  V30 4051 C 382.056 4.2918 -0.101658 0
M  V30 4052 C 381.289 5.28603 0.735851 0
M  V30 4053 O 381.512 5.35166 1.97366 0
M  V30 4054 O 380.446 6.01707 0.152372 0
M  V30 4055 H 384.272 2.8916 -0.928436 0
M  V30 4056 H 381.857 1.40101 -0.518855 0
M  V30 4057 H 383.739 4.02539 1.2466 0
M  V30 4058 H 382.414 2.86019 1.51575 0
M  V30 4059 H 381.321 3.68407 -0.650167 0
M  V30 4060 H 382.654 4.85048 -0.836024 0
M  V30 4061 N 384.306 0.507319 1.49211 0
M  V30 4062 C 385.216 -0.272136 2.33016 0
M  V30 4063 C 386.232 -0.961206 1.45041 0
M  V30 4064 O 387.408 -0.941191 1.78055 0
M  V30 4065 C 384.473 -1.31895 3.20631 0
M  V30 4066 C 383.534 -0.642648 4.24463 0
M  V30 4067 C 382.767 -1.63959 5.07891 0
M  V30 4068 O 382.99 -2.87007 4.92933 0
M  V30 4069 O 381.924 -1.19143 5.8999 0
M  V30 4070 H 385.75 0.413982 3.00865 0
M  V30 4071 H 383.335 0.268556 1.46966 0
M  V30 4072 H 385.217 -1.92446 3.7489 0
M  V30 4073 H 383.892 -1.98788 2.5547 0
M  V30 4074 H 382.799 0.00276252 3.741 0
M  V30 4075 H 384.132 -0.0160534 4.92197 0
M  V30 4076 N 385.784 -1.5574 0.241426 0
M  V30 4077 C 386.731 -2.21149 -0.660432 0
M  V30 4078 C 387.701 -1.17356 -1.17545 0
M  V30 4079 O 388.886 -1.45784 -1.23093 0
M  V30 4080 C 386.026 -2.91059 -1.85414 0
M  V30 4081 C 385.139 -4.09495 -1.37616 0
M  V30 4082 C 384.274 -4.67135 -2.529 0
M  V30 4083 C 383.313 -5.77831 -2.01936 0
M  V30 4084 N 382.45 -6.29677 -3.10566 0
M  V30 4085 H 387.29 -2.97845 -0.095955 0
M  V30 4086 H 384.827 -1.47057 -0.0356024 0
M  V30 4087 H 386.785 -3.29788 -2.5553 0
M  V30 4088 H 385.415 -2.16846 -2.39118 0
M  V30 4089 H 384.467 -3.76117 -0.569235 0
M  V30 4090 H 385.779 -4.89423 -0.962618 0
M  V30 4091 H 384.933 -5.08409 -3.31067 0
M  V30 4092 H 383.672 -3.86411 -2.97553 0
M  V30 4093 H 382.677 -5.36039 -1.22238 0
M  V30 4094 H 383.902 -6.60402 -1.58259 0
M  V30 4095 H 381.848 -5.5186 -3.54664 0
M  V30 4096 H 381.765 -7.04783 -2.73526 0
M  V30 4097 H 383.033 -6.75609 -3.88809 0
M  V30 4098 N 387.262 0.0317525 -1.57568 0
M  V30 4099 C 388.209 1.0332 -2.06382 0
M  V30 4100 C 389.179 1.36082 -0.952414 0
M  V30 4101 O 390.364 1.46466 -1.2228 0
M  V30 4102 C 387.504 2.32989 -2.54578 0
M  V30 4103 C 386.617 2.0641 -3.79498 0
M  V30 4104 C 385.752 3.2993 -4.16317 0
M  V30 4105 C 384.791 2.98893 -5.34162 0
M  V30 4106 N 383.928 4.14857 -5.66426 0
M  V30 4107 H 388.768 0.609982 -2.9169 0
M  V30 4108 H 386.305 0.289573 -1.44222 0
M  V30 4109 H 388.263 3.0875 -2.80587 0
M  V30 4110 H 386.893 2.73039 -1.7219 0
M  V30 4111 H 385.945 1.21158 -3.6059 0
M  V30 4112 H 387.257 1.79513 -4.65378 0
M  V30 4113 H 386.411 4.1406 -4.4344 0
M  V30 4114 H 385.15 3.59938 -3.29083 0
M  V30 4115 H 384.155 2.13164 -5.06795 0
M  V30 4116 H 385.38 2.70165 -6.23047 0
M  V30 4117 H 383.326 4.44821 -4.82151 0
M  V30 4118 H 383.243 3.91374 -6.4681 0
M  V30 4119 H 384.511 4.99868 -5.98124 0
M  V30 4120 N 388.74 1.54641 0.303973 0
M  V30 4121 C 390.156 1.45788 0.649463 0
M  V30 4122 C 390.356 0.64666 1.90842 0
M  V30 4123 O 389.412 0.153183 2.52035 0
M  V30 4124 C 390.725 2.89718 0.805227 0
M  V30 4125 C 392.273 2.99742 0.901305 0
M  V30 4126 C 392.748 4.44863 1.08909 0
M  V30 4127 N 394.239 4.48559 1.15536 0
M  V30 4128 C 394.974 5.58026 1.3189 0
M  V30 4129 N 394.47 6.77422 1.45161 0
M  V30 4130 N 396.263 5.45708 1.34755 0
M  V30 4131 H 388.414 2.05854 -0.523237 0
M  V30 4132 H 390.677 0.932186 -0.172431 0
M  V30 4133 H 390.383 3.51666 -0.0489108 0
M  V30 4134 H 390.257 3.36964 1.69513 0
M  V30 4135 H 392.644 2.3791 1.74593 0
M  V30 4136 H 392.725 2.55797 -0.0125531 0
M  V30 4137 H 392.369 5.07288 0.249241 0
M  V30 4138 H 392.299 4.86436 2.01713 0
M  V30 4139 H 394.79 3.6254 1.06646 0
M  V30 4140 H 395.103 7.56604 1.57387 0
M  V30 4141 H 393.448 6.80292 1.42223 0
M  V30 4142 H 396.639 4.51378 1.23996 0
M  V30 4143 H 396.812 6.3107 1.47157 0
M  V30 4144 N 390.218 -0.567019 1.47046 0
M  V30 4145 C 391.464 -1.32658 1.53394 0
M  V30 4146 C 391.797 -1.93254 0.19148 0
M  V30 4147 O 391.072 -1.77338 -0.798844 0
M  V30 4148 C 391.355 -2.44412 2.64452 0
M  V30 4149 C 391.208 -1.88749 4.08282 0
M  V30 4150 C 392.527 -3.46387 2.71485 0
M  V30 4151 H 389.646 -0.48098 0.558415 0
M  V30 4152 H 392.288 -0.635481 1.79058 0
M  V30 4153 H 390.438 -3.03363 2.427 0
M  V30 4154 H 392.11 -1.34134 4.41368 0
M  V30 4155 H 390.353 -1.19481 4.17021 0
M  V30 4156 H 391.024 -2.69491 4.81745 0
M  V30 4157 H 393.5 -2.9734 2.91081 0
M  V30 4158 H 392.376 -4.2202 3.50985 0
M  V30 4159 H 392.637 -4.04616 1.78153 0
M  V30 4160 N 391.696 -1.35014 -0.812953 0
M  V30 4161 C 392.973 -1.18502 -1.55617 0
M  V30 4162 C 393.353 0.238421 -2.09749 0
M  V30 4163 O 392.701 1.2411 -1.91857 0
M  V30 4164 C 392.911 -2.24783 -2.66971 0
M  V30 4165 C 394.259 -2.60268 -3.35478 0
M  V30 4166 O 395.283 -2.23648 -2.77236 0
M  V30 4167 O 394.142 -3.2321 -4.40678 0
M  V30 4168 H 391.236 -0.459984 -0.687272 0
M  V30 4169 H 393.782 -1.46677 -0.853464 0
M  V30 4170 H 392.554 -3.20284 -2.24798 0
M  V30 4171 H 392.177 -1.97841 -3.44884 0
M  V30 4172 N 393.175 1.03435 -1.18907 0
M  V30 4173 C 394.424 1.76143 -0.982669 0
M  V30 4174 C 394.737 1.89416 0.487953 0
M  V30 4175 O 395.943 2.59041 0.813036 0
M  V30 4176 C 394.399 3.16722 -1.70924 0
M  V30 4177 C 394.007 3.11522 -3.21959 0
M  V30 4178 C 395.751 3.93764 -1.58588 0
M  V30 4179 C 393.658 4.46999 -3.87228 0
M  V30 4180 H 392.588 0.660292 -0.364047 0
M  V30 4181 H 395.239 1.158 -1.42347 0
M  V30 4182 H 393.621 3.775 -1.19623 0
M  V30 4183 H 394.795 2.60158 -3.80335 0
M  V30 4184 H 393.11 2.47978 -3.34508 0
M  V30 4185 H 395.707 4.93963 -2.04707 0
M  V30 4186 H 396.05 4.12794 -0.539142 0
M  V30 4187 H 396.583 3.39576 -2.07203 0
M  V30 4188 H 393.322 4.33174 -4.91976 0
M  V30 4189 H 392.842 4.98441 -3.33642 0
M  V30 4190 H 394.521 5.15898 -3.90459 0
M  V30 4191 N 394.653 0.992116 1.22453 0
M  V30 4192 C 395.893 0.675727 1.92907 0
M  V30 4193 C 396.257 -0.777762 1.75542 0
M  V30 4194 O 397.458 -1.20553 2.40251 0
M  V30 4195 C 395.729 1.0696 3.4102 0
M  V30 4196 S 397.288 0.871456 4.30059 0
M  V30 4197 H 394.106 0.247089 0.666684 0
M  V30 4198 H 396.708 1.27423 1.48269 0
M  V30 4199 H 395.412 2.12383 3.51172 0
M  V30 4200 H 394.943 0.462858 3.90668 0
M  V30 4201 H 396.958 -0.238436 4.95627 0
M  V30 4202 N 396.131 -1.37776 0.765217 0
M  V30 4203 C 397.547 -1.53297 0.444108 0
M  V30 4204 C 397.747 -1.72515 -1.04119 0
M  V30 4205 O 396.803 -1.74278 -1.82711 0
M  V30 4206 C 398.116 -2.73328 1.25349 0
M  V30 4207 C 399.664 -2.87185 1.24473 0
M  V30 4208 C 400.139 -4.10191 2.03733 0
M  V30 4209 N 401.63 -4.17291 2.01053 0
M  V30 4210 C 402.365 -5.11488 2.59166 0
M  V30 4211 N 401.861 -6.11285 3.26041 0
M  V30 4212 N 403.654 -5.03924 2.49032 0
M  V30 4213 H 395.805 -1.23552 1.72768 0
M  V30 4214 H 398.068 -0.601103 0.733062 0
M  V30 4215 H 397.774 -2.6557 2.30577 0
M  V30 4216 H 397.648 -3.66834 0.87823 0
M  V30 4217 H 400.035 -2.94418 0.20047 0
M  V30 4218 H 400.116 -1.94657 1.65959 0
M  V30 4219 H 399.76 -4.0372 3.08176 0
M  V30 4220 H 399.69 -5.01821 1.59633 0
M  V30 4221 H 402.181 -3.45825 1.5236 0
M  V30 4222 H 402.494 -6.79678 3.67774 0
M  V30 4223 H 400.839 -6.11583 3.30138 0
M  V30 4224 H 404.03 -4.24902 1.96407 0
M  V30 4225 H 404.203 -5.77152 2.94617 0
M  V30 4226 N 397.609 -0.515225 -1.4894 0
M  V30 4227 C 398.519 0.259774 -2.33157 0
M  V30 4228 C 399.535 0.953501 -1.45548 0
M  V30 4229 O 400.711 0.931735 -1.78552 0
M  V30 4230 C 397.776 1.30193 -3.21326 0
M  V30 4231 C 396.837 0.620129 -4.24797 0
M  V30 4232 C 396.07 1.61263 -5.08753 0
M  V30 4233 O 396.293 2.84389 -4.94448 0
M  V30 4234 O 395.227 1.16013 -5.90614 0
M  V30 4235 H 399.053 -0.429932 -3.00641 0
M  V30 4236 H 396.638 -0.276346 -1.46822 0
M  V30 4237 H 398.52 1.90455 -3.75905 0
M  V30 4238 H 397.195 1.97431 -2.56521 0
M  V30 4239 H 396.102 -0.0226019 -3.74093 0
M  V30 4240 H 397.435 -0.0100493 -4.92199 0
M  V30 4241 N 399.087 1.5561 -0.249682 0
M  V30 4242 C 400.315 2.03411 0.378352 0
M  V30 4243 C 400.73 1.12886 1.51335 0
M  V30 4244 O 400.087 0.143833 1.81932 0
M  V30 4245 C 400.138 3.50537 0.88351 0
M  V30 4246 O 399.859 4.37614 -0.20626 0
M  V30 4247 C 401.36 4.14113 1.58195 0
M  V30 4248 H 398.58 0.664994 0.08958 0
M  V30 4249 H 401.124 2.01044 -0.374357 0
M  V30 4250 H 399.279 3.5343 1.58639 0
M  V30 4251 H 399.693 5.24199 0.177782 0
M  V30 4252 H 401.167 5.18741 1.8871 0
M  V30 4253 H 401.644 3.60767 2.50487 0
M  V30 4254 H 402.25 4.15151 0.923573 0
M  V30 4255 N 400.565 -0.0233959 1.57583 0
M  V30 4256 C 401.976 -0.56927 1.77809 0
M  V30 4257 C 402.327 -1.75284 0.881472 0
M  V30 4258 O 401.452 -2.1626 0.0777805 0
M  V30 4259 C 402.047 -1.03949 3.22459 0
M  V30 4260 C 400.606 -1.53084 3.43864 0
M  V30 4261 C 399.753 -0.471454 2.73263 0
M  V30 4262 H 402.704 0.202825 1.57399 0
M  V30 4263 H 402.725 -1.90661 3.29285 0
M  V30 4264 H 402.237 -0.177865 3.87692 0
M  V30 4265 H 400.338 -2.41414 2.83814 0
M  V30 4266 H 400.451 -1.57443 4.52491 0
M  V30 4267 H 398.815 -0.927788 2.37201 0
M  V30 4268 H 399.598 0.380808 3.41181 0
M  V30 4269 N 402.043 -1.548 -0.295768 0
M  V30 4270 C 402.991 -1.86874 -1.38495 0
M  V30 4271 C 403.985 -0.742938 -1.52239 0
M  V30 4272 O 405.191 -0.926999 -1.54294 0
M  V30 4273 H 401.566 -0.592786 -0.462719 0
M  V30 4274 H 403.537 -2.77904 -1.08682 0
M  V30 4275 C 402.286 -2.13732 -2.74252 0
M  V30 4276 H 401.609 -2.99835 -2.64459 0
M  V30 4277 H 403.049 -2.4011 -3.49461 0
M  V30 4278 C 401.508 -0.937539 -3.23592 0
M  V30 4279 O 402.038 -0.160665 -4.01379 0
M  V30 4280 N 400.244 -0.741478 -2.80981 0
M  V30 4281 H 399.791 -1.37489 -2.1784 0
M  V30 4282 H 399.749 0.0597103 -3.14343 0
M  V30 4283 N 403.521 0.559213 -1.47345 0
M  V30 4284 C 404.77 1.31281 -1.53128 0
M  V30 4285 C 405.083 1.94602 -0.197344 0
M  V30 4286 O 406.289 2.71173 -0.133154 0
M  V30 4287 C 404.745 2.38051 -2.69925 0
M  V30 4288 C 404.353 1.8093 -4.0984 0
M  V30 4289 C 406.097 3.14604 -2.84999 0
M  V30 4290 C 404.004 2.85468 -5.1794 0
M  V30 4291 H 402.934 0.493614 -0.569966 0
M  V30 4292 H 405.585 0.594155 -1.73615 0
M  V30 4293 H 403.967 3.12822 -2.42814 0
M  V30 4294 H 405.141 1.12544 -4.46845 0
M  V30 4295 H 403.456 1.16967 -3.99634 0
M  V30 4296 H 406.053 3.92666 -3.62929 0
M  V30 4297 H 406.396 3.68665 -1.93369 0
M  V30 4298 H 406.929 2.46945 -3.1187 0
M  V30 4299 H 403.668 2.36264 -6.1144 0
M  V30 4300 H 403.188 3.52269 -4.85455 0
M  V30 4301 H 404.867 3.48996 -5.44803 0
M  V30 4302 N 404.999 1.35443 0.805782 0
M  V30 4303 C 406.239 1.30127 1.57627 0
M  V30 4304 C 406.603 -0.122567 1.91608 0
M  V30 4305 O 407.804 -0.300107 2.67119 0
M  V30 4306 C 406.075 2.18314 2.82973 0
M  V30 4307 S 407.634 2.30521 3.7337 0
M  V30 4308 H 404.452 0.462439 0.540066 0
M  V30 4309 H 407.054 1.70843 0.95042 0
M  V30 4310 H 405.758 3.20741 2.56034 0
M  V30 4311 H 405.289 1.78558 3.50543 0
M  V30 4312 H 407.304 1.49062 4.73281 0
M  V30 4313 N 406.477 -1.02803 1.19454 0
M  V30 4314 C 407.888 -1.57667 0.999899 0
M  V30 4315 C 408.239 -1.91041 -0.446956 0
M  V30 4316 O 407.364 -1.70978 -1.32648 0
M  V30 4317 C 407.959 -2.86477 1.80877 0
M  V30 4318 C 406.518 -3.37911 1.65811 0
M  V30 4319 C 405.665 -2.11343 1.79526 0
M  V30 4320 H 408.616 -0.853214 1.33813 0
M  V30 4321 H 408.637 -3.57408 1.30536 0
M  V30 4322 H 408.149 -2.62155 2.86175 0
M  V30 4323 H 406.25 -3.67218 0.63102 0
M  V30 4324 H 406.363 -4.10885 2.46395 0
M  V30 4325 H 404.727 -2.23254 1.22596 0
M  V30 4326 H 405.51 -1.89461 2.86285 0
M  V30 4327 N 407.956 -0.998596 -1.21925 0
M  V30 4328 C 408.906 -0.524743 -2.21879 0
M  V30 4329 C 409.89 0.41017 -1.55584 0
M  V30 4330 O 411.082 0.236063 -1.75419 0
M  V30 4331 C 408.211 0.153636 -3.42956 0
M  V30 4332 C 407.297 -0.801918 -4.16449 0
M  V30 4333 N 407.688 -1.95211 -4.66611 0
M  V30 4334 C 405.986 -0.618972 -4.41684 0
M  V30 4335 C 406.687 -2.55234 -5.22715 0
M  V30 4336 N 405.663 -1.83451 -5.1171 0
M  V30 4337 H 409.465 -1.40189 -2.58311 0
M  V30 4338 H 406.979 -0.86159 -1.3766 0
M  V30 4339 H 408.976 0.510534 -4.13762 0
M  V30 4340 H 407.636 1.02684 -3.08036 0
M  V30 4341 H 408.647 -2.33271 -4.62391 0
M  V30 4342 H 405.324 0.207694 -4.16983 0
M  V30 4343 H 406.714 -3.52471 -5.72026 0
M  V30 4344 N 409.434 1.37368 -0.772513 0
M  V30 4345 C 410.659 2.0447 -0.347386 0
M  V30 4346 C 411.084 1.57882 1.0225 0
M  V30 4347 O 410.442 0.73941 1.65537 0
M  V30 4348 C 410.49 3.58369 -0.400479 0
M  V30 4349 O 409.594 4.0803 0.598789 0
M  V30 4350 H 408.935 0.646773 -0.15027 0
M  V30 4351 H 411.465 1.75667 -1.04892 0
M  V30 4352 H 411.475 4.07183 -0.258045 0
M  V30 4353 H 410.15 3.91633 -1.39986 0
M  V30 4354 H 408.727 3.70534 0.419411 0
M  V30 4355 N 410.912 0.523116 1.48665 0
M  V30 4356 C 412.16 -0.0134497 2.02096 0
M  V30 4357 C 412.481 -1.35418 1.40311 0
M  V30 4358 O 411.751 -1.87543 0.566074 0
M  V30 4359 H 410.331 -0.00795915 0.746958 0
M  V30 4360 H 412.993 0.685388 1.82451 0
M  V30 4361 H 412.089 -0.126849 3.11842 0
M  V30 4362 N 412.39 -1.55475 0.257931 0
M  V30 4363 C 413.3 -2.2549 -0.647425 0
M  V30 4364 C 414.316 -1.2748 -1.18427 0
M  V30 4365 O 415.492 -1.6038 -1.2182 0
M  V30 4366 C 412.557 -2.94916 -1.82278 0
M  V30 4367 C 411.618 -4.08363 -1.32432 0
M  V30 4368 C 410.851 -4.74469 -2.44366 0
M  V30 4369 O 411.074 -4.39701 -3.63344 0
M  V30 4370 O 410.008 -5.62763 -2.13497 0
M  V30 4371 H 413.834 -3.03593 -0.0807707 0
M  V30 4372 H 411.419 -1.49377 0.0259962 0
M  V30 4373 H 413.301 -3.38606 -2.50846 0
M  V30 4374 H 411.976 -2.19744 -2.37685 0
M  V30 4375 H 410.883 -3.69166 -0.605605 0
M  V30 4376 H 412.216 -4.85385 -0.816211 0
M  V30 4377 N 413.868 0.0150385 -1.57593 0
M  V30 4378 C 414.816 1.02958 -2.08572 0
M  V30 4379 C 415.81 1.36554 -1.00246 0
M  V30 4380 O 417.016 1.35295 -1.18724 0
M  V30 4381 H 413.391 0.349619 -0.665786 0
M  V30 4382 H 415.362 0.573932 -2.92829 0
M  V30 4383 C 414.111 2.31752 -2.59203 0
M  V30 4384 H 413.434 2.06765 -3.42182 0
M  V30 4385 H 414.874 3.01053 -2.98568 0
M  V30 4386 C 413.333 3.01692 -1.49945 0
M  V30 4387 O 413.863 3.92083 -0.873704 0
M  V30 4388 N 412.069 2.6326 -1.23056 0
M  V30 4389 H 411.616 1.89838 -1.74125 0
M  V30 4390 H 411.574 3.10372 -0.501685 0
M  V30 4391 N 415.346 1.54954 0.287554 0
M  V30 4392 C 416.574 1.78881 1.03967 0
M  V30 4393 C 416.989 0.554894 1.80462 0
M  V30 4394 O 416.346 -0.475676 1.76192 0
M  V30 4395 C 416.397 3.00488 2.0097 0
M  V30 4396 O 416.118 4.19113 1.27577 0
M  V30 4397 C 417.619 3.36907 2.88112 0
M  V30 4398 H 414.839 0.596259 0.307761 0
M  V30 4399 H 417.383 2.01937 0.322749 0
M  V30 4400 H 415.538 2.79601 2.68145 0
M  V30 4401 H 415.952 4.87765 1.92835 0
M  V30 4402 H 417.426 4.25205 3.52001 0
M  V30 4403 H 417.903 2.55659 3.57121 0
M  V30 4404 H 418.509 3.60001 2.26449 0
M  V30 4405 N 416.824 -0.551391 1.4764 0
M  V30 4406 C 417.734 -1.68525 1.63207 0
M  V30 4407 C 418.75 -1.6621 0.514815 0
M  V30 4408 O 419.926 -1.85551 0.783113 0
M  V30 4409 C 416.991 -3.05025 1.64805 0
M  V30 4410 C 416.052 -3.18362 2.88 0
M  V30 4411 C 415.285 -4.4835 2.89513 0
M  V30 4412 O 415.508 -5.34163 2.00065 0
M  V30 4413 O 414.442 -4.65602 3.81443 0
M  V30 4414 H 418.268 -1.58333 2.59161 0
M  V30 4415 H 415.853 -0.722063 1.30792 0
M  V30 4416 H 417.735 -3.86245 1.68502 0
M  V30 4417 H 416.41 -3.15587 0.720197 0
M  V30 4418 H 415.317 -2.36518 2.89845 0
M  V30 4419 H 416.65 -3.12707 3.80099 0
M  V30 4420 N 418.302 -1.35869 -0.798587 0
M  V30 4421 C 419.532 -1.32529 -1.58491 0
M  V30 4422 C 419.94 0.0975405 -1.88948 0
M  V30 4423 O 419.283 1.06224 -1.49874 0
M  V30 4424 C 419.345 -2.07247 -2.9375 0
M  V30 4425 C 419.009 -3.56391 -2.86068 0
M  V30 4426 C 420.006 -4.50824 -2.58947 0
M  V30 4427 C 417.691 -3.9915 -3.04933 0
M  V30 4428 C 419.685 -5.85993 -2.5078 0
M  V30 4429 C 417.372 -5.34413 -2.96389 0
M  V30 4430 C 418.37 -6.27646 -2.69349 0
M  V30 4431 O 418.058 -7.60426 -2.60782 0
M  V30 4432 H 417.79 -0.456529 -0.498556 0
M  V30 4433 H 420.344 -1.79425 -0.999799 0
M  V30 4434 H 418.574 -1.55001 -3.54276 0
M  V30 4435 H 420.263 -1.96883 -3.54954 0
M  V30 4436 H 421.029 -4.19104 -2.44084 0
M  V30 4437 H 416.908 -3.26961 -3.24989 0
M  V30 4438 H 420.452 -6.58735 -2.29595 0
M  V30 4439 H 416.349 -5.65743 -3.10813 0
M  V30 4440 H 417.117 -7.70444 -2.76331 0
M  V30 4441 N 419.78 1.02168 -1.19998 0
M  V30 4442 C 421.057 1.72816 -0.916191 0
M  V30 4443 C 421.437 2.03081 0.576325 0
M  V30 4444 O 420.785 1.69122 1.53656 0
M  V30 4445 C 420.995 2.9997 -1.78378 0
M  V30 4446 C 422.343 3.73336 -2.02251 0
M  V30 4447 O 423.367 3.09914 -1.75589 0
M  V30 4448 O 422.226 4.87371 -2.47249 0
M  V30 4449 H 419.32 0.752924 -0.342103 0
M  V30 4450 H 421.866 1.08062 -1.30846 0
M  V30 4451 H 420.638 2.73888 -2.79466 0
M  V30 4452 H 420.261 3.72464 -1.39126 0
M  V30 4453 N 421.258 1.00505 1.21394 0
M  V30 4454 C 422.486 0.706609 1.9446 0
M  V30 4455 C 422.901 -0.73081 1.74082 0
M  V30 4456 O 422.258 -1.49446 1.04747 0
M  V30 4457 C 422.309 1.01824 3.46863 0
M  V30 4458 O 422.03 2.39919 3.66566 0
M  V30 4459 C 423.531 0.739216 4.37093 0
M  V30 4460 H 420.751 0.260394 0.618414 0
M  V30 4461 H 423.295 1.34311 1.54211 0
M  V30 4462 H 421.45 0.427343 3.85036 0
M  V30 4463 H 421.864 2.50784 4.6066 0
M  V30 4464 H 423.338 1.00744 5.42729 0
M  V30 4465 H 423.815 -0.326746 4.37983 0
M  V30 4466 H 424.421 1.31173 4.04566 0
M  V30 4467 N 422.737 -1.36956 0.779787 0
M  V30 4468 C 423.986 -1.98738 0.344405 0
M  V30 4469 C 424.299 -1.62596 -1.08728 0
M  V30 4470 O 425.505 -2.1754 -1.62445 0
M  V30 4471 C 423.961 -3.5544 0.564829 0
M  V30 4472 C 423.569 -4.00514 2.0073 0
M  V30 4473 C 425.313 -4.24059 0.193471 0
M  V30 4474 C 423.22 -5.49957 2.17489 0
M  V30 4475 H 422.15 -0.743561 0.12503 0
M  V30 4476 H 424.801 -1.56381 0.960057 0
M  V30 4477 H 423.183 -3.95817 -0.120397 0
M  V30 4478 H 424.357 -3.71362 2.72814 0
M  V30 4479 H 422.672 -3.44703 2.336 0
M  V30 4480 H 425.269 -5.33874 0.297097 0
M  V30 4481 H 425.612 -4.07378 -0.857263 0
M  V30 4482 H 426.145 -3.89012 0.831556 0
M  V30 4483 H 422.884 -5.71574 3.2091 0
M  V30 4484 H 422.404 -5.80767 1.49899 0
M  V30 4485 H 424.083 -6.16043 1.97738 0
M  V30 4486 N 424.215 -0.530993 -1.48385 0
M  V30 4487 C 425.626 -0.0907905 -1.86479 0
M  V30 4488 C 425.977 1.33213 -1.44044 0
M  V30 4489 O 425.102 1.99783 -0.831615 0
M  V30 4490 C 425.697 -0.157987 -3.38431 0
M  V30 4491 C 424.256 0.227026 -3.75715 0
M  V30 4492 C 423.403 -0.5173 -2.72432 0
M  V30 4493 H 426.354 -0.742186 -1.40276 0
M  V30 4494 H 426.375 0.630053 -3.75247 0
M  V30 4495 H 425.887 -1.19372 -3.69286 0
M  V30 4496 H 423.988 1.26486 -3.50474 0
M  V30 4497 H 424.101 -0.113288 -4.78966 0
M  V30 4498 H 422.465 0.0365527 -2.54674 0
M  V30 4499 H 423.248 -1.55368 -3.0613 0
M  V30 4500 N 425.693 1.55336 -0.266172 0
M  V30 4501 C 426.643 2.18848 0.639497 0
M  V30 4502 C 427.627 1.1503 1.12503 0
M  V30 4503 O 428.819 1.40875 1.0716 0
M  V30 4504 C 425.948 2.90626 1.82733 0
M  V30 4505 C 425.034 4.01723 1.35939 0
M  V30 4506 N 425.425 5.02145 0.606988 0
M  V30 4507 C 423.723 4.1463 1.6431 0
M  V30 4508 C 424.424 5.80572 0.362138 0
M  V30 4509 N 423.4 5.35551 0.931971 0
M  V30 4510 H 427.202 2.93845 0.0567057 0
M  V30 4511 H 424.716 1.62252 -0.0693312 0
M  V30 4512 H 426.713 3.34569 2.48735 0
M  V30 4513 H 425.373 2.17137 2.41416 0
M  V30 4514 H 426.384 5.17271 0.255198 0
M  V30 4515 H 423.061 3.52326 2.23993 0
M  V30 4516 H 424.451 6.71472 -0.239848 0
M  V30 4517 N 427.171 -0.0066808 1.57599 0
M  V30 4518 C 428.399 -0.704087 1.94551 0
M  V30 4519 C 428.814 -1.67677 0.867746 0
M  V30 4520 O 428.171 -1.8185 -0.153925 0
M  V30 4521 C 428.222 -1.44177 3.31505 0
M  V30 4522 O 427.943 -0.508097 4.35144 0
M  V30 4523 C 429.444 -2.23429 3.82876 0
M  V30 4524 H 426.664 -0.196523 0.641576 0
M  V30 4525 H 429.208 0.042453 2.04456 0
M  V30 4526 H 427.363 -2.13999 3.22929 0
M  V30 4527 H 427.777 -1.02782 5.14331 0
M  V30 4528 H 429.251 -2.70552 4.8115 0
M  V30 4529 H 429.728 -3.05818 3.15233 0
M  V30 4530 H 430.334 -1.58636 3.94607 0
M  V30 4531 N 428.649 -1.55105 -0.279332 0
M  V30 4532 C 429.597 -1.88333 -1.36505 0
M  V30 4533 C 430.591 -0.759043 -1.51443 0
M  V30 4534 O 431.797 -0.943312 -1.53302 0
M  V30 4535 H 428.172 -0.59766 -0.456406 0
M  V30 4536 H 430.143 -2.79041 -1.05728 0
M  V30 4537 C 428.892 -2.16628 -2.7197 0
M  V30 4538 H 428.215 -3.02624 -2.61264 0
M  V30 4539 H 429.655 -2.43803 -3.46895 0
M  V30 4540 C 428.114 -0.971807 -3.22579 0
M  V30 4541 O 428.644 -0.203228 -4.01186 0
M  V30 4542 N 426.85 -0.771238 -2.80179 0
M  V30 4543 H 426.397 -1.39792 -2.1637 0
M  V30 4544 H 426.355 0.0263667 -3.14389 0
M  V30 4545 N 430.127 0.543554 -1.4793 0
M  V30 4546 C 431.543 0.870806 -1.3375 0
M  V30 4547 C 431.743 1.9864 -0.338261 0
M  V30 4548 O 430.799 2.51305 0.245371 0
M  V30 4549 C 432.112 1.25114 -2.73435 0
M  V30 4550 C 433.66 1.3618 -2.81823 0
M  V30 4551 C 434.135 1.77563 -4.22179 0
M  V30 4552 N 435.626 1.8469 -4.24787 0
M  V30 4553 C 436.361 2.18067 -5.30315 0
M  V30 4554 N 435.857 2.49963 -6.46135 0
M  V30 4555 N 437.65 2.18958 -5.17701 0
M  V30 4556 H 429.801 -0.19275 -2.11524 0
M  V30 4557 H 432.064 -0.0235777 -0.947707 0
M  V30 4558 H 431.77 0.50514 -3.48053 0
M  V30 4559 H 431.644 2.20431 -3.06088 0
M  V30 4560 H 434.031 2.09859 -2.07468 0
M  V30 4561 H 434.112 0.390169 -2.52807 0
M  V30 4562 H 433.756 1.04449 -4.97044 0
M  V30 4563 H 433.686 2.75753 -4.48629 0
M  V30 4564 H 436.177 1.62372 -3.41239 0
M  V30 4565 H 436.49 2.74497 -7.22406 0
M  V30 4566 H 434.835 2.47513 -6.49432 0
M  V30 4567 H 438.026 1.93488 -4.2624 0
M  V30 4568 H 438.199 2.44639 -6.00047 0
M  V30 4569 N 431.605 1.3629 0.791371 0
M  V30 4570 C 432.833 1.33562 1.58016 0
M  V30 4571 C 433.248 -0.0835616 1.88615 0
M  V30 4572 O 432.605 -1.0399 1.49974 0
M  V30 4573 C 432.656 2.15517 2.90232 0
M  V30 4574 O 432.377 3.51902 2.60953 0
M  V30 4575 C 433.878 2.20546 3.84544 0
M  V30 4576 H 431.098 0.458226 0.490173 0
M  V30 4577 H 433.642 1.79361 0.982345 0
M  V30 4578 H 431.797 1.73278 3.46487 0
M  V30 4579 H 432.211 3.94644 3.4548 0
M  V30 4580 H 433.685 2.82252 4.74382 0
M  V30 4581 H 434.162 1.20838 4.2225 0
M  V30 4582 H 434.768 2.63013 3.34222 0
M  V30 4583 N 433.083 -1.0153 1.20538 0
M  V30 4584 C 434.332 -1.74558 1.01057 0
M  V30 4585 C 434.645 -1.90168 -0.457756 0
M  V30 4586 O 435.851 -2.60301 -0.771722 0
M  V30 4587 C 434.307 -3.13963 1.75941 0
M  V30 4588 C 433.915 -3.06361 3.26875 0
M  V30 4589 C 435.659 -3.91191 1.64832 0
M  V30 4590 C 433.566 -4.40782 3.94291 0
M  V30 4591 H 432.496 -0.654417 0.374505 0
M  V30 4592 H 435.147 -1.13521 1.44171 0
M  V30 4593 H 433.529 -3.75549 1.25614 0
M  V30 4594 H 434.703 -2.54074 3.84425 0
M  V30 4595 H 433.018 -2.42625 3.38411 0
M  V30 4596 H 435.615 -4.90644 2.12539 0
M  V30 4597 H 435.958 -4.11884 0.604745 0
M  V30 4598 H 436.491 -3.36236 2.12579 0
M  V30 4599 H 433.23 -4.25292 4.98805 0
M  V30 4600 H 432.75 -4.9307 3.41529 0
M  V30 4601 H 434.429 -5.09621 3.98617 0
M  V30 4602 N 434.561 -1.01147 -1.20859 0
M  V30 4603 C 435.491 -0.597663 -2.25722 0
M  V30 4604 C 436.472 0.384744 -1.65692 0
M  V30 4605 O 437.657 0.271303 -1.92296 0
M  V30 4606 C 434.787 0.0700149 -3.47229 0
M  V30 4607 C 433.741 -0.832843 -4.19819 0
M  V30 4608 C 433.067 -0.0312202 -5.34691 0
M  V30 4609 C 434.367 -2.1385 -4.76514 0
M  V30 4610 H 436.061 -1.47423 -2.60589 0
M  V30 4611 H 433.607 -0.710301 -1.25263 0
M  V30 4612 H 435.56 0.37103 -4.19763 0
M  V30 4613 H 434.284 0.981259 -3.11511 0
M  V30 4614 H 432.943 -1.11778 -3.49144 0
M  V30 4615 H 432.591 0.881515 -4.95215 0
M  V30 4616 H 432.291 -0.632434 -5.84187 0
M  V30 4617 H 433.815 0.26346 -6.10031 0
M  V30 4618 H 435.229 -1.9002 -5.40893 0
M  V30 4619 H 433.626 -2.69012 -5.36426 0
M  V30 4620 H 434.696 -2.80495 -3.95538 0
M  V30 4621 N 436.039 1.36541 -0.78704 0
M  V30 4622 C 436.986 2.30082 -0.181901 0
M  V30 4623 C 437.956 1.5186 0.672896 0
M  V30 4624 O 439.141 1.80374 0.622072 0
M  V30 4625 C 436.281 3.3835 0.679197 0
M  V30 4626 C 435.394 4.31565 -0.193882 0
M  V30 4627 C 434.529 5.26915 0.673364 0
M  V30 4628 C 433.568 6.11769 -0.201315 0
M  V30 4629 N 432.705 6.99315 0.624777 0
M  V30 4630 H 437.545 2.81248 -0.985064 0
M  V30 4631 H 435.082 1.38437 -0.497342 0
M  V30 4632 H 437.04 3.99767 1.19341 0
M  V30 4633 H 435.67 2.8851 1.44781 0
M  V30 4634 H 434.722 3.71323 -0.826044 0
M  V30 4635 H 436.034 4.91191 -0.867937 0
M  V30 4636 H 435.188 5.9361 1.25348 0
M  V30 4637 H 433.927 4.67737 1.38105 0
M  V30 4638 H 432.932 5.44039 -0.793849 0
M  V30 4639 H 434.157 6.73022 -0.906568 0
M  V30 4640 H 432.103 6.42648 1.3168 0
M  V30 4641 H 432.02 7.56 0.00835237 0
M  V30 4642 H 433.288 7.70382 1.18879 0
M  V30 4643 N 437.518 0.538854 1.48102 0
M  V30 4644 C 438.428 -0.222648 2.33541 0
M  V30 4645 C 439.444 -0.930225 1.47047 0
M  V30 4646 O 440.62 -0.903211 1.80011 0
M  V30 4647 C 437.685 -1.25064 3.23357 0
M  V30 4648 C 436.746 -0.552469 4.2573 0
M  V30 4649 C 435.979 -1.53149 5.11254 0
M  V30 4650 O 436.202 -2.76487 4.9891 0
M  V30 4651 O 435.136 -1.06602 5.92385 0
M  V30 4652 H 438.962 0.477707 2.99919 0
M  V30 4653 H 436.547 0.299669 1.46364 0
M  V30 4654 H 438.429 -1.8445 3.78888 0
M  V30 4655 H 437.104 -1.93325 2.59629 0
M  V30 4656 H 436.011 0.082114 3.7401 0
M  V30 4657 H 437.344 0.0883526 4.92121 0
M  V30 4658 N 438.996 -1.55193 0.274407 0
M  V30 4659 C 440.273 -1.91584 -0.394331 0
M  V30 4660 C 440.653 -1.19858 -1.73774 0
M  V30 4661 O 440.001 -0.3252 -2.26174 0
M  V30 4662 C 440.211 -3.4487 -0.535311 0
M  V30 4663 C 441.559 -4.16636 -0.818534 0
M  V30 4664 O 442.583 -3.5076 -0.620146 0
M  V30 4665 O 441.442 -5.33209 -1.19792 0
M  V30 4666 H 438.536 -0.798349 -0.215794 0
M  V30 4667 H 441.082 -1.66646 0.320507 0
M  V30 4668 H 439.854 -3.89145 0.410141 0
M  V30 4669 H 439.477 -3.75759 -1.29964 0
M  V30 4670 N 440.474 -0.00167713 -1.576 0
M  V30 4671 C 441.885 0.54091 -1.78693 0
M  V30 4672 C 442.236 1.7386 -0.909247 0
M  V30 4673 O 441.361 2.16109 -0.112176 0
M  V30 4674 C 441.956 0.98806 -3.24072 0
M  V30 4675 C 440.515 1.47594 -3.46256 0
M  V30 4676 C 439.662 0.42792 -2.73978 0
M  V30 4677 H 442.613 -0.22784 -1.57056 0
M  V30 4678 H 442.634 1.85398 -3.32277 0
M  V30 4679 H 442.146 0.116164 -3.87926 0
M  V30 4680 H 440.247 2.36868 -2.87618 0
M  V30 4681 H 440.36 1.50225 -4.54939 0
M  V30 4682 H 438.724 0.889934 -2.38647 0
M  V30 4683 H 439.507 -0.435038 -3.40532 0
M  V30 4684 N 441.952 1.55251 0.271103 0
M  V30 4685 C 442.915 1.87484 1.31842 0
M  V30 4686 C 443.915 0.749545 1.42262 0
M  V30 4687 O 445.105 1.01771 1.4138 0
M  V30 4688 C 442.237 2.0818 2.69951 0
M  V30 4689 H 443.43 2.81108 1.0449 0
M  V30 4690 H 440.983 1.47771 0.509258 0
M  V30 4691 H 441.718 1.16944 3.02481 0
M  V30 4692 H 441.503 2.90114 2.63774 0
M  V30 4693 H 442.993 2.34385 3.4562 0
M  V30 4694 N 443.43 -0.535701 1.48216 0
M  V30 4695 C 444.378 -1.66179 1.62749 0
M  V30 4696 C 445.372 -1.62034 0.49409 0
M  V30 4697 O 446.578 -1.6696 0.672624 0
M  V30 4698 H 442.953 -0.550244 0.512578 0
M  V30 4699 H 444.924 -1.51063 2.57337 0
M  V30 4700 C 443.673 -3.04471 1.67907 0
M  V30 4701 H 442.996 -3.08351 2.54479 0
M  V30 4702 H 444.436 -3.82894 1.82121 0
M  V30 4703 C 442.895 -3.34314 0.416596 0
M  V30 4704 O 443.425 -3.98905 -0.473014 0
M  V30 4705 N 441.631 -2.89149 0.290038 0
M  V30 4706 H 441.178 -2.36764 1.01493 0
M  V30 4707 H 441.136 -3.09486 -0.55367 0
M  V30 4708 N 444.908 -1.36708 -0.784132 0
M  V30 4709 C 446.136 -1.34398 -1.57305 0
M  V30 4710 C 446.551 0.0735577 -1.88657 0
M  V30 4711 O 445.908 1.03193 -1.50524 0
M  V30 4712 C 445.959 -2.17053 -2.89085 0
M  V30 4713 O 445.68 -3.53281 -2.59083 0
M  V30 4714 C 447.181 -2.22583 -3.83369 0
M  V30 4715 H 444.401 -0.460819 -0.487736 0
M  V30 4716 H 446.945 -1.79879 -0.972819 0
M  V30 4717 H 445.1 -1.75113 -3.45564 0
M  V30 4718 H 445.514 -3.9647 -3.43383 0
M  V30 4719 H 446.988 -2.84763 -4.72878 0
M  V30 4720 H 447.465 -1.23075 -4.21603 0
M  V30 4721 H 448.071 -2.64781 -3.32823 0
M  V30 4722 N 446.386 1.0089 -1.21074 0
M  V30 4723 C 447.632 1.74866 -1.02712 0
M  V30 4724 C 447.965 1.89178 0.438787 0
M  V30 4725 O 447.24 1.42325 1.32567 0
M  V30 4726 C 447.523 3.16347 -1.72036 0
M  V30 4727 C 447.376 3.09782 -3.26121 0
M  V30 4728 C 448.695 4.15187 -1.45973 0
M  V30 4729 H 445.814 0.634736 -0.374539 0
M  V30 4730 H 448.456 1.17646 -1.49196 0
M  V30 4731 H 446.606 3.65201 -1.32517 0
M  V30 4732 H 448.278 2.68673 -3.74983 0
M  V30 4733 H 446.521 2.46982 -3.56626 0
M  V30 4734 H 447.192 4.09829 -3.6979 0
M  V30 4735 H 449.668 3.75022 -1.80272 0
M  V30 4736 H 448.544 5.12331 -1.96999 0
M  V30 4737 H 448.805 4.40386 -0.388924 0
M  V30 4738 N 447.864 1.01787 1.20321 0
M  V30 4739 C 449.094 0.72614 1.93419 0
M  V30 4740 C 449.502 -0.717317 1.75075 0
M  V30 4741 O 448.845 -1.49836 1.06278 0
M  V30 4742 C 448.907 0.983621 3.45782 0
M  V30 4743 C 448.571 2.41645 3.87888 0
M  V30 4744 C 449.568 3.39732 3.93545 0
M  V30 4745 C 447.253 2.75752 4.19841 0
M  V30 4746 C 449.247 4.69988 4.30569 0
M  V30 4747 C 446.934 4.06221 4.56539 0
M  V30 4748 C 447.932 5.0315 4.61876 0
M  V30 4749 O 447.62 6.31284 4.97731 0
M  V30 4750 H 447.352 0.265824 0.621541 0
M  V30 4751 H 449.906 1.3623 1.53722 0
M  V30 4752 H 448.136 0.290301 3.85609 0
M  V30 4753 H 449.825 0.683279 4.00108 0
M  V30 4754 H 450.591 3.14718 3.69022 0
M  V30 4755 H 446.47 2.00993 4.14877 0
M  V30 4756 H 450.014 5.45642 4.3465 0
M  V30 4757 H 445.911 4.31013 4.80518 0
M  V30 4758 H 446.679 6.35591 5.15719 0
M  V30 4759 N 449.342 -1.36122 0.79427 0
M  V30 4760 C 450.567 -2.03891 0.379871 0
M  V30 4761 C 450.992 -1.59488 -0.997251 0
M  V30 4762 O 450.35 -0.765652 -1.64339 0
M  V30 4763 C 450.398 -3.57687 0.457442 0
M  V30 4764 O 449.502 -4.08931 -0.5338 0
M  V30 4765 H 448.843 -0.6443 0.160541 0
M  V30 4766 H 451.373 -1.73976 1.07673 0
M  V30 4767 H 451.383 -4.06721 0.322792 0
M  V30 4768 H 450.058 -3.89357 1.46199 0
M  V30 4769 H 448.635 -3.71154 -0.360409 0
M  V30 4770 N 450.82 -0.546701 -1.47814 0
M  V30 4771 C 452.048 -0.0232857 -2.06887 0
M  V30 4772 C 452.463 1.26571 -1.4009 0
M  V30 4773 O 451.82 1.7569 -0.493906 0
M  V30 4774 C 451.871 0.186975 -3.61016 0
M  V30 4775 O 451.592 -1.05097 -4.25307 0
M  V30 4776 C 453.093 0.748872 -4.36929 0
M  V30 4777 H 450.313 -0.0410763 -0.669742 0
M  V30 4778 H 452.857 -0.757117 -1.89968 0
M  V30 4779 H 451.012 0.870903 -3.77484 0
M  V30 4780 H 451.426 -0.842121 -5.17695 0
M  V30 4781 H 452.9 0.845334 -5.45489 0
M  V30 4782 H 453.377 1.75772 -4.02493 0
M  V30 4783 H 453.983 0.100979 -4.2518 0
M  V30 4784 N 452.299 1.55045 -0.282633 0
M  V30 4785 C 453.545 2.00056 0.332481 0
M  V30 4786 C 453.878 1.1708 1.54939 0
M  V30 4787 O 453.153 0.2427 1.9298 0
M  V30 4788 C 453.436 3.53086 0.70725 0
M  V30 4789 C 453.289 4.46813 -0.517521 0
M  V30 4790 C 454.608 4.12245 1.54084 0
M  V30 4791 H 451.727 0.727268 0.119373 0
M  V30 4792 H 454.369 1.85932 -0.391076 0
M  V30 4793 H 452.519 3.65253 1.32372 0
M  V30 4794 H 454.191 4.46579 -1.15607 0
M  V30 4795 H 452.434 4.18163 -1.1542 0
M  V30 4796 H 453.105 5.51595 -0.211426 0
M  V30 4797 H 455.581 4.03401 1.02013 0
M  V30 4798 H 454.457 5.19515 1.77186 0
M  V30 4799 H 454.718 3.62951 2.52427 0
M  V30 4800 N 453.777 0.010035 1.57597 0
M  V30 4801 C 454.687 -0.994226 2.12491 0
M  V30 4802 C 455.703 -1.37013 1.07254 0
M  V30 4803 O 456.879 -1.45542 1.3921 0
M  V30 4804 C 453.944 -2.2642 2.62555 0
M  V30 4805 C 453.005 -1.95049 3.82432 0
M  V30 4806 C 452.238 -3.15991 4.30099 0
M  V30 4807 O 452.461 -4.28015 3.7704 0
M  V30 4808 O 451.395 -2.99403 5.22151 0
M  V30 4809 H 455.221 -0.557549 2.98538 0
M  V30 4810 H 452.806 -0.209413 1.47925 0
M  V30 4811 H 454.688 -3.01009 2.9491 0
M  V30 4812 H 453.363 -2.69306 1.796 0
M  V30 4813 H 452.27 -1.17904 3.55034 0
M  V30 4814 H 453.603 -1.56992 4.66491 0
M  V30 4815 N 455.255 -1.55392 -0.262866 0
M  V30 4816 C 456.504 -1.75679 -0.990943 0
M  V30 4817 C 456.817 -0.57097 -1.87081 0
M  V30 4818 O 458.023 -0.656486 -2.63444 0
M  V30 4819 C 456.479 -3.10964 -1.81188 0
M  V30 4820 C 456.087 -4.37146 -0.980188 0
M  V30 4821 C 457.831 -3.40597 -2.53365 0
M  V30 4822 C 455.738 -5.63466 -1.7961 0
M  V30 4823 H 454.668 -0.654868 -0.373716 0
M  V30 4824 H 457.319 -1.81841 -0.246203 0
M  V30 4825 H 455.701 -2.98867 -2.59797 0
M  V30 4826 H 456.875 -4.60187 -0.237558 0
M  V30 4827 H 455.19 -4.14731 -0.372497 0
M  V30 4828 H 457.787 -4.32186 -3.14833 0
M  V30 4829 H 458.13 -2.6119 -3.24169 0
M  V30 4830 H 458.663 -3.53838 -1.81779 0
M  V30 4831 H 455.402 -6.4565 -1.13209 0
M  V30 4832 H 454.922 -5.44552 -2.51443 0
M  V30 4833 H 456.601 -6.02139 -2.36723 0
M  V30 4834 N 456.733 0.527833 -1.48498 0
M  V30 4835 C 458.144 1.10975 -1.50138 0
M  V30 4836 C 458.495 1.943 -0.272378 0
M  V30 4837 O 457.62 2.07319 0.620301 0
M  V30 4838 C 458.215 2.01927 -2.72049 0
M  V30 4839 C 456.774 2.55332 -2.76554 0
M  V30 4840 C 455.921 1.32341 -2.43683 0
M  V30 4841 H 458.872 0.312986 -1.55583 0
M  V30 4842 H 458.893 2.86244 -2.50689 0
M  V30 4843 H 458.405 1.41254 -3.61481 0
M  V30 4844 H 456.506 3.19721 -1.91336 0
M  V30 4845 H 456.619 2.94319 -3.78038 0
M  V30 4846 H 454.983 1.63989 -1.94884 0
M  V30 4847 H 455.766 0.734165 -3.35358 0
M  V30 4848 N 458.211 1.37122 0.776871 0
M  V30 4849 C 459.158 1.3247 1.88998 0
M  V30 4850 C 460.128 0.191143 1.64997 0
M  V30 4851 O 461.313 0.379683 1.86984 0
M  V30 4852 C 458.453 1.13241 3.25992 0
M  V30 4853 C 457.566 2.35782 3.61982 0
M  V30 4854 C 456.701 2.09465 4.88158 0
M  V30 4855 C 455.74 3.279 5.16864 0
M  V30 4856 N 454.877 3.01167 6.34226 0
M  V30 4857 H 459.717 2.27642 1.9231 0
M  V30 4858 H 457.254 1.13125 0.94027 0
M  V30 4859 H 459.212 1.00115 4.0501 0
M  V30 4860 H 457.842 0.217186 3.22069 0
M  V30 4861 H 456.894 2.59666 2.77989 0
M  V30 4862 H 458.206 3.24125 3.79137 0
M  V30 4863 H 457.36 1.93341 5.75069 0
M  V30 4864 H 456.099 1.18452 4.73097 0
M  V30 4865 H 455.104 3.44569 4.2843 0
M  V30 4866 H 456.329 4.19757 5.33836 0
M  V30 4867 H 454.275 2.12779 6.20533 0
M  V30 4868 H 454.192 3.83052 6.51772 0
M  V30 4869 H 455.46 2.88649 7.24087 0
M  V30 4870 N 459.689 -1.00246 1.21608 0
M  V30 4871 C 460.636 -2.09073 0.977613 0
M  V30 4872 C 461.606 -1.65815 -0.097297 0
M  V30 4873 O 462.791 -1.90734 0.0503445 0
M  V30 4874 C 459.931 -3.40671 0.551133 0
M  V30 4875 C 459.044 -3.97326 1.69576 0
M  V30 4876 C 458.179 -5.17043 1.2182 0
M  V30 4877 C 457.218 -5.65813 2.335 0
M  V30 4878 N 456.355 -6.76778 1.86859 0
M  V30 4879 H 461.195 -2.28806 1.90924 0
M  V30 4880 H 458.732 -1.12186 0.951452 0
M  V30 4881 H 460.69 -4.16225 0.285097 0
M  V30 4882 H 459.32 -3.20967 -0.343489 0
M  V30 4883 H 458.372 -3.18734 2.07637 0
M  V30 4884 H 459.684 -4.29511 2.53617 0
M  V30 4885 H 458.838 -5.99852 0.908975 0
M  V30 4886 H 457.577 -4.86458 0.347869 0
M  V30 4887 H 456.582 -4.81599 2.65222 0
M  V30 4888 H 457.807 -5.98427 3.21033 0
M  V30 4889 H 455.753 -6.47994 1.02174 0
M  V30 4890 H 455.67 -7.08231 2.64471 0
M  V30 4891 H 456.938 -7.63116 1.58978 0
M  V30 4892 N 461.167 -1.02423 -1.1978 0
M  V30 4893 C 462.1 -0.545641 -2.21581 0
M  V30 4894 C 463.078 0.411024 -1.57319 0
M  V30 4895 O 464.262 0.329223 -1.85603 0
M  V30 4896 C 461.389 0.204973 -3.38079 0
M  V30 4897 C 460.435 -0.70241 -4.20676 0
M  V30 4898 S 461.268 -2.17595 -4.89298 0
M  V30 4899 C 462.424 -1.43572 -6.09211 0
M  V30 4900 H 462.657 -1.4082 -2.61834 0
M  V30 4901 H 460.19 -0.833771 -1.29952 0
M  V30 4902 H 462.148 0.631924 -4.05607 0
M  V30 4903 H 460.809 1.0432 -2.9627 0
M  V30 4904 H 460.002 -0.123193 -5.03849 0
M  V30 4905 H 459.604 -1.06747 -3.58442 0
M  V30 4906 H 461.896 -0.719806 -6.73665 0
M  V30 4907 H 462.839 -2.24388 -6.71607 0
M  V30 4908 H 463.247 -0.935252 -5.56699 0
M  V30 4909 N 462.645 1.35699 -0.801477 0
M  V30 4910 C 463.555 2.33661 -0.209691 0
M  V30 4911 C 464.571 1.6162 0.644591 0
M  V30 4912 O 465.747 1.93529 0.557545 0
M  V30 4913 C 462.812 3.40816 0.636033 0
M  V30 4914 C 461.873 4.28639 -0.238147 0
M  V30 4915 C 461.106 5.30676 0.567307 0
M  V30 4916 O 461.329 5.41174 1.8024 0
M  V30 4917 O 460.263 6.01887 -0.0391336 0
M  V30 4918 H 464.089 2.8606 -1.01996 0
M  V30 4919 H 461.674 1.38379 -0.563164 0
M  V30 4920 H 463.556 4.06301 1.11791 0
M  V30 4921 H 462.231 2.90696 1.42399 0
M  V30 4922 H 461.138 3.66152 -0.767044 0
M  V30 4923 H 462.471 4.82143 -0.989915 0
M  V30 4924 N 464.123 0.554532 1.47522 0
M  V30 4925 C 465.071 -0.207765 2.3167 0
M  V30 4926 C 466.065 -0.911914 1.4276 0
M  V30 4927 O 467.271 -0.833504 1.59539 0
M  V30 4928 H 463.646 -0.0858726 0.747081 0
M  V30 4929 H 465.617 0.521178 2.93813 0
M  V30 4930 C 464.366 -1.2263 3.25357 0
M  V30 4931 H 463.689 -0.693887 3.93732 0
M  V30 4932 H 465.129 -1.73062 3.87073 0
M  V30 4933 C 463.588 -2.27278 2.4869 0
M  V30 4934 O 464.118 -3.34156 2.22941 0
M  V30 4935 N 462.324 -2.01134 2.09746 0
M  V30 4936 H 461.871 -1.14232 2.30887 0
M  V30 4937 H 461.829 -2.71369 1.58765 0
M  V30 4938 N 465.601 -1.54893 0.290851 0
M  V30 4939 C 467.012 -1.85584 -0.203816 0
M  V30 4940 C 467.363 -1.21285 -1.54222 0
M  V30 4941 O 466.488 -0.506841 -2.10381 0
M  V30 4942 C 467.083 -3.367 -0.376595 0
M  V30 4943 C 465.642 -3.6746 -0.815485 0
M  V30 4944 C 464.789 -2.77178 0.0821087 0
M  V30 4945 H 467.74 -1.50208 0.512175 0
M  V30 4946 H 467.761 -3.60656 -1.21275 0
M  V30 4947 H 467.273 -3.8347 0.59767 0
M  V30 4948 H 465.374 -3.26201 -1.80066 0
M  V30 4949 H 465.487 -4.7478 -0.641905 0
M  V30 4950 H 463.851 -2.50925 -0.436895 0
M  V30 4951 H 464.634 -3.26767 1.05254 0
M  V30 4952 N 467.08 -0.0183926 -1.57589 0
M  V30 4953 C 468.03 0.975944 -2.06057 0
M  V30 4954 C 469.014 1.29204 -0.958908 0
M  V30 4955 O 470.206 1.27995 -1.22255 0
M  V30 4956 C 467.335 2.26194 -2.58247 0
M  V30 4957 C 466.421 1.97467 -3.75323 0
M  V30 4958 N 466.812 1.38968 -4.86335 0
M  V30 4959 C 465.11 2.27515 -3.83605 0
M  V30 4960 C 465.811 1.27131 -5.67638 0
M  V30 4961 N 464.787 1.76319 -5.14211 0
M  V30 4962 H 468.589 0.518444 -2.89291 0
M  V30 4963 H 466.103 0.18688 -1.61321 0
M  V30 4964 H 468.1 2.98289 -2.91255 0
M  V30 4965 H 466.76 2.7258 -1.76438 0
M  V30 4966 H 467.771 1.06608 -5.06809 0
M  V30 4967 H 464.448 2.76649 -3.12684 0
M  V30 4968 H 465.838 0.819882 -6.66879 0
M  V30 4969 N 468.558 1.5553 0.254621 0
M  V30 4970 C 469.783 1.81383 1.00573 0
M  V30 4971 C 470.208 0.594419 1.78461 0
M  V30 4972 O 469.566 -0.456403 1.75461 0
M  V30 4973 C 469.614 3.04892 1.92545 0
M  V30 4974 O 468.718 2.81266 3.01601 0
M  V30 4975 H 468.059 0.598969 0.286587 0
M  V30 4976 H 470.589 2.02703 0.277952 0
M  V30 4977 H 470.599 3.34119 2.34155 0
M  V30 4978 H 469.274 3.93287 1.3527 0
M  V30 4979 H 467.851 2.63185 2.64174 0
M  V30 4980 N 470.036 -0.519951 1.48776 0
M  V30 4981 C 470.966 -1.63253 1.66945 0
M  V30 4982 C 471.947 -1.62014 0.518224 0
M  V30 4983 O 473.132 -1.79053 0.751919 0
M  V30 4984 C 470.262 -3.0181 1.71836 0
M  V30 4985 C 469.216 -3.17911 2.8656 0
M  V30 4986 C 468.542 -4.5763 2.76548 0
M  V30 4987 C 469.842 -2.99729 4.27738 0
M  V30 4988 H 471.536 -1.48302 2.6009 0
M  V30 4989 H 469.082 -0.712026 1.25165 0
M  V30 4990 H 471.035 -3.79525 1.83135 0
M  V30 4991 H 469.759 -3.17806 0.752775 0
M  V30 4992 H 468.418 -2.42616 2.74833 0
M  V30 4993 H 468.066 -4.70476 1.77937 0
M  V30 4994 H 467.766 -4.69346 3.53536 0
M  V30 4995 H 469.29 -5.37431 2.89828 0
M  V30 4996 H 470.704 -3.67228 4.40246 0
M  V30 4997 H 469.101 -3.22932 5.05801 0
M  V30 4998 H 470.171 -1.96047 4.43502 0
M  V30 4999 N 471.514 -1.37532 -0.769588 0
M  V30 5000 C 472.444 -1.36172 -1.89682 0
M  V30 5001 C 473.425 -0.23001 -1.68538 0
M  V30 5002 O 474.61 -0.43069 -1.89364 0
M  V30 5003 C 471.74 -1.1701 -3.26995 0
M  V30 5004 C 470.694 -2.27216 -3.62708 0
M  V30 5005 C 470.02 -1.93174 -4.98586 0
M  V30 5006 C 471.32 -3.6941 -3.69234 0
M  V30 5007 H 473.014 -2.30499 -1.91078 0
M  V30 5008 H 470.56 -1.10953 -0.917902 0
M  V30 5009 H 472.513 -1.14688 -4.05493 0
M  V30 5010 H 471.237 -0.191395 -3.26039 0
M  V30 5011 H 469.896 -2.28697 -2.86519 0
M  V30 5012 H 469.544 -0.938281 -4.94171 0
M  V30 5013 H 469.244 -2.66973 -5.23449 0
M  V30 5014 H 470.768 -1.92443 -5.79481 0
M  V30 5015 H 472.182 -3.70047 -4.37879 0
M  V30 5016 H 470.579 -4.4228 -4.05597 0
M  V30 5017 H 471.649 -4.0288 -2.69844 0
M  V30 5018 N 472.992 0.995999 -1.22138 0
M  V30 5019 C 474.22 1.77066 -1.07029 0
M  V30 5020 C 474.635 1.8495 0.379357 0
M  V30 5021 O 473.992 1.3174 1.26297 0
M  V30 5022 C 474.043 3.20533 -1.67155 0
M  V30 5023 O 473.764 3.13082 -3.06449 0
M  V30 5024 C 475.265 4.14461 -1.5728 0
M  V30 5025 H 472.485 0.556179 -0.375374 0
M  V30 5026 H 475.029 1.25238 -1.61666 0
M  V30 5027 H 473.184 3.6944 -1.16589 0
M  V30 5028 H 473.598 4.03283 -3.35355 0
M  V30 5029 H 475.072 5.1289 -2.04078 0
M  V30 5030 H 475.549 4.36005 -0.528795 0
M  V30 5031 H 476.155 3.71449 -2.07136 0
M  V30 5032 N 474.47 1.03057 1.19235 0
M  V30 5033 C 475.403 0.557384 2.21288 0
M  V30 5034 C 476.381 -0.402675 1.57535 0
M  V30 5035 O 477.565 -0.319376 1.85775 0
M  V30 5036 C 474.692 -0.187041 3.38183 0
M  V30 5037 C 473.738 0.72471 4.20298 0
M  V30 5038 S 474.571 2.20187 4.88137 0
M  V30 5039 C 475.727 1.46801 6.08441 0
M  V30 5040 H 475.96 1.42207 2.61083 0
M  V30 5041 H 473.493 0.840651 1.29508 0
M  V30 5042 H 475.451 -0.610405 4.05936 0
M  V30 5043 H 474.112 -1.02748 2.96819 0
M  V30 5044 H 473.305 0.149911 5.03777 0
M  V30 5045 H 472.907 1.08647 3.57871 0
M  V30 5046 H 475.199 0.755522 6.73274 0
M  V30 5047 H 476.142 2.27946 6.70407 0
M  V30 5048 H 476.55 0.964762 5.56195 0
M  V30 5049 N 475.948 -1.35272 0.808662 0
M  V30 5050 C 477.359 -1.81179 0.450688 0
M  V30 5051 C 477.71 -1.67143 -1.02751 0
M  V30 5052 O 476.835 -1.20325 -1.79864 0
M  V30 5053 C 477.43 -3.28943 0.811275 0
M  V30 5054 C 475.989 -3.72985 0.505871 0
M  V30 5055 C 475.136 -2.57229 1.03578 0
M  V30 5056 H 478.087 -1.2322 1.00012 0
M  V30 5057 H 478.108 -3.80342 0.109588 0
M  V30 5058 H 477.62 -3.39127 1.88718 0
M  V30 5059 H 475.721 -3.68349 -0.561209 0
M  V30 5060 H 475.834 -4.67677 1.03995 0
M  V30 5061 H 474.198 -2.50548 0.458005 0
M  V30 5062 H 474.981 -2.7019 2.11784 0
M  V30 5063 N 477.426 -0.562348 -1.47226 0
M  V30 5064 C 478.703 0.0256985 -1.95583 0
M  V30 5065 C 479.083 1.48032 -1.50498 0
M  V30 5066 O 478.431 2.15973 -0.746181 0
M  V30 5067 C 478.641 -0.125129 -3.48776 0
M  V30 5068 C 479.989 0.0175728 -4.24596 0
M  V30 5069 O 481.013 -0.0529341 -3.56161 0
M  V30 5070 O 479.872 0.170145 -5.46235 0
M  V30 5071 H 476.966 0.0612565 -0.824728 0
M  V30 5072 H 479.512 -0.629233 -1.57603 0
M  V30 5073 H 478.284 -1.13715 -3.74412 0
M  V30 5074 H 477.907 0.567178 -3.93534 0
M  V30 5075 N 478.904 1.54736 -0.299062 0
M  V30 5076 C 480.132 2.04512 0.313447 0
M  V30 5077 C 480.547 1.17643 1.47667 0
M  V30 5078 O 479.904 0.20164 1.81383 0
M  V30 5079 C 479.955 3.53171 0.771542 0
M  V30 5080 O 479.676 4.36736 -0.345379 0
M  V30 5081 C 481.177 4.18936 1.4494 0
M  V30 5082 H 478.397 0.667507 0.0683784 0
M  V30 5083 H 480.941 1.99752 -0.438129 0
M  V30 5084 H 479.096 3.58298 1.47314 0
M  V30 5085 H 479.51 5.24499 0.0109219 0
M  V30 5086 H 480.984 5.24482 1.72111 0
M  V30 5087 H 481.461 3.68554 2.38883 0
M  V30 5088 H 482.067 4.17879 0.791028 0
M  V30 5089 N 480.382 0.0267497 1.57577 0
M  V30 5090 C 481.793 -0.512413 1.79531 0
M  V30 5091 C 482.144 -1.72391 0.936791 0
M  V30 5092 O 481.269 -2.15903 0.146543 0
M  V30 5093 C 481.864 -0.936378 3.25603 0
M  V30 5094 C 480.423 -1.42067 3.4856 0
M  V30 5095 C 479.57 -0.384278 2.74624 0
M  V30 5096 H 482.521 0.252797 1.56674 0
M  V30 5097 H 482.542 -1.80088 3.35184 0
M  V30 5098 H 482.054 -0.0544332 3.88062 0
M  V30 5099 H 480.155 -2.32262 2.9135 0
M  V30 5100 H 480.268 -1.42968 4.57271 0
M  V30 5101 H 478.632 -0.851855 2.40032 0
M  V30 5102 H 479.415 0.489159 3.39797 0
M  V30 5103 N 481.861 -1.55662 -0.24637 0
M  V30 5104 C 483.277 -1.48098 -0.594907 0
M  V30 5105 C 483.477 -0.717044 -1.8831 0
M  V30 5106 O 482.533 -0.246618 -2.51293 0
M  V30 5107 C 483.846 -2.92507 -0.697146 0
M  V30 5108 C 485.394 -3.02881 -0.789436 0
M  V30 5109 C 485.869 -4.48598 -0.923232 0
M  V30 5110 N 487.36 -4.52538 -0.988088 0
M  V30 5111 C 488.095 -5.62536 -1.11089 0
M  V30 5112 N 487.591 -6.82342 -1.19919 0
M  V30 5113 N 489.384 -5.50334 -1.14408 0
M  V30 5114 H 481.535 -2.0377 0.599278 0
M  V30 5115 H 483.798 -0.925145 0.20691 0
M  V30 5116 H 483.504 -3.51242 0.179396 0
M  V30 5117 H 483.378 -3.43024 -1.5689 0
M  V30 5118 H 485.765 -2.44226 -1.65643 0
M  V30 5119 H 485.846 -2.55574 0.107482 0
M  V30 5120 H 485.49 -5.07864 -0.0607927 0
M  V30 5121 H 485.42 -4.93587 -1.8352 0
M  V30 5122 H 487.911 -3.66248 -0.931167 0
M  V30 5123 H 488.224 -7.61924 -1.29197 0
M  V30 5124 H 486.569 -6.85102 -1.16876 0
M  V30 5125 H 489.76 -4.5567 -1.07158 0
M  V30 5126 H 489.933 -6.36096 -1.23634 0
M  V30 5127 N 483.339 0.512053 -1.4905 0
M  V30 5128 C 484.269 1.62365 -1.67809 0
M  V30 5129 C 485.25 1.61737 -0.526809 0
M  V30 5130 O 486.435 1.78651 -0.761404 0
M  V30 5131 C 483.565 3.00895 -1.73435 0
M  V30 5132 C 482.519 3.16387 -2.88242 0
M  V30 5133 C 481.845 4.56157 -2.78971 0
M  V30 5134 C 483.145 2.97457 -4.29321 0
M  V30 5135 H 484.839 1.46921 -2.60873 0
M  V30 5136 H 482.385 0.705379 -1.2554 0
M  V30 5137 H 484.338 3.78549 -1.85145 0
M  V30 5138 H 483.062 3.17403 -0.769619 0
M  V30 5139 H 481.721 2.41155 -2.76116 0
M  V30 5140 H 481.369 4.69525 -1.8043 0
M  V30 5141 H 481.069 4.67465 -3.5602 0
M  V30 5142 H 482.593 5.35886 -2.92675 0
M  V30 5143 H 484.007 3.64888 -4.42187 0
M  V30 5144 H 482.404 3.20245 -5.07507 0
M  V30 5145 H 483.474 1.93692 -4.44535 0
M  V30 5146 N 484.817 1.37938 0.762283 0
M  V30 5147 C 486.064 1.33668 1.52115 0
M  V30 5148 C 486.392 -0.0759538 1.94352 0
M  V30 5149 O 485.647 -1.05121 1.6507 0
M  V30 5150 C 485.946 2.23042 2.79261 0
M  V30 5151 C 485.612 3.71159 2.56031 0
M  V30 5152 C 484.274 4.11523 2.49404 0
M  V30 5153 C 486.626 4.64955 2.35513 0
M  V30 5154 C 483.954 5.43784 2.20263 0
M  V30 5155 C 486.306 5.97464 2.07894 0
M  V30 5156 C 484.97 6.36922 1.99718 0
M  V30 5157 H 484.24 0.489127 0.556629 0
M  V30 5158 H 486.887 1.70224 0.877262 0
M  V30 5159 H 485.192 1.79512 3.48256 0
M  V30 5160 H 486.889 2.17047 3.37182 0
M  V30 5161 H 483.479 3.39153 2.62056 0
M  V30 5162 H 487.663 4.34623 2.39617 0
M  V30 5163 H 482.919 5.73307 2.12435 0
M  V30 5164 H 487.093 6.6969 1.91019 0
M  V30 5165 H 484.72 7.39331 1.76902 0
M  V30 5166 N 486.295 -0.989507 1.22664 0
M  V30 5167 C 487.258 -2.06183 1.00106 0
M  V30 5168 C 488.258 -1.60765 -0.0337726 0
M  V30 5169 O 489.448 -1.72989 0.205072 0
M  V30 5170 C 486.58 -3.37021 0.51279 0
M  V30 5171 H 487.773 -2.27629 1.95256 0
M  V30 5172 H 485.326 -1.16158 1.0458 0
M  V30 5173 H 486.061 -3.21261 -0.442917 0
M  V30 5174 H 485.846 -3.71323 1.25942 0
M  V30 5175 H 487.336 -4.1591 0.375315 0
M  V30 5176 N 487.773 -1.03688 -1.18687 0
M  V30 5177 C 489.003 -0.756819 -1.92239 0
M  V30 5178 C 489.411 0.689374 -1.76194 0
M  V30 5179 O 488.754 1.48126 -1.08648 0
M  V30 5180 C 488.816 -1.03851 -3.44173 0
M  V30 5181 C 488.48 -2.47785 -3.83994 0
M  V30 5182 C 489.477 -3.4595 -3.88091 0
M  V30 5183 C 487.162 -2.82397 -4.154 0
M  V30 5184 C 489.156 -4.76779 -4.23038 0
M  V30 5185 C 486.843 -4.13433 -4.50018 0
M  V30 5186 C 487.841 -5.10434 -4.53813 0
M  V30 5187 O 487.529 -6.39122 -4.87625 0
M  V30 5188 H 487.261 -0.275678 -0.617234 0
M  V30 5189 H 489.815 -1.38658 -1.51536 0
M  V30 5190 H 488.045 -0.351612 -3.85098 0
M  V30 5191 H 489.734 -0.746846 -3.9897 0
M  V30 5192 H 490.5 -3.20549 -3.63969 0
M  V30 5193 H 486.379 -2.07568 -4.11627 0
M  V30 5194 H 489.923 -5.52488 -4.25914 0
M  V30 5195 H 485.82 -4.38604 -4.736 0
M  V30 5196 H 486.588 -6.43715 -5.05542 0
M  V30 5197 N 489.251 1.34841 -0.815825 0
M  V30 5198 C 490.161 2.33425 -0.234462 0
M  V30 5199 C 491.177 1.62295 0.627413 0
M  V30 5200 O 492.353 1.94109 0.536987 0
M  V30 5201 C 489.418 3.41471 0.599849 0
M  V30 5202 C 488.479 4.28362 -0.283596 0
M  V30 5203 C 487.712 5.31248 0.51099 0
M  V30 5204 O 487.935 5.43056 1.7449 0
M  V30 5205 O 486.869 6.01812 -0.10297 0
M  V30 5206 H 490.695 2.84962 -1.05024 0
M  V30 5207 H 488.28 1.37774 -0.577809 0
M  V30 5208 H 490.162 4.07464 1.07475 0
M  V30 5209 H 488.837 2.9219 1.39308 0
M  V30 5210 H 487.744 3.65318 -0.805836 0
M  V30 5211 H 489.077 4.81066 -1.041 0
M  V30 5212 N 490.729 0.570148 1.46925 0
M  V30 5213 C 491.677 -0.183181 2.31878 0
M  V30 5214 C 492.671 -0.896721 1.43719 0
M  V30 5215 O 493.877 -0.816536 1.60414 0
M  V30 5216 H 490.252 -0.077944 0.74795 0
M  V30 5217 H 492.223 0.552312 2.93244 0
M  V30 5218 C 490.972 -1.19172 3.2664 0
M  V30 5219 H 490.295 -0.652088 3.94446 0
M  V30 5220 H 491.735 -1.68946 3.88887 0
M  V30 5221 C 490.194 -2.24627 2.51086 0
M  V30 5222 O 490.724 -3.31773 2.26472 0
M  V30 5223 N 488.93 -1.98898 2.11867 0
M  V30 5224 H 488.477 -1.11777 2.32086 0
M  V30 5225 H 488.435 -2.6967 1.61634 0
M  V30 5226 N 492.207 -1.54576 0.307264 0
M  V30 5227 C 493.453 -2.0056 -0.300612 0
M  V30 5228 C 493.786 -1.1953 -1.53057 0
M  V30 5229 O 493.061 -0.27337 -1.92569 0
M  V30 5230 C 493.344 -3.54167 -0.650987 0
M  V30 5231 C 493.197 -4.45933 0.588539 0
M  V30 5232 C 494.516 -4.14645 -1.47506 0
M  V30 5233 H 491.635 -0.729075 -0.107788 0
M  V30 5234 H 494.277 -1.85286 0.420606 0
M  V30 5235 H 492.427 -3.67313 -1.26544 0
M  V30 5236 H 494.099 -4.44683 1.22697 0
M  V30 5237 H 492.342 -4.16274 1.22058 0
M  V30 5238 H 493.013 -5.51189 0.299153 0
M  V30 5239 H 495.489 -4.04973 -0.955821 0
M  V30 5240 H 494.365 -5.22269 -1.68899 0
M  V30 5241 H 494.626 -3.66921 -2.4662 0
M  V30 5242 N 493.685 -0.035106 -1.57561 0
M  V30 5243 C 494.934 0.641604 -1.91223 0
M  V30 5244 C 495.247 1.72944 -0.913761 0
M  V30 5245 O 496.453 2.46321 -1.14185 0
M  V30 5246 C 494.909 1.19249 -3.3957 0
M  V30 5247 C 494.517 0.137616 -4.47789 0
M  V30 5248 C 496.261 1.84537 -3.82291 0
M  V30 5249 C 494.168 0.700478 -5.87237 0
M  V30 5250 H 493.098 0.243417 -0.713627 0
M  V30 5251 H 495.749 -0.101382 -1.8322 0
M  V30 5252 H 494.131 1.98728 -3.42525 0
M  V30 5253 H 495.305 -0.635153 -4.56402 0
M  V30 5254 H 493.62 -0.416855 -4.14308 0
M  V30 5255 H 496.217 2.27616 -4.83834 0
M  V30 5256 H 496.56 2.69054 -3.17672 0
M  V30 5257 H 497.093 1.11739 -3.81784 0
M  V30 5258 H 493.832 -0.106693 -6.55413 0
M  V30 5259 H 493.352 1.4416 -5.82218 0
M  V30 5260 H 495.031 1.18837 -6.35993 0
M  V30 5261 O 495.202 1.61149 0.106394 0
M  V30 5262 H 495.893 1.7916 0.736293 0
M  V30 END ATOM
M  V30 BEGIN BOND
M  V30 END BOND
M  V30 END CTAB
M  END
$$$$
