drugbank_target|Q9NR96 Toll-like receptor 9 (DB00608; DB01611; DB05463; DB05475; DB05530)
 OpenBabel12092119493D

  0  0  0     0  0            999 V3000
M  V30 BEGIN CTAB
M  V30 COUNTS 16325 16536 0 0 0
M  V30 BEGIN ATOM
M  V30 1 H -0.908 1.98254 -0.117106 0
M  V30 2 N 0 1.576 0 0
M  V30 3 C 0.933 2.03868 1.02534 0
M  V30 4 C 1.911 0.928543 1.3348 0
M  V30 5 O 3.095 1.19667 1.45644 0
M  V30 6 C 0.222 2.43627 2.35294 0
M  V30 7 C -0.732 3.65373 2.2001 0
M  V30 8 S 0.101 5.13292 1.52614 0
M  V30 9 C 1.257 5.56322 2.86805 0
M  V30 10 H 1.49 2.90518 0.631377 0
M  V30 11 H -0.977 1.52953 0.210867 0
M  V30 12 H 0.981 2.67203 3.11629 0
M  V30 13 H -0.358 1.57376 2.7183 0
M  V30 14 H -1.165 3.90944 3.18086 0
M  V30 15 H -1.563 3.418 1.51819 0
M  V30 16 H 0.729 5.58782 3.83104 0
M  V30 17 H 1.672 6.56266 2.65933 0
M  V30 18 H 2.08 4.83886 2.90714 0
M  V30 19 N 1.4781 -0.272755 1.55222 0
M  V30 20 C 2.7261 -1.00234 1.75492 0
M  V30 21 C 3.0471 -1.8681 0.5592 0
M  V30 22 O 2.3171 -1.91215 -0.425882 0
M  V30 23 H 0.8971 -0.373076 0.647166 0
M  V30 24 H 3.5591 -0.296926 1.92625 0
M  V30 25 H 2.6551 -1.63913 2.65592 0
M  V30 26 N 2.9562 -1.48159 -0.537278 0
M  V30 27 C 4.2032 -1.55804 -1.29349 0
M  V30 28 C 4.5312 -0.228802 -1.9315 0
M  V30 29 O 3.7862 0.780242 -1.79473 0
M  V30 30 C 4.0852 -2.63956 -2.40961 0
M  V30 31 C 3.7512 -4.0662 -1.94861 0
M  V30 32 C 2.4132 -4.45452 -1.82006 0
M  V30 33 C 4.7652 -4.96055 -1.59933 0
M  V30 34 C 2.0932 -5.71531 -1.32547 0
M  V30 35 C 4.4452 -6.22617 -1.11939 0
M  V30 36 C 3.1092 -6.60312 -0.976951 0
M  V30 37 H 2.3792 -0.570129 -0.473322 0
M  V30 38 H 5.0262 -1.81845 -0.600372 0
M  V30 39 H 3.3312 -2.31747 -3.15912 0
M  V30 40 H 5.0282 -2.67089 -2.99107 0
M  V30 41 H 1.6182 -3.75949 -2.05815 0
M  V30 42 H 5.8022 -4.66738 -1.68728 0
M  V30 43 H 1.0582 -5.99468 -1.202 0
M  V30 44 H 5.2322 -6.91318 -0.839811 0
M  V30 45 H 2.8592 -7.57895 -0.591501 0
M  V30 46 N 4.4343 0.785586 -1.36625 0
M  V30 47 C 5.6743 1.55678 -1.32453 0
M  V30 48 C 6.0383 1.91769 0.0941089 0
M  V30 49 O 7.2393 2.67536 0.26042 0
M  V30 50 C 5.5103 2.79701 -2.22491 0
M  V30 51 S 7.0693 3.69907 -2.36038 0
M  V30 52 H 3.8873 0.533141 -0.470405 0
M  V30 53 H 6.4893 0.924953 -1.72235 0
M  V30 54 H 5.1933 2.51244 -3.24507 0
M  V30 55 H 4.7243 3.47854 -1.83742 0
M  V30 56 H 6.7393 4.71016 -1.56072 0
M  V30 57 N 5.9124 1.20967 1.01018 0
M  V30 58 C 7.3284 0.965905 1.27053 0
M  V30 59 C 7.5284 -0.350785 1.98423 0
M  V30 60 O 6.5844 -1.07773 2.28344 0
M  V30 61 C 7.8974 2.15294 2.09926 0
M  V30 62 C 9.4454 2.19463 2.23171 0
M  V30 63 C 9.9204 3.3767 3.09424 0
M  V30 64 N 11.4114 3.37724 3.17012 0
M  V30 65 C 12.1464 4.25837 3.83993 0
M  V30 66 N 11.6424 5.24138 4.53047 0
M  V30 67 N 13.4354 4.1366 3.80581 0
M  V30 68 H 5.5864 2.0565 0.531194 0
M  V30 69 H 7.8494 0.90024 0.297106 0
M  V30 70 H 7.5554 3.10684 1.64828 0
M  V30 71 H 7.4294 2.13923 3.10672 0
M  V30 72 H 9.8164 1.24632 2.6749 0
M  V30 73 H 9.8974 2.2488 1.21912 0
M  V30 74 H 9.5414 4.32791 2.65808 0
M  V30 75 H 9.4714 3.29491 4.10784 0
M  V30 76 H 11.9624 2.6658 2.6785 0
M  V30 77 H 12.2754 5.87684 5.01844 0
M  V30 78 H 10.6204 5.28068 4.5185 0
M  V30 79 H 13.8114 3.36127 3.25785 0
M  V30 80 H 13.9844 4.82538 4.32505 0
M  V30 81 N 7.3905 -1.2043 1.01659 0
M  V30 82 C 8.6155 -1.94318 0.724942 0
M  V30 83 C 9.0405 -1.74266 -0.708034 0
M  V30 84 O 8.3985 -1.03694 -1.48719 0
M  V30 85 C 8.4465 -3.44486 1.06591 0
M  V30 86 O 7.5505 -4.12017 0.177599 0
M  V30 87 H 6.8915 -0.60708 0.26898 0
M  V30 88 H 9.4215 -1.52861 1.35995 0
M  V30 89 H 9.4315 -3.95106 1.01762 0
M  V30 90 H 8.1065 -3.58404 2.10997 0
M  V30 91 H 6.6835 -3.71821 0.283421 0
M  V30 92 N 8.8686 -0.792821 -1.36206 0
M  V30 93 C 9.8316 -0.199459 -2.2833 0
M  V30 94 C 10.8316 0.605189 -1.48977 0
M  V30 95 O 12.0216 0.425685 -1.68919 0
M  V30 96 C 9.1536 0.723523 -3.33134 0
M  V30 97 H 10.3466 -1.01181 -2.82316 0
M  V30 98 H 7.8996 -0.562485 -1.45828 0
M  V30 99 H 8.6346 1.56008 -2.84309 0
M  V30 100 H 8.4196 0.148436 -3.91819 0
M  V30 101 H 9.9096 1.13344 -4.01924 0
M  V30 102 N 10.3467 1.47872 -0.545128 0
M  V30 103 C 11.2767 2.32661 0.197793 0
M  V30 104 C 12.2577 1.43041 0.920504 0
M  V30 105 O 13.4427 1.71912 0.90333 0
M  V30 106 C 10.5727 3.24569 1.23582 0
M  V30 107 C 9.5267 4.23333 0.630323 0
M  V30 108 C 8.8527 5.0448 1.77211 0
M  V30 109 C 10.1527 5.20704 -0.407974 0
M  V30 110 H 11.8467 2.95024 -0.510045 0
M  V30 111 H 9.3927 1.4187 -0.246731 0
M  V30 112 H 11.3457 3.8272 1.76362 0
M  V30 113 H 10.0697 2.60236 1.97344 0
M  V30 114 H 8.7287 3.6639 0.123922 0
M  V30 115 H 8.3767 4.36561 2.49847 0
M  V30 116 H 8.0767 5.71339 1.37281 0
M  V30 117 H 9.6007 5.65487 2.3034 0
M  V30 118 H 11.0147 5.7329 0.033305 0
M  V30 119 H 9.4117 5.95699 -0.725486 0
M  V30 120 H 10.4817 4.66917 -1.30828 0
M  V30 121 N 11.8248 0.280983 1.55075 0
M  V30 122 C 12.7748 -0.618585 2.19448 0
M  V30 123 C 13.7588 -1.11401 1.16098 0
M  V30 124 O 14.9508 -1.0581 1.41891 0
M  V30 125 C 12.0798 -1.79951 2.92357 0
M  V30 126 C 11.1658 -1.321 4.03002 0
M  V30 127 N 11.5568 -0.559044 5.02701 0
M  V30 128 C 9.8548 -1.60346 4.16179 0
M  V30 129 C 10.5558 -0.306722 5.80891 0
M  V30 130 N 9.5318 -0.880825 5.36416 0
M  V30 131 H 13.3338 -0.0286638 2.93886 0
M  V30 132 H 10.8478 0.0848104 1.62178 0
M  V30 133 H 12.8448 -2.45531 3.36927 0
M  V30 134 H 11.5048 -2.39333 2.19431 0
M  V30 135 H 12.5158 -0.205827 5.17491 0
M  V30 136 H 9.1928 -2.20621 3.54447 0
M  V30 137 H 10.5828 0.30391 6.71212 0
M  V30 138 N 13.3029 -1.57598 0.00835791 0
M  V30 139 C 14.7139 -1.7892 -0.53333 0
M  V30 140 C 15.0649 -0.916609 -1.73473 0
M  V30 141 O 14.1899 -0.121336 -2.1606 0
M  V30 142 C 14.7849 -3.24488 -0.974313 0
M  V30 143 C 13.3439 -3.46878 -1.46125 0
M  V30 144 C 12.4909 -2.74157 -0.416302 0
M  V30 145 H 15.4419 -1.56958 0.234495 0
M  V30 146 H 15.4629 -3.3306 -1.83988 0
M  V30 147 H 14.9749 -3.87972 -0.099718 0
M  V30 148 H 13.0759 -2.8862 -2.35646 0
M  V30 149 H 13.1889 -4.55572 -1.48295 0
M  V30 150 H 11.5529 -2.39022 -0.87981 0
M  V30 151 H 12.3359 -3.40345 0.44947 0
M  V30 152 N 14.781 0.264519 -1.55364 0
M  V30 153 C 15.711 1.33121 -1.91836 0
M  V30 154 C 16.692 1.51101 -0.781192 0
M  V30 155 O 17.877 1.64003 -1.04003 0
M  V30 156 C 15.007 2.68921 -2.19769 0
M  V30 157 C 13.961 2.65661 -3.35571 0
M  V30 158 C 13.287 4.05093 -3.49004 0
M  V30 159 C 14.587 2.24187 -4.71739 0
M  V30 160 H 16.281 1.02844 -2.81182 0
M  V30 161 H 13.827 0.493286 -1.35287 0
M  V30 162 H 15.78 3.43663 -2.43872 0
M  V30 163 H 14.504 3.00799 -1.27231 0
M  V30 164 H 13.163 1.93377 -3.1145 0
M  V30 165 H 12.811 4.34206 -2.53917 0
M  V30 166 H 12.511 4.03804 -4.26868 0
M  V30 167 H 14.035 4.81561 -3.75408 0
M  V30 168 H 15.449 2.88654 -4.9533 0
M  V30 169 H 13.846 2.34044 -5.52579 0
M  V30 170 H 14.916 1.19327 -4.69988 0
M  V30 171 N 16.2591 1.48442 0.529413 0
M  V30 172 C 17.4841 1.60406 1.31471 0
M  V30 173 C 17.9091 0.264738 1.86228 0
M  V30 174 O 17.2671 -0.763668 1.64432 0
M  V30 175 C 17.3151 2.65419 2.44101 0
M  V30 176 O 16.4191 2.22618 3.47153 0
M  V30 177 H 15.7601 0.537863 0.389357 0
M  V30 178 H 18.2901 1.94432 0.636965 0
M  V30 179 H 18.3001 2.86709 2.90279 0
M  V30 180 H 16.9751 3.62652 2.03608 0
M  V30 181 H 15.5521 2.11543 3.0709 0
M  V30 182 N 17.7372 -0.778329 1.37039 0
M  V30 183 C 18.6672 -1.90546 1.34962 0
M  V30 184 C 19.6482 -1.68681 0.219274 0
M  V30 185 O 20.8332 -1.89634 0.418624 0
M  V30 186 C 17.9632 -3.27734 1.14925 0
M  V30 187 C 16.9172 -3.64147 2.24902 0
M  V30 188 C 16.2432 -4.99806 1.89996 0
M  V30 189 C 17.5432 -3.71579 3.67051 0
M  V30 190 H 19.2372 -1.92541 2.29277 0
M  V30 191 H 16.7832 -0.924948 1.10366 0
M  V30 192 H 18.7362 -4.06215 1.12104 0
M  V30 193 H 17.4602 -3.26154 0.170631 0
M  V30 194 H 16.1192 -2.8797 2.26868 0
M  V30 195 H 15.7672 -4.94759 0.906796 0
M  V30 196 H 15.4672 -5.25139 2.63634 0
M  V30 197 H 16.9912 -5.80694 1.88749 0
M  V30 198 H 18.4052 -4.40227 3.67251 0
M  V30 199 H 16.8022 -4.08405 4.39688 0
M  V30 200 H 17.8722 -2.72404 4.01154 0
M  V30 201 N 19.2153 -1.21501 -1.00376 0
M  V30 202 C 20.1453 -0.999478 -2.11028 0
M  V30 203 C 21.1263 0.0759671 -1.6993 0
M  V30 204 O 22.3113 -0.0841106 -1.94018 0
M  V30 205 C 19.4413 -0.564709 -3.42678 0
M  V30 206 C 18.3953 -1.58486 -3.97576 0
M  V30 207 C 17.7213 -1.00628 -5.25146 0
M  V30 208 C 19.0213 -2.97204 -4.29496 0
M  V30 209 H 20.7153 -1.92495 -2.29317 0
M  V30 210 H 18.2613 -0.92693 -1.102 0
M  V30 211 H 20.2143 -0.401091 -4.19487 0
M  V30 212 H 18.9383 0.396411 -3.24185 0
M  V30 213 H 17.5973 -1.73606 -3.22888 0
M  V30 214 H 17.2453 -0.0368439 -5.02987 0
M  V30 215 H 16.9453 -1.68771 -5.62841 0
M  V30 216 H 18.4693 -0.854015 -6.04598 0
M  V30 217 H 19.8833 -2.8552 -4.97143 0
M  V30 218 H 18.2803 -3.62372 -4.78338 0
M  V30 219 H 19.3503 -3.47956 -3.3772 0
M  V30 220 N 20.6934 1.19889 -1.02296 0
M  V30 221 C 21.9394 1.89701 -0.717033 0
M  V30 222 C 22.2724 1.7905 0.751989 0
M  V30 223 O 21.5474 1.17891 1.547 0
M  V30 224 C 21.8304 3.40858 -1.16136 0
M  V30 225 C 21.6834 3.60411 -2.69117 0
M  V30 226 C 23.0024 4.33876 -0.737549 0
M  V30 227 H 20.1214 0.688874 -0.261957 0
M  V30 228 H 22.7634 1.41154 -1.27183 0
M  V30 229 H 20.9134 3.82335 -0.689342 0
M  V30 230 H 22.5854 3.28145 -3.2422 0
M  V30 231 H 20.8284 3.03665 -3.0979 0
M  V30 232 H 21.4994 4.66396 -2.95261 0
M  V30 233 H 23.9754 4.00081 -1.14344 0
M  V30 234 H 22.8514 5.38242 -1.0764 0
M  V30 235 H 23.1124 4.40628 0.360436 0
M  V30 236 N 22.1715 0.800033 1.35784 0
M  V30 237 C 23.1035 0.163596 2.28615 0
M  V30 238 C 24.1165 -0.633317 1.49976 0
M  V30 239 O 25.3055 -0.466754 1.72289 0
M  V30 240 C 22.4055 -0.790958 3.29541 0
M  V30 241 C 21.5785 -0.0418255 4.3738 0
M  V30 242 C 20.6375 -0.91389 5.18203 0
M  V30 243 O 19.6635 -0.367234 5.68014 0
M  V30 244 N 20.8655 -2.23682 5.35674 0
M  V30 245 H 23.6305 0.96105 2.83873 0
M  V30 246 H 21.1915 0.654894 1.48063 0
M  V30 247 H 23.1835 -1.37844 3.80501 0
M  V30 248 H 21.7535 -1.48925 2.74846 0
M  V30 249 H 20.9735 0.726813 3.87442 0
M  V30 250 H 22.2615 0.474719 5.06581 0
M  V30 251 H 21.6595 -2.70497 4.96838 0
M  V30 252 H 20.2165 -2.77369 5.89839 0
M  V30 253 N 23.6496 -1.47581 0.552962 0
M  V30 254 C 24.6126 -2.28439 -0.186605 0
M  V30 255 C 25.6126 -1.36706 -0.84665 0
M  V30 256 O 26.8026 -1.59378 -0.703164 0
M  V30 257 C 23.9346 -3.16264 -1.2724 0
M  V30 258 H 25.1276 -2.95294 0.523609 0
M  V30 259 H 22.6806 -1.532 0.309745 0
M  V30 260 H 23.4156 -2.54091 -2.01514 0
M  V30 261 H 23.2006 -3.83769 -0.803968 0
M  V30 262 H 24.6906 -3.77198 -1.79196 0
M  V30 263 N 25.1277 -0.289203 -1.54924 0
M  V30 264 C 26.3767 0.324231 -1.99077 0
M  V30 265 C 26.6897 1.5591 -1.18117 0
M  V30 266 O 27.8957 2.24637 -1.52481 0
M  V30 267 C 26.3517 0.628209 -3.54375 0
M  V30 268 C 25.9597 -0.587647 -4.44129 0
M  V30 269 C 27.7037 1.20349 -4.07083 0
M  V30 270 C 25.6107 -0.257475 -5.90839 0
M  V30 271 H 24.5407 0.124924 -0.743579 0
M  V30 272 H 27.1917 -0.396063 -1.79175 0
M  V30 273 H 25.5737 1.40778 -3.70132 0
M  V30 274 H 26.7477 -1.36418 -4.40144 0
M  V30 275 H 25.0627 -1.08074 -4.0213 0
M  V30 276 H 27.6597 1.46456 -5.14252 0
M  V30 277 H 28.0027 2.14195 -3.56968 0
M  V30 278 H 28.5357 0.485889 -3.94821 0
M  V30 279 H 25.2747 -1.16419 -6.45079 0
M  V30 280 H 24.7947 0.482018 -5.9786 0
M  V30 281 H 26.4737 0.145238 -6.46837 0
M  V30 282 N 26.6058 1.57591 -0.0167156 0
M  V30 283 C 27.5388 2.04944 1.00366 0
M  V30 284 C 28.5168 0.942648 1.32487 0
M  V30 285 O 29.7008 1.21205 1.44367 0
M  V30 286 C 26.8278 2.46109 2.32697 0
M  V30 287 C 25.8738 3.67686 2.16123 0
M  V30 288 S 26.7068 5.14882 1.47161 0
M  V30 289 C 27.8628 5.59332 2.80888 0
M  V30 290 H 28.0958 2.91172 0.600528 0
M  V30 291 H 25.6288 1.53168 0.194632 0
M  V30 292 H 27.5868 2.70493 3.08778 0
M  V30 293 H 26.2478 1.6025 2.70146 0
M  V30 294 H 25.4408 3.94296 3.13922 0
M  V30 295 H 25.0428 3.43391 1.48185 0
M  V30 296 H 27.3348 5.62814 3.77156 0
M  V30 297 H 28.2778 6.5905 2.58958 0
M  V30 298 H 28.6858 4.86942 2.85565 0
M  V30 299 N 28.0839 -0.256276 1.55502 0
M  V30 300 C 29.0139 -1.32102 1.92539 0
M  V30 301 C 29.9949 -1.50684 0.789194 0
M  V30 302 O 31.1799 -1.63449 1.04872 0
M  V30 303 C 28.3099 -2.67752 2.21192 0
M  V30 304 C 27.2639 -2.63878 3.36975 0
M  V30 305 C 26.5899 -4.03236 3.51147 0
M  V30 306 C 27.8899 -2.21682 4.72921 0
M  V30 307 H 29.5839 -1.01351 2.81724 0
M  V30 308 H 27.1299 -0.486105 1.35547 0
M  V30 309 H 29.0829 -3.42365 2.45691 0
M  V30 310 H 27.8069 -3.0012 1.28824 0
M  V30 311 H 26.4659 -1.91722 3.12471 0
M  V30 312 H 26.1139 -4.32854 2.56216 0
M  V30 313 H 25.8139 -4.01535 4.29003 0
M  V30 314 H 27.3379 -4.79563 3.77957 0
M  V30 315 H 28.7519 -2.86023 4.96854 0
M  V30 316 H 27.1489 -2.3111 5.53812 0
M  V30 317 H 28.2189 -1.16833 4.70615 0
M  V30 318 N 29.562 -1.4872 -0.521534 0
M  V30 319 C 30.525 -1.63379 -1.60748 0
M  V30 320 C 31.525 -0.50661 -1.52611 0
M  V30 321 O 32.715 -0.772601 -1.5613 0
M  V30 322 C 29.847 -1.61192 -3.00383 0
M  V30 323 H 31.04 -2.60217 -1.49087 0
M  V30 324 H 28.593 -1.37444 -0.744235 0
M  V30 325 H 29.328 -0.65863 -3.17541 0
M  V30 326 H 29.113 -2.43032 -3.07698 0
M  V30 327 H 30.603 -1.7466 -3.7932 0
M  V30 328 N 31.0401 0.771051 -1.3745 0
M  V30 329 C 31.9731 1.89166 -1.27638 0
M  V30 330 C 32.9511 1.61842 -0.156782 0
M  V30 331 O 34.1351 1.85569 -0.331111 0
M  V30 332 C 31.2621 3.24405 -0.973621 0
M  V30 333 C 30.3081 3.70638 -2.1102 0
M  V30 334 S 31.1411 3.84228 -3.73 0
M  V30 335 C 32.2971 5.22313 -3.44876 0
M  V30 336 H 32.5301 1.972 -2.22485 0
M  V30 337 H 30.0631 0.932224 -1.23081 0
M  V30 338 H 32.0211 4.02514 -0.805766 0
M  V30 339 H 30.6821 3.14071 -0.0426279 0
M  V30 340 H 29.8751 4.68685 -1.85338 0
M  V30 341 H 29.4771 2.99632 -2.23822 0
M  V30 342 H 31.7691 6.07505 -2.99908 0
M  V30 343 H 32.7121 5.53008 -4.42253 0
M  V30 344 H 33.1201 4.90284 -2.79789 0
M  V30 345 N 32.5182 1.22032 0.997298 0
M  V30 346 C 33.7462 1.06841 1.7718 0
M  V30 347 C 34.1612 -0.381325 1.84909 0
M  V30 348 O 33.5182 -1.26437 1.31605 0
M  V30 349 C 33.5692 1.66814 3.20711 0
M  V30 350 O 33.2902 3.06116 3.13408 0
M  V30 351 C 34.7912 1.56838 4.14628 0
M  V30 352 H 32.0112 0.374782 0.556578 0
M  V30 353 H 34.5552 1.61532 1.2541 0
M  V30 354 H 32.7102 1.16196 3.69564 0
M  V30 355 H 33.1242 3.34926 4.0364 0
M  V30 356 H 34.5982 2.03532 5.13107 0
M  V30 357 H 35.0752 0.524155 4.36061 0
M  V30 358 H 35.6812 2.06741 3.7167 0
M  V30 359 N 33.9963 -1.19345 1.0293 0
M  V30 360 C 34.9263 -2.2481 0.631105 0
M  V30 361 C 35.9073 -1.66245 -0.360104 0
M  V30 362 O 37.0923 -1.92677 -0.242726 0
M  V30 363 C 34.2223 -3.47295 -0.0184607 0
M  V30 364 C 33.1763 -4.18536 0.895073 0
M  V30 365 C 32.5023 -5.34586 0.110592 0
M  V30 366 C 33.8023 -4.73287 2.209 0
M  V30 367 H 35.4963 -2.58372 1.51275 0
M  V30 368 H 33.0423 -1.24194 0.728818 0
M  V30 369 H 34.9953 -4.20268 -0.308675 0
M  V30 370 H 33.7193 -3.12933 -0.934907 0
M  V30 371 H 32.3783 -3.47446 1.16949 0
M  V30 372 H 32.0263 -4.96469 -0.807902 0
M  V30 373 H 31.7263 -5.83183 0.719087 0
M  V30 374 H 33.2503 -6.10355 -0.172871 0
M  V30 375 H 34.6643 -5.38013 1.98028 0
M  V30 376 H 33.0613 -5.32373 2.76946 0
M  V30 377 H 34.1313 -3.91331 2.86336 0
M  V30 378 N 35.4744 -0.807222 -1.35358 0
M  V30 379 C 36.4374 -0.223665 -2.28106 0
M  V30 380 C 37.4374 0.589354 -1.4961 0
M  V30 381 O 38.6274 0.407745 -1.69361 0
M  V30 382 C 35.7594 0.688149 -3.33882 0
M  V30 383 H 36.9524 -1.04169 -2.81227 0
M  V30 384 H 34.5054 -0.577921 -1.45223 0
M  V30 385 H 35.2404 1.52984 -2.85948 0
M  V30 386 H 35.0254 0.10687 -3.91954 0
M  V30 387 H 36.5154 1.09075 -4.03104 0
M  V30 388 N 36.9525 1.47285 -0.560781 0
M  V30 389 C 37.8825 2.32857 0.173105 0
M  V30 390 C 38.8635 1.44009 0.905281 0
M  V30 391 O 40.0485 1.7286 0.885046 0
M  V30 392 C 37.1785 3.25861 1.20133 0
M  V30 393 C 36.1325 4.23978 0.585388 0
M  V30 394 C 35.4585 5.06332 1.7185 0
M  V30 395 C 36.7585 5.20242 -0.463178 0
M  V30 396 H 38.4525 2.94466 -0.541307 0
M  V30 397 H 35.9985 1.41601 -0.261764 0
M  V30 398 H 37.9515 3.84569 1.72293 0
M  V30 399 H 36.6755 2.62315 1.94573 0
M  V30 400 H 35.3345 3.66501 0.085054 0
M  V30 401 H 34.9825 4.39186 2.45203 0
M  V30 402 H 34.6825 5.72762 1.31213 0
M  V30 403 H 36.2065 5.67899 2.24329 0
M  V30 404 H 37.6205 5.73293 -0.027502 0
M  V30 405 H 36.0175 5.94896 -0.788627 0
M  V30 406 H 37.0875 4.65504 -1.35773 0
M  V30 407 N 38.4306 0.297415 1.54768 0
M  V30 408 C 39.6786 -0.312295 1.99673 0
M  V30 409 C 39.9996 -1.54686 1.18732 0
M  V30 410 O 39.2696 -1.93854 0.282382 0
M  V30 411 H 37.8496 -0.118381 0.73756 0
M  V30 412 H 40.5116 0.407915 1.90583 0
M  V30 413 H 39.6076 -0.586813 3.06534 0
M  V30 414 N 39.9087 -1.5758 0.0250728 0
M  V30 415 C 41.1367 -1.9593 -0.664747 0
M  V30 416 C 41.5517 -0.901352 -1.65895 0
M  V30 417 O 40.9087 0.117255 -1.82123 0
M  V30 418 C 40.9597 -3.34342 -1.37468 0
M  V30 419 O 40.6807 -4.36079 -0.420324 0
M  V30 420 C 42.1817 -3.873 -2.1567 0
M  V30 421 H 39.4017 -0.645405 -0.183557 0
M  V30 422 H 41.9457 -2.04329 0.0836372 0
M  V30 423 H 40.1007 -3.27175 -2.0745 0
M  V30 424 H 40.5147 -5.16297 -0.923991 0
M  V30 425 H 41.9887 -4.86504 -2.60803 0
M  V30 426 H 42.4657 -3.21331 -2.99405 0
M  V30 427 H 43.0717 -3.97723 -1.50654 0
M  V30 428 N 41.3868 0.248026 -1.55636 0
M  V30 429 C 42.3168 1.31079 -1.93237 0
M  V30 430 C 43.2978 1.50264 -0.797174 0
M  V30 431 O 44.4828 1.62891 -1.05737 0
M  V30 432 C 41.6128 2.66575 -2.22609 0
M  V30 433 C 40.5668 2.62087 -3.3837 0
M  V30 434 C 39.8928 4.01369 -3.53281 0
M  V30 435 C 41.1928 2.19171 -4.7409 0
M  V30 436 H 42.8868 0.998556 -2.82257 0
M  V30 437 H 40.4328 0.47891 -1.35803 0
M  V30 438 H 42.3858 3.41057 -2.47503 0
M  V30 439 H 41.1098 2.99432 -1.30414 0
M  V30 440 H 39.7688 1.90063 -3.13483 0
M  V30 441 H 39.4168 4.31489 -2.58508 0
M  V30 442 H 39.1168 3.99254 -4.31127 0
M  V30 443 H 40.6408 4.77552 -3.80495 0
M  V30 444 H 42.0548 2.83384 -4.98363 0
M  V30 445 H 40.4518 2.2817 -5.5503 0
M  V30 446 H 41.5218 1.14336 -4.71227 0
M  V30 447 N 42.8649 1.48995 0.513639 0
M  V30 448 C 44.2759 1.5119 1.09537 0
M  V30 449 C 44.6269 0.290906 1.94031 0
M  V30 450 O 43.7519 -0.60049 2.07902 0
M  V30 451 C 44.3469 2.73964 1.99322 0
M  V30 452 C 42.9059 2.78978 2.52682 0
M  V30 453 C 42.0529 2.44934 1.30009 0
M  V30 454 H 45.0039 1.55875 0.298125 0
M  V30 455 H 45.0249 2.53409 2.83838 0
M  V30 456 H 44.5369 3.62813 1.37799 0
M  V30 457 H 42.6379 1.94378 3.1788 0
M  V30 458 H 42.7509 3.8083 2.90698 0
M  V30 459 H 41.1149 1.9644 1.62122 0
M  V30 460 H 41.8979 3.36043 0.702131 0
M  V30 461 N 44.343 -0.763751 1.37857 0
M  V30 462 C 45.306 -1.85889 1.34081 0
M  V30 463 C 46.306 -1.58949 0.243277 0
M  V30 464 O 47.496 -1.66882 0.499589 0
M  V30 465 C 44.628 -3.23176 1.08489 0
M  V30 466 H 45.821 -1.90648 2.31502 0
M  V30 467 H 43.374 -0.964367 1.23003 0
M  V30 468 H 44.109 -3.24091 0.116318 0
M  V30 469 H 43.894 -3.44124 1.8794 0
M  V30 470 H 45.384 -4.03254 1.08517 0
M  V30 471 N 45.8211 -1.22559 -0.990812 0
M  V30 472 C 47.0681 -1.05141 -1.73065 0
M  V30 473 C 47.3961 0.413191 -1.9006 0
M  V30 474 O 46.6511 1.32257 -1.44245 0
M  V30 475 C 46.9501 -1.71011 -3.13831 0
M  V30 476 C 46.6161 -3.20911 -3.16745 0
M  V30 477 C 45.2781 -3.61812 -3.17247 0
M  V30 478 C 47.6301 -4.16846 -3.12872 0
M  V30 479 C 44.9581 -4.97127 -3.1158 0
M  V30 480 C 47.3101 -5.5214 -3.08746 0
M  V30 481 C 45.9741 -5.92419 -3.07565 0
M  V30 482 H 45.2441 -0.384738 -0.633291 0
M  V30 483 H 47.8911 -1.5235 -1.16025 0
M  V30 484 H 46.1961 -1.16133 -3.74193 0
M  V30 485 H 47.8931 -1.55023 -3.69823 0
M  V30 486 H 44.4831 -2.88344 -3.17105 0
M  V30 487 H 48.6671 -3.86263 -3.11632 0
M  V30 488 H 43.9231 -5.27562 -3.09012 0
M  V30 489 H 48.0971 -6.26201 -3.04705 0
M  V30 490 H 45.7241 -6.97236 -3.02929 0
M  V30 491 N 47.2992 1.18797 -1.03562 0
M  V30 492 C 48.2292 2.24472 -0.643019 0
M  V30 493 C 49.2102 1.66433 0.351283 0
M  V30 494 O 50.3952 1.92803 0.232505 0
M  V30 495 C 47.5252 3.473 4.24935e-05 0
M  V30 496 C 46.4792 4.18055 -0.917257 0
M  V30 497 C 45.8052 5.34519 -0.138941 0
M  V30 498 C 47.1052 4.72109 -2.23407 0
M  V30 499 H 48.7992 2.57566 -1.52643 0
M  V30 500 H 46.3452 1.23806 -0.735394 0
M  V30 501 H 48.2982 4.20426 0.286383 0
M  V30 502 H 47.0222 3.13424 0.918299 0
M  V30 503 H 45.6812 3.46821 -1.1879 0
M  V30 504 H 45.3292 4.96891 0.781562 0
M  V30 505 H 45.0292 5.82794 -0.750005 0
M  V30 506 H 46.5532 6.10438 0.1405 0
M  V30 507 H 47.9672 5.36955 -2.00879 0
M  V30 508 H 46.3642 5.30897 -2.79765 0
M  V30 509 H 47.4342 3.89807 -2.88407 0
M  V30 510 N 48.7773 0.814389 1.34928 0
M  V30 511 C 50.1883 0.458364 1.80986 0
M  V30 512 C 50.5393 -1.02042 1.67577 0
M  V30 513 O 49.6643 -1.79352 1.21086 0
M  V30 514 C 50.2593 0.825212 3.28597 0
M  V30 515 C 48.8183 0.521677 3.72767 0
M  V30 516 C 47.9653 1.04668 2.56788 0
M  V30 517 H 50.9163 1.00533 1.22795 0
M  V30 518 H 50.9373 0.12571 3.80292 0
M  V30 519 H 50.4493 1.90154 3.38324 0
M  V30 520 H 48.5503 -0.545589 3.68584 0
M  V30 521 H 48.6633 1.05977 4.67232 0
M  V30 522 H 47.0273 0.468622 2.50352 0
M  V30 523 H 47.8103 2.12927 2.6929 0
M  V30 524 N 50.2554 -1.46986 0.568584 0
M  V30 525 C 51.4954 -2.04336 0.0512999 0
M  V30 526 C 51.8594 -1.43214 -1.27881 0
M  V30 527 O 53.0604 -1.91679 -1.88448 0
M  V30 528 C 51.3314 -3.57389 -0.0282328 0
M  V30 529 S 52.8904 -4.36056 -0.489991 0
M  V30 530 H 49.7084 -0.71034 0.0306349 0
M  V30 531 H 52.3104 -1.80212 0.757891 0
M  V30 532 H 51.0144 -3.99395 0.944011 0
M  V30 533 H 50.5454 -3.86028 -0.75803 0
M  V30 534 H 52.5604 -4.6441 -1.74752 0
M  V30 535 N 51.7335 -0.305618 -1.54608 0
M  V30 536 C 52.6435 0.57778 -2.27374 0
M  V30 537 C 53.6595 1.14451 -1.31061 0
M  V30 538 O 54.8355 1.16831 -1.6405 0
M  V30 539 C 51.9005 1.73123 -3.00382 0
M  V30 540 C 50.9615 1.19812 -4.12242 0
M  V30 541 C 50.1945 2.2966 -4.81759 0
M  V30 542 O 50.4175 3.49651 -4.50666 0
M  V30 543 O 49.3515 1.96091 -5.69062 0
M  V30 544 H 53.1775 -0.012624 -3.03697 0
M  V30 545 H 50.7625 -0.0719184 -1.49227 0
M  V30 546 H 52.6445 2.40315 -3.4616 0
M  V30 547 H 51.3195 2.30815 -2.26949 0
M  V30 548 H 50.2265 0.491798 -3.70853 0
M  V30 549 H 51.5595 0.666566 -4.87666 0
M  V30 550 N 53.2116 1.57565 -0.0334293 0
M  V30 551 C 54.1416 2.13511 0.945265 0
M  V30 552 C 55.1226 1.05231 1.33643 0
M  V30 553 O 56.3076 1.33084 1.41429 0
M  V30 554 C 53.4376 2.6657 2.22616 0
M  V30 555 C 52.3916 3.79676 1.97561 0
M  V30 556 C 51.7176 4.1918 3.31952 0
M  V30 557 C 53.0176 5.0557 1.31135 0
M  V30 558 H 54.7116 2.95538 0.479325 0
M  V30 559 H 52.2576 1.42166 0.229115 0
M  V30 560 H 54.2106 3.04344 2.91466 0
M  V30 561 H 52.9346 1.8171 2.71384 0
M  V30 562 H 51.5936 3.42347 1.31127 0
M  V30 563 H 51.2416 3.31296 3.78487 0
M  V30 564 H 50.9416 4.95402 3.15992 0
M  V30 565 H 52.4656 4.59541 4.02063 0
M  V30 566 H 53.8796 5.40903 1.89992 0
M  V30 567 H 52.2766 5.86818 1.25559 0
M  V30 568 H 53.3466 4.84062 0.284894 0
M  V30 569 N 54.6897 -0.239769 1.55765 0
M  V30 570 C 55.6217 -1.32001 1.87372 0
M  V30 571 C 56.6347 -1.43944 0.760522 0
M  V30 572 O 57.8237 -1.45167 1.0387 0
M  V30 573 C 54.9237 -2.69779 2.05115 0
M  V30 574 C 54.0967 -2.80014 3.36022 0
M  V30 575 C 53.1557 -3.98684 3.4342 0
M  V30 576 O 52.1817 -3.87877 4.16582 0
M  V30 577 N 53.3837 -5.12176 2.73232 0
M  V30 578 H 56.1487 -1.0522 2.80622 0
M  V30 579 H 53.7097 -0.429857 1.56089 0
M  V30 580 H 55.7017 -3.47517 2.07399 0
M  V30 581 H 54.2717 -2.89237 1.18577 0
M  V30 582 H 53.4917 -1.88896 3.45994 0
M  V30 583 H 54.7797 -2.83808 4.22292 0
M  V30 584 H 54.1777 -5.2385 2.13536 0
M  V30 585 H 52.7347 -5.88022 2.81199 0
M  V30 586 N 56.1678 -1.49265 -0.50573 0
M  V30 587 C 57.5788 -1.51769 -1.08734 0
M  V30 588 C 57.9298 -0.301192 -1.93874 0
M  V30 589 O 57.0548 0.589456 -2.08217 0
M  V30 590 C 57.6498 -2.75017 -1.97867 0
M  V30 591 C 56.2088 -2.80314 -2.51199 0
M  V30 592 C 55.3558 -2.4562 -1.28709 0
M  V30 593 H 58.3068 -1.56031 -0.289855 0
M  V30 594 H 58.3278 -2.5491 -2.82491 0
M  V30 595 H 57.8398 -3.63539 -1.35873 0
M  V30 596 H 55.9408 -1.96061 -3.16845 0
M  V30 597 H 56.0538 -3.82366 -2.88675 0
M  V30 598 H 54.4178 -1.97297 -1.61078 0
M  V30 599 H 55.2008 -3.36411 -0.6843 0
M  V30 600 N 57.6459 0.756429 -1.3826 0
M  V30 601 C 58.5959 1.86069 -1.31766 0
M  V30 602 C 59.5799 1.59621 -0.202483 0
M  V30 603 O 60.7719 1.7149 -0.438211 0
M  V30 604 C 57.9009 3.23742 -1.1422 0
M  V30 605 C 56.9869 3.56091 -2.30348 0
M  V30 606 N 57.3779 3.59517 -3.55783 0
M  V30 607 C 55.6759 3.86341 -2.22838 0
M  V30 608 C 56.3769 3.89052 -4.32451 0
M  V30 609 N 55.3529 4.05736 -3.61772 0
M  V30 610 H 59.1549 1.86992 -2.26741 0
M  V30 611 H 56.6689 0.953643 -1.31451 0
M  V30 612 H 58.6659 4.02761 -1.07652 0
M  V30 613 H 57.3259 3.24073 -0.201763 0
M  V30 614 H 58.3369 3.41347 -3.89491 0
M  V30 615 H 55.0139 3.94404 -1.36937 0
M  V30 616 H 56.4039 3.98349 -5.4108 0
M  V30 617 N 59.124 1.23083 0.984299 0
M  V30 618 C 60.372 1.05848 1.72165 0
M  V30 619 C 60.693 -0.406049 1.90726 0
M  V30 620 O 59.963 -1.29139 1.47309 0
M  V30 621 H 58.543 0.388685 0.637913 0
M  V30 622 H 61.205 1.54736 1.18503 0
M  V30 623 H 60.301 1.54327 2.71274 0
M  V30 624 N 60.6021 -1.18246 1.0419 0
M  V30 625 C 61.5321 -2.24127 0.654914 0
M  V30 626 C 62.5131 -1.66617 -0.342451 0
M  V30 627 O 63.6981 -1.92924 -0.222277 0
M  V30 628 C 60.8281 -3.47295 0.0183757 0
M  V30 629 C 59.7821 -4.17563 0.939414 0
M  V30 630 C 59.1081 -5.34438 0.167286 0
M  V30 631 C 60.4081 -4.70917 2.25908 0
M  V30 632 H 62.1021 -2.56753 1.54007 0
M  V30 633 H 59.6481 -1.23414 0.74195 0
M  V30 634 H 61.6011 -4.20572 -0.264082 0
M  V30 635 H 60.3251 -3.13907 -0.901664 0
M  V30 636 H 58.9841 -3.46186 1.20628 0
M  V30 637 H 58.6321 -4.97298 -0.7552 0
M  V30 638 H 58.3321 -5.82388 0.780901 0
M  V30 639 H 59.8561 -6.10504 -0.108125 0
M  V30 640 H 61.2701 -5.35882 2.03724 0
M  V30 641 H 59.6671 -5.29406 2.82577 0
M  V30 642 H 60.7371 -3.88272 2.9047 0
M  V30 643 N 62.0802 -0.821533 -1.34494 0
M  V30 644 C 63.3262 -0.409552 -1.98622 0
M  V30 645 C 63.6592 1.0244 -1.64984 0
M  V30 646 O 62.9342 1.71325 -0.920758 0
M  V30 647 C 63.2172 -0.610458 -3.54888 0
M  V30 648 C 63.0702 -2.09043 -3.98273 0
M  V30 649 C 64.3892 -0.0455379 -4.40076 0
M  V30 650 H 61.5082 -0.15028 -0.721516 0
M  V30 651 H 64.1502 -1.03384 -1.59411 0
M  V30 652 H 62.3002 -0.079044 -3.8842 0
M  V30 653 H 63.9722 -2.68537 -3.75081 0
M  V30 654 H 62.2152 -2.58139 -3.48635 0
M  V30 655 H 62.8862 -2.18182 -5.07051 0
M  V30 656 H 65.3622 -0.499557 -4.1309 0
M  V30 657 H 64.2382 -0.215922 -5.48475 0
M  V30 658 H 64.4992 1.04939 -4.29465 0
M  V30 659 N 63.5583 1.46682 -0.576371 0
M  V30 660 C 64.5063 2.31953 0.17335 0
M  V30 661 C 65.5003 1.44098 0.89062 0
M  V30 662 O 66.7063 1.60759 0.809728 0
M  V30 663 H 63.0813 0.748273 0.0747727 0
M  V30 664 H 65.0523 2.93007 -0.564738 0
M  V30 665 C 63.8013 3.27142 1.17786 0
M  V30 666 H 63.1243 3.94719 0.635361 0
M  V30 667 H 64.5643 3.896 1.67296 0
M  V30 668 C 63.0233 2.52036 2.23561 0
M  V30 669 O 63.5533 2.27877 3.3081 0
M  V30 670 N 61.7593 2.12709 1.97998 0
M  V30 671 H 61.3063 2.32557 1.10792 0
M  V30 672 H 61.2643 1.62776 2.68982 0
M  V30 673 N 65.0364 0.313813 1.54444 0
M  V30 674 C 66.2764 -0.292389 2.02298 0
M  V30 675 C 66.6404 -1.50105 1.19719 0
M  V30 676 O 67.8414 -2.17947 1.5733 0
M  V30 677 C 66.1124 -0.627682 3.51845 0
M  V30 678 S 67.6714 -1.21493 4.21646 0
M  V30 679 H 64.4894 -0.0890247 0.705405 0
M  V30 680 H 67.0914 0.444668 1.90376 0
M  V30 681 H 65.7954 0.260265 4.09574 0
M  V30 682 H 65.3264 -1.39519 3.67829 0
M  V30 683 H 67.3414 -2.5022 4.28491 0
M  V30 684 N 66.5145 -1.57545 0.0417849 0
M  V30 685 C 67.4625 -2.12148 -0.953723 0
M  V30 686 C 68.4565 -1.05104 -1.32852 0
M  V30 687 O 69.6625 -1.23524 -1.30927 0
M  V30 688 H 66.0375 -0.677957 -0.325389 0
M  V30 689 H 68.0085 -2.94707 -0.467991 0
M  V30 690 C 66.7575 -2.6739 -2.22257 0
M  V30 691 H 66.0805 -3.49413 -1.94295 0
M  V30 692 H 67.5205 -3.09227 -2.90094 0
M  V30 693 C 65.9795 -1.60723 -2.96091 0
M  V30 694 O 66.5095 -1.01449 -3.88679 0
M  V30 695 N 64.7155 -1.32466 -2.58652 0
M  V30 696 H 64.2625 -1.80856 -1.83437 0
M  V30 697 H 64.2205 -0.61325 -3.08361 0
M  V30 698 N 67.9926 0.231505 -1.5589 0
M  V30 699 C 69.2386 0.954429 -1.79617 0
M  V30 700 C 69.5936 1.82367 -0.613199 0
M  V30 701 O 68.8866 1.87524 0.393094 0
M  V30 702 C 69.0806 1.83577 -3.0665 0
M  V30 703 C 68.9096 1.05334 -4.3719 0
M  V30 704 C 67.6796 0.75225 -4.99669 0
M  V30 705 C 69.8776 0.423444 -5.12554 0
M  V30 706 N 67.8596 -0.052627 -6.13877 0
M  V30 707 C 69.2306 -0.245287 -6.19515 0
M  V30 708 C 71.2856 0.335466 -4.96769 0
M  V30 709 C 69.9886 -0.993566 -7.12405 0
M  V30 710 C 72.0146 -0.399321 -5.9005 0
M  V30 711 C 71.3766 -1.05663 -6.9643 0
M  V30 712 H 67.4756 0.329846 -0.709031 0
M  V30 713 H 70.0596 0.226172 -1.93382 0
M  V30 714 H 68.2306 2.53592 -2.94186 0
M  V30 715 H 69.9626 2.49541 -3.18608 0
M  V30 716 H 66.7176 1.06783 -4.61405 0
M  V30 717 H 67.1416 -0.443609 -6.75545 0
M  V30 718 H 71.7836 0.829311 -4.14587 0
M  V30 719 H 69.5016 -1.49896 -7.94076 0
M  V30 720 H 73.0876 -0.468265 -5.79913 0
M  V30 721 H 71.9676 -1.61612 -7.67366 0
M  V30 722 N 69.4707 1.49531 0.497807 0
M  V30 723 C 70.4007 1.6935 1.60757 0
M  V30 724 C 71.3817 0.542218 1.61227 0
M  V30 725 O 72.5667 0.778417 1.77917 0
M  V30 726 C 69.6967 1.76298 2.99226 0
M  V30 727 C 68.6507 2.91248 3.13622 0
M  V30 728 C 67.9767 2.83312 4.53474 0
M  V30 729 C 69.2767 4.3214 2.93346 0
M  V30 730 H 70.9707 2.62263 1.44425 0
M  V30 731 H 68.5167 1.26208 0.693367 0
M  V30 732 H 70.4697 1.88749 3.76765 0
M  V30 733 H 69.1937 0.799871 3.16654 0
M  V30 734 H 67.8527 2.78404 2.38509 0
M  V30 735 H 67.5007 1.84902 4.67782 0
M  V30 736 H 67.2007 3.60465 4.64046 0
M  V30 737 H 68.7247 2.97775 5.33069 0
M  V30 738 H 70.1387 4.45649 3.60652 0
M  V30 739 H 68.5357 5.1054 3.15387 0
M  V30 740 H 69.6057 4.46363 1.89441 0
M  V30 741 N 70.9488 -0.749086 1.3866 0
M  V30 742 C 72.1958 -1.50833 1.35114 0
M  V30 743 C 72.5238 -1.94415 -0.0574049 0
M  V30 744 O 71.7788 -1.66065 -1.03541 0
M  V30 745 C 72.0778 -2.7712 2.25697 0
M  V30 746 C 71.7438 -2.52477 3.73585 0
M  V30 747 C 70.4058 -2.45466 4.13884 0
M  V30 748 C 72.7578 -2.31066 4.67181 0
M  V30 749 C 70.0858 -2.15064 5.45861 0
M  V30 750 C 72.4378 -2.02183 5.9942 0
M  V30 751 C 71.1018 -1.93631 6.38798 0
M  V30 752 H 70.3718 -0.551936 0.494416 0
M  V30 753 H 73.0188 -0.860979 1.71054 0
M  V30 754 H 71.3238 -3.46528 1.82827 0
M  V30 755 H 73.0208 -3.35096 2.20254 0
M  V30 756 H 69.6108 -2.58807 3.41638 0
M  V30 757 H 73.7948 -2.35459 4.3689 0
M  V30 758 H 69.0508 -2.06954 5.75308 0
M  V30 759 H 73.2248 -1.8462 6.71482 0
M  V30 760 H 70.8518 -1.69839 7.40985 0
M  V30 761 N 72.4269 -1.23603 -0.977757 0
M  V30 762 C 73.3569 -1.04401 -2.0886 0
M  V30 763 C 74.3379 0.0399052 -1.70053 0
M  V30 764 O 75.5229 -0.125246 -1.93796 0
M  V30 765 C 72.6529 -0.637269 -3.41403 0
M  V30 766 C 71.6069 -1.66883 -3.94124 0
M  V30 767 C 70.9329 -1.11745 -5.22893 0
M  V30 768 C 72.2329 -3.06247 -4.23096 0
M  V30 769 H 73.9269 -1.97316 -2.25182 0
M  V30 770 H 71.4729 -0.950096 -1.08209 0
M  V30 771 H 73.4259 -0.48998 -4.18542 0
M  V30 772 H 72.1499 0.327557 -3.24953 0
M  V30 773 H 70.8089 -1.80416 -3.19133 0
M  V30 774 H 70.4569 -0.143527 -5.02795 0
M  V30 775 H 70.1569 -1.80672 -5.59134 0
M  V30 776 H 71.6809 -0.982067 -6.02651 0
M  V30 777 H 73.0949 -2.96001 -4.90975 0
M  V30 778 H 71.4919 -3.72436 -4.70544 0
M  V30 779 H 72.5619 -3.55041 -3.30263 0
M  V30 780 N 73.905 1.17692 -1.04816 0
M  V30 781 C 74.852 2.21581 -0.645797 0
M  V30 782 C 75.822 1.62367 0.350159 0
M  V30 783 O 77.007 1.89254 0.242433 0
M  V30 784 C 74.147 3.45092 -0.0227568 0
M  V30 785 C 73.26 4.18613 -1.06709 0
M  V30 786 C 72.395 5.29602 -0.411767 0
M  V30 787 C 71.434 5.94904 -1.44067 0
M  V30 788 N 70.571 6.97414 -0.809781 0
M  V30 789 H 75.411 2.55353 -1.5362 0
M  V30 790 H 72.948 1.25438 -0.768364 0
M  V30 791 H 74.906 4.15679 0.35588 0
M  V30 792 H 73.536 3.11917 0.831122 0
M  V30 793 H 72.588 3.46779 -1.5636 0
M  V30 794 H 73.9 4.63293 -1.84827 0
M  V30 795 H 73.054 6.06696 0.0206623 0
M  V30 796 H 71.793 4.86045 0.401438 0
M  V30 797 H 70.798 5.16544 -1.88316 0
M  V30 798 H 72.023 6.40542 -2.25571 0
M  V30 799 H 69.969 6.55998 -0.0170186 0
M  V30 800 H 69.886 7.40386 -1.52856 0
M  V30 801 H 71.154 7.78463 -0.401999 0
M  V30 802 N 75.3831 0.828654 1.34056 0
M  V30 803 C 76.6081 0.431637 2.02859 0
M  V30 804 C 77.0331 -0.956339 1.61975 0
M  V30 805 O 76.3911 -1.62338 0.807228 0
M  V30 806 C 76.4391 0.548323 3.56407 0
M  V30 807 O 75.5431 -0.429556 4.10157 0
M  V30 808 H 74.8841 0.176886 0.640006 0
M  V30 809 H 77.4141 1.12066 1.71179 0
M  V30 810 H 77.4241 0.426196 4.05768 0
M  V30 811 H 76.0991 1.5606 3.8551 0
M  V30 812 H 74.6761 -0.265836 3.71951 0
M  V30 813 N 76.8612 -1.46375 0.584142 0
M  V30 814 C 78.1072 -2.02678 0.0703716 0
M  V30 815 C 78.4402 -1.4545 -1.28678 0
M  V30 816 O 77.7152 -0.62014 -1.84349 0
M  V30 817 C 77.9982 -3.60099 0.00614674 0
M  V30 818 C 77.8512 -4.27709 1.3923 0
M  V30 819 C 79.1702 -4.34598 -0.693742 0
M  V30 820 H 76.2892 -0.736504 0.027047 0
M  V30 821 H 78.9312 -1.74501 0.751615 0
M  V30 822 H 77.0812 -3.84236 -0.574009 0
M  V30 823 H 78.7532 -4.14832 2.01773 0
M  V30 824 H 76.9962 -3.87016 1.95962 0
M  V30 825 H 77.6672 -5.36478 1.29982 0
M  V30 826 H 80.1432 -4.15615 -0.200869 0
M  V30 827 H 79.0192 -5.44318 -0.707714 0
M  V30 828 H 79.2802 -4.05759 -1.75533 0
M  V30 829 N 78.3393 -0.321999 -1.54275 0
M  V30 830 C 79.7503 0.166384 -1.85957 0
M  V30 831 C 80.1013 1.51747 -1.24367 0
M  V30 832 O 79.2263 2.09317 -0.549124 0
M  V30 833 C 79.8213 0.308681 -3.37391 0
M  V30 834 C 78.3803 0.741286 -3.69028 0
M  V30 835 C 77.5273 -0.137937 -2.76957 0
M  V30 836 H 80.4783 -0.542335 -1.49146 0
M  V30 837 H 80.4993 1.13984 -3.63026 0
M  V30 838 H 80.0113 -0.674809 -3.82188 0
M  V30 839 H 78.1123 1.73458 -3.29762 0
M  V30 840 H 78.2253 0.546118 -4.75977 0
M  V30 841 H 76.5893 0.386251 -2.51754 0
M  V30 842 H 77.3723 -1.11816 -3.2458 0
M  V30 843 N 79.8174 1.5752 -0.0501392 0
M  V30 844 C 80.7674 2.07981 0.934231 0
M  V30 845 C 81.7514 0.984745 1.27246 0
M  V30 846 O 82.9434 1.24809 1.25506 0
M  V30 847 C 80.0724 2.62751 2.20945 0
M  V30 848 C 79.1584 3.79225 1.89865 0
M  V30 849 N 79.5494 4.89036 1.29142 0
M  V30 850 C 77.8474 3.88111 2.19741 0
M  V30 851 C 78.5484 5.70084 1.15669 0
M  V30 852 N 77.5244 5.17659 1.65923 0
M  V30 853 H 81.3264 2.90277 0.460053 0
M  V30 854 H 78.8404 1.61665 0.15434 0
M  V30 855 H 80.8374 2.97205 2.9236 0
M  V30 856 H 79.4974 1.81894 2.6897 0
M  V30 857 H 80.5084 5.08854 0.963756 0
M  V30 858 H 77.1854 3.18194 2.70293 0
M  V30 859 H 78.5754 6.68395 0.685356 0
M  V30 860 N 81.2955 -0.223234 1.56011 0
M  V30 861 C 82.5425 -0.947875 1.78946 0
M  V30 862 C 82.8705 -1.844 0.618608 0
M  V30 863 O 82.1255 -1.91629 -0.397093 0
M  V30 864 C 82.4245 -1.81948 3.0762 0
M  V30 865 C 82.0905 -1.07672 4.37856 0
M  V30 866 C 80.7525 -0.871544 4.73242 0
M  V30 867 C 83.1045 -0.552081 5.18268 0
M  V30 868 C 80.4325 -0.129791 5.86556 0
M  V30 869 C 82.7845 0.17632 6.32354 0
M  V30 870 C 81.4485 0.39277 6.66343 0
M  V30 871 H 80.7185 -0.346852 0.654809 0
M  V30 872 H 83.3655 -0.216171 1.90276 0
M  V30 873 H 81.6705 -2.61899 2.91404 0
M  V30 874 H 83.3675 -2.38227 3.22566 0
M  V30 875 H 79.9575 -1.24662 4.1007 0
M  V30 876 H 84.1415 -0.698076 4.91366 0
M  V30 877 H 79.3975 0.048153 6.11381 0
M  V30 878 H 83.5715 0.590367 6.93893 0
M  V30 879 H 81.1985 0.969466 7.53993 0
M  V30 880 N 82.7736 -1.49793 -0.48987 0
M  V30 881 C 83.9986 -1.63836 -1.27172 0
M  V30 882 C 84.4236 -0.31402 -1.8546 0
M  V30 883 O 83.7816 0.719803 -1.66399 0
M  V30 884 C 83.8296 -2.71797 -2.36978 0
M  V30 885 O 82.9336 -2.31744 -3.41128 0
M  V30 886 H 82.2746 -0.547997 -0.37496 0
M  V30 887 H 84.8046 -1.96053 -0.585191 0
M  V30 888 H 84.8146 -2.94305 -2.82575 0
M  V30 889 H 83.4896 -3.67923 -1.93921 0
M  V30 890 H 82.0666 -2.1961 -3.01373 0
M  V30 891 N 84.2517 0.741722 -1.39055 0
M  V30 892 C 85.1847 1.86416 -1.31622 0
M  V30 893 C 86.1627 1.61473 -0.191076 0
M  V30 894 O 87.3467 1.84825 -0.370399 0
M  V30 895 C 84.4737 3.22266 -1.04221 0
M  V30 896 C 83.5197 3.66079 -2.18834 0
M  V30 897 S 84.3527 3.7623 -3.81066 0
M  V30 898 C 85.5087 5.14881 -3.55877 0
M  V30 899 H 85.7417 1.92437 -2.26617 0
M  V30 900 H 83.2747 0.905907 -1.25031 0
M  V30 901 H 85.2327 4.00714 -0.890964 0
M  V30 902 H 83.8937 3.1391 -0.109237 0
M  V30 903 H 83.0867 4.64648 -1.95238 0
M  V30 904 H 82.6887 2.94817 -2.30128 0
M  V30 905 H 84.9807 6.01006 -3.12726 0
M  V30 906 H 85.9237 5.43503 -4.53884 0
M  V30 907 H 86.3317 4.84239 -2.90126 0
M  V30 908 N 85.7298 1.2412 0.971189 0
M  V30 909 C 86.6928 1.03156 2.04674 0
M  V30 910 C 87.6928 -0.00990322 1.60797 0
M  V30 911 O 88.8828 0.230729 1.72665 0
M  V30 912 C 86.0148 0.562765 3.36223 0
M  V30 913 H 87.2078 1.98614 2.24705 0
M  V30 914 H 84.7608 1.06293 1.14593 0
M  V30 915 H 85.4958 -0.395176 3.21883 0
M  V30 916 H 85.2808 1.31441 3.69413 0
M  V30 917 H 86.7708 0.437015 4.15307 0
M  V30 918 N 87.2079 -1.17134 1.05439 0
M  V30 919 C 88.1709 -2.19439 0.661764 0
M  V30 920 C 89.1709 -1.58199 -0.288042 0
M  V30 921 O 90.3609 -1.74053 -0.0715803 0
M  V30 922 C 87.4929 -3.40889 -0.0276209 0
M  V30 923 H 88.6859 -2.55688 1.56728 0
M  V30 924 H 86.2389 -1.31259 0.848567 0
M  V30 925 H 86.9739 -3.10187 -0.94629 0
M  V30 926 H 86.7589 -3.86586 0.655238 0
M  V30 927 H 88.2489 -4.16603 -0.288342 0
M  V30 928 N 88.686 -0.835752 -1.33615 0
M  V30 929 C 90.097 -0.487099 -1.80234 0
M  V30 930 C 90.448 0.993627 -1.69179 0
M  V30 931 O 89.573 1.77403 -1.23924 0
M  V30 932 C 90.168 -0.877385 -3.27242 0
M  V30 933 C 88.727 -0.580915 -3.7189 0
M  V30 934 C 87.874 -1.0874 -2.5509 0
M  V30 935 H 90.825 -1.02474 -1.2118 0
M  V30 936 H 90.846 -0.186195 -3.80044 0
M  V30 937 H 90.358 -1.95512 -3.35256 0
M  V30 938 H 88.459 0.486881 -3.69405 0
M  V30 939 H 88.572 -1.13396 -4.65487 0
M  V30 940 H 86.936 -0.508392 -2.49575 0
M  V30 941 H 87.719 -2.17184 -2.65868 0
M  V30 942 N 90.1641 1.46063 -0.591896 0
M  V30 943 C 91.5801 1.57561 -0.254288 0
M  V30 944 C 91.7801 1.58565 1.24336 0
M  V30 945 O 90.8361 1.50753 2.02558 0
M  V30 946 C 92.1491 2.86549 -0.911611 0
M  V30 947 C 93.6971 3.00197 -0.886059 0
M  V30 948 C 94.1721 4.31933 -1.5231 0
M  V30 949 N 95.6631 4.38654 -1.48786 0
M  V30 950 C 96.3981 5.39222 -1.95006 0
M  V30 951 N 95.8941 6.46414 -2.49241 0
M  V30 952 N 97.6871 5.3048 -1.85868 0
M  V30 953 H 89.8381 1.43655 -1.56451 0
M  V30 954 H 92.1011 0.68583 -0.654478 0
M  V30 955 H 91.8071 2.91651 -1.96551 0
M  V30 956 H 91.6811 3.74794 -0.425368 0
M  V30 957 H 94.0681 2.9467 0.159246 0
M  V30 958 H 94.1491 2.13403 -1.41041 0
M  V30 959 H 93.7931 4.38217 -2.56765 0
M  V30 960 H 93.7231 5.17516 -0.973891 0
M  V30 961 H 96.2141 3.61793 -1.09151 0
M  V30 962 H 96.5271 7.19376 -2.82344 0
M  V30 963 H 94.8721 6.47208 -2.53272 0
M  V30 964 H 98.0631 4.45643 -1.43248 0
M  V30 965 H 98.2361 6.08711 -2.22204 0
M  V30 966 N 91.6422 0.330177 1.54103 0
M  V30 967 C 92.8902 -0.269871 2.0029 0
M  V30 968 C 93.2112 -1.52133 1.21986 0
M  V30 969 O 92.4812 -1.93212 0.323438 0
M  V30 970 H 91.0612 -0.10271 0.739905 0
M  V30 971 H 93.7232 0.448249 1.89675 0
M  V30 972 H 92.8192 -0.52166 3.07709 0
M  V30 973 N 93.1203 -1.57491 0.0584922 0
M  V30 974 C 94.0683 -2.13148 -0.931168 0
M  V30 975 C 95.0623 -1.06507 -1.31729 0
M  V30 976 O 96.2683 -1.24906 -1.29609 0
M  V30 977 H 92.6433 -0.68137 -0.31818 0
M  V30 978 H 94.6143 -2.95187 -0.436707 0
M  V30 979 C 93.3633 -2.69732 -2.19408 0
M  V30 980 H 92.6863 -3.51454 -1.90578 0
M  V30 981 H 94.1263 -3.12287 -2.86798 0
M  V30 982 C 92.5853 -1.63855 -2.94369 0
M  V30 983 O 93.1153 -1.05565 -3.87581 0
M  V30 984 N 91.3213 -1.35202 -2.57233 0
M  V30 985 H 90.8683 -1.82791 -1.81508 0
M  V30 986 H 90.8263 -0.645922 -3.07693 0
M  V30 987 N 94.5984 0.214957 -1.56127 0
M  V30 988 C 95.8444 0.939762 -1.79712 0
M  V30 989 C 96.1774 1.83723 -0.629247 0
M  V30 990 O 95.4524 1.90925 0.371197 0
M  V30 991 C 95.7354 1.77306 -3.13424 0
M  V30 992 C 95.5884 0.90164 -4.40671 0
M  V30 993 C 96.9074 2.74956 -3.43638 0
M  V30 994 H 94.0264 0.340214 -0.653776 0
M  V30 995 H 96.6684 0.20824 -1.88855 0
M  V30 996 H 94.8184 2.39673 -3.0576 0
M  V30 997 H 96.4904 0.294206 -4.60361 0
M  V30 998 H 94.7334 0.207368 -4.33304 0
M  V30 999 H 95.4044 1.51923 -5.30682 0
M  V30 1000 H 97.8804 2.22724 -3.51473 0
M  V30 1001 H 96.7564 3.30358 -4.38355 0
M  V30 1002 H 97.0174 3.53023 -2.66134 0
M  V30 1003 N 96.0765 1.50051 0.48192 0
M  V30 1004 C 97.3045 1.64237 1.25832 0
M  V30 1005 C 97.7195 0.321336 1.86045 0
M  V30 1006 O 97.0765 -0.695478 1.68729 0
M  V30 1007 C 97.1275 2.72548 2.37487 0
M  V30 1008 O 96.8485 3.99529 1.79745 0
M  V30 1009 C 98.3495 2.9761 3.28547 0
M  V30 1010 H 95.5695 0.55237 0.380957 0
M  V30 1011 H 98.1135 1.96207 0.576467 0
M  V30 1012 H 96.2685 2.43303 3.01467 0
M  V30 1013 H 96.6825 4.59342 2.5319 0
M  V30 1014 H 98.1565 3.77084 4.03127 0
M  V30 1015 H 98.6335 2.0826 3.86684 0
M  V30 1016 H 99.2395 3.28345 2.70314 0
M  V30 1017 N 97.5546 -0.734337 1.39446 0
M  V30 1018 C 98.7796 -1.52866 1.40167 0
M  V30 1019 C 99.2046 -1.881 -0.00171513 0
M  V30 1020 O 98.5626 -1.51957 -0.988879 0
M  V30 1021 C 98.6106 -2.79235 2.28167 0
M  V30 1022 O 97.7146 -3.75185 1.71201 0
M  V30 1023 H 97.0556 -0.461618 0.477289 0
M  V30 1024 H 99.5856 -0.905949 1.8345 0
M  V30 1025 H 99.5956 -3.27963 2.42702 0
M  V30 1026 H 98.2706 -2.52923 3.30156 0
M  V30 1027 H 96.8476 -3.33958 1.65912 0
M  V30 1028 N 99.0327 -1.24633 -0.964593 0
M  V30 1029 C 99.9627 -1.06611 -2.07741 0
M  V30 1030 C 100.944 0.0218666 -1.70086 0
M  V30 1031 O 102.129 -0.145793 -1.93652 0
M  V30 1032 C 99.2587 -0.673444 -3.40708 0
M  V30 1033 C 98.2127 -1.71054 -3.92332 0
M  V30 1034 C 97.5387 -1.17285 -5.21678 0
M  V30 1035 C 98.8387 -3.10718 -4.19824 0
M  V30 1036 H 100.533 -1.99693 -2.23076 0
M  V30 1037 H 98.0787 -0.96152 -1.07195 0
M  V30 1038 H 100.032 -0.534345 -4.17998 0
M  V30 1039 H 98.7557 0.293073 -3.25282 0
M  V30 1040 H 97.4147 -1.83791 -3.17201 0
M  V30 1041 H 97.0627 -0.196847 -5.02615 0
M  V30 1042 H 96.7627 -1.86592 -5.57187 0
M  V30 1043 H 98.2867 -1.04593 -6.01575 0
M  V30 1044 H 99.7007 -3.01192 -4.87808 0
M  V30 1045 H 98.0977 -3.77406 -4.66567 0
M  V30 1046 H 99.1677 -3.58524 -3.26479 0
M  V30 1047 N 100.511 1.16574 -1.06058 0
M  V30 1048 C 101.736 1.91493 -0.796562 0
M  V30 1049 C 102.161 1.76773 0.642868 0
M  V30 1050 O 101.519 1.09142 1.44768 0
M  V30 1051 C 101.567 3.40293 -1.19303 0
M  V30 1052 O 100.671 4.11074 -0.330394 0
M  V30 1053 H 100.012 0.596678 -0.291326 0
M  V30 1054 H 102.542 1.47708 -1.41575 0
M  V30 1055 H 102.552 3.91057 -1.16356 0
M  V30 1056 H 101.227 3.50326 -2.24153 0
M  V30 1057 H 99.8038 3.70513 -0.421225 0
M  V30 1058 N 101.989 0.842826 1.3317 0
M  V30 1059 C 102.919 0.294028 2.31641 0
M  V30 1060 C 103.9 -0.600401 1.59151 0
M  V30 1061 O 105.085 -0.523124 1.87022 0
M  V30 1062 C 102.215 -0.528416 3.43257 0
M  V30 1063 C 101.169 0.27056 4.27144 0
M  V30 1064 C 100.495 -0.675881 5.30411 0
M  V30 1065 C 101.795 1.48981 5.00602 0
M  V30 1066 H 103.489 1.11681 2.77791 0
M  V30 1067 H 101.035 0.538478 1.33553 0
M  V30 1068 H 102.988 -0.922674 4.11175 0
M  V30 1069 H 101.712 -1.38445 2.95805 0
M  V30 1070 H 100.371 0.646427 3.60856 0
M  V30 1071 H 100.019 -1.52842 4.79216 0
M  V30 1072 H 99.7189 -0.145374 5.8742 0
M  V30 1073 H 101.243 -1.06757 6.01195 0
M  V30 1074 H 102.657 1.16849 5.61266 0
M  V30 1075 H 101.054 1.95739 5.6728 0
M  V30 1076 H 102.124 2.25746 4.29147 0
M  V30 1077 N 103.467 -1.45747 0.599634 0
M  V30 1078 C 104.692 -2.07178 0.0960198 0
M  V30 1079 C 105.117 -1.44268 -1.207 0
M  V30 1080 O 104.475 -0.532503 -1.73303 0
M  V30 1081 C 104.523 -3.60579 -0.0385348 0
M  V30 1082 O 103.627 -3.97713 -1.0908 0
M  V30 1083 H 102.968 -0.660251 0.0704593 0
M  V30 1084 H 105.498 -1.87124 0.827385 0
M  V30 1085 H 105.508 -4.07298 -0.239304 0
M  V30 1086 H 104.183 -4.05756 0.912947 0
M  V30 1087 H 102.76 -3.62678 -0.867135 0
M  V30 1088 N 104.945 -0.338344 -1.53925 0
M  V30 1089 C 106.17 0.263987 -2.05713 0
M  V30 1090 C 106.595 1.43847 -1.21201 0
M  V30 1091 O 105.953 1.79904 -0.224535 0
M  V30 1092 C 106.001 0.662 -3.54471 0
M  V30 1093 O 105.105 1.76265 -3.72833 0
M  V30 1094 H 104.446 0.0448722 -0.662482 0
M  V30 1095 H 106.976 -0.491048 -1.9862 0
M  V30 1096 H 106.986 0.940594 -3.9701 0
M  V30 1097 H 105.661 -0.196937 -4.15433 0
M  V30 1098 H 104.238 1.48173 -3.42198 0
M  V30 1099 N 106.423 1.57458 -0.0668435 0
M  V30 1100 C 107.371 2.13639 0.919851 0
M  V30 1101 C 108.365 1.07204 1.31163 0
M  V30 1102 O 109.571 1.25591 1.28945 0
M  V30 1103 H 105.946 0.683048 0.314562 0
M  V30 1104 H 107.917 2.95415 0.421047 0
M  V30 1105 C 106.666 2.70892 2.17975 0
M  V30 1106 H 105.989 3.5246 1.88711 0
M  V30 1107 H 107.429 3.13803 2.85138 0
M  V30 1108 C 105.888 1.65414 2.93496 0
M  V30 1109 O 106.418 1.07619 3.87015 0
M  V30 1110 N 104.624 1.36564 2.56512 0
M  V30 1111 H 104.171 1.83751 1.80536 0
M  V30 1112 H 104.129 0.66223 3.07347 0
M  V30 1113 N 107.901 -0.206675 1.56239 0
M  V30 1114 C 109.317 -0.557025 1.49564 0
M  V30 1115 C 109.517 -1.86424 0.764735 0
M  V30 1116 O 108.573 -2.50584 0.310491 0
M  V30 1117 C 109.886 -0.622478 2.94186 0
M  V30 1118 C 111.434 -0.712099 3.04792 0
M  V30 1119 C 111.909 -0.808767 4.50803 0
M  V30 1120 N 113.4 -0.8726 4.54907 0
M  V30 1121 C 114.135 -0.967365 5.65181 0
M  V30 1122 N 113.631 -1.02515 6.85173 0
M  V30 1123 N 115.424 -1.00366 5.53067 0
M  V30 1124 H 107.575 0.650943 2.02179 0
M  V30 1125 H 109.838 0.230387 0.919579 0
M  V30 1126 H 109.544 0.268727 3.50672 0
M  V30 1127 H 109.418 -1.4811 3.46905 0
M  V30 1128 H 111.805 -1.59374 2.48363 0
M  V30 1129 H 111.886 0.172489 2.55218 0
M  V30 1130 H 111.53 0.0684754 5.07854 0
M  V30 1131 H 111.46 -1.70899 4.98098 0
M  V30 1132 H 113.951 -0.837657 3.68499 0
M  V30 1133 H 114.264 -1.09765 7.64965 0
M  V30 1134 H 112.609 -0.994026 6.87855 0
M  V30 1135 H 115.8 -0.95527 4.58249 0
M  V30 1136 H 115.973 -1.07405 6.39037 0
M  V30 1137 N 109.379 -1.50304 -0.473955 0
M  V30 1138 C 110.628 -1.60392 -1.22301 0
M  V30 1139 C 110.941 -0.308411 -1.93153 0
M  V30 1140 O 112.147 -0.288156 -2.69966 0
M  V30 1141 C 110.603 -2.83109 -2.2221 0
M  V30 1142 C 110.211 -4.19524 -1.57173 0
M  V30 1143 C 111.955 -3.0254 -2.97775 0
M  V30 1144 C 109.862 -5.33431 -2.55353 0
M  V30 1145 H 108.792 -0.597286 -0.460179 0
M  V30 1146 H 111.443 -1.76731 -0.493803 0
M  V30 1147 H 109.825 -2.60322 -2.9841 0
M  V30 1148 H 110.999 -4.52554 -0.867824 0
M  V30 1149 H 109.314 -4.05674 -0.939002 0
M  V30 1150 H 111.911 -3.84811 -3.71248 0
M  V30 1151 H 112.254 -2.14154 -3.56992 0
M  V30 1152 H 112.787 -3.25494 -2.28688 0
M  V30 1153 H 109.526 -6.23962 -2.00878 0
M  V30 1154 H 109.046 -5.04823 -3.23904 0
M  V30 1155 H 110.725 -5.63887 -3.17239 0
M  V30 1156 N 110.857 0.726932 -1.39834 0
M  V30 1157 C 111.807 1.83232 -1.35683 0
M  V30 1158 C 112.791 1.59155 -0.236295 0
M  V30 1159 O 113.983 1.70522 -0.474488 0
M  V30 1160 C 111.112 3.21246 -1.21062 0
M  V30 1161 C 110.198 3.51125 -2.37849 0
M  V30 1162 N 110.589 3.51889 -3.63329 0
M  V30 1163 C 108.887 3.81527 -2.30982 0
M  V30 1164 C 109.588 3.79791 -4.40606 0
M  V30 1165 N 108.564 3.97971 -3.70297 0
M  V30 1166 H 112.366 1.8214 -2.30656 0
M  V30 1167 H 109.88 0.925545 -1.33444 0
M  V30 1168 H 111.877 4.00387 -1.16171 0
M  V30 1169 H 110.537 3.23572 -0.270458 0
M  V30 1170 H 111.548 3.33008 -3.96643 0
M  V30 1171 H 108.225 3.91411 -1.45272 0
M  V30 1172 H 109.615 3.86783 -5.49408 0
M  V30 1173 N 112.336 1.25143 0.95797 0
M  V30 1174 C 113.286 1.01924 2.0395 0
M  V30 1175 C 114.27 -0.0427175 1.60843 0
M  V30 1176 O 115.462 0.17221 1.7616 0
M  V30 1177 C 112.591 0.636373 3.3735 0
M  V30 1178 C 111.677 1.73492 3.8699 0
M  V30 1179 N 112.068 2.96945 4.0946 0
M  V30 1180 C 110.366 1.61467 4.15746 0
M  V30 1181 C 111.067 3.68228 4.50315 0
M  V30 1182 N 110.043 2.95833 4.56053 0
M  V30 1183 H 113.845 1.95653 2.19311 0
M  V30 1184 H 111.359 1.15413 1.14253 0
M  V30 1185 H 113.356 0.451233 4.14451 0
M  V30 1186 H 112.016 -0.293621 3.2337 0
M  V30 1187 H 113.027 3.33025 3.96629 0
M  V30 1188 H 109.704 0.753394 4.10646 0
M  V30 1189 H 111.094 4.74178 4.76031 0
M  V30 1190 N 113.814 -1.1601 1.06675 0
M  V30 1191 C 114.744 -2.22688 0.702307 0
M  V30 1192 C 115.725 -1.67306 -0.307032 0
M  V30 1193 O 116.91 -1.93352 -0.181305 0
M  V30 1194 C 114.04 -3.47178 0.092038 0
M  V30 1195 C 112.994 -4.15477 1.02777 0
M  V30 1196 C 112.32 -5.33963 0.28061 0
M  V30 1197 C 113.62 -4.66019 2.35846 0
M  V30 1198 H 115.314 -2.53429 1.59419 0
M  V30 1199 H 112.86 -1.21813 0.767961 0
M  V30 1200 H 114.813 -4.21037 -0.174814 0
M  V30 1201 H 113.537 -3.15749 -0.834877 0
M  V30 1202 H 112.196 -3.43549 1.27944 0
M  V30 1203 H 111.844 -4.98788 -0.649545 0
M  V30 1204 H 111.544 -5.806 0.904258 0
M  V30 1205 H 113.068 -6.10596 0.021396 0
M  V30 1206 H 114.482 -5.3144 2.15045 0
M  V30 1207 H 112.879 -5.23293 2.93743 0
M  V30 1208 H 113.949 -3.82023 2.98641 0
M  V30 1209 N 115.292 -0.849877 -1.32721 0
M  V30 1210 C 116.242 -0.262892 -2.26479 0
M  V30 1211 C 117.226 0.588493 -1.49752 0
M  V30 1212 O 118.418 0.438659 -1.71478 0
M  V30 1213 C 115.547 0.551818 -3.38836 0
M  V30 1214 C 114.633 -0.311689 -4.22953 0
M  V30 1215 N 115.024 -1.39567 -4.86163 0
M  V30 1216 C 113.322 -0.100611 -4.45887 0
M  V30 1217 C 114.023 -1.92651 -5.48872 0
M  V30 1218 N 112.999 -1.22637 -5.29586 0
M  V30 1219 H 116.801 -1.09166 -2.72873 0
M  V30 1220 H 114.315 -0.695486 -1.46754 0
M  V30 1221 H 116.312 0.988713 -4.05006 0
M  V30 1222 H 114.972 1.37844 -2.93988 0
M  V30 1223 H 115.983 -1.77859 -4.86402 0
M  V30 1224 H 112.66 0.691681 -4.11731 0
M  V30 1225 H 114.05 -2.83487 -6.09167 0
M  V30 1226 N 116.77 1.45427 -0.607355 0
M  V30 1227 C 118.047 1.9557 -0.0344566 0
M  V30 1228 C 118.427 1.54979 1.43334 0
M  V30 1229 O 117.775 0.812241 2.13576 0
M  V30 1230 C 117.985 3.48226 -0.232321 0
M  V30 1231 C 119.333 4.2445 -0.113001 0
M  V30 1232 O 120.357 3.55829 -0.162431 0
M  V30 1233 O 119.216 5.465 0.00209442 0
M  V30 1234 H 116.31 0.826222 0.0358667 0
M  V30 1235 H 118.856 1.55594 -0.6774 0
M  V30 1236 H 117.628 3.70739 -1.25174 0
M  V30 1237 H 117.251 3.95092 0.445896 0
M  V30 1238 N 118.248 0.346503 1.53744 0
M  V30 1239 C 119.473 -0.253074 2.0585 0
M  V30 1240 C 119.898 -1.43202 1.21962 0
M  V30 1241 O 119.256 -1.79783 0.234073 0
M  V30 1242 C 119.304 -0.643193 3.54817 0
M  V30 1243 O 118.408 -1.74286 3.73762 0
M  V30 1244 H 117.749 -0.0413583 0.662711 0
M  V30 1245 H 120.279 0.501574 1.98357 0
M  V30 1246 H 120.289 -0.919526 3.97503 0
M  V30 1247 H 118.964 0.218966 4.15323 0
M  V30 1248 H 117.541 -1.46356 3.42979 0
M  V30 1249 N 119.726 -1.57421 0.075193 0
M  V30 1250 C 121.003 -1.85029 -0.634329 0
M  V30 1251 C 121.383 -0.968305 -1.87582 0
M  V30 1252 O 120.731 -0.0354749 -2.28472 0
M  V30 1253 C 120.941 -3.35286 -0.968742 0
M  V30 1254 C 122.289 -4.02875 -1.34077 0
M  V30 1255 O 123.313 -3.40051 -1.06037 0
M  V30 1256 O 122.172 -5.13691 -1.86506 0
M  V30 1257 H 119.266 -0.7645 -0.315387 0
M  V30 1258 H 121.812 -1.69366 0.106382 0
M  V30 1259 H 120.584 -3.91203 -0.0871376 0
M  V30 1260 H 120.207 -3.56223 -1.7661 0
M  V30 1261 N 121.204 0.198386 -1.56346 0
M  V30 1262 C 122.451 0.919286 -1.80431 0
M  V30 1263 C 122.779 1.83393 -0.647866 0
M  V30 1264 O 122.034 1.92236 0.366556 0
M  V30 1265 C 122.333 1.77031 -3.10475 0
M  V30 1266 C 121.999 1.00693 -4.39513 0
M  V30 1267 C 120.661 0.796145 -4.74568 0
M  V30 1268 C 123.013 0.469559 -5.19081 0
M  V30 1269 C 120.341 0.0364588 -5.86689 0
M  V30 1270 C 122.693 -0.2769 -6.31994 0
M  V30 1271 C 121.357 -0.49873 -6.65634 0
M  V30 1272 H 120.627 0.336391 -0.660244 0
M  V30 1273 H 123.274 0.185872 -1.90596 0
M  V30 1274 H 121.579 2.5723 -2.95533 0
M  V30 1275 H 123.276 2.33065 -3.26315 0
M  V30 1276 H 119.866 1.18122 -4.12001 0
M  V30 1277 H 124.05 0.619816 -4.92414 0
M  V30 1278 H 119.306 -0.145412 -6.11227 0
M  V30 1279 H 123.48 -0.700684 -6.92866 0
M  V30 1280 H 121.107 -1.0893 -7.52355 0
M  V30 1281 N 122.682 1.50554 0.465978 0
M  V30 1282 C 123.645 1.69233 1.54574 0
M  V30 1283 C 124.645 0.562901 1.50626 0
M  V30 1284 O 125.835 0.830016 1.53155 0
M  V30 1285 C 122.967 1.7223 2.94193 0
M  V30 1286 H 124.16 2.65571 1.39327 0
M  V30 1287 H 121.713 1.40111 0.692711 0
M  V30 1288 H 122.448 0.77603 3.14878 0
M  V30 1289 H 122.233 2.54285 2.98466 0
M  V30 1290 H 123.723 1.88618 3.72576 0
M  V30 1291 N 124.16 -0.719506 1.40217 0
M  V30 1292 C 125.11 -1.8251 1.36653 0
M  V30 1293 C 126.094 -1.59028 0.244732 0
M  V30 1294 O 127.286 -1.70268 0.483524 0
M  V30 1295 C 124.415 -3.20599 1.22763 0
M  V30 1296 C 123.501 -3.49858 2.39708 0
M  V30 1297 N 123.892 -3.49957 3.6519 0
M  V30 1298 C 122.19 -3.80297 2.33002 0
M  V30 1299 C 122.891 -3.77449 4.42614 0
M  V30 1300 N 121.867 -3.96002 3.72402 0
M  V30 1301 H 125.669 -1.80914 2.31619 0
M  V30 1302 H 123.183 -0.918455 1.33933 0
M  V30 1303 H 125.18 -3.99766 1.18292 0
M  V30 1304 H 123.84 -3.23424 0.287614 0
M  V30 1305 H 124.851 -3.309 3.98404 0
M  V30 1306 H 121.528 -3.90635 1.47346 0
M  V30 1307 H 122.918 -3.83863 5.51451 0
M  V30 1308 N 125.638 -1.25649 -0.95132 0
M  V30 1309 C 126.568 -1.08808 -2.06599 0
M  V30 1310 C 127.549 0.00382547 -1.701 0
M  V30 1311 O 128.734 -0.166325 -1.93486 0
M  V30 1312 C 125.864 -0.709542 -3.39975 0
M  V30 1313 C 124.818 -1.75206 -3.90496 0
M  V30 1314 C 124.144 -1.22811 -5.20405 0
M  V30 1315 C 125.444 -3.15153 -4.16504 0
M  V30 1316 H 127.138 -2.02048 -2.20946 0
M  V30 1317 H 124.684 -0.972835 -1.06169 0
M  V30 1318 H 126.637 -0.578649 -4.17408 0
M  V30 1319 H 125.361 0.258556 -3.25575 0
M  V30 1320 H 124.02 -1.87145 -3.15234 0
M  V30 1321 H 123.668 -0.250145 -5.02378 0
M  V30 1322 H 123.368 -1.92492 -5.55176 0
M  V30 1323 H 124.892 -1.10968 -6.00432 0
M  V30 1324 H 126.306 -3.06349 -4.84586 0
M  V30 1325 H 124.703 -3.82333 -4.62538 0
M  V30 1326 H 125.773 -3.61966 -3.22658 0
M  V30 1327 N 127.117 1.15442 -1.07289 0
M  V30 1328 C 128.528 1.67803 -0.818475 0
M  V30 1329 C 128.879 1.8489 0.656507 0
M  V30 1330 O 128.004 1.55176 1.50829 0
M  V30 1331 C 128.599 3.04805 -1.47917 0
M  V30 1332 C 127.158 3.54245 -1.27229 0
M  V30 1333 C 126.305 2.29986 -1.54925 0
M  V30 1334 H 129.256 0.996646 -1.23502 0
M  V30 1335 H 129.277 3.69702 -0.90005 0
M  V30 1336 H 128.789 2.92336 -2.55267 0
M  V30 1337 H 126.89 3.71956 -0.21899 0
M  V30 1338 H 127.003 4.35723 -1.99203 0
M  V30 1339 H 125.367 2.35496 -0.970242 0
M  V30 1340 H 126.15 2.20105 -2.63455 0
M  V30 1341 N 128.595 0.856903 1.32268 0
M  V30 1342 C 129.82 0.474569 2.01897 0
M  V30 1343 C 130.245 -0.921766 1.63967 0
M  V30 1344 O 129.603 -1.60589 0.84148 0
M  V30 1345 C 129.651 0.623799 3.55164 0
M  V30 1346 O 128.755 -0.342459 4.10976 0
M  V30 1347 H 128.096 0.190422 0.63611 0
M  V30 1348 H 130.626 1.15672 1.68764 0
M  V30 1349 H 130.636 0.512169 4.04773 0
M  V30 1350 H 129.311 1.64202 3.82113 0
M  V30 1351 H 127.888 -0.18688 3.72431 0
M  V30 1352 N 130.073 -1.45103 0.615059 0
M  V30 1353 C 131.003 -2.33339 -0.0865619 0
M  V30 1354 C 131.984 -1.4727 -0.851209 0
M  V30 1355 O 133.169 -1.76026 -0.820281 0
M  V30 1356 C 130.299 -3.30095 -1.07956 0
M  V30 1357 C 129.253 -4.25858 -0.427628 0
M  V30 1358 C 128.579 -5.12361 -1.5294 0
M  V30 1359 C 129.879 -5.18165 0.655944 0
M  V30 1360 H 131.573 -2.92254 0.650224 0
M  V30 1361 H 129.119 -1.40532 0.314138 0
M  V30 1362 H 131.072 -3.90698 -1.57901 0
M  V30 1363 H 129.796 -2.69355 -1.84703 0
M  V30 1364 H 128.455 -3.66564 0.0510292 0
M  V30 1365 H 128.103 -4.47984 -2.28734 0
M  V30 1366 H 127.803 -5.77238 -1.09865 0
M  V30 1367 H 129.327 -5.75833 -2.03098 0
M  V30 1368 H 130.741 -5.72796 0.240257 0
M  V30 1369 H 129.138 -5.91559 1.00888 0
M  V30 1370 H 130.208 -4.60144 1.52957 0
M  V30 1371 N 131.551 -0.354651 -1.53558 0
M  V30 1372 C 132.967 -0.00315426 -1.596 0
M  V30 1373 C 133.167 1.47741 -1.37021 0
M  V30 1374 O 132.223 2.23759 -1.16996 0
M  V30 1375 C 133.536 -0.44929 -2.97325 0
M  V30 1376 C 135.084 -0.402578 -3.104 0
M  V30 1377 C 135.559 -0.824355 -4.5052 0
M  V30 1378 N 137.05 -0.778979 -4.56603 0
M  V30 1379 C 137.785 -1.07715 -5.63192 0
M  V30 1380 N 137.281 -1.44405 -6.77583 0
M  V30 1381 N 139.074 -1.00066 -5.53121 0
M  V30 1382 H 131.225 -1.31893 -1.66487 0
M  V30 1383 H 133.488 -0.538388 -0.780284 0
M  V30 1384 H 133.194 -1.48202 -3.1895 0
M  V30 1385 H 133.068 0.169772 -3.76818 0
M  V30 1386 H 135.455 0.621004 -2.88492 0
M  V30 1387 H 135.536 -1.05699 -2.32941 0
M  V30 1388 H 135.18 -1.846 -4.73165 0
M  V30 1389 H 135.11 -0.147304 -5.26394 0
M  V30 1390 H 137.601 -0.508528 -3.74463 0
M  V30 1391 H 137.914 -1.65612 -7.54846 0
M  V30 1392 H 136.259 -1.4826 -6.79002 0
M  V30 1393 H 139.45 -0.713293 -4.62633 0
M  V30 1394 H 139.623 -1.23638 -6.36096 0
M  V30 1395 N 133.029 1.57378 -0.0835403 0
M  V30 1396 C 133.979 2.09916 0.889905 0
M  V30 1397 C 134.963 1.01151 1.25129 0
M  V30 1398 O 136.155 1.27443 1.2283 0
M  V30 1399 C 133.284 2.67379 2.15322 0
M  V30 1400 C 132.37 3.83167 1.81779 0
M  V30 1401 N 132.761 4.91665 1.18739 0
M  V30 1402 C 131.059 3.92685 2.11459 0
M  V30 1403 C 131.76 5.72409 1.0355 0
M  V30 1404 N 130.736 5.21062 1.54906 0
M  V30 1405 H 134.538 2.91188 0.398378 0
M  V30 1406 H 132.052 1.61956 0.120013 0
M  V30 1407 H 134.049 3.0334 2.8599 0
M  V30 1408 H 132.709 1.87558 2.65051 0
M  V30 1409 H 133.72 5.10784 0.855604 0
M  V30 1410 H 130.397 3.23856 2.63483 0
M  V30 1411 H 131.787 6.69699 0.543425 0
M  V30 1412 N 134.507 -0.190092 1.56449 0
M  V30 1413 C 135.437 -1.23816 1.97969 0
M  V30 1414 C 136.418 -1.47201 0.852395 0
M  V30 1415 O 137.603 -1.58854 1.1171 0
M  V30 1416 C 134.733 -2.5813 2.3235 0
M  V30 1417 C 133.687 -2.49348 3.47864 0
M  V30 1418 C 133.013 -3.8798 3.67934 0
M  V30 1419 C 134.313 -2.01424 4.81898 0
M  V30 1420 H 136.007 -0.89311 2.85769 0
M  V30 1421 H 133.553 -0.428177 1.37487 0
M  V30 1422 H 135.506 -3.31637 2.59991 0
M  V30 1423 H 134.23 -2.94386 1.41438 0
M  V30 1424 H 132.889 -1.78297 3.20321 0
M  V30 1425 H 132.537 -4.21597 2.74344 0
M  V30 1426 H 132.237 -3.82978 4.45648 0
M  V30 1427 H 133.761 -4.63101 3.97957 0
M  V30 1428 H 135.175 -2.64693 5.08538 0
M  V30 1429 H 133.572 -2.07413 5.63116 0
M  V30 1430 H 134.642 -0.967677 4.75146 0
M  V30 1431 N 135.985 -1.50799 -0.457987 0
M  V30 1432 C 136.933 -1.71162 -1.575 0
M  V30 1433 C 137.927 -0.577592 -1.59249 0
M  V30 1434 O 139.133 -0.758443 -1.63241 0
M  V30 1435 H 135.508 -0.540468 -0.522875 0
M  V30 1436 H 137.479 -2.64837 -1.37492 0
M  V30 1437 C 136.228 -1.83496 -2.95338 0
M  V30 1438 H 135.551 -2.70153 -2.94716 0
M  V30 1439 H 136.991 -2.01765 -3.72917 0
M  V30 1440 C 135.45 -0.589694 -3.31699 0
M  V30 1441 O 135.98 0.265163 -4.00824 0
M  V30 1442 N 134.186 -0.439845 -2.87252 0
M  V30 1443 H 133.733 -1.13655 -2.31172 0
M  V30 1444 H 133.691 0.392159 -3.11945 0
M  V30 1445 N 137.463 0.71206 -1.40597 0
M  V30 1446 C 138.393 1.83889 -1.43899 0
M  V30 1447 C 139.374 1.67442 -0.299504 0
M  V30 1448 O 140.559 1.87421 -0.508624 0
M  V30 1449 C 137.689 3.21877 -1.30431 0
M  V30 1450 C 136.643 3.53002 -2.42019 0
M  V30 1451 C 135.969 4.90172 -2.13626 0
M  V30 1452 C 137.269 3.53643 -3.84362 0
M  V30 1453 H 138.963 1.81383 -2.38203 0
M  V30 1454 H 136.509 0.871237 -1.14654 0
M  V30 1455 H 138.462 4.00404 -1.31357 0
M  V30 1456 H 137.186 3.24968 -0.326049 0
M  V30 1457 H 135.845 2.76818 -2.40349 0
M  V30 1458 H 135.493 4.89869 -1.14182 0
M  V30 1459 H 135.193 5.11962 -2.88389 0
M  V30 1460 H 136.717 5.71028 -2.1624 0
M  V30 1461 H 138.131 4.22203 -3.87837 0
M  V30 1462 H 136.528 3.86961 -4.58673 0
M  V30 1463 H 137.598 2.52954 -4.13693 0
M  V30 1464 N 138.941 1.26152 0.944643 0
M  V30 1465 C 139.888 1.07408 2.04285 0
M  V30 1466 C 140.858 -0.0198413 1.66088 0
M  V30 1467 O 142.043 0.139264 1.90291 0
M  V30 1468 C 139.183 0.70945 3.37729 0
M  V30 1469 C 138.296 1.87926 3.88983 0
M  V30 1470 C 137.431 1.45807 5.10797 0
M  V30 1471 C 136.47 2.5964 5.54305 0
M  V30 1472 N 135.607 2.18226 6.67324 0
M  V30 1473 H 140.447 2.01389 2.1965 0
M  V30 1474 H 137.984 1.00275 1.07626 0
M  V30 1475 H 139.942 0.478948 4.14442 0
M  V30 1476 H 138.572 -0.193389 3.2222 0
M  V30 1477 H 137.624 2.22279 3.08701 0
M  V30 1478 H 138.936 2.73377 4.17213 0
M  V30 1479 H 138.09 1.18781 5.94959 0
M  V30 1480 H 136.829 0.574414 4.84305 0
M  V30 1481 H 135.834 2.87399 4.68702 0
M  V30 1482 H 137.059 3.48599 5.828 0
M  V30 1483 H 135.005 1.3229 6.42523 0
M  V30 1484 H 134.922 2.97221 6.95123 0
M  V30 1485 H 136.19 1.94403 7.54869 0
M  V30 1486 N 140.419 -1.14872 1.07899 0
M  V30 1487 C 141.665 -1.86289 0.81657 0
M  V30 1488 C 142.02 -1.8107 -0.65049 0
M  V30 1489 O 141.313 -1.22684 -1.47171 0
M  V30 1490 C 141.507 -3.34223 1.26609 0
M  V30 1491 C 141.336 -3.53846 2.77531 0
M  V30 1492 C 140.106 -3.68995 3.45212 0
M  V30 1493 C 142.304 -3.51201 3.75716 0
M  V30 1494 N 140.286 -3.76725 4.84718 0
M  V30 1495 C 141.657 -3.65112 5.01092 0
M  V30 1496 C 143.712 -3.34507 3.68794 0
M  V30 1497 C 142.415 -3.64056 6.20368 0
M  V30 1498 C 144.441 -3.34752 4.8754 0
M  V30 1499 C 143.803 -3.49199 6.11751 0
M  V30 1500 H 139.902 -0.698579 0.351443 0
M  V30 1501 H 142.486 -1.37713 1.37634 0
M  V30 1502 H 140.657 -3.81402 0.73395 0
M  V30 1503 H 142.389 -3.93377 0.95062 0
M  V30 1504 H 139.144 -3.70006 2.95622 0
M  V30 1505 H 139.568 -3.8432 5.5734 0
M  V30 1506 H 144.21 -3.22253 2.73702 0
M  V30 1507 H 141.928 -3.75087 7.15776 0
M  V30 1508 H 145.514 -3.23055 4.83866 0
M  V30 1509 H 144.394 -3.49328 7.02097 0
M  V30 1510 N 141.898 -0.863906 -1.31812 0
M  V30 1511 C 142.846 -0.30422 -2.30602 0
M  V30 1512 C 143.84 0.577419 -1.59255 0
M  V30 1513 O 145.046 0.464194 -1.73912 0
M  V30 1514 H 141.421 -0.0796877 -0.747766 0
M  V30 1515 H 143.392 -1.15148 -2.75288 0
M  V30 1516 C 142.141 0.484617 -3.44306 0
M  V30 1517 H 141.464 -0.18451 -3.99374 0
M  V30 1518 H 142.904 0.841664 -4.15562 0
M  V30 1519 C 141.363 1.6735 -2.92396 0
M  V30 1520 O 141.893 2.77273 -2.90659 0
M  V30 1521 N 140.099 1.50362 -2.48676 0
M  V30 1522 H 139.646 0.609402 -2.50288 0
M  V30 1523 H 139.604 2.30051 -2.14299 0
M  V30 1524 N 143.376 1.44774 -0.622745 0
M  V30 1525 C 144.616 2.04004 -0.127102 0
M  V30 1526 C 144.98 1.47862 1.22478 0
M  V30 1527 O 146.181 1.98541 1.81204 0
M  V30 1528 C 144.452 3.57247 -0.104429 0
M  V30 1529 S 146.011 4.37574 0.327814 0
M  V30 1530 H 142.829 0.708713 -0.0569776 0
M  V30 1531 H 145.431 1.77275 -0.824253 0
M  V30 1532 H 144.135 3.95616 -1.09159 0
M  V30 1533 H 143.666 3.88575 0.614236 0
M  V30 1534 H 145.681 4.70575 1.57395 0
M  V30 1535 N 144.854 0.36279 1.53368 0
M  V30 1536 C 146.265 -0.117022 1.86333 0
M  V30 1537 C 146.616 -1.48397 1.28347 0
M  V30 1538 O 145.741 -2.07787 0.604428 0
M  V30 1539 C 146.336 -0.21912 3.38091 0
M  V30 1540 C 144.895 -0.643184 3.70864 0
M  V30 1541 C 144.042 0.211318 2.76494 0
M  V30 1542 H 146.993 0.581687 1.47655 0
M  V30 1543 H 147.014 -1.04319 3.6592 0
M  V30 1544 H 146.526 0.775902 3.80265 0
M  V30 1545 H 144.627 -1.64654 3.34245 0
M  V30 1546 H 144.74 -0.41973 4.77258 0
M  V30 1547 H 143.104 -0.319367 2.5269 0
M  V30 1548 H 143.887 1.20383 3.21501 0
M  V30 1549 N 146.332 -1.57332 0.0918853 0
M  V30 1550 C 147.743 -1.81496 -0.437739 0
M  V30 1551 C 148.094 -1.00727 -1.6837 0
M  V30 1552 O 147.219 -0.235694 -2.15113 0
M  V30 1553 C 147.814 -3.29197 -0.800939 0
M  V30 1554 C 146.373 -3.54136 -1.27532 0
M  V30 1555 C 145.52 -2.75979 -0.270392 0
M  V30 1556 H 148.471 -1.55494 0.317366 0
M  V30 1557 H 148.492 -3.42344 -1.66074 0
M  V30 1558 H 148.004 -3.87955 0.106078 0
M  V30 1559 H 146.105 -3.00705 -2.20016 0
M  V30 1560 H 146.218 -4.62792 -1.23938 0
M  V30 1561 H 144.582 -2.43349 -0.751872 0
M  V30 1562 H 145.365 -3.37484 0.629248 0
M  V30 1563 N 147.81 0.181792 -1.56548 0
M  V30 1564 C 149.056 0.901431 -1.81665 0
M  V30 1565 C 149.389 1.82347 -0.668075 0
M  V30 1566 O 148.664 1.91669 0.330615 0
M  V30 1567 C 148.947 1.70618 -3.17115 0
M  V30 1568 C 148.8 0.807964 -4.42484 0
M  V30 1569 C 150.119 2.67605 -3.49393 0
M  V30 1570 H 147.238 0.32627 -0.660846 0
M  V30 1571 H 149.88 0.168134 -1.89255 0
M  V30 1572 H 148.03 2.33133 -3.10775 0
M  V30 1573 H 149.702 0.19649 -4.60881 0
M  V30 1574 H 147.945 0.115411 -4.33646 0
M  V30 1575 H 148.616 1.40632 -5.33785 0
M  V30 1576 H 151.092 2.15218 -3.56118 0
M  V30 1577 H 149.968 3.20985 -4.45264 0
M  V30 1578 H 150.229 3.47298 -2.73563 0
M  V30 1579 N 149.288 1.51039 0.449983 0
M  V30 1580 C 150.536 1.62759 1.19808 0
M  V30 1581 C 150.857 0.339981 1.92013 0
M  V30 1582 O 150.127 -0.643606 1.85026 0
M  V30 1583 H 148.707 0.599811 0.445237 0
M  V30 1584 H 151.369 1.87914 0.517138 0
M  V30 1585 H 150.465 2.44911 1.93455 0
M  V30 1586 N 150.766 -0.704594 1.40972 0
M  V30 1587 C 151.696 -1.83124 1.44872 0
M  V30 1588 C 152.677 -1.67281 0.30838 0
M  V30 1589 O 153.862 -1.87149 0.518556 0
M  V30 1590 C 150.992 -3.21181 1.32136 0
M  V30 1591 C 149.946 -3.51714 2.43888 0
M  V30 1592 C 149.272 -4.89032 2.16222 0
M  V30 1593 C 150.572 -3.516 3.86232 0
M  V30 1594 H 152.266 -1.80117 2.39161 0
M  V30 1595 H 149.812 -0.865145 1.15114 0
M  V30 1596 H 151.765 -3.99702 1.33479 0
M  V30 1597 H 150.489 -3.24791 0.343279 0
M  V30 1598 H 149.148 -2.75539 2.41813 0
M  V30 1599 H 148.796 -4.89256 1.16778 0
M  V30 1600 H 148.496 -5.10426 2.911 0
M  V30 1601 H 150.02 -5.69873 2.19265 0
M  V30 1602 H 151.434 -4.2014 3.9007 0
M  V30 1603 H 149.831 -3.84523 4.60719 0
M  V30 1604 H 150.901 -2.50757 4.15029 0
M  V30 1605 N 152.244 -1.26651 -0.937939 0
M  V30 1606 C 153.469 -1.15279 -1.72411 0
M  V30 1607 C 153.894 0.287866 -1.85884 0
M  V30 1608 O 153.252 1.20855 -1.35143 0
M  V30 1609 C 153.3 -1.83028 -3.10698 0
M  V30 1610 O 152.404 -1.12128 -3.96864 0
M  V30 1611 H 151.745 -0.401504 -0.528858 0
M  V30 1612 H 154.275 -1.67531 -1.1745 0
M  V30 1613 H 154.285 -1.89981 -3.6107 0
M  V30 1614 H 152.96 -2.87833 -3.00208 0
M  V30 1615 H 151.537 -1.13173 -3.55312 0
M  V30 1616 N 153.722 1.14298 -1.08507 0
M  V30 1617 C 155.133 1.66926 -0.836227 0
M  V30 1618 C 155.484 1.85576 0.63686 0
M  V30 1619 O 154.609 1.56767 1.49175 0
M  V30 1620 C 155.204 3.03219 -1.51142 0
M  V30 1621 C 153.763 3.52876 -1.30979 0
M  V30 1622 C 152.91 2.2833 -1.57356 0
M  V30 1623 H 155.861 0.983491 -1.24552 0
M  V30 1624 H 155.882 3.68726 -0.939211 0
M  V30 1625 H 155.394 2.89612 -2.58353 0
M  V30 1626 H 153.495 3.71703 -0.258429 0
M  V30 1627 H 153.608 4.33586 -2.03814 0
M  V30 1628 H 151.972 2.34454 -0.995164 0
M  V30 1629 H 152.755 2.17298 -2.65775 0
M  V30 1630 N 155.201 0.870884 1.31352 0
M  V30 1631 C 156.134 0.271983 2.26573 0
M  V30 1632 C 157.112 -0.599385 1.51149 0
M  V30 1633 O 158.296 -0.552605 1.80218 0
M  V30 1634 C 155.423 -0.614801 3.33073 0
M  V30 1635 C 154.469 0.185342 4.26097 0
M  V30 1636 S 155.302 1.56444 5.12138 0
M  V30 1637 C 156.458 0.683807 6.22153 0
M  V30 1638 H 156.691 1.07916 2.77023 0
M  V30 1639 H 154.224 0.669459 1.39132 0
M  V30 1640 H 156.182 -1.12074 3.94905 0
M  V30 1641 H 154.843 -1.39593 2.81376 0
M  V30 1642 H 154.036 -0.490771 5.01605 0
M  V30 1643 H 153.638 0.623415 3.68768 0
M  V30 1644 H 155.93 -0.10521 6.77418 0
M  V30 1645 H 156.873 1.41004 6.93919 0
M  V30 1646 H 157.281 0.250952 5.63942 0
M  V30 1647 N 156.679 -1.44442 0.630414 0
M  V30 1648 C 157.629 -2.27794 -0.0968103 0
M  V30 1649 C 158.613 -1.38624 -0.816834 0
M  V30 1650 O 159.805 -1.62438 -0.70306 0
M  V30 1651 C 156.934 -3.25929 -1.07819 0
M  V30 1652 C 156.02 -4.22588 -0.357826 0
M  V30 1653 N 156.411 -5.0207 0.613169 0
M  V30 1654 C 154.709 -4.41914 -0.602365 0
M  V30 1655 C 155.41 -5.72351 1.03871 0
M  V30 1656 N 154.386 -5.42287 0.377642 0
M  V30 1657 H 158.188 -2.86653 0.648621 0
M  V30 1658 H 155.702 -1.55871 0.455862 0
M  V30 1659 H 157.699 -3.84399 -1.61378 0
M  V30 1660 H 156.359 -2.68631 -1.82393 0
M  V30 1661 H 157.37 -5.08331 0.990947 0
M  V30 1662 H 154.047 -3.95714 -1.33103 0
M  V30 1663 H 155.437 -6.4619 1.84086 0
M  V30 1664 N 158.157 -0.370918 -1.53173 0
M  V30 1665 C 159.404 0.217102 -2.01333 0
M  V30 1666 C 159.732 1.48338 -1.25802 0
M  V30 1667 O 158.987 1.92698 -0.34146 0
M  V30 1668 C 159.286 0.549696 -3.53147 0
M  V30 1669 C 158.952 -0.622872 -4.46577 0
M  V30 1670 C 157.614 -0.944595 -4.71838 0
M  V30 1671 C 159.966 -1.40819 -5.01816 0
M  V30 1672 C 157.294 -2.05351 -5.49589 0
M  V30 1673 C 159.646 -2.50757 -5.80778 0
M  V30 1674 C 158.31 -2.83458 -6.04324 0
M  V30 1675 H 157.58 0.0794431 -0.736729 0
M  V30 1676 H 160.227 -0.504481 -1.84736 0
M  V30 1677 H 158.532 1.35237 -3.6772 0
M  V30 1678 H 160.229 1.017 -3.87889 0
M  V30 1679 H 156.819 -0.36209 -4.27068 0
M  V30 1680 H 161.003 -1.17289 -4.82242 0
M  V30 1681 H 156.259 -2.3108 -5.6605 0
M  V30 1682 H 160.433 -3.12022 -6.22588 0
M  V30 1683 H 158.06 -3.69508 -6.64355 0
M  V30 1684 N 159.635 1.57281 -0.100228 0
M  V30 1685 C 161.046 1.81725 0.428107 0
M  V30 1686 C 161.397 1.01619 1.67833 0
M  V30 1687 O 160.522 0.247098 2.14985 0
M  V30 1688 C 161.117 3.29617 0.78347 0
M  V30 1689 C 159.676 3.54808 1.25653 0
M  V30 1690 C 158.823 2.76118 0.255752 0
M  V30 1691 H 161.774 1.55324 -0.325608 0
M  V30 1692 H 161.795 3.4322 1.64256 0
M  V30 1693 H 161.307 3.87893 -0.12665 0
M  V30 1694 H 159.408 3.01868 2.18418 0
M  V30 1695 H 159.521 4.63443 1.21482 0
M  V30 1696 H 157.885 2.43745 0.738956 0
M  V30 1697 H 158.668 3.37145 -0.647136 0
M  V30 1698 N 161.113 -0.173488 1.56642 0
M  V30 1699 C 162.353 -0.896984 1.83667 0
M  V30 1700 C 162.717 -1.79523 0.680842 0
M  V30 1701 O 163.918 -2.55616 0.831488 0
M  V30 1702 C 162.189 -1.67351 3.15798 0
M  V30 1703 S 163.748 -2.44607 3.64298 0
M  V30 1704 H 160.566 -0.300464 0.644393 0
M  V30 1705 H 163.168 -0.158775 1.94854 0
M  V30 1706 H 161.872 -1.00462 3.97914 0
M  V30 1707 H 161.403 -2.45313 3.07546 0
M  V30 1708 H 163.418 -3.69261 3.31452 0
M  V30 1709 N 162.591 -1.51276 -0.441967 0
M  V30 1710 C 163.541 -1.6864 -1.53442 0
M  V30 1711 C 164.525 -0.540444 -1.51552 0
M  V30 1712 O 165.717 -0.796157 -1.58083 0
M  V30 1713 C 162.846 -1.8106 -2.91672 0
M  V30 1714 C 161.932 -3.01424 -2.98336 0
M  V30 1715 N 162.323 -4.2467 -2.74752 0
M  V30 1716 C 160.621 -3.00584 -3.29493 0
M  V30 1717 C 161.322 -5.05891 -2.87139 0
M  V30 1718 N 160.298 -4.40442 -3.18609 0
M  V30 1719 H 164.1 -2.61598 -1.33954 0
M  V30 1720 H 161.614 -1.4886 -0.6492 0
M  V30 1721 H 163.611 -1.91609 -3.70259 0
M  V30 1722 H 162.271 -0.892795 -3.12185 0
M  V30 1723 H 163.282 -4.53691 -2.49769 0
M  V30 1724 H 159.959 -2.18417 -3.55809 0
M  V30 1725 H 161.349 -6.13983 -2.72899 0
M  V30 1726 N 164.069 0.697108 -1.41344 0
M  V30 1727 C 165.002 1.82134 -1.37486 0
M  V30 1728 C 165.98 1.60784 -0.242351 0
M  V30 1729 O 167.164 1.83553 -0.429012 0
M  V30 1730 C 164.291 3.18788 -1.14421 0
M  V30 1731 C 163.337 3.58932 -2.3037 0
M  V30 1732 S 164.17 3.63916 -3.92843 0
M  V30 1733 C 165.326 5.03298 -3.72078 0
M  V30 1734 H 165.559 1.85129 -2.32625 0
M  V30 1735 H 163.092 0.865671 -1.2785 0
M  V30 1736 H 165.05 3.97677 -1.018 0
M  V30 1737 H 163.711 3.13404 -0.20905 0
M  V30 1738 H 162.904 4.58202 -2.09922 0
M  V30 1739 H 162.506 2.87347 -2.39391 0
M  V30 1740 H 164.798 5.90753 -3.31688 0
M  V30 1741 H 165.741 5.28788 -4.70945 0
M  V30 1742 H 166.149 4.74764 -3.05384 0
M  V30 1743 N 165.547 1.27147 0.931209 0
M  V30 1744 C 166.775 1.16082 1.71267 0
M  V30 1745 C 167.19 -0.282772 1.8667 0
M  V30 1746 O 166.547 -1.19283 1.38122 0
M  V30 1747 C 166.598 1.8358 3.11417 0
M  V30 1748 O 166.319 3.22299 2.96741 0
M  V30 1749 C 167.82 1.78597 4.05732 0
M  V30 1750 H 165.04 0.403758 0.535929 0
M  V30 1751 H 167.584 1.67953 1.16671 0
M  V30 1752 H 165.739 1.35623 3.62885 0
M  V30 1753 H 166.153 3.55851 3.85319 0
M  V30 1754 H 167.627 2.30444 5.01597 0
M  V30 1755 H 168.104 0.754564 4.3267 0
M  V30 1756 H 168.71 2.26152 3.60188 0
M  V30 1757 N 167.025 -1.13721 1.09112 0
M  V30 1758 C 168.274 -1.84275 0.82009 0
M  V30 1759 C 168.587 -1.84253 -0.656509 0
M  V30 1760 O 169.793 -2.50668 -1.04296 0
M  V30 1761 C 168.249 -3.30825 1.41714 0
M  V30 1762 C 167.857 -3.39244 2.92605 0
M  V30 1763 C 169.601 -4.06443 1.22492 0
M  V30 1764 C 167.508 -4.80047 3.45411 0
M  V30 1765 H 166.438 -0.690387 0.30312 0
M  V30 1766 H 169.089 -1.28146 1.31343 0
M  V30 1767 H 167.471 -3.86737 0.851498 0
M  V30 1768 H 168.645 -2.93344 3.55367 0
M  V30 1769 H 166.96 -2.77088 3.10823 0
M  V30 1770 H 169.557 -5.10387 1.59402 0
M  V30 1771 H 169.9 -4.15972 0.165299 0
M  V30 1772 H 170.433 -3.56852 1.75788 0
M  V30 1773 H 167.172 -4.75709 4.50978 0
M  V30 1774 H 166.692 -5.26455 2.87411 0
M  V30 1775 H 168.371 -5.48957 3.42425 0
M  V30 1776 N 168.503 -0.877838 -1.30888 0
M  V30 1777 C 169.413 -0.343096 -2.32078 0
M  V30 1778 C 170.429 0.551022 -1.65045 0
M  V30 1779 O 171.605 0.445854 -1.96403 0
M  V30 1780 C 168.67 0.439905 -3.43898 0
M  V30 1781 C 167.731 -0.483111 -4.26573 0
M  V30 1782 C 166.964 0.262616 -5.33053 0
M  V30 1783 O 167.187 1.48967 -5.50604 0
M  V30 1784 O 166.121 -0.383593 -6.00676 0
M  V30 1785 H 169.947 -1.18203 -2.79753 0
M  V30 1786 H 167.532 -0.64145 -1.34929 0
M  V30 1787 H 169.414 0.883504 -4.12034 0
M  V30 1788 H 168.089 1.25526 -2.98371 0
M  V30 1789 H 166.996 -0.975374 -3.61161 0
M  V30 1790 H 168.329 -1.26427 -4.75686 0
M  V30 1791 N 169.982 1.44106 -0.638065 0
M  V30 1792 C 171.393 1.85316 -0.226894 0
M  V30 1793 C 171.744 1.53399 1.22324 0
M  V30 1794 O 170.869 0.975463 1.93167 0
M  V30 1795 C 171.464 3.3637 -0.405013 0
M  V30 1796 C 170.023 3.76369 -0.0482902 0
M  V30 1797 C 169.17 2.67921 -0.715108 0
M  V30 1798 H 172.121 1.34474 -0.842764 0
M  V30 1799 H 172.142 3.7885 0.354 0
M  V30 1800 H 171.654 3.59569 -1.46053 0
M  V30 1801 H 169.755 3.58784 1.00522 0
M  V30 1802 H 169.868 4.76856 -0.463187 0
M  V30 1803 H 168.232 2.54259 -0.149753 0
M  V30 1804 H 169.015 2.93951 -1.77335 0
M  V30 1805 N 171.46 0.379036 1.52974 0
M  V30 1806 C 172.685 -0.209353 2.06341 0
M  V30 1807 C 173.11 -1.40583 1.24972 0
M  V30 1808 O 172.468 -1.79246 0.272155 0
M  V30 1809 C 172.516 -0.567786 3.56102 0
M  V30 1810 O 171.62 -1.66318 3.77375 0
M  V30 1811 H 170.961 -0.0272919 0.663439 0
M  V30 1812 H 173.491 0.543536 1.97248 0
M  V30 1813 H 173.501 -0.835003 3.99364 0
M  V30 1814 H 172.176 0.307013 4.14765 0
M  V30 1815 H 170.753 -1.39048 3.46006 0
M  V30 1816 N 172.938 -1.57226 0.108567 0
M  V30 1817 C 174.166 -1.99179 -0.559954 0
M  V30 1818 C 174.581 -0.988022 -1.60884 0
M  V30 1819 O 173.938 0.0205512 -1.82488 0
M  V30 1820 C 173.989 -3.41159 -1.19552 0
M  V30 1821 O 173.71 -4.37694 -0.188577 0
M  V30 1822 C 175.211 -3.98188 -1.94837 0
M  V30 1823 H 172.431 -0.654228 -0.149088 0
M  V30 1824 H 174.975 -2.03598 0.19183 0
M  V30 1825 H 173.13 -3.37711 -1.89815 0
M  V30 1826 H 173.544 -5.20469 -0.649014 0
M  V30 1827 H 175.018 -4.99644 -2.34648 0
M  V30 1828 H 175.495 -3.3675 -2.81951 0
M  V30 1829 H 176.101 -4.0515 -1.2936 0
M  V30 1830 N 174.416 0.165178 -1.56732 0
M  V30 1831 C 175.663 0.880807 -1.8234 0
M  V30 1832 C 175.991 1.81977 -0.686621 0
M  V30 1833 O 175.246 1.92971 0.325697 0
M  V30 1834 C 175.545 1.70405 -3.1416 0
M  V30 1835 C 175.211 0.913475 -4.4155 0
M  V30 1836 C 173.873 0.695303 -4.7615 0
M  V30 1837 C 176.225 0.359349 -5.1996 0
M  V30 1838 C 173.553 -0.0879947 -5.86634 0
M  V30 1839 C 175.905 -0.410893 -6.31264 0
M  V30 1840 C 174.569 -0.639808 -6.64427 0
M  V30 1841 H 173.839 0.32231 -0.667231 0
M  V30 1842 H 176.486 0.145402 -1.90947 0
M  V30 1843 H 174.791 2.50903 -3.00923 0
M  V30 1844 H 176.488 2.26091 -3.31186 0
M  V30 1845 H 173.078 1.09357 -4.14414 0
M  V30 1846 H 177.262 0.515228 -4.93618 0
M  V30 1847 H 172.518 -0.27503 -6.10781 0
M  V30 1848 H 176.692 -0.847494 -6.91224 0
M  V30 1849 H 174.319 -1.24864 -7.49875 0
M  V30 1850 N 175.894 1.51508 0.433938 0
M  V30 1851 C 176.824 1.76016 1.53429 0
M  V30 1852 C 177.805 0.610112 1.58782 0
M  V30 1853 O 178.99 0.853177 1.74455 0
M  V30 1854 C 176.12 1.88831 2.9148 0
M  V30 1855 C 175.074 3.04288 3.00987 0
M  V30 1856 C 174.4 3.0229 4.4105 0
M  V30 1857 C 175.7 4.44193 2.74754 0
M  V30 1858 H 177.394 2.68152 1.33171 0
M  V30 1859 H 174.94 1.29035 0.639214 0
M  V30 1860 H 176.893 2.04559 3.6842 0
M  V30 1861 H 175.617 0.933455 3.12976 0
M  V30 1862 H 174.276 2.8827 2.26486 0
M  V30 1863 H 173.924 2.04576 4.59519 0
M  V30 1864 H 173.624 3.79822 4.4834 0
M  V30 1865 H 175.148 3.20116 5.1996 0
M  V30 1866 H 176.562 4.60544 3.41426 0
M  V30 1867 H 174.959 5.23457 2.9345 0
M  V30 1868 H 176.029 4.53996 1.70339 0
M  V30 1869 N 177.372 -0.689602 1.41712 0
M  V30 1870 C 178.335 -1.78521 1.43746 0
M  V30 1871 C 179.335 -1.57436 0.327191 0
M  V30 1872 O 180.525 -1.64 0.587348 0
M  V30 1873 C 177.657 -3.16971 1.25467 0
M  V30 1874 H 178.85 -1.78108 2.41283 0
M  V30 1875 H 176.403 -0.89781 1.27942 0
M  V30 1876 H 177.138 -3.23019 0.287948 0
M  V30 1877 H 176.923 -3.33678 2.05917 0
M  V30 1878 H 178.413 -3.96935 1.2974 0
M  V30 1879 N 178.85 -1.27639 -0.924453 0
M  V30 1880 C 180.096 -1.14336 -1.67497 0
M  V30 1881 C 180.429 0.309465 -1.91718 0
M  V30 1882 O 179.704 1.22608 -1.50989 0
M  V30 1883 C 179.987 -1.93096 -3.0395 0
M  V30 1884 C 179.84 -3.46381 -2.8695 0
M  V30 1885 C 181.159 -1.73798 -4.0433 0
M  V30 1886 H 178.278 -0.416728 -0.607871 0
M  V30 1887 H 180.92 -1.56832 -1.07256 0
M  V30 1888 H 179.07 -1.56982 -3.55372 0
M  V30 1889 H 180.742 -3.92343 -2.42621 0
M  V30 1890 H 178.985 -3.72557 -2.22225 0
M  V30 1891 H 179.656 -3.96735 -3.83804 0
M  V30 1892 H 182.132 -2.05293 -3.61931 0
M  V30 1893 H 181.008 -2.31294 -4.97789 0
M  V30 1894 H 181.269 -0.686725 -4.36734 0
M  V30 1895 N 180.328 1.1314 -1.09713 0
M  V30 1896 C 181.739 1.66029 -0.853885 0
M  V30 1897 C 182.09 1.86241 0.617142 0
M  V30 1898 O 181.215 1.5834 1.47503 0
M  V30 1899 C 181.81 3.01599 -1.5435 0
M  V30 1900 C 180.369 3.51467 -1.34714 0
M  V30 1901 C 179.516 2.26648 -1.59769 0
M  V30 1902 H 182.467 0.970226 -1.25588 0
M  V30 1903 H 182.488 3.67709 -0.978267 0
M  V30 1904 H 182 2.86856 -2.6141 0
M  V30 1905 H 180.101 3.71408 -0.297838 0
M  V30 1906 H 180.214 4.314 -2.08401 0
M  V30 1907 H 178.578 2.33385 -1.01998 0
M  V30 1908 H 179.361 2.14467 -2.68065 0
M  V30 1909 N 181.806 0.884767 1.30421 0
M  V30 1910 C 183.034 0.518044 2.0031 0
M  V30 1911 C 183.449 -0.893408 1.66324 0
M  V30 1912 O 182.806 -1.5875 0.900262 0
M  V30 1913 C 182.857 0.682997 3.54989 0
M  V30 1914 O 182.578 2.03888 3.87764 0
M  V30 1915 C 184.079 0.31924 4.42149 0
M  V30 1916 H 181.299 0.200265 0.640418 0
M  V30 1917 H 183.843 1.19001 1.6631 0
M  V30 1918 H 181.998 0.0584052 3.87356 0
M  V30 1919 H 182.412 2.05735 4.82466 0
M  V30 1920 H 183.886 0.485555 5.4986 0
M  V30 1921 H 184.363 -0.742717 4.32875 0
M  V30 1922 H 184.969 0.920147 4.15227 0
M  V30 1923 N 183.284 -1.43765 0.645699 0
M  V30 1924 C 184.214 -2.33471 -0.0370477 0
M  V30 1925 C 185.195 -1.49042 -0.819779 0
M  V30 1926 O 186.38 -1.77726 -0.782758 0
M  V30 1927 C 183.51 -3.32311 -1.0093 0
M  V30 1928 C 182.464 -4.2667 -0.337201 0
M  V30 1929 C 181.79 -5.1549 -1.42037 0
M  V30 1930 C 183.09 -5.16657 0.765706 0
M  V30 1931 H 184.784 -2.90809 0.712069 0
M  V30 1932 H 182.33 -1.39834 0.343876 0
M  V30 1933 H 184.283 -3.9396 -1.49578 0
M  V30 1934 H 183.007 -2.73213 -1.78948 0
M  V30 1935 H 181.666 -3.66374 0.128771 0
M  V30 1936 H 181.314 -4.52735 -2.1918 0
M  V30 1937 H 181.014 -5.79438 -0.975966 0
M  V30 1938 H 182.538 -5.80012 -1.90838 0
M  V30 1939 H 183.952 -5.72158 0.361702 0
M  V30 1940 H 182.349 -5.89286 1.13413 0
M  V30 1941 H 183.419 -4.56796 1.62683 0
M  V30 1942 N 184.763 -0.387143 -1.52771 0
M  V30 1943 C 185.673 0.456442 -2.30117 0
M  V30 1944 C 186.689 1.07342 -1.36944 0
M  V30 1945 O 187.865 1.07971 -1.70013 0
M  V30 1946 C 184.93 1.56957 -3.09136 0
M  V30 1947 C 183.991 0.977916 -4.18014 0
M  V30 1948 C 183.224 2.038 -4.93256 0
M  V30 1949 O 183.447 3.25271 -4.68567 0
M  V30 1950 O 182.381 1.6565 -5.78657 0
M  V30 1951 H 186.207 -0.17359 -3.03203 0
M  V30 1952 H 183.792 -0.150919 -1.48636 0
M  V30 1953 H 185.674 2.21628 -3.58412 0
M  V30 1954 H 184.349 2.18461 -2.38865 0
M  V30 1955 H 183.256 0.294525 -3.72939 0
M  V30 1956 H 184.589 0.407128 -4.90513 0
M  V30 1957 N 186.241 1.57166 -0.116904 0
M  V30 1958 C 187.151 2.18745 0.847812 0
M  V30 1959 C 188.167 1.163 1.29423 0
M  V30 1960 O 189.343 1.48761 1.35765 0
M  V30 1961 C 186.408 2.77307 2.0809 0
M  V30 1962 C 185.469 3.94781 1.68661 0
M  V30 1963 C 184.702 4.50541 2.86091 0
M  V30 1964 O 184.925 4.05202 4.01456 0
M  V30 1965 O 183.859 5.41256 2.63298 0
M  V30 1966 H 187.685 3.01632 0.353778 0
M  V30 1967 H 185.27 1.49005 0.108599 0
M  V30 1968 H 187.152 3.14647 2.80313 0
M  V30 1969 H 185.827 1.97452 2.56504 0
M  V30 1970 H 184.734 3.62214 0.935518 0
M  V30 1971 H 186.067 4.76065 1.24991 0
M  V30 1972 N 187.719 -0.156864 1.56817 0
M  V30 1973 C 188.649 -1.19589 2.00551 0
M  V30 1974 C 189.63 -1.4536 0.883426 0
M  V30 1975 O 190.815 -1.56449 1.15054 0
M  V30 1976 C 187.945 -2.53143 2.37773 0
M  V30 1977 C 186.899 -2.41913 3.53075 0
M  V30 1978 C 186.225 -3.80088 3.76081 0
M  V30 1979 C 187.525 -1.91157 4.86062 0
M  V30 1980 H 189.219 -0.832293 2.87599 0
M  V30 1981 H 186.765 -0.398918 1.38364 0
M  V30 1982 H 188.718 -3.26047 2.66967 0
M  V30 1983 H 187.442 -2.91319 1.4765 0
M  V30 1984 H 186.101 -1.71462 3.24031 0
M  V30 1985 H 185.749 -4.15683 2.83225 0
M  V30 1986 H 185.449 -3.73439 4.53671 0
M  V30 1987 H 186.973 -4.54556 4.0769 0
M  V30 1988 H 188.387 -2.53846 5.14038 0
M  V30 1989 H 186.784 -1.95422 5.67389 0
M  V30 1990 H 187.854 -0.866673 4.77092 0
M  V30 1991 N 189.197 -1.51736 -0.425897 0
M  V30 1992 C 190.145 -1.74464 -1.53834 0
M  V30 1993 C 191.139 -0.611241 -1.57988 0
M  V30 1994 O 192.345 -0.792899 -1.61596 0
M  V30 1995 H 188.72 -0.551437 -0.511293 0
M  V30 1996 H 190.691 -2.67694 -1.31843 0
M  V30 1997 C 189.44 -1.8972 -2.91379 0
M  V30 1998 H 188.763 -2.76344 -2.88919 0
M  V30 1999 H 190.203 -2.09629 -3.68553 0
M  V30 2000 C 188.662 -0.65992 -3.30374 0
M  V30 2001 O 189.192 0.180083 -4.01296 0
M  V30 2002 N 187.398 -0.500677 -2.86254 0
M  V30 2003 H 186.945 -1.18532 -2.28709 0
M  V30 2004 H 186.903 0.325903 -3.12706 0
M  V30 2005 N 190.675 0.682077 -1.42076 0
M  V30 2006 C 191.605 1.80796 -1.47767 0
M  V30 2007 C 192.586 1.6677 -0.334954 0
M  V30 2008 O 193.771 1.863 -0.548264 0
M  V30 2009 C 190.901 3.19038 -1.37229 0
M  V30 2010 C 189.855 3.47789 -2.49453 0
M  V30 2011 C 189.181 4.8553 -2.23975 0
M  V30 2012 C 190.481 3.45411 -3.91776 0
M  V30 2013 H 192.175 1.7629 -2.41997 0
M  V30 2014 H 189.721 0.846721 -1.16476 0
M  V30 2015 H 191.674 3.97528 -1.39821 0
M  V30 2016 H 190.398 3.24204 -0.394907 0
M  V30 2017 H 189.057 2.71657 -2.46166 0
M  V30 2018 H 188.705 4.87337 -1.24547 0
M  V30 2019 H 188.405 5.0573 -2.99184 0
M  V30 2020 H 189.929 5.66312 -2.28304 0
M  V30 2021 H 191.343 4.13882 -3.96705 0
M  V30 2022 H 189.74 3.77145 -4.66778 0
M  V30 2023 H 190.81 2.44122 -4.18966 0
M  V30 2024 N 192.153 1.28127 0.917671 0
M  V30 2025 C 193.378 1.18007 1.70555 0
M  V30 2026 C 193.803 -0.258257 1.86319 0
M  V30 2027 O 193.161 -1.1869 1.37049 0
M  V30 2028 C 193.209 1.87948 3.07746 0
M  V30 2029 O 192.313 1.18427 3.9503 0
M  V30 2030 H 191.654 0.409867 0.522403 0
M  V30 2031 H 194.184 1.69379 1.1477 0
M  V30 2032 H 194.194 1.95701 3.58001 0
M  V30 2033 H 192.869 2.92573 2.95591 0
M  V30 2034 H 191.446 1.18811 3.53466 0
M  V30 2035 N 193.631 -1.12557 1.10312 0
M  V30 2036 C 194.861 -1.87592 0.865617 0
M  V30 2037 C 195.269 -1.79851 -0.587389 0
M  V30 2038 O 194.612 -1.16949 -1.41664 0
M  V30 2039 C 194.674 -3.37665 1.23381 0
M  V30 2040 C 194.338 -3.69181 2.69359 0
M  V30 2041 C 195.335 -3.67652 3.67597 0
M  V30 2042 C 193.02 -3.98555 3.05711 0
M  V30 2043 C 195.014 -3.95053 5.00212 0
M  V30 2044 C 192.701 -4.25616 4.38514 0
M  V30 2045 C 193.699 -4.23851 5.35574 0
M  V30 2046 O 193.387 -4.50242 6.65986 0
M  V30 2047 H 193.119 -0.600442 0.310557 0
M  V30 2048 H 195.673 -1.4335 1.47105 0
M  V30 2049 H 193.903 -3.82454 0.571467 0
M  V30 2050 H 195.592 -3.94041 0.973994 0
M  V30 2051 H 196.358 -3.45024 3.40857 0
M  V30 2052 H 192.237 -3.99071 2.30789 0
M  V30 2053 H 195.781 -3.93591 5.75962 0
M  V30 2054 H 191.678 -4.47718 4.64994 0
M  V30 2055 H 192.446 -4.67867 6.71597 0
M  V30 2056 N 195.109 -0.891671 -1.2995 0
M  V30 2057 C 196.057 -0.353066 -2.29905 0
M  V30 2058 C 197.051 0.543509 -1.60444 0
M  V30 2059 O 198.257 0.4272 -1.74857 0
M  V30 2060 H 194.632 -0.095531 -0.745907 0
M  V30 2061 H 196.603 -1.20961 -2.72784 0
M  V30 2062 C 195.352 0.411475 -3.45257 0
M  V30 2063 H 194.675 -0.269182 -3.98893 0
M  V30 2064 H 196.115 0.753328 -4.17254 0
M  V30 2065 C 194.574 1.6111 -2.9588 0
M  V30 2066 O 195.104 2.71045 -2.96475 0
M  V30 2067 N 193.31 1.45054 -2.51809 0
M  V30 2068 H 192.857 0.556175 -2.51524 0
M  V30 2069 H 192.815 2.25453 -2.1913 0
M  V30 2070 N 196.587 1.43421 -0.653314 0
M  V30 2071 C 197.535 2.32546 0.0501531 0
M  V30 2072 C 198.529 1.48617 0.812985 0
M  V30 2073 O 199.735 1.64825 0.723375 0
M  V30 2074 H 196.11 0.751185 0.0350032 0
M  V30 2075 H 198.081 2.89602 -0.719261 0
M  V30 2076 C 196.83 3.32925 1.00279 0
M  V30 2077 H 196.153 3.97532 0.425236 0
M  V30 2078 H 197.593 3.9792 1.46409 0
M  V30 2079 C 196.052 2.63532 2.09886 0
M  V30 2080 O 196.582 2.45092 3.18265 0
M  V30 2081 N 194.788 2.22905 1.86445 0
M  V30 2082 H 194.335 2.38103 0.98309 0
M  V30 2083 H 194.293 1.76805 2.59976 0
M  V30 2084 N 198.065 0.39524 1.52563 0
M  V30 2085 C 199.314 -0.186321 2.00838 0
M  V30 2086 C 199.627 -1.47402 1.28577 0
M  V30 2087 O 200.833 -2.13599 1.67593 0
M  V30 2088 C 199.289 -0.382595 3.57861 0
M  V30 2089 C 198.897 0.892202 4.39026 0
M  V30 2090 C 200.641 -0.9202 4.14406 0
M  V30 2091 C 198.548 0.66388 5.87662 0
M  V30 2092 H 197.478 -0.0734041 0.750418 0
M  V30 2093 H 200.129 0.518552 1.76021 0
M  V30 2094 H 198.511 -1.14946 3.7895 0
M  V30 2095 H 199.685 1.66414 4.29701 0
M  V30 2096 H 198 1.35519 3.9373 0
M  V30 2097 H 200.597 -1.10683 5.23119 0
M  V30 2098 H 200.94 -1.89096 3.70875 0
M  V30 2099 H 201.473 -0.212751 3.97231 0
M  V30 2100 H 198.212 1.6058 6.35527 0
M  V30 2101 H 197.732 -0.0690193 5.9976 0
M  V30 2102 H 199.411 0.300699 6.46301 0
M  V30 2103 N 199.544 -1.57102 0.125237 0
M  V30 2104 C 200.477 -2.11371 -0.860094 0
M  V30 2105 C 201.455 -1.03168 -1.25679 0
M  V30 2106 O 202.639 -1.30862 -1.35674 0
M  V30 2107 C 199.766 -2.61555 -2.1519 0
M  V30 2108 C 198.812 -3.81701 -1.9028 0
M  V30 2109 S 199.645 -5.23797 -1.11343 0
M  V30 2110 C 200.801 -5.77353 -2.41689 0
M  V30 2111 H 201.034 -2.94617 -0.39852 0
M  V30 2112 H 198.567 -1.54145 -0.0886555 0
M  V30 2113 H 200.525 -2.91122 -2.89411 0
M  V30 2114 H 199.186 -1.78479 -2.58465 0
M  V30 2115 H 198.379 -4.14985 -2.86014 0
M  V30 2116 H 197.981 -3.52783 -1.24178 0
M  V30 2117 H 200.273 -5.87458 -3.37489 0
M  V30 2118 H 201.216 -6.75323 -2.12942 0
M  V30 2119 H 201.624 -5.05457 -2.51342 0
M  V30 2120 N 201.022 0.148545 -1.56898 0
M  V30 2121 C 202.25 0.876389 -1.87422 0
M  V30 2122 C 202.665 1.74809 -0.713256 0
M  V30 2123 O 202.022 1.79725 0.317025 0
M  V30 2124 C 202.073 1.73438 -3.17178 0
M  V30 2125 O 201.794 0.897809 -4.28802 0
M  V30 2126 C 203.295 2.56993 -3.61205 0
M  V30 2127 H 200.515 0.253489 -0.621277 0
M  V30 2128 H 203.059 0.141798 -2.04008 0
M  V30 2129 H 201.214 2.42205 -3.0235 0
M  V30 2130 H 201.628 1.48672 -5.02988 0
M  V30 2131 H 203.102 3.12773 -4.54838 0
M  V30 2132 H 203.579 3.32958 -2.86419 0
M  V30 2133 H 204.185 1.9352 -3.78722 0
M  V30 2134 N 202.5 1.5196 0.417844 0
M  V30 2135 C 203.746 1.65836 1.16732 0
M  V30 2136 C 204.079 0.382881 1.90388 0
M  V30 2137 O 203.354 -0.618368 1.84408 0
M  V30 2138 C 203.637 2.87466 2.16876 0
M  V30 2139 C 203.49 4.25041 1.47174 0
M  V30 2140 C 204.809 3.04613 3.17646 0
M  V30 2141 H 201.928 0.603515 0.423011 0
M  V30 2142 H 204.57 1.84494 0.454105 0
M  V30 2143 H 202.72 2.71689 2.777 0
M  V30 2144 H 204.392 4.52527 0.895376 0
M  V30 2145 H 202.635 4.26843 0.773806 0
M  V30 2146 H 203.306 5.06176 2.20204 0
M  V30 2147 H 205.782 3.1923 2.66892 0
M  V30 2148 H 204.658 3.91247 3.8499 0
M  V30 2149 H 204.919 2.17541 3.84874 0
M  V30 2150 N 203.978 -0.674533 1.42435 0
M  V30 2151 C 205.389 -1.25514 1.38214 0
M  V30 2152 C 205.74 -1.96055 0.0755464 0
M  V30 2153 O 204.865 -2.00028 -0.8257 0
M  V30 2154 C 205.46 -2.28269 2.50357 0
M  V30 2155 C 204.019 -2.81856 2.49467 0
M  V30 2156 C 203.166 -1.56182 2.29134 0
M  V30 2157 H 206.117 -0.467902 1.51646 0
M  V30 2158 H 206.138 -3.10009 2.20624 0
M  V30 2159 H 205.65 -1.769 3.45439 0
M  V30 2160 H 203.751 -3.37346 1.58204 0
M  V30 2161 H 203.864 -3.30854 3.46515 0
M  V30 2162 H 202.228 -1.82761 1.774 0
M  V30 2163 H 203.011 -1.06778 3.26272 0
M  V30 2164 N 205.456 -1.28612 -0.910864 0
M  V30 2165 C 206.419 -1.12803 -1.9952 0
M  V30 2166 C 207.419 -0.0668264 -1.60661 0
M  V30 2167 O 208.609 -0.312847 -1.71368 0
M  V30 2168 C 205.741 -0.72254 -3.33155 0
M  V30 2169 H 206.934 -2.09109 -2.14973 0
M  V30 2170 H 204.487 -1.11639 -1.09391 0
M  V30 2171 H 205.222 0.241152 -3.23402 0
M  V30 2172 H 205.007 -1.48916 -3.62721 0
M  V30 2173 H 206.497 -0.634666 -4.12749 0
M  V30 2174 N 206.934 1.1197 -1.10907 0
M  V30 2175 C 207.864 2.19928 -0.784473 0
M  V30 2176 C 208.845 1.6833 0.244726 0
M  V30 2177 O 210.03 1.93892 0.109418 0
M  V30 2178 C 207.16 3.46597 -0.220827 0
M  V30 2179 C 206.114 4.11376 -1.18127 0
M  V30 2180 C 205.44 5.32554 -0.478594 0
M  V30 2181 C 206.74 4.56945 -2.52979 0
M  V30 2182 H 208.434 2.47337 -1.68715 0
M  V30 2183 H 205.98 1.18879 -0.812642 0
M  V30 2184 H 207.933 4.21396 0.0184278 0
M  V30 2185 H 206.657 3.1863 0.717113 0
M  V30 2186 H 205.316 3.38564 -1.40606 0
M  V30 2187 H 204.964 5.00856 0.463976 0
M  V30 2188 H 204.664 5.76844 -1.11912 0
M  V30 2189 H 206.188 6.10096 -0.248 0
M  V30 2190 H 207.602 5.23093 -2.3462 0
M  V30 2191 H 205.999 5.1203 -3.12962 0
M  V30 2192 H 207.069 3.70676 -3.12614 0
M  V30 2193 N 208.412 0.89855 1.29475 0
M  V30 2194 C 209.823 0.572537 1.77705 0
M  V30 2195 C 210.174 -0.911778 1.73727 0
M  V30 2196 O 209.299 -1.71288 1.32247 0
M  V30 2197 C 209.894 1.03252 3.22683 0
M  V30 2198 C 208.453 0.757687 3.68695 0
M  V30 2199 C 207.6 1.20787 2.49612 0
M  V30 2200 H 210.551 1.08139 1.16153 0
M  V30 2201 H 210.572 0.367307 3.78723 0
M  V30 2202 H 210.084 2.11285 3.25546 0
M  V30 2203 H 208.185 -0.310079 3.71308 0
M  V30 2204 H 208.298 1.35476 4.59547 0
M  V30 2205 H 206.662 0.626888 2.46865 0
M  V30 2206 H 207.445 2.29622 2.55203 0
M  V30 2207 N 209.89 -1.43072 0.660911 0
M  V30 2208 C 210.837 -2.30785 -0.0259884 0
M  V30 2209 C 211.807 -1.45184 -0.806888 0
M  V30 2210 O 212.992 -1.74041 -0.781943 0
M  V30 2211 C 210.132 -3.30861 -0.981067 0
M  V30 2212 C 209.245 -4.31558 -0.195458 0
M  V30 2213 C 208.38 -5.18712 -1.14503 0
M  V30 2214 C 207.419 -6.11097 -0.350299 0
M  V30 2215 N 206.556 -6.90849 -1.25186 0
M  V30 2216 H 211.396 -2.88975 0.727846 0
M  V30 2217 H 208.933 -1.42353 0.370682 0
M  V30 2218 H 210.891 -3.87399 -1.54849 0
M  V30 2219 H 209.521 -2.74304 -1.70169 0
M  V30 2220 H 208.573 -3.77252 0.488374 0
M  V30 2221 H 209.885 -4.9701 0.422176 0
M  V30 2222 H 209.039 -5.79914 -1.78284 0
M  V30 2223 H 207.778 -4.53404 -1.79656 0
M  V30 2224 H 206.783 -5.48976 0.300808 0
M  V30 2225 H 208.008 -6.7845 0.296941 0
M  V30 2226 H 205.954 -6.28182 -1.89005 0
M  V30 2227 H 205.871 -7.52854 -0.688971 0
M  V30 2228 H 207.139 -7.5655 -1.87757 0
M  V30 2229 N 211.368 -0.403325 -1.52352 0
M  V30 2230 C 212.593 0.176499 -2.06648 0
M  V30 2231 C 213.018 1.38577 -1.27193 0
M  V30 2232 O 212.376 1.7879 -0.300637 0
M  V30 2233 C 212.424 0.511061 -3.5696 0
M  V30 2234 O 211.528 1.60294 -3.79973 0
M  V30 2235 H 210.869 0.0167337 -0.663789 0
M  V30 2236 H 213.399 -0.574848 -1.96359 0
M  V30 2237 H 213.409 0.771362 -4.00642 0
M  V30 2238 H 212.084 -0.37296 -4.14224 0
M  V30 2239 H 210.661 1.33526 -3.48174 0
M  V30 2240 N 212.846 1.57033 -0.133567 0
M  V30 2241 C 213.776 2.1909 0.807567 0
M  V30 2242 C 214.757 1.13517 1.26681 0
M  V30 2243 O 215.942 1.41809 1.32679 0
M  V30 2244 C 213.072 2.80188 2.05212 0
M  V30 2245 C 212.026 3.91471 1.73015 0
M  V30 2246 C 211.352 4.39443 3.04622 0
M  V30 2247 C 212.652 5.12886 0.987168 0
M  V30 2248 H 214.346 2.97988 0.290403 0
M  V30 2249 H 211.892 1.43335 0.138239 0
M  V30 2250 H 213.845 3.22264 2.71521 0
M  V30 2251 H 212.569 1.98601 2.59278 0
M  V30 2252 H 211.228 3.49993 1.0909 0
M  V30 2253 H 210.876 3.54695 3.56651 0
M  V30 2254 H 210.576 5.14495 2.83847 0
M  V30 2255 H 212.1 4.8418 3.72024 0
M  V30 2256 H 213.514 5.51891 1.55208 0
M  V30 2257 H 211.911 5.93615 0.87985 0
M  V30 2258 H 212.981 4.84894 -0.0235286 0
M  V30 2259 N 214.325 -0.140222 1.56975 0
M  V30 2260 C 215.574 -0.850152 1.82908 0
M  V30 2261 C 215.887 -1.82028 0.715892 0
M  V30 2262 O 217.093 -2.57485 0.861016 0
M  V30 2263 C 215.549 -1.5625 3.24213 0
M  V30 2264 C 215.157 -0.63443 4.43485 0
M  V30 2265 C 216.901 -2.25881 3.59413 0
M  V30 2266 C 214.808 -1.34879 5.75814 0
M  V30 2267 H 213.738 -0.321221 0.682153 0
M  V30 2268 H 216.389 -0.102874 1.83211 0
M  V30 2269 H 214.771 -2.35565 3.18316 0
M  V30 2270 H 215.945 0.12398 4.60633 0
M  V30 2271 H 214.26 -0.0461836 4.16374 0
M  V30 2272 H 216.857 -2.79978 4.5554 0
M  V30 2273 H 217.2 -3.02693 2.85802 0
M  V30 2274 H 217.733 -1.53477 3.67001 0
M  V30 2275 H 214.472 -0.622385 6.52539 0
M  V30 2276 H 213.992 -2.07974 5.6259 0
M  V30 2277 H 215.671 -1.88784 6.18845 0
M  V30 2278 N 215.803 -1.52179 -0.40978 0
M  V30 2279 C 217.028 -1.70347 -1.18308 0
M  V30 2280 C 217.453 -0.411887 -1.83535 0
M  V30 2281 O 216.811 0.630587 -1.6998 0
M  V30 2282 C 216.859 -2.83977 -2.22238 0
M  V30 2283 O 215.963 -2.495 -3.28365 0
M  V30 2284 H 215.304 -0.567103 -0.345384 0
M  V30 2285 H 217.834 -1.98879 -0.480445 0
M  V30 2286 H 217.844 -3.0887 -2.66577 0
M  V30 2287 H 216.519 -3.77685 -1.74146 0
M  V30 2288 H 215.096 -2.35277 -2.89308 0
M  V30 2289 N 217.281 0.66697 -1.42791 0
M  V30 2290 C 218.211 1.79218 -1.49677 0
M  V30 2291 C 219.192 1.66405 -0.352623 0
M  V30 2292 O 220.377 1.85708 -0.567993 0
M  V30 2293 C 217.507 3.17565 -1.40605 0
M  V30 2294 C 216.461 3.45124 -2.53127 0
M  V30 2295 C 215.787 4.83127 -2.29112 0
M  V30 2296 C 217.087 3.41236 -3.95418 0
M  V30 2297 H 218.781 1.73713 -2.43853 0
M  V30 2298 H 216.327 0.83432 -1.17367 0
M  V30 2299 H 218.28 3.96022 -1.44029 0
M  V30 2300 H 217.004 3.23767 -0.429271 0
M  V30 2301 H 215.663 2.69031 -2.49034 0
M  V30 2302 H 215.311 4.85988 -1.29709 0
M  V30 2303 H 215.011 5.02528 -3.04531 0
M  V30 2304 H 216.535 5.63859 -2.34297 0
M  V30 2305 H 217.949 4.09651 -4.01073 0
M  V30 2306 H 216.346 3.72173 -4.70752 0
M  V30 2307 H 217.416 2.39665 -4.21532 0
M  V30 2308 N 218.759 1.29093 0.90403 0
M  V30 2309 C 219.984 1.19809 1.69294 0
M  V30 2310 C 220.409 -0.238481 1.86582 0
M  V30 2311 O 219.767 -1.1723 1.383 0
M  V30 2312 C 219.815 1.91202 3.05736 0
M  V30 2313 O 218.919 1.22611 3.93752 0
M  V30 2314 H 218.26 0.415385 0.518027 0
M  V30 2315 H 220.79 1.70586 1.12967 0
M  V30 2316 H 220.8 1.99487 3.55906 0
M  V30 2317 H 219.475 2.95692 2.92471 0
M  V30 2318 H 218.052 1.22554 3.52186 0
M  V30 2319 N 220.237 -1.11381 1.11499 0
M  V30 2320 C 221.167 -2.19509 0.796125 0
M  V30 2321 C 222.148 -1.68458 -0.235796 0
M  V30 2322 O 223.333 -1.93947 -0.0991344 0
M  V30 2323 C 220.463 -3.46475 0.239205 0
M  V30 2324 C 219.417 -4.10744 1.20307 0
M  V30 2325 C 218.743 -5.32293 0.50683 0
M  V30 2326 C 220.043 -4.55597 2.55399 0
M  V30 2327 H 221.737 -2.46439 1.70024 0
M  V30 2328 H 219.283 -1.18446 0.818935 0
M  V30 2329 H 221.236 -4.214 0.00392006 0
M  V30 2330 H 219.96 -3.19006 -0.700206 0
M  V30 2331 H 218.619 -3.37813 1.42399 0
M  V30 2332 H 218.267 -5.01095 -0.437408 0
M  V30 2333 H 217.967 -5.76243 1.1497 0
M  V30 2334 H 219.491 -6.09956 0.280351 0
M  V30 2335 H 220.905 -5.21841 2.37391 0
M  V30 2336 H 219.302 -5.10363 3.15673 0
M  V30 2337 H 220.372 -3.69013 3.14575 0
M  V30 2338 N 221.715 -0.905404 -1.28997 0
M  V30 2339 C 222.94 -0.549175 -1.99997 0
M  V30 2340 C 223.365 0.860276 -1.67275 0
M  V30 2341 O 222.723 1.57355 -0.900502 0
M  V30 2342 C 222.771 -0.755185 -3.52604 0
M  V30 2343 O 221.875 0.189692 -4.11964 0
M  V30 2344 H 221.216 -0.213899 -0.628604 0
M  V30 2345 H 223.746 -1.21856 -1.64354 0
M  V30 2346 H 223.756 -0.662045 -4.02593 0
M  V30 2347 H 222.431 -1.78271 -3.75755 0
M  V30 2348 H 221.008 0.0485257 -3.72868 0
M  V30 2349 N 223.193 1.4272 -0.668489 0
M  V30 2350 C 224.143 2.27971 0.0363806 0
M  V30 2351 C 225.127 1.40741 0.779794 0
M  V30 2352 O 226.319 1.64245 0.659745 0
M  V30 2353 C 223.448 3.28673 0.991398 0
M  V30 2354 C 222.534 4.23388 0.245658 0
M  V30 2355 N 222.925 5.00267 -0.746069 0
M  V30 2356 C 221.223 4.43355 0.484988 0
M  V30 2357 C 221.924 5.69396 -1.19009 0
M  V30 2358 N 220.9 5.41095 -0.521287 0
M  V30 2359 H 224.702 2.84833 -0.724394 0
M  V30 2360 H 222.216 1.54607 -0.497028 0
M  V30 2361 H 224.213 3.88543 1.51129 0
M  V30 2362 H 222.873 2.73373 1.75207 0
M  V30 2363 H 223.884 5.05525 -1.12537 0
M  V30 2364 H 220.561 3.99104 1.22565 0
M  V30 2365 H 221.951 6.41083 -2.01153 0
M  V30 2366 N 224.671 0.411399 1.52136 0
M  V30 2367 C 225.899 -0.163076 2.06256 0
M  V30 2368 C 226.314 -1.3867 1.28125 0
M  V30 2369 O 225.671 -1.79423 0.333721 0
M  V30 2370 C 225.722 -0.511252 3.57867 0
M  V30 2371 O 225.443 0.66378 4.33042 0
M  V30 2372 C 226.944 -1.13921 4.28412 0
M  V30 2373 H 224.164 -0.0193897 0.67072 0
M  V30 2374 H 226.708 0.583007 1.96013 0
M  V30 2375 H 224.863 -1.20723 3.6811 0
M  V30 2376 H 225.277 0.372601 5.23175 0
M  V30 2377 H 226.751 -1.33302 5.35663 0
M  V30 2378 H 227.228 -2.11296 3.85033 0
M  V30 2379 H 227.834 -0.483373 4.22544 0
M  V30 2380 N 226.149 -1.5696 0.141893 0
M  V30 2381 C 227.097 -2.17784 -0.816874 0
M  V30 2382 C 228.091 -1.1334 -1.25899 0
M  V30 2383 O 229.297 -1.316 -1.22806 0
M  V30 2384 H 225.672 -0.697278 -0.281615 0
M  V30 2385 H 227.643 -2.97087 -0.279621 0
M  V30 2386 C 226.392 -2.80983 -2.04802 0
M  V30 2387 H 225.715 -3.61062 -1.7168 0
M  V30 2388 H 227.155 -3.2705 -2.69841 0
M  V30 2389 C 225.614 -1.79228 -2.8527 0
M  V30 2390 O 226.144 -1.25962 -3.8144 0
M  V30 2391 N 224.35 -1.48647 -2.49704 0
M  V30 2392 H 223.897 -1.92155 -1.71564 0
M  V30 2393 H 223.855 -0.808115 -3.03837 0
M  V30 2394 N 227.627 0.131896 -1.57047 0
M  V30 2395 C 228.876 0.84044 -1.83356 0
M  V30 2396 C 229.189 1.81646 -0.725535 0
M  V30 2397 O 230.395 2.57025 -0.874659 0
M  V30 2398 C 228.851 1.54528 -3.25037 0
M  V30 2399 C 228.459 0.610902 -4.43815 0
M  V30 2400 C 230.203 2.23972 -3.60606 0
M  V30 2401 C 228.11 1.31823 -5.76521 0
M  V30 2402 H 227.04 0.317599 -0.683847 0
M  V30 2403 H 229.691 0.0931561 -1.83263 0
M  V30 2404 H 228.073 2.33873 -3.19561 0
M  V30 2405 H 229.247 -0.148407 -4.60561 0
M  V30 2406 H 227.562 0.0241016 -4.16393 0
M  V30 2407 H 230.159 2.77558 -4.57018 0
M  V30 2408 H 230.502 3.01173 -2.87403 0
M  V30 2409 H 231.035 1.51529 -3.6781 0
M  V30 2410 H 227.774 0.587771 -6.52859 0
M  V30 2411 H 227.294 2.04987 -5.63685 0
M  V30 2412 H 228.973 1.855 -6.19838 0
M  V30 2413 N 229.106 1.52395 0.401703 0
M  V30 2414 C 230.036 1.79231 1.49661 0
M  V30 2415 C 231.017 0.643654 1.57452 0
M  V30 2416 O 232.202 0.889989 1.72606 0
M  V30 2417 C 229.332 1.94971 2.87409 0
M  V30 2418 C 228.286 3.10604 2.94465 0
M  V30 2419 C 227.612 3.11577 4.34538 0
M  V30 2420 C 228.912 4.49921 2.6527 0
M  V30 2421 H 230.606 2.70917 1.27454 0
M  V30 2422 H 228.152 1.30362 0.6117 0
M  V30 2423 H 230.105 2.12328 3.63999 0
M  V30 2424 H 228.829 0.999632 3.10926 0
M  V30 2425 H 227.488 2.93009 2.20321 0
M  V30 2426 H 227.136 2.14277 4.55076 0
M  V30 2427 H 226.836 3.89247 4.40183 0
M  V30 2428 H 228.36 3.31073 5.13053 0
M  V30 2429 H 229.774 4.67683 3.31581 0
M  V30 2430 H 228.171 5.29564 2.82281 0
M  V30 2431 H 229.241 4.57507 1.60671 0
M  V30 2432 N 230.584 -0.659388 1.43143 0
M  V30 2433 C 231.517 -1.78425 1.42267 0
M  V30 2434 C 232.495 -1.60085 0.284894 0
M  V30 2435 O 233.679 -1.82351 0.477527 0
M  V30 2436 C 230.806 -3.15642 1.22833 0
M  V30 2437 C 229.852 -3.52698 2.39806 0
M  V30 2438 S 230.685 -3.53372 4.02353 0
M  V30 2439 C 231.841 -4.93256 3.85291 0
M  V30 2440 H 232.074 -1.78897 2.37452 0
M  V30 2441 H 229.607 -0.831469 1.301 0
M  V30 2442 H 231.565 -3.94838 1.12308 0
M  V30 2443 H 230.226 -3.12739 0.29207 0
M  V30 2444 H 229.419 -4.52475 2.21996 0
M  V30 2445 H 229.021 -2.80899 2.46925 0
M  V30 2446 H 231.313 -5.81751 3.47235 0
M  V30 2447 H 232.256 -5.16115 4.84799 0
M  V30 2448 H 232.664 -4.665 3.17865 0
M  V30 2449 N 232.062 -1.29571 -0.897171 0
M  V30 2450 C 232.992 -1.17473 -2.01798 0
M  V30 2451 C 233.973 -0.068323 -1.69963 0
M  V30 2452 O 235.158 -0.248239 -1.92607 0
M  V30 2453 C 232.288 -0.853099 -3.36659 0
M  V30 2454 C 231.242 -1.9161 -3.82713 0
M  V30 2455 C 230.568 -1.44773 -5.14728 0
M  V30 2456 C 231.868 -3.32535 -4.02763 0
M  V30 2457 H 233.562 -2.11237 -2.12177 0
M  V30 2458 H 231.108 -1.01699 -1.01948 0
M  V30 2459 H 233.061 -0.755165 -4.14578 0
M  V30 2460 H 231.785 0.120236 -3.26379 0
M  V30 2461 H 230.444 -2.00346 -3.07013 0
M  V30 2462 H 230.092 -0.462995 -5.00865 0
M  V30 2463 H 229.792 -2.15865 -5.46513 0
M  V30 2464 H 231.316 -1.36334 -5.95185 0
M  V30 2465 H 232.73 -3.26626 -4.71156 0
M  V30 2466 H 231.127 -4.01607 -4.45905 0
M  V30 2467 H 232.197 -3.75326 -3.07016 0
M  V30 2468 N 233.54 1.10788 -1.12088 0
M  V30 2469 C 234.817 1.79136 -0.785476 0
M  V30 2470 C 235.197 1.98246 0.725377 0
M  V30 2471 O 234.545 1.57258 1.65778 0
M  V30 2472 C 234.755 3.12375 -1.55636 0
M  V30 2473 C 236.103 3.8731 -1.74001 0
M  V30 2474 O 237.127 3.22085 -1.52117 0
M  V30 2475 O 235.986 5.04369 -2.10415 0
M  V30 2476 H 233.08 0.776226 -0.285311 0
M  V30 2477 H 235.626 1.1747 -1.2247 0
M  V30 2478 H 234.398 2.93863 -2.5838 0
M  V30 2479 H 234.021 3.81758 -1.11114 0
M  V30 2480 N 235.018 0.912232 1.28515 0
M  V30 2481 C 236.243 0.559774 1.99703 0
M  V30 2482 C 236.668 -0.851393 1.67729 0
M  V30 2483 O 236.026 -1.56875 0.908834 0
M  V30 2484 C 236.074 0.773874 3.52198 0
M  V30 2485 O 235.178 -0.167842 4.12058 0
M  V30 2486 H 234.519 0.21723 0.627461 0
M  V30 2487 H 237.049 1.22725 1.63706 0
M  V30 2488 H 237.059 0.683386 4.02236 0
M  V30 2489 H 235.734 1.80261 3.74805 0
M  V30 2490 H 234.311 -0.0287509 3.72889 0
M  V30 2491 N 236.496 -1.42363 0.676048 0
M  V30 2492 C 237.459 -2.29199 0.00766941 0
M  V30 2493 C 238.459 -1.43389 -0.727745 0
M  V30 2494 O 239.649 -1.64764 -0.56556 0
M  V30 2495 C 236.781 -3.2591 -0.999785 0
M  V30 2496 H 237.974 -2.89794 0.771988 0
M  V30 2497 H 235.527 -1.50024 0.438468 0
M  V30 2498 H 236.262 -2.70256 -1.79255 0
M  V30 2499 H 236.047 -3.89202 -0.475829 0
M  V30 2500 H 237.537 -3.91028 -1.46583 0
M  V30 2501 N 237.974 -0.419461 -1.51915 0
M  V30 2502 C 239.199 0.154572 -2.06823 0
M  V30 2503 C 239.624 1.3722 -1.28656 0
M  V30 2504 O 238.982 1.78461 -0.319583 0
M  V30 2505 C 239.03 0.473172 -3.57482 0
M  V30 2506 O 238.134 1.56255 -3.81652 0
M  V30 2507 H 237.475 0.0096924 -0.663929 0
M  V30 2508 H 240.005 -0.595642 -1.95738 0
M  V30 2509 H 240.015 0.728825 -4.01438 0
M  V30 2510 H 238.69 -0.416873 -4.13805 0
M  V30 2511 H 237.267 1.29825 -3.49571 0
M  V30 2512 N 239.452 1.56882 -0.150215 0
M  V30 2513 C 240.382 2.19935 0.784284 0
M  V30 2514 C 241.363 1.14854 1.25469 0
M  V30 2515 O 242.548 1.43209 1.31168 0
M  V30 2516 C 239.678 2.82349 2.02229 0
M  V30 2517 C 238.632 3.93285 1.68853 0
M  V30 2518 C 237.958 4.42649 2.99944 0
M  V30 2519 C 239.258 5.13904 0.932714 0
M  V30 2520 H 240.952 2.9828 0.258781 0
M  V30 2521 H 238.498 1.43473 0.123029 0
M  V30 2522 H 240.451 3.25126 2.68088 0
M  V30 2523 H 239.175 2.0134 2.57157 0
M  V30 2524 H 237.834 3.5113 1.05371 0
M  V30 2525 H 237.482 3.58458 3.52869 0
M  V30 2526 H 237.182 5.17476 2.78374 0
M  V30 2527 H 238.706 4.88099 3.66868 0
M  V30 2528 H 240.12 5.53506 1.49345 0
M  V30 2529 H 238.517 5.94515 0.81684 0
M  V30 2530 H 239.587 4.84842 -0.0749568 0
M  V30 2531 N 240.93 -0.123565 1.57115 0
M  V30 2532 C 241.893 -1.13583 1.99076 0
M  V30 2533 C 242.893 -1.34564 0.880296 0
M  V30 2534 O 244.083 -1.31158 1.14644 0
M  V30 2535 C 241.215 -2.49128 2.32698 0
M  V30 2536 H 242.408 -0.775287 2.89706 0
M  V30 2537 H 239.961 -0.36771 1.51913 0
M  V30 2538 H 240.696 -2.90111 1.44934 0
M  V30 2539 H 240.481 -2.35255 3.13684 0
M  V30 2540 H 241.971 -3.2199 2.65918 0
M  V30 2541 N 242.408 -1.52605 -0.393616 0
M  V30 2542 C 243.656 -1.67093 -1.13685 0
M  V30 2543 C 243.977 -0.411011 -1.90619 0
M  V30 2544 O 243.247 0.574491 -1.87287 0
M  V30 2545 H 241.827 -0.615923 -0.422668 0
M  V30 2546 H 244.489 -1.89704 -0.447039 0
M  V30 2547 H 243.585 -2.51922 -1.84232 0
M  V30 2548 N 243.887 0.651787 -1.4349 0
M  V30 2549 C 244.817 1.77621 -1.51569 0
M  V30 2550 C 245.798 1.66022 -0.370253 0
M  V30 2551 O 246.983 1.85095 -0.587658 0
M  V30 2552 C 244.113 3.16056 -1.43966 0
M  V30 2553 C 243.067 3.4242 -2.56774 0
M  V30 2554 C 242.393 4.8067 -2.34223 0
M  V30 2555 C 243.693 3.37023 -3.99015 0
M  V30 2556 H 245.387 1.71117 -2.45681 0
M  V30 2557 H 242.933 0.821825 -1.18246 0
M  V30 2558 H 244.886 3.94472 -1.48221 0
M  V30 2559 H 243.61 3.23293 -0.463586 0
M  V30 2560 H 242.269 2.66375 -2.51873 0
M  V30 2561 H 241.917 4.84585 -1.34856 0
M  V30 2562 H 241.617 4.9927 -3.09844 0
M  V30 2563 H 243.141 5.61342 -2.40265 0
M  V30 2564 H 244.555 4.05374 -4.05395 0
M  V30 2565 H 242.952 3.67159 -4.74673 0
M  V30 2566 H 244.022 2.3518 -4.2405 0
M  V30 2567 N 245.365 1.30045 0.890287 0
M  V30 2568 C 246.315 1.12592 1.9826 0
M  V30 2569 C 247.299 0.0426021 1.60844 0
M  V30 2570 O 248.491 0.265346 1.75 0
M  V30 2571 C 245.62 0.814301 3.33503 0
M  V30 2572 C 244.706 1.93761 3.7725 0
M  V30 2573 N 245.097 3.18232 3.93143 0
M  V30 2574 C 243.395 1.83277 4.06602 0
M  V30 2575 C 244.096 3.9158 4.30163 0
M  V30 2576 N 243.072 3.19591 4.3973 0
M  V30 2577 H 246.874 2.07003 2.08631 0
M  V30 2578 H 244.388 1.21307 1.07974 0
M  V30 2579 H 246.385 0.67029 4.11476 0
M  V30 2580 H 245.045 -0.121797 3.24471 0
M  V30 2581 H 246.056 3.53581 3.78419 0
M  V30 2582 H 242.733 0.97001 4.06075 0
M  V30 2583 H 244.123 4.98744 4.50226 0
M  V30 2584 N 246.843 -1.10192 1.12674 0
M  V30 2585 C 247.806 -2.14786 0.799979 0
M  V30 2586 C 248.806 -1.59711 -0.18685 0
M  V30 2587 O 249.996 -1.74156 0.0392558 0
M  V30 2588 C 247.128 -3.40374 0.189228 0
M  V30 2589 H 248.321 -2.45203 1.72671 0
M  V30 2590 H 245.874 -1.25597 0.930326 0
M  V30 2591 H 246.609 -3.15577 -0.747107 0
M  V30 2592 H 246.394 -3.81637 0.899766 0
M  V30 2593 H 247.884 -4.17594 -0.0228143 0
M  V30 2594 N 248.321 -0.919034 -1.28029 0
M  V30 2595 C 249.251 -0.428581 -2.29533 0
M  V30 2596 C 250.232 0.50659 -1.62381 0
M  V30 2597 O 251.417 0.413195 -1.89753 0
M  V30 2598 C 248.547 0.327388 -3.45753 0
M  V30 2599 C 247.501 -0.519137 -4.2484 0
M  V30 2600 C 246.827 0.365486 -5.33449 0
M  V30 2601 C 248.127 -1.77914 -4.91064 0
M  V30 2602 H 249.821 -1.27687 -2.70807 0
M  V30 2603 H 247.367 -0.615428 -1.30186 0
M  V30 2604 H 249.32 0.681378 -4.15855 0
M  V30 2605 H 248.044 1.20963 -3.03374 0
M  V30 2606 H 246.703 -0.855717 -3.56473 0
M  V30 2607 H 246.351 1.24642 -4.87312 0
M  V30 2608 H 246.051 -0.197356 -5.87268 0
M  V30 2609 H 247.575 0.715241 -6.06396 0
M  V30 2610 H 248.989 -1.49374 -5.53498 0
M  V30 2611 H 247.386 -2.2848 -5.54903 0
M  V30 2612 H 248.456 -2.50382 -4.15255 0
M  V30 2613 N 249.799 1.42003 -0.683588 0
M  V30 2614 C 251.215 1.55625 -0.353976 0
M  V30 2615 C 251.415 1.66151 1.14 0
M  V30 2616 O 250.471 1.63329 1.92561 0
M  V30 2617 C 251.784 2.80171 -1.092 0
M  V30 2618 C 253.332 2.93954 -1.07518 0
M  V30 2619 C 253.807 4.21372 -1.79471 0
M  V30 2620 N 255.298 4.28303 -1.76381 0
M  V30 2621 C 256.033 5.25729 -2.28904 0
M  V30 2622 N 255.529 6.29254 -2.89846 0
M  V30 2623 N 257.322 5.17586 -2.19228 0
M  V30 2624 H 249.473 1.33415 -1.6527 0
M  V30 2625 H 251.736 0.64282 -0.696769 0
M  V30 2626 H 251.442 2.78561 -2.14701 0
M  V30 2627 H 251.316 3.7133 -0.662862 0
M  V30 2628 H 253.703 2.95086 -0.028475 0
M  V30 2629 H 253.784 2.04002 -1.54328 0
M  V30 2630 H 253.428 4.21001 -2.84114 0
M  V30 2631 H 253.358 5.10275 -1.30104 0
M  V30 2632 H 255.849 3.54119 -1.31939 0
M  V30 2633 H 256.162 6.99964 -3.27522 0
M  V30 2634 H 254.507 6.29791 -2.93919 0
M  V30 2635 H 257.698 4.35631 -1.71299 0
M  V30 2636 H 257.871 5.93348 -2.60466 0
M  V30 2637 N 251.277 0.427512 1.51691 0
M  V30 2638 C 252.524 -0.142229 2.02 0
M  V30 2639 C 252.852 -1.43566 1.31221 0
M  V30 2640 O 252.107 -1.91298 0.412744 0
M  V30 2641 C 252.406 -0.418249 3.54944 0
M  V30 2642 C 252.072 0.788187 4.43958 0
M  V30 2643 C 250.734 1.11906 4.68007 0
M  V30 2644 C 253.086 1.59347 4.96244 0
M  V30 2645 C 250.414 2.25608 5.41588 0
M  V30 2646 C 252.766 2.7214 5.71072 0
M  V30 2647 C 251.43 3.05692 5.93387 0
M  V30 2648 H 250.7 -0.0520451 0.73917 0
M  V30 2649 H 253.347 0.572697 1.82736 0
M  V30 2650 H 251.652 -1.21496 3.72486 0
M  V30 2651 H 253.349 -0.872339 3.91397 0
M  V30 2652 H 249.939 0.520344 4.2543 0
M  V30 2653 H 254.123 1.35106 4.77556 0
M  V30 2654 H 249.379 2.51929 5.57083 0
M  V30 2655 H 253.553 3.34914 6.10578 0
M  V30 2656 H 251.18 3.9391 6.50184 0
M  V30 2657 N 252.755 -1.56801 0.158532 0
M  V30 2658 C 253.685 -2.20347 -0.772609 0
M  V30 2659 C 254.666 -1.15518 -1.24859 0
M  V30 2660 O 255.851 -1.43902 -1.30406 0
M  V30 2661 C 252.981 -2.83417 -2.00729 0
M  V30 2662 C 251.935 -3.94174 -1.66765 0
M  V30 2663 C 251.261 -4.44233 -2.97592 0
M  V30 2664 C 252.561 -5.14392 -0.905447 0
M  V30 2665 H 254.255 -2.98413 -0.242959 0
M  V30 2666 H 251.801 -1.43537 -0.115419 0
M  V30 2667 H 253.754 -3.26543 -2.6636 0
M  V30 2668 H 252.478 -2.02701 -2.56086 0
M  V30 2669 H 251.137 -3.51684 -1.03508 0
M  V30 2670 H 250.785 -3.60325 -3.50963 0
M  V30 2671 H 250.485 -5.18945 -2.75626 0
M  V30 2672 H 252.009 -4.90037 -3.64274 0
M  V30 2673 H 253.423 -5.5429 -1.46408 0
M  V30 2674 H 251.82 -5.9494 -0.7853 0
M  V30 2675 H 252.89 -4.84795 0.100668 0
M  V30 2676 N 254.233 0.115231 -1.57178 0
M  V30 2677 C 255.48 0.822351 -1.8505 0
M  V30 2678 C 255.808 1.79701 -0.744168 0
M  V30 2679 O 255.063 1.93909 0.26414 0
M  V30 2680 C 255.362 1.60324 -3.19423 0
M  V30 2681 C 255.028 0.772536 -4.44233 0
M  V30 2682 C 253.69 0.543468 -4.78121 0
M  V30 2683 C 256.042 0.193746 -5.2084 0
M  V30 2684 C 253.37 -0.274583 -5.86057 0
M  V30 2685 C 255.722 -0.611517 -6.29637 0
M  V30 2686 C 254.386 -0.850867 -6.62055 0
M  V30 2687 H 253.656 0.30092 -0.677147 0
M  V30 2688 H 256.303 0.0845802 -1.91313 0
M  V30 2689 H 254.608 2.41203 -3.08753 0
M  V30 2690 H 256.305 2.1544 -3.38211 0
M  V30 2691 H 252.895 0.96117 -4.17683 0
M  V30 2692 H 257.079 0.357926 -4.95008 0
M  V30 2693 H 252.335 -0.469206 -6.09597 0
M  V30 2694 H 256.509 -1.06697 -6.88178 0
M  V30 2695 H 254.136 -1.48657 -7.45523 0
M  V30 2696 N 255.711 1.52812 0.385517 0
M  V30 2697 C 256.644 1.72592 1.49289 0
M  V30 2698 C 257.622 0.573819 1.52138 0
M  V30 2699 O 258.806 0.80404 1.70492 0
M  V30 2700 C 255.933 1.78669 2.87741 0
M  V30 2701 C 254.979 3.00455 3.02703 0
M  V30 2702 S 255.812 4.60366 2.73538 0
M  V30 2703 C 256.968 4.69263 4.14177 0
M  V30 2704 H 257.201 2.66248 1.32285 0
M  V30 2705 H 254.734 1.43148 0.578611 0
M  V30 2706 H 256.692 1.82855 3.67524 0
M  V30 2707 H 255.353 0.861 3.02069 0
M  V30 2708 H 254.546 3.01258 4.04054 0
M  V30 2709 H 254.148 2.94278 2.30817 0
M  V30 2710 H 256.44 4.48092 5.08153 0
M  V30 2711 H 257.383 5.71276 4.18388 0
M  V30 2712 H 257.791 3.98072 4.00249 0
M  V30 2713 N 257.189 -0.644168 1.43834 0
M  V30 2714 C 258.466 -1.40188 1.36406 0
M  V30 2715 C 258.846 -2.11094 0.0163124 0
M  V30 2716 O 258.194 -2.05426 -1.00062 0
M  V30 2717 C 258.404 -2.3791 2.55343 0
M  V30 2718 C 259.752 -3.01637 2.98832 0
M  V30 2719 O 260.776 -2.48237 2.55455 0
M  V30 2720 O 259.635 -3.98477 3.74003 0
M  V30 2721 H 256.729 -0.626773 0.539523 0
M  V30 2722 H 259.275 -0.670317 1.559 0
M  V30 2723 H 258.047 -1.84525 3.4506 0
M  V30 2724 H 257.67 -3.18503 2.37995 0
M  V30 2725 N 258.668 -1.30515 -0.883378 0
M  V30 2726 C 259.916 -1.19194 -1.63209 0
M  V30 2727 C 260.237 0.253205 -1.93349 0
M  V30 2728 O 259.507 1.17025 -1.57105 0
M  V30 2729 H 258.087 -0.438148 -0.605009 0
M  V30 2730 H 260.749 -1.63663 -1.05832 0
M  V30 2731 H 259.845 -1.75396 -2.58153 0
M  V30 2732 N 260.146 1.09593 -1.13257 0
M  V30 2733 C 261.094 2.18271 -0.803783 0
M  V30 2734 C 262.088 1.68054 0.213148 0
M  V30 2735 O 263.294 1.79862 0.0704699 0
M  V30 2736 H 259.669 0.711949 -0.242143 0
M  V30 2737 H 261.64 2.43235 -1.72856 0
M  V30 2738 C 260.389 3.46536 -0.28424 0
M  V30 2739 H 259.712 3.85545 -1.05807 0
M  V30 2740 H 261.152 4.23899 -0.0925945 0
M  V30 2741 C 259.611 3.22036 0.989684 0
M  V30 2742 O 260.141 3.44509 2.06584 0
M  V30 2743 N 258.347 2.7565 0.920086 0
M  V30 2744 H 257.894 2.57562 0.0442019 0
M  V30 2745 H 257.852 2.59635 1.77306 0
M  V30 2746 N 261.624 0.925811 1.2754 0
M  V30 2747 C 262.864 0.572521 1.96218 0
M  V30 2748 C 263.228 -0.869719 1.71172 0
M  V30 2749 O 264.429 -1.33119 2.33523 0
M  V30 2750 C 262.7 0.887325 3.4621 0
M  V30 2751 S 264.259 0.642266 4.34074 0
M  V30 2752 H 261.077 0.211403 0.678845 0
M  V30 2753 H 263.679 1.19384 1.54815 0
M  V30 2754 H 262.383 1.93469 3.61936 0
M  V30 2755 H 261.914 0.255123 3.92572 0
M  V30 2756 H 263.929 -0.500822 4.93666 0
M  V30 2757 N 263.102 -1.41638 0.69111 0
M  V30 2758 C 264.332 -2.0533 0.228758 0
M  V30 2759 C 264.74 -1.52089 -1.12541 0
M  V30 2760 O 264.083 -0.662145 -1.71351 0
M  V30 2761 C 264.145 -3.59349 0.10407 0
M  V30 2762 C 263.809 -4.35362 1.38956 0
M  V30 2763 C 264.806 -4.64942 2.32648 0
M  V30 2764 C 262.491 -4.74714 1.64169 0
M  V30 2765 C 264.485 -5.32828 3.49818 0
M  V30 2766 C 262.172 -5.42338 2.81625 0
M  V30 2767 C 263.17 -5.71322 3.74273 0
M  V30 2768 O 262.858 -6.37554 4.89673 0
M  V30 2769 H 262.59 -0.667796 0.104997 0
M  V30 2770 H 265.144 -1.82477 0.942938 0
M  V30 2771 H 263.374 -3.80924 -0.665839 0
M  V30 2772 H 265.063 -4.04633 -0.320519 0
M  V30 2773 H 265.829 -4.35025 2.14425 0
M  V30 2774 H 261.708 -4.51538 0.929202 0
M  V30 2775 H 265.252 -5.55368 4.22152 0
M  V30 2776 H 261.149 -5.71673 2.99768 0
M  V30 2777 H 261.917 -6.56049 4.8943 0
M  V30 2778 N 264.58 -0.43555 -1.51462 0
M  V30 2779 C 265.81 0.130053 -2.0619 0
M  V30 2780 C 266.218 1.37164 -1.30317 0
M  V30 2781 O 265.561 1.80225 -0.355598 0
M  V30 2782 C 265.623 0.519418 -3.55728 0
M  V30 2783 C 265.287 -0.615119 -4.52841 0
M  V30 2784 C 266.284 -1.48671 -4.9819 0
M  V30 2785 C 263.969 -0.795341 -4.95963 0
M  V30 2786 C 265.963 -2.52324 -5.8533 0
M  V30 2787 C 263.65 -1.83514 -5.82894 0
M  V30 2788 C 264.648 -2.69748 -6.27475 0
M  V30 2789 O 264.336 -3.71944 -7.1268 0
M  V30 2790 H 264.068 0.0121612 -0.675891 0
M  V30 2791 H 266.622 -0.6129 -1.96043 0
M  V30 2792 H 264.852 1.31505 -3.63653 0
M  V30 2793 H 266.541 1.01597 -3.92979 0
M  V30 2794 H 267.307 -1.359 -4.65571 0
M  V30 2795 H 263.186 -0.133713 -4.60806 0
M  V30 2796 H 266.73 -3.19665 -6.20048 0
M  V30 2797 H 262.627 -1.96306 -6.14926 0
M  V30 2798 H 263.395 -3.68503 -7.30854 0
M  V30 2799 N 266.058 1.56714 -0.166846 0
M  V30 2800 C 267.005 2.17746 0.765193 0
M  V30 2801 C 267.975 1.11614 1.23011 0
M  V30 2802 O 269.16 1.39745 1.29908 0
M  V30 2803 C 266.3 2.81882 1.9909 0
M  V30 2804 C 265.413 4.02462 1.56997 0
M  V30 2805 C 264.548 4.54537 2.749 0
M  V30 2806 C 263.587 5.67538 2.29275 0
M  V30 2807 N 262.724 6.14142 3.40255 0
M  V30 2808 H 267.564 2.97048 0.237952 0
M  V30 2809 H 265.101 1.4672 0.105725 0
M  V30 2810 H 267.059 3.17221 2.70974 0
M  V30 2811 H 265.689 2.05191 2.49192 0
M  V30 2812 H 264.741 3.72973 0.748037 0
M  V30 2813 H 266.053 4.84273 1.19503 0
M  V30 2814 H 265.207 4.92035 3.54946 0
M  V30 2815 H 263.946 3.71774 3.1565 0
M  V30 2816 H 262.951 5.29597 1.47674 0
M  V30 2817 H 264.176 6.52099 1.89588 0
M  V30 2818 H 262.122 5.3431 3.8059 0
M  V30 2819 H 262.039 6.9093 3.06841 0
M  V30 2820 H 263.307 6.56289 4.206 0
M  V30 2821 N 267.536 -0.106894 1.57237 0
M  V30 2822 C 268.484 -1.14944 2.02215 0
M  V30 2823 C 269.478 -1.42167 0.92114 0
M  V30 2824 O 270.684 -1.41987 1.10634 0
M  V30 2825 H 267.059 -0.387841 0.64427 0
M  V30 2826 H 269.03 -0.743683 2.88984 0
M  V30 2827 C 267.779 -2.4647 2.4525 0
M  V30 2828 H 267.102 -2.26363 3.29545 0
M  V30 2829 H 268.542 -3.17948 2.80508 0
M  V30 2830 C 267.001 -3.09921 1.321 0
M  V30 2831 O 267.531 -3.9651 0.643622 0
M  V30 2832 N 265.737 -2.69986 1.07497 0
M  V30 2833 H 265.284 -1.99667 1.62761 0
M  V30 2834 H 265.242 -3.12769 0.319876 0
M  V30 2835 N 269.014 -1.53014 -0.377408 0
M  V30 2836 C 270.425 -1.60438 -0.954798 0
M  V30 2837 C 270.776 -0.464418 -1.90624 0
M  V30 2838 O 269.901 0.41087 -2.12464 0
M  V30 2839 C 270.496 -2.90797 -1.73847 0
M  V30 2840 C 269.055 -3.00595 -2.26538 0
M  V30 2841 C 268.202 -2.55645 -1.07429 0
M  V30 2842 H 271.153 -1.57926 -0.156575 0
M  V30 2843 H 271.174 -2.77935 -2.5987 0
M  V30 2844 H 270.686 -3.73746 -1.04574 0
M  V30 2845 H 268.787 -2.22208 -2.99089 0
M  V30 2846 H 268.9 -4.05456 -2.5523 0
M  V30 2847 H 267.264 -2.10239 -1.43777 0
M  V30 2848 H 268.047 -3.41 -0.396728 0
M  V30 2849 N 270.492 0.636531 -1.44174 0
M  V30 2850 C 271.732 1.40781 -1.48189 0
M  V30 2851 C 272.096 1.91688 -0.10944 0
M  V30 2852 O 273.297 2.68789 -0.0242741 0
M  V30 2853 C 271.568 2.54575 -2.50851 0
M  V30 2854 S 273.127 3.4284 -2.73873 0
M  V30 2855 H 269.945 0.480345 -0.524204 0
M  V30 2856 H 272.547 0.737416 -1.81059 0
M  V30 2857 H 271.251 2.15478 -3.49281 0
M  V30 2858 H 270.782 3.26447 -2.19536 0
M  V30 2859 H 272.797 4.51846 -2.05059 0
M  V30 2860 N 271.97 1.30982 0.876444 0
M  V30 2861 C 273.386 1.09498 1.16113 0
M  V30 2862 C 273.586 -0.13875 2.01022 0
M  V30 2863 O 272.642 -0.829935 2.38471 0
M  V30 2864 C 273.955 2.36308 1.85954 0
M  V30 2865 C 275.503 2.41856 1.98683 0
M  V30 2866 C 275.978 3.6853 2.71937 0
M  V30 2867 N 277.469 3.69387 2.79477 0
M  V30 2868 C 278.204 4.64096 3.36753 0
M  V30 2869 N 277.7 5.69155 3.95012 0
M  V30 2870 N 279.493 4.51626 3.3465 0
M  V30 2871 H 271.644 2.10118 0.310494 0
M  V30 2872 H 273.907 0.926634 0.200131 0
M  V30 2873 H 273.613 3.26388 1.31011 0
M  V30 2874 H 273.487 2.4561 2.86278 0
M  V30 2875 H 275.874 1.52249 2.52793 0
M  V30 2876 H 275.955 2.36523 0.9742 0
M  V30 2877 H 275.599 4.58499 2.18496 0
M  V30 2878 H 275.529 3.71127 3.73593 0
M  V30 2879 H 278.02 2.93438 2.38123 0
M  V30 2880 H 278.333 6.3751 4.36808 0
M  V30 2881 H 276.678 5.72937 3.93406 0
M  V30 2882 H 279.869 3.68728 2.8837 0
M  V30 2883 H 280.042 5.25614 3.7899 0
M  V30 2884 N 273.449 -1.08991 1.13837 0
M  V30 2885 C 274.381 -2.15606 0.777612 0
M  V30 2886 C 275.394 -1.61533 -0.202739 0
M  V30 2887 O 276.583 -1.78491 0.0181055 0
M  V30 2888 C 273.683 -3.3864 0.132623 0
M  V30 2889 C 272.856 -4.22115 1.1462 0
M  V30 2890 C 271.915 -5.23564 0.526074 0
M  V30 2891 O 270.941 -5.56678 1.18735 0
M  V30 2892 N 272.143 -5.76266 -0.699866 0
M  V30 2893 H 274.908 -2.47159 1.69506 0
M  V30 2894 H 272.469 -1.24747 1.03198 0
M  V30 2895 H 274.461 -4.03626 -0.29459 0
M  V30 2896 H 273.031 -3.04938 -0.687849 0
M  V30 2897 H 272.251 -3.53199 1.75055 0
M  V30 2898 H 273.539 -4.74709 1.83109 0
M  V30 2899 H 272.937 -5.51585 -1.25581 0
M  V30 2900 H 271.494 -6.42963 -1.06968 0
M  V30 2901 N 274.927 -0.932562 -1.27047 0
M  V30 2902 C 275.89 -0.440064 -2.24936 0
M  V30 2903 C 276.89 0.444071 -1.54547 0
M  V30 2904 O 278.08 0.244465 -1.72476 0
M  V30 2905 C 275.212 0.36678 -3.38921 0
M  V30 2906 H 276.405 -1.305 -2.70018 0
M  V30 2907 H 273.958 -0.713707 -1.39054 0
M  V30 2908 H 274.693 1.25033 -2.99228 0
M  V30 2909 H 274.478 -0.267204 -3.91188 0
M  V30 2910 H 275.968 0.701567 -4.11665 0
M  V30 2911 N 276.405 1.4127 -0.698611 0
M  V30 2912 C 277.335 2.33447 -0.049629 0
M  V30 2913 C 278.316 1.51982 0.763898 0
M  V30 2914 O 279.501 1.80509 0.716257 0
M  V30 2915 C 276.631 3.35828 0.885267 0
M  V30 2916 C 275.585 4.27627 0.178613 0
M  V30 2917 C 274.911 5.20406 1.22807 0
M  V30 2918 C 276.211 5.13459 -0.956933 0
M  V30 2919 H 277.905 2.87966 -0.81951 0
M  V30 2920 H 275.451 1.38461 -0.395538 0
M  V30 2921 H 277.404 3.9924 1.34854 0
M  V30 2922 H 276.128 2.79666 1.68685 0
M  V30 2923 H 274.787 3.65643 -0.26466 0
M  V30 2924 H 274.435 4.60558 2.02226 0
M  V30 2925 H 274.135 5.82661 0.760239 0
M  V30 2926 H 275.659 5.86695 1.69179 0
M  V30 2927 H 277.073 5.70421 -0.573805 0
M  V30 2928 H 275.47 5.8467 -1.35205 0
M  V30 2929 H 276.54 4.50443 -1.79524 0
M  V30 2930 N 277.883 0.443576 1.51229 0
M  V30 2931 C 278.793 -0.370721 2.31652 0
M  V30 2932 C 279.809 -1.02186 1.40833 0
M  V30 2933 O 280.985 -1.01586 1.73903 0
M  V30 2934 C 278.05 -1.45376 3.14749 0
M  V30 2935 C 277.111 -0.822099 4.21355 0
M  V30 2936 C 276.344 -1.85353 5.0048 0
M  V30 2937 O 276.567 -3.07656 4.80316 0
M  V30 2938 O 275.501 -1.4406 5.84406 0
M  V30 2939 H 279.327 0.286002 3.0235 0
M  V30 2940 H 276.912 0.20598 1.47973 0
M  V30 2941 H 278.794 -2.08173 3.66391 0
M  V30 2942 H 277.469 -2.09445 2.46809 0
M  V30 2943 H 276.376 -0.155909 3.73775 0
M  V30 2944 H 277.709 -0.224797 4.91686 0
M  V30 2945 N 279.361 -1.56624 0.175154 0
M  V30 2946 C 280.607 -1.9729 -0.469506 0
M  V30 2947 C 280.94 -1.06128 -1.62636 0
M  V30 2948 O 280.215 -0.109183 -1.94193 0
M  V30 2949 C 280.498 -3.47375 -0.948804 0
M  V30 2950 C 280.351 -4.49317 0.208491 0
M  V30 2951 C 281.67 -4.00652 -1.82116 0
M  V30 2952 H 278.789 -0.717317 -0.16919 0
M  V30 2953 H 281.431 -1.88184 0.262062 0
M  V30 2954 H 279.581 -3.55267 -1.57219 0
M  V30 2955 H 281.253 -4.53482 0.845682 0
M  V30 2956 H 279.496 -4.25121 0.863395 0
M  V30 2957 H 280.167 -5.51741 -0.169059 0
M  V30 2958 H 282.643 -3.95416 -1.2956 0
M  V30 2959 H 281.519 -5.06075 -2.12554 0
M  V30 2960 H 281.78 -3.44699 -2.7683 0
M  V30 2961 N 280.839 0.0985539 -1.57292 0
M  V30 2962 C 281.802 1.10402 -2.00858 0
M  V30 2963 C 282.802 1.33146 -0.901593 0
M  V30 2964 O 283.992 1.29318 -1.16716 0
M  V30 2965 C 281.124 2.45394 -2.36632 0
M  V30 2966 H 282.317 0.729099 -2.90902 0
M  V30 2967 H 279.87 0.343495 -1.52479 0
M  V30 2968 H 280.605 2.87769 -1.49531 0
M  V30 2969 H 280.39 2.30235 -3.17387 0
M  V30 2970 H 281.88 3.17718 -2.71007 0
M  V30 2971 N 282.317 1.53212 0.369288 0
M  V30 2972 C 283.728 1.60943 0.946276 0
M  V30 2973 C 284.079 0.47452 1.90375 0
M  V30 2974 O 283.204 -0.399597 2.12679 0
M  V30 2975 C 283.799 2.91715 1.72302 0
M  V30 2976 C 282.358 3.01792 2.24941 0
M  V30 2977 C 281.505 2.56211 1.06072 0
M  V30 2978 H 284.456 1.58007 0.148198 0
M  V30 2979 H 284.477 2.79309 2.58393 0
M  V30 2980 H 283.989 3.74295 1.0259 0
M  V30 2981 H 282.09 2.23791 2.97906 0
M  V30 2982 H 282.203 4.06803 2.53077 0
M  V30 2983 H 280.567 2.10998 1.4266 0
M  V30 2984 H 281.35 3.41206 0.378639 0
M  V30 2985 N 283.795 -0.628877 1.44509 0
M  V30 2986 C 285.043 -1.38565 1.4712 0
M  V30 2987 C 285.364 -1.94712 0.105899 0
M  V30 2988 O 284.634 -1.75912 -0.862079 0
M  V30 2989 H 283.214 -0.514333 0.541729 0
M  V30 2990 H 285.876 -0.740018 1.80305 0
M  V30 2991 H 284.972 -2.21583 2.19789 0
M  V30 2992 N 285.273 -1.31445 -0.869486 0
M  V30 2993 C 286.236 -1.19094 -1.9583 0
M  V30 2994 C 287.236 -0.117906 -1.60367 0
M  V30 2995 O 288.426 -0.367208 -1.70286 0
M  V30 2996 C 285.558 -0.828165 -3.30688 0
M  V30 2997 H 286.751 -2.15842 -2.08212 0
M  V30 2998 H 284.304 -1.15063 -1.05784 0
M  V30 2999 H 285.039 0.138142 -3.24006 0
M  V30 3000 H 284.824 -1.6038 -3.578 0
M  V30 3001 H 286.314 -0.765658 -4.10521 0
M  V30 3002 N 286.751 1.08385 -1.14413 0
M  V30 3003 C 287.681 2.17321 -0.854044 0
M  V30 3004 C 288.662 1.69024 0.191049 0
M  V30 3005 O 289.847 1.94141 0.0476779 0
M  V30 3006 C 286.977 3.45719 -0.330983 0
M  V30 3007 C 285.931 4.07409 -1.31155 0
M  V30 3008 C 285.257 5.30762 -0.64778 0
M  V30 3009 C 286.557 4.48665 -2.67388 0
M  V30 3010 H 288.251 2.41845 -1.76498 0
M  V30 3011 H 285.797 1.16233 -0.850051 0
M  V30 3012 H 287.75 4.21241 -0.115645 0
M  V30 3013 H 286.474 3.2075 0.615381 0
M  V30 3014 H 285.133 3.33919 -1.51306 0
M  V30 3015 H 284.781 5.02078 0.304398 0
M  V30 3016 H 284.481 5.72992 -1.30207 0
M  V30 3017 H 286.005 6.08998 -0.441972 0
M  V30 3018 H 287.419 5.15364 -2.51143 0
M  V30 3019 H 285.816 5.01814 -3.29093 0
M  V30 3020 H 286.886 3.60543 -3.24248 0
M  V30 3021 N 288.23 0.939286 1.26551 0
M  V30 3022 C 289.16 0.465044 2.28822 0
M  V30 3023 C 290.141 -0.480692 1.63167 0
M  V30 3024 O 291.326 -0.382955 1.90387 0
M  V30 3025 C 288.456 -0.27234 3.46231 0
M  V30 3026 C 287.41 0.58666 4.2396 0
M  V30 3027 C 286.736 -0.280573 5.33963 0
M  V30 3028 C 288.036 1.85704 4.88171 0
M  V30 3029 H 289.73 1.31979 2.68741 0
M  V30 3030 H 287.276 0.636061 1.29191 0
M  V30 3031 H 289.229 -0.615133 4.16886 0
M  V30 3032 H 287.953 -1.16121 3.0526 0
M  V30 3033 H 286.612 0.91232 3.55067 0
M  V30 3034 H 286.26 -1.16874 4.89234 0
M  V30 3035 H 285.96 0.29076 5.8688 0
M  V30 3036 H 287.484 -0.618678 6.07458 0
M  V30 3037 H 288.898 1.58161 5.51052 0
M  V30 3038 H 287.295 2.37279 5.51197 0
M  V30 3039 H 288.365 2.56957 4.11219 0
M  V30 3040 N 289.708 -1.40897 0.706093 0
M  V30 3041 C 290.956 -2.00657 0.241054 0
M  V30 3042 C 291.277 -1.56241 -1.16678 0
M  V30 3043 O 290.547 -0.79765 -1.78926 0
M  V30 3044 H 289.127 -0.742018 0.0861308 0
M  V30 3045 H 291.789 -1.72372 0.909604 0
M  V30 3046 H 290.885 -3.10958 0.266705 0
M  V30 3047 N 291.186 -0.45159 -1.50991 0
M  V30 3048 C 292.116 0.342898 -2.30969 0
M  V30 3049 C 293.097 1.00815 -1.37005 0
M  V30 3050 O 294.282 1.00907 -1.65926 0
M  V30 3051 C 291.412 1.43637 -3.16205 0
M  V30 3052 C 290.366 0.893818 -4.18563 0
M  V30 3053 C 289.692 2.08411 -4.92411 0
M  V30 3054 C 290.992 -0.0815568 -5.22236 0
M  V30 3055 H 292.686 -0.324556 -2.97636 0
M  V30 3056 H 290.232 -0.157531 -1.43136 0
M  V30 3057 H 292.185 1.9995 -3.70942 0
M  V30 3058 H 290.909 2.13232 -2.47386 0
M  V30 3059 H 289.568 0.352798 -3.64898 0
M  V30 3060 H 289.216 2.76658 -4.20082 0
M  V30 3061 H 288.916 1.72741 -5.61636 0
M  V30 3062 H 290.44 2.65251 -5.49976 0
M  V30 3063 H 291.854 0.391742 -5.7196 0
M  V30 3064 H 290.251 -0.351551 -5.99069 0
M  V30 3065 H 291.321 -1.01374 -4.74185 0
M  V30 3066 N 292.664 1.56529 -0.183458 0
M  V30 3067 C 293.912 1.96855 0.457452 0
M  V30 3068 C 294.233 1.07104 1.62953 0
M  V30 3069 O 293.503 0.139887 1.954 0
M  V30 3070 H 292.083 0.72693 0.171992 0
M  V30 3071 H 294.745 1.93056 -0.267476 0
M  V30 3072 H 293.841 3.01423 0.809368 0
M  V30 3073 N 294.142 -0.090211 1.57342 0
M  V30 3074 C 295.09 -1.12792 2.03422 0
M  V30 3075 C 296.084 -1.41182 0.936166 0
M  V30 3076 O 297.29 -1.40805 1.12133 0
M  V30 3077 H 293.665 -0.380986 0.648347 0
M  V30 3078 H 295.636 -0.71299 2.89757 0
M  V30 3079 C 294.385 -2.43855 2.47851 0
M  V30 3080 H 293.708 -2.22855 3.31927 0
M  V30 3081 H 295.148 -3.14955 2.83865 0
M  V30 3082 C 293.607 -3.08503 1.3538 0
M  V30 3083 O 294.137 -3.95805 0.685641 0
M  V30 3084 N 292.343 -2.68831 1.10355 0
M  V30 3085 H 291.89 -1.97929 1.64869 0
M  V30 3086 H 291.848 -3.12412 0.353031 0
M  V30 3087 N 295.62 -1.53406 -0.361157 0
M  V30 3088 C 296.55 -1.83136 -1.44857 0
M  V30 3089 C 297.531 -0.685174 -1.5569 0
M  V30 3090 O 298.716 -0.93544 -1.70186 0
M  V30 3091 C 295.846 -2.02522 -2.82138 0
M  V30 3092 C 294.8 -3.18302 -2.86126 0
M  V30 3093 C 294.126 -3.22989 -4.26125 0
M  V30 3094 C 295.426 -4.56796 -2.53248 0
M  V30 3095 H 297.12 -2.74201 -1.20226 0
M  V30 3096 H 294.666 -1.31938 -0.576922 0
M  V30 3097 H 296.619 -2.21904 -3.58241 0
M  V30 3098 H 295.343 -1.08172 -3.08166 0
M  V30 3099 H 294.002 -2.98747 -2.12475 0
M  V30 3100 H 293.65 -2.26267 -4.49235 0
M  V30 3101 H 293.35 -4.00781 -4.29708 0
M  V30 3102 H 294.874 -3.44559 -5.04094 0
M  V30 3103 H 296.288 -4.7631 -3.19064 0
M  V30 3104 H 294.685 -5.36862 -2.68141 0
M  V30 3105 H 295.755 -4.61606 -1.48484 0
M  V30 3106 N 297.098 0.621204 -1.44841 0
M  V30 3107 C 298.326 1.40752 -1.51646 0
M  V30 3108 C 298.741 1.88246 -0.144549 0
M  V30 3109 O 298.098 1.61422 0.851416 0
M  V30 3110 C 298.149 2.62119 -2.4895 0
M  V30 3111 O 297.87 2.16602 -3.80808 0
M  V30 3112 C 299.371 3.55135 -2.65319 0
M  V30 3113 H 296.591 0.431325 -0.514004 0
M  V30 3114 H 299.135 0.758835 -1.899 0
M  V30 3115 H 297.29 3.23058 -2.13805 0
M  V30 3116 H 297.704 2.95358 -4.33433 0
M  V30 3117 H 299.178 4.36874 -3.37409 0
M  V30 3118 H 299.655 4.04592 -1.70886 0
M  V30 3119 H 300.261 3.00058 -3.01405 0
M  V30 3120 N 298.576 1.31904 0.862503 0
M  V30 3121 C 299.526 1.16772 1.95827 0
M  V30 3122 C 300.51 0.0767098 1.60717 0
M  V30 3123 O 301.702 0.302407 1.74398 0
M  V30 3124 C 298.831 0.884858 3.317 0
M  V30 3125 C 297.917 2.0172 3.73055 0
M  V30 3126 N 298.308 3.265 3.86305 0
M  V30 3127 C 296.606 1.91861 4.02623 0
M  V30 3128 C 297.307 4.00616 4.2176 0
M  V30 3129 N 296.283 3.28847 4.32852 0
M  V30 3130 H 300.085 2.11382 2.04193 0
M  V30 3131 H 297.599 1.2357 1.05377 0
M  V30 3132 H 299.596 0.757419 4.09962 0
M  V30 3133 H 298.256 -0.0529448 3.24657 0
M  V30 3134 H 299.267 3.61529 3.70833 0
M  V30 3135 H 295.944 1.05593 4.03926 0
M  V30 3136 H 297.334 5.08182 4.39546 0
M  V30 3137 N 300.054 -1.07777 1.14986 0
M  V30 3138 C 300.984 -2.16865 0.865557 0
M  V30 3139 C 301.965 -1.69123 -0.182083 0
M  V30 3140 O 303.15 -1.94164 -0.0373815 0
M  V30 3141 C 300.28 -3.45539 0.349313 0
M  V30 3142 C 299.234 -4.06708 1.33313 0
M  V30 3143 C 298.56 -5.30411 0.675918 0
M  V30 3144 C 299.86 -4.47241 2.69764 0
M  V30 3145 H 301.554 -2.40905 1.77778 0
M  V30 3146 H 299.1 -1.15781 0.856203 0
M  V30 3147 H 301.053 -4.21174 0.137983 0
M  V30 3148 H 299.777 -3.21072 -0.598362 0
M  V30 3149 H 298.436 -3.33112 1.53075 0
M  V30 3150 H 298.084 -5.02232 -0.277767 0
M  V30 3151 H 297.784 -5.72293 1.33244 0
M  V30 3152 H 299.308 -6.08755 0.474262 0
M  V30 3153 H 300.722 -5.14025 2.53873 0
M  V30 3154 H 299.119 -5.00062 3.3175 0
M  V30 3155 H 300.189 -3.58818 3.26156 0
M  V30 3156 N 301.532 -0.945985 -1.26051 0
M  V30 3157 C 302.757 -0.612525 -1.98149 0
M  V30 3158 C 303.182 0.806623 -1.69927 0
M  V30 3159 O 302.54 1.54411 -0.950108 0
M  V30 3160 C 302.588 -0.866981 -3.50023 0
M  V30 3161 O 301.692 0.0585333 -4.12358 0
M  V30 3162 H 301.033 -0.23379 -0.621481 0
M  V30 3163 H 303.563 -1.27023 -1.60395 0
M  V30 3164 H 303.573 -0.789792 -4.00283 0
M  V30 3165 H 302.248 -1.90135 -3.69894 0
M  V30 3166 H 300.825 -0.0701241 -3.72834 0
M  V30 3167 N 303.011 1.40521 -0.713556 0
M  V30 3168 C 303.941 2.33381 -0.0743864 0
M  V30 3169 C 304.922 1.52784 0.747735 0
M  V30 3170 O 306.107 1.81258 0.697071 0
M  V30 3171 C 303.237 3.36748 0.849598 0
M  V30 3172 C 302.191 4.27793 0.133247 0
M  V30 3173 C 301.517 5.21679 1.17281 0
M  V30 3174 C 302.817 5.12415 -1.01134 0
M  V30 3175 H 304.511 2.87081 -0.850007 0
M  V30 3176 H 302.057 1.38034 -0.410201 0
M  V30 3177 H 304.01 4.00648 1.30612 0
M  V30 3178 H 302.734 2.81439 1.65709 0
M  V30 3179 H 301.393 3.65342 -0.303426 0
M  V30 3180 H 301.041 4.62677 1.9733 0
M  V30 3181 H 300.741 5.83435 0.698397 0
M  V30 3182 H 302.265 5.88456 1.62947 0
M  V30 3183 H 303.679 5.69781 -0.634274 0
M  V30 3184 H 302.076 5.83203 -1.41399 0
M  V30 3185 H 303.146 4.48514 -1.84292 0
M  V30 3186 N 304.489 0.459591 1.5075 0
M  V30 3187 C 305.436 -0.340524 2.28274 0
M  V30 3188 C 306.406 -0.997371 1.32822 0
M  V30 3189 O 307.591 -1.01202 1.61749 0
M  V30 3190 C 304.731 -1.42317 3.14388 0
M  V30 3191 C 303.844 -0.782251 4.24859 0
M  V30 3192 C 302.979 -1.84182 4.98247 0
M  V30 3193 C 302.018 -1.18053 6.00608 0
M  V30 3194 N 301.155 -2.18244 6.67319 0
M  V30 3195 H 305.995 0.326899 2.96202 0
M  V30 3196 H 303.532 0.173057 1.46078 0
M  V30 3197 H 305.49 -2.06241 3.62658 0
M  V30 3198 H 304.12 -2.05992 2.4853 0
M  V30 3199 H 303.172 -0.0307404 3.80388 0
M  V30 3200 H 304.484 -0.259663 4.98124 0
M  V30 3201 H 303.638 -2.55714 5.50177 0
M  V30 3202 H 302.377 -2.39819 4.24662 0
M  V30 3203 H 301.382 -0.450776 5.47949 0
M  V30 3204 H 302.607 -0.631202 6.7616 0
M  V30 3205 H 300.553 -2.72919 5.96533 0
M  V30 3206 H 300.47 -1.70938 7.36421 0
M  V30 3207 H 301.738 -2.89191 7.23871 0
M  V30 3208 N 305.967 -1.56429 0.191757 0
M  V30 3209 C 307.197 -2.01574 -0.452928 0
M  V30 3210 C 307.605 -1.07107 -1.55964 0
M  V30 3211 O 306.948 -0.067534 -1.83576 0
M  V30 3212 C 307.01 -3.43121 -1.07278 0
M  V30 3213 C 306.674 -4.56879 -0.105214 0
M  V30 3214 C 307.671 -5.15379 0.684149 0
M  V30 3215 C 305.356 -5.023 0.00489824 0
M  V30 3216 C 307.35 -6.17746 1.57062 0
M  V30 3217 C 305.037 -6.04511 0.894935 0
M  V30 3218 C 306.035 -6.62108 1.67637 0
M  V30 3219 O 305.723 -7.62335 2.55149 0
M  V30 3220 H 305.455 -0.665554 -0.118379 0
M  V30 3221 H 308.009 -2.03245 0.296737 0
M  V30 3222 H 306.239 -3.38425 -1.87097 0
M  V30 3223 H 307.928 -3.72093 -1.62177 0
M  V30 3224 H 308.694 -4.81157 0.609365 0
M  V30 3225 H 304.573 -4.57168 -0.593156 0
M  V30 3226 H 308.117 -6.6263 2.181 0
M  V30 3227 H 304.014 -6.38157 0.970847 0
M  V30 3228 H 304.782 -7.79741 2.48892 0
M  V30 3229 N 307.445 0.0818655 -1.57387 0
M  V30 3230 C 308.393 1.11712 -2.04018 0
M  V30 3231 C 309.387 1.40683 -0.94364 0
M  V30 3232 O 310.593 1.40209 -1.12878 0
M  V30 3233 H 306.968 0.377542 -0.650358 0
M  V30 3234 H 308.939 0.697614 -2.90131 0
M  V30 3235 C 307.688 2.42537 -2.49141 0
M  V30 3236 H 307.011 2.21092 -3.33104 0
M  V30 3237 H 308.451 3.13446 -2.85531 0
M  V30 3238 C 306.91 3.0778 -1.37014 0
M  V30 3239 O 307.44 3.95436 -0.706621 0
M  V30 3240 N 305.646 2.68242 -1.11779 0
M  V30 3241 H 305.193 1.97052 -1.65917 0
M  V30 3242 H 305.151 3.1222 -0.369594 0
M  V30 3243 N 308.923 1.53595 0.353017 0
M  V30 3244 C 309.871 1.81605 1.45335 0
M  V30 3245 C 310.865 0.685923 1.54892 0
M  V30 3246 O 312.071 0.869095 1.57628 0
M  V30 3247 H 308.446 0.575204 0.484401 0
M  V30 3248 H 310.417 2.73679 1.18921 0
M  V30 3249 C 309.166 2.03406 2.81995 0
M  V30 3250 H 308.489 2.89814 2.75405 0
M  V30 3251 H 309.929 2.26975 3.58132 0
M  V30 3252 C 308.388 0.816794 3.26849 0
M  V30 3253 O 308.918 0.0115856 4.01698 0
M  V30 3254 N 307.124 0.636682 2.8354 0
M  V30 3255 H 306.671 1.2931 2.22793 0
M  V30 3256 H 306.629 -0.176336 3.13905 0
M  V30 3257 N 310.401 -0.613514 1.45168 0
M  V30 3258 C 311.331 -1.7354 1.56225 0
M  V30 3259 C 312.312 -1.64981 0.41414 0
M  V30 3260 O 313.497 -1.83472 0.636526 0
M  V30 3261 C 310.627 -3.12128 1.52295 0
M  V30 3262 C 309.581 -3.35491 2.65762 0
M  V30 3263 C 308.907 -4.74291 2.46885 0
M  V30 3264 C 310.207 -3.26325 4.0781 0
M  V30 3265 H 311.901 -1.64543 2.50132 0
M  V30 3266 H 309.447 -0.790185 1.20383 0
M  V30 3267 H 311.4 -3.90404 1.58628 0
M  V30 3268 H 310.124 -3.2195 0.549139 0
M  V30 3269 H 308.783 -2.59603 2.58847 0
M  V30 3270 H 308.431 -4.80839 1.47657 0
M  V30 3271 H 308.131 -4.9088 3.22972 0
M  V30 3272 H 309.655 -5.54775 2.55063 0
M  V30 3273 H 311.069 -3.94483 4.16 0
M  V30 3274 H 309.466 -3.54445 4.8424 0
M  V30 3275 H 310.536 -2.23855 4.30136 0
M  V30 3276 N 311.879 -1.3236 -0.855495 0
M  V30 3277 C 313.107 -1.2587 -1.64208 0
M  V30 3278 C 313.522 0.173457 -1.88002 0
M  V30 3279 O 312.879 1.11027 -1.44842 0
M  V30 3280 C 312.93 -2.01424 -3.00184 0
M  V30 3281 O 312.651 -3.39051 -2.77445 0
M  V30 3282 C 314.152 -2.01948 -3.94629 0
M  V30 3283 H 311.372 -0.434318 -0.511477 0
M  V30 3284 H 313.916 -1.74469 -1.0668 0
M  V30 3285 H 312.071 -1.56549 -3.5436 0
M  V30 3286 H 312.485 -3.77711 -3.63916 0
M  V30 3287 H 313.959 -2.59297 -4.87308 0
M  V30 3288 H 314.436 -1.00554 -4.27534 0
M  V30 3289 H 315.042 -2.46767 -3.4639 0
M  V30 3290 N 313.357 1.07166 -1.15556 0
M  V30 3291 C 314.603 1.80065 -0.932984 0
M  V30 3292 C 314.936 1.86586 0.53845 0
M  V30 3293 O 314.211 1.35098 1.39924 0
M  V30 3294 C 314.494 3.25022 -1.55025 0
M  V30 3295 C 314.347 3.26634 -3.09242 0
M  V30 3296 C 315.666 4.22341 -1.2376 0
M  V30 3297 H 312.785 0.653697 -0.340366 0
M  V30 3298 H 315.427 1.25389 -1.4275 0
M  V30 3299 H 313.577 3.71712 -1.12972 0
M  V30 3300 H 315.249 2.88173 -3.60214 0
M  V30 3301 H 313.492 2.65539 -3.43033 0
M  V30 3302 H 314.163 4.28854 -3.47546 0
M  V30 3303 H 316.639 3.8405 -1.60139 0
M  V30 3304 H 315.515 5.22053 -1.69564 0
M  V30 3305 H 315.776 4.41828 -0.154938 0
M  V30 3306 N 314.835 0.952656 1.25548 0
M  V30 3307 C 316.081 0.607272 1.93494 0
M  V30 3308 C 316.414 -0.853245 1.74452 0
M  V30 3309 O 315.689 -1.61194 1.08843 0
M  V30 3310 C 315.972 0.96435 3.46947 0
M  V30 3311 C 315.825 2.48045 3.75225 0
M  V30 3312 C 317.144 0.487987 4.37386 0
M  V30 3313 H 314.263 0.222096 0.702739 0
M  V30 3314 H 316.905 1.18895 1.48203 0
M  V30 3315 H 315.055 0.469361 3.85654 0
M  V30 3316 H 316.727 3.04905 3.46166 0
M  V30 3317 H 314.97 2.919 3.209 0
M  V30 3318 H 315.641 2.6808 4.82532 0
M  V30 3319 H 318.117 0.912558 4.0597 0
M  V30 3320 H 316.993 0.766547 5.43521 0
M  V30 3321 H 317.254 -0.612063 4.37843 0
M  V30 3322 N 316.313 -1.40141 0.720998 0
M  V30 3323 C 317.724 -1.83678 0.334553 0
M  V30 3324 C 318.075 -1.6027 -1.13173 0
M  V30 3325 O 317.2 -1.08643 -1.87152 0
M  V30 3326 C 317.795 -3.33437 0.600437 0
M  V30 3327 C 316.354 -3.75447 0.267642 0
M  V30 3328 C 315.501 -2.63296 0.870097 0
M  V30 3329 H 318.452 -1.29331 0.919732 0
M  V30 3330 H 318.473 -3.80269 -0.132517 0
M  V30 3331 H 317.985 -3.50442 1.66768 0
M  V30 3332 H 316.086 -3.64035 -0.794329 0
M  V30 3333 H 316.199 -4.73344 0.74042 0
M  V30 3334 H 314.563 -2.52954 0.297739 0
M  V30 3335 H 315.346 -2.83112 1.94172 0
M  V30 3336 N 317.792 -0.46758 -1.50504 0
M  V30 3337 C 319.208 -0.121533 -1.59137 0
M  V30 3338 C 319.408 1.3717 -1.47603 0
M  V30 3339 O 318.464 2.14464 -1.33272 0
M  V30 3340 C 319.777 -0.6686 -2.93173 0
M  V30 3341 C 321.325 -0.631716 -3.06559 0
M  V30 3342 C 321.8 -1.15627 -4.43164 0
M  V30 3343 N 323.291 -1.11553 -4.49567 0
M  V30 3344 C 324.026 -1.49195 -5.5365 0
M  V30 3345 N 323.522 -1.94269 -6.65005 0
M  V30 3346 N 325.315 -1.4082 -5.44175 0
M  V30 3347 H 317.466 -1.4388 -1.56245 0
M  V30 3348 H 319.729 -0.594784 -0.738198 0
M  V30 3349 H 319.435 -1.71453 -3.07078 0
M  V30 3350 H 319.309 -0.11021 -3.77039 0
M  V30 3351 H 321.696 0.405297 -2.92304 0
M  V30 3352 H 321.777 -1.22687 -2.24458 0
M  V30 3353 H 321.421 -2.1919 -4.58168 0
M  V30 3354 H 321.351 -0.537365 -5.23851 0
M  V30 3355 H 323.842 -0.784895 -3.69659 0
M  V30 3356 H 324.155 -2.21148 -7.40482 0
M  V30 3357 H 322.5 -1.98219 -6.66134 0
M  V30 3358 H 325.691 -1.0545 -4.56068 0
M  V30 3359 H 325.864 -1.70481 -6.25172 0
M  V30 3360 N 319.27 1.56325 -0.20005 0
M  V30 3361 C 320.218 2.20666 0.735482 0
M  V30 3362 C 321.212 1.17934 1.21605 0
M  V30 3363 O 322.418 1.36068 1.17837 0
M  V30 3364 H 318.793 0.70725 0.255542 0
M  V30 3365 H 320.764 2.9792 0.169166 0
M  V30 3366 C 319.513 2.88391 1.94232 0
M  V30 3367 H 318.836 3.67185 1.58161 0
M  V30 3368 H 320.276 3.3684 2.57517 0
M  V30 3369 C 318.735 1.89692 2.78421 0
M  V30 3370 O 319.265 1.40032 3.76502 0
M  V30 3371 N 317.471 1.57813 2.44015 0
M  V30 3372 H 317.018 1.9839 1.64314 0
M  V30 3373 H 316.976 0.920325 3.00628 0
M  V30 3374 N 320.748 -0.0735177 1.57428 0
M  V30 3375 C 321.678 -1.0879 2.06608 0
M  V30 3376 C 322.659 -1.40473 0.959237 0
M  V30 3377 O 323.844 -1.5013 1.23185 0
M  V30 3378 C 320.974 -2.40183 2.50857 0
M  V30 3379 C 319.928 -2.22858 3.65402 0
M  V30 3380 C 319.254 -3.59619 3.957 0
M  V30 3381 C 320.554 -1.65123 4.95511 0
M  V30 3382 H 322.248 -0.678673 2.91607 0
M  V30 3383 H 319.794 -0.325013 1.40284 0
M  V30 3384 H 321.747 -3.11437 2.83874 0
M  V30 3385 H 320.471 -2.83083 1.62885 0
M  V30 3386 H 319.13 -1.54045 3.32664 0
M  V30 3387 H 318.778 -4.00086 3.04861 0
M  V30 3388 H 318.478 -3.48866 4.72828 0
M  V30 3389 H 320.002 -4.32306 4.31212 0
M  V30 3390 H 321.416 -2.26241 5.26771 0
M  V30 3391 H 319.813 -1.65071 5.7695 0
M  V30 3392 H 320.883 -0.612559 4.81015 0
M  V30 3393 N 322.226 -1.5378 -0.344866 0
M  V30 3394 C 323.637 -1.62428 -0.920552 0
M  V30 3395 C 323.988 -0.504747 -1.89596 0
M  V30 3396 O 323.113 0.365711 -2.13287 0
M  V30 3397 C 323.708 -2.94419 -1.67639 0
M  V30 3398 C 322.267 -3.05333 -2.20111 0
M  V30 3399 C 321.414 -2.57866 -1.01982 0
M  V30 3400 H 324.365 -1.58222 -0.123042 0
M  V30 3401 H 324.386 -2.83384 -2.53917 0
M  V30 3402 H 323.898 -3.7588 -0.966224 0
M  V30 3403 H 321.999 -2.28502 -2.94308 0
M  V30 3404 H 322.112 -4.10778 -2.46573 0
M  V30 3405 H 320.476 -2.13241 -1.39285 0
M  V30 3406 H 321.259 -3.41765 -0.324308 0
M  V30 3407 N 323.704 0.605807 -1.45491 0
M  V30 3408 C 324.929 1.39625 -1.53361 0
M  V30 3409 C 325.354 1.87351 -0.167645 0
M  V30 3410 O 324.712 1.60243 0.848051 0
M  V30 3411 C 324.76 2.57559 -2.5238 0
M  V30 3412 O 323.864 3.58248 -2.04285 0
M  V30 3413 H 323.205 0.416771 -0.516912 0
M  V30 3414 H 325.735 0.737103 -1.90861 0
M  V30 3415 H 325.745 3.0478 -2.71244 0
M  V30 3416 H 324.42 2.22171 -3.51586 0
M  V30 3417 H 322.997 3.17664 -1.95305 0
M  V30 3418 N 325.182 1.32811 0.848464 0
M  V30 3419 C 326.407 1.26882 1.6406 0
M  V30 3420 C 326.832 -0.15913 1.87426 0
M  V30 3421 O 326.19 -1.11258 1.43148 0
M  V30 3422 C 326.238 2.03997 2.97351 0
M  V30 3423 O 325.342 1.39201 3.88197 0
M  V30 3424 H 324.683 0.436982 0.499943 0
M  V30 3425 H 327.213 1.75224 1.0563 0
M  V30 3426 H 327.223 2.14403 3.47124 0
M  V30 3427 H 325.898 3.0783 2.79666 0
M  V30 3428 H 324.475 1.37381 3.46671 0
M  V30 3429 N 326.66 -1.06551 1.16123 0
M  V30 3430 C 327.59 -2.15935 0.88851 0
M  V30 3431 C 328.571 -1.69306 -0.164135 0
M  V30 3432 O 329.756 -1.94193 -0.0167857 0
M  V30 3433 C 326.886 -3.45149 0.385942 0
M  V30 3434 C 325.84 -4.05271 1.3762 0
M  V30 3435 C 325.166 -5.29664 0.732137 0
M  V30 3436 C 326.466 -4.44355 2.74493 0
M  V30 3437 H 328.16 -2.39006 1.80323 0
M  V30 3438 H 325.706 -1.14866 0.868435 0
M  V30 3439 H 327.659 -4.21004 0.182647 0
M  V30 3440 H 326.383 -3.21689 -0.564274 0
M  V30 3441 H 325.042 -3.3147 1.56599 0
M  V30 3442 H 324.69 -5.02499 -0.224483 0
M  V30 3443 H 324.39 -5.70848 1.39307 0
M  V30 3444 H 325.914 -6.08218 0.538802 0
M  V30 3445 H 327.328 -5.11303 2.59311 0
M  V30 3446 H 325.725 -4.96515 3.37035 0
M  V30 3447 H 326.795 -3.55339 3.29943 0
M  V30 3448 N 328.138 -0.959301 -1.25041 0
M  V30 3449 C 329.048 -0.489994 -2.29426 0
M  V30 3450 C 330.064 0.444944 -1.68215 0
M  V30 3451 O 331.24 0.320046 -1.98841 0
M  V30 3452 C 328.305 0.220309 -3.45999 0
M  V30 3453 C 327.366 -0.753418 -4.22637 0
M  V30 3454 C 326.599 -0.076918 -5.33645 0
M  V30 3455 O 326.822 1.13649 -5.58963 0
M  V30 3456 O 325.756 -0.764824 -5.97021 0
M  V30 3457 H 329.582 -1.35755 -2.71669 0
M  V30 3458 H 327.167 -0.725961 -1.30576 0
M  V30 3459 H 329.049 0.619677 -4.16819 0
M  V30 3460 H 327.724 1.06296 -3.0575 0
M  V30 3461 H 326.631 -1.20308 -3.54227 0
M  V30 3462 H 327.964 -1.56423 -4.66683 0
M  V30 3463 N 329.616 1.39756 -0.72842 0
M  V30 3464 C 330.846 2.04651 -0.283117 0
M  V30 3465 C 331.254 1.5502 1.08469 0
M  V30 3466 O 330.597 0.707343 1.69536 0
M  V30 3467 C 330.659 3.58947 -0.199309 0
M  V30 3468 C 330.323 4.31525 -1.5045 0
M  V30 3469 C 331.32 4.5861 -2.44894 0
M  V30 3470 C 329.005 4.70195 -1.76698 0
M  V30 3471 C 330.999 5.23366 -3.63822 0
M  V30 3472 C 328.686 5.3468 -2.95906 0
M  V30 3473 C 329.684 5.61198 -3.89289 0
M  V30 3474 O 329.372 6.24347 -5.06404 0
M  V30 3475 H 329.104 0.664777 -0.122666 0
M  V30 3476 H 331.658 1.79913 -0.990987 0
M  V30 3477 H 329.888 3.82556 0.56461 0
M  V30 3478 H 331.577 4.0534 0.213125 0
M  V30 3479 H 332.343 4.29187 -2.25883 0
M  V30 3480 H 328.222 4.48916 -1.04859 0
M  V30 3481 H 331.766 5.4398 -4.36728 0
M  V30 3482 H 327.663 5.63524 -3.14819 0
M  V30 3483 H 328.431 6.42842 -5.06652 0
M  V30 3484 N 331.094 0.475555 1.50254 0
M  V30 3485 C 332.024 -0.30611 2.31485 0
M  V30 3486 C 333.005 -0.986228 1.38591 0
M  V30 3487 O 334.19 -0.982541 1.67511 0
M  V30 3488 C 331.32 -1.38588 3.1845 0
M  V30 3489 C 330.274 -0.827115 4.19932 0
M  V30 3490 C 329.6 -2.00551 4.95665 0
M  V30 3491 C 330.9 0.16463 5.2204 0
M  V30 3492 H 332.594 0.371866 2.97082 0
M  V30 3493 H 330.14 0.180282 1.42867 0
M  V30 3494 H 332.093 -1.94023 3.74076 0
M  V30 3495 H 330.817 -2.09269 2.50747 0
M  V30 3496 H 329.476 -0.294702 3.65414 0
M  V30 3497 H 329.124 -2.6994 4.2443 0
M  V30 3498 H 328.824 -1.63784 5.64313 0
M  V30 3499 H 330.348 -2.56468 5.54127 0
M  V30 3500 H 331.762 -0.300699 5.72511 0
M  V30 3501 H 330.159 0.446813 5.98434 0
M  V30 3502 H 331.229 1.08905 4.72512 0
M  V30 3503 N 332.573 -1.56217 0.208337 0
M  V30 3504 C 333.503 -2.22694 -0.702116 0
M  V30 3505 C 334.484 -1.19432 -1.2112 0
M  V30 3506 O 335.669 -1.47978 -1.25762 0
M  V30 3507 C 332.799 -2.8966 -1.9161 0
M  V30 3508 C 331.753 -3.9928 -1.5414 0
M  V30 3509 C 331.079 -4.53476 -2.83308 0
M  V30 3510 C 332.379 -5.17012 -0.741339 0
M  V30 3511 H 334.073 -2.99034 -0.147898 0
M  V30 3512 H 331.619 -1.43831 -0.0696951 0
M  V30 3513 H 333.572 -3.34852 -2.55836 0
M  V30 3514 H 332.296 -2.10746 -2.49507 0
M  V30 3515 H 330.955 -3.54799 -0.922668 0
M  V30 3516 H 330.603 -3.71308 -3.39322 0
M  V30 3517 H 330.303 -5.27451 -2.58976 0
M  V30 3518 H 331.827 -5.01378 -3.485 0
M  V30 3519 H 333.241 -5.58667 -1.28699 0
M  V30 3520 H 331.638 -5.97137 -0.595627 0
M  V30 3521 H 332.708 -4.8423 0.254851 0
M  V30 3522 N 334.051 0.0651679 -1.57465 0
M  V30 3523 C 334.981 1.07693 -2.07182 0
M  V30 3524 C 335.962 1.39962 -0.966673 0
M  V30 3525 O 337.147 1.49475 -1.2398 0
M  V30 3526 C 334.277 2.3885 -2.52127 0
M  V30 3527 C 333.231 2.20917 -3.66579 0
M  V30 3528 C 332.557 3.57515 -3.97601 0
M  V30 3529 C 333.857 1.62493 -4.9638 0
M  V30 3530 H 335.551 0.663199 -2.91962 0
M  V30 3531 H 333.097 0.317569 -1.40455 0
M  V30 3532 H 335.05 3.09928 -2.85522 0
M  V30 3533 H 333.774 2.82215 -1.64384 0
M  V30 3534 H 332.433 1.52279 -3.33477 0
M  V30 3535 H 332.081 3.98463 -3.06979 0
M  V30 3536 H 331.781 3.46353 -4.74672 0
M  V30 3537 H 333.305 4.30013 -4.33499 0
M  V30 3538 H 334.719 2.23445 -5.27963 0
M  V30 3539 H 333.116 1.62009 -5.77818 0
M  V30 3540 H 334.186 0.587041 -4.81333 0
M  V30 3541 N 335.529 1.53961 0.336706 0
M  V30 3542 C 336.754 1.75797 1.10046 0
M  V30 3543 C 337.179 0.498985 1.81361 0
M  V30 3544 O 336.537 -0.548769 1.72795 0
M  V30 3545 C 336.585 2.94257 2.08436 0
M  V30 3546 O 335.689 2.64883 3.16087 0
M  V30 3547 H 335.03 0.582936 0.317934 0
M  V30 3548 H 337.56 2.00945 0.38501 0
M  V30 3549 H 337.57 3.21237 2.51537 0
M  V30 3550 H 336.245 3.85564 1.55927 0
M  V30 3551 H 334.822 2.48812 2.77753 0
M  V30 3552 N 337.007 -0.598083 1.45811 0
M  V30 3553 C 338.237 -1.38121 1.53643 0
M  V30 3554 C 338.645 -1.88425 0.171081 0
M  V30 3555 O 337.988 -1.63409 -0.839237 0
M  V30 3556 C 338.05 -2.61432 2.46766 0
M  V30 3557 C 337.714 -2.32702 3.93318 0
M  V30 3558 C 338.711 -1.92479 4.82957 0
M  V30 3559 C 336.396 -2.45321 4.38318 0
M  V30 3560 C 338.39 -1.65248 6.15607 0
M  V30 3561 C 336.077 -2.17703 5.71007 0
M  V30 3562 C 337.075 -1.7773 6.5947 0
M  V30 3563 O 336.763 -1.50441 7.89698 0
M  V30 3564 H 336.495 -0.428863 0.522544 0
M  V30 3565 H 339.049 -0.73557 1.91777 0
M  V30 3566 H 337.279 -3.28749 2.0362 0
M  V30 3567 H 338.968 -3.23487 2.45175 0
M  V30 3568 H 339.734 -1.82258 4.49452 0
M  V30 3569 H 335.613 -2.75399 3.69697 0
M  V30 3570 H 339.157 -1.33973 6.84614 0
M  V30 3571 H 335.054 -2.27544 6.04065 0
M  V30 3572 H 335.822 -1.64415 8.01817 0
M  V30 3573 N 338.485 -1.33259 -0.841409 0
M  V30 3574 C 339.433 -1.23279 -1.97244 0
M  V30 3575 C 340.427 -0.134706 -1.68864 0
M  V30 3576 O 341.633 -0.298501 -1.77508 0
M  V30 3577 H 338.008 -0.382497 -0.647457 0
M  V30 3578 H 339.979 -2.18906 -2.02787 0
M  V30 3579 C 338.728 -0.986268 -3.33419 0
M  V30 3580 H 338.051 -1.82347 -3.55794 0
M  V30 3581 H 339.491 -0.956728 -4.13065 0
M  V30 3582 C 337.95 0.310842 -3.35463 0
M  V30 3583 O 338.48 1.31838 -3.79449 0
M  V30 3584 N 336.686 0.337485 -2.88634 0
M  V30 3585 H 336.233 -0.482967 -2.53032 0
M  V30 3586 H 336.191 1.20518 -2.90384 0
M  V30 3587 N 339.963 1.05934 -1.16686 0
M  V30 3588 C 341.379 1.30938 -0.912542 0
M  V30 3589 C 341.579 1.96803 0.432533 0
M  V30 3590 O 340.635 2.23693 1.17123 0
M  V30 3591 C 341.948 2.18649 -2.06429 0
M  V30 3592 C 343.496 2.32055 -2.10047 0
M  V30 3593 C 343.971 3.23122 -3.24586 0
M  V30 3594 N 345.462 3.30706 -3.24327 0
M  V30 3595 C 346.197 4.01273 -4.09594 0
M  V30 3596 N 345.693 4.74332 -5.04956 0
M  V30 3597 N 347.486 3.97361 -3.97569 0
M  V30 3598 H 339.637 0.615777 -2.03278 0
M  V30 3599 H 341.9 0.334077 -0.887185 0
M  V30 3600 H 341.606 1.77534 -3.03603 0
M  V30 3601 H 341.48 3.19252 -2.00894 0
M  V30 3602 H 343.867 2.72415 -1.13464 0
M  V30 3603 H 343.948 1.31107 -2.19647 0
M  V30 3604 H 343.592 2.83477 -4.2143 0
M  V30 3605 H 343.522 4.24057 -3.12223 0
M  V30 3606 H 346.013 2.78644 -2.55276 0
M  V30 3607 H 346.326 5.25716 -5.6643 0
M  V30 3608 H 344.671 4.733 -5.08933 0
M  V30 3609 H 347.862 3.39405 -3.22369 0
M  V30 3610 H 348.035 4.52089 -4.64241 0
M  V30 3611 N 341.441 0.965919 1.2453 0
M  V30 3612 C 342.69 0.622437 1.91856 0
M  V30 3613 C 343.003 -0.846006 1.76358 0
M  V30 3614 O 344.209 -1.29993 2.38357 0
M  V30 3615 C 342.665 1.0626 3.43856 0
M  V30 3616 C 342.273 2.55437 3.68043 0
M  V30 3617 C 344.017 0.792183 4.17043 0
M  V30 3618 C 341.924 2.93196 5.13605 0
M  V30 3619 H 340.854 0.229092 0.718354 0
M  V30 3620 H 343.505 1.17189 1.41206 0
M  V30 3621 H 341.887 0.441476 3.93531 0
M  V30 3622 H 343.061 3.22665 3.28974 0
M  V30 3623 H 341.376 2.8007 3.08139 0
M  V30 3624 H 343.973 1.05031 5.24283 0
M  V30 3625 H 344.316 -0.271584 4.15413 0
M  V30 3626 H 344.849 1.37419 3.73311 0
M  V30 3627 H 341.588 3.98636 5.20355 0
M  V30 3628 H 341.108 2.30651 5.53679 0
M  V30 3629 H 342.787 2.83004 5.81823 0
M  V30 3630 N 342.919 -1.39368 0.735821 0
M  V30 3631 C 344.165 -2.00794 0.284544 0
M  V30 3632 C 344.498 -1.58255 -1.12557 0
M  V30 3633 O 343.773 -0.811819 -1.76748 0
M  V30 3634 C 344.056 -3.58011 0.387337 0
M  V30 3635 C 343.909 -4.10566 1.83728 0
M  V30 3636 C 345.228 -4.395 -0.22975 0
M  V30 3637 H 342.347 -0.729501 0.104866 0
M  V30 3638 H 344.989 -1.65564 0.93213 0
M  V30 3639 H 343.139 -3.88154 -0.164006 0
M  V30 3640 H 344.811 -3.91139 2.44556 0
M  V30 3641 H 343.054 -3.64095 2.35833 0
M  V30 3642 H 343.725 -5.19702 1.86047 0
M  V30 3643 H 346.201 -4.15406 0.240257 0
M  V30 3644 H 345.077 -5.48752 -0.127485 0
M  V30 3645 H 345.338 -4.22062 -1.3159 0
M  V30 3646 N 344.397 -0.483516 -1.5 0
M  V30 3647 C 345.344 0.304164 -2.28787 0
M  V30 3648 C 346.314 0.976114 -1.34392 0
M  V30 3649 O 347.499 0.986156 -1.63339 0
M  V30 3650 C 344.639 1.37298 -3.16612 0
M  V30 3651 C 343.752 0.714561 -4.26049 0
M  V30 3652 C 342.887 1.76232 -5.01114 0
M  V30 3653 C 341.926 1.08483 -6.0241 0
M  V30 3654 N 341.063 2.076 -6.70706 0
M  V30 3655 H 345.903 -0.373981 -2.95644 0
M  V30 3656 H 343.44 -0.196275 -1.45785 0
M  V30 3657 H 345.398 2.00445 -3.65893 0
M  V30 3658 H 344.028 2.02012 -2.51776 0
M  V30 3659 H 343.08 -0.0297798 -3.80388 0
M  V30 3660 H 344.392 0.180383 -4.98474 0
M  V30 3661 H 343.546 2.46929 -5.54176 0
M  V30 3662 H 342.285 2.33033 -4.28424 0
M  V30 3663 H 341.29 0.363545 -5.48597 0
M  V30 3664 H 342.515 0.523551 -6.77079 0
M  V30 3665 H 340.461 2.63394 -6.00799 0
M  V30 3666 H 340.378 1.59201 -7.39047 0
M  V30 3667 H 341.646 2.77639 -7.2838 0
M  V30 3668 N 345.875 1.56104 -0.216619 0
M  V30 3669 C 346.805 2.23063 0.690296 0
M  V30 3670 C 347.786 1.20072 1.20485 0
M  V30 3671 O 348.971 1.48643 1.24976 0
M  V30 3672 C 346.101 2.90672 1.90072 0
M  V30 3673 C 345.055 4.00092 1.5202 0
M  V30 3674 C 344.381 4.54972 2.80899 0
M  V30 3675 C 345.681 5.17398 0.71391 0
M  V30 3676 H 347.375 2.99109 0.132038 0
M  V30 3677 H 344.921 1.43866 0.0620664 0
M  V30 3678 H 346.874 3.36204 2.54057 0
M  V30 3679 H 345.598 2.12066 2.48386 0
M  V30 3680 H 344.257 3.55283 0.903839 0
M  V30 3681 H 343.905 3.73102 3.37348 0
M  V30 3682 H 343.605 5.28817 2.56176 0
M  V30 3683 H 345.129 5.0322 3.45836 0
M  V30 3684 H 346.543 5.59342 1.25735 0
M  V30 3685 H 344.94 5.97444 0.563951 0
M  V30 3686 H 346.01 4.84088 -0.280527 0
M  V30 3687 N 347.353 -0.0568162 1.57498 0
M  V30 3688 C 348.316 -1.05038 2.03715 0
M  V30 3689 C 349.316 -1.30709 0.936577 0
M  V30 3690 O 350.506 -1.26178 1.20103 0
M  V30 3691 C 347.638 -2.39034 2.43055 0
M  V30 3692 H 348.831 -0.651715 2.92733 0
M  V30 3693 H 346.384 -0.302947 1.53336 0
M  V30 3694 H 347.119 -2.83703 1.57108 0
M  V30 3695 H 346.904 -2.21739 3.2338 0
M  V30 3696 H 348.394 -3.10421 2.79336 0
M  V30 3697 N 348.832 -1.54138 -0.328536 0
M  V30 3698 C 350.243 -1.63395 -0.903272 0
M  V30 3699 C 350.594 -0.524828 -1.8905 0
M  V30 3700 O 349.719 0.343068 -2.13663 0
M  V30 3701 C 350.314 -2.9618 -1.64507 0
M  V30 3702 C 348.873 -3.0765 -2.1686 0
M  V30 3703 C 348.02 -2.58933 -0.992416 0
M  V30 3704 H 350.971 -1.58344 -0.106253 0
M  V30 3705 H 350.992 -2.86061 -2.50897 0
M  V30 3706 H 350.504 -3.76884 -0.926302 0
M  V30 3707 H 348.605 -2.31611 -2.91868 0
M  V30 3708 H 348.718 -4.1337 -2.42202 0
M  V30 3709 H 347.082 -2.14706 -1.37016 0
M  V30 3710 H 347.865 -3.42089 -0.288041 0
M  V30 3711 N 350.31 0.590341 -1.46126 0
M  V30 3712 C 351.22 1.72793 -1.58681 0
M  V30 3713 C 352.236 1.67516 -0.470566 0
M  V30 3714 O 353.412 1.87562 -0.733642 0
M  V30 3715 C 350.477 3.09287 -1.5666 0
M  V30 3716 C 349.538 3.25886 -2.79458 0
M  V30 3717 C 348.771 4.55869 -2.77524 0
M  V30 3718 O 348.994 5.3928 -1.85832 0
M  V30 3719 O 347.928 4.75552 -3.68964 0
M  V30 3720 H 351.754 1.65149 -2.54872 0
M  V30 3721 H 349.339 0.756486 -1.28832 0
M  V30 3722 H 351.221 3.90577 -1.58202 0
M  V30 3723 H 349.896 3.17385 -0.636271 0
M  V30 3724 H 348.803 2.44119 -2.83472 0
M  V30 3725 H 350.136 3.22675 -3.71674 0
M  V30 3726 N 351.788 1.33704 0.83433 0
M  V30 3727 C 353.065 1.16011 1.57483 0
M  V30 3728 C 353.445 -0.27176 2.09343 0
M  V30 3729 O 352.793 -1.27146 1.89858 0
M  V30 3730 C 353.003 2.20507 2.70514 0
M  V30 3731 C 354.351 2.54898 3.39577 0
M  V30 3732 O 355.375 2.19209 2.80759 0
M  V30 3733 O 354.234 3.16158 4.45765 0
M  V30 3734 H 351.328 0.448992 0.694503 0
M  V30 3735 H 353.874 1.453 0.876691 0
M  V30 3736 H 352.646 3.16667 2.29865 0
M  V30 3737 H 352.269 1.92329 3.47987 0
M  V30 3738 N 353.266 -1.05314 1.17247 0
M  V30 3739 C 354.196 -2.1498 0.911362 0
M  V30 3740 C 355.177 -1.69471 -0.146169 0
M  V30 3741 O 356.362 -1.942 0.003812 0
M  V30 3742 C 353.492 -3.4472 0.422528 0
M  V30 3743 C 352.446 -4.03789 1.4191 0
M  V30 3744 C 351.772 -5.28858 0.788274 0
M  V30 3745 C 353.072 -4.41418 2.7919 0
M  V30 3746 H 354.766 -2.3708 1.82848 0
M  V30 3747 H 352.312 -1.13938 0.880569 0
M  V30 3748 H 354.265 -4.20787 0.227289 0
M  V30 3749 H 352.989 -3.22269 -0.530123 0
M  V30 3750 H 351.648 -3.2979 1.60106 0
M  V30 3751 H 351.296 -5.02709 -0.171173 0
M  V30 3752 H 350.996 -5.69338 1.45353 0
M  V30 3753 H 352.52 -6.07612 0.603282 0
M  V30 3754 H 353.934 -5.08524 2.64719 0
M  V30 3755 H 352.331 -4.92913 3.42282 0
M  V30 3756 H 353.401 -3.51819 3.33693 0
M  V30 3757 N 354.744 -0.972509 -1.24016 0
M  V30 3758 C 355.707 -0.511403 -2.23422 0
M  V30 3759 C 356.707 0.394679 -1.55881 0
M  V30 3760 O 357.897 0.189469 -1.73167 0
M  V30 3761 C 355.029 0.258769 -3.39916 0
M  V30 3762 H 356.222 -1.39024 -2.6573 0
M  V30 3763 H 353.775 -0.757585 -1.36713 0
M  V30 3764 H 354.51 1.1545 -3.03054 0
M  V30 3765 H 354.295 -0.391522 -3.9014 0
M  V30 3766 H 355.785 0.570244 -4.13688 0
M  V30 3767 N 356.222 1.38976 -0.743202 0
M  V30 3768 C 357.17 2.32394 -0.0978389 0
M  V30 3769 C 358.164 1.53486 0.716824 0
M  V30 3770 O 359.37 1.69092 0.617088 0
M  V30 3771 H 355.745 0.75189 -0.0128402 0
M  V30 3772 H 357.716 2.84441 -0.901981 0
M  V30 3773 C 356.465 3.38629 0.789036 0
M  V30 3774 H 355.788 3.99432 0.171559 0
M  V30 3775 H 357.228 4.06426 1.20807 0
M  V30 3776 C 355.687 2.76347 1.92702 0
M  V30 3777 O 356.217 2.64836 3.02034 0
M  V30 3778 N 354.423 2.34311 1.71891 0
M  V30 3779 H 353.97 2.43873 0.829675 0
M  V30 3780 H 353.928 1.9298 2.48205 0
M  V30 3781 N 357.7 0.491464 1.49741 0
M  V30 3782 C 358.63 -0.28154 2.31796 0
M  V30 3783 C 359.611 -0.971473 1.3963 0
M  V30 3784 O 360.796 -0.964719 1.68543 0
M  V30 3785 C 357.926 -1.35203 3.19902 0
M  V30 3786 C 356.88 -0.782529 4.20786 0
M  V30 3787 C 356.206 -1.95283 4.97764 0
M  V30 3788 C 357.506 0.21999 5.21837 0
M  V30 3789 H 359.2 0.403355 2.96671 0
M  V30 3790 H 356.746 0.195425 1.42668 0
M  V30 3791 H 358.699 -1.90045 3.76113 0
M  V30 3792 H 357.423 -2.06598 2.52953 0
M  V30 3793 H 356.082 -0.255928 3.65706 0
M  V30 3794 H 355.73 -2.65423 4.2727 0
M  V30 3795 H 355.43 -1.57789 5.66018 0
M  V30 3796 H 356.954 -2.50577 5.56816 0
M  V30 3797 H 358.368 -0.23996 5.72798 0
M  V30 3798 H 356.765 0.51026 5.97927 0
M  V30 3799 H 357.835 1.13911 4.7133 0
M  V30 3800 N 359.178 -1.55987 0.224894 0
M  V30 3801 C 360.406 -2.02784 -0.410665 0
M  V30 3802 C 360.821 -1.10464 -1.53112 0
M  V30 3803 O 360.178 -0.114871 -1.82138 0
M  V30 3804 C 360.229 -3.49087 -0.939165 0
M  V30 3805 O 359.95 -4.37887 0.136614 0
M  V30 3806 C 361.451 -4.11543 -1.64763 0
M  V30 3807 H 358.671 -0.663484 -0.100148 0
M  V30 3808 H 361.215 -2.01614 0.342326 0
M  V30 3809 H 359.37 -3.50861 -1.64242 0
M  V30 3810 H 359.784 -5.23849 -0.261155 0
M  V30 3811 H 361.258 -5.15673 -1.96939 0
M  V30 3812 H 361.735 -3.56736 -2.56195 0
M  V30 3813 H 362.341 -4.13629 -0.989503 0
M  V30 3814 N 360.656 0.0484629 -1.57525 0
M  V30 3815 C 361.619 1.03956 -2.04269 0
M  V30 3816 C 362.619 1.30211 -0.943496 0
M  V30 3817 O 363.809 1.25539 -1.20771 0
M  V30 3818 C 360.941 2.37742 -2.44319 0
M  V30 3819 H 362.134 0.636182 -2.93075 0
M  V30 3820 H 359.687 0.294811 -1.53494 0
M  V30 3821 H 360.422 2.82866 -1.5861 0
M  V30 3822 H 360.207 2.20021 -3.24551 0
M  V30 3823 H 361.697 3.08936 -2.80978 0
M  V30 3824 N 362.134 1.5431 0.320358 0
M  V30 3825 C 363.064 1.86912 1.3995 0
M  V30 3826 C 364.045 0.726211 1.53819 0
M  V30 3827 O 365.23 0.980233 1.67646 0
M  V30 3828 C 362.36 2.09932 2.7667 0
M  V30 3829 C 361.314 3.25776 2.77586 0
M  V30 3830 C 360.64 3.34173 4.17412 0
M  V30 3831 C 361.94 4.6335 2.41048 0
M  V30 3832 H 363.634 2.77292 1.12914 0
M  V30 3833 H 361.18 1.33421 0.541738 0
M  V30 3834 H 363.133 2.31324 3.52232 0
M  V30 3835 H 361.857 1.16304 3.0519 0
M  V30 3836 H 360.516 3.04276 2.04479 0
M  V30 3837 H 360.164 2.38098 4.43078 0
M  V30 3838 H 359.864 4.12033 4.18931 0
M  V30 3839 H 361.388 3.57803 4.94782 0
M  V30 3840 H 362.802 4.84602 3.06324 0
M  V30 3841 H 361.199 5.43782 2.53813 0
M  V30 3842 H 362.269 4.65381 1.36193 0
M  V30 3843 N 363.613 -0.582584 1.46437 0
M  V30 3844 C 365.029 -0.905962 1.31394 0
M  V30 3845 C 365.229 -1.99468 0.285476 0
M  V30 3846 O 364.285 -2.50566 -0.311914 0
M  V30 3847 C 365.598 -1.3232 2.70022 0
M  V30 3848 C 367.146 -1.43604 2.78113 0
M  V30 3849 C 367.621 -1.88694 4.17323 0
M  V30 3850 N 369.112 -1.95887 4.19741 0
M  V30 3851 C 369.847 -2.32051 5.24347 0
M  V30 3852 N 369.343 -2.67006 6.39281 0
M  V30 3853 N 371.136 -2.32606 5.11713 0
M  V30 3854 H 363.287 0.1366 2.1196 0
M  V30 3855 H 365.55 -0.00155736 0.947999 0
M  V30 3856 H 365.256 -0.597242 3.46592 0
M  V30 3857 H 365.13 -2.28469 3.00136 0
M  V30 3858 H 367.517 -2.15286 2.01832 0
M  V30 3859 H 367.598 -0.457059 2.51684 0
M  V30 3860 H 367.242 -1.1759 4.941 0
M  V30 3861 H 367.172 -2.8755 4.4116 0
M  V30 3862 H 369.663 -1.71362 3.36814 0
M  V30 3863 H 369.976 -2.93554 7.14875 0
M  V30 3864 H 368.321 -2.64644 6.42642 0
M  V30 3865 H 371.512 -2.04721 4.2096 0
M  V30 3866 H 371.685 -2.60462 5.93349 0
M  V30 3867 N 365.091 -1.34144 -0.827227 0
M  V30 3868 C 366.337 -1.26446 -1.58554 0
M  V30 3869 C 366.67 0.1664 -1.93486 0
M  V30 3870 O 365.945 1.1107 -1.59667 0
M  V30 3871 C 366.228 -2.15111 -2.8879 0
M  V30 3872 C 366.081 -3.66712 -2.60465 0
M  V30 3873 C 367.4 -2.03311 -3.90324 0
M  V30 3874 H 364.519 -0.46067 -0.575284 0
M  V30 3875 H 367.161 -1.64356 -0.953269 0
M  V30 3876 H 365.311 -1.8291 -3.42748 0
M  V30 3877 H 366.983 -4.09259 -2.1285 0
M  V30 3878 H 365.226 -3.88014 -1.93978 0
M  V30 3879 H 365.897 -4.24112 -3.53317 0
M  V30 3880 H 368.373 -2.31574 -3.45706 0
M  V30 3881 H 367.249 -2.67582 -4.79261 0
M  V30 3882 H 367.51 -1.00879 -4.30437 0
M  V30 3883 N 366.569 1.04691 -1.17803 0
M  V30 3884 C 367.499 2.14494 -0.92275 0
M  V30 3885 C 368.48 1.69546 0.137179 0
M  V30 3886 O 369.665 1.94195 -0.0141108 0
M  V30 3887 C 366.795 3.44491 -0.440803 0
M  V30 3888 C 365.749 4.03031 -1.4405 0
M  V30 3889 C 365.075 5.28432 -0.81631 0
M  V30 3890 C 366.375 4.39932 -2.81527 0
M  V30 3891 H 368.069 2.36107 -1.84103 0
M  V30 3892 H 365.615 1.1347 -0.886599 0
M  V30 3893 H 367.568 4.2066 -0.249602 0
M  V30 3894 H 366.292 3.22546 0.513025 0
M  V30 3895 H 364.951 3.28937 -1.61853 0
M  V30 3896 H 364.599 5.02792 0.144511 0
M  V30 3897 H 364.299 5.68559 -1.48371 0
M  V30 3898 H 365.823 6.07284 -0.635496 0
M  V30 3899 H 367.237 5.07113 -2.67412 0
M  V30 3900 H 365.634 4.9109 -3.44892 0
M  V30 3901 H 366.704 3.50045 -3.35554 0
M  V30 3902 N 368.047 0.979072 1.23499 0
M  V30 3903 C 369.324 0.563674 1.87302 0
M  V30 3904 C 369.704 -0.959199 1.88049 0
M  V30 3905 O 369.052 -1.83535 1.36114 0
M  V30 3906 C 369.262 1.16822 3.28867 0
M  V30 3907 C 370.61 1.26014 4.0547 0
M  V30 3908 O 371.634 1.12158 3.38082 0
M  V30 3909 O 370.493 1.48044 5.26066 0
M  V30 3910 H 367.587 0.189602 0.804972 0
M  V30 3911 H 370.133 1.07407 1.31384 0
M  V30 3912 H 368.905 2.21049 3.22883 0
M  V30 3913 H 368.528 0.642564 3.92373 0
M  V30 3914 N 369.525 -1.3858 0.750561 0
M  V30 3915 C 370.771 -2.00481 0.305825 0
M  V30 3916 C 371.104 -1.5944 -1.10872 0
M  V30 3917 O 370.379 -0.83052 -1.75877 0
M  V30 3918 C 370.662 -3.5758 0.425287 0
M  V30 3919 C 370.515 -4.08594 1.88072 0
M  V30 3920 C 371.834 -4.39719 -0.183122 0
M  V30 3921 H 368.953 -0.728348 0.112598 0
M  V30 3922 H 371.595 -1.64566 0.949638 0
M  V30 3923 H 369.745 -3.88306 -0.122828 0
M  V30 3924 H 371.417 -3.88523 2.48691 0
M  V30 3925 H 369.66 -3.61574 2.39681 0
M  V30 3926 H 370.331 -5.177 1.91548 0
M  V30 3927 H 372.807 -4.15128 0.284303 0
M  V30 3928 H 371.683 -5.48856 -0.0692757 0
M  V30 3929 H 371.944 -4.23434 -1.27106 0
M  V30 3930 N 371.003 -0.499398 -1.49478 0
M  V30 3931 C 372.251 0.0455996 -2.02049 0
M  V30 3932 C 372.572 1.37633 -1.38138 0
M  V30 3933 O 371.842 1.8842 -0.536166 0
M  V30 3934 H 370.422 0.0198416 -0.746736 0
M  V30 3935 H 373.084 -0.656274 -1.83519 0
M  V30 3936 H 372.18 0.176445 -3.11601 0
M  V30 3937 N 372.481 1.55866 -0.233164 0
M  V30 3938 C 373.729 1.9821 0.394593 0
M  V30 3939 C 374.05 1.12234 1.59463 0
M  V30 3940 O 373.32 0.201981 1.94856 0
M  V30 3941 H 371.9 0.732034 0.148778 0
M  V30 3942 H 374.562 1.92107 -0.32876 0
M  V30 3943 H 373.658 3.03845 0.713063 0
M  V30 3944 N 373.959 -0.0401083 1.57549 0
M  V30 3945 C 374.907 -1.06264 2.06908 0
M  V30 3946 C 375.901 -1.38132 0.980608 0
M  V30 3947 O 377.107 -1.37167 1.16556 0
M  V30 3948 H 373.482 -0.360166 0.660139 0
M  V30 3949 H 375.453 -0.620445 2.91878 0
M  V30 3950 C 374.202 -2.35846 2.55483 0
M  V30 3951 H 373.525 -2.12183 3.38849 0
M  V30 3952 H 374.965 -3.05765 2.93741 0
M  V30 3953 C 373.424 -3.0404 1.45126 0
M  V30 3954 O 373.954 -3.93424 0.811216 0
M  V30 3955 N 372.16 -2.65184 1.18852 0
M  V30 3956 H 371.707 -1.92584 1.71083 0
M  V30 3957 H 371.665 -3.1113 0.452244 0
M  V30 3958 N 375.437 -1.54477 -0.31217 0
M  V30 3959 C 376.677 -1.74958 -1.05684 0
M  V30 3960 C 377.041 -0.518414 -1.84869 0
M  V30 3961 O 378.242 -0.600759 -2.62001 0
M  V30 3962 C 376.513 -2.99656 -1.94785 0
M  V30 3963 S 378.072 -3.4109 -2.76049 0
M  V30 3964 H 374.89 -0.615104 -0.356606 0
M  V30 3965 H 377.492 -1.92669 -0.331514 0
M  V30 3966 H 376.196 -3.87397 -1.35468 0
M  V30 3967 H 375.727 -2.845 -2.71704 0
M  V30 3968 H 377.742 -2.97283 -3.97287 0
M  V30 3969 N 376.915 0.57481 -1.46744 0
M  V30 3970 C 378.331 0.898981 -1.31873 0
M  V30 3971 C 378.531 1.99313 -0.29605 0
M  V30 3972 O 377.587 2.50728 0.298621 0
M  V30 3973 C 378.9 1.30886 -2.7072 0
M  V30 3974 C 380.448 1.42127 -2.78871 0
M  V30 3975 C 380.923 1.86478 -4.18318 0
M  V30 3976 N 382.414 1.93658 -4.20774 0
M  V30 3977 C 383.149 2.29267 -5.2557 0
M  V30 3978 N 382.645 2.63612 -6.40688 0
M  V30 3979 N 384.438 2.29889 -5.1294 0
M  V30 3980 H 376.589 -0.147839 -2.11885 0
M  V30 3981 H 378.852 -0.00347013 -0.947994 0
M  V30 3982 H 378.558 0.578853 -3.46904 0
M  V30 3983 H 378.432 2.26874 -3.01343 0
M  V30 3984 H 380.819 2.14213 -2.0297 0
M  V30 3985 H 380.9 0.443705 -2.51922 0
M  V30 3986 H 380.544 1.14968 -4.94717 0
M  V30 3987 H 380.474 2.85207 -4.42679 0
M  V30 3988 H 382.965 1.69574 -3.37718 0
M  V30 3989 H 383.278 2.89759 -7.16421 0
M  V30 3990 H 381.623 2.61232 -6.44036 0
M  V30 3991 H 384.814 2.02485 -4.22039 0
M  V30 3992 H 384.987 2.57312 -5.94722 0
M  V30 3993 N 378.394 1.34581 0.820102 0
M  V30 3994 C 379.81 1.14325 1.11364 0
M  V30 3995 C 380.01 -0.0533648 2.01429 0
M  V30 3996 O 379.066 -0.728044 2.41776 0
M  V30 3997 C 380.379 2.43983 1.75764 0
M  V30 3998 C 381.927 2.50065 1.88246 0
M  V30 3999 C 382.402 3.79732 2.56061 0
M  V30 4000 N 383.893 3.80908 2.63558 0
M  V30 4001 C 384.628 4.77961 3.16766 0
M  V30 4002 N 384.124 5.85397 3.70517 0
M  V30 4003 N 385.917 4.65413 3.15194 0
M  V30 4004 H 378.068 2.11246 0.221096 0
M  V30 4005 H 380.331 0.934289 0.160649 0
M  V30 4006 H 380.037 3.31651 1.1705 0
M  V30 4007 H 379.911 2.57531 2.75604 0
M  V30 4008 H 382.298 1.62834 2.46108 0
M  V30 4009 H 382.379 2.40442 0.873006 0
M  V30 4010 H 382.023 4.67354 1.98853 0
M  V30 4011 H 381.953 3.86639 3.57516 0
M  V30 4012 H 384.444 3.03274 2.25463 0
M  V30 4013 H 384.757 6.55463 4.09376 0
M  V30 4014 H 383.102 5.89107 3.68752 0
M  V30 4015 H 386.293 3.80627 2.72471 0
M  V30 4016 H 386.466 5.41216 3.56356 0
M  V30 4017 N 379.872 -1.04064 1.18357 0
M  V30 4018 C 381.112 -1.78829 0.989921 0
M  V30 4019 C 381.476 -1.86106 -0.472095 0
M  V30 4020 O 382.677 -2.57076 -0.785187 0
M  V30 4021 C 380.948 -3.1823 1.6268 0
M  V30 4022 S 382.507 -4.09332 1.58091 0
M  V30 4023 H 379.325 -0.615754 0.355482 0
M  V30 4024 H 381.927 -1.24778 1.50501 0
M  V30 4025 H 380.631 -3.10543 2.68311 0
M  V30 4026 H 380.162 -3.77357 1.112 0
M  V30 4027 H 382.177 -4.92598 0.596817 0
M  V30 4028 N 381.35 -0.985608 -1.22978 0
M  V30 4029 C 382.627 -0.573599 -1.87001 0
M  V30 4030 C 383.007 0.949213 -1.88555 0
M  V30 4031 O 382.355 1.82811 -1.37086 0
M  V30 4032 C 382.565 -1.18564 -3.28243 0
M  V30 4033 C 383.913 -1.28163 -4.04796 0
M  V30 4034 O 384.937 -1.13949 -3.37482 0
M  V30 4035 O 383.796 -1.50832 -5.25273 0
M  V30 4036 H 380.89 -0.193868 -0.803955 0
M  V30 4037 H 383.436 -1.08102 -1.30813 0
M  V30 4038 H 382.208 -2.22758 -3.21706 0
M  V30 4039 H 381.831 -0.663363 -3.92027 0
M  V30 4040 N 382.828 1.3818 -0.7579 0
M  V30 4041 C 383.778 2.27741 -0.108674 0
M  V30 4042 C 384.762 1.45415 0.688709 0
M  V30 4043 O 385.954 1.68108 0.553956 0
M  V30 4044 C 383.083 3.34313 0.780367 0
M  V30 4045 C 382.169 4.24093 -0.0240977 0
M  V30 4046 N 382.56 4.9451 -1.06271 0
M  V30 4047 C 380.858 4.45542 0.202049 0
M  V30 4048 C 381.559 5.60675 -1.54979 0
M  V30 4049 N 380.535 5.36684 -0.864348 0
M  V30 4050 H 384.337 2.79649 -0.904071 0
M  V30 4051 H 381.851 1.51133 -0.594346 0
M  V30 4052 H 383.848 3.97368 1.26114 0
M  V30 4053 H 382.508 2.83962 1.57467 0
M  V30 4054 H 383.519 4.97345 -1.44459 0
M  V30 4055 H 380.196 4.06091 0.96935 0
M  V30 4056 H 381.586 6.26992 -2.41517 0
M  V30 4057 N 384.306 0.507319 1.49211 0
M  V30 4058 C 385.269 -0.256763 2.27757 0
M  V30 4059 C 386.269 -0.888287 1.34038 0
M  V30 4060 O 387.459 -0.751841 1.5714 0
M  V30 4061 C 384.591 -1.36905 3.12202 0
M  V30 4062 H 385.784 0.432557 2.96764 0
M  V30 4063 H 383.337 0.262488 1.5408 0
M  V30 4064 H 384.072 -2.09233 2.47775 0
M  V30 4065 H 383.857 -0.921599 3.81115 0
M  V30 4066 H 385.347 -1.9071 3.7151 0
M  V30 4067 N 385.784 -1.5574 0.241426 0
M  V30 4068 C 387.195 -1.84842 -0.262755 0
M  V30 4069 C 387.546 -1.16317 -1.58003 0
M  V30 4070 O 386.671 -0.439653 -2.11887 0
M  V30 4071 C 387.266 -3.35332 -0.483523 0
M  V30 4072 C 385.825 -3.6468 -0.931977 0
M  V30 4073 C 384.972 -2.77299 -0.0061151 0
M  V30 4074 H 387.923 -1.51761 0.464129 0
M  V30 4075 H 387.944 -3.56615 -1.32688 0
M  V30 4076 H 387.456 -3.85178 0.47537 0
M  V30 4077 H 385.557 -3.20307 -1.90353 0
M  V30 4078 H 385.67 -4.72498 -0.792628 0
M  V30 4079 H 384.034 -2.49408 -0.516503 0
M  V30 4080 H 384.817 -3.2995 0.948052 0
M  V30 4081 N 387.262 0.0317525 -1.57568 0
M  V30 4082 C 388.21 1.05165 -2.07468 0
M  V30 4083 C 389.204 1.3761 -0.98792 0
M  V30 4084 O 390.41 1.36546 -1.17282 0
M  V30 4085 H 386.785 0.35666 -0.66204 0
M  V30 4086 H 388.756 0.604958 -2.92203 0
M  V30 4087 C 387.505 2.34488 -2.56731 0
M  V30 4088 H 386.828 2.10383 -3.39969 0
M  V30 4089 H 388.268 3.04203 -2.95358 0
M  V30 4090 C 386.727 3.03266 -1.46736 0
M  V30 4091 O 387.257 3.92988 -0.832069 0
M  V30 4092 N 385.463 2.6455 -1.20256 0
M  V30 4093 H 385.01 1.91674 -1.72102 0
M  V30 4094 H 384.968 3.10886 -0.468737 0
M  V30 4095 N 388.74 1.54641 0.303973 0
M  V30 4096 C 390.151 1.64811 0.877163 0
M  V30 4097 C 390.502 0.554838 1.88191 0
M  V30 4098 O 389.627 -0.309033 2.14182 0
M  V30 4099 C 390.222 2.9876 1.59775 0
M  V30 4100 C 388.781 3.11061 2.11938 0
M  V30 4101 C 387.928 2.60479 0.951097 0
M  V30 4102 H 390.879 1.58493 0.0810486 0
M  V30 4103 H 390.9 2.90017 2.46314 0
M  V30 4104 H 390.412 3.7831 0.866226 0
M  V30 4105 H 388.513 2.36225 2.88146 0
M  V30 4106 H 388.626 4.17171 2.35595 0
M  V30 4107 H 386.99 2.16859 1.33583 0
M  V30 4108 H 387.773 3.42504 0.233581 0
M  V30 4109 N 390.218 -0.567019 1.47046 0
M  V30 4110 C 391.458 -1.3355 1.54738 0
M  V30 4111 C 391.822 -1.90947 0.200772 0
M  V30 4112 O 393.023 -2.68367 0.152489 0
M  V30 4113 C 391.294 -2.42317 2.62712 0
M  V30 4114 S 392.853 -3.29383 2.89918 0
M  V30 4115 H 389.671 -0.454788 0.546525 0
M  V30 4116 H 392.273 -0.650191 1.84371 0
M  V30 4117 H 390.977 -1.98568 3.59164 0
M  V30 4118 H 390.508 -3.15601 2.34861 0
M  V30 4119 H 392.523 -4.41548 2.26384 0
M  V30 4120 N 391.696 -1.35014 -0.812953 0
M  V30 4121 C 392.629 -1.21761 -1.93001 0
M  V30 4122 C 393.607 -0.10694 -1.62248 0
M  V30 4123 O 394.791 -0.273891 -1.865 0
M  V30 4124 C 391.918 -0.873404 -3.27245 0
M  V30 4125 C 390.964 -1.99523 -3.76952 0
M  V30 4126 S 391.797 -3.61009 -3.95516 0
M  V30 4127 C 392.953 -3.28651 -5.32672 0
M  V30 4128 H 393.186 -2.16315 -2.03948 0
M  V30 4129 H 390.719 -1.20156 -0.969631 0
M  V30 4130 H 392.677 -0.68161 -4.04802 0
M  V30 4131 H 391.338 0.053971 -3.14054 0
M  V30 4132 H 390.531 -1.70838 -4.74163 0
M  V30 4133 H 390.133 -2.14503 -3.06373 0
M  V30 4134 H 392.425 -2.81085 -6.1644 0
M  V30 4135 H 393.368 -4.25039 -5.66346 0
M  V30 4136 H 393.776 -2.6458 -4.98656 0
M  V30 4137 N 393.175 1.03435 -1.18907 0
M  V30 4138 C 394.085 2.15075 -0.937015 0
M  V30 4139 C 395.101 1.73706 0.101085 0
M  V30 4140 O 396.277 2.01232 -0.0822948 0
M  V30 4141 C 393.342 3.43458 -0.473057 0
M  V30 4142 C 392.403 3.99172 -1.57989 0
M  V30 4143 C 391.636 5.21427 -1.13797 0
M  V30 4144 O 391.859 5.704 0.000725941 0
M  V30 4145 O 390.793 5.69837 -1.9383 0
M  V30 4146 H 394.619 2.39198 -1.87131 0
M  V30 4147 H 392.204 1.13506 -0.971427 0
M  V30 4148 H 394.086 4.20811 -0.222702 0
M  V30 4149 H 392.761 3.20793 0.432869 0
M  V30 4150 H 391.668 3.23178 -1.88433 0
M  V30 4151 H 393.001 4.2619 -2.46217 0
M  V30 4152 N 394.653 0.992116 1.22453 0
M  V30 4153 C 395.893 0.675727 1.92907 0
M  V30 4154 C 396.257 -0.777762 1.75542 0
M  V30 4155 O 397.458 -1.20553 2.40251 0
M  V30 4156 C 395.729 1.0696 3.4102 0
M  V30 4157 S 397.288 0.871456 4.30059 0
M  V30 4158 H 394.106 0.247089 0.666684 0
M  V30 4159 H 396.708 1.27423 1.48269 0
M  V30 4160 H 395.412 2.12383 3.51172 0
M  V30 4161 H 394.943 0.462858 3.90668 0
M  V30 4162 H 396.958 -0.238436 4.95627 0
M  V30 4163 N 396.131 -1.37776 0.765217 0
M  V30 4164 C 397.542 -1.82521 0.392819 0
M  V30 4165 C 397.893 -1.63789 -1.08017 0
M  V30 4166 O 397.018 -1.14542 -1.83601 0
M  V30 4167 C 397.613 -3.31358 0.706214 0
M  V30 4168 C 396.172 -3.74406 0.386952 0
M  V30 4169 C 395.319 -2.60394 0.953422 0
M  V30 4170 H 398.27 -1.2634 0.960412 0
M  V30 4171 H 398.291 -3.80498 -0.0114706 0
M  V30 4172 H 397.803 -3.44959 1.77833 0
M  V30 4173 H 395.904 -3.66377 -0.678112 0
M  V30 4174 H 396.017 -4.70749 0.890636 0
M  V30 4175 H 394.381 -2.51878 0.378064 0
M  V30 4176 H 395.164 -2.76791 2.03081 0
M  V30 4177 N 397.609 -0.515225 -1.4894 0
M  V30 4178 C 399.025 -0.172099 -1.58669 0
M  V30 4179 C 399.225 1.32405 -1.51892 0
M  V30 4180 O 398.281 2.10116 -1.40027 0
M  V30 4181 C 399.594 -0.761533 -2.90897 0
M  V30 4182 C 401.142 -0.728926 -3.04394 0
M  V30 4183 C 401.617 -1.29667 -4.39261 0
M  V30 4184 N 403.108 -1.25799 -4.4579 0
M  V30 4185 C 403.843 -1.66733 -5.48623 0
M  V30 4186 N 403.339 -2.15327 -6.58488 0
M  V30 4187 N 405.132 -1.58061 -5.39419 0
M  V30 4188 H 397.283 -1.48778 -1.51588 0
M  V30 4189 H 399.546 -0.617968 -0.718901 0
M  V30 4190 H 399.252 -1.81136 -3.01468 0
M  V30 4191 H 399.126 -0.230106 -3.76497 0
M  V30 4192 H 401.513 0.312098 -2.93445 0
M  V30 4193 H 401.594 -1.29766 -2.20442 0
M  V30 4194 H 401.238 -2.33655 -4.50963 0
M  V30 4195 H 401.168 -0.703752 -5.21876 0
M  V30 4196 H 403.659 -0.902102 -3.66975 0
M  V30 4197 H 403.972 -2.44594 -7.33071 0
M  V30 4198 H 402.317 -2.19311 -6.59491 0
M  V30 4199 H 405.508 -1.19906 -4.52482 0
M  V30 4200 H 405.681 -1.90284 -6.19432 0
M  V30 4201 N 399.087 1.5561 -0.249682 0
M  V30 4202 C 400.037 2.18157 0.662673 0
M  V30 4203 C 401.021 1.1383 1.13717 0
M  V30 4204 O 402.213 1.39731 1.08648 0
M  V30 4205 C 399.342 2.88672 1.85805 0
M  V30 4206 C 398.428 4.00258 1.40193 0
M  V30 4207 N 398.819 5.01473 0.660213 0
M  V30 4208 C 397.117 4.12864 1.68698 0
M  V30 4209 C 397.818 5.80155 0.423695 0
M  V30 4210 N 396.794 5.34533 0.988721 0
M  V30 4211 H 400.596 2.93769 0.0878688 0
M  V30 4212 H 398.11 1.62316 -0.0521183 0
M  V30 4213 H 400.107 3.31912 2.5227 0
M  V30 4214 H 398.767 2.14564 2.43705 0
M  V30 4215 H 399.778 5.16971 0.310047 0
M  V30 4216 H 396.455 3.4993 2.27717 0
M  V30 4217 H 397.845 6.71688 -0.168616 0
M  V30 4218 N 400.565 -0.0233959 1.57583 0
M  V30 4219 C 401.812 -0.713063 1.8953 0
M  V30 4220 C 402.14 -1.75056 0.847673 0
M  V30 4221 O 401.395 -1.95119 -0.150636 0
M  V30 4222 C 401.694 -1.41428 3.28227 0
M  V30 4223 C 401.36 -0.512222 4.47981 0
M  V30 4224 C 400.022 -0.263785 4.80476 0
M  V30 4225 C 402.374 0.110248 5.21083 0
M  V30 4226 C 399.702 0.615804 5.83459 0
M  V30 4227 C 402.054 0.977573 6.25001 0
M  V30 4228 C 400.718 1.23542 6.55968 0
M  V30 4229 H 399.988 -0.260928 0.69354 0
M  V30 4230 H 402.635 0.0271047 1.91481 0
M  V30 4231 H 400.94 -2.22791 3.22291 0
M  V30 4232 H 402.637 -1.95355 3.50196 0
M  V30 4233 H 399.227 -0.716013 4.22577 0
M  V30 4234 H 403.411 -0.0687137 4.96252 0
M  V30 4235 H 398.667 0.82382 6.05824 0
M  V30 4236 H 402.841 1.46638 6.80786 0
M  V30 4237 H 400.468 1.91871 7.35588 0
M  V30 4238 N 402.043 -1.548 -0.295768 0
M  V30 4239 C 403.454 -1.65274 -0.868411 0
M  V30 4240 C 403.805 -0.56481 -1.87894 0
M  V30 4241 O 402.93 0.29767 -2.14343 0
M  V30 4242 C 403.525 -2.99603 -1.58188 0
M  V30 4243 C 402.084 -3.12181 -2.10286 0
M  V30 4244 C 401.231 -2.6098 -0.93727 0
M  V30 4245 H 404.182 -1.58534 -0.0726422 0
M  V30 4246 H 404.203 -2.91319 -2.44772 0
M  V30 4247 H 403.715 -3.78764 -0.846151 0
M  V30 4248 H 401.816 -2.3775 -2.8689 0
M  V30 4249 H 401.929 -4.18415 -2.33379 0
M  V30 4250 H 400.293 -2.17564 -1.32431 0
M  V30 4251 H 401.076 -3.42623 -0.215414 0
M  V30 4252 N 403.521 0.559213 -1.47345 0
M  V30 4253 C 404.453 1.68161 -1.55738 0
M  V30 4254 C 405.466 1.56636 -0.443744 0
M  V30 4255 O 406.655 1.6363 -0.713258 0
M  V30 4256 C 403.755 3.06611 -1.4437 0
M  V30 4257 C 402.928 3.4391 -2.70268 0
M  V30 4258 C 401.987 4.61515 -2.52765 0
M  V30 4259 O 401.013 4.66197 -3.26572 0
M  V30 4260 N 402.215 5.57883 -1.6046 0
M  V30 4261 H 404.98 1.61408 -2.52522 0
M  V30 4262 H 402.541 0.7458 -1.43699 0
M  V30 4263 H 404.533 3.83117 -1.30398 0
M  V30 4264 H 403.103 3.07602 -0.556766 0
M  V30 4265 H 402.323 2.56873 -2.99015 0
M  V30 4266 H 403.611 3.65605 -3.53851 0
M  V30 4267 H 403.009 5.56855 -0.996422 0
M  V30 4268 H 401.566 6.33723 -1.52441 0
M  V30 4269 N 404.999 1.35443 0.805782 0
M  V30 4270 C 405.929 1.31095 1.93226 0
M  V30 4271 C 406.91 0.185244 1.69088 0
M  V30 4272 O 408.095 0.380332 1.90439 0
M  V30 4273 C 405.225 1.08299 3.29983 0
M  V30 4274 C 404.179 2.17519 3.68605 0
M  V30 4275 C 403.505 1.79887 5.03532 0
M  V30 4276 C 404.805 3.5949 3.78898 0
M  V30 4277 H 406.499 2.25352 1.97122 0
M  V30 4278 H 404.045 1.0848 0.946996 0
M  V30 4279 H 405.998 1.03897 4.08391 0
M  V30 4280 H 404.722 0.104885 3.26432 0
M  V30 4281 H 403.381 2.2102 2.92482 0
M  V30 4282 H 403.029 0.80693 4.96485 0
M  V30 4283 H 402.729 2.53001 5.30344 0
M  V30 4284 H 404.253 1.77011 5.84379 0
M  V30 4285 H 405.667 3.58307 4.47536 0
M  V30 4286 H 404.064 4.31371 4.1718 0
M  V30 4287 H 405.134 3.95584 2.80431 0
M  V30 4288 N 406.477 -1.02803 1.19454 0
M  V30 4289 C 407.427 -2.0945 0.900827 0
M  V30 4290 C 408.411 -1.60335 -0.134715 0
M  V30 4291 O 409.603 -1.76857 0.0710924 0
M  V30 4292 C 406.732 -3.4044 0.442229 0
M  V30 4293 C 405.818 -3.96286 1.51056 0
M  V30 4294 N 406.209 -4.25785 2.73021 0
M  V30 4295 C 404.507 -4.24307 1.37404 0
M  V30 4296 C 405.208 -4.70654 3.41848 0
M  V30 4297 N 404.184 -4.72238 2.69243 0
M  V30 4298 H 407.986 -2.3015 1.82779 0
M  V30 4299 H 405.5 -1.20672 1.08683 0
M  V30 4300 H 407.497 -4.16354 0.21326 0
M  V30 4301 H 406.157 -3.21159 -0.478238 0
M  V30 4302 H 407.168 -4.15041 3.09776 0
M  V30 4303 H 403.845 -4.14285 0.517103 0
M  V30 4304 H 405.235 -5.02392 4.46152 0
M  V30 4305 N 407.956 -0.998596 -1.21925 0
M  V30 4306 C 409.367 -0.711939 -1.72593 0
M  V30 4307 C 409.718 0.770842 -1.80423 0
M  V30 4308 O 408.843 1.60237 -1.4544 0
M  V30 4309 C 409.438 -1.28567 -3.13458 0
M  V30 4310 C 407.997 -1.04828 -3.61508 0
M  V30 4311 C 407.144 -1.4024 -2.39224 0
M  V30 4312 H 410.095 -1.17027 -1.07193 0
M  V30 4313 H 410.116 -0.667098 -3.74607 0
M  V30 4314 H 409.628 -2.36486 -3.07727 0
M  V30 4315 H 407.729 0.0140383 -3.72597 0
M  V30 4316 H 407.842 -1.71566 -4.47328 0
M  V30 4317 H 406.206 -0.821077 -2.41103 0
M  V30 4318 H 406.989 -2.49176 -2.36149 0
M  V30 4319 N 409.434 1.37368 -0.772513 0
M  V30 4320 C 410.711 1.93839 -0.26188 0
M  V30 4321 C 411.091 1.7061 1.24319 0
M  V30 4322 O 410.439 1.05534 2.02669 0
M  V30 4323 C 410.649 3.43154 -0.636102 0
M  V30 4324 C 411.997 4.20249 -0.606324 0
M  V30 4325 O 413.021 3.5152 -0.575538 0
M  V30 4326 O 411.88 5.42809 -0.634086 0
M  V30 4327 H 408.974 0.82478 -0.0605555 0
M  V30 4328 H 411.52 1.4665 -0.853917 0
M  V30 4329 H 410.292 3.53647 -1.6748 0
M  V30 4330 H 409.915 3.97596 -0.0170516 0
M  V30 4331 N 410.912 0.523116 1.48665 0
M  V30 4332 C 412.14 -0.0096312 2.06898 0
M  V30 4333 C 412.555 -1.28784 1.38059 0
M  V30 4334 O 411.912 -1.76453 0.465893 0
M  V30 4335 C 411.963 -0.244386 3.60673 0
M  V30 4336 O 411.684 0.983172 4.26925 0
M  V30 4337 C 413.185 -0.818289 4.35682 0
M  V30 4338 H 410.405 0.0304161 0.67031 0
M  V30 4339 H 412.949 0.726799 1.91149 0
M  V30 4340 H 411.104 -0.930847 3.76051 0
M  V30 4341 H 411.518 0.759653 5.1897 0
M  V30 4342 H 412.992 -0.93201 5.44075 0
M  V30 4343 H 413.469 -1.82153 3.99646 0
M  V30 4344 H 414.075 -0.168609 4.24966 0
M  V30 4345 N 412.39 -1.55475 0.257931 0
M  V30 4346 C 413.637 -1.99207 -0.363728 0
M  V30 4347 C 413.965 -1.1462 -1.57139 0
M  V30 4348 O 413.22 -0.199653 -1.94679 0
M  V30 4349 C 413.519 -3.48183 -0.806433 0
M  V30 4350 C 413.185 -4.49936 0.294684 0
M  V30 4351 C 411.847 -4.77481 0.597076 0
M  V30 4352 C 414.199 -5.10769 1.03751 0
M  V30 4353 C 411.527 -5.63132 1.64618 0
M  V30 4354 C 413.879 -5.97558 2.07622 0
M  V30 4355 C 412.543 -6.23432 2.38514 0
M  V30 4356 H 411.813 -0.728949 -0.133097 0
M  V30 4357 H 414.46 -1.8793 0.368059 0
M  V30 4358 H 412.765 -3.56848 -1.61761 0
M  V30 4359 H 414.462 -3.79415 -1.29789 0
M  V30 4360 H 411.052 -4.28572 0.0488649 0
M  V30 4361 H 415.236 -4.89527 0.817149 0
M  V30 4362 H 410.492 -5.8143 1.89074 0
M  V30 4363 H 414.666 -6.43735 2.65666 0
M  V30 4364 H 412.293 -6.89594 3.19943 0
M  V30 4365 N 413.868 0.0150385 -1.57593 0
M  V30 4366 C 415.093 0.718067 -1.94573 0
M  V30 4367 C 415.518 1.6734 -0.859005 0
M  V30 4368 O 414.876 1.80362 0.184147 0
M  V30 4369 C 414.924 1.43918 -3.30636 0
M  V30 4370 O 414.028 2.55299 -3.23876 0
M  V30 4371 H 413.369 0.192125 -0.635597 0
M  V30 4372 H 415.899 -0.0336708 -2.04572 0
M  V30 4373 H 415.909 1.80598 -3.65853 0
M  V30 4374 H 414.584 0.738619 -4.09289 0
M  V30 4375 H 413.161 2.21058 -3.00312 0
M  V30 4376 N 415.346 1.54954 0.287554 0
M  V30 4377 C 416.296 1.8322 1.357 0
M  V30 4378 C 417.28 0.690152 1.45347 0
M  V30 4379 O 418.472 0.951137 1.49273 0
M  V30 4380 C 415.601 2.09481 2.71979 0
M  V30 4381 C 414.687 3.29906 2.66502 0
M  V30 4382 N 415.078 4.50154 2.30641 0
M  V30 4383 C 413.376 3.32203 2.97585 0
M  V30 4384 C 414.077 5.32209 2.34794 0
M  V30 4385 N 413.053 4.70258 2.72688 0
M  V30 4386 H 416.855 2.73746 1.0696 0
M  V30 4387 H 414.369 1.54635 0.496167 0
M  V30 4388 H 416.366 2.27882 3.49107 0
M  V30 4389 H 415.026 1.2023 3.0162 0
M  V30 4390 H 416.037 4.76515 2.02865 0
M  V30 4391 H 412.714 2.53101 3.32034 0
M  V30 4392 H 414.104 6.38321 2.09753 0
M  V30 4393 N 416.824 -0.551391 1.4764 0
M  V30 4394 C 417.754 -1.66757 1.63445 0
M  V30 4395 C 418.735 -1.63077 0.483742 0
M  V30 4396 O 419.92 -1.80607 0.71377 0
M  V30 4397 C 417.05 -3.05387 1.65396 0
M  V30 4398 C 416.004 -3.23918 2.79752 0
M  V30 4399 C 415.33 -4.63393 2.66779 0
M  V30 4400 C 416.63 -3.08735 4.21284 0
M  V30 4401 H 418.324 -1.53786 2.56886 0
M  V30 4402 H 415.87 -0.738415 1.23626 0
M  V30 4403 H 417.823 -3.83325 1.75043 0
M  V30 4404 H 416.547 -3.19332 0.685195 0
M  V30 4405 H 415.206 -2.48391 2.69625 0
M  V30 4406 H 414.854 -4.74144 1.67918 0
M  V30 4407 H 414.554 -4.7674 3.43501 0
M  V30 4408 H 416.078 -5.43458 2.78364 0
M  V30 4409 H 417.492 -3.76484 4.32357 0
M  V30 4410 H 415.889 -3.33588 4.98838 0
M  V30 4411 H 416.959 -2.0541 4.39243 0
M  V30 4412 N 418.302 -1.35869 -0.798587 0
M  V30 4413 C 419.527 -1.32883 -1.59238 0
M  V30 4414 C 419.952 0.0894587 -1.87887 0
M  V30 4415 O 419.31 1.05869 -1.47178 0
M  V30 4416 C 419.358 -2.14892 -2.89575 0
M  V30 4417 O 418.462 -1.53512 -3.82763 0
M  V30 4418 H 417.803 -0.455236 -0.48338 0
M  V30 4419 H 420.333 -1.79024 -0.990539 0
M  V30 4420 H 420.343 -2.27139 -3.38928 0
M  V30 4421 H 419.018 -3.17998 -2.68049 0
M  V30 4422 H 417.595 -1.50153 -3.41334 0
M  V30 4423 N 419.78 1.02168 -1.19998 0
M  V30 4424 C 421.196 1.27969 -0.953737 0
M  V30 4425 C 421.396 1.98079 0.369703 0
M  V30 4426 O 420.452 2.27306 1.09947 0
M  V30 4427 C 421.765 2.11971 -2.13281 0
M  V30 4428 C 423.313 2.25255 -2.17323 0
M  V30 4429 C 423.788 3.12632 -3.34702 0
M  V30 4430 N 425.279 3.2022 -3.34684 0
M  V30 4431 C 426.014 3.88039 -4.22153 0
M  V30 4432 N 425.51 4.58027 -5.19791 0
M  V30 4433 N 427.303 3.84511 -4.10009 0
M  V30 4434 H 419.454 0.550794 -2.05134 0
M  V30 4435 H 421.717 0.305683 -0.897364 0
M  V30 4436 H 421.423 1.67785 -3.09097 0
M  V30 4437 H 421.297 3.12699 -2.10949 0
M  V30 4438 H 423.684 2.68667 -1.22073 0
M  V30 4439 H 423.765 1.24053 -2.23706 0
M  V30 4440 H 423.409 2.69926 -4.30235 0
M  V30 4441 H 423.339 4.13909 -3.25556 0
M  V30 4442 H 425.83 2.70382 -2.64012 0
M  V30 4443 H 426.143 5.07429 -5.82868 0
M  V30 4444 H 424.488 4.56869 -5.23733 0
M  V30 4445 H 427.679 3.28978 -3.33003 0
M  V30 4446 H 427.852 4.3709 -4.78389 0
M  V30 4447 N 421.258 1.00505 1.21394 0
M  V30 4448 C 422.188 0.585684 2.26035 0
M  V30 4449 C 423.169 -0.393525 1.65485 0
M  V30 4450 O 424.354 -0.281497 1.92149 0
M  V30 4451 C 421.484 -0.0884283 3.47187 0
M  V30 4452 C 420.438 0.810567 4.20254 0
M  V30 4453 C 419.764 0.00286382 5.347 0
M  V30 4454 C 421.064 2.1132 4.77641 0
M  V30 4455 H 422.758 1.46039 2.61368 0
M  V30 4456 H 420.304 0.703648 1.25638 0
M  V30 4457 H 422.257 -0.393286 4.19561 0
M  V30 4458 H 420.981 -0.997766 3.10986 0
M  V30 4459 H 419.64 1.09925 3.49731 0
M  V30 4460 H 419.288 -0.907765 4.94741 0
M  V30 4461 H 418.988 0.601444 5.84514 0
M  V30 4462 H 420.512 -0.295808 6.09883 0
M  V30 4463 H 421.926 1.87148 5.41893 0
M  V30 4464 H 420.323 2.66164 5.37845 0
M  V30 4465 H 421.393 2.78393 3.9702 0
M  V30 4466 N 422.737 -1.36956 0.779787 0
M  V30 4467 C 423.647 -2.33965 0.172491 0
M  V30 4468 C 424.663 -1.60574 -0.670222 0
M  V30 4469 O 425.839 -1.92617 -0.588263 0
M  V30 4470 C 422.904 -3.39761 -0.690173 0
M  V30 4471 C 421.965 -4.28964 0.169924 0
M  V30 4472 C 421.198 -5.29707 -0.651662 0
M  V30 4473 O 421.421 -5.38238 -1.88827 0
M  V30 4474 O 420.355 -6.01873 -0.0566264 0
M  V30 4475 H 424.181 -2.87647 0.974321 0
M  V30 4476 H 421.766 -1.39258 0.541078 0
M  V30 4477 H 423.648 -4.04471 -1.1824 0
M  V30 4478 H 422.323 -2.88394 -1.47006 0
M  V30 4479 H 421.23 -3.67326 0.708696 0
M  V30 4480 H 422.563 -4.83656 0.913085 0
M  V30 4481 N 424.215 -0.530993 -1.48385 0
M  V30 4482 C 425.463 0.00273189 -2.021 0
M  V30 4483 C 425.784 1.34672 -1.41027 0
M  V30 4484 O 425.054 1.8724 -0.576012 0
M  V30 4485 H 423.634 0.00399774 -0.746989 0
M  V30 4486 H 426.296 -0.695054 -1.82085 0
M  V30 4487 H 425.392 0.11031 -3.11905 0
M  V30 4488 N 425.693 1.55336 -0.266172 0
M  V30 4489 C 426.623 2.25146 0.618981 0
M  V30 4490 C 427.604 1.23845 1.16604 0
M  V30 4491 O 428.789 1.52544 1.20183 0
M  V30 4492 C 425.919 2.96572 1.80728 0
M  V30 4493 C 424.873 4.04726 1.39215 0
M  V30 4494 C 424.199 4.63678 2.66283 0
M  V30 4495 C 425.499 5.19407 0.548942 0
M  V30 4496 H 427.193 2.99377 0.0368116 0
M  V30 4497 H 424.739 1.43991 0.0162651 0
M  V30 4498 H 426.692 3.44116 2.43232 0
M  V30 4499 H 425.416 2.19861 2.41514 0
M  V30 4500 H 424.075 3.57979 0.790351 0
M  V30 4501 H 423.723 3.83646 3.25308 0
M  V30 4502 H 423.423 5.367 2.39222 0
M  V30 4503 H 424.947 5.13967 3.29651 0
M  V30 4504 H 426.361 5.63059 1.07876 0
M  V30 4505 H 424.758 5.98936 0.373593 0
M  V30 4506 H 425.828 4.8295 -0.434394 0
M  V30 4507 N 427.171 -0.0066808 1.57599 0
M  V30 4508 C 428.417 -0.693947 1.90558 0
M  V30 4509 C 428.75 -1.73792 0.866594 0
M  V30 4510 O 428.025 -1.94156 -0.115548 0
M  V30 4511 C 428.308 -1.34317 3.34112 0
M  V30 4512 C 428.161 -0.311189 4.48722 0
M  V30 4513 C 429.48 -2.27116 3.7697 0
M  V30 4514 H 426.599 -0.250803 0.693013 0
M  V30 4515 H 429.241 0.043242 1.89951 0
M  V30 4516 H 427.391 -1.9715 3.3476 0
M  V30 4517 H 429.063 0.316944 4.6021 0
M  V30 4518 H 427.306 0.367253 4.32243 0
M  V30 4519 H 427.977 -0.804366 5.46108 0
M  V30 4520 H 430.453 -1.74306 3.77831 0
M  V30 4521 H 429.329 -2.69511 4.78179 0
M  V30 4522 H 429.59 -3.14743 3.10466 0
M  V30 4523 N 428.649 -1.55105 -0.279332 0
M  V30 4524 C 429.579 -1.90557 -1.34945 0
M  V30 4525 C 430.56 -0.766738 -1.51839 0
M  V30 4526 O 431.745 -1.02434 -1.64988 0
M  V30 4527 C 428.875 -2.17193 -2.71006 0
M  V30 4528 C 427.829 -3.33021 -2.68851 0
M  V30 4529 C 427.155 -3.45123 -4.08405 0
M  V30 4530 C 428.455 -4.69578 -2.28678 0
M  V30 4531 H 430.149 -2.80188 -1.05522 0
M  V30 4532 H 427.695 -1.34811 -0.506173 0
M  V30 4533 H 429.648 -2.40581 -3.45975 0
M  V30 4534 H 428.372 -1.24355 -3.01999 0
M  V30 4535 H 427.031 -3.0959 -1.9634 0
M  V30 4536 H 426.679 -2.49762 -4.3661 0
M  V30 4537 H 426.379 -4.22995 -4.07859 0
M  V30 4538 H 427.903 -3.70796 -4.85121 0
M  V30 4539 H 429.317 -4.92553 -2.93368 0
M  V30 4540 H 427.714 -5.5032 -2.39306 0
M  V30 4541 H 428.784 -4.68828 -1.23807 0
M  V30 4542 N 430.127 0.543554 -1.4793 0
M  V30 4543 C 431.074 1.64942 -1.6144 0
M  V30 4544 C 432.044 1.59692 -0.456903 0
M  V30 4545 O 433.229 1.78321 -0.678688 0
M  V30 4546 C 430.369 3.03238 -1.64744 0
M  V30 4547 C 429.482 3.18823 -2.91506 0
M  V30 4548 C 428.617 4.47599 -2.86057 0
M  V30 4549 C 427.656 4.56664 -4.07584 0
M  V30 4550 N 426.793 5.76811 -4.00292 0
M  V30 4551 H 431.633 1.52733 -2.55884 0
M  V30 4552 H 429.17 0.7438 -1.2691 0
M  V30 4553 H 431.128 3.83339 -1.64641 0
M  V30 4554 H 429.758 3.1425 -0.738017 0
M  V30 4555 H 428.81 2.32064 -3.01414 0
M  V30 4556 H 430.122 3.21384 -3.81463 0
M  V30 4557 H 429.276 5.35975 -2.84281 0
M  V30 4558 H 428.015 4.47538 -1.93807 0
M  V30 4559 H 427.02 3.66697 -4.09651 0
M  V30 4560 H 428.245 4.58474 -5.00978 0
M  V30 4561 H 426.191 5.77673 -3.10853 0
M  V30 4562 H 426.108 5.80808 -4.8394 0
M  V30 4563 H 427.376 6.67512 -4.02553 0
M  V30 4564 N 431.605 1.3629 0.791371 0
M  V30 4565 C 432.882 1.20962 1.53712 0
M  V30 4566 C 433.262 -0.205021 2.10102 0
M  V30 4567 O 432.61 -1.21042 1.93807 0
M  V30 4568 C 432.82 2.29002 2.63361 0
M  V30 4569 C 434.168 2.65572 3.31295 0
M  V30 4570 O 435.192 2.2803 2.73643 0
M  V30 4571 O 434.051 3.3018 4.35481 0
M  V30 4572 H 431.145 0.47086 0.679867 0
M  V30 4573 H 433.691 1.48016 0.830021 0
M  V30 4574 H 432.463 3.2382 2.19674 0
M  V30 4575 H 432.086 2.03303 3.41692 0
M  V30 4576 N 433.083 -1.0153 1.20538 0
M  V30 4577 C 434.308 -1.79283 1.04271 0
M  V30 4578 C 434.733 -1.8372 -0.403544 0
M  V30 4579 O 434.091 -1.27321 -1.2907 0
M  V30 4580 C 434.139 -3.21535 1.63241 0
M  V30 4581 O 433.243 -4.03099 0.870908 0
M  V30 4582 H 432.584 -0.55293 0.367647 0
M  V30 4583 H 435.114 -1.27696 1.59859 0
M  V30 4584 H 435.124 -3.72243 1.6703 0
M  V30 4585 H 433.799 -3.1762 2.68497 0
M  V30 4586 H 432.376 -3.61693 0.907323 0
M  V30 4587 N 434.561 -1.01147 -1.20859 0
M  V30 4588 C 435.786 -0.716698 -1.94623 0
M  V30 4589 C 436.211 0.715415 -1.73964 0
M  V30 4590 O 435.569 1.49157 -1.03062 0
M  V30 4591 C 435.617 -1.0513 -3.44935 0
M  V30 4592 O 434.721 -0.160131 -4.12089 0
M  V30 4593 H 434.062 -0.266404 -0.608214 0
M  V30 4594 H 436.592 -1.35346 -1.53436 0
M  V30 4595 H 436.602 -1.00086 -3.95533 0
M  V30 4596 H 435.277 -2.09475 -3.59295 0
M  V30 4597 H 433.854 -0.267657 -3.71938 0
M  V30 4598 N 436.039 1.36541 -0.78704 0
M  V30 4599 C 436.969 2.32659 -0.197992 0
M  V30 4600 C 437.95 1.56533 0.665697 0
M  V30 4601 O 439.135 1.84698 0.60001 0
M  V30 4602 C 436.265 3.40778 0.669901 0
M  V30 4603 C 435.219 4.27897 -0.0937039 0
M  V30 4604 C 434.545 5.27163 0.894629 0
M  V30 4605 C 435.845 5.06334 -1.28154 0
M  V30 4606 H 437.539 2.82171 -1.00099 0
M  V30 4607 H 435.085 1.35665 -0.482793 0
M  V30 4608 H 437.038 4.07008 1.09191 0
M  V30 4609 H 435.762 2.89827 1.50558 0
M  V30 4610 H 434.421 3.6322 -0.49666 0
M  V30 4611 H 434.069 4.72486 1.72527 0
M  V30 4612 H 433.769 5.86317 0.388149 0
M  V30 4613 H 435.293 5.96266 1.31525 0
M  V30 4614 H 436.707 5.65617 -0.93541 0
M  V30 4615 H 435.104 5.74888 -1.72115 0
M  V30 4616 H 436.174 4.38114 -2.07807 0
M  V30 4617 N 437.518 0.538854 1.48102 0
M  V30 4618 C 438.743 0.0102694 2.07397 0
M  V30 4619 C 439.168 -1.26562 1.39153 0
M  V30 4620 O 438.526 -1.75357 0.460387 0
M  V30 4621 C 438.574 -0.187602 3.60112 0
M  V30 4622 O 437.678 -1.25432 3.92862 0
M  V30 4623 H 437.019 0.0430975 0.6626 0
M  V30 4624 H 439.549 0.749301 1.90385 0
M  V30 4625 H 439.559 -0.407517 4.0596 0
M  V30 4626 H 438.234 0.744386 4.09184 0
M  V30 4627 H 436.811 -1.01636 3.58782 0
M  V30 4628 N 438.996 -1.55193 0.274407 0
M  V30 4629 C 440.242 -2.00604 -0.33608 0
M  V30 4630 C 440.597 -1.15948 -1.53538 0
M  V30 4631 O 439.89 -0.221385 -1.90317 0
M  V30 4632 C 440.084 -3.49019 -0.769458 0
M  V30 4633 C 439.913 -4.48038 0.386301 0
M  V30 4634 C 438.683 -4.97757 0.869854 0
M  V30 4635 C 440.881 -4.99558 1.22254 0
M  V30 4636 N 438.863 -5.80575 1.99515 0
M  V30 4637 C 440.234 -5.79816 2.19575 0
M  V30 4638 C 442.289 -4.81799 1.25597 0
M  V30 4639 C 440.992 -6.44208 3.19981 0
M  V30 4640 C 443.018 -5.46989 2.24848 0
M  V30 4641 C 442.38 -6.27058 3.20901 0
M  V30 4642 H 438.479 -0.777013 -0.088172 0
M  V30 4643 H 441.063 -1.90583 0.398266 0
M  V30 4644 H 439.234 -3.59383 -1.47303 0
M  V30 4645 H 440.966 -3.81263 -1.35722 0
M  V30 4646 H 437.721 -4.71464 0.449281 0
M  V30 4647 H 438.145 -6.26675 2.5614 0
M  V30 4648 H 442.787 -4.19501 0.527158 0
M  V30 4649 H 440.505 -7.05656 3.93796 0
M  V30 4650 H 444.091 -5.35189 2.28174 0
M  V30 4651 H 442.971 -6.7661 3.96445 0
M  V30 4652 N 440.474 -0.00167713 -1.576 0
M  V30 4653 C 441.404 0.988091 -2.11563 0
M  V30 4654 C 442.385 1.35736 -1.02517 0
M  V30 4655 O 443.57 1.44082 -1.30208 0
M  V30 4656 C 440.7 2.27941 -2.62031 0
M  V30 4657 C 439.654 2.0517 -3.75619 0
M  V30 4658 C 438.98 3.4033 -4.12407 0
M  V30 4659 C 440.28 1.41294 -5.02825 0
M  V30 4660 H 441.974 0.538771 -2.94513 0
M  V30 4661 H 439.52 0.257712 -1.41675 0
M  V30 4662 H 441.473 2.97539 -2.9841 0
M  V30 4663 H 440.197 2.74989 -1.76205 0
M  V30 4664 H 438.856 1.37998 -3.39635 0
M  V30 4665 H 438.504 3.85085 -3.23603 0
M  V30 4666 H 438.204 3.25909 -4.88935 0
M  V30 4667 H 439.728 4.1124 -4.51347 0
M  V30 4668 H 441.142 2.00851 -5.36965 0
M  V30 4669 H 439.539 1.37356 -5.84169 0
M  V30 4670 H 440.609 0.382362 -4.8339 0
M  V30 4671 N 441.952 1.55251 0.271103 0
M  V30 4672 C 442.9 1.89054 1.35504 0
M  V30 4673 C 443.894 0.767064 1.51038 0
M  V30 4674 O 445.1 0.951429 1.528 0
M  V30 4675 H 441.475 0.600072 0.45323 0
M  V30 4676 H 443.446 2.79598 1.04247 0
M  V30 4677 C 442.195 2.18068 2.70817 0
M  V30 4678 H 441.518 3.04005 2.59656 0
M  V30 4679 H 442.958 2.4564 3.45597 0
M  V30 4680 C 441.417 0.988901 3.2206 0
M  V30 4681 O 441.947 0.224501 4.01072 0
M  V30 4682 N 440.153 0.786085 2.79766 0
M  V30 4683 H 439.7 1.40937 2.15626 0
M  V30 4684 H 439.658 -0.00969349 3.14399 0
M  V30 4685 N 443.43 -0.535701 1.48216 0
M  V30 4686 C 444.393 -1.623 1.61838 0
M  V30 4687 C 445.393 -1.53087 0.492024 0
M  V30 4688 O 446.583 -1.5686 0.757668 0
M  V30 4689 C 443.715 -3.01907 1.58319 0
M  V30 4690 H 444.908 -1.51564 2.58783 0
M  V30 4691 H 442.461 -0.757317 1.36727 0
M  V30 4692 H 443.196 -3.18155 0.628299 0
M  V30 4693 H 442.981 -3.10003 2.40085 0
M  V30 4694 H 444.471 -3.80969 1.71033 0
M  V30 4695 N 444.908 -1.36708 -0.784132 0
M  V30 4696 C 446.133 -1.34565 -1.5782 0
M  V30 4697 C 446.558 0.0695257 -1.87971 0
M  V30 4698 O 445.916 1.04302 -1.48293 0
M  V30 4699 C 445.964 -2.17952 -2.87279 0
M  V30 4700 O 445.068 -1.57563 -3.81114 0
M  V30 4701 H 444.409 -0.460337 -0.478524 0
M  V30 4702 H 446.939 -1.80064 -0.971495 0
M  V30 4703 H 446.949 -2.30721 -3.365 0
M  V30 4704 H 445.624 -3.20823 -2.64661 0
M  V30 4705 H 444.201 -1.53764 -3.39722 0
M  V30 4706 N 446.386 1.0089 -1.21074 0
M  V30 4707 C 447.632 1.7497 -1.03717 0
M  V30 4708 C 447.987 1.8764 0.425344 0
M  V30 4709 O 447.28 1.39679 1.3115 0
M  V30 4710 C 447.474 3.16335 -1.66334 0
M  V30 4711 C 447.303 3.17449 -3.18522 0
M  V30 4712 C 446.073 3.2425 -3.87543 0
M  V30 4713 C 448.271 3.02877 -4.15656 0
M  V30 4714 N 446.253 3.14949 -5.26954 0
M  V30 4715 C 447.624 3.0143 -5.41793 0
M  V30 4716 C 449.679 2.8715 -4.06755 0
M  V30 4717 C 448.382 2.85869 -6.60054 0
M  V30 4718 C 450.408 2.72944 -5.24648 0
M  V30 4719 C 449.77 2.72171 -6.49694 0
M  V30 4720 H 445.869 0.650627 -0.43383 0
M  V30 4721 H 448.453 1.19944 -1.53367 0
M  V30 4722 H 446.624 3.69638 -1.19256 0
M  V30 4723 H 448.356 3.78888 -1.42219 0
M  V30 4724 H 445.111 3.31288 -3.38446 0
M  V30 4725 H 445.535 3.13651 -5.9996 0
M  V30 4726 H 450.177 2.86557 -3.10878 0
M  V30 4727 H 447.895 2.8521 -7.56096 0
M  V30 4728 H 451.481 2.61782 -5.19578 0
M  V30 4729 H 450.361 2.61307 -7.39384 0
M  V30 4730 N 447.864 1.01787 1.20321 0
M  V30 4731 C 449.111 0.707936 1.89722 0
M  V30 4732 C 449.439 -0.762535 1.78929 0
M  V30 4733 O 448.694 -1.56977 1.16861 0
M  V30 4734 C 448.993 1.09076 3.40349 0
M  V30 4735 C 448.659 2.55765 3.71342 0
M  V30 4736 C 447.321 2.95845 3.79511 0
M  V30 4737 C 449.673 3.50723 3.85542 0
M  V30 4738 C 447.001 4.2982 3.99339 0
M  V30 4739 C 449.353 4.84387 4.06881 0
M  V30 4740 C 448.017 5.24172 4.1328 0
M  V30 4741 H 447.287 0.259052 0.694243 0
M  V30 4742 H 449.934 1.27868 1.42555 0
M  V30 4743 H 448.239 0.438453 3.89339 0
M  V30 4744 H 449.936 0.828636 3.92345 0
M  V30 4745 H 446.526 2.2371 3.65584 0
M  V30 4746 H 450.71 3.20916 3.78585 0
M  V30 4747 H 445.966 4.60196 4.02529 0
M  V30 4748 H 450.14 5.57891 4.1681 0
M  V30 4749 H 447.767 6.27997 4.28396 0
M  V30 4750 N 449.342 -1.36122 0.79427 0
M  V30 4751 C 450.758 -1.5232 0.476525 0
M  V30 4752 C 450.958 -1.74685 -1.00436 0
M  V30 4753 O 450.014 -1.78115 -1.78973 0
M  V30 4754 C 451.327 -2.70607 1.31119 0
M  V30 4755 C 452.875 -2.8448 1.30537 0
M  V30 4756 C 453.35 -4.05778 2.12387 0
M  V30 4757 N 454.841 -4.12933 2.09859 0
M  V30 4758 C 455.576 -5.05876 2.69957 0
M  V30 4759 N 455.072 -6.04232 3.38934 0
M  V30 4760 N 456.865 -4.98528 2.59665 0
M  V30 4761 H 449.016 -1.1986 1.75349 0
M  V30 4762 H 451.279 -0.585418 0.745647 0
M  V30 4763 H 450.985 -2.60619 2.36158 0
M  V30 4764 H 450.859 -3.64888 0.955843 0
M  V30 4765 H 453.246 -2.93927 0.262876 0
M  V30 4766 H 453.327 -1.91093 1.70051 0
M  V30 4767 H 452.971 -3.97092 3.1667 0
M  V30 4768 H 452.901 -4.98323 1.70242 0
M  V30 4769 H 455.392 -3.42515 1.59662 0
M  V30 4770 H 455.705 -6.71724 3.82109 0
M  V30 4771 H 454.05 -6.04443 3.43036 0
M  V30 4772 H 457.241 -4.20641 2.05375 0
M  V30 4773 H 457.414 -5.70773 3.06793 0
M  V30 4774 N 450.82 -0.546701 -1.47814 0
M  V30 4775 C 452.068 -0.0187037 -2.02091 0
M  V30 4776 C 452.389 1.33168 -1.42447 0
M  V30 4777 O 451.659 1.86619 -0.595839 0
M  V30 4778 H 450.239 -0.00392531 -0.74699 0
M  V30 4779 H 452.901 -0.714327 -1.81338 0
M  V30 4780 H 451.997 0.0772219 -3.12004 0
M  V30 4781 N 452.299 1.55045 -0.282633 0
M  V30 4782 C 453.229 2.2579 0.595066 0
M  V30 4783 C 454.21 1.25074 1.15284 0
M  V30 4784 O 455.395 1.5381 1.18559 0
M  V30 4785 C 452.525 2.98472 1.77572 0
M  V30 4786 C 451.479 4.0618 1.34914 0
M  V30 4787 C 450.805 4.66477 2.6135 0
M  V30 4788 C 452.105 5.1996 0.493821 0
M  V30 4789 H 453.799 2.994 0.00505653 0
M  V30 4790 H 451.345 1.44 0.000992001 0
M  V30 4791 H 453.298 3.46677 2.39568 0
M  V30 4792 H 452.022 2.2241 2.39168 0
M  V30 4793 H 450.681 3.58797 0.752338 0
M  V30 4794 H 450.329 3.87074 3.2122 0
M  V30 4795 H 450.029 5.39207 2.33516 0
M  V30 4796 H 451.553 5.17435 3.24181 0
M  V30 4797 H 452.967 5.64172 1.01898 0
M  V30 4798 H 451.364 5.99299 0.310047 0
M  V30 4799 H 452.434 4.82462 -0.485593 0
M  V30 4800 N 453.777 0.010035 1.57597 0
M  V30 4801 C 455.025 -0.671371 1.90623 0
M  V30 4802 C 455.346 -1.73753 0.885151 0
M  V30 4803 O 454.616 -1.95752 -0.0760611 0
M  V30 4804 H 453.196 -0.250968 0.703579 0
M  V30 4805 H 455.858 0.0533325 1.94827 0
M  V30 4806 H 454.954 -1.13626 2.90681 0
M  V30 4807 N 455.255 -1.55392 -0.262866 0
M  V30 4808 C 456.203 -1.8977 -1.345 0
M  V30 4809 C 457.197 -0.775063 -1.50629 0
M  V30 4810 O 458.403 -0.959519 -1.52293 0
M  V30 4811 H 454.778 -0.602467 -0.450041 0
M  V30 4812 H 456.749 -2.80147 -1.02762 0
M  V30 4813 C 455.498 -2.19501 -2.69657 0
M  V30 4814 H 454.821 -3.05378 -2.5804 0
M  V30 4815 H 456.261 -2.47469 -3.44289 0
M  V30 4816 C 454.72 -1.00597 -3.21531 0
M  V30 4817 O 455.25 -0.245768 -4.00947 0
M  V30 4818 N 453.456 -0.800911 -2.79345 0
M  V30 4819 H 453.003 -1.42079 -2.14875 0
M  V30 4820 H 452.961 -0.00697996 -3.14399 0
M  V30 4821 N 456.733 0.527833 -1.48498 0
M  V30 4822 C 457.663 1.64136 -1.66077 0
M  V30 4823 C 458.644 1.62286 -0.509625 0
M  V30 4824 O 459.829 1.79449 -0.742413 0
M  V30 4825 C 456.959 3.02717 -1.70234 0
M  V30 4826 C 455.913 3.19426 -2.8487 0
M  V30 4827 C 455.239 4.5909 -2.74118 0
M  V30 4828 C 456.539 3.01993 -4.26142 0
M  V30 4829 H 458.233 1.4968 -2.593 0
M  V30 4830 H 455.779 0.718654 -1.24785 0
M  V30 4831 H 457.732 3.80491 -1.8112 0
M  V30 4832 H 456.456 3.18201 -0.735911 0
M  V30 4833 H 455.115 2.4407 -2.73542 0
M  V30 4834 H 454.763 4.71413 -1.7544 0
M  V30 4835 H 454.463 4.71214 -3.51042 0
M  V30 4836 H 455.987 5.3896 -2.86974 0
M  V30 4837 H 457.401 3.69558 -4.38292 0
M  V30 4838 H 455.798 3.2561 -5.04082 0
M  V30 4839 H 456.868 1.98396 -4.42456 0
M  V30 4840 N 458.211 1.37122 0.776871 0
M  V30 4841 C 459.627 1.1781 1.07671 0
M  V30 4842 C 459.827 0.0107454 2.01497 0
M  V30 4843 O 458.883 -0.650756 2.4397 0
M  V30 4844 C 460.196 2.49451 1.67913 0
M  V30 4845 C 461.744 2.55927 1.80195 0
M  V30 4846 C 462.219 3.87686 2.43851 0
M  V30 4847 N 463.71 3.891 2.51307 0
M  V30 4848 C 464.445 4.87797 3.014 0
M  V30 4849 N 463.941 5.96888 3.51705 0
M  V30 4850 N 465.734 4.75205 3.00227 0
M  V30 4851 H 457.885 2.11843 0.153778 0
M  V30 4852 H 460.148 0.938927 0.130844 0
M  V30 4853 H 459.854 3.35207 1.06439 0
M  V30 4854 H 459.728 2.66169 2.67271 0
M  V30 4855 H 462.115 1.70582 2.40803 0
M  V30 4856 H 462.196 2.43097 0.796069 0
M  V30 4857 H 461.84 4.73444 1.83884 0
M  V30 4858 H 461.77 3.97817 3.45035 0
M  V30 4859 H 464.261 3.10293 2.157 0
M  V30 4860 H 464.574 6.68155 3.88316 0
M  V30 4861 H 462.919 6.0054 3.49824 0
M  V30 4862 H 466.11 3.89103 2.60224 0
M  V30 4863 H 466.283 5.52279 3.38957 0
M  V30 4864 N 459.689 -1.00246 1.21608 0
M  V30 4865 C 460.935 -1.74319 1.03638 0
M  V30 4866 C 461.268 -1.89408 -0.428749 0
M  V30 4867 O 460.543 -1.43026 -1.3181 0
M  V30 4868 C 460.826 -3.15431 1.73711 0
M  V30 4869 C 460.679 -3.08049 3.27759 0
M  V30 4870 C 461.998 -4.14407 1.48173 0
M  V30 4871 H 459.117 -0.632741 0.377899 0
M  V30 4872 H 461.759 -1.16853 1.49818 0
M  V30 4873 H 459.909 -3.64493 1.34452 0
M  V30 4874 H 461.581 -2.66681 3.76403 0
M  V30 4875 H 459.824 -2.45088 3.57931 0
M  V30 4876 H 460.495 -4.07862 3.71958 0
M  V30 4877 H 462.971 -3.74061 1.82258 0
M  V30 4878 H 461.847 -5.11279 1.99713 0
M  V30 4879 H 462.108 -4.40174 0.412273 0
M  V30 4880 N 461.167 -1.02423 -1.1978 0
M  V30 4881 C 462.097 -0.62157 -2.25075 0
M  V30 4882 C 463.078 0.367148 -1.6609 0
M  V30 4883 O 464.263 0.250892 -1.92573 0
M  V30 4884 C 461.393 0.0331826 -3.47284 0
M  V30 4885 C 460.347 -0.877323 -4.18912 0
M  V30 4886 C 459.673 -0.0879296 -5.34628 0
M  V30 4887 C 460.973 -2.18892 -4.74219 0
M  V30 4888 H 462.667 -1.50179 -2.59011 0
M  V30 4889 H 460.213 -0.723547 -1.24502 0
M  V30 4890 H 462.166 0.326488 -4.20133 0
M  V30 4891 H 460.89 0.948164 -3.12534 0
M  V30 4892 H 459.549 -1.15475 -3.47938 0
M  V30 4893 H 459.197 0.828941 -4.96123 0
M  V30 4894 H 458.897 -0.694359 -5.83483 0
M  V30 4895 H 460.421 0.198743 -6.10276 0
M  V30 4896 H 461.835 -1.95746 -5.38847 0
M  V30 4897 H 460.232 -2.74686 -5.33542 0
M  V30 4898 H 461.302 -2.84674 -3.92541 0
M  V30 4899 N 462.645 1.35699 -0.801477 0
M  V30 4900 C 463.922 1.9324 -0.302937 0
M  V30 4901 C 464.302 1.73209 1.20672 0
M  V30 4902 O 463.65 1.09809 2.00385 0
M  V30 4903 C 463.86 3.41728 -0.708747 0
M  V30 4904 C 465.208 4.18868 -0.695328 0
M  V30 4905 O 466.232 3.5022 -0.649971 0
M  V30 4906 O 465.091 5.41342 -0.749081 0
M  V30 4907 H 462.185 0.82331 -0.0780367 0
M  V30 4908 H 464.731 1.44806 -0.884832 0
M  V30 4909 H 463.503 3.50015 -1.74944 0
M  V30 4910 H 463.126 3.97471 -0.101384 0
M  V30 4911 N 464.123 0.554532 1.47522 0
M  V30 4912 C 465.053 -0.182974 2.32782 0
M  V30 4913 C 466.034 -0.911377 1.43624 0
M  V30 4914 O 467.219 -0.892366 1.72483 0
M  V30 4915 C 464.349 -1.21513 3.25349 0
M  V30 4916 C 463.303 -0.603355 4.23726 0
M  V30 4917 C 462.629 -1.73995 5.05598 0
M  V30 4918 C 463.929 0.441121 5.20434 0
M  V30 4919 H 465.623 0.52882 2.94693 0
M  V30 4920 H 463.169 0.255759 1.41711 0
M  V30 4921 H 465.122 -1.73922 3.83835 0
M  V30 4922 H 463.846 -1.95683 2.61487 0
M  V30 4923 H 462.505 -0.10059 3.66462 0
M  V30 4924 H 462.153 -2.47063 4.38143 0
M  V30 4925 H 461.853 -1.3364 5.72201 0
M  V30 4926 H 463.377 -2.26735 5.66942 0
M  V30 4927 H 464.791 0.00319931 5.733 0
M  V30 4928 H 463.188 0.763402 5.95224 0
M  V30 4929 H 464.258 1.33799 4.66075 0
M  V30 4930 N 465.601 -1.54893 0.290851 0
M  V30 4931 C 466.826 -2.04804 -0.32712 0
M  V30 4932 C 467.251 -1.16721 -1.47506 0
M  V30 4933 O 466.609 -0.169107 -1.8051 0
M  V30 4934 C 466.657 -3.52268 -0.770689 0
M  V30 4935 O 465.761 -3.67236 -1.87647 0
M  V30 4936 H 465.102 -0.660789 -0.0652227 0
M  V30 4937 H 467.632 -2.00036 0.429739 0
M  V30 4938 H 467.642 -3.9393 -1.06223 0
M  V30 4939 H 466.317 -4.15843 0.069096 0
M  V30 4940 H 464.894 -3.37479 -1.58626 0
M  V30 4941 N 467.08 -0.0183926 -1.57589 0
M  V30 4942 C 467.99 0.982943 -2.13015 0
M  V30 4943 C 469.006 1.36443 -1.07979 0
M  V30 4944 O 470.182 1.44802 -1.3998 0
M  V30 4945 C 467.247 2.25024 -2.63752 0
M  V30 4946 C 466.308 1.93018 -3.83461 0
M  V30 4947 C 465.541 3.13706 -4.31769 0
M  V30 4948 O 465.764 4.2601 -3.79305 0
M  V30 4949 O 464.698 2.96629 -5.23732 0
M  V30 4950 H 468.524 0.541709 -2.9883 0
M  V30 4951 H 466.109 0.201565 -1.48034 0
M  V30 4952 H 467.991 2.99441 -2.96502 0
M  V30 4953 H 466.666 2.68349 -1.81026 0
M  V30 4954 H 465.573 1.16019 -3.55655 0
M  V30 4955 H 466.906 1.54516 -4.67317 0
M  V30 4956 N 468.558 1.5553 0.254621 0
M  V30 4957 C 469.506 1.9048 1.33492 0
M  V30 4958 C 470.5 0.78304 1.50216 0
M  V30 4959 O 471.706 0.967582 1.51782 0
M  V30 4960 H 468.081 0.604846 0.44684 0
M  V30 4961 H 470.052 2.80688 1.01275 0
M  V30 4962 C 468.801 2.20928 2.68489 0
M  V30 4963 H 468.124 3.06742 2.56417 0
M  V30 4964 H 469.564 2.49291 3.42972 0
M  V30 4965 C 468.023 1.023 3.20993 0
M  V30 4966 O 468.553 0.267027 4.00811 0
M  V30 4967 N 466.759 0.815714 2.78917 0
M  V30 4968 H 466.306 1.43217 2.14119 0
M  V30 4969 H 466.264 0.0236532 3.14391 0
M  V30 4970 N 470.036 -0.519951 1.48776 0
M  V30 4971 C 471.283 -1.27522 1.57303 0
M  V30 4972 C 471.611 -1.92869 0.251328 0
M  V30 4973 O 470.866 -1.80372 -0.759243 0
M  V30 4974 C 471.165 -2.37864 2.6675 0
M  V30 4975 C 470.831 -1.90103 4.08867 0
M  V30 4976 C 469.493 -1.76795 4.47546 0
M  V30 4977 C 471.845 -1.54133 4.97888 0
M  V30 4978 C 469.173 -1.25868 5.73039 0
M  V30 4979 C 471.525 -1.04665 6.23881 0
M  V30 4980 C 470.189 -0.899823 6.61407 0
M  V30 4981 H 469.459 -0.466636 0.575614 0
M  V30 4982 H 472.106 -0.579109 1.82534 0
M  V30 4983 H 470.411 -3.13186 2.35418 0
M  V30 4984 H 472.108 -2.95969 2.70561 0
M  V30 4985 H 468.698 -2.01414 3.78326 0
M  V30 4986 H 472.882 -1.6327 4.68675 0
M  V30 4987 H 468.138 -1.13196 6.0083 0
M  V30 4988 H 472.312 -0.759074 6.92251 0
M  V30 4989 H 469.939 -0.503011 7.58534 0
M  V30 4990 N 471.514 -1.37532 -0.769588 0
M  V30 4991 C 472.444 -1.36172 -1.89682 0
M  V30 4992 C 473.425 -0.23001 -1.68538 0
M  V30 4993 O 474.61 -0.43069 -1.89364 0
M  V30 4994 C 471.74 -1.1701 -3.26995 0
M  V30 4995 C 470.694 -2.27216 -3.62708 0
M  V30 4996 C 470.02 -1.93174 -4.98586 0
M  V30 4997 C 471.32 -3.6941 -3.69234 0
M  V30 4998 H 473.014 -2.30499 -1.91078 0
M  V30 4999 H 470.56 -1.10953 -0.917902 0
M  V30 5000 H 472.513 -1.14688 -4.05493 0
M  V30 5001 H 471.237 -0.191395 -3.26039 0
M  V30 5002 H 469.896 -2.28697 -2.86519 0
M  V30 5003 H 469.544 -0.938281 -4.94171 0
M  V30 5004 H 469.244 -2.66973 -5.23449 0
M  V30 5005 H 470.768 -1.92443 -5.79481 0
M  V30 5006 H 472.182 -3.70047 -4.37879 0
M  V30 5007 H 470.579 -4.4228 -4.05597 0
M  V30 5008 H 471.649 -4.0288 -2.69844 0
M  V30 5009 N 472.992 0.995999 -1.22138 0
M  V30 5010 C 474.222 1.76809 -1.06874 0
M  V30 5011 C 474.63 1.85265 0.383866 0
M  V30 5012 O 473.973 1.31969 1.27789 0
M  V30 5013 C 474.035 3.2186 -1.60144 0
M  V30 5014 C 473.699 3.36958 -3.0872 0
M  V30 5015 C 474.696 3.2452 -4.0618 0
M  V30 5016 C 472.381 3.62109 -3.48112 0
M  V30 5017 C 474.375 3.37013 -5.41019 0
M  V30 5018 C 472.062 3.74243 -4.831 0
M  V30 5019 C 473.06 3.61702 -5.79362 0
M  V30 5020 O 472.748 3.73436 -7.119 0
M  V30 5021 H 472.48 0.562207 -0.375365 0
M  V30 5022 H 475.034 1.26113 -1.62125 0
M  V30 5023 H 473.264 3.73734 -0.992981 0
M  V30 5024 H 474.953 3.80775 -1.40589 0
M  V30 5025 H 475.719 3.05004 -3.77091 0
M  V30 5026 H 471.598 3.70949 -2.73712 0
M  V30 5027 H 475.142 3.27141 -6.16137 0
M  V30 5028 H 471.039 3.93266 -5.11872 0
M  V30 5029 H 471.807 3.90328 -7.19435 0
M  V30 5030 N 474.47 1.03057 1.19235 0
M  V30 5031 C 475.417 0.612832 2.22515 0
M  V30 5032 C 476.387 -0.374224 1.61829 0
M  V30 5033 O 477.572 -0.270501 1.88873 0
M  V30 5034 C 474.712 -0.028475 3.45088 0
M  V30 5035 C 473.825 1.00483 4.20151 0
M  V30 5036 C 472.96 0.333102 5.30155 0
M  V30 5037 C 471.999 1.3522 5.96977 0
M  V30 5038 N 471.136 0.70616 6.9854 0
M  V30 5039 H 475.976 1.49812 2.57605 0
M  V30 5040 H 473.513 0.749658 1.26564 0
M  V30 5041 H 475.471 -0.417548 4.15105 0
M  V30 5042 H 474.101 -0.877334 3.10649 0
M  V30 5043 H 473.153 1.51194 3.49062 0
M  V30 5044 H 474.465 1.77929 4.65986 0
M  V30 5045 H 473.619 -0.110725 6.06599 0
M  V30 5046 H 472.358 -0.473547 4.85396 0
M  V30 5047 H 471.363 1.80627 5.19282 0
M  V30 5048 H 472.588 2.16037 6.4382 0
M  V30 5049 H 470.534 -0.0803667 6.55951 0
M  V30 5050 H 470.451 1.41848 7.42573 0
M  V30 5051 H 471.719 0.286391 7.78974 0
M  V30 5052 N 475.948 -1.35272 0.808662 0
M  V30 5053 C 477.188 -2.00534 0.395668 0
M  V30 5054 C 477.552 -1.62755 -1.01857 0
M  V30 5055 O 478.753 -2.20752 -1.53368 0
M  V30 5056 C 477.024 -3.52732 0.575771 0
M  V30 5057 S 478.583 -4.38067 0.253507 0
M  V30 5058 H 475.401 -0.694962 0.150165 0
M  V30 5059 H 478.003 -1.64823 1.05137 0
M  V30 5060 H 476.707 -3.77714 1.60499 0
M  V30 5061 H 476.238 -3.93285 -0.0951739 0
M  V30 5062 H 478.253 -4.87252 -0.938068 0
M  V30 5063 N 477.426 -0.562348 -1.47226 0
M  V30 5064 C 478.675 -0.038041 -2.01664 0
M  V30 5065 C 478.988 1.32199 -1.44162 0
M  V30 5066 O 480.194 1.9365 -1.90294 0
M  V30 5067 C 478.65 -0.0174958 -3.59896 0
M  V30 5068 C 478.258 -1.3746 -4.2639 0
M  V30 5069 C 480.002 0.453934 -4.22066 0
M  V30 5070 C 477.909 -1.31289 -5.76643 0
M  V30 5071 H 476.839 -0.0104511 -0.753928 0
M  V30 5072 H 479.49 -0.710966 -1.69167 0
M  V30 5073 H 477.872 0.721182 -3.89378 0
M  V30 5074 H 479.046 -2.1314 -4.08544 0
M  V30 5075 H 477.361 -1.78438 -3.7623 0
M  V30 5076 H 479.958 0.518584 -5.32179 0
M  V30 5077 H 480.301 1.46706 -3.89594 0
M  V30 5078 H 480.834 -0.230044 -3.97134 0
M  V30 5079 H 477.573 -2.30217 -6.13743 0
M  V30 5080 H 477.093 -0.597973 -5.96812 0
M  V30 5081 H 478.772 -1.01713 -6.38955 0
M  V30 5082 N 478.904 1.54736 -0.299062 0
M  V30 5083 C 480.132 2.04512 0.313447 0
M  V30 5084 C 480.547 1.17643 1.47667 0
M  V30 5085 O 479.904 0.20164 1.81383 0
M  V30 5086 C 479.955 3.53171 0.771542 0
M  V30 5087 O 479.676 4.36736 -0.345379 0
M  V30 5088 C 481.177 4.18936 1.4494 0
M  V30 5089 H 478.397 0.667507 0.0683784 0
M  V30 5090 H 480.941 1.99752 -0.438129 0
M  V30 5091 H 479.096 3.58298 1.47314 0
M  V30 5092 H 479.51 5.24499 0.0109219 0
M  V30 5093 H 480.984 5.24482 1.72111 0
M  V30 5094 H 481.461 3.68554 2.38883 0
M  V30 5095 H 482.067 4.17879 0.791028 0
M  V30 5096 N 480.382 0.0267497 1.57577 0
M  V30 5097 C 481.329 -0.955894 2.10075 0
M  V30 5098 C 482.299 -1.32453 1.00226 0
M  V30 5099 O 483.484 -1.41826 1.27632 0
M  V30 5100 C 480.624 -2.2338 2.6305 0
M  V30 5101 C 479.737 -1.92183 3.86898 0
M  V30 5102 C 478.872 -3.14251 4.28275 0
M  V30 5103 C 477.911 -2.78862 5.44888 0
M  V30 5104 N 477.048 -3.93548 5.81433 0
M  V30 5105 H 481.888 -0.501303 2.93753 0
M  V30 5106 H 479.425 -0.235847 1.45197 0
M  V30 5107 H 481.383 -2.98124 2.91853 0
M  V30 5108 H 480.013 -2.6646 1.82205 0
M  V30 5109 H 479.065 -1.07692 3.64838 0
M  V30 5110 H 480.377 -1.62117 4.7172 0
M  V30 5111 H 479.531 -3.97317 4.58502 0
M  V30 5112 H 478.27 -3.47476 3.42215 0
M  V30 5113 H 477.275 -1.94208 5.14357 0
M  V30 5114 H 478.5 -2.46855 6.32645 0
M  V30 5115 H 476.446 -4.2662 4.98328 0
M  V30 5116 H 476.363 -3.67098 6.6089 0
M  V30 5117 H 477.631 -4.77325 6.16264 0
M  V30 5118 N 481.861 -1.55662 -0.24637 0
M  V30 5119 C 483.089 -1.81575 -0.991876 0
M  V30 5120 C 483.504 -0.602545 -1.78927 0
M  V30 5121 O 482.861 0.428795 -1.77391 0
M  V30 5122 C 482.912 -3.05711 -1.92933 0
M  V30 5123 O 482.633 -4.22348 -1.1642 0
M  V30 5124 C 484.134 -3.44428 -2.79078 0
M  V30 5125 H 481.354 -0.604209 -0.291844 0
M  V30 5126 H 483.898 -2.02722 -0.269095 0
M  V30 5127 H 482.053 -2.86612 -2.60638 0
M  V30 5128 H 482.467 -4.92706 -1.79835 0
M  V30 5129 H 483.941 -4.34388 -3.40603 0
M  V30 5130 H 484.418 -2.65037 -3.50217 0
M  V30 5131 H 485.024 -3.65879 -2.16824 0
M  V30 5132 N 483.339 0.512053 -1.4905 0
M  V30 5133 C 484.286 1.6148 -1.64902 0
M  V30 5134 C 485.256 1.58687 -0.490673 0
M  V30 5135 O 486.441 1.76842 -0.71636 0
M  V30 5136 C 483.581 2.99676 -1.71139 0
M  V30 5137 C 482.694 3.12568 -2.98203 0
M  V30 5138 C 481.829 4.4143 -2.95487 0
M  V30 5139 C 480.868 4.47916 -4.17179 0
M  V30 5140 N 480.005 5.68191 -4.12437 0
M  V30 5141 H 484.845 1.47271 -2.59066 0
M  V30 5142 H 482.382 0.716713 -1.28459 0
M  V30 5143 H 484.34 3.79761 -1.72736 0
M  V30 5144 H 482.97 3.12614 -0.804508 0
M  V30 5145 H 482.022 2.25618 -3.06269 0
M  V30 5146 H 483.334 3.1322 -3.88194 0
M  V30 5147 H 482.488 5.29825 -2.95585 0
M  V30 5148 H 481.227 4.43326 -2.03256 0
M  V30 5149 H 480.232 3.57925 -4.17337 0
M  V30 5150 H 481.457 4.47744 -5.1059 0
M  V30 5151 H 479.403 5.7095 -3.23036 0
M  V30 5152 H 479.32 5.70413 -4.96151 0
M  V30 5153 H 480.588 6.58823 -4.16621 0
M  V30 5154 N 484.817 1.37938 0.762283 0
M  V30 5155 C 485.78 1.34279 1.85747 0
M  V30 5156 C 486.78 0.244969 1.58923 0
M  V30 5157 O 487.97 0.501365 1.66829 0
M  V30 5158 C 485.102 1.08833 3.23061 0
M  V30 5159 H 486.295 2.31705 1.90401 0
M  V30 5160 H 483.848 1.23105 0.963057 0
M  V30 5161 H 484.583 0.119767 3.24079 0
M  V30 5162 H 484.368 1.88306 3.43923 0
M  V30 5163 H 485.858 1.08946 4.03138 0
M  V30 5164 N 486.295 -0.989507 1.22664 0
M  V30 5165 C 487.542 -1.72953 1.05325 0
M  V30 5166 C 487.87 -1.90104 -0.411168 0
M  V30 5167 O 487.125 -1.44386 -1.32103 0
M  V30 5168 C 487.424 -3.13649 1.71345 0
M  V30 5169 C 487.09 -3.16403 3.21248 0
M  V30 5170 C 485.752 -3.16862 3.62149 0
M  V30 5171 C 488.104 -3.12428 4.17179 0
M  V30 5172 C 485.432 -3.11051 4.97458 0
M  V30 5173 C 487.784 -3.08159 5.52468 0
M  V30 5174 C 486.448 -3.06935 5.92746 0
M  V30 5175 H 485.718 -0.632881 0.385412 0
M  V30 5176 H 488.365 -1.15863 1.52473 0
M  V30 5177 H 486.67 -3.74069 1.16532 0
M  V30 5178 H 488.367 -3.69658 1.55416 0
M  V30 5179 H 484.957 -3.16798 2.88682 0
M  V30 5180 H 489.141 -3.11221 3.86595 0
M  V30 5181 H 484.397 -3.0845 5.27891 0
M  V30 5182 H 488.571 -3.04039 6.26525 0
M  V30 5183 H 486.198 -3.02186 6.97558 0
M  V30 5184 N 487.773 -1.03688 -1.18687 0
M  V30 5185 C 488.705 -0.582696 -2.21669 0
M  V30 5186 C 489.718 0.345656 -1.59088 0
M  V30 5187 O 490.907 0.140776 -1.77944 0
M  V30 5188 C 488.007 0.169204 -3.38477 0
M  V30 5189 C 487.18 -0.766079 -4.30639 0
M  V30 5190 C 486.239 -0.0581541 -5.26168 0
M  V30 5191 O 485.265 -0.687346 -5.65035 0
M  V30 5192 N 486.467 1.20981 -5.67753 0
M  V30 5193 H 489.232 -1.46843 -2.61261 0
M  V30 5194 H 486.793 -0.916896 -1.33434 0
M  V30 5195 H 488.785 0.652543 -3.99405 0
M  V30 5196 H 487.355 0.956435 -2.97609 0
M  V30 5197 H 486.575 -1.42935 -3.67373 0
M  V30 5198 H 487.863 -1.40146 -4.89118 0
M  V30 5199 H 487.261 1.74159 -5.38224 0
M  V30 5200 H 485.818 1.6375 -6.30896 0
M  V30 5201 N 489.251 1.34841 -0.815825 0
M  V30 5202 C 490.499 1.98107 -0.399744 0
M  V30 5203 C 490.82 1.65019 1.03894 0
M  V30 5204 O 490.09 0.937311 1.72021 0
M  V30 5205 H 488.67 0.732827 -0.144823 0
M  V30 5206 H 491.332 1.64599 -1.0437 0
M  V30 5207 H 490.428 3.07856 -0.512965 0
M  V30 5208 N 490.729 0.570148 1.46925 0
M  V30 5209 C 491.659 -0.158274 2.32963 0
M  V30 5210 C 492.64 -0.896093 1.44583 0
M  V30 5211 O 493.825 -0.874022 1.7342 0
M  V30 5212 C 490.955 -1.18055 3.26619 0
M  V30 5213 C 489.909 -0.558379 4.24342 0
M  V30 5214 C 489.235 -1.68623 5.07415 0
M  V30 5215 C 490.535 0.496295 5.19937 0
M  V30 5216 H 492.229 0.560046 2.94115 0
M  V30 5217 H 489.775 0.270775 1.41431 0
M  V30 5218 H 491.728 -1.69841 3.85658 0
M  V30 5219 H 490.452 -1.92899 2.63548 0
M  V30 5220 H 489.111 -0.0617157 3.66548 0
M  V30 5221 H 488.759 -2.42402 4.40738 0
M  V30 5222 H 488.459 -1.27564 5.73586 0
M  V30 5223 H 489.983 -2.20709 5.69315 0
M  V30 5224 H 491.397 0.0640052 5.73264 0
M  V30 5225 H 489.794 0.82649 5.94381 0
M  V30 5226 H 490.864 1.38735 4.6463 0
M  V30 5227 N 492.207 -1.54576 0.307264 0
M  V30 5228 C 493.435 -2.04675 -0.302597 0
M  V30 5229 C 493.85 -1.18425 -1.47041 0
M  V30 5230 O 493.207 -0.211257 -1.81273 0
M  V30 5231 C 493.258 -3.53575 -0.752801 0
M  V30 5232 O 492.979 -4.36547 0.368536 0
M  V30 5233 C 494.48 -4.19699 -1.42717 0
M  V30 5234 H 491.7 -0.66786 -0.0648374 0
M  V30 5235 H 494.244 -1.99516 0.448716 0
M  V30 5236 H 492.399 -3.59074 -1.45412 0
M  V30 5237 H 492.813 -5.24497 0.0168937 0
M  V30 5238 H 494.287 -5.25388 -1.69327 0
M  V30 5239 H 494.764 -3.69815 -2.36925 0
M  V30 5240 H 495.37 -4.18293 -0.768856 0
M  V30 5241 N 493.685 -0.035106 -1.57561 0
M  V30 5242 C 494.617 0.973604 -2.07494 0
M  V30 5243 C 495.63 1.28504 -0.999534 0
M  V30 5244 O 496.819 1.24864 -1.27559 0
M  V30 5245 C 493.919 2.29945 -2.48955 0
M  V30 5246 C 493.092 2.1723 -3.79644 0
M  V30 5247 C 492.151 3.328 -4.07592 0
M  V30 5248 O 491.177 3.09418 -4.77754 0
M  V30 5249 N 492.379 4.56779 -3.58236 0
M  V30 5250 H 495.144 0.547525 -2.94656 0
M  V30 5251 H 492.705 0.151515 -1.61189 0
M  V30 5252 H 494.697 3.06097 -2.64739 0
M  V30 5253 H 493.267 2.64173 -1.67126 0
M  V30 5254 H 492.487 1.25768 -3.73599 0
M  V30 5255 H 493.775 2.05945 -4.65257 0
M  V30 5256 H 493.173 4.78668 -3.01485 0
M  V30 5257 H 491.73 5.30079 -3.79288 0
M  V30 5258 N 495.163 1.55791 0.238111 0
M  V30 5259 C 496.093 1.94068 1.29846 0
M  V30 5260 C 497.074 0.806726 1.49753 0
M  V30 5261 O 498.259 1.06772 1.62214 0
M  V30 5262 C 495.389 2.24302 2.65153 0
M  V30 5263 C 494.343 3.40032 2.59927 0
M  V30 5264 C 493.669 3.55829 3.99111 0
M  V30 5265 C 494.969 4.75476 2.16148 0
M  V30 5266 H 496.663 2.82887 0.980563 0
M  V30 5267 H 494.209 1.36105 0.470253 0
M  V30 5268 H 496.162 2.4967 3.39475 0
M  V30 5269 H 494.886 1.32318 2.98596 0
M  V30 5270 H 493.545 3.14687 1.88063 0
M  V30 5271 H 493.193 2.6125 4.29834 0
M  V30 5272 H 492.893 4.3366 3.96501 0
M  V30 5273 H 494.417 3.83528 4.7512 0
M  V30 5274 H 495.831 5.00158 2.80205 0
M  V30 5275 H 494.228 5.56472 2.24631 0
M  V30 5276 H 495.298 4.71946 1.11333 0
M  V30 5277 N 496.642 -0.504142 1.49319 0
M  V30 5278 C 498.058 -0.835039 1.36012 0
M  V30 5279 C 498.258 -1.97674 0.390808 0
M  V30 5280 O 497.314 -2.51867 -0.178655 0
M  V30 5281 C 498.627 -1.17821 2.76656 0
M  V30 5282 C 500.175 -1.2866 2.85334 0
M  V30 5283 C 500.65 -1.66307 4.26739 0
M  V30 5284 N 502.141 -1.73362 4.29534 0
M  V30 5285 C 502.876 -2.0393 5.35911 0
M  V30 5286 N 502.372 -2.32744 6.52535 0
M  V30 5287 N 504.165 -2.05155 5.23324 0
M  V30 5288 H 496.316 0.248764 2.10938 0
M  V30 5289 H 498.579 0.0486962 0.946748 0
M  V30 5290 H 498.285 -0.412682 3.4927 0
M  V30 5291 H 498.159 -2.12239 3.11825 0
M  V30 5292 H 500.546 -2.04285 2.1296 0
M  V30 5293 H 500.627 -0.323004 2.53752 0
M  V30 5294 H 500.271 -0.91234 4.99639 0
M  V30 5295 H 500.201 -2.63761 4.55782 0
M  V30 5296 H 502.692 -1.53268 3.45424 0
M  V30 5297 H 503.005 -2.55248 7.2943 0
M  V30 5298 H 501.35 -2.30207 6.55767 0
M  V30 5299 H 504.541 -1.82119 4.3122 0
M  V30 5300 H 504.714 -2.28644 6.06322 0
M  V30 5301 N 498.12 -1.38341 -0.754957 0
M  V30 5302 C 499.067 -1.3546 -1.86867 0
M  V30 5303 C 500.037 -0.217369 -1.64672 0
M  V30 5304 O 501.222 -0.409383 -1.86356 0
M  V30 5305 C 498.362 -1.18413 -3.24149 0
M  V30 5306 C 497.475 -2.41511 -3.58185 0
M  V30 5307 C 496.61 -2.17205 -4.84763 0
M  V30 5308 C 495.649 -3.36081 -5.11582 0
M  V30 5309 N 494.786 -3.11219 -6.29354 0
M  V30 5310 H 499.626 -2.30672 -1.88664 0
M  V30 5311 H 497.163 -1.14607 -0.922154 0
M  V30 5312 H 499.121 -1.06545 -4.03366 0
M  V30 5313 H 497.751 -0.268397 -3.21682 0
M  V30 5314 H 496.803 -2.64056 -2.73822 0
M  V30 5315 H 498.115 -3.30115 -3.73932 0
M  V30 5316 H 497.269 -2.02465 -5.7192 0
M  V30 5317 H 496.008 -1.25964 -4.71152 0
M  V30 5318 H 495.013 -3.51341 -4.22894 0
M  V30 5319 H 496.238 -4.28196 -5.27091 0
M  V30 5320 H 494.184 -2.22624 -6.17069 0
M  V30 5321 H 494.101 -3.93373 -6.45596 0
M  V30 5322 H 495.369 -3.00132 -7.19403 0
M  V30 5323 N 499.598 0.982988 -1.23187 0
M  V30 5324 C 500.528 2.09301 -1.03515 0
M  V30 5325 C 501.509 1.70035 0.0471136 0
M  V30 5326 O 502.694 1.93847 -0.117029 0
M  V30 5327 C 499.824 3.4167 -0.622791 0
M  V30 5328 C 498.778 3.94828 -1.65211 0
M  V30 5329 C 498.104 5.23362 -1.09527 0
M  V30 5330 C 499.404 4.2439 -3.04451 0
M  V30 5331 H 501.098 2.26016 -1.96359 0
M  V30 5332 H 498.644 1.08611 -0.945501 0
M  V30 5333 H 500.597 4.18746 -0.472233 0
M  V30 5334 H 499.321 3.24811 0.341329 0
M  V30 5335 H 497.98 3.19895 -1.79061 0
M  V30 5336 H 497.628 5.02852 -0.122211 0
M  V30 5337 H 497.328 5.59895 -1.783 0
M  V30 5338 H 498.852 6.03062 -0.956511 0
M  V30 5339 H 500.266 4.92225 -2.93917 0
M  V30 5340 H 498.663 4.72118 -3.70438 0
M  V30 5341 H 499.733 3.31765 -3.53638 0
M  V30 5342 N 501.076 1.04316 1.18135 0
M  V30 5343 C 502.024 0.630175 2.23901 0
M  V30 5344 C 503.018 -0.344254 1.65865 0
M  V30 5345 O 504.224 -0.211273 1.78756 0
M  V30 5346 H 500.599 0.185578 0.728742 0
M  V30 5347 H 502.57 1.53253 2.56039 0
M  V30 5348 C 501.319 0.011666 3.47698 0
M  V30 5349 H 500.642 0.752526 3.92654 0
M  V30 5350 H 502.082 -0.240046 4.2332 0
M  V30 5351 C 500.541 -1.23913 3.13285 0
M  V30 5352 O 501.071 -2.32959 3.27251 0
M  V30 5353 N 499.277 -1.13338 2.67587 0
M  V30 5354 H 498.824 -0.246006 2.56423 0
M  V30 5355 H 498.782 -1.97116 2.44934 0
M  V30 5356 N 502.554 -1.34406 0.822964 0
M  V30 5357 C 503.484 -2.32052 0.259608 0
M  V30 5358 C 504.465 -1.58243 -0.623961 0
M  V30 5359 O 505.65 -1.86224 -0.55083 0
M  V30 5360 C 502.78 -3.42434 -0.579314 0
M  V30 5361 C 501.734 -4.27499 0.20712 0
M  V30 5362 C 501.06 -5.29349 -0.754547 0
M  V30 5363 C 502.36 -5.02758 1.41533 0
M  V30 5364 H 504.054 -2.79418 1.07545 0
M  V30 5365 H 501.6 -1.34338 0.518593 0
M  V30 5366 H 503.553 -4.0976 -0.983612 0
M  V30 5367 H 502.277 -2.93717 -1.4282 0
M  V30 5368 H 500.936 -3.61776 0.592787 0
M  V30 5369 H 500.584 -4.76895 -1.59939 0
M  V30 5370 H 500.284 -5.8714 -0.232561 0
M  V30 5371 H 501.808 -5.99544 -1.1567 0
M  V30 5372 H 503.222 -5.62938 1.08504 0
M  V30 5373 H 501.619 -5.70123 1.87296 0
M  V30 5374 H 502.689 -4.32451 2.1935 0
M  V30 5375 N 504.032 -0.577932 -1.46621 0
M  V30 5376 C 505.257 -0.0652536 -2.07297 0
M  V30 5377 C 505.682 1.22828 -1.4246 0
M  V30 5378 O 505.04 1.74075 -0.506718 0
M  V30 5379 C 505.088 0.0920589 -3.60482 0
M  V30 5380 O 504.192 1.14972 -3.96049 0
M  V30 5381 H 503.533 -0.06065 -0.661224 0
M  V30 5382 H 506.063 -0.799515 -1.88332 0
M  V30 5383 H 506.073 0.299741 -4.06897 0
M  V30 5384 H 504.748 -0.852612 -4.07067 0
M  V30 5385 H 503.325 0.920879 -3.61351 0
M  V30 5386 N 505.51 1.54411 -0.315457 0
M  V30 5387 C 506.757 2.00419 0.289543 0
M  V30 5388 C 507.085 1.20373 1.52776 0
M  V30 5389 O 506.34 0.271769 1.93804 0
M  V30 5390 C 506.639 3.50936 0.676652 0
M  V30 5391 C 506.305 4.48532 -0.461472 0
M  V30 5392 C 504.967 4.74936 -0.773879 0
M  V30 5393 C 507.319 5.06567 -1.22637 0
M  V30 5394 C 504.647 5.56634 -1.85405 0
M  V30 5395 C 506.999 5.89441 -2.29657 0
M  V30 5396 C 505.663 6.1415 -2.61488 0
M  V30 5397 H 504.933 0.733386 0.105951 0
M  V30 5398 H 507.58 1.86434 -0.437554 0
M  V30 5399 H 505.885 3.62606 1.48405 0
M  V30 5400 H 507.582 3.83971 1.15618 0
M  V30 5401 H 504.172 4.28096 -0.207893 0
M  V30 5402 H 508.356 4.86157 -0.998271 0
M  V30 5403 H 503.612 5.74012 -2.10523 0
M  V30 5404 H 507.786 6.33432 -2.89374 0
M  V30 5405 H 505.413 6.77245 -3.45317 0
M  V30 5406 N 506.988 0.0434614 1.5754 0
M  V30 5407 C 507.936 -0.951465 2.1225 0
M  V30 5408 C 508.93 -1.3274 1.05245 0
M  V30 5409 O 510.136 -1.30795 1.23663 0
M  V30 5410 H 506.511 -0.324667 0.678303 0
M  V30 5411 H 508.482 -0.464855 2.94757 0
M  V30 5412 C 507.231 -2.21972 2.67626 0
M  V30 5413 H 506.554 -1.93923 3.4962 0
M  V30 5414 H 507.994 -2.89765 3.09536 0
M  V30 5415 C 506.453 -2.95919 1.61038 0
M  V30 5416 O 506.983 -3.8857 1.01862 0
M  V30 5417 N 505.189 -2.58511 1.32741 0
M  V30 5418 H 504.736 -1.83244 1.81051 0
M  V30 5419 H 504.694 -3.08296 0.616531 0
M  V30 5420 N 508.466 -1.55915 -0.229846 0
M  V30 5421 C 509.696 -1.82352 -0.971152 0
M  V30 5422 C 510.104 -0.619231 -1.7878 0
M  V30 5423 O 509.447 0.421597 -1.78797 0
M  V30 5424 C 509.509 -3.02399 -1.9441 0
M  V30 5425 C 509.173 -4.37739 -1.31277 0
M  V30 5426 C 510.17 -5.15074 -0.706757 0
M  V30 5427 C 507.855 -4.84454 -1.32702 0
M  V30 5428 C 509.849 -6.37281 -0.123413 0
M  V30 5429 C 507.536 -6.06605 -0.739831 0
M  V30 5430 C 508.534 -6.82858 -0.139071 0
M  V30 5431 O 508.222 -8.027 0.439007 0
M  V30 5432 H 507.954 -0.61035 -0.290601 0
M  V30 5433 H 510.508 -2.03839 -0.252746 0
M  V30 5434 H 508.738 -2.76709 -2.70128 0
M  V30 5435 H 510.427 -3.15779 -2.55026 0
M  V30 5436 H 511.193 -4.80093 -0.688131 0
M  V30 5437 H 507.072 -4.25081 -1.78402 0
M  V30 5438 H 510.616 -6.96741 0.346124 0
M  V30 5439 H 506.513 -6.4106 -0.755841 0
M  V30 5440 H 507.281 -8.17824 0.332521 0
M  V30 5441 N 509.944 0.496216 -1.49584 0
M  V30 5442 C 510.876 1.61404 -1.62731 0
M  V30 5443 C 511.889 1.54613 -0.50978 0
M  V30 5444 O 513.078 1.60458 -0.782017 0
M  V30 5445 C 510.178 3.00212 -1.57245 0
M  V30 5446 C 509.351 3.32138 -2.84611 0
M  V30 5447 C 508.41 4.5038 -2.72112 0
M  V30 5448 O 507.436 4.51926 -3.46051 0
M  V30 5449 N 508.638 5.50575 -1.83977 0
M  V30 5450 H 511.403 1.50552 -2.59141 0
M  V30 5451 H 508.964 0.684182 -1.46733 0
M  V30 5452 H 510.956 3.77241 -1.4653 0
M  V30 5453 H 509.526 3.04964 -0.686729 0
M  V30 5454 H 508.746 2.4396 -3.09641 0
M  V30 5455 H 510.034 3.50268 -3.69039 0
M  V30 5456 H 509.432 5.52128 -1.23171 0
M  V30 5457 H 507.989 6.26687 -1.79182 0
M  V30 5458 N 511.423 1.38739 0.74761 0
M  V30 5459 C 512.37 1.36449 1.86146 0
M  V30 5460 C 513.34 0.226098 1.64554 0
M  V30 5461 O 514.525 0.41926 1.86137 0
M  V30 5462 C 511.665 1.2013 3.23516 0
M  V30 5463 C 510.778 2.43407 3.56899 0
M  V30 5464 C 509.913 2.19773 4.83605 0
M  V30 5465 C 508.952 3.3879 5.09792 0
M  V30 5466 N 508.089 3.14553 6.27695 0
M  V30 5467 H 512.929 2.3167 1.87438 0
M  V30 5468 H 510.466 1.15094 0.916063 0
M  V30 5469 H 512.424 1.08683 4.02795 0
M  V30 5470 H 511.054 0.285453 3.21535 0
M  V30 5471 H 510.106 2.65504 2.72418 0
M  V30 5472 H 511.418 3.32094 3.72176 0
M  V30 5473 H 510.572 2.05496 5.70838 0
M  V30 5474 H 509.311 1.28461 4.70478 0
M  V30 5475 H 508.316 3.53579 4.21025 0
M  V30 5476 H 509.541 4.30986 5.24812 0
M  V30 5477 H 507.487 2.25893 6.1588 0
M  V30 5478 H 507.404 3.96791 6.435 0
M  V30 5479 H 508.672 3.03943 7.17801 0
M  V30 5480 N 512.901 -0.976442 1.23707 0
M  V30 5481 C 514.317 -1.24341 1.00058 0
M  V30 5482 C 514.517 -1.99315 -0.295932 0
M  V30 5483 O 513.573 -2.3123 -1.01435 0
M  V30 5484 C 514.886 -2.03909 2.21001 0
M  V30 5485 C 516.434 -2.17034 2.25534 0
M  V30 5486 C 516.909 -2.99994 3.46075 0
M  V30 5487 N 518.4 -3.07578 3.46338 0
M  V30 5488 C 519.135 -3.72104 4.36264 0
M  V30 5489 N 518.631 -4.3842 5.36432 0
M  V30 5490 N 520.424 -3.69029 4.23998 0
M  V30 5491 H 512.575 -0.47428 2.07037 0
M  V30 5492 H 514.838 -0.272167 0.908091 0
M  V30 5493 H 514.544 -1.56198 3.15111 0
M  V30 5494 H 514.418 -3.04654 2.22409 0
M  V30 5495 H 516.805 -2.63951 1.31961 0
M  V30 5496 H 516.886 -1.15664 2.28156 0
M  V30 5497 H 516.53 -2.53772 4.39957 0
M  V30 5498 H 516.46 -4.01541 3.40694 0
M  V30 5499 H 518.951 -2.60397 2.73865 0
M  V30 5500 H 519.264 -4.85447 6.013 0
M  V30 5501 H 517.609 -4.37116 5.40328 0
M  V30 5502 H 520.8 -3.16392 3.44984 0
M  V30 5503 H 520.973 -4.19034 4.94282 0
M  V30 5504 N 514.379 -1.04941 -1.1758 0
M  V30 5505 C 515.625 -0.759112 -1.88057 0
M  V30 5506 C 515.958 0.711918 -1.8068 0
M  V30 5507 O 515.233 1.52035 -1.21308 0
M  V30 5508 C 515.516 -1.237 -3.38187 0
M  V30 5509 C 515.369 -2.77078 -3.54327 0
M  V30 5510 C 516.688 -0.834014 -4.32125 0
M  V30 5511 H 513.807 -0.277237 -0.682868 0
M  V30 5512 H 516.449 -1.30296 -1.38286 0
M  V30 5513 H 514.599 -0.774337 -3.80705 0
M  V30 5514 H 516.271 -3.31449 -3.20842 0
M  V30 5515 H 514.514 -3.16477 -2.96689 0
M  V30 5516 H 515.185 -3.05577 -4.59703 0
M  V30 5517 H 517.661 -1.23228 -3.97434 0
M  V30 5518 H 516.537 -1.19603 -5.35711 0
M  V30 5519 H 516.798 0.262195 -4.41322 0
M  V30 5520 N 515.857 1.33968 -0.830081 0
M  V30 5521 C 517.082 2.02813 -0.433796 0
M  V30 5522 C 517.507 1.62076 0.954614 0
M  V30 5523 O 516.865 0.808955 1.62252 0
M  V30 5524 C 516.913 3.56348 -0.552115 0
M  V30 5525 O 516.017 4.10202 0.425191 0
M  V30 5526 H 515.358 0.639817 -0.177567 0
M  V30 5527 H 517.888 1.7106 -1.12248 0
M  V30 5528 H 517.898 4.05722 -0.430513 0
M  V30 5529 H 516.573 3.85344 -1.56471 0
M  V30 5530 H 515.15 3.71979 0.261878 0
M  V30 5531 N 517.335 0.585699 1.46312 0
M  V30 5532 C 518.582 0.0724211 2.0237 0
M  V30 5533 C 518.91 -1.28868 1.45683 0
M  V30 5534 O 518.165 -1.85853 0.612945 0
M  V30 5535 C 518.464 -0.0401312 3.57377 0
M  V30 5536 C 518.13 1.25376 4.33119 0
M  V30 5537 C 516.792 1.60824 4.5353 0
M  V30 5538 C 519.144 2.10987 4.76586 0
M  V30 5539 C 516.472 2.81676 5.14661 0
M  V30 5540 C 518.824 3.31068 5.39052 0
M  V30 5541 C 517.488 3.66794 5.5769 0
M  V30 5542 H 516.758 0.0265007 0.740526 0
M  V30 5543 H 519.405 0.762935 1.75646 0
M  V30 5544 H 517.71 -0.813791 3.83255 0
M  V30 5545 H 519.407 -0.453078 3.98432 0
M  V30 5546 H 515.997 0.967808 4.1753 0
M  V30 5547 H 520.181 1.84904 4.60569 0
M  V30 5548 H 515.437 3.0949 5.27282 0
M  V30 5549 H 519.611 3.97672 5.71691 0
M  V30 5550 H 517.238 4.60529 6.04828 0
M  V30 5551 N 518.813 -1.54241 0.323641 0
M  V30 5552 C 519.776 -2.22997 -0.529602 0
M  V30 5553 C 520.776 -1.22345 -1.04347 0
M  V30 5554 O 521.966 -1.46924 -0.935889 0
M  V30 5555 C 519.098 -2.93409 -1.73562 0
M  V30 5556 H 520.291 -2.99815 0.0714518 0
M  V30 5557 H 517.844 -1.56121 0.0747258 0
M  V30 5558 H 518.579 -2.20729 -2.37591 0
M  V30 5559 H 518.364 -3.67217 -1.37456 0
M  V30 5560 H 519.854 -3.45794 -2.34128 0
M  V30 5561 N 520.291 -0.0518155 -1.57515 0
M  V30 5562 C 521.241 0.932017 -2.0808 0
M  V30 5563 C 522.225 1.27141 -0.986098 0
M  V30 5564 O 523.417 1.25373 -1.24943 0
M  V30 5565 C 520.546 2.20665 -2.62986 0
M  V30 5566 C 519.632 1.89462 -3.79427 0
M  V30 5567 N 520.023 1.28621 -4.89173 0
M  V30 5568 C 518.321 2.19327 -3.88345 0
M  V30 5569 C 519.022 1.15062 -5.70207 0
M  V30 5570 N 517.998 1.65372 -5.17835 0
M  V30 5571 H 521.8 0.456964 -2.90326 0
M  V30 5572 H 519.314 0.152619 -1.61681 0
M  V30 5573 H 521.311 2.92044 -2.97516 0
M  V30 5574 H 519.971 2.68776 -1.8218 0
M  V30 5575 H 520.982 0.958341 -5.08956 0
M  V30 5576 H 517.659 2.69955 -3.18482 0
M  V30 5577 H 519.049 0.678243 -6.68468 0
M  V30 5578 N 521.769 1.56035 0.221574 0
M  V30 5579 C 522.699 1.95434 1.2778 0
M  V30 5580 C 523.68 0.822564 1.48889 0
M  V30 5581 O 524.865 1.08486 1.61072 0
M  V30 5582 C 521.995 2.27102 2.62759 0
M  V30 5583 C 520.949 3.4277 2.56306 0
M  V30 5584 C 520.275 3.60043 3.95314 0
M  V30 5585 C 521.575 4.77742 2.11093 0
M  V30 5586 H 523.269 2.83912 0.950504 0
M  V30 5587 H 520.815 1.36596 0.455791 0
M  V30 5588 H 522.768 2.53256 3.36807 0
M  V30 5589 H 521.492 1.35478 2.97176 0
M  V30 5590 H 520.151 3.16664 1.84715 0
M  V30 5591 H 519.799 2.65794 4.27039 0
M  V30 5592 H 519.499 4.37841 3.91879 0
M  V30 5593 H 521.023 3.88545 4.71025 0
M  V30 5594 H 522.437 5.03102 2.74885 0
M  V30 5595 H 520.834 5.58823 2.18716 0
M  V30 5596 H 521.904 4.731 1.06321 0
M  V30 5597 N 523.247 -0.488276 1.49845 0
M  V30 5598 C 524.472 -1.26997 1.63971 0
M  V30 5599 C 524.897 -1.85427 0.315994 0
M  V30 5600 O 524.255 -1.66475 -0.718032 0
M  V30 5601 C 524.303 -2.36689 2.72049 0
M  V30 5602 O 523.407 -3.40882 2.32107 0
M  V30 5603 H 522.748 -0.374376 0.548396 0
M  V30 5604 H 525.278 -0.583104 1.96115 0
M  V30 5605 H 525.288 -2.82262 2.94605 0
M  V30 5606 H 523.963 -1.93529 3.68129 0
M  V30 5607 H 522.54 -3.01139 2.19931 0
M  V30 5608 N 524.725 -1.39134 -0.740242 0
M  V30 5609 C 525.655 -1.40165 -1.86751 0
M  V30 5610 C 526.636 -0.265708 -1.68012 0
M  V30 5611 O 527.821 -0.47076 -1.88408 0
M  V30 5612 C 524.951 -1.2392 -3.2444 0
M  V30 5613 C 523.905 -2.34858 -3.57807 0
M  V30 5614 C 523.231 -2.03707 -4.94376 0
M  V30 5615 C 524.531 -3.77159 -3.61315 0
M  V30 5616 H 526.225 -2.345 -1.86145 0
M  V30 5617 H 523.771 -1.12875 -0.89416 0
M  V30 5618 H 525.724 -1.23263 -4.02969 0
M  V30 5619 H 524.448 -0.26051 -3.25559 0
M  V30 5620 H 523.107 -2.34723 -2.81604 0
M  V30 5621 H 522.755 -1.04289 -4.9207 0
M  V30 5622 H 522.455 -2.78016 -5.17669 0
M  V30 5623 H 523.979 -2.04691 -5.75268 0
M  V30 5624 H 525.393 -3.79252 -4.29931 0
M  V30 5625 H 523.79 -4.50784 -3.96124 0
M  V30 5626 H 524.86 -4.08513 -2.61238 0
M  V30 5627 N 526.204 0.969867 -1.24223 0
M  V30 5628 C 527.167 2.04564 -1.03373 0
M  V30 5629 C 528.167 1.60798 0.00819206 0
M  V30 5630 O 529.357 1.72641 -0.232567 0
M  V30 5631 C 526.489 3.36163 -0.566343 0
M  V30 5632 H 527.682 2.24494 -1.98853 0
M  V30 5633 H 525.235 1.1448 -1.06415 0
M  V30 5634 H 525.97 3.21925 0.391751 0
M  V30 5635 H 525.755 3.69273 -1.31834 0
M  V30 5636 H 527.245 4.1526 -0.441435 0
M  V30 5637 N 527.682 1.05563 1.17022 0
M  V30 5638 C 529.093 0.793475 1.69 0
M  V30 5639 C 529.444 -0.683882 1.83895 0
M  V30 5640 O 528.569 -1.53116 1.5292 0
M  V30 5641 C 529.164 1.43376 3.06967 0
M  V30 5642 C 527.723 1.21956 3.56095 0
M  V30 5643 C 526.87 1.51494 2.3226 0
M  V30 5644 H 529.821 1.22008 1.01487 0
M  V30 5645 H 529.842 0.845068 3.70997 0
M  V30 5646 H 529.354 2.50899 2.96093 0
M  V30 5647 H 527.455 0.163749 3.7224 0
M  V30 5648 H 527.568 1.92713 4.38633 0
M  V30 5649 H 525.932 0.935175 2.3691 0
M  V30 5650 H 526.715 2.60159 2.23992 0
M  V30 5651 N 529.16 -1.33526 0.837174 0
M  V30 5652 C 530.385 -2.0258 0.444545 0
M  V30 5653 C 530.81 -1.6258 -0.946006 0
M  V30 5654 O 530.168 -0.817548 -1.6182 0
M  V30 5655 C 530.216 -3.5605 0.571006 0
M  V30 5656 O 529.32 -4.10422 -0.403431 0
M  V30 5657 H 528.661 -0.638866 0.180958 0
M  V30 5658 H 531.191 -1.70462 1.13154 0
M  V30 5659 H 531.201 -4.05488 0.452024 0
M  V30 5660 H 529.876 -3.84509 1.58512 0
M  V30 5661 H 528.453 -3.72113 -0.242147 0
M  V30 5662 N 530.638 -0.59345 -1.46 0
M  V30 5663 C 531.885 -0.0831523 -2.02329 0
M  V30 5664 C 532.213 1.28093 -1.46364 0
M  V30 5665 O 531.468 1.85526 -0.622793 0
M  V30 5666 C 531.767 0.021178 -3.57394 0
M  V30 5667 C 531.433 -1.27671 -4.32448 0
M  V30 5668 C 530.095 -1.63227 -4.5267 0
M  V30 5669 C 532.447 -2.13511 -4.7546 0
M  V30 5670 C 529.775 -2.84401 -5.1316 0
M  V30 5671 C 532.127 -3.33922 -5.37289 0
M  V30 5672 C 530.791 -3.69747 -5.55737 0
M  V30 5673 H 530.061 -0.0304276 -0.740375 0
M  V30 5674 H 532.708 -0.772239 -1.75239 0
M  V30 5675 H 531.013 0.793454 -3.83682 0
M  V30 5676 H 532.71 0.431942 -3.98667 0
M  V30 5677 H 529.3 -0.989937 -4.17011 0
M  V30 5678 H 533.484 -1.87344 -4.59582 0
M  V30 5679 H 528.74 -3.12282 -5.25633 0
M  V30 5680 H 532.914 -4.00698 -5.69574 0
M  V30 5681 H 530.541 -4.6373 -6.02377 0
M  V30 5682 N 532.116 1.54067 -0.331816 0
M  V30 5683 C 533.364 2.00319 0.267739 0
M  V30 5684 C 533.685 1.22148 1.52003 0
M  V30 5685 O 532.955 0.325494 1.93177 0
M  V30 5686 H 531.535 0.740014 0.101922 0
M  V30 5687 H 534.197 1.89628 -0.450267 0
M  V30 5688 H 533.293 3.07765 0.518385 0
M  V30 5689 N 533.594 0.0601682 1.57485 0
M  V30 5690 C 534.819 -0.624416 1.97777 0
M  V30 5691 C 535.244 -1.63051 0.937867 0
M  V30 5692 O 534.602 -1.81036 -0.0978845 0
M  V30 5693 C 534.65 -1.27979 3.37126 0
M  V30 5694 O 533.754 -2.39556 3.35688 0
M  V30 5695 H 533.095 -0.161581 0.64404 0
M  V30 5696 H 535.625 0.131237 2.04179 0
M  V30 5697 H 535.635 -1.62937 3.74053 0
M  V30 5698 H 534.31 -0.542501 4.12347 0
M  V30 5699 H 532.887 -2.06478 3.10517 0
M  V30 5700 N 535.072 -1.5615 -0.213296 0
M  V30 5701 C 536.002 -1.96109 -1.26742 0
M  V30 5702 C 536.983 -0.830448 -1.48451 0
M  V30 5703 O 538.168 -1.09339 -1.60495 0
M  V30 5704 C 535.298 -2.28492 -2.61551 0
M  V30 5705 C 534.252 -3.44124 -2.54485 0
M  V30 5706 C 533.578 -3.62134 -3.93399 0
M  V30 5707 C 534.878 -4.78855 -2.08556 0
M  V30 5708 H 536.572 -2.84412 -0.935434 0
M  V30 5709 H 534.118 -1.36836 -0.44854 0
M  V30 5710 H 536.071 -2.55039 -3.3546 0
M  V30 5711 H 534.795 -1.37052 -2.96453 0
M  V30 5712 H 533.454 -3.17639 -1.83033 0
M  V30 5713 H 533.102 -2.68055 -4.25623 0
M  V30 5714 H 532.802 -4.39913 -3.89551 0
M  V30 5715 H 534.326 -3.91038 -4.68958 0
M  V30 5716 H 535.74 -5.04552 -2.72213 0
M  V30 5717 H 534.137 -5.59975 -2.1575 0
M  V30 5718 H 535.207 -4.73657 -1.03811 0
M  V30 5719 N 536.55 0.480323 -1.50102 0
M  V30 5720 C 537.796 1.23489 -1.60867 0
M  V30 5721 C 538.129 1.91809 -0.303827 0
M  V30 5722 O 537.404 1.81694 0.694092 0
M  V30 5723 C 537.687 2.28578 -2.78252 0
M  V30 5724 C 537.54 1.64624 -4.18592 0
M  V30 5725 C 538.859 3.2997 -2.91218 0
M  V30 5726 H 535.978 0.447605 -0.585507 0
M  V30 5727 H 538.62 0.530005 -1.82458 0
M  V30 5728 H 536.77 2.88697 -2.59974 0
M  V30 5729 H 538.442 1.08173 -4.48438 0
M  V30 5730 H 536.685 0.949645 -4.23278 0
M  V30 5731 H 537.356 2.40946 -4.96638 0
M  V30 5732 H 539.832 2.79864 -3.07921 0
M  V30 5733 H 538.708 4.00839 -3.74993 0
M  V30 5734 H 538.969 3.93541 -2.0144 0
M  V30 5735 N 538.028 1.39524 0.732853 0
M  V30 5736 C 538.991 1.38189 1.82857 0
M  V30 5737 C 539.991 0.278624 1.58368 0
M  V30 5738 O 541.181 0.536639 1.65728 0
M  V30 5739 C 538.313 1.15661 3.2068 0
M  V30 5740 H 539.506 2.35692 1.85444 0
M  V30 5741 H 537.059 1.2512 0.936728 0
M  V30 5742 H 537.794 0.188482 3.23752 0
M  V30 5743 H 537.579 1.95559 3.39852 0
M  V30 5744 H 539.069 1.17472 4.00737 0
M  V30 5745 N 539.506 -0.963266 1.24736 0
M  V30 5746 C 540.436 -2.07628 1.06832 0
M  V30 5747 C 541.417 -1.70088 -0.0200566 0
M  V30 5748 O 542.602 -1.93636 0.147854 0
M  V30 5749 C 539.732 -3.40636 0.677069 0
M  V30 5750 C 538.686 -3.9215 1.71471 0
M  V30 5751 C 538.012 -5.21553 1.1784 0
M  V30 5752 C 539.312 -4.19493 3.11164 0
M  V30 5753 H 541.006 -2.22864 1.9993 0
M  V30 5754 H 538.552 -1.07093 0.96266 0
M  V30 5755 H 540.505 -4.17941 0.538792 0
M  V30 5756 H 539.229 -3.25313 -0.289612 0
M  V30 5757 H 537.888 -3.17005 1.84128 0
M  V30 5758 H 537.536 -5.02593 0.202195 0
M  V30 5759 H 537.236 -5.56988 1.87185 0
M  V30 5760 H 538.76 -6.01463 1.05233 0
M  V30 5761 H 540.174 -4.87487 3.01711 0
M  V30 5762 H 538.571 -4.66165 3.77902 0
M  V30 5763 H 539.641 -3.26097 3.58871 0
M  V30 5764 N 540.985 -1.06182 -1.16461 0
M  V30 5765 C 541.932 -0.671613 -2.20812 0
M  V30 5766 C 542.902 0.331186 -1.62765 0
M  V30 5767 O 544.087 0.22033 -1.89524 0
M  V30 5768 C 541.227 -0.063029 -3.45042 0
M  V30 5769 C 540.34 -1.11587 -4.1734 0
M  V30 5770 C 539.475 -0.473546 -5.29085 0
M  V30 5771 C 538.514 -1.51 -5.93182 0
M  V30 5772 N 537.651 -0.891118 -6.96422 0
M  V30 5773 H 542.491 -1.56589 -2.53542 0
M  V30 5774 H 540.028 -0.782951 -1.24532 0
M  V30 5775 H 541.986 0.307344 -4.16066 0
M  V30 5776 H 540.616 0.794663 -3.12866 0
M  V30 5777 H 539.668 -1.60396 -3.44931 0
M  V30 5778 H 540.98 -1.90221 -4.61104 0
M  V30 5779 H 540.134 -0.0501432 -6.06679 0
M  V30 5780 H 538.873 0.344687 -4.8648 0
M  V30 5781 H 537.878 -1.94331 -5.14311 0
M  V30 5782 H 539.103 -2.33031 -6.37866 0
M  V30 5783 H 537.049 -0.0935753 -6.55933 0
M  V30 5784 H 536.966 -1.61486 -7.38551 0
M  V30 5785 H 538.234 -0.492822 -7.77941 0
M  V30 5786 N 542.463 1.3308 -0.844243 0
M  V30 5787 C 543.373 2.32876 -0.283922 0
M  V30 5788 C 544.389 1.63589 0.592846 0
M  V30 5789 O 545.565 1.95205 0.495693 0
M  V30 5790 C 542.63 3.42667 0.527283 0
M  V30 5791 C 541.691 4.27664 -0.374394 0
M  V30 5792 C 540.924 5.32212 0.39819 0
M  V30 5793 O 541.147 5.46635 1.62932 0
M  V30 5794 O 540.081 6.01458 -0.2306 0
M  V30 5795 H 543.907 2.82671 -1.11045 0
M  V30 5796 H 541.492 1.36518 -0.606903 0
M  V30 5797 H 543.374 4.09652 0.988078 0
M  V30 5798 H 542.049 2.95079 1.33078 0
M  V30 5799 H 540.956 3.63526 -0.883144 0
M  V30 5800 H 542.289 4.78749 -1.1428 0
M  V30 5801 N 543.941 0.601185 1.45683 0
M  V30 5802 C 544.871 -0.108824 2.33246 0
M  V30 5803 C 545.852 -0.865223 1.46451 0
M  V30 5804 O 547.037 -0.83704 1.75235 0
M  V30 5805 C 544.167 -1.11101 3.2905 0
M  V30 5806 C 543.121 -0.468244 4.25431 0
M  V30 5807 C 542.447 -1.57822 5.10878 0
M  V30 5808 C 543.747 0.606469 5.18767 0
M  V30 5809 H 545.441 0.622306 2.92861 0
M  V30 5810 H 542.987 0.300714 1.40825 0
M  V30 5811 H 544.94 -1.61622 3.89174 0
M  V30 5812 H 543.664 -1.87265 2.67581 0
M  V30 5813 H 542.323 0.0160484 3.66596 0
M  V30 5814 H 541.971 -2.32998 4.45781 0
M  V30 5815 H 541.671 -1.15369 5.76163 0
M  V30 5816 H 543.195 -2.08583 5.73869 0
M  V30 5817 H 544.609 0.185589 5.73 0
M  V30 5818 H 543.006 0.952381 5.92494 0
M  V30 5819 H 544.076 1.48559 4.61582 0
M  V30 5820 N 545.419 -1.53889 0.339982 0
M  V30 5821 C 546.696 -1.93084 -0.312719 0
M  V30 5822 C 547.076 -1.2712 -1.68534 0
M  V30 5823 O 546.424 -0.420835 -2.24591 0
M  V30 5824 C 546.634 -3.4683 -0.388558 0
M  V30 5825 C 547.982 -4.19732 -0.641088 0
M  V30 5826 O 549.006 -3.53075 -0.470818 0
M  V30 5827 O 547.865 -5.3781 -0.970685 0
M  V30 5828 H 544.959 -0.806784 -0.18174 0
M  V30 5829 H 547.505 -1.65137 0.390898 0
M  V30 5830 H 546.277 -3.87055 0.574821 0
M  V30 5831 H 545.9 -3.80933 -1.1391 0
M  V30 5832 N 546.897 -0.0685191 -1.57451 0
M  V30 5833 C 547.83 0.935736 -2.08133 0
M  V30 5834 C 548.808 1.29317 -0.985698 0
M  V30 5835 O 549.992 1.40304 -1.25886 0
M  V30 5836 C 547.119 2.2448 -2.53627 0
M  V30 5837 C 546.165 2.03917 -3.74593 0
M  V30 5838 S 546.998 1.30154 -5.19442 0
M  V30 5839 C 548.154 2.62346 -5.68265 0
M  V30 5840 H 548.387 0.504473 -2.92989 0
M  V30 5841 H 545.92 0.144169 -1.53725 0
M  V30 5842 H 547.878 2.99718 -2.80499 0
M  V30 5843 H 546.539 2.64731 -1.69045 0
M  V30 5844 H 545.732 3.00788 -4.04404 0
M  V30 5845 H 545.334 1.36815 -3.48077 0
M  V30 5846 H 547.626 3.58448 -5.7491 0
M  V30 5847 H 548.569 2.3715 -6.67207 0
M  V30 5848 H 548.977 2.69401 -4.96068 0
M  V30 5849 N 548.375 1.56261 0.205012 0
M  V30 5850 C 549.325 1.90155 1.25798 0
M  V30 5851 C 550.309 0.766227 1.41484 0
M  V30 5852 O 551.501 1.02893 1.44021 0
M  V30 5853 C 548.63 2.23603 2.60493 0
M  V30 5854 C 547.716 3.43568 2.48639 0
M  V30 5855 N 548.107 4.61747 2.06455 0
M  V30 5856 C 546.405 3.4751 2.79558 0
M  V30 5857 C 547.106 5.43907 2.06253 0
M  V30 5858 N 546.082 4.84051 2.47377 0
M  V30 5859 H 549.884 2.79031 0.922986 0
M  V30 5860 H 547.398 1.57048 0.413501 0
M  V30 5861 H 549.395 2.46067 3.36537 0
M  V30 5862 H 548.055 1.36049 2.94823 0
M  V30 5863 H 549.066 4.86598 1.77321 0
M  V30 5864 H 545.743 2.70345 3.18151 0
M  V30 5865 H 547.133 6.48542 1.75622 0
M  V30 5866 N 549.853 -0.472356 1.50355 0
M  V30 5867 C 551.101 -1.22211 1.60962 0
M  V30 5868 C 551.422 -1.92497 0.311439 0
M  V30 5869 O 550.692 -1.8405 -0.671002 0
M  V30 5870 H 549.272 -0.454092 0.593135 0
M  V30 5871 H 551.934 -0.544977 1.87126 0
M  V30 5872 H 551.03 -1.9707 2.42012 0
M  V30 5873 N 551.331 -1.39911 -0.725443 0
M  V30 5874 C 552.58 -1.36963 -1.48068 0
M  V30 5875 C 552.893 0.0284478 -1.95579 0
M  V30 5876 O 554.099 0.180535 -2.70899 0
M  V30 5877 C 552.555 -2.40664 -2.67598 0
M  V30 5878 C 552.163 -3.86234 -2.26997 0
M  V30 5879 C 553.907 -2.46807 -3.45379 0
M  V30 5880 C 551.814 -4.81554 -3.43307 0
M  V30 5881 H 550.744 -0.509223 -0.556065 0
M  V30 5882 H 553.395 -1.65602 -0.790454 0
M  V30 5883 H 551.777 -2.05109 -3.38742 0
M  V30 5884 H 552.951 -4.3088 -1.63337 0
M  V30 5885 H 551.266 -3.83475 -1.62284 0
M  V30 5886 H 553.863 -3.15213 -4.31909 0
M  V30 5887 H 554.206 -1.49552 -3.8851 0
M  V30 5888 H 554.739 -2.81303 -2.81271 0
M  V30 5889 H 551.478 -5.80106 -3.05217 0
M  V30 5890 H 550.998 -4.4158 -4.05915 0
M  V30 5891 H 552.677 -5.0091 -4.0951 0
M  V30 5892 N 552.809 0.956637 -1.25245 0
M  V30 5893 C 554.056 1.701 -1.09874 0
M  V30 5894 C 554.384 1.91128 0.36062 0
M  V30 5895 O 553.639 1.47837 1.28229 0
M  V30 5896 C 553.938 3.08996 -1.79601 0
M  V30 5897 C 553.604 3.07774 -3.29523 0
M  V30 5898 C 552.266 3.07149 -3.70423 0
M  V30 5899 C 554.618 3.01257 -4.25316 0
M  V30 5900 C 551.946 2.97752 -5.0553 0
M  V30 5901 C 554.298 2.93403 -5.60444 0
M  V30 5902 C 552.962 2.91111 -6.00675 0
M  V30 5903 H 552.232 0.62244 -0.402056 0
M  V30 5904 H 554.879 1.1178 -1.55491 0
M  V30 5905 H 553.184 3.70848 -1.26408 0
M  V30 5906 H 554.881 3.65407 -1.65162 0
M  V30 5907 H 551.471 3.09032 -2.9698 0
M  V30 5908 H 555.655 3.00861 -3.9471 0
M  V30 5909 H 550.911 2.94346 -5.35883 0
M  V30 5910 H 555.085 2.87321 -6.34366 0
M  V30 5911 H 552.712 2.83586 -7.05325 0
M  V30 5912 N 554.287 1.06798 1.15896 0
M  V30 5913 C 555.534 0.787767 1.86549 0
M  V30 5914 C 555.862 -0.685959 1.82002 0
M  V30 5915 O 555.117 -1.5188 1.23414 0
M  V30 5916 C 555.416 1.23414 3.35416 0
M  V30 5917 C 555.082 2.71285 3.6016 0
M  V30 5918 C 553.744 3.11676 3.66622 0
M  V30 5919 C 556.096 3.6676 3.7032 0
M  V30 5920 C 553.424 4.4637 3.8075 0
M  V30 5921 C 555.776 5.01209 3.8597 0
M  V30 5922 C 554.44 5.41229 3.90676 0
M  V30 5923 H 553.71 0.288264 0.682631 0
M  V30 5924 H 556.357 1.338 1.37003 0
M  V30 5925 H 554.662 0.60319 3.87129 0
M  V30 5926 H 556.359 0.994298 3.88477 0
M  V30 5927 H 552.949 2.39015 3.55767 0
M  V30 5928 H 557.133 3.36685 3.64633 0
M  V30 5929 H 552.389 4.76855 3.82648 0
M  V30 5930 H 556.563 5.75067 3.92773 0
M  V30 5931 H 554.19 6.45602 4.01375 0
M  V30 5932 N 555.766 -1.3263 0.851289 0
M  V30 5933 C 557.182 -1.50162 0.5407 0
M  V30 5934 C 557.382 -1.78788 -0.929369 0
M  V30 5935 O 556.438 -1.85545 -1.71258 0
M  V30 5936 C 557.751 -2.64803 1.42478 0
M  V30 5937 C 559.299 -2.78688 1.42485 0
M  V30 5938 C 559.774 -3.96405 2.29407 0
M  V30 5939 N 561.265 -4.0366 2.27184 0
M  V30 5940 C 562 -4.93971 2.9117 0
M  V30 5941 N 561.496 -5.89313 3.64256 0
M  V30 5942 N 563.289 -4.87066 2.80576 0
M  V30 5943 H 555.44 -1.12315 1.80275 0
M  V30 5944 H 557.703 -0.553266 0.769806 0
M  V30 5945 H 557.409 -2.50368 2.46999 0
M  V30 5946 H 557.283 -3.60506 1.10974 0
M  V30 5947 H 559.67 -2.92547 0.387304 0
M  V30 5948 H 559.751 -1.83708 1.78002 0
M  V30 5949 H 559.395 -3.83304 3.33228 0
M  V30 5950 H 559.325 -4.90654 1.91224 0
M  V30 5951 H 561.816 -3.35435 1.74045 0
M  V30 5952 H 562.129 -6.54913 4.10255 0
M  V30 5953 H 560.474 -5.8935 3.68364 0
M  V30 5954 H 563.665 -4.11552 2.23031 0
M  V30 5955 H 563.838 -5.57248 3.30725 0
M  V30 5956 N 557.244 -0.608902 -1.45362 0
M  V30 5957 C 558.469 -0.10921 -2.07112 0
M  V30 5958 C 558.894 1.19779 -1.45033 0
M  V30 5959 O 558.252 1.72961 -0.543527 0
M  V30 5960 C 558.3 0.0155745 -3.60597 0
M  V30 5961 O 557.404 1.06546 -3.98399 0
M  V30 5962 H 556.745 -0.0746619 -0.659789 0
M  V30 5963 H 559.275 -0.839283 -1.86594 0
M  V30 5964 H 559.285 0.213364 -4.07442 0
M  V30 5965 H 557.96 -0.938765 -4.05167 0
M  V30 5966 H 556.537 0.844024 -3.63223 0
M  V30 5967 N 558.722 1.53707 -0.348139 0
M  V30 5968 C 559.652 2.28111 0.498766 0
M  V30 5969 C 560.633 1.29851 1.09876 0
M  V30 5970 O 561.818 1.587 1.11928 0
M  V30 5971 C 558.948 3.05735 1.64753 0
M  V30 5972 C 557.902 4.11537 1.17565 0
M  V30 5973 C 557.228 4.77142 2.4133 0
M  V30 5974 C 558.528 5.21587 0.272844 0
M  V30 5975 H 560.222 2.99152 -0.121934 0
M  V30 5976 H 557.768 1.43875 -0.0600842 0
M  V30 5977 H 559.721 3.56526 2.24649 0
M  V30 5978 H 558.445 2.32354 2.2952 0
M  V30 5979 H 557.104 3.61665 0.599483 0
M  V30 5980 H 556.752 4.0035 3.04514 0
M  V30 5981 H 556.452 5.48626 2.10436 0
M  V30 5982 H 557.976 5.30719 3.01943 0
M  V30 5983 H 559.39 5.67986 0.778779 0
M  V30 5984 H 557.787 6.00074 0.0555849 0
M  V30 5985 H 558.857 4.79969 -0.689785 0
M  V30 5986 N 560.2 0.0768682 1.57412 0
M  V30 5987 C 561.477 -0.632359 1.85096 0
M  V30 5988 C 561.857 -1.87479 0.9703 0
M  V30 5989 O 561.205 -2.28469 0.0379062 0
M  V30 5990 C 561.415 -0.965174 3.35388 0
M  V30 5991 C 562.763 -1.33648 4.03018 0
M  V30 5992 O 563.787 -1.05675 3.40164 0
M  V30 5993 O 562.646 -1.85959 5.13889 0
M  V30 5994 H 559.74 -0.314574 0.764835 0
M  V30 5995 H 562.286 0.108184 1.69355 0
M  V30 5996 H 561.058 -0.0829745 3.91212 0
M  V30 5997 H 560.681 -1.76231 3.5641 0
M  V30 5998 N 561.678 -1.56367 -0.196722 0
M  V30 5999 C 562.588 -1.97617 -1.2643 0
M  V30 6000 C 563.604 -0.883598 -1.49895 0
M  V30 6001 O 564.78 -1.18921 -1.62541 0
M  V30 6002 C 561.845 -2.30595 -2.58895 0
M  V30 6003 C 560.906 -3.53551 -2.43516 0
M  V30 6004 C 560.139 -3.84946 -3.69665 0
M  V30 6005 O 560.362 -3.17655 -4.73763 0
M  V30 6006 O 559.296 -4.78379 -3.65291 0
M  V30 6007 H 563.122 -2.88648 -0.944233 0
M  V30 6008 H 560.707 -1.43901 -0.401592 0
M  V30 6009 H 562.589 -2.52889 -3.37083 0
M  V30 6010 H 561.264 -1.42732 -2.90533 0
M  V30 6011 H 560.171 -3.36507 -1.63445 0
M  V30 6012 H 561.504 -4.41875 -2.16812 0
M  V30 6013 N 563.156 0.464375 -1.50603 0
M  V30 6014 C 564.384 1.23907 -1.65695 0
M  V30 6015 C 564.799 1.85658 -0.343027 0
M  V30 6016 O 564.156 1.69529 0.675739 0
M  V30 6017 C 564.207 2.3429 -2.75301 0
M  V30 6018 O 563.928 1.7507 -4.01599 0
M  V30 6019 C 565.429 3.25051 -3.01424 0
M  V30 6020 H 562.649 0.374485 -0.556778 0
M  V30 6021 H 565.193 0.55353 -1.96866 0
M  V30 6022 H 563.348 2.98607 -2.46804 0
M  V30 6023 H 563.762 2.47812 -4.62266 0
M  V30 6024 H 565.236 3.98699 -3.81763 0
M  V30 6025 H 565.713 3.84227 -2.12758 0
M  V30 6026 H 566.319 2.66463 -3.31477 0
M  V30 6027 N 564.634 1.40294 0.718013 0
M  V30 6028 C 565.862 1.4175 1.50714 0
M  V30 6029 C 566.277 0.0165366 1.88793 0
M  V30 6030 O 565.634 -0.958942 1.55276 0
M  V30 6031 C 565.685 2.30598 2.784 0
M  V30 6032 O 565.406 3.6524 2.41932 0
M  V30 6033 C 566.907 2.4062 3.72313 0
M  V30 6034 H 564.127 0.483565 0.465194 0
M  V30 6035 H 566.671 1.84316 0.885889 0
M  V30 6036 H 564.826 1.91401 3.36815 0
M  V30 6037 H 565.24 4.12402 3.24076 0
M  V30 6038 H 566.714 3.07001 4.58753 0
M  V30 6039 H 567.191 1.4305 4.15251 0
M  V30 6040 H 567.797 2.80359 3.19811 0
M  V30 6041 N 566.112 -0.949982 1.2575 0
M  V30 6042 C 567.042 -2.06483 1.09028 0
M  V30 6043 C 568.023 -1.701 -0.00201532 0
M  V30 6044 O 569.208 -1.93469 0.168383 0
M  V30 6045 C 566.338 -3.39899 0.71316 0
M  V30 6046 C 565.292 -3.90309 1.75621 0
M  V30 6047 C 564.618 -5.20274 1.23365 0
M  V30 6048 C 565.918 -4.16169 3.15596 0
M  V30 6049 H 567.612 -2.20731 2.02283 0
M  V30 6050 H 565.158 -1.06066 0.973964 0
M  V30 6051 H 567.111 -4.17346 0.58309 0
M  V30 6052 H 565.835 -3.25602 -0.255091 0
M  V30 6053 H 564.494 -3.15035 1.8748 0
M  V30 6054 H 564.142 -5.02351 0.255491 0
M  V30 6055 H 563.842 -5.54971 1.93082 0
M  V30 6056 H 565.366 -6.00314 1.11607 0
M  V30 6057 H 566.78 -4.84259 3.06864 0
M  V30 6058 H 565.177 -4.62131 3.82825 0
M  V30 6059 H 566.247 -3.22273 3.6231 0
M  V30 6060 N 567.59 -1.07411 -1.15328 0
M  V30 6061 C 569.006 -0.799759 -1.38116 0
M  V30 6062 C 569.206 0.59572 -1.92493 0
M  V30 6063 O 568.262 1.35433 -2.13106 0
M  V30 6064 C 569.575 -1.87407 -2.35158 0
M  V30 6065 C 571.123 -1.89889 -2.48819 0
M  V30 6066 C 571.598 -2.96406 -3.49153 0
M  V30 6067 N 573.089 -2.95512 -3.56689 0
M  V30 6068 C 573.824 -3.74575 -4.34144 0
M  V30 6069 N 573.32 -4.63488 -5.14928 0
M  V30 6070 N 575.113 -3.62919 -4.29239 0
M  V30 6071 H 567.264 -1.97411 -0.78374 0
M  V30 6072 H 569.527 -0.856113 -0.407154 0
M  V30 6073 H 569.233 -2.8768 -2.0232 0
M  V30 6074 H 569.107 -1.73471 -3.34944 0
M  V30 6075 H 571.494 -0.902677 -2.80955 0
M  V30 6076 H 571.575 -2.07904 -1.49029 0
M  V30 6077 H 571.219 -3.96227 -3.17752 0
M  V30 6078 H 571.149 -2.75638 -4.48699 0
M  V30 6079 H 573.64 -2.31061 -2.99031 0
M  V30 6080 H 573.953 -5.20445 -5.71276 0
M  V30 6081 H 572.298 -4.67537 -5.14232 0
M  V30 6082 H 575.489 -2.92833 -3.65194 0
M  V30 6083 H 575.662 -4.24777 -4.89355 0
M  V30 6084 N 569.068 1.32177 -0.85831 0
M  V30 6085 C 570.479 1.79381 -0.517621 0
M  V30 6086 C 570.83 1.70841 0.964769 0
M  V30 6087 O 569.955 1.26917 1.75274 0
M  V30 6088 C 570.55 3.25706 -0.932801 0
M  V30 6089 C 569.109 3.70851 -0.643953 0
M  V30 6090 C 568.256 2.53208 -1.13054 0
M  V30 6091 H 571.207 1.19424 -1.04516 0
M  V30 6092 H 571.228 3.79673 -0.250674 0
M  V30 6093 H 570.74 3.31889 -2.01174 0
M  V30 6094 H 568.841 3.70178 0.424112 0
M  V30 6095 H 568.954 4.63495 -1.21281 0
M  V30 6096 H 567.318 2.48676 -0.550679 0
M  V30 6097 H 568.101 2.62143 -2.21666 0
M  V30 6098 N 570.547 0.616602 1.45037 0
M  V30 6099 C 571.477 -0.0840787 2.33349 0
M  V30 6100 C 572.458 -0.849641 1.4736 0
M  V30 6101 O 573.643 -0.818407 1.76113 0
M  V30 6102 C 570.773 -1.07604 3.3021 0
M  V30 6103 C 569.727 -0.423096 4.25904 0
M  V30 6104 C 569.053 -1.52394 5.12523 0
M  V30 6105 C 570.353 0.661457 5.18095 0
M  V30 6106 H 572.047 0.653333 2.92185 0
M  V30 6107 H 569.593 0.315634 1.40498 0
M  V30 6108 H 571.546 -1.57485 3.90866 0
M  V30 6109 H 570.27 -1.84416 2.69552 0
M  V30 6110 H 568.929 0.05493 3.66559 0
M  V30 6111 H 568.577 -2.28257 4.48227 0
M  V30 6112 H 568.277 -1.09251 5.77354 0
M  V30 6113 H 569.801 -2.02485 5.76049 0
M  V30 6114 H 571.215 0.246353 5.7277 0
M  V30 6115 H 569.612 1.01517 5.91451 0
M  V30 6116 H 570.682 1.53446 4.59981 0
M  V30 6117 N 572.025 -1.5352 0.356285 0
M  V30 6118 C 572.988 -2.24071 -0.482182 0
M  V30 6119 C 573.988 -1.24531 -1.01729 0
M  V30 6120 O 575.178 -1.48876 -0.904513 0
M  V30 6121 C 572.31 -2.97025 -1.67299 0
M  V30 6122 H 573.503 -2.99596 0.135031 0
M  V30 6123 H 571.056 -1.55928 0.107825 0
M  V30 6124 H 571.791 -2.25719 -2.32855 0
M  V30 6125 H 571.576 -3.7005 -1.29636 0
M  V30 6126 H 573.066 -3.50683 -2.26741 0
M  V30 6127 N 573.503 -0.0852151 -1.57369 0
M  V30 6128 C 574.919 0.271436 -1.57275 0
M  V30 6129 C 575.119 1.69109 -1.09565 0
M  V30 6130 O 574.175 2.40549 -0.767611 0
M  V30 6131 C 575.488 0.0688638 -3.00621 0
M  V30 6132 C 577.036 0.137373 -3.12698 0
M  V30 6133 C 577.511 -0.0370832 -4.57985 0
M  V30 6134 N 579.002 0.0180794 -4.63196 0
M  V30 6135 C 579.737 -0.0922953 -5.73326 0
M  V30 6136 N 579.233 -0.256948 -6.92323 0
M  V30 6137 N 581.026 -0.0342702 -5.6209 0
M  V30 6138 H 573.177 -1.01288 -1.86693 0
M  V30 6139 H 575.44 -0.396138 -0.861266 0
M  V30 6140 H 575.146 -0.911277 -3.39689 0
M  V30 6141 H 575.02 0.815442 -3.6828 0
M  V30 6142 H 577.407 1.10801 -2.73509 0
M  V30 6143 H 577.488 -0.640532 -2.47651 0
M  V30 6144 H 577.132 -1.00455 -4.97867 0
M  V30 6145 H 577.062 0.760392 -5.21081 0
M  V30 6146 H 579.553 0.143202 -3.77629 0
M  V30 6147 H 579.866 -0.332949 -7.72082 0
M  V30 6148 H 578.211 -0.292487 -6.94384 0
M  V30 6149 H 581.402 0.0931605 -4.68007 0
M  V30 6150 H 581.575 -0.12374 -6.47882 0
M  V30 6151 N 574.981 1.5647 0.188427 0
M  V30 6152 C 575.911 1.98101 1.23606 0
M  V30 6153 C 576.892 0.853961 1.47111 0
M  V30 6154 O 578.077 1.11879 1.58735 0
M  V30 6155 C 575.207 2.32624 2.57882 0
M  V30 6156 C 574.161 3.48129 2.48978 0
M  V30 6157 C 573.487 3.68347 3.87588 0
M  V30 6158 C 574.787 4.82112 2.00911 0
M  V30 6159 H 576.481 2.85864 0.890068 0
M  V30 6160 H 574.027 1.37532 0.426714 0
M  V30 6161 H 575.98 2.60343 3.3136 0
M  V30 6162 H 574.704 1.41751 2.94235 0
M  V30 6163 H 573.363 3.20511 1.77956 0
M  V30 6164 H 573.011 2.74793 4.21305 0
M  V30 6165 H 572.711 4.46055 3.82503 0
M  V30 6166 H 574.235 3.98449 4.62678 0
M  V30 6167 H 575.649 5.08819 2.64151 0
M  V30 6168 H 574.046 5.63337 2.06814 0
M  V30 6169 H 575.116 4.75249 0.96262 0
M  V30 6170 N 576.459 -0.456382 1.50847 0
M  V30 6171 C 577.87 -1.03685 1.55262 0
M  V30 6172 C 578.221 -1.92779 0.364771 0
M  V30 6173 O 577.346 -2.10043 -0.52068 0
M  V30 6174 C 577.941 -1.88718 2.81374 0
M  V30 6175 C 576.5 -2.41847 2.88422 0
M  V30 6176 C 575.647 -1.20564 2.49719 0
M  V30 6177 H 578.598 -0.238399 1.56899 0
M  V30 6178 H 578.619 -2.73957 2.6406 0
M  V30 6179 H 578.131 -1.23847 3.67809 0
M  V30 6180 H 576.232 -3.10228 2.06372 0
M  V30 6181 H 576.345 -2.75947 3.9165 0
M  V30 6182 H 574.709 -1.54504 2.02486 0
M  V30 6183 H 575.492 -0.573326 3.38479 0
M  V30 6184 N 577.937 -1.40673 -0.710563 0
M  V30 6185 C 578.87 -1.35742 -1.83438 0
M  V30 6186 C 579.848 -0.226997 -1.61008 0
M  V30 6187 O 581.032 -0.411477 -1.83954 0
M  V30 6188 C 578.159 -1.11374 -3.19865 0
M  V30 6189 C 577.205 -2.26935 -3.61113 0
M  V30 6190 S 578.038 -3.89352 -3.67648 0
M  V30 6191 C 579.194 -3.67258 -5.06826 0
M  V30 6192 H 579.427 -2.30848 -1.87341 0
M  V30 6193 H 576.96 -1.27018 -0.877831 0
M  V30 6194 H 578.918 -0.980004 -3.9863 0
M  V30 6195 H 577.579 -0.179135 -3.13589 0
M  V30 6196 H 576.772 -2.0554 -4.60184 0
M  V30 6197 H 576.374 -2.36638 -2.89618 0
M  V30 6198 H 578.666 -3.26036 -5.93891 0
M  V30 6199 H 579.609 -4.65878 -5.33257 0
M  V30 6200 H 580.017 -3.0084 -4.77656 0
M  V30 6201 N 579.415 0.9433 -1.26252 0
M  V30 6202 C 580.345 2.05902 -1.10122 0
M  V30 6203 C 581.326 1.70099 -0.00700552 0
M  V30 6204 O 582.511 1.93377 -0.178641 0
M  V30 6205 C 579.641 3.39516 -0.731175 0
M  V30 6206 C 578.595 3.89372 -1.77688 0
M  V30 6207 C 577.921 5.19613 -1.26122 0
M  V30 6208 C 579.221 4.14489 -3.17799 0
M  V30 6209 H 580.915 2.19655 -2.03451 0
M  V30 6210 H 578.461 1.05548 -0.979576 0
M  V30 6211 H 580.414 4.17031 -0.605215 0
M  V30 6212 H 579.138 3.25733 0.23782 0
M  V30 6213 H 577.797 3.14036 -1.89148 0
M  V30 6214 H 577.445 5.02208 -0.282128 0
M  V30 6215 H 577.145 5.53939 -1.96023 0
M  V30 6216 H 578.669 5.99713 -1.14789 0
M  V30 6217 H 580.083 4.82625 -3.09428 0
M  V30 6218 H 578.48 4.60094 -3.85271 0
M  V30 6219 H 579.55 3.20347 -3.64014 0
M  V30 6220 N 580.893 1.08022 1.14757 0
M  V30 6221 C 581.825 0.664566 2.19354 0
M  V30 6222 C 582.838 -0.286374 1.60261 0
M  V30 6223 O 584.027 -0.0746362 1.78344 0
M  V30 6224 C 581.127 -0.0434634 3.38872 0
M  V30 6225 C 580.3 0.925381 4.27499 0
M  V30 6226 C 579.359 0.253398 5.2559 0
M  V30 6227 O 578.385 0.896581 5.62094 0
M  V30 6228 N 579.587 -0.998263 5.71852 0
M  V30 6229 H 582.352 1.56438 2.55631 0
M  V30 6230 H 579.913 0.965788 1.29939 0
M  V30 6231 H 581.905 -0.503857 4.01551 0
M  V30 6232 H 580.475 -0.845321 3.00954 0
M  V30 6233 H 579.695 1.56472 3.61815 0
M  V30 6234 H 580.983 1.58203 4.8358 0
M  V30 6235 H 580.381 -1.54063 5.44317 0
M  V30 6236 H 578.938 -1.40222 6.36538 0
M  V30 6237 N 582.371 -1.3172 0.865308 0
M  V30 6238 C 583.599 -2.01057 0.488251 0
M  V30 6239 C 584.014 -1.64979 -0.918 0
M  V30 6240 O 583.371 -0.876597 -1.60069 0
M  V30 6241 C 583.422 -3.55964 0.630224 0
M  V30 6242 O 583.143 -3.90749 1.98109 0
M  V30 6243 C 584.644 -4.42574 0.253567 0
M  V30 6244 H 581.864 -0.64332 0.190736 0
M  V30 6245 H 584.408 -1.68058 1.16519 0
M  V30 6246 H 582.563 -3.874 0.000895422 0
M  V30 6247 H 582.977 -4.85467 1.9855 0
M  V30 6248 H 584.451 -5.50521 0.403875 0
M  V30 6249 H 584.928 -4.31724 -0.806895 0
M  V30 6250 H 585.534 -4.16547 0.858404 0
M  V30 6251 N 583.85 -0.624285 -1.44708 0
M  V30 6252 C 584.779 0.0717025 -2.3339 0
M  V30 6253 C 585.76 0.841814 -1.47809 0
M  V30 6254 O 586.946 0.809056 -1.76544 0
M  V30 6255 C 584.076 1.05852 -3.30776 0
M  V30 6256 C 583.029 0.400503 -4.26122 0
M  V30 6257 C 582.356 1.49674 -5.13324 0
M  V30 6258 C 583.656 -0.688924 -5.17737 0
M  V30 6259 H 585.35 -0.668819 -2.91834 0
M  V30 6260 H 582.896 -0.32308 -1.40329 0
M  V30 6261 H 584.849 1.5541 -3.91696 0
M  V30 6262 H 583.572 1.82984 -2.70526 0
M  V30 6263 H 582.231 -0.0743687 -3.66525 0
M  V30 6264 H 581.88 2.25877 -4.49431 0
M  V30 6265 H 581.58 1.06188 -5.77926 0
M  V30 6266 H 583.104 1.99427 -5.77115 0
M  V30 6267 H 584.518 -0.276724 -5.72632 0
M  V30 6268 H 582.915 -1.04652 -5.90904 0
M  V30 6269 H 583.985 -1.55884 -4.5916 0
M  V30 6270 N 585.328 1.53329 -0.364422 0
M  V30 6271 C 586.744 1.59594 -0.0133165 0
M  V30 6272 C 586.944 1.37959 1.46865 0
M  V30 6273 O 586 1.18418 2.2301 0
M  V30 6274 C 587.313 2.97032 -0.468213 0
M  V30 6275 C 588.861 3.10138 -0.422334 0
M  V30 6276 C 589.336 4.49986 -0.853024 0
M  V30 6277 N 590.827 4.56098 -0.808037 0
M  V30 6278 C 591.562 5.62495 -1.11299 0
M  V30 6279 N 591.058 6.7665 -1.48717 0
M  V30 6280 N 592.851 5.52473 -1.03586 0
M  V30 6281 H 585.002 1.65644 -1.32951 0
M  V30 6282 H 587.265 0.77684 -0.543345 0
M  V30 6283 H 586.971 3.18 -1.5023 0
M  V30 6284 H 586.845 3.76918 0.145775 0
M  V30 6285 H 589.232 2.88881 0.602622 0
M  V30 6286 H 589.313 2.32263 -1.0718 0
M  V30 6287 H 588.957 4.7198 -1.87609 0
M  V30 6288 H 588.887 5.26289 -0.180819 0
M  V30 6289 H 591.378 3.74131 -0.532361 0
M  V30 6290 H 591.691 7.53776 -1.70415 0
M  V30 6291 H 590.036 6.78044 -1.52581 0
M  V30 6292 H 593.227 4.6217 -0.742736 0
M  V30 6293 H 593.4 6.35295 -1.27686 0
M  V30 6294 N 586.806 0.0935595 1.57322 0
M  V30 6295 C 587.736 -0.863062 2.16964 0
M  V30 6296 C 588.717 -1.29528 1.10256 0
M  V30 6297 O 589.902 -1.36245 1.38387 0
M  V30 6298 C 587.032 -2.12276 2.74875 0
M  V30 6299 C 585.986 -1.82921 3.86942 0
M  V30 6300 C 585.312 -3.15707 4.31548 0
M  V30 6301 C 586.612 -1.11737 5.10208 0
M  V30 6302 H 588.306 -0.366145 2.97153 0
M  V30 6303 H 585.852 -0.174673 1.42937 0
M  V30 6304 H 587.805 -2.79634 3.1525 0
M  V30 6305 H 586.529 -2.64248 1.91938 0
M  V30 6306 H 585.188 -1.17961 3.47103 0
M  V30 6307 H 584.836 -3.65563 3.45504 0
M  V30 6308 H 584.536 -2.96849 5.07104 0
M  V30 6309 H 586.06 -3.84226 4.74555 0
M  V30 6310 H 587.474 -1.69203 5.47762 0
M  V30 6311 H 585.871 -1.03064 5.91183 0
M  V30 6312 H 586.941 -0.0998818 4.84797 0
M  V30 6313 N 588.284 -1.56567 -0.180126 0
M  V30 6314 C 589.216 -1.92275 -1.24751 0
M  V30 6315 C 590.229 -0.814922 -1.40936 0
M  V30 6316 O 591.418 -1.09336 -1.41095 0
M  V30 6317 C 588.518 -2.15265 -2.61752 0
M  V30 6318 C 587.691 -3.46467 -2.66981 0
M  V30 6319 C 586.75 -3.58391 -3.85283 0
M  V30 6320 O 585.776 -4.31086 -3.7169 0
M  V30 6321 N 586.978 -2.92587 -5.01371 0
M  V30 6322 H 589.743 -2.84435 -0.944302 0
M  V30 6323 H 587.304 -1.57617 -0.369952 0
M  V30 6324 H 589.296 -2.20515 -3.39345 0
M  V30 6325 H 587.866 -1.29533 -2.845 0
M  V30 6326 H 587.086 -3.52953 -1.75549 0
M  V30 6327 H 588.374 -4.32819 -2.67479 0
M  V30 6328 H 587.772 -2.3338 -5.15316 0
M  V30 6329 H 586.329 -3.03444 -5.76858 0
M  V30 6330 N 589.762 0.448376 -1.51087 0
M  V30 6331 C 590.695 1.56298 -1.66272 0
M  V30 6332 C 591.673 1.54381 -0.510419 0
M  V30 6333 O 592.857 1.73671 -0.732854 0
M  V30 6334 C 589.984 2.94883 -1.66618 0
M  V30 6335 C 589.03 3.14868 -2.87681 0
M  V30 6336 S 589.863 2.9234 -4.48662 0
M  V30 6337 C 591.019 4.33227 -4.51735 0
M  V30 6338 H 591.252 1.43182 -2.6055 0
M  V30 6339 H 588.785 0.637309 -1.40633 0
M  V30 6340 H 590.743 3.74771 -1.67502 0
M  V30 6341 H 589.404 3.05371 -0.735358 0
M  V30 6342 H 588.597 4.16166 -2.84292 0
M  V30 6343 H 588.199 2.42788 -2.84482 0
M  V30 6344 H 590.491 5.26247 -4.26697 0
M  V30 6345 H 591.434 4.41653 -5.53487 0
M  V30 6346 H 591.842 4.16367 -3.81181 0
M  V30 6347 N 591.24 1.41047 0.703093 0
M  V30 6348 C 592.188 1.42494 1.83843 0
M  V30 6349 C 593.182 0.303885 1.66652 0
M  V30 6350 O 594.388 0.475544 1.73605 0
M  V30 6351 H 590.763 0.445685 0.605697 0
M  V30 6352 H 592.734 2.38194 1.79739 0
M  V30 6353 C 591.483 1.31666 3.21807 0
M  V30 6354 H 590.806 2.17212 3.35647 0
M  V30 6355 H 592.246 1.36738 4.01346 0
M  V30 6356 C 590.705 0.0281828 3.36888 0
M  V30 6357 O 591.235 -0.929995 3.90786 0
M  V30 6358 N 589.441 -0.0454322 2.90564 0
M  V30 6359 H 588.988 0.735046 2.4689 0
M  V30 6360 H 588.946 -0.906968 3.01034 0
M  V30 6361 N 592.718 -0.936591 1.26751 0
M  V30 6362 C 593.965 -1.68331 1.12566 0
M  V30 6363 C 594.293 -1.91677 -0.330168 0
M  V30 6364 O 593.548 -1.49859 -1.2586 0
M  V30 6365 C 593.847 -3.06099 1.84494 0
M  V30 6366 C 593.513 -3.02493 3.34378 0
M  V30 6367 C 592.175 -3.01217 3.75262 0
M  V30 6368 C 594.527 -2.94453 4.30055 0
M  V30 6369 C 591.855 -2.89672 5.10203 0
M  V30 6370 C 594.207 -2.84449 5.65041 0
M  V30 6371 C 592.871 -2.81518 6.0523 0
M  V30 6372 H 592.141 -0.615965 0.411907 0
M  V30 6373 H 594.788 -1.09292 1.5725 0
M  V30 6374 H 593.093 -3.6879 1.32292 0
M  V30 6375 H 594.79 -3.62733 1.70955 0
M  V30 6376 H 591.38 -3.04269 3.01858 0
M  V30 6377 H 595.564 -2.94544 3.99447 0
M  V30 6378 H 590.82 -2.85783 5.40498 0
M  V30 6379 H 594.994 -2.77192 6.38856 0
M  V30 6380 H 592.621 -2.72329 7.09747 0
M  V30 6381 N 594.196 -1.08629 -1.14182 0
M  V30 6382 C 595.445 -0.812271 -1.84621 0
M  V30 6383 C 595.758 0.664313 -1.83973 0
M  V30 6384 O 596.964 1.05357 -2.50224 0
M  V30 6385 C 595.42 -1.4031 -3.31423 0
M  V30 6386 C 595.028 -2.91164 -3.40481 0
M  V30 6387 C 596.772 -1.20767 -4.06959 0
M  V30 6388 C 594.679 -3.43373 -4.81507 0
M  V30 6389 H 593.609 -0.30019 -0.691666 0
M  V30 6390 H 596.26 -1.30798 -1.28701 0
M  V30 6391 H 594.642 -0.835096 -3.87094 0
M  V30 6392 H 595.816 -3.5412 -2.94848 0
M  V30 6393 H 594.131 -3.09646 -2.78403 0
M  V30 6394 H 596.728 -1.57237 -5.11058 0
M  V30 6395 H 597.071 -0.147664 -4.16038 0
M  V30 6396 H 597.604 -1.74274 -3.57594 0
M  V30 6397 H 594.343 -4.48958 -4.77616 0
M  V30 6398 H 593.863 -2.85176 -5.27669 0
M  V30 6399 H 595.542 -3.40095 -5.50404 0
M  V30 6400 N 595.674 1.31259 -0.872281 0
M  V30 6401 C 596.622 2.30404 -0.318897 0
M  V30 6402 C 597.616 1.5962 0.567267 0
M  V30 6403 O 598.822 1.74204 0.453111 0
M  V30 6404 H 595.197 0.747243 -0.0844474 0
M  V30 6405 H 597.168 2.74549 -1.16899 0
M  V30 6406 C 595.917 3.44608 0.462683 0
M  V30 6407 H 595.24 3.99248 -0.209936 0
M  V30 6408 H 596.68 4.1609 0.815187 0
M  V30 6409 C 595.139 2.93456 1.65485 0
M  V30 6410 O 595.669 2.92418 2.75417 0
M  V30 6411 N 593.875 2.49628 1.48776 0
M  V30 6412 H 593.422 2.50671 0.593452 0
M  V30 6413 H 593.38 2.15759 2.28682 0
M  V30 6414 N 597.152 0.631951 1.44375 0
M  V30 6415 C 598.084 -0.110911 2.28931 0
M  V30 6416 C 599.097 -0.808086 1.41329 0
M  V30 6417 O 600.286 -0.669396 1.65473 0
M  V30 6418 C 597.386 -1.17928 3.1772 0
M  V30 6419 C 596.559 -0.564458 4.33743 0
M  V30 6420 C 595.618 -1.5269 5.0356 0
M  V30 6421 O 594.644 -1.04372 5.59549 0
M  V30 6422 N 595.846 -2.86123 5.05088 0
M  V30 6423 H 598.611 0.614758 2.93327 0
M  V30 6424 H 596.172 0.473171 1.54831 0
M  V30 6425 H 598.164 -1.82348 3.61291 0
M  V30 6426 H 596.734 -1.80717 2.55069 0
M  V30 6427 H 595.954 0.258373 3.93352 0
M  V30 6428 H 597.242 -0.134355 5.08623 0
M  V30 6429 H 596.64 -3.27959 4.60933 0
M  V30 6430 H 595.197 -3.45901 5.52445 0
M  V30 6431 N 598.631 -1.53133 0.372548 0
M  V30 6432 C 599.594 -2.24569 -0.458389 0
M  V30 6433 C 600.594 -1.25603 -1.00402 0
M  V30 6434 O 601.784 -1.49827 -0.888672 0
M  V30 6435 C 598.916 -2.98783 -1.6414 0
M  V30 6436 H 600.109 -2.99436 0.166799 0
M  V30 6437 H 597.662 -1.55805 0.124357 0
M  V30 6438 H 598.397 -2.28176 -2.30448 0
M  V30 6439 H 598.182 -3.71404 -1.25704 0
M  V30 6440 H 599.672 -3.53068 -2.23008 0
M  V30 6441 N 600.109 -0.101901 -1.5727 0
M  V30 6442 C 601.041 0.884723 -2.11436 0
M  V30 6443 C 602.054 1.24149 -1.05314 0
M  V30 6444 O 603.243 1.19341 -1.3274 0
M  V30 6445 C 600.343 2.19179 -2.58484 0
M  V30 6446 C 599.516 2.00933 -3.88516 0
M  V30 6447 C 598.575 3.15213 -4.2134 0
M  V30 6448 O 597.601 2.88877 -4.90448 0
M  V30 6449 N 598.803 4.41174 -3.77288 0
M  V30 6450 H 601.568 0.422058 -2.96713 0
M  V30 6451 H 599.129 0.0830128 -1.61687 0
M  V30 6452 H 601.121 2.94593 -2.77484 0
M  V30 6453 H 599.691 2.56847 -1.7818 0
M  V30 6454 H 598.911 1.09809 -3.78597 0
M  V30 6455 H 600.199 1.86026 -4.73573 0
M  V30 6456 H 599.597 4.6545 -3.21516 0
M  V30 6457 H 598.154 5.13515 -4.01429 0
M  V30 6458 N 601.587 1.56661 0.17182 0
M  V30 6459 C 602.517 1.99401 1.21498 0
M  V30 6460 C 603.498 0.869516 1.46197 0
M  V30 6461 O 604.683 1.13556 1.57539 0
M  V30 6462 C 601.813 2.35346 2.55401 0
M  V30 6463 C 600.767 3.5075 2.45272 0
M  V30 6464 C 600.093 3.72437 3.8366 0
M  V30 6465 C 601.393 4.84216 1.95787 0
M  V30 6466 H 603.087 2.86792 0.859699 0
M  V30 6467 H 600.633 1.37977 0.412103 0
M  V30 6468 H 602.586 2.63843 3.2858 0
M  V30 6469 H 601.31 1.44864 2.92715 0
M  V30 6470 H 599.969 3.2238 1.74547 0
M  V30 6471 H 599.617 2.79246 4.18367 0
M  V30 6472 H 599.317 4.50087 3.77751 0
M  V30 6473 H 600.841 4.03334 4.58426 0
M  V30 6474 H 602.255 5.11592 2.5874 0
M  V30 6475 H 600.652 5.65498 2.00827 0
M  V30 6476 H 601.722 4.76243 0.912159 0
M  V30 6477 N 603.065 -0.440357 1.51323 0
M  V30 6478 C 604.313 -1.18769 1.63518 0
M  V30 6479 C 604.634 -1.91793 0.352201 0
M  V30 6480 O 603.904 -1.85432 -0.631811 0
M  V30 6481 H 602.484 -0.441408 0.602634 0
M  V30 6482 H 605.146 -0.505162 1.8824 0
M  V30 6483 H 604.242 -1.91892 2.46138 0
M  V30 6484 N 604.543 -1.41418 -0.695603 0
M  V30 6485 C 605.792 -1.40073 -1.4513 0
M  V30 6486 C 606.105 -0.0130439 -1.95596 0
M  V30 6487 O 607.311 0.123032 -2.71221 0
M  V30 6488 C 605.767 -2.46286 -2.62433 0
M  V30 6489 C 605.375 -3.90962 -2.18753 0
M  V30 6490 C 607.119 -2.54077 -3.40066 0
M  V30 6491 C 605.026 -4.88728 -3.33015 0
M  V30 6492 H 603.956 -0.520903 -0.545138 0
M  V30 6493 H 606.607 -1.67242 -0.75515 0
M  V30 6494 H 604.989 -2.12248 -3.34315 0
M  V30 6495 H 606.163 -4.34248 -1.54161 0
M  V30 6496 H 604.478 -3.86831 -1.54114 0
M  V30 6497 H 607.075 -3.24303 -4.25125 0
M  V30 6498 H 607.418 -1.5776 -3.8525 0
M  V30 6499 H 607.951 -2.87206 -2.75241 0
M  V30 6500 H 604.69 -5.86449 -2.92844 0
M  V30 6501 H 604.21 -4.50091 -3.96457 0
M  V30 6502 H 605.889 -5.09483 -3.98793 0
M  V30 6503 N 606.021 0.929856 -1.27246 0
M  V30 6504 C 607.268 1.67731 -1.13457 0
M  V30 6505 C 607.596 1.9185 0.319998 0
M  V30 6506 O 606.851 1.50524 1.25064 0
M  V30 6507 C 607.15 3.05116 -1.86115 0
M  V30 6508 C 606.816 3.00715 -3.35978 0
M  V30 6509 C 605.478 2.99222 -3.76855 0
M  V30 6510 C 607.83 2.92168 -4.3161 0
M  V30 6511 C 605.158 2.86962 -5.11732 0
M  V30 6512 C 607.51 2.81449 -5.66542 0
M  V30 6513 C 606.174 2.78305 -6.06715 0
M  V30 6514 H 605.444 0.613772 -0.415168 0
M  V30 6515 H 608.091 1.08456 -1.57827 0
M  V30 6516 H 606.396 3.68083 -1.34246 0
M  V30 6517 H 608.093 3.61822 -1.72876 0
M  V30 6518 H 604.683 3.02664 -3.03468 0
M  V30 6519 H 608.867 2.92421 -4.01003 0
M  V30 6520 H 604.123 2.82913 -5.42006 0
M  V30 6521 H 608.297 2.738 -6.40317 0
M  V30 6522 H 605.924 2.68561 -7.11181 0
M  V30 6523 N 607.499 1.09233 1.13605 0
M  V30 6524 C 608.915 0.82163 1.36826 0
M  V30 6525 C 609.115 -0.565021 1.93416 0
M  V30 6526 O 608.171 -1.32026 2.15234 0
M  V30 6527 C 609.484 1.91124 2.32147 0
M  V30 6528 C 611.032 1.93824 2.45767 0
M  V30 6529 C 611.507 3.01923 3.44393 0
M  V30 6530 N 612.998 3.01149 3.51942 0
M  V30 6531 C 613.733 3.81434 4.2813 0
M  V30 6532 N 613.229 4.71621 5.07489 0
M  V30 6533 N 615.022 3.69702 4.23411 0
M  V30 6534 H 607.173 1.98633 0.752234 0
M  V30 6535 H 609.436 0.862482 0.393482 0
M  V30 6536 H 609.142 2.90862 1.97717 0
M  V30 6537 H 609.016 1.78777 3.32142 0
M  V30 6538 H 611.403 0.94726 2.79483 0
M  V30 6539 H 611.484 2.10248 1.45703 0
M  V30 6540 H 611.128 4.01232 3.11408 0
M  V30 6541 H 611.058 2.82742 4.44257 0
M  V30 6542 H 613.549 2.35789 2.95317 0
M  V30 6543 H 613.862 5.29468 5.62924 0
M  V30 6544 H 612.207 4.75658 5.06729 0
M  V30 6545 H 615.398 2.98606 3.60489 0
M  V30 6546 H 615.571 4.32509 4.82535 0
M  V30 6547 N 608.977 -1.30795 0.87923 0
M  V30 6548 C 609.94 -2.26563 0.346676 0
M  V30 6549 C 610.94 -1.52578 -0.507597 0
M  V30 6550 O 612.13 -1.71318 -0.315575 0
M  V30 6551 C 609.262 -3.37115 -0.506611 0
M  V30 6552 H 610.455 -2.75183 1.19223 0
M  V30 6553 H 608.008 -1.41886 0.655598 0
M  V30 6554 H 608.743 -2.93802 -1.37299 0
M  V30 6555 H 608.528 -3.91959 0.105218 0
M  V30 6556 H 610.018 -4.08412 -0.871192 0
M  V30 6557 N 610.455 -0.639598 -1.44038 0
M  V30 6558 C 611.702 -0.14748 -2.01962 0
M  V30 6559 C 612.03 1.23372 -1.50365 0
M  V30 6560 O 611.285 1.8345 -0.681501 0
M  V30 6561 C 611.584 -0.0925348 -3.5728 0
M  V30 6562 C 611.25 -1.41365 -4.28167 0
M  V30 6563 C 609.912 -1.77545 -4.47248 0
M  V30 6564 C 612.264 -2.2853 -4.68427 0
M  V30 6565 C 609.592 -3.00583 -5.03852 0
M  V30 6566 C 611.944 -3.50846 -5.26393 0
M  V30 6567 C 610.608 -3.8724 -5.43692 0
M  V30 6568 H 609.878 -0.0539666 -0.739032 0
M  V30 6569 H 612.525 -0.827599 -1.72694 0
M  V30 6570 H 610.83 0.670987 -3.86012 0
M  V30 6571 H 612.527 0.304891 -3.99839 0
M  V30 6572 H 609.117 -1.1221 -4.13651 0
M  V30 6573 H 613.301 -2.0187 -4.5339 0
M  V30 6574 H 608.557 -3.28846 -5.15432 0
M  V30 6575 H 612.731 -4.18616 -5.56537 0
M  V30 6576 H 610.358 -4.8266 -5.87319 0
M  V30 6577 N 611.933 1.52934 -0.380664 0
M  V30 6578 C 613.344 1.86457 0.0952684 0
M  V30 6579 C 613.695 1.3007 1.46889 0
M  V30 6580 O 612.82 0.628636 2.07068 0
M  V30 6581 C 613.415 3.38323 0.179648 0
M  V30 6582 C 611.974 3.71589 0.599858 0
M  V30 6583 C 611.121 2.76228 -0.243572 0
M  V30 6584 H 614.072 1.46966 -0.59888 0
M  V30 6585 H 614.093 3.67113 1.00042 0
M  V30 6586 H 613.605 3.79333 -0.820228 0
M  V30 6587 H 611.706 3.36144 1.60742 0
M  V30 6588 H 611.819 4.77715 0.364003 0
M  V30 6589 H 610.183 2.53045 0.289855 0
M  V30 6590 H 610.966 3.20074 -1.24127 0
M  V30 6591 N 613.412 0.11024 1.57214 0
M  V30 6592 C 614.66 -0.548783 1.94506 0
M  V30 6593 C 614.981 -1.67772 0.99386 0
M  V30 6594 O 614.251 -1.9584 0.0485841 0
M  V30 6595 H 612.831 -0.205715 0.718116 0
M  V30 6596 H 615.493 0.177127 1.94093 0
M  V30 6597 H 614.589 -0.949096 2.97319 0
M  V30 6598 N 614.89 -1.56749 -0.16351 0
M  V30 6599 C 615.82 -2.00042 -1.20438 0
M  V30 6600 C 616.801 -0.877256 -1.45733 0
M  V30 6601 O 617.986 -1.1439 -1.56935 0
M  V30 6602 C 615.116 -2.36697 -2.54149 0
M  V30 6603 C 614.07 -3.52046 -2.43408 0
M  V30 6604 C 613.396 -3.74466 -3.81679 0
M  V30 6605 C 614.696 -4.85247 -1.93216 0
M  V30 6606 H 616.39 -2.87244 -0.844477 0
M  V30 6607 H 613.936 -1.38194 -0.40478 0
M  V30 6608 H 615.889 -2.65582 -3.27176 0
M  V30 6609 H 614.613 -1.46414 -2.91943 0
M  V30 6610 H 613.272 -3.23301 -1.72834 0
M  V30 6611 H 612.92 -2.81461 -4.1688 0
M  V30 6612 H 612.62 -4.52084 -3.75359 0
M  V30 6613 H 614.144 -4.0576 -4.5628 0
M  V30 6614 H 615.558 -5.12957 -2.56023 0
M  V30 6615 H 613.955 -5.66556 -1.97825 0
M  V30 6616 H 615.025 -4.7672 -0.88689 0
M  V30 6617 N 616.368 0.432326 -1.51554 0
M  V30 6618 C 617.784 0.769195 -1.39841 0
M  V30 6619 C 617.984 1.95584 -0.484675 0
M  V30 6620 O 617.04 2.52433 0.0582829 0
M  V30 6621 C 618.353 1.04487 -2.81963 0
M  V30 6622 C 619.901 1.149 -2.91148 0
M  V30 6623 C 620.376 1.45758 -4.34187 0
M  V30 6624 N 621.867 1.52671 -4.37317 0
M  V30 6625 C 622.602 1.78129 -5.4503 0
M  V30 6626 N 622.098 2.01345 -6.62897 0
M  V30 6627 N 623.891 1.79953 -5.32516 0
M  V30 6628 H 616.042 -0.349122 -2.09511 0
M  V30 6629 H 618.305 -0.0938113 -0.943347 0
M  V30 6630 H 618.011 0.24557 -3.50842 0
M  V30 6631 H 617.885 1.97119 -3.21596 0
M  V30 6632 H 620.272 1.93891 -2.22464 0
M  V30 6633 H 620.353 0.201568 -2.55005 0
M  V30 6634 H 619.997 0.672917 -5.03423 0
M  V30 6635 H 619.927 2.41715 -4.67848 0
M  V30 6636 H 622.418 1.36612 -3.52343 0
M  V30 6637 H 622.731 2.20155 -7.40778 0
M  V30 6638 H 621.076 1.98657 -6.66003 0
M  V30 6639 H 624.267 1.61337 -4.39418 0
M  V30 6640 H 624.44 1.99455 -6.1654 0
M  V30 6641 N 617.846 1.41785 0.688094 0
M  V30 6642 C 619.076 1.44705 1.47459 0
M  V30 6643 C 619.484 0.052916 1.89126 0
M  V30 6644 O 618.827 -0.939781 1.57841 0
M  V30 6645 C 618.889 2.29935 2.76352 0
M  V30 6646 C 618.553 3.77996 2.56843 0
M  V30 6647 C 619.55 4.69976 2.22304 0
M  V30 6648 C 617.235 4.2212 2.7225 0
M  V30 6649 C 619.229 6.04068 2.03421 0
M  V30 6650 C 616.916 5.56275 2.52985 0
M  V30 6651 C 617.914 6.47065 2.18621 0
M  V30 6652 O 617.602 7.78744 1.9953 0
M  V30 6653 H 617.334 0.494703 0.460701 0
M  V30 6654 H 619.888 1.86802 0.854057 0
M  V30 6655 H 618.118 1.82664 3.40839 0
M  V30 6656 H 619.807 2.24467 3.38186 0
M  V30 6657 H 620.573 4.37175 2.10008 0
M  V30 6658 H 616.452 3.51752 2.97979 0
M  V30 6659 H 619.996 6.74897 1.76523 0
M  V30 6660 H 615.893 5.88653 2.64873 0
M  V30 6661 H 616.661 7.89966 2.14234 0
M  V30 6662 N 619.324 -0.923095 1.27737 0
M  V30 6663 C 620.57 -1.67375 1.14514 0
M  V30 6664 C 620.903 -1.91751 -0.307424 0
M  V30 6665 O 620.178 -1.51119 -1.22447 0
M  V30 6666 C 620.461 -3.03745 1.9342 0
M  V30 6667 C 620.314 -2.86581 3.46686 0
M  V30 6668 C 621.633 -4.04144 1.74228 0
M  V30 6669 H 618.752 -0.607427 0.417374 0
M  V30 6670 H 621.394 -1.07089 1.56946 0
M  V30 6671 H 619.544 -3.55204 1.5736 0
M  V30 6672 H 621.216 -2.42203 3.92601 0
M  V30 6673 H 619.459 -2.21829 3.72793 0
M  V30 6674 H 620.13 -3.83381 3.97143 0
M  V30 6675 H 622.606 -3.61712 2.05678 0
M  V30 6676 H 621.482 -4.97543 2.31824 0
M  V30 6677 H 621.743 -4.36661 0.691373 0
M  V30 6678 N 620.802 -1.09834 -1.13024 0
M  V30 6679 C 622.079 -0.749225 -1.80682 0
M  V30 6680 C 622.459 0.765171 -1.96744 0
M  V30 6681 O 621.807 1.68912 -1.53886 0
M  V30 6682 C 622.017 -1.49311 -3.15448 0
M  V30 6683 C 623.365 -1.66162 -3.90737 0
M  V30 6684 O 624.389 -1.45597 -3.25085 0
M  V30 6685 O 623.248 -2.00211 -5.08505 0
M  V30 6686 H 620.342 -0.269614 -0.781817 0
M  V30 6687 H 622.888 -1.20078 -1.19914 0
M  V30 6688 H 621.66 -2.52407 -2.99009 0
M  V30 6689 H 621.283 -1.034 -3.8392 0
M  V30 6690 N 622.28 1.30327 -0.886154 0
M  V30 6691 C 623.21 2.30549 -0.370028 0
M  V30 6692 C 624.191 1.61039 0.547751 0
M  V30 6693 O 625.376 1.8864 0.461353 0
M  V30 6694 C 622.506 3.44808 0.415275 0
M  V30 6695 C 621.46 4.26024 -0.41085 0
M  V30 6696 C 620.786 5.32347 0.501128 0
M  V30 6697 C 622.086 4.95433 -1.65359 0
M  V30 6698 H 623.78 2.73969 -1.20754 0
M  V30 6699 H 621.326 1.3171 -0.582097 0
M  V30 6700 H 623.279 4.13986 0.78699 0
M  V30 6701 H 622.003 3.00197 1.28644 0
M  V30 6702 H 620.662 3.58535 -0.764719 0
M  V30 6703 H 620.31 4.83982 1.37004 0
M  V30 6704 H 620.01 5.87581 -0.0478356 0
M  V30 6705 H 621.534 6.0438 0.869333 0
M  V30 6706 H 622.948 5.5712 -1.35239 0
M  V30 6707 H 621.345 5.60537 -2.14284 0
M  V30 6708 H 622.415 4.21493 -2.39733 0
M  V30 6709 N 623.758 0.647228 1.43697 0
M  V30 6710 C 624.983 0.164083 2.0675 0
M  V30 6711 C 625.408 -1.15892 1.48158 0
M  V30 6712 O 624.766 -1.71459 0.589194 0
M  V30 6713 C 624.814 0.0800368 3.60511 0
M  V30 6714 O 623.918 -0.959453 4.01084 0
M  V30 6715 H 623.259 0.0921288 0.657578 0
M  V30 6716 H 625.789 0.88846 1.84303 0
M  V30 6717 H 625.799 -0.105263 4.07864 0
M  V30 6718 H 624.474 1.04586 4.02535 0
M  V30 6719 H 623.051 -0.747425 3.65333 0
M  V30 6720 N 625.236 -1.5273 0.388769 0
M  V30 6721 C 626.513 -1.93981 -0.251133 0
M  V30 6722 C 626.893 -1.32418 -1.64404 0
M  V30 6723 O 626.241 -0.492074 -2.23139 0
M  V30 6724 C 626.451 -3.47891 -0.27802 0
M  V30 6725 C 627.799 -4.21559 -0.507229 0
M  V30 6726 O 628.823 -3.54394 -0.358252 0
M  V30 6727 O 627.682 -5.40626 -0.799094 0
M  V30 6728 H 624.776 -0.812157 -0.15598 0
M  V30 6729 H 627.322 -1.63809 0.443237 0
M  V30 6730 H 626.094 -3.8503 0.697669 0
M  V30 6731 H 625.717 -3.84364 -1.01733 0
M  V30 6732 N 626.714 -0.118576 -1.57153 0
M  V30 6733 C 627.662 0.849114 -2.16547 0
M  V30 6734 C 628.656 1.27567 -1.11458 0
M  V30 6735 O 629.862 1.24746 -1.29763 0
M  V30 6736 H 626.237 0.291935 -0.693021 0
M  V30 6737 H 628.208 0.323693 -2.96639 0
M  V30 6738 C 626.957 2.08951 -2.77912 0
M  V30 6739 H 626.28 1.77021 -3.58474 0
M  V30 6740 H 627.72 2.74666 -3.23008 0
M  V30 6741 C 626.179 2.87899 -1.74974 0
M  V30 6742 O 626.709 3.83268 -1.20285 0
M  V30 6743 N 624.915 2.51884 -1.44924 0
M  V30 6744 H 624.462 1.74397 -1.89587 0
M  V30 6745 H 624.42 3.05003 -0.762921 0
M  V30 6746 N 628.193 1.56834 0.155195 0
M  V30 6747 C 629.609 1.51315 0.50755 0
M  V30 6748 C 629.809 0.825614 1.83809 0
M  V30 6749 O 628.865 0.39271 2.49427 0
M  V30 6750 C 630.178 2.96074 0.52542 0
M  V30 6751 C 631.726 3.06968 0.611505 0
M  V30 6752 C 632.201 4.53218 0.660115 0
M  V30 6753 N 633.692 4.5753 0.722564 0
M  V30 6754 C 634.427 5.68056 0.781023 0
M  V30 6755 N 633.923 6.88173 0.799327 0
M  V30 6756 N 635.716 5.56068 0.821278 0
M  V30 6757 H 627.867 1.9993 -0.717063 0
M  V30 6758 H 630.13 0.911507 -0.260496 0
M  V30 6759 H 629.836 3.49599 -0.383875 0
M  V30 6760 H 629.71 3.51587 1.36624 0
M  V30 6761 H 632.097 2.53468 1.51122 0
M  V30 6762 H 632.178 2.54513 -0.256306 0
M  V30 6763 H 631.822 5.07354 -0.23541 0
M  V30 6764 H 631.752 5.03447 1.5443 0
M  V30 6765 H 634.243 3.71054 0.716049 0
M  V30 6766 H 634.556 7.6816 0.845553 0
M  V30 6767 H 632.901 6.90751 0.767337 0
M  V30 6768 H 636.092 4.61142 0.804091 0
M  V30 6769 H 636.265 6.42223 0.863372 0
M  V30 6770 N 629.671 -0.424282 1.51781 0
M  V30 6771 C 630.92 -1.16961 1.64326 0
M  V30 6772 C 631.233 -1.92035 0.371749 0
M  V30 6773 O 632.439 -2.68873 0.37676 0
M  V30 6774 C 630.895 -2.12782 2.90262 0
M  V30 6775 C 630.503 -1.43295 4.24465 0
M  V30 6776 C 632.247 -2.87667 3.12166 0
M  V30 6777 C 630.154 -2.37676 5.41538 0
M  V30 6778 H 629.084 -0.440293 0.612093 0
M  V30 6779 H 631.735 -0.435431 1.78259 0
M  V30 6780 H 630.117 -2.8969 2.69992 0
M  V30 6781 H 631.291 -0.718564 4.55163 0
M  V30 6782 H 629.606 -0.805118 4.08542 0
M  V30 6783 H 632.203 -3.58395 3.96808 0
M  V30 6784 H 632.546 -3.49758 2.25776 0
M  V30 6785 H 633.079 -2.17863 3.32837 0
M  V30 6786 H 629.818 -1.80255 6.30229 0
M  V30 6787 H 629.338 -3.07132 5.15199 0
M  V30 6788 H 631.017 -2.98529 5.74012 0
M  V30 6789 N 631.149 -1.42148 -0.680565 0
M  V30 6790 C 632.374 -1.45901 -1.47403 0
M  V30 6791 C 632.799 -0.0700985 -1.87969 0
M  V30 6792 O 632.157 0.930145 -1.55621 0
M  V30 6793 C 632.205 -2.38661 -2.70321 0
M  V30 6794 O 631.309 -1.85399 -3.68376 0
M  V30 6795 H 630.65 -0.494565 -0.443059 0
M  V30 6796 H 633.18 -1.86774 -0.835251 0
M  V30 6797 H 633.19 -2.55046 -3.18458 0
M  V30 6798 H 631.865 -3.39571 -2.40134 0
M  V30 6799 H 630.442 -1.78541 -3.2738 0
M  V30 6800 N 632.627 0.916307 -1.28225 0
M  V30 6801 C 633.875 1.6619 -1.15002 0
M  V30 6802 C 634.196 1.92642 0.302329 0
M  V30 6803 O 633.466 1.54076 1.20985 0
M  V30 6804 H 632.046 0.615964 -0.422608 0
M  V30 6805 H 634.708 1.09963 -1.60917 0
M  V30 6806 H 633.804 2.62533 -1.68769 0
M  V30 6807 N 634.105 1.10431 1.1244 0
M  V30 6808 C 635.068 0.756542 2.16354 0
M  V30 6809 C 636.068 -0.21899 1.59302 0
M  V30 6810 O 637.258 0.00415969 1.742 0
M  V30 6811 C 634.39 0.120612 3.40687 0
M  V30 6812 H 635.583 1.67696 2.48632 0
M  V30 6813 H 633.136 0.904832 1.27446 0
M  V30 6814 H 633.871 -0.810536 3.14008 0
M  V30 6815 H 633.656 0.822693 3.83372 0
M  V30 6816 H 635.146 -0.106945 4.17463 0
M  V30 6817 N 635.583 -1.29855 0.893053 0
M  V30 6818 C 636.808 -2.00512 0.530066 0
M  V30 6819 C 637.233 -1.66446 -0.876199 0
M  V30 6820 O 636.591 -0.885446 -1.58207 0
M  V30 6821 C 636.639 -3.53308 0.721505 0
M  V30 6822 O 635.743 -4.11764 -0.228994 0
M  V30 6823 H 635.084 -0.630617 0.207891 0
M  V30 6824 H 637.614 -1.6551 1.20282 0
M  V30 6825 H 637.624 -4.03206 0.623599 0
M  V30 6826 H 636.299 -3.77439 1.74678 0
M  V30 6827 H 634.876 -3.72805 -0.0841034 0
M  V30 6828 N 637.061 -0.65484 -1.43351 0
M  V30 6829 C 637.971 0.0363603 -2.34572 0
M  V30 6830 C 638.987 0.810432 -1.53974 0
M  V30 6831 O 640.163 0.757308 -1.86619 0
M  V30 6832 C 637.228 0.989733 -3.32273 0
M  V30 6833 C 636.289 0.212414 -4.28774 0
M  V30 6834 C 635.522 1.12038 -5.21808 0
M  V30 6835 O 635.745 2.35967 -5.19303 0
M  V30 6836 O 634.679 0.59191 -5.98982 0
M  V30 6837 H 638.505 -0.714527 -2.95175 0
M  V30 6838 H 636.09 -0.415029 -1.4352 0
M  V30 6839 H 637.972 1.53759 -3.92347 0
M  V30 6840 H 636.647 1.72082 -2.74171 0
M  V30 6841 H 635.554 -0.379062 -3.72175 0
M  V30 6842 H 636.887 -0.479138 -4.89862 0
M  V30 6843 N 638.539 1.52521 -0.396863 0
M  V30 6844 C 639.469 2.29582 0.425941 0
M  V30 6845 C 640.45 1.33281 1.05689 0
M  V30 6846 O 641.635 1.62181 1.06823 0
M  V30 6847 C 638.765 3.10821 1.54943 0
M  V30 6848 C 637.719 4.15069 1.04413 0
M  V30 6849 C 637.045 4.84578 2.26028 0
M  V30 6850 C 638.345 5.22191 0.106767 0
M  V30 6851 H 640.039 2.98612 -0.217045 0
M  V30 6852 H 637.585 1.43611 -0.105826 0
M  V30 6853 H 639.538 3.63492 2.13193 0
M  V30 6854 H 638.262 2.39538 2.22011 0
M  V30 6855 H 636.921 3.63389 0.484118 0
M  V30 6856 H 636.569 4.09835 2.91623 0
M  V30 6857 H 636.269 5.55043 1.92876 0
M  V30 6858 H 637.793 5.40056 2.84906 0
M  V30 6859 H 639.207 5.70176 0.597685 0
M  V30 6860 H 637.604 5.99947 -0.135352 0
M  V30 6861 H 638.674 4.77531 -0.842134 0
M  V30 6862 N 640.017 0.126909 1.57088 0
M  V30 6863 C 641.245 -0.53667 1.99819 0
M  V30 6864 C 641.66 -1.5972 1.00673 0
M  V30 6865 O 641.017 -1.825 0.000747365 0
M  V30 6866 C 641.068 -1.15563 3.42531 0
M  V30 6867 O 640.789 -0.137483 4.37884 0
M  V30 6868 C 642.29 -1.90176 4.00435 0
M  V30 6869 H 639.51 -0.141443 0.655923 0
M  V30 6870 H 642.054 0.215578 2.03361 0
M  V30 6871 H 640.209 -1.85861 3.39904 0
M  V30 6872 H 640.623 -0.588229 5.21191 0
M  V30 6873 H 642.097 -2.28801 5.02349 0
M  V30 6874 H 642.574 -2.78002 3.40017 0
M  V30 6875 H 643.18 -1.24623 4.06632 0
M  V30 6876 N 641.495 -1.56914 -0.146875 0
M  V30 6877 C 642.458 -1.97368 -1.16526 0
M  V30 6878 C 643.458 -0.860223 -1.35856 0
M  V30 6879 O 644.648 -1.12684 -1.32846 0
M  V30 6880 C 641.78 -2.28974 -2.52555 0
M  V30 6881 H 642.973 -2.88523 -0.818209 0
M  V30 6882 H 640.526 -1.5135 -0.390221 0
M  V30 6883 H 641.261 -1.40611 -2.92231 0
M  V30 6884 H 641.046 -3.10157 -2.39886 0
M  V30 6885 H 642.536 -2.61109 -3.25902 0
M  V30 6886 N 642.974 0.416227 -1.52004 0
M  V30 6887 C 644.202 1.18573 -1.69553 0
M  V30 6888 C 644.617 1.84472 -0.401919 0
M  V30 6889 O 643.974 1.71593 0.621463 0
M  V30 6890 C 644.025 2.25413 -2.82615 0
M  V30 6891 O 643.746 1.62205 -4.06966 0
M  V30 6892 C 645.247 3.15297 -3.11613 0
M  V30 6893 H 642.467 0.356582 -0.56841 0
M  V30 6894 H 645.011 0.490618 -1.98528 0
M  V30 6895 H 643.166 2.90604 -2.56179 0
M  V30 6896 H 643.58 2.3298 -4.69916 0
M  V30 6897 H 645.054 3.86351 -3.94255 0
M  V30 6898 H 645.531 3.77264 -2.24874 0
M  V30 6899 H 646.137 2.55783 -3.39787 0
M  V30 6900 N 644.452 1.42507 0.673017 0
M  V30 6901 C 645.385 1.40557 1.79774 0
M  V30 6902 C 646.363 0.269606 1.60349 0
M  V30 6903 O 647.547 0.460105 1.82798 0
M  V30 6904 C 644.674 1.19815 3.168 0
M  V30 6905 C 643.72 2.36429 3.5497 0
M  V30 6906 S 644.553 3.98963 3.57196 0
M  V30 6907 C 645.709 3.80567 4.9691 0
M  V30 6908 H 645.942 2.35734 1.81154 0
M  V30 6909 H 643.475 1.293 0.843846 0
M  V30 6910 H 645.433 1.08535 3.95892 0
M  V30 6911 H 644.094 0.262215 3.13004 0
M  V30 6912 H 643.287 2.17669 4.54573 0
M  V30 6913 H 642.889 2.44233 2.83242 0
M  V30 6914 H 645.181 3.41668 5.85038 0
M  V30 6915 H 646.124 4.79852 5.20718 0
M  V30 6916 H 646.532 3.13399 4.69512 0
M  V30 6917 N 645.93 -0.909495 1.28709 0
M  V30 6918 C 647.178 -1.65577 1.15882 0
M  V30 6919 C 647.499 -1.928 -0.292108 0
M  V30 6920 O 646.769 -1.54716 -1.20166 0
M  V30 6921 H 645.349 -0.613714 0.425869 0
M  V30 6922 H 648.011 -1.09108 1.61498 0
M  V30 6923 H 647.107 -2.61634 1.70159 0
M  V30 6924 N 647.408 -1.11026 -1.11852 0
M  V30 6925 C 648.318 -0.777252 -2.2135 0
M  V30 6926 C 649.334 0.227821 -1.72502 0
M  V30 6927 O 650.51 0.0650587 -2.01295 0
M  V30 6928 C 647.575 -0.220668 -3.45997 0
M  V30 6929 C 646.636 -1.2838 -4.09655 0
M  V30 6930 C 645.869 -0.753678 -5.28352 0
M  V30 6931 O 646.092 0.417779 -5.68868 0
M  V30 6932 O 645.026 -1.51647 -5.82483 0
M  V30 6933 H 648.852 -1.69141 -2.5224 0
M  V30 6934 H 646.437 -0.885836 -1.20305 0
M  V30 6935 H 648.319 0.0855756 -4.21313 0
M  V30 6936 H 646.994 0.666262 -3.16769 0
M  V30 6937 H 645.901 -1.64299 -3.3609 0
M  V30 6938 H 647.234 -2.14396 -4.43052 0
M  V30 6939 N 648.886 1.2938 -0.899927 0
M  V30 6940 C 649.849 2.25983 -0.382677 0
M  V30 6941 C 650.849 1.53366 0.483259 0
M  V30 6942 O 652.039 1.71798 0.28828 0
M  V30 6943 C 649.171 3.37878 0.452915 0
M  V30 6944 H 650.364 2.73252 -1.23586 0
M  V30 6945 H 647.917 1.40825 -0.678088 0
M  V30 6946 H 648.652 2.95949 1.32608 0
M  V30 6947 H 648.437 3.91742 -0.167562 0
M  V30 6948 H 649.927 4.09746 0.806107 0
M  V30 6949 N 650.364 0.662433 1.43002 0
M  V30 6950 C 651.641 0.109096 1.95296 0
M  V30 6951 C 652.021 -1.37313 1.60338 0
M  V30 6952 O 651.369 -2.1032 0.893187 0
M  V30 6953 C 651.579 0.365096 3.47085 0
M  V30 6954 C 652.927 0.274964 4.23709 0
M  V30 6955 O 653.951 0.29816 3.5495 0
M  V30 6956 O 652.81 0.206549 5.4611 0
M  V30 6957 H 649.904 -0.00429724 0.826989 0
M  V30 6958 H 652.45 0.736308 1.52894 0
M  V30 6959 H 651.222 1.39237 3.65689 0
M  V30 6960 H 650.845 -0.294733 3.96506 0
M  V30 6961 N 651.842 -1.52309 0.404946 0
M  V30 6962 C 653.09 -2.01368 -0.17186 0
M  V30 6963 C 653.411 -1.29261 -1.46002 0
M  V30 6964 O 652.681 -0.41729 -1.91404 0
M  V30 6965 H 651.261 -0.744034 -0.0664993 0
M  V30 6966 H 653.923 -1.87263 0.540228 0
M  V30 6967 H 653.019 -3.09888 -0.370957 0
M  V30 6968 N 653.32 -0.135238 -1.57019 0
M  V30 6969 C 654.568 0.51777 -1.95355 0
M  V30 6970 C 654.889 1.6617 -1.02042 0
M  V30 6971 O 654.159 1.95738 -0.0797343 0
M  V30 6972 H 652.739 0.194264 -0.721298 0
M  V30 6973 H 655.401 -0.207983 -1.93787 0
M  V30 6974 H 654.497 0.901675 -2.98791 0
M  V30 6975 N 654.798 1.5699 0.138552 0
M  V30 6976 C 655.708 2.02174 1.19008 0
M  V30 6977 C 656.724 0.938622 1.46512 0
M  V30 6978 O 657.9 1.24872 1.58016 0
M  V30 6979 C 654.965 2.40045 2.50159 0
M  V30 6980 C 654.026 3.62346 2.30226 0
M  V30 6981 C 653.259 3.98401 3.55123 0
M  V30 6982 O 653.482 3.35019 4.61647 0
M  V30 6983 O 652.416 4.91606 3.47285 0
M  V30 6984 H 656.242 2.91954 0.836452 0
M  V30 6985 H 653.827 1.45293 0.347907 0
M  V30 6986 H 655.709 2.65225 3.27465 0
M  V30 6987 H 654.384 1.53417 2.85035 0
M  V30 6988 H 653.291 3.42341 1.50843 0
M  V30 6989 H 654.624 4.49617 2.00262 0
M  V30 6990 N 656.276 -0.40816 1.52223 0
M  V30 6991 C 657.223 -1.49737 1.75635 0
M  V30 6992 C 658.193 -1.5493 0.598824 0
M  V30 6993 O 659.378 -1.71487 0.83648 0
M  V30 6994 C 656.518 -2.87174 1.91376 0
M  V30 6995 C 655.631 -2.91283 3.19027 0
M  V30 6996 C 654.766 -4.20026 3.25195 0
M  V30 6997 C 653.805 -4.18113 4.47044 0
M  V30 6998 N 652.942 -5.38429 4.50598 0
M  V30 6999 H 657.782 -1.29075 2.68596 0
M  V30 7000 H 655.319 -0.626518 1.33091 0
M  V30 7001 H 657.277 -3.66959 1.98486 0
M  V30 7002 H 655.907 -3.06329 1.01795 0
M  V30 7003 H 654.959 -2.03984 3.21084 0
M  V30 7004 H 656.271 -2.85734 4.08849 0
M  V30 7005 H 655.425 -5.08204 3.31382 0
M  V30 7006 H 654.164 -4.28271 2.33313 0
M  V30 7007 H 653.169 -3.28325 4.41002 0
M  V30 7008 H 654.394 -4.11507 5.40221 0
M  V30 7009 H 652.34 -5.4734 3.616 0
M  V30 7010 H 652.257 -5.34879 5.34266 0
M  V30 7011 H 653.525 -6.28557 4.61016 0
M  V30 7012 N 657.755 -1.42862 -0.66545 0
M  V30 7013 C 659.001 -1.44043 -1.42757 0
M  V30 7014 C 659.334 -0.0599629 -1.94107 0
M  V30 7015 O 658.609 0.917286 -1.71511 0
M  V30 7016 C 658.892 -2.47266 -2.61786 0
M  V30 7017 C 658.745 -3.94539 -2.16007 0
M  V30 7018 C 660.064 -2.47365 -3.64003 0
M  V30 7019 H 657.183 -0.524506 -0.517748 0
M  V30 7020 H 659.825 -1.74335 -0.755466 0
M  V30 7021 H 657.975 -2.21565 -3.19126 0
M  V30 7022 H 659.647 -4.31254 -1.63762 0
M  V30 7023 H 657.89 -4.07957 -1.47491 0
M  V30 7024 H 658.561 -4.62357 -3.01546 0
M  V30 7025 H 661.037 -2.70243 -3.16399 0
M  V30 7026 H 659.913 -3.21552 -4.44854 0
M  V30 7027 H 660.174 -1.50299 -4.15767 0
M  V30 7028 N 659.233 0.902656 -1.29189 0
M  V30 7029 C 660.479 1.6555 -1.18172 0
M  V30 7030 C 660.834 1.90569 0.264788 0
M  V30 7031 O 660.127 1.50292 1.1884 0
M  V30 7032 C 660.321 3.011 -1.92545 0
M  V30 7033 C 660.15 2.89312 -3.4428 0
M  V30 7034 C 658.92 2.90239 -4.1363 0
M  V30 7035 C 661.118 2.6656 -4.3983 0
M  V30 7036 N 659.1 2.69156 -5.5175 0
M  V30 7037 C 660.471 2.54429 -5.6539 0
M  V30 7038 C 662.526 2.51644 -4.29627 0
M  V30 7039 C 661.229 2.289 -6.81907 0
M  V30 7040 C 663.255 2.27498 -5.45892 0
M  V30 7041 C 662.617 2.16129 -6.70423 0
M  V30 7042 H 658.716 0.611519 -0.48741 0
M  V30 7043 H 661.3 1.06514 -1.62981 0
M  V30 7044 H 659.471 3.58202 -1.50154 0
M  V30 7045 H 661.203 3.65471 -1.73818 0
M  V30 7046 H 657.958 3.01412 -3.65305 0
M  V30 7047 H 658.382 2.61676 -6.24383 0
M  V30 7048 H 663.024 2.59178 -3.34045 0
M  V30 7049 H 660.742 2.20104 -7.77547 0
M  V30 7050 H 664.328 2.16805 -5.39895 0
M  V30 7051 H 663.208 1.97703 -7.5887 0
M  V30 7052 N 660.711 1.11618 1.11262 0
M  V30 7053 C 661.641 0.79846 2.19424 0
M  V30 7054 C 662.622 -0.234003 1.68483 0
M  V30 7055 O 663.807 -0.0970704 1.93957 0
M  V30 7056 C 660.937 0.242892 3.4645 0
M  V30 7057 C 659.891 1.20744 4.10615 0
M  V30 7058 C 659.217 0.512494 5.32238 0
M  V30 7059 C 660.517 2.55884 4.55325 0
M  V30 7060 H 662.211 1.70286 2.46258 0
M  V30 7061 H 659.757 0.820195 1.18359 0
M  V30 7062 H 661.71 0.00840447 4.21399 0
M  V30 7063 H 660.434 -0.696811 3.1908 0
M  V30 7064 H 659.093 1.42759 3.37662 0
M  V30 7065 H 658.741 -0.432075 5.01141 0
M  V30 7066 H 658.441 1.15583 5.7612 0
M  V30 7067 H 659.965 0.286842 6.09926 0
M  V30 7068 H 661.379 2.37946 5.21588 0
M  V30 7069 H 659.776 3.16216 5.10027 0
M  V30 7070 H 660.846 3.14968 3.68678 0
M  V30 7071 N 662.189 -1.289 0.906776 0
M  V30 7072 C 663.121 -2.26556 0.347159 0
M  V30 7073 C 664.134 -1.54589 -0.51049 0
M  V30 7074 O 665.323 -1.75489 -0.326501 0
M  V30 7075 C 662.423 -3.3484 -0.523024 0
M  V30 7076 C 661.596 -4.36296 0.310515 0
M  V30 7077 C 660.655 -5.23879 -0.493634 0
M  V30 7078 O 659.681 -5.69127 0.0913569 0
M  V30 7079 N 660.883 -5.51946 -1.7982 0
M  V30 7080 H 663.648 -2.75212 1.18652 0
M  V30 7081 H 661.209 -1.42309 0.771996 0
M  V30 7082 H 663.201 -3.90366 -1.06756 0
M  V30 7083 H 661.771 -2.85946 -1.26309 0
M  V30 7084 H 660.991 -3.80331 1.03644 0
M  V30 7085 H 662.279 -5.01113 0.881106 0
M  V30 7086 H 661.677 -5.17006 -2.2961 0
M  V30 7087 H 660.234 -6.10258 -2.28971 0
M  V30 7088 N 663.667 -0.670007 -1.42649 0
M  V30 7089 C 665.078 -0.268118 -1.84765 0
M  V30 7090 C 665.429 1.18877 -1.56086 0
M  V30 7091 O 664.554 1.90947 -1.01825 0
M  V30 7092 C 665.149 -0.47984 -3.35385 0
M  V30 7093 C 663.708 -0.132116 -3.76168 0
M  V30 7094 C 662.855 -0.774611 -2.66261 0
M  V30 7095 H 665.806 -0.872509 -1.32563 0
M  V30 7096 H 665.827 0.269522 -3.79544 0
M  V30 7097 H 665.339 -1.54026 -3.56227 0
M  V30 7098 H 663.44 0.92505 -3.60934 0
M  V30 7099 H 663.553 -0.569294 -4.75706 0
M  V30 7100 H 661.917 -0.206353 -2.53863 0
M  V30 7101 H 662.7 -1.83839 -2.89928 0
M  V30 7102 N 665.145 1.52092 -0.413018 0
M  V30 7103 C 666.393 2.01456 0.161178 0
M  V30 7104 C 666.714 1.30034 1.45314 0
M  V30 7105 O 665.984 0.427435 1.9118 0
M  V30 7106 H 664.564 0.744376 0.0625526 0
M  V30 7107 H 667.226 1.86974 -0.550151 0
M  V30 7108 H 666.322 3.1008 0.354517 0
M  V30 7109 N 666.623 0.143563 1.56945 0
M  V30 7110 C 667.9 -0.553285 1.87612 0
M  V30 7111 C 668.28 -1.83195 1.04894 0
M  V30 7112 O 667.628 -2.28102 0.134773 0
M  V30 7113 C 667.838 -0.822055 3.3918 0
M  V30 7114 C 669.186 -1.16435 4.08324 0
M  V30 7115 O 670.21 -0.911522 3.4434 0
M  V30 7116 O 669.069 -1.63996 5.21313 0
M  V30 7117 H 666.163 -0.281851 0.777489 0
M  V30 7118 H 668.709 0.179916 1.68744 0
M  V30 7119 H 667.481 0.0830265 3.91212 0
M  V30 7120 H 667.104 -1.60956 3.63564 0
M  V30 7121 N 668.101 -1.57061 -0.130224 0
M  V30 7122 C 669.031 -2.02552 -1.16168 0
M  V30 7123 C 670.012 -0.907971 -1.4384 0
M  V30 7124 O 671.197 -1.17693 -1.54473 0
M  V30 7125 C 668.327 -2.42035 -2.49071 0
M  V30 7126 C 667.281 -3.5713 -2.35886 0
M  V30 7127 C 666.607 -3.82478 -3.7365 0
M  V30 7128 C 667.907 -4.89236 -1.8288 0
M  V30 7129 H 669.601 -2.8897 -0.783359 0
M  V30 7130 H 667.147 -1.39021 -0.375376 0
M  V30 7131 H 669.1 -2.72462 -3.21469 0
M  V30 7132 H 667.824 -1.52573 -2.88771 0
M  V30 7133 H 666.483 -3.26895 -1.65938 0
M  V30 7134 H 666.131 -2.9024 -4.10816 0
M  V30 7135 H 665.831 -4.59944 -3.65685 0
M  V30 7136 H 667.355 -4.15347 -4.47571 0
M  V30 7137 H 668.769 -5.18272 -2.45085 0
M  V30 7138 H 667.166 -5.70624 -1.85763 0
M  V30 7139 H 668.236 -4.78494 -0.785571 0
M  V30 7140 N 669.579 0.400081 -1.52437 0
M  V30 7141 C 670.542 1.4707 -1.75793 0
M  V30 7142 C 671.542 1.48036 -0.627856 0
M  V30 7143 O 672.732 1.49401 -0.895817 0
M  V30 7144 C 669.864 2.86427 -1.84858 0
M  V30 7145 H 671.057 1.27649 -2.71377 0
M  V30 7146 H 668.61 0.631141 -1.42991 0
M  V30 7147 H 669.345 3.11207 -0.912194 0
M  V30 7148 H 669.13 2.87128 -2.6702 0
M  V30 7149 H 670.62 3.64023 -2.04638 0
M  V30 7150 N 671.057 1.43213 0.657864 0
M  V30 7151 C 672.468 1.39669 1.23893 0
M  V30 7152 C 672.819 0.0984217 1.95953 0
M  V30 7153 O 671.944 -0.8023 2.00978 0
M  V30 7154 C 672.539 2.53004 2.25332 0
M  V30 7155 C 671.098 2.5274 2.78926 0
M  V30 7156 C 670.245 2.30941 1.53497 0
M  V30 7157 H 673.196 1.52181 0.450172 0
M  V30 7158 H 673.217 2.24226 3.07413 0
M  V30 7159 H 672.729 3.4748 1.72856 0
M  V30 7160 H 670.83 1.6213 3.35477 0
M  V30 7161 H 670.943 3.50352 3.26787 0
M  V30 7162 H 669.307 1.7952 1.80678 0
M  V30 7163 H 670.09 3.27496 1.02963 0
M  V30 7164 N 672.536 -0.895792 1.29666 0
M  V30 7165 C 673.499 -1.98189 1.15124 0
M  V30 7166 C 674.499 -1.60572 0.0855717 0
M  V30 7167 O 675.689 -1.70991 0.332826 0
M  V30 7168 C 672.821 -3.32289 0.761372 0
M  V30 7169 H 674.014 -2.12518 2.11603 0
M  V30 7170 H 671.567 -1.0808 1.12908 0
M  V30 7171 H 672.302 -3.23662 -0.203393 0
M  V30 7172 H 672.087 -3.60958 1.53139 0
M  V30 7173 H 673.577 -4.1198 0.682792 0
M  V30 7174 N 674.014 -1.12206 -1.10668 0
M  V30 7175 C 675.425 -0.890657 -1.64086 0
M  V30 7176 C 675.776 0.575502 -1.8757 0
M  V30 7177 O 674.901 1.4394 -1.61587 0
M  V30 7178 C 675.496 -1.61029 -2.98085 0
M  V30 7179 C 674.055 -1.4251 -3.48379 0
M  V30 7180 C 673.202 -1.64778 -2.23033 0
M  V30 7181 H 676.153 -1.27718 -0.94201 0
M  V30 7182 H 676.174 -1.05993 -3.65439 0
M  V30 7183 H 675.686 -2.67735 -2.80962 0
M  V30 7184 H 673.787 -0.380497 -3.70652 0
M  V30 7185 H 673.9 -2.17959 -4.26651 0
M  V30 7186 H 672.264 -1.07171 -2.31055 0
M  V30 7187 H 673.047 -2.72776 -2.08443 0
M  V30 7188 N 675.492 1.28418 -0.913599 0
M  V30 7189 C 676.738 1.9527 -0.547484 0
M  V30 7190 C 677.071 1.71745 0.906486 0
M  V30 7191 O 676.346 1.03834 1.64465 0
M  V30 7192 C 676.629 3.49748 -0.857205 0
M  V30 7193 C 676.482 3.82675 -2.3639 0
M  V30 7194 C 677.801 4.3868 -0.353258 0
M  V30 7195 H 674.92 0.709236 -0.200381 0
M  V30 7196 H 677.562 1.51789 -1.14281 0
M  V30 7197 H 675.712 3.86915 -0.350548 0
M  V30 7198 H 677.384 3.55378 -2.94116 0
M  V30 7199 H 675.627 3.29724 -2.81894 0
M  V30 7200 H 676.298 4.90547 -2.53115 0
M  V30 7201 H 678.774 4.08584 -0.787288 0
M  V30 7202 H 677.65 5.45621 -0.599049 0
M  V30 7203 H 677.911 4.35753 0.746413 0
M  V30 7204 N 676.97 0.677563 1.42291 0
M  V30 7205 C 678.247 0.129803 1.95169 0
M  V30 7206 C 678.627 -1.35605 1.61786 0
M  V30 7207 O 677.975 -2.09361 0.915444 0
M  V30 7208 C 678.185 0.401889 3.46678 0
M  V30 7209 C 679.533 0.319889 4.23393 0
M  V30 7210 O 680.557 0.33579 3.54614 0
M  V30 7211 O 679.416 0.264459 5.4586 0
M  V30 7212 H 676.51 0.00447433 0.826988 0
M  V30 7213 H 679.056 0.752483 1.52105 0
M  V30 7214 H 677.828 1.43108 3.64192 0
M  V30 7215 H 677.451 -0.252662 3.96796 0
M  V30 7216 N 678.448 -1.51871 0.421078 0
M  V30 7217 C 679.676 -2.06356 -0.14994 0
M  V30 7218 C 680.091 -1.29006 -1.37851 0
M  V30 7219 O 679.448 -0.345139 -1.79207 0
M  V30 7220 C 679.499 -3.58185 -0.488454 0
M  V30 7221 O 679.22 -4.32611 0.691341 0
M  V30 7222 C 680.721 -4.29129 -1.11191 0
M  V30 7223 H 677.941 -0.67083 -0.0151186 0
M  V30 7224 H 680.485 -1.95638 0.595476 0
M  V30 7225 H 678.64 -3.68871 -1.18376 0
M  V30 7226 H 679.054 -5.22927 0.405906 0
M  V30 7227 H 680.528 -5.36501 -1.29889 0
M  V30 7228 H 681.005 -3.86371 -2.0884 0
M  V30 7229 H 681.611 -4.22843 -0.456458 0
M  V30 7230 N 679.926 -0.151884 -1.56866 0
M  V30 7231 C 681.337 0.368128 -1.83035 0
M  V30 7232 C 681.688 1.64402 -1.07082 0
M  V30 7233 O 680.813 2.14056 -0.317647 0
M  V30 7234 C 681.408 0.674676 -3.32014 0
M  V30 7235 C 679.967 1.13919 -3.58747 0
M  V30 7236 C 679.114 0.164833 -2.7681 0
M  V30 7237 H 682.065 -0.376499 -1.54169 0
M  V30 7238 H 682.086 1.52883 -3.48435 0
M  V30 7239 H 681.598 -0.254113 -3.87267 0
M  V30 7240 H 679.699 2.08375 -3.08886 0
M  V30 7241 H 679.812 1.06179 -4.67186 0
M  V30 7242 H 678.176 0.658419 -2.46043 0
M  V30 7243 H 678.959 -0.757633 -3.34836 0
M  V30 7244 N 681.404 1.57128 0.121893 0
M  V30 7245 C 682.629 1.89254 0.848385 0
M  V30 7246 C 683.054 0.743527 1.72781 0
M  V30 7247 O 682.412 -0.306056 1.78698 0
M  V30 7248 C 682.46 3.20113 1.66012 0
M  V30 7249 O 681.564 3.05815 2.76679 0
M  V30 7250 H 680.905 0.621103 0.234793 0
M  V30 7251 H 683.435 2.0433 0.10516 0
M  V30 7252 H 683.445 3.52761 2.04996 0
M  V30 7253 H 682.12 4.03336 1.01452 0
M  V30 7254 H 680.697 2.84627 2.40918 0
M  V30 7255 N 682.882 -0.391992 1.52647 0
M  V30 7256 C 684.107 -1.16312 1.71716 0
M  V30 7257 C 684.532 -1.83042 0.433279 0
M  V30 7258 O 683.89 -1.70705 -0.610707 0
M  V30 7259 C 683.938 -2.18908 2.86551 0
M  V30 7260 O 683.042 -3.2543 2.53316 0
M  V30 7261 H 682.383 -0.338743 0.571095 0
M  V30 7262 H 684.913 -0.457202 1.99426 0
M  V30 7263 H 684.923 -2.62954 3.1196 0
M  V30 7264 H 683.598 -1.69726 3.79692 0
M  V30 7265 H 682.175 -2.86543 2.38637 0
M  V30 7266 N 684.36 -1.4356 -0.65026 0
M  V30 7267 C 685.27 -1.514 -1.79207 0
M  V30 7268 C 686.286 -0.400895 -1.69319 0
M  V30 7269 O 687.462 -0.655458 -1.90436 0
M  V30 7270 C 684.527 -1.43737 -3.155 0
M  V30 7271 C 683.588 -2.65743 -3.37163 0
M  V30 7272 C 682.821 -2.58436 -4.66954 0
M  V30 7273 O 683.044 -1.63374 -5.46503 0
M  V30 7274 O 681.978 -3.48984 -4.90402 0
M  V30 7275 H 685.804 -2.47825 -1.75547 0
M  V30 7276 H 683.389 -1.25594 -0.809111 0
M  V30 7277 H 685.271 -1.41916 -3.96784 0
M  V30 7278 H 683.946 -0.504488 -3.19745 0
M  V30 7279 H 682.853 -2.73136 -2.55632 0
M  V30 7280 H 684.186 -3.58014 -3.37768 0
M  V30 7281 N 685.838 0.888903 -1.30139 0
M  V30 7282 C 687.115 1.62145 -1.094 0
M  V30 7283 C 687.495 2.08041 0.358091 0
M  V30 7284 O 686.843 1.84438 1.34888 0
M  V30 7285 C 687.053 2.794 -2.09133 0
M  V30 7286 C 688.401 3.49826 -2.40638 0
M  V30 7287 O 689.425 2.89583 -2.07412 0
M  V30 7288 O 688.284 4.58457 -2.97455 0
M  V30 7289 H 685.378 0.712475 -0.41989 0
M  V30 7290 H 687.924 0.936023 -1.41551 0
M  V30 7291 H 686.696 2.42762 -3.06891 0
M  V30 7292 H 686.319 3.55643 -1.77776 0
M  V30 7293 N 687.317 1.12792 1.10072 0
M  V30 7294 C 688.564 0.885545 1.82111 0
M  V30 7295 C 688.892 -0.588519 1.85383 0
M  V30 7296 O 688.147 -1.45124 1.31292 0
M  V30 7297 C 688.446 1.4102 3.28403 0
M  V30 7298 C 688.112 2.89995 3.45273 0
M  V30 7299 C 686.774 3.30671 3.49585 0
M  V30 7300 C 689.126 3.85874 3.50358 0
M  V30 7301 C 686.454 4.65925 3.56553 0
M  V30 7302 C 688.806 5.20963 3.58859 0
M  V30 7303 C 687.47 5.61177 3.61437 0
M  V30 7304 H 686.74 0.324044 0.666391 0
M  V30 7305 H 689.387 1.40874 1.29718 0
M  V30 7306 H 687.692 0.807551 3.83387 0
M  V30 7307 H 689.389 1.19882 3.82661 0
M  V30 7308 H 685.979 2.57537 3.42597 0
M  V30 7309 H 690.163 3.5554 3.46273 0
M  V30 7310 H 685.419 4.96468 3.56833 0
M  V30 7311 H 689.593 5.95079 3.61738 0
M  V30 7312 H 687.22 6.6597 3.66589 0
M  V30 7313 N 688.795 -1.27931 0.920396 0
M  V30 7314 C 690.211 -1.47085 0.619537 0
M  V30 7315 C 690.411 -1.83463 -0.833291 0
M  V30 7316 O 689.467 -1.94363 -1.61181 0
M  V30 7317 C 690.78 -2.56878 1.56314 0
M  V30 7318 C 692.328 -2.70743 1.57058 0
M  V30 7319 C 692.803 -3.83687 2.50097 0
M  V30 7320 N 694.294 -3.9105 2.48262 0
M  V30 7321 C 695.029 -4.77842 3.16945 0
M  V30 7322 N 694.525 -5.69176 3.94982 0
M  V30 7323 N 696.318 -4.71509 3.06 0
M  V30 7324 H 688.469 -1.02601 1.85975 0
M  V30 7325 H 690.732 -0.511682 0.798051 0
M  V30 7326 H 690.438 -2.36923 2.59923 0
M  V30 7327 H 690.312 -3.54117 1.29928 0
M  V30 7328 H 692.699 -2.90083 0.541832 0
M  V30 7329 H 692.78 -1.74015 1.8749 0
M  V30 7330 H 692.424 -3.65101 3.53077 0
M  V30 7331 H 692.354 -4.79827 2.16964 0
M  V30 7332 H 694.845 -3.25738 1.91581 0
M  V30 7333 H 695.158 -6.32245 4.44394 0
M  V30 7334 H 693.503 -5.68995 3.99086 0
M  V30 7335 H 696.694 -3.99151 2.44533 0
M  V30 7336 H 696.867 -5.38933 3.59799 0
M  V30 7337 N 690.273 -0.685099 -1.4193 0
M  V30 7338 C 691.684 -0.287699 -1.8447 0
M  V30 7339 C 692.035 1.17215 -1.57338 0
M  V30 7340 O 691.16 1.89856 -1.03845 0
M  V30 7341 C 691.755 -0.515385 -3.34857 0
M  V30 7342 C 690.314 -0.172006 -3.76007 0
M  V30 7343 C 689.461 -0.802808 -2.65425 0
M  V30 7344 H 692.412 -0.88652 -1.3163 0
M  V30 7345 H 692.433 0.229251 -3.79809 0
M  V30 7346 H 691.945 -1.57796 -3.54573 0
M  V30 7347 H 690.046 0.886716 -3.61895 0
M  V30 7348 H 690.159 -0.619717 -4.75075 0
M  V30 7349 H 688.523 -0.233267 -2.5363 0
M  V30 7350 H 689.306 -1.86904 -2.87961 0
M  V30 7351 N 691.751 1.51645 -0.429126 0
M  V30 7352 C 692.699 2.29119 0.400921 0
M  V30 7353 C 693.693 1.34628 1.02819 0
M  V30 7354 O 694.899 1.52004 0.964098 0
M  V30 7355 H 691.274 0.737273 0.148095 0
M  V30 7356 H 693.245 2.97144 -0.273457 0
M  V30 7357 C 691.994 3.13953 1.49429 0
M  V30 7358 H 691.317 3.86544 1.02097 0
M  V30 7359 H 692.757 3.71232 2.04849 0
M  V30 7360 C 691.216 2.28796 2.47293 0
M  V30 7361 O 691.746 1.94193 3.51642 0
M  V30 7362 N 689.952 1.92177 2.17982 0
M  V30 7363 H 689.499 2.20517 1.33154 0
M  V30 7364 H 689.457 1.35497 2.83704 0
M  V30 7365 N 693.229 0.160201 1.56784 0
M  V30 7366 C 694.469 -0.490179 1.98435 0
M  V30 7367 C 694.833 -1.61164 1.04355 0
M  V30 7368 O 696.034 -2.3238 1.35103 0
M  V30 7369 C 694.305 -0.971106 3.43954 0
M  V30 7370 S 695.864 -1.62423 4.07632 0
M  V30 7371 H 692.682 -0.158056 0.693209 0
M  V30 7372 H 695.284 0.255036 1.93829 0
M  V30 7373 H 693.988 -0.144323 4.10146 0
M  V30 7374 H 693.519 -1.75063 3.52302 0
M  V30 7375 H 695.534 -2.91199 4.01768 0
M  V30 7376 N 694.707 -1.5719 -0.113559 0
M  V30 7377 C 695.932 -1.89702 -0.838336 0
M  V30 7378 C 696.357 -0.752679 -1.72384 0
M  V30 7379 O 695.715 0.296575 -1.78858 0
M  V30 7380 C 695.763 -3.20989 -1.64312 0
M  V30 7381 O 694.867 -3.07278 -2.75053 0
M  V30 7382 H 694.208 -0.622339 -0.231496 0
M  V30 7383 H 696.738 -2.04382 -0.0943228 0
M  V30 7384 H 696.748 -3.53843 -2.03123 0
M  V30 7385 H 695.423 -4.03869 -0.993119 0
M  V30 7386 H 694 -2.85901 -2.39406 0
M  V30 7387 N 696.185 0.383891 -1.52853 0
M  V30 7388 C 697.413 1.1495 -1.7203 0
M  V30 7389 C 697.828 1.83578 -0.440957 0
M  V30 7390 O 697.185 1.72872 0.584925 0
M  V30 7391 C 697.236 2.19368 -2.87333 0
M  V30 7392 O 696.957 1.53536 -4.10315 0
M  V30 7393 C 698.458 3.08616 -3.18231 0
M  V30 7394 H 695.678 0.344445 -0.575846 0
M  V30 7395 H 698.222 0.448397 -1.99524 0
M  V30 7396 H 696.377 2.85105 -2.62286 0
M  V30 7397 H 696.791 2.2296 -4.74752 0
M  V30 7398 H 698.265 3.77902 -4.02361 0
M  V30 7399 H 698.742 3.72409 -2.32826 0
M  V30 7400 H 699.348 2.48518 -3.45136 0
M  V30 7401 N 697.663 1.43903 0.642637 0
M  V30 7402 C 698.593 1.52697 1.76652 0
M  V30 7403 C 699.574 0.380816 1.65782 0
M  V30 7404 O 700.759 0.599432 1.84717 0
M  V30 7405 C 697.889 1.45975 3.15133 0
M  V30 7406 C 696.843 2.58949 3.40778 0
M  V30 7407 C 696.169 2.37279 4.79169 0
M  V30 7408 C 697.469 4.01153 3.34475 0
M  V30 7409 H 699.163 2.46766 1.69549 0
M  V30 7410 H 696.709 1.18767 0.814279 0
M  V30 7411 H 698.662 1.5073 3.93521 0
M  V30 7412 H 697.386 0.484162 3.22991 0
M  V30 7413 H 696.045 2.53564 2.64765 0
M  V30 7414 H 695.693 1.37939 4.83717 0
M  V30 7415 H 695.393 3.13016 4.97287 0
M  V30 7416 H 696.917 2.43834 5.59801 0
M  V30 7417 H 698.331 4.07968 4.02784 0
M  V30 7418 H 696.728 4.77001 3.64129 0
M  V30 7419 H 697.798 4.25539 2.32475 0
M  V30 7420 N 699.141 -0.881989 1.30609 0
M  V30 7421 C 700.089 -2.00942 1.17155 0
M  V30 7422 C 701.083 -1.69198 0.0827154 0
M  V30 7423 O 702.289 -1.78342 0.243775 0
M  V30 7424 H 698.664 -0.658913 0.362406 0
M  V30 7425 H 700.635 -2.09423 2.12567 0
M  V30 7426 C 699.384 -3.36294 0.883273 0
M  V30 7427 H 698.707 -3.61233 1.7132 0
M  V30 7428 H 700.147 -4.15812 0.829255 0
M  V30 7429 C 698.606 -3.34348 -0.413851 0
M  V30 7430 O 699.136 -3.75216 -1.43444 0
M  V30 7431 N 697.342 -2.87459 -0.426082 0
M  V30 7432 H 696.889 -2.54397 0.40493 0
M  V30 7433 H 696.847 -2.8654 -1.29391 0
M  V30 7434 N 700.619 -1.13374 -1.09472 0
M  V30 7435 C 701.866 -0.89519 -1.81639 0
M  V30 7436 C 702.194 0.57868 -1.85692 0
M  V30 7437 O 701.449 1.44426 -1.32059 0
M  V30 7438 C 701.748 -1.42759 -3.2765 0
M  V30 7439 C 701.414 -2.91822 -3.43731 0
M  V30 7440 C 700.076 -3.32521 -3.47827 0
M  V30 7441 C 702.428 -3.87727 -3.48307 0
M  V30 7442 C 699.756 -4.6781 -3.54078 0
M  V30 7443 C 702.108 -5.22859 -3.56091 0
M  V30 7444 C 700.772 -5.63086 -3.58456 0
M  V30 7445 H 700.042 -0.327573 -0.664663 0
M  V30 7446 H 702.689 -1.4156 -1.28969 0
M  V30 7447 H 700.994 -0.827871 -3.82954 0
M  V30 7448 H 702.691 -1.2191 -3.8202 0
M  V30 7449 H 699.281 -2.5935 -3.41226 0
M  V30 7450 H 703.465 -3.57371 -3.44383 0
M  V30 7451 H 698.721 -4.98353 -3.54195 0
M  V30 7452 H 702.895 -5.96989 -3.58577 0
M  V30 7453 H 700.522 -6.67905 -3.63052 0
M  V30 7454 N 702.098 1.27442 -0.927168 0
M  V30 7455 C 703.326 1.98498 -0.583622 0
M  V30 7456 C 703.741 1.69171 0.838241 0
M  V30 7457 O 703.098 0.951969 1.55704 0
M  V30 7458 C 703.149 3.52552 -0.799341 0
M  V30 7459 O 702.87 3.80851 -2.16527 0
M  V30 7460 C 704.371 4.4086 -0.464436 0
M  V30 7461 H 701.591 0.633487 -0.221213 0
M  V30 7462 H 704.135 1.62308 -1.24404 0
M  V30 7463 H 702.29 3.86955 -0.185728 0
M  V30 7464 H 702.704 4.75441 -2.21487 0
M  V30 7465 H 704.178 5.47967 -0.666075 0
M  V30 7466 H 704.655 4.35082 0.599995 0
M  V30 7467 H 705.261 4.11977 -1.05617 0
M  V30 7468 N 703.576 0.692616 1.41565 0
M  V30 7469 C 704.506 0.0397325 2.33466 0
M  V30 7470 C 705.487 -0.770334 1.51657 0
M  V30 7471 O 706.672 -0.723903 1.80203 0
M  V30 7472 C 703.802 -0.899495 3.3545 0
M  V30 7473 C 702.756 -0.196738 4.27548 0
M  V30 7474 C 702.082 -1.25012 5.19881 0
M  V30 7475 C 703.382 0.935158 5.1386 0
M  V30 7476 H 705.076 0.807296 2.88311 0
M  V30 7477 H 702.622 0.389665 1.38628 0
M  V30 7478 H 704.575 -1.36545 3.98665 0
M  V30 7479 H 703.299 -1.69869 2.78948 0
M  V30 7480 H 701.958 0.249158 3.65752 0
M  V30 7481 H 701.606 -2.04177 4.59696 0
M  V30 7482 H 701.306 -0.784931 5.82334 0
M  V30 7483 H 702.83 -1.71665 5.85972 0
M  V30 7484 H 704.244 0.549619 5.70659 0
M  V30 7485 H 702.641 1.32726 5.85238 0
M  V30 7486 H 703.711 1.77613 4.512 0
M  V30 7487 N 705.054 -1.51416 0.437162 0
M  V30 7488 C 706.331 -1.94682 -0.189292 0
M  V30 7489 C 706.711 -1.37581 -1.60108 0
M  V30 7490 O 706.059 -0.562815 -2.2146 0
M  V30 7491 C 706.269 -3.48599 -0.167201 0
M  V30 7492 C 707.617 -4.2296 -0.372856 0
M  V30 7493 O 708.641 -3.55354 -0.245323 0
M  V30 7494 O 707.5 -5.42895 -0.626693 0
M  V30 7495 H 704.594 -0.816708 -0.130063 0
M  V30 7496 H 707.14 -1.62316 0.495128 0
M  V30 7497 H 705.912 -3.82616 0.81981 0
M  V30 7498 H 705.535 -3.87406 -0.894537 0
M  V30 7499 N 706.532 -0.168513 -1.56696 0
M  V30 7500 C 707.462 0.758563 -2.20835 0
M  V30 7501 C 708.443 1.24121 -1.1631 0
M  V30 7502 O 709.628 1.29487 -1.4473 0
M  V30 7503 C 706.758 1.9892 -2.8469 0
M  V30 7504 C 705.712 1.64252 -3.95228 0
M  V30 7505 C 705.038 2.94757 -4.46119 0
M  V30 7506 C 706.338 0.872675 -5.14958 0
M  V30 7507 H 708.032 0.223953 -2.98561 0
M  V30 7508 H 705.578 0.106277 -1.43607 0
M  V30 7509 H 707.531 2.64275 -3.28233 0
M  V30 7510 H 706.255 2.5479 -2.04327 0
M  V30 7511 H 704.914 1.01266 -3.52336 0
M  V30 7512 H 704.562 3.48662 -3.62552 0
M  V30 7513 H 704.262 2.72316 -5.2069 0
M  V30 7514 H 705.786 3.61147 -4.92347 0
M  V30 7515 H 707.2 1.42875 -5.55211 0
M  V30 7516 H 705.597 0.747402 -5.95428 0
M  V30 7517 H 706.667 -0.131535 -4.84722 0
M  V30 7518 N 708.01 1.57248 0.105221 0
M  V30 7519 C 709.235 1.90143 0.828264 0
M  V30 7520 C 709.66 0.761811 1.71983 0
M  V30 7521 O 709.018 -0.287086 1.79013 0
M  V30 7522 C 709.066 3.21856 1.62608 0
M  V30 7523 O 708.17 3.08732 2.7342 0
M  V30 7524 H 707.511 0.623558 0.228192 0
M  V30 7525 H 710.041 2.0443 0.0834826 0
M  V30 7526 H 710.051 3.54916 2.01243 0
M  V30 7527 H 708.726 4.0439 0.971687 0
M  V30 7528 H 707.303 2.87167 2.37886 0
M  V30 7529 N 709.488 -0.375779 1.53054 0
M  V30 7530 C 710.904 -0.716764 1.426 0
M  V30 7531 C 711.104 -1.93651 0.556931 0
M  V30 7532 O 710.16 -2.52475 0.0354461 0
M  V30 7533 C 711.473 -0.939499 2.85646 0
M  V30 7534 C 713.021 -1.04015 2.95212 0
M  V30 7535 C 713.496 -1.29543 4.39298 0
M  V30 7536 N 714.987 -1.36335 4.42682 0
M  V30 7537 C 715.722 -1.57778 5.51266 0
M  V30 7538 N 715.218 -1.76604 6.69913 0
M  V30 7539 N 717.011 -1.60065 5.38828 0
M  V30 7540 H 709.162 0.42664 2.08071 0
M  V30 7541 H 711.425 0.128758 0.939215 0
M  V30 7542 H 711.131 -0.115189 3.51511 0
M  V30 7543 H 711.005 -1.85048 3.2869 0
M  V30 7544 H 713.392 -1.85501 2.29507 0
M  V30 7545 H 713.473 -0.106785 2.55577 0
M  V30 7546 H 713.117 -0.485611 5.05573 0
M  V30 7547 H 713.047 -2.24184 4.76497 0
M  V30 7548 H 715.538 -1.23441 3.5717 0
M  V30 7549 H 715.851 -1.9251 7.48438 0
M  V30 7550 H 714.196 -1.73802 6.72917 0
M  V30 7551 H 717.387 -1.44917 4.45103 0
M  V30 7552 H 717.56 -1.76435 6.23518 0
M  V30 7553 N 710.966 -1.44241 -0.634997 0
M  V30 7554 C 711.914 -1.51103 -1.76835 0
M  V30 7555 C 712.908 -0.383051 -1.65012 0
M  V30 7556 O 714.114 -0.557832 -1.71138 0
M  V30 7557 H 710.489 -0.474076 -0.583743 0
M  V30 7558 H 712.46 -2.46499 -1.68169 0
M  V30 7559 C 711.209 -1.4687 -3.15158 0
M  V30 7560 H 710.532 -2.32979 -3.24901 0
M  V30 7561 H 711.972 -1.55731 -3.94365 0
M  V30 7562 C 710.431 -0.188884 -3.3637 0
M  V30 7563 O 710.961 0.742487 -3.94778 0
M  V30 7564 N 709.167 -0.0932516 -2.9045 0
M  V30 7565 H 708.714 -0.852004 -2.43102 0
M  V30 7566 H 708.672 0.762308 -3.05018 0
M  V30 7567 N 712.444 0.87505 -1.31075 0
M  V30 7568 C 713.392 2.00317 -1.18219 0
M  V30 7569 C 714.386 1.69152 -0.0916872 0
M  V30 7570 O 715.592 1.7821 -0.253229 0
M  V30 7571 H 711.967 0.656981 -0.365895 0
M  V30 7572 H 713.938 2.08293 -2.13674 0
M  V30 7573 C 712.687 3.35821 -0.901095 0
M  V30 7574 H 712.01 3.6032 -1.73233 0
M  V30 7575 H 713.45 4.15366 -0.851295 0
M  V30 7576 C 711.909 3.34563 0.396114 0
M  V30 7577 O 712.439 3.75971 1.41452 0
M  V30 7578 N 710.645 2.87681 0.410832 0
M  V30 7579 H 710.192 2.54179 -0.418415 0
M  V30 7580 H 710.15 2.87223 1.27869 0
M  V30 7581 N 713.922 1.13953 1.08869 0
M  V30 7582 C 714.852 0.844824 2.17681 0
M  V30 7583 C 715.833 -0.198213 1.68941 0
M  V30 7584 O 717.018 -0.0559073 1.9412 0
M  V30 7585 C 714.148 0.316325 3.45856 0
M  V30 7586 C 713.102 1.29426 4.07962 0
M  V30 7587 C 712.428 0.625275 5.31031 0
M  V30 7588 C 713.728 2.65484 4.49795 0
M  V30 7589 H 715.422 1.75471 2.42591 0
M  V30 7590 H 712.968 0.845116 1.16592 0
M  V30 7591 H 714.921 0.0977876 4.21287 0
M  V30 7592 H 713.645 -0.628972 3.20486 0
M  V30 7593 H 712.304 1.49889 3.34558 0
M  V30 7594 H 711.952 -0.325678 5.01945 0
M  V30 7595 H 711.652 1.27777 5.73539 0
M  V30 7596 H 713.176 0.416152 6.0918 0
M  V30 7597 H 714.59 2.48957 5.16424 0
M  V30 7598 H 712.987 3.26963 5.03205 0
M  V30 7599 H 714.057 3.22717 3.61914 0
M  V30 7600 N 715.4 -1.26948 0.933913 0
M  V30 7601 C 716.646 -1.94374 0.57848 0
M  V30 7602 C 716.979 -1.73166 -0.879048 0
M  V30 7603 O 716.254 -1.06438 -1.62792 0
M  V30 7604 C 716.537 -3.4834 0.912739 0
M  V30 7605 C 716.39 -3.78866 2.42448 0
M  V30 7606 C 717.709 -4.38062 0.423003 0
M  V30 7607 H 714.828 -0.705959 0.211639 0
M  V30 7608 H 717.47 -1.49951 1.16682 0
M  V30 7609 H 715.62 -3.86309 0.412058 0
M  V30 7610 H 717.292 -3.50654 2.99733 0
M  V30 7611 H 715.535 -3.25198 2.87104 0
M  V30 7612 H 716.206 -4.86458 2.60887 0
M  V30 7613 H 718.682 -4.0728 0.852191 0
M  V30 7614 H 717.558 -5.44599 0.685776 0
M  V30 7615 H 717.819 -4.36886 -0.676994 0
M  V30 7616 N 716.879 -0.700114 -1.41195 0
M  V30 7617 C 718.107 -0.242179 -2.05478 0
M  V30 7618 C 718.522 1.11029 -1.52702 0
M  V30 7619 O 717.879 1.69473 -0.677127 0
M  V30 7620 C 717.93 -0.196271 -3.60967 0
M  V30 7621 O 717.651 -1.49532 -4.11791 0
M  V30 7622 C 719.152 0.282102 -4.42401 0
M  V30 7623 H 716.372 -0.111749 -0.661629 0
M  V30 7624 H 718.916 -0.953975 -1.80885 0
M  V30 7625 H 717.071 0.46638 -3.84582 0
M  V30 7626 H 717.485 -1.38545 -5.05871 0
M  V30 7627 H 718.959 0.263093 -5.51373 0
M  V30 7628 H 719.436 1.32174 -4.1884 0
M  V30 7629 H 720.042 -0.349712 -4.2386 0
M  V30 7630 N 718.357 1.51182 -0.445186 0
M  V30 7631 C 719.603 2.02452 0.11882 0
M  V30 7632 C 719.936 1.32824 1.41673 0
M  V30 7633 O 719.211 0.445637 1.89326 0
M  V30 7634 C 719.494 3.5859 0.329475 0
M  V30 7635 C 719.347 4.38823 -0.987638 0
M  V30 7636 C 720.666 4.26241 1.09575 0
M  V30 7637 H 717.785 0.735819 0.0417092 0
M  V30 7638 H 720.427 1.80747 -0.585718 0
M  V30 7639 H 718.577 3.77214 0.9296 0
M  V30 7640 H 720.249 4.3183 -1.62235 0
M  V30 7641 H 718.492 4.03594 -1.59041 0
M  V30 7642 H 719.163 5.46257 -0.794192 0
M  V30 7643 H 721.639 4.11934 0.587328 0
M  V30 7644 H 720.515 5.35354 1.21191 0
M  V30 7645 H 720.776 3.87635 2.12584 0
M  V30 7646 N 719.835 0.176821 1.56605 0
M  V30 7647 C 720.767 -0.782836 2.15417 0
M  V30 7648 C 721.78 -1.18982 1.11117 0
M  V30 7649 O 722.969 -1.12872 1.38283 0
M  V30 7650 C 720.069 -2.06596 2.68647 0
M  V30 7651 C 719.242 -1.82167 3.9766 0
M  V30 7652 C 718.301 -2.94751 4.35899 0
M  V30 7653 O 717.327 -2.65148 5.03672 0
M  V30 7654 N 718.529 -4.2267 3.97907 0
M  V30 7655 H 721.294 -0.280012 2.98389 0
M  V30 7656 H 718.855 -0.00577529 1.61899 0
M  V30 7657 H 720.847 -2.81018 2.91223 0
M  V30 7658 H 719.417 -2.48054 1.90232 0
M  V30 7659 H 718.637 -0.916208 3.83405 0
M  V30 7660 H 719.925 -1.6322 4.81909 0
M  V30 7661 H 719.323 -4.4958 3.43357 0
M  V30 7662 H 717.88 -4.93778 4.25472 0
M  V30 7663 N 721.313 -1.57302 -0.09688 0
M  V30 7664 C 722.724 -1.7496 -0.651595 0
M  V30 7665 C 723.075 -0.798746 -1.79205 0
M  V30 7666 O 722.2 0.0231858 -2.16388 0
M  V30 7667 C 722.795 -3.17259 -1.18878 0
M  V30 7668 C 721.354 -3.36348 -1.68958 0
M  V30 7669 C 720.501 -2.70766 -0.598413 0
M  V30 7670 H 723.452 -1.58173 0.12918 0
M  V30 7671 H 723.473 -3.20033 -2.05814 0
M  V30 7672 H 722.985 -3.8644 -0.358523 0
M  V30 7673 H 721.086 -2.72243 -2.5439 0
M  V30 7674 H 721.199 -4.44654 -1.7838 0
M  V30 7675 H 719.563 -2.32615 -1.03743 0
M  V30 7676 H 720.346 -3.42586 0.221238 0
M  V30 7677 N 722.791 0.367657 -1.53252 0
M  V30 7678 C 723.701 1.47415 -1.82499 0
M  V30 7679 C 724.717 1.58711 -0.713222 0
M  V30 7680 O 725.893 1.74644 -1.00306 0
M  V30 7681 C 722.958 2.82706 -2.00694 0
M  V30 7682 C 722.019 2.80955 -3.24596 0
M  V30 7683 C 721.252 4.09793 -3.41914 0
M  V30 7684 O 721.475 5.05852 -2.63572 0
M  V30 7685 O 720.409 4.15731 -4.3526 0
M  V30 7686 H 724.235 1.25624 -2.765 0
M  V30 7687 H 721.82 0.557559 -1.38606 0
M  V30 7688 H 723.702 3.62873 -2.14246 0
M  V30 7689 H 722.377 3.04479 -1.09883 0
M  V30 7690 H 721.284 1.99494 -3.16469 0
M  V30 7691 H 722.617 2.64136 -4.15323 0
M  V30 7692 N 724.269 1.44576 0.627338 0
M  V30 7693 C 725.202 1.46206 1.75212 0
M  V30 7694 C 726.18 0.320483 1.5941 0
M  V30 7695 O 727.364 0.518028 1.81242 0
M  V30 7696 C 724.491 1.29834 3.12827 0
M  V30 7697 C 723.537 2.47603 3.47268 0
M  V30 7698 S 724.37 4.10125 3.44322 0
M  V30 7699 C 725.526 3.96183 4.84551 0
M  V30 7700 H 725.759 2.41378 1.73563 0
M  V30 7701 H 723.292 1.3192 0.802283 0
M  V30 7702 H 725.25 1.21075 3.92239 0
M  V30 7703 H 723.911 0.361662 3.12011 0
M  V30 7704 H 723.104 2.3202 4.47418 0
M  V30 7705 H 722.706 2.53121 2.75329 0
M  V30 7706 H 724.998 3.60107 5.73872 0
M  V30 7707 H 725.941 4.96176 5.05188 0
M  V30 7708 H 726.349 3.28177 4.59304 0
M  V30 7709 N 725.747 -0.868086 1.31537 0
M  V30 7710 C 726.994 -1.62127 1.2133 0
M  V30 7711 C 727.322 -1.93158 -0.2281 0
M  V30 7712 O 726.577 -1.5632 -1.1774 0
M  V30 7713 C 726.876 -2.95889 2.0046 0
M  V30 7714 C 726.542 -2.84343 3.49943 0
M  V30 7715 C 725.204 -2.80901 3.90702 0
M  V30 7716 C 727.556 -2.71243 4.45058 0
M  V30 7717 C 724.884 -2.6222 5.24841 0
M  V30 7718 C 727.236 -2.54098 5.79325 0
M  V30 7719 C 725.9 -2.4904 6.19302 0
M  V30 7720 H 725.17 -0.593265 0.443979 0
M  V30 7721 H 727.817 -1.00803 1.62822 0
M  V30 7722 H 726.122 -3.61259 1.51655 0
M  V30 7723 H 727.819 -3.53161 1.89942 0
M  V30 7724 H 724.409 -2.8784 3.17563 0
M  V30 7725 H 728.593 -2.72956 4.14498 0
M  V30 7726 H 723.849 -2.56731 5.54887 0
M  V30 7727 H 728.023 -2.42938 6.52652 0
M  V30 7728 H 725.65 -2.34324 7.23185 0
M  V30 7729 N 727.225 -1.14528 -1.08264 0
M  V30 7730 C 728.188 -0.83632 -2.13397 0
M  V30 7731 C 729.188 0.159715 -1.60005 0
M  V30 7732 O 730.378 -0.0688098 -1.74064 0
M  V30 7733 C 727.51 -0.246973 -3.40004 0
M  V30 7734 H 728.703 -1.76808 -2.42237 0
M  V30 7735 H 726.256 -0.951509 -1.24 0
M  V30 7736 H 726.991 0.693436 -3.168 0
M  V30 7737 H 726.776 -0.964412 -3.80055 0
M  V30 7738 H 728.266 -0.0480679 -4.17572 0
M  V30 7739 N 728.703 1.26451 -0.940633 0
M  V30 7740 C 729.635 2.25556 -0.407104 0
M  V30 7741 C 730.648 1.55888 0.469324 0
M  V30 7742 O 731.837 1.76292 0.279858 0
M  V30 7743 C 728.937 3.36109 0.434064 0
M  V30 7744 C 728.11 4.3532 -0.426082 0
M  V30 7745 C 727.169 5.25004 0.354563 0
M  V30 7746 O 726.195 5.68684 -0.242219 0
M  V30 7747 N 727.397 5.5652 1.65123 0
M  V30 7748 H 730.162 2.7197 -1.25907 0
M  V30 7749 H 727.723 1.40212 -0.809456 0
M  V30 7750 H 729.715 3.93059 0.963684 0
M  V30 7751 H 728.285 2.89194 1.18683 0
M  V30 7752 H 727.505 3.77449 -1.13692 0
M  V30 7753 H 728.793 4.986 -1.01366 0
M  V30 7754 H 728.191 5.22912 2.15822 0
M  V30 7755 H 726.748 6.16115 2.12711 0
M  V30 7756 N 730.181 0.707592 1.40822 0
M  V30 7757 C 731.111 0.0644925 2.33411 0
M  V30 7758 C 732.092 -0.754205 1.52466 0
M  V30 7759 O 733.277 -0.704749 1.80961 0
M  V30 7760 C 730.407 -0.863865 3.36385 0
M  V30 7761 C 729.361 -0.15138 4.27732 0
M  V30 7762 C 728.687 -1.19491 5.21177 0
M  V30 7763 C 729.987 0.989607 5.12839 0
M  V30 7764 H 731.681 0.837829 2.87438 0
M  V30 7765 H 729.227 0.404346 1.38207 0
M  V30 7766 H 731.18 -1.32309 4.0009 0
M  V30 7767 H 729.904 -1.66901 2.80734 0
M  V30 7768 H 728.563 0.287937 3.65467 0
M  V30 7769 H 728.211 -1.9929 4.61836 0
M  V30 7770 H 727.911 -0.723123 5.83134 0
M  V30 7771 H 729.435 -1.6544 5.8776 0
M  V30 7772 H 730.849 0.610114 5.70044 0
M  V30 7773 H 729.246 1.38926 5.83798 0
M  V30 7774 H 730.316 1.82389 4.49291 0
M  V30 7775 N 731.66 -1.50943 0.453197 0
M  V30 7776 C 732.885 -2.07116 -0.108463 0
M  V30 7777 C 733.31 -1.31681 -1.3432 0
M  V30 7778 O 732.668 -0.359256 -1.77705 0
M  V30 7779 C 732.716 -3.58447 -0.393424 0
M  V30 7780 O 731.82 -3.85038 -1.47714 0
M  V30 7781 H 731.161 -0.66398 0.0050993 0
M  V30 7782 H 733.691 -1.94362 0.639095 0
M  V30 7783 H 733.701 -4.02961 -0.639222 0
M  V30 7784 H 732.376 -4.12774 0.508946 0
M  V30 7785 H 730.953 -3.52376 -1.22006 0
M  V30 7786 N 733.138 -0.185124 -1.56509 0
M  V30 7787 C 734.088 0.752315 -2.15231 0
M  V30 7788 C 735.072 1.18327 -1.0903 0
M  V30 7789 O 736.264 1.14333 -1.35119 0
M  V30 7790 C 733.393 1.97583 -2.80742 0
M  V30 7791 C 732.479 1.56623 -3.94119 0
M  V30 7792 N 732.87 0.867008 -4.98314 0
M  V30 7793 C 731.168 1.85626 -4.05535 0
M  V30 7794 C 731.869 0.663228 -5.77907 0
M  V30 7795 N 730.845 1.20891 -5.29987 0
M  V30 7796 H 734.647 0.209267 -2.93154 0
M  V30 7797 H 732.161 0.0150444 -1.62393 0
M  V30 7798 H 734.158 2.65779 -3.21197 0
M  V30 7799 H 732.818 2.52369 -2.04303 0
M  V30 7800 H 733.829 0.52355 -5.15247 0
M  V30 7801 H 730.506 2.41992 -3.40215 0
M  V30 7802 H 731.896 0.109273 -6.71811 0
M  V30 7803 N 734.616 1.57351 0.0885366 0
M  V30 7804 C 735.546 2.05561 1.10757 0
M  V30 7805 C 736.527 0.945789 1.41382 0
M  V30 7806 O 737.712 1.21747 1.51299 0
M  V30 7807 C 734.842 2.48554 2.42566 0
M  V30 7808 C 733.796 3.63259 2.26334 0
M  V30 7809 C 733.122 3.9225 3.63378 0
M  V30 7810 C 734.422 4.93913 1.69844 0
M  V30 7811 H 736.116 2.90946 0.706468 0
M  V30 7812 H 733.662 1.39968 0.338385 0
M  V30 7813 H 735.615 2.8089 3.14132 0
M  V30 7814 H 734.339 1.60176 2.84625 0
M  V30 7815 H 732.998 3.31179 1.57213 0
M  V30 7816 H 732.646 3.0103 4.02976 0
M  V30 7817 H 732.346 4.69478 3.53362 0
M  V30 7818 H 733.87 4.27067 4.36401 0
M  V30 7819 H 735.284 5.24588 2.31258 0
M  V30 7820 H 733.681 5.75349 1.70569 0
M  V30 7821 H 734.751 4.80409 0.65843 0
M  V30 7822 N 736.094 -0.359525 1.53444 0
M  V30 7823 C 737.026 -1.46098 1.76602 0
M  V30 7824 C 738.039 -1.49395 0.646912 0
M  V30 7825 O 739.228 -1.52765 0.923307 0
M  V30 7826 C 736.328 -2.84836 1.83635 0
M  V30 7827 C 735.501 -3.05164 3.13358 0
M  V30 7828 C 734.56 -4.24051 3.11556 0
M  V30 7829 O 733.586 -4.18935 3.85334 0
M  V30 7830 N 734.788 -5.31775 2.328 0
M  V30 7831 H 737.553 -1.2661 2.71643 0
M  V30 7832 H 735.114 -0.549294 1.52297 0
M  V30 7833 H 737.106 -3.62516 1.799 0
M  V30 7834 H 735.676 -2.97542 0.958509 0
M  V30 7835 H 734.896 -2.15091 3.30348 0
M  V30 7836 H 736.184 -3.15619 3.99076 0
M  V30 7837 H 735.582 -5.38796 1.7238 0
M  V30 7838 H 734.139 -6.0801 2.34877 0
M  V30 7839 N 737.572 -1.44907 -0.619662 0
M  V30 7840 C 738.812 -1.49822 -1.39042 0
M  V30 7841 C 739.176 -0.131803 -1.91547 0
M  V30 7842 O 740.377 -0.0556413 -2.68742 0
M  V30 7843 C 738.648 -2.53805 -2.5163 0
M  V30 7844 S 740.207 -2.77855 -3.3962 0
M  V30 7845 H 737.025 -0.529774 -0.474195 0
M  V30 7846 H 739.627 -1.81907 -0.716236 0
M  V30 7847 H 738.331 -3.51772 -2.11387 0
M  V30 7848 H 737.862 -2.23331 -3.23863 0
M  V30 7849 H 739.877 -2.10319 -4.49422 0
M  V30 7850 N 739.05 0.861098 -1.31996 0
M  V30 7851 C 739.98 1.98482 -1.22993 0
M  V30 7852 C 740.961 1.6971 -0.115168 0
M  V30 7853 O 742.146 1.91849 -0.30126 0
M  V30 7854 C 739.276 3.34179 -0.945615 0
M  V30 7855 C 738.23 3.77284 -2.02091 0
M  V30 7856 C 737.556 5.1054 -1.58912 0
M  V30 7857 C 738.856 3.93439 -3.43515 0
M  V30 7858 H 740.55 2.06271 -2.17008 0
M  V30 7859 H 738.096 0.991043 -1.04472 0
M  V30 7860 H 740.049 4.12338 -0.869206 0
M  V30 7861 H 738.773 3.26586 0.0301849 0
M  V30 7862 H 737.432 3.01371 -2.08737 0
M  V30 7863 H 737.08 4.99397 -0.600942 0
M  V30 7864 H 736.78 5.40352 -2.30854 0
M  V30 7865 H 738.304 5.91199 -1.52696 0
M  V30 7866 H 739.718 4.6197 -3.39495 0
M  V30 7867 H 738.115 4.34661 -4.13751 0
M  V30 7868 H 739.185 2.96548 -3.8365 0
M  V30 7869 N 740.528 1.15101 1.07655 0
M  V30 7870 C 741.944 0.893004 1.32279 0
M  V30 7871 C 742.144 -0.461701 1.96139 0
M  V30 7872 O 741.2 -1.20431 2.21929 0
M  V30 7873 C 742.513 2.03161 2.21689 0
M  V30 7874 C 744.061 2.06579 2.35147 0
M  V30 7875 C 744.536 3.19754 3.27905 0
M  V30 7876 N 746.027 3.19382 3.35484 0
M  V30 7877 C 746.762 4.03592 4.07309 0
M  V30 7878 N 746.258 4.97859 4.81776 0
M  V30 7879 N 748.051 3.91626 4.03219 0
M  V30 7880 H 740.202 2.02341 0.645886 0
M  V30 7881 H 742.465 0.882127 0.347211 0
M  V30 7882 H 742.171 3.00934 1.82021 0
M  V30 7883 H 742.045 1.96132 3.22199 0
M  V30 7884 H 744.432 1.09408 2.74069 0
M  V30 7885 H 744.513 2.17676 1.34353 0
M  V30 7886 H 744.157 4.17175 2.89702 0
M  V30 7887 H 744.087 3.05893 4.28645 0
M  V30 7888 H 746.578 2.51112 2.82403 0
M  V30 7889 H 746.891 5.58563 5.34067 0
M  V30 7890 H 745.236 5.0185 4.80803 0
M  V30 7891 H 748.427 3.17295 3.44154 0
M  V30 7892 H 748.6 4.57479 4.5893 0
M  V30 7893 N 742.006 -1.2595 0.947325 0
M  V30 7894 C 742.936 -2.28521 0.479604 0
M  V30 7895 C 743.917 -1.63469 -0.470293 0
M  V30 7896 O 745.102 -1.90627 -0.370824 0
M  V30 7897 C 742.232 -3.46397 -0.250289 0
M  V30 7898 C 741.186 -4.23578 0.613643 0
M  V30 7899 C 740.512 -5.34131 -0.246568 0
M  V30 7900 C 741.812 -4.86979 1.88809 0
M  V30 7901 H 743.506 -2.67895 1.33688 0
M  V30 7902 H 741.052 -1.28783 0.644274 0
M  V30 7903 H 743.005 -4.17269 -0.588576 0
M  V30 7904 H 741.729 -3.05993 -1.14175 0
M  V30 7905 H 740.388 -3.54478 0.93491 0
M  V30 7906 H 740.036 -4.89968 -1.13756 0
M  V30 7907 H 739.736 -5.86683 0.328123 0
M  V30 7908 H 741.26 -6.07839 -0.579986 0
M  V30 7909 H 742.674 -5.50034 1.61666 0
M  V30 7910 H 741.071 -5.49675 2.40784 0
M  V30 7911 H 742.141 -4.09575 2.5957 0
M  V30 7912 N 743.484 -0.715051 -1.40445 0
M  V30 7913 C 744.709 -0.26254 -2.05732 0
M  V30 7914 C 745.134 1.08691 -1.53519 0
M  V30 7915 O 744.492 1.68453 -0.670328 0
M  V30 7916 C 744.54 -0.25195 -3.59719 0
M  V30 7917 O 743.644 0.766998 -4.05205 0
M  V30 7918 H 742.985 -0.123398 -0.652433 0
M  V30 7919 H 745.515 -0.975382 -1.79854 0
M  V30 7920 H 745.525 -0.0894537 -4.07902 0
M  V30 7921 H 744.2 -1.23672 -3.97087 0
M  V30 7922 H 742.777 0.572269 -3.68483 0
M  V30 7923 N 744.962 1.50701 -0.461195 0
M  V30 7924 C 745.912 2.25195 0.35653 0
M  V30 7925 C 746.896 1.2838 0.96992 0
M  V30 7926 O 748.088 1.53338 0.884108 0
M  V30 7927 C 745.217 3.11471 1.44364 0
M  V30 7928 C 744.303 4.15729 0.83847 0
M  V30 7929 N 744.694 5.05788 -0.0353198 0
M  V30 7930 C 742.992 4.32133 1.1035 0
M  V30 7931 C 743.693 5.80472 -0.37774 0
M  V30 7932 N 742.669 5.43049 0.24463 0
M  V30 7933 H 746.471 2.92188 -0.316746 0
M  V30 7934 H 743.985 1.60059 -0.274725 0
M  V30 7935 H 745.982 3.63436 2.04255 0
M  V30 7936 H 744.642 2.46025 2.11901 0
M  V30 7937 H 745.653 5.16326 -0.403465 0
M  V30 7938 H 742.33 3.77908 1.77458 0
M  V30 7939 H 743.72 6.62996 -1.09024 0
M  V30 7940 N 746.441 0.193421 1.56409 0
M  V30 7941 C 747.389 -0.744829 2.20352 0
M  V30 7942 C 748.383 -1.22104 1.17418 0
M  V30 7943 O 749.589 -1.18413 1.35567 0
M  V30 7944 H 745.964 -0.258538 0.70616 0
M  V30 7945 H 747.935 -0.181794 2.97846 0
M  V30 7946 C 746.684 -1.95453 2.87565 0
M  V30 7947 H 746.007 -1.59716 3.66512 0
M  V30 7948 H 747.447 -2.58942 3.35745 0
M  V30 7949 C 745.906 -2.79223 1.8851 0
M  V30 7950 O 746.436 -3.77093 1.38434 0
M  V30 7951 N 744.642 -2.44682 1.56777 0
M  V30 7952 H 744.189 -1.65153 1.97692 0
M  V30 7953 H 744.147 -3.01016 0.907573 0
M  V30 7954 N 747.919 -1.57396 -0.0801906 0
M  V30 7955 C 749.159 -1.88668 -0.786367 0
M  V30 7956 C 749.523 -0.786216 -1.75165 0
M  V30 7957 O 750.724 -0.981769 -2.50229 0
M  V30 7958 C 748.995 -3.25176 -1.48308 0
M  V30 7959 S 750.554 -3.78177 -2.22549 0
M  V30 7960 H 747.372 -0.661094 -0.261679 0
M  V30 7961 H 749.974 -1.95453 -0.0428196 0
M  V30 7962 H 748.678 -4.03176 -0.766629 0
M  V30 7963 H 748.209 -3.21567 -2.26623 0
M  V30 7964 H 750.224 -3.52789 -3.48934 0
M  V30 7965 N 749.397 0.351382 -1.53633 0
M  V30 7966 C 750.646 1.08988 -1.69719 0
M  V30 7967 C 750.959 1.90043 -0.462948 0
M  V30 7968 O 752.165 2.66769 -0.504613 0
M  V30 7969 C 750.621 1.98691 -3.00083 0
M  V30 7970 C 750.229 1.22881 -4.30818 0
M  V30 7971 C 751.973 2.72446 -3.25536 0
M  V30 7972 C 749.88 2.11568 -5.52262 0
M  V30 7973 H 748.81 0.410588 -0.632403 0
M  V30 7974 H 751.461 0.349886 -1.80133 0
M  V30 7975 H 749.843 2.76478 -2.83506 0
M  V30 7976 H 751.017 0.500582 -4.58073 0
M  V30 7977 H 749.332 0.60928 -4.11918 0
M  V30 7978 H 751.929 3.39055 -4.13456 0
M  V30 7979 H 752.272 3.38588 -2.42206 0
M  V30 7980 H 752.805 2.01735 -3.42852 0
M  V30 7981 H 749.544 1.4998 -6.38111 0
M  V30 7982 H 749.064 2.82201 -5.29266 0
M  V30 7983 H 750.743 2.70802 -5.87601 0
M  V30 7984 N 750.875 1.45233 0.611969 0
M  V30 7985 C 752.1 1.52767 1.40274 0
M  V30 7986 C 752.525 0.159701 1.87421 0
M  V30 7987 O 751.883 -0.854837 1.59882 0
M  V30 7988 C 751.931 2.51286 2.58626 0
M  V30 7989 O 751.035 2.02764 3.59111 0
M  V30 7990 H 750.376 0.515141 0.418958 0
M  V30 7991 H 752.906 1.90547 0.745188 0
M  V30 7992 H 752.916 2.69949 3.05927 0
M  V30 7993 H 751.591 3.50641 2.23659 0
M  V30 7994 H 750.168 1.93957 3.18489 0
M  V30 7995 N 752.353 -0.854086 1.3245 0
M  V30 7996 C 753.285 -1.96932 1.17262 0
M  V30 7997 C 754.298 -1.62445 0.107469 0
M  V30 7998 O 755.487 -1.74904 0.356481 0
M  V30 7999 C 752.587 -3.29971 0.772817 0
M  V30 8000 C 751.76 -3.92695 1.92638 0
M  V30 8001 C 750.819 -5.04068 1.51003 0
M  V30 8002 O 749.845 -5.24032 2.22213 0
M  V30 8003 N 751.047 -5.79076 0.406371 0
M  V30 8004 H 753.812 -2.10503 2.13327 0
M  V30 8005 H 751.373 -1.02897 1.24995 0
M  V30 8006 H 753.365 -4.01883 0.476684 0
M  V30 8007 H 751.935 -3.1245 -0.0967 0
M  V30 8008 H 751.155 -3.13563 2.38897 0
M  V30 8009 H 752.443 -4.31337 2.69863 0
M  V30 8010 H 751.841 -5.65393 -0.186302 0
M  V30 8011 H 750.398 -6.51579 0.169846 0
M  V30 8012 N 753.831 -1.1567 -1.07043 0
M  V30 8013 C 754.794 -0.858906 -2.12498 0
M  V30 8014 C 755.794 0.142735 -1.60165 0
M  V30 8015 O 756.984 -0.0872678 -1.73981 0
M  V30 8016 C 754.116 -0.283021 -3.39723 0
M  V30 8017 H 755.309 -1.79368 -2.40348 0
M  V30 8018 H 752.862 -0.964608 -1.22984 0
M  V30 8019 H 753.597 0.659796 -3.17517 0
M  V30 8020 H 753.382 -1.00467 -3.7901 0
M  V30 8021 H 754.872 -0.0923543 -4.17498 0
M  V30 8022 N 755.309 1.25446 -0.953992 0
M  V30 8023 C 756.555 1.9343 -0.60933 0
M  V30 8024 C 756.888 1.74542 0.851388 0
M  V30 8025 O 756.163 1.09014 1.61078 0
M  V30 8026 C 756.446 3.46844 -0.968041 0
M  V30 8027 C 756.299 3.74961 -2.48444 0
M  V30 8028 C 757.618 4.37334 -0.492641 0
M  V30 8029 H 754.737 0.702502 -0.222844 0
M  V30 8030 H 757.379 1.48076 -1.19053 0
M  V30 8031 H 755.529 3.85604 -0.473465 0
M  V30 8032 H 757.201 3.45841 -3.05273 0
M  V30 8033 H 755.444 3.20589 -2.92241 0
M  V30 8034 H 756.115 4.82246 -2.68594 0
M  V30 8035 H 758.591 4.05873 -0.916878 0
M  V30 8036 H 757.467 5.43439 -0.772331 0
M  V30 8037 H 757.728 4.37908 0.607403 0
M  V30 8038 N 756.787 0.722489 1.40064 0
M  V30 8039 C 757.735 0.063329 2.32514 0
M  V30 8040 C 758.729 -0.73953 1.52405 0
M  V30 8041 O 759.935 -0.642122 1.68157 0
M  V30 8042 H 756.31 0.00167692 0.751998 0
M  V30 8043 H 758.281 0.859656 2.85749 0
M  V30 8044 C 757.03 -0.839219 3.3742 0
M  V30 8045 H 756.353 -0.230836 3.99133 0
M  V30 8046 H 757.793 -1.26827 4.04587 0
M  V30 8047 C 756.252 -1.96783 2.73456 0
M  V30 8048 O 756.782 -3.05933 2.60323 0
M  V30 8049 N 754.988 -1.75351 2.31734 0
M  V30 8050 H 754.535 -0.865787 2.42615 0
M  V30 8051 H 754.493 -2.51043 1.89275 0
M  V30 8052 N 758.265 -1.50454 0.469181 0
M  V30 8053 C 759.513 -2.01916 -0.0862982 0
M  V30 8054 C 759.834 -1.35337 -1.40388 0
M  V30 8055 O 759.104 -0.498096 -1.89462 0
M  V30 8056 H 757.684 -0.746185 -0.0348825 0
M  V30 8057 H 760.346 -1.84804 0.619167 0
M  V30 8058 H 759.442 -3.11182 -0.239189 0
M  V30 8059 N 759.743 -0.201713 -1.56304 0
M  V30 8060 C 760.968 0.443815 -2.02596 0
M  V30 8061 C 761.393 1.53945 -1.08086 0
M  V30 8062 O 760.751 1.81182 -0.0655056 0
M  V30 8063 C 760.799 0.971066 -3.47279 0
M  V30 8064 O 759.903 2.0836 -3.55893 0
M  V30 8065 H 759.244 0.10294 -0.655972 0
M  V30 8066 H 761.774 -0.314533 -2.02168 0
M  V30 8067 H 761.784 1.28598 -3.87204 0
M  V30 8068 H 760.459 0.169048 -4.15556 0
M  V30 8069 H 759.036 1.77683 -3.27846 0
M  V30 8070 N 761.222 1.57436 0.0718424 0
M  V30 8071 C 762.154 2.00412 1.1121 0
M  V30 8072 C 763.167 0.910074 1.34987 0
M  V30 8073 O 764.356 1.18796 1.33228 0
M  V30 8074 C 761.456 2.32786 2.46301 0
M  V30 8075 C 760.629 3.64036 2.4248 0
M  V30 8076 C 759.688 3.8408 3.59679 0
M  V30 8077 O 758.714 4.55667 3.4111 0
M  V30 8078 N 759.916 3.2643 4.80025 0
M  V30 8079 H 762.681 2.90264 0.746118 0
M  V30 8080 H 760.242 1.59791 0.260495 0
M  V30 8081 H 762.234 2.43368 3.23348 0
M  V30 8082 H 760.804 1.48824 2.74901 0
M  V30 8083 H 760.024 3.64208 1.50818 0
M  V30 8084 H 761.312 4.50217 2.37027 0
M  V30 8085 H 760.71 2.68325 4.98014 0
M  V30 8086 H 759.267 3.42461 5.54584 0
M  V30 8087 N 762.7 -0.34323 1.53817 0
M  V30 8088 C 763.947 -1.08344 1.71079 0
M  V30 8089 C 764.275 -1.88633 0.474133 0
M  V30 8090 O 763.53 -1.87984 -0.544116 0
M  V30 8091 C 763.829 -2.05195 2.92626 0
M  V30 8092 C 763.495 -1.41215 4.28216 0
M  V30 8093 C 762.157 -1.23495 4.65083 0
M  V30 8094 C 764.509 -0.951273 5.12445 0
M  V30 8095 C 761.837 -0.583065 5.83796 0
M  V30 8096 C 764.189 -0.313292 6.31824 0
M  V30 8097 C 762.853 -0.123779 6.67385 0
M  V30 8098 H 762.123 -0.396458 0.626021 0
M  V30 8099 H 764.77 -0.362689 1.88034 0
M  V30 8100 H 763.075 -2.83653 2.70275 0
M  V30 8101 H 764.772 -2.62462 3.03175 0
M  V30 8102 H 761.362 -1.56005 3.992 0
M  V30 8103 H 765.546 -1.07602 4.84495 0
M  V30 8104 H 760.802 -0.424854 6.09922 0
M  V30 8105 H 764.976 0.0519179 6.96381 0
M  V30 8106 H 762.603 0.383398 7.59233 0
M  V30 8107 N 764.178 -1.45556 -0.604258 0
M  V30 8108 C 765.108 -1.57327 -1.72541 0
M  V30 8109 C 766.089 -0.424637 -1.64714 0
M  V30 8110 O 767.274 -0.648196 -1.83063 0
M  V30 8111 C 764.404 -1.54279 -3.11152 0
M  V30 8112 C 763.358 -2.67893 -3.33792 0
M  V30 8113 C 762.684 -2.499 -4.72709 0
M  V30 8114 C 763.984 -4.0988 -3.23722 0
M  V30 8115 H 765.678 -2.51175 -1.62947 0
M  V30 8116 H 763.224 -1.20884 -0.782504 0
M  V30 8117 H 765.177 -1.6111 -3.89386 0
M  V30 8118 H 763.901 -0.569627 -3.21594 0
M  V30 8119 H 762.56 -2.60495 -2.57949 0
M  V30 8120 H 762.208 -1.50715 -4.79889 0
M  V30 8121 H 761.908 -3.26091 -4.88813 0
M  V30 8122 H 763.432 -2.5859 -5.5314 0
M  V30 8123 H 764.846 -4.18503 -3.91826 0
M  V30 8124 H 763.243 -4.86487 -3.51355 0
M  V30 8125 H 764.313 -4.31553 -2.21111 0
M  V30 8126 N 765.656 0.84705 -1.32902 0
M  V30 8127 C 767.067 1.41785 -1.21466 0
M  V30 8128 C 767.418 1.95464 0.169767 0
M  V30 8129 O 766.543 1.88157 1.06892 0
M  V30 8130 C 767.138 2.57734 -2.19906 0
M  V30 8131 C 765.697 3.10791 -2.12334 0
M  V30 8132 C 764.844 1.83562 -2.07847 0
M  V30 8133 H 767.795 0.653532 -1.44619 0
M  V30 8134 H 767.816 3.35123 -1.80202 0
M  V30 8135 H 767.328 2.18635 -3.20656 0
M  V30 8136 H 765.429 3.54455 -1.14858 0
M  V30 8137 H 765.542 3.71519 -3.02506 0
M  V30 8138 H 763.906 2.03475 -1.53199 0
M  V30 8139 H 764.689 1.4667 -3.10392 0
M  V30 8140 N 767.134 1.16236 1.06428 0
M  V30 8141 C 768.064 0.890807 2.1584 0
M  V30 8142 C 769.045 -0.162333 1.69324 0
M  V30 8143 O 770.23 -0.0147191 1.94194 0
M  V30 8144 C 767.36 0.389615 3.45108 0
M  V30 8145 C 766.314 1.38051 4.05125 0
M  V30 8146 C 765.64 0.737773 5.29586 0
M  V30 8147 C 766.94 2.74965 4.44062 0
M  V30 8148 H 768.634 1.80577 2.38814 0
M  V30 8149 H 766.18 0.869657 1.14774 0
M  V30 8150 H 768.133 0.187127 4.20984 0
M  V30 8151 H 766.857 -0.560851 3.21748 0
M  V30 8152 H 765.516 1.56952 3.31303 0
M  V30 8153 H 765.164 -0.219135 5.02522 0
M  V30 8154 H 764.864 1.39914 5.70699 0
M  V30 8155 H 766.388 0.545275 6.0816 0
M  V30 8156 H 767.802 2.59855 5.11027 0
M  V30 8157 H 766.199 3.37563 4.96156 0
M  V30 8158 H 767.269 3.30321 3.54987 0
M  V30 8159 N 768.612 -1.24939 0.960631 0
M  V30 8160 C 769.84 -1.96881 0.636045 0
M  V30 8161 C 770.255 -1.71334 -0.793093 0
M  V30 8162 O 769.612 -0.992917 -1.53125 0
M  V30 8163 C 769.663 -3.50309 0.892533 0
M  V30 8164 O 769.384 -3.74977 2.26548 0
M  V30 8165 C 770.885 -4.39474 0.581159 0
M  V30 8166 H 768.105 -0.627399 0.237931 0
M  V30 8167 H 770.649 -1.58952 1.28664 0
M  V30 8168 H 768.804 -3.86326 0.288257 0
M  V30 8169 H 769.218 -4.69401 2.34014 0
M  V30 8170 H 770.692 -5.46008 0.811125 0
M  V30 8171 H 771.169 -4.3652 -0.48443 0
M  V30 8172 H 771.775 -4.09032 1.16502 0
M  V30 8173 N 770.09 -0.729906 -1.39679 0
M  V30 8174 C 771.338 -0.275077 -2.00219 0
M  V30 8175 C 771.659 1.1401 -1.58199 0
M  V30 8176 O 770.929 1.77546 -0.827904 0
M  V30 8177 H 769.509 -0.0987127 -0.740449 0
M  V30 8178 H 772.171 -0.93873 -1.70804 0
M  V30 8179 H 771.267 -0.319446 -3.10461 0
M  V30 8180 N 771.568 1.50203 -0.477153 0
M  V30 8181 C 772.498 2.31517 0.303646 0
M  V30 8182 C 773.479 1.38696 0.984753 0
M  V30 8183 O 774.664 1.67615 0.980758 0
M  V30 8184 C 771.794 3.18598 1.38249 0
M  V30 8185 C 770.748 4.2002 0.822645 0
M  V30 8186 C 770.074 4.95878 2.00024 0
M  V30 8187 C 771.374 5.22023 -0.170185 0
M  V30 8188 H 773.068 2.97042 -0.375027 0
M  V30 8189 H 770.614 1.42848 -0.181802 0
M  V30 8190 H 772.567 3.74282 1.93625 0
M  V30 8191 H 771.291 2.5097 2.09002 0
M  V30 8192 H 769.95 3.65445 0.290813 0
M  V30 8193 H 769.598 4.24717 2.69489 0
M  V30 8194 H 769.298 5.64487 1.63183 0
M  V30 8195 H 770.822 5.54399 2.55878 0
M  V30 8196 H 772.236 5.72543 0.294606 0
M  V30 8197 H 770.633 5.98386 -0.453181 0
M  V30 8198 H 771.703 4.72396 -1.09408 0
M  V30 8199 N 773.046 0.209999 1.56195 0
M  V30 8200 C 773.978 -0.736967 2.17029 0
M  V30 8201 C 774.991 -1.16599 1.13616 0
M  V30 8202 O 776.18 -1.09914 1.40646 0
M  V30 8203 C 773.28 -2.00852 2.72969 0
M  V30 8204 C 772.453 -1.73691 4.01435 0
M  V30 8205 C 771.512 -2.85439 4.42053 0
M  V30 8206 O 770.538 -2.54405 5.09183 0
M  V30 8207 N 771.74 -4.14135 4.06783 0
M  V30 8208 H 774.505 -0.216656 2.98916 0
M  V30 8209 H 772.066 0.0285672 1.61875 0
M  V30 8210 H 774.058 -2.74778 2.97118 0
M  V30 8211 H 772.628 -2.43963 1.95451 0
M  V30 8212 H 771.848 -0.834676 3.85262 0
M  V30 8213 H 773.136 -1.52961 4.85263 0
M  V30 8214 H 772.534 -4.42196 3.52816 0
M  V30 8215 H 771.091 -4.84642 4.35851 0
M  V30 8216 N 774.524 -1.57472 -0.0634922 0
M  V30 8217 C 775.77 -1.87932 -0.762194 0
M  V30 8218 C 776.103 -0.803377 -1.76804 0
M  V30 8219 O 775.378 0.185468 -1.93614 0
M  V30 8220 C 775.661 -3.29053 -1.46275 0
M  V30 8221 C 775.514 -4.47309 -0.472755 0
M  V30 8222 C 776.833 -3.68537 -2.40558 0
M  V30 8223 H 773.952 -0.683521 -0.275624 0
M  V30 8224 H 776.594 -1.89983 -0.0252651 0
M  V30 8225 H 774.744 -3.27435 -2.0909 0
M  V30 8226 H 776.416 -4.61053 0.150828 0
M  V30 8227 H 774.659 -4.33286 0.211187 0
M  V30 8228 H 775.33 -5.42853 -1.00072 0
M  V30 8229 H 777.806 -3.71302 -1.87814 0
M  V30 8230 H 776.682 -4.68152 -2.86574 0
M  V30 8231 H 776.943 -2.98917 -3.25731 0
M  V30 8232 N 776.003 0.335068 -1.53997 0
M  V30 8233 C 776.933 1.41727 -1.85568 0
M  V30 8234 C 777.914 1.54505 -0.7115 0
M  V30 8235 O 779.099 1.68573 -0.964191 0
M  V30 8236 C 776.229 2.7866 -2.07282 0
M  V30 8237 C 775.183 2.80682 -3.23112 0
M  V30 8238 C 774.509 4.20581 -3.30175 0
M  V30 8239 C 775.809 2.45458 -4.61029 0
M  V30 8240 H 777.503 1.15555 -2.76202 0
M  V30 8241 H 775.049 0.554445 -1.32898 0
M  V30 8242 H 777.002 3.54423 -2.27952 0
M  V30 8243 H 775.726 3.06286 -1.13387 0
M  V30 8244 H 774.385 2.07373 -3.02311 0
M  V30 8245 H 774.033 4.4533 -2.33859 0
M  V30 8246 H 773.733 4.22843 -4.08016 0
M  V30 8247 H 775.257 4.98174 -3.53066 0
M  V30 8248 H 776.671 3.10934 -4.81656 0
M  V30 8249 H 775.068 2.5899 -5.41336 0
M  V30 8250 H 776.138 1.40628 -4.6406 0
M  V30 8251 N 777.481 1.45874 0.596531 0
M  V30 8252 C 778.758 1.40942 1.35627 0
M  V30 8253 C 779.138 0.0857066 2.10926 0
M  V30 8254 O 778.486 -0.932544 2.08605 0
M  V30 8255 C 778.696 2.63027 2.29386 0
M  V30 8256 C 780.044 3.08588 2.91649 0
M  V30 8257 O 781.068 2.63478 2.39704 0
M  V30 8258 O 779.927 3.86902 3.85965 0
M  V30 8259 H 777.021 0.559838 0.608696 0
M  V30 8260 H 779.567 1.5802 0.618698 0
M  V30 8261 H 778.339 3.5094 1.7308 0
M  V30 8262 H 777.962 2.48338 3.10506 0
M  V30 8263 N 778.959 -0.83999 1.33349 0
M  V30 8264 C 779.889 -1.965 1.26135 0
M  V30 8265 C 780.87 -1.69505 0.142152 0
M  V30 8266 O 782.055 -1.91346 0.331743 0
M  V30 8267 C 779.185 -3.32632 0.99866 0
M  V30 8268 C 778.139 -3.74021 2.08068 0
M  V30 8269 C 777.465 -5.07947 1.67014 0
M  V30 8270 C 778.765 -3.87925 3.49731 0
M  V30 8271 H 780.459 -2.02793 2.20262 0
M  V30 8272 H 778.005 -0.974297 1.06035 0
M  V30 8273 H 779.958 -4.10903 0.934696 0
M  V30 8274 H 778.682 -3.26593 0.0217759 0
M  V30 8275 H 777.341 -2.98012 2.13505 0
M  V30 8276 H 776.989 -4.98378 0.680316 0
M  V30 8277 H 776.689 -5.36611 2.39422 0
M  V30 8278 H 778.213 -5.88695 1.62082 0
M  V30 8279 H 779.627 -4.5651 3.46802 0
M  V30 8280 H 778.024 -4.28023 4.20614 0
M  V30 8281 H 779.094 -2.90407 3.88319 0
M  V30 8282 N 780.437 -1.16799 -1.0581 0
M  V30 8283 C 781.662 -0.977402 -1.82925 0
M  V30 8284 C 782.087 0.469514 -1.82146 0
M  V30 8285 O 781.445 1.33576 -1.22585 0
M  V30 8286 C 781.493 -1.51543 -3.27211 0
M  V30 8287 O 780.597 -0.725021 -4.05977 0
M  V30 8288 H 779.938 -0.347474 -0.565825 0
M  V30 8289 H 782.468 -1.55151 -1.33376 0
M  V30 8290 H 782.478 -1.53502 -3.78023 0
M  V30 8291 H 781.153 -2.56872 -3.27093 0
M  V30 8292 H 779.73 -0.77634 -3.64729 0
M  V30 8293 N 781.915 1.24427 -0.967243 0
M  V30 8294 C 782.865 2.23143 -0.468106 0
M  V30 8295 C 783.849 1.5449 0.449633 0
M  V30 8296 O 785.041 1.74761 0.28063 0
M  V30 8297 C 782.17 3.42454 0.240867 0
M  V30 8298 C 781.256 4.18355 -0.695674 0
M  V30 8299 N 781.647 4.71428 -1.83273 0
M  V30 8300 C 779.945 4.43116 -0.506365 0
M  V30 8301 C 780.646 5.29041 -2.41849 0
M  V30 8302 N 779.622 5.16213 -1.70369 0
M  V30 8303 H 783.424 2.61795 -1.3357 0
M  V30 8304 H 780.938 1.39809 -0.826277 0
M  V30 8305 H 782.935 4.12329 0.615668 0
M  V30 8306 H 781.595 3.05323 1.10491 0
M  V30 8307 H 782.606 4.68177 -2.21428 0
M  V30 8308 H 779.283 4.16319 0.313747 0
M  V30 8309 H 780.673 5.80811 -3.37799 0
M  V30 8310 N 783.393 0.737304 1.3929 0
M  V30 8311 C 784.341 0.0879867 2.32434 0
M  V30 8312 C 785.335 -0.723324 1.53181 0
M  V30 8313 O 786.541 -0.624251 1.68829 0
M  V30 8314 H 782.916 0.00965277 0.751938 0
M  V30 8315 H 784.887 0.889915 2.84821 0
M  V30 8316 C 783.636 -0.803384 3.38291 0
M  V30 8317 H 782.959 -0.18849 3.99355 0
M  V30 8318 H 784.399 -1.22528 4.0591 0
M  V30 8319 C 782.858 -1.93872 2.75527 0
M  V30 8320 O 783.388 -3.03154 2.63553 0
M  V30 8321 N 781.594 -1.72883 2.3358 0
M  V30 8322 H 781.141 -0.840005 2.43519 0
M  V30 8323 H 781.099 -2.49021 1.91927 0
M  V30 8324 N 784.871 -1.49948 0.485112 0
M  V30 8325 C 785.818 -2.28819 -0.301729 0
M  V30 8326 C 786.788 -1.34496 -0.974683 0
M  V30 8327 O 787.973 -1.63444 -0.984418 0
M  V30 8328 C 785.113 -3.16758 -1.36961 0
M  V30 8329 C 784.226 -4.26125 -0.710027 0
M  V30 8330 C 783.361 -5.01302 -1.75699 0
M  V30 8331 C 782.4 -6.02525 -1.07841 0
M  V30 8332 N 781.537 -6.70927 -2.06886 0
M  V30 8333 H 786.377 -2.95604 0.377127 0
M  V30 8334 H 783.914 -1.45764 0.197826 0
M  V30 8335 H 785.872 -3.66106 -2.00056 0
M  V30 8336 H 784.502 -2.51991 -2.01744 0
M  V30 8337 H 783.554 -3.80385 0.0338278 0
M  V30 8338 H 784.866 -4.98493 -0.175079 0
M  V30 8339 H 784.02 -5.54438 -2.46339 0
M  V30 8340 H 782.759 -4.28672 -2.32577 0
M  V30 8341 H 781.764 -5.48635 -0.357706 0
M  V30 8342 H 782.989 -6.77134 -0.516345 0
M  V30 8343 H 780.935 -6.01079 -2.62755 0
M  V30 8344 H 780.852 -7.39216 -1.58414 0
M  V30 8345 H 782.12 -7.28675 -2.76863 0
M  V30 8346 N 786.349 -0.21828 -1.56081 0
M  V30 8347 C 787.279 0.687922 -2.23136 0
M  V30 8348 C 788.26 1.20357 -1.202 0
M  V30 8349 O 789.445 1.24817 -1.48776 0
M  V30 8350 C 786.575 1.89762 -2.90874 0
M  V30 8351 C 785.529 1.51595 -4.00254 0
M  V30 8352 C 784.855 2.80415 -4.55271 0
M  V30 8353 C 786.155 0.708404 -5.17474 0
M  V30 8354 H 787.849 0.128854 -2.99123 0
M  V30 8355 H 785.395 0.0605354 -1.43873 0
M  V30 8356 H 787.348 2.53699 -3.36474 0
M  V30 8357 H 786.072 2.4816 -2.1233 0
M  V30 8358 H 784.731 0.900058 -3.55379 0
M  V30 8359 H 784.379 3.36951 -3.73461 0
M  V30 8360 H 784.079 2.55613 -5.2909 0
M  V30 8361 H 785.603 3.453 -5.03587 0
M  V30 8362 H 787.017 1.2514 -5.59476 0
M  V30 8363 H 785.414 0.557593 -5.97504 0
M  V30 8364 H 786.484 -0.285679 -4.84058 0
M  V30 8365 N 787.827 1.57504 0.0551401 0
M  V30 8366 C 789.104 1.79155 0.785048 0
M  V30 8367 C 789.484 0.809995 1.94942 0
M  V30 8368 O 788.832 -0.153432 2.27984 0
M  V30 8369 C 789.042 3.26134 1.24247 0
M  V30 8370 C 790.39 3.90419 1.66908 0
M  V30 8371 O 791.414 3.30126 1.33772 0
M  V30 8372 O 790.273 4.96523 2.28314 0
M  V30 8373 H 787.367 0.735825 0.377479 0
M  V30 8374 H 789.913 1.69666 0.0339285 0
M  V30 8375 H 788.685 3.89145 0.410089 0
M  V30 8376 H 788.308 3.40411 2.05441 0
M  V30 8377 N 789.305 -0.326896 1.54172 0
M  V30 8378 C 790.235 -1.40741 1.86317 0
M  V30 8379 C 791.216 -1.54125 0.719684 0
M  V30 8380 O 792.401 -1.6806 0.973117 0
M  V30 8381 C 789.531 -2.77557 2.08757 0
M  V30 8382 C 788.485 -2.78965 3.24596 0
M  V30 8383 C 787.811 -4.18824 3.32401 0
M  V30 8384 C 789.111 -2.4301 4.62324 0
M  V30 8385 H 790.805 -1.14088 2.76811 0
M  V30 8386 H 788.351 -0.547389 1.3319 0
M  V30 8387 H 790.304 -3.53209 2.29829 0
M  V30 8388 H 789.028 -3.0568 1.15009 0
M  V30 8389 H 787.687 -2.05767 3.03406 0
M  V30 8390 H 787.335 -4.44083 2.36218 0
M  V30 8391 H 787.035 -4.20673 4.10253 0
M  V30 8392 H 788.559 -4.96294 3.55703 0
M  V30 8393 H 789.973 -3.08375 4.83299 0
M  V30 8394 H 788.37 -2.56116 5.42701 0
M  V30 8395 H 789.44 -1.38165 4.64799 0
M  V30 8396 N 790.784 -1.46188 -0.588786 0
M  V30 8397 C 792.014 -1.54519 -1.3714 0
M  V30 8398 C 792.422 -0.183075 -1.88312 0
M  V30 8399 O 791.765 0.828815 -1.6394 0
M  V30 8400 C 791.827 -2.48426 -2.59856 0
M  V30 8401 C 791.491 -3.94791 -2.30193 0
M  V30 8402 C 792.488 -4.84173 -1.894 0
M  V30 8403 C 790.173 -4.39872 -2.42525 0
M  V30 8404 C 792.167 -6.16647 -1.61325 0
M  V30 8405 C 789.854 -5.72381 -2.14063 0
M  V30 8406 C 790.852 -6.60589 -1.73527 0
M  V30 8407 O 790.54 -7.9064 -1.4541 0
M  V30 8408 H 790.272 -0.525264 -0.425527 0
M  V30 8409 H 792.826 -1.92242 -0.723344 0
M  V30 8410 H 791.056 -2.05709 -3.27446 0
M  V30 8411 H 792.745 -2.4723 -3.21919 0
M  V30 8412 H 793.511 -4.50603 -1.79393 0
M  V30 8413 H 789.39 -3.71444 -2.7304 0
M  V30 8414 H 792.934 -6.85454 -1.29611 0
M  V30 8415 H 788.831 -6.05501 -2.23693 0
M  V30 8416 H 789.599 -8.02847 -1.59306 0
M  V30 8417 N 792.262 0.832906 -1.33792 0
M  V30 8418 C 793.212 1.93178 -1.21105 0
M  V30 8419 C 794.196 1.60506 -0.112491 0
M  V30 8420 O 795.388 1.73681 -0.341179 0
M  V30 8421 C 792.517 3.29647 -0.958526 0
M  V30 8422 C 791.603 3.68469 -2.0998 0
M  V30 8423 N 791.994 3.78936 -3.35024 0
M  V30 8424 C 790.292 3.98249 -2.00782 0
M  V30 8425 C 790.993 4.12731 -4.09912 0
M  V30 8426 N 789.969 4.25419 -3.38407 0
M  V30 8427 H 793.771 1.99434 -2.15878 0
M  V30 8428 H 791.285 1.02598 -1.25886 0
M  V30 8429 H 793.282 4.08173 -0.848552 0
M  V30 8430 H 791.942 3.24694 -0.019387 0
M  V30 8431 H 792.953 3.62688 -3.69699 0
M  V30 8432 H 789.63 4.01474 -1.14564 0
M  V30 8433 H 791.02 4.28117 -5.17847 0
M  V30 8434 N 793.74 1.17359 1.05189 0
M  V30 8435 C 794.65 0.904984 2.16442 0
M  V30 8436 C 795.666 -0.12686 1.73537 0
M  V30 8437 O 796.842 0.0524127 2.01332 0
M  V30 8438 C 793.907 0.422019 3.44122 0
M  V30 8439 C 792.968 1.52045 4.01473 0
M  V30 8440 C 792.201 1.06044 5.23059 0
M  V30 8441 O 792.424 -0.0854023 5.70336 0
M  V30 8442 O 791.358 1.85349 5.72651 0
M  V30 8443 H 795.184 1.8356 2.41949 0
M  V30 8444 H 792.769 0.95447 1.14936 0
M  V30 8445 H 794.651 0.160208 4.21095 0
M  V30 8446 H 793.326 -0.480444 3.20115 0
M  V30 8447 H 792.233 1.83615 3.25939 0
M  V30 8448 H 793.566 2.39863 4.29798 0
M  V30 8449 N 795.218 -1.23913 0.973828 0
M  V30 8450 C 796.168 -2.22892 0.479933 0
M  V30 8451 C 797.152 -1.54726 -0.441434 0
M  V30 8452 O 798.344 -1.74908 -0.271358 0
M  V30 8453 C 795.473 -3.42577 -0.222702 0
M  V30 8454 C 794.559 -4.17981 0.717851 0
M  V30 8455 N 794.95 -4.7045 1.8577 0
M  V30 8456 C 793.248 -4.42841 0.529858 0
M  V30 8457 C 793.949 -5.27751 2.44651 0
M  V30 8458 N 792.925 -5.15302 1.73104 0
M  V30 8459 H 796.727 -2.61083 1.34956 0
M  V30 8460 H 794.241 -1.39368 0.83368 0
M  V30 8461 H 796.238 -4.1265 -0.593793 0
M  V30 8462 H 794.898 -3.05904 -1.0887 0
M  V30 8463 H 795.909 -4.66997 2.23908 0
M  V30 8464 H 792.586 -4.1648 -0.291664 0
M  V30 8465 H 793.976 -5.79011 3.40875 0
M  V30 8466 N 796.696 -0.74468 -1.38897 0
M  V30 8467 C 797.921 -0.306119 -2.05128 0
M  V30 8468 C 798.346 1.0541 -1.55789 0
M  V30 8469 O 797.704 1.66993 -0.705909 0
M  V30 8470 C 797.752 -0.328195 -3.59103 0
M  V30 8471 O 796.856 0.680876 -4.06741 0
M  V30 8472 H 796.197 -0.137209 -0.649669 0
M  V30 8473 H 798.727 -1.01331 -1.77745 0
M  V30 8474 H 798.737 -0.175956 -4.0762 0
M  V30 8475 H 797.412 -1.32067 -3.94374 0
M  V30 8476 H 795.989 0.49398 -3.69614 0
M  V30 8477 N 798.174 1.49689 -0.493057 0
M  V30 8478 C 799.421 2.02427 0.0542714 0
M  V30 8479 C 799.749 1.37339 1.37725 0
M  V30 8480 O 799.004 0.495523 1.89323 0
M  V30 8481 C 799.303 3.56427 0.263536 0
M  V30 8482 C 798.969 4.40111 -0.98046 0
M  V30 8483 C 797.631 4.62699 -1.32148 0
M  V30 8484 C 799.983 4.88847 -1.80771 0
M  V30 8485 C 797.311 5.31268 -2.48941 0
M  V30 8486 C 799.663 5.587 -2.96711 0
M  V30 8487 C 798.327 5.79536 -3.31202 0
M  V30 8488 H 797.597 0.740734 0.0198593 0
M  V30 8489 H 800.244 1.80073 -0.651603 0
M  V30 8490 H 798.549 3.77416 1.05186 0
M  V30 8491 H 800.246 3.94819 0.701348 0
M  V30 8492 H 796.836 4.22765 -0.704814 0
M  V30 8493 H 801.02 4.71231 -1.55741 0
M  V30 8494 H 796.276 5.45603 -2.75911 0
M  V30 8495 H 800.45 5.9544 -3.61143 0
M  V30 8496 H 798.077 6.32443 -4.21805 0
M  V30 8497 N 799.652 0.226554 1.55963 0
M  V30 8498 C 800.88 -0.408507 2.02827 0
M  V30 8499 C 801.295 -1.52994 1.10627 0
M  V30 8500 O 800.652 -1.82126 0.116809 0
M  V30 8501 C 800.703 -0.93545 3.49187 0
M  V30 8502 O 800.424 0.141273 4.37872 0
M  V30 8503 C 801.925 -1.64325 4.11719 0
M  V30 8504 H 799.145 -0.099442 0.66359 0
M  V30 8505 H 801.689 0.344471 2.01578 0
M  V30 8506 H 799.844 -1.63868 3.51036 0
M  V30 8507 H 800.258 -0.25558 5.23877 0
M  V30 8508 H 801.732 -1.9639 5.15883 0
M  V30 8509 H 802.209 -2.55815 3.57009 0
M  V30 8510 H 802.815 -0.9851 4.13734 0
M  V30 8511 N 801.13 -1.57531 -0.0467866 0
M  V30 8512 C 802.04 -2.08768 -1.07018 0
M  V30 8513 C 803.056 -1.02245 -1.40791 0
M  V30 8514 O 804.232 -1.33873 -1.50466 0
M  V30 8515 C 801.297 -2.54221 -2.35738 0
M  V30 8516 C 800.358 -3.75152 -2.08709 0
M  V30 8517 C 799.591 -4.18428 -3.31291 0
M  V30 8518 O 799.814 -3.61365 -4.4133 0
M  V30 8519 O 798.748 -5.11018 -3.18032 0
M  V30 8520 H 802.574 -2.96334 -0.664812 0
M  V30 8521 H 800.159 -1.47074 -0.262605 0
M  V30 8522 H 802.041 -2.83866 -3.11445 0
M  V30 8523 H 800.716 -1.69774 -2.75605 0
M  V30 8524 H 799.623 -3.50553 -1.30627 0
M  V30 8525 H 800.956 -4.60528 -1.73708 0
M  V30 8526 N 802.608 0.318715 -1.54344 0
M  V30 8527 C 803.538 1.39751 -1.87061 0
M  V30 8528 C 804.519 1.53741 -0.727848 0
M  V30 8529 O 805.704 1.67541 -0.982016 0
M  V30 8530 C 802.834 2.76446 -2.10226 0
M  V30 8531 C 801.788 2.77239 -3.26071 0
M  V30 8532 C 801.114 4.17056 -3.34617 0
M  V30 8533 C 802.414 2.40555 -4.63606 0
M  V30 8534 H 804.108 1.12619 -2.77412 0
M  V30 8535 H 801.654 0.540318 -1.33479 0
M  V30 8536 H 803.607 3.51985 -2.31699 0
M  V30 8537 H 802.331 3.05066 -1.16629 0
M  V30 8538 H 800.99 2.04155 -3.04493 0
M  V30 8539 H 800.638 4.42824 -2.3857 0
M  V30 8540 H 800.338 4.18492 -4.12478 0
M  V30 8541 H 801.862 4.94401 -3.5833 0
M  V30 8542 H 803.276 3.05808 -4.84927 0
M  V30 8543 H 801.673 2.53234 -5.44052 0
M  V30 8544 H 802.743 1.35698 -4.65526 0
M  V30 8545 N 804.086 1.46499 0.581025 0
M  V30 8546 C 805.497 1.4604 1.16315 0
M  V30 8547 C 805.848 0.202154 1.95156 0
M  V30 8548 O 804.973 -0.694638 2.04948 0
M  V30 8549 C 805.568 2.64593 2.11604 0
M  V30 8550 C 804.127 2.6717 2.65136 0
M  V30 8551 C 803.274 2.38753 1.4104 0
M  V30 8552 H 806.225 1.54354 0.368871 0
M  V30 8553 H 806.246 2.40207 2.95095 0
M  V30 8554 H 805.758 3.56154 1.54194 0
M  V30 8555 H 803.859 1.79685 3.26411 0
M  V30 8556 H 803.972 3.67182 3.07757 0
M  V30 8557 H 802.336 1.88845 1.70908 0
M  V30 8558 H 803.119 3.32493 0.854588 0
M  V30 8559 N 805.565 -0.825799 1.34232 0
M  V30 8560 C 806.981 -1.11848 1.13851 0
M  V30 8561 C 807.181 -2.01405 -0.0619031 0
M  V30 8562 O 806.237 -2.41465 -0.738287 0
M  V30 8563 C 807.55 -1.76797 2.43235 0
M  V30 8564 C 809.098 -1.89304 2.49265 0
M  V30 8565 C 809.573 -2.57669 3.78643 0
M  V30 8566 N 811.064 -2.65171 3.79788 0
M  V30 8567 C 811.799 -3.1879 4.76614 0
M  V30 8568 N 811.295 -3.72995 5.83821 0
M  V30 8569 N 813.088 -3.17164 4.64073 0
M  V30 8570 H 805.239 -0.230049 2.11151 0
M  V30 8571 H 807.502 -0.164609 0.9336 0
M  V30 8572 H 807.208 -1.18455 3.31152 0
M  V30 8573 H 807.082 -2.76693 2.56361 0
M  V30 8574 H 809.469 -2.46796 1.6179 0
M  V30 8575 H 809.55 -0.883191 2.4007 0
M  V30 8576 H 809.194 -2.00833 4.66507 0
M  V30 8577 H 809.124 -3.59152 3.8512 0
M  V30 8578 H 811.615 -2.26746 3.02315 0
M  V30 8579 H 811.928 -4.12151 6.53721 0
M  V30 8580 H 810.273 -3.71246 5.87538 0
M  V30 8581 H 813.464 -2.74082 3.79469 0
M  V30 8582 H 813.637 -3.58647 5.397 0
M  V30 8583 N 807.043 -1.17915 -1.04565 0
M  V30 8584 C 807.973 -0.925033 -2.14395 0
M  V30 8585 C 808.954 0.135375 -1.6956 0
M  V30 8586 O 810.139 -0.0161774 -1.94193 0
M  V30 8587 C 807.269 -0.444469 -3.44444 0
M  V30 8588 C 806.223 -1.44478 -4.02877 0
M  V30 8589 C 805.549 -0.821933 -5.28345 0
M  V30 8590 C 806.849 -2.81995 -4.39632 0
M  V30 8591 H 808.543 -1.84354 -2.35911 0
M  V30 8592 H 806.089 -0.887806 -1.13375 0
M  V30 8593 H 808.042 -0.254078 -4.20633 0
M  V30 8594 H 806.766 0.509592 -3.226 0
M  V30 8595 H 805.425 -1.62203 -3.28764 0
M  V30 8596 H 805.073 0.139161 -5.02807 0
M  V30 8597 H 804.773 -1.48976 -5.68401 0
M  V30 8598 H 806.297 -0.641959 -6.07216 0
M  V30 8599 H 807.711 -2.67952 -5.06828 0
M  V30 8600 H 806.108 -3.45414 -4.90723 0
M  V30 8601 H 807.178 -3.35927 -3.49687 0
M  V30 8602 N 808.521 1.23394 -0.980386 0
M  V30 8603 C 809.431 2.28561 -0.528864 0
M  V30 8604 C 810.447 1.68946 0.416329 0
M  V30 8605 O 811.623 1.99355 0.286251 0
M  V30 8606 C 808.688 3.46323 0.16155 0
M  V30 8607 C 807.749 4.21297 -0.825044 0
M  V30 8608 C 806.982 5.33437 -0.167483 0
M  V30 8609 O 807.205 5.60812 1.04146 0
M  V30 8610 O 806.139 5.95637 -0.866047 0
M  V30 8611 H 809.965 2.69326 -1.40346 0
M  V30 8612 H 807.55 1.29325 -0.748019 0
M  V30 8613 H 809.432 4.17811 0.548841 0
M  V30 8614 H 808.107 3.0751 1.01092 0
M  V30 8615 H 807.014 3.52134 -1.26303 0
M  V30 8616 H 808.347 4.6396 -1.64322 0
M  V30 8617 N 809.999 0.752036 1.385 0
M  V30 8618 C 810.962 0.131587 2.28822 0
M  V30 8619 C 811.962 -0.649149 1.47115 0
M  V30 8620 O 813.152 -0.475645 1.67581 0
M  V30 8621 C 810.284 -0.822101 3.30839 0
M  V30 8622 H 811.477 0.927551 2.85196 0
M  V30 8623 H 809.03 0.518945 1.47434 0
M  V30 8624 H 809.765 -1.6438 2.79553 0
M  V30 8625 H 809.55 -0.264689 3.91206 0
M  V30 8626 H 811.04 -1.25226 3.98382 0
M  V30 8627 N 811.477 -1.49425 0.500989 0
M  V30 8628 C 812.407 -2.31971 -0.266775 0
M  V30 8629 C 813.388 -1.40245 -0.962563 0
M  V30 8630 O 814.573 -1.69154 -0.953968 0
M  V30 8631 C 811.703 -3.20757 -1.33163 0
M  V30 8632 C 810.657 -4.21275 -0.75572 0
M  V30 8633 C 809.983 -4.98997 -1.92109 0
M  V30 8634 C 811.283 -5.21686 0.253213 0
M  V30 8635 H 812.977 -2.96408 0.422237 0
M  V30 8636 H 810.523 -1.4254 0.204505 0
M  V30 8637 H 812.476 -3.77315 -1.87646 0
M  V30 8638 H 811.2 -2.54263 -2.04983 0
M  V30 8639 H 809.859 -3.65861 -0.232637 0
M  V30 8640 H 809.507 -4.28951 -2.62698 0
M  V30 8641 H 809.207 -5.67011 -1.54182 0
M  V30 8642 H 810.731 -5.584 -2.47026 0
M  V30 8643 H 812.145 -5.72939 -0.203483 0
M  V30 8644 H 810.542 -5.9759 0.548322 0
M  V30 8645 H 811.612 -4.70596 1.16909 0
M  V30 8646 N 812.955 -0.234822 -1.55841 0
M  V30 8647 C 814.232 0.442961 -1.90518 0
M  V30 8648 C 814.612 1.76768 -1.15397 0
M  V30 8649 O 813.96 2.26928 -0.267534 0
M  V30 8650 C 814.17 0.622905 -3.43396 0
M  V30 8651 C 815.518 0.9243 -4.14417 0
M  V30 8652 O 816.542 0.709211 -3.49068 0
M  V30 8653 O 815.401 1.33323 -5.29988 0
M  V30 8654 H 812.495 0.236042 -0.792599 0
M  V30 8655 H 815.041 -0.277992 -1.67408 0
M  V30 8656 H 813.813 -0.310973 -3.90062 0
M  V30 8657 H 813.436 1.39485 -3.7233 0
M  V30 8658 N 814.433 1.57553 0.0384317 0
M  V30 8659 C 815.363 2.0898 1.04161 0
M  V30 8660 C 816.344 0.99029 1.38301 0
M  V30 8661 O 817.529 1.26499 1.47349 0
M  V30 8662 C 814.659 2.56145 2.34536 0
M  V30 8663 C 813.613 3.70275 2.14663 0
M  V30 8664 C 812.939 4.03612 3.50715 0
M  V30 8665 C 814.239 4.99067 1.54045 0
M  V30 8666 H 815.933 2.93046 0.613548 0
M  V30 8667 H 813.479 1.40973 0.293684 0
M  V30 8668 H 815.432 2.90741 3.05037 0
M  V30 8669 H 814.156 1.6915 2.79385 0
M  V30 8670 H 812.815 3.36013 1.46597 0
M  V30 8671 H 812.463 3.13698 3.93195 0
M  V30 8672 H 812.163 4.80482 3.38247 0
M  V30 8673 H 813.687 4.40735 4.22593 0
M  V30 8674 H 815.101 5.3168 2.14451 0
M  V30 8675 H 813.498 5.80484 1.52178 0
M  V30 8676 H 814.568 4.8226 0.505259 0
M  V30 8677 N 815.911 -0.310526 1.54511 0
M  V30 8678 C 817.136 -1.07046 1.7764 0
M  V30 8679 C 817.561 -1.80488 0.529696 0
M  V30 8680 O 816.919 -1.73702 -0.519361 0
M  V30 8681 C 816.967 -2.03411 2.97752 0
M  V30 8682 O 816.071 -3.11545 2.7021 0
M  V30 8683 H 815.412 -0.307994 0.588248 0
M  V30 8684 H 817.942 -0.350848 2.01569 0
M  V30 8685 H 817.952 -2.46048 3.2546 0
M  V30 8686 H 816.627 -1.49361 3.88155 0
M  V30 8687 H 815.204 -2.7349 2.53491 0
M  V30 8688 N 817.389 -1.46805 -0.573248 0
M  V30 8689 C 818.619 -1.55965 -1.35494 0
M  V30 8690 C 819.027 -0.203038 -1.88107 0
M  V30 8691 O 818.37 0.81138 -1.6481 0
M  V30 8692 C 818.432 -2.51168 -2.57206 0
M  V30 8693 C 818.096 -3.97211 -2.25993 0
M  V30 8694 C 819.093 -4.86155 -1.84254 0
M  V30 8695 C 816.778 -4.42419 -2.37846 0
M  V30 8696 C 818.772 -6.18323 -1.54776 0
M  V30 8697 C 816.459 -5.74619 -2.0798 0
M  V30 8698 C 817.457 -6.62392 -1.66511 0
M  V30 8699 O 817.145 -7.92137 -1.37016 0
M  V30 8700 H 816.877 -0.529748 -0.419932 0
M  V30 8701 H 819.431 -1.92998 -0.702914 0
M  V30 8702 H 817.661 -2.09171 -3.25245 0
M  V30 8703 H 819.35 -2.50631 -3.19279 0
M  V30 8704 H 820.116 -4.52481 -1.74603 0
M  V30 8705 H 815.995 -3.74319 -2.69085 0
M  V30 8706 H 819.539 -6.8679 -1.22334 0
M  V30 8707 H 815.436 -6.0784 -2.17258 0
M  V30 8708 H 816.204 -8.04492 -1.50782 0
M  V30 8709 N 818.867 0.818669 -1.34668 0
M  V30 8710 C 819.815 1.95123 -1.26609 0
M  V30 8711 C 820.809 1.68611 -0.163348 0
M  V30 8712 O 822.015 1.76975 -0.328586 0
M  V30 8713 H 818.39 0.640871 -0.393431 0
M  V30 8714 H 820.361 1.99043 -2.22316 0
M  V30 8715 C 819.11 3.31697 -1.04272 0
M  V30 8716 H 818.433 3.52648 -1.8836 0
M  V30 8717 H 819.873 4.11382 -1.0267 0
M  V30 8718 C 818.332 3.35942 0.253858 0
M  V30 8719 O 818.862 3.81632 1.25378 0
M  V30 8720 N 817.068 2.89165 0.288447 0
M  V30 8721 H 816.615 2.52176 -0.525845 0
M  V30 8722 H 816.573 2.92387 1.15572 0
M  V30 8723 N 820.346 1.18468 1.03938 0
M  V30 8724 C 821.571 1.00638 1.81347 0
M  V30 8725 C 821.996 -0.440477 1.8287 0
M  V30 8726 O 821.354 -1.31609 1.24695 0
M  V30 8727 C 821.402 1.5673 3.24759 0
M  V30 8728 O 820.506 0.789517 4.04772 0
M  V30 8729 H 819.847 0.356432 0.560225 0
M  V30 8730 H 822.377 1.57253 1.30891 0
M  V30 8731 H 822.387 1.59496 3.75533 0
M  V30 8732 H 821.062 2.62043 3.22965 0
M  V30 8733 H 819.639 0.834267 3.63448 0
M  V30 8734 N 821.824 -1.22873 0.986916 0
M  V30 8735 C 822.756 -2.23889 0.490537 0
M  V30 8736 C 823.769 -1.57523 -0.411144 0
M  V30 8737 O 824.958 -1.7721 -0.214236 0
M  V30 8738 C 822.058 -3.37488 -0.30902 0
M  V30 8739 C 821.231 -4.33438 0.587354 0
M  V30 8740 C 820.29 -5.25958 -0.159467 0
M  V30 8741 O 819.316 -5.67394 0.453115 0
M  V30 8742 N 820.518 -5.62265 -1.44355 0
M  V30 8743 H 823.283 -2.67109 1.35914 0
M  V30 8744 H 820.844 -1.37111 0.860937 0
M  V30 8745 H 822.836 -3.96365 -0.817139 0
M  V30 8746 H 821.406 -2.934 -1.07868 0
M  V30 8747 H 820.626 -3.72969 1.27622 0
M  V30 8748 H 821.914 -4.94495 1.19801 0
M  V30 8749 H 821.312 -5.30562 -1.96266 0
M  V30 8750 H 819.869 -6.23585 -1.89698 0
M  V30 8751 N 823.302 -0.75937 -1.38099 0
M  V30 8752 C 824.713 -0.385078 -1.82686 0
M  V30 8753 C 825.064 1.0871 -1.6333 0
M  V30 8754 O 824.189 1.84084 -1.13762 0
M  V30 8755 C 824.784 -0.692161 -3.31654 0
M  V30 8756 C 823.343 -0.371077 -3.74566 0
M  V30 8757 C 822.49 -0.942375 -2.60796 0
M  V30 8758 H 825.441 -0.955048 -1.26746 0
M  V30 8759 H 825.462 0.0276001 -3.8049 0
M  V30 8760 H 824.974 -1.76369 -3.4571 0
M  V30 8761 H 823.075 0.693637 -3.66087 0
M  V30 8762 H 823.188 -0.870672 -4.71122 0
M  V30 8763 H 821.552 -0.367383 -2.52036 0
M  V30 8764 H 822.335 -2.01905 -2.77649 0
M  V30 8765 N 824.78 1.49157 -0.508906 0
M  V30 8766 C 826.027 2.02473 0.0327983 0
M  V30 8767 C 826.355 1.38792 1.36261 0
M  V30 8768 O 825.61 0.515576 1.88786 0
M  V30 8769 C 825.909 3.56687 0.225717 0
M  V30 8770 C 825.575 4.39046 -1.02708 0
M  V30 8771 C 824.237 4.61271 -1.37048 0
M  V30 8772 C 826.589 4.86902 -1.85946 0
M  V30 8773 C 823.917 5.28598 -2.54562 0
M  V30 8774 C 826.269 5.55521 -3.0262 0
M  V30 8775 C 824.933 5.7599 -3.3733 0
M  V30 8776 H 824.203 0.740903 0.0120017 0
M  V30 8777 H 826.85 1.79372 -0.670665 0
M  V30 8778 H 825.155 3.78511 1.01177 0
M  V30 8779 H 826.852 3.95541 0.659433 0
M  V30 8780 H 823.442 4.21994 -0.749615 0
M  V30 8781 H 827.626 4.69553 -1.6073 0
M  V30 8782 H 822.882 5.42646 -2.81682 0
M  V30 8783 H 827.056 5.91576 -3.67438 0
M  V30 8784 H 824.683 6.27934 -4.2849 0
M  V30 8785 N 826.258 0.243083 1.55714 0
M  V30 8786 C 827.506 -0.381964 1.98458 0
M  V30 8787 C 827.827 -1.58745 1.13247 0
M  V30 8788 O 827.097 -1.94723 0.214384 0
M  V30 8789 H 825.677 -0.144114 0.732967 0
M  V30 8790 H 828.339 0.340985 1.91894 0
M  V30 8791 H 827.435 -0.693702 3.04293 0
M  V30 8792 N 827.736 -1.57571 -0.0300757 0
M  V30 8793 C 828.669 -2.01874 -1.06406 0
M  V30 8794 C 829.647 -0.902901 -1.35227 0
M  V30 8795 O 830.831 -1.16865 -1.47901 0
M  V30 8796 C 827.958 -2.39093 -2.39901 0
M  V30 8797 C 827.004 -3.61108 -2.26943 0
M  V30 8798 S 827.837 -5.10287 -1.62382 0
M  V30 8799 C 828.993 -5.50747 -2.97369 0
M  V30 8800 H 829.226 -2.89261 -0.686703 0
M  V30 8801 H 826.759 -1.52523 -0.240017 0
M  V30 8802 H 828.717 -2.61207 -3.16672 0
M  V30 8803 H 827.378 -1.52159 -2.74784 0
M  V30 8804 H 826.571 -3.84803 -3.25489 0
M  V30 8805 H 826.173 -3.3884 -1.58314 0
M  V30 8806 H 828.465 -5.51369 -3.93698 0
M  V30 8807 H 829.408 -6.51071 -2.78409 0
M  V30 8808 H 829.816 -4.7825 -2.99895 0
M  V30 8809 N 829.214 0.302327 -1.54673 0
M  V30 8810 C 830.146 1.39443 -1.81902 0
M  V30 8811 C 831.159 1.46891 -0.701914 0
M  V30 8812 O 832.348 1.49233 -0.979369 0
M  V30 8813 C 829.448 2.77824 -1.9408 0
M  V30 8814 C 828.621 2.93324 -3.24468 0
M  V30 8815 C 827.68 4.12196 -3.27079 0
M  V30 8816 O 826.706 4.04344 -4.00617 0
M  V30 8817 N 827.908 5.22768 -2.52376 0
M  V30 8818 H 830.673 1.1644 -2.76155 0
M  V30 8819 H 828.234 0.492392 -1.54231 0
M  V30 8820 H 830.226 3.5559 -1.9323 0
M  V30 8821 H 828.796 2.9378 -1.06828 0
M  V30 8822 H 828.016 2.02682 -3.38103 0
M  V30 8823 H 829.304 3.0059 -4.10516 0
M  V30 8824 H 828.702 5.32027 -1.92259 0
M  V30 8825 H 827.259 5.98874 -2.57281 0
M  V30 8826 N 830.692 1.47107 0.565454 0
M  V30 8827 C 831.94 1.53005 1.32038 0
M  V30 8828 C 832.261 0.190453 1.94068 0
M  V30 8829 O 831.531 -0.784783 1.79494 0
M  V30 8830 H 830.111 0.563578 0.490294 0
M  V30 8831 H 832.773 1.83351 0.660928 0
M  V30 8832 H 831.869 2.29215 2.11818 0
M  V30 8833 N 832.17 -0.811516 1.35101 0
M  V30 8834 C 833.416 -1.57068 1.28287 0
M  V30 8835 C 833.749 -1.93667 -0.143808 0
M  V30 8836 O 833.024 -1.60953 -1.09199 0
M  V30 8837 C 833.307 -2.86259 2.18466 0
M  V30 8838 C 833.16 -2.56168 3.69727 0
M  V30 8839 C 834.479 -3.87924 2.07852 0
M  V30 8840 H 831.598 -0.569869 0.467353 0
M  V30 8841 H 834.24 -0.934023 1.65457 0
M  V30 8842 H 832.39 -3.4059 1.86898 0
M  V30 8843 H 834.062 -2.08059 4.11715 0
M  V30 8844 H 832.305 -1.89436 3.90252 0
M  V30 8845 H 832.976 -3.48344 4.28206 0
M  V30 8846 H 835.452 -3.4298 2.35593 0
M  V30 8847 H 834.328 -4.76106 2.73157 0
M  V30 8848 H 834.589 -4.2923 1.05896 0
M  V30 8849 N 833.648 -1.19017 -1.03309 0
M  V30 8850 C 834.896 -0.988258 -1.76289 0
M  V30 8851 C 835.217 0.482557 -1.88935 0
M  V30 8852 O 834.487 1.34969 -1.41987 0
M  V30 8853 H 833.067 -0.36267 -0.653054 0
M  V30 8854 H 835.729 -1.49836 -1.2464 0
M  V30 8855 H 834.825 -1.43273 -2.77271 0
M  V30 8856 N 835.127 1.22348 -0.993418 0
M  V30 8857 C 836.077 2.221 -0.515333 0
M  V30 8858 C 837.061 1.55409 0.416762 0
M  V30 8859 O 838.253 1.75317 0.243497 0
M  V30 8860 C 835.382 3.42888 0.168173 0
M  V30 8861 C 834.468 4.16786 -0.784257 0
M  V30 8862 N 834.859 4.67435 -1.93231 0
M  V30 8863 C 833.157 4.41942 -0.600243 0
M  V30 8864 C 833.858 5.23792 -2.53016 0
M  V30 8865 N 832.834 5.12483 -1.8128 0
M  V30 8866 H 836.636 2.58902 -1.39093 0
M  V30 8867 H 834.15 1.38024 -0.855747 0
M  V30 8868 H 836.147 4.13542 0.528069 0
M  V30 8869 H 834.807 3.07598 1.03989 0
M  V30 8870 H 835.818 4.63375 -2.31309 0
M  V30 8871 H 832.495 4.16891 0.225369 0
M  V30 8872 H 833.885 5.73515 -3.50043 0
M  V30 8873 N 836.605 0.766683 1.37694 0
M  V30 8874 C 837.553 0.137269 2.32195 0
M  V30 8875 C 838.547 -0.69067 1.54681 0
M  V30 8876 O 839.753 -0.588299 1.70115 0
M  V30 8877 H 836.128 0.0256003 0.751564 0
M  V30 8878 H 838.099 0.950129 2.82869 0
M  V30 8879 C 836.848 -0.731446 3.39919 0
M  V30 8880 H 836.171 -0.103738 3.99665 0
M  V30 8881 H 837.611 -1.13891 4.08417 0
M  V30 8882 C 836.07 -1.87984 2.79578 0
M  V30 8883 O 836.6 -2.97496 2.69924 0
M  V30 8884 N 834.806 -1.6789 2.37195 0
M  V30 8885 H 834.353 -0.788162 2.45246 0
M  V30 8886 H 834.311 -2.44894 1.97165 0
M  V30 8887 N 838.083 -1.48885 0.516809 0
M  V30 8888 C 839.33 -2.02488 -0.0220602 0
M  V30 8889 C 839.658 -1.39513 -1.35523 0
M  V30 8890 O 838.913 -0.52558 -1.8851 0
M  V30 8891 C 839.212 -3.56801 -0.206798 0
M  V30 8892 C 838.878 -4.38496 1.05035 0
M  V30 8893 C 837.54 -4.60538 1.39492 0
M  V30 8894 C 839.892 -4.85909 1.88525 0
M  V30 8895 C 837.22 -5.2724 2.57361 0
M  V30 8896 C 839.572 -5.53909 3.05561 0
M  V30 8897 C 838.236 -5.74193 3.4038 0
M  V30 8898 H 837.506 -0.740956 -0.00807238 0
M  V30 8899 H 840.153 -1.79014 0.680168 0
M  V30 8900 H 838.458 -3.79042 -0.991687 0
M  V30 8901 H 840.155 -3.95885 -0.638447 0
M  V30 8902 H 836.745 -4.2159 0.771984 0
M  V30 8903 H 840.929 -4.68694 1.63218 0
M  V30 8904 H 836.185 -5.41145 2.84556 0
M  V30 8905 H 840.359 -5.89619 3.7057 0
M  V30 8906 H 837.986 -6.25652 4.31814 0
M  V30 8907 N 839.561 -0.251338 -1.55583 0
M  V30 8908 C 840.786 0.379136 -2.03905 0
M  V30 8909 C 841.211 1.50428 -1.12929 0
M  V30 8910 O 840.569 1.80882 -0.123114 0
M  V30 8911 C 840.617 0.86009 -3.50193 0
M  V30 8912 O 839.721 1.96932 -3.62342 0
M  V30 8913 H 839.062 0.0820183 -0.658915 0
M  V30 8914 H 841.592 -0.378692 -2.01065 0
M  V30 8915 H 841.602 1.16214 -3.91099 0
M  V30 8916 H 840.277 0.0367559 -4.15884 0
M  V30 8917 H 838.854 1.67163 -3.33333 0
M  V30 8918 N 841.039 1.57585 0.0217189 0
M  V30 8919 C 842.286 1.89606 0.711045 0
M  V30 8920 C 842.614 0.849535 1.74966 0
M  V30 8921 O 841.869 -0.14856 1.95135 0
M  V30 8922 C 842.168 3.28377 1.41079 0
M  V30 8923 C 841.834 4.48035 0.507454 0
M  V30 8924 C 840.496 4.80504 0.258672 0
M  V30 8925 C 842.848 5.21071 -0.115793 0
M  V30 8926 C 840.176 5.83393 -0.622013 0
M  V30 8927 C 842.528 6.24897 -0.984224 0
M  V30 8928 C 841.192 6.55836 -1.2424 0
M  V30 8929 H 840.462 0.693817 0.26019 0
M  V30 8930 H 843.109 1.91478 -0.0291424 0
M  V30 8931 H 841.414 3.22528 2.22448 0
M  V30 8932 H 843.111 3.50404 1.94982 0
M  V30 8933 H 839.701 4.22653 0.711516 0
M  V30 8934 H 843.885 4.96259 0.0634327 0
M  V30 8935 H 839.141 6.05736 -0.830267 0
M  V30 8936 H 843.315 6.8063 -1.47363 0
M  V30 8937 H 840.942 7.35383 -1.92653 0
M  V30 8938 N 842.517 -0.29412 1.54831 0
M  V30 8939 C 843.763 -1.02999 1.74697 0
M  V30 8940 C 844.096 -1.86687 0.534949 0
M  V30 8941 O 843.371 -1.88789 -0.467863 0
M  V30 8942 C 843.654 -1.93024 3.03996 0
M  V30 8943 C 843.507 -1.1247 4.35512 0
M  V30 8944 C 844.826 -2.92085 3.29203 0
M  V30 8945 H 841.945 -0.373039 0.635618 0
M  V30 8946 H 844.587 -0.304065 1.87551 0
M  V30 8947 H 842.737 -2.5492 2.93169 0
M  V30 8948 H 844.409 -0.528067 4.58268 0
M  V30 8949 H 842.652 -0.427574 4.31688 0
M  V30 8950 H 843.323 -1.78728 5.22265 0
M  V30 8951 H 845.799 -2.40319 3.39685 0
M  V30 8952 H 844.675 -3.52234 4.20978 0
M  V30 8953 H 844.936 -3.66107 2.47827 0
M  V30 8954 N 843.995 -1.47404 -0.557645 0
M  V30 8955 C 844.958 -1.59411 -1.64684 0
M  V30 8956 C 845.958 -0.469244 -1.53801 0
M  V30 8957 O 847.148 -0.734298 -1.57967 0
M  V30 8958 C 844.28 -1.5382 -3.04224 0
M  V30 8959 H 845.473 -2.56504 -1.55389 0
M  V30 8960 H 843.026 -1.35588 -0.777531 0
M  V30 8961 H 843.761 -0.581 -3.19053 0
M  V30 8962 H 843.546 -2.35456 -3.13533 0
M  V30 8963 H 845.036 -1.65358 -3.83466 0
M  V30 8964 N 845.473 0.80434 -1.35529 0
M  V30 8965 C 846.423 1.90565 -1.25175 0
M  V30 8966 C 847.407 1.60232 -0.146512 0
M  V30 8967 O 848.599 1.72918 -0.377943 0
M  V30 8968 C 845.728 3.2754 -1.02823 0
M  V30 8969 C 844.814 3.63932 -2.17748 0
M  V30 8970 N 845.205 3.71744 -3.42986 0
M  V30 8971 C 843.503 3.93901 -2.09184 0
M  V30 8972 C 844.204 4.03944 -4.18574 0
M  V30 8973 N 843.18 4.18146 -3.47355 0
M  V30 8974 H 846.982 1.9481 -2.20059 0
M  V30 8975 H 844.496 0.99905 -1.28034 0
M  V30 8976 H 846.493 4.06281 -0.934941 0
M  V30 8977 H 845.153 3.2458 -0.0882551 0
M  V30 8978 H 846.164 3.54765 -3.77309 0
M  V30 8979 H 842.841 3.98954 -1.23054 0
M  V30 8980 H 844.231 4.17036 -5.26811 0
M  V30 8981 N 846.951 1.19563 1.02676 0
M  V30 8982 C 847.881 0.959024 2.12897 0
M  V30 8983 C 848.862 -0.108382 1.69754 0
M  V30 8984 O 850.047 0.0470698 1.94143 0
M  V30 8985 C 847.177 0.499211 3.43693 0
M  V30 8986 C 846.131 1.5087 4.00528 0
M  V30 8987 C 845.457 0.905884 5.2697 0
M  V30 8988 C 846.757 2.88954 4.3509 0
M  V30 8989 H 848.451 1.88084 2.32948 0
M  V30 8990 H 845.997 0.905731 1.11949 0
M  V30 8991 H 847.95 0.320965 4.20176 0
M  V30 8992 H 846.674 -0.458205 3.2337 0
M  V30 8993 H 845.333 1.67413 3.26142 0
M  V30 8994 H 844.981 -0.0591506 5.02965 0
M  V30 8995 H 844.681 1.58 5.65959 0
M  V30 8996 H 846.205 0.73848 6.06118 0
M  V30 8997 H 847.619 2.75981 5.02501 0
M  V30 8998 H 846.016 3.53177 4.85166 0
M  V30 8999 H 847.086 3.41447 3.44299 0
M  V30 9000 N 848.429 -1.21819 0.999893 0
M  V30 9001 C 849.845 -1.42847 0.711824 0
M  V30 9002 C 850.045 -1.88391 -0.714928 0
M  V30 9003 O 849.101 -2.0422 -1.48494 0
M  V30 9004 C 850.414 -2.46417 1.72334 0
M  V30 9005 C 851.962 -2.60207 1.73958 0
M  V30 9006 C 852.437 -3.67005 2.73992 0
M  V30 9007 N 853.928 -3.7447 2.72628 0
M  V30 9008 C 854.663 -4.56718 3.46693 0
M  V30 9009 N 854.159 -5.42904 4.3038 0
M  V30 9010 N 855.952 -4.51094 3.35366 0
M  V30 9011 H 848.103 -0.905656 1.92124 0
M  V30 9012 H 850.366 -0.459893 0.828977 0
M  V30 9013 H 850.072 -2.19914 2.74465 0
M  V30 9014 H 849.946 -3.45137 1.52186 0
M  V30 9015 H 852.333 -2.8605 0.725217 0
M  V30 9016 H 852.414 -1.61739 1.98177 0
M  V30 9017 H 852.058 -3.41908 3.75582 0
M  V30 9018 H 851.988 -4.65058 2.4704 0
M  V30 9019 H 854.479 -3.12895 2.11909 0
M  V30 9020 H 854.792 -6.02704 4.83702 0
M  V30 9021 H 853.137 -5.42463 4.34464 0
M  V30 9022 H 856.328 -3.82791 2.69423 0
M  V30 9023 H 856.501 -5.1496 3.93344 0
M  V30 9024 N 849.908 -0.773975 -1.37286 0
M  V30 9025 C 851.136 -0.350758 -2.03905 0
M  V30 9026 C 851.551 1.02779 -1.58373 0
M  V30 9027 O 850.908 1.65646 -0.766009 0
M  V30 9028 C 850.959 -0.387335 -3.59419 0
M  V30 9029 O 850.68 -1.7115 -4.03286 0
M  V30 9030 C 852.181 0.047198 -4.43275 0
M  V30 9031 H 849.401 -0.146663 -0.654775 0
M  V30 9032 H 851.945 -1.04852 -1.75574 0
M  V30 9033 H 850.1 0.261865 -3.86514 0
M  V30 9034 H 850.514 -1.65166 -4.97816 0
M  V30 9035 H 851.988 -0.0295474 -5.51992 0
M  V30 9036 H 852.465 1.09786 -4.25257 0
M  V30 9037 H 853.071 -0.573899 -4.2141 0
M  V30 9038 N 851.386 1.48609 -0.524698 0
M  V30 9039 C 852.316 2.32366 0.229837 0
M  V30 9040 C 853.297 1.41759 0.940129 0
M  V30 9041 O 854.482 1.7065 0.926936 0
M  V30 9042 C 851.612 3.22835 1.28043 0
M  V30 9043 C 850.566 4.22424 0.688603 0
M  V30 9044 C 849.892 5.0199 1.84146 0
M  V30 9045 C 851.192 5.21217 -0.336176 0
M  V30 9046 H 852.886 2.95698 -0.469339 0
M  V30 9047 H 850.432 1.42197 -0.227156 0
M  V30 9048 H 852.385 3.80253 1.8162 0
M  V30 9049 H 851.109 2.57492 2.00912 0
M  V30 9050 H 849.768 3.66185 0.174402 0
M  V30 9051 H 849.416 4.33076 2.5584 0
M  V30 9052 H 849.116 5.69392 1.45142 0
M  V30 9053 H 850.64 5.62259 2.38111 0
M  V30 9054 H 852.054 5.7319 0.112307 0
M  V30 9055 H 850.451 5.96642 -0.643324 0
M  V30 9056 H 851.521 4.68676 -1.24381 0
M  V30 9057 N 852.864 0.259585 1.55447 0
M  V30 9058 C 854.28 -0.094961 1.59317 0
M  V30 9059 C 854.48 -1.55884 1.2768 0
M  V30 9060 O 853.536 -2.30528 1.0302 0
M  V30 9061 C 854.849 0.265669 2.99524 0
M  V30 9062 C 856.397 0.211007 3.12288 0
M  V30 9063 C 856.872 0.545851 4.54736 0
M  V30 9064 N 858.363 0.496823 4.60528 0
M  V30 9065 C 859.098 0.728909 5.68748 0
M  V30 9066 N 858.594 1.02479 6.85179 0
M  V30 9067 N 860.387 0.658756 5.58226 0
M  V30 9068 H 852.538 1.2141 1.7428 0
M  V30 9069 H 854.801 0.489404 0.811904 0
M  V30 9070 H 854.507 1.28316 3.27457 0
M  V30 9071 H 854.381 -0.401089 3.75061 0
M  V30 9072 H 856.768 -0.797172 2.84129 0
M  V30 9073 H 856.849 0.911799 2.38998 0
M  V30 9074 H 856.493 1.55164 4.83618 0
M  V30 9075 H 856.423 -0.17656 5.26304 0
M  V30 9076 H 858.914 0.277376 3.76881 0
M  V30 9077 H 859.227 1.18897 7.63599 0
M  V30 9078 H 857.572 1.0624 6.86832 0
M  V30 9079 H 860.763 0.427553 4.66143 0
M  V30 9080 H 860.936 0.84302 6.42493 0
M  V30 9081 N 854.342 -1.57594 -0.0133615 0
M  V30 9082 C 855.292 -2.04048 -1.01726 0
M  V30 9083 C 856.276 -0.932682 -1.3111 0
M  V30 9084 O 857.468 -1.19652 -1.30432 0
M  V30 9085 C 854.597 -2.53637 -2.31351 0
M  V30 9086 C 853.683 -3.71269 -2.04989 0
M  V30 9087 N 854.074 -4.83436 -1.48739 0
M  V30 9088 C 852.372 -3.78943 -2.35198 0
M  V30 9089 C 853.073 -5.64961 -1.38542 0
M  V30 9090 N 852.049 -5.10554 -1.86643 0
M  V30 9091 H 855.851 -2.88188 -0.576623 0
M  V30 9092 H 853.365 -1.60912 -0.219344 0
M  V30 9093 H 855.362 -2.85186 -3.04096 0
M  V30 9094 H 854.022 -1.7091 -2.76079 0
M  V30 9095 H 855.033 -5.04558 -1.16798 0
M  V30 9096 H 851.71 -3.07047 -2.82893 0
M  V30 9097 H 853.1 -6.65092 -0.954075 0
M  V30 9098 N 855.82 0.285905 -1.54985 0
M  V30 9099 C 856.75 1.35752 -1.89983 0
M  V30 9100 C 857.731 1.52163 -0.760295 0
M  V30 9101 O 858.916 1.65421 -1.01733 0
M  V30 9102 C 856.046 2.71925 -2.16042 0
M  V30 9103 C 855 2.70261 -3.31878 0
M  V30 9104 C 854.326 4.09864 -3.43388 0
M  V30 9105 C 855.626 2.30667 -4.68604 0
M  V30 9106 H 857.32 1.06709 -2.79738 0
M  V30 9107 H 854.866 0.511884 -1.34595 0
M  V30 9108 H 856.819 3.46992 -2.39113 0
M  V30 9109 H 855.543 3.02523 -1.23074 0
M  V30 9110 H 854.202 1.97651 -3.08755 0
M  V30 9111 H 853.85 4.37664 -2.47909 0
M  V30 9112 H 853.55 4.09648 -4.21262 0
M  V30 9113 H 855.074 4.86689 -3.68736 0
M  V30 9114 H 856.488 2.95453 -4.91305 0
M  V30 9115 H 854.885 2.41637 -5.49301 0
M  V30 9116 H 855.955 1.25793 -4.68299 0
M  V30 9117 N 857.298 1.47698 0.54982 0
M  V30 9118 C 858.523 1.58579 1.33669 0
M  V30 9119 C 858.948 0.239049 1.86575 0
M  V30 9120 O 858.306 -0.786256 1.63364 0
M  V30 9121 C 858.354 2.62029 2.47736 0
M  V30 9122 O 857.458 2.17813 3.50188 0
M  V30 9123 H 856.799 0.532447 0.396732 0
M  V30 9124 H 859.329 1.93536 0.6637 0
M  V30 9125 H 859.339 2.82682 2.94202 0
M  V30 9126 H 858.014 3.59812 2.08586 0
M  V30 9127 H 856.591 2.07291 3.09976 0
M  V30 9128 N 858.776 -0.797141 1.35954 0
M  V30 9129 C 859.706 -1.92387 1.32323 0
M  V30 9130 C 860.687 -1.68967 0.196007 0
M  V30 9131 O 861.872 -1.90193 0.39245 0
M  V30 9132 C 859.002 -3.29286 1.10398 0
M  V30 9133 C 857.956 -3.67212 2.19862 0
M  V30 9134 C 857.282 -5.02377 1.8309 0
M  V30 9135 C 858.582 -3.76602 3.61896 0
M  V30 9136 H 860.276 -1.95683 2.26602 0
M  V30 9137 H 857.822 -0.94007 1.09081 0
M  V30 9138 H 859.775 -4.07721 1.06495 0
M  V30 9139 H 858.499 -3.26358 0.125668 0
M  V30 9140 H 857.158 -2.91069 2.22878 0
M  V30 9141 H 856.806 -4.95961 0.838527 0
M  V30 9142 H 856.506 -5.28722 2.56372 0
M  V30 9143 H 858.03 -5.8324 1.80729 0
M  V30 9144 H 859.444 -4.45246 3.6115 0
M  V30 9145 H 857.841 -4.14425 4.34018 0
M  V30 9146 H 858.911 -2.77906 3.97361 0
M  V30 9147 N 860.254 -1.20106 -1.0204 0
M  V30 9148 C 861.217 -0.948261 -2.08664 0
M  V30 9149 C 862.217 0.0746753 -1.60627 0
M  V30 9150 O 863.407 -0.160981 -1.73455 0
M  V30 9151 C 860.539 -0.426854 -3.38217 0
M  V30 9152 H 861.732 -1.894 -2.32524 0
M  V30 9153 H 859.285 -1.0159 -1.18782 0
M  V30 9154 H 860.02 0.524532 -3.2003 0
M  V30 9155 H 859.805 -1.16451 -3.74408 0
M  V30 9156 H 861.295 -0.269346 -4.1673 0
M  V30 9157 N 861.732 1.21287 -1.00634 0
M  V30 9158 C 862.682 2.21541 -0.53886 0
M  V30 9159 C 863.666 1.55842 0.400256 0
M  V30 9160 O 864.858 1.75566 0.224889 0
M  V30 9161 C 861.987 3.43047 0.131796 0
M  V30 9162 C 861.073 4.1593 -0.828419 0
M  V30 9163 N 861.464 4.65359 -1.98178 0
M  V30 9164 C 859.762 4.41281 -0.647083 0
M  V30 9165 C 860.463 5.21079 -2.58557 0
M  V30 9166 N 859.439 5.10531 -1.86705 0
M  V30 9167 H 863.241 2.57413 -1.41831 0
M  V30 9168 H 860.755 1.37109 -0.870338 0
M  V30 9169 H 862.752 4.14079 0.484178 0
M  V30 9170 H 861.412 3.08683 1.00721 0
M  V30 9171 H 862.423 4.60896 -2.3621 0
M  V30 9172 H 859.1 4.17107 0.181139 0
M  V30 9173 H 860.49 5.6977 -3.56107 0
M  V30 9174 N 863.21 0.781244 1.36873 0
M  V30 9175 C 864.158 0.161889 2.32036 0
M  V30 9176 C 865.152 -0.674225 1.55405 0
M  V30 9177 O 866.358 -0.570223 1.70729 0
M  V30 9178 H 862.733 0.0335702 0.75125 0
M  V30 9179 H 864.704 0.980078 2.81846 0
M  V30 9180 C 863.453 -0.695352 3.40676 0
M  V30 9181 H 862.776 -0.0613425 3.99753 0
M  V30 9182 H 864.216 -1.09553 4.09602 0
M  V30 9183 C 862.675 -1.85008 2.81556 0
M  V30 9184 O 863.205 -2.94616 2.73065 0
M  V30 9185 N 861.411 -1.65364 2.38962 0
M  V30 9186 H 860.958 -0.762106 2.46068 0
M  V30 9187 H 860.916 -2.42789 1.99752 0
M  V30 9188 N 864.689 -1.48329 0.532571 0
M  V30 9189 C 865.637 -2.31336 -0.242133 0
M  V30 9190 C 866.631 -1.41391 -0.933006 0
M  V30 9191 O 867.837 -1.58284 -0.857096 0
M  V30 9192 H 864.212 -0.745724 -0.0969536 0
M  V30 9193 H 866.183 -2.94555 0.477504 0
M  V30 9194 C 864.932 -3.23501 -1.27446 0
M  V30 9195 H 864.255 -3.92659 -0.752261 0
M  V30 9196 H 865.695 -3.84461 -1.78789 0
M  V30 9197 C 864.154 -2.45288 -2.30944 0
M  V30 9198 O 864.684 -2.17955 -3.37429 0
M  V30 9199 N 862.89 -2.06737 -2.04226 0
M  V30 9200 H 862.437 -2.29166 -1.17647 0
M  V30 9201 H 862.395 -1.54719 -2.73696 0
M  V30 9202 N 866.167 -0.267825 -1.55308 0
M  V30 9203 C 867.416 0.351635 -1.98611 0
M  V30 9204 C 867.729 1.57522 -1.15957 0
M  V30 9205 O 868.935 2.26717 -1.49371 0
M  V30 9206 C 867.391 0.676986 -3.53475 0
M  V30 9207 C 866.999 -0.526385 -4.44897 0
M  V30 9208 C 868.743 1.25948 -4.05386 0
M  V30 9209 C 866.65 -0.176026 -5.91138 0
M  V30 9210 H 865.58 0.13516 -0.741787 0
M  V30 9211 H 868.231 -0.371333 -1.79704 0
M  V30 9212 H 866.613 1.45866 -3.68156 0
M  V30 9213 H 867.787 -1.30339 -4.41982 0
M  V30 9214 H 866.102 -1.02522 -4.03582 0
M  V30 9215 H 868.699 1.53529 -5.12184 0
M  V30 9216 H 869.042 2.19094 -3.53982 0
M  V30 9217 H 869.575 0.540253 -3.94114 0
M  V30 9218 H 866.314 -1.07518 -6.46622 0
M  V30 9219 H 865.834 0.564363 -5.97139 0
M  V30 9220 H 867.513 0.234365 -6.46575 0
M  V30 9221 N 867.645 1.57599 0.00500368 0
M  V30 9222 C 868.595 2.04585 1.00643 0
M  V30 9223 C 869.579 0.939622 1.30614 0
M  V30 9224 O 870.771 1.20342 1.29796 0
M  V30 9225 C 867.9 2.5486 2.30002 0
M  V30 9226 C 866.986 3.7235 2.03017 0
M  V30 9227 N 867.377 4.84218 1.46173 0
M  V30 9228 C 865.675 3.80185 2.33185 0
M  V30 9229 C 866.376 5.65688 1.35544 0
M  V30 9230 N 865.352 5.11536 1.83933 0
M  V30 9231 H 869.154 2.8849 0.561332 0
M  V30 9232 H 866.668 1.61026 0.210808 0
M  V30 9233 H 868.665 2.86794 3.0258 0
M  V30 9234 H 867.325 1.72372 2.75169 0
M  V30 9235 H 868.336 5.0517 1.1412 0
M  V30 9236 H 865.013 3.08543 2.81261 0
M  V30 9237 H 866.403 6.65588 0.918791 0
M  V30 9238 N 869.123 -0.277682 1.55134 0
M  V30 9239 C 870.348 -1.03254 1.7987 0
M  V30 9240 C 870.773 -1.79324 0.567861 0
M  V30 9241 O 870.131 -1.74764 -0.4824 0
M  V30 9242 C 870.179 -1.9705 3.02 0
M  V30 9243 O 869.283 -3.05744 2.76757 0
M  V30 9244 H 868.624 -0.295447 0.594649 0
M  V30 9245 H 871.154 -0.308013 2.02268 0
M  V30 9246 H 871.164 -2.3909 3.30606 0
M  V30 9247 H 869.839 -1.41094 3.91236 0
M  V30 9248 H 868.416 -2.68052 2.59235 0
M  V30 9249 N 870.601 -1.47988 -0.541979 0
M  V30 9250 C 871.533 -1.5769 -1.66332 0
M  V30 9251 C 872.546 -0.461994 -1.56107 0
M  V30 9252 O 873.735 -0.732306 -1.62787 0
M  V30 9253 C 870.835 -1.47939 -3.04905 0
M  V30 9254 C 870.008 -2.74263 -3.40733 0
M  V30 9255 C 869.067 -2.58133 -4.58534 0
M  V30 9256 O 868.093 -3.31991 -4.62354 0
M  V30 9257 N 869.295 -1.6696 -5.55972 0
M  V30 9258 H 872.06 -2.54389 -1.5845 0
M  V30 9259 H 869.621 -1.4456 -0.728979 0
M  V30 9260 H 871.613 -1.34861 -3.81569 0
M  V30 9261 H 870.183 -0.592626 -3.06931 0
M  V30 9262 H 869.403 -3.01992 -2.53366 0
M  V30 9263 H 870.691 -3.58094 -3.6145 0
M  V30 9264 H 870.089 -1.06134 -5.55655 0
M  V30 9265 H 868.646 -1.59826 -6.31901 0
M  V30 9266 N 872.079 0.78992 -1.36375 0
M  V30 9267 C 873.325 1.55007 -1.3077 0
M  V30 9268 C 873.658 1.93871 0.112979 0
M  V30 9269 O 872.933 1.6267 1.06625 0
M  V30 9270 C 873.216 2.82748 -2.22993 0
M  V30 9271 C 873.069 2.50253 -3.73756 0
M  V30 9272 C 874.388 3.84569 -2.13998 0
M  V30 9273 H 871.507 0.562362 -0.476359 0
M  V30 9274 H 874.149 0.907582 -1.66922 0
M  V30 9275 H 872.299 3.37573 -1.92292 0
M  V30 9276 H 873.971 2.01482 -4.14973 0
M  V30 9277 H 872.214 1.83203 -3.93216 0
M  V30 9278 H 872.885 3.41487 -4.33694 0
M  V30 9279 H 875.361 3.39188 -2.4102 0
M  V30 9280 H 874.237 4.717 -2.80697 0
M  V30 9281 H 874.498 4.27491 -1.12711 0
M  V30 9282 N 873.557 1.20646 1.01402 0
M  V30 9283 C 874.782 1.04462 1.79172 0
M  V30 9284 C 875.207 -0.401588 1.83763 0
M  V30 9285 O 874.565 -1.28934 1.27459 0
M  V30 9286 C 874.613 1.63583 3.21361 0
M  V30 9287 O 873.717 0.875198 4.03006 0
M  V30 9288 H 873.058 0.368235 0.552539 0
M  V30 9289 H 875.588 1.59994 1.27526 0
M  V30 9290 H 875.598 1.67426 3.72065 0
M  V30 9291 H 874.273 2.68835 3.17334 0
M  V30 9292 H 872.85 0.911172 3.61597 0
M  V30 9293 N 875.035 -1.20752 1.01276 0
M  V30 9294 C 875.967 -2.22798 0.537917 0
M  V30 9295 C 876.98 -1.5836 -0.377638 0
M  V30 9296 O 878.169 -1.77624 -0.176599 0
M  V30 9297 C 875.269 -3.38068 -0.237364 0
M  V30 9298 C 874.442 -4.32095 0.679161 0
M  V30 9299 C 873.501 -5.26178 -0.0478676 0
M  V30 9300 O 872.527 -5.66305 0.573366 0
M  V30 9301 N 873.729 -5.65201 -1.32396 0
M  V30 9302 H 876.494 -2.64166 1.4155 0
M  V30 9303 H 874.055 -1.35254 0.889826 0
M  V30 9304 H 876.047 -3.98009 -0.73288 0
M  V30 9305 H 874.617 -2.95622 -1.0162 0
M  V30 9306 H 873.837 -3.70179 1.35505 0
M  V30 9307 H 875.125 -4.91842 1.30263 0
M  V30 9308 H 874.523 -5.34606 -1.84968 0
M  V30 9309 H 873.08 -6.27468 -1.76428 0
M  V30 9310 N 876.513 -0.788492 -1.36457 0
M  V30 9311 C 877.445 -0.144208 -2.28746 0
M  V30 9312 C 878.458 0.646009 -1.49434 0
M  V30 9313 O 879.647 0.481344 -1.71888 0
M  V30 9314 C 876.747 0.818869 -3.28858 0
M  V30 9315 C 875.92 0.0789055 -4.37329 0
M  V30 9316 C 874.979 0.957791 -5.1741 0
M  V30 9317 O 874.005 0.415378 -5.67682 0
M  V30 9318 N 875.207 2.28216 -5.33758 0
M  V30 9319 H 877.972 -0.936949 -2.84678 0
M  V30 9320 H 875.533 -0.642317 -1.48613 0
M  V30 9321 H 877.525 1.41065 -3.79319 0
M  V30 9322 H 876.095 1.51249 -2.73573 0
M  V30 9323 H 875.315 -0.693939 -3.88044 0
M  V30 9324 H 876.603 -0.431753 -5.06965 0
M  V30 9325 H 876.001 2.747 -4.94527 0
M  V30 9326 H 874.558 2.8236 -5.87466 0
M  V30 9327 N 877.991 1.48044 -0.54043 0
M  V30 9328 C 878.921 2.32597 0.205178 0
M  V30 9329 C 879.902 1.42748 0.925041 0
M  V30 9330 O 881.087 1.71624 0.908784 0
M  V30 9331 C 878.217 3.24175 1.24612 0
M  V30 9332 C 877.171 4.23131 0.64376 0
M  V30 9333 C 876.497 5.03915 1.78812 0
M  V30 9334 C 877.797 5.20831 -0.39144 0
M  V30 9335 H 879.491 2.95184 -0.500676 0
M  V30 9336 H 877.037 1.41948 -0.242225 0
M  V30 9337 H 878.99 3.82158 1.77576 0
M  V30 9338 H 877.714 2.59608 1.98169 0
M  V30 9339 H 876.373 3.66349 0.135554 0
M  V30 9340 H 876.021 4.35765 2.51232 0
M  V30 9341 H 875.721 5.709 1.39094 0
M  V30 9342 H 877.245 5.64753 2.32134 0
M  V30 9343 H 878.659 5.73277 0.0515064 0
M  V30 9344 H 877.056 5.95926 -0.706569 0
M  V30 9345 H 878.126 4.6733 -1.29345 0
M  V30 9346 N 879.47 0.276058 1.55163 0
M  V30 9347 C 880.71 -0.341634 2.01525 0
M  V30 9348 C 881.074 -1.52979 1.16023 0
M  V30 9349 O 882.275 -2.21718 1.51968 0
M  V30 9350 C 880.546 -0.713294 3.5021 0
M  V30 9351 S 882.105 -1.31739 4.18558 0
M  V30 9352 H 878.923 -0.1062 0.703024 0
M  V30 9353 H 881.525 0.398112 1.91404 0
M  V30 9354 H 880.229 0.160311 4.10087 0
M  V30 9355 H 879.76 -1.48448 3.64317 0
M  V30 9356 H 881.775 -2.60595 4.22261 0
M  V30 9357 N 880.948 -1.576 0.00335426 0
M  V30 9358 C 882.173 -1.95398 -0.695311 0
M  V30 9359 C 882.598 -0.878476 -1.66326 0
M  V30 9360 O 881.956 0.163086 -1.80565 0
M  V30 9361 C 882.004 -3.32293 -1.40049 0
M  V30 9362 O 881.108 -3.26834 -2.51502 0
M  V30 9363 H 880.449 -0.637796 -0.184694 0
M  V30 9364 H 882.979 -2.04519 0.057543 0
M  V30 9365 H 882.989 -3.67936 -1.76316 0
M  V30 9366 H 881.664 -4.10123 -0.690803 0
M  V30 9367 H 880.241 -3.02872 -2.17539 0
M  V30 9368 N 882.426 0.269451 -1.5528 0
M  V30 9369 C 883.654 1.01872 -1.80082 0
M  V30 9370 C 884.069 1.79802 -0.575917 0
M  V30 9371 O 883.426 1.76735 0.455081 0
M  V30 9372 C 883.477 1.9745 -3.02813 0
M  V30 9373 O 883.198 1.22677 -4.20573 0
M  V30 9374 C 884.699 2.8416 -3.40247 0
M  V30 9375 H 881.919 0.300781 -0.59981 0
M  V30 9376 H 884.463 0.29916 -2.023 0
M  V30 9377 H 882.618 2.64864 -2.82712 0
M  V30 9378 H 883.032 1.87129 -4.89982 0
M  V30 9379 H 884.506 3.47014 -4.29284 0
M  V30 9380 H 884.983 3.54113 -2.59809 0
M  V30 9381 H 885.589 2.22232 -3.6262 0
M  V30 9382 N 883.904 1.48273 0.534124 0
M  V30 9383 C 885.129 1.59988 1.31979 0
M  V30 9384 C 885.554 0.258824 1.86311 0
M  V30 9385 O 884.912 -0.768885 1.64188 0
M  V30 9386 C 884.96 2.64642 2.44943 0
M  V30 9387 O 884.064 2.21515 3.47858 0
M  V30 9388 H 883.405 0.536625 0.391063 0
M  V30 9389 H 885.935 1.94229 0.643135 0
M  V30 9390 H 885.945 2.85786 2.91187 0
M  V30 9391 H 884.62 3.62004 2.04758 0
M  V30 9392 H 883.197 2.10567 3.0776 0
M  V30 9393 N 885.382 -0.782676 1.36792 0
M  V30 9394 C 886.312 -1.90973 1.34356 0
M  V30 9395 C 887.293 -1.6875 0.213917 0
M  V30 9396 O 888.478 -1.89766 0.412601 0
M  V30 9397 C 885.608 -3.28097 1.13884 0
M  V30 9398 C 884.562 -3.6486 2.23744 0
M  V30 9399 C 883.888 -5.00406 1.88408 0
M  V30 9400 C 885.188 -3.72742 3.6587 0
M  V30 9401 H 886.882 -1.93268 2.28665 0
M  V30 9402 H 884.428 -0.928447 1.10072 0
M  V30 9403 H 886.381 -4.06569 1.10813 0
M  V30 9404 H 885.105 -3.26206 0.160275 0
M  V30 9405 H 883.764 -2.88689 2.25952 0
M  V30 9406 H 883.412 -4.95044 0.891083 0
M  V30 9407 H 883.112 -5.25973 2.61966 0
M  V30 9408 H 884.636 -5.81291 1.86905 0
M  V30 9409 H 886.05 -4.4139 3.65852 0
M  V30 9410 H 884.447 -4.09798 4.38389 0
M  V30 9411 H 885.517 -2.73676 4.00287 0
M  V30 9412 N 886.86 -1.21182 -1.00761 0
M  V30 9413 C 888.276 -0.968607 -1.26847 0
M  V30 9414 C 888.476 0.346561 -1.98497 0
M  V30 9415 O 887.532 1.07287 -2.28573 0
M  V30 9416 C 888.845 -2.1574 -2.09467 0
M  V30 9417 C 890.393 -2.19937 -2.22703 0
M  V30 9418 C 890.868 -3.38328 -3.08704 0
M  V30 9419 N 892.359 -3.38398 -3.16293 0
M  V30 9420 C 893.094 -4.26653 -3.83086 0
M  V30 9421 N 892.59 -5.25101 -4.5193 0
M  V30 9422 N 894.383 -4.14469 -3.797 0
M  V30 9423 H 886.534 -2.05763 -0.526816 0
M  V30 9424 H 888.797 -0.90087 -0.29519 0
M  V30 9425 H 888.503 -3.11034 -1.64167 0
M  V30 9426 H 888.377 -2.14584 -3.10216 0
M  V30 9427 H 890.764 -1.25201 -2.67224 0
M  V30 9428 H 890.845 -2.25139 -1.21433 0
M  V30 9429 H 890.489 -4.33356 -2.64886 0
M  V30 9430 H 890.419 -3.30364 -4.10082 0
M  V30 9431 H 892.91 -2.67149 -2.67282 0
M  V30 9432 H 893.223 -5.8875 -5.00592 0
M  V30 9433 H 891.568 -5.29029 -4.50726 0
M  V30 9434 H 894.759 -3.3682 -3.25069 0
M  V30 9435 H 894.932 -4.83458 -4.31477 0
M  V30 9436 N 888.338 1.20213 -1.01915 0
M  V30 9437 C 889.301 2.21307 -0.596327 0
M  V30 9438 C 890.301 1.57274 0.334879 0
M  V30 9439 O 891.491 1.73764 0.12322 0
M  V30 9440 C 888.623 3.40657 0.128808 0
M  V30 9441 H 889.816 2.60228 -1.49068 0
M  V30 9442 H 887.369 1.33721 -0.809226 0
M  V30 9443 H 888.104 3.07241 1.03796 0
M  V30 9444 H 887.889 3.88361 -0.540183 0
M  V30 9445 H 889.379 4.15564 0.411892 0
M  V30 9446 N 889.816 0.795718 1.36037 0
M  V30 9447 C 890.746 0.212803 2.32528 0
M  V30 9448 C 891.727 -0.655716 1.56953 0
M  V30 9449 O 892.912 -0.588238 1.85077 0
M  V30 9450 C 890.042 -0.648189 3.41198 0
M  V30 9451 C 888.996 0.120948 4.27829 0
M  V30 9452 C 888.322 -0.861044 5.27722 0
M  V30 9453 C 889.622 1.31375 5.05508 0
M  V30 9454 H 891.316 1.01893 2.81528 0
M  V30 9455 H 888.862 0.491422 1.35355 0
M  V30 9456 H 890.815 -1.06597 4.07695 0
M  V30 9457 H 889.539 -1.48709 2.9078 0
M  V30 9458 H 888.198 0.519777 3.62897 0
M  V30 9459 H 887.846 -1.69515 4.73575 0
M  V30 9460 H 887.546 -0.350808 5.86552 0
M  V30 9461 H 889.07 -1.27726 5.97092 0
M  V30 9462 H 890.484 0.971406 5.6501 0
M  V30 9463 H 888.881 1.75772 5.73781 0
M  V30 9464 H 889.951 2.10593 4.36782 0
M  V30 9465 N 891.294 -1.47756 0.548274 0
M  V30 9466 C 892.571 -1.9555 -0.0443603 0
M  V30 9467 C 892.951 -1.49079 -1.49462 0
M  V30 9468 O 892.299 -0.725538 -2.16675 0
M  V30 9469 C 892.509 -3.48879 0.0918425 0
M  V30 9470 C 893.857 -4.2456 -0.0580879 0
M  V30 9471 O 894.881 -3.56195 0.018946 0
M  V30 9472 O 893.74 -5.46048 -0.222261 0
M  V30 9473 H 890.834 -0.824106 -0.0691235 0
M  V30 9474 H 893.38 -1.58196 0.614166 0
M  V30 9475 H 892.152 -3.7548 1.10137 0
M  V30 9476 H 891.775 -3.92975 -0.604704 0
M  V30 9477 N 892.772 -0.284283 -1.55015 0
M  V30 9478 C 894.019 0.329864 -1.99795 0
M  V30 9479 C 894.347 1.55171 -1.1727 0
M  V30 9480 O 893.602 1.94312 -0.232667 0
M  V30 9481 C 893.901 0.747219 -3.49502 0
M  V30 9482 C 893.567 -0.37101 -4.49371 0
M  V30 9483 C 892.229 -0.678034 -4.76399 0
M  V30 9484 C 894.581 -1.12406 -5.08935 0
M  V30 9485 C 891.909 -1.74152 -5.60257 0
M  V30 9486 C 894.261 -2.17734 -5.93948 0
M  V30 9487 C 892.925 -2.49061 -6.19294 0
M  V30 9488 H 892.195 0.120706 -0.731103 0
M  V30 9489 H 894.842 -0.399904 -1.87278 0
M  V30 9490 H 893.147 1.55681 -3.59542 0
M  V30 9491 H 894.844 1.2333 -3.81563 0
M  V30 9492 H 891.434 -0.1216 -4.28427 0
M  V30 9493 H 895.618 -0.900119 -4.88069 0
M  V30 9494 H 890.874 -1.98915 -5.78137 0
M  V30 9495 H 895.048 -2.76553 -6.39133 0
M  V30 9496 H 892.675 -3.31602 -6.84064 0
M  V30 9497 N 894.251 1.57596 -0.0117121 0
M  V30 9498 C 895.476 1.95764 0.684938 0
M  V30 9499 C 895.901 0.887285 1.65858 0
M  V30 9500 O 895.259 -0.153508 1.80649 0
M  V30 9501 C 895.307 3.33031 1.38285 0
M  V30 9502 O 894.411 3.28163 2.49765 0
M  V30 9503 H 893.752 0.638767 0.181309 0
M  V30 9504 H 896.282 2.04486 -0.0683883 0
M  V30 9505 H 896.292 3.68866 1.74362 0
M  V30 9506 H 894.967 4.10483 0.669043 0
M  V30 9507 H 893.544 3.04021 2.15929 0
M  V30 9508 N 895.729 -0.261212 1.5542 0
M  V30 9509 C 896.977 -0.989272 1.76232 0
M  V30 9510 C 897.298 -1.86389 0.573067 0
M  V30 9511 O 896.568 -1.91526 -0.41166 0
M  V30 9512 H 895.148 -0.368256 0.64992 0
M  V30 9513 H 897.81 -0.282603 1.9284 0
M  V30 9514 H 896.906 -1.61935 2.66802 0
M  V30 9515 N 897.207 -1.48554 -0.526253 0
M  V30 9516 C 898.155 -1.63804 -1.65139 0
M  V30 9517 C 899.149 -0.504398 -1.61716 0
M  V30 9518 O 900.355 -0.683241 -1.66529 0
M  V30 9519 H 896.73 -0.516071 -0.546969 0
M  V30 9520 H 898.701 -2.58294 -1.49421 0
M  V30 9521 C 897.45 -1.69843 -3.03395 0
M  V30 9522 H 896.773 -2.56438 -3.06724 0
M  V30 9523 H 898.213 -1.84555 -3.81727 0
M  V30 9524 C 896.672 -0.437875 -3.34042 0
M  V30 9525 O 897.202 0.447604 -3.99198 0
M  V30 9526 N 895.408 -0.308444 -2.88958 0
M  V30 9527 H 894.955 -1.02998 -2.36112 0
M  V30 9528 H 894.913 0.533952 -3.09833 0
M  V30 9529 N 898.685 0.775411 -1.37205 0
M  V30 9530 C 899.648 1.8702 -1.325 0
M  V30 9531 C 900.648 1.5915 -0.229793 0
M  V30 9532 O 901.838 1.673 -0.485423 0
M  V30 9533 C 898.97 3.24085 -1.05745 0
M  V30 9534 H 900.163 1.92604 -2.29878 0
M  V30 9535 H 897.716 0.97476 -1.22181 0
M  V30 9536 H 898.451 3.24178 -0.0888371 0
M  V30 9537 H 898.236 3.45705 -1.85016 0
M  V30 9538 H 899.726 4.0416 -1.05094 0
M  V30 9539 N 900.163 1.21714 1.00117 0
M  V30 9540 C 901.093 1.00397 2.10815 0
M  V30 9541 C 902.074 -0.0723502 1.69946 0
M  V30 9542 O 903.259 0.0882398 1.93999 0
M  V30 9543 C 900.389 0.572001 3.42557 0
M  V30 9544 C 899.343 1.59331 3.97237 0
M  V30 9545 C 898.669 1.01746 5.2493 0
M  V30 9546 C 899.969 2.98117 4.28863 0
M  V30 9547 H 901.663 1.92983 2.28906 0
M  V30 9548 H 899.209 0.929273 1.10002 0
M  V30 9549 H 901.162 0.410018 4.19401 0
M  V30 9550 H 899.886 -0.38951 3.24269 0
M  V30 9551 H 898.545 1.74293 3.22518 0
M  V30 9552 H 898.193 0.0475491 5.02978 0
M  V30 9553 H 897.893 1.69969 5.62481 0
M  V30 9554 H 899.417 0.866881 6.04415 0
M  V30 9555 H 900.831 2.86578 4.96534 0
M  V30 9556 H 899.228 3.63389 4.77565 0
M  V30 9557 H 900.298 3.48674 3.36979 0
M  V30 9558 N 901.641 -1.19671 1.02551 0
M  V30 9559 C 902.889 -1.88894 0.71858 0
M  V30 9560 C 903.21 -1.79797 -0.754856 0
M  V30 9561 O 902.48 -1.20621 -1.54362 0
M  V30 9562 H 901.06 -0.699244 0.262806 0
M  V30 9563 H 903.722 -1.45298 1.29902 0
M  V30 9564 H 902.818 -2.95309 1.00989 0
M  V30 9565 N 903.119 -0.802921 -1.35613 0
M  V30 9566 C 904.069 -0.183492 -2.2726 0
M  V30 9567 C 905.053 0.640527 -1.47601 0
M  V30 9568 O 906.245 0.498386 -1.69838 0
M  V30 9569 C 903.374 0.67003 -3.36698 0
M  V30 9570 C 902.46 -0.163517 -4.23785 0
M  V30 9571 N 902.851 -1.22472 -4.90749 0
M  V30 9572 C 901.149 0.0554547 -4.45966 0
M  V30 9573 C 901.85 -1.73329 -5.55276 0
M  V30 9574 N 900.826 -1.04033 -5.33552 0
M  V30 9575 H 904.628 -0.995525 -2.76526 0
M  V30 9576 H 902.142 -0.643714 -1.49098 0
M  V30 9577 H 904.139 1.12981 -4.01299 0
M  V30 9578 H 902.799 1.48045 -2.88986 0
M  V30 9579 H 903.81 -1.60733 -4.92327 0
M  V30 9580 H 900.487 0.835312 -4.09058 0
M  V30 9581 H 901.877 -2.62 -6.18713 0
M  V30 9582 N 904.597 1.47463 -0.556102 0
M  V30 9583 C 905.53 2.26934 0.240027 0
M  V30 9584 C 906.508 1.33981 0.921297 0
M  V30 9585 O 907.692 1.63361 0.940506 0
M  V30 9586 C 904.819 3.10982 1.34194 0
M  V30 9587 C 903.865 4.19504 0.769342 0
M  V30 9588 S 904.698 5.34127 -0.383209 0
M  V30 9589 C 905.854 6.21739 0.720548 0
M  V30 9590 H 906.087 2.9411 -0.434348 0
M  V30 9591 H 903.62 1.50556 -0.342402 0
M  V30 9592 H 905.578 3.59976 1.973 0
M  V30 9593 H 904.239 2.4317 1.98814 0
M  V30 9594 H 903.432 4.78036 1.59679 0
M  V30 9595 H 903.034 3.73385 0.214475 0
M  V30 9596 H 905.326 6.58021 1.61292 0
M  V30 9597 H 906.269 7.0789 0.172602 0
M  V30 9598 H 906.677 5.55342 1.01272 0
M  V30 9599 N 906.075 0.2925 1.54862 0
M  V30 9600 C 907.321 -0.312645 2.00983 0
M  V30 9601 C 907.676 -1.52174 1.17732 0
M  V30 9602 O 906.969 -1.90045 0.243581 0
M  V30 9603 C 907.163 -0.728674 3.49893 0
M  V30 9604 C 906.992 0.438562 4.47556 0
M  V30 9605 C 905.762 0.927885 4.96708 0
M  V30 9606 C 907.96 1.28076 4.98097 0
M  V30 9607 N 905.942 2.06277 5.78207 0
M  V30 9608 C 907.313 2.26326 5.77214 0
M  V30 9609 C 909.368 1.31211 4.803 0
M  V30 9610 C 908.071 3.27478 6.4043 0
M  V30 9611 C 910.097 2.31216 5.44328 0
M  V30 9612 C 909.459 3.28197 6.23271 0
M  V30 9613 H 905.558 -0.0790979 0.777989 0
M  V30 9614 H 908.142 0.420481 1.90105 0
M  V30 9615 H 906.313 -1.43099 3.61078 0
M  V30 9616 H 908.045 -1.31263 3.82821 0
M  V30 9617 H 904.8 0.504272 4.70908 0
M  V30 9618 H 905.224 2.63436 6.23643 0
M  V30 9619 H 909.866 0.576079 4.18857 0
M  V30 9620 H 907.584 4.02005 7.01012 0
M  V30 9621 H 911.17 2.34405 5.3249 0
M  V30 9622 H 910.05 4.04314 6.71937 0
M  V30 9623 N 907.553 -1.57587 0.0200696 0
M  V30 9624 C 908.516 -2.08595 -0.949767 0
M  V30 9625 C 909.516 -0.999215 -1.25985 0
M  V30 9626 O 910.706 -1.26115 -1.2017 0
M  V30 9627 C 907.838 -2.54424 -2.26895 0
M  V30 9628 H 909.031 -2.95563 -0.508161 0
M  V30 9629 H 906.584 -1.54631 -0.227798 0
M  V30 9630 H 907.319 -1.70758 -2.75703 0
M  V30 9631 H 907.104 -3.3381 -2.05702 0
M  V30 9632 H 908.594 -2.94144 -2.96427 0
M  V30 9633 N 909.032 0.252966 -1.55557 0
M  V30 9634 C 909.942 1.33472 -1.92931 0
M  V30 9635 C 910.958 1.52983 -0.828985 0
M  V30 9636 O 912.134 1.66723 -1.12984 0
M  V30 9637 C 909.199 2.6704 -2.21112 0
M  V30 9638 C 908.26 2.56103 -3.44542 0
M  V30 9639 C 907.493 3.83302 -3.71369 0
M  V30 9640 O 907.716 4.84907 -3.00368 0
M  V30 9641 O 906.65 3.823 -4.64898 0
M  V30 9642 H 910.476 1.04768 -2.85057 0
M  V30 9643 H 908.061 0.453208 -1.4236 0
M  V30 9644 H 909.943 3.45981 -2.40572 0
M  V30 9645 H 908.618 2.95489 -1.32166 0
M  V30 9646 H 907.525 1.7547 -3.30396 0
M  V30 9647 H 908.858 2.32601 -4.33772 0
M  V30 9648 N 910.51 1.48831 0.518367 0
M  V30 9649 C 911.758 1.57128 1.27103 0
M  V30 9650 C 912.079 0.252098 1.93364 0
M  V30 9651 O 911.349 -0.727281 1.819 0
M  V30 9652 H 909.929 0.578891 0.472116 0
M  V30 9653 H 912.591 1.85361 0.602262 0
M  V30 9654 H 911.687 2.35838 2.04418 0
M  V30 9655 N 911.988 -0.768124 1.37614 0
M  V30 9656 C 913.265 -1.51637 1.23554 0
M  V30 9657 C 913.645 -2.1042 -0.169331 0
M  V30 9658 O 912.993 -1.95834 -1.17735 0
M  V30 9659 C 913.203 -2.59436 2.33439 0
M  V30 9660 C 914.551 -3.2674 2.71157 0
M  V30 9661 O 915.575 -2.69733 2.32642 0
M  V30 9662 O 914.434 -4.29814 3.37524 0
M  V30 9663 H 911.528 -0.671778 0.482332 0
M  V30 9664 H 914.074 -0.804779 1.49403 0
M  V30 9665 H 912.846 -2.14146 3.27502 0
M  V30 9666 H 912.469 -3.38192 2.09073 0
M  V30 9667 N 913.466 -1.22244 -0.994698 0
M  V30 9668 C 914.396 -1.01513 -2.10279 0
M  V30 9669 C 915.377 0.0633365 -1.69982 0
M  V30 9670 O 916.562 -0.0985268 -1.9395 0
M  V30 9671 C 913.692 -0.59016 -3.42249 0
M  V30 9672 C 912.646 -1.61436 -3.96387 0
M  V30 9673 C 911.972 -1.04528 -5.24383 0
M  V30 9674 C 913.272 -3.00388 -4.27276 0
M  V30 9675 H 914.966 -1.94194 -2.2788 0
M  V30 9676 H 912.512 -0.935094 -1.09508 0
M  V30 9677 H 914.465 -0.432254 -4.19177 0
M  V30 9678 H 913.189 0.372308 -3.24471 0
M  V30 9679 H 911.848 -1.76001 -3.21589 0
M  V30 9680 H 911.496 -0.0742225 -5.02945 0
M  V30 9681 H 911.196 -1.72949 -5.61571 0
M  V30 9682 H 912.72 -0.898922 -6.03947 0
M  V30 9683 H 914.134 -2.89207 -4.95007 0
M  V30 9684 H 912.531 -3.65916 -4.75631 0
M  V30 9685 H 913.601 -3.50456 -3.35125 0
M  V30 9686 N 914.944 1.19125 -1.03184 0
M  V30 9687 C 916.174 1.92558 -0.748663 0
M  V30 9688 C 916.582 1.759 0.696837 0
M  V30 9689 O 915.925 1.08019 1.48585 0
M  V30 9690 C 915.987 3.4461 -1.02391 0
M  V30 9691 C 915.651 3.85041 -2.46155 0
M  V30 9692 C 916.648 3.89554 -3.44302 0
M  V30 9693 C 914.333 4.16594 -2.80633 0
M  V30 9694 C 916.327 4.25055 -4.74981 0
M  V30 9695 C 914.014 4.51767 -4.11521 0
M  V30 9696 C 915.012 4.55972 -5.08506 0
M  V30 9697 O 914.7 4.9033 -6.37049 0
M  V30 9698 H 914.432 0.618397 -0.273059 0
M  V30 9699 H 916.986 1.52122 -1.38015 0
M  V30 9700 H 915.216 3.85244 -0.335284 0
M  V30 9701 H 916.905 3.99283 -0.729927 0
M  V30 9702 H 917.671 3.65324 -3.19003 0
M  V30 9703 H 913.55 4.12503 -2.05821 0
M  V30 9704 H 917.094 4.28252 -5.50678 0
M  V30 9705 H 912.991 4.75455 -4.36592 0
M  V30 9706 H 913.759 5.08266 -6.41566 0
M  V30 9707 N 916.422 0.810101 1.35185 0
M  V30 9708 C 917.352 0.237453 2.32289 0
M  V30 9709 C 918.333 -0.639032 1.5764 0
M  V30 9710 O 919.518 -0.568575 1.8569 0
M  V30 9711 C 916.648 -0.611964 3.41866 0
M  V30 9712 C 915.602 0.166318 4.27677 0
M  V30 9713 C 914.928 -0.805024 5.28605 0
M  V30 9714 C 916.228 1.36729 5.04086 0
M  V30 9715 H 917.922 1.04874 2.80432 0
M  V30 9716 H 915.468 0.505751 1.34826 0
M  V30 9717 H 917.421 -1.02267 4.08802 0
M  V30 9718 H 916.145 -1.45617 2.92341 0
M  V30 9719 H 914.804 0.558238 3.62325 0
M  V30 9720 H 914.452 -1.64483 4.75347 0
M  V30 9721 H 914.152 -0.288577 5.86891 0
M  V30 9722 H 915.676 -1.21386 5.98413 0
M  V30 9723 H 917.09 1.03128 5.63948 0
M  V30 9724 H 915.487 1.81848 5.71884 0
M  V30 9725 H 916.557 2.15214 4.34524 0
M  V30 9726 N 917.9 -1.47166 0.563914 0
M  V30 9727 C 918.85 -2.27116 -0.20055 0
M  V30 9728 C 919.834 -1.34756 -0.879177 0
M  V30 9729 O 921.026 -1.59064 -0.776377 0
M  V30 9730 C 918.155 -3.20676 -1.22565 0
M  V30 9731 C 917.241 -4.20517 -0.550092 0
M  V30 9732 N 917.632 -5.04343 0.383662 0
M  V30 9733 C 915.93 -4.38708 -0.803186 0
M  V30 9734 C 916.631 -5.76491 0.776718 0
M  V30 9735 N 915.607 -5.43444 0.130047 0
M  V30 9736 H 919.409 -2.89312 0.517275 0
M  V30 9737 H 916.923 -1.57787 0.384334 0
M  V30 9738 H 918.92 -3.76643 -1.78733 0
M  V30 9739 H 917.58 -2.60038 -1.94449 0
M  V30 9740 H 918.591 -5.1232 0.758192 0
M  V30 9741 H 915.268 -3.89235 -1.51003 0
M  V30 9742 H 916.658 -6.5391 1.54437 0
M  V30 9743 N 919.378 -0.300708 -1.54705 0
M  V30 9744 C 920.625 0.308654 -2.00134 0
M  V30 9745 C 920.953 1.53918 -1.1891 0
M  V30 9746 O 920.208 1.94054 -0.253263 0
M  V30 9747 C 920.507 0.710108 -3.50275 0
M  V30 9748 C 920.173 -0.418651 -4.48952 0
M  V30 9749 C 918.835 -0.728524 -4.75653 0
M  V30 9750 C 921.187 -1.17797 -5.07714 0
M  V30 9751 C 918.515 -1.80085 -5.58378 0
M  V30 9752 C 920.867 -2.24022 -5.91606 0
M  V30 9753 C 919.531 -2.55616 -6.16617 0
M  V30 9754 H 918.801 0.112945 -0.732342 0
M  V30 9755 H 921.448 -0.419744 -1.86843 0
M  V30 9756 H 919.753 1.51859 -3.61173 0
M  V30 9757 H 921.45 1.19277 -3.8285 0
M  V30 9758 H 918.04 -0.167034 -4.28274 0
M  V30 9759 H 922.224 -0.951835 -4.87087 0
M  V30 9760 H 917.48 -2.05036 -5.75995 0
M  V30 9761 H 921.654 -2.83317 -6.36164 0
M  V30 9762 H 919.281 -3.38839 -6.80509 0
M  V30 9763 N 920.856 1.57574 -0.0284266 0
M  V30 9764 C 922.103 1.91772 0.650364 0
M  V30 9765 C 922.431 0.904769 1.72175 0
M  V30 9766 O 921.686 -0.0864038 1.95509 0
M  V30 9767 C 921.985 3.32699 1.3056 0
M  V30 9768 C 921.651 4.49423 0.364658 0
M  V30 9769 C 920.313 4.81084 0.105672 0
M  V30 9770 C 922.665 5.20439 -0.28151 0
M  V30 9771 C 919.993 5.81119 -0.8073 0
M  V30 9772 C 922.345 6.21449 -1.18253 0
M  V30 9773 C 921.009 6.51551 -1.45042 0
M  V30 9774 H 920.279 0.701744 0.237985 0
M  V30 9775 H 922.926 1.91288 -0.0900448 0
M  V30 9776 H 921.231 3.29441 2.12075 0
M  V30 9777 H 922.928 3.5643 1.83736 0
M  V30 9778 H 919.518 4.24703 0.576692 0
M  V30 9779 H 923.702 4.9621 -0.0944806 0
M  V30 9780 H 918.958 6.02788 -1.02256 0
M  V30 9781 H 923.132 6.75597 -1.68942 0
M  V30 9782 H 920.759 7.28882 -2.15951 0
M  V30 9783 N 922.334 -0.244713 1.55689 0
M  V30 9784 C 923.266 -1.32595 1.86952 0
M  V30 9785 C 924.279 -1.44185 0.755948 0
M  V30 9786 O 925.468 -1.45496 1.03408 0
M  V30 9787 C 922.568 -2.70429 2.04258 0
M  V30 9788 C 921.741 -2.8108 3.35131 0
M  V30 9789 C 920.8 -3.99773 3.42152 0
M  V30 9790 O 919.826 -3.89197 4.15348 0
M  V30 9791 N 921.028 -5.13041 2.71604 0
M  V30 9792 H 923.793 -1.06111 2.80287 0
M  V30 9793 H 921.354 -0.434811 1.55952 0
M  V30 9794 H 923.346 -3.48173 2.06295 0
M  V30 9795 H 921.916 -2.89612 1.17658 0
M  V30 9796 H 921.136 -1.89994 3.45392 0
M  V30 9797 H 922.424 -2.85147 4.21389 0
M  V30 9798 H 921.822 -5.24525 2.11872 0
M  V30 9799 H 920.379 -5.88912 2.79331 0
M  V30 9800 N 923.813 -1.49104 -0.510467 0
M  V30 9801 C 925.061 -1.578 -1.26268 0
M  V30 9802 C 925.382 -0.262349 -1.93227 0
M  V30 9803 O 924.652 0.717624 -1.82283 0
M  V30 9804 H 923.232 -0.581387 -0.46904 0
M  V30 9805 H 925.894 -1.85678 -0.592423 0
M  V30 9806 H 924.99 -2.36919 -2.03165 0
M  V30 9807 N 925.291 0.760815 -1.38019 0
M  V30 9808 C 926.221 1.88811 -1.37377 0
M  V30 9809 C 927.202 1.68388 -0.240737 0
M  V30 9810 O 928.387 1.89086 -0.442739 0
M  V30 9811 C 925.517 3.26244 -1.1909 0
M  V30 9812 C 924.471 3.61254 -2.29521 0
M  V30 9813 C 923.797 4.97346 -1.96345 0
M  V30 9814 C 925.097 3.66874 -3.71753 0
M  V30 9815 H 926.791 1.89606 -2.31711 0
M  V30 9816 H 924.337 0.910818 -1.11535 0
M  V30 9817 H 926.29 4.04755 -1.17267 0
M  V30 9818 H 925.014 3.2591 -0.212152 0
M  V30 9819 H 923.673 2.85057 -2.30517 0
M  V30 9820 H 923.321 4.93564 -0.969728 0
M  V30 9821 H 923.021 5.21739 -2.703 0
M  V30 9822 H 924.545 5.78244 -1.96129 0
M  V30 9823 H 925.959 4.35514 -3.72828 0
M  V30 9824 H 924.356 4.02772 -4.44853 0
M  V30 9825 H 925.426 2.67273 -4.0459 0
M  V30 9826 N 926.769 1.22769 0.988202 0
M  V30 9827 C 927.994 1.08239 1.76915 0
M  V30 9828 C 928.419 -0.362519 1.84574 0
M  V30 9829 O 927.777 -1.26202 1.30165 0
M  V30 9830 C 927.825 1.70363 3.17819 0
M  V30 9831 O 926.929 0.960484 4.01059 0
M  V30 9832 H 926.27 0.379872 0.544604 0
M  V30 9833 H 928.8 1.62663 1.24104 0
M  V30 9834 H 928.81 1.7528 3.6843 0
M  V30 9835 H 927.485 2.75505 3.1156 0
M  V30 9836 H 926.062 0.987667 3.59582 0
M  V30 9837 N 928.247 -1.18576 1.03814 0
M  V30 9838 C 929.495 -1.88121 0.738574 0
M  V30 9839 C 929.816 -1.80587 -0.735744 0
M  V30 9840 O 929.086 -1.22251 -1.53074 0
M  V30 9841 H 927.666 -0.696417 0.270208 0
M  V30 9842 H 930.328 -1.43912 1.31435 0
M  V30 9843 H 929.424 -2.94222 1.04115 0
M  V30 9844 N 929.725 -0.817259 -1.34754 0
M  V30 9845 C 930.655 -0.249769 -2.3216 0
M  V30 9846 C 931.636 0.630663 -1.57977 0
M  V30 9847 O 932.821 0.558719 -1.85989 0
M  V30 9848 C 929.951 0.593825 -3.42186 0
M  V30 9849 C 928.905 -0.188997 -4.27583 0
M  V30 9850 C 928.231 0.776979 -5.29025 0
M  V30 9851 C 929.531 -1.39401 -5.03354 0
M  V30 9852 H 931.225 -1.06359 -2.79872 0
M  V30 9853 H 928.771 -0.512894 -1.34556 0
M  V30 9854 H 930.724 1.00097 -4.09339 0
M  V30 9855 H 929.448 1.44064 -2.93109 0
M  V30 9856 H 928.107 -0.577445 -3.62024 0
M  V30 9857 H 927.755 1.61959 -4.76212 0
M  V30 9858 H 927.455 0.257448 -5.87036 0
M  V30 9859 H 928.979 1.18211 -5.99048 0
M  V30 9860 H 930.393 -1.06117 -5.63393 0
M  V30 9861 H 928.79 -1.84878 -5.70912 0
M  V30 9862 H 929.86 -2.17515 -4.33377 0
M  V30 9863 N 931.203 1.46865 -0.571711 0
M  V30 9864 C 932.452 2.01636 -0.050881 0
M  V30 9865 C 932.765 1.45001 1.31279 0
M  V30 9866 O 933.971 1.91523 1.92435 0
M  V30 9867 C 932.427 3.59877 -0.0404114 0
M  V30 9868 C 932.035 4.25506 -1.40172 0
M  V30 9869 C 933.779 4.22346 0.42705 0
M  V30 9870 C 931.686 5.75795 -1.34958 0
M  V30 9871 H 930.616 0.753846 -0.0152514 0
M  V30 9872 H 933.267 1.68711 -0.721723 0
M  V30 9873 H 931.649 3.89829 0.696374 0
M  V30 9874 H 932.823 4.07178 -2.15737 0
M  V30 9875 H 931.138 3.75086 -1.8083 0
M  V30 9876 H 933.735 5.32499 0.484688 0
M  V30 9877 H 934.078 3.9052 1.44222 0
M  V30 9878 H 934.611 3.9698 -0.255326 0
M  V30 9879 H 931.35 6.12265 -2.3412 0
M  V30 9880 H 930.87 5.96419 -0.635962 0
M  V30 9881 H 932.549 6.38294 -1.05779 0
M  V30 9882 N 932.681 0.308908 1.54543 0
M  V30 9883 C 933.927 -0.291311 2.01303 0
M  V30 9884 C 934.282 -1.50917 1.19339 0
M  V30 9885 O 933.575 -1.89776 0.263724 0
M  V30 9886 C 933.769 -0.691522 3.50646 0
M  V30 9887 C 933.598 0.486007 4.47066 0
M  V30 9888 C 932.368 0.980515 4.95695 0
M  V30 9889 C 934.566 1.33352 4.96711 0
M  V30 9890 N 932.548 2.12398 5.75986 0
M  V30 9891 C 933.919 2.32436 5.74781 0
M  V30 9892 C 935.974 1.36298 4.78881 0
M  V30 9893 C 934.677 3.34252 6.36921 0
M  V30 9894 C 936.703 2.36976 5.41845 0
M  V30 9895 C 936.065 3.34789 6.19755 0
M  V30 9896 H 932.164 -0.0708418 0.778785 0
M  V30 9897 H 934.748 0.440621 1.89649 0
M  V30 9898 H 932.919 -1.39261 3.62575 0
M  V30 9899 H 934.651 -1.27196 3.84192 0
M  V30 9900 H 931.406 0.55419 4.70346 0
M  V30 9901 H 931.83 2.70036 6.20814 0
M  V30 9902 H 936.472 0.620472 4.18222 0
M  V30 9903 H 934.19 4.09417 6.96709 0
M  V30 9904 H 937.776 2.40039 5.29974 0
M  V30 9905 H 936.656 4.11418 6.67611 0
M  V30 9906 N 934.159 -1.57557 0.0367827 0
M  V30 9907 C 935.089 -2.13712 -0.940719 0
M  V30 9908 C 936.07 -1.05515 -1.33419 0
M  V30 9909 O 937.255 -1.33385 -1.41146 0
M  V30 9910 C 934.385 -2.67043 -2.22048 0
M  V30 9911 C 933.339 -3.80096 -1.96752 0
M  V30 9912 C 932.665 -4.19886 -3.31059 0
M  V30 9913 C 933.965 -5.05848 -1.30058 0
M  V30 9914 H 935.659 -2.9564 -0.473033 0
M  V30 9915 H 933.205 -1.42214 -0.226089 0
M  V30 9916 H 935.158 -3.04964 -2.90818 0
M  V30 9917 H 933.882 -1.82287 -2.70996 0
M  V30 9918 H 932.541 -3.42625 -1.30398 0
M  V30 9919 H 932.189 -3.32101 -3.77781 0
M  V30 9920 H 931.889 -4.96073 -3.14937 0
M  V30 9921 H 933.413 -4.60395 -4.01084 0
M  V30 9922 H 934.827 -5.41306 -1.8884 0
M  V30 9923 H 933.224 -5.87084 -1.24309 0
M  V30 9924 H 934.294 -4.84122 -0.274591 0
M  V30 9925 N 935.637 0.236453 -1.55816 0
M  V30 9926 C 936.914 0.986463 -1.68903 0
M  V30 9927 C 937.294 2.02984 -0.579722 0
M  V30 9928 O 936.642 2.24693 0.415389 0
M  V30 9929 C 936.852 1.61038 -3.09625 0
M  V30 9930 C 938.2 2.10829 -3.6856 0
M  V30 9931 O 939.224 1.7096 -3.12492 0
M  V30 9932 O 938.083 2.84064 -4.66873 0
M  V30 9933 H 935.177 0.459837 -0.687371 0
M  V30 9934 H 937.723 0.229412 -1.68142 0
M  V30 9935 H 936.495 0.856232 -3.81817 0
M  V30 9936 H 936.118 2.43336 -3.14441 0
M  V30 9937 N 937.115 1.49373 0.502552 0
M  V30 9938 C 938.045 1.68839 1.61294 0
M  V30 9939 C 939.026 0.537096 1.61398 0
M  V30 9940 O 940.211 0.772764 1.78163 0
M  V30 9941 C 937.341 1.75347 2.99784 0
M  V30 9942 C 936.295 2.90251 3.14545 0
M  V30 9943 C 935.621 2.8187 4.54371 0
M  V30 9944 C 936.921 4.31207 2.94717 0
M  V30 9945 H 938.615 2.61803 1.45257 0
M  V30 9946 H 936.161 1.25987 0.697371 0
M  V30 9947 H 938.114 1.87552 3.77362 0
M  V30 9948 H 936.838 0.789814 3.16906 0
M  V30 9949 H 935.497 2.77646 2.39392 0
M  V30 9950 H 935.145 1.83416 4.68367 0
M  V30 9951 H 934.845 3.5899 4.65188 0
M  V30 9952 H 936.369 2.96081 5.34012 0
M  V30 9953 H 937.783 4.44501 3.62065 0
M  V30 9954 H 936.18 5.09536 3.17007 0
M  V30 9955 H 937.25 4.45759 1.90857 0
M  V30 9956 N 938.594 -0.753485 1.38421 0
M  V30 9957 C 939.819 -1.54783 1.38047 0
M  V30 9958 C 940.244 -1.8808 -0.0276371 0
M  V30 9959 O 939.602 -1.5058 -1.00973 0
M  V30 9960 C 939.65 -2.82353 2.24297 0
M  V30 9961 O 938.754 -3.77509 1.66014 0
M  V30 9962 H 938.095 -0.468151 0.470883 0
M  V30 9963 H 940.625 -0.931144 1.82184 0
M  V30 9964 H 940.635 -3.31277 2.38159 0
M  V30 9965 H 939.31 -2.57449 3.26639 0
M  V30 9966 H 937.887 -3.36212 1.61294 0
M  V30 9967 N 940.072 -1.23292 -0.981677 0
M  V30 9968 C 941.004 -0.970782 -2.07626 0
M  V30 9969 C 942.017 0.0547506 -1.62708 0
M  V30 9970 O 943.206 -0.180623 -1.77584 0
M  V30 9971 C 940.306 -0.44055 -3.36024 0
M  V30 9972 C 939.479 -1.52595 -4.09919 0
M  V30 9973 C 938.538 -1.00082 -5.16595 0
M  V30 9974 O 937.564 -1.68951 -5.43548 0
M  V30 9975 N 938.766 0.172017 -5.80245 0
M  V30 9976 H 941.531 -1.91316 -2.30691 0
M  V30 9977 H 939.092 -1.14133 -1.14828 0
M  V30 9978 H 941.084 -0.0743111 -4.04632 0
M  V30 9979 H 939.654 0.407211 -3.09936 0
M  V30 9980 H 938.874 -2.06501 -3.35784 0
M  V30 9981 H 940.162 -2.2559 -4.56055 0
M  V30 9982 H 939.56 0.748129 -5.60731 0
M  V30 9983 H 938.117 0.479532 -6.50034 0
M  V30 9984 N 941.55 1.18024 -1.04442 0
M  V30 9985 C 942.498 2.23834 -0.632557 0
M  V30 9986 C 943.492 1.65902 0.342488 0
M  V30 9987 O 944.698 1.78778 0.20937 0
M  V30 9988 H 941.073 0.728544 -0.186353 0
M  V30 9989 H 943.044 2.55876 -1.53526 0
M  V30 9990 C 941.793 3.47697 -0.0153661 0
M  V30 9991 H 941.116 3.92574 -0.756704 0
M  V30 9992 H 942.556 4.23345 0.235541 0
M  V30 9993 C 941.015 3.13416 1.23579 0
M  V30 9994 O 941.545 3.27499 2.3261 0
M  V30 9995 N 939.751 2.67708 1.13053 0
M  V30 9996 H 939.298 2.56449 0.243277 0
M  V30 9997 H 939.256 2.45143 1.96855 0
M  V30 9998 N 943.028 0.824394 1.34319 0
M  V30 9999 C 944.444 0.510336 1.51221 0
M  V30 10000 C 944.644 -0.965201 1.76879 0
M  V30 10001 O 943.7 -1.74961 1.82057 0
M  V30 10002 C 945.013 1.37114 2.6762 0
M  V30 10003 C 946.561 1.36842 2.81502 0
M  V30 10004 C 947.036 2.21374 4.00946 0
M  V30 10005 N 948.527 2.19005 4.08156 0
M  V30 10006 C 949.262 2.81159 4.99737 0
M  V30 10007 N 948.758 3.52309 5.96532 0
M  V30 10008 N 950.551 2.70706 4.9262 0
M  V30 10009 H 942.702 1.77976 1.15924 0
M  V30 10010 H 944.965 0.758503 0.568663 0
M  V30 10011 H 944.671 2.41905 2.55294 0
M  V30 10012 H 944.545 1.03689 3.62669 0
M  V30 10013 H 946.932 0.328284 2.93268 0
M  V30 10014 H 947.013 1.74265 1.87257 0
M  V30 10015 H 946.657 3.25437 3.8994 0
M  V30 10016 H 946.587 1.813 4.94407 0
M  V30 10017 H 949.078 1.67252 3.38874 0
M  V30 10018 H 949.391 3.96977 6.63045 0
M  V30 10019 H 947.736 3.56415 5.96652 0
M  V30 10020 H 950.927 2.14694 4.15962 0
M  V30 10021 H 951.1 3.19431 5.63798 0
M  V30 10022 N 944.506 -1.46559 0.579492 0
M  V30 10023 C 945.436 -2.33059 -0.143437 0
M  V30 10024 C 946.417 -1.4515 -0.886868 0
M  V30 10025 O 947.602 -1.73973 -0.862961 0
M  V30 10026 C 944.732 -3.27364 -1.15973 0
M  V30 10027 C 943.686 -4.24689 -0.531348 0
M  V30 10028 C 943.012 -5.08479 -1.65388 0
M  V30 10029 C 944.312 -5.1961 0.529391 0
M  V30 10030 H 946.006 -2.93753 0.578762 0
M  V30 10031 H 943.552 -1.41256 0.279775 0
M  V30 10032 H 945.505 -3.86732 -1.67382 0
M  V30 10033 H 944.229 -2.64771 -1.91217 0
M  V30 10034 H 942.888 -3.6658 -0.0383749 0
M  V30 10035 H 942.536 -4.42273 -2.3959 0
M  V30 10036 H 942.236 -5.74387 -1.23909 0
M  V30 10037 H 943.76 -5.70709 -2.17079 0
M  V30 10038 H 945.174 -5.73212 0.100506 0
M  V30 10039 H 943.571 -5.93843 0.86432 0
M  V30 10040 H 944.641 -4.63737 1.4169 0
M  V30 10041 N 945.984 -0.3171 -1.54377 0
M  V30 10042 C 946.934 0.567199 -2.20832 0
M  V30 10043 C 947.918 1.08661 -1.18666 0
M  V30 10044 O 949.11 1.0247 -1.44322 0
M  V30 10045 C 946.239 1.73079 -2.96477 0
M  V30 10046 C 945.325 1.22658 -4.05975 0
M  V30 10047 N 945.716 0.441565 -5.03869 0
M  V30 10048 C 944.014 1.50589 -4.19808 0
M  V30 10049 C 944.715 0.171063 -5.81448 0
M  V30 10050 N 943.691 0.755389 -5.38326 0
M  V30 10051 H 947.493 -0.0399349 -2.93873 0
M  V30 10052 H 945.007 -0.122639 -1.61936 0
M  V30 10053 H 947.004 2.37601 -3.42566 0
M  V30 10054 H 945.664 2.34146 -2.24957 0
M  V30 10055 H 946.675 0.0849921 -5.1783 0
M  V30 10056 H 943.352 2.12288 -3.595 0
M  V30 10057 H 944.742 -0.460484 -6.7032 0
M  V30 10058 N 947.462 1.57535 -0.0451378 0
M  V30 10059 C 948.69 1.96761 0.639742 0
M  V30 10060 C 949.105 0.922405 1.64734 0
M  V30 10061 O 948.462 -0.0940535 1.82257 0
M  V30 10062 C 948.513 3.36066 1.33199 0
M  V30 10063 O 948.234 4.36579 0.364757 0
M  V30 10064 C 949.735 3.90015 2.1072 0
M  V30 10065 H 946.955 0.64769 0.175324 0
M  V30 10066 H 949.499 2.04206 -0.109651 0
M  V30 10067 H 947.654 3.2979 2.03266 0
M  V30 10068 H 948.068 5.17432 0.858168 0
M  V30 10069 H 949.542 4.89785 2.54586 0
M  V30 10070 H 950.019 3.25117 2.95288 0
M  V30 10071 H 950.625 3.99609 1.45577 0
M  V30 10072 N 948.94 -0.228186 1.55939 0
M  V30 10073 C 949.87 -1.28607 1.94891 0
M  V30 10074 C 950.851 -1.49236 0.816245 0
M  V30 10075 O 952.036 -1.61531 1.07803 0
M  V30 10076 C 949.166 -2.63719 2.25986 0
M  V30 10077 C 948.12 -2.57757 3.4168 0
M  V30 10078 C 947.446 -3.96837 3.58364 0
M  V30 10079 C 948.746 -2.13116 4.76843 0
M  V30 10080 H 950.44 -0.962531 2.83506 0
M  V30 10081 H 947.986 -0.461577 1.36402 0
M  V30 10082 H 949.939 -3.37878 2.51826 0
M  V30 10083 H 948.663 -2.97747 1.34217 0
M  V30 10084 H 947.322 -1.86055 3.15878 0
M  V30 10085 H 946.97 -4.28162 2.63982 0
M  V30 10086 H 946.67 -3.93731 4.36176 0
M  V30 10087 H 948.194 -4.72668 3.86545 0
M  V30 10088 H 949.608 -2.77015 5.01932 0
M  V30 10089 H 948.005 -2.21083 5.57891 0
M  V30 10090 H 949.075 -1.08326 4.72645 0
M  V30 10091 N 950.418 -1.49637 -0.494624 0
M  V30 10092 C 951.348 -1.69692 -1.60396 0
M  V30 10093 C 952.329 -0.545648 -1.61111 0
M  V30 10094 O 953.514 -0.782202 -1.77751 0
M  V30 10095 C 950.644 -1.76934 -2.9885 0
M  V30 10096 C 949.598 -2.91915 -3.13001 0
M  V30 10097 C 948.924 -2.84276 -4.5287 0
M  V30 10098 C 950.224 -4.32764 -2.92426 0
M  V30 10099 H 951.918 -2.6257 -1.43866 0
M  V30 10100 H 949.464 -1.26355 -0.690679 0
M  V30 10101 H 951.417 -1.8955 -3.76362 0
M  V30 10102 H 950.141 -0.806609 -3.16483 0
M  V30 10103 H 948.8 -2.78911 -2.37916 0
M  V30 10104 H 948.448 -1.85897 -4.67388 0
M  V30 10105 H 948.148 -3.61452 -4.63278 0
M  V30 10106 H 949.672 -2.98909 -5.32434 0
M  V30 10107 H 951.086 -4.46415 -3.59703 0
M  V30 10108 H 949.483 -5.1121 -3.143 0
M  V30 10109 H 950.553 -4.46765 -1.88491 0
M  V30 10110 N 951.896 0.746133 -1.38819 0
M  V30 10111 C 953.307 1.32384 -1.31648 0
M  V30 10112 C 953.658 1.96185 0.0243086 0
M  V30 10113 O 952.783 1.95567 0.92641 0
M  V30 10114 C 953.378 2.40712 -2.38418 0
M  V30 10115 C 951.937 2.94185 -2.34803 0
M  V30 10116 C 951.084 1.67639 -2.20891 0
M  V30 10117 H 954.035 0.544457 -1.49068 0
M  V30 10118 H 954.056 3.20833 -2.04564 0
M  V30 10119 H 953.568 1.94247 -3.3599 0
M  V30 10120 H 951.669 3.44959 -1.40834 0
M  V30 10121 H 951.782 3.48057 -3.29231 0
M  V30 10122 H 950.146 1.9155 -1.67871 0
M  V30 10123 H 950.929 1.23242 -3.20416 0
M  V30 10124 N 953.375 1.23811 0.975125 0
M  V30 10125 C 954.307 0.981779 2.07108 0
M  V30 10126 C 955.32 -0.0461211 1.62735 0
M  V30 10127 O 956.509 0.190039 1.77486 0
M  V30 10128 C 953.609 0.458364 3.35786 0
M  V30 10129 C 952.782 1.54767 4.09104 0
M  V30 10130 C 951.841 1.0282 5.16057 0
M  V30 10131 O 950.867 1.71831 5.42644 0
M  V30 10132 N 952.069 -0.141243 5.80328 0
M  V30 10133 H 954.834 1.92537 2.29673 0
M  V30 10134 H 952.395 1.1474 1.14221 0
M  V30 10135 H 954.387 0.0957686 4.04587 0
M  V30 10136 H 952.957 -0.390768 3.10148 0
M  V30 10137 H 952.177 2.08279 3.34684 0
M  V30 10138 H 953.465 2.28006 4.54853 0
M  V30 10139 H 952.863 -0.718382 5.6112 0
M  V30 10140 H 951.42 -0.445052 6.50279 0
M  V30 10141 N 954.853 -1.17469 1.05066 0
M  V30 10142 C 956.081 -1.9162 0.780334 0
M  V30 10143 C 956.496 -1.76745 -0.663817 0
M  V30 10144 O 955.853 -1.10377 -1.45338 0
M  V30 10145 C 955.904 -3.42723 1.14992 0
M  V30 10146 O 955.625 -3.57139 2.53739 0
M  V30 10147 C 957.126 -4.33952 0.905549 0
M  V30 10148 H 954.346 -0.608022 0.283814 0
M  V30 10149 H 956.89 -1.4897 1.401 0
M  V30 10150 H 955.045 -3.83124 0.57403 0
M  V30 10151 H 955.459 -4.5075 2.68189 0
M  V30 10152 H 956.933 -5.38487 1.21391 0
M  V30 10153 H 957.41 -4.38911 -0.159295 0
M  V30 10154 H 958.016 -3.99263 1.46522 0
M  V30 10155 N 956.331 -0.831506 -1.3388 0
M  V30 10156 C 957.261 -0.274378 -2.31882 0
M  V30 10157 C 958.242 0.613872 -1.58637 0
M  V30 10158 O 959.427 0.538961 -1.86571 0
M  V30 10159 C 956.557 0.557498 -3.42796 0
M  V30 10160 C 955.511 -0.234337 -4.27358 0
M  V30 10161 C 954.837 0.720825 -5.29819 0
M  V30 10162 C 956.137 -1.44732 -5.01847 0
M  V30 10163 H 957.831 -1.09322 -2.78728 0
M  V30 10164 H 955.377 -0.527136 -1.34005 0
M  V30 10165 H 957.33 0.957501 -4.10378 0
M  V30 10166 H 956.054 1.40947 -2.94621 0
M  V30 10167 H 954.713 -0.61581 -3.61391 0
M  V30 10168 H 954.361 1.569 -4.77903 0
M  V30 10169 H 954.061 0.195171 -5.87276 0
M  V30 10170 H 955.585 1.1185 -6.00268 0
M  V30 10171 H 956.999 -1.12087 -5.62236 0
M  V30 10172 H 955.396 -1.90923 -5.68919 0
M  V30 10173 H 956.466 -2.22099 -4.31045 0
M  V30 10174 N 957.809 1.4625 -0.587256 0
M  V30 10175 C 959.225 1.57641 -0.249284 0
M  V30 10176 C 959.425 1.58169 1.24839 0
M  V30 10177 O 958.481 1.50109 2.03036 0
M  V30 10178 C 959.794 2.86837 -0.902509 0
M  V30 10179 C 961.342 3.00476 -0.876524 0
M  V30 10180 C 961.817 4.32414 -1.50938 0
M  V30 10181 N 963.308 4.39124 -1.47392 0
M  V30 10182 C 964.043 5.39838 -1.93293 0
M  V30 10183 N 963.539 6.47202 -2.47188 0
M  V30 10184 N 965.332 5.31068 -1.84183 0
M  V30 10185 H 957.483 1.44151 -1.55994 0
M  V30 10186 H 959.746 0.687905 -0.652297 0
M  V30 10187 H 959.452 2.92274 -1.95624 0
M  V30 10188 H 959.326 3.74927 -0.413466 0
M  V30 10189 H 961.713 2.94618 0.168601 0
M  V30 10190 H 961.794 2.1385 -1.40363 0
M  V30 10191 H 961.438 4.3903 -2.55372 0
M  V30 10192 H 961.368 5.17823 -0.957455 0
M  V30 10193 H 963.859 3.62138 -1.08002 0
M  V30 10194 H 964.172 7.20269 -2.80058 0
M  V30 10195 H 962.517 6.48009 -2.51216 0
M  V30 10196 H 965.708 4.46095 -1.41833 0
M  V30 10197 H 965.881 6.09414 -2.2027 0
M  V30 10198 N 959.287 0.325282 1.54207 0
M  V30 10199 C 960.235 -0.5554 2.25872 0
M  V30 10200 C 961.229 -1.11714 1.27344 0
M  V30 10201 O 962.435 -1.06498 1.45115 0
M  V30 10202 H 958.81 -0.19776 0.725531 0
M  V30 10203 H 960.781 0.0712858 2.98315 0
M  V30 10204 C 959.53 -1.70379 3.03095 0
M  V30 10205 H 958.853 -1.2808 3.78729 0
M  V30 10206 H 960.293 -2.29556 3.56483 0
M  V30 10207 C 958.752 -2.62242 2.11496 0
M  V30 10208 O 959.282 -3.64003 1.69895 0
M  V30 10209 N 957.488 -2.30515 1.7695 0
M  V30 10210 H 957.035 -1.47805 2.10978 0
M  V30 10211 H 956.993 -2.92241 1.15942 0
M  V30 10212 N 960.765 -1.57509 0.0534917 0
M  V30 10213 C 961.695 -2.14698 -0.917999 0
M  V30 10214 C 962.676 -1.06924 -1.32292 0
M  V30 10215 O 963.861 -1.34875 -1.39723 0
M  V30 10216 C 960.991 -2.69383 -2.19203 0
M  V30 10217 C 959.945 -3.82161 -1.9271 0
M  V30 10218 C 959.271 -4.23373 -3.26587 0
M  V30 10219 C 960.571 -5.07199 -1.24686 0
M  V30 10220 H 962.265 -2.96125 -0.44165 0
M  V30 10221 H 959.811 -1.42446 -0.210993 0
M  V30 10222 H 961.764 -3.08031 -2.87567 0
M  V30 10223 H 960.488 -1.85151 -2.69048 0
M  V30 10224 H 959.147 -3.43989 -1.26757 0
M  V30 10225 H 958.795 -3.36089 -3.74237 0
M  V30 10226 H 958.495 -4.99385 -3.09658 0
M  V30 10227 H 960.019 -4.64623 -3.96178 0
M  V30 10228 H 961.433 -5.43279 -1.83088 0
M  V30 10229 H 959.83 -5.88369 -1.18076 0
M  V30 10230 H 960.9 -4.84386 -0.223227 0
M  V30 10231 N 962.243 0.219913 -1.56058 0
M  V30 10232 C 963.654 0.786766 -1.69313 0
M  V30 10233 C 964.005 1.84916 -0.655782 0
M  V30 10234 O 963.13 2.1554 0.192772 0
M  V30 10235 C 963.725 1.43387 -3.06962 0
M  V30 10236 C 962.284 1.94809 -3.22066 0
M  V30 10237 C 961.431 0.808863 -2.65241 0
M  V30 10238 H 964.382 -0.00476777 -1.58699 0
M  V30 10239 H 964.403 2.30272 -3.02911 0
M  V30 10240 H 963.915 0.660405 -3.8244 0
M  V30 10241 H 962.016 2.74952 -2.5146 0
M  V30 10242 H 962.129 2.12694 -4.293 0
M  V30 10243 H 960.493 1.21661 -2.23765 0
M  V30 10244 H 961.276 0.0480458 -3.43266 0
M  V30 10245 N 963.721 1.49897 0.486681 0
M  V30 10246 C 964.668 1.67619 1.58658 0
M  V30 10247 C 965.638 0.517537 1.57831 0
M  V30 10248 O 966.823 0.746272 1.756 0
M  V30 10249 C 963.963 1.762 2.96728 0
M  V30 10250 C 963.076 3.03465 3.07462 0
M  V30 10251 C 962.211 3.02937 4.36351 0
M  V30 10252 C 961.25 4.24721 4.4077 0
M  V30 10253 N 960.387 4.22021 5.61108 0
M  V30 10254 H 965.227 2.61528 1.42853 0
M  V30 10255 H 962.764 1.29657 0.694807 0
M  V30 10256 H 964.722 1.79156 3.76774 0
M  V30 10257 H 963.352 0.857452 3.11203 0
M  V30 10258 H 962.404 3.10054 2.20387 0
M  V30 10259 H 963.716 3.93454 3.06586 0
M  V30 10260 H 962.87 3.04536 5.24731 0
M  V30 10261 H 961.609 2.10751 4.39813 0
M  V30 10262 H 960.614 4.23352 3.5079 0
M  V30 10263 H 961.839 5.18116 4.39013 0
M  V30 10264 H 959.785 3.3268 5.65385 0
M  V30 10265 H 959.702 5.05761 5.61909 0
M  V30 10266 H 960.97 4.27743 6.51656 0
M  V30 10267 N 965.199 -0.738761 1.39212 0
M  V30 10268 C 966.424 -1.5331 1.39681 0
M  V30 10269 C 966.849 -1.88098 -0.00768715 0
M  V30 10270 O 966.207 -1.51642 -0.993699 0
M  V30 10271 C 966.255 -2.79958 2.27279 0
M  V30 10272 O 965.359 -3.75727 1.70008 0
M  V30 10273 H 964.7 -0.463131 0.475821 0
M  V30 10274 H 967.23 -0.911768 1.83161 0
M  V30 10275 H 967.24 -3.28732 2.41659 0
M  V30 10276 H 965.915 -2.5397 3.29351 0
M  V30 10277 H 964.492 -3.34483 1.64851 0
M  V30 10278 N 966.677 -1.24326 -0.968545 0
M  V30 10279 C 967.607 -1.05951 -2.08079 0
M  V30 10280 C 968.588 0.0272666 -1.70078 0
M  V30 10281 O 969.773 -0.139644 -1.93697 0
M  V30 10282 C 966.903 -0.662623 -3.4092 0
M  V30 10283 C 965.857 -1.69807 -3.92873 0
M  V30 10284 C 965.183 -1.15628 -5.22048 0
M  V30 10285 C 966.483 -3.09383 -4.20808 0
M  V30 10286 H 968.177 -1.98984 -2.23709 0
M  V30 10287 H 965.723 -0.958112 -1.075 0
M  V30 10288 H 967.676 -0.521071 -4.18166 0
M  V30 10289 H 966.4 0.303399 -3.25188 0
M  V30 10290 H 965.059 -1.82783 -3.17783 0
M  V30 10291 H 964.707 -0.180888 -5.02675 0
M  V30 10292 H 964.407 -1.84822 -5.57776 0
M  V30 10293 H 965.931 -1.02683 -6.01904 0
M  V30 10294 H 967.345 -2.99642 -4.88761 0
M  V30 10295 H 965.742 -3.75923 -4.67763 0
M  V30 10296 H 966.812 -3.57486 -3.27616 0
M  V30 10297 N 968.156 1.1691 -1.05688 0
M  V30 10298 C 969.088 2.20648 -0.620237 0
M  V30 10299 C 970.101 1.59652 0.318604 0
M  V30 10300 O 971.29 1.78157 0.110553 0
M  V30 10301 C 968.39 3.38716 0.111729 0
M  V30 10302 C 967.563 4.29277 -0.839062 0
M  V30 10303 C 966.622 5.25993 -0.147453 0
M  V30 10304 O 965.648 5.63787 -0.783151 0
M  V30 10305 N 966.85 5.69725 1.11327 0
M  V30 10306 H 969.615 2.58731 -1.51256 0
M  V30 10307 H 967.176 1.31858 -0.939412 0
M  V30 10308 H 969.168 4.00455 0.584657 0
M  V30 10309 H 967.738 2.99189 0.905784 0
M  V30 10310 H 966.958 3.64894 -1.4915 0
M  V30 10311 H 968.246 4.86669 -1.48428 0
M  V30 10312 H 967.644 5.41103 1.64999 0
M  V30 10313 H 966.201 6.33584 1.53018 0
M  V30 10314 N 969.634 0.838594 1.33437 0
M  V30 10315 C 970.88 0.434813 1.98084 0
M  V30 10316 C 971.213 -1.00331 1.66275 0
M  V30 10317 O 970.488 -1.70139 0.942501 0
M  V30 10318 C 970.771 0.655602 3.54082 0
M  V30 10319 C 970.624 2.14097 3.95578 0
M  V30 10320 C 971.943 0.101576 4.39983 0
M  V30 10321 H 969.062 0.159456 0.719544 0
M  V30 10322 H 971.704 1.05406 1.58081 0
M  V30 10323 H 969.854 0.128501 3.88287 0
M  V30 10324 H 971.526 2.73292 3.71631 0
M  V30 10325 H 969.769 2.62558 3.4532 0
M  V30 10326 H 970.44 2.24621 5.04231 0
M  V30 10327 H 972.916 0.552122 4.12421 0
M  V30 10328 H 971.792 0.28575 5.48156 0
M  V30 10329 H 972.053 -0.994616 4.30767 0
M  V30 10330 N 971.112 -1.45937 0.595003 0
M  V30 10331 C 972.042 -2.33198 -0.11871 0
M  V30 10332 C 973.023 -1.46083 -0.871423 0
M  V30 10333 O 974.208 -1.74879 -0.844461 0
M  V30 10334 C 971.338 -3.28576 -1.12495 0
M  V30 10335 C 970.292 -4.25229 -0.486275 0
M  V30 10336 C 969.618 -5.10204 -1.59986 0
M  V30 10337 C 970.918 -5.19019 0.584473 0
M  V30 10338 H 972.612 -2.93122 0.609886 0
M  V30 10339 H 970.158 -1.40951 0.294742 0
M  V30 10340 H 972.111 -3.88485 -1.6327 0
M  V30 10341 H 970.835 -2.66784 -1.88398 0
M  V30 10342 H 969.494 -3.666 0.000507962 0
M  V30 10343 H 969.142 -4.44789 -2.34886 0
M  V30 10344 H 968.842 -5.75669 -1.1781 0
M  V30 10345 H 970.366 -5.7298 -2.11014 0
M  V30 10346 H 971.78 -5.73073 0.161297 0
M  V30 10347 H 970.177 -5.92893 0.927256 0
M  V30 10348 H 971.247 -4.62208 1.46601 0
M  V30 10349 N 972.59 -0.333456 -1.54032 0
M  V30 10350 C 974.006 0.0188405 -1.59589 0
M  V30 10351 C 974.206 1.49615 -1.34972 0
M  V30 10352 O 973.262 2.2535 -1.13901 0
M  V30 10353 C 974.575 -0.408273 -2.97915 0
M  V30 10354 C 976.123 -0.359763 -3.10926 0
M  V30 10355 C 976.598 -0.76219 -4.51613 0
M  V30 10356 N 978.089 -0.715981 -4.57633 0
M  V30 10357 C 978.824 -0.999436 -5.64623 0
M  V30 10358 N 978.32 -1.35053 -6.79509 0
M  V30 10359 N 980.113 -0.924343 -5.54448 0
M  V30 10360 H 972.264 -1.29587 -1.68289 0
M  V30 10361 H 974.527 -0.527584 -0.787629 0
M  V30 10362 H 974.233 -1.43793 -3.20962 0
M  V30 10363 H 974.107 0.221685 -3.76548 0
M  V30 10364 H 976.494 0.660703 -2.87609 0
M  V30 10365 H 976.575 -1.02479 -2.34375 0
M  V30 10366 H 976.219 -1.78062 -4.75664 0
M  V30 10367 H 976.149 -0.0747478 -5.26547 0
M  V30 10368 H 978.64 -0.456875 -3.75128 0
M  V30 10369 H 978.953 -1.55194 -7.57057 0
M  V30 10370 H 977.298 -1.38889 -6.80981 0
M  V30 10371 H 980.489 -0.649469 -4.63573 0
M  V30 10372 H 980.662 -1.1486 -6.37739 0
M  V30 10373 N 974.068 1.57479 -0.061844 0
M  V30 10374 C 974.998 2.15181 0.9066 0
M  V30 10375 C 975.979 1.07624 1.31724 0
M  V30 10376 O 977.164 1.35614 1.39006 0
M  V30 10377 C 974.294 2.70542 2.17771 0
M  V30 10378 C 973.248 3.83178 1.9068 0
M  V30 10379 C 972.574 4.25099 3.24337 0
M  V30 10380 C 973.874 5.07853 1.21994 0
M  V30 10381 H 975.568 2.96355 0.42594 0
M  V30 10382 H 973.114 1.42556 0.203435 0
M  V30 10383 H 975.067 3.09552 2.85929 0
M  V30 10384 H 973.791 1.86575 2.68062 0
M  V30 10385 H 972.45 3.44656 1.24931 0
M  V30 10386 H 972.098 3.38069 3.72449 0
M  V30 10387 H 971.798 5.01021 3.07005 0
M  V30 10388 H 973.322 4.66718 3.93709 0
M  V30 10389 H 974.736 5.44242 1.80204 0
M  V30 10390 H 973.133 5.88987 1.14954 0
M  V30 10391 H 974.203 4.84497 0.197536 0
M  V30 10392 N 975.546 -0.211634 1.56173 0
M  V30 10393 C 976.962 -0.56177 1.49386 0
M  V30 10394 C 977.162 -1.86666 0.758813 0
M  V30 10395 O 976.218 -2.50681 0.302534 0
M  V30 10396 C 977.531 -0.631815 2.93987 0
M  V30 10397 C 979.079 -0.721773 3.04564 0
M  V30 10398 C 979.554 -0.823075 4.50544 0
M  V30 10399 N 981.045 -0.887038 4.54627 0
M  V30 10400 C 981.78 -0.985304 5.64871 0
M  V30 10401 N 981.276 -1.0469 6.84844 0
M  V30 10402 N 983.069 -1.02121 5.52746 0
M  V30 10403 H 975.22 0.64452 2.02385 0
M  V30 10404 H 977.483 0.227466 0.920306 0
M  V30 10405 H 977.189 0.257592 3.50755 0
M  V30 10406 H 977.063 -1.4921 3.46433 0
M  V30 10407 H 979.45 -1.60162 2.47855 0
M  V30 10408 H 979.531 0.164385 2.55271 0
M  V30 10409 H 979.175 0.0523511 5.07873 0
M  V30 10410 H 979.105 -1.72479 4.97552 0
M  V30 10411 H 981.596 -0.849352 3.68231 0
M  V30 10412 H 981.909 -1.12193 7.64613 0
M  V30 10413 H 980.254 -1.01586 6.87536 0
M  V30 10414 H 983.445 -0.969814 4.57943 0
M  V30 10415 H 983.618 -1.09434 6.38693 0
M  V30 10416 N 977.024 -1.50153 -0.478725 0
M  V30 10417 C 978.301 -1.51274 -1.23999 0
M  V30 10418 C 978.681 -0.253048 -2.09578 0
M  V30 10419 O 978.029 0.763827 -2.15355 0
M  V30 10420 C 978.239 -2.80423 -2.07759 0
M  V30 10421 C 979.587 -3.30788 -2.66204 0
M  V30 10422 O 980.611 -2.81693 -2.18008 0
M  V30 10423 O 979.47 -4.1635 -3.53999 0
M  V30 10424 H 976.564 -0.606438 -0.562283 0
M  V30 10425 H 979.11 -1.62436 -0.491171 0
M  V30 10426 H 977.882 -3.63584 -1.44645 0
M  V30 10427 H 977.505 -2.72228 -2.89789 0
M  V30 10428 N 978.502 0.731368 -1.39602 0
M  V30 10429 C 979.45 1.86676 -1.38761 0
M  V30 10430 C 980.444 1.6723 -0.270247 0
M  V30 10431 O 981.65 1.74528 -0.440471 0
M  V30 10432 H 978.025 0.614553 -0.433391 0
M  V30 10433 H 979.996 1.84501 -2.34525 0
M  V30 10434 C 978.745 3.24394 -1.25155 0
M  V30 10435 H 978.068 3.39955 -2.10406 0
M  V30 10436 H 979.508 4.04019 -1.28625 0
M  V30 10437 C 977.967 3.36877 0.0396976 0
M  V30 10438 O 978.497 3.88833 1.00854 0
M  V30 10439 N 976.703 2.90414 0.103965 0
M  V30 10440 H 976.25 2.48321 -0.685155 0
M  V30 10441 H 976.208 2.99146 0.967435 0
M  V30 10442 N 979.98 1.24838 0.961938 0
M  V30 10443 C 981.21 1.11709 1.73795 0
M  V30 10444 C 981.618 -0.33263 1.86253 0
M  V30 10445 O 980.961 -1.24101 1.35443 0
M  V30 10446 C 981.023 1.68959 3.17322 0
M  V30 10447 C 980.687 3.17895 3.28316 0
M  V30 10448 C 981.684 4.14975 3.13196 0
M  V30 10449 C 979.369 3.57966 3.52372 0
M  V30 10450 C 981.363 5.50107 3.21965 0
M  V30 10451 C 979.05 4.93237 3.60778 0
M  V30 10452 C 980.048 5.89116 3.45588 0
M  V30 10453 O 979.736 7.21927 3.53662 0
M  V30 10454 H 979.468 0.390726 0.551642 0
M  V30 10455 H 982.022 1.65541 1.21594 0
M  V30 10456 H 980.252 1.09567 3.70853 0
M  V30 10457 H 981.941 1.51036 3.76753 0
M  V30 10458 H 982.707 3.85359 2.94489 0
M  V30 10459 H 978.586 2.83837 3.63259 0
M  V30 10460 H 982.13 6.24924 3.10025 0
M  V30 10461 H 978.027 5.22522 3.79 0
M  V30 10462 H 978.795 7.29925 3.7034 0
M  V30 10463 N 981.458 -1.16348 1.06306 0
M  V30 10464 C 982.388 -2.2291 0.695234 0
M  V30 10465 C 983.369 -1.67208 -0.312343 0
M  V30 10466 O 984.554 -1.93293 -0.187442 0
M  V30 10467 C 981.684 -3.47205 0.0810149 0
M  V30 10468 C 980.638 -4.15801 1.01458 0
M  V30 10469 C 979.964 -5.3405 0.263656 0
M  V30 10470 C 981.264 -4.66766 2.34365 0
M  V30 10471 H 982.958 -2.53934 1.58613 0
M  V30 10472 H 980.504 -1.22056 0.76409 0
M  V30 10473 H 982.457 -4.2098 -0.18818 0
M  V30 10474 H 981.181 -3.15482 -0.844897 0
M  V30 10475 H 979.84 -3.43954 1.26852 0
M  V30 10476 H 979.488 -4.9858 -0.665378 0
M  V30 10477 H 979.188 -5.80885 0.88582 0
M  V30 10478 H 980.712 -6.106 0.00200994 0
M  V30 10479 H 982.126 -5.3212 2.13356 0
M  V30 10480 H 980.523 -5.24223 2.9208 0
M  V30 10481 H 981.593 -3.82969 2.97426 0
M  V30 10482 N 982.937 -0.845659 -1.3299 0
M  V30 10483 C 983.9 -0.288905 -2.27372 0
M  V30 10484 C 984.9 0.546263 -1.51237 0
M  V30 10485 O 986.09 0.359072 -1.70459 0
M  V30 10486 C 983.222 0.59224 -3.35716 0
M  V30 10487 H 984.415 -1.12181 -2.78128 0
M  V30 10488 H 981.968 -0.619276 -1.43508 0
M  V30 10489 H 982.703 1.44732 -2.90212 0
M  V30 10490 H 982.488 -0.00543255 -3.921 0
M  V30 10491 H 983.978 0.974848 -4.06062 0
M  V30 10492 N 984.415 1.45619 -0.602734 0
M  V30 10493 C 985.662 2.02272 -0.0960337 0
M  V30 10494 C 985.99 1.47177 1.27159 0
M  V30 10495 O 985.245 0.634593 1.85125 0
M  V30 10496 C 985.544 3.574 -0.00157909 0
M  V30 10497 C 985.21 4.31626 -1.30422 0
M  V30 10498 C 983.872 4.51622 -1.66106 0
M  V30 10499 C 986.224 4.74091 -2.16535 0
M  V30 10500 C 983.552 5.11338 -2.87663 0
M  V30 10501 C 985.904 5.35151 -3.37336 0
M  V30 10502 C 984.568 5.53371 -3.73278 0
M  V30 10503 H 983.838 0.740166 -0.0351412 0
M  V30 10504 H 986.485 1.74744 -0.783382 0
M  V30 10505 H 984.79 3.84179 0.769008 0
M  V30 10506 H 986.487 3.98934 0.406549 0
M  V30 10507 H 983.077 4.16372 -1.01647 0
M  V30 10508 H 987.261 4.5838 -1.90266 0
M  V30 10509 H 982.517 5.23634 -3.15622 0
M  V30 10510 H 986.691 5.67011 -4.04316 0
M  V30 10511 H 984.318 5.99412 -4.67556 0
M  V30 10512 N 985.893 0.34162 1.53853 0
M  V30 10513 C 987.14 -0.255484 2.00882 0
M  V30 10514 C 987.468 -1.50711 1.22949 0
M  V30 10515 O 986.723 -1.93315 0.304625 0
M  V30 10516 C 987.022 -0.616989 3.52034 0
M  V30 10517 C 986.688 0.537536 4.47684 0
M  V30 10518 C 985.35 0.854379 4.73554 0
M  V30 10519 C 987.702 1.31217 5.04412 0
M  V30 10520 C 985.03 1.94826 5.53407 0
M  V30 10521 C 987.382 2.39628 5.85458 0
M  V30 10522 C 986.046 2.71874 6.09623 0
M  V30 10523 H 985.316 -0.0934881 0.735079 0
M  V30 10524 H 987.963 0.469135 1.85665 0
M  V30 10525 H 986.268 -1.42229 3.65073 0
M  V30 10526 H 987.965 -1.09084 3.85878 0
M  V30 10527 H 984.555 0.280524 4.27681 0
M  V30 10528 H 988.739 1.08064 4.84392 0
M  V30 10529 H 983.995 2.20235 5.70356 0
M  V30 10530 H 988.169 3.00084 6.28429 0
M  V30 10531 H 985.796 3.56762 6.71286 0
M  V30 10532 N 987.371 -1.57444 0.0701946 0
M  V30 10533 C 988.318 -2.12631 -0.897599 0
M  V30 10534 C 989.288 -1.03841 -1.29639 0
M  V30 10535 O 990.473 -1.31495 -1.38253 0
M  V30 10536 C 987.613 -2.6911 -2.16041 0
M  V30 10537 C 986.726 -3.9205 -1.8144 0
M  V30 10538 C 985.861 -4.36778 -3.02321 0
M  V30 10539 C 984.9 -5.52371 -2.63729 0
M  V30 10540 N 984.037 -5.92065 -3.77364 0
M  V30 10541 H 988.877 -2.95024 -0.420104 0
M  V30 10542 H 986.414 -1.45792 -0.195716 0
M  V30 10543 H 988.372 -2.99963 -2.89962 0
M  V30 10544 H 987.002 -1.89484 -2.61334 0
M  V30 10545 H 986.054 -3.67669 -0.975896 0
M  V30 10546 H 987.366 -4.76011 -1.49046 0
M  V30 10547 H 986.52 -4.69285 -3.84521 0
M  V30 10548 H 985.259 -3.51668 -3.37907 0
M  V30 10549 H 984.264 -5.19517 -1.7995 0
M  V30 10550 H 985.489 -6.39212 -2.29315 0
M  V30 10551 H 983.435 -5.09904 -4.12715 0
M  V30 10552 H 983.352 -6.70762 -3.48733 0
M  V30 10553 H 984.62 -6.29193 -4.60148 0
M  V30 10554 N 988.849 0.203349 -1.56283 0
M  V30 10555 C 990.095 0.921876 -1.81309 0
M  V30 10556 C 990.45 1.81231 -0.645994 0
M  V30 10557 O 989.743 1.88203 0.359206 0
M  V30 10558 C 989.937 1.78016 -3.09912 0
M  V30 10559 C 989.766 0.974308 -4.39019 0
M  V30 10560 C 988.536 0.662001 -5.00945 0
M  V30 10561 C 990.734 0.330925 -5.13234 0
M  V30 10562 N 988.716 -0.163344 -6.13683 0
M  V30 10563 C 990.087 -0.356989 -6.18971 0
M  V30 10564 C 992.142 0.245809 -4.97293 0
M  V30 10565 C 990.845 -1.1219 -7.10497 0
M  V30 10566 C 992.871 -0.505684 -5.89234 0
M  V30 10567 C 992.233 -1.18207 -6.94411 0
M  V30 10568 H 988.332 0.317003 -0.714866 0
M  V30 10569 H 990.916 0.191255 -1.93758 0
M  V30 10570 H 989.087 2.48245 -2.98712 0
M  V30 10571 H 990.819 2.43754 -3.23057 0
M  V30 10572 H 987.574 0.984437 -4.63256 0
M  V30 10573 H 987.998 -0.565386 -6.74635 0
M  V30 10574 H 992.64 0.754396 -4.16015 0
M  V30 10575 H 990.358 -1.64195 -7.91243 0
M  V30 10576 H 993.944 -0.572788 -5.78974 0
M  V30 10577 H 992.824 -1.75427 -7.64327 0
M  V30 10578 N 990.327 1.50405 0.470755 0
M  V30 10579 C 991.573 1.62618 1.22175 0
M  V30 10580 C 991.928 0.322593 1.89676 0
M  V30 10581 O 991.221 -0.679504 1.79146 0
M  V30 10582 C 991.415 2.74426 2.28965 0
M  V30 10583 C 991.244 4.15532 1.71941 0
M  V30 10584 C 990.014 4.81928 1.51899 0
M  V30 10585 C 992.212 4.99762 1.21417 0
M  V30 10586 N 990.194 6.07249 0.901208 0
M  V30 10587 C 991.565 6.15809 0.719638 0
M  V30 10588 C 993.62 4.85535 1.10275 0
M  V30 10589 C 992.323 7.19192 0.124669 0
M  V30 10590 C 994.349 5.89094 0.521721 0
M  V30 10591 C 993.711 7.0439 0.0375645 0
M  V30 10592 H 989.81 0.649215 0.43594 0
M  V30 10593 H 992.394 1.87525 0.523702 0
M  V30 10594 H 990.565 2.51242 2.96196 0
M  V30 10595 H 992.297 2.75996 2.95987 0
M  V30 10596 H 989.052 4.39228 1.77133 0
M  V30 10597 H 989.476 6.7424 0.610722 0
M  V30 10598 H 994.118 3.96681 1.463 0
M  V30 10599 H 991.836 8.0772 -0.247782 0
M  V30 10600 H 995.422 5.8015 0.437872 0
M  V30 10601 H 994.302 7.83154 -0.404993 0
M  V30 10602 N 991.805 -0.723954 1.39988 0
M  V30 10603 C 993.03 -1.5182 1.41299 0
M  V30 10604 C 993.455 -1.88096 0.0122636 0
M  V30 10605 O 992.813 -1.52687 -0.977559 0
M  V30 10606 C 992.861 -2.77532 2.30235 0
M  V30 10607 O 991.965 -3.73903 1.73984 0
M  V30 10608 H 991.306 -0.458058 0.480707 0
M  V30 10609 H 993.836 -0.892291 1.84118 0
M  V30 10610 H 993.846 -3.2615 2.45132 0
M  V30 10611 H 992.521 -2.50462 3.32026 0
M  V30 10612 H 991.098 -3.32715 1.68389 0
M  V30 10613 N 993.283 -1.25346 -0.955304 0
M  V30 10614 C 994.213 -1.08152 -2.06943 0
M  V30 10615 C 995.194 0.00922598 -1.70097 0
M  V30 10616 O 996.379 -0.160181 -1.93538 0
M  V30 10617 C 993.509 -0.698745 -3.40198 0
M  V30 10618 C 992.463 -1.73965 -3.9105 0
M  V30 10619 C 991.789 -1.21158 -5.20792 0
M  V30 10620 C 993.089 -3.13829 -4.17503 0
M  V30 10621 H 994.783 -2.01345 -2.21586 0
M  V30 10622 H 992.329 -0.969459 -1.06478 0
M  V30 10623 H 994.282 -0.565394 -4.1759 0
M  V30 10624 H 993.006 0.268892 -3.25491 0
M  V30 10625 H 991.665 -1.86143 -3.15827 0
M  V30 10626 H 991.313 -0.234193 -5.02455 0
M  V30 10627 H 991.013 -1.90728 -5.55785 0
M  V30 10628 H 992.537 -1.09061 -6.00781 0
M  V30 10629 H 993.951 -3.04809 -4.85556 0
M  V30 10630 H 992.348 -3.80863 -4.63749 0
M  V30 10631 H 993.418 -3.6094 -3.23806 0
M  V30 10632 N 994.761 1.15782 -1.06922 0
M  V30 10633 C 995.711 2.18373 -0.655537 0
M  V30 10634 C 996.695 1.57745 0.317084 0
M  V30 10635 O 997.887 1.76511 0.131509 0
M  V30 10636 C 995.016 3.43263 -0.0502314 0
M  V30 10637 C 994.102 4.10954 -1.04773 0
M  V30 10638 N 994.493 4.542 -2.22567 0
M  V30 10639 C 992.791 4.3723 -0.880087 0
M  V30 10640 C 993.492 5.06641 -2.85815 0
M  V30 10641 N 992.468 4.99917 -2.13505 0
M  V30 10642 H 996.27 2.49533 -1.55276 0
M  V30 10643 H 993.784 1.32303 -0.941793 0
M  V30 10644 H 995.781 4.16063 0.264003 0
M  V30 10645 H 994.441 3.13588 0.842167 0
M  V30 10646 H 995.452 4.47727 -2.60309 0
M  V30 10647 H 992.129 4.17481 -0.0402148 0
M  V30 10648 H 993.519 5.50092 -3.85808 0
M  V30 10649 N 996.239 0.8527 1.3254 0
M  V30 10650 C 997.486 0.455123 1.97319 0
M  V30 10651 C 997.814 -0.988814 1.67489 0
M  V30 10652 O 997.069 -1.70845 0.954483 0
M  V30 10653 C 997.368 0.638757 3.51646 0
M  V30 10654 C 997.034 2.05287 4.01458 0
M  V30 10655 C 995.696 2.43963 4.14771 0
M  V30 10656 C 998.048 2.9759 4.27889 0
M  V30 10657 C 995.376 3.7422 4.51859 0
M  V30 10658 C 997.728 4.27343 4.66434 0
M  V30 10659 C 996.392 4.65957 4.77954 0
M  V30 10660 H 995.662 0.166541 0.722042 0
M  V30 10661 H 998.309 1.08238 1.57977 0
M  V30 10662 H 996.614 -0.0717394 3.91734 0
M  V30 10663 H 998.311 0.311219 3.9979 0
M  V30 10664 H 994.901 1.74253 3.91579 0
M  V30 10665 H 999.085 2.68942 4.17114 0
M  V30 10666 H 994.341 4.03923 4.58973 0
M  V30 10667 H 998.515 4.9893 4.85841 0
M  V30 10668 H 996.142 5.66934 5.06449 0
M  V30 10669 N 997.718 -1.45297 0.610449 0
M  V30 10670 C 998.648 -2.33311 -0.0939698 0
M  V30 10671 C 999.629 -1.46999 -0.85588 0
M  V30 10672 O 1000.81 -1.75764 -0.825865 0
M  V30 10673 C 997.944 -3.29751 -1.09003 0
M  V30 10674 C 996.898 -4.2572 -0.441146 0
M  V30 10675 C 996.224 -5.11873 -1.54566 0
M  V30 10676 C 997.524 -5.1837 0.639489 0
M  V30 10677 H 999.218 -2.92459 0.640941 0
M  V30 10678 H 996.764 -1.40631 0.309675 0
M  V30 10679 H 998.717 -3.90195 -1.59141 0
M  V30 10680 H 997.441 -2.68768 -1.85557 0
M  V30 10681 H 996.1 -3.66579 0.0393908 0
M  V30 10682 H 995.748 -4.47256 -2.30155 0
M  V30 10683 H 995.448 -5.76886 -1.11698 0
M  V30 10684 H 996.972 -5.75185 -2.04925 0
M  V30 10685 H 998.386 -5.7287 0.22207 0
M  V30 10686 H 996.783 -5.91876 0.990089 0
M  V30 10687 H 997.853 -4.60627 1.51495 0
M  V30 10688 N 999.196 -0.349774 -1.5367 0
M  V30 10689 C 1000.61 0.132815 -1.86227 0
M  V30 10690 C 1000.96 1.49479 -1.27084 0
M  V30 10691 O 1000.08 2.08292 -0.58679 0
M  V30 10692 C 1000.68 0.247775 -3.37893 0
M  V30 10693 C 999.237 0.674603 -3.70305 0
M  V30 10694 C 998.384 -0.187869 -2.76663 0
M  V30 10695 H 1001.33 -0.569148 -1.48143 0
M  V30 10696 H 1001.36 1.07418 -3.65023 0
M  V30 10697 H 1000.87 -0.743635 -3.80909 0
M  V30 10698 H 998.969 1.67481 -3.32837 0
M  V30 10699 H 999.082 0.460177 -4.76885 0
M  V30 10700 H 997.446 0.340779 -2.5241 0
M  V30 10701 H 998.229 -1.17653 -3.2251 0
M  V30 10702 N 1000.67 1.57404 -0.0785433 0
M  V30 10703 C 1001.62 2.13104 0.88631 0
M  V30 10704 C 1002.59 1.04527 1.29086 0
M  V30 10705 O 1003.78 1.32226 1.37553 0
M  V30 10706 C 1000.92 2.70252 2.14611 0
M  V30 10707 C 1000.03 3.93007 1.79358 0
M  V30 10708 C 999.164 4.38376 3 0
M  V30 10709 C 998.203 5.53761 2.60796 0
M  V30 10710 N 997.34 5.94058 3.74219 0
M  V30 10711 H 1002.18 2.95243 0.404452 0
M  V30 10712 H 999.717 1.45894 0.187982 0
M  V30 10713 H 1001.67 3.01497 2.88367 0
M  V30 10714 H 1000.3 1.90868 2.60326 0
M  V30 10715 H 999.357 3.68181 0.956384 0
M  V30 10716 H 1000.67 4.76795 1.4652 0
M  V30 10717 H 999.823 4.71317 3.82027 0
M  V30 10718 H 998.562 3.53455 3.36037 0
M  V30 10719 H 997.567 5.20464 1.77192 0
M  V30 10720 H 998.792 6.40419 2.25922 0
M  V30 10721 H 996.738 5.12085 4.10005 0
M  V30 10722 H 996.655 6.72602 3.45171 0
M  V30 10723 H 997.923 6.31624 4.56805 0
M  V30 10724 N 1002.15 -0.195058 1.56388 0
M  V30 10725 C 1003.08 -1.24444 1.97575 0
M  V30 10726 C 1004.06 -1.47471 0.847717 0
M  V30 10727 O 1005.25 -1.59208 1.11205 0
M  V30 10728 C 1002.38 -2.58866 2.31529 0
M  V30 10729 C 1001.33 -2.50451 3.47071 0
M  V30 10730 C 1000.66 -3.89146 3.667 0
M  V30 10731 C 1001.96 -2.02953 4.81256 0
M  V30 10732 H 1003.65 -0.902178 2.85484 0
M  V30 10733 H 1001.2 -0.43254 1.3735 0
M  V30 10734 H 1003.15 -3.3246 2.58936 0
M  V30 10735 H 1001.87 -2.94833 1.40502 0
M  V30 10736 H 1000.53 -1.79313 3.19754 0
M  V30 10737 H 1000.18 -4.22466 2.73004 0
M  V30 10738 H 999.882 -3.84391 4.44429 0
M  V30 10739 H 1001.41 -4.64363 3.96484 0
M  V30 10740 H 1002.82 -2.66306 5.07695 0
M  V30 10741 H 1001.22 -2.092 5.62455 0
M  V30 10742 H 1002.29 -0.982757 4.74837 0
M  V30 10743 N 1003.63 -1.50653 -0.462772 0
M  V30 10744 C 1004.54 -1.72923 -1.58539 0
M  V30 10745 C 1005.56 -0.612577 -1.6286 0
M  V30 10746 O 1006.73 -0.891885 -1.80575 0
M  V30 10747 C 1003.8 -1.82623 -2.94703 0
M  V30 10748 C 1002.86 -3.06392 -3.00704 0
M  V30 10749 C 1002.09 -3.15618 -4.30373 0
M  V30 10750 O 1002.31 -2.31423 -5.21344 0
M  V30 10751 O 1001.25 -4.0841 -4.42136 0
M  V30 10752 H 1005.07 -2.68103 -1.42669 0
M  V30 10753 H 1002.66 -1.34848 -0.643144 0
M  V30 10754 H 1004.54 -1.91134 -3.7556 0
M  V30 10755 H 1003.22 -0.906275 -3.10754 0
M  V30 10756 H 1002.12 -3.03375 -2.18894 0
M  V30 10757 H 1003.46 -3.97992 -2.89591 0
M  V30 10758 N 1005.11 0.71652 -1.4037 0
M  V30 10759 C 1006.35 1.47857 -1.38803 0
M  V30 10760 C 1006.69 1.94197 0.0100536 0
M  V30 10761 O 1005.96 1.68093 0.978521 0
M  V30 10762 C 1006.25 2.7053 -2.37667 0
M  V30 10763 C 1006.1 2.3009 -3.86496 0
M  V30 10764 C 1007.42 3.72684 -2.34082 0
M  V30 10765 H 1004.54 0.53632 -0.505499 0
M  V30 10766 H 1007.18 0.817824 -1.71498 0
M  V30 10767 H 1005.33 3.26906 -2.09916 0
M  V30 10768 H 1007 1.79202 -4.2507 0
M  V30 10769 H 1005.24 1.62102 -4.02375 0
M  V30 10770 H 1005.91 3.18018 -4.51186 0
M  V30 10771 H 1008.39 3.25935 -2.58661 0
M  V30 10772 H 1007.27 4.56157 -3.05306 0
M  V30 10773 H 1007.53 4.20916 -1.35213 0
M  V30 10774 N 1006.59 1.25851 0.948643 0
M  V30 10775 C 1007.52 1.09248 2.06367 0
M  V30 10776 C 1008.5 -0.000205168 1.701 0
M  V30 10777 O 1009.68 0.170442 1.93451 0
M  V30 10778 C 1006.81 0.716777 3.39823 0
M  V30 10779 C 1005.77 1.76036 3.90122 0
M  V30 10780 C 1005.09 1.23918 5.20143 0
M  V30 10781 C 1006.39 3.16039 4.15833 0
M  V30 10782 H 1008.09 2.02518 2.20515 0
M  V30 10783 H 1005.63 0.975093 1.05962 0
M  V30 10784 H 1007.59 0.587531 4.17284 0
M  V30 10785 H 1006.31 -0.251626 3.25629 0
M  V30 10786 H 1004.97 1.87815 3.14835 0
M  V30 10787 H 1004.62 0.260836 5.02323 0
M  V30 10788 H 1004.32 1.93673 5.54765 0
M  V30 10789 H 1005.84 1.12245 6.00194 0
M  V30 10790 H 1007.25 3.0738 4.83933 0
M  V30 10791 H 1005.65 3.83317 4.61723 0
M  V30 10792 H 1006.72 3.62652 3.21887 0
M  V30 10793 N 1008.06 -1.15214 1.07534 0
M  V30 10794 C 1009.34 -1.82155 0.71267 0
M  V30 10795 C 1009.72 -1.95163 -0.804655 0
M  V30 10796 O 1009.07 -1.50451 -1.71979 0
M  V30 10797 C 1009.28 -3.18392 1.42925 0
M  V30 10798 C 1010.63 -3.94005 1.58256 0
M  V30 10799 O 1011.65 -3.27952 1.39018 0
M  V30 10800 O 1010.51 -5.12436 1.89925 0
M  V30 10801 H 1007.6 -0.78709 0.253808 0
M  V30 10802 H 1010.15 -1.22309 1.17638 0
M  V30 10803 H 1008.92 -3.04034 2.46331 0
M  V30 10804 H 1008.55 -3.85925 0.956439 0
M  V30 10805 N 1009.54 -0.859717 -1.32086 0
M  V30 10806 C 1010.47 -0.323502 -2.31248 0
M  V30 10807 C 1011.45 0.580085 -1.59903 0
M  V30 10808 O 1012.64 0.499265 -1.87673 0
M  V30 10809 C 1009.77 0.484661 -3.43902 0
M  V30 10810 C 1008.72 -0.324933 -4.26765 0
M  V30 10811 C 1008.05 0.608281 -5.31229 0
M  V30 10812 C 1009.35 -1.55344 -4.98664 0
M  V30 10813 H 1011.04 -1.15209 -2.76346 0
M  V30 10814 H 1008.59 -0.555442 -1.32856 0
M  V30 10815 H 1010.54 0.870238 -4.12316 0
M  V30 10816 H 1009.27 1.34666 -2.97544 0
M  V30 10817 H 1007.92 -0.692328 -3.60003 0
M  V30 10818 H 1007.57 1.46727 -4.81124 0
M  V30 10819 H 1007.27 0.0705571 -5.87558 0
M  V30 10820 H 1008.8 0.990925 -6.02506 0
M  V30 10821 H 1010.21 -1.23987 -5.59732 0
M  V30 10822 H 1008.61 -2.02947 -5.64741 0
M  V30 10823 H 1009.68 -2.31192 -4.26237 0
M  V30 10824 N 1011.02 1.44971 -0.618145 0
M  V30 10825 C 1011.98 2.29044 0.0846739 0
M  V30 10826 C 1012.98 1.40341 0.784921 0
M  V30 10827 O 1014.17 1.62351 0.631479 0
M  V30 10828 C 1011.31 3.21617 1.13027 0
M  V30 10829 H 1012.5 2.92668 -0.654612 0
M  V30 10830 H 1010.05 1.51668 -0.377672 0
M  V30 10831 H 1010.79 2.62815 1.89997 0
M  V30 10832 H 1010.57 3.86969 0.63224 0
M  V30 10833 H 1012.06 3.84805 1.62218 0
M  V30 10834 N 1012.5 0.357919 1.53482 0
M  V30 10835 C 1013.75 -0.2337 2.00744 0
M  V30 10836 C 1014.07 -1.49908 1.2471 0
M  V30 10837 O 1013.34 -1.92597 0.358235 0
M  V30 10838 H 1011.92 -0.0893474 0.741637 0
M  V30 10839 H 1014.58 0.482388 1.88836 0
M  V30 10840 H 1013.68 -0.466073 3.086 0
M  V30 10841 N 1013.98 -1.5736 0.0868897 0
M  V30 10842 C 1014.92 -2.14793 -0.892571 0
M  V30 10843 C 1015.92 -1.08866 -1.29787 0
M  V30 10844 O 1017.12 -1.27223 -1.27335 0
M  V30 10845 H 1013.5 -0.686998 -0.305838 0
M  V30 10846 H 1015.47 -2.95927 -0.383393 0
M  V30 10847 C 1014.22 -2.73646 -2.14507 0
M  V30 10848 H 1013.54 -3.54835 -1.84207 0
M  V30 10849 H 1014.98 -3.17409 -2.81118 0
M  V30 10850 C 1013.44 -1.69138 -2.91366 0
M  V30 10851 O 1013.97 -1.12539 -3.85614 0
M  V30 10852 N 1012.18 -1.3982 -2.54752 0
M  V30 10853 H 1011.72 -1.86035 -1.78182 0
M  V30 10854 H 1011.68 -0.701316 -3.06478 0
M  V30 10855 N 1015.45 0.186762 -1.56489 0
M  V30 10856 C 1016.39 1.25565 -1.91745 0
M  V30 10857 C 1017.4 1.4128 -0.80894 0
M  V30 10858 O 1018.59 1.41558 -1.08737 0
M  V30 10859 C 1015.69 2.62662 -2.14154 0
M  V30 10860 C 1014.86 2.68448 -3.45333 0
M  V30 10861 C 1013.92 3.86798 -3.56754 0
M  V30 10862 O 1012.95 3.73514 -4.29507 0
M  V30 10863 N 1014.15 5.02607 -2.90459 0
M  V30 10864 H 1016.91 0.956351 -2.84032 0
M  V30 10865 H 1014.47 0.376631 -1.57458 0
M  V30 10866 H 1016.47 3.40277 -2.19075 0
M  V30 10867 H 1015.04 2.85046 -1.28326 0
M  V30 10868 H 1014.26 1.77044 -3.52206 0
M  V30 10869 H 1015.54 2.69311 -4.31682 0
M  V30 10870 H 1014.94 5.163 -2.31194 0
M  V30 10871 H 1013.5 5.78139 -3.00996 0
M  V30 10872 N 1016.93 1.50896 0.454776 0
M  V30 10873 C 1017.86 1.73885 1.5584 0
M  V30 10874 C 1018.84 0.588172 1.59607 0
M  V30 10875 O 1020.03 0.829054 1.75614 0
M  V30 10876 C 1017.16 1.84796 2.94054 0
M  V30 10877 C 1016.11 3.00111 3.05152 0
M  V30 10878 C 1015.44 2.96183 4.45174 0
M  V30 10879 C 1016.74 4.40365 2.80849 0
M  V30 10880 H 1018.43 2.66292 1.36854 0
M  V30 10881 H 1015.98 1.28142 0.656936 0
M  V30 10882 H 1017.93 1.99462 3.71204 0
M  V30 10883 H 1016.66 0.890235 3.14233 0
M  V30 10884 H 1015.31 2.85121 2.30438 0
M  V30 10885 H 1014.96 1.98224 4.62295 0
M  V30 10886 H 1014.66 3.73608 4.53532 0
M  V30 10887 H 1016.19 3.1292 5.24322 0
M  V30 10888 H 1017.6 4.55795 3.47741 0
M  V30 10889 H 1016 5.19363 3.00636 0
M  V30 10890 H 1017.07 4.51606 1.76579 0
M  V30 10891 N 1018.41 -0.709066 1.40748 0
M  V30 10892 C 1019.36 -1.82312 1.4153 0
M  V30 10893 C 1020.33 -1.63868 0.271392 0
M  V30 10894 O 1021.51 -1.8491 0.470431 0
M  V30 10895 C 1018.65 -3.2008 1.29006 0
M  V30 10896 C 1017.77 -3.50051 2.53156 0
M  V30 10897 C 1016.9 -4.7736 2.33025 0
M  V30 10898 C 1015.94 -5.00255 3.52719 0
M  V30 10899 N 1015.08 -6.18782 3.31743 0
M  V30 10900 H 1019.92 -1.80978 2.36751 0
M  V30 10901 H 1017.45 -0.883975 1.17577 0
M  V30 10902 H 1019.41 -3.99645 1.19749 0
M  V30 10903 H 1018.04 -3.20626 0.374014 0
M  V30 10904 H 1017.09 -2.64993 2.72916 0
M  V30 10905 H 1018.41 -3.62877 3.42231 0
M  V30 10906 H 1017.56 -5.64954 2.21159 0
M  V30 10907 H 1016.3 -4.66756 1.41386 0
M  V30 10908 H 1015.3 -4.11114 3.65055 0
M  V30 10909 H 1016.53 -5.12728 4.45295 0
M  V30 10910 H 1014.47 -6.09416 2.42791 0
M  V30 10911 H 1014.39 -6.32313 4.14386 0
M  V30 10912 H 1015.66 -7.09146 3.23623 0
M  V30 10913 N 1019.89 -1.26353 -0.941956 0
M  V30 10914 C 1020.85 -1.07904 -2.02211 0
M  V30 10915 C 1021.85 -0.0276283 -1.60776 0
M  V30 10916 O 1023.04 -0.270965 -1.7208 0
M  V30 10917 C 1020.17 -0.641084 -3.34818 0
M  V30 10918 H 1021.37 -2.03804 -2.20009 0
M  V30 10919 H 1018.92 -1.08939 -1.12081 0
M  V30 10920 H 1019.66 0.319943 -3.22718 0
M  V30 10921 H 1019.44 -1.40027 -3.66244 0
M  V30 10922 H 1020.93 -0.533826 -4.14174 0
M  V30 10923 N 1021.37 1.14642 -1.08144 0
M  V30 10924 C 1022.3 2.21775 -0.730609 0
M  V30 10925 C 1023.28 1.67683 0.285702 0
M  V30 10926 O 1024.46 1.93567 0.156667 0
M  V30 10927 C 1021.59 3.47033 -0.136242 0
M  V30 10928 C 1020.55 4.14134 -1.0806 0
M  V30 10929 C 1019.87 5.33563 -0.348585 0
M  V30 10930 C 1021.17 4.62978 -2.41761 0
M  V30 10931 H 1022.87 2.51378 -1.62633 0
M  V30 10932 H 1020.41 1.20825 -0.783411 0
M  V30 10933 H 1022.37 4.21226 0.121182 0
M  V30 10934 H 1021.09 3.16786 0.7946 0
M  V30 10935 H 1019.75 3.41892 -1.32308 0
M  V30 10936 H 1019.4 4.99575 0.585974 0
M  V30 10937 H 1019.1 5.79402 -0.978122 0
M  V30 10938 H 1020.62 6.10519 -0.0991508 0
M  V30 10939 H 1022.04 5.28659 -2.21795 0
M  V30 10940 H 1020.43 5.1951 -3.00383 0
M  V30 10941 H 1021.5 3.78189 -3.03482 0
M  V30 10942 N 1022.85 0.866709 1.31628 0
M  V30 10943 C 1024.07 0.49039 2.01004 0
M  V30 10944 C 1024.49 -0.916244 1.65077 0
M  V30 10945 O 1023.85 -1.59975 0.8783 0
M  V30 10946 C 1023.9 0.634011 3.55897 0
M  V30 10947 O 1023.62 1.98525 3.90537 0
M  V30 10948 C 1025.12 0.258277 4.42547 0
M  V30 10949 H 1022.34 0.191421 0.643117 0
M  V30 10950 H 1024.88 1.16698 1.67934 0
M  V30 10951 H 1023.04 0.00501801 3.874 0
M  V30 10952 H 1023.45 1.99067 4.85255 0
M  V30 10953 H 1024.93 0.409733 5.50477 0
M  V30 10954 H 1025.4 -0.802301 4.3181 0
M  V30 10955 H 1026.01 0.862837 4.16456 0
M  V30 10956 N 1024.32 -1.44642 0.625825 0
M  V30 10957 C 1025.27 -2.32408 -0.0945221 0
M  V30 10958 C 1026.27 -1.47038 -0.841198 0
M  V30 10959 O 1027.47 -1.63415 -0.754698 0
M  V30 10960 H 1023.85 -0.75038 -0.0493321 0
M  V30 10961 H 1025.82 -2.90922 0.663863 0
M  V30 10962 C 1024.57 -3.30951 -1.06615 0
M  V30 10963 H 1023.89 -3.96648 -0.501021 0
M  V30 10964 H 1025.33 -3.95054 -1.53976 0
M  V30 10965 C 1023.79 -2.59479 -2.14877 0
M  V30 10966 O 1024.32 -2.38974 -3.22885 0
M  V30 10967 N 1022.52 -2.19307 -1.90665 0
M  V30 10968 H 1022.07 -2.36184 -1.02835 0
M  V30 10969 H 1022.03 -1.71811 -2.63303 0
M  V30 10970 N 1025.8 -0.366053 -1.5329 0
M  V30 10971 C 1027.05 0.223051 -2.00865 0
M  V30 10972 C 1027.37 1.49244 -1.25504 0
M  V30 10973 O 1026.64 1.92404 -0.368444 0
M  V30 10974 H 1025.22 0.085413 -0.742101 0
M  V30 10975 H 1027.88 -0.492396 -1.88578 0
M  V30 10976 H 1026.98 0.449701 -3.08843 0
M  V30 10977 N 1027.28 1.57312 -0.0952337 0
M  V30 10978 C 1028.5 1.99119 0.580206 0
M  V30 10979 C 1028.93 0.973955 1.60922 0
M  V30 10980 O 1028.29 -0.0575338 1.81209 0
M  V30 10981 C 1028.34 3.39893 1.20438 0
M  V30 10982 O 1027.44 3.40941 2.32019 0
M  V30 10983 H 1026.78 0.64748 0.147195 0
M  V30 10984 H 1029.31 2.03836 -0.176686 0
M  V30 10985 H 1029.32 3.7759 1.54564 0
M  V30 10986 H 1028 4.13453 0.450514 0
M  V30 10987 H 1026.57 3.1504 1.9951 0
M  V30 10988 N 1028.76 -0.17846 1.56586 0
M  V30 10989 C 1029.69 -1.22342 1.98884 0
M  V30 10990 C 1030.67 -1.46564 0.86331 0
M  V30 10991 O 1031.85 -1.58019 1.12887 0
M  V30 10992 C 1028.98 -2.56396 2.34261 0
M  V30 10993 C 1027.94 -2.46756 3.49708 0
M  V30 10994 C 1027.26 -3.85235 3.70807 0
M  V30 10995 C 1028.56 -1.97838 4.83381 0
M  V30 10996 H 1030.26 -0.871848 2.86425 0
M  V30 10997 H 1027.8 -0.417948 1.37801 0
M  V30 10998 H 1029.76 -3.29695 2.62448 0
M  V30 10999 H 1028.48 -2.93327 1.43621 0
M  V30 11000 H 1027.14 -1.75912 3.21637 0
M  V30 11001 H 1026.79 -4.19547 2.7747 0
M  V30 11002 H 1026.49 -3.79655 4.48481 0
M  V30 11003 H 1028.01 -4.60131 4.01387 0
M  V30 11004 H 1029.43 -2.60906 5.10491 0
M  V30 11005 H 1027.82 -2.03223 5.64642 0
M  V30 11006 H 1028.89 -0.932339 4.75852 0
M  V30 11007 N 1030.24 -1.51135 -0.446768 0
M  V30 11008 C 1031.65 -1.55919 -1.02694 0
M  V30 11009 C 1032 -0.377038 -1.92543 0
M  V30 11010 O 1031.12 0.507295 -2.1037 0
M  V30 11011 C 1031.72 -2.8257 -1.86922 0
M  V30 11012 C 1030.28 -2.89956 -2.40005 0
M  V30 11013 C 1029.42 -2.50482 -1.18971 0
M  V30 11014 H 1032.37 -1.57048 -0.228403 0
M  V30 11015 H 1032.4 -2.65799 -2.7227 0
M  V30 11016 H 1031.91 -3.6859 -1.21502 0
M  V30 11017 H 1030.01 -2.08343 -3.08907 0
M  V30 11018 H 1030.12 -3.93399 -2.73448 0
M  V30 11019 H 1028.49 -2.03466 -1.53211 0
M  V30 11020 H 1029.27 -3.38837 -0.551762 0
M  V30 11021 N 1031.71 0.701592 -1.41122 0
M  V30 11022 C 1032.68 1.79733 -1.42227 0
M  V30 11023 C 1033.68 1.57708 -0.313831 0
M  V30 11024 O 1034.87 1.64492 -0.573423 0
M  V30 11025 C 1032 3.18024 -1.22775 0
M  V30 11026 H 1033.19 1.80148 -2.39764 0
M  V30 11027 H 1030.74 0.908624 -1.27176 0
M  V30 11028 H 1031.48 3.23252 -0.260552 0
M  V30 11029 H 1031.26 3.35411 -2.0308 0
M  V30 11030 H 1032.75 3.98021 -1.2637 0
M  V30 11031 N 1033.19 1.2685 0.935242 0
M  V30 11032 C 1034.44 1.12522 1.67878 0
M  V30 11033 C 1034.76 -0.330894 1.92172 0
M  V30 11034 O 1034.03 -1.23259 1.52263 0
M  V30 11035 H 1032.61 0.413418 0.622169 0
M  V30 11036 H 1035.27 1.59267 1.12339 0
M  V30 11037 H 1034.37 1.64853 2.65009 0
M  V30 11038 N 1034.67 -1.14067 1.0875 0
M  V30 11039 C 1035.9 -1.89041 0.840902 0
M  V30 11040 C 1036.31 -1.78768 -0.60725 0
M  V30 11041 O 1035.67 -1.14945 -1.41753 0
M  V30 11042 C 1035.72 -3.38891 1.25838 0
M  V30 11043 O 1035.44 -3.48886 2.64972 0
M  V30 11044 C 1036.94 -4.30852 1.04315 0
M  V30 11045 H 1034.16 -0.598685 0.303014 0
M  V30 11046 H 1036.71 -1.44438 1.44769 0
M  V30 11047 H 1034.86 -3.81103 0.695627 0
M  V30 11048 H 1035.28 -4.41989 2.82393 0
M  V30 11049 H 1036.75 -5.34353 1.38461 0
M  V30 11050 H 1037.23 -4.39196 -0.0195784 0
M  V30 11051 H 1037.83 -3.944 1.59151 0
M  V30 11052 N 1036.15 -0.873678 -1.31166 0
M  V30 11053 C 1037.56 -0.566109 -1.49223 0
M  V30 11054 C 1037.76 0.898889 -1.80339 0
M  V30 11055 O 1036.82 1.68084 -1.88425 0
M  V30 11056 C 1038.13 -1.46952 -2.62346 0
M  V30 11057 C 1039.68 -1.47195 -2.76229 0
M  V30 11058 C 1040.16 -2.36102 -3.92454 0
M  V30 11059 N 1041.65 -2.34003 -3.99746 0
M  V30 11060 C 1042.38 -2.99513 -4.88958 0
M  V30 11061 N 1041.88 -3.74206 -5.83045 0
M  V30 11062 N 1043.67 -2.88802 -4.82234 0
M  V30 11063 H 1035.82 -1.82156 -1.09239 0
M  V30 11064 H 1038.09 -0.779086 -0.54012 0
M  V30 11065 H 1037.79 -2.51213 -2.4614 0
M  V30 11066 H 1037.67 -1.17077 -3.5857 0
M  V30 11067 H 1040.05 -0.436902 -2.91848 0
M  V30 11068 H 1040.13 -1.81095 -1.80661 0
M  V30 11069 H 1039.78 -3.39685 -3.77593 0
M  V30 11070 H 1039.71 -1.99524 -4.87337 0
M  V30 11071 H 1042.2 -1.79713 -3.32433 0
M  V30 11072 H 1042.51 -4.21312 -6.47855 0
M  V30 11073 H 1040.86 -3.78314 -5.83012 0
M  V30 11074 H 1044.05 -2.29984 -4.07707 0
M  V30 11075 H 1044.22 -3.40136 -5.51554 0
M  V30 11076 N 1037.63 1.44308 -0.633487 0
M  V30 11077 C 1038.56 2.33431 0.0568402 0
M  V30 11078 C 1039.54 1.48342 0.832386 0
M  V30 11079 O 1040.72 1.77056 0.797798 0
M  V30 11080 C 1037.85 3.31443 1.03743 0
M  V30 11081 C 1036.81 4.26368 0.373362 0
M  V30 11082 C 1036.13 5.14267 1.46403 0
M  V30 11083 C 1037.43 5.17287 -0.721876 0
M  V30 11084 H 1039.13 2.91402 -0.687388 0
M  V30 11085 H 1036.67 1.4012 -0.332009 0
M  V30 11086 H 1038.63 3.92677 1.52913 0
M  V30 11087 H 1037.35 2.71686 1.81258 0
M  V30 11088 H 1036.01 3.6647 -0.0977053 0
M  V30 11089 H 1035.66 4.50861 2.23011 0
M  V30 11090 H 1035.36 5.7859 1.02506 0
M  V30 11091 H 1036.88 5.78373 1.95748 0
M  V30 11092 H 1038.29 5.72444 -0.313181 0
M  V30 11093 H 1036.69 5.90226 -1.08413 0
M  V30 11094 H 1037.76 4.58159 -1.58804 0
M  V30 11095 N 1039.1 0.374177 1.53094 0
M  V30 11096 C 1040.52 0.0234783 1.59583 0
M  V30 11097 C 1040.72 -1.45984 1.38892 0
M  V30 11098 O 1039.78 -2.22251 1.19836 0
M  V30 11099 C 1041.09 0.487117 2.96728 0
M  V30 11100 C 1042.64 0.442073 3.09862 0
M  V30 11101 C 1043.11 0.881659 4.49434 0
M  V30 11102 N 1044.6 0.837062 4.55574 0
M  V30 11103 C 1045.34 1.14878 5.61774 0
M  V30 11104 N 1044.83 1.53022 6.75689 0
M  V30 11105 N 1046.63 1.07102 5.51802 0
M  V30 11106 H 1038.78 1.34003 1.64794 0
M  V30 11107 H 1041.04 0.548281 0.773364 0
M  V30 11108 H 1040.75 1.52252 3.17037 0
M  V30 11109 H 1040.62 -0.121772 3.77003 0
M  V30 11110 H 1043.01 -0.584216 2.89259 0
M  V30 11111 H 1043.09 1.08657 2.31576 0
M  V30 11112 H 1042.73 1.90611 4.70776 0
M  V30 11113 H 1042.66 0.214326 5.26164 0
M  V30 11114 H 1045.15 0.556173 3.73785 0
M  V30 11115 H 1045.47 1.75211 7.52676 0
M  V30 11116 H 1043.81 1.56895 6.77059 0
M  V30 11117 H 1047 0.772149 4.61688 0
M  V30 11118 H 1047.18 1.31728 6.3447 0
M  V30 11119 N 1040.58 -1.57259 0.103575 0
M  V30 11120 C 1042 -1.57581 -0.253062 0
M  V30 11121 C 1042.2 -1.11531 -1.67819 0
M  V30 11122 O 1041.25 -0.795632 -2.39637 0
M  V30 11123 C 1042.57 -3.00681 -0.0337753 0
M  V30 11124 C 1044.12 -3.12837 -0.10087 0
M  V30 11125 C 1044.59 -4.57911 0.0905295 0
M  V30 11126 N 1046.08 -4.63186 0.0359789 0
M  V30 11127 C 1046.82 -5.73179 0.159199 0
M  V30 11128 N 1046.31 -6.91976 0.337728 0
M  V30 11129 N 1048.11 -5.62011 0.0998662 0
M  V30 11130 H 1040.26 -1.85499 1.0346 0
M  V30 11131 H 1042.52 -0.856584 0.406163 0
M  V30 11132 H 1042.23 -3.38602 0.950858 0
M  V30 11133 H 1042.1 -3.69207 -0.772406 0
M  V30 11134 H 1044.49 -2.74783 -1.07601 0
M  V30 11135 H 1044.57 -2.46886 0.66939 0
M  V30 11136 H 1044.21 -4.9666 1.06258 0
M  V30 11137 H 1044.14 -5.21933 -0.699528 0
M  V30 11138 H 1046.63 -3.7777 -0.099121 0
M  V30 11139 H 1046.95 -7.71641 0.423032 0
M  V30 11140 H 1045.29 -6.93996 0.373504 0
M  V30 11141 H 1048.48 -4.68084 -0.0385356 0
M  V30 11142 H 1048.65 -6.47693 0.199342 0
M  V30 11143 N 1042.06 0.170153 -1.56679 0
M  V30 11144 C 1042.99 1.21285 -1.9953 0
M  V30 11145 C 1043.97 1.46104 -0.871071 0
M  V30 11146 O 1045.16 1.57419 -1.13724 0
M  V30 11147 C 1042.29 2.5515 -2.35618 0
M  V30 11148 C 1041.24 2.44898 -3.51011 0
M  V30 11149 C 1040.57 3.83263 -3.72845 0
M  V30 11150 C 1041.87 1.95271 -4.84424 0
M  V30 11151 H 1043.56 0.856646 -2.86883 0
M  V30 11152 H 1041.11 0.410634 -1.38021 0
M  V30 11153 H 1043.06 3.28299 -2.64193 0
M  V30 11154 H 1041.78 2.92561 -1.45175 0
M  V30 11155 H 1040.44 1.74203 -3.22566 0
M  V30 11156 H 1040.09 4.18069 -2.79691 0
M  V30 11157 H 1039.79 3.77272 -4.50488 0
M  V30 11158 H 1041.31 4.57996 -4.03822 0
M  V30 11159 H 1042.73 2.58195 -5.11867 0
M  V30 11160 H 1041.13 2.00225 -5.65712 0
M  V30 11161 H 1042.2 0.90709 -4.7634 0
M  V30 11162 N 1043.54 1.5137 0.438746 0
M  V30 11163 C 1044.82 1.54508 1.19944 0
M  V30 11164 C 1045.2 0.308525 2.08833 0
M  V30 11165 O 1044.54 -0.706461 2.17305 0
M  V30 11166 C 1044.75 2.85833 2.00251 0
M  V30 11167 C 1046.1 3.37729 2.5734 0
M  V30 11168 O 1047.13 2.87374 2.10463 0
M  V30 11169 O 1045.98 4.25589 3.42836 0
M  V30 11170 H 1043.08 0.621132 0.546007 0
M  V30 11171 H 1045.62 1.63682 0.447931 0
M  V30 11172 H 1044.4 3.67291 1.34955 0
M  V30 11173 H 1044.02 2.79815 2.8247 0
M  V30 11174 N 1045.02 -0.694098 1.41492 0
M  V30 11175 C 1046.26 -1.4563 1.41137 0
M  V30 11176 C 1046.6 -1.94189 0.0208428 0
M  V30 11177 O 1045.87 -1.69628 -0.951655 0
M  V30 11178 C 1046.15 -2.66714 2.41941 0
M  V30 11179 C 1046.01 -2.23912 3.90107 0
M  V30 11180 C 1047.33 -3.68913 2.39981 0
M  V30 11181 H 1044.44 -0.52821 0.513968 0
M  V30 11182 H 1047.09 -0.790437 1.72778 0
M  V30 11183 H 1045.24 -3.23525 2.1509 0
M  V30 11184 H 1046.91 -1.72417 4.27867 0
M  V30 11185 H 1045.15 -1.5568 4.04903 0
M  V30 11186 H 1045.82 -3.108 4.56188 0
M  V30 11187 H 1048.3 -3.21779 2.63813 0
M  V30 11188 H 1047.17 -4.51242 3.12524 0
M  V30 11189 H 1047.44 -4.18711 1.41892 0
M  V30 11190 N 1046.49 -1.27344 -0.928501 0
M  V30 11191 C 1047.72 -1.16557 -1.7155 0
M  V30 11192 C 1048.14 0.274044 -1.86093 0
M  V30 11193 O 1047.5 1.19847 -1.36038 0
M  V30 11194 C 1047.55 -1.85332 -3.09329 0
M  V30 11195 O 1046.65 -1.15074 -3.9602 0
M  V30 11196 H 1046 -0.405423 -0.525859 0
M  V30 11197 H 1048.53 -1.68399 -1.16202 0
M  V30 11198 H 1048.54 -1.92659 -3.59648 0
M  V30 11199 H 1047.21 -2.90056 -2.98061 0
M  V30 11200 H 1045.79 -1.1581 -3.54461 0
M  V30 11201 N 1047.97 1.13488 -1.09353 0
M  V30 11202 C 1049.21 1.86397 -0.83877 0
M  V30 11203 C 1049.58 1.81568 0.624259 0
M  V30 11204 O 1050.78 2.49709 0.994923 0
M  V30 11205 C 1049.05 3.30583 -1.35828 0
M  V30 11206 S 1050.61 4.20995 -1.23728 0
M  V30 11207 H 1047.43 0.643022 -0.303387 0
M  V30 11208 H 1050.03 1.36788 -1.39676 0
M  V30 11209 H 1048.73 3.31652 -2.41734 0
M  V30 11210 H 1048.26 3.85255 -0.796386 0
M  V30 11211 H 1050.28 4.95845 -0.187745 0
M  V30 11212 N 1049.45 0.880621 1.30701 0
M  V30 11213 C 1050.4 0.333562 2.30196 0
M  V30 11214 C 1051.39 -0.557092 1.59978 0
M  V30 11215 O 1052.6 -0.442009 1.74489 0
M  V30 11216 H 1048.97 0.0892036 0.746691 0
M  V30 11217 H 1050.95 1.18644 2.73799 0
M  V30 11218 C 1049.69 -0.440731 3.44895 0
M  V30 11219 H 1049.02 0.235353 3.99107 0
M  V30 11220 H 1050.46 -0.788676 4.166 0
M  V30 11221 C 1048.92 -1.63613 2.94504 0
M  V30 11222 O 1049.45 -2.73549 2.94166 0
M  V30 11223 N 1047.65 -1.47183 2.5057 0
M  V30 11224 H 1047.2 -0.577479 2.51044 0
M  V30 11225 H 1047.16 -2.27303 2.17211 0
M  V30 11226 N 1050.93 -1.4397 0.641131 0
M  V30 11227 C 1052.15 -2.06818 0.155318 0
M  V30 11228 C 1052.58 -1.47665 -1.16519 0
M  V30 11229 O 1051.94 -0.58192 -1.71707 0
M  V30 11230 C 1051.99 -3.60542 0.0647537 0
M  V30 11231 O 1051.09 -4.00674 -0.976447 0
M  V30 11232 H 1050.43 -0.657962 0.0893404 0
M  V30 11233 H 1052.96 -1.84678 0.88064 0
M  V30 11234 H 1052.97 -4.07816 -0.122552 0
M  V30 11235 H 1051.65 -4.02975 1.02878 0
M  V30 11236 H 1050.22 -3.65013 -0.762905 0
M  V30 11237 N 1052.41 -0.382291 -1.52893 0
M  V30 11238 C 1053.66 0.203342 -2.00672 0
M  V30 11239 C 1053.97 1.48487 -1.27322 0
M  V30 11240 O 1055.18 2.15013 -1.65776 0
M  V30 11241 C 1053.63 0.412922 -3.57523 0
M  V30 11242 C 1053.24 -0.854949 -4.39767 0
M  V30 11243 C 1054.98 0.955301 -4.13611 0
M  V30 11244 C 1052.89 -0.614033 -5.88204 0
M  V30 11245 H 1051.82 0.0797635 -0.749769 0
M  V30 11246 H 1054.47 -0.50361 -1.76454 0
M  V30 11247 H 1052.85 1.18155 -3.77962 0
M  V30 11248 H 1054.03 -1.62765 -4.31096 0
M  V30 11249 H 1052.34 -1.32176 -3.94865 0
M  V30 11250 H 1054.94 1.15114 -5.22162 0
M  V30 11251 H 1055.28 1.92233 -3.69259 0
M  V30 11252 H 1055.82 0.24642 -3.97036 0
M  V30 11253 H 1052.55 -1.55187 -6.36865 0
M  V30 11254 H 1052.07 0.119865 -5.9968 0
M  V30 11255 H 1053.75 -0.245895 -6.46533 0
M  V30 11256 N 1053.89 1.57202 -0.111913 0
M  V30 11257 C 1055.11 1.99723 0.559054 0
M  V30 11258 C 1055.54 0.990968 1.59879 0
M  V30 11259 O 1054.89 -0.038311 1.8126 0
M  V30 11260 C 1054.94 3.41151 1.16826 0
M  V30 11261 O 1054.05 3.43383 2.2839 0
M  V30 11262 H 1053.39 0.649004 0.140319 0
M  V30 11263 H 1055.92 2.03637 -0.198295 0
M  V30 11264 H 1055.93 3.79208 1.50551 0
M  V30 11265 H 1054.6 4.13907 0.406637 0
M  V30 11266 H 1053.18 3.17138 1.96158 0
M  V30 11267 N 1055.36 -0.161842 1.56767 0
M  V30 11268 C 1056.61 -0.876925 1.82527 0
M  V30 11269 C 1056.94 -1.81831 0.690492 0
M  V30 11270 O 1056.19 -1.9304 -0.32159 0
M  V30 11271 C 1056.49 -1.69736 3.14522 0
M  V30 11272 C 1056.16 -0.904075 4.41743 0
M  V30 11273 C 1054.82 -0.685168 4.76297 0
M  V30 11274 C 1057.17 -0.348282 5.20035 0
M  V30 11275 C 1054.5 0.10048 5.86614 0
M  V30 11276 C 1056.85 0.424327 6.31175 0
M  V30 11277 C 1055.52 0.653948 6.64289 0
M  V30 11278 H 1054.79 -0.320889 0.667915 0
M  V30 11279 H 1057.43 -0.141338 1.90978 0
M  V30 11280 H 1055.74 -2.50262 3.01456 0
M  V30 11281 H 1057.44 -2.25386 3.31666 0
M  V30 11282 H 1054.03 -1.08474 4.14646 0
M  V30 11283 H 1058.21 -0.504721 4.93727 0
M  V30 11284 H 1053.47 0.288029 6.10721 0
M  V30 11285 H 1057.64 0.862203 6.91042 0
M  V30 11286 H 1055.27 1.26459 7.49608 0
M  V30 11287 N 1056.84 -1.516 -0.430713 0
M  V30 11288 C 1058.09 -1.6484 -1.18134 0
M  V30 11289 C 1058.42 -0.366725 -1.90706 0
M  V30 11290 O 1057.7 0.63398 -1.83878 0
M  V30 11291 C 1057.98 -2.85617 -2.19306 0
M  V30 11292 C 1057.83 -4.23778 -1.50773 0
M  V30 11293 C 1059.15 -3.01909 -3.20217 0
M  V30 11294 H 1056.27 -0.599907 -0.428113 0
M  V30 11295 H 1058.91 -1.84102 -0.46973 0
M  V30 11296 H 1057.06 -2.69325 -2.79993 0
M  V30 11297 H 1058.73 -4.51752 -0.93371 0
M  V30 11298 H 1056.98 -4.26171 -0.809966 0
M  V30 11299 H 1057.65 -5.04291 -2.24487 0
M  V30 11300 H 1060.12 -3.16956 -2.69589 0
M  V30 11301 H 1059 -3.87968 -3.88293 0
M  V30 11302 H 1059.26 -2.1427 -3.86705 0
M  V30 11303 N 1058.32 0.686584 -1.41858 0
M  V30 11304 C 1059.28 1.78214 -1.44126 0
M  V30 11305 C 1060.28 1.57366 -0.330541 0
M  V30 11306 O 1061.47 1.63874 -0.590837 0
M  V30 11307 C 1058.6 3.16704 -1.26142 0
M  V30 11308 H 1059.8 1.77594 -2.41661 0
M  V30 11309 H 1057.35 0.895085 -1.28132 0
M  V30 11310 H 1058.09 3.22957 -0.294823 0
M  V30 11311 H 1057.87 3.33238 -2.06627 0
M  V30 11312 H 1059.36 3.96658 -1.30584 0
M  V30 11313 N 1059.8 1.27835 0.921735 0
M  V30 11314 C 1061.21 1.13151 1.48505 0
M  V30 11315 C 1061.56 -0.281373 1.94172 0
M  V30 11316 O 1060.68 -1.17487 1.8173 0
M  V30 11317 C 1061.28 2.04792 2.69899 0
M  V30 11318 C 1059.84 1.94196 3.22436 0
M  V30 11319 C 1058.99 1.96999 1.95158 0
M  V30 11320 H 1061.94 1.40641 0.735241 0
M  V30 11321 H 1061.96 1.60724 3.44889 0
M  V30 11322 H 1061.47 3.07615 2.36631 0
M  V30 11323 H 1059.57 0.943805 3.60448 0
M  V30 11324 H 1059.68 2.80744 3.88226 0
M  V30 11325 H 1058.05 1.41301 2.11911 0
M  V30 11326 H 1058.83 3.01487 1.64196 0
M  V30 11327 N 1061.28 -1.12907 1.09954 0
M  V30 11328 C 1062.52 -1.83941 0.837255 0
M  V30 11329 C 1062.84 -1.84234 -0.638984 0
M  V30 11330 O 1062.11 -1.30193 -1.46378 0
M  V30 11331 H 1060.69 -0.681115 0.306743 0
M  V30 11332 H 1063.36 -1.36743 1.38879 0
M  V30 11333 H 1062.45 -2.88289 1.19565 0
M  V30 11334 N 1062.75 -0.88754 -1.30232 0
M  V30 11335 C 1064 -0.507279 -1.96043 0
M  V30 11336 C 1064.33 0.944059 -1.70052 0
M  V30 11337 O 1063.58 1.68255 -0.999444 0
M  V30 11338 C 1063.88 -0.731765 -3.49828 0
M  V30 11339 C 1063.55 -2.15858 -3.95874 0
M  V30 11340 C 1062.21 -2.54875 -4.08157 0
M  V30 11341 C 1064.56 -3.0883 -4.19849 0
M  V30 11342 C 1061.89 -3.86069 -4.41778 0
M  V30 11343 C 1064.24 -4.39559 -4.5494 0
M  V30 11344 C 1062.91 -4.78465 -4.65432 0
M  V30 11345 H 1062.18 -0.185627 -0.717373 0
M  V30 11346 H 1064.82 -1.12388 -1.55052 0
M  V30 11347 H 1063.13 -0.0321473 -3.91787 0
M  V30 11348 H 1064.83 -0.417107 -3.98825 0
M  V30 11349 H 1061.42 -1.84574 -3.86821 0
M  V30 11350 H 1065.6 -2.79906 -4.09837 0
M  V30 11351 H 1060.86 -4.1595 -4.48102 0
M  V30 11352 H 1065.03 -5.11636 -4.72442 0
M  V30 11353 H 1062.66 -5.80162 -4.91239 0
M  V30 11354 N 1064.23 1.43628 -0.648757 0
M  V30 11355 C 1065.48 2.01864 -0.160336 0
M  V30 11356 C 1065.81 1.51148 1.22412 0
M  V30 11357 O 1065.06 0.693168 1.83013 0
M  V30 11358 C 1065.36 3.57214 -0.115282 0
M  V30 11359 C 1065.03 4.27258 -1.44088 0
M  V30 11360 C 1063.69 4.46109 -1.8039 0
M  V30 11361 C 1066.04 4.66962 -2.31508 0
M  V30 11362 C 1063.37 5.01928 -3.03785 0
M  V30 11363 C 1065.72 5.24148 -3.54191 0
M  V30 11364 C 1064.39 5.41216 -3.90694 0
M  V30 11365 H 1063.66 0.738674 -0.0586712 0
M  V30 11366 H 1066.3 1.72163 -0.838578 0
M  V30 11367 H 1064.61 3.86431 0.646395 0
M  V30 11368 H 1066.3 4.00025 0.279425 0
M  V30 11369 H 1062.89 4.12928 -1.14842 0
M  V30 11370 H 1067.08 4.52095 -2.04753 0
M  V30 11371 H 1062.33 5.13328 -3.32122 0
M  V30 11372 H 1066.51 5.53861 -4.22151 0
M  V30 11373 H 1064.14 5.84234 -4.8639 0
M  V30 11374 N 1065.71 0.390394 1.52688 0
M  V30 11375 C 1066.94 -0.194013 2.06491 0
M  V30 11376 C 1067.36 -1.3965 1.26014 0
M  V30 11377 O 1066.72 -1.79038 0.285468 0
M  V30 11378 C 1066.77 -0.541306 3.56514 0
M  V30 11379 O 1065.87 -1.63509 3.78601 0
M  V30 11380 H 1065.21 -0.0223608 0.663623 0
M  V30 11381 H 1067.74 0.558179 1.96839 0
M  V30 11382 H 1067.75 -0.805301 3.99974 0
M  V30 11383 H 1066.43 0.337828 4.14526 0
M  V30 11384 H 1065 -1.36473 3.4703 0
M  V30 11385 N 1067.19 -1.57141 0.120249 0
M  V30 11386 C 1068.14 -2.15379 -0.829497 0
M  V30 11387 C 1069.11 -1.07913 -1.2627 0
M  V30 11388 O 1070.29 -1.35827 -1.33999 0
M  V30 11389 C 1067.43 -2.75847 -2.0737 0
M  V30 11390 C 1066.54 -3.97624 -1.68875 0
M  V30 11391 C 1065.68 -4.46175 -2.88272 0
M  V30 11392 C 1064.72 -5.60481 -2.46023 0
M  V30 11393 N 1063.85 -6.0377 -3.58337 0
M  V30 11394 H 1068.69 -2.96211 -0.326031 0
M  V30 11395 H 1066.23 -1.46341 -0.149235 0
M  V30 11396 H 1068.19 -3.09037 -2.80272 0
M  V30 11397 H 1066.82 -1.97703 -2.55174 0
M  V30 11398 H 1065.87 -3.70588 -0.858431 0
M  V30 11399 H 1067.18 -4.80512 -1.33827 0
M  V30 11400 H 1066.34 -4.8128 -3.69397 0
M  V30 11401 H 1065.08 -3.6224 -3.26548 0
M  V30 11402 H 1064.08 -5.24979 -1.63331 0
M  V30 11403 H 1065.31 -6.46184 -2.08863 0
M  V30 11404 H 1063.25 -5.22776 -3.96284 0
M  V30 11405 H 1063.17 -6.81517 -3.27217 0
M  V30 11406 H 1064.44 -6.43514 -4.39898 0
M  V30 11407 N 1068.67 0.153526 -1.5685 0
M  V30 11408 C 1069.63 1.17362 -1.96873 0
M  V30 11409 C 1070.63 1.36219 -0.854456 0
M  V30 11410 O 1071.82 1.33322 -1.1212 0
M  V30 11411 C 1068.95 2.53523 -2.27901 0
M  V30 11412 H 1070.14 0.830432 -2.88173 0
M  V30 11413 H 1067.7 0.396633 -1.51184 0
M  V30 11414 H 1068.43 2.92824 -1.39371 0
M  V30 11415 H 1068.22 2.41198 -3.09137 0
M  V30 11416 H 1069.71 3.27006 -2.59725 0
M  V30 11417 N 1070.14 1.51827 0.422667 0
M  V30 11418 C 1071.09 1.74198 1.51406 0
M  V30 11419 C 1072.06 0.584013 1.55494 0
M  V30 11420 O 1073.25 0.820079 1.72277 0
M  V30 11421 C 1070.39 1.88627 2.88988 0
M  V30 11422 C 1069.5 3.16233 2.94314 0
M  V30 11423 C 1068.63 3.21172 4.2311 0
M  V30 11424 C 1067.67 4.43033 4.2236 0
M  V30 11425 N 1066.81 4.4544 5.42704 0
M  V30 11426 H 1071.65 2.67352 1.31632 0
M  V30 11427 H 1069.19 1.32487 0.63919 0
M  V30 11428 H 1071.15 1.94976 3.68837 0
M  V30 11429 H 1069.78 0.988673 3.07287 0
M  V30 11430 H 1068.83 3.19123 2.07039 0
M  V30 11431 H 1070.14 4.06104 2.89623 0
M  V30 11432 H 1069.29 3.26517 5.11343 0
M  V30 11433 H 1068.03 2.29216 4.30478 0
M  V30 11434 H 1067.04 4.37849 3.32518 0
M  V30 11435 H 1068.26 5.3627 4.16643 0
M  V30 11436 H 1066.21 3.56361 5.50766 0
M  V30 11437 H 1066.13 5.29138 5.39953 0
M  V30 11438 H 1067.39 4.54997 6.32928 0
M  V30 11439 N 1071.62 -0.679052 1.4222 0
M  V30 11440 C 1072.53 -1.82221 1.47759 0
M  V30 11441 C 1073.55 -1.70092 0.3667 0
M  V30 11442 O 1074.72 -1.91718 0.616957 0
M  V30 11443 C 1071.79 -3.18332 1.37351 0
M  V30 11444 C 1070.85 -3.42449 2.58896 0
M  V30 11445 C 1070.08 -4.72067 2.48976 0
M  V30 11446 O 1070.31 -5.49683 1.5233 0
M  V30 11447 O 1069.24 -4.97333 3.39033 0
M  V30 11448 H 1073.07 -1.80504 2.44238 0
M  V30 11449 H 1070.65 -0.834251 1.23938 0
M  V30 11450 H 1072.53 -3.99563 1.33893 0
M  V30 11451 H 1071.21 -3.20696 0.439965 0
M  V30 11452 H 1070.12 -2.61083 2.6793 0
M  V30 11453 H 1071.45 -3.44912 3.51136 0
M  V30 11454 N 1073.1 -1.28322 -0.914942 0
M  V30 11455 C 1074.03 -1.14681 -2.03398 0
M  V30 11456 C 1075.01 -0.0448939 -1.70041 0
M  V30 11457 O 1076.2 -0.221672 -1.92931 0
M  V30 11458 C 1073.33 -0.806623 -3.37803 0
M  V30 11459 C 1072.28 -1.86318 -3.85318 0
M  V30 11460 C 1071.61 -1.37665 -5.16674 0
M  V30 11461 C 1072.91 -3.26953 -4.07307 0
M  V30 11462 H 1074.6 -2.08293 -2.15068 0
M  V30 11463 H 1072.15 -1.00284 -1.03339 0
M  V30 11464 H 1074.1 -0.69796 -4.1558 0
M  V30 11465 H 1072.82 0.165203 -3.26182 0
M  V30 11466 H 1071.48 -1.96096 -3.09745 0
M  V30 11467 H 1071.13 -0.393927 -5.01455 0
M  V30 11468 H 1070.83 -2.08313 -5.49435 0
M  V30 11469 H 1072.35 -1.28119 -5.97007 0
M  V30 11470 H 1073.77 -3.20102 -4.75613 0
M  V30 11471 H 1072.17 -3.95424 -4.51398 0
M  V30 11472 H 1073.24 -3.71059 -3.12159 0
M  V30 11473 N 1074.58 1.12322 -1.10551 0
M  V30 11474 C 1075.99 1.35858 -0.837543 0
M  V30 11475 C 1076.19 1.94062 0.54241 0
M  V30 11476 O 1075.25 2.1676 1.29505 0
M  V30 11477 C 1076.56 2.299 -1.9382 0
M  V30 11478 C 1078.11 2.43488 -1.96679 0
M  V30 11479 C 1078.59 3.40846 -3.05922 0
M  V30 11480 N 1080.08 3.48404 -3.05236 0
M  V30 11481 C 1080.81 4.2365 -3.86405 0
M  V30 11482 N 1080.31 5.01951 -4.77512 0
M  V30 11483 N 1082.1 4.19068 -3.74618 0
M  V30 11484 H 1074.25 0.729002 -1.99498 0
M  V30 11485 H 1076.52 0.38339 -0.867016 0
M  V30 11486 H 1076.22 1.94309 -2.9315 0
M  V30 11487 H 1076.1 3.30033 -1.82641 0
M  V30 11488 H 1078.48 2.78359 -0.979813 0
M  V30 11489 H 1078.56 1.43239 -2.11934 0
M  V30 11490 H 1078.21 3.06704 -4.04839 0
M  V30 11491 H 1078.14 4.40927 -2.87907 0
M  V30 11492 H 1080.63 2.92545 -2.39219 0
M  V30 11493 H 1080.94 5.56707 -5.36002 0
M  V30 11494 H 1079.29 5.01143 -4.8154 0
M  V30 11495 H 1082.48 3.5698 -3.02792 0
M  V30 11496 H 1082.65 4.77455 -4.38111 0
M  V30 11497 N 1076.06 0.894434 1.2976 0
M  V30 11498 C 1076.97 0.372622 2.31622 0
M  V30 11499 C 1077.98 -0.52996 1.65733 0
M  V30 11500 O 1079.16 -0.420807 1.96955 0
M  V30 11501 C 1076.22 -0.396076 3.4443 0
M  V30 11502 C 1075.28 0.537394 4.25923 0
M  V30 11503 C 1074.52 -0.194713 5.33345 0
M  V30 11504 O 1074.74 -1.41943 5.52457 0
M  V30 11505 O 1073.67 0.460055 6.00139 0
M  V30 11506 H 1077.5 1.21756 2.78225 0
M  V30 11507 H 1075.09 0.65858 1.34101 0
M  V30 11508 H 1076.97 -0.830962 4.13126 0
M  V30 11509 H 1075.64 -1.21716 2.99945 0
M  V30 11510 H 1074.55 1.02129 3.5989 0
M  V30 11511 H 1075.88 1.32475 4.74037 0
M  V30 11512 N 1077.53 -1.43282 0.656365 0
M  V30 11513 C 1078.46 -2.33492 -0.0196962 0
M  V30 11514 C 1079.45 -1.49647 -0.80868 0
M  V30 11515 O 1080.63 -1.78303 -0.769529 0
M  V30 11516 C 1077.76 -3.33052 -0.984574 0
M  V30 11517 C 1076.71 -4.26908 -0.305483 0
M  V30 11518 C 1076.04 -5.16531 -1.38202 0
M  V30 11519 C 1077.34 -5.16073 0.804081 0
M  V30 11520 H 1079.03 -2.90272 0.733661 0
M  V30 11521 H 1076.58 -1.39574 0.354259 0
M  V30 11522 H 1078.53 -3.9506 -1.46647 0
M  V30 11523 H 1077.26 -2.74535 -1.76913 0
M  V30 11524 H 1075.92 -3.66268 0.155995 0
M  V30 11525 H 1075.56 -4.54351 -2.1581 0
M  V30 11526 H 1075.26 -5.80148 -0.932878 0
M  V30 11527 H 1076.79 -5.81414 -1.86522 0
M  V30 11528 H 1078.2 -5.71873 0.404212 0
M  V30 11529 H 1076.6 -5.88427 1.17789 0
M  V30 11530 H 1077.67 -4.55574 1.66073 0
M  V30 11531 N 1079.01 -0.398486 -1.52479 0
M  V30 11532 C 1079.96 0.447001 -2.28264 0
M  V30 11533 C 1080.96 1.05511 -1.32529 0
M  V30 11534 O 1082.16 0.994528 -1.5003 0
M  V30 11535 H 1078.54 0.162919 -0.73414 0
M  V30 11536 H 1080.51 -0.213534 -2.97635 0
M  V30 11537 C 1079.26 1.55724 -3.10879 0
M  V30 11538 H 1078.58 1.09864 -3.84409 0
M  V30 11539 H 1080.02 2.12286 -3.67029 0
M  V30 11540 C 1078.48 2.51853 -2.23768 0
M  V30 11541 O 1079.01 3.55483 -1.87069 0
M  V30 11542 N 1077.21 2.2181 -1.87746 0
M  V30 11543 H 1076.76 1.3757 -2.17789 0
M  V30 11544 H 1076.72 2.86376 -1.29753 0
M  V30 11545 N 1080.49 1.57075 -0.12858 0
M  V30 11546 C 1081.42 2.18833 0.814519 0
M  V30 11547 C 1082.4 1.13114 1.2704 0
M  V30 11548 O 1083.59 1.41387 1.33129 0
M  V30 11549 C 1080.72 2.79535 2.06101 0
M  V30 11550 C 1079.67 3.9092 1.74257 0
M  V30 11551 C 1079 4.38473 3.06015 0
M  V30 11552 C 1080.3 5.1257 1.00345 0
M  V30 11553 H 1081.99 2.97895 0.299862 0
M  V30 11554 H 1079.54 1.4329 0.14279 0
M  V30 11555 H 1081.49 3.21401 2.72543 0
M  V30 11556 H 1080.21 1.97777 2.59907 0
M  V30 11557 H 1078.87 3.49645 1.102 0
M  V30 11558 H 1078.52 3.53561 3.57776 0
M  V30 11559 H 1078.22 5.13591 2.85479 0
M  V30 11560 H 1079.75 4.82997 3.7356 0
M  V30 11561 H 1081.16 5.51395 1.56959 0
M  V30 11562 H 1079.56 5.93333 0.898693 0
M  V30 11563 H 1080.63 4.84899 -0.0081335 0
M  V30 11564 N 1081.97 -0.145205 1.5693 0
M  V30 11565 C 1083.19 -0.876386 1.87974 0
M  V30 11566 C 1083.62 -1.73866 0.717795 0
M  V30 11567 O 1082.98 -1.78224 -0.332551 0
M  V30 11568 C 1083.03 -1.70746 3.17613 0
M  V30 11569 O 1082.13 -2.81188 3.01674 0
M  V30 11570 H 1081.47 -0.243987 0.617549 0
M  V30 11571 H 1084 -0.135482 2.04151 0
M  V30 11572 H 1084.01 -2.1021 3.49679 0
M  V30 11573 H 1082.69 -1.07429 4.01786 0
M  V30 11574 H 1081.26 -2.45117 2.81019 0
M  V30 11575 N 1083.45 -1.52049 -0.414609 0
M  V30 11576 C 1084.41 -1.74382 -1.4874 0
M  V30 11577 C 1085.41 -0.613701 -1.48628 0
M  V30 11578 O 1086.6 -0.88152 -1.50249 0
M  V30 11579 C 1083.73 -1.82116 -2.88178 0
M  V30 11580 H 1084.93 -2.70147 -1.30233 0
M  V30 11581 H 1082.48 -1.42382 -0.644756 0
M  V30 11582 H 1083.21 -0.882457 -3.12063 0
M  V30 11583 H 1083 -2.64268 -2.89663 0
M  V30 11584 H 1084.49 -2.01155 -3.65959 0
M  V30 11585 N 1084.93 0.6715 -1.42579 0
M  V30 11586 C 1085.87 1.80623 -1.46554 0
M  V30 11587 C 1086.87 1.65934 -0.340932 0
M  V30 11588 O 1088.07 1.72502 -0.514098 0
M  V30 11589 H 1084.45 0.595619 -0.459067 0
M  V30 11590 H 1086.42 1.74388 -2.42139 0
M  V30 11591 C 1085.17 3.18794 -1.38801 0
M  V30 11592 H 1084.49 3.30725 -2.24635 0
M  V30 11593 H 1085.93 3.98201 -1.45645 0
M  V30 11594 C 1084.39 3.36742 -0.103219 0
M  V30 11595 O 1084.92 3.92761 0.842715 0
M  V30 11596 N 1083.13 2.90594 -0.0193034 0
M  V30 11597 H 1082.67 2.45192 -0.78986 0
M  V30 11598 H 1082.63 3.0298 0.839686 0
M  V30 11599 N 1086.4 1.28806 0.908124 0
M  V30 11600 C 1087.37 1.13228 1.99279 0
M  V30 11601 C 1088.37 0.0702456 1.60646 0
M  V30 11602 O 1089.56 0.316494 1.71301 0
M  V30 11603 C 1086.69 0.729629 3.33 0
M  V30 11604 H 1087.88 2.09566 2.14528 0
M  V30 11605 H 1085.43 1.11872 1.09153 0
M  V30 11606 H 1086.17 -0.234268 3.23453 0
M  V30 11607 H 1085.95 1.49688 3.62403 0
M  V30 11608 H 1087.44 0.643449 4.12613 0
M  V30 11609 N 1087.88 -1.11734 1.11145 0
M  V30 11610 C 1088.81 -2.1976 0.789152 0
M  V30 11611 C 1089.79 -1.68382 -0.241143 0
M  V30 11612 O 1090.98 -1.93914 -0.105292 0
M  V30 11613 C 1088.11 -3.46549 0.228204 0
M  V30 11614 C 1087.06 -4.11123 1.19002 0
M  V30 11615 C 1086.39 -5.32451 0.489928 0
M  V30 11616 C 1087.69 -4.56406 2.53951 0
M  V30 11617 H 1089.38 -2.46978 1.69241 0
M  V30 11618 H 1086.93 -1.18705 0.81517 0
M  V30 11619 H 1088.88 -4.21399 -0.00945908 0
M  V30 11620 H 1087.6 -3.18782 -0.71033 0
M  V30 11621 H 1086.26 -3.38264 1.41326 0
M  V30 11622 H 1085.91 -5.00953 -0.453315 0
M  V30 11623 H 1085.61 -5.76605 1.1314 0
M  V30 11624 H 1087.14 -6.10042 0.260984 0
M  V30 11625 H 1088.55 -5.22592 2.35733 0
M  V30 11626 H 1086.95 -5.11363 3.14051 0
M  V30 11627 H 1088.02 -3.7001 3.13402 0
M  V30 11628 N 1089.36 -0.901303 -1.29284 0
M  V30 11629 C 1090.31 -0.378666 -2.27672 0
M  V30 11630 C 1091.28 0.540102 -1.57074 0
M  V30 11631 O 1092.46 0.464997 -1.85047 0
M  V30 11632 C 1089.6 0.38635 -3.42931 0
M  V30 11633 C 1088.71 -0.563496 -4.28309 0
M  V30 11634 C 1087.85 0.218731 -5.30749 0
M  V30 11635 C 1086.89 -0.725536 -6.07785 0
M  V30 11636 N 1086.03 0.0223854 -7.02096 0
M  V30 11637 H 1090.87 -1.22277 -2.71758 0
M  V30 11638 H 1088.4 -0.614302 -1.33659 0
M  V30 11639 H 1090.36 0.845967 -4.08533 0
M  V30 11640 H 1088.99 1.1949 -2.9987 0
M  V30 11641 H 1088.04 -1.14163 -3.62865 0
M  V30 11642 H 1089.35 -1.28623 -4.81931 0
M  V30 11643 H 1088.51 0.739473 -6.02177 0
M  V30 11644 H 1087.25 0.97459 -4.77863 0
M  V30 11645 H 1086.25 -1.25776 -5.3522 0
M  V30 11646 H 1087.48 -1.48075 -6.6276 0
M  V30 11647 H 1085.42 0.760482 -6.51577 0
M  V30 11648 H 1085.34 -0.640408 -7.53283 0
M  V30 11649 H 1086.61 0.523339 -7.77741 0
M  V30 11650 N 1090.84 1.42931 -0.663954 0
M  V30 11651 C 1092.07 2.06028 -0.189808 0
M  V30 11652 C 1092.48 1.49827 1.14879 0
M  V30 11653 O 1091.84 0.633778 1.71142 0
M  V30 11654 C 1091.89 3.61349 -0.104343 0
M  V30 11655 O 1091.61 4.15463 -1.39004 0
M  V30 11656 C 1093.11 4.4154 0.394599 0
M  V30 11657 H 1090.33 0.664259 -0.0948744 0
M  V30 11658 H 1092.87 1.83255 -0.907632 0
M  V30 11659 H 1091.03 3.83271 0.564103 0
M  V30 11660 H 1091.44 5.09233 -1.25626 0
M  V30 11661 H 1092.92 5.50525 0.403329 0
M  V30 11662 H 1093.39 4.1534 1.4279 0
M  V30 11663 H 1094 4.24612 -0.241729 0
M  V30 11664 N 1092.32 0.406567 1.52266 0
M  V30 11665 C 1093.56 -0.170305 2.02084 0
M  V30 11666 C 1093.89 -1.45008 1.29176 0
M  V30 11667 O 1093.17 -1.90399 0.39731 0
M  V30 11668 C 1093.45 -0.420627 3.57635 0
M  V30 11669 C 1093.31 0.87564 4.41194 0
M  V30 11670 C 1094.62 -1.20387 4.23314 0
M  V30 11671 H 1091.74 -0.0604219 0.734519 0
M  V30 11672 H 1094.39 0.539529 1.82179 0
M  V30 11673 H 1092.54 -1.0253 3.74726 0
M  V30 11674 H 1094.21 1.51192 4.35819 0
M  V30 11675 H 1092.45 1.48718 4.07511 0
M  V30 11676 H 1093.12 0.654916 5.48101 0
M  V30 11677 H 1095.6 -0.691972 4.10306 0
M  V30 11678 H 1094.47 -1.34776 5.32096 0
M  V30 11679 H 1094.73 -2.2238 3.82099 0
M  V30 11680 N 1093.79 -1.57004 0.136909 0
M  V30 11681 C 1095.07 -1.87375 -0.561233 0
M  V30 11682 C 1095.45 -1.04117 -1.83638 0
M  V30 11683 O 1094.8 -0.125103 -2.28157 0
M  V30 11684 C 1095.01 -3.38829 -0.836426 0
M  V30 11685 C 1096.36 -4.07826 -1.18164 0
M  V30 11686 O 1097.38 -3.4395 -0.92611 0
M  V30 11687 O 1096.24 -5.20614 -1.66204 0
M  V30 11688 H 1093.33 -0.776287 -0.285145 0
M  V30 11689 H 1095.88 -1.68818 0.172761 0
M  V30 11690 H 1094.65 -3.91244 0.066442 0
M  V30 11691 H 1094.28 -3.62879 -1.62496 0
M  V30 11692 N 1095.27 0.136881 -1.57004 0
M  V30 11693 C 1096.22 1.17411 -1.95445 0
M  V30 11694 C 1097.21 1.38019 -0.827015 0
M  V30 11695 O 1098.4 1.39412 -1.09057 0
M  V30 11696 C 1095.53 2.50525 -2.34717 0
M  V30 11697 C 1094.61 2.33467 -3.54054 0
M  V30 11698 N 1095 1.86184 -4.70286 0
M  V30 11699 C 1093.3 2.64185 -3.59336 0
M  V30 11700 C 1094 1.82411 -5.5236 0
M  V30 11701 N 1092.98 2.26098 -4.94349 0
M  V30 11702 H 1096.78 0.8008 -2.8278 0
M  V30 11703 H 1094.3 0.344831 -1.58697 0
M  V30 11704 H 1096.29 3.2552 -2.60465 0
M  V30 11705 H 1094.95 2.8863 -1.48738 0
M  V30 11706 H 1095.96 1.55998 -4.93847 0
M  V30 11707 H 1092.64 3.06096 -2.83922 0
M  V30 11708 H 1094.03 1.4726 -6.55564 0
M  V30 11709 N 1096.75 1.52266 0.40654 0
M  V30 11710 C 1097.98 1.70598 1.17945 0
M  V30 11711 C 1098.4 0.415793 1.83447 0
M  V30 11712 O 1097.76 -0.626968 1.70114 0
M  V30 11713 C 1097.81 2.84449 2.21633 0
M  V30 11714 O 1096.91 2.50199 3.27833 0
M  V30 11715 H 1096.25 0.567837 0.344177 0
M  V30 11716 H 1098.78 1.98981 0.476211 0
M  V30 11717 H 1098.79 3.09436 2.65919 0
M  V30 11718 H 1097.47 3.78055 1.73341 0
M  V30 11719 H 1096.04 2.35892 2.88807 0
M  V30 11720 N 1098.23 -0.663929 1.42933 0
M  V30 11721 C 1099.47 -1.42446 1.45192 0
M  V30 11722 C 1099.83 -1.92269 0.0710678 0
M  V30 11723 O 1099.12 -1.68688 -0.908565 0
M  V30 11724 C 1099.32 -2.62976 2.4203 0
M  V30 11725 C 1099.15 -2.24948 3.89395 0
M  V30 11726 C 1097.92 -2.13786 4.57847 0
M  V30 11727 C 1100.11 -1.85907 4.79524 0
M  V30 11728 N 1098.1 -1.68976 5.90187 0
M  V30 11729 C 1099.47 -1.52099 6.01054 0
M  V30 11730 C 1101.52 -1.72995 4.6688 0
M  V30 11731 C 1100.22 -1.06673 7.11346 0
M  V30 11732 C 1102.25 -1.28975 5.77165 0
M  V30 11733 C 1101.61 -0.960968 6.97814 0
M  V30 11734 H 1097.71 -0.517312 0.58644 0
M  V30 11735 H 1100.3 -0.765097 1.79037 0
M  V30 11736 H 1098.47 -3.26586 2.10229 0
M  V30 11737 H 1100.2 -3.29624 2.34798 0
M  V30 11738 H 1096.95 -2.33203 4.12206 0
M  V30 11739 H 1097.38 -1.48964 6.60408 0
M  V30 11740 H 1102.02 -1.97057 3.7407 0
M  V30 11741 H 1099.74 -0.813591 8.03994 0
M  V30 11742 H 1103.32 -1.19489 5.69398 0
M  V30 11743 H 1102.2 -0.625522 7.81701 0
M  V30 11744 N 1099.71 -1.29285 -0.901281 0
M  V30 11745 C 1100.95 -1.17165 -1.65162 0
M  V30 11746 C 1101.28 0.277184 -1.92515 0
M  V30 11747 O 1100.54 1.2168 -1.53273 0
M  V30 11748 C 1100.84 -1.92865 -3.00895 0
M  V30 11749 C 1100.5 -3.42593 -2.93157 0
M  V30 11750 C 1099.16 -3.83426 -2.90754 0
M  V30 11751 C 1101.52 -4.38011 -2.82481 0
M  V30 11752 C 1098.84 -5.17997 -2.75492 0
M  V30 11753 C 1101.2 -5.7267 -2.68759 0
M  V30 11754 C 1099.86 -6.12764 -2.64721 0
M  V30 11755 H 1099.13 -0.428737 -0.604372 0
M  V30 11756 H 1101.78 -1.60204 -1.04914 0
M  V30 11757 H 1100.08 -1.42412 -3.65001 0
M  V30 11758 H 1101.78 -1.80893 -3.57881 0
M  V30 11759 H 1098.37 -3.10134 -2.95829 0
M  V30 11760 H 1102.55 -4.07417 -2.83416 0
M  V30 11761 H 1097.81 -5.48173 -2.70769 0
M  V30 11762 H 1101.98 -6.46258 -2.59469 0
M  V30 11763 H 1099.61 -7.16987 -2.52652 0
M  V30 11764 N 1101.18 1.11143 -1.11736 0
M  V30 11765 C 1102.43 1.82586 -0.866412 0
M  V30 11766 C 1102.75 1.85227 0.609593 0
M  V30 11767 O 1102.02 1.32505 1.44288 0
M  V30 11768 H 1100.6 0.676149 -0.31754 0
M  V30 11769 H 1103.27 1.34516 -1.41037 0
M  V30 11770 H 1102.36 2.8635 -1.24136 0
M  V30 11771 N 1102.66 0.908147 1.28804 0
M  V30 11772 C 1104.07 0.585727 1.77274 0
M  V30 11773 C 1104.42 -0.898842 1.744 0
M  V30 11774 O 1103.55 -1.70301 1.33516 0
M  V30 11775 C 1104.14 1.05647 3.21907 0
M  V30 11776 C 1102.7 0.785066 3.68122 0
M  V30 11777 C 1101.85 1.22638 2.48707 0
M  V30 11778 H 1104.8 1.09 1.15346 0
M  V30 11779 H 1104.82 0.395442 3.7844 0
M  V30 11780 H 1104.33 2.13698 3.23967 0
M  V30 11781 H 1102.44 -0.282477 3.71528 0
M  V30 11782 H 1102.55 1.38888 4.58527 0
M  V30 11783 H 1100.91 0.645217 2.46392 0
M  V30 11784 H 1101.7 2.31512 2.5349 0
M  V30 11785 N 1104.14 -1.42577 0.671525 0
M  V30 11786 C 1105.07 -2.33499 0.00506984 0
M  V30 11787 C 1106.05 -1.50497 -0.792763 0
M  V30 11788 O 1107.24 -1.79109 -0.750574 0
M  V30 11789 C 1104.37 -3.34077 -0.949194 0
M  V30 11790 C 1103.32 -4.27208 -0.260187 0
M  V30 11791 C 1102.65 -5.17968 -1.32716 0
M  V30 11792 C 1103.95 -5.15192 0.858772 0
M  V30 11793 H 1105.64 -2.89477 0.764407 0
M  V30 11794 H 1103.19 -1.39191 0.369043 0
M  V30 11795 H 1105.14 -3.96594 -1.42448 0
M  V30 11796 H 1103.86 -2.76396 -1.73991 0
M  V30 11797 H 1102.52 -3.66082 0.194834 0
M  V30 11798 H 1102.17 -4.56615 -2.10979 0
M  V30 11799 H 1101.87 -5.81104 -0.871293 0
M  V30 11800 H 1103.39 -5.83359 -1.80345 0
M  V30 11801 H 1104.81 -5.71412 0.464844 0
M  V30 11802 H 1103.21 -5.87144 1.24023 0
M  V30 11803 H 1104.28 -4.53787 1.70895 0
M  V30 11804 N 1105.62 -0.414636 -1.52048 0
M  V30 11805 C 1106.58 0.396285 -2.25748 0
M  V30 11806 C 1107.58 0.969003 -1.28324 0
M  V30 11807 O 1108.77 0.847016 -1.52221 0
M  V30 11808 C 1105.9 1.55838 -3.03195 0
M  V30 11809 H 1107.1 -0.249311 -2.98862 0
M  V30 11810 H 1104.65 -0.167276 -1.55402 0
M  V30 11811 H 1105.38 2.24068 -2.34444 0
M  V30 11812 H 1105.17 1.15414 -3.74729 0
M  V30 11813 H 1106.66 2.13187 -3.59084 0
M  V30 11814 N 1107.1 1.56929 -0.145233 0
M  V30 11815 C 1108.32 2.00864 0.516564 0
M  V30 11816 C 1108.75 1.02466 1.57741 0
M  V30 11817 O 1108.1 0.000145439 1.813 0
M  V30 11818 C 1108.15 3.43552 1.09563 0
M  V30 11819 O 1107.26 3.4815 2.21055 0
M  V30 11820 H 1106.6 0.651835 0.126521 0
M  V30 11821 H 1109.13 2.0317 -0.241445 0
M  V30 11822 H 1109.14 3.82316 1.42473 0
M  V30 11823 H 1107.81 4.14677 0.318749 0
M  V30 11824 H 1106.39 3.21228 1.89387 0
M  V30 11825 N 1108.58 -0.128553 1.57075 0
M  V30 11826 C 1109.54 -1.14215 1.98715 0
M  V30 11827 C 1110.54 -1.34843 0.876019 0
M  V30 11828 O 1111.73 -1.31522 1.14227 0
M  V30 11829 C 1108.86 -2.49865 2.31905 0
M  V30 11830 H 1110.05 -0.784481 2.89458 0
M  V30 11831 H 1107.61 -0.372531 1.51796 0
M  V30 11832 H 1108.34 -2.9057 1.44012 0
M  V30 11833 H 1108.13 -2.3625 3.12935 0
M  V30 11834 H 1109.62 -3.22832 2.64895 0
M  V30 11835 N 1110.05 -1.5248 -0.398459 0
M  V30 11836 C 1110.98 -1.79549 -1.49279 0
M  V30 11837 C 1111.96 -0.647004 -1.57315 0
M  V30 11838 O 1113.15 -0.893661 -1.72416 0
M  V30 11839 C 1110.28 -1.95582 -2.86993 0
M  V30 11840 C 1109.23 -3.1123 -2.93803 0
M  V30 11841 C 1108.56 -3.12501 -4.33874 0
M  V30 11842 C 1109.86 -4.50485 -2.64312 0
M  V30 11843 H 1111.55 -2.71187 -1.26877 0
M  V30 11844 H 1109.1 -1.30492 -0.608924 0
M  V30 11845 H 1111.05 -2.13102 -3.63546 0
M  V30 11846 H 1109.78 -1.00625 -3.10712 0
M  V30 11847 H 1108.44 -2.93477 -2.19697 0
M  V30 11848 H 1108.08 -2.15245 -4.54619 0
M  V30 11849 H 1107.78 -3.90183 -4.39353 0
M  V30 11850 H 1109.31 -3.32164 -5.12347 0
M  V30 11851 H 1110.72 -4.68387 -3.30585 0
M  V30 11852 H 1109.12 -5.30163 -2.81153 0
M  V30 11853 H 1110.19 -4.57848 -1.59696 0
M  V30 11854 N 1111.53 0.65634 -1.43283 0
M  V30 11855 C 1112.46 1.78184 -1.44164 0
M  V30 11856 C 1113.48 1.59249 -0.338177 0
M  V30 11857 O 1114.67 1.68027 -0.60242 0
M  V30 11858 C 1111.77 3.15566 -1.23577 0
M  V30 11859 C 1110.94 3.61187 -2.46704 0
M  V30 11860 C 1110 4.77361 -2.21388 0
M  V30 11861 O 1109.02 4.8696 -2.94718 0
M  V30 11862 N 1110.23 5.67351 -1.22855 0
M  V30 11863 H 1112.99 1.77907 -2.41183 0
M  V30 11864 H 1110.55 0.840076 -1.38399 0
M  V30 11865 H 1112.54 3.90968 -1.04529 0
M  V30 11866 H 1111.11 3.10633 -0.350155 0
M  V30 11867 H 1110.33 2.76263 -2.81198 0
M  V30 11868 H 1111.62 3.88413 -3.28652 0
M  V30 11869 H 1111.02 5.62265 -0.622417 0
M  V30 11870 H 1109.58 6.42487 -1.09791 0
M  V30 11871 N 1113.01 1.29761 0.894412 0
M  V30 11872 C 1114.26 1.17409 1.64006 0
M  V30 11873 C 1114.57 -0.272355 1.93695 0
M  V30 11874 O 1115.78 -0.517269 2.66527 0
M  V30 11875 C 1114.23 2.05379 2.95546 0
M  V30 11876 C 1113.84 3.54878 2.73433 0
M  V30 11877 C 1115.59 2.01765 3.73485 0
M  V30 11878 C 1113.49 4.34935 4.00731 0
M  V30 11879 H 1112.42 0.43583 0.615279 0
M  V30 11880 H 1115.07 1.5444 0.990983 0
M  V30 11881 H 1113.46 1.61222 3.61695 0
M  V30 11882 H 1114.63 4.07122 2.15844 0
M  V30 11883 H 1112.94 3.60218 2.08882 0
M  V30 11884 H 1115.54 2.58835 4.67877 0
M  V30 11885 H 1115.88 0.998876 4.04139 0
M  V30 11886 H 1116.42 2.43994 3.14184 0
M  V30 11887 H 1113.16 5.3747 3.75241 0
M  V30 11888 H 1112.68 3.87458 4.5786 0
M  V30 11889 H 1114.36 4.45875 4.68833 0
M  V30 11890 N 1114.49 -1.10549 1.12324 0
M  V30 11891 C 1115.42 -2.18911 0.812416 0
M  V30 11892 C 1116.4 -1.68628 -0.22327 0
M  V30 11893 O 1117.58 -1.94015 -0.0847184 0
M  V30 11894 C 1114.71 -3.46288 0.264947 0
M  V30 11895 C 1113.67 -4.09838 1.23356 0
M  V30 11896 C 1112.99 -5.31901 0.546374 0
M  V30 11897 C 1114.29 -4.53686 2.58778 0
M  V30 11898 H 1115.99 -2.45169 1.71851 0
M  V30 11899 H 1113.53 -1.17834 0.827715 0
M  V30 11900 H 1115.49 -4.21385 0.0352364 0
M  V30 11901 H 1114.21 -3.19517 -0.676479 0
M  V30 11902 H 1112.87 -3.36746 1.44906 0
M  V30 11903 H 1112.52 -5.01406 -0.400157 0
M  V30 11904 H 1112.22 -5.75372 1.19249 0
M  V30 11905 H 1113.74 -6.09731 0.325673 0
M  V30 11906 H 1115.16 -5.20063 2.41263 0
M  V30 11907 H 1113.55 -5.08003 3.19457 0
M  V30 11908 H 1114.62 -3.66665 3.17309 0
M  V30 11909 N 1115.97 -0.914965 -1.28321 0
M  V30 11910 C 1117.24 -0.46764 -1.89928 0
M  V30 11911 C 1117.62 1.05364 -1.82925 0
M  V30 11912 O 1116.97 1.90223 -1.26599 0
M  V30 11913 C 1117.18 -0.999372 -3.34385 0
M  V30 11914 C 1118.53 -1.0522 -4.11356 0
M  V30 11915 O 1119.55 -0.9481 -3.4335 0
M  V30 11916 O 1118.41 -1.21085 -5.32917 0
M  V30 11917 H 1115.51 -0.148398 -0.813577 0
M  V30 11918 H 1118.05 -1.00583 -1.36679 0
M  V30 11919 H 1116.82 -2.04333 -3.33712 0
M  V30 11920 H 1116.45 -0.442083 -3.95135 0
M  V30 11921 N 1117.44 1.42219 -0.679077 0
M  V30 11922 C 1118.69 2.01777 -0.20342 0
M  V30 11923 C 1119.02 1.53592 1.18841 0
M  V30 11924 O 1118.3 0.739954 1.79875 0
M  V30 11925 C 1118.58 3.59281 -0.242791 0
M  V30 11926 C 1118.43 4.17634 -1.67038 0
M  V30 11927 C 1119.75 4.38218 0.406624 0
M  V30 11928 H 1116.87 0.733134 -0.0753916 0
M  V30 11929 H 1119.51 1.69185 -0.864673 0
M  V30 11930 H 1117.66 3.87178 0.320248 0
M  V30 11931 H 1119.34 4.00674 -2.286 0
M  V30 11932 H 1117.58 3.73301 -2.20973 0
M  V30 11933 H 1118.25 5.26776 -1.64958 0
M  V30 11934 H 1120.73 4.16036 -0.0727077 0
M  V30 11935 H 1119.6 5.47793 0.348457 0
M  V30 11936 H 1119.86 4.16418 1.48487 0
M  V30 11937 N 1118.92 0.422693 1.51826 0
M  V30 11938 C 1120.15 -0.15017 2.06856 0
M  V30 11939 C 1120.57 -1.36946 1.28948 0
M  V30 11940 O 1119.93 -1.78393 0.32338 0
M  V30 11941 C 1119.98 -0.465563 3.57582 0
M  V30 11942 O 1119.08 -1.55442 3.81984 0
M  V30 11943 H 1118.42 -0.00827931 0.663948 0
M  V30 11944 H 1120.95 0.599806 1.95611 0
M  V30 11945 H 1120.96 -0.720279 4.01592 0
M  V30 11946 H 1119.64 0.425679 4.13716 0
M  V30 11947 H 1118.21 -1.29081 3.49846 0
M  V30 11948 N 1120.4 -1.5685 0.153553 0
M  V30 11949 C 1121.36 -2.15894 -0.769564 0
M  V30 11950 C 1122.36 -1.10239 -1.17064 0
M  V30 11951 O 1123.55 -1.35845 -1.09049 0
M  V30 11952 C 1120.68 -2.72738 -2.04516 0
M  V30 11953 H 1121.88 -2.98807 -0.255842 0
M  V30 11954 H 1119.43 -1.56005 -0.0959279 0
M  V30 11955 H 1120.17 -1.9351 -2.60239 0
M  V30 11956 H 1119.95 -3.50042 -1.76672 0
M  V30 11957 H 1121.44 -3.18208 -2.70432 0
M  V30 11958 N 1121.88 0.120221 -1.57141 0
M  V30 11959 C 1122.83 1.16654 -2.01233 0
M  V30 11960 C 1123.82 1.42943 -0.909053 0
M  V30 11961 O 1125.03 1.4292 -1.09426 0
M  V30 11962 H 1121.4 0.393289 -0.640958 0
M  V30 11963 H 1123.37 0.768156 -2.88343 0
M  V30 11964 C 1122.12 2.4854 -2.43152 0
M  V30 11965 H 1121.44 2.29149 -3.27614 0
M  V30 11966 H 1122.88 3.20315 -2.77802 0
M  V30 11967 C 1121.34 3.1103 -1.29468 0
M  V30 11968 O 1121.87 3.97042 -0.609982 0
M  V30 11969 N 1120.08 2.70888 -1.05205 0
M  V30 11970 H 1119.63 2.01039 -1.61062 0
M  V30 11971 H 1119.58 3.13028 -0.293347 0
M  V30 11972 N 1123.36 1.52689 0.390367 0
M  V30 11973 C 1124.77 1.59623 0.968366 0
M  V30 11974 C 1125.12 0.44824 1.91011 0
M  V30 11975 O 1124.24 -0.428868 2.12108 0
M  V30 11976 C 1124.84 2.89312 1.76306 0
M  V30 11977 C 1123.4 2.98664 2.29079 0
M  V30 11978 C 1122.54 2.54725 1.09593 0
M  V30 11979 H 1125.5 1.57787 0.169959 0
M  V30 11980 H 1125.52 2.75721 2.62217 0
M  V30 11981 H 1125.03 3.72846 1.07738 0
M  V30 11982 H 1123.13 2.19665 3.00962 0
M  V30 11983 H 1123.24 4.03277 2.58659 0
M  V30 11984 H 1121.61 2.09012 1.45554 0
M  V30 11985 H 1122.39 3.40651 0.425625 0
M  V30 11986 N 1124.83 -0.648732 1.43629 0
M  V30 11987 C 1125.76 -1.77298 1.51947 0
M  V30 11988 C 1126.75 -1.65942 0.373785 0
M  V30 11989 O 1127.93 -1.8497 0.591596 0
M  V30 11990 C 1125.06 -3.15749 1.44638 0
M  V30 11991 C 1124.01 -3.41872 2.57502 0
M  V30 11992 C 1123.34 -4.8017 2.35246 0
M  V30 11993 C 1124.64 -3.36173 3.99731 0
M  V30 11994 H 1126.33 -1.70594 2.46045 0
M  V30 11995 H 1123.88 -0.819306 1.1842 0
M  V30 11996 H 1125.83 -3.94156 1.4906 0
M  V30 11997 H 1124.56 -3.23194 0.470466 0
M  V30 11998 H 1123.22 -2.65838 2.5244 0
M  V30 11999 H 1122.86 -4.84297 1.35887 0
M  V30 12000 H 1122.56 -4.9861 3.10906 0
M  V30 12001 H 1124.09 -5.6083 2.41459 0
M  V30 12002 H 1125.5 -4.0451 4.06257 0
M  V30 12003 H 1123.9 -3.66148 4.75453 0
M  V30 12004 H 1124.97 -2.34277 4.24549 0
M  V30 12005 N 1126.31 -1.30234 -0.887518 0
M  V30 12006 C 1127.26 -1.13013 -1.9802 0
M  V30 12007 C 1128.25 -0.0460253 -1.60834 0
M  V30 12008 O 1129.44 -0.26907 -1.74943 0
M  V30 12009 C 1126.57 -0.821397 -3.33329 0
M  V30 12010 C 1125.65 -1.94564 -3.76837 0
M  V30 12011 N 1126.04 -3.19068 -3.92465 0
M  V30 12012 C 1124.34 -1.84142 -4.06211 0
M  V30 12013 C 1125.04 -3.92495 -4.29328 0
M  V30 12014 N 1124.02 -3.20526 -4.39049 0
M  V30 12015 H 1127.82 -2.07446 -2.0819 0
M  V30 12016 H 1125.34 -1.21536 -1.07716 0
M  V30 12017 H 1127.33 -0.679046 -4.11333 0
M  V30 12018 H 1125.99 0.114891 -3.24497 0
M  V30 12019 H 1127 -3.54386 -3.77665 0
M  V30 12020 H 1123.68 -0.97865 -4.05868 0
M  V30 12021 H 1125.07 -4.99701 -4.49164 0
M  V30 12022 N 1127.79 1.09952 -1.12909 0
M  V30 12023 C 1129.03 1.83635 -0.897646 0
M  V30 12024 C 1129.39 1.83462 0.566179 0
M  V30 12025 O 1130.6 2.52748 0.914977 0
M  V30 12026 C 1128.87 3.26095 -1.46277 0
M  V30 12027 S 1130.43 4.16846 -1.37059 0
M  V30 12028 H 1127.24 0.633045 -0.32369 0
M  V30 12029 H 1129.85 1.32275 -1.43957 0
M  V30 12030 H 1128.55 3.23793 -2.52163 0
M  V30 12031 H 1128.08 3.82526 -0.918549 0
M  V30 12032 H 1130.1 4.94996 -0.345399 0
M  V30 12033 N 1129.27 0.921757 1.27833 0
M  V30 12034 C 1130.23 0.420978 2.25301 0
M  V30 12035 C 1131.23 -0.457158 1.54165 0
M  V30 12036 O 1132.42 -0.259079 1.72263 0
M  V30 12037 C 1129.55 -0.395501 3.38598 0
M  V30 12038 H 1130.75 1.28206 2.71115 0
M  V30 12039 H 1128.3 0.701893 1.39654 0
M  V30 12040 H 1129.03 -1.27565 2.98157 0
M  V30 12041 H 1128.82 0.234029 3.91401 0
M  V30 12042 H 1130.31 -0.736444 4.11055 0
M  V30 12043 N 1130.75 -1.41857 0.686609 0
M  V30 12044 C 1131.99 -2.03236 0.217839 0
M  V30 12045 C 1132.35 -1.5317 -1.15771 0
M  V30 12046 O 1133.55 -2.06415 -1.72181 0
M  V30 12047 C 1131.82 -3.56428 0.263443 0
M  V30 12048 S 1133.38 -4.386 -0.132595 0
M  V30 12049 H 1130.2 -0.705472 0.088487 0
M  V30 12050 H 1132.8 -1.73428 0.902393 0
M  V30 12051 H 1131.51 -3.90362 1.26672 0
M  V30 12052 H 1131.04 -3.90925 -0.440556 0
M  V30 12053 H 1133.05 -4.77119 -1.3628 0
M  V30 12054 N 1132.22 -0.430739 -1.51599 0
M  V30 12055 C 1133.47 0.137657 -2.01631 0
M  V30 12056 C 1133.79 1.43787 -1.31721 0
M  V30 12057 O 1133.06 1.90668 -0.449717 0
M  V30 12058 H 1131.64 0.0538611 -0.745056 0
M  V30 12059 H 1134.31 -0.571935 -1.86319 0
M  V30 12060 H 1133.4 0.318305 -3.10473 0
M  V30 12061 N 1133.7 1.56767 -0.161869 0
M  V30 12062 C 1134.67 2.16299 0.758104 0
M  V30 12063 C 1135.67 1.10859 1.16478 0
M  V30 12064 O 1136.86 1.36422 1.08327 0
M  V30 12065 C 1133.99 2.73819 2.03067 0
M  V30 12066 H 1135.18 2.98938 0.239992 0
M  V30 12067 H 1132.73 1.56054 0.0876532 0
M  V30 12068 H 1133.47 1.94887 2.59209 0
M  V30 12069 H 1133.25 3.50974 1.74813 0
M  V30 12070 H 1134.74 3.19638 2.68741 0
M  V30 12071 N 1135.18 -0.111886 1.57202 0
M  V30 12072 C 1136.14 -1.12101 1.99915 0
M  V30 12073 C 1137.14 -1.33906 0.890272 0
M  V30 12074 O 1138.33 -1.30303 1.15615 0
M  V30 12075 C 1135.47 -2.47392 2.34543 0
M  V30 12076 H 1136.66 -0.753736 2.90274 0
M  V30 12077 H 1134.21 -0.35641 1.52182 0
M  V30 12078 H 1134.95 -2.89026 1.47086 0
M  V30 12079 H 1134.73 -2.32917 3.15423 0
M  V30 12080 H 1136.22 -3.20004 2.68304 0
M  V30 12081 N 1136.66 -1.52894 -0.382264 0
M  V30 12082 C 1137.91 -1.68266 -1.12663 0
M  V30 12083 C 1138.23 -0.425974 -1.89778 0
M  V30 12084 O 1137.49 0.59178 -1.86538 0
M  V30 12085 C 1137.79 -2.87309 -2.12576 0
M  V30 12086 C 1137.45 -4.24484 -1.52067 0
M  V30 12087 C 1136.12 -4.6179 -1.35292 0
M  V30 12088 C 1138.47 -5.09858 -1.08138 0
M  V30 12089 C 1135.8 -5.82123 -0.731449 0
M  V30 12090 C 1138.15 -6.30822 -0.473986 0
M  V30 12091 C 1136.81 -6.66854 -0.293585 0
M  V30 12092 H 1136.08 -0.615728 -0.412262 0
M  V30 12093 H 1138.73 -1.8705 -0.410425 0
M  V30 12094 H 1137.03 -2.62968 -2.90439 0
M  V30 12095 H 1138.73 -2.96397 -2.70092 0
M  V30 12096 H 1135.32 -3.951 -1.66114 0
M  V30 12097 H 1139.5 -4.816 -1.19898 0
M  V30 12098 H 1134.76 -6.08643 -0.579938 0
M  V30 12099 H 1138.93 -6.96287 -0.125324 0
M  V30 12100 H 1136.56 -7.59962 0.190054 0
M  V30 12101 N 1138.14 0.641106 -1.43971 0
M  V30 12102 C 1139.07 1.76599 -1.44527 0
M  V30 12103 C 1140.05 1.59709 -0.305257 0
M  V30 12104 O 1141.23 1.81728 -0.50071 0
M  V30 12105 C 1138.36 3.14052 -1.26843 0
M  V30 12106 C 1137.41 3.49615 -2.44278 0
M  V30 12107 S 1138.24 3.4822 -4.06821 0
M  V30 12108 C 1139.39 4.8831 -3.91541 0
M  V30 12109 H 1139.63 1.75858 -2.3971 0
M  V30 12110 H 1137.16 0.814834 -1.31148 0
M  V30 12111 H 1139.12 3.93376 -1.17327 0
M  V30 12112 H 1137.78 3.12342 -0.331872 0
M  V30 12113 H 1136.97 4.49611 -2.2774 0
M  V30 12114 H 1136.57 2.77732 -2.50482 0
M  V30 12115 H 1138.87 5.77282 -3.54615 0
M  V30 12116 H 1139.81 5.099 -4.91333 0
M  V30 12117 H 1140.22 4.62414 -3.2378 0
M  V30 12118 N 1139.62 1.30703 0.880598 0
M  V30 12119 C 1140.89 1.1043 1.61445 0
M  V30 12120 C 1141.27 -0.344837 2.08264 0
M  V30 12121 O 1140.62 -1.33711 1.85293 0
M  V30 12122 C 1140.83 2.10908 2.78063 0
M  V30 12123 C 1142.18 2.42861 3.48287 0
M  V30 12124 O 1143.2 2.09252 2.88257 0
M  V30 12125 O 1142.06 3.00369 4.56553 0
M  V30 12126 H 1139.16 0.424419 0.709787 0
M  V30 12127 H 1141.7 1.42144 0.926991 0
M  V30 12128 H 1140.47 3.08431 2.40803 0
M  V30 12129 H 1140.1 1.80036 3.54503 0
M  V30 12130 N 1141.09 -1.09351 1.1349 0
M  V30 12131 C 1142.34 -1.81543 0.897123 0
M  V30 12132 C 1142.67 -1.85754 -0.576703 0
M  V30 12133 O 1141.92 -1.32213 -1.44285 0
M  V30 12134 C 1142.22 -3.27498 1.43108 0
M  V30 12135 C 1141.89 -3.4342 2.92188 0
M  V30 12136 C 1140.55 -3.47473 3.32891 0
M  V30 12137 C 1142.9 -3.47894 3.88097 0
M  V30 12138 C 1140.23 -3.5358 4.68186 0
M  V30 12139 C 1142.58 -3.55535 5.23238 0
M  V30 12140 C 1141.25 -3.57857 5.63467 0
M  V30 12141 H 1140.52 -0.664314 0.32828 0
M  V30 12142 H 1143.16 -1.28819 1.41697 0
M  V30 12143 H 1141.47 -3.82865 0.831946 0
M  V30 12144 H 1143.17 -3.8189 1.22316 0
M  V30 12145 H 1139.76 -3.4095 2.59713 0
M  V30 12146 H 1143.94 -3.44002 3.57737 0
M  V30 12147 H 1139.2 -3.53665 4.9873 0
M  V30 12148 H 1143.37 -3.57942 5.9737 0
M  V30 12149 H 1141 -3.62341 6.68291 0
M  V30 12150 N 1142.57 -0.928524 -1.27343 0
M  V30 12151 C 1143.5 -0.445627 -2.29208 0
M  V30 12152 C 1144.48 0.494508 -1.62753 0
M  V30 12153 O 1145.67 0.399082 -1.90055 0
M  V30 12154 C 1142.8 0.301684 -3.45987 0
M  V30 12155 C 1141.75 -0.550695 -4.24442 0
M  V30 12156 C 1141.08 0.325833 -5.33706 0
M  V30 12157 C 1142.38 -1.81559 -4.89728 0
M  V30 12158 H 1144.07 -1.29696 -2.69851 0
M  V30 12159 H 1141.62 -0.625085 -1.29725 0
M  V30 12160 H 1143.57 0.650455 -4.1635 0
M  V30 12161 H 1142.29 1.18705 -3.04264 0
M  V30 12162 H 1140.95 -0.882185 -3.55827 0
M  V30 12163 H 1140.6 1.21018 -4.88225 0
M  V30 12164 H 1140.3 -0.240994 -5.87106 0
M  V30 12165 H 1141.83 0.670156 -6.06911 0
M  V30 12166 H 1143.24 -1.53483 -5.52373 0
M  V30 12167 H 1141.64 -2.32598 -5.53189 0
M  V30 12168 H 1142.71 -2.53461 -4.13383 0
M  V30 12169 N 1144.05 1.41491 -0.694123 0
M  V30 12170 C 1144.98 2.33462 -0.0422169 0
M  V30 12171 C 1145.96 1.51739 0.76872 0
M  V30 12172 O 1147.15 1.8028 0.721985 0
M  V30 12173 C 1144.28 3.35545 0.895925 0
M  V30 12174 C 1143.23 4.27568 0.192188 0
M  V30 12175 C 1142.56 5.20014 1.24459 0
M  V30 12176 C 1143.86 5.1376 -0.940626 0
M  V30 12177 H 1145.55 2.88225 -0.810363 0
M  V30 12178 H 1143.1 1.38586 -0.39114 0
M  V30 12179 H 1145.05 3.9881 1.36121 0
M  V30 12180 H 1143.77 2.79129 1.69572 0
M  V30 12181 H 1142.43 3.65726 -0.25305 0
M  V30 12182 H 1142.08 4.59913 2.03687 0
M  V30 12183 H 1141.78 5.82417 0.778734 0
M  V30 12184 H 1143.3 5.86155 1.71041 0
M  V30 12185 H 1144.72 5.70601 -0.555692 0
M  V30 12186 H 1143.11 5.85097 -1.33349 0
M  V30 12187 H 1144.18 4.51011 -1.78093 0
M  V30 12188 N 1145.53 0.438773 1.51369 0
M  V30 12189 C 1146.44 -0.378074 2.31534 0
M  V30 12190 C 1147.45 -1.02632 1.40508 0
M  V30 12191 O 1148.63 -1.02138 1.73579 0
M  V30 12192 C 1145.69 -1.46374 3.14286 0
M  V30 12193 C 1144.76 -0.835473 4.21092 0
M  V30 12194 C 1143.99 -1.86941 4.99889 0
M  V30 12195 O 1144.21 -3.0918 4.79337 0
M  V30 12196 O 1143.15 -1.45914 5.83946 0
M  V30 12197 H 1146.97 0.276401 3.0244 0
M  V30 12198 H 1144.56 0.201281 1.48038 0
M  V30 12199 H 1146.44 -2.09335 3.65728 0
M  V30 12200 H 1145.11 -2.10227 2.46143 0
M  V30 12201 H 1144.02 -0.167775 3.73724 0
M  V30 12202 H 1145.35 -0.240406 4.91613 0
M  V30 12203 N 1147.01 -1.56678 0.170181 0
M  V30 12204 C 1148.25 -1.9714 -0.475767 0
M  V30 12205 C 1148.58 -1.05611 -1.62972 0
M  V30 12206 O 1147.86 -0.103017 -1.94227 0
M  V30 12207 C 1148.14 -3.47072 -0.959828 0
M  V30 12208 C 1148 -4.4938 0.194225 0
M  V30 12209 C 1149.31 -4.00071 -1.83387 0
M  V30 12210 H 1146.43 -0.716776 -0.171466 0
M  V30 12211 H 1149.08 -1.88266 0.256086 0
M  V30 12212 H 1147.23 -3.54766 -1.58346 0
M  V30 12213 H 1148.9 -4.53748 0.83128 0
M  V30 12214 H 1147.14 -4.25393 0.849893 0
M  V30 12215 H 1147.81 -5.51685 -0.186575 0
M  V30 12216 H 1150.29 -3.95002 -1.30815 0
M  V30 12217 H 1149.16 -5.05398 -2.14159 0
M  V30 12218 H 1149.42 -3.43819 -2.77923 0
M  V30 12219 N 1148.48 0.103547 -1.57259 0
M  V30 12220 C 1149.42 1.15225 -1.98131 0
M  V30 12221 C 1150.43 1.36793 -0.882692 0
M  V30 12222 O 1151.62 1.35595 -1.16088 0
M  V30 12223 C 1148.72 2.50941 -2.27776 0
M  V30 12224 C 1147.89 2.49765 -3.59077 0
M  V30 12225 C 1146.95 3.67344 -3.76756 0
M  V30 12226 O 1145.98 3.50221 -4.48702 0
M  V30 12227 N 1147.18 4.86504 -3.16692 0
M  V30 12228 H 1149.94 0.804448 -2.88702 0
M  V30 12229 H 1147.5 0.292636 -1.59233 0
M  V30 12230 H 1149.5 3.28186 -2.36804 0
M  V30 12231 H 1148.07 2.77843 -1.43255 0
M  V30 12232 H 1147.29 1.58125 -3.61096 0
M  V30 12233 H 1148.57 2.4605 -4.4535 0
M  V30 12234 H 1147.97 5.03319 -2.58236 0
M  V30 12235 H 1146.53 5.61371 -3.31218 0
M  V30 12236 N 1149.96 1.53094 0.37415 0
M  V30 12237 C 1150.92 1.78264 1.44065 0
M  V30 12238 C 1151.92 0.652892 1.46949 0
M  V30 12239 O 1153.11 0.921046 1.47859 0
M  V30 12240 C 1150.25 1.89693 2.83248 0
M  V30 12241 H 1151.44 2.73505 1.23025 0
M  V30 12242 H 1148.99 1.44041 0.60678 0
M  V30 12243 H 1149.73 0.964884 3.09613 0
M  V30 12244 H 1149.51 2.71855 2.82554 0
M  V30 12245 H 1151 2.10787 3.60498 0
M  V30 12246 N 1151.44 -0.633461 1.44309 0
M  V30 12247 C 1152.4 -1.72743 1.50641 0
M  V30 12248 C 1153.4 -1.56031 0.388718 0
M  V30 12249 O 1154.59 -1.61568 0.651251 0
M  V30 12250 C 1151.72 -3.11804 1.37809 0
M  V30 12251 H 1152.92 -1.68503 2.48086 0
M  V30 12252 H 1150.47 -0.846912 1.31366 0
M  V30 12253 H 1151.21 -3.2164 0.414483 0
M  V30 12254 H 1150.99 -3.2534 2.18852 0
M  V30 12255 H 1152.48 -3.91538 1.45216 0
M  V30 12256 N 1152.92 -1.31168 -0.873655 0
M  V30 12257 C 1154.16 -1.20821 -1.62881 0
M  V30 12258 C 1154.5 0.233994 -1.92785 0
M  V30 12259 O 1153.77 1.16588 -1.55684 0
M  V30 12260 C 1154.06 -2.04875 -2.96139 0
M  V30 12261 C 1153.91 -3.57375 -2.73136 0
M  V30 12262 C 1155.23 -1.8953 -3.97198 0
M  V30 12263 H 1152.35 -0.44026 -0.59105 0
M  V30 12264 H 1154.99 -1.6092 -1.01019 0
M  V30 12265 H 1153.14 -1.70806 -3.48938 0
M  V30 12266 H 1154.81 -4.01561 -2.27038 0
M  V30 12267 H 1153.05 -3.8099 -2.07434 0
M  V30 12268 H 1153.72 -4.1149 -3.6794 0
M  V30 12269 H 1156.2 -2.19337 -3.53596 0
M  V30 12270 H 1155.08 -2.5065 -4.8833 0
M  V30 12271 H 1155.34 -0.857576 -4.33703 0
M  V30 12272 N 1154.4 1.08748 -1.14068 0
M  V30 12273 C 1155.81 1.62551 -0.918379 0
M  V30 12274 C 1156.16 1.8852 0.543583 0
M  V30 12275 O 1155.28 1.64007 1.41176 0
M  V30 12276 C 1155.88 2.95309 -1.66066 0
M  V30 12277 C 1154.44 3.4591 -1.48403 0
M  V30 12278 C 1153.58 2.20204 -1.6854 0
M  V30 12279 H 1156.54 0.920196 -1.29298 0
M  V30 12280 H 1156.56 3.63587 -1.12181 0
M  V30 12281 H 1156.07 2.76377 -2.72465 0
M  V30 12282 H 1154.17 3.69953 -0.443353 0
M  V30 12283 H 1154.28 4.2289 -2.25169 0
M  V30 12284 H 1152.65 2.29203 -1.11077 0
M  V30 12285 H 1153.43 2.03783 -2.76274 0
M  V30 12286 N 1155.87 0.935264 1.26849 0
M  V30 12287 C 1157.12 0.578545 1.93642 0
M  V30 12288 C 1157.44 -0.884296 1.73796 0
M  V30 12289 O 1156.71 -1.62768 1.09011 0
M  V30 12290 H 1155.29 0.210976 0.716588 0
M  V30 12291 H 1157.96 1.1893 1.54407 0
M  V30 12292 H 1157.05 0.791268 3.01903 0
M  V30 12293 N 1157.35 -1.41121 0.701616 0
M  V30 12294 C 1158.28 -2.33436 0.0545974 0
M  V30 12295 C 1159.26 -1.52144 -0.760662 0
M  V30 12296 O 1160.45 -1.80661 -0.712414 0
M  V30 12297 C 1157.58 -3.36015 -0.878117 0
M  V30 12298 C 1156.53 -4.27664 -0.169511 0
M  V30 12299 C 1155.86 -5.20666 -1.21699 0
M  V30 12300 C 1157.16 -5.13254 0.967859 0
M  V30 12301 H 1158.85 -2.87791 0.825637 0
M  V30 12302 H 1156.4 -1.38377 0.398484 0
M  V30 12303 H 1158.35 -3.99526 -1.34004 0
M  V30 12304 H 1157.08 -2.80024 -1.68089 0
M  V30 12305 H 1155.73 -3.65586 0.272441 0
M  V30 12306 H 1155.38 -4.60987 -2.01246 0
M  V30 12307 H 1155.08 -5.82822 -0.747836 0
M  V30 12308 H 1156.61 -5.87053 -1.6793 0
M  V30 12309 H 1158.02 -5.70298 0.585944 0
M  V30 12310 H 1156.42 -5.84381 1.3645 0
M  V30 12311 H 1157.49 -4.5006 1.80483 0
M  V30 12312 N 1158.83 -0.446794 -1.51134 0
M  V30 12313 C 1160.24 0.0141132 -1.86695 0
M  V30 12314 C 1160.59 1.41095 -1.36333 0
M  V30 12315 O 1159.72 2.04139 -0.718068 0
M  V30 12316 C 1160.31 0.0323866 -3.38785 0
M  V30 12317 C 1158.87 0.437737 -3.73846 0
M  V30 12318 C 1158.02 -0.363436 -2.74908 0
M  V30 12319 H 1160.97 -0.66221 -1.44224 0
M  V30 12320 H 1160.99 0.839865 -3.71115 0
M  V30 12321 H 1160.5 -0.984374 -3.75409 0
M  V30 12322 H 1158.6 1.45975 -3.42815 0
M  V30 12323 H 1158.72 0.155964 -4.78846 0
M  V30 12324 H 1157.08 0.179566 -2.54066 0
M  V30 12325 H 1157.86 -1.37925 -3.14375 0
M  V30 12326 N 1160.31 1.56586 -0.178487 0
M  V30 12327 C 1161.53 2.01915 0.473841 0
M  V30 12328 C 1161.96 1.05789 1.55533 0
M  V30 12329 O 1161.32 0.0386018 1.81259 0
M  V30 12330 C 1161.36 3.45799 1.02251 0
M  V30 12331 O 1160.47 3.52761 2.1362 0
M  V30 12332 H 1159.81 0.654372 0.112666 0
M  V30 12333 H 1162.34 2.02613 -0.284486 0
M  V30 12334 H 1162.35 3.85252 1.34332 0
M  V30 12335 H 1161.02 4.1526 0.230719 0
M  V30 12336 H 1159.6 3.25172 1.8253 0
M  V30 12337 N 1161.79 -0.095206 1.57312 0
M  V30 12338 C 1163.2 -0.449411 1.53142 0
M  V30 12339 C 1163.4 -1.80523 0.895187 0
M  V30 12340 O 1162.46 -2.47746 0.487649 0
M  V30 12341 C 1163.77 -0.412002 2.97864 0
M  V30 12342 C 1165.32 -0.493866 3.09079 0
M  V30 12343 C 1165.79 -0.486606 4.55408 0
M  V30 12344 N 1167.29 -0.547363 4.59955 0
M  V30 12345 C 1168.02 -0.563582 5.70624 0
M  V30 12346 N 1167.52 -0.536015 6.90723 0
M  V30 12347 N 1169.31 -0.608385 5.58798 0
M  V30 12348 H 1161.46 0.792869 1.97047 0
M  V30 12349 H 1163.72 0.295106 0.900898 0
M  V30 12350 H 1163.43 0.517064 3.47878 0
M  V30 12351 H 1163.3 -1.23102 3.56547 0
M  V30 12352 H 1165.69 -1.41335 2.59053 0
M  V30 12353 H 1165.77 0.353286 2.53349 0
M  V30 12354 H 1165.42 0.428935 5.06086 0
M  V30 12355 H 1165.35 -1.35097 5.08976 0
M  V30 12356 H 1167.84 -0.573867 3.73517 0
M  V30 12357 H 1168.15 -0.551671 7.70828 0
M  V30 12358 H 1166.49 -0.503064 6.93177 0
M  V30 12359 H 1169.69 -0.627451 4.63876 0
M  V30 12360 H 1169.86 -0.617556 6.45051 0
M  V30 12361 N 1163.26 -1.53291 -0.366026 0
M  V30 12362 C 1164.51 -1.69702 -1.11036 0
M  V30 12363 C 1164.84 -0.44728 -1.88979 0
M  V30 12364 O 1164.12 0.55542 -1.86401 0
M  V30 12365 C 1164.4 -2.94661 -2.06995 0
M  V30 12366 C 1164.25 -4.29791 -1.32663 0
M  V30 12367 C 1165.57 -3.15219 -3.07123 0
M  V30 12368 H 1162.69 -0.617525 -0.402284 0
M  V30 12369 H 1165.33 -1.85929 -0.391223 0
M  V30 12370 H 1163.48 -2.80958 -2.68318 0
M  V30 12371 H 1165.16 -4.55305 -0.741266 0
M  V30 12372 H 1163.4 -4.29223 -0.628484 0
M  V30 12373 H 1164.07 -5.13359 -2.02896 0
M  V30 12374 H 1166.55 -3.28105 -2.55903 0
M  V30 12375 H 1165.42 -4.04088 -3.71489 0
M  V30 12376 H 1165.68 -2.30479 -3.77269 0
M  V30 12377 N 1164.74 0.6258 -1.44643 0
M  V30 12378 C 1165.69 1.73751 -1.51919 0
M  V30 12379 C 1166.66 1.62007 -0.36647 0
M  V30 12380 O 1167.84 1.81852 -0.577439 0
M  V30 12381 C 1164.98 3.12015 -1.47448 0
M  V30 12382 C 1164.1 3.34696 -2.73135 0
M  V30 12383 C 1163.23 4.62962 -2.6046 0
M  V30 12384 C 1162.27 4.7884 -3.81286 0
M  V30 12385 N 1161.41 5.98388 -3.67255 0
M  V30 12386 H 1166.25 1.66867 -2.46899 0
M  V30 12387 H 1163.79 0.813921 -1.22531 0
M  V30 12388 H 1165.74 3.91983 -1.42846 0
M  V30 12389 H 1164.37 3.179 -0.560312 0
M  V30 12390 H 1163.43 2.4863 -2.87901 0
M  V30 12391 H 1164.74 3.42306 -3.62806 0
M  V30 12392 H 1163.89 5.51099 -2.53722 0
M  V30 12393 H 1162.63 4.57719 -1.68359 0
M  V30 12394 H 1161.64 3.89131 -3.88403 0
M  V30 12395 H 1162.86 4.85893 -4.74431 0
M  V30 12396 H 1160.81 5.94224 -2.77909 0
M  V30 12397 H 1160.72 6.07078 -4.50547 0
M  V30 12398 H 1161.99 6.89072 -3.64417 0
M  V30 12399 N 1166.22 1.31629 0.866686 0
M  V30 12400 C 1167.46 1.22806 1.63395 0
M  V30 12401 C 1167.82 -0.209785 1.9085 0
M  V30 12402 O 1169.03 -0.421562 2.65474 0
M  V30 12403 C 1167.3 2.05187 2.92631 0
M  V30 12404 S 1168.86 2.13261 3.83491 0
M  V30 12405 H 1165.67 0.437339 0.560585 0
M  V30 12406 H 1168.28 1.66333 1.02731 0
M  V30 12407 H 1166.98 3.08736 2.70389 0
M  V30 12408 H 1166.51 1.62393 3.58318 0
M  V30 12409 H 1168.53 1.27333 4.79584 0
M  V30 12410 N 1167.7 -1.08142 1.14644 0
M  V30 12411 C 1168.95 -1.80225 0.914517 0
M  V30 12412 C 1169.27 -1.86778 -0.560269 0
M  V30 12413 O 1168.54 -1.36284 -1.40724 0
M  V30 12414 H 1167.12 -0.667492 0.335356 0
M  V30 12415 H 1169.78 -1.30729 1.44554 0
M  V30 12416 H 1168.88 -2.82958 1.31685 0
M  V30 12417 N 1169.18 -0.941978 -1.26351 0
M  V30 12418 C 1170.4 -0.606231 -1.98342 0
M  V30 12419 C 1170.83 0.812014 -1.6967 0
M  V30 12420 O 1170.19 1.54712 -0.9452 0
M  V30 12421 C 1170.23 -0.855864 -3.50296 0
M  V30 12422 O 1169.34 0.0716251 -4.12338 0
M  V30 12423 H 1168.68 -0.231815 -0.62222 0
M  V30 12424 H 1171.21 -1.26513 -1.60797 0
M  V30 12425 H 1171.22 -0.777079 -4.00531 0
M  V30 12426 H 1169.89 -1.8896 -3.70496 0
M  V30 12427 H 1168.47 -0.0582866 -3.72854 0
M  V30 12428 N 1170.66 1.40747 -0.709091 0
M  V30 12429 C 1172.07 1.83955 -0.318968 0
M  V30 12430 C 1172.42 1.59304 1.14527 0
M  V30 12431 O 1171.54 1.07052 1.88066 0
M  V30 12432 C 1172.14 3.33934 -0.572147 0
M  V30 12433 C 1170.7 3.75661 -0.235802 0
M  V30 12434 C 1169.84 2.64024 -0.847743 0
M  V30 12435 H 1172.79 1.30107 -0.908734 0
M  V30 12436 H 1172.82 3.80143 0.164752 0
M  V30 12437 H 1172.33 3.51844 -1.63791 0
M  V30 12438 H 1170.43 3.63348 0.825164 0
M  V30 12439 H 1170.54 4.73955 -0.700263 0
M  V30 12440 H 1168.91 2.53197 -0.276283 0
M  V30 12441 H 1169.69 2.84748 -1.91765 0
M  V30 12442 N 1172.13 0.454803 1.50895 0
M  V30 12443 C 1173.38 -0.105562 2.01824 0
M  V30 12444 C 1173.7 -1.41673 1.33992 0
M  V30 12445 O 1172.97 -1.89929 0.479994 0
M  V30 12446 H 1171.55 -0.0420011 0.745818 0
M  V30 12447 H 1174.21 0.601504 1.85386 0
M  V30 12448 H 1173.31 -0.268872 3.1094 0
M  V30 12449 N 1173.61 -1.56489 0.186789 0
M  V30 12450 C 1174.54 -2.15911 -0.769104 0
M  V30 12451 C 1175.56 -1.11872 -1.18273 0
M  V30 12452 O 1176.75 -1.38999 -1.1199 0
M  V30 12453 C 1173.85 -2.69957 -2.04882 0
M  V30 12454 C 1173.02 -3.98812 -1.79631 0
M  V30 12455 C 1172.08 -4.37767 -2.9197 0
M  V30 12456 O 1171.1 -5.0535 -2.61935 0
M  V30 12457 N 1172.31 -4.0059 -4.20128 0
M  V30 12458 H 1175.07 -2.98561 -0.261007 0
M  V30 12459 H 1172.63 -1.61899 0.00453357 0
M  V30 12460 H 1174.62 -2.93006 -2.79158 0
M  V30 12461 H 1173.19 -1.91808 -2.46837 0
M  V30 12462 H 1172.41 -3.8398 -0.891776 0
M  V30 12463 H 1173.7 -4.82939 -1.60148 0
M  V30 12464 H 1173.1 -3.46213 -4.47385 0
M  V30 12465 H 1171.66 -4.28608 -4.91059 0
M  V30 12466 N 1175.09 0.086862 -1.5736 0
M  V30 12467 C 1176.02 1.10538 -2.05678 0
M  V30 12468 C 1177 1.41281 -0.947293 0
M  V30 12469 O 1178.19 1.51169 -1.21908 0
M  V30 12470 C 1175.32 2.42302 -2.48812 0
M  V30 12471 C 1174.27 2.25948 -3.63499 0
M  V30 12472 C 1173.6 3.62961 -3.92637 0
M  V30 12473 C 1174.9 1.69319 -4.94094 0
M  V30 12474 H 1176.59 0.703371 -2.91021 0
M  V30 12475 H 1174.14 0.336895 -1.40004 0
M  V30 12476 H 1176.09 3.13833 -2.81224 0
M  V30 12477 H 1174.81 2.84454 -1.60479 0
M  V30 12478 H 1173.47 1.5686 -3.31347 0
M  V30 12479 H 1173.12 4.02656 -3.01459 0
M  V30 12480 H 1172.82 3.52862 -4.69853 0
M  V30 12481 H 1174.34 4.35946 -4.27531 0
M  V30 12482 H 1175.76 2.30699 -5.24834 0
M  V30 12483 H 1174.15 1.69957 -5.7553 0
M  V30 12484 H 1175.22 0.653318 -4.80479 0
M  V30 12485 N 1176.57 1.53483 0.357892 0
M  V30 12486 C 1177.5 1.76757 1.4591 0
M  V30 12487 C 1178.51 0.648502 1.49326 0
M  V30 12488 O 1179.7 0.924932 1.52667 0
M  V30 12489 C 1176.8 1.83938 2.8464 0
M  V30 12490 C 1175.97 3.13683 3.04831 0
M  V30 12491 C 1175.03 3.12007 4.23719 0
M  V30 12492 O 1174.06 3.8578 4.18524 0
M  V30 12493 N 1175.26 2.33366 5.31527 0
M  V30 12494 H 1178.03 2.71778 1.2632 0
M  V30 12495 H 1175.59 1.52355 0.547673 0
M  V30 12496 H 1177.58 1.80285 3.62325 0
M  V30 12497 H 1176.15 0.961675 2.9744 0
M  V30 12498 H 1175.37 3.30576 2.14739 0
M  V30 12499 H 1176.66 3.99412 3.15194 0
M  V30 12500 H 1176.06 1.72954 5.38613 0
M  V30 12501 H 1174.61 2.35524 6.07759 0
M  V30 12502 N 1178.05 -0.61812 1.44973 0
M  V30 12503 C 1179.29 -1.37468 1.48145 0
M  V30 12504 C 1179.61 -1.94628 0.120366 0
M  V30 12505 O 1178.88 -1.76548 -0.848982 0
M  V30 12506 H 1177.46 -0.510293 0.545536 0
M  V30 12507 H 1180.13 -0.726598 1.8085 0
M  V30 12508 H 1179.22 -2.19944 2.2143 0
M  V30 12509 N 1179.52 -1.32087 -0.859693 0
M  V30 12510 C 1180.45 -1.23204 -1.98351 0
M  V30 12511 C 1181.43 -0.116974 -1.69697 0
M  V30 12512 O 1182.62 -0.303301 -1.91817 0
M  V30 12513 C 1179.75 -0.949171 -3.34078 0
M  V30 12514 C 1178.7 -2.02493 -3.77069 0
M  V30 12515 C 1178.03 -1.59455 -5.1037 0
M  V30 12516 C 1179.33 -3.43934 -3.93074 0
M  V30 12517 H 1181.02 -2.17227 -2.0604 0
M  V30 12518 H 1178.57 -1.04577 -0.989931 0
M  V30 12519 H 1180.52 -0.873594 -4.12245 0
M  V30 12520 H 1179.25 0.0267095 -3.26589 0
M  V30 12521 H 1177.91 -2.09057 -3.01149 0
M  V30 12522 H 1177.55 -0.606256 -4.99333 0
M  V30 12523 H 1177.25 -2.31429 -5.40106 0
M  V30 12524 H 1178.78 -1.53325 -5.91036 0
M  V30 12525 H 1180.19 -3.39986 -4.61608 0
M  V30 12526 H 1178.59 -4.14214 -4.3422 0
M  V30 12527 H 1179.66 -3.83965 -2.9614 0
M  V30 12528 N 1181 1.07532 -1.15215 0
M  V30 12529 C 1182.23 1.84356 -0.950139 0
M  V30 12530 C 1182.65 1.81429 0.496502 0
M  V30 12531 O 1182.01 1.20589 1.35381 0
M  V30 12532 C 1182.06 3.29425 -1.46669 0
M  V30 12533 O 1181.16 4.07008 -0.664674 0
M  V30 12534 H 1180.5 0.570921 -0.339036 0
M  V30 12535 H 1183.03 1.35665 -1.53154 0
M  V30 12536 H 1183.04 3.8026 -1.47873 0
M  V30 12537 H 1181.72 3.3087 -2.51988 0
M  V30 12538 H 1180.29 3.65841 -0.72211 0
M  V30 12539 N 1182.48 0.948665 1.2585 0
M  V30 12540 C 1183.73 0.595938 1.92695 0
M  V30 12541 C 1184.04 -0.870229 1.75175 0
M  V30 12542 O 1185.25 -1.33266 2.36543 0
M  V30 12543 C 1183.7 1.01511 3.45288 0
M  V30 12544 C 1183.31 2.50341 3.71528 0
M  V30 12545 C 1185.06 0.734635 4.18095 0
M  V30 12546 C 1182.96 2.8609 5.17597 0
M  V30 12547 H 1181.89 0.219171 0.721443 0
M  V30 12548 H 1184.54 1.15231 1.42807 0
M  V30 12549 H 1182.93 0.387201 3.94102 0
M  V30 12550 H 1184.1 3.18101 3.3339 0
M  V30 12551 H 1182.42 2.75797 3.11969 0
M  V30 12552 H 1185.01 0.977962 5.25681 0
M  V30 12553 H 1185.36 -0.328807 4.14999 0
M  V30 12554 H 1185.89 1.32262 3.75169 0
M  V30 12555 H 1182.63 3.91427 5.25799 0
M  V30 12556 H 1182.15 2.22999 5.56805 0
M  V30 12557 H 1183.83 2.74959 5.85668 0
M  V30 12558 N 1183.96 -1.40369 0.716545 0
M  V30 12559 C 1185.21 -2.00869 0.256466 0
M  V30 12560 C 1185.53 -1.56816 -1.15061 0
M  V30 12561 O 1184.79 -0.779696 -1.79497 0
M  V30 12562 C 1185.09 -3.56257 0.285583 0
M  V30 12563 C 1184.75 -4.19897 1.64309 0
M  V30 12564 C 1183.42 -4.36994 2.01469 0
M  V30 12565 C 1185.77 -4.55385 2.53524 0
M  V30 12566 C 1183.1 -4.86862 3.27387 0
M  V30 12567 C 1185.45 -5.06653 3.78795 0
M  V30 12568 C 1184.11 -5.21959 4.16071 0
M  V30 12569 H 1183.38 -0.735033 0.0938475 0
M  V30 12570 H 1186.03 -1.67966 0.919765 0
M  V30 12571 H 1184.33 -3.89075 -0.461287 0
M  V30 12572 H 1186.03 -4.00903 -0.0882496 0
M  V30 12573 H 1182.62 -4.06978 1.34413 0
M  V30 12574 H 1186.8 -4.41811 2.2609 0
M  V30 12575 H 1182.06 -4.96897 3.56235 0
M  V30 12576 H 1186.23 -5.33089 4.48095 0
M  V30 12577 H 1183.86 -5.60362 5.1371 0
M  V30 12578 N 1185.44 -0.462799 -1.50652 0
M  V30 12579 C 1186.4 0.324264 -2.26895 0
M  V30 12580 C 1187.4 0.927687 -1.31342 0
M  V30 12581 O 1188.59 0.798159 -1.54839 0
M  V30 12582 C 1185.72 1.46113 -3.08 0
M  V30 12583 H 1186.91 -0.344266 -2.97917 0
M  V30 12584 H 1184.47 -0.216631 -1.54791 0
M  V30 12585 H 1185.2 2.16496 -2.41454 0
M  V30 12586 H 1184.99 1.03433 -3.78212 0
M  V30 12587 H 1186.48 2.01655 -3.65684 0
M  V30 12588 N 1186.91 1.56388 -0.195085 0
M  V30 12589 C 1187.85 2.16316 0.757643 0
M  V30 12590 C 1188.86 1.12498 1.17678 0
M  V30 12591 O 1190.05 1.39591 1.11251 0
M  V30 12592 C 1187.15 2.7104 2.03447 0
M  V30 12593 C 1186.32 3.99759 1.77514 0
M  V30 12594 C 1185.38 4.3931 2.89644 0
M  V30 12595 O 1184.41 5.06732 2.59252 0
M  V30 12596 N 1185.61 4.02813 4.17998 0
M  V30 12597 H 1188.37 2.98696 0.24517 0
M  V30 12598 H 1185.93 1.61895 -0.0131194 0
M  V30 12599 H 1187.93 2.94483 2.776 0
M  V30 12600 H 1186.5 1.93114 2.45817 0
M  V30 12601 H 1185.72 3.84448 0.8714 0
M  V30 12602 H 1187 4.83782 1.57585 0
M  V30 12603 H 1186.4 3.4858 4.45543 0
M  V30 12604 H 1184.96 4.31206 4.88779 0
M  V30 12605 N 1188.39 -0.0785156 1.57404 0
M  V30 12606 C 1189.67 -0.811557 1.77969 0
M  V30 12607 C 1190.05 -1.96123 0.780966 0
M  V30 12608 O 1189.4 -2.27731 -0.18726 0
M  V30 12609 C 1189.61 -1.29075 3.24254 0
M  V30 12610 C 1190.96 -1.72685 3.87898 0
M  V30 12611 O 1191.98 -1.38658 3.28104 0
M  V30 12612 O 1190.84 -2.3566 4.93079 0
M  V30 12613 H 1187.93 -0.388361 0.73014 0
M  V30 12614 H 1190.48 -0.0591118 1.69597 0
M  V30 12615 H 1189.25 -0.467813 3.88494 0
M  V30 12616 H 1188.87 -2.10472 3.37324 0
M  V30 12617 N 1189.87 -1.5367 -0.349747 0
M  V30 12618 C 1190.8 -1.84208 -1.43492 0
M  V30 12619 C 1191.78 -0.696725 -1.55177 0
M  V30 12620 O 1192.97 -0.948061 -1.69486 0
M  V30 12621 C 1190.1 -2.04613 -2.80625 0
M  V30 12622 C 1189.05 -3.20419 -2.83753 0
M  V30 12623 C 1188.38 -3.26147 -4.23713 0
M  V30 12624 C 1189.68 -4.58666 -2.49846 0
M  V30 12625 H 1191.37 -2.75087 -1.18185 0
M  V30 12626 H 1188.92 -1.32363 -0.567101 0
M  V30 12627 H 1190.87 -2.2456 -3.56582 0
M  V30 12628 H 1189.59 -1.10459 -3.07354 0
M  V30 12629 H 1188.25 -3.00318 -2.10249 0
M  V30 12630 H 1187.9 -2.29599 -4.47541 0
M  V30 12631 H 1187.6 -4.03963 -4.26717 0
M  V30 12632 H 1189.12 -3.48296 -5.0152 0
M  V30 12633 H 1190.54 -4.78668 -3.15516 0
M  V30 12634 H 1188.94 -5.3884 -2.64144 0
M  V30 12635 H 1190.01 -4.62697 -1.4505 0
M  V30 12636 N 1191.35 0.610423 -1.45298 0
M  V30 12637 C 1192.76 0.930872 -1.29642 0
M  V30 12638 C 1192.96 1.99976 -0.247358 0
M  V30 12639 O 1192.02 2.49925 0.359674 0
M  V30 12640 C 1193.33 1.37449 -2.67448 0
M  V30 12641 C 1194.88 1.48885 -2.75322 0
M  V30 12642 C 1195.36 1.96624 -4.13646 0
M  V30 12643 N 1196.85 2.03862 -4.15926 0
M  V30 12644 C 1197.58 2.42015 -5.19823 0
M  V30 12645 N 1197.08 2.79157 -6.34069 0
M  V30 12646 N 1198.87 2.42329 -5.07181 0
M  V30 12647 H 1191.02 -0.0961259 -2.12182 0
M  V30 12648 H 1193.29 0.0196483 -0.947796 0
M  V30 12649 H 1192.99 0.663276 -3.45389 0
M  V30 12650 H 1192.87 2.34155 -2.95721 0
M  V30 12651 H 1195.25 2.19098 -1.97686 0
M  V30 12652 H 1195.33 0.505006 -2.50765 0
M  V30 12653 H 1194.98 1.26998 -4.91766 0
M  V30 12654 H 1194.91 2.95917 -4.35592 0
M  V30 12655 H 1197.4 1.77759 -3.33482 0
M  V30 12656 H 1197.71 3.07143 -7.09142 0
M  V30 12657 H 1196.06 2.7686 -6.37474 0
M  V30 12658 H 1199.25 2.12717 -4.16976 0
M  V30 12659 H 1199.42 2.71738 -5.88271 0
M  V30 12660 N 1192.83 1.32541 0.852676 0
M  V30 12661 C 1193.76 1.24254 1.97694 0
M  V30 12662 C 1194.74 0.125971 1.69633 0
M  V30 12663 O 1195.92 0.31347 1.91653 0
M  V30 12664 C 1193.05 0.966874 3.3357 0
M  V30 12665 C 1192.01 2.0449 3.75989 0
M  V30 12666 C 1191.33 1.6216 5.09518 0
M  V30 12667 C 1192.63 3.46013 3.91244 0
M  V30 12668 H 1194.33 2.18317 2.04886 0
M  V30 12669 H 1191.87 1.05101 0.984371 0
M  V30 12670 H 1193.83 0.895444 4.11776 0
M  V30 12671 H 1192.55 -0.0093893 3.26599 0
M  V30 12672 H 1191.21 2.10651 3.00036 0
M  V30 12673 H 1190.86 0.632729 4.99005 0
M  V30 12674 H 1190.56 2.3429 5.38871 0
M  V30 12675 H 1192.08 1.56457 5.90215 0
M  V30 12676 H 1193.49 3.4243 4.59799 0
M  V30 12677 H 1191.89 4.1651 4.32017 0
M  V30 12678 H 1192.96 3.8553 2.941 0
M  V30 12679 N 1194.3 -1.0692 1.15784 0
M  V30 12680 C 1195.54 -1.8119 0.946018 0
M  V30 12681 C 1195.91 -1.84899 -0.517338 0
M  V30 12682 O 1197.11 -2.55085 -0.847643 0
M  V30 12683 C 1195.38 -3.22102 1.54871 0
M  V30 12684 S 1196.94 -4.13065 1.48063 0
M  V30 12685 H 1193.76 -0.62424 0.340361 0
M  V30 12686 H 1196.36 -1.28411 1.47414 0
M  V30 12687 H 1195.06 -3.16994 2.60659 0
M  V30 12688 H 1194.59 -3.79956 1.01965 0
M  V30 12689 H 1196.61 -4.93907 0.476517 0
M  V30 12690 N 1195.78 -0.955326 -1.25345 0
M  V30 12691 C 1196.71 -0.494145 -2.28211 0
M  V30 12692 C 1197.69 0.459875 -1.63766 0
M  V30 12693 O 1198.88 0.358679 -1.90859 0
M  V30 12694 C 1196.01 0.228228 -3.46549 0
M  V30 12695 C 1194.96 -0.640601 -4.23179 0
M  V30 12696 C 1194.29 0.212553 -5.34277 0
M  V30 12697 C 1195.59 -1.91906 -4.85767 0
M  V30 12698 H 1197.28 -1.35391 -2.67039 0
M  V30 12699 H 1194.83 -0.652462 -1.2837 0
M  V30 12700 H 1196.78 0.561995 -4.17636 0
M  V30 12701 H 1195.51 1.12224 -3.06714 0
M  V30 12702 H 1194.16 -0.957462 -3.53876 0
M  V30 12703 H 1193.81 1.10634 -4.90682 0
M  V30 12704 H 1193.51 -0.365473 -5.86462 0
M  V30 12705 H 1195.04 0.541271 -6.08196 0
M  V30 12706 H 1196.45 -1.65165 -5.48993 0
M  V30 12707 H 1194.85 -2.44279 -5.48131 0
M  V30 12708 H 1195.92 -2.62173 -4.07914 0
M  V30 12709 N 1197.26 1.39987 -0.723979 0
M  V30 12710 C 1198.54 1.94637 -0.1939 0
M  V30 12711 C 1198.92 1.66156 1.30212 0
M  V30 12712 O 1198.27 0.983783 2.06238 0
M  V30 12713 C 1198.48 3.4517 -0.515652 0
M  V30 12714 C 1199.82 4.22113 -0.458919 0
M  V30 12715 O 1200.85 3.53318 -0.452198 0
M  V30 12716 O 1199.71 5.44695 -0.443783 0
M  V30 12717 H 1196.8 0.826394 -0.0316615 0
M  V30 12718 H 1199.35 1.49548 -0.802085 0
M  V30 12719 H 1198.12 3.5929 -1.55004 0
M  V30 12720 H 1197.74 3.97413 0.122067 0
M  V30 12721 N 1198.74 0.470782 1.50404 0
M  V30 12722 C 1199.65 -0.328877 2.32283 0
M  V30 12723 C 1200.67 -0.99629 1.42654 0
M  V30 12724 O 1201.84 -0.984331 1.75707 0
M  V30 12725 C 1198.91 -1.39675 3.1732 0
M  V30 12726 C 1197.97 -0.745965 4.22769 0
M  V30 12727 C 1197.2 -1.76295 5.03742 0
M  V30 12728 O 1197.42 -2.98943 4.85788 0
M  V30 12729 O 1196.36 -1.33495 5.86909 0
M  V30 12730 H 1200.18 0.340491 3.01785 0
M  V30 12731 H 1197.77 0.232637 1.47578 0
M  V30 12732 H 1199.65 -2.0153 3.70086 0
M  V30 12733 H 1198.33 -2.04959 2.50546 0
M  V30 12734 H 1197.23 -0.0884647 3.73995 0
M  V30 12735 H 1198.57 -0.136074 4.92012 0
M  V30 12736 N 1200.22 -1.56282 0.203376 0
M  V30 12737 C 1201.18 -2.18233 -0.700489 0
M  V30 12738 C 1202.18 -1.13908 -1.13497 0
M  V30 12739 O 1203.37 -1.39246 -1.04672 0
M  V30 12740 C 1200.5 -2.79107 -1.95735 0
M  V30 12741 H 1201.7 -2.99469 -0.160649 0
M  V30 12742 H 1199.25 -1.56232 -0.0462475 0
M  V30 12743 H 1199.98 -2.01691 -2.53951 0
M  V30 12744 H 1199.77 -3.55486 -1.65446 0
M  V30 12745 H 1201.26 -3.2665 -2.60172 0
M  V30 12746 N 1201.7 0.070167 -1.57444 0
M  V30 12747 C 1202.63 1.08351 -2.06839 0
M  V30 12748 C 1203.61 1.40269 -0.962224 0
M  V30 12749 O 1204.79 1.49867 -1.23505 0
M  V30 12750 C 1201.92 2.39649 -2.51368 0
M  V30 12751 C 1200.88 2.22079 -3.65875 0
M  V30 12752 C 1200.2 3.58776 -3.96464 0
M  V30 12753 C 1201.5 1.64069 -4.95862 0
M  V30 12754 H 1203.2 0.672465 -2.9175 0
M  V30 12755 H 1200.74 0.322027 -1.40353 0
M  V30 12756 H 1202.69 3.10833 -2.84537 0
M  V30 12757 H 1201.42 2.82736 -1.63487 0
M  V30 12758 H 1200.08 1.53337 -3.32992 0
M  V30 12759 H 1199.73 3.99436 -3.05712 0
M  V30 12760 H 1199.43 3.47859 -4.7357 0
M  V30 12761 H 1200.95 4.31387 -4.32131 0
M  V30 12762 H 1202.36 2.2512 -5.27251 0
M  V30 12763 H 1200.76 1.63843 -5.773 0
M  V30 12764 H 1201.83 0.60232 -4.81145 0
M  V30 12765 N 1203.17 1.53854 0.341593 0
M  V30 12766 C 1204.4 1.75447 1.10604 0
M  V30 12767 C 1204.82 0.493225 1.81518 0
M  V30 12768 O 1204.18 -0.554253 1.7262 0
M  V30 12769 C 1204.23 2.93593 2.09369 0
M  V30 12770 O 1203.33 2.63878 3.16926 0
M  V30 12771 H 1202.67 0.581923 0.319783 0
M  V30 12772 H 1205.2 2.00822 0.391388 0
M  V30 12773 H 1205.21 3.20437 2.52556 0
M  V30 12774 H 1203.89 3.85067 1.57151 0
M  V30 12775 H 1202.47 2.47929 2.78542 0
M  V30 12776 N 1204.65 -0.602709 1.4562 0
M  V30 12777 C 1205.9 -1.36159 1.51103 0
M  V30 12778 C 1206.25 -1.91794 0.152552 0
M  V30 12779 O 1205.55 -1.7239 -0.836201 0
M  V30 12780 C 1205.74 -2.52474 2.52966 0
M  V30 12781 C 1205.57 -2.0823 3.98585 0
M  V30 12782 C 1204.34 -1.94175 4.66502 0
M  V30 12783 C 1206.54 -1.65402 4.86977 0
M  V30 12784 N 1204.52 -1.43792 5.96822 0
M  V30 12785 C 1205.89 -1.26469 6.06964 0
M  V30 12786 C 1207.94 -1.53038 4.73797 0
M  V30 12787 C 1206.65 -0.764065 7.1523 0
M  V30 12788 C 1208.67 -1.04379 5.82116 0
M  V30 12789 C 1208.04 -0.664136 7.01262 0
M  V30 12790 H 1204.13 -0.491974 0.607853 0
M  V30 12791 H 1206.72 -0.688472 1.82121 0
M  V30 12792 H 1204.89 -3.17375 2.23891 0
M  V30 12793 H 1206.62 -3.19369 2.48567 0
M  V30 12794 H 1203.38 -2.1551 4.21726 0
M  V30 12795 H 1203.8 -1.2082 6.66132 0
M  V30 12796 H 1208.44 -1.81014 3.82091 0
M  V30 12797 H 1206.16 -0.471858 8.06721 0
M  V30 12798 H 1209.75 -0.952316 5.73953 0
M  V30 12799 H 1208.63 -0.293412 7.83651 0
M  V30 12800 N 1206.13 -1.32992 -0.845635 0
M  V30 12801 C 1207.41 -1.14671 -1.58461 0
M  V30 12802 C 1207.79 0.289498 -2.09106 0
M  V30 12803 O 1207.13 1.28751 -1.88773 0
M  V30 12804 C 1207.34 -2.18206 -2.72373 0
M  V30 12805 C 1208.69 -2.5201 -3.41726 0
M  V30 12806 O 1209.72 -2.16821 -2.82608 0
M  V30 12807 O 1208.58 -3.12368 -4.48429 0
M  V30 12808 H 1205.67 -0.443088 -0.698285 0
M  V30 12809 H 1208.22 -1.44552 -0.888978 0
M  V30 12810 H 1206.99 -3.14707 -2.32541 0
M  V30 12811 H 1206.61 -1.89372 -3.49605 0
M  V30 12812 N 1207.61 1.06304 -1.1635 0
M  V30 12813 C 1208.85 1.80686 -0.955614 0
M  V30 12814 C 1209.21 1.85171 0.507525 0
M  V30 12815 O 1210.41 2.55531 0.834103 0
M  V30 12816 C 1208.68 3.21276 -1.56577 0
M  V30 12817 S 1210.24 4.12274 -1.50251 0
M  V30 12818 H 1207.06 0.622426 -0.343666 0
M  V30 12819 H 1209.66 1.27628 -1.48092 0
M  V30 12820 H 1208.37 3.15607 -2.62336 0
M  V30 12821 H 1207.9 3.7941 -1.03978 0
M  V30 12822 H 1209.91 4.93647 -0.502703 0
M  V30 12823 N 1209.09 0.96196 1.24836 0
M  V30 12824 C 1210.33 0.620715 1.92752 0
M  V30 12825 C 1210.66 -0.843308 1.75267 0
M  V30 12826 O 1209.92 -1.62141 1.09584 0
M  V30 12827 C 1210.21 0.934481 3.44967 0
M  V30 12828 C 1209.88 2.38572 3.82615 0
M  V30 12829 C 1208.54 2.78238 3.92603 0
M  V30 12830 C 1210.89 3.32784 4.01129 0
M  V30 12831 C 1208.22 4.11169 4.18518 0
M  V30 12832 C 1210.57 4.65336 4.28539 0
M  V30 12833 C 1209.24 5.04788 4.36745 0
M  V30 12834 H 1208.51 0.227136 0.70533 0
M  V30 12835 H 1211.16 1.21237 1.48236 0
M  V30 12836 H 1209.46 0.260516 3.90933 0
M  V30 12837 H 1211.16 0.648923 3.95715 0
M  V30 12838 H 1207.75 2.06812 3.75402 0
M  V30 12839 H 1211.93 3.03325 3.9282 0
M  V30 12840 H 1207.19 4.41368 4.23089 0
M  V30 12841 H 1211.36 5.3831 4.41809 0
M  V30 12842 H 1208.99 6.07816 4.56579 0
M  V30 12843 N 1210.56 -1.39601 0.731392 0
M  V30 12844 C 1211.53 -2.28992 0.0976037 0
M  V30 12845 C 1212.53 -1.46135 -0.670917 0
M  V30 12846 O 1213.72 -1.66856 -0.50047 0
M  V30 12847 C 1210.85 -3.29582 -0.871124 0
M  V30 12848 H 1212.04 -2.86541 0.885112 0
M  V30 12849 H 1209.59 -1.48188 0.497002 0
M  V30 12850 H 1210.33 -2.77082 -1.68512 0
M  V30 12851 H 1210.11 -3.9077 -0.322735 0
M  V30 12852 H 1211.6 -3.96479 -1.31126 0
M  V30 12853 N 1212.04 -0.478751 -1.50152 0
M  V30 12854 C 1212.97 0.301182 -2.31549 0
M  V30 12855 C 1213.95 0.983276 -1.38801 0
M  V30 12856 O 1215.14 0.978973 -1.67719 0
M  V30 12857 C 1212.27 1.3791 -3.18745 0
M  V30 12858 C 1211.22 0.818175 -4.20107 0
M  V30 12859 C 1210.55 1.99496 -4.9609 0
M  V30 12860 C 1211.85 -0.17574 -5.22004 0
M  V30 12861 H 1213.54 -0.378188 -2.97002 0
M  V30 12862 H 1211.09 -0.183323 -1.42828 0
M  V30 12863 H 1213.04 1.93227 -3.74488 0
M  V30 12864 H 1211.77 2.08735 -2.51192 0
M  V30 12865 H 1210.42 0.286924 -3.65475 0
M  V30 12866 H 1210.07 2.69036 -4.25004 0
M  V30 12867 H 1209.77 1.62582 -5.6466 0
M  V30 12868 H 1211.3 2.55288 -5.54671 0
M  V30 12869 H 1212.71 0.288513 -5.72574 0
M  V30 12870 H 1211.11 -0.459549 -5.98338 0
M  V30 12871 H 1212.18 -1.09911 -4.72279 0
M  V30 12872 N 1213.52 1.56172 -0.211661 0
M  V30 12873 C 1214.75 2.02874 0.430905 0
M  V30 12874 C 1215.17 1.09064 1.53254 0
M  V30 12875 O 1214.53 0.0770408 1.81136 0
M  V30 12876 C 1214.58 3.4789 0.948933 0
M  V30 12877 O 1213.68 3.57213 2.0609 0
M  V30 12878 H 1213.02 0.656614 0.0987607 0
M  V30 12879 H 1215.55 2.01964 -0.327399 0
M  V30 12880 H 1215.56 3.88015 1.2613 0
M  V30 12881 H 1214.24 4.15656 0.142584 0
M  V30 12882 H 1212.81 3.28971 1.75592 0
M  V30 12883 N 1215 -0.0618163 1.57479 0
M  V30 12884 C 1215.93 -1.07252 2.07411 0
M  V30 12885 C 1216.91 -1.39756 0.969649 0
M  V30 12886 O 1218.09 -1.4921 1.24298 0
M  V30 12887 C 1215.22 -2.38313 2.52635 0
M  V30 12888 C 1214.18 -2.20136 3.67048 0
M  V30 12889 C 1213.5 -3.56668 3.98361 0
M  V30 12890 C 1214.8 -1.61437 4.96725 0
M  V30 12891 H 1216.5 -0.656983 2.92103 0
M  V30 12892 H 1214.04 -0.314579 1.40522 0
M  V30 12893 H 1216 -3.09319 2.86181 0
M  V30 12894 H 1214.72 -2.81865 1.64984 0
M  V30 12895 H 1213.38 -1.51569 3.338 0
M  V30 12896 H 1213.03 -3.97809 3.07826 0
M  V30 12897 H 1212.73 -3.45342 4.75408 0
M  V30 12898 H 1214.25 -4.2909 4.34413 0
M  V30 12899 H 1215.67 -2.2232 5.28438 0
M  V30 12900 H 1214.06 -1.60779 5.78161 0
M  V30 12901 H 1215.13 -0.576795 4.81457 0
M  V30 12902 N 1216.48 -1.54033 -0.333429 0
M  V30 12903 C 1217.41 -1.85719 -1.4153 0
M  V30 12904 C 1218.39 -0.713144 -1.54429 0
M  V30 12905 O 1219.57 -0.965984 -1.68471 0
M  V30 12906 C 1216.7 -2.07578 -2.78439 0
M  V30 12907 C 1215.66 -3.23411 -2.80338 0
M  V30 12908 C 1214.98 -3.30622 -4.2023 0
M  V30 12909 C 1216.28 -4.6129 -2.44968 0
M  V30 12910 H 1217.98 -2.76325 -1.15261 0
M  V30 12911 H 1215.52 -1.32957 -0.55303 0
M  V30 12912 H 1217.48 -2.28329 -3.5418 0
M  V30 12913 H 1216.2 -1.13713 -3.06165 0
M  V30 12914 H 1214.86 -3.02531 -2.07052 0
M  V30 12915 H 1214.51 -2.34333 -4.45081 0
M  V30 12916 H 1214.21 -4.08466 -4.22409 0
M  V30 12917 H 1215.73 -3.53596 -4.97798 0
M  V30 12918 H 1217.14 -4.81987 -3.10421 0
M  V30 12919 H 1215.54 -5.41611 -2.58414 0
M  V30 12920 H 1216.61 -4.6421 -1.40134 0
M  V30 12921 N 1217.95 0.594978 -1.45938 0
M  V30 12922 C 1218.92 1.68688 -1.55168 0
M  V30 12923 C 1219.92 1.54945 -0.429951 0
M  V30 12924 O 1221.11 1.59785 -0.693859 0
M  V30 12925 C 1218.24 3.0804 -1.46027 0
M  V30 12926 H 1219.43 1.61866 -2.52467 0
M  V30 12927 H 1216.99 0.811785 -1.33565 0
M  V30 12928 H 1217.72 3.20428 -0.499614 0
M  V30 12929 H 1217.51 3.19423 -2.27401 0
M  V30 12930 H 1219 3.8755 -1.55546 0
M  V30 12931 N 1219.43 1.33438 0.838571 0
M  V30 12932 C 1220.68 1.25097 1.5962 0
M  V30 12933 C 1221.01 -0.182798 1.93338 0
M  V30 12934 O 1220.29 -1.1242 1.5872 0
M  V30 12935 C 1220.57 2.12655 2.90603 0
M  V30 12936 C 1220.42 3.64491 2.63565 0
M  V30 12937 C 1221.74 1.99994 3.92033 0
M  V30 12938 H 1218.86 0.455776 0.579169 0
M  V30 12939 H 1221.5 1.63542 0.967169 0
M  V30 12940 H 1219.65 1.79998 3.44286 0
M  V30 12941 H 1221.32 4.0744 2.16312 0
M  V30 12942 H 1219.57 3.86356 1.9726 0
M  V30 12943 H 1220.24 4.21101 3.569 0
M  V30 12944 H 1222.71 2.28635 3.47657 0
M  V30 12945 H 1221.59 2.63509 4.81512 0
M  V30 12946 H 1221.85 0.972263 4.31277 0
M  V30 12947 N 1220.91 -1.05686 1.16912 0
M  V30 12948 C 1221.87 -2.11481 0.883647 0
M  V30 12949 C 1222.87 -1.60321 -0.124034 0
M  V30 12950 O 1224.06 -1.73868 0.107566 0
M  V30 12951 C 1221.2 -3.3937 0.322649 0
M  V30 12952 H 1222.39 -2.38239 1.8216 0
M  V30 12953 H 1219.94 -1.2185 0.978895 0
M  V30 12954 H 1220.68 -3.18266 -0.622695 0
M  V30 12955 H 1220.46 -3.77812 1.04883 0
M  V30 12956 H 1221.95 -4.17362 0.141072 0
M  V30 12957 N 1222.39 -0.968567 -1.24324 0
M  V30 12958 C 1223.32 -0.518323 -2.27674 0
M  V30 12959 C 1224.3 0.442479 -1.64244 0
M  V30 12960 O 1225.48 0.338416 -1.91229 0
M  V30 12961 C 1222.61 0.191459 -3.46772 0
M  V30 12962 C 1221.57 -0.685449 -4.22476 0
M  V30 12963 C 1220.89 0.155873 -5.34473 0
M  V30 12964 C 1222.19 -1.97047 -4.83704 0
M  V30 12965 H 1223.89 -1.38215 -2.65588 0
M  V30 12966 H 1221.43 -0.66604 -1.27671 0
M  V30 12967 H 1223.39 0.517667 -4.18208 0
M  V30 12968 H 1222.11 1.08965 -3.07887 0
M  V30 12969 H 1220.77 -0.994942 -3.52841 0
M  V30 12970 H 1220.42 1.05424 -4.91828 0
M  V30 12971 H 1220.12 -0.427655 -5.86042 0
M  V30 12972 H 1221.64 0.476733 -6.08736 0
M  V30 12973 H 1223.06 -1.70979 -5.4721 0
M  V30 12974 H 1221.45 -2.50079 -5.45509 0
M  V30 12975 H 1222.52 -2.66484 -4.0511 0
M  V30 12976 N 1223.87 1.39211 -0.738786 0
M  V30 12977 C 1225.11 2.0004 -0.28782 0
M  V30 12978 C 1225.44 1.58921 1.13 0
M  V30 12979 O 1224.71 0.839193 1.77015 0
M  V30 12980 H 1223.29 0.739805 -0.103425 0
M  V30 12981 H 1225.95 1.70202 -0.949587 0
M  V30 12982 H 1225.04 3.10251 -0.339208 0
M  V30 12983 N 1225.34 0.486708 1.49896 0
M  V30 12984 C 1226.27 -0.288898 2.31706 0
M  V30 12985 C 1227.26 -0.975901 1.3932 0
M  V30 12986 O 1228.44 -0.970065 1.68236 0
M  V30 12987 C 1225.57 -1.36218 3.19471 0
M  V30 12988 C 1224.52 -0.795884 4.20535 0
M  V30 12989 C 1223.85 -1.96862 4.97141 0
M  V30 12990 C 1225.15 0.203421 5.21904 0
M  V30 12991 H 1226.84 0.393934 2.96797 0
M  V30 12992 H 1224.39 0.190894 1.42729 0
M  V30 12993 H 1226.34 -1.91238 3.75508 0
M  V30 12994 H 1225.07 -2.074 2.52295 0
M  V30 12995 H 1223.73 -0.267538 3.65622 0
M  V30 12996 H 1223.37 -2.66779 4.26425 0
M  V30 12997 H 1223.07 -1.59585 5.65514 0
M  V30 12998 H 1224.6 -2.52343 5.56017 0
M  V30 12999 H 1226.01 -0.258144 5.72719 0
M  V30 13000 H 1224.41 0.491273 5.98086 0
M  V30 13001 H 1225.48 1.12414 4.7169 0
M  V30 13002 N 1226.82 -1.56058 0.219941 0
M  V30 13003 C 1228.07 -1.97869 -0.411383 0
M  V30 13004 C 1228.39 -1.10878 -1.60409 0
M  V30 13005 O 1227.66 -0.185454 -1.9502 0
M  V30 13006 H 1226.24 -0.730747 -0.154979 0
M  V30 13007 H 1228.9 -1.92379 0.312461 0
M  V30 13008 H 1228 -3.0323 -0.738798 0
M  V30 13009 N 1228.3 0.053464 -1.57509 0
M  V30 13010 C 1229.55 0.750212 -1.88414 0
M  V30 13011 C 1229.88 1.76288 -0.814619 0
M  V30 13012 O 1229.16 1.93728 0.173136 0
M  V30 13013 C 1229.44 1.44176 -3.29978 0
M  V30 13014 C 1229.29 0.444263 -4.47601 0
M  V30 13015 C 1230.61 2.38207 -3.70061 0
M  V30 13016 H 1227.73 0.271266 -0.685262 0
M  V30 13017 H 1230.37 0.0131676 -1.89995 0
M  V30 13018 H 1228.52 2.07001 -3.2876 0
M  V30 13019 H 1230.19 -0.180182 -4.60948 0
M  V30 13020 H 1228.44 -0.238771 -4.33142 0
M  V30 13021 H 1229.11 0.966134 -5.43479 0
M  V30 13022 H 1231.58 1.85446 -3.7249 0
M  V30 13023 H 1230.46 2.83588 -4.69967 0
M  V30 13024 H 1230.72 3.23821 -3.00985 0
M  V30 13025 N 1229.78 1.54207 0.325255 0
M  V30 13026 C 1231.19 1.63587 0.899793 0
M  V30 13027 C 1231.54 0.528851 1.88938 0
M  V30 13028 O 1230.67 -0.33852 2.13736 0
M  V30 13029 C 1231.26 2.9653 1.63877 0
M  V30 13030 C 1229.82 3.08111 2.16205 0
M  V30 13031 C 1228.97 2.59144 0.986903 0
M  V30 13032 H 1231.92 1.58366 0.102883 0
M  V30 13033 H 1231.94 2.86595 2.50287 0
M  V30 13034 H 1231.45 3.7708 0.918279 0
M  V30 13035 H 1229.55 2.32232 2.91375 0
M  V30 13036 H 1229.67 4.13885 2.41322 0
M  V30 13037 H 1228.03 2.14997 1.36558 0
M  V30 13038 H 1228.81 3.4215 0.28076 0
M  V30 13039 N 1231.26 -0.58723 1.46251 0
M  V30 13040 C 1232.19 -1.71113 1.50982 0
M  V30 13041 C 1233.17 -1.58466 0.364322 0
M  V30 13042 O 1234.35 -1.79745 0.567812 0
M  V30 13043 C 1231.48 -3.09128 1.38411 0
M  V30 13044 C 1230.53 -3.40308 2.57085 0
M  V30 13045 S 1231.36 -3.32881 4.19464 0
M  V30 13046 C 1232.51 -4.73441 4.09395 0
M  V30 13047 H 1232.75 -1.66841 2.46072 0
M  V30 13048 H 1230.28 -0.765598 1.34082 0
M  V30 13049 H 1232.24 -3.88751 1.31846 0
M  V30 13050 H 1230.9 -3.10895 0.447567 0
M  V30 13051 H 1230.09 -4.40849 2.4427 0
M  V30 13052 H 1229.69 -2.68244 2.60617 0
M  V30 13053 H 1231.99 -5.63723 3.75796 0
M  V30 13054 H 1232.93 -4.91313 5.09919 0
M  V30 13055 H 1233.34 -4.50079 3.40719 0
M  V30 13056 N 1232.74 -1.33881 -0.831482 0
M  V30 13057 C 1233.67 -1.27384 -1.95693 0
M  V30 13058 C 1234.65 -0.152943 -1.69411 0
M  V30 13059 O 1235.83 -0.34392 -1.9113 0
M  V30 13060 C 1232.96 -1.01982 -3.31989 0
M  V30 13061 C 1231.92 -2.10445 -3.72689 0
M  V30 13062 C 1231.24 -1.70245 -5.06873 0
M  V30 13063 C 1232.54 -3.52194 -3.8569 0
M  V30 13064 H 1234.24 -2.21549 -2.01386 0
M  V30 13065 H 1231.78 -1.06653 -0.967526 0
M  V30 13066 H 1233.73 -0.960841 -4.103 0
M  V30 13067 H 1232.46 -0.0425709 -3.26572 0
M  V30 13068 H 1231.12 -2.15398 -2.96647 0
M  V30 13069 H 1230.77 -0.712036 -4.97935 0
M  V30 13070 H 1230.47 -2.42834 -5.35075 0
M  V30 13071 H 1231.99 -1.65827 -5.87651 0
M  V30 13072 H 1233.4 -3.49701 -4.54293 0
M  V30 13073 H 1231.8 -4.23331 -4.25336 0
M  V30 13074 H 1232.87 -3.9016 -2.87929 0
M  V30 13075 N 1234.21 1.05064 -1.1747 0
M  V30 13076 C 1235.16 2.11131 -0.860692 0
M  V30 13077 C 1236.15 1.60049 0.165288 0
M  V30 13078 O 1237.34 1.76961 -0.0373288 0
M  V30 13079 C 1234.47 3.41222 -0.37718 0
M  V30 13080 C 1233.55 3.99097 -1.43466 0
M  V30 13081 N 1233.95 4.30918 -2.64846 0
M  V30 13082 C 1232.24 4.26851 -1.29282 0
M  V30 13083 C 1232.94 4.77092 -3.32804 0
M  V30 13084 N 1231.92 4.77291 -2.60182 0
M  V30 13085 H 1235.72 2.33597 -1.78353 0
M  V30 13086 H 1233.24 1.22724 -1.06361 0
M  V30 13087 H 1235.23 4.16685 -0.133766 0
M  V30 13088 H 1233.89 3.20188 0.53944 0
M  V30 13089 H 1234.9 4.20877 -3.01799 0
M  V30 13090 H 1231.58 4.15197 -0.437949 0
M  V30 13091 H 1232.97 5.10815 -4.36483 0
M  V30 13092 N 1235.69 0.975146 1.23809 0
M  V30 13093 C 1236.64 0.482305 2.2284 0
M  V30 13094 C 1237.63 -0.439787 1.54773 0
M  V30 13095 O 1238.82 -0.269496 1.74936 0
M  V30 13096 C 1235.95 -0.219056 3.426 0
M  V30 13097 C 1235.03 0.722299 4.17904 0
M  V30 13098 N 1235.42 1.86271 4.70252 0
M  V30 13099 C 1233.72 0.53457 4.42785 0
M  V30 13100 C 1234.42 2.45212 5.2749 0
M  V30 13101 N 1233.4 1.73652 5.15117 0
M  V30 13102 H 1237.2 1.35234 2.60939 0
M  V30 13103 H 1234.71 0.835162 1.3928 0
M  V30 13104 H 1236.71 -0.589401 4.12713 0
M  V30 13105 H 1235.37 -1.08544 3.0602 0
M  V30 13106 H 1236.38 2.24404 4.66758 0
M  V30 13107 H 1233.06 -0.287232 4.16511 0
M  V30 13108 H 1234.45 3.41491 5.78648 0
M  V30 13109 N 1237.17 -1.38817 0.746158 0
M  V30 13110 C 1238.1 -2.33144 0.128836 0
M  V30 13111 C 1239.08 -1.54487 -0.711873 0
M  V30 13112 O 1240.27 -1.82836 -0.654577 0
M  V30 13113 C 1237.4 -3.38639 -0.770772 0
M  V30 13114 C 1236.35 -4.27987 -0.0333669 0
M  V30 13115 C 1235.68 -5.24274 -1.05073 0
M  V30 13116 C 1236.98 -5.09915 1.13066 0
M  V30 13117 H 1238.67 -2.85019 0.916778 0
M  V30 13118 H 1236.22 -1.37039 0.442306 0
M  V30 13119 H 1238.17 -4.03587 -1.21225 0
M  V30 13120 H 1236.89 -2.8523 -1.59095 0
M  V30 13121 H 1235.55 -3.64534 0.388612 0
M  V30 13122 H 1235.2 -4.67156 -1.86478 0
M  V30 13123 H 1234.9 -5.84906 -0.562037 0
M  V30 13124 H 1236.42 -5.92099 -1.49169 0
M  V30 13125 H 1237.84 -5.68145 0.767084 0
M  V30 13126 H 1236.23 -5.79744 1.54972 0
M  V30 13127 H 1237.3 -4.4409 1.94709 0
M  V30 13128 N 1238.65 -0.49465 -1.49636 0
M  V30 13129 C 1239.89 0.0505629 -2.04337 0
M  V30 13130 C 1240.25 1.34858 -1.36665 0
M  V30 13131 O 1241.45 1.97763 -1.82052 0
M  V30 13132 C 1239.72 0.206247 -3.56804 0
M  V30 13133 S 1241.28 0.706624 -4.33073 0
M  V30 13134 H 1238.1 0.00479193 -0.710984 0
M  V30 13135 H 1240.7 -0.667169 -1.83764 0
M  V30 13136 H 1239.41 -0.743862 -4.03602 0
M  V30 13137 H 1238.94 0.949406 -3.81772 0
M  V30 13138 H 1240.95 1.97672 -4.55127 0
M  V30 13139 N 1240.13 1.55939 -0.228214 0
M  V30 13140 C 1241.37 1.98084 0.400884 0
M  V30 13141 C 1241.69 1.11727 1.59819 0
M  V30 13142 O 1240.96 0.195794 1.94919 0
M  V30 13143 H 1239.54 0.731558 0.151102 0
M  V30 13144 H 1242.21 1.92211 -0.322659 0
M  V30 13145 H 1241.3 3.03617 0.722706 0
M  V30 13146 N 1241.6 -0.0451101 1.57535 0
M  V30 13147 C 1242.85 -0.734819 1.89663 0
M  V30 13148 C 1243.21 -1.73814 0.82502 0
M  V30 13149 O 1242.5 -1.90861 -0.168067 0
M  V30 13150 C 1242.69 -1.45938 3.26247 0
M  V30 13151 C 1242.52 -0.52775 4.46593 0
M  V30 13152 C 1241.29 -0.154735 5.05063 0
M  V30 13153 C 1243.49 0.187025 5.1396 0
M  V30 13154 N 1241.47 0.77983 6.08927 0
M  V30 13155 C 1242.84 0.977812 6.12241 0
M  V30 13156 C 1244.9 0.255673 4.97243 0
M  V30 13157 C 1243.6 1.83091 6.95608 0
M  V30 13158 C 1245.63 1.09584 5.81159 0
M  V30 13159 C 1244.99 1.8746 6.78998 0
M  V30 13160 H 1241.09 -0.243486 0.743128 0
M  V30 13161 H 1243.67 0.00462003 1.94699 0
M  V30 13162 H 1241.84 -2.16938 3.22169 0
M  V30 13163 H 1243.57 -2.10021 3.45938 0
M  V30 13164 H 1240.33 -0.513447 4.70809 0
M  V30 13165 H 1240.75 1.24114 6.65526 0
M  V30 13166 H 1245.4 -0.332093 4.21494 0
M  V30 13167 H 1243.11 2.42954 7.70713 0
M  V30 13168 H 1246.7 1.15228 5.70275 0
M  V30 13169 H 1245.58 2.51422 7.42803 0
M  V30 13170 N 1243.08 -1.54377 -0.317073 0
M  V30 13171 C 1244.36 -1.63551 -1.07287 0
M  V30 13172 C 1244.74 -0.473499 -2.05721 0
M  V30 13173 O 1244.09 0.531545 -2.22232 0
M  V30 13174 C 1244.3 -3.00842 -1.76904 0
M  V30 13175 C 1245.65 -3.57111 -2.29689 0
M  V30 13176 O 1246.67 -3.0319 -1.86961 0
M  V30 13177 O 1245.53 -4.51486 -3.07932 0
M  V30 13178 H 1242.62 -0.662557 -0.494922 0
M  V30 13179 H 1245.17 -1.66723 -0.316444 0
M  V30 13180 H 1243.94 -3.76854 -1.05341 0
M  V30 13181 H 1243.56 -3.01377 -2.59341 0
M  V30 13182 N 1244.56 0.579466 -1.4656 0
M  V30 13183 C 1245.49 1.69846 -1.60233 0
M  V30 13184 C 1246.47 1.6397 -0.452533 0
M  V30 13185 O 1247.66 1.81936 -0.679174 0
M  V30 13186 C 1244.79 3.08488 -1.59538 0
M  V30 13187 C 1243.74 3.29197 -2.7352 0
M  V30 13188 C 1243.07 4.684 -2.57887 0
M  V30 13189 C 1244.37 3.16718 -4.15315 0
M  V30 13190 H 1246.06 1.5866 -2.53904 0
M  V30 13191 H 1243.61 0.761873 -1.22194 0
M  V30 13192 H 1245.56 3.86595 -1.67696 0
M  V30 13193 H 1244.28 3.20581 -0.62413 0
M  V30 13194 H 1242.94 2.53491 -2.64836 0
M  V30 13195 H 1242.59 4.77262 -1.58839 0
M  V30 13196 H 1242.29 4.83208 -3.34341 0
M  V30 13197 H 1243.81 5.48671 -2.67942 0
M  V30 13198 H 1245.23 3.84666 -4.25094 0
M  V30 13199 H 1243.63 3.43047 -4.92381 0
M  V30 13200 H 1244.7 2.13755 -4.35244 0
M  V30 13201 N 1246.04 1.3432 0.824371 0
M  V30 13202 C 1247.28 1.27792 1.58243 0
M  V30 13203 C 1247.64 -0.151189 1.91805 0
M  V30 13204 O 1246.93 -1.09708 1.57082 0
M  V30 13205 C 1247.13 2.1008 2.89139 0
M  V30 13206 C 1246.96 3.60848 2.68363 0
M  V30 13207 C 1245.73 4.3013 2.65172 0
M  V30 13208 C 1247.92 4.54878 2.39979 0
M  V30 13209 N 1245.91 5.66756 2.35927 0
M  V30 13210 C 1247.28 5.79497 2.20415 0
M  V30 13211 C 1249.33 4.43809 2.25695 0
M  V30 13212 C 1248.03 6.94293 1.88015 0
M  V30 13213 C 1250.06 5.58435 1.9469 0
M  V30 13214 C 1249.42 6.82071 1.75948 0
M  V30 13215 H 1245.52 0.522853 0.581505 0
M  V30 13216 H 1248.11 1.69017 0.96651 0
M  V30 13217 H 1246.28 1.71154 3.48656 0
M  V30 13218 H 1248.01 1.95208 3.54508 0
M  V30 13219 H 1244.76 3.82554 2.79194 0
M  V30 13220 H 1245.19 6.38817 2.24148 0
M  V30 13221 H 1249.83 3.48842 2.38891 0
M  V30 13222 H 1247.55 7.89242 1.73557 0
M  V30 13223 H 1251.13 5.51814 1.84372 0
M  V30 13224 H 1250.01 7.69268 1.52304 0
M  V30 13225 N 1247.52 -1.0444 1.18026 0
M  V30 13226 C 1248.75 -1.80971 0.996642 0
M  V30 13227 C 1249.15 -1.83568 -0.458192 0
M  V30 13228 O 1248.5 -1.26713 -1.33002 0
M  V30 13229 C 1248.56 -3.28051 1.47048 0
M  V30 13230 C 1248.22 -3.49122 2.94895 0
M  V30 13231 C 1249.22 -3.40621 3.92777 0
M  V30 13232 C 1246.91 -3.7584 3.33241 0
M  V30 13233 C 1248.9 -3.58535 5.27002 0
M  V30 13234 C 1246.59 -3.93402 4.6763 0
M  V30 13235 C 1247.58 -3.84749 5.6432 0
M  V30 13236 O 1247.27 -4.01813 6.96277 0
M  V30 13237 H 1247 -0.576873 0.352411 0
M  V30 13238 H 1249.56 -1.32542 1.56913 0
M  V30 13239 H 1247.79 -3.77431 0.841609 0
M  V30 13240 H 1249.48 -3.8613 1.25135 0
M  V30 13241 H 1250.24 -3.19948 3.64497 0
M  V30 13242 H 1246.12 -3.81674 2.58545 0
M  V30 13243 H 1249.67 -3.51698 6.02457 0
M  V30 13244 H 1245.56 -4.13568 4.95613 0
M  V30 13245 H 1246.33 -4.18995 7.03126 0
M  V30 13246 N 1248.99 -0.981699 -1.2329 0
M  V30 13247 C 1250.23 -0.659348 -1.93473 0
M  V30 13248 C 1250.6 0.792616 -1.74876 0
M  V30 13249 O 1251.8 1.22586 -2.3922 0
M  V30 13250 C 1250.07 -1.04065 -3.41914 0
M  V30 13251 S 1251.63 -0.834964 -4.30783 0
M  V30 13252 H 1248.45 -0.241428 -0.668755 0
M  V30 13253 H 1251.05 -1.26161 -1.49344 0
M  V30 13254 H 1249.75 -2.09398 -3.5296 0
M  V30 13255 H 1249.28 -0.429721 -3.91046 0
M  V30 13256 H 1251.3 0.280447 -4.95407 0
M  V30 13257 N 1250.47 1.3842 -0.753509 0
M  V30 13258 C 1251.72 2.00119 -0.309633 0
M  V30 13259 C 1252.05 1.59811 1.10863 0
M  V30 13260 O 1251.3 0.827013 1.77367 0
M  V30 13261 C 1251.6 3.55375 -0.379937 0
M  V30 13262 C 1251.27 4.15393 -1.75384 0
M  V30 13263 C 1249.93 4.31499 -2.12984 0
M  V30 13264 C 1252.28 4.48503 -2.65508 0
M  V30 13265 C 1249.61 4.78011 -3.4018 0
M  V30 13266 C 1251.96 4.96431 -3.92095 0
M  V30 13267 C 1250.63 5.10744 -4.29764 0
M  V30 13268 H 1249.9 0.732286 -0.113303 0
M  V30 13269 H 1252.54 1.65468 -0.963975 0
M  V30 13270 H 1250.85 3.90161 0.357969 0
M  V30 13271 H 1252.54 4.00996 -0.0180738 0
M  V30 13272 H 1249.13 4.03271 -1.45156 0
M  V30 13273 H 1253.32 4.35661 -2.37724 0
M  V30 13274 H 1248.57 4.87277 -3.69284 0
M  V30 13275 H 1252.75 5.21021 -4.62072 0
M  V30 13276 H 1250.38 5.46545 -5.28387 0
M  V30 13277 N 1251.95 0.502579 1.49372 0
M  V30 13278 C 1252.9 -0.294292 2.26093 0
M  V30 13279 C 1253.88 -0.934147 1.31006 0
M  V30 13280 O 1255.08 -0.841486 1.55718 0
M  V30 13281 C 1252.21 -1.3572 3.15333 0
M  V30 13282 C 1251.29 -0.723506 4.17883 0
M  V30 13283 N 1251.68 0.174787 5.05498 0
M  V30 13284 C 1249.98 -0.983906 4.35012 0
M  V30 13285 C 1250.68 0.537673 5.7921 0
M  V30 13286 N 1249.66 -0.0947799 5.43517 0
M  V30 13287 H 1253.46 0.397202 2.91204 0
M  V30 13288 H 1250.97 0.31876 1.59241 0
M  V30 13289 H 1252.97 -1.94154 3.6893 0
M  V30 13290 H 1251.63 -2.05036 2.51775 0
M  V30 13291 H 1252.64 0.545699 5.15017 0
M  V30 13292 H 1249.32 -1.66969 3.82658 0
M  V30 13293 H 1250.71 1.27266 6.59737 0
M  V30 13294 N 1253.43 -1.55816 0.23648 0
M  V30 13295 C 1254.36 -2.23924 -0.661834 0
M  V30 13296 C 1255.34 -1.21597 -1.18946 0
M  V30 13297 O 1256.52 -1.50222 -1.23073 0
M  V30 13298 C 1253.65 -2.93069 -1.86355 0
M  V30 13299 C 1252.61 -4.01996 -1.46913 0
M  V30 13300 C 1251.93 -4.58512 -2.75083 0
M  V30 13301 C 1253.23 -5.18265 -0.647964 0
M  V30 13302 H 1254.93 -2.99253 -0.0939368 0
M  V30 13303 H 1252.47 -1.43934 -0.0437407 0
M  V30 13304 H 1254.43 -3.39412 -2.49755 0
M  V30 13305 H 1253.15 -2.15212 -2.45665 0
M  V30 13306 H 1251.81 -3.56406 -0.858522 0
M  V30 13307 H 1251.46 -3.77368 -3.3257 0
M  V30 13308 H 1251.16 -5.32037 -2.49421 0
M  V30 13309 H 1252.68 -5.07583 -3.39399 0
M  V30 13310 H 1254.1 -5.60898 -1.18602 0
M  V30 13311 H 1252.49 -5.98114 -0.487823 0
M  V30 13312 H 1253.56 -4.83691 0.342151 0
M  V30 13313 N 1254.91 0.036755 -1.57557 0
M  V30 13314 C 1256.15 0.734039 -1.90765 0
M  V30 13315 C 1256.51 1.7293 -0.834222 0
M  V30 13316 O 1257.71 2.47427 -1.0504 0
M  V30 13317 C 1255.98 1.39285 -3.29142 0
M  V30 13318 S 1257.54 2.12035 -3.8417 0
M  V30 13319 H 1254.36 0.243349 -0.668059 0
M  V30 13320 H 1256.96 -0.0110968 -1.95497 0
M  V30 13321 H 1255.67 0.655154 -4.05137 0
M  V30 13322 H 1255.2 2.17669 -3.27694 0
M  V30 13323 H 1257.21 3.39072 -3.62277 0
M  V30 13324 N 1256.39 1.54543 0.308881 0
M  V30 13325 C 1257.32 1.87947 1.38557 0
M  V30 13326 C 1258.3 0.737622 1.53275 0
M  V30 13327 O 1259.48 0.992664 1.66913 0
M  V30 13328 C 1256.61 2.11982 2.75102 0
M  V30 13329 C 1255.57 3.2783 2.75158 0
M  V30 13330 C 1254.89 3.37266 4.14917 0
M  V30 13331 C 1256.19 4.65129 2.37598 0
M  V30 13332 H 1257.89 2.78123 1.1085 0
M  V30 13333 H 1255.43 1.3382 0.531808 0
M  V30 13334 H 1257.38 2.33935 3.50503 0
M  V30 13335 H 1256.11 1.18569 3.04317 0
M  V30 13336 H 1254.77 3.05787 2.02212 0
M  V30 13337 H 1254.42 2.41384 4.41296 0
M  V30 13338 H 1254.12 4.15135 4.15857 0
M  V30 13339 H 1255.64 3.61471 4.92109 0
M  V30 13340 H 1257.05 4.86865 3.02714 0
M  V30 13341 H 1255.45 5.45653 2.49765 0
M  V30 13342 H 1256.52 4.6638 1.32731 0
M  V30 13343 N 1257.86 -0.571685 1.46866 0
M  V30 13344 C 1258.83 -1.66198 1.57832 0
M  V30 13345 C 1259.83 -1.54242 0.454547 0
M  V30 13346 O 1261.02 -1.58661 0.719191 0
M  V30 13347 C 1258.15 -3.05678 1.5091 0
M  V30 13348 H 1259.34 -1.57829 2.5501 0
M  V30 13349 H 1256.89 -0.790433 1.3484 0
M  V30 13350 H 1257.63 -3.19593 0.550529 0
M  V30 13351 H 1257.41 -3.15765 2.32454 0
M  V30 13352 H 1258.9 -3.85027 1.61692 0
M  V30 13353 N 1259.34 -1.34755 -0.817236 0
M  V30 13354 C 1260.59 -1.28629 -1.57563 0
M  V30 13355 C 1260.94 0.141015 -1.91883 0
M  V30 13356 O 1260.24 1.08874 -1.57661 0
M  V30 13357 C 1260.43 -2.11611 -2.8802 0
M  V30 13358 C 1260.26 -3.62266 -2.66446 0
M  V30 13359 C 1259.03 -4.3153 -2.62887 0
M  V30 13360 C 1261.23 -4.56145 -2.37564 0
M  V30 13361 N 1259.21 -5.67999 -2.32918 0
M  V30 13362 C 1260.58 -5.80658 -2.17339 0
M  V30 13363 C 1262.63 -4.44999 -2.23339 0
M  V30 13364 C 1261.34 -6.9528 -1.8433 0
M  V30 13365 C 1263.36 -5.5946 -1.91726 0
M  V30 13366 C 1262.73 -6.82995 -1.72329 0
M  V30 13367 H 1258.82 -0.52593 -0.578724 0
M  V30 13368 H 1261.41 -1.69527 -0.957533 0
M  V30 13369 H 1259.58 -1.73 -3.47743 0
M  V30 13370 H 1261.31 -1.97085 -3.53468 0
M  V30 13371 H 1258.07 -3.84029 -2.77162 0
M  V30 13372 H 1258.49 -6.39996 -2.20757 0
M  V30 13373 H 1263.13 -3.50104 -2.37037 0
M  V30 13374 H 1260.85 -7.90152 -1.69369 0
M  V30 13375 H 1264.44 -5.52784 -1.81443 0
M  V30 13376 H 1263.32 -7.70065 -1.48222 0
M  V30 13377 N 1260.82 1.03812 -1.18578 0
M  V30 13378 C 1261.75 2.13802 -0.938665 0
M  V30 13379 C 1262.73 1.69643 0.124575 0
M  V30 13380 O 1263.92 1.94179 -0.0285421 0
M  V30 13381 C 1261.05 3.44154 -0.466392 0
M  V30 13382 C 1260 4.01949 -1.47041 0
M  V30 13383 C 1259.33 5.27811 -0.855558 0
M  V30 13384 C 1260.63 4.37827 -2.84789 0
M  V30 13385 H 1262.32 2.34732 -1.85852 0
M  V30 13386 H 1259.87 1.12808 -0.895007 0
M  V30 13387 H 1261.82 4.20463 -0.280856 0
M  V30 13388 H 1260.54 3.22918 0.489041 0
M  V30 13389 H 1259.2 3.27725 -1.64293 0
M  V30 13390 H 1258.85 5.02886 0.107142 0
M  V30 13391 H 1258.55 5.67441 -1.52592 0
M  V30 13392 H 1260.07 6.06795 -0.680609 0
M  V30 13393 H 1261.49 5.05112 -2.71173 0
M  V30 13394 H 1259.88 4.88514 -3.48532 0
M  V30 13395 H 1260.95 3.47541 -3.38147 0
M  V30 13396 N 1262.3 0.988223 1.22768 0
M  V30 13397 C 1263.71 0.697281 1.7319 0
M  V30 13398 C 1264.06 -0.786111 1.79763 0
M  V30 13399 O 1263.18 -1.61465 1.44077 0
M  V30 13400 C 1263.78 1.25905 3.14537 0
M  V30 13401 C 1262.34 1.01759 3.62384 0
M  V30 13402 C 1261.49 1.38207 2.40404 0
M  V30 13403 H 1264.44 1.16114 1.08181 0
M  V30 13404 H 1264.46 0.635315 3.75159 0
M  V30 13405 H 1263.97 2.33869 3.09721 0
M  V30 13406 H 1262.07 -0.045627 3.72572 0
M  V30 13407 H 1262.18 1.67767 4.48766 0
M  V30 13408 H 1260.55 0.800607 2.4179 0
M  V30 13409 H 1261.33 2.47165 2.38253 0
M  V30 13410 N 1263.78 -1.38018 0.760839 0
M  V30 13411 C 1265.02 -2.0071 0.329695 0
M  V30 13412 C 1265.38 -1.59315 -1.07872 0
M  V30 13413 O 1264.67 -0.824077 -1.72973 0
M  V30 13414 C 1264.86 -3.55168 0.398778 0
M  V30 13415 C 1264.69 -4.11562 1.81237 0
M  V30 13416 C 1263.46 -4.43003 2.43056 0
M  V30 13417 C 1265.66 -4.3332 2.77018 0
M  V30 13418 N 1263.64 -4.85048 3.76301 0
M  V30 13419 C 1265.01 -4.77853 3.9504 0
M  V30 13420 C 1267.07 -4.15432 2.74446 0
M  V30 13421 C 1265.77 -5.06373 5.10861 0
M  V30 13422 C 1267.8 -4.45081 3.89431 0
M  V30 13423 C 1267.16 -4.89845 5.06193 0
M  V30 13424 H 1263.26 -0.76386 0.167457 0
M  V30 13425 H 1265.84 -1.67513 0.992343 0
M  V30 13426 H 1264.01 -3.87697 -0.233635 0
M  V30 13427 H 1265.75 -4.04665 -0.0533765 0
M  V30 13428 H 1262.5 -4.317 1.94762 0
M  V30 13429 H 1262.92 -5.10394 4.44778 0
M  V30 13430 H 1267.57 -3.80006 1.85353 0
M  V30 13431 H 1265.28 -5.40693 6.00564 0
M  V30 13432 H 1268.87 -4.32839 3.88769 0
M  V30 13433 H 1267.75 -5.12348 5.93691 0
M  V30 13434 N 1265.25 -0.510493 -1.49103 0
M  V30 13435 C 1266.67 -0.167061 -1.58723 0
M  V30 13436 C 1266.87 1.32886 -1.51471 0
M  V30 13437 O 1265.93 2.10559 -1.39359 0
M  V30 13438 C 1267.24 -0.752293 -2.91137 0
M  V30 13439 C 1268.79 -0.719258 -3.04624 0
M  V30 13440 C 1269.26 -1.28272 -4.39671 0
M  V30 13441 N 1270.75 -1.24383 -4.46187 0
M  V30 13442 C 1271.49 -1.6499 -5.4915 0
M  V30 13443 N 1270.98 -2.13235 -6.59168 0
M  V30 13444 N 1272.78 -1.56348 -5.39918 0
M  V30 13445 H 1264.93 -1.48296 -1.5206 0
M  V30 13446 H 1267.19 -0.615683 -0.72086 0
M  V30 13447 H 1266.9 -1.80178 -3.02041 0
M  V30 13448 H 1266.77 -0.218152 -3.76569 0
M  V30 13449 H 1269.16 0.321413 -2.93344 0
M  V30 13450 H 1269.24 -1.29065 -2.20852 0
M  V30 13451 H 1268.88 -2.32222 -4.51703 0
M  V30 13452 H 1268.81 -0.687179 -5.22097 0
M  V30 13453 H 1271.3 -0.890446 -3.67259 0
M  V30 13454 H 1271.62 -2.42266 -7.33844 0
M  V30 13455 H 1269.96 -2.17216 -6.60183 0
M  V30 13456 H 1273.15 -1.18469 -4.52861 0
M  V30 13457 H 1273.33 -1.88317 -6.20033 0
M  V30 13458 N 1266.73 1.55688 -0.24474 0
M  V30 13459 C 1267.98 1.98498 0.379852 0
M  V30 13460 C 1268.3 1.13416 1.58625 0
M  V30 13461 O 1267.57 0.216456 1.947 0
M  V30 13462 H 1266.15 0.73312 0.143334 0
M  V30 13463 H 1268.81 1.91858 -0.343027 0
M  V30 13464 H 1267.91 3.04367 0.690463 0
M  V30 13465 N 1268.21 -0.0283989 1.57574 0
M  V30 13466 C 1269.63 -0.384054 1.5491 0
M  V30 13467 C 1269.83 -1.76564 0.970947 0
M  V30 13468 O 1268.88 -2.45455 0.592288 0
M  V30 13469 C 1270.19 -0.285297 2.99344 0
M  V30 13470 C 1271.74 -0.36233 3.10896 0
M  V30 13471 C 1272.22 -0.293014 4.57062 0
M  V30 13472 N 1273.71 -0.351788 4.61862 0
M  V30 13473 C 1274.44 -0.321054 5.725 0
M  V30 13474 N 1273.94 -0.242573 6.92375 0
M  V30 13475 N 1275.73 -0.370832 5.60875 0
M  V30 13476 H 1267.88 0.87573 1.93506 0
M  V30 13477 H 1270.15 0.33305 0.887571 0
M  V30 13478 H 1269.85 0.664146 3.45372 0
M  V30 13479 H 1269.73 -1.07869 3.61447 0
M  V30 13480 H 1272.11 -1.30221 2.64814 0
M  V30 13481 H 1272.19 0.460422 2.51622 0
M  V30 13482 H 1271.84 0.643197 5.03811 0
M  V30 13483 H 1271.77 -1.13388 5.14248 0
M  V30 13484 H 1274.26 -0.414929 3.75615 0
M  V30 13485 H 1274.57 -0.224239 7.72475 0
M  V30 13486 H 1272.92 -0.208612 6.94687 0
M  V30 13487 H 1276.11 -0.430141 4.6612 0
M  V30 13488 H 1276.28 -0.343412 6.47089 0
M  V30 13489 N 1269.69 -1.54705 -0.300681 0
M  V30 13490 C 1270.62 -1.8205 -1.39249 0
M  V30 13491 C 1271.63 -0.703476 -1.46816 0
M  V30 13492 O 1272.82 -0.980957 -1.49129 0
M  V30 13493 C 1269.92 -1.94376 -2.77617 0
M  V30 13494 C 1269.09 -3.2478 -2.92979 0
M  V30 13495 C 1268.15 -3.27518 -4.11848 0
M  V30 13496 O 1267.18 -4.01047 -4.03918 0
M  V30 13497 N 1268.38 -2.52932 -5.22499 0
M  V30 13498 H 1271.15 -2.76279 -1.16146 0
M  V30 13499 H 1268.71 -1.54283 -0.49075 0
M  V30 13500 H 1270.7 -1.93609 -3.55384 0
M  V30 13501 H 1269.27 -1.07141 -2.93666 0
M  V30 13502 H 1268.49 -3.38319 -2.02322 0
M  V30 13503 H 1269.78 -4.10835 -3.00153 0
M  V30 13504 H 1269.18 -1.92825 -5.31822 0
M  V30 13505 H 1267.73 -2.57919 -5.98599 0
M  V30 13506 N 1271.17 0.563888 -1.47167 0
M  V30 13507 C 1272.39 1.35176 -1.57297 0
M  V30 13508 C 1272.82 1.86794 -0.221235 0
M  V30 13509 O 1272.17 1.62606 0.801809 0
M  V30 13510 C 1272.22 2.50225 -2.59654 0
M  V30 13511 O 1271.33 3.5225 -2.14461 0
M  V30 13512 H 1270.67 0.401795 -0.528637 0
M  V30 13513 H 1273.2 0.682137 -1.92894 0
M  V30 13514 H 1273.21 2.96886 -2.79862 0
M  V30 13515 H 1271.88 2.1201 -3.57805 0
M  V30 13516 H 1270.46 3.1194 -2.04323 0
M  V30 13517 N 1272.64 1.35187 0.810078 0
M  V30 13518 C 1273.89 1.28011 1.56389 0
M  V30 13519 C 1274.21 -0.14622 1.94451 0
M  V30 13520 O 1273.48 -1.08185 1.63318 0
M  V30 13521 H 1272.06 0.470837 0.579932 0
M  V30 13522 H 1274.73 1.69249 0.966476 0
M  V30 13523 H 1273.82 1.89362 2.4809 0
M  V30 13524 N 1274.12 -1.03182 1.19127 0
M  V30 13525 C 1275.54 -1.28773 0.942854 0
M  V30 13526 C 1275.74 -1.97759 -0.386483 0
M  V30 13527 O 1274.79 -2.26365 -1.1187 0
M  V30 13528 C 1276.11 -2.13771 2.11476 0
M  V30 13529 C 1277.66 -2.27089 2.15406 0
M  V30 13530 C 1278.13 -3.15458 3.32039 0
M  V30 13531 N 1279.62 -3.23046 3.31957 0
M  V30 13532 C 1280.36 -3.91604 4.18848 0
M  V30 13533 N 1279.85 -4.62418 5.15889 0
M  V30 13534 N 1281.65 -3.87974 4.06734 0
M  V30 13535 H 1273.8 -0.568165 2.0466 0
M  V30 13536 H 1276.06 -0.31328 0.89474 0
M  V30 13537 H 1275.77 -1.704 3.07663 0
M  V30 13538 H 1275.64 -3.14476 2.0829 0
M  V30 13539 H 1278.03 -2.69693 1.19791 0
M  V30 13540 H 1278.11 -1.25945 2.22647 0
M  V30 13541 H 1277.75 -2.73564 4.27931 0
M  V30 13542 H 1277.68 -4.16654 3.22035 0
M  V30 13543 H 1280.17 -2.7261 2.6171 0
M  V30 13544 H 1280.49 -5.12353 5.78545 0
M  V30 13545 H 1278.83 -4.61293 5.1984 0
M  V30 13546 H 1282.02 -3.31789 3.30202 0
M  V30 13547 H 1282.19 -4.4113 4.74666 0
M  V30 13548 N 1275.6 -0.99472 -1.22242 0
M  V30 13549 C 1276.88 -0.587481 -1.86569 0
M  V30 13550 C 1277.26 0.935174 -1.89256 0
M  V30 13551 O 1276.61 1.81787 -1.3844 0
M  V30 13552 C 1276.82 -1.21001 -3.27353 0
M  V30 13553 C 1278.16 -1.31167 -4.03832 0
M  V30 13554 O 1279.19 -1.16454 -3.36626 0
M  V30 13555 O 1278.05 -1.54731 -5.24138 0
M  V30 13556 H 1275.14 -0.199838 -0.802492 0
M  V30 13557 H 1277.69 -1.09071 -1.30006 0
M  V30 13558 H 1276.46 -2.25143 -3.20041 0
M  V30 13559 H 1276.08 -0.692479 -3.91523 0
M  V30 13560 N 1277.08 1.37613 -0.768148 0
M  V30 13561 C 1277.99 2.34103 -0.152649 0
M  V30 13562 C 1279 1.6 0.683811 0
M  V30 13563 O 1280.18 1.92112 0.604572 0
M  V30 13564 C 1277.25 3.39164 0.718954 0
M  V30 13565 C 1276.31 4.29092 -0.13355 0
M  V30 13566 C 1275.54 5.29135 0.696547 0
M  V30 13567 O 1275.76 5.36618 1.93383 0
M  V30 13568 O 1274.7 6.01804 0.107652 0
M  V30 13569 H 1278.52 2.88462 -0.949899 0
M  V30 13570 H 1276.11 1.39711 -0.529252 0
M  V30 13571 H 1277.99 4.03454 1.21665 0
M  V30 13572 H 1276.66 2.87137 1.49445 0
M  V30 13573 H 1275.57 3.67914 -0.677528 0
M  V30 13574 H 1276.9 4.84413 -0.872048 0
M  V30 13575 N 1278.56 0.518393 1.4883 0
M  V30 13576 C 1279.83 -0.0837498 1.95421 0
M  V30 13577 C 1280.21 -1.52435 1.46037 0
M  V30 13578 O 1279.56 -2.18093 0.681736 0
M  V30 13579 C 1279.77 0.0215333 3.48993 0
M  V30 13580 C 1281.12 -0.143615 4.24357 0
M  V30 13581 O 1282.14 -0.0528223 3.56161 0
M  V30 13582 O 1281 -0.332231 5.45489 0
M  V30 13583 H 1278.1 -0.0857132 0.822546 0
M  V30 13584 H 1280.64 0.582169 1.59402 0
M  V30 13585 H 1279.41 1.02549 3.77623 0
M  V30 13586 H 1279.04 -0.683756 3.91677 0
M  V30 13587 N 1280.03 -1.55556 0.252993 0
M  V30 13588 C 1281 -2.20351 -0.630705 0
M  V30 13589 C 1282 -1.17461 -1.09816 0
M  V30 13590 O 1283.19 -1.42505 -1.00189 0
M  V30 13591 C 1280.32 -2.85192 -1.86757 0
M  V30 13592 H 1281.51 -2.99829 -0.0652939 0
M  V30 13593 H 1279.07 -1.563 0.00347982 0
M  V30 13594 H 1279.8 -2.09669 -2.47406 0
M  V30 13595 H 1279.59 -3.60569 -1.54053 0
M  V30 13596 H 1281.08 -3.34762 -2.49648 0
M  V30 13597 N 1281.51 0.0200419 -1.57587 0
M  V30 13598 C 1282.44 1.01715 -2.10181 0
M  V30 13599 C 1283.42 1.37136 -1.00636 0
M  V30 13600 O 1284.61 1.45862 -1.2821 0
M  V30 13601 C 1281.74 2.31531 -2.58865 0
M  V30 13602 C 1280.69 2.10327 -3.72755 0
M  V30 13603 C 1280.02 3.45981 -4.07678 0
M  V30 13604 C 1281.32 1.4821 -5.0083 0
M  V30 13605 H 1283.01 0.579307 -2.93742 0
M  V30 13606 H 1280.56 0.277211 -1.41307 0
M  V30 13607 H 1282.51 3.01623 -2.94281 0
M  V30 13608 H 1281.24 2.77392 -1.72399 0
M  V30 13609 H 1279.89 1.42665 -3.37701 0
M  V30 13610 H 1279.54 3.89508 -3.18265 0
M  V30 13611 H 1279.24 3.32616 -4.84397 0
M  V30 13612 H 1280.77 4.17421 -4.45637 0
M  V30 13613 H 1282.18 2.08232 -5.34146 0
M  V30 13614 H 1280.58 1.45393 -5.82221 0
M  V30 13615 H 1281.65 0.448942 -4.82817 0
M  V30 13616 N 1282.99 1.54862 0.292472 0
M  V30 13617 C 1284.4 1.65459 0.864891 0
M  V30 13618 C 1284.75 0.568808 1.87774 0
M  V30 13619 O 1283.88 -0.293107 2.14406 0
M  V30 13620 C 1284.47 2.99939 1.5755 0
M  V30 13621 C 1283.03 3.12628 2.09621 0
M  V30 13622 C 1282.18 2.61179 0.931713 0
M  V30 13623 H 1285.13 1.58549 0.0692679 0
M  V30 13624 H 1285.15 2.91839 2.44152 0
M  V30 13625 H 1284.66 3.78943 0.838088 0
M  V30 13626 H 1282.76 2.3836 2.86383 0
M  V30 13627 H 1282.88 4.18911 2.32488 0
M  V30 13628 H 1281.24 2.17846 1.31967 0
M  V30 13629 H 1282.02 3.42669 0.208121 0
M  V30 13630 N 1284.47 -0.556076 1.47464 0
M  V30 13631 C 1285.7 -1.33664 1.57536 0
M  V30 13632 C 1286.11 -1.87858 0.224977 0
M  V30 13633 O 1285.45 -1.65746 -0.792091 0
M  V30 13634 C 1285.51 -2.54257 2.54152 0
M  V30 13635 C 1285.18 -2.21342 3.99821 0
M  V30 13636 C 1286.17 -1.78568 4.88272 0
M  V30 13637 C 1283.86 -2.32666 4.45165 0
M  V30 13638 C 1285.85 -1.47549 6.20087 0
M  V30 13639 C 1283.54 -2.0126 5.77008 0
M  V30 13640 C 1284.54 -1.58769 6.6429 0
M  V30 13641 O 1284.22 -1.27762 7.93683 0
M  V30 13642 H 1283.96 -0.413721 0.534613 0
M  V30 13643 H 1286.51 -0.680342 1.93805 0
M  V30 13644 H 1284.74 -3.22782 2.12952 0
M  V30 13645 H 1286.43 -3.16332 2.5434 0
M  V30 13646 H 1287.2 -1.69311 4.54487 0
M  V30 13647 H 1283.07 -2.64698 3.77433 0
M  V30 13648 H 1286.62 -1.1431 6.88171 0
M  V30 13649 H 1282.52 -2.10149 6.10334 0
M  V30 13650 H 1283.28 -1.41383 8.06197 0
M  V30 13651 N 1285.95 -1.35615 -0.802897 0
M  V30 13652 C 1287.22 -1.19655 -1.54732 0
M  V30 13653 C 1287.6 0.222827 -2.09921 0
M  V30 13654 O 1286.95 1.2268 -1.92774 0
M  V30 13655 C 1287.16 -2.26761 -2.65293 0
M  V30 13656 C 1288.51 -2.62754 -3.33535 0
M  V30 13657 O 1289.53 -2.25702 -2.75567 0
M  V30 13658 O 1288.39 -3.26476 -4.38264 0
M  V30 13659 H 1285.49 -0.465079 -0.683835 0
M  V30 13660 H 1288.03 -1.47307 -0.84254 0
M  V30 13661 H 1286.81 -3.21946 -2.22411 0
M  V30 13662 H 1286.43 -2.00399 -3.43404 0
M  V30 13663 N 1287.43 1.02549 -1.19673 0
M  V30 13664 C 1288.39 2.09064 -0.939407 0
M  V30 13665 C 1289.39 1.60593 0.0814837 0
M  V30 13666 O 1290.58 1.73521 -0.153626 0
M  V30 13667 C 1287.71 3.38395 -0.412513 0
M  V30 13668 H 1288.9 2.33325 -1.88413 0
M  V30 13669 H 1286.46 1.19211 -1.01086 0
M  V30 13670 H 1287.19 3.19805 0.538094 0
M  V30 13671 H 1286.98 3.74898 -1.14863 0
M  V30 13672 H 1288.47 4.16841 -0.251678 0
M  V30 13673 N 1288.9 1.00119 1.21713 0
M  V30 13674 C 1290.15 0.681723 1.9068 0
M  V30 13675 C 1290.48 -0.787121 1.77861 0
M  V30 13676 O 1289.73 -1.58573 1.14687 0
M  V30 13677 C 1290.03 1.04376 3.41819 0
M  V30 13678 C 1289.7 2.50624 3.74831 0
M  V30 13679 C 1288.36 2.90587 3.83552 0
M  V30 13680 C 1290.71 3.45377 3.90339 0
M  V30 13681 C 1288.04 4.24276 4.05225 0
M  V30 13682 C 1290.39 4.78734 4.13517 0
M  V30 13683 C 1289.06 5.18427 4.20464 0
M  V30 13684 H 1288.33 0.24946 0.697747 0
M  V30 13685 H 1290.97 1.25892 1.44304 0
M  V30 13686 H 1289.28 0.384756 3.89906 0
M  V30 13687 H 1290.98 0.774488 3.9345 0
M  V30 13688 H 1287.57 2.18651 3.68632 0
M  V30 13689 H 1291.75 3.15669 3.82971 0
M  V30 13690 H 1287.01 4.54605 4.08833 0
M  V30 13691 H 1291.18 5.52094 4.24459 0
M  V30 13692 H 1288.81 6.22034 4.3701 0
M  V30 13693 N 1290.38 -1.37203 0.775435 0
M  V30 13694 C 1291.63 -1.99897 0.341936 0
M  V30 13695 C 1291.96 -1.61414 -1.07978 0
M  V30 13696 O 1291.24 -0.862108 -1.7435 0
M  V30 13697 C 1291.52 -3.56755 0.489715 0
M  V30 13698 C 1291.37 -4.05135 1.95411 0
M  V30 13699 C 1292.69 -4.39978 -0.103779 0
M  V30 13700 H 1289.81 -0.726199 0.125717 0
M  V30 13701 H 1292.45 -1.62826 0.979167 0
M  V30 13702 H 1290.6 -3.88464 -0.0527684 0
M  V30 13703 H 1292.27 -3.83975 2.55658 0
M  V30 13704 H 1290.52 -3.57192 2.46164 0
M  V30 13705 H 1291.19 -5.14161 2.00855 0
M  V30 13706 H 1293.66 -4.14547 0.359134 0
M  V30 13707 H 1292.54 -5.48892 0.0297337 0
M  V30 13708 H 1292.8 -4.25658 -1.19448 0
M  V30 13709 N 1291.86 -0.526279 -1.48553 0
M  V30 13710 C 1293.11 0.00918008 -2.02798 0
M  V30 13711 C 1293.44 1.34284 -1.4029 0
M  V30 13712 O 1292.71 1.86639 -0.547355 0
M  V30 13713 C 1293 0.135102 -3.59846 0
M  V30 13714 C 1292.85 -1.22347 -4.32841 0
M  V30 13715 C 1294.17 0.863673 -4.31542 0
M  V30 13716 H 1291.29 0.00186216 -0.736998 0
M  V30 13717 H 1293.93 -0.682591 -1.77315 0
M  V30 13718 H 1292.08 0.724279 -3.81689 0
M  V30 13719 H 1293.75 -1.85347 -4.22427 0
M  V30 13720 H 1291.99 -1.80631 -3.94405 0
M  V30 13721 H 1292.67 -1.08839 -5.41164 0
M  V30 13722 H 1295.14 0.363734 -4.14507 0
M  V30 13723 H 1294.02 0.92067 -5.41124 0
M  V30 13724 H 1294.28 1.91313 -3.98562 0
M  V30 13725 N 1293.34 1.5542 -0.261239 0
M  V30 13726 C 1294.58 1.99284 0.359487 0
M  V30 13727 C 1294.91 1.14954 1.56894 0
M  V30 13728 O 1294.17 0.203796 1.94636 0
M  V30 13729 C 1294.47 3.48354 0.799021 0
M  V30 13730 C 1294.13 4.49872 -0.30426 0
M  V30 13731 C 1292.79 4.77353 -0.607237 0
M  V30 13732 C 1295.15 5.10547 -1.04838 0
M  V30 13733 C 1292.47 5.62781 -1.65816 0
M  V30 13734 C 1294.83 5.97115 -2.08893 0
M  V30 13735 C 1293.49 6.22923 -2.3984 0
M  V30 13736 H 1292.76 0.72923 0.131546 0
M  V30 13737 H 1295.41 1.87851 -0.372058 0
M  V30 13738 H 1293.71 3.57192 1.61001 0
M  V30 13739 H 1295.41 3.7969 1.28981 0
M  V30 13740 H 1292 4.28561 -0.0579863 0
M  V30 13741 H 1296.18 4.89352 -0.827566 0
M  V30 13742 H 1291.44 5.81026 -1.90311 0
M  V30 13743 H 1295.61 6.43168 -2.67035 0
M  V30 13744 H 1293.24 6.88912 -3.2141 0
M  V30 13745 N 1294.82 -0.0116844 1.57596 0
M  V30 13746 C 1296.09 -0.735344 1.81251 0
M  V30 13747 C 1296.47 -1.92634 0.863446 0
M  V30 13748 O 1295.82 -2.28321 -0.0905028 0
M  V30 13749 C 1296.03 -1.15206 3.29437 0
M  V30 13750 C 1297.38 -1.56078 3.94873 0
M  V30 13751 O 1298.4 -1.24618 3.3369 0
M  V30 13752 O 1297.26 -2.14534 5.0263 0
M  V30 13753 H 1294.36 -0.357044 0.745955 0
M  V30 13754 H 1296.9 0.0128733 1.69695 0
M  V30 13755 H 1295.67 -0.302619 3.90128 0
M  V30 13756 H 1295.3 -1.95975 3.45947 0
M  V30 13757 N 1296.29 -1.55015 -0.284256 0
M  V30 13758 C 1297.24 -1.87122 -1.35107 0
M  V30 13759 C 1298.21 -0.721638 -1.49605 0
M  V30 13760 O 1299.4 -0.971855 -1.64194 0
M  V30 13761 C 1296.54 -2.1388 -2.70831 0
M  V30 13762 C 1295.65 -3.41447 -2.64647 0
M  V30 13763 C 1294.78 -3.57961 -3.92476 0
M  V30 13764 C 1293.82 -4.79261 -3.80757 0
M  V30 13765 N 1292.96 -4.92492 -5.00395 0
M  V30 13766 H 1297.8 -2.78117 -1.07027 0
M  V30 13767 H 1295.34 -1.37704 -0.517311 0
M  V30 13768 H 1297.29 -2.27391 -3.49784 0
M  V30 13769 H 1295.92 -1.26132 -2.97137 0
M  V30 13770 H 1294.98 -3.36467 -1.77466 0
M  V30 13771 H 1296.29 -4.3053 -2.51884 0
M  V30 13772 H 1295.44 -3.71229 -4.79868 0
M  V30 13773 H 1294.18 -2.67042 -4.08093 0
M  V30 13774 H 1293.19 -4.66008 -2.91747 0
M  V30 13775 H 1294.41 -5.71604 -3.66669 0
M  V30 13776 H 1292.36 -4.04501 -5.16445 0
M  V30 13777 H 1292.27 -5.75603 -4.9012 0
M  V30 13778 H 1293.54 -5.10134 -5.89392 0
M  V30 13779 N 1297.77 0.548248 -1.47757 0
M  V30 13780 C 1299 1.3302 -1.58472 0
M  V30 13781 C 1299.41 1.87292 -0.238186 0
M  V30 13782 O 1298.77 1.65465 0.76991 0
M  V30 13783 C 1298.82 2.49386 -2.61704 0
M  V30 13784 O 1298.54 1.97355 -3.9113 0
M  V30 13785 C 1300.04 3.41471 -2.82688 0
M  V30 13786 H 1297.26 0.405172 -0.534861 0
M  V30 13787 H 1299.81 0.663251 -1.93446 0
M  V30 13788 H 1297.96 3.12001 -2.29639 0
M  V30 13789 H 1298.38 2.7339 -4.47614 0
M  V30 13790 H 1299.85 4.19516 -3.58762 0
M  V30 13791 H 1300.33 3.95573 -1.90837 0
M  V30 13792 H 1300.93 2.84664 -3.15985 0
M  V30 13793 N 1299.25 1.36039 0.795694 0
M  V30 13794 C 1300.18 1.25713 1.91648 0
M  V30 13795 C 1301.19 0.177993 1.61824 0
M  V30 13796 O 1302.38 0.432186 1.73189 0
M  V30 13797 C 1299.48 0.915546 3.26299 0
M  V30 13798 C 1298.66 2.09528 3.83949 0
M  V30 13799 C 1297.72 1.72775 4.97026 0
M  V30 13800 O 1296.74 2.44786 5.13876 0
M  V30 13801 N 1297.94 0.65775 5.76762 0
M  V30 13802 H 1300.71 2.22277 2.01029 0
M  V30 13803 H 1298.27 1.2935 0.973657 0
M  V30 13804 H 1300.26 0.650958 3.9943 0
M  V30 13805 H 1298.83 0.0392343 3.12575 0
M  V30 13806 H 1298.05 2.52304 3.0288 0
M  V30 13807 H 1299.34 2.88361 4.19196 0
M  V30 13808 H 1298.74 0.0596875 5.65669 0
M  V30 13809 H 1297.29 0.45297 6.50224 0
M  V30 13810 N 1300.73 -1.01913 1.20215 0
M  V30 13811 C 1301.95 -1.79613 1.03702 0
M  V30 13812 C 1302.38 -1.83591 -0.409374 0
M  V30 13813 O 1301.74 -1.26911 -1.29473 0
M  V30 13814 C 1301.78 -3.22052 1.62219 0
M  V30 13815 O 1300.89 -4.03374 0.858106 0
M  V30 13816 H 1300.23 -0.554095 0.365889 0
M  V30 13817 H 1302.76 -1.28203 1.59452 0
M  V30 13818 H 1302.77 -3.72772 1.65847 0
M  V30 13819 H 1301.44 -3.18471 2.67487 0
M  V30 13820 H 1300.02 -3.6198 0.895835 0
M  V30 13821 N 1302.21 -1.00763 -1.2118 0
M  V30 13822 C 1303.17 -0.575183 -2.21865 0
M  V30 13823 C 1304.17 0.349871 -1.56948 0
M  V30 13824 O 1305.36 0.139795 -1.73638 0
M  V30 13825 C 1302.49 0.161308 -3.40518 0
M  V30 13826 H 1303.68 -1.46578 -2.61639 0
M  V30 13827 H 1301.24 -0.79643 -1.34487 0
M  V30 13828 H 1301.97 1.06723 -3.06236 0
M  V30 13829 H 1301.76 -0.503101 -3.88859 0
M  V30 13830 H 1303.25 0.451527 -4.15152 0
M  V30 13831 N 1303.68 1.3679 -0.7827 0
M  V30 13832 C 1304.93 1.99712 -0.352533 0
M  V30 13833 C 1305.26 1.61984 1.0712 0
M  V30 13834 O 1304.54 0.871342 1.7389 0
M  V30 13835 C 1304.82 3.5649 -0.508628 0
M  V30 13836 C 1304.67 4.04093 -1.97557 0
M  V30 13837 C 1305.99 4.40026 0.0804447 0
M  V30 13838 H 1303.11 0.725522 -0.129566 0
M  V30 13839 H 1305.75 1.62305 -0.987788 0
M  V30 13840 H 1303.9 3.88487 0.0321664 0
M  V30 13841 H 1305.58 3.82613 -2.57691 0
M  V30 13842 H 1303.82 3.55881 -2.48055 0
M  V30 13843 H 1304.49 5.13088 -2.03579 0
M  V30 13844 H 1306.97 4.14351 -0.381113 0
M  V30 13845 H 1305.84 5.48868 -0.0588424 0
M  V30 13846 H 1306.1 4.26285 1.17189 0
M  V30 13847 N 1305.16 0.53415 1.48272 0
M  V30 13848 C 1306.13 -0.215641 2.28183 0
M  V30 13849 C 1307.13 -0.863966 1.35618 0
M  V30 13850 O 1308.32 -0.723375 1.58471 0
M  V30 13851 C 1305.45 -1.31251 3.1462 0
M  V30 13852 H 1306.64 0.486014 2.95936 0
M  V30 13853 H 1304.19 0.290237 1.53582 0
M  V30 13854 H 1304.93 -2.04729 2.51508 0
M  V30 13855 H 1304.71 -0.852706 3.82716 0
M  V30 13856 H 1306.2 -1.83978 3.74889 0
M  V30 13857 N 1306.64 -1.55279 0.269478 0
M  V30 13858 C 1307.92 -1.91458 -0.400412 0
M  V30 13859 C 1308.3 -1.19306 -1.74153 0
M  V30 13860 O 1307.65 -0.318017 -2.26276 0
M  V30 13861 C 1307.86 -3.44698 -0.546258 0
M  V30 13862 C 1309.2 -4.16374 -0.831758 0
M  V30 13863 O 1310.23 -3.50561 -0.631279 0
M  V30 13864 O 1309.09 -5.32826 -1.21484 0
M  V30 13865 H 1306.18 -0.79766 -0.218328 0
M  V30 13866 H 1308.73 -1.66747 0.315214 0
M  V30 13867 H 1307.5 -3.89273 0.397784 0
M  V30 13868 H 1307.12 -3.75345 -1.31157 0
M  V30 13869 N 1308.12 0.00332656 -1.576 0
M  V30 13870 C 1309.36 0.684275 -1.91544 0
M  V30 13871 C 1309.72 1.71565 -0.870814 0
M  V30 13872 O 1309.01 1.9124 0.117405 0
M  V30 13873 C 1309.21 1.37237 -3.30001 0
M  V30 13874 C 1309.04 0.409158 -4.47835 0
M  V30 13875 C 1307.81 0.0207716 -5.05296 0
M  V30 13876 C 1310 -0.323226 -5.13283 0
M  V30 13877 N 1307.99 -0.941002 -6.06645 0
M  V30 13878 C 1309.36 -1.13979 -6.09433 0
M  V30 13879 C 1311.41 -0.387419 -4.9639 0
M  V30 13880 C 1310.11 -2.0147 -6.90509 0
M  V30 13881 C 1312.14 -1.24954 -5.78049 0
M  V30 13882 C 1311.5 -2.05396 -6.73789 0
M  V30 13883 H 1307.6 0.223698 -0.749322 0
M  V30 13884 H 1310.19 -0.0562395 -1.94619 0
M  V30 13885 H 1308.36 2.0832 -3.27807 0
M  V30 13886 H 1310.09 2.00775 -3.51385 0
M  V30 13887 H 1306.84 0.38844 -4.72004 0
M  V30 13888 H 1307.27 -1.41716 -6.62001 0
M  V30 13889 H 1311.91 0.220225 -4.22226 0
M  V30 13890 H 1309.63 -2.63303 -7.64001 0
M  V30 13891 H 1313.21 -1.30308 -5.6702 0
M  V30 13892 H 1312.09 -2.71028 -7.35876 0
M  V30 13893 N 1309.6 1.55164 0.276031 0
M  V30 13894 C 1310.84 1.75887 1.00953 0
M  V30 13895 C 1311.18 0.5567 1.8605 0
M  V30 13896 O 1310.45 -0.445799 1.89322 0
M  V30 13897 C 1310.73 3.06228 1.89463 0
M  V30 13898 C 1310.59 4.36795 1.07379 0
M  V30 13899 C 1311.91 3.32589 2.88223 0
M  V30 13900 H 1309.02 0.639929 0.365596 0
M  V30 13901 H 1311.67 1.87893 0.282156 0
M  V30 13902 H 1309.82 2.96124 2.51481 0
M  V30 13903 H 1311.49 4.58853 0.474549 0
M  V30 13904 H 1309.73 4.32157 0.377165 0
M  V30 13905 H 1310.4 5.24315 1.72621 0
M  V30 13906 H 1312.88 3.42467 2.36338 0
M  V30 13907 H 1311.75 4.2506 3.47297 0
M  V30 13908 H 1312.02 2.52083 3.6319 0
M  V30 13909 N 1311.07 -0.540404 1.48045 0
M  V30 13910 C 1312.3 -1.31986 1.58944 0
M  V30 13911 C 1312.71 -1.87608 0.244889 0
M  V30 13912 O 1312.06 -1.66576 -0.774467 0
M  V30 13913 C 1312.12 -2.51547 2.56835 0
M  V30 13914 C 1311.78 -2.17089 4.02146 0
M  V30 13915 C 1312.78 -1.73379 4.90138 0
M  V30 13916 C 1310.46 -2.27932 4.47607 0
M  V30 13917 C 1312.46 -1.40964 6.21617 0
M  V30 13918 C 1310.14 -1.95129 5.7911 0
M  V30 13919 C 1311.14 -1.51715 6.65937 0
M  V30 13920 O 1310.83 -1.19337 7.94993 0
M  V30 13921 H 1310.56 -0.408028 0.538971 0
M  V30 13922 H 1313.12 -0.659748 1.94516 0
M  V30 13923 H 1311.35 -3.20505 2.16364 0
M  V30 13924 H 1313.04 -3.13617 2.57681 0
M  V30 13925 H 1313.8 -1.64481 4.56258 0
M  V30 13926 H 1309.68 -2.6068 3.8022 0
M  V30 13927 H 1313.22 -1.07005 6.89344 0
M  V30 13928 H 1309.12 -2.03664 6.12528 0
M  V30 13929 H 1309.89 -1.32824 8.07651 0
M  V30 13930 N 1312.55 -1.36459 -0.788468 0
M  V30 13931 C 1313.5 -1.30924 -1.92254 0
M  V30 13932 C 1314.49 -0.200866 -1.68205 0
M  V30 13933 O 1315.7 -0.367927 -1.762 0
M  V30 13934 H 1312.08 -0.407609 -0.631949 0
M  V30 13935 H 1314.05 -2.26695 -1.94041 0
M  V30 13936 C 1312.8 -1.11635 -3.29292 0
M  V30 13937 H 1312.12 -1.96168 -3.48365 0
M  V30 13938 H 1313.56 -1.11808 -4.08993 0
M  V30 13939 C 1312.02 0.178963 -3.36424 0
M  V30 13940 O 1312.55 1.16846 -3.8433 0
M  V30 13941 N 1310.75 0.223962 -2.89736 0
M  V30 13942 H 1310.3 -0.581888 -2.50942 0
M  V30 13943 H 1310.26 1.0903 -2.94889 0
M  V30 13944 N 1314.03 1.01274 -1.20754 0
M  V30 13945 C 1314.94 2.1335 -0.975656 0
M  V30 13946 C 1315.96 1.7386 0.0697364 0
M  V30 13947 O 1317.13 2.01051 -0.118578 0
M  V30 13948 C 1314.2 3.42548 -0.534931 0
M  V30 13949 C 1313.26 3.96257 -1.65163 0
M  V30 13950 C 1312.49 5.19289 -1.23184 0
M  V30 13951 O 1312.71 5.70309 -0.102158 0
M  V30 13952 O 1311.65 5.66248 -2.04076 0
M  V30 13953 H 1315.47 2.35783 -1.91415 0
M  V30 13954 H 1313.06 1.11736 -0.991743 0
M  V30 13955 H 1314.94 4.20341 -0.298568 0
M  V30 13956 H 1313.62 3.21521 0.374937 0
M  V30 13957 H 1312.52 3.19726 -1.94232 0
M  V30 13958 H 1313.86 4.2168 -2.53864 0
M  V30 13959 N 1315.51 1.01404 1.20644 0
M  V30 13960 C 1316.44 0.602465 2.25594 0
M  V30 13961 C 1317.42 -0.381216 1.65773 0
M  V30 13962 O 1318.61 -0.267209 1.92353 0
M  V30 13963 C 1315.74 -0.0626245 3.47244 0
M  V30 13964 C 1314.69 0.841776 4.1964 0
M  V30 13965 C 1314.02 0.0426002 5.34683 0
M  V30 13966 C 1315.32 2.14864 4.76058 0
M  V30 13967 H 1317.01 1.47977 2.60275 0
M  V30 13968 H 1314.56 0.712966 1.25111 0
M  V30 13969 H 1316.51 -0.362095 4.19841 0
M  V30 13970 H 1315.23 -0.974627 3.11719 0
M  V30 13971 H 1313.89 1.12521 3.48905 0
M  V30 13972 H 1313.54 -0.870973 4.95402 0
M  V30 13973 H 1313.24 0.644866 5.84051 0
M  V30 13974 H 1314.76 -0.250476 6.10086 0
M  V30 13975 H 1316.18 1.9117 5.40488 0
M  V30 13976 H 1314.57 2.70153 5.35852 0
M  V30 13977 H 1315.64 2.81336 3.9494 0
M  V30 13978 N 1316.99 -1.36373 0.789944 0
M  V30 13979 C 1318.4 -1.52471 0.471686 0
M  V30 13980 C 1318.6 -1.74365 -1.0099 0
M  V30 13981 O 1317.66 -1.77546 -1.79538 0
M  V30 13982 C 1318.97 -2.71022 1.30259 0
M  V30 13983 C 1320.52 -2.84893 1.29633 0
M  V30 13984 C 1321 -4.0645 2.11098 0
M  V30 13985 N 1322.49 -4.13597 2.08547 0
M  V30 13986 C 1323.22 -5.06731 2.6835 0
M  V30 13987 N 1322.72 -6.05305 3.37013 0
M  V30 13988 N 1324.51 -4.9935 2.58081 0
M  V30 13989 H 1316.66 -1.20416 1.74968 0
M  V30 13990 H 1318.92 -0.587782 0.743785 0
M  V30 13991 H 1318.63 -2.61368 2.35329 0
M  V30 13992 H 1318.5 -3.6519 0.944254 0
M  V30 13993 H 1320.89 -2.94009 0.253542 0
M  V30 13994 H 1320.97 -1.91632 1.69443 0
M  V30 13995 H 1320.62 -3.98096 3.15408 0
M  V30 13996 H 1320.55 -4.98861 1.68659 0
M  V30 13997 H 1323.04 -3.4302 1.58573 0
M  V30 13998 H 1323.35 -6.72934 3.79974 0
M  V30 13999 H 1321.7 -6.05529 3.41116 0
M  V30 14000 H 1324.89 -4.21291 2.04039 0
M  V30 14001 H 1325.06 -5.71745 3.04979 0
M  V30 14002 N 1318.47 -0.542005 -1.47987 0
M  V30 14003 C 1319.71 -0.0122873 -2.02096 0
M  V30 14004 C 1320.03 1.3362 -1.42024 0
M  V30 14005 O 1319.3 1.86807 -0.589911 0
M  V30 14006 H 1317.88 -0.00155365 -0.746998 0
M  V30 14007 H 1320.55 -0.708566 -1.81564 0
M  V30 14008 H 1319.64 0.0871275 -3.11978 0
M  V30 14009 N 1319.94 1.55134 -0.277709 0
M  V30 14010 C 1320.88 2.20028 0.641913 0
M  V30 14011 C 1321.89 1.18578 1.11549 0
M  V30 14012 O 1323.08 1.45291 1.03695 0
M  V30 14013 C 1320.18 2.81443 1.88794 0
M  V30 14014 C 1319.35 4.08607 1.56074 0
M  V30 14015 C 1318.41 4.54045 2.6595 0
M  V30 14016 O 1317.44 5.19762 2.32026 0
M  V30 14017 N 1318.64 4.24403 3.96058 0
M  V30 14018 H 1321.4 2.99575 0.0864929 0
M  V30 14019 H 1318.96 1.61598 -0.0989178 0
M  V30 14020 H 1320.96 3.08784 2.616 0
M  V30 14021 H 1319.53 2.05873 2.35234 0
M  V30 14022 H 1318.75 3.88527 0.666388 0
M  V30 14023 H 1320.03 4.91455 1.31719 0
M  V30 14024 H 1319.43 3.71708 4.26439 0
M  V30 14025 H 1317.99 4.56509 4.65234 0
M  V30 14026 N 1321.42 0.00503138 1.57599 0
M  V30 14027 C 1322.35 -0.983586 2.11773 0
M  V30 14028 C 1323.33 -1.35518 1.02805 0
M  V30 14029 O 1324.52 -1.43804 1.30514 0
M  V30 14030 C 1321.65 -2.27383 2.62515 0
M  V30 14031 C 1320.6 -2.0437 3.76054 0
M  V30 14032 C 1319.93 -3.39451 4.1313 0
M  V30 14033 C 1321.23 -1.40223 5.03125 0
M  V30 14034 H 1322.92 -0.532501 2.94627 0
M  V30 14035 H 1320.47 -0.254696 1.4173 0
M  V30 14036 H 1322.42 -2.96903 2.99043 0
M  V30 14037 H 1321.14 -2.74614 1.7679 0
M  V30 14038 H 1319.8 -1.37275 3.39928 0
M  V30 14039 H 1319.45 -3.84395 3.24422 0
M  V30 14040 H 1319.15 -3.24868 4.89627 0
M  V30 14041 H 1320.68 -4.10279 4.52221 0
M  V30 14042 H 1322.09 -1.99708 5.37392 0
M  V30 14043 H 1320.49 -1.36112 5.8446 0
M  V30 14044 H 1321.56 -0.372073 4.8347 0
M  V30 14045 N 1322.9 -1.55308 -0.267798 0
M  V30 14046 C 1323.81 -1.91649 -1.35307 0
M  V30 14047 C 1324.83 -0.814349 -1.53767 0
M  V30 14048 O 1326 -1.11388 -1.67793 0
M  V30 14049 C 1323.07 -2.18553 -2.69138 0
M  V30 14050 C 1322.13 -3.42083 -2.5938 0
M  V30 14051 C 1321.36 -3.67695 -3.86828 0
M  V30 14052 O 1321.58 -2.95728 -4.87751 0
M  V30 14053 O 1320.52 -4.61229 -3.86718 0
M  V30 14054 H 1324.34 -2.84044 -1.07483 0
M  V30 14055 H 1321.93 -1.41921 -0.466772 0
M  V30 14056 H 1323.81 -2.3726 -3.48261 0
M  V30 14057 H 1322.49 -1.2934 -2.96737 0
M  V30 14058 H 1321.39 -3.28706 -1.78614 0
M  V30 14059 H 1322.73 -4.31532 -2.36729 0
M  V30 14060 N 1324.38 0.532545 -1.4833 0
M  V30 14061 C 1325.29 1.66433 -1.65339 0
M  V30 14062 C 1326.3 1.65541 -0.535939 0
M  V30 14063 O 1327.48 1.84539 -0.806679 0
M  V30 14064 C 1324.54 3.02901 -1.68676 0
M  V30 14065 C 1323.61 3.14669 -2.92031 0
M  V30 14066 C 1322.84 4.44627 -2.95199 0
M  V30 14067 O 1323.06 5.31572 -2.06851 0
M  V30 14068 O 1322 4.60707 -3.87341 0
M  V30 14069 H 1325.82 1.5502 -2.61156 0
M  V30 14070 H 1323.41 0.705348 -1.31701 0
M  V30 14071 H 1325.29 3.84068 -1.73407 0
M  V30 14072 H 1323.96 3.14644 -0.760327 0
M  V30 14073 H 1322.87 2.32807 -2.92834 0
M  V30 14074 H 1324.2 3.07841 -3.8405 0
M  V30 14075 N 1325.86 1.36875 0.78122 0
M  V30 14076 C 1327.1 1.32949 1.55254 0
M  V30 14077 C 1327.46 -0.0879862 1.91798 0
M  V30 14078 O 1328.66 -0.251878 2.67617 0
M  V30 14079 C 1326.93 2.23382 2.78989 0
M  V30 14080 S 1328.49 2.37218 3.69152 0
M  V30 14081 H 1325.31 0.472105 0.531637 0
M  V30 14082 H 1327.91 1.72529 0.91945 0
M  V30 14083 H 1326.61 3.25307 2.50207 0
M  V30 14084 H 1326.15 1.84852 3.47266 0
M  V30 14085 H 1328.16 1.57575 4.70515 0
M  V30 14086 N 1327.33 -1.00632 1.21289 0
M  V30 14087 C 1328.75 -1.26744 0.969956 0
M  V30 14088 C 1328.95 -1.98534 -0.344449 0
M  V30 14089 O 1328.01 -2.28687 -1.07044 0
M  V30 14090 C 1329.32 -2.09238 2.15963 0
M  V30 14091 C 1330.87 -2.22469 2.20174 0
M  V30 14092 C 1331.34 -3.08344 3.38656 0
M  V30 14093 N 1332.83 -3.15932 3.38734 0
M  V30 14094 C 1333.57 -3.82632 4.2706 0
M  V30 14095 N 1333.06 -4.51371 5.25582 0
M  V30 14096 N 1334.86 -3.79259 4.14872 0
M  V30 14097 H 1327.01 -0.524626 2.05819 0
M  V30 14098 H 1329.27 -0.294231 0.901184 0
M  V30 14099 H 1328.98 -1.63835 3.11209 0
M  V30 14100 H 1328.85 -3.09987 2.14914 0
M  V30 14101 H 1331.24 -2.67091 1.25485 0
M  V30 14102 H 1331.32 -1.21194 2.25268 0
M  V30 14103 H 1330.96 -2.64425 4.33638 0
M  V30 14104 H 1330.89 -4.0973 3.30801 0
M  V30 14105 H 1333.38 -2.66998 2.67434 0
M  V30 14106 H 1333.7 -4.99966 5.89283 0
M  V30 14107 H 1332.04 -4.50162 5.29508 0
M  V30 14108 H 1335.23 -3.2471 3.37166 0
M  V30 14109 H 1335.41 -4.30963 4.83916 0
M  V30 14110 N 1328.81 -1.02043 -1.20104 0
M  V30 14111 C 1330.06 -0.710566 -1.89197 0
M  V30 14112 C 1330.38 0.762471 -1.79475 0
M  V30 14113 O 1329.65 1.54871 -1.19965 0
M  V30 14114 H 1328.23 -0.259839 -0.700352 0
M  V30 14115 H 1330.89 -1.29285 -1.45848 0
M  V30 14116 H 1329.99 -0.997363 -2.95735 0
M  V30 14117 N 1330.29 1.35952 -0.797165 0
M  V30 14118 C 1331.71 1.52218 -0.479765 0
M  V30 14119 C 1331.91 1.74898 1.00064 0
M  V30 14120 O 1330.96 1.78495 1.78594 0
M  V30 14121 C 1332.28 2.70328 -1.31694 0
M  V30 14122 C 1333.82 2.84202 -1.31142 0
M  V30 14123 C 1334.3 4.05325 -2.13251 0
M  V30 14124 N 1335.79 4.12485 -2.10737 0
M  V30 14125 C 1336.52 5.053 -2.71033 0
M  V30 14126 N 1336.02 6.03509 -3.40219 0
M  V30 14127 N 1337.81 4.97975 -2.60725 0
M  V30 14128 H 1329.96 1.19486 -1.75604 0
M  V30 14129 H 1332.23 0.58383 -0.746892 0
M  V30 14130 H 1331.93 2.60116 -2.36712 0
M  V30 14131 H 1331.81 3.64684 -0.963607 0
M  V30 14132 H 1334.19 2.9387 -0.269131 0
M  V30 14133 H 1334.28 1.9073 -1.70457 0
M  V30 14134 H 1333.92 3.96417 -3.17515 0
M  V30 14135 H 1333.85 4.97959 -1.71302 0
M  V30 14136 H 1336.34 3.42174 -1.6039 0
M  V30 14137 H 1336.65 6.70909 -3.83537 0
M  V30 14138 H 1335 6.03711 -3.44322 0
M  V30 14139 H 1338.19 4.20203 -2.0627 0
M  V30 14140 H 1338.36 5.70119 -3.08007 0
M  V30 14141 N 1331.77 0.549846 1.47697 0
M  V30 14142 C 1333.01 0.031288 2.03376 0
M  V30 14143 C 1333.37 -1.30104 1.41741 0
M  V30 14144 O 1332.66 -1.83201 0.561052 0
M  V30 14145 C 1332.86 -0.127268 3.57173 0
M  V30 14146 C 1332.69 1.18815 4.3372 0
M  V30 14147 C 1331.46 1.75345 4.73901 0
M  V30 14148 C 1333.65 2.10361 4.69311 0
M  V30 14149 N 1331.64 3.00968 5.35062 0
M  V30 14150 C 1333.01 3.20562 5.30698 0
M  V30 14151 C 1335.06 2.10445 4.5124 0
M  V30 14152 C 1333.76 4.30936 5.75922 0
M  V30 14153 C 1335.79 3.19827 4.97458 0
M  V30 14154 C 1335.15 4.28747 5.58888 0
M  V30 14155 H 1331.25 0.0534339 0.780172 0
M  V30 14156 H 1333.84 0.735512 1.80273 0
M  V30 14157 H 1332.01 -0.800603 3.80059 0
M  V30 14158 H 1333.74 -0.647225 3.99491 0
M  V30 14159 H 1330.49 1.29235 4.55626 0
M  V30 14160 H 1330.92 3.64979 5.70192 0
M  V30 14161 H 1335.56 1.27522 4.0311 0
M  V30 14162 H 1333.28 5.14624 6.23047 0
M  V30 14163 H 1336.86 3.2097 4.85252 0
M  V30 14164 H 1335.74 5.1199 5.94 0
M  V30 14165 N 1333.25 -1.54984 0.285932 0
M  V30 14166 C 1334.21 -2.2164 -0.583824 0
M  V30 14167 C 1335.21 -1.19764 -1.073 0
M  V30 14168 O 1336.4 -1.44598 -0.971439 0
M  V30 14169 C 1333.53 -2.8909 -1.80665 0
M  V30 14170 H 1334.72 -2.999 -0.00168109 0
M  V30 14171 H 1332.28 -1.56257 0.0366325 0
M  V30 14172 H 1333.01 -2.14869 -2.42903 0
M  V30 14173 H 1332.8 -3.63756 -1.4637 0
M  V30 14174 H 1334.29 -3.39982 -2.42491 0
M  V30 14175 N 1334.72 -0.0133892 -1.57594 0
M  V30 14176 C 1335.65 0.972341 -2.12292 0
M  V30 14177 C 1336.64 1.34971 -1.03522 0
M  V30 14178 O 1337.82 1.4311 -1.31275 0
M  V30 14179 C 1334.95 2.25988 -2.63717 0
M  V30 14180 C 1333.9 2.02373 -3.77133 0
M  V30 14181 C 1333.23 3.37256 -4.14925 0
M  V30 14182 C 1334.53 1.37553 -5.03861 0
M  V30 14183 H 1336.22 0.516869 -2.94905 0
M  V30 14184 H 1333.77 0.247176 -1.41863 0
M  V30 14185 H 1335.72 2.95313 -3.00613 0
M  V30 14186 H 1334.45 2.73672 -1.78244 0
M  V30 14187 H 1333.11 1.3547 -3.40651 0
M  V30 14188 H 1332.75 3.82669 -3.26456 0
M  V30 14189 H 1332.45 3.22267 -4.91343 0
M  V30 14190 H 1333.98 4.07875 -4.5439 0
M  V30 14191 H 1335.39 1.96855 -5.38443 0
M  V30 14192 H 1333.79 1.33011 -5.85174 0
M  V30 14193 H 1334.86 0.346429 -4.83661 0
M  V30 14194 N 1336.2 1.55448 0.259558 0
M  V30 14195 C 1337.62 1.47588 0.607442 0
M  V30 14196 C 1337.82 0.701053 1.88911 0
M  V30 14197 O 1336.87 0.225305 2.51493 0
M  V30 14198 C 1338.19 2.91905 0.72192 0
M  V30 14199 C 1339.74 3.02201 0.815087 0
M  V30 14200 C 1340.21 4.47799 0.961231 0
M  V30 14201 N 1341.7 4.51684 1.02642 0
M  V30 14202 C 1342.44 5.61574 1.15854 0
M  V30 14203 N 1341.93 6.81301 1.257 0
M  V30 14204 N 1343.73 5.49344 1.1907 0
M  V30 14205 H 1335.88 2.04271 -0.581981 0
M  V30 14206 H 1338.14 0.926865 -0.199059 0
M  V30 14207 H 1337.85 3.51382 -0.149611 0
M  V30 14208 H 1337.72 3.41681 1.59793 0
M  V30 14209 H 1340.11 2.42813 1.67708 0
M  V30 14210 H 1340.19 2.55656 -0.0858102 0
M  V30 14211 H 1339.83 5.07794 0.103848 0
M  V30 14212 H 1339.76 4.92013 1.87698 0
M  V30 14213 H 1342.25 3.65446 0.962184 0
M  V30 14214 H 1342.57 7.60801 1.35652 0
M  V30 14215 H 1340.91 6.84087 1.2268 0
M  V30 14216 H 1344.1 4.54745 1.11018 0
M  V30 14217 H 1344.27 6.35025 1.29022 0
M  V30 14218 N 1337.68 -0.524672 1.4861 0
M  V30 14219 C 1338.61 -1.63782 1.66426 0
M  V30 14220 C 1339.59 -1.62177 0.513077 0
M  V30 14221 O 1340.78 -1.7929 0.74623 0
M  V30 14222 C 1337.91 -3.02354 1.70877 0
M  V30 14223 C 1336.86 -3.18819 2.85549 0
M  V30 14224 C 1336.19 -4.58506 2.75094 0
M  V30 14225 C 1337.49 -3.01086 4.26784 0
M  V30 14226 H 1339.18 -1.49127 2.59618 0
M  V30 14227 H 1336.73 -0.715997 1.24938 0
M  V30 14228 H 1338.68 -3.80105 1.81929 0
M  V30 14229 H 1337.4 -3.18044 0.742682 0
M  V30 14230 H 1336.06 -2.43487 2.74061 0
M  V30 14231 H 1335.71 -4.71038 1.76443 0
M  V30 14232 H 1335.41 -4.70466 3.52044 0
M  V30 14233 H 1336.93 -5.38348 2.88121 0
M  V30 14234 H 1338.35 -3.68624 4.39077 0
M  V30 14235 H 1336.75 -3.24536 5.04774 0
M  V30 14236 H 1337.82 -1.97454 4.42877 0
M  V30 14237 N 1339.16 -1.37287 -0.77395 0
M  V30 14238 C 1340.4 -1.33771 -1.54547 0
M  V30 14239 C 1340.76 0.0778134 -1.91842 0
M  V30 14240 O 1341.96 0.237682 -2.67747 0
M  V30 14241 C 1340.23 -2.24859 -2.77801 0
M  V30 14242 S 1341.79 -2.39172 -3.67889 0
M  V30 14243 H 1338.61 -0.474918 -0.529126 0
M  V30 14244 H 1341.21 -1.73015 -0.910287 0
M  V30 14245 H 1339.92 -3.2663 -2.48478 0
M  V30 14246 H 1339.45 -1.86691 -3.4628 0
M  V30 14247 H 1341.46 -1.60068 -4.69673 0
M  V30 14248 N 1340.64 0.999871 -1.21821 0
M  V30 14249 C 1341.57 2.10708 -1.00621 0
M  V30 14250 C 1342.55 1.69954 0.0705417 0
M  V30 14251 O 1343.73 1.9399 -0.0903042 0
M  V30 14252 C 1340.86 3.42496 -0.575646 0
M  V30 14253 C 1339.82 3.97068 -1.59754 0
M  V30 14254 C 1339.14 5.24822 -1.02304 0
M  V30 14255 C 1340.44 4.28545 -2.98574 0
M  V30 14256 H 1342.14 2.28701 -1.93226 0
M  V30 14257 H 1339.68 1.09903 -0.930443 0
M  V30 14258 H 1341.64 4.19357 -0.414481 0
M  V30 14259 H 1340.36 3.2431 0.386059 0
M  V30 14260 H 1339.02 3.22332 -1.74636 0
M  V30 14261 H 1338.67 5.02972 -0.0529016 0
M  V30 14262 H 1338.37 5.62299 -1.70567 0
M  V30 14263 H 1339.89 6.04322 -0.873312 0
M  V30 14264 H 1341.3 4.96229 -2.87106 0
M  V30 14265 H 1339.7 4.77178 -3.63897 0
M  V30 14266 H 1340.77 3.36607 -3.49032 0
M  V30 14267 N 1342.11 1.02678 1.19562 0
M  V30 14268 C 1343.02 0.615738 2.26375 0
M  V30 14269 C 1344.04 -0.351525 1.70412 0
M  V30 14270 O 1345.22 -0.209932 2.00303 0
M  V30 14271 C 1342.28 -0.0292135 3.46688 0
M  V30 14272 C 1341.34 0.985284 4.1784 0
M  V30 14273 C 1340.58 0.371016 5.32409 0
M  V30 14274 O 1340.8 -0.826591 5.64379 0
M  V30 14275 O 1339.73 1.09282 5.91896 0
M  V30 14276 H 1343.56 1.50526 2.63772 0
M  V30 14277 H 1341.14 0.796847 1.26375 0
M  V30 14278 H 1343.03 -0.38893 4.19601 0
M  V30 14279 H 1341.7 -0.892778 3.11145 0
M  V30 14280 H 1340.61 1.39655 3.47055 0
M  V30 14281 H 1341.94 1.81915 4.57349 0
M  V30 14282 N 1343.59 -1.35528 0.804364 0
M  V30 14283 C 1344.5 -2.33616 0.214663 0
M  V30 14284 C 1345.52 -1.61757 -0.64115 0
M  V30 14285 O 1346.69 -1.93647 -0.553424 0
M  V30 14286 C 1343.76 -3.40951 -0.628778 0
M  V30 14287 C 1342.82 -4.28587 0.247269 0
M  V30 14288 C 1342.05 -5.30796 -0.556012 0
M  V30 14289 O 1342.28 -5.41557 -1.79088 0
M  V30 14290 O 1341.21 -6.01878 0.0519437 0
M  V30 14291 H 1345.04 -2.85843 1.02605 0
M  V30 14292 H 1342.62 -1.38259 0.566108 0
M  V30 14293 H 1344.5 -4.06538 -1.10926 0
M  V30 14294 H 1343.18 -2.90999 -1.4178 0
M  V30 14295 H 1342.09 -3.65988 0.774835 0
M  V30 14296 H 1343.42 -4.81931 1.00017 0
M  V30 14297 N 1345.07 -0.557671 -1.47404 0
M  V30 14298 C 1346.49 -0.217473 -1.58111 0
M  V30 14299 C 1346.69 1.28 -1.55622 0
M  V30 14300 O 1345.74 2.06019 -1.45988 0
M  V30 14301 C 1347.06 -0.844535 -2.88597 0
M  V30 14302 C 1348.6 -0.815807 -3.02181 0
M  V30 14303 C 1349.08 -1.42195 -4.35367 0
M  V30 14304 N 1350.57 -1.38515 -4.42004 0
M  V30 14305 C 1351.31 -1.82378 -5.43623 0
M  V30 14306 N 1350.8 -2.34098 -6.52051 0
M  V30 14307 N 1352.59 -1.73446 -5.34671 0
M  V30 14308 H 1344.75 -1.53058 -1.47265 0
M  V30 14309 H 1347.01 -0.638305 -0.700907 0
M  V30 14310 H 1346.71 -1.89696 -2.96156 0
M  V30 14311 H 1346.59 -0.337844 -3.75684 0
M  V30 14312 H 1348.98 0.227925 -2.94218 0
M  V30 14313 H 1349.06 -1.36026 -2.16635 0
M  V30 14314 H 1348.7 -2.46475 -4.44086 0
M  V30 14315 H 1348.63 -0.852932 -5.19647 0
M  V30 14316 H 1351.12 -1.00684 -3.64241 0
M  V30 14317 H 1351.43 -2.6549 -7.25765 0
M  V30 14318 H 1349.78 -2.38109 -6.52939 0
M  V30 14319 H 1352.97 -1.32816 -4.48862 0
M  V30 14320 H 1353.14 -2.07947 -6.13728 0
M  V30 14321 N 1346.55 1.54831 -0.294147 0
M  V30 14322 C 1347.83 1.92071 0.369902 0
M  V30 14323 C 1348.21 1.22061 1.72233 0
M  V30 14324 O 1347.55 0.353975 2.25742 0
M  V30 14325 C 1347.76 3.45524 0.49135 0
M  V30 14326 C 1349.11 4.17644 0.765411 0
M  V30 14327 O 1350.14 3.51521 0.575428 0
M  V30 14328 O 1349 5.34692 1.12992 0
M  V30 14329 H 1346.09 0.801033 0.20561 0
M  V30 14330 H 1348.64 1.66224 -0.341702 0
M  V30 14331 H 1347.41 3.88591 -0.459663 0
M  V30 14332 H 1347.03 3.77384 1.25169 0
M  V30 14333 N 1348.03 0.0217466 1.57585 0
M  V30 14334 C 1349.27 -0.653715 1.92609 0
M  V30 14335 C 1349.63 -1.70158 0.897998 0
M  V30 14336 O 1348.92 -1.91403 -0.0869654 0
M  V30 14337 C 1349.12 -1.3197 3.32143 0
M  V30 14338 C 1348.94 -0.33786 4.48429 0
M  V30 14339 C 1347.71 0.0596192 5.05265 0
M  V30 14340 C 1349.91 0.404844 5.12704 0
M  V30 14341 N 1347.89 1.03739 6.05071 0
M  V30 14342 C 1349.27 1.2366 6.07543 0
M  V30 14343 C 1351.32 0.466341 4.95711 0
M  V30 14344 C 1350.02 2.1243 6.87216 0
M  V30 14345 C 1352.05 1.34134 5.75988 0
M  V30 14346 C 1351.41 2.1609 6.70436 0
M  V30 14347 H 1347.51 -0.211748 0.752786 0
M  V30 14348 H 1350.09 0.0871946 1.94505 0
M  V30 14349 H 1348.27 -2.03078 3.3108 0
M  V30 14350 H 1350 -1.95159 3.54535 0
M  V30 14351 H 1346.75 -0.313299 4.72563 0
M  V30 14352 H 1347.18 1.5223 6.59663 0
M  V30 14353 H 1351.82 -0.153024 4.22523 0
M  V30 14354 H 1349.54 2.75424 7.59715 0
M  V30 14355 H 1353.12 1.39312 5.64875 0
M  V30 14356 H 1352 2.82701 7.31471 0
M  V30 14357 N 1349.51 -1.55583 -0.251311 0
M  V30 14358 C 1350.44 -1.9296 -1.31486 0
M  V30 14359 C 1351.42 -0.794001 -1.50431 0
M  V30 14360 O 1352.6 -1.05393 -1.63113 0
M  V30 14361 C 1349.73 -2.22046 -2.67045 0
M  V30 14362 C 1348.69 -3.37816 -2.62801 0
M  V30 14363 C 1348.01 -3.52433 -4.02113 0
M  V30 14364 C 1349.31 -4.73626 -2.20171 0
M  V30 14365 H 1351.01 -2.82046 -1.00451 0
M  V30 14366 H 1348.55 -1.35702 -0.481775 0
M  V30 14367 H 1350.5 -2.46783 -3.41579 0
M  V30 14368 H 1349.23 -1.29782 -2.99707 0
M  V30 14369 H 1347.89 -3.13081 -1.90724 0
M  V30 14370 H 1347.54 -2.57597 -4.32034 0
M  V30 14371 H 1347.24 -4.30283 -4.00163 0
M  V30 14372 H 1348.76 -3.79486 -4.78354 0
M  V30 14373 H 1350.17 -4.97764 -2.84436 0
M  V30 14374 H 1348.57 -5.54547 -2.29341 0
M  V30 14375 H 1349.64 -4.70985 -1.1533 0
M  V30 14376 N 1350.98 0.516783 -1.48886 0
M  V30 14377 C 1352.39 1.09856 -1.50959 0
M  V30 14378 C 1352.75 1.94092 -0.28681 0
M  V30 14379 O 1351.87 2.07774 0.604877 0
M  V30 14380 C 1352.47 1.999 -2.73542 0
M  V30 14381 C 1351.02 2.5327 -2.78444 0
M  V30 14382 C 1350.17 1.30526 -2.44659 0
M  V30 14383 H 1353.12 0.301415 -1.55811 0
M  V30 14384 H 1353.14 2.84373 -2.52809 0
M  V30 14385 H 1352.66 1.38564 -3.62521 0
M  V30 14386 H 1350.76 3.1829 -1.93707 0
M  V30 14387 H 1350.87 2.91502 -3.80215 0
M  V30 14388 H 1349.23 1.62536 -1.96097 0
M  V30 14389 H 1350.02 0.709223 -3.35894 0
M  V30 14390 N 1352.46 1.37696 0.766659 0
M  V30 14391 C 1353.71 1.32922 1.52237 0
M  V30 14392 C 1354.03 -0.0842833 1.94818 0
M  V30 14393 O 1353.3 -1.02934 1.66677 0
M  V30 14394 H 1351.88 0.489049 0.564659 0
M  V30 14395 H 1354.54 1.72238 0.912142 0
M  V30 14396 H 1353.64 1.97158 2.4194 0
M  V30 14397 N 1353.94 -0.993397 1.22349 0
M  V30 14398 C 1354.89 -2.0834 0.993123 0
M  V30 14399 C 1355.86 -1.65883 -0.0849717 0
M  V30 14400 O 1357.04 -1.90691 0.0645176 0
M  V30 14401 C 1354.18 -3.40252 0.576434 0
M  V30 14402 C 1353.29 -3.96055 1.72524 0
M  V30 14403 C 1352.43 -5.16123 1.25659 0
M  V30 14404 C 1351.47 -5.64062 2.37698 0
M  V30 14405 N 1350.61 -6.7537 1.91883 0
M  V30 14406 H 1355.45 -2.27381 1.92619 0
M  V30 14407 H 1352.98 -1.11476 0.959763 0
M  V30 14408 H 1354.94 -4.16001 0.316021 0
M  V30 14409 H 1353.57 -3.21214 -0.319626 0
M  V30 14410 H 1352.62 -3.17182 2.1 0
M  V30 14411 H 1353.93 -4.27614 2.56802 0
M  V30 14412 H 1353.09 -5.9916 0.953528 0
M  V30 14413 H 1351.83 -4.86186 0.384011 0
M  V30 14414 H 1350.83 -4.79614 2.68794 0
M  V30 14415 H 1352.06 -5.96025 3.25471 0
M  V30 14416 H 1350 -6.47217 1.06986 0
M  V30 14417 H 1349.92 -7.06246 2.69727 0
M  V30 14418 H 1351.19 -7.61914 1.64644 0
M  V30 14419 N 1355.42 -1.03311 -1.19015 0
M  V30 14420 C 1356.65 -0.751802 -1.92758 0
M  V30 14421 C 1357.06 0.689982 -1.7574 0
M  V30 14422 O 1356.42 1.46961 -1.08207 0
M  V30 14423 C 1356.47 -1.09892 -3.44392 0
M  V30 14424 O 1356.19 -2.48409 -3.60866 0
M  V30 14425 C 1357.69 -0.841029 -4.35249 0
M  V30 14426 H 1354.91 -0.274757 -0.612168 0
M  V30 14427 H 1357.45 -1.37873 -1.51034 0
M  V30 14428 H 1355.61 -0.517092 -3.83933 0
M  V30 14429 H 1356.02 -2.61468 -4.54681 0
M  V30 14430 H 1357.5 -1.13383 -5.4023 0
M  V30 14431 H 1357.97 0.224434 -4.38626 0
M  V30 14432 H 1358.58 -1.40579 -4.01395 0
M  V30 14433 N 1356.9 1.35099 -0.81154 0
M  V30 14434 C 1357.83 2.32264 -0.239925 0
M  V30 14435 C 1358.81 1.57708 0.637354 0
M  V30 14436 O 1359.99 1.85751 0.566598 0
M  V30 14437 C 1357.12 3.41931 0.608325 0
M  V30 14438 C 1356.08 4.27659 -0.170869 0
M  V30 14439 C 1355.4 5.28691 0.799398 0
M  V30 14440 C 1356.7 5.0394 -1.37266 0
M  V30 14441 H 1358.4 2.8032 -1.05172 0
M  V30 14442 H 1355.94 1.34773 -0.507185 0
M  V30 14443 H 1357.89 4.08911 1.01832 0
M  V30 14444 H 1356.62 2.92496 1.45306 0
M  V30 14445 H 1355.28 3.62265 -0.562094 0
M  V30 14446 H 1354.93 4.75521 1.63977 0
M  V30 14447 H 1354.63 5.86921 0.282331 0
M  V30 14448 H 1356.15 5.98542 1.20749 0
M  V30 14449 H 1357.56 5.63838 -1.03728 0
M  V30 14450 H 1355.96 5.7169 -1.82456 0
M  V30 14451 H 1357.03 4.34295 -2.15676 0
M  V30 14452 N 1358.37 0.56548 1.47106 0
M  V30 14453 C 1359.62 0.0445255 2.02451 0
M  V30 14454 C 1359.95 -1.30863 1.43893 0
M  V30 14455 O 1359.2 -1.8668 0.587274 0
M  V30 14456 C 1359.5 -0.0893776 3.57288 0
M  V30 14457 C 1359.17 1.19395 4.34805 0
M  V30 14458 C 1357.83 1.54558 4.55703 0
M  V30 14459 C 1360.18 2.04399 4.79448 0
M  V30 14460 C 1357.51 2.74557 5.18494 0
M  V30 14461 C 1359.86 3.23608 5.43563 0
M  V30 14462 C 1358.53 3.59074 5.62692 0
M  V30 14463 H 1357.8 0.016293 0.740821 0
M  V30 14464 H 1360.44 0.738657 1.76681 0
M  V30 14465 H 1358.75 -0.86653 3.82097 0
M  V30 14466 H 1360.45 -0.507943 3.9777 0
M  V30 14467 H 1357.04 0.910176 4.18824 0
M  V30 14468 H 1361.22 1.78539 4.63074 0
M  V30 14469 H 1356.48 3.02194 5.31497 0
M  V30 14470 H 1360.65 3.89755 5.77117 0
M  V30 14471 H 1358.28 4.5215 6.11117 0
M  V30 14472 N 1359.85 -1.54672 0.302354 0
M  V30 14473 C 1360.76 -2.27251 -0.582578 0
M  V30 14474 C 1361.78 -1.30819 -1.14727 0
M  V30 14475 O 1362.95 -1.63803 -1.17177 0
M  V30 14476 C 1360.02 -3.00016 -1.73757 0
M  V30 14477 C 1359.08 -4.11988 -1.20682 0
M  V30 14478 C 1358.31 -4.81273 -2.30676 0
M  V30 14479 O 1358.54 -4.49927 -3.50602 0
M  V30 14480 O 1357.47 -5.68647 -1.97291 0
M  V30 14481 H 1361.3 -3.03699 0.00621365 0
M  V30 14482 H 1358.88 -1.49242 0.0687684 0
M  V30 14483 H 1360.76 -3.45652 -2.41045 0
M  V30 14484 H 1359.44 -2.26462 -2.31294 0
M  V30 14485 H 1358.35 -3.70749 -0.499625 0
M  V30 14486 H 1359.68 -4.87524 -0.676858 0
M  V30 14487 N 1361.33 -0.0301034 -1.57571 0
M  V30 14488 C 1362.28 0.969425 -2.11435 0
M  V30 14489 C 1363.27 1.33627 -1.04116 0
M  V30 14490 O 1364.48 1.31839 -1.2255 0
M  V30 14491 H 1360.85 0.330407 -0.675526 0
M  V30 14492 H 1362.82 0.489828 -2.94352 0
M  V30 14493 C 1361.57 2.24233 -2.65734 0
M  V30 14494 H 1360.9 1.9688 -3.47963 0
M  V30 14495 H 1362.34 2.92378 -3.07068 0
M  V30 14496 C 1360.8 2.97274 -1.58524 0
M  V30 14497 O 1361.33 3.8942 -0.985641 0
M  V30 14498 N 1359.53 2.59627 -1.30545 0
M  V30 14499 H 1359.08 1.84773 -1.79491 0
M  V30 14500 H 1359.04 3.08807 -0.590372 0
M  V30 14501 N 1362.81 1.55714 0.243056 0
M  V30 14502 C 1363.74 1.93655 1.30461 0
M  V30 14503 C 1364.72 0.801968 1.50008 0
M  V30 14504 O 1365.9 1.06256 1.62552 0
M  V30 14505 C 1363.03 2.23459 2.65863 0
M  V30 14506 C 1361.99 3.39205 2.61006 0
M  V30 14507 C 1361.31 3.5456 4.00239 0
M  V30 14508 C 1362.61 4.74787 2.17656 0
M  V30 14509 H 1364.31 2.82575 0.98954 0
M  V30 14510 H 1361.85 1.35955 0.474572 0
M  V30 14511 H 1363.81 2.48591 3.40266 0
M  V30 14512 H 1362.53 1.31369 2.99014 0
M  V30 14513 H 1361.19 3.14088 1.89061 0
M  V30 14514 H 1360.84 2.59884 4.30661 0
M  V30 14515 H 1360.54 4.32399 3.97876 0
M  V30 14516 H 1362.06 3.82017 4.76335 0
M  V30 14517 H 1363.48 4.99266 2.81792 0
M  V30 14518 H 1361.87 5.55756 2.26397 0
M  V30 14519 H 1362.94 4.7159 1.12831 0
M  V30 14520 N 1364.29 -0.50888 1.49158 0
M  V30 14521 C 1365.53 -1.26274 1.59456 0
M  V30 14522 C 1365.89 -1.90436 0.274217 0
M  V30 14523 O 1365.18 -1.77359 -0.724875 0
M  V30 14524 C 1365.37 -2.35875 2.6851 0
M  V30 14525 C 1365.2 -1.8246 4.11021 0
M  V30 14526 C 1363.97 -1.64114 4.77907 0
M  V30 14527 C 1366.17 -1.34097 4.9651 0
M  V30 14528 N 1364.15 -1.05546 6.04759 0
M  V30 14529 C 1365.52 -0.876125 6.13779 0
M  V30 14530 C 1367.58 -1.22596 4.82571 0
M  V30 14531 C 1366.28 -0.307659 7.18642 0
M  V30 14532 C 1368.31 -0.671474 5.87576 0
M  V30 14533 C 1367.67 -0.216816 7.04066 0
M  V30 14534 H 1363.77 -0.452321 0.63791 0
M  V30 14535 H 1366.35 -0.571257 1.86131 0
M  V30 14536 H 1364.52 -3.02494 2.43622 0
M  V30 14537 H 1366.26 -3.02915 2.68374 0
M  V30 14538 H 1363.01 -1.88254 4.34577 0
M  V30 14539 H 1363.44 -0.782114 6.72467 0
M  V30 14540 H 1368.08 -1.56348 3.9283 0
M  V30 14541 H 1365.8 0.0421419 8.08089 0
M  V30 14542 H 1369.38 -0.585375 5.78848 0
M  V30 14543 H 1368.26 0.205554 7.83931 0
M  V30 14544 N 1365.76 -1.381 -0.759346 0
M  V30 14545 C 1366.73 -1.34674 -1.8546 0
M  V30 14546 C 1367.73 -0.248351 -1.58871 0
M  V30 14547 O 1368.92 -0.504915 -1.66722 0
M  V30 14548 C 1366.05 -1.0952 -3.22828 0
M  V30 14549 H 1367.24 -2.3211 -1.89908 0
M  V30 14550 H 1364.8 -1.2331 -0.960435 0
M  V30 14551 H 1365.53 -0.126664 -3.24053 0
M  V30 14552 H 1365.32 -1.89037 -3.43522 0
M  V30 14553 H 1366.81 -1.09804 -4.02906 0
M  V30 14554 N 1367.24 0.986894 -1.22875 0
M  V30 14555 C 1368.47 1.768 -1.08427 0
M  V30 14556 C 1368.89 1.84612 0.360555 0
M  V30 14557 O 1368.25 1.30299 1.26063 0
M  V30 14558 C 1368.3 3.17638 -1.70701 0
M  V30 14559 O 1367.4 4.00957 -0.964752 0
M  V30 14560 H 1366.74 0.544199 -0.380451 0
M  V30 14561 H 1369.27 1.23931 -1.62795 0
M  V30 14562 H 1369.28 3.68243 -1.75672 0
M  V30 14563 H 1367.96 3.11267 -2.75837 0
M  V30 14564 H 1366.54 3.59477 -0.991493 0
M  V30 14565 N 1368.72 1.0394 1.18466 0
M  V30 14566 C 1369.97 0.743141 1.88694 0
M  V30 14567 C 1370.3 -0.727211 1.8007 0
M  V30 14568 O 1369.57 -1.53058 1.20014 0
M  V30 14569 C 1369.86 1.20829 3.39223 0
M  V30 14570 C 1369.71 2.74064 3.56664 0
M  V30 14571 C 1371.03 0.797348 4.32817 0
M  V30 14572 H 1368.15 0.271437 0.685194 0
M  V30 14573 H 1370.79 1.29119 1.39386 0
M  V30 14574 H 1368.94 0.742033 3.81348 0
M  V30 14575 H 1370.61 3.28717 3.2364 0
M  V30 14576 H 1368.86 3.1395 2.99362 0
M  V30 14577 H 1369.53 3.01668 4.62277 0
M  V30 14578 H 1372 1.19854 3.98465 0
M  V30 14579 H 1370.88 1.15057 5.36706 0
M  V30 14580 H 1371.14 -0.299601 4.41084 0
M  V30 14581 N 1370.2 -1.34667 0.818693 0
M  V30 14582 C 1371.43 -2.02348 0.417002 0
M  V30 14583 C 1371.84 -1.61813 -0.980464 0
M  V30 14584 O 1371.18 -0.817232 -1.64521 0
M  V30 14585 C 1371.24 -3.56861 0.434779 0
M  V30 14586 C 1370.91 -4.20704 1.78485 0
M  V30 14587 C 1371.9 -4.41524 2.74504 0
M  V30 14588 C 1369.59 -4.57566 2.07217 0
M  V30 14589 C 1371.58 -4.98324 3.97431 0
M  V30 14590 C 1369.27 -5.14078 3.30405 0
M  V30 14591 C 1370.27 -5.344 4.2533 0
M  V30 14592 O 1369.95 -5.89717 5.46342 0
M  V30 14593 H 1369.69 -0.655279 0.16609 0
M  V30 14594 H 1372.24 -1.73011 1.10708 0
M  V30 14595 H 1370.47 -3.8544 -0.311973 0
M  V30 14596 H 1372.16 -4.05864 0.0537258 0
M  V30 14597 H 1372.93 -4.13414 2.53601 0
M  V30 14598 H 1368.8 -4.41054 1.34135 0
M  V30 14599 H 1372.35 -5.14102 4.71534 0
M  V30 14600 H 1368.25 -5.41616 3.51174 0
M  V30 14601 H 1369.01 -6.08155 5.47804 0
M  V30 14602 N 1371.68 -0.573274 -1.46804 0
M  V30 14603 C 1372.92 -0.0551522 -2.02025 0
M  V30 14604 C 1373.25 1.30577 -1.44826 0
M  V30 14605 O 1372.52 1.85514 -0.629403 0
M  V30 14606 H 1371.1 -0.0173982 -0.746797 0
M  V30 14607 H 1373.76 -0.746919 -1.8002 0
M  V30 14608 H 1372.85 0.0209326 -3.12093 0
M  V30 14609 N 1373.15 1.5451 -0.310553 0
M  V30 14610 C 1374.38 2.05204 0.301013 0
M  V30 14611 C 1374.8 1.1859 1.46007 0
M  V30 14612 O 1374.16 0.192081 1.8028 0
M  V30 14613 C 1374.21 3.53221 0.725767 0
M  V30 14614 O 1373.31 3.69596 1.82955 0
M  V30 14615 H 1372.66 0.661566 0.0568026 0
M  V30 14616 H 1375.19 1.99473 -0.455178 0
M  V30 14617 H 1375.2 3.9525 1.01198 0
M  V30 14618 H 1373.87 4.15721 -0.122046 0
M  V30 14619 H 1372.45 3.39472 1.54315 0
M  V30 14620 N 1374.63 0.0384594 1.57553 0
M  V30 14621 C 1376.05 -0.318006 1.564 0
M  V30 14622 C 1376.25 -1.72287 1.04496 0
M  V30 14623 O 1375.31 -2.42722 0.695861 0
M  V30 14624 C 1376.62 -0.158079 3.00284 0
M  V30 14625 C 1378.17 -0.230143 3.12153 0
M  V30 14626 C 1378.64 -0.0988948 4.57893 0
M  V30 14627 N 1380.13 -0.15558 4.62939 0
M  V30 14628 C 1380.87 -0.077948 5.73347 0
M  V30 14629 N 1380.36 0.0513054 6.92781 0
M  V30 14630 N 1382.16 -0.132612 5.61944 0
M  V30 14631 H 1374.31 0.957014 1.89618 0
M  V30 14632 H 1376.57 0.370396 0.872646 0
M  V30 14633 H 1376.28 0.810032 3.42245 0
M  V30 14634 H 1376.15 -0.924413 3.65697 0
M  V30 14635 H 1378.54 -1.18872 2.70099 0
M  V30 14636 H 1378.62 0.56673 2.49443 0
M  V30 14637 H 1378.26 0.856301 5.00629 0
M  V30 14638 H 1378.19 -0.91475 5.18594 0
M  V30 14639 H 1380.68 -0.255245 3.77037 0
M  V30 14640 H 1381 0.103595 7.72731 0
M  V30 14641 H 1379.34 0.0862166 6.94947 0
M  V30 14642 H 1382.53 -0.232056 4.67524 0
M  V30 14643 H 1382.71 -0.0686506 6.47964 0
M  V30 14644 N 1376.11 -1.55841 -0.234795 0
M  V30 14645 C 1377.06 -1.91326 -1.29086 0
M  V30 14646 C 1378.03 -0.768868 -1.47233 0
M  V30 14647 O 1379.21 -1.0236 -1.61019 0
M  V30 14648 C 1376.35 -2.22388 -2.6389 0
M  V30 14649 C 1375.47 -3.49693 -2.5365 0
M  V30 14650 C 1374.6 -3.70267 -3.80889 0
M  V30 14651 C 1373.64 -4.91132 -3.65317 0
M  V30 14652 N 1372.78 -5.08163 -4.84474 0
M  V30 14653 H 1377.62 -2.81382 -0.981246 0
M  V30 14654 H 1375.15 -1.3928 -0.47324 0
M  V30 14655 H 1377.11 -2.38404 -3.42373 0
M  V30 14656 H 1375.74 -1.35521 -2.92974 0
M  V30 14657 H 1374.79 -3.41943 -1.66672 0
M  V30 14658 H 1376.11 -4.38326 -2.38059 0
M  V30 14659 H 1375.26 -3.86308 -4.67815 0
M  V30 14660 H 1374 -2.7989 -3.9939 0
M  V30 14661 H 1373 -4.75054 -2.76774 0
M  V30 14662 H 1374.23 -5.8298 -3.48298 0
M  V30 14663 H 1372.18 -4.20726 -5.03314 0
M  V30 14664 H 1372.09 -5.90904 -4.71559 0
M  V30 14665 H 1373.36 -5.28627 -5.72865 0
M  V30 14666 N 1377.59 0.500963 -1.49426 0
M  V30 14667 C 1378.82 1.27911 -1.62624 0
M  V30 14668 C 1379.23 1.86439 -0.297651 0
M  V30 14669 O 1378.59 1.67831 0.716879 0
M  V30 14670 C 1378.64 2.40934 -2.69505 0
M  V30 14671 O 1378.36 1.84811 -3.97211 0
M  V30 14672 C 1379.86 3.32305 -2.93408 0
M  V30 14673 H 1377.08 0.387951 -0.547481 0
M  V30 14674 H 1379.63 0.601372 -1.95458 0
M  V30 14675 H 1377.78 3.04537 -2.39449 0
M  V30 14676 H 1378.2 2.59011 -4.56085 0
M  V30 14677 H 1379.67 4.0789 -3.71927 0
M  V30 14678 H 1380.15 3.89301 -2.03325 0
M  V30 14679 H 1380.75 2.74467 -3.24881 0
M  V30 14680 N 1379.07 1.38501 0.752011 0
M  V30 14681 C 1380 1.38577 1.87933 0
M  V30 14682 C 1380.98 0.251454 1.68231 0
M  V30 14683 O 1382.16 0.45477 1.888 0
M  V30 14684 C 1379.29 1.21164 3.25479 0
M  V30 14685 C 1378.25 2.31816 3.59785 0
M  V30 14686 C 1377.57 1.99508 4.96085 0
M  V30 14687 C 1378.87 3.74082 3.645 0
M  V30 14688 H 1380.57 2.32913 1.88127 0
M  V30 14689 H 1378.11 1.12113 0.903698 0
M  V30 14690 H 1380.07 1.19842 4.04 0
M  V30 14691 H 1378.79 0.232899 3.25769 0
M  V30 14692 H 1377.45 2.32327 2.83584 0
M  V30 14693 H 1377.1 1.00114 4.92936 0
M  V30 14694 H 1376.8 2.73617 5.20007 0
M  V30 14695 H 1378.32 1.99807 5.76983 0
M  V30 14696 H 1379.74 3.75593 4.33131 0
M  V30 14697 H 1378.13 4.47409 3.99931 0
M  V30 14698 H 1379.2 4.06284 2.64692 0
M  V30 14699 N 1380.55 -0.980364 1.23396 0
M  V30 14700 C 1381.79 -1.72166 1.06607 0
M  V30 14701 C 1382.12 -1.90405 -0.397029 0
M  V30 14702 O 1381.38 -1.45363 -1.31027 0
M  V30 14703 C 1381.67 -3.12367 1.73671 0
M  V30 14704 C 1381.34 -3.14007 3.2359 0
M  V30 14705 C 1380 -3.14162 3.64494 0
M  V30 14706 C 1382.35 -3.09319 4.19489 0
M  V30 14707 C 1379.68 -3.07345 4.99756 0
M  V30 14708 C 1382.03 -3.04044 5.54743 0
M  V30 14709 C 1380.7 -3.02521 5.9501 0
M  V30 14710 H 1379.97 -0.63 0.390104 0
M  V30 14711 H 1382.62 -1.14727 1.5333 0
M  V30 14712 H 1380.92 -3.73193 1.19308 0
M  V30 14713 H 1382.62 -3.68493 1.58159 0
M  V30 14714 H 1379.21 -3.14644 2.91028 0
M  V30 14715 H 1383.39 -3.08339 3.88897 0
M  V30 14716 H 1378.65 -3.04519 5.30168 0
M  V30 14717 H 1382.82 -2.99374 6.28767 0
M  V30 14718 H 1380.45 -2.96994 6.99785 0
M  V30 14719 N 1382.02 -1.04567 -1.17913 0
M  V30 14720 C 1383.27 -0.753137 -1.88297 0
M  V30 14721 C 1383.6 0.717651 -1.80453 0
M  V30 14722 O 1382.88 1.5242 -1.20824 0
M  V30 14723 C 1383.16 -1.22626 -3.38578 0
M  V30 14724 C 1383.01 -2.75952 -3.55205 0
M  V30 14725 C 1384.33 -0.82029 -4.32388 0
M  V30 14726 H 1381.45 -0.275067 -0.683745 0
M  V30 14727 H 1384.09 -1.29856 -1.38699 0
M  V30 14728 H 1382.24 -0.762246 -3.80949 0
M  V30 14729 H 1383.92 -3.30429 -3.21892 0
M  V30 14730 H 1382.16 -3.15534 -2.97693 0
M  V30 14731 H 1382.83 -3.04116 -4.60671 0
M  V30 14732 H 1385.31 -1.21965 -3.97824 0
M  V30 14733 H 1384.18 -1.17902 -5.36088 0
M  V30 14734 H 1384.44 0.276205 -4.41236 0
M  V30 14735 N 1383.5 1.34231 -0.825823 0
M  V30 14736 C 1384.43 2.31997 -0.264546 0
M  V30 14737 C 1385.41 1.58375 0.620592 0
M  V30 14738 O 1386.6 1.86341 0.546865 0
M  V30 14739 C 1383.73 3.42557 0.572025 0
M  V30 14740 C 1382.68 4.27454 -0.216219 0
M  V30 14741 C 1382.01 5.29509 0.743279 0
M  V30 14742 C 1383.31 5.02456 -1.42603 0
M  V30 14743 H 1385 2.79189 -1.08139 0
M  V30 14744 H 1382.55 1.34227 -0.521451 0
M  V30 14745 H 1384.5 4.09968 0.974889 0
M  V30 14746 H 1383.22 2.94021 1.42195 0
M  V30 14747 H 1381.88 3.61649 -0.600485 0
M  V30 14748 H 1381.53 4.77234 1.58924 0
M  V30 14749 H 1381.23 5.87188 0.220064 0
M  V30 14750 H 1382.76 5.99789 1.14394 0
M  V30 14751 H 1384.17 5.62706 -1.09702 0
M  V30 14752 H 1382.57 5.69723 -1.88509 0
M  V30 14753 H 1383.64 4.31983 -2.2027 0
M  V30 14754 N 1384.98 0.581051 1.46498 0
M  V30 14755 C 1385.94 -0.142937 2.28754 0
M  V30 14756 C 1386.94 -0.820383 1.38298 0
M  V30 14757 O 1388.13 -0.672592 1.60692 0
M  V30 14758 C 1385.26 -1.21176 3.18637 0
M  V30 14759 H 1386.46 0.579918 2.9424 0
M  V30 14760 H 1384.01 0.338951 1.52581 0
M  V30 14761 H 1384.75 -1.96624 2.57894 0
M  V30 14762 H 1384.53 -0.730517 3.85235 0
M  V30 14763 H 1386.02 -1.71958 3.80552 0
M  V30 14764 N 1386.46 -1.54343 0.318742 0
M  V30 14765 C 1387.41 -2.20892 -0.564849 0
M  V30 14766 C 1388.39 -1.18782 -1.08534 0
M  V30 14767 O 1389.58 -1.44431 -1.02316 0
M  V30 14768 C 1386.71 -2.96661 -1.72763 0
M  V30 14769 C 1385.8 -4.06105 -1.22226 0
M  V30 14770 N 1386.19 -5.03916 -0.436203 0
M  V30 14771 C 1384.49 -4.19968 -1.50142 0
M  V30 14772 C 1385.19 -5.81466 -0.164875 0
M  V30 14773 N 1384.16 -5.38406 -0.74966 0
M  V30 14774 H 1387.97 -2.93868 0.0430622 0
M  V30 14775 H 1385.48 -1.61923 0.124362 0
M  V30 14776 H 1387.48 -3.42819 -2.37236 0
M  V30 14777 H 1386.14 -2.25206 -2.33907 0
M  V30 14778 H 1387.15 -5.17839 -0.0794815 0
M  V30 14779 H 1383.83 -3.59726 -2.11905 0
M  V30 14780 H 1385.22 -6.70271 0.467617 0
M  V30 14781 N 1387.94 -0.0468143 -1.5753 0
M  V30 14782 C 1389.16 0.637648 -1.96829 0
M  V30 14783 C 1389.58 1.64635 -0.924158 0
M  V30 14784 O 1388.94 1.82267 0.0921139 0
M  V30 14785 C 1388.99 1.32842 -3.36207 0
M  V30 14786 O 1388.71 0.360111 -4.36617 0
M  V30 14787 C 1390.21 2.10305 -3.90239 0
M  V30 14788 H 1387.43 0.174634 -0.647876 0
M  V30 14789 H 1389.97 -0.111824 -2.04194 0
M  V30 14790 H 1388.13 2.02915 -3.30006 0
M  V30 14791 H 1388.54 0.852661 -5.17523 0
M  V30 14792 H 1390.02 2.54065 -4.90056 0
M  V30 14793 H 1390.49 2.94942 -3.25432 0
M  V30 14794 H 1391.1 1.45152 -3.99764 0
M  V30 14795 N 1389.41 1.55964 0.226527 0
M  V30 14796 C 1390.69 1.69528 0.975689 0
M  V30 14797 C 1391.07 0.592635 2.02611 0
M  V30 14798 O 1390.42 -0.401073 2.24953 0
M  V30 14799 C 1390.63 3.10644 1.59063 0
M  V30 14800 C 1391.98 3.69895 2.08478 0
M  V30 14801 O 1393 3.13574 1.68966 0
M  V30 14802 O 1391.86 4.68672 2.81085 0
M  V30 14803 H 1388.95 0.690285 0.455451 0
M  V30 14804 H 1391.5 1.68285 0.218702 0
M  V30 14805 H 1390.27 3.82355 0.831903 0
M  V30 14806 H 1389.9 3.15984 2.41329 0
M  V30 14807 N 1390.89 -0.493031 1.4969 0
M  V30 14808 C 1392.31 -0.824908 1.36629 0
M  V30 14809 C 1392.51 -1.97378 0.405487 0
M  V30 14810 O 1391.56 -2.51993 -0.159933 0
M  V30 14811 C 1392.88 -1.15761 2.77524 0
M  V30 14812 C 1394.43 -1.26536 2.86282 0
M  V30 14813 C 1394.9 -1.63131 4.27963 0
M  V30 14814 N 1396.39 -1.70165 4.30811 0
M  V30 14815 C 1397.13 -1.99942 5.37411 0
M  V30 14816 N 1396.62 -2.27888 6.54247 0
M  V30 14817 N 1398.42 -2.0126 5.24834 0
M  V30 14818 H 1390.57 0.264433 2.10748 0
M  V30 14819 H 1392.83 0.0557306 0.94636 0
M  V30 14820 H 1392.54 -0.386714 3.49567 0
M  V30 14821 H 1392.41 -2.09915 3.13393 0
M  V30 14822 H 1394.8 -2.02696 2.14472 0
M  V30 14823 H 1394.88 -0.304137 2.53986 0
M  V30 14824 H 1394.52 -0.875184 5.00303 0
M  V30 14825 H 1394.45 -2.60367 4.5773 0
M  V30 14826 H 1396.94 -1.50696 3.46553 0
M  V30 14827 H 1397.26 -2.4982 7.31307 0
M  V30 14828 H 1395.6 -2.25327 6.57459 0
M  V30 14829 H 1398.79 -1.78909 4.32561 0
M  V30 14830 H 1398.96 -2.24131 6.08004 0
M  V30 14831 N 1392.37 -1.38898 -0.744656 0
M  V30 14832 C 1393.62 -1.35795 -1.50623 0
M  V30 14833 C 1393.95 0.0491775 -1.94138 0
M  V30 14834 O 1393.22 1.01219 -1.66087 0
M  V30 14835 C 1393.51 -2.32168 -2.75263 0
M  V30 14836 C 1393.36 -3.81781 -2.3783 0
M  V30 14837 C 1394.68 -2.26526 -3.77325 0
M  V30 14838 H 1391.8 -0.494591 -0.546396 0
M  V30 14839 H 1394.44 -1.69816 -0.852211 0
M  V30 14840 H 1392.59 -2.03287 -3.31069 0
M  V30 14841 H 1394.26 -4.21373 -1.8773 0
M  V30 14842 H 1392.51 -3.99027 -1.70176 0
M  V30 14843 H 1393.18 -4.44687 -3.27044 0
M  V30 14844 H 1395.65 -2.52041 -3.31081 0
M  V30 14845 H 1394.53 -2.96053 -4.62216 0
M  V30 14846 H 1394.79 -1.26705 -4.23554 0
M  V30 14847 N 1393.85 0.973806 -1.23914 0
M  V30 14848 C 1395.07 1.7564 -1.10296 0
M  V30 14849 C 1395.5 1.84984 0.340954 0
M  V30 14850 O 1394.86 1.31629 1.24674 0
M  V30 14851 C 1394.9 3.15809 -1.7406 0
M  V30 14852 O 1394.01 3.99911 -1.00722 0
M  V30 14853 H 1393.35 0.540133 -0.386202 0
M  V30 14854 H 1395.88 1.22197 -1.64101 0
M  V30 14855 H 1395.89 3.66359 -1.79568 0
M  V30 14856 H 1394.56 3.08324 -2.79122 0
M  V30 14857 H 1393.14 3.58405 -1.02956 0
M  V30 14858 N 1395.33 1.05191 1.17357 0
M  V30 14859 C 1396.57 0.760479 1.87246 0
M  V30 14860 C 1396.9 -0.714618 1.81434 0
M  V30 14861 O 1396.17 -1.51636 1.24029 0
M  V30 14862 H 1394.75 0.278317 0.693216 0
M  V30 14863 H 1397.41 1.33106 1.42369 0
M  V30 14864 H 1396.5 1.07542 2.92987 0
M  V30 14865 N 1396.8 -1.33791 0.83293 0
M  V30 14866 C 1397.73 -2.31853 0.276846 0
M  V30 14867 C 1398.72 -1.58702 -0.612184 0
M  V30 14868 O 1399.9 -1.86629 -0.536975 0
M  V30 14869 C 1397.03 -3.42855 -0.55385 0
M  V30 14870 C 1395.98 -4.27333 0.238884 0
M  V30 14871 C 1395.31 -5.29895 -0.715187 0
M  V30 14872 C 1396.61 -5.01692 1.45265 0
M  V30 14873 H 1398.3 -2.78611 1.09618 0
M  V30 14874 H 1395.85 -1.33949 0.528562 0
M  V30 14875 H 1397.8 -4.10479 -0.953133 0
M  V30 14876 H 1396.53 -2.94771 -1.40634 0
M  V30 14877 H 1395.19 -3.61325 0.619656 0
M  V30 14878 H 1394.83 -4.7807 -1.56391 0
M  V30 14879 H 1394.53 -5.87296 -0.188921 0
M  V30 14880 H 1396.06 -6.00387 -1.11211 0
M  V30 14881 H 1397.47 -5.62117 1.12685 0
M  V30 14882 H 1395.87 -5.68715 1.91528 0
M  V30 14883 H 1396.94 -4.30809 2.22558 0
M  V30 14884 N 1398.28 -0.588812 -1.46187 0
M  V30 14885 C 1399.21 0.128595 -2.33146 0
M  V30 14886 C 1400.19 0.877608 -1.45712 0
M  V30 14887 O 1401.38 0.851866 -1.74519 0
M  V30 14888 C 1398.51 1.13886 -3.28096 0
M  V30 14889 C 1397.46 0.504296 -4.25019 0
M  V30 14890 C 1396.79 1.62147 -5.09522 0
M  V30 14891 C 1398.09 -0.562466 -5.19263 0
M  V30 14892 H 1399.78 -0.597455 -2.93378 0
M  V30 14893 H 1397.33 -0.288764 -1.41075 0
M  V30 14894 H 1399.28 1.64916 -3.8779 0
M  V30 14895 H 1398.01 1.89527 -2.65983 0
M  V30 14896 H 1396.66 0.0150325 -3.66597 0
M  V30 14897 H 1396.31 2.36769 -4.4379 0
M  V30 14898 H 1396.01 1.20249 -5.75164 0
M  V30 14899 H 1397.54 2.13441 -5.7208 0
M  V30 14900 H 1398.95 -0.137003 -5.73136 0
M  V30 14901 H 1397.35 -0.902115 -5.93281 0
M  V30 14902 H 1398.42 -1.4464 -4.62825 0
M  V30 14903 N 1399.76 1.54172 -0.326923 0
M  V30 14904 C 1401.18 1.59579 0.0256055 0
M  V30 14905 C 1401.38 1.34337 1.50186 0
M  V30 14906 O 1400.43 1.12945 2.25831 0
M  V30 14907 C 1401.75 2.98086 -0.395641 0
M  V30 14908 C 1403.29 3.11075 -0.346579 0
M  V30 14909 C 1403.77 4.51932 -0.743039 0
M  V30 14910 N 1405.26 4.57932 -0.696575 0
M  V30 14911 C 1405.99 5.65041 -0.975493 0
M  V30 14912 N 1405.49 6.80075 -1.32172 0
M  V30 14913 N 1407.28 5.54835 -0.900831 0
M  V30 14914 H 1399.43 1.68836 -1.28872 0
M  V30 14915 H 1401.7 0.789858 -0.52424 0
M  V30 14916 H 1401.4 3.21568 -1.42431 0
M  V30 14917 H 1401.28 3.76451 0.237645 0
M  V30 14918 H 1403.66 2.87326 0.672889 0
M  V30 14919 H 1403.75 2.34807 -1.01484 0
M  V30 14920 H 1403.39 4.76415 -1.76044 0
M  V30 14921 H 1403.32 5.26574 -0.0524263 0
M  V30 14922 H 1405.81 3.75318 -0.440969 0
M  V30 14923 H 1406.12 7.57708 -1.51983 0
M  V30 14924 H 1404.47 6.81563 -1.36001 0
M  V30 14925 H 1407.66 4.63844 -0.629812 0
M  V30 14926 H 1407.83 6.3822 -1.12156 0
M  V30 14927 N 1401.24 0.0551678 1.57503 0
M  V30 14928 C 1402.2 -0.903065 2.10659 0
M  V30 14929 C 1403.2 -1.23728 1.02703 0
M  V30 14930 O 1404.39 -1.17331 1.2876 0
M  V30 14931 C 1401.52 -2.21171 2.59415 0
M  V30 14932 H 1402.72 -0.442197 2.96622 0
M  V30 14933 H 1400.27 -0.193297 1.551 0
M  V30 14934 H 1401 -2.71831 1.76858 0
M  V30 14935 H 1400.79 -1.98216 3.38309 0
M  V30 14936 H 1402.28 -2.89802 3.00674 0
M  V30 14937 N 1402.72 -1.56081 -0.218252 0
M  V30 14938 C 1403.94 -1.83681 -0.963119 0
M  V30 14939 C 1404.37 -0.635909 -1.77025 0
M  V30 14940 O 1403.72 0.415327 -1.76479 0
M  V30 14941 C 1403.77 -3.09302 -1.85376 0
M  V30 14942 O 1402.88 -2.88228 -2.94955 0
M  V30 14943 H 1402.22 -0.605495 -0.272529 0
M  V30 14944 H 1404.75 -2.03297 -0.230567 0
M  V30 14945 H 1404.76 -3.39493 -2.26294 0
M  V30 14946 H 1403.43 -3.96337 -1.26054 0
M  V30 14947 H 1402.01 -2.69279 -2.57959 0
M  V30 14948 N 1404.2 0.485086 -1.49949 0
M  V30 14949 C 1405.44 1.23816 -1.60237 0
M  V30 14950 C 1405.77 1.9223 -0.296274 0
M  V30 14951 O 1405.03 1.82095 0.716939 0
M  V30 14952 C 1405.32 2.31573 -2.72229 0
M  V30 14953 C 1404.99 1.80508 -4.13192 0
M  V30 14954 C 1403.65 1.66301 -4.5155 0
M  V30 14955 C 1406 1.42471 -5.0135 0
M  V30 14956 C 1403.33 1.1246 -5.75821 0
M  V30 14957 C 1405.68 0.900757 -6.26154 0
M  V30 14958 C 1404.35 0.74521 -6.63327 0
M  V30 14959 H 1403.62 0.453075 -0.586348 0
M  V30 14960 H 1406.27 0.536349 -1.83836 0
M  V30 14961 H 1404.57 3.07606 -2.42663 0
M  V30 14962 H 1406.27 2.89574 -2.77395 0
M  V30 14963 H 1402.86 1.92529 -3.82924 0
M  V30 14964 H 1407.04 1.52287 -4.72358 0
M  V30 14965 H 1402.3 0.991422 -6.03308 0
M  V30 14966 H 1406.47 0.5973 -6.93834 0
M  V30 14967 H 1404.1 0.325838 -7.59501 0
M  V30 14968 N 1405.67 1.39291 0.737279 0
M  V30 14969 C 1406.6 1.40562 1.86452 0
M  V30 14970 C 1407.58 0.269283 1.67955 0
M  V30 14971 O 1408.77 0.474769 1.88307 0
M  V30 14972 C 1405.9 1.2461 3.24175 0
M  V30 14973 C 1404.85 2.35619 3.57306 0
M  V30 14974 C 1404.18 2.04758 4.93941 0
M  V30 14975 C 1405.48 3.77927 3.60512 0
M  V30 14976 H 1407.17 2.34896 1.85646 0
M  V30 14977 H 1404.72 1.13065 0.891756 0
M  V30 14978 H 1406.67 1.2412 4.02706 0
M  V30 14979 H 1405.4 0.267438 3.25503 0
M  V30 14980 H 1404.06 2.35322 2.81104 0
M  V30 14981 H 1403.7 1.05336 4.91847 0
M  V30 14982 H 1403.4 2.79117 5.17076 0
M  V30 14983 H 1404.93 2.05915 5.74832 0
M  V30 14984 H 1406.34 3.80166 4.29123 0
M  V30 14985 H 1404.74 4.51626 3.95164 0
M  V30 14986 H 1405.81 4.09068 2.60368 0
M  V30 14987 N 1407.15 -0.967221 1.24429 0
M  V30 14988 C 1408.08 -2.07966 1.06172 0
M  V30 14989 C 1409.06 -1.70081 -0.0254566 0
M  V30 14990 O 1410.25 -1.93682 0.141705 0
M  V30 14991 C 1407.38 -3.4085 0.666251 0
M  V30 14992 C 1406.33 -3.92692 1.70225 0
M  V30 14993 C 1405.66 -5.21925 1.16183 0
M  V30 14994 C 1406.96 -4.20478 3.09831 0
M  V30 14995 H 1408.65 -2.23497 1.99222 0
M  V30 14996 H 1406.2 -1.07398 0.959255 0
M  V30 14997 H 1408.15 -4.1811 0.52552 0
M  V30 14998 H 1406.87 -3.2522 -0.299939 0
M  V30 14999 H 1405.53 -3.17588 1.83121 0
M  V30 15000 H 1405.18 -5.02655 0.186237 0
M  V30 15001 H 1404.88 -5.57579 1.85416 0
M  V30 15002 H 1406.41 -6.01795 1.03323 0
M  V30 15003 H 1407.82 -4.88442 3.00162 0
M  V30 15004 H 1406.22 -4.67362 3.7642 0
M  V30 15005 H 1407.29 -3.27235 3.57834 0
M  V30 15006 N 1408.63 -1.05812 -1.16797 0
M  V30 15007 C 1409.59 -0.668766 -2.19226 0
M  V30 15008 C 1410.59 0.28299 -1.5829 0
M  V30 15009 O 1411.78 0.0660233 -1.74075 0
M  V30 15010 C 1408.91 0.0167379 -3.40896 0
M  V30 15011 H 1410.11 -1.57543 -2.55187 0
M  V30 15012 H 1407.66 -0.852753 -1.30988 0
M  V30 15013 H 1408.4 0.936382 -3.10487 0
M  V30 15014 H 1408.18 -0.667576 -3.86375 0
M  V30 15015 H 1409.67 0.275041 -4.16693 0
M  V30 15016 N 1410.11 1.33347 -0.840014 0
M  V30 15017 C 1411.04 2.28029 -0.231432 0
M  V30 15018 C 1412.05 1.51792 0.588488 0
M  V30 15019 O 1413.24 1.736 0.415371 0
M  V30 15020 C 1410.34 3.31745 0.692721 0
M  V30 15021 C 1409.51 4.37311 -0.0881144 0
M  V30 15022 C 1408.57 5.20689 0.759557 0
M  V30 15023 O 1407.6 5.68854 0.198347 0
M  V30 15024 N 1408.8 5.42082 2.07672 0
M  V30 15025 H 1411.57 2.80893 -1.04495 0
M  V30 15026 H 1409.13 1.46053 -0.698586 0
M  V30 15027 H 1411.12 3.84428 1.2648 0
M  V30 15028 H 1409.69 2.79148 1.40695 0
M  V30 15029 H 1408.91 3.85112 -0.841579 0
M  V30 15030 H 1410.2 5.04947 -0.624986 0
M  V30 15031 H 1409.6 5.04654 2.55619 0
M  V30 15032 H 1408.15 5.97817 2.59726 0
M  V30 15033 N 1411.59 0.596556 1.45873 0
M  V30 15034 C 1412.52 -0.166704 2.28593 0
M  V30 15035 C 1413.53 -0.84231 1.39316 0
M  V30 15036 O 1414.72 -0.709548 1.63792 0
M  V30 15037 C 1411.82 -1.25641 3.1475 0
M  V30 15038 C 1410.99 -0.67006 4.32237 0
M  V30 15039 C 1410.05 -1.64924 4.99686 0
M  V30 15040 O 1409.08 -1.17986 5.56838 0
M  V30 15041 N 1410.28 -2.98355 4.9796 0
M  V30 15042 H 1413.04 0.543045 2.94739 0
M  V30 15043 H 1410.61 0.435274 1.55939 0
M  V30 15044 H 1412.6 -1.91104 3.56737 0
M  V30 15045 H 1411.17 -1.86883 2.50586 0
M  V30 15046 H 1410.39 0.162375 3.93865 0
M  V30 15047 H 1411.68 -0.258345 5.08144 0
M  V30 15048 H 1411.07 -3.39101 4.52799 0
M  V30 15049 H 1409.63 -3.5927 5.43846 0
M  V30 15050 N 1413.06 -1.53996 0.335095 0
M  V30 15051 C 1414.48 -1.59591 -0.0171422 0
M  V30 15052 C 1414.68 -1.35132 -1.49471 0
M  V30 15053 O 1413.74 -1.14141 -2.25229 0
M  V30 15054 C 1415.05 -2.97872 0.411443 0
M  V30 15055 C 1416.6 -3.10887 0.363072 0
M  V30 15056 C 1417.07 -4.51532 0.766995 0
M  V30 15057 N 1418.56 -4.57557 0.72085 0
M  V30 15058 C 1419.3 -5.64516 1.00544 0
M  V30 15059 N 1418.79 -6.79365 1.35777 0
M  V30 15060 N 1420.59 -5.54349 0.930243 0
M  V30 15061 H 1412.74 -1.68151 1.29766 0
M  V30 15062 H 1415 -0.787067 0.528422 0
M  V30 15063 H 1414.71 -3.20809 1.44134 0
M  V30 15064 H 1414.58 -3.76571 -0.217678 0
M  V30 15065 H 1416.97 -2.87679 -0.657642 0
M  V30 15066 H 1417.05 -2.34266 1.02728 0
M  V30 15067 H 1416.69 -4.75474 1.78568 0
M  V30 15068 H 1416.62 -5.26539 0.0803511 0
M  V30 15069 H 1419.11 -3.75079 0.460867 0
M  V30 15070 H 1419.43 -7.56891 1.55999 0
M  V30 15071 H 1417.77 -6.80833 1.39614 0
M  V30 15072 H 1420.96 -4.63503 0.654402 0
M  V30 15073 H 1421.14 -6.37616 1.15539 0
M  V30 15074 N 1414.54 -0.0635198 -1.57472 0
M  V30 15075 C 1415.47 0.90431 -2.15278 0
M  V30 15076 C 1416.45 1.31609 -1.07764 0
M  V30 15077 O 1417.64 1.38861 -1.35762 0
M  V30 15078 C 1414.77 2.17483 -2.70774 0
M  V30 15079 C 1413.72 1.90272 -3.8338 0
M  V30 15080 C 1413.05 3.23885 -4.25444 0
M  V30 15081 C 1414.35 1.21454 -5.07983 0
M  V30 15082 H 1416.04 0.422786 -2.964 0
M  V30 15083 H 1413.59 0.201918 -1.42577 0
M  V30 15084 H 1415.54 2.856 -3.09856 0
M  V30 15085 H 1414.26 2.67863 -1.86861 0
M  V30 15086 H 1412.92 1.24564 -3.44789 0
M  V30 15087 H 1412.57 3.72089 -3.38465 0
M  V30 15088 H 1412.27 3.06472 -5.01347 0
M  V30 15089 H 1413.8 3.93212 -4.67137 0
M  V30 15090 H 1415.21 1.79625 -5.44433 0
M  V30 15091 H 1413.61 1.14327 -5.89109 0
M  V30 15092 H 1414.68 0.19238 -4.84518 0
M  V30 15093 N 1416.02 1.56195 0.209972 0
M  V30 15094 C 1416.95 1.96378 1.26324 0
M  V30 15095 C 1417.93 0.833606 1.48273 0
M  V30 15096 O 1419.12 1.0968 1.60262 0
M  V30 15097 C 1416.25 2.29048 2.61064 0
M  V30 15098 C 1415.2 3.44665 2.53752 0
M  V30 15099 C 1414.53 3.6297 3.92628 0
M  V30 15100 C 1415.83 4.79297 2.07536 0
M  V30 15101 H 1417.52 2.8461 0.929379 0
M  V30 15102 H 1415.07 1.36931 0.445627 0
M  V30 15103 H 1417.02 2.55752 3.34916 0
M  V30 15104 H 1415.74 1.37682 2.96161 0
M  V30 15105 H 1414.4 3.18028 1.82356 0
M  V30 15106 H 1414.05 2.68961 4.25052 0
M  V30 15107 H 1413.75 4.40741 3.88614 0
M  V30 15108 H 1415.27 3.92035 4.68125 0
M  V30 15109 H 1416.69 5.05131 2.71138 0
M  V30 15110 H 1415.08 5.60433 2.14557 0
M  V30 15111 H 1416.15 4.73877 1.02802 0
M  V30 15112 N 1417.5 -0.477127 1.50204 0
M  V30 15113 C 1418.41 -1.60182 1.71403 0
M  V30 15114 C 1419.42 -1.63437 0.597009 0
M  V30 15115 O 1420.6 -1.81418 0.874614 0
M  V30 15116 C 1417.66 -2.96432 1.79802 0
M  V30 15117 C 1416.73 -3.03614 3.03508 0
M  V30 15118 C 1415.96 -4.33365 3.11497 0
M  V30 15119 O 1416.18 -5.23529 2.26438 0
M  V30 15120 O 1415.12 -4.46013 4.04173 0
M  V30 15121 H 1418.94 -1.45221 2.66729 0
M  V30 15122 H 1416.53 -0.655982 1.34228 0
M  V30 15123 H 1418.41 -3.77367 1.87542 0
M  V30 15124 H 1417.08 -3.11605 0.876581 0
M  V30 15125 H 1415.99 -2.21779 3.01272 0
M  V30 15126 H 1417.32 -2.93376 3.95211 0
M  V30 15127 N 1418.98 -1.3968 -0.729882 0
M  V30 15128 C 1420.25 -1.27689 -1.48172 0
M  V30 15129 C 1420.63 0.111239 -2.10807 0
M  V30 15130 O 1419.98 1.12289 -1.99006 0
M  V30 15131 C 1420.19 -2.40505 -2.529 0
M  V30 15132 C 1421.54 -2.80064 -3.19138 0
M  V30 15133 O 1422.56 -2.39992 -2.63215 0
M  V30 15134 O 1421.42 -3.49248 -4.20342 0
M  V30 15135 H 1418.52 -0.500674 -0.658221 0
M  V30 15136 H 1421.06 -1.51566 -0.763272 0
M  V30 15137 H 1419.83 -3.33282 -2.05033 0
M  V30 15138 H 1419.46 -2.1832 -3.32298 0
M  V30 15139 N 1420.45 0.960609 -1.2494 0
M  V30 15140 C 1421.87 1.23057 -1.01633 0
M  V30 15141 C 1422.07 1.99676 0.270527 0
M  V30 15142 O 1421.13 2.32503 0.984823 0
M  V30 15143 C 1422.44 2.01078 -2.2358 0
M  V30 15144 C 1423.99 2.14144 -2.28279 0
M  V30 15145 C 1424.46 2.95563 -3.49867 0
M  V30 15146 N 1425.95 3.03143 -3.50227 0
M  V30 15147 C 1426.69 3.66518 -4.40967 0
M  V30 15148 N 1426.18 4.31553 -5.41972 0
M  V30 15149 N 1427.98 3.636 -4.28663 0
M  V30 15150 H 1420.13 0.447876 -2.07624 0
M  V30 15151 H 1422.39 0.260581 -0.911483 0
M  V30 15152 H 1422.1 1.52172 -3.17075 0
M  V30 15153 H 1421.97 3.01797 -2.2627 0
M  V30 15154 H 1424.36 2.6225 -1.35311 0
M  V30 15155 H 1424.44 1.1275 -2.29611 0
M  V30 15156 H 1424.08 2.48149 -4.43153 0
M  V30 15157 H 1424.01 3.9717 -3.45779 0
M  V30 15158 H 1426.5 2.56888 -2.77159 0
M  V30 15159 H 1426.82 4.7775 -6.07433 0
M  V30 15160 H 1425.16 4.302 -5.45851 0
M  V30 15161 H 1428.35 3.11973 -3.48985 0
M  V30 15162 H 1428.53 4.12706 -4.99578 0
M  V30 15163 N 1421.93 1.0643 1.16234 0
M  V30 15164 C 1422.88 0.676311 2.20669 0
M  V30 15165 C 1423.85 -0.327721 1.62835 0
M  V30 15166 O 1425.03 -0.216296 1.8957 0
M  V30 15167 C 1422.17 0.0703726 3.45028 0
M  V30 15168 C 1421.29 1.12475 4.17101 0
M  V30 15169 C 1420.42 0.484806 5.28983 0
M  V30 15170 C 1419.46 1.52262 5.9286 0
M  V30 15171 N 1418.6 0.905938 6.96231 0
M  V30 15172 H 1423.44 1.57129 2.53209 0
M  V30 15173 H 1420.98 0.7856 1.24365 0
M  V30 15174 H 1422.93 -0.298488 4.16131 0
M  V30 15175 H 1421.56 -0.788002 3.13034 0
M  V30 15176 H 1420.62 1.6113 3.44589 0
M  V30 15177 H 1421.93 1.91202 4.60698 0
M  V30 15178 H 1421.08 0.0630553 6.06667 0
M  V30 15179 H 1419.82 -0.334332 4.86553 0
M  V30 15180 H 1418.83 1.95425 5.13896 0
M  V30 15181 H 1420.05 2.34388 6.37369 0
M  V30 15182 H 1418 0.107536 6.55912 0
M  V30 15183 H 1417.91 1.63058 7.38206 0
M  V30 15184 H 1419.18 0.509378 7.77834 0
M  V30 15185 N 1423.41 -1.329 0.847073 0
M  V30 15186 C 1424.69 -1.921 0.368351 0
M  V30 15187 C 1425.07 -1.77205 -1.14724 0
M  V30 15188 O 1424.42 -1.16547 -1.96543 0
M  V30 15189 C 1424.63 -3.39125 0.824326 0
M  V30 15190 C 1425.97 -4.16267 0.837097 0
M  V30 15191 O 1427 -3.47812 0.768466 0
M  V30 15192 O 1425.86 -5.38487 0.932389 0
M  V30 15193 H 1422.95 -0.820187 0.105936 0
M  V30 15194 H 1425.5 -1.41719 0.933471 0
M  V30 15195 H 1424.27 -3.43875 1.86723 0
M  V30 15196 H 1423.89 -3.96898 0.236233 0
M  V30 15197 N 1424.89 -0.604284 -1.45555 0
M  V30 15198 C 1426.13 -0.0983316 -2.02561 0
M  V30 15199 C 1426.47 1.26659 -1.47211 0
M  V30 15200 O 1425.74 1.83476 -0.645519 0
M  V30 15201 C 1426.03 -0.0558349 -3.60057 0
M  V30 15202 C 1425.88 -1.45119 -4.25747 0
M  V30 15203 C 1427.2 0.633708 -4.35514 0
M  V30 15204 H 1424.32 -0.0372071 -0.73606 0
M  V30 15205 H 1426.96 -0.775623 -1.73448 0
M  V30 15206 H 1425.11 0.520935 -3.84992 0
M  V30 15207 H 1426.78 -2.07478 -4.12008 0
M  V30 15208 H 1425.02 -2.01283 -3.84275 0
M  V30 15209 H 1425.69 -1.37372 -5.34633 0
M  V30 15210 H 1428.17 0.143501 -4.15852 0
M  V30 15211 H 1427.05 0.632538 -5.45243 0
M  V30 15212 H 1427.31 1.69917 -4.08143 0
M  V30 15213 N 1426.37 1.53816 -0.343257 0
M  V30 15214 C 1427.61 2.01207 0.253721 0
M  V30 15215 C 1427.95 1.23069 1.50225 0
M  V30 15216 O 1427.22 0.31824 1.91879 0
M  V30 15217 C 1427.5 3.5559 0.56815 0
M  V30 15218 C 1427.36 4.44438 -0.692457 0
M  V30 15219 C 1428.68 4.17974 1.37788 0
M  V30 15220 H 1425.79 0.731392 0.0907427 0
M  V30 15221 H 1428.44 1.84254 -0.463736 0
M  V30 15222 H 1426.59 3.70166 1.17937 0
M  V30 15223 H 1428.26 4.41698 -1.33042 0
M  V30 15224 H 1426.5 4.13312 -1.3174 0
M  V30 15225 H 1427.17 5.5034 -0.427715 0
M  V30 15226 H 1429.65 4.07094 0.861043 0
M  V30 15227 H 1428.52 5.26068 1.56663 0
M  V30 15228 H 1428.79 3.72577 2.3799 0
M  V30 15229 N 1427.84 0.0718701 1.57436 0
M  V30 15230 C 1429.09 -0.598116 1.93779 0
M  V30 15231 C 1429.42 -1.69258 0.952131 0
M  V30 15232 O 1428.7 -1.94491 -0.0186426 0
M  V30 15233 C 1428.98 -1.17499 3.40391 0
M  V30 15234 C 1428.83 -0.0871719 4.49716 0
M  V30 15235 C 1430.15 -2.08047 3.8782 0
M  V30 15236 H 1427.27 -0.215954 0.704651 0
M  V30 15237 H 1429.91 0.137854 1.89499 0
M  V30 15238 H 1428.06 -1.80221 3.44169 0
M  V30 15239 H 1429.74 0.545906 4.58058 0
M  V30 15240 H 1427.98 0.582213 4.29875 0
M  V30 15241 H 1428.65 -0.531202 5.49438 0
M  V30 15242 H 1431.13 -1.5526 3.86049 0
M  V30 15243 H 1430 -2.45345 4.91016 0
M  V30 15244 H 1430.26 -2.98879 3.25766 0
M  V30 15245 N 1429.32 -1.56304 -0.201686 0
M  V30 15246 C 1430.25 -1.97046 -1.25281 0
M  V30 15247 C 1431.23 -0.841458 -1.47829 0
M  V30 15248 O 1432.42 -1.10529 -1.59678 0
M  V30 15249 C 1429.55 -2.30429 -2.59845 0
M  V30 15250 C 1428.5 -3.46006 -2.5192 0
M  V30 15251 C 1427.83 -3.65047 -3.90697 0
M  V30 15252 C 1429.13 -4.80391 -2.04992 0
M  V30 15253 H 1430.82 -2.85099 -0.914272 0
M  V30 15254 H 1428.37 -1.37166 -0.438359 0
M  V30 15255 H 1430.32 -2.57525 -3.33555 0
M  V30 15256 H 1429.05 -1.39251 -2.95426 0
M  V30 15257 H 1427.7 -3.18991 -1.80667 0
M  V30 15258 H 1427.35 -2.71211 -4.2362 0
M  V30 15259 H 1427.05 -4.42796 -3.86271 0
M  V30 15260 H 1428.58 -3.94512 -4.66039 0
M  V30 15261 H 1429.99 -5.06561 -2.68456 0
M  V30 15262 H 1428.39 -5.61563 -2.11582 0
M  V30 15263 H 1429.46 -4.74416 -1.00288 0
M  V30 15264 N 1430.8 0.469154 -1.50455 0
M  V30 15265 C 1432.05 1.2229 -1.6178 0
M  V30 15266 C 1432.38 1.91577 -0.318073 0
M  V30 15267 O 1431.65 1.82205 0.68057 0
M  V30 15268 C 1431.94 2.26504 -2.79943 0
M  V30 15269 C 1431.79 1.61509 -4.19804 0
M  V30 15270 C 1433.11 3.27796 -2.93662 0
M  V30 15271 H 1430.23 0.443241 -0.588817 0
M  V30 15272 H 1432.87 0.516431 -1.82847 0
M  V30 15273 H 1431.02 2.86757 -2.62112 0
M  V30 15274 H 1432.69 1.04838 -4.49229 0
M  V30 15275 H 1430.94 0.918162 -4.23972 0
M  V30 15276 H 1431.61 2.37248 -4.98415 0
M  V30 15277 H 1434.08 2.77568 -3.09992 0
M  V30 15278 H 1432.96 3.98041 -3.77961 0
M  V30 15279 H 1433.22 3.92033 -2.04359 0
M  V30 15280 N 1432.28 1.40065 0.722464 0
M  V30 15281 C 1433.53 1.37277 1.47776 0
M  V30 15282 C 1433.84 -0.0242852 1.95585 0
M  V30 15283 O 1435.05 -0.174769 2.70937 0
M  V30 15284 C 1433.5 2.41233 2.67085 0
M  V30 15285 C 1433.11 3.86716 2.26174 0
M  V30 15286 C 1434.85 2.47541 3.44853 0
M  V30 15287 C 1432.76 4.82284 3.42281 0
M  V30 15288 H 1431.69 0.510405 0.55498 0
M  V30 15289 H 1434.34 1.6577 0.786928 0
M  V30 15290 H 1432.72 2.0583 3.38305 0
M  V30 15291 H 1433.9 4.31227 1.6242 0
M  V30 15292 H 1432.21 3.83819 1.61468 0
M  V30 15293 H 1434.81 3.16131 4.31237 0
M  V30 15294 H 1435.15 1.50379 3.8819 0
M  V30 15295 H 1435.69 2.81901 2.80672 0
M  V30 15296 H 1432.43 5.80754 3.03982 0
M  V30 15297 H 1431.95 4.42443 4.04975 0
M  V30 15298 H 1433.62 5.0178 4.08443 0
M  V30 15299 N 1433.76 -0.95397 1.25448 0
M  V30 15300 C 1434.69 -2.06828 1.08372 0
M  V30 15301 C 1435.67 -1.70098 -0.00741585 0
M  V30 15302 O 1436.85 -1.93521 0.16224 0
M  V30 15303 C 1433.98 -3.40124 0.702365 0
M  V30 15304 C 1432.94 -3.90865 1.74381 0
M  V30 15305 C 1432.26 -5.20663 1.21712 0
M  V30 15306 C 1433.56 -4.17169 3.14273 0
M  V30 15307 H 1435.26 -2.21372 2.01581 0
M  V30 15308 H 1432.8 -1.06374 0.970592 0
M  V30 15309 H 1434.76 -4.17529 0.569837 0
M  V30 15310 H 1433.48 -3.2552 -0.265428 0
M  V30 15311 H 1432.14 -3.15628 1.86479 0
M  V30 15312 H 1431.79 -5.02429 0.23954 0
M  V30 15313 H 1431.49 -5.55581 1.91319 0
M  V30 15314 H 1433.01 -6.00665 1.097 0
M  V30 15315 H 1434.43 -4.85231 3.05325 0
M  V30 15316 H 1432.82 -4.63344 3.81356 0
M  V30 15317 H 1433.89 -3.23421 3.61285 0
M  V30 15318 N 1435.24 -1.07045 -1.15668 0
M  V30 15319 C 1436.46 -0.812802 -1.9081 0
M  V30 15320 C 1436.89 0.627827 -1.77313 0
M  V30 15321 O 1436.24 1.43836 -1.10368 0
M  V30 15322 C 1436.29 -1.2219 -3.39267 0
M  V30 15323 O 1435.4 -0.365305 -4.10779 0
M  V30 15324 H 1434.74 -0.296385 -0.594182 0
M  V30 15325 H 1437.27 -1.42825 -1.465 0
M  V30 15326 H 1437.28 -1.19674 -3.90054 0
M  V30 15327 H 1435.95 -2.27121 -3.48409 0
M  V30 15328 H 1434.53 -0.452687 -3.70142 0
M  V30 15329 N 1436.71 1.32449 -0.85411 0
M  V30 15330 C 1438.12 1.79545 -0.511923 0
M  V30 15331 C 1438.48 1.70534 0.970188 0
M  V30 15332 O 1437.6 1.2636 1.75676 0
M  V30 15333 C 1438.2 3.26 -0.922456 0
M  V30 15334 C 1436.75 3.71053 -0.632176 0
M  V30 15335 C 1435.9 2.53565 -1.12249 0
M  V30 15336 H 1438.85 1.19755 -1.04137 0
M  V30 15337 H 1438.87 3.79751 -0.238618 0
M  V30 15338 H 1438.39 3.32526 -2.00119 0
M  V30 15339 H 1436.49 3.70042 0.435862 0
M  V30 15340 H 1436.6 4.63878 -1.19809 0
M  V30 15341 H 1434.96 2.48849 -0.542781 0
M  V30 15342 H 1435.75 2.62846 -2.20832 0
M  V30 15343 N 1438.19 0.611994 1.45232 0
M  V30 15344 C 1439.47 0.0407 1.95558 0
M  V30 15345 C 1439.85 -1.42839 1.55436 0
M  V30 15346 O 1439.2 -2.13316 0.819055 0
M  V30 15347 C 1439.41 0.243436 3.4815 0
M  V30 15348 C 1440.75 0.126551 4.24411 0
M  V30 15349 O 1441.78 0.17379 3.55776 0
M  V30 15350 O 1440.64 0.0153526 5.46498 0
M  V30 15351 H 1437.73 -0.0332288 0.826332 0
M  V30 15352 H 1440.28 0.682364 1.55377 0
M  V30 15353 H 1439.05 1.26357 3.70337 0
M  V30 15354 H 1438.67 -0.43328 3.95232 0
M  V30 15355 N 1439.67 -1.53632 0.351409 0
M  V30 15356 C 1440.92 -2.00643 -0.242208 0
M  V30 15357 C 1441.24 -1.24074 -1.50435 0
M  V30 15358 O 1440.51 -0.350067 -1.92747 0
M  V30 15359 H 1439.09 -0.741252 -0.0924904 0
M  V30 15360 H 1441.75 -1.89039 0.474379 0
M  V30 15361 H 1440.85 -3.084 -0.479151 0
M  V30 15362 N 1441.15 -0.0802183 -1.57396 0
M  V30 15363 C 1442.56 0.276428 -1.57188 0
M  V30 15364 C 1442.76 1.69456 -1.09027 0
M  V30 15365 O 1441.82 2.40792 -0.75997 0
M  V30 15366 C 1443.13 0.0784079 -3.00598 0
M  V30 15367 C 1444.68 0.1473 -3.12653 0
M  V30 15368 C 1445.16 -0.0225423 -4.57994 0
M  V30 15369 N 1446.65 0.0327854 -4.63188 0
M  V30 15370 C 1447.38 -0.0740922 -5.73352 0
M  V30 15371 N 1446.88 -0.234966 -6.92401 0
M  V30 15372 N 1448.67 -0.0164241 -5.62098 0
M  V30 15373 H 1440.82 -1.00695 -1.87014 0
M  V30 15374 H 1443.08 -0.393402 -0.862519 0
M  V30 15375 H 1442.79 -0.900488 -3.39977 0
M  V30 15376 H 1442.66 0.82713 -3.6802 0
M  V30 15377 H 1445.05 1.11669 -2.73156 0
M  V30 15378 H 1445.13 -0.632666 -2.47853 0
M  V30 15379 H 1444.78 -0.988733 -4.98183 0
M  V30 15380 H 1444.71 0.776933 -5.20837 0
M  V30 15381 H 1447.2 0.15519 -3.77581 0
M  V30 15382 H 1447.51 -0.308435 -7.72184 0
M  V30 15383 H 1445.86 -0.270439 -6.94474 0
M  V30 15384 H 1449.05 0.108019 -4.67975 0
M  V30 15385 H 1449.22 -0.10317 -6.47918 0
M  V30 15386 N 1442.63 1.56409 0.193394 0
M  V30 15387 C 1444.04 1.50032 0.544298 0
M  V30 15388 C 1444.24 0.780546 1.85768 0
M  V30 15389 O 1443.3 0.331769 2.50311 0
M  V30 15390 C 1444.61 2.94705 0.597463 0
M  V30 15391 C 1446.16 3.05386 0.686179 0
M  V30 15392 C 1446.63 4.51473 0.770439 0
M  V30 15393 N 1448.12 4.55631 0.833921 0
M  V30 15394 C 1448.86 5.65982 0.919314 0
M  V30 15395 N 1448.36 6.8602 0.966904 0
M  V30 15396 N 1450.15 5.539 0.956634 0
M  V30 15397 H 1442.3 2.01619 -0.668096 0
M  V30 15398 H 1444.56 0.917589 -0.238191 0
M  V30 15399 H 1444.27 3.50431 -0.298509 0
M  V30 15400 H 1444.14 3.48151 1.45157 0
M  V30 15401 H 1446.53 2.49708 1.57258 0
M  V30 15402 H 1446.61 2.55062 -0.194165 0
M  V30 15403 H 1446.25 5.07777 -0.111619 0
M  V30 15404 H 1446.18 4.99531 1.66661 0
M  V30 15405 H 1448.68 3.69198 0.80632 0
M  V30 15406 H 1448.99 7.6587 1.03262 0
M  V30 15407 H 1447.33 6.88674 0.935552 0
M  V30 15408 H 1450.52 4.59044 0.916304 0
M  V30 15409 H 1450.7 6.39926 1.01972 0
M  V30 15410 N 1444.1 -0.461169 1.50702 0
M  V30 15411 C 1445.33 -1.24019 1.66235 0
M  V30 15412 C 1445.75 -1.84827 0.349388 0
M  V30 15413 O 1445.11 -1.67743 -0.687888 0
M  V30 15414 C 1445.16 -2.31743 2.76274 0
M  V30 15415 O 1444.26 -3.3664 2.38217 0
M  V30 15416 H 1443.6 -0.364424 0.55506 0
M  V30 15417 H 1446.13 -0.547636 1.97135 0
M  V30 15418 H 1446.14 -2.76902 2.99649 0
M  V30 15419 H 1444.82 -1.86858 3.7156 0
M  V30 15420 H 1443.4 -2.97123 2.25327 0
M  V30 15421 N 1445.58 -1.40446 -0.715026 0
M  V30 15422 C 1447 -1.22488 -1.02317 0
M  V30 15423 C 1447.2 -0.100481 -2.01249 0
M  V30 15424 O 1446.25 0.541447 -2.46626 0
M  V30 15425 C 1447.57 -2.56682 -1.56636 0
M  V30 15426 C 1449.11 -2.63699 -1.68617 0
M  V30 15427 C 1449.59 -3.98163 -2.26342 0
M  V30 15428 N 1451.08 -3.99907 -2.33727 0
M  V30 15429 C 1451.82 -5.00737 -2.79375 0
M  V30 15430 N 1451.31 -6.11961 -3.24771 0
M  V30 15431 N 1453.1 -4.88106 -2.78764 0
M  V30 15432 H 1445.26 -2.12317 -0.0592712 0
M  V30 15433 H 1447.52 -0.943823 -0.088895 0
M  V30 15434 H 1447.22 -3.39615 -0.914036 0
M  V30 15435 H 1447.1 -2.77809 -2.55151 0
M  V30 15436 H 1449.49 -1.81138 -2.32966 0
M  V30 15437 H 1449.57 -2.46402 -0.687004 0
M  V30 15438 H 1449.21 -4.81164 -1.62614 0
M  V30 15439 H 1449.14 -4.1279 -3.26974 0
M  V30 15440 H 1451.63 -3.19592 -2.01666 0
M  V30 15441 H 1451.94 -6.84787 -3.58171 0
M  V30 15442 H 1450.29 -6.15525 -3.22729 0
M  V30 15443 H 1453.48 -4.00307 -2.42635 0
M  V30 15444 H 1453.65 -5.66828 -3.14023 0
M  V30 15445 N 1447.06 0.947303 -1.25952 0
M  V30 15446 C 1448.29 1.72479 -1.1373 0
M  V30 15447 C 1448.7 1.86629 0.310871 0
M  V30 15448 O 1448.04 1.36882 1.22512 0
M  V30 15449 C 1448.1 3.15328 -1.72651 0
M  V30 15450 C 1447.77 3.24584 -3.21705 0
M  V30 15451 C 1448.76 3.08331 -4.18602 0
M  V30 15452 C 1446.45 3.4817 -3.62054 0
M  V30 15453 C 1448.44 3.15523 -5.53827 0
M  V30 15454 C 1446.13 3.54997 -4.97413 0
M  V30 15455 C 1447.13 3.38689 -5.93109 0
M  V30 15456 O 1446.82 3.45212 -7.26005 0
M  V30 15457 H 1446.55 0.547044 -0.397138 0
M  V30 15458 H 1449.1 1.19654 -1.66949 0
M  V30 15459 H 1447.33 3.69549 -1.13887 0
M  V30 15460 H 1449.02 3.74965 -1.55423 0
M  V30 15461 H 1449.79 2.89971 -3.88769 0
M  V30 15462 H 1445.67 3.59922 -2.88057 0
M  V30 15463 H 1449.21 3.02711 -6.285 0
M  V30 15464 H 1445.11 3.72876 -5.26909 0
M  V30 15465 H 1445.87 3.61796 -7.34198 0
M  V30 15466 N 1448.54 1.07657 1.15099 0
M  V30 15467 C 1449.78 0.802796 1.86234 0
M  V30 15468 C 1450.12 -0.669555 1.82293 0
M  V30 15469 O 1449.39 -1.49162 1.24823 0
M  V30 15470 C 1449.68 1.3156 3.35208 0
M  V30 15471 C 1449.53 2.85272 3.47764 0
M  V30 15472 C 1450.85 0.934641 4.30061 0
M  V30 15473 H 1447.97 0.293099 0.676212 0
M  V30 15474 H 1450.61 1.33488 1.35207 0
M  V30 15475 H 1448.76 0.86298 3.78794 0
M  V30 15476 H 1450.43 3.38847 3.13018 0
M  V30 15477 H 1448.67 3.23316 2.89222 0
M  V30 15478 H 1449.34 3.16223 4.52446 0
M  V30 15479 H 1451.82 1.3247 3.9445 0
M  V30 15480 H 1450.7 1.32074 5.32774 0
M  V30 15481 H 1450.96 -0.159122 4.41814 0
M  V30 15482 N 1450.02 -1.31994 0.861122 0
M  V30 15483 C 1451.43 -1.49756 0.551844 0
M  V30 15484 C 1451.63 -1.79473 -0.916056 0
M  V30 15485 O 1450.69 -1.86813 -1.69874 0
M  V30 15486 C 1452 -2.63737 1.44442 0
M  V30 15487 C 1453.55 -2.77621 1.44552 0
M  V30 15488 C 1454.02 -3.94689 2.32346 0
M  V30 15489 N 1455.52 -4.01961 2.30177 0
M  V30 15490 C 1456.25 -4.91794 2.94833 0
M  V30 15491 N 1455.75 -5.86589 3.68626 0
M  V30 15492 N 1457.54 -4.84968 2.84188 0
M  V30 15493 H 1449.69 -1.10972 1.81105 0
M  V30 15494 H 1451.95 -0.54753 0.773896 0
M  V30 15495 H 1451.66 -2.48526 2.48853 0
M  V30 15496 H 1451.53 -3.59671 1.13651 0
M  V30 15497 H 1453.92 -2.92251 0.409034 0
M  V30 15498 H 1454 -1.8238 1.79363 0
M  V30 15499 H 1453.65 -3.80817 3.36067 0
M  V30 15500 H 1453.58 -4.89219 1.94865 0
M  V30 15501 H 1456.07 -3.34132 1.76533 0
M  V30 15502 H 1456.38 -6.51846 4.15111 0
M  V30 15503 H 1454.72 -5.86596 3.72734 0
M  V30 15504 H 1457.92 -4.09883 2.26084 0
M  V30 15505 H 1458.09 -5.54774 3.34857 0
M  V30 15506 N 1451.49 -0.619688 -1.44906 0
M  V30 15507 C 1452.42 0.0791121 -2.33366 0
M  V30 15508 C 1453.41 0.846503 -1.47541 0
M  V30 15509 O 1454.59 0.814657 -1.76287 0
M  V30 15510 C 1451.72 1.06901 -3.30438 0
M  V30 15511 C 1450.67 0.41403 -4.25993 0
M  V30 15512 C 1450 1.51303 -5.12846 0
M  V30 15513 C 1451.3 -0.672483 -5.17953 0
M  V30 15514 H 1452.99 -0.659551 -2.92045 0
M  V30 15515 H 1450.54 -0.318623 -1.40431 0
M  V30 15516 H 1452.49 1.56653 -3.912 0
M  V30 15517 H 1451.22 1.83842 -2.69944 0
M  V30 15518 H 1449.88 -0.0627315 -3.66546 0
M  V30 15519 H 1449.52 2.27303 -4.48712 0
M  V30 15520 H 1449.22 1.08022 -5.77586 0
M  V30 15521 H 1450.75 2.01258 -5.76479 0
M  V30 15522 H 1452.16 -0.258542 -5.72717 0
M  V30 15523 H 1450.56 -1.02776 -5.91234 0
M  V30 15524 H 1451.63 -1.54425 -4.59653 0
M  V30 15525 N 1452.97 1.53444 -0.359552 0
M  V30 15526 C 1454.39 1.59598 -0.00824946 0
M  V30 15527 C 1454.59 1.37492 1.47303 0
M  V30 15528 O 1453.64 1.1771 2.23385 0
M  V30 15529 C 1454.96 2.9718 -0.45878 0
M  V30 15530 C 1456.51 3.1027 -0.412485 0
M  V30 15531 C 1456.98 4.50255 -0.838733 0
M  V30 15532 N 1458.47 4.56352 -0.793552 0
M  V30 15533 C 1459.21 5.62845 -1.09513 0
M  V30 15534 N 1458.7 6.77119 -1.46567 0
M  V30 15535 N 1460.5 5.52799 -1.01832 0
M  V30 15536 H 1452.65 1.66065 -1.32424 0
M  V30 15537 H 1454.91 0.778561 -0.540876 0
M  V30 15538 H 1454.62 3.18475 -1.4922 0
M  V30 15539 H 1454.49 3.7687 0.157741 0
M  V30 15540 H 1456.88 2.88689 0.611791 0
M  V30 15541 H 1456.96 2.32602 -1.06442 0
M  V30 15542 H 1456.6 4.72573 -1.8611 0
M  V30 15543 H 1456.53 5.26344 -0.164109 0
M  V30 15544 H 1459.02 3.74299 -0.52048 0
M  V30 15545 H 1459.34 7.54313 -1.68021 0
M  V30 15546 H 1457.68 6.78525 -1.50427 0
M  V30 15547 H 1460.87 4.62403 -0.728059 0
M  V30 15548 H 1461.04 6.35698 -1.25668 0
M  V30 15549 N 1454.45 0.0885642 1.57351 0
M  V30 15550 C 1455.38 -0.902617 2.10679 0
M  V30 15551 C 1456.4 -1.25037 1.04257 0
M  V30 15552 O 1457.58 -1.20462 1.31723 0
M  V30 15553 C 1454.68 -2.21362 2.56616 0
M  V30 15554 C 1453.86 -2.04219 3.86799 0
M  V30 15555 C 1452.92 -3.18774 4.18652 0
M  V30 15556 O 1451.94 -2.93024 4.87981 0
M  V30 15557 N 1453.14 -4.44357 3.73534 0
M  V30 15558 H 1455.91 -0.447199 2.96345 0
M  V30 15559 H 1453.47 -0.0967178 1.61611 0
M  V30 15560 H 1455.46 -2.96935 2.74976 0
M  V30 15561 H 1454.03 -2.58349 1.75996 0
M  V30 15562 H 1453.25 -1.13015 3.77652 0
M  V30 15563 H 1454.54 -1.90035 4.71979 0
M  V30 15564 H 1453.94 -4.68159 3.17558 0
M  V30 15565 H 1452.5 -5.169 3.97061 0
M  V30 15566 N 1455.93 -1.56509 -0.185096 0
M  V30 15567 C 1457.34 -1.50318 -0.536334 0
M  V30 15568 C 1457.54 -0.790387 -1.85351 0
M  V30 15569 O 1456.6 -0.345039 -2.50131 0
M  V30 15570 C 1457.91 -2.95017 -0.581825 0
M  V30 15571 C 1459.46 -3.05746 -0.669974 0
M  V30 15572 C 1459.94 -4.51876 -0.746485 0
M  V30 15573 N 1461.43 -4.56067 -0.809746 0
M  V30 15574 C 1462.16 -5.66462 -0.889286 0
M  V30 15575 N 1461.66 -6.86523 -0.930509 0
M  V30 15576 N 1463.45 -5.54399 -0.927246 0
M  V30 15577 H 1455.6 -2.01262 0.678778 0
M  V30 15578 H 1457.87 -0.916313 0.243054 0
M  V30 15579 H 1457.57 -3.50268 0.317089 0
M  V30 15580 H 1457.45 -3.48916 -1.43309 0
M  V30 15581 H 1459.83 -2.50538 -1.55932 0
M  V30 15582 H 1459.91 -2.54955 0.207689 0
M  V30 15583 H 1459.56 -5.07711 0.138546 0
M  V30 15584 H 1459.49 -5.00408 -1.6401 0
M  V30 15585 H 1461.98 -3.6962 -0.786729 0
M  V30 15586 H 1462.29 -7.66407 -0.991992 0
M  V30 15587 H 1460.64 -6.89161 -0.899017 0
M  V30 15588 H 1463.83 -4.59524 -0.891947 0
M  V30 15589 H 1464 -6.40458 -0.985773 0
M  V30 15590 N 1457.41 0.45317 -1.50944 0
M  V30 15591 C 1458.34 1.55655 -1.74051 0
M  V30 15592 C 1459.32 1.59545 -0.58987 0
M  V30 15593 O 1460.5 1.75526 -0.830922 0
M  V30 15594 C 1457.63 2.93857 -1.85109 0
M  V30 15595 C 1456.59 3.04832 -3.00435 0
M  V30 15596 C 1455.91 4.44858 -2.96657 0
M  V30 15597 C 1457.21 2.80381 -4.40663 0
M  V30 15598 H 1458.91 1.36571 -2.66437 0
M  V30 15599 H 1456.45 0.655572 -1.28212 0
M  V30 15600 H 1458.41 3.70992 -1.99857 0
M  V30 15601 H 1457.13 3.14138 -0.893579 0
M  V30 15602 H 1455.79 2.30134 -2.85366 0
M  V30 15603 H 1455.44 4.62083 -1.98716 0
M  V30 15604 H 1455.14 4.53134 -3.7409 0
M  V30 15605 H 1456.66 5.23989 -3.13478 0
M  V30 15606 H 1458.07 3.47255 -4.56165 0
M  V30 15607 H 1456.47 3.00083 -5.19683 0
M  V30 15608 H 1457.54 1.76099 -4.51793 0
M  V30 15609 N 1458.88 1.40823 0.707568 0
M  V30 15610 C 1460.12 1.40992 1.47989 0
M  V30 15611 C 1460.49 0.0138056 1.91995 0
M  V30 15612 O 1461.69 -0.109666 2.68576 0
M  V30 15613 C 1459.96 2.37857 2.66756 0
M  V30 15614 S 1461.52 2.56453 3.56058 0
M  V30 15615 H 1458.34 0.499622 0.505864 0
M  V30 15616 H 1460.94 1.77161 0.826703 0
M  V30 15617 H 1459.64 3.38113 2.32611 0
M  V30 15618 H 1459.17 2.03 3.36979 0
M  V30 15619 H 1461.19 1.82294 4.61501 0
M  V30 15620 N 1460.36 -0.94061 1.26453 0
M  V30 15621 C 1461.78 -1.21424 1.03578 0
M  V30 15622 C 1461.98 -2.00081 -0.238726 0
M  V30 15623 O 1461.03 -2.3404 -0.947709 0
M  V30 15624 C 1462.35 -1.97496 2.26751 0
M  V30 15625 C 1463.9 -2.10485 2.31657 0
M  V30 15626 C 1464.37 -2.89959 3.54525 0
M  V30 15627 N 1465.86 -2.97533 3.55005 0
M  V30 15628 C 1466.6 -3.59456 4.46742 0
M  V30 15629 N 1466.09 -4.22876 5.48769 0
M  V30 15630 N 1467.89 -3.56734 4.34393 0
M  V30 15631 H 1460.04 -0.414788 2.08311 0
M  V30 15632 H 1462.3 -0.246047 0.915513 0
M  V30 15633 H 1462.01 -1.47109 3.19456 0
M  V30 15634 H 1461.88 -2.98159 2.31043 0
M  V30 15635 H 1464.27 -2.60064 1.39466 0
M  V30 15636 H 1464.35 -1.09082 2.31376 0
M  V30 15637 H 1463.99 -2.41067 4.47045 0
M  V30 15638 H 1463.92 -3.91619 3.52054 0
M  V30 15639 H 1466.41 -2.52446 2.81211 0
M  V30 15640 H 1466.73 -4.68026 6.14956 0
M  V30 15641 H 1465.07 -4.21461 5.52626 0
M  V30 15642 H 1468.26 -3.06381 3.53904 0
M  V30 15643 H 1468.43 -4.04706 5.0608 0
M  V30 15644 N 1461.84 -1.08266 -1.14527 0
M  V30 15645 C 1462.77 -0.669233 -2.19212 0
M  V30 15646 C 1463.79 0.282962 -1.60322 0
M  V30 15647 O 1464.97 0.0708403 -1.78359 0
M  V30 15648 C 1462.07 0.0362509 -3.38881 0
M  V30 15649 C 1461.25 -0.934477 -4.27301 0
M  V30 15650 C 1460.31 -0.264584 -5.25534 0
M  V30 15651 O 1459.33 -0.908543 -5.61902 0
M  V30 15652 N 1460.53 0.98609 -5.72063 0
M  V30 15653 H 1463.3 -1.56982 -2.55297 0
M  V30 15654 H 1460.86 -0.968551 -1.29733 0
M  V30 15655 H 1462.85 0.495309 -4.01658 0
M  V30 15656 H 1461.42 0.838913 -3.01133 0
M  V30 15657 H 1460.64 -1.57241 -3.61481 0
M  V30 15658 H 1461.93 -1.59232 -4.83242 0
M  V30 15659 H 1461.33 1.52904 -5.44644 0
M  V30 15660 H 1459.89 1.38867 -6.36835 0
M  V30 15661 N 1463.32 1.31536 -0.86811 0
M  V30 15662 C 1464.54 2.01487 -0.491705 0
M  V30 15663 C 1464.97 1.64744 0.907803 0
M  V30 15664 O 1464.33 0.855093 1.59868 0
M  V30 15665 C 1464.38 3.54621 -0.65395 0
M  V30 15666 O 1463.48 4.11252 0.307532 0
M  V30 15667 H 1462.82 0.634469 -0.195819 0
M  V30 15668 H 1465.35 1.67775 -1.17101 0
M  V30 15669 H 1465.36 4.04323 -0.546539 0
M  V30 15670 H 1464.04 3.80704 -1.67443 0
M  V30 15671 H 1462.61 3.72577 0.155233 0
M  V30 15672 N 1464.8 0.627364 1.44575 0
M  V30 15673 C 1466.04 0.130545 2.02379 0
M  V30 15674 C 1466.38 -1.24301 1.49208 0
M  V30 15675 O 1465.65 -1.82425 0.674626 0
M  V30 15676 C 1465.93 0.11311 3.59922 0
M  V30 15677 C 1465.79 1.51874 4.23385 0
M  V30 15678 C 1467.11 -0.564341 4.36467 0
M  V30 15679 H 1464.23 0.0489125 0.735375 0
M  V30 15680 H 1466.87 0.803118 1.72192 0
M  V30 15681 H 1465.02 -0.459621 3.85772 0
M  V30 15682 H 1466.69 2.14007 4.08655 0
M  V30 15683 H 1464.93 2.07371 3.81024 0
M  V30 15684 H 1465.6 1.4586 5.3238 0
M  V30 15685 H 1468.08 -0.0773244 4.16028 0
M  V30 15686 H 1466.96 -0.545715 5.46181 0
M  V30 15687 H 1467.22 -1.63403 4.10794 0
M  V30 15688 N 1466.28 -1.53251 0.367684 0
M  V30 15689 C 1467.21 -2.28728 -0.469676 0
M  V30 15690 C 1468.19 -1.3124 -1.08213 0
M  V30 15691 O 1469.37 -1.60112 -1.09898 0
M  V30 15692 C 1466.5 -3.07808 -1.60846 0
M  V30 15693 C 1465.46 -4.13 -1.12315 0
M  V30 15694 C 1464.78 -4.80176 -2.35234 0
M  V30 15695 C 1466.08 -5.21892 -0.2064 0
M  V30 15696 H 1467.78 -2.98972 0.160019 0
M  V30 15697 H 1465.32 -1.43786 0.0784011 0
M  V30 15698 H 1467.27 -3.59358 -2.20091 0
M  V30 15699 H 1466 -2.35258 -2.26542 0
M  V30 15700 H 1464.66 -3.62399 -0.553378 0
M  V30 15701 H 1464.31 -4.04196 -2.99391 0
M  V30 15702 H 1464.01 -5.51261 -2.03433 0
M  V30 15703 H 1465.53 -5.34521 -2.9516 0
M  V30 15704 H 1466.94 -5.68932 -0.706386 0
M  V30 15705 H 1465.34 -6.00096 0.0208362 0
M  V30 15706 H 1466.41 -4.79051 0.750851 0
M  V30 15707 N 1467.75 -0.0969077 -1.57302 0
M  V30 15708 C 1468.68 0.858443 -2.17147 0
M  V30 15709 C 1469.66 1.29294 -1.10531 0
M  V30 15710 O 1470.85 1.3595 -1.38676 0
M  V30 15711 C 1467.98 2.11691 -2.75326 0
M  V30 15712 C 1466.93 1.82097 -3.8733 0
M  V30 15713 C 1466.26 3.14787 -4.32219 0
M  V30 15714 C 1467.56 1.10651 -5.10444 0
M  V30 15715 H 1469.25 0.35982 -2.9723 0
M  V30 15716 H 1466.8 0.17163 -1.42974 0
M  V30 15717 H 1468.75 2.78963 -3.15844 0
M  V30 15718 H 1467.48 2.63839 -1.925 0
M  V30 15719 H 1466.14 1.17222 -3.47354 0
M  V30 15720 H 1465.78 3.64826 -3.46281 0
M  V30 15721 H 1465.48 2.95769 -5.07735 0
M  V30 15722 H 1467.01 3.83215 -4.75372 0
M  V30 15723 H 1468.42 1.68036 -5.48121 0
M  V30 15724 H 1466.82 1.01805 -5.91401 0
M  V30 15725 H 1467.89 0.0895634 -4.84817 0
M  V30 15726 N 1469.23 1.56605 0.176793 0
M  V30 15727 C 1470.48 1.82848 0.89097 0
M  V30 15728 C 1470.83 0.676661 1.80108 0
M  V30 15729 O 1470.13 -0.32721 1.88785 0
M  V30 15730 C 1470.32 3.12888 1.7273 0
M  V30 15731 C 1470.15 4.40609 0.899652 0
M  V30 15732 C 1468.92 5.01996 0.57688 0
M  V30 15733 C 1471.12 5.13722 0.243765 0
M  V30 15734 N 1469.1 6.13317 -0.267482 0
M  V30 15735 C 1470.47 6.18276 -0.461997 0
M  V30 15736 C 1472.52 4.97638 0.161367 0
M  V30 15737 C 1471.23 7.0849 -1.24233 0
M  V30 15738 C 1473.25 5.88291 -0.605623 0
M  V30 15739 C 1472.62 6.92304 -1.29977 0
M  V30 15740 H 1468.71 0.720143 0.304824 0
M  V30 15741 H 1471.3 1.94055 0.15834 0
M  V30 15742 H 1469.47 3.02883 2.43139 0
M  V30 15743 H 1471.2 3.27148 2.38236 0
M  V30 15744 H 1467.96 4.6486 0.905666 0
M  V30 15745 H 1468.38 6.73578 -0.679811 0
M  V30 15746 H 1473.02 4.17236 0.683677 0
M  V30 15747 H 1470.74 7.88342 -1.77601 0
M  V30 15748 H 1474.33 5.77918 -0.670976 0
M  V30 15749 H 1473.21 7.61239 -1.88375 0
M  V30 15750 N 1470.71 -0.445159 1.51182 0
M  V30 15751 C 1472.12 -1.02528 1.56028 0
M  V30 15752 C 1472.47 -1.92503 0.379087 0
M  V30 15753 O 1471.6 -2.10424 -0.505056 0
M  V30 15754 C 1472.19 -1.86621 2.82768 0
M  V30 15755 C 1470.75 -2.39697 2.90211 0
M  V30 15756 C 1469.9 -1.18705 2.50608 0
M  V30 15757 H 1472.85 -0.226732 1.57072 0
M  V30 15758 H 1472.87 -2.71987 2.66089 0
M  V30 15759 H 1472.38 -1.2111 3.68719 0
M  V30 15760 H 1470.48 -3.08686 2.08672 0
M  V30 15761 H 1470.6 -2.73029 3.9369 0
M  V30 15762 H 1468.96 -1.52995 2.03629 0
M  V30 15763 H 1469.74 -0.548156 3.38895 0
M  V30 15764 N 1472.19 -1.41197 -0.700089 0
M  V30 15765 C 1473.14 -1.39158 -1.80607 0
M  V30 15766 C 1474.12 -0.266653 -1.58675 0
M  V30 15767 O 1475.31 -0.506973 -1.69584 0
M  V30 15768 C 1472.44 -1.27176 -3.18875 0
M  V30 15769 C 1471.53 -2.44513 -3.46517 0
M  V30 15770 N 1471.92 -3.69984 -3.44885 0
M  V30 15771 C 1470.22 -2.38228 -3.77046 0
M  V30 15772 C 1470.92 -4.4778 -3.71306 0
M  V30 15773 N 1469.89 -3.77831 -3.90826 0
M  V30 15774 H 1473.7 -2.34093 -1.77701 0
M  V30 15775 H 1471.21 -1.35188 -0.899887 0
M  V30 15776 H 1473.21 -1.23797 -3.98095 0
M  V30 15777 H 1471.87 -0.332215 -3.22996 0
M  V30 15778 H 1472.88 -4.02932 -3.25371 0
M  V30 15779 H 1469.56 -1.52722 -3.88564 0
M  V30 15780 H 1470.95 -5.56695 -3.76218 0
M  V30 15781 N 1473.67 0.933891 -1.2695 0
M  V30 15782 C 1474.6 2.03768 -1.04934 0
M  V30 15783 C 1475.61 1.62798 -0.00740752 0
M  V30 15784 O 1476.8 1.76765 -0.248289 0
M  V30 15785 C 1473.9 3.34097 -0.568515 0
M  V30 15786 C 1473.07 4.03794 -1.68133 0
M  V30 15787 C 1472.13 5.12397 -1.19731 0
M  V30 15788 O 1471.16 5.36701 -1.89579 0
M  V30 15789 N 1472.36 5.80479 -0.0496327 0
M  V30 15790 H 1475.12 2.23219 -1.99984 0
M  V30 15791 H 1472.69 1.10386 -1.18433 0
M  V30 15792 H 1474.68 4.04053 -0.228736 0
M  V30 15793 H 1473.25 3.11265 0.288587 0
M  V30 15794 H 1472.47 3.27655 -2.1917 0
M  V30 15795 H 1473.76 4.4711 -2.42837 0
M  V30 15796 H 1473.15 5.63179 0.533509 0
M  V30 15797 H 1471.71 6.5139 0.231014 0
M  V30 15798 N 1475.14 1.08871 1.13951 0
M  V30 15799 C 1476.55 0.841552 1.66658 0
M  V30 15800 C 1476.91 -0.630932 1.85779 0
M  V30 15801 O 1476.03 -1.48673 1.57243 0
M  V30 15802 C 1476.63 1.52109 3.02735 0
M  V30 15803 C 1475.18 1.32105 3.52456 0
M  V30 15804 C 1474.33 1.58084 2.27826 0
M  V30 15805 H 1477.28 1.24865 0.97951 0
M  V30 15806 H 1477.3 0.950978 3.68425 0
M  V30 15807 H 1476.82 2.59276 2.88786 0
M  V30 15808 H 1474.92 0.270294 3.71618 0
M  V30 15809 H 1475.03 2.05197 4.32933 0
M  V30 15810 H 1473.39 1.00264 2.34135 0
M  V30 15811 H 1474.18 2.66467 2.16449 0
M  V30 15812 N 1476.62 -1.31073 0.875073 0
M  V30 15813 C 1477.85 -2.01223 0.502383 0
M  V30 15814 C 1478.27 -1.65223 -0.899053 0
M  V30 15815 O 1477.63 -0.863559 -1.59412 0
M  V30 15816 C 1477.68 -3.54269 0.672747 0
M  V30 15817 O 1476.78 -4.11409 -0.285718 0
M  V30 15818 H 1476.12 -0.633422 0.199181 0
M  V30 15819 H 1478.65 -1.67152 1.17989 0
M  V30 15820 H 1478.66 -4.04027 0.567973 0
M  V30 15821 H 1477.34 -3.79811 1.69459 0
M  V30 15822 H 1475.91 -3.72654 -0.135472 0
M  V30 15823 N 1478.1 -0.635022 -1.4424 0
M  V30 15824 C 1479.35 -0.140788 -2.01609 0
M  V30 15825 C 1479.67 1.24317 -1.50234 0
M  V30 15826 O 1478.94 1.82677 -0.707519 0
M  V30 15827 H 1477.52 -0.0490568 -0.745387 0
M  V30 15828 H 1480.18 -0.8226 -1.7669 0
M  V30 15829 H 1479.28 -0.111456 -3.11901 0
M  V30 15830 N 1479.58 1.53054 -0.375806 0
M  V30 15831 C 1480.51 2.23664 0.500685 0
M  V30 15832 C 1481.52 1.25432 1.03782 0
M  V30 15833 O 1482.71 1.51592 0.942451 0
M  V30 15834 C 1479.81 2.9288 1.70513 0
M  V30 15835 C 1478.99 4.17706 1.29772 0
M  V30 15836 C 1478.04 4.7004 2.36536 0
M  V30 15837 O 1477.07 5.33466 1.98502 0
M  V30 15838 N 1478.27 4.48732 3.68266 0
M  V30 15839 H 1481.04 2.99519 -0.104201 0
M  V30 15840 H 1478.6 1.60641 -0.201488 0
M  V30 15841 H 1480.59 3.24795 2.41433 0
M  V30 15842 H 1479.16 2.20416 2.21665 0
M  V30 15843 H 1478.38 3.91978 0.41795 0
M  V30 15844 H 1479.67 4.98837 1.00197 0
M  V30 15845 H 1479.07 3.98075 4.01936 0
M  V30 15846 H 1477.62 4.85172 4.3526 0
M  V30 15847 N 1481.06 0.105248 1.57248 0
M  V30 15848 C 1482.47 -0.251385 1.57608 0
M  V30 15849 C 1482.67 -1.677 1.11709 0
M  V30 15850 O 1481.73 -2.39552 0.798182 0
M  V30 15851 C 1483.04 -0.0305755 3.00684 0
M  V30 15852 C 1484.59 -0.0975409 3.12848 0
M  V30 15853 C 1485.06 0.0954024 4.57901 0
M  V30 15854 N 1486.56 0.040908 4.63182 0
M  V30 15855 C 1487.29 0.165298 5.73162 0
M  V30 15856 N 1486.79 0.345091 6.9194 0
M  V30 15857 N 1488.58 0.105847 5.62 0
M  V30 15858 H 1480.73 1.03658 1.85388 0
M  V30 15859 H 1482.99 0.407074 0.856151 0
M  V30 15860 H 1482.7 0.954461 3.38501 0
M  V30 15861 H 1482.57 -0.768477 3.69289 0
M  V30 15862 H 1484.96 -1.07309 2.74898 0
M  V30 15863 H 1485.04 0.672017 2.46815 0
M  V30 15864 H 1484.69 1.06786 4.96547 0
M  V30 15865 H 1484.62 -0.693974 5.22007 0
M  V30 15866 H 1487.11 -0.0951009 3.7778 0
M  V30 15867 H 1487.42 0.431243 7.71596 0
M  V30 15868 H 1485.76 0.38089 6.93955 0
M  V30 15869 H 1488.96 -0.0335544 4.68088 0
M  V30 15870 H 1489.13 0.206235 6.47672 0
M  V30 15871 N 1482.53 -1.56697 -0.168486 0
M  V30 15872 C 1483.76 -1.86652 -0.904195 0
M  V30 15873 C 1484.18 -0.691906 -1.74912 0
M  V30 15874 O 1483.54 0.358971 -1.77711 0
M  V30 15875 C 1483.59 -3.15043 -1.75442 0
M  V30 15876 O 1482.69 -2.97466 -2.85636 0
M  V30 15877 H 1482.04 -0.613859 -0.253128 0
M  V30 15878 H 1484.57 -2.03927 -0.165773 0
M  V30 15879 H 1484.58 -3.4652 -2.15378 0
M  V30 15880 H 1483.25 -4.00147 -1.13381 0
M  V30 15881 H 1481.83 -2.7735 -2.49262 0
M  V30 15882 N 1484.01 0.437135 -1.51416 0
M  V30 15883 C 1485.26 1.18655 -1.64095 0
M  V30 15884 C 1485.59 1.9119 -0.35728 0
M  V30 15885 O 1484.84 1.84283 0.658644 0
M  V30 15886 C 1485.14 2.22795 -2.79458 0
M  V30 15887 C 1484.81 1.67271 -4.18726 0
M  V30 15888 C 1483.47 1.51852 -4.56612 0
M  V30 15889 C 1485.82 1.26448 -5.05629 0
M  V30 15890 C 1483.15 0.940834 -5.79107 0
M  V30 15891 C 1485.5 0.701095 -6.28703 0
M  V30 15892 C 1484.17 0.533801 -6.65362 0
M  V30 15893 H 1483.44 0.434191 -0.600466 0
M  V30 15894 H 1486.08 0.477592 -1.85449 0
M  V30 15895 H 1484.39 2.99731 -2.52327 0
M  V30 15896 H 1486.08 2.80602 -2.86467 0
M  V30 15897 H 1482.67 1.80249 -3.88855 0
M  V30 15898 H 1486.86 1.37182 -4.76964 0
M  V30 15899 H 1482.11 0.798982 -6.06157 0
M  V30 15900 H 1486.29 0.37626 -6.95383 0
M  V30 15901 H 1483.92 0.0840431 -7.60154 0
M  V30 15902 N 1485.49 1.41566 0.692592 0
M  V30 15903 C 1486.74 1.42293 1.45342 0
M  V30 15904 C 1487.09 0.032316 1.92373 0
M  V30 15905 O 1486.38 -0.942367 1.66823 0
M  V30 15906 C 1486.58 2.36683 2.67799 0
M  V30 15907 C 1486.41 3.84784 2.32748 0
M  V30 15908 C 1485.18 4.53446 2.22967 0
M  V30 15909 C 1487.38 4.75681 1.95531 0
M  V30 15910 N 1485.36 5.86662 1.80833 0
M  V30 15911 C 1486.73 5.97868 1.64178 0
M  V30 15912 C 1488.78 4.633 1.82367 0
M  V30 15913 C 1487.49 7.09053 1.20983 0
M  V30 15914 C 1489.51 5.74449 1.40577 0
M  V30 15915 C 1488.87 6.95737 1.10137 0
M  V30 15916 H 1484.97 0.575898 0.529023 0
M  V30 15917 H 1487.56 1.77459 0.801013 0
M  V30 15918 H 1485.73 2.03606 3.30755 0
M  V30 15919 H 1487.46 2.28109 3.34288 0
M  V30 15920 H 1484.22 4.07423 2.4146 0
M  V30 15921 H 1484.64 6.57273 1.62239 0
M  V30 15922 H 1489.28 3.70024 2.04554 0
M  V30 15923 H 1487 8.02192 0.975411 0
M  V30 15924 H 1490.59 5.66875 1.30937 0
M  V30 15925 H 1489.47 7.80282 0.782888 0
M  V30 15926 N 1486.97 -0.927146 1.27443 0
M  V30 15927 C 1487.93 -2.00938 1.10257 0
M  V30 15928 C 1488.93 -1.60733 0.0463898 0
M  V30 15929 O 1490.12 -1.71752 0.291029 0
M  V30 15930 C 1487.25 -3.34047 0.680115 0
M  V30 15931 H 1488.45 -2.17615 2.06358 0
M  V30 15932 H 1486 -1.10802 1.10239 0
M  V30 15933 H 1486.73 -3.23069 -0.282259 0
M  V30 15934 H 1486.52 -3.64585 1.44291 0
M  V30 15935 H 1488.01 -4.13523 0.582126 0
M  V30 15936 N 1488.45 -1.09474 -1.13372 0
M  V30 15937 C 1489.38 -0.692446 -2.1849 0
M  V30 15938 C 1490.39 0.265942 -1.60613 0
M  V30 15939 O 1491.58 0.0519189 -1.78424 0
M  V30 15940 C 1488.68 0.000306083 -3.389 0
M  V30 15941 C 1487.85 -0.979745 -4.26286 0
M  V30 15942 C 1486.91 -0.320309 -5.25224 0
M  V30 15943 O 1485.94 -0.968089 -5.60907 0
M  V30 15944 N 1487.14 0.92536 -5.73077 0
M  V30 15945 H 1489.91 -1.59681 -2.53618 0
M  V30 15946 H 1487.47 -0.982256 -1.28699 0
M  V30 15947 H 1489.46 0.45268 -4.0216 0
M  V30 15948 H 1488.03 0.806927 -3.02006 0
M  V30 15949 H 1487.25 -1.61067 -3.59793 0
M  V30 15950 H 1488.54 -1.64348 -4.81526 0
M  V30 15951 H 1487.93 1.47119 -5.46235 0
M  V30 15952 H 1486.49 1.32105 -6.38272 0
M  V30 15953 N 1489.92 1.30607 -0.882012 0
M  V30 15954 C 1490.85 2.30666 -0.362706 0
M  V30 15955 C 1491.84 1.60865 0.552861 0
M  V30 15956 O 1493.02 1.88493 0.467339 0
M  V30 15957 C 1490.15 3.44675 0.42622 0
M  V30 15958 C 1489.1 4.26152 -0.397322 0
M  V30 15959 C 1488.43 5.32185 0.518027 0
M  V30 15960 C 1489.73 4.95955 -1.63785 0
M  V30 15961 H 1491.42 2.74351 -1.19883 0
M  V30 15962 H 1488.97 1.31895 -0.577912 0
M  V30 15963 H 1490.92 4.13734 0.80013 0
M  V30 15964 H 1489.65 2.99787 1.29597 0
M  V30 15965 H 1488.31 3.58776 -0.753332 0
M  V30 15966 H 1487.95 4.83545 1.3854 0
M  V30 15967 H 1487.65 5.87593 -0.0291802 0
M  V30 15968 H 1489.18 6.04101 0.888518 0
M  V30 15969 H 1490.59 5.57547 -1.3347 0
M  V30 15970 H 1488.99 5.61215 -2.12504 0
M  V30 15971 H 1490.06 4.22252 -2.38394 0
M  V30 15972 N 1491.4 0.642663 1.43901 0
M  V30 15973 C 1492.65 0.151478 2.01532 0
M  V30 15974 C 1492.97 -1.23519 1.50891 0
M  V30 15975 O 1492.24 -1.82299 0.717197 0
M  V30 15976 H 1490.82 0.0530091 0.745117 0
M  V30 15977 H 1493.48 0.831958 1.76251 0
M  V30 15978 H 1492.58 0.127995 3.11837 0
M  V30 15979 N 1492.88 -1.52852 0.383918 0
M  V30 15980 C 1493.81 -2.22704 -0.497825 0
M  V30 15981 C 1494.79 -1.22573 -1.06839 0
M  V30 15982 O 1495.98 -1.51541 -1.12105 0
M  V30 15983 C 1493.1 -2.93606 -1.68858 0
M  V30 15984 C 1492.15 -4.07962 -1.24376 0
M  V30 15985 S 1492.98 -5.35007 -0.229773 0
M  V30 15986 C 1494.14 -6.09429 -1.42643 0
M  V30 15987 H 1494.37 -2.97147 0.0953535 0
M  V30 15988 H 1491.9 -1.53482 0.168084 0
M  V30 15989 H 1493.86 -3.35067 -2.3715 0
M  V30 15990 H 1492.52 -2.18853 -2.25304 0
M  V30 15991 H 1491.72 -4.56654 -2.13269 0
M  V30 15992 H 1491.32 -3.68486 -0.639823 0
M  V30 15993 H 1493.61 -6.35274 -2.35443 0
M  V30 15994 H 1494.55 -7.01278 -0.980541 0
M  V30 15995 H 1494.96 -5.40128 -1.6408 0
M  V30 15996 N 1494.36 -0.113586 -1.5719 0
M  V30 15997 C 1495.32 0.824258 -2.13866 0
M  V30 15998 C 1496.32 1.19831 -1.07224 0
M  V30 15999 O 1497.51 1.12471 -1.33026 0
M  V30 16000 C 1494.64 2.11391 -2.67445 0
M  V30 16001 H 1495.84 0.331803 -2.98059 0
M  V30 16002 H 1493.39 0.135599 -1.55711 0
M  V30 16003 H 1494.13 2.65079 -1.86824 0
M  V30 16004 H 1493.91 1.85523 -3.45433 0
M  V30 16005 H 1495.4 2.78443 -3.11222 0
M  V30 16006 N 1495.84 1.56784 0.160173 0
M  V30 16007 C 1496.77 2.00298 1.20012 0
M  V30 16008 C 1497.75 0.880356 1.45546 0
M  V30 16009 O 1498.93 1.14724 1.56691 0
M  V30 16010 C 1496.06 2.37238 2.53645 0
M  V30 16011 C 1495.02 3.52563 2.42658 0
M  V30 16012 C 1494.34 3.75278 3.80881 0
M  V30 16013 C 1495.64 4.85657 1.92183 0
M  V30 16014 H 1497.34 2.87423 0.838362 0
M  V30 16015 H 1494.88 1.3828 0.401838 0
M  V30 16016 H 1496.84 2.66278 3.2661 0
M  V30 16017 H 1495.56 1.47035 2.9163 0
M  V30 16018 H 1494.22 3.23669 1.72146 0
M  V30 16019 H 1493.87 2.82347 4.1628 0
M  V30 16020 H 1493.57 4.52882 3.74396 0
M  V30 16021 H 1495.09 4.0673 4.55415 0
M  V30 16022 H 1496.51 5.13501 2.54931 0
M  V30 16023 H 1494.9 5.66975 1.96619 0
M  V30 16024 H 1495.97 4.76908 0.876742 0
M  V30 16025 N 1497.32 -0.429099 1.51646 0
M  V30 16026 C 1498.54 -1.20006 1.68541 0
M  V30 16027 C 1498.96 -1.84806 0.386264 0
M  V30 16028 O 1498.32 -1.7106 -0.635988 0
M  V30 16029 C 1498.37 -2.27801 2.80694 0
M  V30 16030 O 1498.09 -1.65649 4.05576 0
M  V30 16031 C 1499.59 -3.17927 3.08929 0
M  V30 16032 H 1496.81 -0.361388 0.565367 0
M  V30 16033 H 1499.35 -0.507432 1.98104 0
M  V30 16034 H 1497.51 -2.92766 2.53706 0
M  V30 16035 H 1497.92 -2.36955 4.67924 0
M  V30 16036 H 1499.4 -3.8968 3.90965 0
M  V30 16037 H 1499.87 -3.79157 2.21668 0
M  V30 16038 H 1500.48 -2.58654 3.37606 0
M  V30 16039 N 1498.79 -1.41931 -0.685074 0
M  V30 16040 C 1500.21 -1.24631 -0.996957 0
M  V30 16041 C 1500.41 -0.143146 -2.00991 0
M  V30 16042 O 1499.47 0.489012 -2.47719 0
M  V30 16043 C 1500.78 -2.59947 -1.51156 0
M  V30 16044 C 1502.33 -2.67216 -1.62986 0
M  V30 16045 C 1502.8 -4.02874 -2.17845 0
M  V30 16046 N 1504.29 -4.04775 -2.25192 0
M  V30 16047 C 1505.03 -5.0655 -2.68691 0
M  V30 16048 N 1504.52 -6.18712 -3.11717 0
M  V30 16049 N 1506.32 -4.93909 -2.68348 0
M  V30 16050 H 1498.47 -2.12395 -0.0142223 0
M  V30 16051 H 1500.73 -0.945496 -0.0688552 0
M  V30 16052 H 1500.44 -3.41477 -0.841793 0
M  V30 16053 H 1500.31 -2.83159 -2.49201 0
M  V30 16054 H 1502.7 -1.86038 -2.29071 0
M  V30 16055 H 1502.78 -2.47804 -0.634584 0
M  V30 16056 H 1502.42 -4.84505 -1.52372 0
M  V30 16057 H 1502.35 -4.19633 -3.18144 0
M  V30 16058 H 1504.84 -3.23798 -1.94841 0
M  V30 16059 H 1505.16 -6.9223 -3.43565 0
M  V30 16060 H 1503.5 -6.22232 -3.096 0
M  V30 16061 H 1506.69 -4.05364 -2.34089 0
M  V30 16062 H 1506.87 -5.73361 -3.01929 0
M  V30 16063 N 1500.27 0.920374 -1.27933 0
M  V30 16064 C 1501.55 1.64765 -1.05413 0
M  V30 16065 C 1501.93 2.07106 0.408717 0
M  V30 16066 O 1501.28 1.81094 1.39346 0
M  V30 16067 C 1501.49 2.84417 -2.02257 0
M  V30 16068 C 1502.83 3.5559 -2.32036 0
M  V30 16069 O 1503.86 2.94555 -2.00289 0
M  V30 16070 O 1502.72 4.65574 -2.86187 0
M  V30 16071 H 1499.81 0.722503 -0.402391 0
M  V30 16072 H 1502.36 0.970263 -1.39226 0
M  V30 16073 H 1501.13 2.50174 -3.0088 0
M  V30 16074 H 1500.75 3.59872 -1.6905 0
M  V30 16075 N 1501.75 1.10074 1.1279 0
M  V30 16076 C 1502.7 0.740977 2.20482 0
M  V30 16077 C 1503.69 -0.261163 1.67375 0
M  V30 16078 O 1504.9 -0.121923 1.79587 0
M  V30 16079 H 1501.27 0.221666 0.718588 0
M  V30 16080 H 1503.24 1.65823 2.48083 0
M  V30 16081 C 1501.99 0.184934 3.47208 0
M  V30 16082 H 1501.32 0.947278 3.88416 0
M  V30 16083 H 1502.76 -0.0287769 4.2399 0
M  V30 16084 C 1501.21 -1.08145 3.19071 0
M  V30 16085 O 1501.74 -2.1636 3.38454 0
M  V30 16086 N 1499.95 -0.998609 2.72903 0
M  V30 16087 H 1499.5 -0.117906 2.5733 0
M  V30 16088 H 1499.46 -1.84664 2.54453 0
M  V30 16089 N 1503.23 -1.30138 0.888926 0
M  V30 16090 C 1504.18 -2.25598 0.33005 0
M  V30 16091 C 1505.16 -1.51434 -0.543751 0
M  V30 16092 O 1506.35 -1.72706 -0.387529 0
M  V30 16093 C 1503.48 -3.40326 -0.450925 0
M  V30 16094 C 1502.57 -4.21841 0.437187 0
M  V30 16095 N 1502.96 -4.81803 1.53947 0
M  V30 16096 C 1501.26 -4.45391 0.233015 0
M  V30 16097 C 1501.96 -5.42907 2.0887 0
M  V30 16098 N 1500.93 -5.25709 1.38314 0
M  V30 16099 H 1504.74 -2.6951 1.17224 0
M  V30 16100 H 1502.25 -1.44623 0.738771 0
M  V30 16101 H 1504.25 -4.07764 -0.867971 0
M  V30 16102 H 1502.91 -2.97953 -1.2905 0
M  V30 16103 H 1503.92 -4.80904 1.92229 0
M  V30 16104 H 1500.6 -4.13603 -0.569074 0
M  V30 16105 H 1501.99 -6.00478 3.01457 0
M  V30 16106 N 1504.71 -0.650285 -1.43559 0
M  V30 16107 C 1505.66 0.0653687 -2.27906 0
M  V30 16108 C 1506.64 0.797628 -1.39738 0
M  V30 16109 O 1507.83 0.680579 -1.63393 0
M  V30 16110 C 1504.96 1.03311 -3.27386 0
M  V30 16111 C 1504.05 0.299481 -4.23041 0
M  V30 16112 N 1504.44 -0.68239 -5.01176 0
M  V30 16113 C 1502.74 0.54133 -4.42703 0
M  V30 16114 C 1503.44 -1.11758 -5.70863 0
M  V30 16115 N 1502.41 -0.452434 -5.41714 0
M  V30 16116 H 1506.21 -0.688114 -2.85731 0
M  V30 16117 H 1503.73 -0.477326 -1.55227 0
M  V30 16118 H 1505.73 1.56058 -3.86589 0
M  V30 16119 H 1504.39 1.78669 -2.71123 0
M  V30 16120 H 1505.4 -1.06099 -5.06915 0
M  V30 16121 H 1502.07 1.2763 -3.97513 0
M  V30 16122 H 1503.46 -1.92985 -6.43589 0
M  V30 16123 N 1506.18 1.52647 -0.392018 0
M  V30 16124 C 1507.43 2.01613 0.1893 0
M  V30 16125 C 1507.76 1.27837 1.46588 0
M  V30 16126 O 1507.01 0.368018 1.92209 0
M  V30 16127 C 1507.31 3.53872 0.500914 0
M  V30 16128 C 1506.98 4.45675 -0.684434 0
M  V30 16129 C 1505.64 4.70489 -1.00961 0
M  V30 16130 C 1507.99 4.99825 -1.4773 0
M  V30 16131 C 1505.32 5.46703 -2.12915 0
M  V30 16132 C 1507.67 5.77263 -2.58747 0
M  V30 16133 C 1506.34 6.00355 -2.9177 0
M  V30 16134 H 1505.61 0.737755 0.0692697 0
M  V30 16135 H 1508.25 1.84022 -0.529924 0
M  V30 16136 H 1506.56 3.69551 1.3015 0
M  V30 16137 H 1508.26 3.89256 0.963382 0
M  V30 16138 H 1504.85 4.26527 -0.420985 0
M  V30 16139 H 1509.03 4.80577 -1.23932 0
M  V30 16140 H 1504.29 5.62807 -2.38868 0
M  V30 16141 H 1508.46 6.18223 -3.20583 0
M  V30 16142 H 1506.09 6.59194 -3.7864 0
M  V30 16143 N 1507.66 0.121921 1.57128 0
M  V30 16144 C 1508.89 -0.542225 1.99358 0
M  V30 16145 C 1509.3 -1.60578 1.00057 0
M  V30 16146 O 1508.64 -1.83694 -0.0142649 0
M  V30 16147 C 1508.71 -1.22448 3.38004 0
M  V30 16148 C 1508.37 -0.308522 4.55957 0
M  V30 16149 C 1509.37 0.454012 5.17914 0
M  V30 16150 C 1507.05 -0.218741 5.01823 0
M  V30 16151 C 1509.05 1.29403 6.24126 0
M  V30 16152 C 1506.73 0.624906 6.07896 0
M  V30 16153 C 1507.73 1.37992 6.68915 0
M  V30 16154 O 1507.42 2.20955 7.72938 0
M  V30 16155 H 1507.15 -0.147894 0.659624 0
M  V30 16156 H 1509.7 0.205954 2.04365 0
M  V30 16157 H 1507.93 -2.01979 3.2976 0
M  V30 16158 H 1509.62 -1.78583 3.64504 0
M  V30 16159 H 1510.39 0.394539 4.83393 0
M  V30 16160 H 1506.27 -0.796109 4.54074 0
M  V30 16161 H 1509.81 1.88382 6.71683 0
M  V30 16162 H 1505.71 0.685762 6.41847 0
M  V30 16163 H 1506.48 2.13929 7.90049 0
M  V30 16164 N 1509.14 -1.56867 -0.151857 0
M  V30 16165 C 1510.09 -1.98842 -1.20685 0
M  V30 16166 C 1511.08 -0.88007 -1.44745 0
M  V30 16167 O 1512.29 -1.06524 -1.45095 0
M  V30 16168 H 1508.66 -0.632904 -0.406123 0
M  V30 16169 H 1510.63 -2.86737 -0.826095 0
M  V30 16170 C 1509.38 -2.38095 -2.53389 0
M  V30 16171 H 1508.71 -3.2293 -2.35703 0
M  V30 16172 H 1510.15 -2.71292 -3.25847 0
M  V30 16173 C 1508.61 -1.23175 -3.13575 0
M  V30 16174 O 1509.14 -0.529864 -3.9819 0
M  V30 16175 N 1507.34 -0.997255 -2.72953 0
M  V30 16176 H 1506.89 -1.56979 -2.04243 0
M  V30 16177 H 1506.85 -0.23022 -3.13556 0
M  V30 16178 N 1510.62 0.421051 -1.51871 0
M  V30 16179 C 1512.03 0.758781 -1.40409 0
M  V30 16180 C 1512.23 1.95219 -0.499197 0
M  V30 16181 O 1511.29 2.52469 0.0395216 0
M  V30 16182 C 1512.6 1.02388 -2.82731 0
M  V30 16183 C 1514.15 1.12733 -2.91994 0
M  V30 16184 C 1514.63 1.42527 -4.35259 0
M  V30 16185 N 1516.12 1.49417 -4.38439 0
M  V30 16186 C 1516.85 1.74074 -5.46339 0
M  V30 16187 N 1516.35 1.96414 -6.64375 0
M  V30 16188 N 1518.14 1.7599 -5.33839 0
M  V30 16189 H 1510.29 -0.364682 -2.09246 0
M  V30 16190 H 1512.56 -0.100819 -0.942624 0
M  V30 16191 H 1512.26 0.219491 -3.51014 0
M  V30 16192 H 1512.14 1.94724 -3.23052 0
M  V30 16193 H 1514.52 1.92233 -2.23899 0
M  V30 16194 H 1514.6 0.182611 -2.55147 0
M  V30 16195 H 1514.25 0.635486 -5.03909 0
M  V30 16196 H 1514.18 2.38231 -4.69631 0
M  V30 16197 H 1516.67 1.3399 -3.53348 0
M  V30 16198 H 1516.98 2.14644 -7.42393 0
M  V30 16199 H 1515.33 1.93702 -6.67461 0
M  V30 16200 H 1518.52 1.58067 -4.40605 0
M  V30 16201 H 1518.69 1.94868 -6.18005 0
M  V30 16202 N 1512.1 1.42293 0.677538 0
M  V30 16203 C 1513.04 1.45787 1.81243 0
M  V30 16204 C 1514.04 0.333895 1.66077 0
M  V30 16205 O 1515.24 0.50678 1.72719 0
M  V30 16206 H 1511.62 0.456538 0.597559 0
M  V30 16207 H 1513.59 2.41398 1.75413 0
M  V30 16208 C 1512.34 1.37449 3.19379 0
M  V30 16209 H 1511.66 2.23231 3.31674 0
M  V30 16210 H 1513.1 1.43955 3.98814 0
M  V30 16211 C 1511.56 0.0889433 3.36783 0
M  V30 16212 O 1512.09 -0.859357 3.924 0
M  V30 16213 N 1510.3 0.00698476 2.90599 0
M  V30 16214 H 1509.84 0.779459 2.45524 0
M  V30 16215 H 1509.8 -0.852522 3.02621 0
M  V30 16216 N 1513.57 -0.913576 1.28419 0
M  V30 16217 C 1514.82 -1.66273 1.15584 0
M  V30 16218 C 1515.15 -1.92242 -0.295541 0
M  V30 16219 O 1514.4 -1.52104 -1.23137 0
M  V30 16220 C 1514.7 -3.02722 1.89985 0
M  V30 16221 C 1514.37 -2.96413 3.3978 0
M  V30 16222 C 1513.03 -2.94399 3.80635 0
M  V30 16223 C 1515.38 -2.86648 4.35296 0
M  V30 16224 C 1512.71 -2.80422 5.15345 0
M  V30 16225 C 1515.06 -2.74211 5.7008 0
M  V30 16226 C 1513.73 -2.70556 6.1021 0
M  V30 16227 H 1513 -0.608435 0.422951 0
M  V30 16228 H 1515.64 -1.06438 1.59196 0
M  V30 16229 H 1513.95 -3.66344 1.38923 0
M  V30 16230 H 1515.65 -3.59591 1.7747 0
M  V30 16231 H 1512.24 -2.98775 3.07297 0
M  V30 16232 H 1516.42 -2.87291 4.04695 0
M  V30 16233 H 1511.68 -2.75987 5.45565 0
M  V30 16234 H 1515.85 -2.65624 6.43752 0
M  V30 16235 H 1513.48 -2.59483 7.14544 0
M  V30 16236 N 1515.05 -1.1067 -1.12204 0
M  V30 16237 C 1516.29 -0.860466 -1.85406 0
M  V30 16238 C 1516.66 0.603027 -1.82284 0
M  V30 16239 O 1517.86 0.965713 -2.50853 0
M  V30 16240 C 1516.13 -1.39677 -3.28976 0
M  V30 16241 S 1517.69 -1.28633 -4.19522 0
M  V30 16242 H 1514.51 -0.31087 -0.639438 0
M  V30 16243 H 1517.11 -1.41263 -1.35148 0
M  V30 16244 H 1515.81 -2.45588 -3.28808 0
M  V30 16245 H 1515.34 -0.841293 -3.84299 0
M  V30 16246 H 1517.36 -0.245599 -4.95592 0
M  V30 16247 N 1516.53 1.29665 -0.895815 0
M  V30 16248 C 1517.46 2.26842 -0.327939 0
M  V30 16249 C 1518.48 1.54151 0.523578 0
M  V30 16250 O 1519.66 1.75205 0.341367 0
M  V30 16251 C 1516.76 3.34384 0.551393 0
M  V30 16252 C 1515.94 4.36544 -0.273514 0
M  V30 16253 C 1515 5.23442 0.538031 0
M  V30 16254 O 1514.02 5.69184 -0.0431025 0
M  V30 16255 N 1515.22 5.50402 1.84493 0
M  V30 16256 H 1517.99 2.76208 -1.16315 0
M  V30 16257 H 1515.55 1.42958 -0.759903 0
M  V30 16258 H 1517.54 3.89446 1.10062 0
M  V30 16259 H 1516.11 2.84864 1.28728 0
M  V30 16260 H 1515.33 3.81196 -1.00416 0
M  V30 16261 H 1516.62 5.01842 -0.838589 0
M  V30 16262 H 1516.02 5.15041 2.33985 0
M  V30 16263 H 1514.58 6.08295 2.34137 0
M  V30 16264 N 1518.01 0.657889 1.43212 0
M  V30 16265 C 1519.26 0.172845 2.0136 0
M  V30 16266 C 1519.58 -1.21911 1.52193 0
M  V30 16267 O 1518.85 -1.81529 0.736492 0
M  V30 16268 H 1517.43 0.0609091 0.744513 0
M  V30 16269 H 1520.09 0.850605 1.75359 0
M  V30 16270 H 1519.19 0.161062 3.11684 0
M  V30 16271 N 1519.49 -1.52437 0.400108 0
M  V30 16272 C 1520.9 -1.86563 -0.0715162 0
M  V30 16273 C 1521.25 -1.3193 -1.4522 0
M  V30 16274 O 1520.37 -0.654955 -2.06251 0
M  V30 16275 C 1520.97 -3.38525 -0.13655 0
M  V30 16276 C 1519.53 -3.72323 -0.55249 0
M  V30 16277 C 1518.67 -2.75896 0.278729 0
M  V30 16278 H 1521.63 -1.46192 0.617547 0
M  V30 16279 H 1521.65 -3.68357 -0.953588 0
M  V30 16280 H 1521.16 -3.78258 0.868468 0
M  V30 16281 H 1519.26 -3.38164 -1.56448 0
M  V30 16282 H 1519.37 -4.7814 -0.303139 0
M  V30 16283 H 1517.74 -2.53394 -0.257608 0
M  V30 16284 H 1518.52 -3.18467 1.28193 0
M  V30 16285 N 1520.96 -0.130252 -1.57061 0
M  V30 16286 C 1522.19 0.532416 -1.99932 0
M  V30 16287 C 1522.61 1.59505 -1.01013 0
M  V30 16288 O 1521.96 1.82499 -0.00463158 0
M  V30 16289 C 1522.02 1.14833 -3.42776 0
M  V30 16290 O 1521.74 0.128163 -4.37912 0
M  V30 16291 C 1523.24 1.89324 -4.00838 0
M  V30 16292 H 1520.46 0.140046 -0.656223 0
M  V30 16293 H 1523 -0.219905 -2.03314 0
M  V30 16294 H 1521.16 1.85137 -3.40298 0
M  V30 16295 H 1521.57 0.577135 -5.21315 0
M  V30 16296 H 1523.04 2.27731 -5.02835 0
M  V30 16297 H 1523.52 2.77277 -3.40608 0
M  V30 16298 H 1524.13 1.23757 -4.06896 0
M  V30 16299 N 1522.44 1.56945 0.143535 0
M  V30 16300 C 1523.41 1.97616 1.16106 0
M  V30 16301 C 1524.41 0.863113 1.35672 0
M  V30 16302 O 1525.6 1.12966 1.32606 0
M  V30 16303 C 1522.73 2.29511 2.52067 0
M  V30 16304 H 1523.92 2.88696 0.812066 0
M  V30 16305 H 1521.47 1.51433 0.386999 0
M  V30 16306 H 1522.21 1.41233 2.91931 0
M  V30 16307 H 1521.99 3.10667 2.39225 0
M  V30 16308 H 1523.48 2.61802 3.25345 0
M  V30 16309 N 1523.92 -0.412991 1.52093 0
M  V30 16310 C 1524.83 -1.52768 1.78042 0
M  V30 16311 C 1525.85 -1.60758 0.665791 0
M  V30 16312 O 1527.02 -1.77545 0.950772 0
M  V30 16313 C 1524.09 -2.8854 1.92213 0
M  V30 16314 C 1523.15 -2.90468 3.16112 0
M  V30 16315 C 1522.38 -4.19763 3.29598 0
M  V30 16316 O 1522.61 -5.13454 2.48438 0
M  V30 16317 O 1521.54 -4.2847 4.22726 0
M  V30 16318 H 1525.37 -1.33777 2.72649 0
M  V30 16319 H 1522.95 -0.598461 1.3689 0
M  V30 16320 H 1524.83 -3.69073 2.03379 0
M  V30 16321 H 1523.51 -3.07607 1.00795 0
M  V30 16322 H 1522.41 -2.08801 3.10408 0
M  V30 16323 H 1523.75 -2.76349 4.07298 0
M  V30 16324 O 1525.44 -1.51522 -0.558858 0
M  V30 16325 H 1526.13 -1.50938 -1.21398 0
M  V30 END ATOM
M  V30 BEGIN BOND
M  V30 END BOND
M  V30 END CTAB
M  END
$$$$
