drugbank_target|Q9NR63 Cytochrome P450 26B1 (DB00755)
 OpenBabel12092121073D

  0  0  0     0  0            999 V3000
M  V30 BEGIN CTAB
M  V30 COUNTS 8178 8264 0 0 0
M  V30 BEGIN ATOM
M  V30 1 H -0.908 1.98254 -0.117106 0
M  V30 2 N 0 1.576 0 0
M  V30 3 C 0.933 2.03868 1.02534 0
M  V30 4 C 1.911 0.928543 1.3348 0
M  V30 5 O 3.095 1.19667 1.45644 0
M  V30 6 C 0.222 2.43627 2.35294 0
M  V30 7 C -0.732 3.65373 2.2001 0
M  V30 8 S 0.101 5.13292 1.52614 0
M  V30 9 C 1.257 5.56322 2.86805 0
M  V30 10 H 1.49 2.90518 0.631377 0
M  V30 11 H -0.977 1.52953 0.210867 0
M  V30 12 H 0.981 2.67203 3.11629 0
M  V30 13 H -0.358 1.57376 2.7183 0
M  V30 14 H -1.165 3.90944 3.18086 0
M  V30 15 H -1.563 3.418 1.51819 0
M  V30 16 H 0.729 5.58782 3.83104 0
M  V30 17 H 1.672 6.56266 2.65933 0
M  V30 18 H 2.08 4.83886 2.90714 0
M  V30 19 N 1.4781 -0.272755 1.55222 0
M  V30 20 C 2.4081 -1.34136 1.91127 0
M  V30 21 C 3.3891 -1.51513 0.773168 0
M  V30 22 O 4.5741 -1.64552 1.03132 0
M  V30 23 C 1.7041 -2.70083 2.1834 0
M  V30 24 C 0.6581 -2.67437 3.34158 0
M  V30 25 C -0.0159 -4.06938 3.46851 0
M  V30 26 C 1.2841 -2.26686 4.70543 0
M  V30 27 H 2.9781 -1.04333 2.80633 0
M  V30 28 H 0.5241 -0.500454 1.35024 0
M  V30 29 H 2.4771 -3.44952 2.42046 0
M  V30 30 H 1.2011 -3.01469 1.25634 0
M  V30 31 H -0.1399 -1.95026 3.1042 0
M  V30 32 H -0.4919 -4.35547 2.51611 0
M  V30 33 H -0.7919 -4.06062 4.2472 0
M  V30 34 H 0.7321 -4.83545 3.72849 0
M  V30 35 H 2.1461 -2.91277 4.93792 0
M  V30 36 H 0.5431 -2.36971 5.5133 0
M  V30 37 H 1.6131 -1.21818 4.69349 0
M  V30 38 N 2.9562 -1.48159 -0.537278 0
M  V30 39 C 4.2032 -1.55804 -1.29349 0
M  V30 40 C 4.5312 -0.228802 -1.9315 0
M  V30 41 O 3.7862 0.780242 -1.79473 0
M  V30 42 C 4.0852 -2.63956 -2.40961 0
M  V30 43 C 3.7512 -4.0662 -1.94861 0
M  V30 44 C 2.4132 -4.45452 -1.82006 0
M  V30 45 C 4.7652 -4.96055 -1.59933 0
M  V30 46 C 2.0932 -5.71531 -1.32547 0
M  V30 47 C 4.4452 -6.22617 -1.11939 0
M  V30 48 C 3.1092 -6.60312 -0.976951 0
M  V30 49 H 2.3792 -0.570129 -0.473322 0
M  V30 50 H 5.0262 -1.81845 -0.600372 0
M  V30 51 H 3.3312 -2.31747 -3.15912 0
M  V30 52 H 5.0282 -2.67089 -2.99107 0
M  V30 53 H 1.6182 -3.75949 -2.05815 0
M  V30 54 H 5.8022 -4.66738 -1.68728 0
M  V30 55 H 1.0582 -5.99468 -1.202 0
M  V30 56 H 5.2322 -6.91318 -0.839811 0
M  V30 57 H 2.8592 -7.57895 -0.591501 0
M  V30 58 N 4.4343 0.785586 -1.36625 0
M  V30 59 C 5.3443 1.92964 -1.33425 0
M  V30 60 C 6.3603 1.72394 -0.235851 0
M  V30 61 O 7.5363 1.95866 -0.468878 0
M  V30 62 C 4.6013 3.27884 -1.12662 0
M  V30 63 C 3.6623 3.61204 -2.32013 0
M  V30 64 C 2.8953 4.89687 -2.12231 0
M  V30 65 O 3.1183 5.59704 -1.09945 0
M  V30 66 O 2.0523 5.21752 -3.00098 0
M  V30 67 H 5.8783 1.98613 -2.29753 0
M  V30 68 H 3.4633 0.926384 -1.17211 0
M  V30 69 H 5.3453 4.08614 -1.03016 0
M  V30 70 H 4.0203 3.23118 -0.193991 0
M  V30 71 H 2.9273 2.80765 -2.47228 0
M  V30 72 H 4.2603 3.70698 -3.23796 0
M  V30 73 N 5.9124 1.20967 1.01018 0
M  V30 74 C 7.1604 1.02172 1.74371 0
M  V30 75 C 7.4814 -0.446414 1.89821 0
M  V30 76 O 6.7514 -1.32234 1.44537 0
M  V30 77 H 5.3314 0.375066 0.646014 0
M  V30 78 H 7.9934 1.52187 1.21758 0
M  V30 79 H 7.0894 1.48538 2.74487 0
M  V30 80 N 7.3905 -1.2043 1.01659 0
M  V30 81 C 8.3205 -2.25466 0.607226 0
M  V30 82 C 9.3015 -1.65853 -0.377716 0
M  V30 83 O 10.4865 -1.92409 -0.263149 0
M  V30 84 C 7.6165 -3.47256 -0.0552949 0
M  V30 85 C 6.5705 -4.19462 0.850632 0
M  V30 86 C 5.8965 -5.34673 0.0538859 0
M  V30 87 C 7.1965 -4.75603 2.15868 0
M  V30 88 H 8.8905 -2.59962 1.48526 0
M  V30 89 H 6.4365 -1.2496 0.715605 0
M  V30 90 H 8.3895 -4.19917 -0.353233 0
M  V30 91 H 7.1135 -3.11924 -0.968045 0
M  V30 92 H 5.7725 -3.48667 1.13257 0
M  V30 93 H 5.4205 -4.95585 -0.860514 0
M  V30 94 H 5.1205 -5.83913 0.657192 0
M  V30 95 H 6.6445 -6.10138 -0.237598 0
M  V30 96 H 8.0585 -5.40083 1.92311 0
M  V30 97 H 6.4555 -5.3528 2.71284 0
M  V30 98 H 7.5255 -3.94346 2.82169 0
M  V30 99 N 8.8686 -0.792821 -1.36206 0
M  V30 100 C 10.1456 -0.290627 -1.93429 0
M  V30 101 C 10.5256 1.21773 -1.72437 0
M  V30 102 O 9.8736 2.0108 -1.08531 0
M  V30 103 C 10.0836 -0.686973 -3.42172 0
M  V30 104 C 11.4316 -0.668643 -4.19302 0
M  V30 105 O 12.4556 -0.627658 -3.50626 0
M  V30 106 O 11.3146 -0.714597 -5.41808 0
M  V30 107 H 8.4086 -0.0727927 -0.82379 0
M  V30 108 H 10.9546 -0.875593 -1.45367 0
M  V30 109 H 9.7266 -1.72711 -3.51122 0
M  V30 110 H 9.3496 -0.0760733 -3.97527 0
M  V30 111 N 10.3467 1.47872 -0.545128 0
M  V30 112 C 11.2767 2.32661 0.197793 0
M  V30 113 C 12.2577 1.43041 0.920504 0
M  V30 114 O 13.4427 1.71912 0.90333 0
M  V30 115 C 10.5727 3.24569 1.23582 0
M  V30 116 C 9.5267 4.23333 0.630323 0
M  V30 117 C 8.8527 5.0448 1.77211 0
M  V30 118 C 10.1527 5.20704 -0.407974 0
M  V30 119 H 11.8467 2.95024 -0.510045 0
M  V30 120 H 9.3927 1.4187 -0.246731 0
M  V30 121 H 11.3457 3.8272 1.76362 0
M  V30 122 H 10.0697 2.60236 1.97344 0
M  V30 123 H 8.7287 3.6639 0.123922 0
M  V30 124 H 8.3767 4.36561 2.49847 0
M  V30 125 H 8.0767 5.71339 1.37281 0
M  V30 126 H 9.6007 5.65487 2.3034 0
M  V30 127 H 11.0147 5.7329 0.033305 0
M  V30 128 H 9.4117 5.95699 -0.725486 0
M  V30 129 H 10.4817 4.66917 -1.30828 0
M  V30 130 N 11.8248 0.280983 1.55075 0
M  V30 131 C 13.0708 -0.33461 2.00021 0
M  V30 132 C 13.4038 -1.55063 1.16915 0
M  V30 133 O 12.6788 -1.93006 0.240646 0
M  V30 134 C 12.9618 -0.711007 3.53011 0
M  V30 135 C 12.8148 0.512766 4.46868 0
M  V30 136 C 14.1338 -1.54522 4.12081 0
M  V30 137 H 11.2528 -0.120147 0.727141 0
M  V30 138 H 13.8948 0.389097 1.85973 0
M  V30 139 H 12.0448 -1.32761 3.65112 0
M  V30 140 H 13.7168 1.15131 4.46702 0
M  V30 141 H 11.9598 1.14975 4.18286 0
M  V30 142 H 12.6308 0.205556 5.51617 0
M  V30 143 H 15.1068 -1.02442 4.03293 0
M  V30 144 H 13.9828 -1.77739 5.19327 0
M  V30 145 H 14.2438 -2.52813 3.62682 0
M  V30 146 N 13.3029 -1.57598 0.00835791 0
M  V30 147 C 14.5279 -1.95617 -0.689103 0
M  V30 148 C 14.9529 -0.883753 -1.66046 0
M  V30 149 O 14.3109 0.157352 -1.80616 0
M  V30 150 C 14.3589 -3.32736 -1.38994 0
M  V30 151 O 13.4629 -3.27631 -2.50463 0
M  V30 152 H 12.8039 -0.638379 -0.182668 0
M  V30 153 H 15.3339 -2.045 0.064036 0
M  V30 154 H 15.3439 -3.68494 -1.75147 0
M  V30 155 H 14.0189 -4.1034 -0.677778 0
M  V30 156 H 12.5959 -3.03561 -2.16576 0
M  V30 157 N 14.781 0.264519 -1.55364 0
M  V30 158 C 15.744 1.31046 -1.88042 0
M  V30 159 C 16.744 1.41943 -0.755569 0
M  V30 160 O 17.934 1.40947 -1.02369 0
M  V30 161 C 15.066 2.69067 -2.09323 0
M  V30 162 H 16.259 1.03297 -2.81549 0
M  V30 163 H 13.812 0.502989 -1.47986 0
M  V30 164 H 14.547 3.01982 -1.18226 0
M  V30 165 H 14.332 2.62542 -2.91229 0
M  V30 166 H 15.822 3.44623 -2.35848 0
M  V30 167 N 16.2591 1.48442 0.529413 0
M  V30 168 C 17.1891 1.65902 1.64313 0
M  V30 169 C 18.1701 0.507897 1.6234 0
M  V30 170 O 19.3551 0.740503 1.79528 0
M  V30 171 C 16.4851 1.69911 3.02898 0
M  V30 172 C 15.4391 2.8453 3.19729 0
M  V30 173 C 14.7651 2.73629 4.59381 0
M  V30 174 C 16.0651 4.25821 3.02447 0
M  V30 175 H 17.7591 2.5914 1.49955 0
M  V30 176 H 15.3051 1.24709 0.719982 0
M  V30 177 H 17.2581 1.80715 3.80684 0
M  V30 178 H 15.9821 0.732524 3.18279 0
M  V30 179 H 14.6411 2.73283 2.44361 0
M  V30 180 H 14.2891 1.74938 4.71599 0
M  V30 181 H 13.9891 3.50541 4.71588 0
M  V30 182 H 15.5131 2.86401 5.39265 0
M  V30 183 H 16.9271 4.37898 3.70024 0
M  V30 184 H 15.3241 5.03735 3.26146 0
M  V30 185 H 16.3941 4.42244 1.98867 0
M  V30 186 N 17.7372 -0.778329 1.37039 0
M  V30 187 C 18.7002 -1.87301 1.32102 0
M  V30 188 C 19.7002 -1.59198 0.226405 0
M  V30 189 O 20.8902 -1.67403 0.481861 0
M  V30 190 C 18.0222 -3.24309 1.05055 0
M  V30 191 H 19.2152 -1.93093 2.29467 0
M  V30 192 H 16.7682 -0.977358 1.21973 0
M  V30 193 H 17.5032 -3.24196 0.0819373 0
M  V30 194 H 17.2882 -3.46098 1.84279 0
M  V30 195 H 18.7782 -4.04382 1.04234 0
M  V30 196 N 19.2153 -1.21501 -1.00376 0
M  V30 197 C 20.4433 -1.059 -1.77744 0
M  V30 198 C 20.8583 0.391125 -1.84704 0
M  V30 199 O 20.2153 1.27133 -1.30933 0
M  V30 200 C 20.2663 -1.65111 -3.21591 0
M  V30 201 O 19.9873 -3.0445 -3.15027 0
M  V30 202 C 21.4883 -1.54637 -4.15454 0
M  V30 203 H 18.7083 -0.371825 -0.558558 0
M  V30 204 H 21.2523 -1.60865 -1.26264 0
M  V30 205 H 19.4073 -1.14235 -3.70175 0
M  V30 206 H 19.8213 -3.3278 -4.0541 0
M  V30 207 H 21.2953 -2.00808 -5.14179 0
M  V30 208 H 21.7723 -0.501022 -4.36333 0
M  V30 209 H 22.3783 -2.04767 -3.72761 0
M  V30 210 N 20.6934 1.19889 -1.02296 0
M  V30 211 C 21.6234 2.25141 -0.619174 0
M  V30 212 C 22.6044 1.66051 0.368915 0
M  V30 213 O 23.7894 1.92546 0.252941 0
M  V30 214 C 20.9194 3.4728 0.0368783 0
M  V30 215 C 19.8734 4.19005 -0.872865 0
M  V30 216 C 19.1994 5.34637 -0.0822402 0
M  V30 217 C 20.4994 4.74452 -2.18387 0
M  V30 218 H 22.1934 2.59171 -1.49903 0
M  V30 219 H 19.7394 1.24579 -0.722222 0
M  V30 220 H 21.6924 4.20098 0.330958 0
M  V30 221 H 20.4164 3.12433 0.95149 0
M  V30 222 H 19.0754 3.48061 -1.15105 0
M  V30 223 H 18.7234 4.96034 0.83422 0
M  V30 224 H 18.4234 5.83557 -0.688149 0
M  V30 225 H 19.9474 6.10255 0.205238 0
M  V30 226 H 21.3614 5.39055 -1.95172 0
M  V30 227 H 19.7584 5.33834 -2.74119 0
M  V30 228 H 20.8284 3.92844 -2.84257 0
M  V30 229 N 22.1715 0.800033 1.35784 0
M  V30 230 C 23.1345 0.211565 2.28221 0
M  V30 231 C 24.1345 -0.59728 1.49296 0
M  V30 232 O 25.3245 -0.416721 1.69142 0
M  V30 233 C 22.4565 -0.705846 3.33513 0
M  V30 234 H 23.6495 1.02677 2.81776 0
M  V30 235 H 21.2025 0.570211 1.45528 0
M  V30 236 H 21.9375 -1.54498 2.85133 0
M  V30 237 H 21.7225 -0.127655 3.91892 0
M  V30 238 H 23.2125 -1.11211 4.02519 0
M  V30 239 N 23.6496 -1.47581 0.552962 0
M  V30 240 C 24.6126 -2.28439 -0.186605 0
M  V30 241 C 25.6126 -1.36706 -0.84665 0
M  V30 242 O 26.8026 -1.59378 -0.703164 0
M  V30 243 C 23.9346 -3.16264 -1.2724 0
M  V30 244 H 25.1276 -2.95294 0.523609 0
M  V30 245 H 22.6806 -1.532 0.309745 0
M  V30 246 H 23.4156 -2.54091 -2.01514 0
M  V30 247 H 23.2006 -3.83769 -0.803968 0
M  V30 248 H 24.6906 -3.77198 -1.79196 0
M  V30 249 N 25.1277 -0.289203 -1.54924 0
M  V30 250 C 26.3677 0.324536 -2.01807 0
M  V30 251 C 26.7317 1.5199 -1.17316 0
M  V30 252 O 27.9327 2.20422 -1.53843 0
M  V30 253 C 26.2037 0.683578 -3.50802 0
M  V30 254 S 27.7627 1.28185 -4.19659 0
M  V30 255 H 24.5807 0.100236 -0.703899 0
M  V30 256 H 27.1827 -0.414325 -1.91059 0
M  V30 257 H 25.8867 -0.195073 -4.09936 0
M  V30 258 H 25.4177 1.45354 -3.65562 0
M  V30 259 H 27.4327 2.57006 -4.24456 0
M  V30 260 N 26.6058 1.57591 -0.0167156 0
M  V30 261 C 27.5358 2.12496 0.967858 0
M  V30 262 C 28.5168 1.03807 1.34752 0
M  V30 263 O 29.7018 1.31577 1.42833 0
M  V30 264 C 26.8318 2.64194 2.25431 0
M  V30 265 C 25.7858 3.77559 2.01576 0
M  V30 266 C 25.1118 4.15636 3.36379 0
M  V30 267 C 26.4118 5.04151 1.36489 0
M  V30 268 H 28.1058 2.95013 0.510643 0
M  V30 269 H 25.6518 1.41915 0.244181 0
M  V30 270 H 27.6048 3.01236 2.94678 0
M  V30 271 H 26.3288 1.78821 2.73296 0
M  V30 272 H 24.9878 3.40937 1.34751 0
M  V30 273 H 24.6358 3.27263 3.81979 0
M  V30 274 H 24.3358 4.92022 3.21229 0
M  V30 275 H 25.8598 4.5525 4.06915 0
M  V30 276 H 27.2738 5.38857 1.95718 0
M  V30 277 H 25.6708 5.85453 1.31776 0
M  V30 278 H 26.7408 4.83733 0.336219 0
M  V30 279 N 28.0839 -0.256276 1.55502 0
M  V30 280 C 29.3299 -0.987079 1.77157 0
M  V30 281 C 29.6629 -1.85327 0.580315 0
M  V30 282 O 28.9379 -1.89874 -0.421686 0
M  V30 283 C 29.2209 -1.85553 3.08613 0
M  V30 284 C 29.0739 -1.01816 4.38125 0
M  V30 285 C 30.3929 -2.8397 3.36228 0
M  V30 286 H 27.5119 -0.357428 0.644526 0
M  V30 287 H 30.1539 -0.258239 1.88237 0
M  V30 288 H 28.3039 -2.47695 2.99298 0
M  V30 289 H 29.9759 -0.416159 4.59419 0
M  V30 290 H 28.2189 -0.322178 4.32602 0
M  V30 291 H 28.8899 -1.65939 5.26468 0
M  V30 292 H 31.3659 -2.31964 3.45445 0
M  V30 293 H 30.2419 -3.41864 4.29442 0
M  V30 294 H 30.5029 -3.59955 2.56681 0
M  V30 295 N 29.562 -1.4872 -0.521534 0
M  V30 296 C 30.787 -1.61101 -1.30618 0
M  V30 297 C 31.212 -0.274611 -1.86085 0
M  V30 298 O 30.57 0.754937 -1.64834 0
M  V30 299 C 30.618 -2.66709 -2.4269 0
M  V30 300 O 29.722 -2.24456 -3.45967 0
M  V30 301 H 29.063 -0.539921 -0.386499 0
M  V30 302 H 31.593 -1.94767 -0.626645 0
M  V30 303 H 31.603 -2.88245 -2.88754 0
M  V30 304 H 30.278 -3.63727 -2.01682 0
M  V30 305 H 28.855 -2.13168 -3.05964 0
M  V30 306 N 31.0401 0.771051 -1.3745 0
M  V30 307 C 32.2861 1.5319 -1.32894 0
M  V30 308 C 32.6191 1.94008 0.0862511 0
M  V30 309 O 31.8941 1.64124 1.04373 0
M  V30 310 C 32.1771 2.79648 -2.26868 0
M  V30 311 C 32.0301 2.45079 -3.77169 0
M  V30 312 C 33.3491 3.81583 -2.19277 0
M  V30 313 H 30.4681 0.555744 -0.484064 0
M  V30 314 H 33.1101 0.884492 -1.68157 0
M  V30 315 H 31.2601 3.34891 -1.96926 0
M  V30 316 H 32.9321 1.95745 -4.1771 0
M  V30 317 H 31.1751 1.77767 -3.95704 0
M  V30 318 H 31.8461 3.35478 -4.38359 0
M  V30 319 H 34.3221 3.35835 -2.45671 0
M  V30 320 H 33.1981 4.67787 -2.87171 0
M  V30 321 H 33.4591 4.25897 -1.18592 0
M  V30 322 N 32.5182 1.22032 0.997298 0
M  V30 323 C 33.7462 1.06841 1.7718 0
M  V30 324 C 34.1612 -0.381325 1.84909 0
M  V30 325 O 33.5182 -1.26437 1.31605 0
M  V30 326 C 33.5692 1.66814 3.20711 0
M  V30 327 O 33.2902 3.06116 3.13408 0
M  V30 328 C 34.7912 1.56838 4.14628 0
M  V30 329 H 32.0112 0.374782 0.556578 0
M  V30 330 H 34.5552 1.61532 1.2541 0
M  V30 331 H 32.7102 1.16196 3.69564 0
M  V30 332 H 33.1242 3.34926 4.0364 0
M  V30 333 H 34.5982 2.03532 5.13107 0
M  V30 334 H 35.0752 0.524155 4.36061 0
M  V30 335 H 35.6812 2.06741 3.7167 0
M  V30 336 N 33.9963 -1.19345 1.0293 0
M  V30 337 C 34.9263 -2.2481 0.631105 0
M  V30 338 C 35.9073 -1.66245 -0.360104 0
M  V30 339 O 37.0923 -1.92677 -0.242726 0
M  V30 340 C 34.2223 -3.47295 -0.0184607 0
M  V30 341 C 33.1763 -4.18536 0.895073 0
M  V30 342 C 32.5023 -5.34586 0.110592 0
M  V30 343 C 33.8023 -4.73287 2.209 0
M  V30 344 H 35.4963 -2.58372 1.51275 0
M  V30 345 H 33.0423 -1.24194 0.728818 0
M  V30 346 H 34.9953 -4.20268 -0.308675 0
M  V30 347 H 33.7193 -3.12933 -0.934907 0
M  V30 348 H 32.3783 -3.47446 1.16949 0
M  V30 349 H 32.0263 -4.96469 -0.807902 0
M  V30 350 H 31.7263 -5.83183 0.719087 0
M  V30 351 H 33.2503 -6.10355 -0.172871 0
M  V30 352 H 34.6643 -5.38013 1.98028 0
M  V30 353 H 33.0613 -5.32373 2.76946 0
M  V30 354 H 34.1313 -3.91331 2.86336 0
M  V30 355 N 35.4744 -0.807222 -1.35358 0
M  V30 356 C 36.4044 -0.232509 -2.3234 0
M  V30 357 C 37.3854 0.642386 -1.57504 0
M  V30 358 O 38.5704 0.572526 -1.85569 0
M  V30 359 C 35.7004 0.619238 -3.41735 0
M  V30 360 C 34.6544 -0.157215 -4.27711 0
M  V30 361 C 33.9804 0.816273 -5.28433 0
M  V30 362 C 35.2804 -1.35656 -5.04376 0
M  V30 363 H 36.9744 -1.04276 -2.80654 0
M  V30 364 H 34.5204 -0.50288 -1.34934 0
M  V30 365 H 36.4734 1.03137 -4.08584 0
M  V30 366 H 35.1974 1.46239 -2.92031 0
M  V30 367 H 33.8564 -0.550525 -3.62443 0
M  V30 368 H 33.5044 1.65494 -4.74996 0
M  V30 369 H 33.2044 0.301067 -5.86828 0
M  V30 370 H 34.7284 1.22659 -5.98153 0
M  V30 371 H 36.1424 -1.01927 -5.64166 0
M  V30 372 H 34.5394 -1.8063 -5.7227 0
M  V30 373 H 35.6094 -2.14288 -4.34981 0
M  V30 374 N 36.9525 1.47285 -0.560781 0
M  V30 375 C 37.8825 2.32857 0.173105 0
M  V30 376 C 38.8635 1.44009 0.905281 0
M  V30 377 O 40.0485 1.7286 0.885046 0
M  V30 378 C 37.1785 3.25861 1.20133 0
M  V30 379 C 36.1325 4.23978 0.585388 0
M  V30 380 C 35.4585 5.06332 1.7185 0
M  V30 381 C 36.7585 5.20242 -0.463178 0
M  V30 382 H 38.4525 2.94466 -0.541307 0
M  V30 383 H 35.9985 1.41601 -0.261764 0
M  V30 384 H 37.9515 3.84569 1.72293 0
M  V30 385 H 36.6755 2.62315 1.94573 0
M  V30 386 H 35.3345 3.66501 0.085054 0
M  V30 387 H 34.9825 4.39186 2.45203 0
M  V30 388 H 34.6825 5.72762 1.31213 0
M  V30 389 H 36.2065 5.67899 2.24329 0
M  V30 390 H 37.6205 5.73293 -0.027502 0
M  V30 391 H 36.0175 5.94896 -0.788627 0
M  V30 392 H 37.0875 4.65504 -1.35773 0
M  V30 393 N 38.4306 0.297415 1.54768 0
M  V30 394 C 39.3936 -0.567375 2.22066 0
M  V30 395 C 40.3936 -1.06409 1.20556 0
M  V30 396 O 41.5836 -0.960691 1.45315 0
M  V30 397 C 38.7156 -1.78517 2.90421 0
M  V30 398 H 39.9086 0.0205534 2.99893 0
M  V30 399 H 37.4616 0.0482163 1.56226 0
M  V30 400 H 38.1966 -2.41303 2.16664 0
M  V30 401 H 37.9816 -1.43669 3.64831 0
M  V30 402 H 39.4716 -2.39964 3.41771 0
M  V30 403 N 39.9087 -1.5758 0.0250728 0
M  V30 404 C 41.1547 -1.91917 -0.655413 0
M  V30 405 C 41.4877 -0.901433 -1.72011 0
M  V30 406 O 40.7627 0.0764069 -1.9435 0
M  V30 407 C 41.0457 -3.36751 -1.27558 0
M  V30 408 C 40.8987 -4.49258 -0.220719 0
M  V30 409 C 42.2177 -3.81469 -2.19475 0
M  V30 410 H 39.3367 -0.697925 -0.23679 0
M  V30 411 H 41.9787 -1.89825 0.0815036 0
M  V30 412 H 40.1287 -3.38664 -1.90365 0
M  V30 413 H 41.8007 -4.59478 0.409601 0
M  V30 414 H 40.0437 -4.31415 0.454264 0
M  V30 415 H 40.7147 -5.47618 -0.694175 0
M  V30 416 H 43.1907 -3.81266 -1.66659 0
M  V30 417 H 42.0667 -4.83512 -2.59822 0
M  V30 418 H 42.3277 -3.16744 -3.08424 0
M  V30 419 N 41.3868 0.248026 -1.55636 0
M  V30 420 C 42.6118 0.998028 -1.81808 0
M  V30 421 C 43.0368 1.78207 -0.601979 0
M  V30 422 O 42.3948 1.75653 0.448961 0
M  V30 423 C 42.4428 1.9125 -3.05705 0
M  V30 424 O 41.5468 3.00406 -2.82542 0
M  V30 425 H 40.8878 0.284045 -0.600179 0
M  V30 426 H 43.4178 0.269357 -2.02819 0
M  V30 427 H 43.4278 2.32737 -3.35108 0
M  V30 428 H 42.1028 1.33602 -3.93857 0
M  V30 429 H 40.6798 2.63056 -2.64303 0
M  V30 430 N 42.8649 1.48995 0.513639 0
M  V30 431 C 43.7969 1.60836 1.63293 0
M  V30 432 C 44.8099 0.491701 1.55197 0
M  V30 433 O 45.9989 0.763238 1.6136 0
M  V30 434 C 43.0989 1.53731 3.02027 0
M  V30 435 C 42.2719 2.80715 3.35437 0
M  V30 436 C 41.3309 2.66837 4.53525 0
M  V30 437 O 40.3569 3.40753 4.55934 0
M  V30 438 N 41.5589 1.77539 5.52684 0
M  V30 439 H 44.3239 2.57366 1.53566 0
M  V30 440 H 41.8849 1.45925 0.701259 0
M  V30 441 H 43.8769 1.42118 3.78926 0
M  V30 442 H 42.4469 0.651092 3.05744 0
M  V30 443 H 41.6669 3.06772 2.47557 0
M  V30 444 H 42.9549 3.64927 3.54551 0
M  V30 445 H 42.3529 1.16719 5.53528 0
M  V30 446 H 40.9099 1.71856 6.28736 0
M  V30 447 N 44.343 -0.763751 1.37857 0
M  V30 448 C 45.275 -1.88664 1.30148 0
M  V30 449 C 46.288 -1.61365 0.215685 0
M  V30 450 O 47.477 -1.72134 0.472459 0
M  V30 451 C 44.577 -3.24075 0.991396 0
M  V30 452 C 43.75 -3.78958 2.18426 0
M  V30 453 C 42.809 -4.92862 1.8432 0
M  V30 454 O 41.835 -5.08027 2.56704 0
M  V30 455 N 43.037 -5.75071 0.792081 0
M  V30 456 H 45.802 -1.95791 2.26905 0
M  V30 457 H 43.363 -0.943226 1.31586 0
M  V30 458 H 45.355 -3.97804 0.743935 0
M  V30 459 H 43.925 -3.12399 0.112122 0
M  V30 460 H 43.145 -2.96913 2.59299 0
M  V30 461 H 44.433 -4.12357 2.98058 0
M  V30 462 H 43.831 -5.65375 0.191595 0
M  V30 463 H 42.388 -6.48991 0.60449 0
M  V30 464 N 45.8211 -1.22559 -0.990812 0
M  V30 465 C 46.7511 -1.0218 -2.09956 0
M  V30 466 C 47.7321 0.0579394 -1.70001 0
M  V30 467 O 48.9171 -0.104684 -1.93918 0
M  V30 468 C 46.0471 -0.601023 -3.4206 0
M  V30 469 C 45.0011 -1.62694 -3.95872 0
M  V30 470 C 44.3271 -1.06193 -5.24049 0
M  V30 471 C 45.6271 -3.01743 -4.2632 0
M  V30 472 H 47.3211 -1.94916 -2.27262 0
M  V30 473 H 44.8671 -0.938566 -1.09211 0
M  V30 474 H 46.8201 -0.445561 -4.19038 0
M  V30 475 H 45.5441 0.362005 -3.24588 0
M  V30 476 H 44.2031 -1.77021 -3.21028 0
M  V30 477 H 43.8511 -0.0901903 -5.02919 0
M  V30 478 H 43.5511 -1.74732 -5.61019 0
M  V30 479 H 45.0751 -0.918092 -6.03658 0
M  V30 480 H 46.4891 -2.90777 -4.94087 0
M  V30 481 H 44.8861 -3.67425 -4.74467 0
M  V30 482 H 45.9561 -3.51518 -3.34011 0
M  V30 483 N 47.2992 1.18797 -1.03562 0
M  V30 484 C 48.5452 1.89192 -0.746867 0
M  V30 485 C 48.9002 1.78531 0.717245 0
M  V30 486 O 48.1932 1.17137 1.51622 0
M  V30 487 C 48.3872 3.38692 -1.14117 0
M  V30 488 C 48.2162 3.63902 -2.64207 0
M  V30 489 C 46.9862 3.81553 -3.31279 0
M  V30 490 C 49.1842 3.64903 -3.62423 0
M  V30 491 N 47.1662 3.94455 -4.70402 0
M  V30 492 C 48.5372 3.83458 -4.87196 0
M  V30 493 C 50.5922 3.47965 -3.56125 0
M  V30 494 C 49.2952 3.86829 -6.06429 0
M  V30 495 C 51.3212 3.52616 -4.7478 0
M  V30 496 C 50.6832 3.71663 -5.9837 0
M  V30 497 H 46.7822 0.711141 -0.325273 0
M  V30 498 H 49.3662 1.42727 -1.32428 0
M  V30 499 H 47.5372 3.83864 -0.591889 0
M  V30 500 H 49.2692 3.96634 -0.803966 0
M  V30 501 H 46.0242 3.80723 -2.81686 0
M  V30 502 H 46.4482 4.0474 -5.42692 0
M  V30 503 H 51.0902 3.32189 -2.61553 0
M  V30 504 H 48.8082 4.01395 -7.01362 0
M  V30 505 H 52.3942 3.40791 -4.71543 0
M  V30 506 H 51.2742 3.75145 -6.88648 0
M  V30 507 N 48.7773 0.814389 1.34928 0
M  V30 508 C 49.7093 0.187834 2.28429 0
M  V30 509 C 50.7223 -0.617374 1.5064 0
M  V30 510 O 51.9113 -0.448454 1.72775 0
M  V30 511 C 49.0113 -0.755962 3.30361 0
M  V30 512 C 48.1843 0.00456686 4.374 0
M  V30 513 C 47.2433 -0.858876 5.19143 0
M  V30 514 O 46.2693 -0.306968 5.68372 0
M  V30 515 N 47.4713 -2.17988 5.38016 0
M  V30 516 H 50.2363 0.991105 2.82838 0
M  V30 517 H 47.7973 0.670561 1.4736 0
M  V30 518 H 49.7893 -1.338 3.81942 0
M  V30 519 H 48.3593 -1.46001 2.7641 0
M  V30 520 H 47.5793 0.767865 3.86649 0
M  V30 521 H 48.8673 0.528422 5.06049 0
M  V30 522 H 48.2653 -2.65212 4.99679 0
M  V30 523 H 46.8223 -2.71098 5.92747 0
M  V30 524 N 50.2554 -1.46986 0.568584 0
M  V30 525 C 51.1854 -2.32946 -0.160753 0
M  V30 526 C 52.1664 -1.44487 -0.897631 0
M  V30 527 O 53.3514 -1.73327 -0.875867 0
M  V30 528 C 50.4814 -3.26494 -1.18403 0
M  V30 529 C 49.4354 -4.24282 -0.562895 0
M  V30 530 C 48.7614 -5.07236 -1.69163 0
M  V30 531 C 50.0614 -5.19989 0.490761 0
M  V30 532 H 51.7554 -2.94175 0.556916 0
M  V30 533 H 49.3014 -1.4146 0.26927 0
M  V30 534 H 51.2544 -3.85477 -1.70251 0
M  V30 535 H 49.9784 -2.63343 -1.93179 0
M  V30 536 H 48.6374 -3.66541 -0.0656164 0
M  V30 537 H 48.2854 -4.4048 -2.42871 0
M  V30 538 H 47.9854 -5.7345 -1.28174 0
M  V30 539 H 49.5094 -5.6908 -2.21314 0
M  V30 540 H 50.9234 -5.73271 0.0579047 0
M  V30 541 H 49.3204 -5.94469 0.820165 0
M  V30 542 H 50.3904 -4.64777 1.3824 0
M  V30 543 N 51.7335 -0.305618 -1.54608 0
M  V30 544 C 53.1495 0.0476228 -1.59529 0
M  V30 545 C 53.3495 1.52025 -1.32252 0
M  V30 546 O 52.4055 2.27368 -1.09818 0
M  V30 547 C 53.7185 -0.354471 -2.98603 0
M  V30 548 C 55.2665 -0.303622 -3.11524 0
M  V30 549 C 55.7415 -0.680608 -4.52915 0
M  V30 550 N 57.2325 -0.63332 -4.5885 0
M  V30 551 C 57.9675 -0.897432 -5.66334 0
M  V30 552 N 57.4635 -1.22775 -6.81834 0
M  V30 553 N 59.2565 -0.824186 -5.56025 0
M  V30 554 H 51.4075 -1.2653 -1.70599 0
M  V30 555 H 53.6705 -0.513291 -0.797017 0
M  V30 556 H 53.3765 -1.3798 -3.23503 0
M  V30 557 H 53.2505 0.289568 -3.76087 0
M  V30 558 H 55.6375 0.712472 -2.8637 0
M  V30 559 H 55.7185 -0.982348 -2.36185 0
M  V30 560 H 55.3625 -1.69453 -4.78799 0
M  V30 561 H 55.2925 0.0202385 -5.26596 0
M  V30 562 H 57.7835 -0.389138 -3.75891 0
M  V30 563 H 58.0965 -1.41513 -7.59733 0
M  V30 564 H 56.4415 -1.26583 -6.83375 0
M  V30 565 H 59.6325 -0.565748 -4.64669 0
M  V30 566 H 59.8055 -1.03338 -6.39707 0
M  V30 567 N 53.2116 1.57565 -0.0334293 0
M  V30 568 C 54.4576 1.93088 0.639417 0
M  V30 569 C 54.8126 0.910589 1.69488 0
M  V30 570 O 54.1056 -0.0727725 1.91462 0
M  V30 571 C 54.2996 3.33112 1.29504 0
M  V30 572 C 54.1286 4.48667 0.304604 0
M  V30 573 C 52.8986 5.05207 -0.0970777 0
M  V30 574 C 55.0966 5.1239 -0.442845 0
M  V30 575 N 53.0786 6.04286 -1.08223 0
M  V30 576 C 54.4496 6.06609 -1.28161 0
M  V30 577 C 56.5046 4.95352 -0.50308 0
M  V30 578 C 55.2076 6.85622 -2.17519 0
M  V30 579 C 57.2336 5.74978 -1.38401 0
M  V30 580 C 56.5956 6.68816 -2.21054 0
M  V30 581 H 52.6946 0.754335 0.206161 0
M  V30 582 H 55.2786 1.94435 -0.101613 0
M  V30 583 H 53.4496 3.32576 2.00618 0
M  V30 584 H 55.1816 3.55972 1.92525 0
M  V30 585 H 51.9366 4.72782 0.278255 0
M  V30 586 H 52.3606 6.58516 -1.57117 0
M  V30 587 H 57.0026 4.22625 0.121694 0
M  V30 588 H 54.7206 7.57652 -2.81049 0
M  V30 589 H 58.3066 5.63826 -1.43496 0
M  V30 590 H 57.1866 7.29355 -2.88116 0
M  V30 591 N 54.6897 -0.239769 1.55765 0
M  V30 592 C 55.6527 -1.28038 1.90103 0
M  V30 593 C 56.6527 -1.40723 0.778055 0
M  V30 594 O 57.8427 -1.39301 1.04599 0
M  V30 595 C 54.9747 -2.65702 2.13577 0
M  V30 596 H 56.1677 -0.988048 2.83157 0
M  V30 597 H 53.7207 -0.479382 1.48767 0
M  V30 598 H 54.4557 -3.00063 1.23015 0
M  V30 599 H 54.2407 -2.57875 2.95369 0
M  V30 600 H 55.7307 -3.40828 2.41301 0
M  V30 601 N 56.1678 -1.49265 -0.50573 0
M  V30 602 C 57.1308 -1.65075 -1.59006 0
M  V30 603 C 58.1308 -0.522768 -1.52065 0
M  V30 604 O 59.3208 -0.789117 -1.55302 0
M  V30 605 C 56.4528 -1.64369 -2.98656 0
M  V30 606 H 57.6458 -2.61784 -1.46319 0
M  V30 607 H 55.1988 -1.38226 -0.729616 0
M  V30 608 H 55.9338 -0.692272 -3.16825 0
M  V30 609 H 55.7188 -2.46282 -3.05103 0
M  V30 610 H 57.2088 -1.78674 -3.77446 0
M  V30 611 N 57.6459 0.756429 -1.3826 0
M  V30 612 C 58.8739 1.54565 -1.3754 0
M  V30 613 C 59.2889 1.88767 0.0355331 0
M  V30 614 O 58.6459 1.52572 1.0014 0
M  V30 615 C 58.6969 2.84654 -2.22833 0
M  V30 616 O 58.4179 2.51912 -3.5843 0
M  V30 617 C 59.9189 3.78807 -2.30261 0
M  V30 618 H 57.1389 0.478353 -0.470553 0
M  V30 619 H 59.6829 0.936381 -1.81803 0
M  V30 620 H 57.8379 3.41965 -1.8204 0
M  V30 621 H 58.2519 3.35325 -4.03308 0
M  V30 622 H 59.7259 4.67045 -2.94233 0
M  V30 623 H 60.2029 4.19038 -1.31545 0
M  V30 624 H 60.8089 3.2742 -2.71433 0
M  V30 625 N 59.124 1.23083 0.984299 0
M  V30 626 C 60.54 0.992637 1.24975 0
M  V30 627 C 60.74 -0.308618 1.99123 0
M  V30 628 O 59.796 -1.02905 2.30579 0
M  V30 629 C 61.109 2.19698 2.05312 0
M  V30 630 C 62.657 2.24147 2.18465 0
M  V30 631 C 63.132 3.44157 3.02192 0
M  V30 632 N 64.623 3.44372 3.09777 0
M  V30 633 C 65.358 4.33886 3.74874 0
M  V30 634 N 64.854 5.3363 4.41827 0
M  V30 635 N 66.647 4.21639 3.71721 0
M  V30 636 H 58.798 2.06731 0.487453 0
M  V30 637 H 61.061 0.906339 0.277944 0
M  V30 638 H 60.767 3.1411 1.58201 0
M  V30 639 H 60.641 2.20465 3.06064 0
M  V30 640 H 63.028 1.30277 2.64786 0
M  V30 641 H 63.109 2.27415 1.17115 0
M  V30 642 H 62.753 4.38332 2.56568 0
M  V30 643 H 62.683 3.3813 4.03702 0
M  V30 644 H 65.174 2.72201 2.62135 0
M  V30 645 H 65.487 5.98196 4.89266 0
M  V30 646 H 63.832 5.37534 4.40548 0
M  V30 647 H 67.023 3.42962 3.18582 0
M  V30 648 H 67.196 4.91604 4.22173 0
M  V30 649 N 60.6021 -1.18246 1.0419 0
M  V30 650 C 61.8791 -1.84121 0.660208 0
M  V30 651 C 62.2591 -1.92778 -0.860221 0
M  V30 652 O 61.6071 -1.45464 -1.76217 0
M  V30 653 C 61.8171 -3.22355 1.33747 0
M  V30 654 C 63.1651 -3.98376 1.46906 0
M  V30 655 O 64.1891 -3.31799 1.29568 0
M  V30 656 O 63.0481 -5.17665 1.75171 0
M  V30 657 H 60.1421 -0.794036 0.231161 0
M  V30 658 H 62.6881 -1.25628 1.14087 0
M  V30 659 H 61.4601 -3.10964 2.37522 0
M  V30 660 H 61.0831 -3.88506 0.845515 0
M  V30 661 N 62.0802 -0.821533 -1.34494 0
M  V30 662 C 63.0272 -0.240397 -2.29545 0
M  V30 663 C 63.9972 0.634031 -1.53523 0
M  V30 664 O 65.1822 0.575966 -1.81899 0
M  V30 665 C 62.3222 0.592869 -3.39969 0
M  V30 666 C 61.4352 -0.30365 -4.30932 0
M  V30 667 C 60.5702 0.539049 -5.28458 0
M  V30 668 C 59.6092 -0.356942 -6.11058 0
M  V30 669 N 58.7462 0.446603 -7.00678 0
M  V30 670 H 63.5862 -1.05632 -2.7865 0
M  V30 671 H 61.1232 -0.532413 -1.37127 0
M  V30 672 H 63.0812 1.09129 -4.02675 0
M  V30 673 H 61.7112 1.37392 -2.92102 0
M  V30 674 H 60.7632 -0.920276 -3.691 0
M  V30 675 H 62.0752 -0.992661 -4.88823 0
M  V30 676 H 61.2292 1.102 -5.96608 0
M  V30 677 H 59.9682 1.26157 -4.71101 0
M  V30 678 H 58.9732 -0.932047 -5.41842 0
M  V30 679 H 60.1982 -1.07755 -6.70497 0
M  V30 680 H 58.1442 1.15282 -6.45791 0
M  V30 681 H 58.0612 -0.184048 -7.55776 0
M  V30 682 H 59.3292 0.992352 -7.73158 0
M  V30 683 N 63.5583 1.46682 -0.576371 0
M  V30 684 C 64.7833 2.07304 -0.0630475 0
M  V30 685 C 65.2083 1.42329 1.2298 0
M  V30 686 O 64.5663 0.504865 1.74129 0
M  V30 687 C 64.6143 3.60472 0.095895 0
M  V30 688 O 63.7183 3.95927 1.15394 0
M  V30 689 H 63.0593 0.661288 -0.0599463 0
M  V30 690 H 65.5893 1.88417 -0.797511 0
M  V30 691 H 65.5993 4.06865 0.304071 0
M  V30 692 H 64.2743 4.07157 -0.84828 0
M  V30 693 H 62.8513 3.61252 0.924724 0
M  V30 694 N 65.0364 0.313813 1.54444 0
M  V30 695 C 66.2764 -0.292389 2.02298 0
M  V30 696 C 66.6404 -1.50105 1.19719 0
M  V30 697 O 67.8414 -2.17947 1.5733 0
M  V30 698 C 66.1124 -0.627682 3.51845 0
M  V30 699 S 67.6714 -1.21493 4.21646 0
M  V30 700 H 64.4894 -0.0890247 0.705405 0
M  V30 701 H 67.0914 0.444668 1.90376 0
M  V30 702 H 65.7954 0.260265 4.09574 0
M  V30 703 H 65.3264 -1.39519 3.67829 0
M  V30 704 H 67.3414 -2.5022 4.28491 0
M  V30 705 N 66.5145 -1.57545 0.0417849 0
M  V30 706 C 67.4615 -2.10977 -0.935805 0
M  V30 707 C 68.4315 -1.01486 -1.31491 0
M  V30 708 O 69.6165 -1.2898 -1.40602 0
M  V30 709 C 66.7565 -2.65169 -2.2086 0
M  V30 710 C 65.8695 -3.88714 -1.88482 0
M  V30 711 C 65.0045 -4.31254 -3.1015 0
M  V30 712 C 64.0435 -5.47524 -2.7365 0
M  V30 713 N 63.1805 -5.85162 -3.87982 0
M  V30 714 H 68.0205 -2.94218 -0.473249 0
M  V30 715 H 65.5575 -1.45415 -0.221981 0
M  V30 716 H 67.5155 -2.94685 -2.95325 0
M  V30 717 H 66.1455 -1.8474 -2.64709 0
M  V30 718 H 65.1975 -3.65849 -1.04205 0
M  V30 719 H 66.5095 -4.73245 -1.57608 0
M  V30 720 H 65.6635 -4.62273 -3.92923 0
M  V30 721 H 64.4025 -3.45516 -3.44195 0
M  V30 722 H 63.4075 -5.16187 -1.89291 0
M  V30 723 H 64.6325 -6.34971 -2.40807 0
M  V30 724 H 62.5785 -5.02377 -4.21846 0
M  V30 725 H 62.4955 -6.64362 -3.60775 0
M  V30 726 H 63.7635 -6.20791 -4.71422 0
M  V30 727 N 67.9926 0.231505 -1.5589 0
M  V30 728 C 68.9226 1.29022 -1.94617 0
M  V30 729 C 69.9036 1.4941 -0.813067 0
M  V30 730 O 71.0886 1.6176 -1.07459 0
M  V30 731 C 68.2186 2.64199 -2.25424 0
M  V30 732 C 67.1726 2.58484 -3.41131 0
M  V30 733 C 66.4986 3.97599 -3.57518 0
M  V30 734 C 67.7986 2.1413 -4.76388 0
M  V30 735 H 69.4926 0.968563 -2.83301 0
M  V30 736 H 67.0386 0.464479 -1.36303 0
M  V30 737 H 68.9916 3.38413 -2.51107 0
M  V30 738 H 67.7156 2.98032 -1.33583 0
M  V30 739 H 66.3746 1.86727 -3.15481 0
M  V30 740 H 66.0226 4.28723 -2.6307 0
M  V30 741 H 65.7226 3.94659 -4.35337 0
M  V30 742 H 67.2466 4.7349 -3.85538 0
M  V30 743 H 68.6606 2.78083 -5.01341 0
M  V30 744 H 67.0576 2.2227 -5.57419 0
M  V30 745 H 68.1276 1.09331 -4.72414 0
M  V30 746 N 69.4707 1.49531 0.497807 0
M  V30 747 C 70.8817 1.52344 1.07927 0
M  V30 748 C 71.2327 0.311469 1.93712 0
M  V30 749 O 70.3577 -0.578405 2.08527 0
M  V30 750 C 70.9527 2.76062 1.96405 0
M  V30 751 C 69.5117 2.81643 2.49709 0
M  V30 752 C 68.6587 2.46299 1.27404 0
M  V30 753 H 71.6097 1.56182 0.281576 0
M  V30 754 H 71.6307 2.56405 2.81135 0
M  V30 755 H 71.1427 3.64254 1.33943 0
M  V30 756 H 69.2437 1.97739 3.15801 0
M  V30 757 H 69.3567 3.83891 2.86643 0
M  V30 758 H 67.7207 1.98148 1.60029 0
M  V30 759 H 68.5037 3.36769 0.66645 0
M  V30 760 N 70.9488 -0.749086 1.3866 0
M  V30 761 C 72.1978 -1.50371 1.3443 0
M  V30 762 C 72.5108 -1.95503 -0.0616397 0
M  V30 763 O 73.7168 -2.70554 -0.226489 0
M  V30 764 C 72.1728 -2.71644 2.36088 0
M  V30 765 C 71.7808 -2.3352 3.82325 0
M  V30 766 C 73.5248 -3.49518 2.40909 0
M  V30 767 C 71.4318 -3.51431 4.75658 0
M  V30 768 H 70.3618 -0.564628 0.499712 0
M  V30 769 H 73.0128 -0.818449 1.64237 0
M  V30 770 H 71.3948 -3.42175 1.9933 0
M  V30 771 H 72.5688 -1.70627 4.28046 0
M  V30 772 H 70.8838 -1.6877 3.80665 0
M  V30 773 H 73.4808 -4.37197 3.07836 0
M  V30 774 H 73.8238 -3.90992 1.42937 0
M  V30 775 H 74.3568 -2.86005 2.76489 0
M  V30 776 H 71.0958 -3.15019 5.74842 0
M  V30 777 H 70.6158 -4.13352 4.34627 0
M  V30 778 H 72.2948 -4.17953 4.93887 0
M  V30 779 N 72.4269 -1.23603 -0.977757 0
M  V30 780 C 73.8379 -1.06424 -1.53398 0
M  V30 781 C 74.1889 0.367578 -1.92726 0
M  V30 782 O 73.3139 1.25465 -1.76316 0
M  V30 783 C 73.9089 -1.92568 -2.78753 0
M  V30 784 C 72.4679 -1.79642 -3.30765 0
M  V30 785 C 71.6149 -1.88111 -2.03739 0
M  V30 786 H 74.5659 -1.37227 -0.797152 0
M  V30 787 H 74.5869 -1.45203 -3.51705 0
M  V30 788 H 74.0989 -2.96771 -2.50098 0
M  V30 789 H 72.1999 -0.782325 -3.64294 0
M  V30 790 H 72.3129 -2.63174 -4.00345 0
M  V30 791 H 70.6769 -1.31723 -2.17994 0
M  V30 792 H 71.4599 -2.93875 -1.77461 0
M  V30 793 N 73.905 1.17692 -1.04816 0
M  V30 794 C 74.852 2.21581 -0.645797 0
M  V30 795 C 75.822 1.62367 0.350159 0
M  V30 796 O 77.007 1.89254 0.242433 0
M  V30 797 C 74.147 3.45092 -0.0227568 0
M  V30 798 C 73.26 4.18613 -1.06709 0
M  V30 799 C 72.395 5.29602 -0.411767 0
M  V30 800 C 71.434 5.94904 -1.44067 0
M  V30 801 N 70.571 6.97414 -0.809781 0
M  V30 802 H 75.411 2.55353 -1.5362 0
M  V30 803 H 72.948 1.25438 -0.768364 0
M  V30 804 H 74.906 4.15679 0.35588 0
M  V30 805 H 73.536 3.11917 0.831122 0
M  V30 806 H 72.588 3.46779 -1.5636 0
M  V30 807 H 73.9 4.63293 -1.84827 0
M  V30 808 H 73.054 6.06696 0.0206623 0
M  V30 809 H 71.793 4.86045 0.401438 0
M  V30 810 H 70.798 5.16544 -1.88316 0
M  V30 811 H 72.023 6.40542 -2.25571 0
M  V30 812 H 69.969 6.55998 -0.0170186 0
M  V30 813 H 69.886 7.40386 -1.52856 0
M  V30 814 H 71.154 7.78463 -0.401999 0
M  V30 815 N 75.3831 0.828654 1.34056 0
M  V30 816 C 76.6311 0.41863 1.97717 0
M  V30 817 C 76.9521 -1.02314 1.66002 0
M  V30 818 O 76.2221 -1.71119 0.953683 0
M  V30 819 H 74.8021 0.151809 0.731412 0
M  V30 820 H 77.4641 1.05936 1.63596 0
M  V30 821 H 76.5601 0.542318 3.07352 0
M  V30 822 N 76.8612 -1.46375 0.584142 0
M  V30 823 C 78.0862 -2.07268 0.0740405 0
M  V30 824 C 78.5112 -1.42979 -1.22223 0
M  V30 825 O 77.8692 -0.514092 -1.73859 0
M  V30 826 C 77.9172 -3.60518 -0.0767769 0
M  V30 827 O 77.0212 -3.96533 -1.13292 0
M  V30 828 H 76.3622 -0.660961 0.0634524 0
M  V30 829 H 78.8922 -1.87991 0.807492 0
M  V30 830 H 78.9022 -4.07021 -0.282489 0
M  V30 831 H 77.5772 -4.06702 0.86986 0
M  V30 832 H 76.1542 -3.61738 -0.905553 0
M  V30 833 N 78.3393 -0.321999 -1.54275 0
M  V30 834 C 79.2723 0.58718 -2.20516 0
M  V30 835 C 80.2503 1.11693 -1.18167 0
M  V30 836 O 81.4343 1.18122 -1.46899 0
M  V30 837 C 78.5613 1.80554 -2.86562 0
M  V30 838 C 77.6073 1.40718 -4.02617 0
M  V30 839 S 78.4403 0.445218 -5.33646 0
M  V30 840 C 79.5963 1.6709 -6.03185 0
M  V30 841 H 79.8293 0.0244875 -2.9729 0
M  V30 842 H 77.3623 -0.106087 -1.54035 0
M  V30 843 H 79.3203 2.50462 -3.25237 0
M  V30 844 H 77.9813 2.33942 -2.09595 0
M  V30 845 H 77.1743 2.31501 -4.47687 0
M  V30 846 H 76.7763 0.78782 -3.65608 0
M  V30 847 H 79.0683 2.60856 -6.25268 0
M  V30 848 H 80.0113 1.26239 -6.96756 0
M  V30 849 H 80.4193 1.85716 -5.33076 0
M  V30 850 N 79.8174 1.5752 -0.0501392 0
M  V30 851 C 81.0654 1.9227 0.622642 0
M  V30 852 C 81.3864 0.929083 1.71444 0
M  V30 853 O 80.6564 -0.0262186 1.95882 0
M  V30 854 H 79.2364 0.709739 0.232981 0
M  V30 855 H 81.8984 1.94628 -0.102898 0
M  V30 856 H 80.9944 2.93479 1.06191 0
M  V30 857 N 81.2955 -0.223234 1.56011 0
M  V30 858 C 82.5425 -0.947875 1.78946 0
M  V30 859 C 82.8705 -1.844 0.618608 0
M  V30 860 O 82.1255 -1.91629 -0.397093 0
M  V30 861 C 82.4245 -1.81948 3.0762 0
M  V30 862 C 82.0905 -1.07672 4.37856 0
M  V30 863 C 80.7525 -0.871544 4.73242 0
M  V30 864 C 83.1045 -0.552081 5.18268 0
M  V30 865 C 80.4325 -0.129791 5.86556 0
M  V30 866 C 82.7845 0.17632 6.32354 0
M  V30 867 C 81.4485 0.39277 6.66343 0
M  V30 868 H 80.7185 -0.346852 0.654809 0
M  V30 869 H 83.3655 -0.216171 1.90276 0
M  V30 870 H 81.6705 -2.61899 2.91404 0
M  V30 871 H 83.3675 -2.38227 3.22566 0
M  V30 872 H 79.9575 -1.24662 4.1007 0
M  V30 873 H 84.1415 -0.698076 4.91366 0
M  V30 874 H 79.3975 0.048153 6.11381 0
M  V30 875 H 83.5715 0.590367 6.93893 0
M  V30 876 H 81.1985 0.969466 7.53993 0
M  V30 877 N 82.7736 -1.49793 -0.48987 0
M  V30 878 C 84.1846 -1.52914 -1.07118 0
M  V30 879 C 84.5356 -0.321738 -1.93544 0
M  V30 880 O 83.6606 0.567338 -2.08831 0
M  V30 881 C 84.2556 -2.771 -1.94938 0
M  V30 882 C 82.8146 -2.82963 -2.48212 0
M  V30 883 C 81.9616 -2.46972 -1.26096 0
M  V30 884 H 84.9126 -1.56329 -0.273289 0
M  V30 885 H 84.9336 -2.57892 -2.79771 0
M  V30 886 H 84.4456 -3.64959 -1.32009 0
M  V30 887 H 82.5466 -1.99411 -3.14748 0
M  V30 888 H 82.6596 -3.85406 -2.84603 0
M  V30 889 H 81.0236 -1.98994 -1.58976 0
M  V30 890 H 81.8066 -3.37118 -0.648581 0
M  V30 891 N 84.2517 0.741722 -1.39055 0
M  V30 892 C 85.1817 1.869 -1.39966 0
M  V30 893 C 86.1627 1.6804 -0.26392 0
M  V30 894 O 87.3477 1.88458 -0.468755 0
M  V30 895 C 84.4777 3.24572 -1.23574 0
M  V30 896 C 83.4317 3.58056 -2.34477 0
M  V30 897 C 82.7577 4.94593 -2.0318 0
M  V30 898 C 84.0577 3.61716 -3.76774 0
M  V30 899 H 85.7517 1.86395 -2.34302 0
M  V30 900 H 83.2977 0.895361 -1.1278 0
M  V30 901 H 85.2507 4.031 -1.22834 0
M  V30 902 H 83.9747 3.25587 -0.257045 0
M  V30 903 H 82.6337 2.81854 -2.34423 0
M  V30 904 H 82.2817 4.92181 -1.03765 0
M  V30 905 H 81.9817 5.17964 -2.77465 0
M  V30 906 H 83.5057 5.75486 -2.04079 0
M  V30 907 H 84.9197 4.30335 -3.78794 0
M  V30 908 H 83.3167 3.96603 -4.50362 0
M  V30 909 H 84.3867 2.61672 -4.08235 0
M  V30 910 N 85.7298 1.2412 0.971189 0
M  V30 911 C 86.9788 1.07284 1.70801 0
M  V30 912 C 87.2918 -0.388902 1.91695 0
M  V30 913 O 88.4978 -0.677379 2.62914 0
M  V30 914 C 86.9538 1.87145 3.07416 0
M  V30 915 C 86.5618 3.37707 2.94377 0
M  V30 916 C 88.3058 1.78828 3.84995 0
M  V30 917 C 86.2128 4.09925 4.26281 0
M  V30 918 H 85.1428 0.397854 0.64049 0
M  V30 919 H 87.7938 1.4817 1.0825 0
M  V30 920 H 86.1758 1.39071 3.70777 0
M  V30 921 H 87.3498 3.93335 2.4005 0
M  V30 922 H 85.6648 3.46938 2.30267 0
M  V30 923 H 88.2618 2.30089 4.82662 0
M  V30 924 H 88.6048 0.75284 4.09436 0
M  V30 925 H 89.1378 2.24563 3.28354 0
M  V30 926 H 85.8768 5.13813 4.07033 0
M  V30 927 H 85.3968 3.59083 4.80437 0
M  V30 928 H 87.0758 4.1673 4.94919 0
M  V30 929 N 87.2079 -1.17134 1.05439 0
M  V30 930 C 88.4559 -1.87085 0.764429 0
M  V30 931 C 88.7769 -1.81584 -0.710787 0
M  V30 932 O 88.0469 -1.24349 -1.51374 0
M  V30 933 H 86.6269 -0.692627 0.279779 0
M  V30 934 H 89.2889 -1.42087 1.33406 0
M  V30 935 H 88.3849 -2.92759 1.0816 0
M  V30 936 N 88.686 -0.835752 -1.33615 0
M  V30 937 C 89.596 -0.269088 -2.33052 0
M  V30 938 C 90.612 0.603251 -1.63208 0
M  V30 939 O 91.788 0.508112 -1.94885 0
M  V30 940 C 88.853 0.549091 -3.42324 0
M  V30 941 C 87.914 -0.347156 -4.27894 0
M  V30 942 C 87.147 0.43207 -5.31948 0
M  V30 943 O 87.37 1.66409 -5.45586 0
M  V30 944 O 86.304 -0.192298 -6.01593 0
M  V30 945 H 90.13 -1.09243 -2.83372 0
M  V30 946 H 87.715 -0.598198 -1.36901 0
M  V30 947 H 89.597 1.01414 -4.09015 0
M  V30 948 H 88.272 1.34955 -2.94226 0
M  V30 949 H 87.179 -0.859979 -3.64081 0
M  V30 950 H 88.512 -1.1123 -4.79467 0
M  V30 951 N 90.1641 1.46063 -0.591896 0
M  V30 952 C 91.3921 2.06717 -0.0868936 0
M  V30 953 C 91.8071 1.43916 1.22203 0
M  V30 954 O 91.1641 0.547698 1.74088 0
M  V30 955 C 91.2151 3.6142 0.0758725 0
M  V30 956 O 90.9361 4.21874 -1.18126 0
M  V30 957 C 92.4371 4.39025 0.61416 0
M  V30 958 H 89.6571 0.668162 -0.0616518 0
M  V30 959 H 92.2011 1.8755 -0.815175 0
M  V30 960 H 90.3561 3.79983 0.754413 0
M  V30 961 H 90.7701 5.14861 -1.00092 0
M  V30 962 H 92.2441 5.4783 0.677193 0
M  V30 963 H 92.7211 4.07708 1.63312 0
M  V30 964 H 93.3271 4.2529 -0.0298142 0
M  V30 965 N 91.6422 0.330177 1.54103 0
M  V30 966 C 92.8902 -0.269871 2.0029 0
M  V30 967 C 93.2112 -1.52133 1.21986 0
M  V30 968 O 92.4812 -1.93212 0.323438 0
M  V30 969 H 91.0612 -0.10271 0.739905 0
M  V30 970 H 93.7232 0.448249 1.89675 0
M  V30 971 H 92.8192 -0.52166 3.07709 0
M  V30 972 N 93.1203 -1.57491 0.0584922 0
M  V30 973 C 94.0703 -2.08474 -0.923188 0
M  V30 974 C 95.0543 -0.991479 -1.26722 0
M  V30 975 O 96.2463 -1.25473 -1.24842 0
M  V30 976 C 93.3753 -2.6392 -2.19548 0
M  V30 977 C 92.4613 -3.80227 -1.87852 0
M  V30 978 N 92.8523 -4.89714 -1.26546 0
M  V30 979 C 91.1503 -3.89271 -2.17679 0
M  V30 980 C 91.8513 -5.70689 -1.12644 0
M  V30 981 N 90.8273 -5.18531 -1.63176 0
M  V30 982 H 94.6293 -2.90517 -0.444653 0
M  V30 983 H 92.1433 -1.61745 -0.145764 0
M  V30 984 H 94.1403 -2.98752 -2.9078 0
M  V30 985 H 92.8003 -1.83318 -2.68001 0
M  V30 986 H 93.8113 -5.09358 -0.936757 0
M  V30 987 H 90.4883 -3.19623 -2.68602 0
M  V30 988 H 91.8783 -6.6875 -0.6499 0
M  V30 989 N 94.5984 0.214957 -1.56127 0
M  V30 990 C 95.8444 0.935325 -1.80619 0
M  V30 991 C 96.1994 1.81706 -0.632507 0
M  V30 992 O 95.4924 1.87931 0.373182 0
M  V30 993 C 95.6864 1.80314 -3.0858 0
M  V30 994 C 95.5154 1.00691 -4.38282 0
M  V30 995 C 94.2854 0.699211 -5.00439 0
M  V30 996 C 96.4834 0.369057 -5.12974 0
M  V30 997 N 94.4654 -0.117734 -6.13787 0
M  V30 998 C 95.8364 -0.310981 -6.1922 0
M  V30 999 C 97.8914 0.282759 -4.97096 0
M  V30 1000 C 96.5944 -1.06907 -7.11311 0
M  V30 1001 C 98.6204 -0.461881 -5.89594 0
M  V30 1002 C 97.9824 -1.13044 -6.9527 0
M  V30 1003 H 94.0814 0.322307 -0.71249 0
M  V30 1004 H 96.6654 0.205649 -1.93611 0
M  V30 1005 H 94.8364 2.50458 -2.96859 0
M  V30 1006 H 96.5684 2.46148 -3.21237 0
M  V30 1007 H 93.3234 1.01884 -4.62511 0
M  V30 1008 H 93.7474 -0.515235 -6.75037 0
M  V30 1009 H 98.3894 0.785292 -4.15443 0
M  V30 1010 H 96.1074 -1.5831 -7.92442 0
M  V30 1011 H 99.6934 -0.529746 -5.79383 0
M  V30 1012 H 98.5734 -1.69742 -7.65609 0
M  V30 1013 N 96.0765 1.50051 0.48192 0
M  V30 1014 C 97.0065 1.71046 1.58951 0
M  V30 1015 C 97.9875 0.559288 1.60642 0
M  V30 1016 O 99.1725 0.797243 1.77081 0
M  V30 1017 C 96.3025 1.79462 2.97339 0
M  V30 1018 C 95.2565 2.94558 3.10515 0
M  V30 1019 C 94.5825 2.88105 4.50444 0
M  V30 1020 C 95.8825 4.35227 2.88747 0
M  V30 1021 H 97.5765 2.6378 1.41635 0
M  V30 1022 H 95.1225 1.26936 0.679942 0
M  V30 1023 H 97.0755 1.92734 3.74742 0
M  V30 1024 H 95.7995 0.833412 3.15788 0
M  V30 1025 H 94.4585 2.80918 2.35543 0
M  V30 1026 H 94.1065 1.89853 4.65795 0
M  V30 1027 H 93.8065 3.65366 4.60197 0
M  V30 1028 H 95.3305 3.03412 5.29881 0
M  V30 1029 H 96.7445 4.49449 3.55905 0
M  V30 1030 H 95.1415 5.13856 3.09955 0
M  V30 1031 H 96.2115 4.48347 1.84696 0
M  V30 1032 N 97.5546 -0.734337 1.39446 0
M  V30 1033 C 98.4846 -1.86155 1.40955 0
M  V30 1034 C 99.4656 -1.67898 0.272827 0
M  V30 1035 O 100.651 -1.88207 0.478743 0
M  V30 1036 C 97.7806 -3.23912 1.25294 0
M  V30 1037 C 96.7346 -3.56808 2.36373 0
M  V30 1038 C 96.0606 -4.93508 2.058 0
M  V30 1039 C 97.3606 -3.59713 3.78687 0
M  V30 1040 H 99.0546 -1.8515 2.35287 0
M  V30 1041 H 96.6006 -0.889367 1.13253 0
M  V30 1042 H 98.5536 -4.02443 1.2497 0
M  V30 1043 H 97.2776 -3.25446 0.274308 0
M  V30 1044 H 95.9366 -2.80606 2.35914 0
M  V30 1045 H 95.5846 -4.91623 1.06374 0
M  V30 1046 H 95.2846 -5.16486 2.80208 0
M  V30 1047 H 96.8086 -5.74396 2.07128 0
M  V30 1048 H 98.2226 -4.2832 3.81071 0
M  V30 1049 H 96.6196 -3.94209 4.52459 0
M  V30 1050 H 97.6896 -2.59504 4.09617 0
M  V30 1051 N 99.0327 -1.24633 -0.964593 0
M  V30 1052 C 99.9647 -0.999302 -2.06268 0
M  V30 1053 C 100.978 0.0323226 -1.62768 0
M  V30 1054 O 102.167 -0.205079 -1.77318 0
M  V30 1055 C 99.2667 -0.486816 -3.35385 0
M  V30 1056 C 98.4397 -1.5823 -4.07777 0
M  V30 1057 C 97.4987 -1.07191 -5.15166 0
M  V30 1058 O 96.5247 -1.76426 -5.41168 0
M  V30 1059 N 97.7267 0.0920373 -5.80427 0
M  V30 1060 H 100.492 -1.94477 -2.28033 0
M  V30 1061 H 98.0527 -1.15704 -1.13244 0
M  V30 1062 H 100.045 -0.130066 -4.04491 0
M  V30 1063 H 98.6147 0.364459 -3.10468 0
M  V30 1064 H 97.8347 -2.11109 -3.32906 0
M  V30 1065 H 99.1227 -2.31854 -4.52903 0
M  V30 1066 H 98.5207 0.670784 -5.61709 0
M  V30 1067 H 97.0777 0.389905 -6.50633 0
M  V30 1068 N 100.511 1.16574 -1.06058 0
M  V30 1069 C 101.759 1.86677 -0.77434 0
M  V30 1070 C 102.08 1.81959 0.701147 0
M  V30 1071 O 101.35 1.2515 1.50713 0
M  V30 1072 H 99.9298 0.691134 -0.283449 0
M  V30 1073 H 102.592 1.41378 -1.34158 0
M  V30 1074 H 101.688 2.92181 -1.09711 0
M  V30 1075 N 101.989 0.842826 1.3317 0
M  V30 1076 C 103.214 0.453129 2.02389 0
M  V30 1077 C 103.639 -0.939105 1.6298 0
M  V30 1078 O 102.997 -1.61472 0.8244 0
M  V30 1079 C 103.045 0.586094 3.55805 0
M  V30 1080 O 102.149 -0.386029 4.10589 0
M  V30 1081 H 101.49 0.183664 0.638094 0
M  V30 1082 H 104.02 1.13875 1.69981 0
M  V30 1083 H 104.03 0.469209 4.05293 0
M  V30 1084 H 102.705 1.6014 3.83833 0
M  V30 1085 H 101.282 -0.226371 3.72212 0
M  V30 1086 N 103.467 -1.45747 0.599634 0
M  V30 1087 C 104.715 -2.01893 0.0915472 0
M  V30 1088 C 105.036 -1.47155 -1.27946 0
M  V30 1089 O 104.306 -0.66273 -1.84349 0
M  V30 1090 H 102.886 -0.746363 0.0308524 0
M  V30 1091 H 105.548 -1.78645 0.779237 0
M  V30 1092 H 104.644 -3.1208 0.0353086 0
M  V30 1093 N 104.945 -0.338344 -1.53925 0
M  V30 1094 C 106.192 0.259758 -2.00827 0
M  V30 1095 C 106.52 1.50973 -1.22628 0
M  V30 1096 O 105.775 1.93379 -0.300509 0
M  V30 1097 C 106.074 0.62448 -3.51902 0
M  V30 1098 C 105.74 -0.528006 -4.47798 0
M  V30 1099 C 104.402 -0.844298 -4.73735 0
M  V30 1100 C 106.754 -1.30143 -5.0469 0
M  V30 1101 C 104.082 -1.93648 -5.53821 0
M  V30 1102 C 106.434 -2.38382 -5.85967 0
M  V30 1103 C 105.098 -2.70576 -6.10201 0
M  V30 1104 H 104.368 0.0950523 -0.734878 0
M  V30 1105 H 107.015 -0.465182 -1.85764 0
M  V30 1106 H 105.32 1.43006 -3.64769 0
M  V30 1107 H 107.017 1.09905 -3.85645 0
M  V30 1108 H 103.607 -0.271421 -4.2774 0
M  V30 1109 H 107.791 -1.07033 -4.84621 0
M  V30 1110 H 103.047 -2.19021 -5.70824 0
M  V30 1111 H 107.221 -2.98746 -6.29066 0
M  V30 1112 H 104.848 -3.55333 -6.72044 0
M  V30 1113 N 106.423 1.57458 -0.0668435 0
M  V30 1114 C 107.355 2.09413 0.931601 0
M  V30 1115 C 108.368 1.02522 1.26464 0
M  V30 1116 O 109.557 1.30049 1.22269 0
M  V30 1117 C 106.657 2.53537 2.24882 0
M  V30 1118 C 105.83 3.83944 2.09537 0
M  V30 1119 C 104.889 4.14214 3.2452 0
M  V30 1120 O 103.915 4.83891 2.9973 0
M  V30 1121 N 105.117 3.67367 4.49469 0
M  V30 1122 H 107.882 2.95699 0.488048 0
M  V30 1123 H 105.443 1.61462 0.119009 0
M  V30 1124 H 107.435 2.70853 3.00701 0
M  V30 1125 H 106.005 1.72415 2.60753 0
M  V30 1126 H 105.225 3.76057 1.18215 0
M  V30 1127 H 106.513 4.69312 1.96529 0
M  V30 1128 H 105.911 3.11068 4.72497 0
M  V30 1129 H 104.468 3.89891 5.2233 0
M  V30 1130 N 107.901 -0.206675 1.56239 0
M  V30 1131 C 109.126 -0.949474 1.8439 0
M  V30 1132 C 109.551 -1.76549 0.649016 0
M  V30 1133 O 108.909 -1.76782 -0.402231 0
M  V30 1134 C 108.957 -1.83078 3.10668 0
M  V30 1135 O 108.061 -2.9281 2.90407 0
M  V30 1136 H 107.402 -0.268033 0.607499 0
M  V30 1137 H 109.932 -0.215488 2.03462 0
M  V30 1138 H 109.942 -2.2377 3.41161 0
M  V30 1139 H 108.617 -1.23112 3.97261 0
M  V30 1140 H 107.194 -2.55956 2.71184 0
M  V30 1141 N 109.379 -1.50304 -0.473955 0
M  V30 1142 C 110.604 -1.65175 -1.25427 0
M  V30 1143 C 111.029 -0.333673 -1.85117 0
M  V30 1144 O 110.387 0.702114 -1.67153 0
M  V30 1145 C 110.435 -2.74295 -2.34082 0
M  V30 1146 O 109.539 -2.35349 -3.38651 0
M  V30 1147 H 108.88 -0.551944 -0.369126 0
M  V30 1148 H 111.41 -1.96662 -0.564364 0
M  V30 1149 H 111.42 -2.97285 -2.79438 0
M  V30 1150 H 110.095 -3.69959 -1.90008 0
M  V30 1151 H 108.672 -2.22794 -2.99027 0
M  V30 1152 N 110.857 0.726932 -1.39834 0
M  V30 1153 C 112.273 1.03354 -1.21615 0
M  V30 1154 C 112.473 2.01327 -0.08338 0
M  V30 1155 O 111.529 2.46158 0.56238 0
M  V30 1156 C 112.842 1.58811 -2.55342 0
M  V30 1157 C 114.39 1.70851 -2.62257 0
M  V30 1158 C 114.865 2.29716 -3.96225 0
M  V30 1159 N 116.356 2.37116 -3.97907 0
M  V30 1160 C 117.091 2.83619 -4.98345 0
M  V30 1161 N 116.587 3.29958 -6.09179 0
M  V30 1162 N 118.38 2.82901 -4.8572 0
M  V30 1163 H 110.531 0.0773069 -2.12259 0
M  V30 1164 H 112.794 0.0969102 -0.943034 0
M  V30 1165 H 112.5 0.942855 -3.38826 0
M  V30 1166 H 112.374 2.57502 -2.75632 0
M  V30 1167 H 114.761 2.34497 -1.79152 0
M  V30 1168 H 114.842 0.707913 -2.45809 0
M  V30 1169 H 114.486 1.66696 -4.79765 0
M  V30 1170 H 114.416 3.30469 -4.09997 0
M  V30 1171 H 116.907 2.04374 -3.17868 0
M  V30 1172 H 117.22 3.63976 -6.8172 0
M  V30 1173 H 115.565 3.27946 -6.12761 0
M  V30 1174 H 118.756 2.46027 -3.98231 0
M  V30 1175 H 118.929 3.18827 -5.6414 0
M  V30 1176 N 112.336 1.25143 0.95797 0
M  V30 1177 C 113.752 1.01892 1.22842 0
M  V30 1178 C 113.952 -0.266311 1.99732 0
M  V30 1179 O 113.008 -0.979913 2.3271 0
M  V30 1180 C 114.321 2.24004 2.00606 0
M  V30 1181 C 115.869 2.28731 2.13662 0
M  V30 1182 C 116.344 3.5049 2.94823 0
M  V30 1183 N 117.835 3.50866 3.02403 0
M  V30 1184 C 118.57 4.4174 3.65586 0
M  V30 1185 N 118.066 5.42882 4.30408 0
M  V30 1186 N 119.859 4.29429 3.62694 0
M  V30 1187 H 112.01 2.07718 0.443493 0
M  V30 1188 H 114.273 0.912031 0.258657 0
M  V30 1189 H 113.979 3.17395 1.51503 0
M  V30 1190 H 113.853 2.26907 3.01319 0
M  V30 1191 H 116.24 1.35865 2.61963 0
M  V30 1192 H 116.321 2.29848 1.12265 0
M  V30 1193 H 115.965 4.43676 2.47213 0
M  V30 1194 H 115.895 3.46617 3.96439 0
M  V30 1195 H 118.386 2.777 2.56302 0
M  V30 1196 H 118.699 6.0844 4.76467 0
M  V30 1197 H 117.044 5.46758 4.29047 0
M  V30 1198 H 120.235 3.49643 3.11236 0
M  V30 1199 H 120.408 5.00448 4.1165 0
M  V30 1200 N 113.814 -1.1601 1.06675 0
M  V30 1201 C 114.724 -2.24156 0.692179 0
M  V30 1202 C 115.74 -1.71507 -0.293513 0
M  V30 1203 O 116.916 -2.009 -0.141861 0
M  V30 1204 C 113.981 -3.46587 0.0884131 0
M  V30 1205 C 113.042 -4.14257 1.12646 0
M  V30 1206 C 112.275 -5.30844 0.551416 0
M  V30 1207 O 112.498 -5.66858 -0.634656 0
M  V30 1208 O 111.432 -5.87848 1.29298 0
M  V30 1209 H 115.258 -2.58513 1.59388 0
M  V30 1210 H 112.843 -1.23599 0.83926 0
M  V30 1211 H 114.725 -4.20679 -0.246361 0
M  V30 1212 H 113.4 -3.13994 -0.786712 0
M  V30 1213 H 112.307 -3.42118 1.51348 0
M  V30 1214 H 113.64 -4.50914 1.97325 0
M  V30 1215 N 115.292 -0.849877 -1.32721 0
M  V30 1216 C 116.239 -0.289033 -2.28983 0
M  V30 1217 C 117.209 0.601324 -1.54833 0
M  V30 1218 O 118.394 0.537253 -1.8308 0
M  V30 1219 C 115.534 0.520623 -3.4115 0
M  V30 1220 C 114.647 -0.394989 -4.3019 0
M  V30 1221 C 113.782 0.426834 -5.29482 0
M  V30 1222 C 112.821 -0.486476 -6.10164 0
M  V30 1223 N 111.958 0.297879 -7.01468 0
M  V30 1224 H 116.798 -1.11519 -2.76347 0
M  V30 1225 H 114.335 -0.56138 -1.35967 0
M  V30 1226 H 116.293 1.00563 -4.04899 0
M  V30 1227 H 114.923 1.31165 -2.9495 0
M  V30 1228 H 113.975 -0.99836 -3.67065 0
M  V30 1229 H 115.287 -1.09612 -4.86607 0
M  V30 1230 H 114.441 0.975205 -5.98811 0
M  V30 1231 H 113.18 1.16136 -4.73671 0
M  V30 1232 H 112.185 -1.04677 -5.39743 0
M  V30 1233 H 113.41 -1.21953 -6.6806 0
M  V30 1234 H 111.356 1.01558 -6.48091 0
M  V30 1235 H 111.273 -0.344318 -7.55216 0
M  V30 1236 H 112.541 0.828131 -7.75089 0
M  V30 1237 N 116.77 1.45427 -0.607355 0
M  V30 1238 C 118 2.06314 -0.108656 0
M  V30 1239 C 118.408 1.45269 1.21217 0
M  V30 1240 O 117.751 0.561115 1.74921 0
M  V30 1241 C 117.813 3.59345 0.105618 0
M  V30 1242 C 117.477 4.42723 -1.13337 0
M  V30 1243 C 118.474 4.77715 -2.05145 0
M  V30 1244 C 116.159 4.83478 -1.36213 0
M  V30 1245 C 118.153 5.52317 -3.18158 0
M  V30 1246 C 115.84 5.57835 -2.49527 0
M  V30 1247 C 116.838 5.92171 -3.40327 0
M  V30 1248 O 116.526 6.65019 -4.51669 0
M  V30 1249 H 116.258 0.672782 -0.0658842 0
M  V30 1250 H 118.812 1.87664 -0.834945 0
M  V30 1251 H 117.042 3.76394 0.886796 0
M  V30 1252 H 118.731 4.02076 0.555886 0
M  V30 1253 H 119.497 4.46787 -1.88697 0
M  V30 1254 H 115.376 4.56188 -0.664362 0
M  V30 1255 H 118.92 5.79036 -3.89054 0
M  V30 1256 H 114.817 5.88177 -2.65928 0
M  V30 1257 H 115.585 6.83469 -4.50348 0
M  V30 1258 N 118.248 0.346503 1.53744 0
M  V30 1259 C 119.496 -0.248612 2.00565 0
M  V30 1260 C 119.817 -1.5083 1.23593 0
M  V30 1261 O 119.087 -1.92858 0.343912 0
M  V30 1262 H 117.667 -0.0948564 0.740953 0
M  V30 1263 H 120.329 0.468341 1.89189 0
M  V30 1264 H 119.425 -0.488994 3.08245 0
M  V30 1265 N 119.726 -1.57421 0.075193 0
M  V30 1266 C 120.674 -2.14124 -0.908508 0
M  V30 1267 C 121.668 -1.07898 -1.30592 0
M  V30 1268 O 122.874 -1.26273 -1.28277 0
M  V30 1269 H 119.249 -0.684707 -0.310935 0
M  V30 1270 H 121.22 -2.95634 -0.405374 0
M  V30 1271 C 119.969 -2.72044 -2.16535 0
M  V30 1272 H 119.292 -3.53456 -1.86839 0
M  V30 1273 H 120.732 -3.15311 -2.83469 0
M  V30 1274 C 119.191 -1.66968 -2.92615 0
M  V30 1275 O 119.721 -1.0967 -3.86439 0
M  V30 1276 N 117.927 -1.37923 -2.55784 0
M  V30 1277 H 117.474 -1.84706 -1.79559 0
M  V30 1278 H 117.432 -0.67852 -3.06991 0
M  V30 1279 N 121.204 0.198386 -1.56346 0
M  V30 1280 C 122.45 0.920648 -1.80698 0
M  V30 1281 C 122.783 1.83045 -0.648697 0
M  V30 1282 O 122.058 1.91308 0.350925 0
M  V30 1283 C 122.341 1.73971 -3.15287 0
M  V30 1284 C 122.194 0.85485 -4.41602 0
M  V30 1285 C 123.513 2.71296 -3.46535 0
M  V30 1286 H 120.632 0.333261 -0.657348 0
M  V30 1287 H 123.274 0.188198 -1.89066 0
M  V30 1288 H 121.424 2.36416 -3.08285 0
M  V30 1289 H 123.096 0.245362 -4.60647 0
M  V30 1290 H 121.339 0.161398 -4.335 0
M  V30 1291 H 122.01 1.46286 -5.32264 0
M  V30 1292 H 124.486 2.18983 -3.53816 0
M  V30 1293 H 123.362 3.2569 -4.41834 0
M  V30 1294 H 123.623 3.5018 -2.69864 0
M  V30 1295 N 122.682 1.50554 0.465978 0
M  V30 1296 C 123.929 1.61798 1.21768 0
M  V30 1297 C 124.257 0.320696 1.91838 0
M  V30 1298 O 123.512 -0.693724 1.82992 0
M  V30 1299 C 123.811 2.75152 2.28093 0
M  V30 1300 C 123.477 4.15454 1.75239 0
M  V30 1301 C 122.139 4.53628 1.60546 0
M  V30 1302 C 124.491 5.03121 1.36083 0
M  V30 1303 C 121.819 5.77204 1.05128 0
M  V30 1304 C 124.171 6.27249 0.821056 0
M  V30 1305 C 122.835 6.64221 0.660795 0
M  V30 1306 H 122.105 0.592063 0.445582 0
M  V30 1307 H 124.752 1.84503 0.512927 0
M  V30 1308 H 123.057 2.46556 3.04496 0
M  V30 1309 H 124.754 2.81055 2.86023 0
M  V30 1310 H 121.344 3.85341 1.87644 0
M  V30 1311 H 125.528 4.74257 1.46267 0
M  V30 1312 H 120.784 6.0452 0.91462 0
M  V30 1313 H 124.958 6.94537 0.509018 0
M  V30 1314 H 122.585 7.59854 0.229226 0
M  V30 1315 N 124.16 -0.719506 1.40217 0
M  V30 1316 C 125.107 -1.83359 1.40172 0
M  V30 1317 C 126.077 -1.64065 0.259206 0
M  V30 1318 O 127.262 -1.85254 0.456677 0
M  V30 1319 C 124.402 -3.2103 1.26624 0
M  V30 1320 C 123.515 -3.51923 2.50548 0
M  V30 1321 C 122.65 -4.79079 2.29471 0
M  V30 1322 C 121.689 -5.02863 3.48992 0
M  V30 1323 N 120.826 -6.2123 3.27135 0
M  V30 1324 H 125.666 -1.82733 2.35399 0
M  V30 1325 H 123.203 -0.892688 1.16917 0
M  V30 1326 H 125.161 -4.00524 1.16776 0
M  V30 1327 H 123.791 -3.20895 0.350176 0
M  V30 1328 H 122.843 -2.67014 2.70939 0
M  V30 1329 H 124.155 -3.6541 3.39525 0
M  V30 1330 H 123.309 -5.66582 2.16955 0
M  V30 1331 H 122.048 -4.67794 1.37913 0
M  V30 1332 H 121.053 -4.13816 3.6199 0
M  V30 1333 H 122.278 -5.16023 4.41472 0
M  V30 1334 H 120.224 -6.11204 2.38256 0
M  V30 1335 H 120.141 -6.35375 4.09675 0
M  V30 1336 H 121.409 -7.11532 3.18344 0
M  V30 1337 N 125.638 -1.25649 -0.95132 0
M  V30 1338 C 126.866 -1.13343 -1.73092 0
M  V30 1339 C 127.281 0.312434 -1.86197 0
M  V30 1340 O 126.638 1.21465 -1.36207 0
M  V30 1341 C 126.689 -1.78602 -3.14299 0
M  V30 1342 O 126.41 -3.17537 -3.01831 0
M  V30 1343 C 127.911 -1.72119 -4.08522 0
M  V30 1344 H 125.131 -0.395181 -0.542285 0
M  V30 1345 H 127.675 -1.66076 -1.19328 0
M  V30 1346 H 125.83 -1.29832 -3.64996 0
M  V30 1347 H 126.244 -3.49676 -3.90931 0
M  V30 1348 H 127.718 -2.22435 -5.052 0
M  V30 1349 H 128.195 -0.685635 -4.33815 0
M  V30 1350 H 128.801 -2.20393 -3.63741 0
M  V30 1351 N 127.117 1.15442 -1.07289 0
M  V30 1352 C 128.067 2.18164 -0.662467 0
M  V30 1353 C 129.051 1.57845 0.312074 0
M  V30 1354 O 130.243 1.76552 0.125905 0
M  V30 1355 C 127.372 3.43246 -0.0611295 0
M  V30 1356 C 126.458 4.1062 -1.06077 0
M  V30 1357 N 126.849 4.53491 -2.24008 0
M  V30 1358 C 125.147 4.36949 -0.893964 0
M  V30 1359 C 125.848 5.05731 -2.87422 0
M  V30 1360 N 124.824 4.99236 -2.15091 0
M  V30 1361 H 128.626 2.49038 -1.56068 0
M  V30 1362 H 126.14 1.32003 -0.945988 0
M  V30 1363 H 128.137 4.16145 0.250792 0
M  V30 1364 H 126.797 3.13854 0.832207 0
M  V30 1365 H 127.808 4.46898 -2.6173 0
M  V30 1366 H 124.485 4.17466 -0.0534693 0
M  V30 1367 H 125.875 5.48865 -3.87553 0
M  V30 1368 N 128.595 0.856903 1.32268 0
M  V30 1369 C 129.525 0.31858 2.31316 0
M  V30 1370 C 130.506 -0.583487 1.59779 0
M  V30 1371 O 131.691 -0.503259 1.87566 0
M  V30 1372 C 128.821 -0.491979 3.43798 0
M  V30 1373 C 127.775 0.315849 4.26833 0
M  V30 1374 C 127.101 -0.619586 5.31098 0
M  V30 1375 C 128.401 1.54282 4.98993 0
M  V30 1376 H 130.095 1.14621 2.76591 0
M  V30 1377 H 127.641 0.552613 1.32974 0
M  V30 1378 H 129.594 -0.879012 4.1213 0
M  V30 1379 H 128.318 -1.35299 2.97257 0
M  V30 1380 H 126.977 0.684664 3.6015 0
M  V30 1381 H 126.625 -1.47751 4.8081 0
M  V30 1382 H 126.325 -0.0830621 5.87541 0
M  V30 1383 H 127.849 -1.00375 6.02293 0
M  V30 1384 H 129.263 1.22796 5.59995 0
M  V30 1385 H 127.66 2.01745 5.65172 0
M  V30 1386 H 128.73 2.30285 4.26728 0
M  V30 1387 N 130.073 -1.45103 0.615059 0
M  V30 1388 C 131.003 -2.33339 -0.0865619 0
M  V30 1389 C 131.984 -1.4727 -0.851209 0
M  V30 1390 O 133.169 -1.76026 -0.820281 0
M  V30 1391 C 130.299 -3.30095 -1.07956 0
M  V30 1392 C 129.253 -4.25858 -0.427628 0
M  V30 1393 C 128.579 -5.12361 -1.5294 0
M  V30 1394 C 129.879 -5.18165 0.655944 0
M  V30 1395 H 131.573 -2.92254 0.650224 0
M  V30 1396 H 129.119 -1.40532 0.314138 0
M  V30 1397 H 131.072 -3.90698 -1.57901 0
M  V30 1398 H 129.796 -2.69355 -1.84703 0
M  V30 1399 H 128.455 -3.66564 0.0510292 0
M  V30 1400 H 128.103 -4.47984 -2.28734 0
M  V30 1401 H 127.803 -5.77238 -1.09865 0
M  V30 1402 H 129.327 -5.75833 -2.03098 0
M  V30 1403 H 130.741 -5.72796 0.240257 0
M  V30 1404 H 129.138 -5.91559 1.00888 0
M  V30 1405 H 130.208 -4.60144 1.52957 0
M  V30 1406 N 131.551 -0.354651 -1.53558 0
M  V30 1407 C 132.799 0.237972 -2.00694 0
M  V30 1408 C 133.12 1.50173 -1.24391 0
M  V30 1409 O 132.39 1.92673 -0.354135 0
M  V30 1410 H 130.97 0.0909256 -0.741446 0
M  V30 1411 H 133.632 -0.478368 -1.88938 0
M  V30 1412 H 132.728 0.47264 -3.085 0
M  V30 1413 N 133.029 1.57378 -0.0835403 0
M  V30 1414 C 134.445 1.57246 0.273109 0
M  V30 1415 C 134.645 1.09385 1.69225 0
M  V30 1416 O 133.701 0.765051 2.40631 0
M  V30 1417 C 135.014 3.00614 0.0720628 0
M  V30 1418 C 136.562 3.12684 0.1407 0
M  V30 1419 C 137.037 4.57989 -0.0322094 0
M  V30 1420 N 138.528 4.63194 0.0230085 0
M  V30 1421 C 139.263 5.73335 -0.0861941 0
M  V30 1422 N 138.759 6.9235 -0.24958 0
M  V30 1423 N 140.552 5.62093 -0.0282886 0
M  V30 1424 H 132.703 1.86801 -1.0109 0
M  V30 1425 H 134.966 0.861687 -0.395222 0
M  V30 1426 H 134.672 3.39786 -0.907662 0
M  V30 1427 H 134.546 3.68193 0.81936 0
M  V30 1428 H 136.933 2.73391 1.11092 0
M  V30 1429 H 137.014 2.47719 -0.637896 0
M  V30 1430 H 136.658 4.97973 -0.999247 0
M  V30 1431 H 136.588 5.21 0.765937 0
M  V30 1432 H 139.079 3.77613 0.14722 0
M  V30 1433 H 139.392 7.72117 -0.324733 0
M  V30 1434 H 137.737 6.94415 -0.285097 0
M  V30 1435 H 140.928 4.67997 0.0981408 0
M  V30 1436 H 141.101 6.47895 -0.116845 0
M  V30 1437 N 134.507 -0.190092 1.56449 0
M  V30 1438 C 135.918 -0.754312 1.70784 0
M  V30 1439 C 136.269 -1.83631 0.690951 0
M  V30 1440 O 135.394 -2.15868 -0.151604 0
M  V30 1441 C 135.989 -1.37503 3.09642 0
M  V30 1442 C 134.548 -1.88628 3.25725 0
M  V30 1443 C 133.695 -0.758098 2.66736 0
M  V30 1444 H 136.646 0.0350524 1.58661 0
M  V30 1445 H 136.667 -2.2445 3.0725 0
M  V30 1446 H 136.179 -0.587302 3.83631 0
M  V30 1447 H 134.28 -2.70103 2.56661 0
M  V30 1448 H 134.393 -2.04462 4.3328 0
M  V30 1449 H 132.757 -1.17369 2.26046 0
M  V30 1450 H 133.54 0.0174705 3.43296 0
M  V30 1451 N 135.985 -1.50799 -0.457987 0
M  V30 1452 C 136.915 -1.73553 -1.5621 0
M  V30 1453 C 137.896 -0.584774 -1.59732 0
M  V30 1454 O 139.081 -0.825314 -1.7579 0
M  V30 1455 C 136.211 -1.84169 -2.94447 0
M  V30 1456 C 135.165 -2.99461 -3.0579 0
M  V30 1457 C 134.491 -2.95235 -4.45803 0
M  V30 1458 C 135.791 -4.39766 -2.81786 0
M  V30 1459 H 137.485 -2.66 -1.37421 0
M  V30 1460 H 135.031 -1.28002 -0.659662 0
M  V30 1461 H 136.984 -1.98672 -3.71628 0
M  V30 1462 H 135.708 -0.883545 -3.14422 0
M  V30 1463 H 134.367 -2.8463 -2.31044 0
M  V30 1464 H 134.015 -1.97239 -4.62715 0
M  V30 1465 H 133.715 -3.72642 -4.54326 0
M  V30 1466 H 135.239 -3.11803 -5.24987 0
M  V30 1467 H 136.653 -4.55054 -3.4871 0
M  V30 1468 H 135.05 -5.18722 -3.0174 0
M  V30 1469 H 136.12 -4.51229 -1.7754 0
M  V30 1470 N 137.463 0.71206 -1.40597 0
M  V30 1471 C 138.712 1.46754 -1.38369 0
M  V30 1472 C 139.025 1.95598 0.0097839 0
M  V30 1473 O 140.231 2.71059 0.154677 0
M  V30 1474 C 138.687 2.65289 -2.43207 0
M  V30 1475 C 138.295 2.23301 -3.88382 0
M  V30 1476 C 140.039 3.43008 -2.50091 0
M  V30 1477 C 137.946 3.38696 -4.84808 0
M  V30 1478 H 136.876 0.55118 -0.514506 0
M  V30 1479 H 139.527 0.774616 -1.66349 0
M  V30 1480 H 137.909 3.36769 -2.08332 0
M  V30 1481 H 139.083 1.59218 -4.32419 0
M  V30 1482 H 137.398 1.58618 -3.85006 0
M  V30 1483 H 139.995 4.28881 -3.1932 0
M  V30 1484 H 140.338 3.87065 -1.53253 0
M  V30 1485 H 140.871 2.78574 -2.83974 0
M  V30 1486 H 137.61 2.99668 -5.82992 0
M  V30 1487 H 137.13 4.01683 -4.45433 0
M  V30 1488 H 138.809 4.04712 -5.04794 0
M  V30 1489 N 138.941 1.26152 0.944643 0
M  V30 1490 C 140.357 1.03189 1.21754 0
M  V30 1491 C 140.557 -0.245112 2.00004 0
M  V30 1492 O 139.613 -0.955176 2.33736 0
M  V30 1493 C 140.926 2.26119 1.98219 0
M  V30 1494 C 142.474 2.30984 2.11224 0
M  V30 1495 C 142.949 3.53597 2.91089 0
M  V30 1496 N 144.44 3.54053 2.98664 0
M  V30 1497 C 145.175 4.45593 3.60881 0
M  V30 1498 N 144.671 5.47416 4.24626 0
M  V30 1499 N 146.464 4.33252 3.58119 0
M  V30 1500 H 138.615 2.08177 0.421437 0
M  V30 1501 H 140.878 0.914723 0.248969 0
M  V30 1502 H 140.584 3.18984 1.48128 0
M  V30 1503 H 140.458 2.3009 2.98895 0
M  V30 1504 H 142.845 1.38635 2.60508 0
M  V30 1505 H 142.926 2.31026 1.09821 0
M  V30 1506 H 142.57 4.46273 2.42493 0
M  V30 1507 H 142.5 3.50802 3.92741 0
M  V30 1508 H 144.991 2.80403 2.53343 0
M  V30 1509 H 145.304 6.13459 4.69987 0
M  V30 1510 H 143.649 5.51278 4.23223 0
M  V30 1511 H 146.84 3.52924 3.0751 0
M  V30 1512 H 147.013 5.04786 4.06319 0
M  V30 1513 N 140.419 -1.14872 1.07899 0
M  V30 1514 C 141.665 -1.86064 0.806725 0
M  V30 1515 C 141.998 -1.82434 -0.665706 0
M  V30 1516 O 141.273 -1.25138 -1.48899 0
M  V30 1517 C 141.556 -3.34929 1.32267 0
M  V30 1518 C 141.409 -3.47161 2.86006 0
M  V30 1519 C 142.728 -4.29863 0.943717 0
M  V30 1520 H 139.847 -0.675591 0.294526 0
M  V30 1521 H 142.489 -1.34925 1.33773 0
M  V30 1522 H 140.639 -3.78611 0.870974 0
M  V30 1523 H 142.311 -3.12302 3.39507 0
M  V30 1524 H 140.554 -2.88539 3.23925 0
M  V30 1525 H 141.225 -4.51777 3.17177 0
M  V30 1526 H 143.701 -3.9417 1.33302 0
M  V30 1527 H 142.577 -5.32494 1.33198 0
M  V30 1528 H 142.838 -4.41846 -0.149796 0
M  V30 1529 N 141.898 -0.863906 -1.31812 0
M  V30 1530 C 143.126 -0.486111 -2.01108 0
M  V30 1531 C 143.541 0.919755 -1.64882 0
M  V30 1532 O 142.898 1.60162 -0.874893 0
M  V30 1533 C 142.949 -0.626435 -3.56031 0
M  V30 1534 O 142.67 -1.97693 -3.90959 0
M  V30 1535 C 144.171 -0.248857 -4.42601 0
M  V30 1536 H 141.391 -0.190052 -0.643523 0
M  V30 1537 H 143.935 -1.1634 -1.68182 0
M  V30 1538 H 142.09 0.00322717 -3.874 0
M  V30 1539 H 142.504 -1.98034 -4.85678 0
M  V30 1540 H 143.978 -0.398016 -5.50563 0
M  V30 1541 H 144.455 0.811489 -4.31638 0
M  V30 1542 H 145.061 -0.853971 -4.16638 0
M  V30 1543 N 143.376 1.44774 -0.622745 0
M  V30 1544 C 144.624 2.01721 -0.123655 0
M  V30 1545 C 144.945 1.49172 1.25589 0
M  V30 1546 O 144.215 0.691974 1.83272 0
M  V30 1547 H 142.795 0.745777 -0.0427225 0
M  V30 1548 H 145.457 1.77382 -0.807559 0
M  V30 1549 H 144.553 3.11984 -0.0849534 0
M  V30 1550 N 144.854 0.36279 1.53368 0
M  V30 1551 C 145.817 -0.472679 2.24273 0
M  V30 1552 C 146.817 -1.012 1.24961 0
M  V30 1553 O 148.007 -0.898194 1.49259 0
M  V30 1554 C 145.139 -1.66039 2.97731 0
M  V30 1555 H 146.332 0.14773 2.99536 0
M  V30 1556 H 143.885 0.114434 1.55881 0
M  V30 1557 H 144.62 -2.31896 2.26704 0
M  V30 1558 H 144.405 -1.28066 3.70596 0
M  V30 1559 H 145.895 -2.25252 3.51641 0
M  V30 1560 N 146.332 -1.57332 0.0918853 0
M  V30 1561 C 147.242 -2.17368 -0.882505 0
M  V30 1562 C 148.258 -1.14226 -1.31257 0
M  V30 1563 O 149.434 -1.46582 -1.38115 0
M  V30 1564 C 146.499 -2.73962 -2.12476 0
M  V30 1565 C 145.56 -3.92048 -1.7492 0
M  V30 1566 C 144.793 -4.45933 -2.93223 0
M  V30 1567 O 145.016 -3.98764 -4.07852 0
M  V30 1568 O 143.95 -5.36999 -2.71875 0
M  V30 1569 H 147.776 -3.01031 -0.40172 0
M  V30 1570 H 145.361 -1.48813 -0.132291 0
M  V30 1571 H 147.243 -3.10147 -2.85283 0
M  V30 1572 H 145.918 -1.93347 -2.59613 0
M  V30 1573 H 144.825 -3.6068 -0.993025 0
M  V30 1574 H 146.158 -4.74017 -1.32548 0
M  V30 1575 N 147.81 0.181792 -1.56548 0
M  V30 1576 C 148.758 1.24461 -1.965 0
M  V30 1577 C 149.752 1.464 -0.852261 0
M  V30 1578 O 150.958 1.47103 -1.03733 0
M  V30 1579 H 147.333 0.418138 -0.625031 0
M  V30 1580 H 149.304 0.880714 -2.85107 0
M  V30 1581 C 148.053 2.57891 -2.33212 0
M  V30 1582 H 147.376 2.41829 -3.18369 0
M  V30 1583 H 148.816 3.3097 -2.65019 0
M  V30 1584 C 147.275 3.15871 -1.17163 0
M  V30 1585 O 147.805 3.9913 -0.453708 0
M  V30 1586 N 146.011 2.74808 -0.944936 0
M  V30 1587 H 145.558 2.07205 -1.53049 0
M  V30 1588 H 145.516 3.13939 -0.170286 0
M  V30 1589 N 149.288 1.51039 0.449983 0
M  V30 1590 C 150.534 1.63322 1.20223 0
M  V30 1591 C 150.867 0.34241 1.91158 0
M  V30 1592 O 150.142 -0.657344 1.83055 0
M  V30 1593 C 150.425 2.82801 2.22925 0
M  V30 1594 C 150.278 4.21823 1.56157 0
M  V30 1595 C 151.597 2.97807 3.24035 0
M  V30 1596 H 148.716 0.594407 0.435718 0
M  V30 1597 H 151.358 1.83489 0.493136 0
M  V30 1598 H 149.508 2.65738 2.834 0
M  V30 1599 H 151.18 4.50526 0.991162 0
M  V30 1600 H 149.423 4.25105 0.864172 0
M  V30 1601 H 150.094 5.01391 2.30891 0
M  V30 1602 H 152.57 3.13497 2.73603 0
M  V30 1603 H 151.446 3.82992 3.93202 0
M  V30 1604 H 151.707 2.09328 3.89402 0
M  V30 1605 N 150.766 -0.704594 1.40972 0
M  V30 1606 C 152.182 -1.01406 1.23244 0
M  V30 1607 C 152.382 -2.01169 0.115399 0
M  V30 1608 O 151.438 -2.47021 -0.523147 0
M  V30 1609 C 152.751 -1.54728 2.57836 0
M  V30 1610 C 154.299 -1.66658 2.64942 0
M  V30 1611 C 154.774 -2.23383 3.9983 0
M  V30 1612 N 156.265 -2.30756 4.01629 0
M  V30 1613 C 157 -2.75655 5.02794 0
M  V30 1614 N 156.496 -3.20225 6.14352 0
M  V30 1615 N 158.289 -2.75138 4.90159 0
M  V30 1616 H 150.44 -0.0435285 2.12355 0
M  V30 1617 H 152.703 -0.0818951 0.944456 0
M  V30 1618 H 152.409 -0.888832 3.40283 0
M  V30 1619 H 152.283 -2.53084 2.79693 0
M  V30 1620 H 154.67 -2.31617 1.8286 0
M  V30 1621 H 154.751 -0.668717 2.46904 0
M  V30 1622 H 154.395 -1.59043 4.82357 0
M  V30 1623 H 154.325 -3.23904 4.15203 0
M  V30 1624 H 156.816 -1.99291 3.21079 0
M  V30 1625 H 157.129 -3.53084 6.87424 0
M  V30 1626 H 155.474 -3.18156 6.17901 0
M  V30 1627 H 158.665 -2.39661 4.02095 0
M  V30 1628 H 158.838 -3.09812 5.6914 0
M  V30 1629 N 152.244 -1.26651 -0.937939 0
M  V30 1630 C 153.191 -1.0849 -2.03712 0
M  V30 1631 C 154.161 0.011033 -1.66096 0
M  V30 1632 O 155.346 -0.149353 -1.90215 0
M  V30 1633 C 152.486 -0.72735 -3.37348 0
M  V30 1634 C 151.599 -1.89986 -3.87981 0
M  V30 1635 C 150.734 -1.48513 -5.10017 0
M  V30 1636 C 149.773 -2.62575 -5.5292 0
M  V30 1637 N 148.91 -2.21762 -6.66158 0
M  V30 1638 H 153.75 -2.02551 -2.18579 0
M  V30 1639 H 151.287 -1.00844 -1.07093 0
M  V30 1640 H 153.245 -0.50092 -4.14182 0
M  V30 1641 H 151.875 0.176298 -3.22318 0
M  V30 1642 H 150.927 -2.23913 -3.07518 0
M  V30 1643 H 152.239 -2.75586 -4.15757 0
M  V30 1644 H 151.393 -1.21934 -5.94321 0
M  V30 1645 H 150.132 -0.60009 -4.83994 0
M  V30 1646 H 149.137 -2.8988 -4.67172 0
M  V30 1647 H 150.362 -3.51685 -5.80943 0
M  V30 1648 H 148.308 -1.35696 -6.41812 0
M  V30 1649 H 148.225 -3.00903 -6.93537 0
M  V30 1650 H 149.493 -1.98403 -7.53828 0
M  V30 1651 N 153.722 1.14298 -1.08507 0
M  V30 1652 C 154.971 1.84708 -0.810305 0
M  V30 1653 C 155.284 1.83903 0.666271 0
M  V30 1654 O 156.49 2.50112 1.05624 0
M  V30 1655 C 154.946 3.31572 -1.39957 0
M  V30 1656 C 154.554 3.40791 -2.90801 0
M  V30 1657 C 156.298 4.07087 -1.20334 0
M  V30 1658 C 154.205 4.81872 -3.4286 0
M  V30 1659 H 153.135 0.691985 -0.299454 0
M  V30 1660 H 155.786 1.28841 -1.30661 0
M  V30 1661 H 154.168 3.87183 -0.830976 0
M  V30 1662 H 155.342 2.95225 -3.53806 0
M  V30 1663 H 153.657 2.78732 -3.0935 0
M  V30 1664 H 156.254 5.11225 -1.56693 0
M  V30 1665 H 156.597 4.16054 -0.143237 0
M  V30 1666 H 157.13 3.57779 -1.73893 0
M  V30 1667 H 153.869 4.78094 -4.48449 0
M  V30 1668 H 153.389 5.27972 -2.84615 0
M  V30 1669 H 155.068 5.50765 -3.39509 0
M  V30 1670 N 155.201 0.870884 1.31352 0
M  V30 1671 C 156.131 0.343096 2.30966 0
M  V30 1672 C 157.112 -0.566507 1.60389 0
M  V30 1673 O 158.297 -0.483336 1.88089 0
M  V30 1674 C 155.427 -0.455487 3.443 0
M  V30 1675 C 154.381 0.361103 4.26474 0
M  V30 1676 C 153.707 -0.563221 5.31725 0
M  V30 1677 C 155.007 1.59566 4.97329 0
M  V30 1678 H 156.701 1.17548 2.75359 0
M  V30 1679 H 154.247 0.566686 1.32381 0
M  V30 1680 H 156.2 -0.83525 4.13039 0
M  V30 1681 H 154.924 -1.32139 2.98675 0
M  V30 1682 H 153.583 0.722825 3.59403 0
M  V30 1683 H 153.231 -1.42643 4.82351 0
M  V30 1684 H 152.931 -0.0207409 5.87596 0
M  V30 1685 H 154.455 -0.939808 6.03324 0
M  V30 1686 H 155.869 1.28728 5.58661 0
M  V30 1687 H 154.266 2.07728 5.63 0
M  V30 1688 H 155.336 2.34798 4.24262 0
M  V30 1689 N 156.679 -1.44442 0.630414 0
M  V30 1690 C 157.612 -2.27862 -0.124247 0
M  V30 1691 C 158.59 -1.38495 -0.851931 0
M  V30 1692 O 159.774 -1.67935 -0.856166 0
M  V30 1693 C 156.901 -3.17407 -1.18197 0
M  V30 1694 C 155.947 -4.22875 -0.554892 0
M  V30 1695 S 156.78 -5.31485 0.654489 0
M  V30 1696 C 157.936 -6.246 -0.40326 0
M  V30 1697 H 158.169 -2.91519 0.583435 0
M  V30 1698 H 155.702 -1.48618 0.418565 0
M  V30 1699 H 157.66 -3.69549 -1.78728 0
M  V30 1700 H 156.321 -2.52971 -1.86184 0
M  V30 1701 H 155.514 -4.85542 -1.35148 0
M  V30 1702 H 155.116 -3.73992 -0.0242105 0
M  V30 1703 H 157.408 -6.65375 -1.27602 0
M  V30 1704 H 158.351 -7.07851 0.187813 0
M  V30 1705 H 158.759 -5.59775 -0.728837 0
M  V30 1706 N 158.157 -0.370918 -1.53173 0
M  V30 1707 C 159.405 0.216673 -2.00935 0
M  V30 1708 C 159.726 1.48845 -1.25977 0
M  V30 1709 O 158.996 1.92286 -0.374551 0
M  V30 1710 H 157.576 0.0830565 -0.742368 0
M  V30 1711 H 160.238 -0.49838 -1.8842 0
M  V30 1712 H 159.334 0.439893 -3.08984 0
M  V30 1713 N 159.635 1.57281 -0.100228 0
M  V30 1714 C 160.545 2.17833 0.870965 0
M  V30 1715 C 161.561 1.14921 1.30649 0
M  V30 1716 O 162.737 1.47313 1.37335 0
M  V30 1717 C 159.802 2.75085 2.1102 0
M  V30 1718 C 158.863 3.9297 1.72838 0
M  V30 1719 C 158.096 4.47482 2.90854 0
M  V30 1720 O 158.319 4.00922 4.05731 0
M  V30 1721 O 157.253 5.38433 2.69023 0
M  V30 1722 H 161.079 3.0124 0.38575 0
M  V30 1723 H 158.664 1.48881 0.124397 0
M  V30 1724 H 160.546 3.11656 2.83634 0
M  V30 1725 H 159.221 1.94721 2.58584 0
M  V30 1726 H 158.128 3.61201 0.973883 0
M  V30 1727 H 159.461 4.74713 1.30033 0
M  V30 1728 N 161.113 -0.173488 1.56642 0
M  V30 1729 C 162.063 -1.21941 1.92651 0
M  V30 1730 C 163.047 -1.39912 0.794577 0
M  V30 1731 O 164.239 -1.41919 1.05773 0
M  V30 1732 C 161.368 -2.55935 2.28806 0
M  V30 1733 C 160.454 -2.41667 3.48508 0
M  V30 1734 N 160.845 -1.9711 4.65813 0
M  V30 1735 C 159.143 -2.72499 3.53072 0
M  V30 1736 C 159.844 -1.95253 5.47952 0
M  V30 1737 N 158.82 -2.37575 4.88937 0
M  V30 1738 H 162.622 -0.866581 2.80834 0
M  V30 1739 H 160.136 -0.381776 1.57849 0
M  V30 1740 H 162.133 -3.31511 2.52797 0
M  V30 1741 H 160.793 -2.92022 1.41961 0
M  V30 1742 H 161.804 -1.67481 4.90072 0
M  V30 1743 H 158.481 -3.12639 2.767 0
M  V30 1744 H 159.871 -1.6252 6.51948 0
M  V30 1745 N 162.591 -1.51276 -0.441967 0
M  V30 1746 C 163.541 -1.6864 -1.53442 0
M  V30 1747 C 164.525 -0.540444 -1.51552 0
M  V30 1748 O 165.717 -0.796157 -1.58083 0
M  V30 1749 C 162.846 -1.8106 -2.91672 0
M  V30 1750 C 161.932 -3.01424 -2.98336 0
M  V30 1751 N 162.323 -4.2467 -2.74752 0
M  V30 1752 C 160.621 -3.00584 -3.29493 0
M  V30 1753 C 161.322 -5.05891 -2.87139 0
M  V30 1754 N 160.298 -4.40442 -3.18609 0
M  V30 1755 H 164.1 -2.61598 -1.33954 0
M  V30 1756 H 161.614 -1.4886 -0.6492 0
M  V30 1757 H 163.611 -1.91609 -3.70259 0
M  V30 1758 H 162.271 -0.892795 -3.12185 0
M  V30 1759 H 163.282 -4.53691 -2.49769 0
M  V30 1760 H 159.959 -2.18417 -3.55809 0
M  V30 1761 H 161.349 -6.13983 -2.72899 0
M  V30 1762 N 164.069 0.697108 -1.41344 0
M  V30 1763 C 164.999 1.82353 -1.45841 0
M  V30 1764 C 165.98 1.67115 -0.317247 0
M  V30 1765 O 167.165 1.86871 -0.528474 0
M  V30 1766 C 164.295 3.20476 -1.33838 0
M  V30 1767 C 163.249 3.50415 -2.4575 0
M  V30 1768 C 162.575 4.87878 -2.18813 0
M  V30 1769 C 163.875 3.49546 -3.88091 0
M  V30 1770 H 165.569 1.78846 -2.40113 0
M  V30 1771 H 163.115 0.859028 -1.15571 0
M  V30 1772 H 165.068 3.98988 -1.35596 0
M  V30 1773 H 163.792 3.24604 -0.360498 0
M  V30 1774 H 162.451 2.74253 -2.43271 0
M  V30 1775 H 162.099 4.8863 -1.19371 0
M  V30 1776 H 161.799 5.08875 -2.93803 0
M  V30 1777 H 163.323 5.68702 -2.22284 0
M  V30 1778 H 164.737 4.18066 -3.92293 0
M  V30 1779 H 163.134 3.82075 -4.62751 0
M  V30 1780 H 164.204 2.48552 -4.16353 0
M  V30 1781 N 165.547 1.27147 0.931209 0
M  V30 1782 C 166.793 1.13446 1.68101 0
M  V30 1783 C 167.126 -0.319628 1.91552 0
M  V30 1784 O 166.401 -1.23407 1.50336 0
M  V30 1785 C 166.684 1.91482 3.0497 0
M  V30 1786 C 166.537 3.44855 2.88782 0
M  V30 1787 C 167.856 1.71651 4.05246 0
M  V30 1788 H 164.975 0.413498 0.610072 0
M  V30 1789 H 167.617 1.56261 1.08086 0
M  V30 1790 H 165.767 1.55095 3.56199 0
M  V30 1791 H 167.439 3.9105 2.44698 0
M  V30 1792 H 165.682 3.71373 2.24198 0
M  V30 1793 H 166.353 3.94694 3.85902 0
M  V30 1794 H 168.829 2.0337 3.63015 0
M  V30 1795 H 167.705 2.28651 4.99009 0
M  V30 1796 H 167.966 0.663555 4.37092 0
M  V30 1797 N 167.025 -1.13721 1.09112 0
M  V30 1798 C 168.25 -1.89314 0.847053 0
M  V30 1799 C 168.675 -1.78416 -0.595774 0
M  V30 1800 O 168.033 -1.12942 -1.41823 0
M  V30 1801 C 168.081 -3.3701 1.28284 0
M  V30 1802 O 167.185 -4.10054 0.439267 0
M  V30 1803 H 166.526 -0.588745 0.307044 0
M  V30 1804 H 169.056 -1.43902 1.45442 0
M  V30 1805 H 169.066 -3.87834 1.26683 0
M  V30 1806 H 167.741 -3.4426 2.33363 0
M  V30 1807 H 166.318 -3.69266 0.519312 0
M  V30 1808 N 168.503 -0.877838 -1.30888 0
M  V30 1809 C 169.731 -0.507414 -2.00581 0
M  V30 1810 C 170.146 0.902216 -1.65848 0
M  V30 1811 O 169.503 1.59225 -0.891831 0
M  V30 1812 C 169.554 -0.664162 -3.55347 0
M  V30 1813 O 169.275 -2.01829 -3.8884 0
M  V30 1814 C 170.776 -0.295787 -4.42312 0
M  V30 1815 H 167.996 -0.196866 -0.641471 0
M  V30 1816 H 170.54 -1.18117 -1.66939 0
M  V30 1817 H 168.695 -0.0378619 -3.87381 0
M  V30 1818 H 169.109 -2.03174 -4.8355 0
M  V30 1819 H 170.583 -0.456388 -5.5011 0
M  V30 1820 H 171.06 0.765663 -4.32475 0
M  V30 1821 H 171.666 -0.898113 -4.15709 0
M  V30 1822 N 169.982 1.44106 -0.638065 0
M  V30 1823 C 170.892 2.34513 0.0637334 0
M  V30 1824 C 171.908 1.53018 0.828346 0
M  V30 1825 O 173.084 1.85723 0.779036 0
M  V30 1826 C 170.149 3.31095 1.02844 0
M  V30 1827 C 169.21 4.28497 0.26244 0
M  V30 1828 C 168.443 5.20465 1.1812 0
M  V30 1829 O 168.666 5.16514 2.42011 0
M  V30 1830 O 167.6 5.98251 0.661774 0
M  V30 1831 H 171.426 2.95989 -0.68003 0
M  V30 1832 H 169.011 1.43994 -0.398252 0
M  V30 1833 H 170.893 3.90526 1.58327 0
M  V30 1834 H 169.568 2.72144 1.7527 0
M  V30 1835 H 168.475 3.72592 -0.335602 0
M  V30 1836 H 169.808 4.90388 -0.421936 0
M  V30 1837 N 171.46 0.379036 1.52974 0
M  V30 1838 C 172.706 -0.199244 2.02422 0
M  V30 1839 C 173.061 -1.4532 1.26095 0
M  V30 1840 O 172.354 -1.88377 0.34996 0
M  V30 1841 C 172.548 -0.53096 3.53434 0
M  V30 1842 C 172.377 0.689298 4.44386 0
M  V30 1843 C 171.147 1.20546 4.9071 0
M  V30 1844 C 173.345 1.55856 4.90116 0
M  V30 1845 N 171.327 2.38434 5.65705 0
M  V30 1846 C 172.698 2.58396 5.63588 0
M  V30 1847 C 174.753 1.57986 4.7217 0
M  V30 1848 C 173.456 3.62939 6.21022 0
M  V30 1849 C 175.482 2.6143 5.30479 0
M  V30 1850 C 174.844 3.62693 6.03849 0
M  V30 1851 H 170.943 -0.0352671 0.781204 0
M  V30 1852 H 173.527 0.526614 1.87443 0
M  V30 1853 H 171.698 -1.22588 3.68547 0
M  V30 1854 H 173.43 -1.0955 3.89591 0
M  V30 1855 H 170.185 0.768022 4.67331 0
M  V30 1856 H 170.609 2.98055 6.07859 0
M  V30 1857 H 175.251 0.810475 4.14959 0
M  V30 1858 H 172.969 4.40751 6.77321 0
M  V30 1859 H 176.555 2.63949 5.18481 0
M  V30 1860 H 175.435 4.41424 6.48163 0
M  V30 1861 N 172.938 -1.57226 0.108567 0
M  V30 1862 C 174.349 -1.8195 -0.418464 0
M  V30 1863 C 174.7 -1.02508 -1.67292 0
M  V30 1864 O 173.825 -0.258496 -2.14851 0
M  V30 1865 C 174.42 -3.30028 -0.765979 0
M  V30 1866 C 172.979 -3.55469 -1.23769 0
M  V30 1867 C 172.126 -2.7625 -0.241106 0
M  V30 1868 H 175.077 -1.55149 0.33384 0
M  V30 1869 H 175.098 -3.44086 -1.62434 0
M  V30 1870 H 174.61 -3.87821 0.147219 0
M  V30 1871 H 172.711 -3.03022 -2.16814 0
M  V30 1872 H 172.824 -4.6408 -1.19022 0
M  V30 1873 H 171.188 -2.44133 -0.72602 0
M  V30 1874 H 171.971 -3.36797 0.665007 0
M  V30 1875 N 174.416 0.165178 -1.56732 0
M  V30 1876 C 175.832 0.517174 -1.50988 0
M  V30 1877 C 176.032 1.84331 -0.813894 0
M  V30 1878 O 175.088 2.49672 -0.37682 0
M  V30 1879 C 176.401 0.544261 -2.95733 0
M  V30 1880 C 177.949 0.631039 -3.06573 0
M  V30 1881 C 178.424 0.68896 -4.52788 0
M  V30 1882 N 179.915 0.751683 -4.5706 0
M  V30 1883 C 180.65 0.817177 -5.67547 0
M  V30 1884 N 180.146 0.843129 -6.8765 0
M  V30 1885 N 181.939 0.856668 -5.55534 0
M  V30 1886 H 174.09 -0.704318 -2.00382 0
M  V30 1887 H 176.353 -0.254687 -0.913148 0
M  V30 1888 H 176.059 -0.361607 -3.49836 0
M  V30 1889 H 175.933 1.3886 -3.5071 0
M  V30 1890 H 178.32 1.52733 -2.52501 0
M  V30 1891 H 178.401 -0.240095 -2.54671 0
M  V30 1892 H 178.045 -0.2031 -5.07494 0
M  V30 1893 H 177.975 1.57633 -5.02454 0
M  V30 1894 H 180.466 0.739661 -3.70591 0
M  V30 1895 H 180.779 0.894448 -7.67606 0
M  V30 1896 H 179.124 0.811304 -6.90248 0
M  V30 1897 H 182.315 0.833437 -4.60621 0
M  V30 1898 H 182.488 0.904247 -6.4166 0
M  V30 1899 N 175.894 1.51508 0.433938 0
M  V30 1900 C 177.119 1.68443 1.21003 0
M  V30 1901 C 177.544 0.382636 1.84167 0
M  V30 1902 O 176.902 -0.65755 1.68956 0
M  V30 1903 C 176.95 2.80405 2.26727 0
M  V30 1904 O 176.054 2.44245 3.32292 0
M  V30 1905 H 175.395 0.561536 0.354363 0
M  V30 1906 H 177.925 1.9809 0.512024 0
M  V30 1907 H 177.935 3.0459 2.71457 0
M  V30 1908 H 176.61 3.74867 1.80132 0
M  V30 1909 H 175.187 2.30644 2.93015 0
M  V30 1910 N 177.372 -0.689602 1.41712 0
M  V30 1911 C 178.6 -1.47827 1.44758 0
M  V30 1912 C 179.015 -1.88721 0.0545703 0
M  V30 1913 O 178.372 -1.57176 -0.927463 0
M  V30 1914 C 178.423 -2.73698 2.3616 0
M  V30 1915 O 178.144 -2.34524 3.7004 0
M  V30 1916 C 179.645 -3.67389 2.48072 0
M  V30 1917 H 176.865 -0.455357 0.49284 0
M  V30 1918 H 179.409 -0.848574 1.86063 0
M  V30 1919 H 177.564 -3.32891 1.98148 0
M  V30 1920 H 177.978 -3.15701 4.18847 0
M  V30 1921 H 179.452 -4.52475 3.16181 0
M  V30 1922 H 179.929 -4.12284 1.51388 0
M  V30 1923 H 180.535 -3.14097 2.86746 0
M  V30 1924 N 178.85 -1.27639 -0.924453 0
M  V30 1925 C 180.266 -1.05113 -1.20097 0
M  V30 1926 C 180.466 0.213262 -2.00368 0
M  V30 1927 O 179.522 0.91787 -2.35226 0
M  V30 1928 C 180.835 -2.29244 -1.94596 0
M  V30 1929 C 182.383 -2.34315 -2.07522 0
M  V30 1930 C 182.858 -3.58183 -2.85427 0
M  V30 1931 N 184.349 -3.5876 -2.92994 0
M  V30 1932 C 185.084 -4.51277 -3.53746 0
M  V30 1933 N 184.58 -5.54102 -4.15863 0
M  V30 1934 N 186.373 -4.38894 -3.51181 0
M  V30 1935 H 178.524 -2.08821 -0.388264 0
M  V30 1936 H 180.787 -0.918568 -0.234385 0
M  V30 1937 H 180.493 -3.21301 -1.43034 0
M  V30 1938 H 180.367 -2.34816 -2.95197 0
M  V30 1939 H 182.754 -1.42762 -2.58269 0
M  V30 1940 H 182.835 -2.32744 -1.06131 0
M  V30 1941 H 182.479 -4.50074 -2.35363 0
M  V30 1942 H 182.409 -3.57006 -3.8711 0
M  V30 1943 H 184.9 -2.84398 -2.4885 0
M  V30 1944 H 185.213 -6.20859 -4.60168 0
M  V30 1945 H 183.558 -5.57941 -4.144 0
M  V30 1946 H 186.749 -3.57772 -3.01856 0
M  V30 1947 H 186.922 -5.11186 -3.98237 0
M  V30 1948 N 180.328 1.1314 -1.09713 0
M  V30 1949 C 181.261 2.17735 -0.683137 0
M  V30 1950 C 182.239 1.59582 0.311841 0
M  V30 1951 O 183.423 1.87298 0.212514 0
M  V30 1952 C 180.55 3.38699 -0.00684324 0
M  V30 1953 C 179.596 4.1546 -0.964102 0
M  V30 1954 S 180.429 4.74733 -2.47767 0
M  V30 1955 C 181.585 5.9904 -1.81387 0
M  V30 1956 H 181.818 2.52515 -1.56918 0
M  V30 1957 H 179.351 1.24484 -0.913404 0
M  V30 1958 H 181.309 4.08765 0.377044 0
M  V30 1959 H 179.97 3.02214 0.85589 0
M  V30 1960 H 179.163 5.02093 -0.43803 0
M  V30 1961 H 178.765 3.51066 -1.28953 0
M  V30 1962 H 181.057 6.67846 -1.13967 0
M  V30 1963 H 182 6.56261 -2.65947 0
M  V30 1964 H 182.408 5.4976 -1.28155 0
M  V30 1965 N 181.806 0.884767 1.30421 0
M  V30 1966 C 182.736 0.367574 2.30589 0
M  V30 1967 C 183.717 -0.549464 1.60981 0
M  V30 1968 O 184.902 -0.46336 1.88591 0
M  V30 1969 C 182.032 -0.418944 3.44764 0
M  V30 1970 C 180.986 0.406316 4.26067 0
M  V30 1971 C 180.312 -0.506793 5.32293 0
M  V30 1972 C 181.612 1.64832 4.95608 0
M  V30 1973 H 183.306 1.20462 2.74097 0
M  V30 1974 H 180.852 0.580695 1.31772 0
M  V30 1975 H 182.805 -0.791395 4.13902 0
M  V30 1976 H 181.529 -1.28964 3.0006 0
M  V30 1977 H 180.188 0.760903 3.58617 0
M  V30 1978 H 179.836 -1.37519 4.83836 0
M  V30 1979 H 179.536 0.0415828 5.87585 0
M  V30 1980 H 181.06 -0.875764 6.04287 0
M  V30 1981 H 182.474 1.34646 5.57264 0
M  V30 1982 H 180.871 2.13688 5.60765 0
M  V30 1983 H 181.941 2.39284 4.21748 0
M  V30 1984 N 183.284 -1.43765 0.645699 0
M  V30 1985 C 184.214 -2.33471 -0.0370477 0
M  V30 1986 C 185.195 -1.49042 -0.819779 0
M  V30 1987 O 186.38 -1.77726 -0.782758 0
M  V30 1988 C 183.51 -3.32311 -1.0093 0
M  V30 1989 C 182.464 -4.2667 -0.337201 0
M  V30 1990 C 181.79 -5.1549 -1.42037 0
M  V30 1991 C 183.09 -5.16657 0.765706 0
M  V30 1992 H 184.784 -2.90809 0.712069 0
M  V30 1993 H 182.33 -1.39834 0.343876 0
M  V30 1994 H 184.283 -3.9396 -1.49578 0
M  V30 1995 H 183.007 -2.73213 -1.78948 0
M  V30 1996 H 181.666 -3.66374 0.128771 0
M  V30 1997 H 181.314 -4.52735 -2.1918 0
M  V30 1998 H 181.014 -5.79438 -0.975966 0
M  V30 1999 H 182.538 -5.80012 -1.90838 0
M  V30 2000 H 183.952 -5.72158 0.361702 0
M  V30 2001 H 182.349 -5.89286 1.13413 0
M  V30 2002 H 183.419 -4.56796 1.62683 0
M  V30 2003 N 184.763 -0.387143 -1.52771 0
M  V30 2004 C 186.011 0.195349 -2.01154 0
M  V30 2005 C 186.332 1.475 -1.27549 0
M  V30 2006 O 185.602 1.91878 -0.394924 0
M  V30 2007 H 184.182 0.075178 -0.743207 0
M  V30 2008 H 186.844 -0.518337 -1.87881 0
M  V30 2009 H 185.94 0.407096 -3.09434 0
M  V30 2010 N 186.241 1.57166 -0.116904 0
M  V30 2011 C 187.652 1.82169 0.408809 0
M  V30 2012 C 188.003 1.03393 1.66746 0
M  V30 2013 O 187.128 0.269886 2.1471 0
M  V30 2014 C 187.723 3.30429 0.748466 0
M  V30 2015 C 186.282 3.5612 1.21882 0
M  V30 2016 C 185.429 2.76374 0.226452 0
M  V30 2017 H 188.38 1.5497 -0.342063 0
M  V30 2018 H 188.401 3.44943 1.60607 0
M  V30 2019 H 187.913 3.87737 -0.167784 0
M  V30 2020 H 186.014 3.04168 2.15204 0
M  V30 2021 H 186.127 4.64705 1.16559 0
M  V30 2022 H 184.491 2.44515 0.713063 0
M  V30 2023 H 185.274 3.3644 -0.682859 0
M  V30 2024 N 187.719 -0.156864 1.56817 0
M  V30 2025 C 188.667 -1.21319 1.98455 0
M  V30 2026 C 189.661 -1.45025 0.875444 0
M  V30 2027 O 190.867 -1.45435 1.0606 0
M  V30 2028 H 187.242 -0.408142 0.631605 0
M  V30 2029 H 189.213 -0.835244 2.86472 0
M  V30 2030 C 187.962 -2.54148 2.37285 0
M  V30 2031 H 187.285 -2.36733 3.22176 0
M  V30 2032 H 188.725 -3.26712 2.70251 0
M  V30 2033 C 187.184 -3.13967 1.22173 0
M  V30 2034 O 187.714 -3.98357 0.517149 0
M  V30 2035 N 185.92 -2.7327 0.988536 0
M  V30 2036 H 185.467 -2.04744 1.56326 0
M  V30 2037 H 185.425 -3.13628 0.220209 0
M  V30 2038 N 189.197 -1.51736 -0.425897 0
M  V30 2039 C 190.425 -1.68794 -1.1965 0
M  V30 2040 C 190.84 -0.390164 -1.84725 0
M  V30 2041 O 190.197 0.632376 -1.71194 0
M  V30 2042 C 190.248 -2.81174 -2.27208 0
M  V30 2043 O 189.969 -4.05925 -1.64793 0
M  V30 2044 C 191.47 -3.09599 -3.17275 0
M  V30 2045 H 188.69 -0.566128 -0.360194 0
M  V30 2046 H 191.234 -1.98211 -0.503249 0
M  V30 2047 H 189.389 -2.54324 -2.9223 0
M  V30 2048 H 189.803 -4.68423 -2.35967 0
M  V30 2049 H 191.277 -3.91786 -3.88854 0
M  V30 2050 H 191.754 -2.22468 -3.78688 0
M  V30 2051 H 192.36 -3.38151 -2.57941 0
M  V30 2052 N 190.675 0.682077 -1.42076 0
M  V30 2053 C 191.921 1.44428 -1.42367 0
M  V30 2054 C 192.254 1.94164 -0.0373056 0
M  V30 2055 O 191.529 1.70429 0.937239 0
M  V30 2056 C 191.812 2.64654 -2.44194 0
M  V30 2057 C 191.665 2.20596 -3.91991 0
M  V30 2058 C 192.984 3.66865 -2.431 0
M  V30 2059 H 190.103 0.523834 -0.518428 0
M  V30 2060 H 192.745 0.77576 -1.73442 0
M  V30 2061 H 190.895 3.2169 -2.17826 0
M  V30 2062 H 192.567 1.68783 -4.29313 0
M  V30 2063 H 190.81 1.52242 -4.06208 0
M  V30 2064 H 191.481 3.06921 -4.58807 0
M  V30 2065 H 193.957 3.19531 -2.66532 0
M  V30 2066 H 192.833 4.48577 -3.16339 0
M  V30 2067 H 193.094 4.17493 -1.45437 0
M  V30 2068 N 192.153 1.28127 0.917671 0
M  V30 2069 C 193.378 1.18007 1.70555 0
M  V30 2070 C 193.803 -0.258257 1.86319 0
M  V30 2071 O 193.161 -1.1869 1.37049 0
M  V30 2072 C 193.209 1.87948 3.07746 0
M  V30 2073 O 192.313 1.18427 3.9503 0
M  V30 2074 H 191.654 0.409867 0.522403 0
M  V30 2075 H 194.184 1.69379 1.1477 0
M  V30 2076 H 194.194 1.95701 3.58001 0
M  V30 2077 H 192.869 2.92573 2.95591 0
M  V30 2078 H 191.446 1.18811 3.53466 0
M  V30 2079 N 193.631 -1.12557 1.10312 0
M  V30 2080 C 194.579 -2.20325 0.745629 0
M  V30 2081 C 195.573 -1.67429 -0.25763 0
M  V30 2082 O 196.779 -1.79612 -0.118132 0
M  V30 2083 H 193.154 -0.718118 0.223182 0
M  V30 2084 H 195.125 -2.47733 1.66346 0
M  V30 2085 C 193.874 -3.47168 0.192262 0
M  V30 2086 H 193.197 -3.88215 0.955475 0
M  V30 2087 H 194.637 -4.23995 -0.0198274 0
M  V30 2088 C 193.096 -3.19298 -1.07472 0
M  V30 2089 O 193.626 -3.3891 -2.15645 0
M  V30 2090 N 191.832 -2.73113 -0.992847 0
M  V30 2091 H 191.379 -2.57354 -0.112474 0
M  V30 2092 H 191.337 -2.54842 -1.84127 0
M  V30 2093 N 195.109 -0.891671 -1.2995 0
M  V30 2094 C 196.334 -0.527932 -2.00568 0
M  V30 2095 C 196.759 0.877969 -1.66353 0
M  V30 2096 O 196.117 1.58301 -0.883762 0
M  V30 2097 C 196.165 -0.717745 -3.53385 0
M  V30 2098 O 195.269 0.233376 -4.11739 0
M  V30 2099 H 194.61 -0.20722 -0.630837 0
M  V30 2100 H 197.14 -1.20105 -1.65638 0
M  V30 2101 H 197.15 -0.619307 -4.03272 0
M  V30 2102 H 195.825 -1.74276 -3.77625 0
M  V30 2103 H 194.402 0.0880706 -3.72796 0
M  V30 2104 N 196.587 1.43421 -0.653314 0
M  V30 2105 C 197.836 2.01032 -0.164076 0
M  V30 2106 C 198.149 1.52147 1.22926 0
M  V30 2107 O 199.355 2.02031 1.81371 0
M  V30 2108 C 197.811 3.59082 -0.24252 0
M  V30 2109 C 197.419 4.1696 -1.63855 0
M  V30 2110 C 199.163 4.24079 0.18911 0
M  V30 2111 C 197.07 5.67304 -1.67092 0
M  V30 2112 H 196 0.751798 -0.0575769 0
M  V30 2113 H 198.651 1.6439 -0.815362 0
M  V30 2114 H 197.033 3.93125 0.476276 0
M  V30 2115 H 198.207 3.94416 -2.38271 0
M  V30 2116 H 196.522 3.64335 -2.01616 0
M  V30 2117 H 199.119 5.34381 0.184775 0
M  V30 2118 H 199.462 3.98005 1.22056 0
M  V30 2119 H 199.995 3.94918 -0.477938 0
M  V30 2120 H 196.734 5.98145 -2.68146 0
M  V30 2121 H 196.254 5.91904 -0.970014 0
M  V30 2122 H 197.933 6.31344 -1.4147 0
M  V30 2123 N 198.065 0.39524 1.52563 0
M  V30 2124 C 199.313 -0.184678 2.01254 0
M  V30 2125 C 199.634 -1.46822 1.28329 0
M  V30 2126 O 198.904 -1.91666 0.405094 0
M  V30 2127 H 197.484 -0.0712355 0.743596 0
M  V30 2128 H 200.146 0.528293 1.87603 0
M  V30 2129 H 199.242 -0.390681 3.09645 0
M  V30 2130 N 199.544 -1.57102 0.125237 0
M  V30 2131 C 200.821 -1.86953 -0.575142 0
M  V30 2132 C 201.201 -1.02749 -1.84407 0
M  V30 2133 O 200.549 -0.108144 -2.28244 0
M  V30 2134 C 200.759 -3.38198 -0.861583 0
M  V30 2135 C 202.107 -4.06937 -1.21192 0
M  V30 2136 O 203.131 -3.43252 -0.951645 0
M  V30 2137 O 201.99 -5.19364 -1.70068 0
M  V30 2138 H 199.084 -0.774147 -0.290906 0
M  V30 2139 H 201.63 -1.68942 0.160211 0
M  V30 2140 H 200.402 -3.91282 0.0373647 0
M  V30 2141 H 200.025 -3.61661 -1.65188 0
M  V30 2142 N 201.022 0.148545 -1.56898 0
M  V30 2143 C 202.271 0.85984 -1.82454 0
M  V30 2144 C 202.584 1.82406 -0.706229 0
M  V30 2145 O 203.79 2.57938 -0.847349 0
M  V30 2146 C 202.246 1.57967 -3.2338 0
M  V30 2147 C 201.854 0.65794 -4.43142 0
M  V30 2148 C 203.598 2.27784 -3.58211 0
M  V30 2149 C 201.505 1.3793 -5.75091 0
M  V30 2150 H 200.435 0.324834 -0.68044 0
M  V30 2151 H 203.086 0.112588 -1.83154 0
M  V30 2152 H 201.468 2.37249 -3.17063 0
M  V30 2153 H 202.642 -0.0995497 -4.60692 0
M  V30 2154 H 200.957 0.0682643 -4.16344 0
M  V30 2155 H 203.554 2.8239 -4.54048 0
M  V30 2156 H 203.897 3.04204 -2.84193 0
M  V30 2157 H 204.43 1.55421 -3.66182 0
M  V30 2158 H 201.169 0.656982 -6.52199 0
M  V30 2159 H 200.689 2.10954 -5.61479 0
M  V30 2160 H 202.368 1.92063 -6.17835 0
M  V30 2161 N 202.5 1.5196 0.417844 0
M  V30 2162 C 203.45 1.7106 1.5074 0
M  V30 2163 C 204.434 0.564487 1.50673 0
M  V30 2164 O 205.626 0.821206 1.56797 0
M  V30 2165 C 202.755 1.85677 2.88754 0
M  V30 2166 C 201.841 3.06133 2.93502 0
M  V30 2167 N 202.232 4.28987 2.67962 0
M  V30 2168 C 200.53 3.05787 3.24669 0
M  V30 2169 C 201.231 5.10395 2.79055 0
M  V30 2170 N 200.207 4.45455 3.11561 0
M  V30 2171 H 204.009 2.63696 1.29775 0
M  V30 2172 H 201.523 1.49873 0.625436 0
M  V30 2173 H 203.52 1.97475 3.67164 0
M  V30 2174 H 202.18 0.942348 3.10725 0
M  V30 2175 H 203.191 4.57607 2.4252 0
M  V30 2176 H 199.868 2.2405 3.52289 0
M  V30 2177 H 201.258 6.18247 2.63097 0
M  V30 2178 N 203.978 -0.674533 1.42435 0
M  V30 2179 C 205.394 -0.98769 1.25367 0
M  V30 2180 C 205.594 -2.00879 0.158044 0
M  V30 2181 O 204.65 -2.48075 -0.470633 0
M  V30 2182 C 205.963 -1.49224 2.6106 0
M  V30 2183 C 207.511 -1.61 2.68417 0
M  V30 2184 C 207.986 -2.14852 4.04478 0
M  V30 2185 N 209.477 -2.22185 4.06434 0
M  V30 2186 C 210.212 -2.64928 5.08528 0
M  V30 2187 N 209.708 -3.07121 6.21006 0
M  V30 2188 N 211.501 -2.64679 4.95885 0
M  V30 2189 H 203.652 0.00152503 2.124 0
M  V30 2190 H 205.915 -0.0618434 0.945981 0
M  V30 2191 H 205.621 -0.816453 3.42092 0
M  V30 2192 H 205.495 -2.47094 2.84999 0
M  V30 2193 H 207.882 -2.27686 1.87732 0
M  V30 2194 H 207.963 -0.616195 2.48267 0
M  V30 2195 H 207.607 -1.48775 4.85622 0
M  V30 2196 H 207.537 -3.15024 4.2198 0
M  V30 2197 H 210.028 -1.92435 3.25234 0
M  V30 2198 H 210.341 -3.38423 6.94759 0
M  V30 2199 H 208.686 -3.04978 6.24511 0
M  V30 2200 H 211.877 -2.31078 4.07088 0
M  V30 2201 H 212.05 -2.9767 5.75584 0
M  V30 2202 N 205.456 -1.28612 -0.910864 0
M  V30 2203 C 206.404 -1.1265 -2.03501 0
M  V30 2204 C 207.398 -0.0450054 -1.6934 0
M  V30 2205 O 208.604 -0.203988 -1.7884 0
M  V30 2206 H 204.979 -0.347639 -0.666822 0
M  V30 2207 H 206.95 -2.07849 -2.14106 0
M  V30 2208 C 205.699 -0.808143 -3.38178 0
M  V30 2209 H 205.022 -1.63231 -3.6496 0
M  V30 2210 H 206.462 -0.736426 -4.17556 0
M  V30 2211 C 204.921 0.488226 -3.33344 0
M  V30 2212 O 205.451 1.51766 -3.71927 0
M  V30 2213 N 203.657 0.490009 -2.86439 0
M  V30 2214 H 203.204 -0.348161 -2.55236 0
M  V30 2215 H 203.162 1.35741 -2.83587 0
M  V30 2216 N 206.934 1.1197 -1.10907 0
M  V30 2217 C 207.881 2.17846 -0.762345 0
M  V30 2218 C 208.851 1.63995 0.263599 0
M  V30 2219 O 210.036 1.90273 0.141773 0
M  V30 2220 C 207.176 3.44487 -0.205651 0
M  V30 2221 C 206.289 4.12369 -1.28748 0
M  V30 2222 C 205.424 5.26674 -0.691919 0
M  V30 2223 C 204.463 5.86431 -1.75399 0
M  V30 2224 N 203.6 6.92142 -1.17833 0
M  V30 2225 H 208.44 2.46851 -1.6694 0
M  V30 2226 H 205.977 1.21188 -0.833776 0
M  V30 2227 H 207.935 4.16981 0.135037 0
M  V30 2228 H 206.565 3.15884 0.664613 0
M  V30 2229 H 205.617 3.38003 -1.74522 0
M  V30 2230 H 206.929 4.52844 -2.09125 0
M  V30 2231 H 206.083 6.05953 -0.300963 0
M  V30 2232 H 204.822 4.8749 0.143232 0
M  V30 2233 H 203.827 5.05835 -2.15432 0
M  V30 2234 H 205.052 6.27685 -2.59208 0
M  V30 2235 H 202.998 6.54985 -0.364725 0
M  V30 2236 H 202.915 7.31242 -1.91887 0
M  V30 2237 H 204.183 7.75237 -0.81408 0
M  V30 2238 N 208.412 0.89855 1.29475 0
M  V30 2239 C 209.828 0.594483 1.48115 0
M  V30 2240 C 210.028 -0.86431 1.82022 0
M  V30 2241 O 209.084 -1.64457 1.91599 0
M  V30 2242 C 210.397 1.51932 2.59494 0
M  V30 2243 C 211.945 1.5244 2.7337 0
M  V30 2244 C 212.42 2.43548 3.87877 0
M  V30 2245 N 213.911 2.41589 3.95208 0
M  V30 2246 C 214.646 3.08789 4.83153 0
M  V30 2247 N 214.142 3.85265 5.75798 0
M  V30 2248 N 215.935 2.97952 4.76635 0
M  V30 2249 H 208.086 1.84207 1.05742 0
M  V30 2250 H 210.349 0.789251 0.525154 0
M  V30 2251 H 210.055 2.55865 2.41301 0
M  V30 2252 H 209.929 1.23899 3.56271 0
M  V30 2253 H 212.316 0.492518 2.90961 0
M  V30 2254 H 212.397 1.8451 1.77172 0
M  V30 2255 H 212.041 3.46829 3.71041 0
M  V30 2256 H 211.971 2.08788 4.83441 0
M  V30 2257 H 214.462 1.86025 3.28943 0
M  V30 2258 H 214.775 4.33598 6.39697 0
M  V30 2259 H 213.12 3.89371 5.75687 0
M  V30 2260 H 216.311 2.37723 4.03244 0
M  V30 2261 H 216.484 3.50599 5.44962 0
M  V30 2262 N 209.89 -1.43072 0.660911 0
M  V30 2263 C 210.837 -2.30785 -0.0259884 0
M  V30 2264 C 211.807 -1.45184 -0.806888 0
M  V30 2265 O 212.992 -1.74041 -0.781943 0
M  V30 2266 C 210.132 -3.30861 -0.981067 0
M  V30 2267 C 209.245 -4.31558 -0.195458 0
M  V30 2268 C 208.38 -5.18712 -1.14503 0
M  V30 2269 C 207.419 -6.11097 -0.350299 0
M  V30 2270 N 206.556 -6.90849 -1.25186 0
M  V30 2271 H 211.396 -2.88975 0.727846 0
M  V30 2272 H 208.933 -1.42353 0.370682 0
M  V30 2273 H 210.891 -3.87399 -1.54849 0
M  V30 2274 H 209.521 -2.74304 -1.70169 0
M  V30 2275 H 208.573 -3.77252 0.488374 0
M  V30 2276 H 209.885 -4.9701 0.422176 0
M  V30 2277 H 209.039 -5.79914 -1.78284 0
M  V30 2278 H 207.778 -4.53404 -1.79656 0
M  V30 2279 H 206.783 -5.48976 0.300808 0
M  V30 2280 H 208.008 -6.7845 0.296941 0
M  V30 2281 H 205.954 -6.28182 -1.89005 0
M  V30 2282 H 205.871 -7.52854 -0.688971 0
M  V30 2283 H 207.139 -7.5655 -1.87757 0
M  V30 2284 N 211.368 -0.403325 -1.52352 0
M  V30 2285 C 212.614 0.174605 -2.02047 0
M  V30 2286 C 212.947 1.45282 -1.28867 0
M  V30 2287 O 212.222 1.90483 -0.393257 0
M  V30 2288 C 212.505 0.428238 -3.57545 0
M  V30 2289 C 212.358 -0.866248 -4.4138 0
M  V30 2290 C 213.677 1.21287 -4.23057 0
M  V30 2291 H 210.796 0.0619851 -0.734389 0
M  V30 2292 H 213.438 -0.53565 -1.82293 0
M  V30 2293 H 211.588 1.03327 -3.74507 0
M  V30 2294 H 213.26 -1.50265 -4.3614 0
M  V30 2295 H 211.503 -1.47851 -4.07827 0
M  V30 2296 H 212.174 -0.643249 -5.48239 0
M  V30 2297 H 214.65 0.700703 -4.10158 0
M  V30 2298 H 213.526 1.35909 -5.31808 0
M  V30 2299 H 213.787 2.23193 -3.81625 0
M  V30 2300 N 212.846 1.57033 -0.133567 0
M  V30 2301 C 214.093 1.95686 0.520877 0
M  V30 2302 C 214.421 1.0177 1.6575 0
M  V30 2303 O 213.676 0.0443195 1.9565 0
M  V30 2304 C 213.975 3.40674 1.08057 0
M  V30 2305 C 213.641 4.50855 0.0637899 0
M  V30 2306 C 212.303 4.80716 -0.215757 0
M  V30 2307 C 214.655 5.17398 -0.62835 0
M  V30 2308 C 211.983 5.74433 -1.19348 0
M  V30 2309 C 214.335 6.12167 -1.5948 0
M  V30 2310 C 212.999 6.40414 -1.88218 0
M  V30 2311 H 212.269 0.716067 0.190602 0
M  V30 2312 H 214.916 1.9026 -0.217556 0
M  V30 2313 H 213.221 3.42865 1.89606 0
M  V30 2314 H 214.918 3.67902 1.59529 0
M  V30 2315 H 211.508 4.27605 0.291855 0
M  V30 2316 H 215.692 4.94472 -0.425562 0
M  V30 2317 H 210.948 5.94616 -1.42272 0
M  V30 2318 H 215.122 6.6281 -2.13671 0
M  V30 2319 H 212.749 7.12838 -2.64133 0
M  V30 2320 N 214.325 -0.140222 1.56975 0
M  V30 2321 C 215.55 -0.870414 1.88251 0
M  V30 2322 C 215.975 -1.73637 0.723312 0
M  V30 2323 O 215.333 -1.78329 -0.32689 0
M  V30 2324 C 215.381 -1.69737 3.18154 0
M  V30 2325 O 214.485 -2.80229 3.02565 0
M  V30 2326 H 213.826 -0.242025 0.61832 0
M  V30 2327 H 216.356 -0.128999 2.04193 0
M  V30 2328 H 216.366 -2.09099 3.50345 0
M  V30 2329 H 215.041 -1.06152 4.02125 0
M  V30 2330 H 213.618 -2.44224 2.81796 0
M  V30 2331 N 215.803 -1.52179 -0.40978 0
M  V30 2332 C 216.75 -1.75475 -1.49924 0
M  V30 2333 C 217.72 -0.597175 -1.54994 0
M  V30 2334 O 218.905 -0.834655 -1.71575 0
M  V30 2335 C 216.045 -1.9107 -2.87378 0
M  V30 2336 C 215.158 -3.18717 -2.91622 0
M  V30 2337 C 214.293 -3.24747 -4.20372 0
M  V30 2338 C 213.332 -4.46598 -4.18588 0
M  V30 2339 N 212.469 -4.50025 -5.38908 0
M  V30 2340 H 217.309 -2.68458 -1.29361 0
M  V30 2341 H 214.846 -1.33024 -0.627934 0
M  V30 2342 H 216.804 -1.98096 -3.6717 0
M  V30 2343 H 215.434 -1.01469 -3.06437 0
M  V30 2344 H 214.486 -3.20866 -2.04326 0
M  V30 2345 H 215.798 -4.08544 -2.86169 0
M  V30 2346 H 214.952 -3.30841 -5.08556 0
M  V30 2347 H 213.691 -2.32857 -4.28519 0
M  V30 2348 H 212.696 -4.40652 -3.28794 0
M  V30 2349 H 213.921 -5.39783 -4.12081 0
M  V30 2350 H 211.867 -3.61017 -5.47725 0
M  V30 2351 H 211.784 -5.33697 -5.35447 0
M  V30 2352 H 213.052 -4.60347 -6.29048 0
M  V30 2353 N 217.281 0.66697 -1.42791 0
M  V30 2354 C 218.53 1.42278 -1.42968 0
M  V30 2355 C 218.843 1.9553 -0.0524489 0
M  V30 2356 O 220.049 2.71414 0.068363 0
M  V30 2357 C 218.505 2.57418 -2.51524 0
M  V30 2358 C 218.113 2.10832 -3.9529 0
M  V30 2359 C 219.857 3.34878 -2.60877 0
M  V30 2360 C 217.764 3.23101 -4.95338 0
M  V30 2361 H 216.694 0.534533 -0.531781 0
M  V30 2362 H 219.345 0.721302 -1.68729 0
M  V30 2363 H 217.727 3.29971 -2.18941 0
M  V30 2364 H 218.901 1.4538 -4.37266 0
M  V30 2365 H 217.216 1.46289 -3.89857 0
M  V30 2366 H 219.813 4.18505 -3.32802 0
M  V30 2367 H 220.156 3.81993 -1.6549 0
M  V30 2368 H 220.689 2.69398 -2.92693 0
M  V30 2369 H 217.428 2.80969 -5.9223 0
M  V30 2370 H 216.948 3.87309 -4.57987 0
M  V30 2371 H 218.627 3.88447 -5.17415 0
M  V30 2372 N 218.759 1.29093 0.90403 0
M  V30 2373 C 220.006 1.16813 1.65411 0
M  V30 2374 C 220.334 -0.28128 1.92455 0
M  V30 2375 O 219.589 -1.22006 1.53013 0
M  V30 2376 C 219.888 1.92224 3.01305 0
M  V30 2377 C 219.554 3.41968 2.93885 0
M  V30 2378 C 218.216 3.82807 2.91569 0
M  V30 2379 C 220.568 4.37409 2.83413 0
M  V30 2380 C 217.896 5.1741 2.76594 0
M  V30 2381 C 220.248 5.72097 2.69977 0
M  V30 2382 C 218.912 6.12199 2.66024 0
M  V30 2383 H 218.182 0.42745 0.605283 0
M  V30 2384 H 220.829 1.59981 1.05254 0
M  V30 2385 H 219.134 1.41635 3.65304 0
M  V30 2386 H 220.831 1.80131 3.58265 0
M  V30 2387 H 217.421 3.09504 2.96488 0
M  V30 2388 H 221.605 4.06813 2.84283 0
M  V30 2389 H 216.861 5.47596 2.71935 0
M  V30 2390 H 221.035 6.45704 2.60844 0
M  V30 2391 H 218.662 7.16448 2.54178 0
M  V30 2392 N 220.237 -1.11381 1.11499 0
M  V30 2393 C 221.462 -1.87475 0.887019 0
M  V30 2394 C 221.887 -1.79639 -0.557796 0
M  V30 2395 O 221.245 -1.15924 -1.39396 0
M  V30 2396 C 221.293 -3.34213 1.35403 0
M  V30 2397 O 220.397 -4.0903 0.526146 0
M  V30 2398 H 219.738 -0.582099 0.319463 0
M  V30 2399 H 222.268 -1.40785 1.48461 0
M  V30 2400 H 222.278 -3.8506 1.34881 0
M  V30 2401 H 220.953 -3.39232 2.40612 0
M  V30 2402 H 219.53 -3.68082 0.597522 0
M  V30 2403 N 221.715 -0.905404 -1.28997 0
M  V30 2404 C 222.665 -0.358713 -2.25161 0
M  V30 2405 C 223.649 0.524449 -1.52113 0
M  V30 2406 O 224.841 0.365534 -1.73184 0
M  V30 2407 C 221.97 0.407609 -3.40872 0
M  V30 2408 C 221.056 -0.490797 -4.21251 0
M  V30 2409 N 221.447 -1.60061 -4.79806 0
M  V30 2410 C 219.745 -0.289636 -4.45059 0
M  V30 2411 C 220.446 -2.15757 -5.40207 0
M  V30 2412 N 219.422 -1.44988 -5.23908 0
M  V30 2413 H 223.224 -1.20642 -2.67998 0
M  V30 2414 H 220.738 -0.757103 -1.43672 0
M  V30 2415 H 222.735 0.816046 -4.08835 0
M  V30 2416 H 221.395 1.25251 -2.9957 0
M  V30 2417 H 222.406 -1.98329 -4.7842 0
M  V30 2418 H 219.083 0.51643 -4.14294 0
M  V30 2419 H 220.473 -3.09069 -5.96595 0
M  V30 2420 N 223.193 1.4272 -0.668489 0
M  V30 2421 C 224.103 2.34596 0.0139753 0
M  V30 2422 C 225.119 1.5474 0.795703 0
M  V30 2423 O 226.295 1.87334 0.739466 0
M  V30 2424 C 223.36 3.33202 0.957982 0
M  V30 2425 C 222.421 4.28957 0.17149 0
M  V30 2426 C 221.654 5.22853 1.07053 0
M  V30 2427 O 221.877 5.21531 2.31001 0
M  V30 2428 O 220.811 5.9952 0.534727 0
M  V30 2429 H 224.637 2.9448 -0.742661 0
M  V30 2430 H 222.222 1.43117 -0.428705 0
M  V30 2431 H 224.104 3.93796 1.50008 0
M  V30 2432 H 222.779 2.758 1.69458 0
M  V30 2433 H 221.686 3.71796 -0.414558 0
M  V30 2434 H 223.019 4.89383 -0.52586 0
M  V30 2435 N 224.671 0.411399 1.52136 0
M  V30 2436 C 225.634 -0.401089 2.25663 0
M  V30 2437 C 226.634 -0.971732 1.28117 0
M  V30 2438 O 227.824 -0.850254 1.52041 0
M  V30 2439 C 224.956 -1.56483 3.02863 0
M  V30 2440 H 226.149 0.24295 2.98914 0
M  V30 2441 H 223.702 0.163968 1.55438 0
M  V30 2442 H 224.437 -2.24567 2.33967 0
M  V30 2443 H 224.222 -1.16211 3.74483 0
M  V30 2444 H 225.712 -2.13951 3.58629 0
M  V30 2445 N 226.149 -1.5696 0.141893 0
M  V30 2446 C 227.079 -2.19516 -0.795936 0
M  V30 2447 C 228.06 -1.14187 -1.26077 0
M  V30 2448 O 229.245 -1.42511 -1.31925 0
M  V30 2449 C 226.375 -2.81272 -2.03723 0
M  V30 2450 C 225.329 -3.92384 -1.70936 0
M  V30 2451 C 224.655 -4.41052 -3.02287 0
M  V30 2452 C 225.955 -5.13403 -0.959954 0
M  V30 2453 H 227.649 -2.98138 -0.274596 0
M  V30 2454 H 225.195 -1.43406 -0.130636 0
M  V30 2455 H 227.148 -3.237 -2.69808 0
M  V30 2456 H 225.872 -1.99973 -2.58221 0
M  V30 2457 H 224.531 -3.50566 -1.07232 0
M  V30 2458 H 224.179 -3.56582 -3.54765 0
M  V30 2459 H 223.879 -5.15993 -2.81114 0
M  V30 2460 H 225.403 -4.86146 -3.69451 0
M  V30 2461 H 226.817 -5.52706 -1.52279 0
M  V30 2462 H 225.214 -5.94073 -0.848357 0
M  V30 2463 H 226.284 -4.84875 0.0492434 0
M  V30 2464 N 227.627 0.131896 -1.57047 0
M  V30 2465 C 228.537 1.1815 -2.02676 0
M  V30 2466 C 229.553 1.46113 -0.944824 0
M  V30 2467 O 230.729 1.57485 -1.25541 0
M  V30 2468 C 227.794 2.49139 -2.41103 0
M  V30 2469 C 226.855 2.28688 -3.63318 0
M  V30 2470 C 226.088 3.53431 -3.99903 0
M  V30 2471 O 226.311 4.60223 -3.36973 0
M  V30 2472 O 225.245 3.45198 -4.93074 0
M  V30 2473 H 229.071 0.824069 -2.92306 0
M  V30 2474 H 226.656 0.341745 -1.45439 0
M  V30 2475 H 228.538 3.26338 -2.66611 0
M  V30 2476 H 227.213 2.84382 -1.54624 0
M  V30 2477 H 226.12 1.4939 -3.42977 0
M  V30 2478 H 227.453 1.98355 -4.50462 0
M  V30 2479 N 229.106 1.52395 0.401703 0
M  V30 2480 C 230.331 1.70972 1.17403 0
M  V30 2481 C 230.756 0.421615 1.83314 0
M  V30 2482 O 230.114 -0.621564 1.70312 0
M  V30 2483 C 230.162 2.85151 2.20728 0
M  V30 2484 O 229.266 2.51238 3.27037 0
M  V30 2485 H 228.607 0.568927 0.342372 0
M  V30 2486 H 231.137 1.99131 0.469891 0
M  V30 2487 H 231.147 3.10279 2.64936 0
M  V30 2488 H 229.822 3.78603 1.7214 0
M  V30 2489 H 228.399 2.36808 2.88057 0
M  V30 2490 N 230.584 -0.659388 1.43143 0
M  V30 2491 C 231.814 -1.44513 1.47646 0
M  V30 2492 C 232.222 -1.88981 0.0910095 0
M  V30 2493 O 231.565 -1.59702 -0.907789 0
M  V30 2494 C 231.627 -2.71663 2.35456 0
M  V30 2495 C 231.291 -2.49175 3.83094 0
M  V30 2496 C 232.288 -2.1279 4.74359 0
M  V30 2497 C 229.973 -2.63691 4.27519 0
M  V30 2498 C 231.967 -1.9121 6.08044 0
M  V30 2499 C 229.654 -2.41726 5.61259 0
M  V30 2500 C 230.652 -2.0554 6.51339 0
M  V30 2501 O 230.34 -1.838 7.82606 0
M  V30 2502 H 230.072 -0.45064 0.503884 0
M  V30 2503 H 232.626 -0.816248 1.88485 0
M  V30 2504 H 230.856 -3.37089 1.89493 0
M  V30 2505 H 232.545 -3.33595 2.31235 0
M  V30 2506 H 233.311 -2.01157 4.41317 0
M  V30 2507 H 229.19 -2.90832 3.57684 0
M  V30 2508 H 232.734 -1.62889 6.78316 0
M  V30 2509 H 228.631 -2.52959 5.9387 0
M  V30 2510 H 229.399 -1.98275 7.94122 0
M  V30 2511 N 232.062 -1.29571 -0.897171 0
M  V30 2512 C 232.992 -1.17473 -2.01798 0
M  V30 2513 C 233.973 -0.068323 -1.69963 0
M  V30 2514 O 235.158 -0.248239 -1.92607 0
M  V30 2515 C 232.288 -0.853099 -3.36659 0
M  V30 2516 C 231.242 -1.9161 -3.82713 0
M  V30 2517 C 230.568 -1.44773 -5.14728 0
M  V30 2518 C 231.868 -3.32535 -4.02763 0
M  V30 2519 H 233.562 -2.11237 -2.12177 0
M  V30 2520 H 231.108 -1.01699 -1.01948 0
M  V30 2521 H 233.061 -0.755165 -4.14578 0
M  V30 2522 H 231.785 0.120236 -3.26379 0
M  V30 2523 H 230.444 -2.00346 -3.07013 0
M  V30 2524 H 230.092 -0.462995 -5.00865 0
M  V30 2525 H 229.792 -2.15865 -5.46513 0
M  V30 2526 H 231.316 -1.36334 -5.95185 0
M  V30 2527 H 232.73 -3.26626 -4.71156 0
M  V30 2528 H 231.127 -4.01607 -4.45905 0
M  V30 2529 H 232.197 -3.75326 -3.07016 0
M  V30 2530 N 233.54 1.10788 -1.12088 0
M  V30 2531 C 234.951 1.64181 -0.88891 0
M  V30 2532 C 235.302 1.87508 0.577498 0
M  V30 2533 O 234.427 1.61434 1.44112 0
M  V30 2534 C 235.022 2.98257 -1.60712 0
M  V30 2535 C 233.581 3.4853 -1.42139 0
M  V30 2536 C 232.728 2.23208 -1.6454 0
M  V30 2537 H 235.679 0.943368 -1.27618 0
M  V30 2538 H 235.7 3.65552 -1.05604 0
M  V30 2539 H 235.212 2.81246 -2.67436 0
M  V30 2540 H 233.313 3.70692 -0.376552 0
M  V30 2541 H 233.426 4.26882 -2.17505 0
M  V30 2542 H 231.79 2.31169 -1.06925 0
M  V30 2543 H 232.573 2.08733 -2.72554 0
M  V30 2544 N 235.018 0.912232 1.28515 0
M  V30 2545 C 235.965 0.397954 2.27343 0
M  V30 2546 C 236.935 -0.526766 1.57526 0
M  V30 2547 O 238.12 -0.449292 1.85435 0
M  V30 2548 C 235.26 -0.357263 3.43246 0
M  V30 2549 C 234.373 0.599788 4.27816 0
M  V30 2550 C 233.508 -0.173725 5.30916 0
M  V30 2551 C 232.547 0.777039 6.07148 0
M  V30 2552 N 231.684 0.0371398 7.0209 0
M  V30 2553 H 236.524 1.24577 2.70711 0
M  V30 2554 H 234.061 0.625612 1.33133 0
M  V30 2555 H 236.019 -0.8113 4.09236 0
M  V30 2556 H 234.649 -1.16943 3.00872 0
M  V30 2557 H 233.701 1.17235 3.61884 0
M  V30 2558 H 235.013 1.32704 4.80823 0
M  V30 2559 H 234.167 -0.688394 6.02782 0
M  V30 2560 H 232.906 -0.934041 4.78672 0
M  V30 2561 H 231.911 1.3031 5.34134 0
M  V30 2562 H 233.136 1.53689 6.61481 0
M  V30 2563 H 231.082 -0.705213 6.52198 0
M  V30 2564 H 230.999 0.704249 7.52713 0
M  V30 2565 H 232.267 -0.457383 7.78157 0
M  V30 2566 N 236.496 -1.42363 0.676048 0
M  V30 2567 C 237.745 -2.00745 0.196037 0
M  V30 2568 C 238.058 -1.54083 -1.20489 0
M  V30 2569 O 239.264 -2.04891 -1.78134 0
M  V30 2570 C 237.72 -3.58651 0.299616 0
M  V30 2571 C 237.328 -4.143 1.70468 0
M  V30 2572 C 239.072 -4.24326 -0.121619 0
M  V30 2573 C 236.979 -5.64574 1.76096 0
M  V30 2574 H 235.909 -0.750787 0.0695301 0
M  V30 2575 H 238.56 -1.63072 0.841412 0
M  V30 2576 H 236.942 -3.93833 -0.413673 0
M  V30 2577 H 238.116 -3.90575 2.44515 0
M  V30 2578 H 236.431 -3.61081 2.07387 0
M  V30 2579 H 239.028 -5.34607 -0.0997362 0
M  V30 2580 H 239.371 -3.99897 -1.15708 0
M  V30 2581 H 239.904 -3.94108 0.540706 0
M  V30 2582 H 236.643 -5.93804 2.77628 0
M  V30 2583 H 236.163 -5.90286 1.06406 0
M  V30 2584 H 237.842 -6.29013 1.51496 0
M  V30 2585 N 237.974 -0.419461 -1.51915 0
M  V30 2586 C 238.906 0.43646 -2.25006 0
M  V30 2587 C 239.919 1.00149 -1.28351 0
M  V30 2588 O 241.108 0.898674 -1.54227 0
M  V30 2589 C 238.208 1.6206 -2.9764 0
M  V30 2590 C 237.381 1.17763 -4.21249 0
M  V30 2591 C 236.44 2.22985 -4.76617 0
M  V30 2592 O 235.466 1.83151 -5.38929 0
M  V30 2593 N 236.668 3.55271 -4.59089 0
M  V30 2594 H 239.433 -0.18989 -2.99098 0
M  V30 2595 H 236.994 -0.247386 -1.59999 0
M  V30 2596 H 238.986 2.32038 -3.31573 0
M  V30 2597 H 237.556 2.15266 -2.2667 0
M  V30 2598 H 236.776 0.305582 -3.93014 0
M  V30 2599 H 238.064 0.858781 -5.015 0
M  V30 2600 H 237.462 3.90377 -4.09417 0
M  V30 2601 H 236.019 4.21195 -4.97432 0
M  V30 2602 N 239.452 1.56882 -0.150215 0
M  V30 2603 C 240.382 2.19935 0.784284 0
M  V30 2604 C 241.363 1.14854 1.25469 0
M  V30 2605 O 242.548 1.43209 1.31168 0
M  V30 2606 C 239.678 2.82349 2.02229 0
M  V30 2607 C 238.632 3.93285 1.68853 0
M  V30 2608 C 237.958 4.42649 2.99944 0
M  V30 2609 C 239.258 5.13904 0.932714 0
M  V30 2610 H 240.952 2.9828 0.258781 0
M  V30 2611 H 238.498 1.43473 0.123029 0
M  V30 2612 H 240.451 3.25126 2.68088 0
M  V30 2613 H 239.175 2.0134 2.57157 0
M  V30 2614 H 237.834 3.5113 1.05371 0
M  V30 2615 H 237.482 3.58458 3.52869 0
M  V30 2616 H 237.182 5.17476 2.78374 0
M  V30 2617 H 238.706 4.88099 3.66868 0
M  V30 2618 H 240.12 5.53506 1.49345 0
M  V30 2619 H 238.517 5.94515 0.81684 0
M  V30 2620 H 239.587 4.84842 -0.0749568 0
M  V30 2621 N 240.93 -0.123565 1.57115 0
M  V30 2622 C 242.176 -0.833386 1.84885 0
M  V30 2623 C 242.509 -1.79742 0.735292 0
M  V30 2624 O 241.784 -1.92764 -0.25925 0
M  V30 2625 C 242.067 -1.5873 3.23228 0
M  V30 2626 C 241.92 -0.643183 4.45178 0
M  V30 2627 C 243.239 -2.54453 3.59085 0
M  V30 2628 H 240.358 -0.301518 0.6725 0
M  V30 2629 H 243 -0.097778 1.89748 0
M  V30 2630 H 241.15 -2.21438 3.19214 0
M  V30 2631 H 242.822 -0.0253015 4.61293 0
M  V30 2632 H 241.065 0.0456139 4.33776 0
M  V30 2633 H 241.736 -1.20724 5.38637 0
M  V30 2634 H 244.212 -2.01853 3.63861 0
M  V30 2635 H 243.088 -3.04238 4.5687 0
M  V30 2636 H 243.349 -3.36906 2.86264 0
M  V30 2637 N 242.408 -1.52605 -0.393616 0
M  V30 2638 C 243.657 -1.66649 -1.13627 0
M  V30 2639 C 243.97 -0.410364 -1.91247 0
M  V30 2640 O 245.176 -0.430854 -2.68059 0
M  V30 2641 C 243.632 -2.9449 -2.06891 0
M  V30 2642 C 243.24 -4.27266 -1.34714 0
M  V30 2643 C 244.984 -3.17899 -2.81319 0
M  V30 2644 C 242.891 -5.46217 -2.26717 0
M  V30 2645 H 241.821 -0.62084 -0.427871 0
M  V30 2646 H 244.472 -1.791 -0.399428 0
M  V30 2647 H 242.854 -2.75774 -2.84191 0
M  V30 2648 H 244.028 -4.56518 -0.626714 0
M  V30 2649 H 242.343 -4.10081 -0.722643 0
M  V30 2650 H 244.94 -4.03949 -3.50328 0
M  V30 2651 H 245.283 -2.32777 -3.45139 0
M  V30 2652 H 245.816 -3.37159 -2.11113 0
M  V30 2653 H 242.555 -6.33733 -1.67521 0
M  V30 2654 H 242.075 -5.21283 -2.96689 0
M  V30 2655 H 243.754 -5.7991 -2.86903 0
M  V30 2656 N 243.887 0.651787 -1.4349 0
M  V30 2657 C 244.819 1.77725 -1.44729 0
M  V30 2658 C 245.832 1.59141 -0.343231 0
M  V30 2659 O 247.021 1.67835 -0.607751 0
M  V30 2660 C 244.121 3.15172 -1.24579 0
M  V30 2661 C 243.294 3.60402 -2.47849 0
M  V30 2662 C 242.353 4.76656 -2.22902 0
M  V30 2663 O 241.379 4.86022 -2.96263 0
M  V30 2664 N 242.581 5.66958 -1.24656 0
M  V30 2665 H 245.346 1.77141 -2.41746 0
M  V30 2666 H 242.907 0.835678 -1.38665 0
M  V30 2667 H 244.899 3.90634 -1.0577 0
M  V30 2668 H 243.469 3.1052 -0.360015 0
M  V30 2669 H 242.689 2.75369 -2.82073 0
M  V30 2670 H 243.977 3.87368 -3.29884 0
M  V30 2671 H 243.375 5.62065 -0.640265 0
M  V30 2672 H 241.932 6.42135 -1.1183 0
M  V30 2673 N 245.365 1.30045 0.890287 0
M  V30 2674 C 246.642 1.09227 1.62262 0
M  V30 2675 C 247.022 -0.360305 2.08002 0
M  V30 2676 O 246.37 -1.35084 1.84295 0
M  V30 2677 C 246.58 2.08835 2.79623 0
M  V30 2678 C 247.928 2.40266 3.50082 0
M  V30 2679 O 248.952 2.07104 2.89804 0
M  V30 2680 O 247.811 2.96967 4.58773 0
M  V30 2681 H 244.905 0.419132 0.712922 0
M  V30 2682 H 247.451 1.41451 0.937529 0
M  V30 2683 H 246.223 3.06633 2.43089 0
M  V30 2684 H 245.846 1.77397 3.55832 0
M  V30 2685 N 246.843 -1.10192 1.12674 0
M  V30 2686 C 248.071 -1.85983 0.906527 0
M  V30 2687 C 248.486 -1.80783 -0.544333 0
M  V30 2688 O 247.843 -1.19834 -1.37645 0
M  V30 2689 C 247.894 -3.34281 1.37618 0
M  V30 2690 O 247.615 -3.39401 2.77017 0
M  V30 2691 C 249.116 -4.26938 1.19325 0
M  V30 2692 H 246.336 -0.587716 0.323775 0
M  V30 2693 H 248.88 -1.39284 1.49734 0
M  V30 2694 H 247.035 -3.78436 0.828539 0
M  V30 2695 H 247.449 -4.31838 2.97684 0
M  V30 2696 H 248.923 -5.29181 1.57071 0
M  V30 2697 H 249.4 -4.38995 0.134097 0
M  V30 2698 H 250.006 -3.8859 1.72852 0
M  V30 2699 N 248.321 -0.919034 -1.28029 0
M  V30 2700 C 249.251 -0.428581 -2.29533 0
M  V30 2701 C 250.232 0.50659 -1.62381 0
M  V30 2702 O 251.417 0.413195 -1.89753 0
M  V30 2703 C 248.547 0.327388 -3.45753 0
M  V30 2704 C 247.501 -0.519137 -4.2484 0
M  V30 2705 C 246.827 0.365486 -5.33449 0
M  V30 2706 C 248.127 -1.77914 -4.91064 0
M  V30 2707 H 249.821 -1.27687 -2.70807 0
M  V30 2708 H 247.367 -0.615428 -1.30186 0
M  V30 2709 H 249.32 0.681378 -4.15855 0
M  V30 2710 H 248.044 1.20963 -3.03374 0
M  V30 2711 H 246.703 -0.855717 -3.56473 0
M  V30 2712 H 246.351 1.24642 -4.87312 0
M  V30 2713 H 246.051 -0.197356 -5.87268 0
M  V30 2714 H 247.575 0.715241 -6.06396 0
M  V30 2715 H 248.989 -1.49374 -5.53498 0
M  V30 2716 H 247.386 -2.2848 -5.54903 0
M  V30 2717 H 248.456 -2.50382 -4.15255 0
M  V30 2718 N 249.799 1.42003 -0.683588 0
M  V30 2719 C 251.215 1.55625 -0.353976 0
M  V30 2720 C 251.415 1.66151 1.14 0
M  V30 2721 O 250.471 1.63329 1.92561 0
M  V30 2722 C 251.784 2.80171 -1.092 0
M  V30 2723 C 253.332 2.93954 -1.07518 0
M  V30 2724 C 253.807 4.21372 -1.79471 0
M  V30 2725 N 255.298 4.28303 -1.76381 0
M  V30 2726 C 256.033 5.25729 -2.28904 0
M  V30 2727 N 255.529 6.29254 -2.89846 0
M  V30 2728 N 257.322 5.17586 -2.19228 0
M  V30 2729 H 249.473 1.33415 -1.6527 0
M  V30 2730 H 251.736 0.64282 -0.696769 0
M  V30 2731 H 251.442 2.78561 -2.14701 0
M  V30 2732 H 251.316 3.7133 -0.662862 0
M  V30 2733 H 253.703 2.95086 -0.028475 0
M  V30 2734 H 253.784 2.04002 -1.54328 0
M  V30 2735 H 253.428 4.21001 -2.84114 0
M  V30 2736 H 253.358 5.10275 -1.30104 0
M  V30 2737 H 255.849 3.54119 -1.31939 0
M  V30 2738 H 256.162 6.99964 -3.27522 0
M  V30 2739 H 254.507 6.29791 -2.93919 0
M  V30 2740 H 257.698 4.35631 -1.71299 0
M  V30 2741 H 257.871 5.93348 -2.60466 0
M  V30 2742 N 251.277 0.427512 1.51691 0
M  V30 2743 C 252.24 -0.377132 2.26076 0
M  V30 2744 C 253.24 -0.958089 1.29141 0
M  V30 2745 O 254.43 -0.83408 1.52934 0
M  V30 2746 C 251.562 -1.53262 3.04506 0
M  V30 2747 H 252.755 0.27464 2.9864 0
M  V30 2748 H 250.308 0.180445 1.55255 0
M  V30 2749 H 251.043 -2.22072 2.36335 0
M  V30 2750 H 250.828 -1.12232 3.75694 0
M  V30 2751 H 252.318 -2.10135 3.60878 0
M  V30 2752 N 252.755 -1.56801 0.158532 0
M  V30 2753 C 254.001 -1.97559 -0.483957 0
M  V30 2754 C 254.356 -1.04239 -1.61716 0
M  V30 2755 O 253.649 -0.079603 -1.91435 0
M  V30 2756 C 253.843 -3.4235 -1.02623 0
M  V30 2757 C 253.672 -4.49669 0.0528929 0
M  V30 2758 C 252.442 -5.02838 0.498234 0
M  V30 2759 C 254.64 -5.0725 0.848616 0
M  V30 2760 N 252.622 -5.93775 1.559 0
M  V30 2761 C 253.993 -5.94506 1.7596 0
M  V30 2762 C 256.048 -4.89788 0.895121 0
M  V30 2763 C 254.751 -6.66169 2.71314 0
M  V30 2764 C 256.777 -5.62161 1.83654 0
M  V30 2765 C 256.139 -6.49134 2.73503 0
M  V30 2766 H 252.238 -0.768332 -0.145566 0
M  V30 2767 H 254.822 -1.93012 0.255799 0
M  V30 2768 H 252.993 -3.47467 -1.73555 0
M  V30 2769 H 254.725 -3.70145 -1.63629 0
M  V30 2770 H 251.48 -4.73498 0.0983222 0
M  V30 2771 H 251.904 -6.43948 2.08949 0
M  V30 2772 H 256.546 -4.22255 0.21453 0
M  V30 2773 H 254.264 -7.32923 3.40367 0
M  V30 2774 H 257.85 -5.5064 1.87847 0
M  V30 2775 H 256.73 -7.04153 3.45163 0
M  V30 2776 N 254.233 0.115231 -1.57178 0
M  V30 2777 C 255.458 0.840354 -1.89612 0
M  V30 2778 C 255.883 1.72464 -0.750845 0
M  V30 2779 O 255.241 1.78826 0.298478 0
M  V30 2780 C 255.289 1.64654 -3.20814 0
M  V30 2781 O 254.393 2.7538 -3.06985 0
M  V30 2782 H 253.734 0.232158 -0.622092 0
M  V30 2783 H 256.264 0.0964977 -2.04372 0
M  V30 2784 H 256.274 2.03499 -3.53627 0
M  V30 2785 H 254.949 0.997416 -4.03763 0
M  V30 2786 H 253.526 2.3971 -2.85646 0
M  V30 2787 N 255.711 1.52812 0.385517 0
M  V30 2788 C 256.936 1.72207 1.15583 0
M  V30 2789 C 257.361 0.441034 1.82857 0
M  V30 2790 O 256.719 -0.603465 1.70962 0
M  V30 2791 C 256.767 2.87476 2.17692 0
M  V30 2792 O 255.871 2.54693 3.24354 0
M  V30 2793 H 255.212 0.572526 0.336319 0
M  V30 2794 H 257.742 1.99618 0.448744 0
M  V30 2795 H 257.752 3.13072 2.6163 0
M  V30 2796 H 256.427 3.80408 1.68115 0
M  V30 2797 H 255.004 2.3985 2.85529 0
M  V30 2798 N 257.189 -0.644168 1.43834 0
M  V30 2799 C 258.139 -1.7501 1.46135 0
M  V30 2800 C 259.123 -1.57507 0.328685 0
M  V30 2801 O 260.315 -1.67465 0.5731 0
M  V30 2802 C 257.444 -3.13641 1.39585 0
M  V30 2803 C 256.53 -3.3666 2.57916 0
M  V30 2804 N 256.921 -3.30107 3.83227 0
M  V30 2805 C 255.219 -3.67411 2.52834 0
M  V30 2806 C 255.92 -3.53456 4.61999 0
M  V30 2807 N 254.896 -3.75705 3.9287 0
M  V30 2808 H 258.698 -1.68382 2.40883 0
M  V30 2809 H 256.212 -0.846169 1.38614 0
M  V30 2810 H 258.209 -3.92933 1.39317 0
M  V30 2811 H 256.869 -3.21444 0.45865 0
M  V30 2812 H 257.88 -3.09316 4.15384 0
M  V30 2813 H 254.557 -3.82275 1.67845 0
M  V30 2814 H 255.947 -3.54093 5.71024 0
M  V30 2815 N 258.668 -1.30515 -0.883378 0
M  V30 2816 C 260.079 -1.17509 -1.45081 0
M  V30 2817 C 260.43 0.223605 -1.94922 0
M  V30 2818 O 259.555 1.12041 -1.85137 0
M  V30 2819 C 260.15 -2.12715 -2.63701 0
M  V30 2820 C 258.709 -2.03682 -3.16529 0
M  V30 2821 C 257.856 -2.02706 -1.89224 0
M  V30 2822 H 260.807 -1.42762 -0.693165 0
M  V30 2823 H 260.828 -1.70891 -3.39965 0
M  V30 2824 H 260.34 -3.14505 -2.27395 0
M  V30 2825 H 258.441 -1.05039 -3.57488 0
M  V30 2826 H 258.554 -2.92146 -3.7972 0
M  V30 2827 H 256.918 -1.4753 -2.07622 0
M  V30 2828 H 257.701 -3.06229 -1.55174 0
M  V30 2829 N 260.146 1.09593 -1.13257 0
M  V30 2830 C 261.056 2.19739 -0.821691 0
M  V30 2831 C 262.072 1.72926 0.19302 0
M  V30 2832 O 263.248 2.01385 0.0244895 0
M  V30 2833 C 260.313 3.45482 -0.290333 0
M  V30 2834 C 259.374 4.06985 -1.36607 0
M  V30 2835 C 258.607 5.26726 -0.859975 0
M  V30 2836 O 258.83 5.69594 0.303082 0
M  V30 2837 O 257.764 5.7931 -1.63351 0
M  V30 2838 H 261.59 2.48781 -1.74189 0
M  V30 2839 H 259.175 1.18496 -0.909894 0
M  V30 2840 H 261.057 4.214 0.000674022 0
M  V30 2841 H 259.732 3.18047 0.602306 0
M  V30 2842 H 258.639 3.32712 -1.71037 0
M  V30 2843 H 259.972 4.38643 -2.23279 0
M  V30 2844 N 261.624 0.925811 1.2754 0
M  V30 2845 C 262.587 0.428129 2.25166 0
M  V30 2846 C 263.587 -0.452261 1.54309 0
M  V30 2847 O 264.777 -0.253608 1.72344 0
M  V30 2848 C 261.909 -0.384749 3.38722 0
M  V30 2849 H 263.102 1.29066 2.70706 0
M  V30 2850 H 260.655 0.706323 1.3943 0
M  V30 2851 H 261.39 -1.26618 2.98561 0
M  V30 2852 H 261.175 0.246454 3.91325 0
M  V30 2853 H 262.665 -0.723389 4.11287 0
M  V30 2854 N 263.102 -1.41638 0.69111 0
M  V30 2855 C 264.351 -2.00526 0.217318 0
M  V30 2856 C 264.664 -1.55353 -1.18848 0
M  V30 2857 O 265.87 -2.06769 -1.75951 0
M  V30 2858 C 264.326 -3.58313 0.337639 0
M  V30 2859 C 263.934 -4.12469 1.74852 0
M  V30 2860 C 265.678 -4.24431 -0.0766066 0
M  V30 2861 C 263.585 -5.62675 1.82074 0
M  V30 2862 H 262.515 -0.750008 0.0774893 0
M  V30 2863 H 265.166 -1.6217 0.858661 0
M  V30 2864 H 263.548 -3.9425 -0.371879 0
M  V30 2865 H 264.722 -3.8796 2.48644 0
M  V30 2866 H 263.037 -3.58861 2.11205 0
M  V30 2867 H 265.634 -5.34683 -0.0430284 0
M  V30 2868 H 265.977 -4.01101 -1.1146 0
M  V30 2869 H 266.51 -3.93512 0.582476 0
M  V30 2870 H 263.249 -5.90826 2.83911 0
M  V30 2871 H 262.769 -5.89124 1.12661 0
M  V30 2872 H 264.448 -6.27371 1.58159 0
M  V30 2873 N 264.58 -0.43555 -1.51462 0
M  V30 2874 C 265.528 0.391205 -2.29287 0
M  V30 2875 C 266.522 1.02247 -1.35062 0
M  V30 2876 O 267.728 0.957646 -1.52411 0
M  V30 2877 H 264.103 0.144968 -0.737895 0
M  V30 2878 H 266.074 -0.286051 -2.97026 0
M  V30 2879 C 264.823 1.48096 -3.14583 0
M  V30 2880 H 264.146 1.00457 -3.86973 0
M  V30 2881 H 265.586 2.03273 -3.72097 0
M  V30 2882 C 264.045 2.46321 -2.29843 0
M  V30 2883 O 264.575 3.50815 -1.95682 0
M  V30 2884 N 262.781 2.17166 -1.931 0
M  V30 2885 H 262.328 1.32218 -2.21079 0
M  V30 2886 H 262.286 2.83127 -1.36698 0
M  V30 2887 N 266.058 1.56714 -0.166846 0
M  V30 2888 C 267.304 1.97039 0.479962 0
M  V30 2889 C 267.637 1.05264 1.63197 0
M  V30 2890 O 266.912 0.0988833 1.94248 0
M  V30 2891 C 267.195 3.46867 0.967212 0
M  V30 2892 C 267.048 4.49421 -0.18466 0
M  V30 2893 C 268.367 3.9968 1.84238 0
M  V30 2894 H 265.486 0.71641 0.172992 0
M  V30 2895 H 268.128 1.8832 -0.252079 0
M  V30 2896 H 266.278 3.54428 1.59101 0
M  V30 2897 H 267.95 4.53924 -0.821621 0
M  V30 2898 H 266.193 4.25573 -0.840837 0
M  V30 2899 H 266.864 5.51644 0.198317 0
M  V30 2900 H 269.34 3.94723 1.31655 0
M  V30 2901 H 268.216 5.04941 2.15234 0
M  V30 2902 H 268.477 3.43226 2.78654 0
M  V30 2903 N 267.536 -0.106894 1.57237 0
M  V30 2904 C 268.766 -0.825191 1.89405 0
M  V30 2905 C 269.174 -1.73374 0.757496 0
M  V30 2906 O 268.517 -1.81552 -0.280115 0
M  V30 2907 C 268.579 -1.70102 3.1671 0
M  V30 2908 C 268.243 -0.965523 4.46684 0
M  V30 2909 C 269.24 -0.300741 5.19029 0
M  V30 2910 C 266.925 -0.943105 4.93367 0
M  V30 2911 C 268.919 0.376622 6.36286 0
M  V30 2912 C 266.606 -0.261949 6.10538 0
M  V30 2913 C 267.604 0.396748 6.81847 0
M  V30 2914 O 267.292 1.06701 7.96787 0
M  V30 2915 H 267.024 -0.241852 0.631255 0
M  V30 2916 H 269.578 -0.0921491 2.05193 0
M  V30 2917 H 267.808 -2.47601 2.97036 0
M  V30 2918 H 269.497 -2.29483 3.34802 0
M  V30 2919 H 270.263 -0.309599 4.84011 0
M  V30 2920 H 266.142 -1.44524 4.3776 0
M  V30 2921 H 269.686 0.891334 6.91882 0
M  V30 2922 H 265.583 -0.250896 6.45012 0
M  V30 2923 H 266.351 0.972707 8.127 0
M  V30 2924 N 269.014 -1.53014 -0.377408 0
M  V30 2925 C 269.946 -1.74884 -1.48149 0
M  V30 2926 C 270.959 -0.629433 -1.5014 0
M  V30 2927 O 272.148 -0.905416 -1.53833 0
M  V30 2928 C 269.248 -1.80299 -2.86959 0
M  V30 2929 C 268.421 -3.09776 -3.08801 0
M  V30 2930 C 267.48 -3.06586 -4.27658 0
M  V30 2931 O 266.506 -3.80419 -4.23403 0
M  V30 2932 N 267.708 -2.26578 -5.34455 0
M  V30 2933 H 270.473 -2.70147 -1.29771 0
M  V30 2934 H 268.034 -1.51646 -0.56703 0
M  V30 2935 H 270.026 -1.75657 -3.64591 0
M  V30 2936 H 268.596 -0.92372 -2.98641 0
M  V30 2937 H 267.816 -3.27815 -2.18931 0
M  V30 2938 H 269.104 -3.95366 -3.20255 0
M  V30 2939 H 268.502 -1.66081 -5.40771 0
M  V30 2940 H 267.059 -2.27766 -6.10709 0
M  V30 2941 N 270.492 0.636531 -1.44174 0
M  V30 2942 C 271.402 1.77754 -1.53103 0
M  V30 2943 C 272.418 1.68928 -0.417034 0
M  V30 2944 O 273.594 1.89801 -0.6736 0
M  V30 2945 C 270.659 3.14115 -1.46741 0
M  V30 2946 C 269.72 3.34612 -2.68948 0
M  V30 2947 C 268.953 4.64467 -2.6288 0
M  V30 2948 O 269.176 5.44919 -1.68581 0
M  V30 2949 O 268.11 4.87049 -3.53648 0
M  V30 2950 H 271.936 1.73174 -2.49489 0
M  V30 2951 H 269.521 0.79709 -1.2636 0
M  V30 2952 H 271.403 3.95412 -1.45696 0
M  V30 2953 H 270.078 3.19249 -0.534975 0
M  V30 2954 H 268.985 2.53014 -2.75562 0
M  V30 2955 H 270.318 3.34336 -3.61221 0
M  V30 2956 N 271.97 1.30982 0.876444 0
M  V30 2957 C 272.933 1.18054 1.96459 0
M  V30 2958 C 273.933 0.109399 1.60427 0
M  V30 2959 O 275.123 0.358173 1.70478 0
M  V30 2960 C 272.255 0.810616 3.31122 0
M  V30 2961 H 273.448 2.14735 2.09354 0
M  V30 2962 H 271.001 1.145 1.06392 0
M  V30 2963 H 271.736 -0.155322 3.23928 0
M  V30 2964 H 271.521 1.58481 3.58645 0
M  V30 2965 H 273.011 0.743876 4.10921 0
M  V30 2966 N 273.449 -1.08991 1.13837 0
M  V30 2967 C 274.381 -2.15606 0.777612 0
M  V30 2968 C 275.394 -1.61533 -0.202739 0
M  V30 2969 O 276.583 -1.78491 0.0181055 0
M  V30 2970 C 273.683 -3.3864 0.132623 0
M  V30 2971 C 272.856 -4.22115 1.1462 0
M  V30 2972 C 271.915 -5.23564 0.526074 0
M  V30 2973 O 270.941 -5.56678 1.18735 0
M  V30 2974 N 272.143 -5.76266 -0.699866 0
M  V30 2975 H 274.908 -2.47159 1.69506 0
M  V30 2976 H 272.469 -1.24747 1.03198 0
M  V30 2977 H 274.461 -4.03626 -0.29459 0
M  V30 2978 H 273.031 -3.04938 -0.687849 0
M  V30 2979 H 272.251 -3.53199 1.75055 0
M  V30 2980 H 273.539 -4.74709 1.83109 0
M  V30 2981 H 272.937 -5.51585 -1.25581 0
M  V30 2982 H 271.494 -6.42963 -1.06968 0
M  V30 2983 N 274.927 -0.932562 -1.27047 0
M  V30 2984 C 275.874 -0.434072 -2.26681 0
M  V30 2985 C 276.844 0.501639 -1.58344 0
M  V30 2986 O 278.029 0.419734 -1.86126 0
M  V30 2987 C 275.169 0.30261 -3.43771 0
M  V30 2988 C 274.282 -0.667774 -4.26808 0
M  V30 2989 C 273.417 0.0892393 -5.31125 0
M  V30 2990 C 272.456 -0.873532 -6.05835 0
M  V30 2991 N 271.593 -0.148832 -7.01942 0
M  V30 2992 H 276.433 -1.28868 -2.68695 0
M  V30 2993 H 273.97 -0.646713 -1.32121 0
M  V30 2994 H 275.928 0.746092 -4.10474 0
M  V30 2995 H 274.558 1.12142 -3.02695 0
M  V30 2996 H 273.61 -1.22978 -3.59973 0
M  V30 2997 H 274.922 -1.40337 -4.78651 0
M  V30 2998 H 274.076 0.592409 -6.03801 0
M  V30 2999 H 272.815 0.85777 -4.80097 0
M  V30 3000 H 271.82 -1.38791 -5.31994 0
M  V30 3001 H 273.045 -1.64193 -6.58952 0
M  V30 3002 H 270.991 0.601365 -6.53238 0
M  V30 3003 H 270.908 -0.82391 -7.51497 0
M  V30 3004 H 272.176 0.333527 -7.78786 0
M  V30 3005 N 276.405 1.4127 -0.698611 0
M  V30 3006 C 277.335 2.33447 -0.049629 0
M  V30 3007 C 278.316 1.51982 0.763898 0
M  V30 3008 O 279.501 1.80509 0.716257 0
M  V30 3009 C 276.631 3.35828 0.885267 0
M  V30 3010 C 275.585 4.27627 0.178613 0
M  V30 3011 C 274.911 5.20406 1.22807 0
M  V30 3012 C 276.211 5.13459 -0.956933 0
M  V30 3013 H 277.905 2.87966 -0.81951 0
M  V30 3014 H 275.451 1.38461 -0.395538 0
M  V30 3015 H 277.404 3.9924 1.34854 0
M  V30 3016 H 276.128 2.79666 1.68685 0
M  V30 3017 H 274.787 3.65643 -0.26466 0
M  V30 3018 H 274.435 4.60558 2.02226 0
M  V30 3019 H 274.135 5.82661 0.760239 0
M  V30 3020 H 275.659 5.86695 1.69179 0
M  V30 3021 H 277.073 5.70421 -0.573805 0
M  V30 3022 H 275.47 5.8467 -1.35205 0
M  V30 3023 H 276.54 4.50443 -1.79524 0
M  V30 3024 N 277.883 0.443576 1.51229 0
M  V30 3025 C 279.111 -0.11929 2.06556 0
M  V30 3026 C 279.526 -1.35921 1.31038 0
M  V30 3027 O 278.883 -1.78675 0.371704 0
M  V30 3028 C 278.934 -0.435228 3.5887 0
M  V30 3029 O 278.655 0.755486 4.31537 0
M  V30 3030 C 280.156 -1.04808 4.30732 0
M  V30 3031 H 277.376 -0.0051584 0.67098 0
M  V30 3032 H 279.92 0.624453 1.94733 0
M  V30 3033 H 278.075 -1.12887 3.70588 0
M  V30 3034 H 278.489 0.483491 5.22267 0
M  V30 3035 H 279.963 -1.2191 5.3837 0
M  V30 3036 H 280.44 -2.03081 3.89429 0
M  V30 3037 H 281.046 -0.393637 4.23474 0
M  V30 3038 N 279.361 -1.56624 0.175154 0
M  V30 3039 C 280.608 -1.96999 -0.468811 0
M  V30 3040 C 280.936 -1.06129 -1.62994 0
M  V30 3041 O 280.191 -0.0961771 -1.95464 0
M  V30 3042 C 280.49 -3.43419 -0.989864 0
M  V30 3043 C 280.156 -4.50866 0.0557687 0
M  V30 3044 C 278.818 -4.79975 0.343134 0
M  V30 3045 C 281.17 -5.15551 0.765308 0
M  V30 3046 C 278.498 -5.71066 1.34536 0
M  V30 3047 C 280.85 -6.07724 1.75654 0
M  V30 3048 C 279.514 -6.35199 2.05132 0
M  V30 3049 H 278.784 -0.720869 -0.17155 0
M  V30 3050 H 281.431 -1.89616 0.267924 0
M  V30 3051 H 279.736 -3.47772 -1.80449 0
M  V30 3052 H 281.433 -3.72002 -1.49719 0
M  V30 3053 H 278.023 -4.28229 -0.178381 0
M  V30 3054 H 282.207 -4.9317 0.556513 0
M  V30 3055 H 277.463 -5.90635 1.57988 0
M  V30 3056 H 281.637 -6.56912 2.31169 0
M  V30 3057 H 279.264 -7.05584 2.8294 0
M  V30 3058 N 280.839 0.0985539 -1.57292 0
M  V30 3059 C 282.255 0.45267 -1.53046 0
M  V30 3060 C 282.455 1.80713 -0.891342 0
M  V30 3061 O 281.511 2.4785 -0.482375 0
M  V30 3062 C 282.824 0.418341 -2.97776 0
M  V30 3063 C 284.372 0.500443 -3.08973 0
M  V30 3064 C 284.847 0.496297 -4.55303 0
M  V30 3065 N 286.338 0.557151 -4.59837 0
M  V30 3066 C 287.073 0.575726 -5.70502 0
M  V30 3067 N 286.569 0.550714 -6.90608 0
M  V30 3068 N 288.362 0.620277 -5.58667 0
M  V30 3069 H 280.513 -0.788673 -1.97215 0
M  V30 3070 H 282.776 -0.293188 -0.901524 0
M  V30 3071 H 282.482 -0.509659 -3.47988 0
M  V30 3072 H 282.356 1.2386 -3.56284 0
M  V30 3073 H 284.743 1.41886 -2.58751 0
M  V30 3074 H 284.824 -0.347894 -2.53423 0
M  V30 3075 H 284.468 -0.418162 -5.06176 0
M  V30 3076 H 284.398 1.3618 -5.08687 0
M  V30 3077 H 286.889 0.581816 -3.73394 0
M  V30 3078 H 287.202 0.568075 -7.70709 0
M  V30 3079 H 285.547 0.517816 -6.93068 0
M  V30 3080 H 288.738 0.637322 -4.63741 0
M  V30 3081 H 288.911 0.631283 -6.44918 0
M  V30 3082 N 282.317 1.53212 0.369288 0
M  V30 3083 C 283.25 1.74166 1.4745 0
M  V30 3084 C 284.228 0.589923 1.51521 0
M  V30 3085 O 285.412 0.822078 1.69629 0
M  V30 3086 C 282.539 1.81711 2.8583 0
M  V30 3087 C 281.585 3.03649 2.99499 0
M  V30 3088 S 282.418 4.63242 2.6864 0
M  V30 3089 C 283.574 4.7363 4.09177 0
M  V30 3090 H 283.807 2.67636 1.29454 0
M  V30 3091 H 281.34 1.43754 0.563396 0
M  V30 3092 H 283.298 1.86743 3.65564 0
M  V30 3093 H 281.959 0.89299 3.01139 0
M  V30 3094 H 281.152 3.05526 4.00836 0
M  V30 3095 H 280.754 2.9671 2.27683 0
M  V30 3096 H 283.046 4.53456 5.03372 0
M  V30 3097 H 283.989 5.75682 4.12306 0
M  V30 3098 H 284.397 4.02295 3.96004 0
M  V30 3099 N 283.795 -0.628877 1.44509 0
M  V30 3100 C 284.758 -1.72263 1.51188 0
M  V30 3101 C 285.758 -1.55907 0.39367 0
M  V30 3102 O 286.948 -1.61361 0.656377 0
M  V30 3103 C 284.08 -3.11365 1.38798 0
M  V30 3104 H 285.273 -1.67714 2.4862 0
M  V30 3105 H 282.826 -0.842737 1.31634 0
M  V30 3106 H 283.561 -3.21507 0.424693 0
M  V30 3107 H 283.346 -3.24644 2.19884 0
M  V30 3108 H 284.836 -3.91075 1.46458 0
M  V30 3109 N 285.273 -1.31445 -0.869486 0
M  V30 3110 C 286.522 -1.20517 -1.61736 0
M  V30 3111 C 286.835 0.235341 -1.94179 0
M  V30 3112 O 288.041 0.466312 -2.67465 0
M  V30 3113 C 286.497 -2.10982 -2.91573 0
M  V30 3114 C 286.105 -3.60032 -2.66611 0
M  V30 3115 C 287.849 -2.08856 -3.69567 0
M  V30 3116 C 285.756 -4.42503 -3.92358 0
M  V30 3117 H 284.686 -0.447493 -0.606849 0
M  V30 3118 H 287.337 -1.56303 -0.96133 0
M  V30 3119 H 285.719 -1.68095 -3.58553 0
M  V30 3120 H 286.893 -4.11167 -2.08035 0
M  V30 3121 H 285.208 -3.64139 -2.0197 0
M  V30 3122 H 287.805 -2.67716 -4.62852 0
M  V30 3123 H 288.148 -1.07582 -4.02159 0
M  V30 3124 H 288.681 -2.49945 -3.09471 0
M  V30 3125 H 285.42 -5.44533 -3.64916 0
M  V30 3126 H 284.94 -3.96125 -4.50383 0
M  V30 3127 H 286.619 -4.54741 -4.60238 0
M  V30 3128 N 286.751 1.08385 -1.14413 0
M  V30 3129 C 288.167 1.32844 -0.884563 0
M  V30 3130 C 288.367 1.95841 0.474181 0
M  V30 3131 O 287.423 2.21158 1.21842 0
M  V30 3132 C 288.736 2.22978 -2.01745 0
M  V30 3133 C 290.284 2.36458 -2.05077 0
M  V30 3134 C 290.759 3.29934 -3.1766 0
M  V30 3135 N 292.25 3.37511 -3.17239 0
M  V30 3136 C 292.985 4.09871 -4.0099 0
M  V30 3137 N 292.481 4.84936 -4.94781 0
M  V30 3138 N 294.274 4.05704 -3.89051 0
M  V30 3139 H 286.425 0.658756 -2.01926 0
M  V30 3140 H 288.688 0.352821 -0.879899 0
M  V30 3141 H 288.394 1.83934 -2.99769 0
M  V30 3142 H 288.268 3.23441 -1.94077 0
M  V30 3143 H 290.655 2.7476 -1.0766 0
M  V30 3144 H 290.736 1.35736 -2.16816 0
M  V30 3145 H 290.38 2.92352 -4.15322 0
M  V30 3146 H 290.31 4.30584 -3.03158 0
M  V30 3147 H 292.801 2.83996 -2.49308 0
M  V30 3148 H 293.114 5.37612 -5.55151 0
M  V30 3149 H 291.459 4.83988 -4.98779 0
M  V30 3150 H 294.65 3.46167 -3.15097 0
M  V30 3151 H 294.823 4.61834 -4.54547 0
M  V30 3152 N 288.23 0.939286 1.26551 0
M  V30 3153 C 289.476 0.586715 1.94128 0
M  V30 3154 C 289.809 -0.8717 1.73537 0
M  V30 3155 O 289.084 -1.62339 1.07127 0
M  V30 3156 C 289.367 0.927497 3.4795 0
M  V30 3157 C 289.22 2.44052 3.77834 0
M  V30 3158 C 290.539 0.441569 4.37879 0
M  V30 3159 H 287.658 0.21463 0.705055 0
M  V30 3160 H 290.3 1.17316 1.49455 0
M  V30 3161 H 288.45 0.428431 3.8613 0
M  V30 3162 H 290.122 3.01216 3.4938 0
M  V30 3163 H 288.365 2.8848 3.23978 0
M  V30 3164 H 289.036 2.62947 4.85348 0
M  V30 3165 H 291.512 0.869448 4.06915 0
M  V30 3166 H 290.388 0.708856 5.44304 0
M  V30 3167 H 290.649 -0.658467 4.37169 0
M  V30 3168 N 289.708 -1.40897 0.706093 0
M  V30 3169 C 290.638 -2.33418 0.0620085 0
M  V30 3170 C 291.619 -1.52385 -0.755827 0
M  V30 3171 O 292.804 -1.80886 -0.706674 0
M  V30 3172 C 289.934 -3.36293 -0.867445 0
M  V30 3173 C 288.888 -4.27716 -0.155932 0
M  V30 3174 C 288.214 -5.2105 -1.20046 0
M  V30 3175 C 289.514 -5.12944 0.984149 0
M  V30 3176 H 291.208 -2.87527 0.83477 0
M  V30 3177 H 288.754 -1.38249 0.402875 0
M  V30 3178 H 290.707 -3.99949 -1.32735 0
M  V30 3179 H 289.431 -2.80556 -1.67199 0
M  V30 3180 H 288.09 -3.65498 0.284047 0
M  V30 3181 H 287.738 -4.61624 -1.99781 0
M  V30 3182 H 287.438 -5.83056 -0.729328 0
M  V30 3183 H 288.962 -5.87584 -1.66066 0
M  V30 3184 H 290.376 -5.70109 0.604048 0
M  V30 3185 H 288.773 -5.83945 1.38304 0
M  V30 3186 H 289.843 -4.49485 1.81911 0
M  V30 3187 N 291.186 -0.45159 -1.50991 0
M  V30 3188 C 292.116 0.342898 -2.30969 0
M  V30 3189 C 293.097 1.00815 -1.37005 0
M  V30 3190 O 294.282 1.00907 -1.65926 0
M  V30 3191 C 291.412 1.43637 -3.16205 0
M  V30 3192 C 290.366 0.893818 -4.18563 0
M  V30 3193 C 289.692 2.08411 -4.92411 0
M  V30 3194 C 290.992 -0.0815568 -5.22236 0
M  V30 3195 H 292.686 -0.324556 -2.97636 0
M  V30 3196 H 290.232 -0.157531 -1.43136 0
M  V30 3197 H 292.185 1.9995 -3.70942 0
M  V30 3198 H 290.909 2.13232 -2.47386 0
M  V30 3199 H 289.568 0.352798 -3.64898 0
M  V30 3200 H 289.216 2.76658 -4.20082 0
M  V30 3201 H 288.916 1.72741 -5.61636 0
M  V30 3202 H 290.44 2.65251 -5.49976 0
M  V30 3203 H 291.854 0.391742 -5.7196 0
M  V30 3204 H 290.251 -0.351551 -5.99069 0
M  V30 3205 H 291.321 -1.01374 -4.74185 0
M  V30 3206 N 292.664 1.56529 -0.183458 0
M  V30 3207 C 293.912 1.96855 0.457452 0
M  V30 3208 C 294.233 1.07104 1.62953 0
M  V30 3209 O 293.503 0.139887 1.954 0
M  V30 3210 H 292.083 0.72693 0.171992 0
M  V30 3211 H 294.745 1.93056 -0.267476 0
M  V30 3212 H 293.841 3.01423 0.809368 0
M  V30 3213 N 294.142 -0.090211 1.57342 0
M  V30 3214 C 295.389 -0.792807 1.86335 0
M  V30 3215 C 295.717 -1.78494 0.772662 0
M  V30 3216 O 294.972 -1.94305 -0.233258 0
M  V30 3217 C 295.271 -1.55222 3.21933 0
M  V30 3218 C 294.937 -0.701765 4.45406 0
M  V30 3219 C 293.599 -0.467334 4.78925 0
M  V30 3220 C 295.951 -0.11086 5.21082 0
M  V30 3221 C 293.279 0.367785 5.85546 0
M  V30 3222 C 295.631 0.711609 6.28585 0
M  V30 3223 C 294.295 0.956086 6.60617 0
M  V30 3224 H 293.565 -0.290109 0.681849 0
M  V30 3225 H 296.212 -0.0541332 1.91423 0
M  V30 3226 H 294.517 -2.3626 3.12551 0
M  V30 3227 H 296.214 -2.10032 3.41595 0
M  V30 3228 H 292.804 -0.894598 4.1916 0
M  V30 3229 H 296.988 -0.279129 4.95514 0
M  V30 3230 H 292.244 0.566128 6.08773 0
M  V30 3231 H 296.418 1.17632 6.86393 0
M  V30 3232 H 294.045 1.60499 7.43064 0
M  V30 3233 N 295.62 -1.53406 -0.361157 0
M  V30 3234 C 296.845 -1.74024 -1.12829 0
M  V30 3235 C 297.27 -0.470069 -1.82132 0
M  V30 3236 O 296.628 0.57619 -1.719 0
M  V30 3237 C 296.676 -2.90903 -2.13091 0
M  V30 3238 O 295.78 -2.59821 -3.20261 0
M  V30 3239 H 295.121 -0.577804 -0.327168 0
M  V30 3240 H 297.651 -2.00307 -0.41693 0
M  V30 3241 H 297.661 -3.17194 -2.56616 0
M  V30 3242 H 296.336 -3.83034 -1.62042 0
M  V30 3243 H 294.913 -2.44362 -2.81677 0
M  V30 3244 N 297.098 0.621204 -1.44841 0
M  V30 3245 C 298.347 1.37658 -1.47422 0
M  V30 3246 C 298.66 1.95264 -0.114629 0
M  V30 3247 O 299.866 2.71494 -0.0180199 0
M  V30 3248 C 298.322 2.49285 -2.59586 0
M  V30 3249 C 297.93 1.98149 -4.01797 0
M  V30 3250 C 299.674 3.26409 -2.71399 0
M  V30 3251 C 297.581 3.07178 -5.05367 0
M  V30 3252 H 296.511 0.517344 -0.548517 0
M  V30 3253 H 299.162 0.667257 -1.70938 0
M  V30 3254 H 297.544 3.22839 -2.29328 0
M  V30 3255 H 298.718 1.31395 -4.41669 0
M  V30 3256 H 297.033 1.33812 -3.94314 0
M  V30 3257 H 299.63 4.07706 -3.45948 0
M  V30 3258 H 299.973 3.76535 -1.77559 0
M  V30 3259 H 300.506 2.5995 -3.01116 0
M  V30 3260 H 297.245 2.61985 -6.00869 0
M  V30 3261 H 296.765 3.72542 -4.70077 0
M  V30 3262 H 298.444 3.71789 -5.29511 0
M  V30 3263 N 298.576 1.31904 0.862503 0
M  V30 3264 C 299.987 1.19803 1.43193 0
M  V30 3265 C 300.338 -0.192567 1.95253 0
M  V30 3266 O 299.463 -1.09081 1.86896 0
M  V30 3267 C 300.058 2.16883 2.60283 0
M  V30 3268 C 298.617 2.08692 3.13248 0
M  V30 3269 C 297.764 2.05691 1.85975 0
M  V30 3270 H 300.715 1.43846 0.670365 0
M  V30 3271 H 300.736 1.76278 3.37204 0
M  V30 3272 H 300.248 3.18083 2.22363 0
M  V30 3273 H 298.349 1.10713 3.55771 0
M  V30 3274 H 298.462 2.9815 3.75025 0
M  V30 3275 H 296.826 1.50814 2.05249 0
M  V30 3276 H 297.609 3.08659 1.50282 0
M  V30 3277 N 300.054 -1.07777 1.14986 0
M  V30 3278 C 300.964 -2.18404 0.856546 0
M  V30 3279 C 301.98 -1.73211 -0.165485 0
M  V30 3280 O 303.156 -2.01399 0.00755219 0
M  V30 3281 C 300.221 -3.44977 0.34526 0
M  V30 3282 C 299.282 -4.0476 1.43065 0
M  V30 3283 C 298.515 -5.25291 0.943663 0
M  V30 3284 O 298.738 -5.70004 -0.212426 0
M  V30 3285 O 297.672 -5.76638 1.72547 0
M  V30 3286 H 301.498 -2.45978 1.78125 0
M  V30 3287 H 299.083 -1.17033 0.928631 0
M  V30 3288 H 300.965 -4.21348 0.0663671 0
M  V30 3289 H 299.64 -3.18965 -0.551631 0
M  V30 3290 H 298.547 -3.29949 1.76309 0
M  V30 3291 H 299.88 -4.35035 2.30229 0
M  V30 3292 N 301.532 -0.945985 -1.26051 0
M  V30 3293 C 302.442 -0.465633 -2.29933 0
M  V30 3294 C 303.458 0.462761 -1.67733 0
M  V30 3295 O 304.634 0.341118 -1.9849 0
M  V30 3296 C 301.699 0.256994 -3.45746 0
M  V30 3297 C 300.76 -0.708549 -4.23412 0
M  V30 3298 C 299.993 -0.0203135 -5.33696 0
M  V30 3299 O 300.216 1.19571 -5.57726 0
M  V30 3300 O 299.15 -0.701459 -5.97799 0
M  V30 3301 H 302.976 -1.32866 -2.73094 0
M  V30 3302 H 300.561 -0.712071 -1.31339 0
M  V30 3303 H 302.443 0.663852 -4.16138 0
M  V30 3304 H 301.118 1.09533 -3.04605 0
M  V30 3305 H 300.025 -1.16545 -3.55483 0
M  V30 3306 H 301.358 -1.51465 -4.68315 0
M  V30 3307 N 303.011 1.40521 -0.713556 0
M  V30 3308 C 304.288 1.94775 -0.17943 0
M  V30 3309 C 304.668 1.65184 1.31444 0
M  V30 3310 O 304.016 0.968429 2.06963 0
M  V30 3311 C 304.226 3.45543 -0.489986 0
M  V30 3312 C 305.574 4.22442 -0.427536 0
M  V30 3313 O 306.598 3.53644 -0.425929 0
M  V30 3314 O 305.457 5.4501 -0.403292 0
M  V30 3315 H 302.551 0.826606 -0.0255192 0
M  V30 3316 H 305.097 1.5014 -0.790949 0
M  V30 3317 H 303.869 3.60432 -1.5233 0
M  V30 3318 H 303.492 3.97311 0.151598 0
M  V30 3319 N 304.489 0.459591 1.5075 0
M  V30 3320 C 305.419 -0.330644 2.31147 0
M  V30 3321 C 306.4 -1.00087 1.37538 0
M  V30 3322 O 307.585 -1.00025 1.66459 0
M  V30 3323 C 304.715 -1.41958 3.16962 0
M  V30 3324 C 303.669 -0.871608 4.19031 0
M  V30 3325 C 302.995 -2.05797 4.9351 0
M  V30 3326 C 304.295 0.109251 5.22186 0
M  V30 3327 H 305.989 0.340336 2.97459 0
M  V30 3328 H 303.535 0.165119 1.4305 0
M  V30 3329 H 305.488 -1.9798 3.71997 0
M  V30 3330 H 304.212 -2.11917 2.48513 0
M  V30 3331 H 302.871 -0.333442 3.6508 0
M  V30 3332 H 302.519 -2.74427 4.21544 0
M  V30 3333 H 302.219 -1.6976 5.62544 0
M  V30 3334 H 303.743 -2.62331 5.51375 0
M  V30 3335 H 305.157 -0.361405 5.7216 0
M  V30 3336 H 303.554 0.383316 5.98875 0
M  V30 3337 H 304.624 1.03887 4.73641 0
M  V30 3338 N 305.967 -1.56429 0.191757 0
M  V30 3339 C 307.215 -1.97095 -0.447006 0
M  V30 3340 C 307.536 -1.07967 -1.62383 0
M  V30 3341 O 306.806 -0.150248 -1.95323 0
M  V30 3342 H 305.386 -0.727832 -0.168135 0
M  V30 3343 H 308.048 -1.92911 0.27771 0
M  V30 3344 H 307.144 -3.01848 -0.793371 0
M  V30 3345 N 307.445 0.0818655 -1.57387 0
M  V30 3346 C 308.395 1.10501 -1.99433 0
M  V30 3347 C 309.379 1.35041 -0.874798 0
M  V30 3348 O 310.571 1.35511 -1.13868 0
M  V30 3349 C 307.7 2.42159 -2.43339 0
M  V30 3350 C 306.786 2.20937 -3.62005 0
M  V30 3351 N 307.177 1.69616 -4.76512 0
M  V30 3352 C 305.475 2.51451 -3.68359 0
M  V30 3353 C 306.176 1.62973 -5.58404 0
M  V30 3354 N 305.152 2.08664 -5.01956 0
M  V30 3355 H 308.954 0.701373 -2.85408 0
M  V30 3356 H 306.468 0.289096 -1.59806 0
M  V30 3357 H 308.465 3.16208 -2.71695 0
M  V30 3358 H 307.125 2.83249 -1.58746 0
M  V30 3359 H 308.136 1.38624 -4.99003 0
M  V30 3360 H 304.813 2.95975 -2.94457 0
M  V30 3361 H 306.203 1.24233 -6.60315 0
M  V30 3362 N 308.923 1.53595 0.353017 0
M  V30 3363 C 309.853 1.83902 1.43883 0
M  V30 3364 C 310.834 0.693421 1.55324 0
M  V30 3365 O 312.019 0.944452 1.69687 0
M  V30 3366 C 309.149 2.04016 2.8106 0
M  V30 3367 C 308.103 3.19814 2.84434 0
M  V30 3368 C 307.429 3.25244 4.24406 0
M  V30 3369 C 308.729 4.58133 2.50822 0
M  V30 3370 H 310.423 2.74835 1.1877 0
M  V30 3371 H 307.969 1.32242 0.569917 0
M  V30 3372 H 309.922 2.238 3.57059 0
M  V30 3373 H 308.646 1.09804 3.07588 0
M  V30 3374 H 307.305 2.9987 2.10887 0
M  V30 3375 H 306.953 2.28646 4.48029 0
M  V30 3376 H 306.653 4.03054 4.27576 0
M  V30 3377 H 308.177 3.47228 5.0226 0
M  V30 3378 H 309.591 4.77995 3.16534 0
M  V30 3379 H 307.988 5.38276 2.6529 0
M  V30 3380 H 309.058 4.62387 1.46034 0
M  V30 3381 N 310.401 -0.613514 1.45168 0
M  V30 3382 C 311.648 -1.37268 1.48875 0
M  V30 3383 C 311.976 -1.94077 0.128161 0
M  V30 3384 O 311.231 -1.75178 -0.872416 0
M  V30 3385 C 311.53 -2.54347 2.51083 0
M  V30 3386 C 311.196 -2.1572 3.95949 0
M  V30 3387 C 309.858 -2.04899 4.35396 0
M  V30 3388 C 312.21 -1.85485 4.87078 0
M  V30 3389 C 309.538 -1.62057 5.63875 0
M  V30 3390 C 311.89 -1.4413 6.15962 0
M  V30 3391 C 310.554 -1.31863 6.54346 0
M  V30 3392 H 309.824 -0.502299 0.544773 0
M  V30 3393 H 312.471 -0.694021 1.78481 0
M  V30 3394 H 310.776 -3.27524 2.15024 0
M  V30 3395 H 312.473 -3.12577 2.51191 0
M  V30 3396 H 309.063 -2.25066 3.64751 0
M  V30 3397 H 313.247 -1.92745 4.57343 0
M  V30 3398 H 308.503 -1.51177 5.92415 0
M  V30 3399 H 312.677 -1.19778 6.86022 0
M  V30 3400 H 310.304 -0.984392 7.538 0
M  V30 3401 N 311.879 -1.3236 -0.855495 0
M  V30 3402 C 312.789 -1.23221 -1.99634 0
M  V30 3403 C 313.805 -0.145983 -1.73387 0
M  V30 3404 O 314.981 -0.366502 -1.98037 0
M  V30 3405 C 312.046 -0.954782 -3.33294 0
M  V30 3406 C 311.107 -2.12937 -3.72769 0
M  V30 3407 C 310.34 -1.86508 -5.00051 0
M  V30 3408 O 310.563 -0.807231 -5.64659 0
M  V30 3409 O 309.497 -2.72591 -5.36636 0
M  V30 3410 H 313.323 -2.19126 -2.1028 0
M  V30 3411 H 310.908 -1.12241 -0.986018 0
M  V30 3412 H 312.79 -0.816519 -4.13414 0
M  V30 3413 H 311.465 -0.0258854 -3.2369 0
M  V30 3414 H 310.372 -2.3231 -2.93228 0
M  V30 3415 H 311.705 -3.04102 -3.87018 0
M  V30 3416 N 313.357 1.07166 -1.15556 0
M  V30 3417 C 314.603 1.80065 -0.932984 0
M  V30 3418 C 314.936 1.86586 0.53845 0
M  V30 3419 O 314.211 1.35098 1.39924 0
M  V30 3420 C 314.494 3.25022 -1.55025 0
M  V30 3421 C 314.347 3.26634 -3.09242 0
M  V30 3422 C 315.666 4.22341 -1.2376 0
M  V30 3423 H 312.785 0.653697 -0.340366 0
M  V30 3424 H 315.427 1.25389 -1.4275 0
M  V30 3425 H 313.577 3.71712 -1.12972 0
M  V30 3426 H 315.249 2.88173 -3.60214 0
M  V30 3427 H 313.492 2.65539 -3.43033 0
M  V30 3428 H 314.163 4.28854 -3.47546 0
M  V30 3429 H 316.639 3.8405 -1.60139 0
M  V30 3430 H 315.515 5.22053 -1.69564 0
M  V30 3431 H 315.776 4.41828 -0.154938 0
M  V30 3432 N 314.835 0.952656 1.25548 0
M  V30 3433 C 316.065 0.622592 1.96996 0
M  V30 3434 C 316.473 -0.809112 1.71026 0
M  V30 3435 O 315.816 -1.55258 0.981861 0
M  V30 3436 C 315.878 0.798946 3.5051 0
M  V30 3437 C 315.542 2.20744 4.00151 0
M  V30 3438 C 316.539 3.18394 4.11001 0
M  V30 3439 C 314.224 2.5311 4.33867 0
M  V30 3440 C 316.218 4.46504 4.54877 0
M  V30 3441 C 313.905 3.8145 4.7743 0
M  V30 3442 C 314.903 4.77959 4.87897 0
M  V30 3443 O 314.591 6.04012 5.30494 0
M  V30 3444 H 314.323 0.232503 0.634758 0
M  V30 3445 H 316.877 1.2789 1.60728 0
M  V30 3446 H 315.107 0.0854903 3.86605 0
M  V30 3447 H 316.796 0.47023 4.03167 0
M  V30 3448 H 317.562 2.94715 3.85186 0
M  V30 3449 H 313.441 1.78719 4.24948 0
M  V30 3450 H 316.985 5.21835 4.62962 0
M  V30 3451 H 312.882 4.04936 5.0269 0
M  V30 3452 H 313.65 6.0736 5.48685 0
M  V30 3453 N 316.313 -1.40141 0.720998 0
M  V30 3454 C 317.245 -2.29177 0.0324669 0
M  V30 3455 C 318.258 -1.46105 -0.718126 0
M  V30 3456 O 319.447 -1.69335 -0.564608 0
M  V30 3457 C 316.547 -3.24473 -0.978292 0
M  V30 3458 C 315.72 -4.36423 -0.292115 0
M  V30 3459 C 314.779 -5.12122 -1.20901 0
M  V30 3460 O 313.805 -5.64981 -0.691766 0
M  V30 3461 N 315.007 -5.21992 -2.53978 0
M  V30 3462 H 317.772 -2.88909 0.796984 0
M  V30 3463 H 315.333 -1.51569 0.569068 0
M  V30 3464 H 317.325 -3.71987 -1.59398 0
M  V30 3465 H 315.895 -2.65871 -1.64413 0
M  V30 3466 H 315.115 -3.90967 0.503847 0
M  V30 3467 H 316.403 -5.08467 0.183971 0
M  V30 3468 H 315.801 -4.8054 -2.98493 0
M  V30 3469 H 314.358 -5.72995 -3.10677 0
M  V30 3470 N 317.792 -0.46758 -1.50504 0
M  V30 3471 C 318.724 0.364655 -2.26281 0
M  V30 3472 C 319.737 0.960151 -1.31472 0
M  V30 3473 O 320.926 0.849153 -1.57008 0
M  V30 3474 C 318.026 1.52509 -3.02645 0
M  V30 3475 C 317.199 1.04302 -4.24782 0
M  V30 3476 C 316.258 2.07709 -4.8347 0
M  V30 3477 O 315.284 1.65913 -5.44483 0
M  V30 3478 N 316.486 3.40485 -4.70159 0
M  V30 3479 H 319.251 -0.28495 -2.98342 0
M  V30 3480 H 316.812 -0.298163 -1.59131 0
M  V30 3481 H 318.804 2.21371 -3.38787 0
M  V30 3482 H 317.374 2.07945 -2.33404 0
M  V30 3483 H 316.594 0.180393 -3.93787 0
M  V30 3484 H 317.882 0.698798 -5.03978 0
M  V30 3485 H 317.28 3.77155 -4.21629 0
M  V30 3486 H 315.837 4.05156 -5.1058 0
M  V30 3487 N 319.27 1.56325 -0.20005 0
M  V30 3488 C 320.517 1.97719 0.437411 0
M  V30 3489 C 320.845 1.08709 1.61284 0
M  V30 3490 O 320.1 0.127261 1.95286 0
M  V30 3491 C 320.399 3.4495 0.935103 0
M  V30 3492 C 320.065 4.5072 -0.12749 0
M  V30 3493 C 318.727 4.79368 -0.419451 0
M  V30 3494 C 321.079 5.14268 -0.847231 0
M  V30 3495 C 318.407 5.68854 -1.43604 0
M  V30 3496 C 320.759 6.04852 -1.85301 0
M  V30 3497 C 319.423 6.31855 -2.15211 0
M  V30 3498 H 318.693 0.723507 0.16006 0
M  V30 3499 H 321.34 1.89166 -0.298056 0
M  V30 3500 H 319.645 3.50599 1.74894 0
M  V30 3501 H 321.342 3.74337 1.43781 0
M  V30 3502 H 317.932 4.28458 0.11023 0
M  V30 3503 H 322.116 4.92222 -0.634901 0
M  V30 3504 H 317.372 5.88047 -1.67364 0
M  V30 3505 H 321.546 6.53152 -2.41591 0
M  V30 3506 H 319.173 7.00994 -2.94129 0
M  V30 3507 N 320.748 -0.0735177 1.57428 0
M  V30 3508 C 321.994 -0.774145 1.87443 0
M  V30 3509 C 322.327 -1.77311 0.792103 0
M  V30 3510 O 321.602 -1.93492 -0.197793 0
M  V30 3511 C 321.885 -1.48367 3.28115 0
M  V30 3512 C 321.738 -0.501227 4.46999 0
M  V30 3513 C 323.057 -2.429 3.66998 0
M  V30 3514 H 320.176 -0.279971 0.681752 0
M  V30 3515 H 322.818 -0.0373616 1.89963 0
M  V30 3516 H 320.968 -2.11171 3.26097 0
M  V30 3517 H 322.64 0.121468 4.6114 0
M  V30 3518 H 320.883 0.183593 4.33411 0
M  V30 3519 H 321.554 -1.03526 5.42205 0
M  V30 3520 H 324.03 -1.90175 3.70098 0
M  V30 3521 H 322.906 -2.89549 4.66318 0
M  V30 3522 H 323.167 -3.27628 2.96837 0
M  V30 3523 N 322.226 -1.5378 -0.344866 0
M  V30 3524 C 323.503 -1.61589 -1.10219 0
M  V30 3525 C 323.883 -0.436316 -2.06542 0
M  V30 3526 O 323.231 0.571543 -2.21237 0
M  V30 3527 C 323.441 -2.97602 -1.82301 0
M  V30 3528 C 324.789 -3.5291 -2.36093 0
M  V30 3529 O 325.813 -2.99768 -1.924 0
M  V30 3530 O 324.672 -4.45859 -3.16026 0
M  V30 3531 H 321.766 -0.653522 -0.506792 0
M  V30 3532 H 324.312 -1.66126 -0.346465 0
M  V30 3533 H 323.084 -3.74893 -1.12121 0
M  V30 3534 H 322.707 -2.9665 -2.64735 0
M  V30 3535 N 323.704 0.605807 -1.45491 0
M  V30 3536 C 324.652 1.73754 -1.54636 0
M  V30 3537 C 325.646 1.64207 -0.416219 0
M  V30 3538 O 326.852 1.69979 -0.592199 0
M  V30 3539 H 323.227 0.574073 -0.485741 0
M  V30 3540 H 325.198 1.63169 -2.49837 0
M  V30 3541 C 323.947 3.12135 -1.53189 0
M  V30 3542 H 323.27 3.20141 -2.39478 0
M  V30 3543 H 324.71 3.91147 -1.63645 0
M  V30 3544 C 323.169 3.35921 -0.256616 0
M  V30 3545 O 323.699 3.96194 0.662798 0
M  V30 3546 N 321.905 2.90204 -0.151751 0
M  V30 3547 H 321.452 2.41336 -0.90081 0
M  V30 3548 H 321.41 3.06492 0.700699 0
M  V30 3549 N 325.182 1.32811 0.848464 0
M  V30 3550 C 326.428 1.23907 1.60546 0
M  V30 3551 C 326.761 -0.197161 1.93197 0
M  V30 3552 O 326.036 -1.13596 1.5788 0
M  V30 3553 C 326.319 2.10489 2.92175 0
M  V30 3554 C 326.172 3.62522 2.66266 0
M  V30 3555 C 327.491 1.97075 3.93509 0
M  V30 3556 H 324.61 0.451459 0.58254 0
M  V30 3557 H 327.252 1.62818 0.979296 0
M  V30 3558 H 325.402 1.77434 3.45614 0
M  V30 3559 H 327.074 4.05821 2.19334 0
M  V30 3560 H 325.317 3.84879 2.00126 0
M  V30 3561 H 325.988 4.18437 3.6002 0
M  V30 3562 H 328.464 2.26045 3.49346 0
M  V30 3563 H 327.34 2.59923 4.83457 0
M  V30 3564 H 327.601 0.940186 4.31987 0
M  V30 3565 N 326.66 -1.06551 1.16123 0
M  V30 3566 C 327.907 -1.79302 0.941126 0
M  V30 3567 C 328.235 -1.87105 -0.531235 0
M  V30 3568 O 327.49 -1.35692 -1.41018 0
M  V30 3569 C 327.789 -3.23911 1.51052 0
M  V30 3570 C 327.455 -3.36193 3.00475 0
M  V30 3571 C 326.117 -3.39252 3.41265 0
M  V30 3572 C 328.469 -3.38326 3.96465 0
M  V30 3573 C 325.797 -3.42057 4.76669 0
M  V30 3574 C 328.149 -3.4267 5.31752 0
M  V30 3575 C 326.813 -3.4401 5.72026 0
M  V30 3576 H 326.083 -0.656111 0.344382 0
M  V30 3577 H 328.73 -1.25325 1.44796 0
M  V30 3578 H 327.035 -3.80723 0.925063 0
M  V30 3579 H 328.732 -3.78793 1.31593 0
M  V30 3580 H 325.322 -3.34516 2.6795 0
M  V30 3581 H 329.506 -3.35176 3.6602 0
M  V30 3582 H 324.762 -3.41398 5.07206 0
M  V30 3583 H 328.936 -3.43268 6.05921 0
M  V30 3584 H 326.563 -3.45937 6.76928 0
M  V30 3585 N 328.138 -0.959301 -1.25041 0
M  V30 3586 C 329.363 -0.633507 -1.97488 0
M  V30 3587 C 329.788 0.788555 -1.70773 0
M  V30 3588 O 329.146 1.53394 -0.966431 0
M  V30 3589 C 329.194 -0.904057 -3.49083 0
M  V30 3590 O 328.298 0.0147939 -4.12397 0
M  V30 3591 H 327.639 -0.240368 -0.618966 0
M  V30 3592 H 330.169 -1.28717 -1.59038 0
M  V30 3593 H 330.179 -0.832203 -3.99423 0
M  V30 3594 H 328.854 -1.94048 -3.67856 0
M  V30 3595 H 327.431 -0.109664 -3.72739 0
M  V30 3596 N 329.616 1.39756 -0.72842 0
M  V30 3597 C 330.546 2.33289 -0.0991354 0
M  V30 3598 C 331.527 1.53568 0.731489 0
M  V30 3599 O 332.712 1.81987 0.677807 0
M  V30 3600 C 329.842 3.3763 0.813834 0
M  V30 3601 C 328.796 4.2791 0.0878663 0
M  V30 3602 C 328.122 5.22894 1.11741 0
M  V30 3603 C 329.422 5.11314 -1.06563 0
M  V30 3604 H 331.116 2.86163 -0.880408 0
M  V30 3605 H 328.662 1.37591 -0.424819 0
M  V30 3606 H 330.615 4.0201 1.26355 0
M  V30 3607 H 329.339 2.83181 1.62715 0
M  V30 3608 H 327.998 3.65 -0.342159 0
M  V30 3609 H 327.646 4.64744 1.92412 0
M  V30 3610 H 327.346 5.84143 0.636477 0
M  V30 3611 H 328.87 5.90151 1.56697 0
M  V30 3612 H 330.284 5.69076 -0.694671 0
M  V30 3613 H 328.681 5.81671 -1.47577 0
M  V30 3614 H 329.751 4.46534 -1.89038 0
M  V30 3615 N 331.094 0.475555 1.50254 0
M  V30 3616 C 332.505 0.0215174 1.86688 0
M  V30 3617 C 332.856 -1.38467 1.39001 0
M  V30 3618 O 331.981 -2.02732 0.756894 0
M  V30 3619 C 332.576 0.0322715 3.38785 0
M  V30 3620 C 331.135 -0.366314 3.74613 0
M  V30 3621 C 330.282 0.415832 2.74164 0
M  V30 3622 H 333.233 0.689612 1.42934 0
M  V30 3623 H 333.254 -0.76889 3.7265 0
M  V30 3624 H 332.766 1.05584 3.73462 0
M  V30 3625 H 330.867 -1.39406 3.45538 0
M  V30 3626 H 330.98 -0.064555 4.79057 0
M  V30 3627 H 329.344 -0.131048 2.54363 0
M  V30 3628 H 330.127 1.43899 3.11686 0
M  V30 3629 N 332.573 -1.56217 0.208337 0
M  V30 3630 C 333.819 -1.98242 -0.427552 0
M  V30 3631 C 334.152 -1.09554 -1.60348 0
M  V30 3632 O 333.427 -0.15035 -1.93918 0
M  V30 3633 C 333.71 -3.4931 -0.874907 0
M  V30 3634 C 333.563 -4.48773 0.303751 0
M  V30 3635 C 334.882 -4.04424 -1.73577 0
M  V30 3636 H 332.001 -0.720744 -0.153936 0
M  V30 3637 H 334.643 -1.87586 0.30192 0
M  V30 3638 H 332.793 -3.58522 -1.49648 0
M  V30 3639 H 334.465 -4.51586 0.941682 0
M  V30 3640 H 332.708 -4.23194 0.953375 0
M  V30 3641 H 333.379 -5.51976 -0.0519883 0
M  V30 3642 H 335.855 -3.98075 -1.21143 0
M  V30 3643 H 334.731 -5.1047 -2.01771 0
M  V30 3644 H 334.992 -3.50494 -2.69456 0
M  V30 3645 N 334.051 0.0651679 -1.57465 0
M  V30 3646 C 335.328 0.79644 -1.78651 0
M  V30 3647 C 335.708 1.95454 -0.797566 0
M  V30 3648 O 335.056 2.27882 0.167946 0
M  V30 3649 C 335.266 1.26322 -3.25337 0
M  V30 3650 C 336.614 1.6939 -3.89348 0
M  V30 3651 O 337.638 1.35872 -3.29268 0
M  V30 3652 O 336.497 2.31471 -4.95059 0
M  V30 3653 H 333.591 0.382157 -0.733407 0
M  V30 3654 H 336.137 0.0447311 -1.69641 0
M  V30 3655 H 334.909 0.434859 -3.88876 0
M  V30 3656 H 334.532 2.07604 -3.39096 0
M  V30 3657 N 335.529 1.53961 0.336706 0
M  V30 3658 C 336.459 1.85417 1.41925 0
M  V30 3659 C 337.44 0.709856 1.5458 0
M  V30 3660 O 338.625 0.962396 1.68676 0
M  V30 3661 C 335.755 2.06985 2.78881 0
M  V30 3662 C 334.709 3.22813 2.81026 0
M  V30 3663 C 334.035 3.29727 4.20932 0
M  V30 3664 C 335.335 4.60767 2.45949 0
M  V30 3665 H 337.029 2.76079 1.15848 0
M  V30 3666 H 334.575 1.32839 0.555859 0
M  V30 3667 H 336.528 2.27575 3.54665 0
M  V30 3668 H 335.252 1.13061 3.06406 0
M  V30 3669 H 333.911 3.0209 2.07695 0
M  V30 3670 H 333.559 2.33385 4.45579 0
M  V30 3671 H 333.259 4.07566 4.23277 0
M  V30 3672 H 334.783 3.52536 4.98549 0
M  V30 3673 H 336.197 4.81325 3.11446 0
M  V30 3674 H 334.594 5.4106 2.59566 0
M  V30 3675 H 335.664 4.6391 1.41122 0
M  V30 3676 N 337.007 -0.598083 1.45811 0
M  V30 3677 C 338.418 -1.18011 1.44673 0
M  V30 3678 C 338.769 -1.95378 0.179364 0
M  V30 3679 O 337.894 -2.04124 -0.718509 0
M  V30 3680 C 338.489 -2.14677 2.62105 0
M  V30 3681 C 337.048 -2.68236 2.64057 0
M  V30 3682 C 336.195 -1.43816 2.37091 0
M  V30 3683 H 339.146 -0.38686 1.53913 0
M  V30 3684 H 339.167 -2.97878 2.36746 0
M  V30 3685 H 338.679 -1.5834 3.5433 0
M  V30 3686 H 336.78 -3.28486 1.75864 0
M  V30 3687 H 336.893 -3.12021 3.63566 0
M  V30 3688 H 335.257 -1.731 1.86838 0
M  V30 3689 H 336.04 -0.893333 3.31473 0
M  V30 3690 N 338.485 -1.33259 -0.841409 0
M  V30 3691 C 339.732 -1.24572 -1.5965 0
M  V30 3692 C 340.06 0.189137 -1.93578 0
M  V30 3693 O 339.315 1.14566 -1.5866 0
M  V30 3694 C 339.614 -2.06381 -2.9179 0
M  V30 3695 C 339.28 -3.556 -2.77235 0
M  V30 3696 C 337.942 -3.96282 -2.72973 0
M  V30 3697 C 340.294 -4.50433 -2.62221 0
M  V30 3698 C 337.622 -5.30017 -2.51592 0
M  V30 3699 C 339.974 -5.84327 -2.42374 0
M  V30 3700 C 338.638 -6.24194 -2.36512 0
M  V30 3701 H 337.908 -0.455842 -0.5842 0
M  V30 3702 H 340.555 -1.6482 -0.975016 0
M  V30 3703 H 338.86 -1.58903 -3.5813 0
M  V30 3704 H 340.557 -1.97019 -3.49263 0
M  V30 3705 H 337.147 -3.23298 -2.81384 0
M  V30 3706 H 341.331 -4.19914 -2.64549 0
M  V30 3707 H 336.587 -5.59947 -2.45499 0
M  V30 3708 H 340.761 -6.57414 -2.29739 0
M  V30 3709 H 338.388 -7.27759 -2.19706 0
M  V30 3710 N 339.963 1.05934 -1.16686 0
M  V30 3711 C 341.188 1.83029 -0.975455 0
M  V30 3712 C 341.613 1.82096 0.471452 0
M  V30 3713 O 340.971 1.22443 1.33706 0
M  V30 3714 C 341.019 3.27372 -1.51195 0
M  V30 3715 O 340.123 4.06054 -0.720701 0
M  V30 3716 H 339.464 0.566194 -0.346872 0
M  V30 3717 H 341.994 1.33541 -1.55009 0
M  V30 3718 H 342.004 3.78186 -1.53099 0
M  V30 3719 H 340.679 3.27366 -2.56523 0
M  V30 3720 H 339.256 3.64812 -0.772458 0
M  V30 3721 N 341.441 0.965919 1.2453 0
M  V30 3722 C 342.689 0.625593 1.92174 0
M  V30 3723 C 343.01 -0.841652 1.75901 0
M  V30 3724 O 342.28 -1.60061 1.12948 0
M  V30 3725 H 340.86 0.228388 0.71123 0
M  V30 3726 H 343.522 1.2266 1.51461 0
M  V30 3727 H 342.618 0.864653 2.99884 0
M  V30 3728 N 342.919 -1.39368 0.735821 0
M  V30 3729 C 344.149 -2.04498 0.293967 0
M  V30 3730 C 344.557 -1.55593 -1.07645 0
M  V30 3731 O 343.9 -0.716324 -1.69158 0
M  V30 3732 C 343.962 -3.58836 0.218342 0
M  V30 3733 C 343.626 -4.30721 1.52736 0
M  V30 3734 C 344.623 -4.57305 2.47322 0
M  V30 3735 C 342.308 -4.69251 1.79189 0
M  V30 3736 C 344.302 -5.21429 3.66593 0
M  V30 3737 C 341.989 -5.33104 2.98737 0
M  V30 3738 C 342.987 -5.59125 3.9226 0
M  V30 3739 O 342.675 -6.21653 5.09708 0
M  V30 3740 H 342.407 -0.664118 0.126189 0
M  V30 3741 H 344.961 -1.79385 1.00051 0
M  V30 3742 H 343.191 -3.8285 -0.544314 0
M  V30 3743 H 344.88 -4.05447 -0.191626 0
M  V30 3744 H 345.646 -4.27983 2.28156 0
M  V30 3745 H 341.525 -4.48354 1.07239 0
M  V30 3746 H 345.069 -5.41656 4.39607 0
M  V30 3747 H 340.966 -5.61846 3.17803 0
M  V30 3748 H 341.734 -6.40146 5.10054 0
M  V30 3749 N 344.397 -0.483516 -1.5 0
M  V30 3750 C 345.813 -0.138404 -1.58999 0
M  V30 3751 C 346.013 1.35597 -1.4905 0
M  V30 3752 O 345.069 2.13039 -1.35539 0
M  V30 3753 C 346.382 -0.699658 -2.92447 0
M  V30 3754 C 347.93 -0.664195 -3.05872 0
M  V30 3755 C 348.405 -1.20321 -4.41913 0
M  V30 3756 N 349.896 -1.16315 -4.48358 0
M  V30 3757 C 350.631 -1.55058 -5.52037 0
M  V30 3758 N 350.127 -2.01311 -6.62907 0
M  V30 3759 N 351.92 -1.46584 -5.42651 0
M  V30 3760 H 344.071 -1.45529 -1.5471 0
M  V30 3761 H 346.334 -0.60258 -0.731848 0
M  V30 3762 H 346.04 -1.747 -3.05242 0
M  V30 3763 H 345.914 -0.150194 -3.76901 0
M  V30 3764 H 348.301 0.374272 -2.92717 0
M  V30 3765 H 348.382 -1.25061 -2.23144 0
M  V30 3766 H 348.026 -2.24037 -4.55818 0
M  V30 3767 H 347.956 -0.592896 -5.23252 0
M  V30 3768 H 350.447 -0.824058 -3.68806 0
M  V30 3769 H 350.76 -2.2899 -7.38095 0
M  V30 3770 H 349.105 -2.05273 -6.63994 0
M  V30 3771 H 352.296 -1.10281 -4.54924 0
M  V30 3772 H 352.469 -1.77103 -6.23329 0
M  V30 3773 N 345.875 1.56104 -0.216619 0
M  V30 3774 C 347.291 1.58995 0.13886 0
M  V30 3775 C 347.491 1.23333 1.59346 0
M  V30 3776 O 346.547 0.966234 2.33281 0
M  V30 3777 C 347.86 3.00143 -0.182968 0
M  V30 3778 C 349.408 3.12751 -0.124807 0
M  V30 3779 C 349.883 4.56068 -0.420241 0
M  V30 3780 N 351.374 4.61723 -0.369634 0
M  V30 3781 C 352.109 5.70542 -0.571789 0
M  V30 3782 N 351.605 6.87744 -0.835453 0
M  V30 3783 N 353.398 5.59831 -0.504563 0
M  V30 3784 H 345.549 1.77562 -1.16557 0
M  V30 3785 H 347.812 0.825091 -0.466828 0
M  V30 3786 H 347.518 3.30871 -1.19237 0
M  V30 3787 H 347.392 3.73813 0.504367 0
M  V30 3788 H 349.779 2.81822 0.875223 0
M  V30 3789 H 349.86 2.41421 -0.845544 0
M  V30 3790 H 349.504 4.87713 -1.41769 0
M  V30 3791 H 349.434 5.25617 0.321631 0
M  V30 3792 H 351.925 3.77502 -0.173338 0
M  V30 3793 H 352.238 7.66587 -0.977938 0
M  V30 3794 H 350.583 6.895 -0.872592 0
M  V30 3795 H 353.774 4.67145 -0.298842 0
M  V30 3796 H 353.947 6.44573 -0.665519 0
M  V30 3797 N 347.353 -0.0568162 1.57498 0
M  V30 3798 C 348.601 -0.751617 1.87604 0
M  V30 3799 C 348.922 -1.77351 0.81066 0
M  V30 3800 O 348.192 -1.95254 -0.159018 0
M  V30 3801 H 346.772 -0.280583 0.692302 0
M  V30 3802 H 349.434 -0.0293483 1.94878 0
M  V30 3803 H 348.53 -1.25852 2.856 0
M  V30 3804 N 348.832 -1.54138 -0.328536 0
M  V30 3805 C 350.081 -1.71318 -1.06456 0
M  V30 3806 C 350.394 -0.491109 -1.89334 0
M  V30 3807 O 351.6 -0.54416 -2.65991 0
M  V30 3808 C 350.056 -3.03 -1.94214 0
M  V30 3809 C 349.664 -4.32595 -1.16471 0
M  V30 3810 C 351.408 -3.29544 -2.67583 0
M  V30 3811 C 349.315 -5.55341 -2.03347 0
M  V30 3812 H 348.245 -0.638429 -0.401155 0
M  V30 3813 H 350.896 -1.80633 -0.323106 0
M  V30 3814 H 349.278 -2.87579 -2.72239 0
M  V30 3815 H 350.452 -4.58766 -0.432525 0
M  V30 3816 H 348.767 -4.12777 -0.548063 0
M  V30 3817 H 351.364 -4.18444 -3.3288 0
M  V30 3818 H 351.707 -2.47206 -3.34955 0
M  V30 3819 H 352.24 -3.45809 -1.96623 0
M  V30 3820 H 348.979 -6.40268 -1.40491 0
M  V30 3821 H 348.499 -5.33397 -2.74313 0
M  V30 3822 H 350.178 -5.91557 -2.62049 0
M  V30 3823 N 350.31 0.590341 -1.46126 0
M  V30 3824 C 351.242 1.71427 -1.52136 0
M  V30 3825 C 352.255 1.57542 -0.41042 0
M  V30 3826 O 353.444 1.65106 -0.678389 0
M  V30 3827 C 350.544 3.09605 -1.37834 0
M  V30 3828 C 349.717 3.49566 -2.62912 0
M  V30 3829 C 348.776 4.66773 -2.42918 0
M  V30 3830 O 347.802 4.73019 -3.1661 0
M  V30 3831 N 349.004 5.61161 -1.4859 0
M  V30 3832 H 351.769 1.66728 -2.49042 0
M  V30 3833 H 349.33 0.776113 -1.42085 0
M  V30 3834 H 351.322 3.85796 -1.22243 0
M  V30 3835 H 349.892 3.08714 -0.491393 0
M  V30 3836 H 349.112 2.63158 -2.93499 0
M  V30 3837 H 350.4 3.73028 -3.46017 0
M  V30 3838 H 349.798 5.58844 -0.87808 0
M  V30 3839 H 348.355 6.36814 -1.38965 0
M  V30 3840 N 351.788 1.33704 0.83433 0
M  V30 3841 C 352.751 1.24244 1.92603 0
M  V30 3842 C 353.751 0.160383 1.59998 0
M  V30 3843 O 354.941 0.412228 1.69252 0
M  V30 3844 C 352.073 0.91555 3.28376 0
M  V30 3845 H 353.266 2.21287 2.02416 0
M  V30 3846 H 350.819 1.17827 1.02696 0
M  V30 3847 H 351.554 -0.0521886 3.24258 0
M  V30 3848 H 351.339 1.69811 3.53422 0
M  V30 3849 H 352.829 0.874231 4.08347 0
M  V30 3850 N 353.266 -1.05314 1.17247 0
M  V30 3851 C 354.682 -1.30452 0.919473 0
M  V30 3852 C 354.882 -1.9703 -0.42209 0
M  V30 3853 O 353.938 -2.24311 -1.15935 0
M  V30 3854 C 355.251 -2.17551 2.07586 0
M  V30 3855 C 356.799 -2.30937 2.11275 0
M  V30 3856 C 357.274 -3.21396 3.26296 0
M  V30 3857 N 358.765 -3.28981 3.26076 0
M  V30 3858 C 359.5 -3.99095 4.11716 0
M  V30 3859 N 358.996 -4.71648 5.07465 0
M  V30 3860 N 360.789 -3.95247 3.9967 0
M  V30 3861 H 352.94 -0.604988 2.03602 0
M  V30 3862 H 355.203 -0.329368 0.888944 0
M  V30 3863 H 354.909 -1.75921 3.0454 0
M  V30 3864 H 354.783 -3.18182 2.02584 0
M  V30 3865 H 357.17 -2.71809 1.14907 0
M  V30 3866 H 357.251 -1.2994 2.20339 0
M  V30 3867 H 356.895 -2.81238 4.22927 0
M  V30 3868 H 356.825 -4.22395 3.14467 0
M  V30 3869 H 359.316 -2.77286 2.5675 0
M  V30 3870 H 359.629 -5.22705 5.6921 0
M  V30 3871 H 357.974 -4.70594 5.11435 0
M  V30 3872 H 361.165 -3.37691 3.24164 0
M  V30 3873 H 361.338 -4.4962 4.66632 0
M  V30 3874 N 354.744 -0.972509 -1.24016 0
M  V30 3875 C 355.676 -0.464375 -2.24446 0
M  V30 3876 C 356.689 0.4295 -1.57032 0
M  V30 3877 O 357.878 0.234902 -1.76948 0
M  V30 3878 C 354.978 0.348385 -3.37105 0
M  V30 3879 C 354.151 -0.53673 -4.34094 0
M  V30 3880 C 353.21 0.220838 -5.25736 0
M  V30 3881 O 352.236 -0.386867 -5.67884 0
M  V30 3882 N 353.438 1.50907 -5.60542 0
M  V30 3883 H 356.203 -1.32788 -2.68677 0
M  V30 3884 H 353.764 -0.844877 -1.38107 0
M  V30 3885 H 355.756 0.863341 -3.95384 0
M  V30 3886 H 354.326 1.11285 -2.92121 0
M  V30 3887 H 353.546 -1.23261 -3.74433 0
M  V30 3888 H 354.834 -1.14022 -4.95859 0
M  V30 3889 H 354.232 2.02444 -5.28236 0
M  V30 3890 H 352.789 1.96962 -6.21329 0
M  V30 3891 N 356.222 1.38976 -0.743202 0
M  V30 3892 C 357.471 1.99581 -0.291592 0
M  V30 3893 C 357.784 1.59656 1.13001 0
M  V30 3894 O 358.99 2.13157 1.68156 0
M  V30 3895 C 357.446 3.56813 -0.470391 0
M  V30 3896 C 357.054 4.05695 -1.90041 0
M  V30 3897 C 358.798 4.24423 -0.0809709 0
M  V30 3898 C 356.705 5.5553 -2.02832 0
M  V30 3899 H 355.635 0.746615 -0.105272 0
M  V30 3900 H 358.286 1.58872 -0.918258 0
M  V30 3901 H 356.668 3.95359 0.225299 0
M  V30 3902 H 357.842 3.78464 -2.62872 0
M  V30 3903 H 356.157 3.50775 -2.24379 0
M  V30 3904 H 358.754 5.34474 -0.155445 0
M  V30 3905 H 359.097 4.04962 0.96497 0
M  V30 3906 H 359.63 3.9108 -0.728124 0
M  V30 3907 H 356.369 5.79881 -3.05643 0
M  V30 3908 H 355.889 5.84537 -1.34448 0
M  V30 3909 H 357.568 6.21069 -1.81335 0
M  V30 3910 N 357.7 0.491464 1.49741 0
M  V30 3911 C 358.63 -0.28154 2.31796 0
M  V30 3912 C 359.611 -0.971473 1.3963 0
M  V30 3913 O 360.796 -0.964719 1.68543 0
M  V30 3914 C 357.926 -1.35203 3.19902 0
M  V30 3915 C 356.88 -0.782529 4.20786 0
M  V30 3916 C 356.206 -1.95283 4.97764 0
M  V30 3917 C 357.506 0.21999 5.21837 0
M  V30 3918 H 359.2 0.403355 2.96671 0
M  V30 3919 H 356.746 0.195425 1.42668 0
M  V30 3920 H 358.699 -1.90045 3.76113 0
M  V30 3921 H 357.423 -2.06598 2.52953 0
M  V30 3922 H 356.082 -0.255928 3.65706 0
M  V30 3923 H 355.73 -2.65423 4.2727 0
M  V30 3924 H 355.43 -1.57789 5.66018 0
M  V30 3925 H 356.954 -2.50577 5.56816 0
M  V30 3926 H 358.368 -0.23996 5.72798 0
M  V30 3927 H 356.765 0.51026 5.97927 0
M  V30 3928 H 357.835 1.13911 4.7133 0
M  V30 3929 N 359.178 -1.55987 0.224894 0
M  V30 3930 C 360.11 -2.17722 -0.716224 0
M  V30 3931 C 361.123 -1.14723 -1.15509 0
M  V30 3932 O 362.312 -1.41688 -1.08567 0
M  V30 3933 C 359.412 -2.74873 -1.98238 0
M  V30 3934 C 358.585 -4.03074 -1.69853 0
M  V30 3935 C 357.644 -4.44757 -2.81208 0
M  V30 3936 O 356.67 -5.11587 -2.49534 0
M  V30 3937 N 357.872 -4.10716 -4.10235 0
M  V30 3938 H 360.637 -2.99109 -0.188123 0
M  V30 3939 H 358.198 -1.6184 0.0440123 0
M  V30 3940 H 360.19 -2.99727 -2.7193 0
M  V30 3941 H 358.76 -1.9777 -2.42086 0
M  V30 3942 H 357.98 -3.86041 -0.797875 0
M  V30 3943 H 359.268 -4.86701 -1.48324 0
M  V30 3944 H 358.666 -3.57019 -4.38809 0
M  V30 3945 H 357.223 -4.40455 -4.80461 0
M  V30 3946 N 360.656 0.0484629 -1.57525 0
M  V30 3947 C 361.603 1.05504 -2.05275 0
M  V30 3948 C 362.573 1.37084 -0.937927 0
M  V30 3949 O 363.758 1.47754 -1.2072 0
M  V30 3950 C 360.898 2.35676 -2.52093 0
M  V30 3951 C 360.011 2.10423 -3.77288 0
M  V30 3952 C 359.146 3.34327 -4.12794 0
M  V30 3953 C 358.185 3.04542 -5.30962 0
M  V30 3954 N 357.322 4.20841 -5.61994 0
M  V30 3955 H 362.162 0.640885 -2.91027 0
M  V30 3956 H 359.699 0.304854 -1.43906 0
M  V30 3957 H 361.657 3.11709 -2.77297 0
M  V30 3958 H 360.287 2.7485 -1.69285 0
M  V30 3959 H 359.339 1.24976 -3.59284 0
M  V30 3960 H 360.651 1.84438 -4.63448 0
M  V30 3961 H 359.805 4.1874 -4.39024 0
M  V30 3962 H 358.544 3.63408 -3.25247 0
M  V30 3963 H 357.549 2.18528 -5.04505 0
M  V30 3964 H 358.774 2.76758 -6.20146 0
M  V30 3965 H 356.72 4.4991 -4.77406 0
M  V30 3966 H 356.637 3.98212 -6.42622 0
M  V30 3967 H 357.905 5.06184 -5.92789 0
M  V30 3968 N 362.134 1.5431 0.320358 0
M  V30 3969 C 363.382 1.72327 1.05583 0
M  V30 3970 C 363.703 0.50149 1.88441 0
M  V30 3971 O 362.973 -0.48448 1.89815 0
M  V30 3972 H 361.553 0.635387 0.3928 0
M  V30 3973 H 364.215 1.91621 0.356019 0
M  V30 3974 H 363.311 2.60426 1.72003 0
M  V30 3975 N 363.613 -0.582584 1.46437 0
M  V30 3976 C 364.543 -1.70187 1.59871 0
M  V30 3977 C 365.524 -1.64066 0.449042 0
M  V30 3978 O 366.709 -1.82081 0.6753 0
M  V30 3979 C 363.839 -3.08827 1.58881 0
M  V30 3980 C 362.793 -3.29779 2.72819 0
M  V30 3981 C 362.119 -4.68947 2.5689 0
M  V30 3982 C 363.419 -3.17601 4.1464 0
M  V30 3983 H 365.113 -1.592 2.53566 0
M  V30 3984 H 362.659 -0.764472 1.22032 0
M  V30 3985 H 364.612 -3.86951 1.66873 0
M  V30 3986 H 363.336 -3.20713 0.617306 0
M  V30 3987 H 361.995 -2.54054 2.64296 0
M  V30 3988 H 361.643 -4.77599 1.57823 0
M  V30 3989 H 361.343 -4.83919 3.33312 0
M  V30 3990 H 362.867 -5.4924 2.66773 0
M  V30 3991 H 364.281 -3.8557 4.24274 0
M  V30 3992 H 362.678 -3.44094 4.9165 0
M  V30 3993 H 363.748 -2.14681 4.34788 0
M  V30 3994 N 365.091 -1.34144 -0.827227 0
M  V30 3995 C 366.001 -1.27428 -1.96975 0
M  V30 3996 C 367.017 -0.182728 -1.73038 0
M  V30 3997 O 368.193 -0.408426 -1.97215 0
M  V30 3998 C 365.258 -1.02526 -3.31194 0
M  V30 3999 C 364.319 -2.20796 -3.68168 0
M  V30 4000 C 363.552 -1.97073 -4.95982 0
M  V30 4001 O 363.775 -0.926822 -5.6282 0
M  V30 4002 O 362.709 -2.83912 -5.30733 0
M  V30 4003 H 366.535 -2.23537 -2.05584 0
M  V30 4004 H 364.12 -1.14307 -0.961989 0
M  V30 4005 H 366.002 -0.904026 -4.11589 0
M  V30 4006 H 364.677 -0.0945389 -3.23562 0
M  V30 4007 H 363.584 -2.38477 -2.88235 0
M  V30 4008 H 364.917 -3.12243 -3.8048 0
M  V30 4009 N 366.569 1.04691 -1.17803 0
M  V30 4010 C 367.516 2.12557 -0.899343 0
M  V30 4011 C 368.486 1.65339 0.158771 0
M  V30 4012 O 369.671 1.90789 0.0204797 0
M  V30 4013 C 366.811 3.42481 -0.424315 0
M  V30 4014 C 365.924 4.03346 -1.54713 0
M  V30 4015 C 365.059 5.21208 -1.02546 0
M  V30 4016 C 364.098 5.74089 -2.12339 0
M  V30 4017 N 363.235 6.83247 -1.61612 0
M  V30 4018 H 368.075 2.35734 -1.823 0
M  V30 4019 H 365.612 1.1564 -0.909159 0
M  V30 4020 H 367.57 4.16996 -0.130421 0
M  V30 4021 H 366.2 3.19471 0.462377 0
M  V30 4022 H 365.252 3.2622 -1.95664 0
M  V30 4023 H 366.564 4.38628 -2.37501 0
M  V30 4024 H 365.718 6.02812 -0.685718 0
M  V30 4025 H 364.457 4.87414 -0.167084 0
M  V30 4026 H 363.462 4.91111 -2.47165 0
M  V30 4027 H 364.687 6.0993 -2.98601 0
M  V30 4028 H 362.633 6.5134 -0.780533 0
M  V30 4029 H 362.55 7.17559 -2.38003 0
M  V30 4030 H 363.818 7.68491 -1.30545 0
M  V30 4031 N 368.047 0.979072 1.23499 0
M  V30 4032 C 369.01 0.523244 2.23147 0
M  V30 4033 C 370.01 -0.386406 1.56088 0
M  V30 4034 O 371.2 -0.180283 1.73265 0
M  V30 4035 C 368.332 -0.240739 3.40049 0
M  V30 4036 H 369.525 1.40432 2.64989 0
M  V30 4037 H 367.078 0.764824 1.36309 0
M  V30 4038 H 367.813 -1.13841 3.03662 0
M  V30 4039 H 367.598 0.412207 3.89927 0
M  V30 4040 H 369.088 -0.548297 4.13985 0
M  V30 4041 N 369.525 -1.3858 0.750561 0
M  V30 4042 C 370.774 -1.99424 0.302172 0
M  V30 4043 C 371.087 -1.60254 -1.12152 0
M  V30 4044 O 372.293 -2.14046 -1.67023 0
M  V30 4045 C 370.749 -3.56558 0.489307 0
M  V30 4046 C 370.357 -4.04682 1.92189 0
M  V30 4047 C 372.101 -4.24374 0.103478 0
M  V30 4048 C 370.008 -5.54446 2.05775 0
M  V30 4049 H 368.938 -0.746046 0.10923 0
M  V30 4050 H 371.589 -1.58383 0.92667 0
M  V30 4051 H 369.971 -3.95472 -0.204329 0
M  V30 4052 H 371.145 -3.77065 2.64875 0
M  V30 4053 H 369.46 -3.4958 2.26236 0
M  V30 4054 H 372.057 -5.34384 0.183787 0
M  V30 4055 H 372.4 -4.05468 -0.943481 0
M  V30 4056 H 372.933 -3.90688 0.748854 0
M  V30 4057 H 369.672 -5.78252 3.08714 0
M  V30 4058 H 369.192 -5.83816 1.37546 0
M  V30 4059 H 370.871 -6.20099 1.84626 0
M  V30 4060 N 371.003 -0.499398 -1.49478 0
M  V30 4061 C 372.419 -0.155261 -1.58843 0
M  V30 4062 C 372.619 1.34008 -1.50479 0
M  V30 4063 O 371.675 2.11589 -1.37791 0
M  V30 4064 C 372.988 -0.730636 -2.91689 0
M  V30 4065 C 374.536 -0.696599 -3.0515 0
M  V30 4066 C 375.011 -1.25001 -4.40612 0
M  V30 4067 N 376.502 -1.21064 -4.47099 0
M  V30 4068 C 377.237 -1.60905 -5.50361 0
M  V30 4069 N 376.733 -2.08331 -6.60735 0
M  V30 4070 N 378.526 -1.52331 -5.41065 0
M  V30 4071 H 370.677 -1.47162 -1.53158 0
M  V30 4072 H 372.94 -0.610309 -0.725415 0
M  V30 4073 H 372.646 -1.77928 -3.03372 0
M  V30 4074 H 372.52 -0.190161 -3.7672 0
M  V30 4075 H 374.907 0.343204 -2.93097 0
M  V30 4076 H 374.988 -1.2742 -2.21806 0
M  V30 4077 H 374.632 -2.28859 -4.53416 0
M  V30 4078 H 374.562 -0.64836 -5.22593 0
M  V30 4079 H 377.053 -0.863128 -3.67911 0
M  V30 4080 H 377.366 -2.36805 -7.35624 0
M  V30 4081 H 375.711 -2.12304 -6.6178 0
M  V30 4082 H 378.902 -1.151 -4.53729 0
M  V30 4083 H 379.075 -1.83704 -6.21415 0
M  V30 4084 N 372.481 1.55866 -0.233164 0
M  V30 4085 C 373.391 2.24431 0.683217 0
M  V30 4086 C 374.407 1.2558 1.2044 0
M  V30 4087 O 375.583 1.58422 1.24356 0
M  V30 4088 C 372.648 2.91979 1.86947 0
M  V30 4089 C 371.709 4.06204 1.38912 0
M  V30 4090 C 370.942 4.70522 2.51883 0
M  V30 4091 O 371.165 4.33865 3.70293 0
M  V30 4092 O 370.099 5.59296 2.22423 0
M  V30 4093 H 373.925 3.03426 0.129059 0
M  V30 4094 H 371.51 1.494 -0.0022283 0
M  V30 4095 H 373.392 3.34573 2.56201 0
M  V30 4096 H 372.067 2.15935 2.41151 0
M  V30 4097 H 370.974 3.68155 0.664259 0
M  V30 4098 H 372.307 4.84025 0.893328 0
M  V30 4099 N 373.959 -0.0401083 1.57549 0
M  V30 4100 C 374.906 -1.04413 2.05831 0
M  V30 4101 C 375.876 -1.36585 0.945184 0
M  V30 4102 O 377.061 -1.47112 1.21502 0
M  V30 4103 C 374.201 -2.34336 2.53339 0
M  V30 4104 C 373.314 -2.08419 3.78398 0
M  V30 4105 C 372.449 -3.32133 4.14561 0
M  V30 4106 C 371.488 -3.01721 5.3257 0
M  V30 4107 N 370.625 -4.17855 5.64218 0
M  V30 4108 H 375.465 -0.625442 2.91363 0
M  V30 4109 H 373.002 -0.297218 1.44066 0
M  V30 4110 H 374.96 -3.10234 2.78946 0
M  V30 4111 H 373.59 -2.73948 1.7074 0
M  V30 4112 H 372.642 -1.23069 3.59942 0
M  V30 4113 H 373.954 -1.81978 4.64419 0
M  V30 4114 H 373.108 -4.16406 4.41238 0
M  V30 4115 H 371.847 -3.61678 3.2717 0
M  V30 4116 H 370.852 -2.15849 5.05657 0
M  V30 4117 H 372.077 -2.73466 6.21605 0
M  V30 4118 H 370.023 -4.47372 4.79786 0
M  V30 4119 H 369.94 -3.94798 6.44725 0
M  V30 4120 H 371.208 -5.03033 5.95465 0
M  V30 4121 N 375.437 -1.54477 -0.31217 0
M  V30 4122 C 376.367 -1.87652 -1.38957 0
M  V30 4123 C 377.348 -0.734358 -1.53431 0
M  V30 4124 O 378.533 -0.98911 -1.67123 0
M  V30 4125 C 375.663 -2.11396 -2.75552 0
M  V30 4126 C 374.617 -3.27243 -2.75855 0
M  V30 4127 C 373.943 -3.36382 -4.15633 0
M  V30 4128 C 375.243 -4.64622 -2.38587 0
M  V30 4129 H 376.937 -2.77887 -1.11442 0
M  V30 4130 H 374.483 -1.33707 -0.534655 0
M  V30 4131 H 376.436 -2.33189 -3.51 0
M  V30 4132 H 375.16 -1.17921 -3.04569 0
M  V30 4133 H 373.819 -3.05356 -2.02863 0
M  V30 4134 H 373.467 -2.40445 -4.41809 0
M  V30 4135 H 373.167 -4.14249 -4.1674 0
M  V30 4136 H 374.691 -3.60422 -4.92877 0
M  V30 4137 H 376.105 -4.86219 -3.03749 0
M  V30 4138 H 374.502 -5.45121 -2.50925 0
M  V30 4139 H 375.572 -4.66097 -1.33723 0
M  V30 4140 N 376.915 0.57481 -1.46744 0
M  V30 4141 C 377.847 1.69804 -1.53946 0
M  V30 4142 C 378.86 1.57098 -0.427106 0
M  V30 4143 O 380.049 1.64378 -0.695863 0
M  V30 4144 C 377.149 3.08125 -1.4111 0
M  V30 4145 C 376.322 3.46757 -2.66605 0
M  V30 4146 C 375.381 4.6417 -2.47855 0
M  V30 4147 O 374.407 4.69634 -3.21609 0
M  V30 4148 N 375.609 5.59553 -1.54534 0
M  V30 4149 H 378.374 1.64077 -2.50796 0
M  V30 4150 H 375.935 0.761 -1.429 0
M  V30 4151 H 377.927 3.84478 -1.26328 0
M  V30 4152 H 376.497 3.08175 -0.524109 0
M  V30 4153 H 375.717 2.6003 -2.96274 0
M  V30 4154 H 377.005 3.69337 -3.49954 0
M  V30 4155 H 376.403 5.57881 -0.937304 0
M  V30 4156 H 374.96 6.35304 -1.45711 0
M  V30 4157 N 378.394 1.34581 0.820102 0
M  V30 4158 C 379.634 1.28448 1.58998 0
M  V30 4159 C 379.998 -0.142883 1.91468 0
M  V30 4160 O 381.199 -0.328422 2.66786 0
M  V30 4161 C 379.47 2.153 2.85273 0
M  V30 4162 S 381.029 2.26548 3.75794 0
M  V30 4163 H 377.847 0.456685 0.54494 0
M  V30 4164 H 380.449 1.69825 0.968487 0
M  V30 4165 H 379.153 3.18008 2.59421 0
M  V30 4166 H 378.684 1.7483 3.52417 0
M  V30 4167 H 380.699 1.44034 4.74835 0
M  V30 4168 N 379.872 -1.04064 1.18357 0
M  V30 4169 C 381.1 -1.80916 1.00384 0
M  V30 4170 C 381.515 -1.83414 -0.447738 0
M  V30 4171 O 380.872 -1.26962 -1.31099 0
M  V30 4172 C 380.923 -3.26516 1.55144 0
M  V30 4173 O 380.644 -3.2424 2.94618 0
M  V30 4174 C 382.145 -4.20013 1.41789 0
M  V30 4175 H 379.365 -0.569728 0.354474 0
M  V30 4176 H 381.909 -1.31151 1.56906 0
M  V30 4177 H 380.064 -3.73512 1.02798 0
M  V30 4178 H 380.478 -4.15452 3.20156 0
M  V30 4179 H 381.952 -5.20111 1.84901 0
M  V30 4180 H 382.429 -4.37667 0.36661 0
M  V30 4181 H 383.035 -3.78881 1.93207 0
M  V30 4182 N 381.35 -0.985608 -1.22978 0
M  V30 4183 C 382.282 -0.488154 -2.23941 0
M  V30 4184 C 383.295 0.41282 -1.57479 0
M  V30 4185 O 384.484 0.216121 -1.77187 0
M  V30 4186 C 381.584 0.312611 -3.37455 0
M  V30 4187 C 380.757 -0.582741 -4.33501 0
M  V30 4188 C 379.816 0.165064 -5.25941 0
M  V30 4189 O 378.842 -0.447077 -5.67442 0
M  V30 4190 N 380.044 1.44953 -5.62111 0
M  V30 4191 H 382.809 -1.3563 -2.67254 0
M  V30 4192 H 380.37 -0.859477 -1.37203 0
M  V30 4193 H 382.362 0.821357 -3.96277 0
M  V30 4194 H 380.932 1.0818 -2.93285 0
M  V30 4195 H 380.152 -1.27225 -3.73105 0
M  V30 4196 H 381.44 -1.19275 -4.94622 0
M  V30 4197 H 380.838 1.9683 -5.30353 0
M  V30 4198 H 379.395 1.90361 -6.23383 0
M  V30 4199 N 382.828 1.3818 -0.7579 0
M  V30 4200 C 384.076 1.99624 -0.315361 0
M  V30 4201 C 384.397 1.60464 1.10799 0
M  V30 4202 O 383.667 0.863507 1.75842 0
M  V30 4203 H 382.247 0.73831 -0.113611 0
M  V30 4204 H 384.909 1.68878 -0.972952 0
M  V30 4205 H 384.005 3.09754 -0.381931 0
M  V30 4206 N 384.306 0.507319 1.49211 0
M  V30 4207 C 385.253 -0.267728 2.29242 0
M  V30 4208 C 386.223 -0.954609 1.35928 0
M  V30 4209 O 387.408 -0.960046 1.64887 0
M  V30 4210 C 384.548 -1.32243 3.18756 0
M  V30 4211 C 383.661 -0.64669 4.27132 0
M  V30 4212 C 382.796 -1.68238 5.03855 0
M  V30 4213 C 381.835 -0.98885 6.0406 0
M  V30 4214 N 380.972 -1.96903 6.73924 0
M  V30 4215 H 385.812 0.420968 2.95012 0
M  V30 4216 H 383.349 0.219443 1.45454 0
M  V30 4217 H 385.307 -1.94599 3.69036 0
M  V30 4218 H 383.937 -1.97981 2.54958 0
M  V30 4219 H 382.989 0.0902926 3.80293 0
M  V30 4220 H 384.301 -0.101058 4.98698 0
M  V30 4221 H 383.455 -2.38081 5.58034 0
M  V30 4222 H 382.194 -2.26187 4.32077 0
M  V30 4223 H 381.199 -0.276222 5.49106 0
M  V30 4224 H 382.424 -0.415767 6.77826 0
M  V30 4225 H 380.37 -2.53803 6.04913 0
M  V30 4226 H 380.287 -1.47423 7.41487 0
M  V30 4227 H 381.555 -2.66015 7.32705 0
M  V30 4228 N 385.784 -1.5574 0.241426 0
M  V30 4229 C 387.061 -1.90704 -0.434881 0
M  V30 4230 C 387.441 -1.16145 -1.76277 0
M  V30 4231 O 386.789 -0.277152 -2.26813 0
M  V30 4232 C 386.999 -3.43657 -0.608343 0
M  V30 4233 C 388.347 -4.14806 -0.906725 0
M  V30 4234 O 389.371 -3.49366 -0.694408 0
M  V30 4235 O 388.23 -5.30548 -1.31075 0
M  V30 4236 H 385.324 -0.793592 -0.23268 0
M  V30 4237 H 387.87 -1.67288 0.285086 0
M  V30 4238 H 386.642 -3.89927 0.327505 0
M  V30 4239 H 386.265 -3.72918 -1.37906 0
M  V30 4240 N 387.262 0.0317525 -1.57568 0
M  V30 4241 C 388.492 0.733884 -1.93126 0
M  V30 4242 C 388.9 1.69563 -0.839352 0
M  V30 4243 O 388.243 1.82681 0.193175 0
M  V30 4244 C 388.305 1.54798 -3.24465 0
M  V30 4245 C 387.969 0.751304 -4.50782 0
M  V30 4246 C 388.966 0.0527632 -5.19873 0
M  V30 4247 C 386.651 0.706639 -4.97305 0
M  V30 4248 C 388.645 -0.679774 -6.33765 0
M  V30 4249 C 386.332 -0.0296449 -6.11093 0
M  V30 4250 C 387.33 -0.721614 -6.79177 0
M  V30 4251 O 387.018 -1.44595 -7.90789 0
M  V30 4252 H 386.75 0.211459 -0.642076 0
M  V30 4253 H 389.304 -0.00585615 -2.05399 0
M  V30 4254 H 387.534 2.33147 -3.08512 0
M  V30 4255 H 389.223 2.13247 -3.4537 0
M  V30 4256 H 389.989 0.0783188 -4.84937 0
M  V30 4257 H 385.868 1.23474 -4.44157 0
M  V30 4258 H 389.412 -1.22042 -6.86842 0
M  V30 4259 H 385.309 -0.0571331 -6.45475 0
M  V30 4260 H 386.077 -1.35935 -8.07133 0
M  V30 4261 N 388.74 1.54641 0.303973 0
M  V30 4262 C 389.67 1.88386 1.3796 0
M  V30 4263 C 390.651 0.742485 1.5304 0
M  V30 4264 O 391.836 0.997959 1.66597 0
M  V30 4265 C 388.966 2.12854 2.74427 0
M  V30 4266 C 387.92 3.28702 2.74115 0
M  V30 4267 C 387.246 3.38582 4.13844 0
M  V30 4268 C 388.546 4.65881 2.3612 0
M  V30 4269 H 390.24 2.78474 1.09966 0
M  V30 4270 H 387.786 1.33988 0.527556 0
M  V30 4271 H 389.739 2.35047 3.49758 0
M  V30 4272 H 388.463 1.19535 3.03939 0
M  V30 4273 H 387.122 3.06428 2.0124 0
M  V30 4274 H 386.77 2.42784 4.40528 0
M  V30 4275 H 386.47 4.16453 4.14537 0
M  V30 4276 H 387.994 3.63031 4.90959 0
M  V30 4277 H 389.408 4.87823 3.01167 0
M  V30 4278 H 387.805 5.46444 2.48031 0
M  V30 4279 H 388.875 4.66799 1.3125 0
M  V30 4280 N 390.218 -0.567019 1.47046 0
M  V30 4281 C 391.495 -1.3276 1.43646 0
M  V30 4282 C 391.875 -2.1071 0.128186 0
M  V30 4283 O 391.223 -2.10441 -0.890326 0
M  V30 4284 C 391.433 -2.2404 2.67595 0
M  V30 4285 C 392.781 -2.85372 3.14401 0
M  V30 4286 O 393.805 -2.34346 2.68254 0
M  V30 4287 O 392.664 -3.78091 3.946 0
M  V30 4288 H 389.758 -0.597293 0.571988 0
M  V30 4289 H 392.304 -0.586735 1.59234 0
M  V30 4290 H 391.076 -1.65975 3.54356 0
M  V30 4291 H 390.699 -3.05439 2.54544 0
M  V30 4292 N 391.696 -1.35014 -0.812953 0
M  V30 4293 C 392.659 -1.27292 -1.90602 0
M  V30 4294 C 393.659 -0.185817 -1.59723 0
M  V30 4295 O 394.849 -0.439102 -1.68575 0
M  V30 4296 C 391.981 -0.967676 -3.26877 0
M  V30 4297 H 393.174 -2.24479 -1.9887 0
M  V30 4298 H 390.727 -1.19446 -1.00808 0
M  V30 4299 H 391.462 0.0005954 -3.243 0
M  V30 4300 H 391.247 -1.75412 -3.50675 0
M  V30 4301 H 392.737 -0.939085 -4.06904 0
M  V30 4302 N 393.175 1.03435 -1.18907 0
M  V30 4303 C 394.105 2.13503 -0.945448 0
M  V30 4304 C 395.086 1.69682 0.119189 0
M  V30 4305 O 396.271 1.94169 -0.034707 0
M  V30 4306 C 393.401 3.44004 -0.477316 0
M  V30 4307 C 392.355 4.0148 -1.48316 0
M  V30 4308 C 391.681 5.27537 -0.872311 0
M  V30 4309 C 392.981 4.36921 -2.86177 0
M  V30 4310 H 394.675 2.34141 -1.86597 0
M  V30 4311 H 392.221 1.12523 -0.898584 0
M  V30 4312 H 394.174 4.20372 -0.294204 0
M  V30 4313 H 392.898 3.23072 0.478786 0
M  V30 4314 H 391.557 3.27201 -1.65332 0
M  V30 4315 H 391.205 5.02917 0.0911752 0
M  V30 4316 H 390.905 5.66954 -1.54393 0
M  V30 4317 H 392.429 6.06576 -0.699871 0
M  V30 4318 H 393.843 5.04248 -2.72776 0
M  V30 4319 H 392.24 4.87405 -3.50081 0
M  V30 4320 H 393.31 3.46466 -3.39248 0
M  V30 4321 N 394.653 0.992116 1.22453 0
M  V30 4322 C 395.93 0.583508 1.86694 0
M  V30 4323 C 396.31 -0.9392 1.89056 0
M  V30 4324 O 395.658 -1.82081 1.38053 0
M  V30 4325 C 395.868 1.20304 3.2761 0
M  V30 4326 C 397.216 1.30308 4.0411 0
M  V30 4327 O 398.24 1.15737 3.36873 0
M  V30 4328 O 397.099 1.53615 5.24466 0
M  V30 4329 H 394.193 0.198129 0.802916 0
M  V30 4330 H 396.739 1.08794 1.30238 0
M  V30 4331 H 395.511 2.24461 3.2052 0
M  V30 4332 H 395.134 0.684144 3.9167 0
M  V30 4333 N 396.131 -1.37776 0.765217 0
M  V30 4334 C 397.061 -2.32945 0.160953 0
M  V30 4335 C 398.042 -1.55454 -0.690516 0
M  V30 4336 O 399.227 -1.83721 -0.629318 0
M  V30 4337 C 396.357 -3.39669 -0.724031 0
M  V30 4338 C 395.311 -4.27992 0.0256173 0
M  V30 4339 C 394.637 -5.25673 -0.978383 0
M  V30 4340 C 395.937 -5.08309 1.20082 0
M  V30 4341 H 397.631 -2.83728 0.955969 0
M  V30 4342 H 395.177 -1.36416 0.461149 0
M  V30 4343 H 397.13 -4.05219 -1.15652 0
M  V30 4344 H 395.854 -2.87396 -1.5515 0
M  V30 4345 H 394.513 -3.63964 0.438812 0
M  V30 4346 H 394.161 -4.69682 -1.80022 0
M  V30 4347 H 393.861 -5.85625 -0.481378 0
M  V30 4348 H 395.385 -5.94098 -1.40995 0
M  V30 4349 H 396.799 -5.67034 0.845307 0
M  V30 4350 H 395.196 -5.77554 1.62947 0
M  V30 4351 H 396.266 -4.41365 2.00811 0
M  V30 4352 N 397.609 -0.515225 -1.4894 0
M  V30 4353 C 398.539 0.244628 -2.32215 0
M  V30 4354 C 399.52 0.949136 -1.41157 0
M  V30 4355 O 400.705 0.937783 -1.70057 0
M  V30 4356 C 397.835 1.30096 -3.22013 0
M  V30 4357 C 396.789 0.715486 -4.21977 0
M  V30 4358 C 396.115 1.87339 -5.00808 0
M  V30 4359 C 397.415 -0.302982 -5.2142 0
M  V30 4360 H 399.109 -0.450501 -2.95991 0
M  V30 4361 H 396.655 -0.218098 -1.42339 0
M  V30 4362 H 398.608 1.84037 -3.79089 0
M  V30 4363 H 397.332 2.02547 -2.56207 0
M  V30 4364 H 395.991 0.197715 -3.66066 0
M  V30 4365 H 395.639 2.58592 -4.31438 0
M  V30 4366 H 395.339 1.48764 -5.68457 0
M  V30 4367 H 396.863 2.41686 -5.60732 0
M  V30 4368 H 398.277 0.148802 -5.73107 0
M  V30 4369 H 396.674 -0.60532 -5.97039 0
M  V30 4370 H 397.744 -1.21395 -4.69459 0
M  V30 4371 N 399.087 1.5561 -0.249682 0
M  V30 4372 C 400.336 1.98187 0.37479 0
M  V30 4373 C 400.649 1.14111 1.58865 0
M  V30 4374 O 401.855 1.46714 2.28445 0
M  V30 4375 C 400.311 3.52661 0.718192 0
M  V30 4376 C 399.919 4.45481 -0.474428 0
M  V30 4377 C 401.663 4.03888 1.3067 0
M  V30 4378 C 399.57 5.91303 -0.107026 0
M  V30 4379 H 398.5 0.740159 0.143808 0
M  V30 4380 H 401.151 1.80125 -0.350336 0
M  V30 4381 H 399.533 3.66429 1.50152 0
M  V30 4382 H 400.707 4.43473 -1.25172 0
M  V30 4383 H 399.022 4.04751 -0.978052 0
M  V30 4384 H 401.619 5.10358 1.59496 0
M  V30 4385 H 401.962 3.51401 2.23211 0
M  V30 4386 H 402.495 3.93457 0.586211 0
M  V30 4387 H 399.234 6.47833 -0.999642 0
M  V30 4388 H 398.754 5.9644 0.634013 0
M  V30 4389 H 400.433 6.46258 0.309807 0
M  V30 4390 N 400.565 -0.0233959 1.57583 0
M  V30 4391 C 401.475 -1.03907 2.10334 0
M  V30 4392 C 402.491 -1.39257 1.04323 0
M  V30 4393 O 403.667 -1.48462 1.36091 0
M  V30 4394 C 400.732 -2.31938 2.57693 0
M  V30 4395 C 399.793 -2.03117 3.78209 0
M  V30 4396 C 399.026 -3.25043 4.233 0
M  V30 4397 O 399.249 -4.35916 3.67876 0
M  V30 4398 O 398.183 -3.10411 5.15683 0
M  V30 4399 H 402.009 -0.620748 2.97288 0
M  V30 4400 H 399.594 -0.240743 1.47448 0
M  V30 4401 H 401.476 -3.07196 2.88458 0
M  V30 4402 H 400.151 -2.73055 1.73847 0
M  V30 4403 H 399.058 -1.25408 3.52454 0
M  V30 4404 H 400.391 -1.66852 4.63056 0
M  V30 4405 N 402.043 -1.548 -0.295768 0
M  V30 4406 C 403.268 -1.78653 -1.05346 0
M  V30 4407 C 403.693 -0.546894 -1.79974 0
M  V30 4408 O 403.051 0.502763 -1.7419 0
M  V30 4409 C 403.099 -2.99679 -2.00561 0
M  V30 4410 O 402.203 -2.7317 -3.08953 0
M  V30 4411 H 401.544 -0.59116 -0.302367 0
M  V30 4412 H 404.074 -2.01895 -0.331598 0
M  V30 4413 H 404.084 -3.27793 -2.42932 0
M  V30 4414 H 402.759 -3.89562 -1.4565 0
M  V30 4415 H 401.336 -2.56089 -2.71059 0
M  V30 4416 N 403.521 0.559213 -1.47345 0
M  V30 4417 C 404.746 1.34676 -1.57725 0
M  V30 4418 C 405.171 1.86723 -0.227164 0
M  V30 4419 O 404.529 1.6286 0.796642 0
M  V30 4420 C 404.577 2.49399 -2.60447 0
M  V30 4421 O 403.681 3.51567 -2.15578 0
M  V30 4422 H 403.022 0.400115 -0.52991 0
M  V30 4423 H 405.552 0.676009 -1.93109 0
M  V30 4424 H 405.562 2.95996 -2.80803 0
M  V30 4425 H 404.237 2.10873 -3.58477 0
M  V30 4426 H 402.814 3.11289 -2.05313 0
M  V30 4427 N 404.999 1.35443 0.805782 0
M  V30 4428 C 405.946 1.28431 1.91766 0
M  V30 4429 C 406.916 0.156102 1.65365 0
M  V30 4430 O 408.101 0.339936 1.87747 0
M  V30 4431 C 405.241 1.06301 3.2832 0
M  V30 4432 C 404.354 2.2805 3.66902 0
M  V30 4433 C 403.489 1.99064 4.92491 0
M  V30 4434 C 402.528 3.16863 5.23703 0
M  V30 4435 N 401.665 2.87647 6.40471 0
M  V30 4436 H 406.505 2.23511 1.97096 0
M  V30 4437 H 404.042 1.11105 0.964054 0
M  V30 4438 H 406 0.915012 4.07042 0
M  V30 4439 H 404.63 0.148822 3.22457 0
M  V30 4440 H 403.682 2.53711 2.83434 0
M  V30 4441 H 404.994 3.1601 3.85927 0
M  V30 4442 H 404.148 1.81099 5.7904 0
M  V30 4443 H 402.887 1.0839 4.75503 0
M  V30 4444 H 401.892 3.35404 4.35642 0
M  V30 4445 H 403.117 4.08339 5.4262 0
M  V30 4446 H 401.063 1.99568 6.24907 0
M  V30 4447 H 400.98 3.69141 6.59751 0
M  V30 4448 H 402.248 2.73226 7.30047 0
M  V30 4449 N 406.477 -1.02803 1.19454 0
M  V30 4450 C 407.387 -2.14575 0.948408 0
M  V30 4451 C 408.403 -1.73757 -0.091871 0
M  V30 4452 O 409.579 -2.01185 0.0929654 0
M  V30 4453 C 406.644 -3.43202 0.491265 0
M  V30 4454 C 405.705 -3.98328 1.60103 0
M  V30 4455 C 404.938 -5.20816 1.16561 0
M  V30 4456 O 405.161 -5.70392 0.0295238 0
M  V30 4457 O 404.095 -5.68801 1.96849 0
M  V30 4458 H 407.921 -2.38202 1.88397 0
M  V30 4459 H 405.506 -1.12989 0.977433 0
M  V30 4460 H 407.388 -4.20687 0.245015 0
M  V30 4461 H 406.063 -3.21018 -0.415851 0
M  V30 4462 H 404.97 -3.22174 1.90144 0
M  V30 4463 H 406.303 -4.24879 2.48473 0
M  V30 4464 N 407.956 -0.998596 -1.21925 0
M  V30 4465 C 408.906 -0.524743 -2.21879 0
M  V30 4466 C 409.89 0.41017 -1.55584 0
M  V30 4467 O 411.082 0.236063 -1.75419 0
M  V30 4468 C 408.211 0.153636 -3.42956 0
M  V30 4469 C 407.297 -0.801918 -4.16449 0
M  V30 4470 N 407.688 -1.95211 -4.66611 0
M  V30 4471 C 405.986 -0.618972 -4.41684 0
M  V30 4472 C 406.687 -2.55234 -5.22715 0
M  V30 4473 N 405.663 -1.83451 -5.1171 0
M  V30 4474 H 409.465 -1.40189 -2.58311 0
M  V30 4475 H 406.979 -0.86159 -1.3766 0
M  V30 4476 H 408.976 0.510534 -4.13762 0
M  V30 4477 H 407.636 1.02684 -3.08036 0
M  V30 4478 H 408.647 -2.33271 -4.62391 0
M  V30 4479 H 405.324 0.207694 -4.16983 0
M  V30 4480 H 406.714 -3.52471 -5.72026 0
M  V30 4481 N 409.434 1.37368 -0.772513 0
M  V30 4482 C 410.682 1.99279 -0.336516 0
M  V30 4483 C 411.003 1.6163 1.09091 0
M  V30 4484 O 410.273 0.882109 1.74916 0
M  V30 4485 H 408.853 0.737063 -0.121435 0
M  V30 4486 H 411.515 1.67836 -0.990809 0
M  V30 4487 H 410.611 3.09332 -0.414763 0
M  V30 4488 N 410.912 0.523116 1.48665 0
M  V30 4489 C 411.859 -0.243398 2.29513 0
M  V30 4490 C 412.829 -0.940139 1.36933 0
M  V30 4491 O 414.014 -0.942503 1.65896 0
M  V30 4492 C 411.154 -1.28855 3.20141 0
M  V30 4493 C 410.267 -0.60135 4.27794 0
M  V30 4494 C 409.402 -1.62884 5.05611 0
M  V30 4495 C 408.441 -0.924726 6.05075 0
M  V30 4496 N 407.578 -1.89744 6.75975 0
M  V30 4497 H 412.418 0.452234 2.94549 0
M  V30 4498 H 409.955 0.234858 1.45213 0
M  V30 4499 H 411.913 -1.90674 3.71079 0
M  V30 4500 H 410.543 -1.95266 2.57043 0
M  V30 4501 H 409.595 0.130623 3.80176 0
M  V30 4502 H 410.907 -0.0481585 4.98777 0
M  V30 4503 H 410.061 -2.32149 5.60528 0
M  V30 4504 H 408.8 -2.21592 4.34452 0
M  V30 4505 H 407.805 -0.217966 5.49368 0
M  V30 4506 H 409.03 -0.343851 6.78229 0
M  V30 4507 H 406.976 -2.47373 6.07571 0
M  V30 4508 H 406.893 -1.3955 7.43009 0
M  V30 4509 H 408.161 -2.58229 7.35485 0
M  V30 4510 N 412.39 -1.55475 0.257931 0
M  V30 4511 C 413.3 -2.2549 -0.647425 0
M  V30 4512 C 414.316 -1.2748 -1.18427 0
M  V30 4513 O 415.492 -1.6038 -1.2182 0
M  V30 4514 C 412.557 -2.94916 -1.82278 0
M  V30 4515 C 411.618 -4.08363 -1.32432 0
M  V30 4516 C 410.851 -4.74469 -2.44366 0
M  V30 4517 O 411.074 -4.39701 -3.63344 0
M  V30 4518 O 410.008 -5.62763 -2.13497 0
M  V30 4519 H 413.834 -3.03593 -0.0807707 0
M  V30 4520 H 411.419 -1.49377 0.0259962 0
M  V30 4521 H 413.301 -3.38606 -2.50846 0
M  V30 4522 H 411.976 -2.19744 -2.37685 0
M  V30 4523 H 410.883 -3.69166 -0.605605 0
M  V30 4524 H 412.216 -4.85385 -0.816211 0
M  V30 4525 N 413.868 0.0150385 -1.57593 0
M  V30 4526 C 414.801 1.04475 -2.0288 0
M  V30 4527 C 415.779 1.3436 -0.915764 0
M  V30 4528 O 416.963 1.46779 -1.18271 0
M  V30 4529 C 414.09 2.37608 -2.41371 0
M  V30 4530 C 413.136 2.23487 -3.63257 0
M  V30 4531 S 413.969 1.57505 -5.11813 0
M  V30 4532 C 415.125 2.921 -5.5356 0
M  V30 4533 H 415.358 0.65907 -2.89903 0
M  V30 4534 H 412.891 0.225452 -1.52745 0
M  V30 4535 H 414.849 3.14165 -2.64217 0
M  V30 4536 H 413.51 2.7332 -1.54775 0
M  V30 4537 H 412.703 3.21802 -3.87891 0
M  V30 4538 H 412.305 1.55074 -3.40335 0
M  V30 4539 H 414.597 3.88419 -5.55101 0
M  V30 4540 H 415.54 2.72184 -6.53698 0
M  V30 4541 H 415.948 2.95318 -4.8109 0
M  V30 4542 N 415.346 1.54954 0.287554 0
M  V30 4543 C 416.574 1.78881 1.03967 0
M  V30 4544 C 416.989 0.554894 1.80462 0
M  V30 4545 O 416.346 -0.475676 1.76192 0
M  V30 4546 C 416.397 3.00488 2.0097 0
M  V30 4547 O 416.118 4.19113 1.27577 0
M  V30 4548 C 417.619 3.36907 2.88112 0
M  V30 4549 H 414.839 0.596259 0.307761 0
M  V30 4550 H 417.383 2.01937 0.322749 0
M  V30 4551 H 415.538 2.79601 2.68145 0
M  V30 4552 H 415.952 4.87765 1.92835 0
M  V30 4553 H 417.426 4.25205 3.52001 0
M  V30 4554 H 417.903 2.55659 3.57121 0
M  V30 4555 H 418.509 3.60001 2.26449 0
M  V30 4556 N 416.824 -0.551391 1.4764 0
M  V30 4557 C 417.757 -1.6738 1.5511 0
M  V30 4558 C 418.735 -1.5753 0.402856 0
M  V30 4559 O 419.919 -1.78307 0.611475 0
M  V30 4560 C 417.046 -3.05661 1.45908 0
M  V30 4561 C 416.092 -3.33938 2.65307 0
M  V30 4562 S 416.925 -3.22553 4.27457 0
M  V30 4563 C 418.081 -4.63317 4.20818 0
M  V30 4564 H 418.314 -1.6079 2.50068 0
M  V30 4565 H 415.847 -0.732674 1.35909 0
M  V30 4566 H 417.805 -3.8542 1.41286 0
M  V30 4567 H 416.466 -3.09711 0.523248 0
M  V30 4568 H 415.659 -4.34761 2.54948 0
M  V30 4569 H 415.261 -2.61809 2.67081 0
M  V30 4570 H 417.553 -5.54391 3.89431 0
M  V30 4571 H 418.496 -4.78732 5.21748 0
M  V30 4572 H 418.904 -4.41636 3.51593 0
M  V30 4573 N 418.302 -1.35869 -0.798587 0
M  V30 4574 C 419.234 -1.25305 -1.91915 0
M  V30 4575 C 420.247 -0.174548 -1.61862 0
M  V30 4576 O 421.436 -0.428499 -1.73281 0
M  V30 4577 C 418.536 -0.9086 -3.26493 0
M  V30 4578 C 417.709 -2.08711 -3.84394 0
M  V30 4579 C 416.768 -1.71717 -4.97393 0
M  V30 4580 O 415.794 -2.43692 -5.14396 0
M  V30 4581 N 416.996 -0.645473 -5.769 0
M  V30 4582 H 419.761 -2.21849 -2.01502 0
M  V30 4583 H 417.322 -1.29143 -0.976408 0
M  V30 4584 H 419.314 -0.642455 -3.99568 0
M  V30 4585 H 417.884 -0.0325815 -3.12583 0
M  V30 4586 H 417.104 -2.51659 -3.03416 0
M  V30 4587 H 418.392 -2.87468 -4.19809 0
M  V30 4588 H 417.79 -0.047648 -5.6568 0
M  V30 4589 H 416.347 -0.43913 -6.50319 0
M  V30 4590 N 419.78 1.02168 -1.19998 0
M  V30 4591 C 420.69 2.14069 -0.959774 0
M  V30 4592 C 421.706 1.73804 0.082655 0
M  V30 4593 O 422.882 2.01133 -0.103633 0
M  V30 4594 C 419.947 3.42936 -0.509459 0
M  V30 4595 C 419.008 3.97474 -1.62213 0
M  V30 4596 C 418.241 5.2019 -1.19321 0
M  V30 4597 O 418.464 5.70369 -0.0597726 0
M  V30 4598 O 417.398 5.67749 -1.99863 0
M  V30 4599 H 421.224 2.37199 -1.89658 0
M  V30 4600 H 418.809 1.12469 -0.983411 0
M  V30 4601 H 420.691 4.20551 -0.267322 0
M  V30 4602 H 419.366 3.21234 0.398821 0
M  V30 4603 H 418.273 3.21161 -1.9185 0
M  V30 4604 H 419.606 4.23555 -2.50723 0
M  V30 4605 N 421.258 1.00505 1.21394 0
M  V30 4606 C 422.188 0.585684 2.26035 0
M  V30 4607 C 423.169 -0.393525 1.65485 0
M  V30 4608 O 424.354 -0.281497 1.92149 0
M  V30 4609 C 421.484 -0.0884283 3.47187 0
M  V30 4610 C 420.438 0.810567 4.20254 0
M  V30 4611 C 419.764 0.00286382 5.347 0
M  V30 4612 C 421.064 2.1132 4.77641 0
M  V30 4613 H 422.758 1.46039 2.61368 0
M  V30 4614 H 420.304 0.703648 1.25638 0
M  V30 4615 H 422.257 -0.393286 4.19561 0
M  V30 4616 H 420.981 -0.997766 3.10986 0
M  V30 4617 H 419.64 1.09925 3.49731 0
M  V30 4618 H 419.288 -0.907765 4.94741 0
M  V30 4619 H 418.988 0.601444 5.84514 0
M  V30 4620 H 420.512 -0.295808 6.09883 0
M  V30 4621 H 421.926 1.87148 5.41893 0
M  V30 4622 H 420.323 2.66164 5.37845 0
M  V30 4623 H 421.393 2.78393 3.9702 0
M  V30 4624 N 422.737 -1.36956 0.779787 0
M  V30 4625 C 423.684 -2.30175 0.169697 0
M  V30 4626 C 424.654 -1.51501 -0.68094 0
M  V30 4627 O 425.839 -1.80042 -0.631629 0
M  V30 4628 C 422.979 -3.37985 -0.697131 0
M  V30 4629 C 422.092 -4.31661 0.170992 0
M  V30 4630 C 421.227 -5.2655 -0.701298 0
M  V30 4631 C 420.266 -6.11867 0.168869 0
M  V30 4632 N 419.403 -6.98973 -0.661855 0
M  V30 4633 H 424.243 -2.81767 0.970135 0
M  V30 4634 H 421.78 -1.38699 0.489994 0
M  V30 4635 H 423.738 -3.99128 -1.2146 0
M  V30 4636 H 422.368 -2.87739 -1.46309 0
M  V30 4637 H 421.42 -3.71756 0.80634 0
M  V30 4638 H 422.732 -4.91644 0.841875 0
M  V30 4639 H 421.886 -5.92937 -1.28494 0
M  V30 4640 H 420.625 -4.66998 -1.40584 0
M  V30 4641 H 419.63 -5.44452 0.764986 0
M  V30 4642 H 420.855 -6.73493 0.870863 0
M  V30 4643 H 418.801 -6.41941 -1.35086 0
M  V30 4644 H 418.718 -7.55984 -0.0484447 0
M  V30 4645 H 419.986 -7.6974 -1.22963 0
M  V30 4646 N 424.215 -0.530993 -1.48385 0
M  V30 4647 C 425.492 0.0671788 -1.95485 0
M  V30 4648 C 425.872 1.51191 -1.47324 0
M  V30 4649 O 425.22 2.17507 -0.700202 0
M  V30 4650 C 425.43 -0.0511206 -3.48963 0
M  V30 4651 C 426.778 0.107632 -4.24464 0
M  V30 4652 O 427.802 0.0226248 -3.56193 0
M  V30 4653 O 426.661 0.285972 -5.45751 0
M  V30 4654 H 423.755 0.0787365 -0.823243 0
M  V30 4655 H 426.301 -0.595662 -1.58902 0
M  V30 4656 H 425.073 -1.05747 -3.7674 0
M  V30 4657 H 424.696 0.650525 -3.92242 0
M  V30 4658 N 425.693 1.55336 -0.266172 0
M  V30 4659 C 426.941 1.99003 0.35246 0
M  V30 4660 C 427.262 1.15591 1.57047 0
M  V30 4661 O 426.532 0.243268 1.94384 0
M  V30 4662 H 425.112 0.735025 0.133217 0
M  V30 4663 H 427.774 1.91367 -0.369434 0
M  V30 4664 H 426.87 3.05289 0.648453 0
M  V30 4665 N 427.171 -0.0066808 1.57599 0
M  V30 4666 C 428.399 -0.704087 1.94551 0
M  V30 4667 C 428.814 -1.67677 0.867746 0
M  V30 4668 O 428.171 -1.8185 -0.153925 0
M  V30 4669 C 428.222 -1.44177 3.31505 0
M  V30 4670 O 427.943 -0.508097 4.35144 0
M  V30 4671 C 429.444 -2.23429 3.82876 0
M  V30 4672 H 426.664 -0.196523 0.641576 0
M  V30 4673 H 429.208 0.042453 2.04456 0
M  V30 4674 H 427.363 -2.13999 3.22929 0
M  V30 4675 H 427.777 -1.02782 5.14331 0
M  V30 4676 H 429.251 -2.70552 4.8115 0
M  V30 4677 H 429.728 -3.05818 3.15233 0
M  V30 4678 H 430.334 -1.58636 3.94607 0
M  V30 4679 N 428.649 -1.55105 -0.279332 0
M  V30 4680 C 429.579 -1.90557 -1.34945 0
M  V30 4681 C 430.56 -0.766738 -1.51839 0
M  V30 4682 O 431.745 -1.02434 -1.64988 0
M  V30 4683 C 428.875 -2.17193 -2.71006 0
M  V30 4684 C 427.829 -3.33021 -2.68851 0
M  V30 4685 C 427.155 -3.45123 -4.08405 0
M  V30 4686 C 428.455 -4.69578 -2.28678 0
M  V30 4687 H 430.149 -2.80188 -1.05522 0
M  V30 4688 H 427.695 -1.34811 -0.506173 0
M  V30 4689 H 429.648 -2.40581 -3.45975 0
M  V30 4690 H 428.372 -1.24355 -3.01999 0
M  V30 4691 H 427.031 -3.0959 -1.9634 0
M  V30 4692 H 426.679 -2.49762 -4.3661 0
M  V30 4693 H 426.379 -4.22995 -4.07859 0
M  V30 4694 H 427.903 -3.70796 -4.85121 0
M  V30 4695 H 429.317 -4.92553 -2.93368 0
M  V30 4696 H 427.714 -5.5032 -2.39306 0
M  V30 4697 H 428.784 -4.68828 -1.23807 0
M  V30 4698 N 430.127 0.543554 -1.4793 0
M  V30 4699 C 431.037 1.67657 -1.64098 0
M  V30 4700 C 432.053 1.65934 -0.523622 0
M  V30 4701 O 433.229 1.85133 -0.792943 0
M  V30 4702 C 430.294 3.04146 -1.66421 0
M  V30 4703 C 429.355 3.16831 -2.89684 0
M  V30 4704 C 428.588 4.46809 -2.91886 0
M  V30 4705 O 428.811 5.33095 -2.02895 0
M  V30 4706 O 427.745 4.63573 -3.83906 0
M  V30 4707 H 431.571 1.56957 -2.59997 0
M  V30 4708 H 429.156 0.715116 -1.31173 0
M  V30 4709 H 431.038 3.85346 -1.70548 0
M  V30 4710 H 429.713 3.152 -0.736923 0
M  V30 4711 H 428.62 2.34977 -2.91095 0
M  V30 4712 H 429.953 3.10687 -3.81752 0
M  V30 4713 N 431.605 1.3629 0.791371 0
M  V30 4714 C 432.535 1.33137 1.91825 0
M  V30 4715 C 433.516 0.203168 1.68882 0
M  V30 4716 O 434.701 0.400509 1.90025 0
M  V30 4717 C 431.831 1.11793 3.28816 0
M  V30 4718 C 430.785 2.21417 3.66277 0
M  V30 4719 C 430.111 1.85218 5.01596 0
M  V30 4720 C 431.411 3.63489 3.75064 0
M  V30 4721 H 433.105 2.2743 1.9472 0
M  V30 4722 H 430.651 1.09479 0.935437 0
M  V30 4723 H 432.604 1.08222 4.07266 0
M  V30 4724 H 431.328 0.139501 3.26302 0
M  V30 4725 H 429.987 2.2411 2.90121 0
M  V30 4726 H 429.635 0.859544 4.95602 0
M  V30 4727 H 429.335 2.58611 5.27631 0
M  V30 4728 H 430.859 1.832 5.82469 0
M  V30 4729 H 432.273 3.63034 4.43711 0
M  V30 4730 H 430.67 4.35771 4.12582 0
M  V30 4731 H 431.74 3.98536 2.76219 0
M  V30 4732 N 433.083 -1.0153 1.20538 0
M  V30 4733 C 434.332 -1.74558 1.01057 0
M  V30 4734 C 434.645 -1.90168 -0.457756 0
M  V30 4735 O 435.851 -2.60301 -0.771722 0
M  V30 4736 C 434.307 -3.13963 1.75941 0
M  V30 4737 C 433.915 -3.06361 3.26875 0
M  V30 4738 C 435.659 -3.91191 1.64832 0
M  V30 4739 C 433.566 -4.40782 3.94291 0
M  V30 4740 H 432.496 -0.654417 0.374505 0
M  V30 4741 H 435.147 -1.13521 1.44171 0
M  V30 4742 H 433.529 -3.75549 1.25614 0
M  V30 4743 H 434.703 -2.54074 3.84425 0
M  V30 4744 H 433.018 -2.42625 3.38411 0
M  V30 4745 H 435.615 -4.90644 2.12539 0
M  V30 4746 H 435.958 -4.11884 0.604745 0
M  V30 4747 H 436.491 -3.36236 2.12579 0
M  V30 4748 H 433.23 -4.25292 4.98805 0
M  V30 4749 H 432.75 -4.9307 3.41529 0
M  V30 4750 H 434.429 -5.09621 3.98617 0
M  V30 4751 N 434.561 -1.01147 -1.20859 0
M  V30 4752 C 435.808 -0.697865 -1.90095 0
M  V30 4753 C 436.136 0.772014 -1.78522 0
M  V30 4754 O 435.391 1.57595 -1.16027 0
M  V30 4755 C 435.69 -1.0727 -3.40922 0
M  V30 4756 C 435.356 -2.53792 -3.72693 0
M  V30 4757 C 434.018 -2.93829 -3.81075 0
M  V30 4758 C 436.37 -3.48674 -3.87397 0
M  V30 4759 C 433.698 -4.27696 -4.01613 0
M  V30 4760 C 436.05 -4.82223 -4.09444 0
M  V30 4761 C 434.714 -5.21973 -4.16054 0
M  V30 4762 H 433.984 -0.255367 -0.695607 0
M  V30 4763 H 436.631 -1.27111 -1.43231 0
M  V30 4764 H 434.936 -0.417799 -3.89566 0
M  V30 4765 H 436.633 -0.807818 -3.92779 0
M  V30 4766 H 433.223 -2.21768 -3.66765 0
M  V30 4767 H 437.407 -3.18904 -3.80281 0
M  V30 4768 H 432.663 -4.58055 -4.04964 0
M  V30 4769 H 436.837 -5.55672 -4.19763 0
M  V30 4770 H 434.464 -6.25717 -4.31721 0
M  V30 4771 N 436.039 1.36541 -0.78704 0
M  V30 4772 C 437.002 2.28413 -0.189778 0
M  V30 4773 C 438.002 1.48719 0.611499 0
M  V30 4774 O 439.192 1.68737 0.432842 0
M  V30 4775 C 436.324 3.32824 0.737638 0
M  V30 4776 H 437.517 2.82743 -0.999831 0
M  V30 4777 H 435.07 1.46065 -0.556298 0
M  V30 4778 H 435.805 2.83646 1.57212 0
M  V30 4779 H 435.59 3.91752 0.165044 0
M  V30 4780 H 437.08 4.0144 1.15047 0
M  V30 4781 N 437.518 0.538854 1.48102 0
M  V30 4782 C 438.481 -0.208395 2.28251 0
M  V30 4783 C 439.481 -0.859656 1.35892 0
M  V30 4784 O 440.671 -0.71834 1.58699 0
M  V30 4785 C 437.803 -1.30252 3.15035 0
M  V30 4786 H 438.996 0.495407 2.9578 0
M  V30 4787 H 436.549 0.295112 1.53489 0
M  V30 4788 H 437.284 -2.0393 2.52157 0
M  V30 4789 H 437.069 -0.840551 3.82985 0
M  V30 4790 H 438.559 -1.82787 3.75471 0
M  V30 4791 N 438.996 -1.55193 0.274407 0
M  V30 4792 C 440.226 -2.03692 -0.345442 0
M  V30 4793 C 440.634 -1.15224 -1.50067 0
M  V30 4794 O 439.977 -0.164749 -1.8296 0
M  V30 4795 C 440.039 -3.48325 -0.88939 0
M  V30 4796 C 439.703 -4.56794 0.137115 0
M  V30 4797 C 440.7 -5.11028 0.956378 0
M  V30 4798 C 438.385 -5.01568 0.27115 0
M  V30 4799 C 440.379 -6.08552 1.89587 0
M  V30 4800 C 438.066 -5.98918 1.21412 0
M  V30 4801 C 439.064 -6.52291 2.02498 0
M  V30 4802 O 438.752 -7.47738 2.952 0
M  V30 4803 H 438.484 -0.670893 -0.0829332 0
M  V30 4804 H 441.038 -2.01387 0.404056 0
M  V30 4805 H 439.268 -3.47867 -1.68895 0
M  V30 4806 H 440.957 -3.80167 -1.42225 0
M  V30 4807 H 441.723 -4.7725 0.863559 0
M  V30 4808 H 437.602 -4.5967 -0.349987 0
M  V30 4809 H 441.146 -6.50137 2.52918 0
M  V30 4810 H 437.043 -6.32114 1.30776 0
M  V30 4811 H 437.811 -7.65451 2.89874 0
M  V30 4812 N 440.474 -0.00167713 -1.576 0
M  V30 4813 C 441.437 0.974046 -2.07473 0
M  V30 4814 C 442.437 1.27143 -0.984444 0
M  V30 4815 O 443.627 1.21633 -1.24703 0
M  V30 4816 C 440.759 2.29849 -2.51759 0
M  V30 4817 H 441.952 0.54262 -2.9495 0
M  V30 4818 H 439.505 0.245829 -1.54355 0
M  V30 4819 H 440.24 2.77677 -1.67529 0
M  V30 4820 H 440.025 2.09584 -3.31386 0
M  V30 4821 H 441.515 2.9984 -2.90664 0
M  V30 4822 N 441.952 1.55251 0.271103 0
M  V30 4823 C 443.18 1.79974 1.02064 0
M  V30 4824 C 443.595 0.574003 1.79863 0
M  V30 4825 O 442.952 -0.456962 1.76686 0
M  V30 4826 C 443.003 3.02603 1.97772 0
M  V30 4827 O 442.724 4.20443 1.23124 0
M  V30 4828 C 444.225 3.39944 2.84522 0
M  V30 4829 H 441.445 0.599489 0.301419 0
M  V30 4830 H 443.989 2.02268 0.301313 0
M  V30 4831 H 442.144 2.8243 2.65165 0
M  V30 4832 H 442.558 4.89783 1.87651 0
M  V30 4833 H 444.032 4.28915 3.47471 0
M  V30 4834 H 444.509 2.59432 3.54389 0
M  V30 4835 H 445.115 3.62383 2.22618 0
M  V30 4836 N 443.43 -0.535701 1.48216 0
M  V30 4837 C 444.658 -1.31671 1.59594 0
M  V30 4838 C 445.073 -1.87083 0.254056 0
M  V30 4839 O 444.43 -1.66112 -0.755854 0
M  V30 4840 C 444.481 -2.47158 2.63809 0
M  V30 4841 O 444.202 -1.94032 3.92789 0
M  V30 4842 C 445.703 -3.39062 2.85573 0
M  V30 4843 H 442.923 -0.400623 0.538277 0
M  V30 4844 H 445.467 -0.646827 1.94001 0
M  V30 4845 H 443.622 -3.10043 2.32276 0
M  V30 4846 H 444.036 -2.69585 4.49916 0
M  V30 4847 H 445.51 -4.16459 3.62306 0
M  V30 4848 H 445.987 -3.93941 1.94184 0
M  V30 4849 H 446.593 -2.81975 3.18387 0
M  V30 4850 N 444.908 -1.36708 -0.784132 0
M  V30 4851 C 445.871 -1.31307 -1.87859 0
M  V30 4852 C 446.871 -0.219654 -1.59293 0
M  V30 4853 O 448.061 -0.47476 -1.67606 0
M  V30 4854 C 445.193 -1.03679 -3.24751 0
M  V30 4855 H 446.386 -2.28647 -1.94064 0
M  V30 4856 H 443.939 -1.21558 -0.98252 0
M  V30 4857 H 444.674 -0.0681936 -3.24228 0
M  V30 4858 H 444.459 -1.82811 -3.46876 0
M  V30 4859 H 445.949 -1.02518 -4.04821 0
M  V30 4860 N 446.386 1.0089 -1.21074 0
M  V30 4861 C 447.611 1.78727 -1.05221 0
M  V30 4862 C 448.036 1.83932 0.393795 0
M  V30 4863 O 447.394 1.28004 1.28393 0
M  V30 4864 C 447.442 3.20665 -1.64944 0
M  V30 4865 O 446.546 4.02632 -0.892273 0
M  V30 4866 H 445.887 0.550973 -0.370574 0
M  V30 4867 H 448.417 1.26847 -1.60534 0
M  V30 4868 H 448.427 3.71352 -1.69002 0
M  V30 4869 H 447.102 3.16191 -2.70177 0
M  V30 4870 H 445.679 3.61207 -0.926492 0
M  V30 4871 N 447.864 1.01787 1.20321 0
M  V30 4872 C 448.827 0.593972 2.2137 0
M  V30 4873 C 449.827 -0.336553 1.57239 0
M  V30 4874 O 451.017 -0.125069 1.7375 0
M  V30 4875 C 448.149 -0.132433 3.40643 0
M  V30 4876 H 449.342 1.48791 2.60387 0
M  V30 4877 H 446.895 0.807803 1.33807 0
M  V30 4878 H 447.63 -1.04123 3.0713 0
M  V30 4879 H 447.415 0.53605 3.88418 0
M  V30 4880 H 448.905 -0.416314 4.1552 0
M  V30 4881 N 449.342 -1.36122 0.79427 0
M  V30 4882 C 450.567 -2.03891 0.379871 0
M  V30 4883 C 450.992 -1.59488 -0.997251 0
M  V30 4884 O 450.35 -0.765652 -1.64339 0
M  V30 4885 C 450.398 -3.57687 0.457442 0
M  V30 4886 O 449.502 -4.08931 -0.5338 0
M  V30 4887 H 448.843 -0.6443 0.160541 0
M  V30 4888 H 451.373 -1.73976 1.07673 0
M  V30 4889 H 451.383 -4.06721 0.322792 0
M  V30 4890 H 450.058 -3.89357 1.46199 0
M  V30 4891 H 448.635 -3.71154 -0.360409 0
M  V30 4892 N 450.82 -0.546701 -1.47814 0
M  V30 4893 C 452.048 -0.0232857 -2.06887 0
M  V30 4894 C 452.463 1.26571 -1.4009 0
M  V30 4895 O 451.82 1.7569 -0.493906 0
M  V30 4896 C 451.871 0.186975 -3.61016 0
M  V30 4897 O 451.592 -1.05097 -4.25307 0
M  V30 4898 C 453.093 0.748872 -4.36929 0
M  V30 4899 H 450.313 -0.0410763 -0.669742 0
M  V30 4900 H 452.857 -0.757117 -1.89968 0
M  V30 4901 H 451.012 0.870903 -3.77484 0
M  V30 4902 H 451.426 -0.842121 -5.17695 0
M  V30 4903 H 452.9 0.845334 -5.45489 0
M  V30 4904 H 453.377 1.75772 -4.02493 0
M  V30 4905 H 453.983 0.100979 -4.2518 0
M  V30 4906 N 452.299 1.55045 -0.282633 0
M  V30 4907 C 453.524 2.04628 0.337977 0
M  V30 4908 C 453.949 1.15937 1.48123 0
M  V30 4909 O 453.307 0.159532 1.80597 0
M  V30 4910 C 453.355 3.51854 0.78936 0
M  V30 4911 O 452.459 3.66236 1.89592 0
M  V30 4912 H 451.8 0.660434 0.0687261 0
M  V30 4913 H 454.33 2.00261 -0.419124 0
M  V30 4914 H 454.34 3.93361 1.08311 0
M  V30 4915 H 453.015 4.15873 -0.0470419 0
M  V30 4916 H 451.592 3.36633 1.60413 0
M  V30 4917 N 453.777 0.010035 1.57597 0
M  V30 4918 C 454.707 -0.976857 2.12084 0
M  V30 4919 C 455.688 -1.35191 1.03235 0
M  V30 4920 O 456.873 -1.43389 1.3097 0
M  V30 4921 C 454.003 -2.26548 2.63236 0
M  V30 4922 C 452.957 -2.03175 3.76701 0
M  V30 4923 C 452.283 -3.38138 4.14206 0
M  V30 4924 C 453.583 -1.38625 5.03568 0
M  V30 4925 H 455.277 -0.523145 2.94794 0
M  V30 4926 H 452.823 -0.250195 1.4181 0
M  V30 4927 H 454.776 -2.95952 2.99984 0
M  V30 4928 H 453.5 -2.74051 1.77661 0
M  V30 4929 H 452.159 -1.36195 3.40362 0
M  V30 4930 H 451.807 -3.83363 3.25641 0
M  V30 4931 H 451.507 -3.23312 4.90656 0
M  V30 4932 H 453.031 -4.08841 4.53521 0
M  V30 4933 H 454.445 -1.98 5.38023 0
M  V30 4934 H 452.842 -1.34256 5.84889 0
M  V30 4935 H 453.912 -0.356722 4.83586 0
M  V30 4936 N 455.255 -1.55392 -0.262866 0
M  V30 4937 C 456.504 -1.75679 -0.990943 0
M  V30 4938 C 456.817 -0.57097 -1.87081 0
M  V30 4939 O 458.023 -0.656486 -2.63444 0
M  V30 4940 C 456.479 -3.10964 -1.81188 0
M  V30 4941 C 456.087 -4.37146 -0.980188 0
M  V30 4942 C 457.831 -3.40597 -2.53365 0
M  V30 4943 C 455.738 -5.63466 -1.7961 0
M  V30 4944 H 454.668 -0.654868 -0.373716 0
M  V30 4945 H 457.319 -1.81841 -0.246203 0
M  V30 4946 H 455.701 -2.98867 -2.59797 0
M  V30 4947 H 456.875 -4.60187 -0.237558 0
M  V30 4948 H 455.19 -4.14731 -0.372497 0
M  V30 4949 H 457.787 -4.32186 -3.14833 0
M  V30 4950 H 458.13 -2.6119 -3.24169 0
M  V30 4951 H 458.663 -3.53838 -1.81779 0
M  V30 4952 H 455.402 -6.4565 -1.13209 0
M  V30 4953 H 454.922 -5.44552 -2.51443 0
M  V30 4954 H 456.601 -6.02139 -2.36723 0
M  V30 4955 N 456.733 0.527833 -1.48498 0
M  V30 4956 C 457.666 1.64892 -1.57753 0
M  V30 4957 C 458.644 1.5687 -0.427867 0
M  V30 4958 O 459.828 1.77311 -0.639764 0
M  V30 4959 C 456.955 3.03301 -1.50752 0
M  V30 4960 C 456.001 3.29675 -2.70586 0
M  V30 4961 S 456.834 3.15712 -4.32535 0
M  V30 4962 C 457.99 4.56564 -4.28136 0
M  V30 4963 H 458.223 1.56792 -2.52594 0
M  V30 4964 H 455.756 0.710959 -1.37057 0
M  V30 4965 H 457.714 3.83123 -1.474 0
M  V30 4966 H 456.375 3.08839 -0.572454 0
M  V30 4967 H 455.568 4.3065 -2.61833 0
M  V30 4968 H 455.17 2.57526 -2.71212 0
M  V30 4969 H 457.462 5.48126 -3.98201 0
M  V30 4970 H 458.405 4.70371 -5.29298 0
M  V30 4971 H 458.813 4.35987 -3.58574 0
M  V30 4972 N 458.211 1.37122 0.776871 0
M  V30 4973 C 459.143 1.28342 1.89897 0
M  V30 4974 C 460.156 0.200277 1.61563 0
M  V30 4975 O 461.345 0.456012 1.72577 0
M  V30 4976 C 458.445 0.960427 3.25006 0
M  V30 4977 C 457.618 2.148 3.81025 0
M  V30 4978 C 456.677 1.79608 4.94598 0
M  V30 4979 O 455.703 2.51845 5.10454 0
M  V30 4980 N 456.905 0.737171 5.758 0
M  V30 4981 H 459.67 2.25027 1.97947 0
M  V30 4982 H 457.231 1.3068 0.955739 0
M  V30 4983 H 459.223 0.705942 3.98495 0
M  V30 4984 H 457.793 0.0823066 3.12492 0
M  V30 4985 H 457.013 2.56454 2.99374 0
M  V30 4986 H 458.301 2.9411 4.15183 0
M  V30 4987 H 457.699 0.137637 5.65533 0
M  V30 4988 H 456.256 0.542534 6.49538 0
M  V30 4989 N 459.689 -1.00246 1.21608 0
M  V30 4990 C 460.619 -2.10921 1.00172 0
M  V30 4991 C 461.6 -1.69938 -0.0741587 0
M  V30 4992 O 462.785 -1.94009 0.0861753 0
M  V30 4993 C 459.915 -3.42618 0.568355 0
M  V30 4994 C 458.869 -3.97407 1.58909 0
M  V30 4995 C 458.195 -5.25038 1.01187 0
M  V30 4996 C 459.495 -4.2918 2.97661 0
M  V30 4997 H 461.189 -2.29112 1.92739 0
M  V30 4998 H 458.735 -1.10101 0.928102 0
M  V30 4999 H 460.688 -4.19444 0.405555 0
M  V30 5000 H 459.412 -3.24227 -0.392961 0
M  V30 5001 H 458.071 -3.22703 1.73949 0
M  V30 5002 H 457.719 -5.02982 0.0421965 0
M  V30 5003 H 457.419 -5.62661 1.6937 0
M  V30 5004 H 458.943 -6.04507 0.860448 0
M  V30 5005 H 460.357 -4.96839 2.86049 0
M  V30 5006 H 458.754 -4.77952 3.6288 0
M  V30 5007 H 459.824 -3.3735 3.48315 0
M  V30 5008 N 461.167 -1.02423 -1.1978 0
M  V30 5009 C 462.097 -0.62157 -2.25075 0
M  V30 5010 C 463.078 0.367148 -1.6609 0
M  V30 5011 O 464.263 0.250892 -1.92573 0
M  V30 5012 C 461.393 0.0331826 -3.47284 0
M  V30 5013 C 460.347 -0.877323 -4.18912 0
M  V30 5014 C 459.673 -0.0879296 -5.34628 0
M  V30 5015 C 460.973 -2.18892 -4.74219 0
M  V30 5016 H 462.667 -1.50179 -2.59011 0
M  V30 5017 H 460.213 -0.723547 -1.24502 0
M  V30 5018 H 462.166 0.326488 -4.20133 0
M  V30 5019 H 460.89 0.948164 -3.12534 0
M  V30 5020 H 459.549 -1.15475 -3.47938 0
M  V30 5021 H 459.197 0.828941 -4.96123 0
M  V30 5022 H 458.897 -0.694359 -5.83483 0
M  V30 5023 H 460.421 0.198743 -6.10276 0
M  V30 5024 H 461.835 -1.95746 -5.38847 0
M  V30 5025 H 460.232 -2.74686 -5.33542 0
M  V30 5026 H 461.302 -2.84674 -3.92541 0
M  V30 5027 N 462.645 1.35699 -0.801477 0
M  V30 5028 C 463.592 2.29876 -0.206294 0
M  V30 5029 C 464.562 1.52565 0.656752 0
M  V30 5030 O 465.747 1.81024 0.602906 0
M  V30 5031 C 462.887 3.39052 0.643272 0
M  V30 5032 C 462 4.31335 -0.239644 0
M  V30 5033 C 461.135 5.27599 0.61744 0
M  V30 5034 C 460.174 6.11521 -0.26619 0
M  V30 5035 N 459.311 6.99938 0.550571 0
M  V30 5036 H 464.151 2.80187 -1.01484 0
M  V30 5037 H 461.688 1.37902 -0.511997 0
M  V30 5038 H 463.646 4.0101 1.15094 0
M  V30 5039 H 462.276 2.9003 1.41713 0
M  V30 5040 H 461.328 3.70426 -0.865381 0
M  V30 5041 H 462.64 4.90243 -0.919985 0
M  V30 5042 H 461.794 5.94906 1.19045 0
M  V30 5043 H 460.533 4.69176 1.33137 0
M  V30 5044 H 459.538 5.43166 -0.851507 0
M  V30 5045 H 460.763 6.72022 -0.9779 0
M  V30 5046 H 458.709 6.44008 1.24856 0
M  V30 5047 H 458.626 7.55966 -0.071832 0
M  V30 5048 H 459.894 7.71599 1.10702 0
M  V30 5049 N 464.123 0.554532 1.47522 0
M  V30 5050 C 465.073 -0.215008 2.26984 0
M  V30 5051 C 466.057 -0.88774 1.34194 0
M  V30 5052 O 467.249 -0.786489 1.58567 0
M  V30 5053 C 464.378 -1.24604 3.19889 0
M  V30 5054 C 463.464 -0.576857 4.20159 0
M  V30 5055 N 463.855 0.351541 5.04577 0
M  V30 5056 C 462.153 -0.831104 4.38188 0
M  V30 5057 C 462.854 0.739995 5.76974 0
M  V30 5058 N 461.83 0.0954407 5.43516 0
M  V30 5059 H 465.632 0.498843 2.89636 0
M  V30 5060 H 463.146 0.374279 1.58028 0
M  V30 5061 H 465.143 -1.81128 3.75498 0
M  V30 5062 H 463.803 -1.96101 2.58794 0
M  V30 5063 H 464.814 0.725556 5.12792 0
M  V30 5064 H 461.491 -1.53479 3.88266 0
M  V30 5065 H 462.881 1.50271 6.5488 0
M  V30 5066 N 465.601 -1.54893 0.290851 0
M  V30 5067 C 467.012 -1.85584 -0.203816 0
M  V30 5068 C 467.363 -1.21285 -1.54222 0
M  V30 5069 O 466.488 -0.506841 -2.10381 0
M  V30 5070 C 467.083 -3.367 -0.376595 0
M  V30 5071 C 465.642 -3.6746 -0.815485 0
M  V30 5072 C 464.789 -2.77178 0.0821087 0
M  V30 5073 H 467.74 -1.50208 0.512175 0
M  V30 5074 H 467.761 -3.60656 -1.21275 0
M  V30 5075 H 467.273 -3.8347 0.59767 0
M  V30 5076 H 465.374 -3.26201 -1.80066 0
M  V30 5077 H 465.487 -4.7478 -0.641905 0
M  V30 5078 H 463.851 -2.50925 -0.436895 0
M  V30 5079 H 464.634 -3.26767 1.05254 0
M  V30 5080 N 467.08 -0.0183926 -1.57589 0
M  V30 5081 C 468.308 0.673046 -1.95647 0
M  V30 5082 C 468.723 1.66275 -0.894312 0
M  V30 5083 O 468.08 1.82072 0.124975 0
M  V30 5084 C 468.131 1.38884 -3.33756 0
M  V30 5085 O 467.852 0.438806 -4.35897 0
M  V30 5086 C 469.353 2.1731 -3.86383 0
M  V30 5087 H 466.573 0.186292 -0.644621 0
M  V30 5088 H 469.117 -0.0749748 -2.04363 0
M  V30 5089 H 467.272 2.08835 -3.26293 0
M  V30 5090 H 467.686 0.945869 -5.15901 0
M  V30 5091 H 469.16 2.62863 -4.85394 0
M  V30 5092 H 469.637 3.00764 -3.20059 0
M  V30 5093 H 470.243 1.52339 -3.97081 0
M  V30 5094 N 468.558 1.5553 0.254621 0
M  V30 5095 C 469.804 1.77262 0.985193 0
M  V30 5096 C 470.137 0.582286 1.85265 0
M  V30 5097 O 469.412 -0.419666 1.89919 0
M  V30 5098 C 469.695 3.0881 1.85225 0
M  V30 5099 C 469.548 4.38233 1.0135 0
M  V30 5100 C 470.867 3.3653 2.83612 0
M  V30 5101 H 467.986 0.644906 0.356742 0
M  V30 5102 H 470.628 1.88264 0.256236 0
M  V30 5103 H 468.778 2.99562 2.47376 0
M  V30 5104 H 470.45 4.59463 0.411269 0
M  V30 5105 H 468.693 4.32636 0.317574 0
M  V30 5106 H 469.364 5.26644 1.65379 0
M  V30 5107 H 471.84 3.45691 2.31596 0
M  V30 5108 H 470.716 4.29805 3.41407 0
M  V30 5109 H 470.977 2.57064 3.59681 0
M  V30 5110 N 470.036 -0.519951 1.48776 0
M  V30 5111 C 470.966 -1.63253 1.66945 0
M  V30 5112 C 471.947 -1.62014 0.518224 0
M  V30 5113 O 473.132 -1.79053 0.751919 0
M  V30 5114 C 470.262 -3.0181 1.71836 0
M  V30 5115 C 469.216 -3.17911 2.8656 0
M  V30 5116 C 468.542 -4.5763 2.76548 0
M  V30 5117 C 469.842 -2.99729 4.27738 0
M  V30 5118 H 471.536 -1.48302 2.6009 0
M  V30 5119 H 469.082 -0.712026 1.25165 0
M  V30 5120 H 471.035 -3.79525 1.83135 0
M  V30 5121 H 469.759 -3.17806 0.752775 0
M  V30 5122 H 468.418 -2.42616 2.74833 0
M  V30 5123 H 468.066 -4.70476 1.77937 0
M  V30 5124 H 467.766 -4.69346 3.53536 0
M  V30 5125 H 469.29 -5.37431 2.89828 0
M  V30 5126 H 470.704 -3.67228 4.40246 0
M  V30 5127 H 469.101 -3.22932 5.05801 0
M  V30 5128 H 470.171 -1.96047 4.43502 0
M  V30 5129 N 471.514 -1.37532 -0.769588 0
M  V30 5130 C 472.424 -1.35668 -1.91393 0
M  V30 5131 C 473.44 -0.255954 -1.72107 0
M  V30 5132 O 474.616 -0.491704 -1.95305 0
M  V30 5133 C 471.681 -1.16481 -3.26547 0
M  V30 5134 C 470.742 -2.36212 -3.58472 0
M  V30 5135 C 469.975 -2.17932 -4.87177 0
M  V30 5136 O 470.198 -1.1647 -5.58382 0
M  V30 5137 O 469.132 -3.06167 -5.18214 0
M  V30 5138 H 472.958 -2.32055 -1.95918 0
M  V30 5139 H 470.543 -1.18284 -0.912641 0
M  V30 5140 H 472.425 -1.07778 -4.07384 0
M  V30 5141 H 471.1 -0.231687 -3.2287 0
M  V30 5142 H 470.007 -2.50488 -2.77861 0
M  V30 5143 H 471.34 -3.281 -3.66894 0
M  V30 5144 N 472.992 0.995999 -1.22138 0
M  V30 5145 C 473.939 2.08551 -0.988687 0
M  V30 5146 C 474.909 1.65864 0.0885021 0
M  V30 5147 O 476.094 1.90704 -0.0604589 0
M  V30 5148 C 473.234 3.40374 -0.569191 0
M  V30 5149 C 472.347 3.96421 -1.71681 0
M  V30 5150 C 471.482 5.1639 -1.2456 0
M  V30 5151 C 470.521 5.64567 -2.36497 0
M  V30 5152 N 469.658 6.75777 -1.90445 0
M  V30 5153 H 474.498 2.2779 -1.92135 0
M  V30 5154 H 472.035 1.1168 -0.957388 0
M  V30 5155 H 473.993 4.16068 -0.307166 0
M  V30 5156 H 472.623 3.21145 0.326462 0
M  V30 5157 H 471.675 3.17628 -2.09324 0
M  V30 5158 H 472.987 4.2816 -2.55891 0
M  V30 5159 H 472.141 5.99362 -0.940774 0
M  V30 5160 H 470.88 4.86266 -0.373662 0
M  V30 5161 H 469.885 4.80185 -2.67772 0
M  V30 5162 H 471.11 5.96716 -3.24202 0
M  V30 5163 H 469.056 6.47443 -1.05609 0
M  V30 5164 H 468.973 7.06818 -2.68223 0
M  V30 5165 H 470.241 7.62262 -1.63022 0
M  V30 5166 N 474.47 1.03057 1.19235 0
M  V30 5167 C 475.4 0.633497 2.24742 0
M  V30 5168 C 476.381 -0.358335 1.66283 0
M  V30 5169 O 477.566 -0.240676 1.92703 0
M  V30 5170 C 474.696 -0.0147648 3.47297 0
M  V30 5171 C 473.65 0.899527 4.18441 0
M  V30 5172 C 472.976 0.116281 5.34574 0
M  V30 5173 C 474.276 2.21404 4.73051 0
M  V30 5174 H 475.97 1.5155 2.58211 0
M  V30 5175 H 473.516 0.73014 1.24117 0
M  V30 5176 H 475.469 -0.304202 4.20301 0
M  V30 5177 H 474.193 -0.931577 3.13032 0
M  V30 5178 H 472.852 1.17319 3.47321 0
M  V30 5179 H 472.5 -0.802619 4.96555 0
M  V30 5180 H 472.2 0.725293 5.83107 0
M  V30 5181 H 473.724 -0.166376 6.10373 0
M  V30 5182 H 475.138 1.98601 5.37802 0
M  V30 5183 H 473.535 2.77512 5.32078 0
M  V30 5184 H 474.605 2.86752 3.91026 0
M  V30 5185 N 475.948 -1.35272 0.808662 0
M  V30 5186 C 477.364 -1.51806 0.492653 0
M  V30 5187 C 477.564 -1.7574 -0.985778 0
M  V30 5188 O 476.62 -1.80003 -1.77074 0
M  V30 5189 C 477.933 -2.69202 1.33981 0
M  V30 5190 C 479.481 -2.8308 1.33547 0
M  V30 5191 C 479.956 -4.03502 2.16679 0
M  V30 5192 N 481.447 -4.10684 2.14227 0
M  V30 5193 C 482.182 -5.02984 2.75308 0
M  V30 5194 N 481.678 -6.00603 3.45323 0
M  V30 5195 N 483.471 -4.95746 2.64938 0
M  V30 5196 H 475.622 -1.17993 1.76611 0
M  V30 5197 H 477.885 -0.577476 0.751814 0
M  V30 5198 H 477.591 -2.581 2.38909 0
M  V30 5199 H 477.465 -3.63854 0.994491 0
M  V30 5200 H 479.852 -2.93631 0.294036 0
M  V30 5201 H 479.933 -1.89278 1.72068 0
M  V30 5202 H 479.577 -3.93711 3.20864 0
M  V30 5203 H 479.507 -4.96489 1.75517 0
M  V30 5204 H 481.998 -3.40802 1.63285 0
M  V30 5205 H 482.311 -6.67633 3.89212 0
M  V30 5206 H 480.656 -6.0077 3.49428 0
M  V30 5207 H 483.847 -4.18439 2.09825 0
M  V30 5208 H 484.02 -5.67487 3.12829 0
M  V30 5209 N 477.426 -0.562348 -1.47226 0
M  V30 5210 C 478.703 0.0256985 -1.95583 0
M  V30 5211 C 479.083 1.48032 -1.50498 0
M  V30 5212 O 478.431 2.15973 -0.746181 0
M  V30 5213 C 478.641 -0.125129 -3.48776 0
M  V30 5214 C 479.989 0.0175728 -4.24596 0
M  V30 5215 O 481.013 -0.0529341 -3.56161 0
M  V30 5216 O 479.872 0.170145 -5.46235 0
M  V30 5217 H 476.966 0.0612565 -0.824728 0
M  V30 5218 H 479.512 -0.629233 -1.57603 0
M  V30 5219 H 478.284 -1.13715 -3.74412 0
M  V30 5220 H 477.907 0.567178 -3.93534 0
M  V30 5221 N 478.904 1.54736 -0.299062 0
M  V30 5222 C 479.814 2.27127 0.587413 0
M  V30 5223 C 480.83 1.30575 1.15005 0
M  V30 5224 O 482.006 1.63554 1.17525 0
M  V30 5225 C 479.071 2.99645 1.74395 0
M  V30 5226 C 478.132 4.11731 1.21559 0
M  V30 5227 C 477.365 4.80781 2.317 0
M  V30 5228 O 477.588 4.4918 3.51558 0
M  V30 5229 O 476.522 5.68226 1.98501 0
M  V30 5230 H 480.348 3.037 0.000250109 0
M  V30 5231 H 477.933 1.49256 -0.0655919 0
M  V30 5232 H 479.815 3.45138 2.4178 0
M  V30 5233 H 478.49 2.25969 2.31775 0
M  V30 5234 H 477.397 3.70641 0.507514 0
M  V30 5235 H 478.73 4.87379 0.687233 0
M  V30 5236 N 480.382 0.0267497 1.57577 0
M  V30 5237 C 481.312 -0.954308 2.13108 0
M  V30 5238 C 482.293 -1.34088 1.04663 0
M  V30 5239 O 483.478 -1.41992 1.32484 0
M  V30 5240 C 480.608 -2.23744 2.65624 0
M  V30 5241 C 479.562 -1.99168 3.78835 0
M  V30 5242 C 478.888 -3.33726 4.17769 0
M  V30 5243 C 480.188 -1.33277 5.0501 0
M  V30 5244 H 481.882 -0.491848 2.95332 0
M  V30 5245 H 479.428 -0.23514 1.42067 0
M  V30 5246 H 481.381 -2.92754 3.03106 0
M  V30 5247 H 480.105 -2.72151 1.80558 0
M  V30 5248 H 478.764 -1.32577 3.41788 0
M  V30 5249 H 478.412 -3.79888 3.29688 0
M  V30 5250 H 478.112 -3.18089 4.94058 0
M  V30 5251 H 479.636 -4.04008 4.57832 0
M  V30 5252 H 481.05 -1.92283 5.40093 0
M  V30 5253 H 479.447 -1.28045 5.8628 0
M  V30 5254 H 480.517 -0.305411 4.83937 0
M  V30 5255 N 481.861 -1.55662 -0.24637 0
M  V30 5256 C 483.277 -1.48098 -0.594907 0
M  V30 5257 C 483.477 -0.717044 -1.8831 0
M  V30 5258 O 482.533 -0.246618 -2.51293 0
M  V30 5259 C 483.846 -2.92507 -0.697146 0
M  V30 5260 C 485.394 -3.02881 -0.789436 0
M  V30 5261 C 485.869 -4.48598 -0.923232 0
M  V30 5262 N 487.36 -4.52538 -0.988088 0
M  V30 5263 C 488.095 -5.62536 -1.11089 0
M  V30 5264 N 487.591 -6.82342 -1.19919 0
M  V30 5265 N 489.384 -5.50334 -1.14408 0
M  V30 5266 H 481.535 -2.0377 0.599278 0
M  V30 5267 H 483.798 -0.925145 0.20691 0
M  V30 5268 H 483.504 -3.51242 0.179396 0
M  V30 5269 H 483.378 -3.43024 -1.5689 0
M  V30 5270 H 485.765 -2.44226 -1.65643 0
M  V30 5271 H 485.846 -2.55574 0.107482 0
M  V30 5272 H 485.49 -5.07864 -0.0607927 0
M  V30 5273 H 485.42 -4.93587 -1.8352 0
M  V30 5274 H 487.911 -3.66248 -0.931167 0
M  V30 5275 H 488.224 -7.61924 -1.29197 0
M  V30 5276 H 486.569 -6.85102 -1.16876 0
M  V30 5277 H 489.76 -4.5567 -1.07158 0
M  V30 5278 H 489.933 -6.36096 -1.23634 0
M  V30 5279 N 483.339 0.512053 -1.4905 0
M  V30 5280 C 484.302 1.59704 -1.64399 0
M  V30 5281 C 485.302 1.52285 -0.516317 0
M  V30 5282 O 486.492 1.55635 -0.782527 0
M  V30 5283 C 483.624 2.9935 -1.63102 0
M  V30 5284 H 484.817 1.47428 -2.61161 0
M  V30 5285 H 482.37 0.735469 -1.37915 0
M  V30 5286 H 483.105 3.17116 -0.678836 0
M  V30 5287 H 482.89 3.06144 -2.44986 0
M  V30 5288 H 484.38 3.782 -1.77072 0
M  V30 5289 N 484.817 1.37938 0.762283 0
M  V30 5290 C 485.767 1.30976 1.86626 0
M  V30 5291 C 486.751 0.195714 1.59705 0
M  V30 5292 O 487.943 0.430937 1.71674 0
M  V30 5293 C 485.072 1.12847 3.24223 0
M  V30 5294 C 484.158 2.28836 3.57064 0
M  V30 5295 N 484.549 3.54256 3.61022 0
M  V30 5296 C 482.847 2.21198 3.87282 0
M  V30 5297 C 483.548 4.30798 3.90881 0
M  V30 5298 N 482.524 3.60049 4.07266 0
M  V30 5299 H 486.326 2.25946 1.87951 0
M  V30 5300 H 483.84 1.31046 0.959206 0
M  V30 5301 H 485.837 1.05943 4.03214 0
M  V30 5302 H 484.497 0.188024 3.24155 0
M  V30 5303 H 485.508 3.8804 3.42995 0
M  V30 5304 H 482.185 1.35264 3.94981 0
M  V30 5305 H 483.575 5.39386 4.00639 0
M  V30 5306 N 486.295 -0.989507 1.22664 0
M  V30 5307 C 487.543 -1.72612 1.05117 0
M  V30 5308 C 487.864 -1.90552 -0.414131 0
M  V30 5309 O 487.134 -1.4676 -1.29762 0
M  V30 5310 H 485.714 -0.639555 0.385977 0
M  V30 5311 H 488.376 -1.19158 1.54232 0
M  V30 5312 H 487.472 -2.71926 1.53175 0
M  V30 5313 N 487.773 -1.03688 -1.18687 0
M  V30 5314 C 489.022 -0.733235 -1.879 0
M  V30 5315 C 489.335 0.741745 -1.8099 0
M  V30 5316 O 490.541 1.15875 -2.4553 0
M  V30 5317 C 488.997 -1.26127 -3.37076 0
M  V30 5318 C 488.605 -2.76461 -3.52524 0
M  V30 5319 C 490.349 -1.03398 -4.11715 0
M  V30 5320 C 488.256 -3.22642 -4.95637 0
M  V30 5321 H 487.186 -0.270584 -0.703776 0
M  V30 5322 H 489.837 -1.25222 -1.34133 0
M  V30 5323 H 488.219 -0.670165 -3.90288 0
M  V30 5324 H 489.393 -3.41296 -3.09602 0
M  V30 5325 H 487.708 -2.97559 -2.91286 0
M  V30 5326 H 490.305 -1.3542 -5.17267 0
M  V30 5327 H 490.648 0.0289246 -4.1629 0
M  V30 5328 H 491.181 -1.5895 -3.64664 0
M  V30 5329 H 487.92 -4.28296 -4.96228 0
M  V30 5330 H 487.44 -2.62539 -5.39289 0
M  V30 5331 H 489.119 -3.16444 -5.64333 0
M  V30 5332 N 489.251 1.34841 -0.815825 0
M  V30 5333 C 490.181 2.32187 -0.247298 0
M  V30 5334 C 491.162 1.5791 0.632344 0
M  V30 5335 O 492.347 1.8593 0.560698 0
M  V30 5336 C 489.477 3.42122 0.597466 0
M  V30 5337 C 488.431 4.27602 -0.184446 0
M  V30 5338 C 487.757 5.28942 0.782609 0
M  V30 5339 C 489.057 5.03502 -1.38865 0
M  V30 5340 H 490.751 2.79985 -1.06061 0
M  V30 5341 H 488.297 1.34611 -0.511461 0
M  V30 5342 H 490.25 4.09232 1.00533 0
M  V30 5343 H 488.974 2.92956 1.44376 0
M  V30 5344 H 487.633 3.62085 -0.573592 0
M  V30 5345 H 487.281 4.7604 1.62466 0
M  V30 5346 H 486.981 5.87008 0.263695 0
M  V30 5347 H 488.505 5.98922 1.18848 0
M  V30 5348 H 489.919 5.63506 -1.05518 0
M  V30 5349 H 488.316 5.71108 -1.8427 0
M  V30 5350 H 489.386 4.33608 -2.17054 0
M  V30 5351 N 490.729 0.570148 1.46925 0
M  V30 5352 C 491.679 -0.190921 2.27199 0
M  V30 5353 C 492.663 -0.873457 1.35128 0
M  V30 5354 O 493.855 -0.769627 1.59392 0
M  V30 5355 C 490.984 -1.21204 3.21192 0
M  V30 5356 C 490.07 -0.532261 4.20747 0
M  V30 5357 N 490.461 0.405038 5.04176 0
M  V30 5358 C 488.759 -0.784582 4.39045 0
M  V30 5359 C 489.46 0.801149 5.76157 0
M  V30 5360 N 488.436 0.153082 5.43384 0
M  V30 5361 H 492.238 0.529535 2.8909 0
M  V30 5362 H 489.752 0.391019 1.57622 0
M  V30 5363 H 491.749 -1.77135 3.77398 0
M  V30 5364 H 490.409 -1.93345 2.6086 0
M  V30 5365 H 491.42 0.779903 5.11994 0
M  V30 5366 H 488.097 -1.49352 3.89872 0
M  V30 5367 H 489.487 1.57208 6.5325 0
M  V30 5368 N 492.207 -1.54576 0.307264 0
M  V30 5369 C 493.432 -2.05139 -0.305379 0
M  V30 5370 C 493.857 -1.18278 -1.46259 0
M  V30 5371 O 493.215 -0.188243 -1.8032 0
M  V30 5372 C 493.263 -3.53066 -0.733283 0
M  V30 5373 O 492.367 -3.69206 -1.83741 0
M  V30 5374 H 491.708 -0.661444 -0.0582105 0
M  V30 5375 H 494.238 -1.99569 0.450931 0
M  V30 5376 H 494.248 -3.95034 -1.02039 0
M  V30 5377 H 492.923 -4.15746 0.113198 0
M  V30 5378 H 491.5 -3.39143 -1.55037 0
M  V30 5379 N 493.685 -0.035106 -1.57561 0
M  V30 5380 C 494.933 0.64096 -1.91667 0
M  V30 5381 C 495.254 1.72323 -0.912681 0
M  V30 5382 O 494.524 1.95849 0.0449089 0
M  V30 5383 H 493.104 0.239743 -0.707483 0
M  V30 5384 H 495.766 -0.084321 -1.94718 0
M  V30 5385 H 494.862 1.08987 -2.92452 0
M  V30 5386 N 495.163 1.55791 0.238111 0
M  V30 5387 C 496.411 1.77681 0.963001 0
M  V30 5388 C 496.732 0.600674 1.85518 0
M  V30 5389 O 496.002 -0.383182 1.92116 0
M  V30 5390 H 494.582 0.655315 0.358568 0
M  V30 5391 H 497.244 1.93239 0.253945 0
M  V30 5392 H 496.34 2.69177 1.57956 0
M  V30 5393 N 496.642 -0.504142 1.49319 0
M  V30 5394 C 497.882 -1.26867 1.60263 0
M  V30 5395 C 498.246 -1.89924 0.281578 0
M  V30 5396 O 499.447 -2.67479 0.266176 0
M  V30 5397 C 497.718 -2.30956 2.72753 0
M  V30 5398 S 499.277 -3.1679 3.03628 0
M  V30 5399 H 496.095 -0.431198 0.565322 0
M  V30 5400 H 498.697 -0.571407 1.86963 0
M  V30 5401 H 497.401 -1.83156 3.67263 0
M  V30 5402 H 496.932 -3.05356 2.48035 0
M  V30 5403 H 498.947 -4.31549 2.44908 0
M  V30 5404 N 498.12 -1.38341 -0.754957 0
M  V30 5405 C 499.531 -1.30803 -1.3322 0
M  V30 5406 C 499.882 0.0368 -1.96165 0
M  V30 5407 O 499.007 0.938844 -1.94974 0
M  V30 5408 C 499.602 -2.3688 -2.42225 0
M  V30 5409 C 498.161 -2.32925 -2.95674 0
M  V30 5410 C 497.308 -2.19819 -1.69042 0
M  V30 5411 H 500.259 -1.48719 -0.553937 0
M  V30 5412 H 500.28 -2.02517 -3.22129 0
M  V30 5413 H 499.792 -3.34747 -1.96383 0
M  V30 5414 H 497.893 -1.38635 -3.45848 0
M  V30 5415 H 498.006 -3.27008 -3.50146 0
M  V30 5416 H 496.37 -1.66648 -1.92615 0
M  V30 5417 H 497.153 -3.19625 -1.25279 0
M  V30 5418 N 499.598 0.982988 -1.23187 0
M  V30 5419 C 500.838 1.73903 -1.07412 0
M  V30 5420 C 501.202 1.88146 0.382764 0
M  V30 5421 O 502.403 2.6053 0.661638 0
M  V30 5422 C 500.674 3.10105 -1.77678 0
M  V30 5423 S 502.233 4.01323 -1.77441 0
M  V30 5424 H 499.051 0.598093 -0.384456 0
M  V30 5425 H 501.653 1.17456 -1.56283 0
M  V30 5426 H 500.357 2.97388 -2.82822 0
M  V30 5427 H 499.888 3.71622 -1.29077 0
M  V30 5428 H 501.903 4.89189 -0.831162 0
M  V30 5429 N 501.076 1.04316 1.18135 0
M  V30 5430 C 501.986 0.646876 2.25505 0
M  V30 5431 C 503.002 -0.328008 1.7088 0
M  V30 5432 O 504.178 -0.182309 2.00573 0
M  V30 5433 C 501.243 0.0185664 3.46695 0
M  V30 5434 C 500.304 1.04277 4.16443 0
M  V30 5435 C 499.537 0.444352 5.31847 0
M  V30 5436 O 499.76 -0.748735 5.65465 0
M  V30 5437 O 498.694 1.17428 5.90334 0
M  V30 5438 H 502.52 1.54147 2.61672 0
M  V30 5439 H 500.105 0.814188 1.25265 0
M  V30 5440 H 501.987 -0.331068 4.20097 0
M  V30 5441 H 500.662 -0.849814 3.12346 0
M  V30 5442 H 499.569 1.44425 3.45098 0
M  V30 5443 H 500.902 1.882 4.54798 0
M  V30 5444 N 502.554 -1.34406 0.822964 0
M  V30 5445 C 503.802 -1.97892 0.410245 0
M  V30 5446 C 504.123 -1.65567 -1.03017 0
M  V30 5447 O 503.393 -0.94642 -1.71522 0
M  V30 5448 H 501.973 -0.732049 0.148707 0
M  V30 5449 H 504.635 -1.64043 1.05242 0
M  V30 5450 H 503.731 -3.07579 0.529284 0
M  V30 5451 N 504.032 -0.577932 -1.46621 0
M  V30 5452 C 505.26 -0.0671642 -2.06791 0
M  V30 5453 C 505.675 1.23571 -1.42743 0
M  V30 5454 O 505.032 1.74602 -0.531062 0
M  V30 5455 C 505.083 0.110357 -3.61332 0
M  V30 5456 O 504.804 -1.14095 -4.22982 0
M  V30 5457 C 506.305 0.656025 -4.38419 0
M  V30 5458 H 503.525 -0.0552732 -0.66872 0
M  V30 5459 H 506.069 -0.797242 -1.8832 0
M  V30 5460 H 504.224 0.790637 -3.79246 0
M  V30 5461 H 504.638 -0.951742 -5.15793 0
M  V30 5462 H 506.112 0.729438 -5.47159 0
M  V30 5463 H 506.589 1.67195 -4.06131 0
M  V30 5464 H 507.195 0.0107692 -4.25299 0
M  V30 5465 N 505.51 1.54411 -0.315457 0
M  V30 5466 C 506.44 2.27002 0.547039 0
M  V30 5467 C 507.421 1.27492 1.12605 0
M  V30 5468 O 508.606 1.5629 1.15269 0
M  V30 5469 C 505.736 3.02171 1.71201 0
M  V30 5470 C 504.69 4.0895 1.26268 0
M  V30 5471 C 504.016 4.71915 2.51396 0
M  V30 5472 C 505.316 5.20891 0.383419 0
M  V30 5473 H 507.01 2.99343 -0.0584517 0
M  V30 5474 H 504.556 1.4397 -0.0295527 0
M  V30 5475 H 506.509 3.51681 2.32161 0
M  V30 5476 H 505.233 2.27433 2.34397 0
M  V30 5477 H 503.892 3.60312 0.676062 0
M  V30 5478 H 503.54 3.93801 3.12937 0
M  V30 5479 H 503.24 5.44039 2.22026 0
M  V30 5480 H 504.764 5.24195 3.13133 0
M  V30 5481 H 506.178 5.66206 0.899082 0
M  V30 5482 H 504.575 5.99821 0.182857 0
M  V30 5483 H 505.645 4.81324 -0.587821 0
M  V30 5484 N 506.988 0.0434614 1.5754 0
M  V30 5485 C 508.404 -0.313039 1.565 0
M  V30 5486 C 508.604 -1.71954 1.05043 0
M  V30 5487 O 507.66 -2.425 0.703564 0
M  V30 5488 C 508.973 -0.148544 3.00333 0
M  V30 5489 C 510.521 -0.220231 3.12224 0
M  V30 5490 C 510.996 -0.0843565 4.57922 0
M  V30 5491 N 512.487 -0.140881 4.62986 0
M  V30 5492 C 513.222 -0.0597443 5.73369 0
M  V30 5493 N 512.718 0.0733004 6.92761 0
M  V30 5494 N 514.511 -0.11477 5.61983 0
M  V30 5495 H 506.662 0.96303 1.89313 0
M  V30 5496 H 508.925 0.373164 0.871466 0
M  V30 5497 H 508.631 0.820894 3.41986 0
M  V30 5498 H 508.505 -0.912798 3.65989 0
M  V30 5499 H 510.892 -1.18014 2.70475 0
M  V30 5500 H 510.973 0.574646 2.49262 0
M  V30 5501 H 510.617 0.872192 5.00355 0
M  V30 5502 H 510.547 -0.898281 5.18882 0
M  V30 5503 H 513.038 -0.243273 3.77116 0
M  V30 5504 H 513.351 0.128128 7.72694 0
M  V30 5505 H 511.696 0.10828 6.94916 0
M  V30 5506 H 514.887 -0.217212 4.67596 0
M  V30 5507 H 515.06 -0.0480779 6.47982 0
M  V30 5508 N 508.466 -1.55915 -0.229846 0
M  V30 5509 C 509.396 -1.94754 -1.28815 0
M  V30 5510 C 510.377 -0.814657 -1.49323 0
M  V30 5511 O 511.562 -1.07631 -1.61645 0
M  V30 5512 C 508.692 -2.25705 -2.63959 0
M  V30 5513 C 507.646 -3.41406 -2.5812 0
M  V30 5514 C 506.972 -3.57941 -3.97218 0
M  V30 5515 C 508.272 -4.76616 -2.13623 0
M  V30 5516 H 509.966 -2.83404 -0.965547 0
M  V30 5517 H 507.512 -1.36353 -0.463028 0
M  V30 5518 H 509.465 -2.51467 -3.38146 0
M  V30 5519 H 508.189 -1.339 -2.9789 0
M  V30 5520 H 506.848 -3.1568 -1.86391 0
M  V30 5521 H 506.496 -2.63526 -4.28443 0
M  V30 5522 H 506.196 -4.35757 -3.94195 0
M  V30 5523 H 507.72 -3.86042 -4.73079 0
M  V30 5524 H 509.134 -5.01637 -2.77549 0
M  V30 5525 H 507.531 -5.57655 -2.21677 0
M  V30 5526 H 508.601 -4.7253 -1.08829 0
M  V30 5527 N 509.944 0.496216 -1.49584 0
M  V30 5528 C 511.221 1.25755 -1.49816 0
M  V30 5529 C 511.601 2.09859 -0.228572 0
M  V30 5530 O 510.949 2.14449 0.788908 0
M  V30 5531 C 511.159 2.11017 -2.7798 0
M  V30 5532 C 512.507 2.70047 -3.27658 0
M  V30 5533 O 513.531 2.21281 -2.79129 0
M  V30 5534 O 512.39 3.58834 -4.1219 0
M  V30 5535 H 509.484 0.569322 -0.599834 0
M  V30 5536 H 512.03 0.510094 -1.61852 0
M  V30 5537 H 510.802 1.48879 -3.61871 0
M  V30 5538 H 510.425 2.92947 -2.68827 0
M  V30 5539 N 511.423 1.38739 0.74761 0
M  V30 5540 C 512.651 1.38521 1.53686 0
M  V30 5541 C 513.066 -0.0235129 1.88785 0
M  V30 5542 O 512.423 -0.991662 1.53207 0
M  V30 5543 C 512.474 2.24641 2.83229 0
M  V30 5544 O 512.195 3.60026 2.49625 0
M  V30 5545 C 513.696 2.32669 3.77333 0
M  V30 5546 H 510.916 0.473589 0.475347 0
M  V30 5547 H 513.46 1.82395 0.924786 0
M  V30 5548 H 511.615 1.84213 3.40799 0
M  V30 5549 H 512.029 4.05435 3.3275 0
M  V30 5550 H 513.503 2.97201 4.65162 0
M  V30 5551 H 513.98 1.3421 4.18192 0
M  V30 5552 H 514.586 2.73512 3.25685 0
M  V30 5553 N 512.901 -0.976442 1.23707 0
M  V30 5554 C 513.831 -2.08749 1.04624 0
M  V30 5555 C 514.812 -1.70057 -0.0380956 0
M  V30 5556 O 515.997 -1.93782 0.127308 0
M  V30 5557 C 513.127 -3.41335 0.640902 0
M  V30 5558 C 512.081 -3.93947 1.67302 0
M  V30 5559 C 511.407 -5.22774 1.12301 0
M  V30 5560 C 512.707 -4.22769 3.06697 0
M  V30 5561 H 514.401 -2.24972 1.97555 0
M  V30 5562 H 511.947 -1.08108 0.951247 0
M  V30 5563 H 513.9 -4.18489 0.494434 0
M  V30 5564 H 512.624 -3.24988 -0.324099 0
M  V30 5565 H 511.283 -3.18941 1.80755 0
M  V30 5566 H 510.931 -5.0278 0.148877 0
M  V30 5567 H 510.631 -5.58942 1.81267 0
M  V30 5568 H 512.155 -6.02546 0.988479 0
M  V30 5569 H 513.569 -4.90659 2.96524 0
M  V30 5570 H 511.966 -4.70147 3.72937 0
M  V30 5571 H 513.036 -3.29885 3.55392 0
M  V30 5572 N 514.379 -1.04941 -1.1758 0
M  V30 5573 C 515.604 -0.778253 -1.92245 0
M  V30 5574 C 516.029 0.659707 -1.76152 0
M  V30 5575 O 515.387 1.45803 -1.07755 0
M  V30 5576 C 515.435 -1.16051 -3.41416 0
M  V30 5577 O 514.539 -0.291153 -4.11371 0
M  V30 5578 H 513.88 -0.285619 -0.599431 0
M  V30 5579 H 516.41 -1.40159 -1.49052 0
M  V30 5580 H 516.42 -1.12619 -3.92149 0
M  V30 5581 H 515.095 -2.208 -3.52449 0
M  V30 5582 H 513.672 -0.385851 -3.70898 0
M  V30 5583 N 515.857 1.33968 -0.830081 0
M  V30 5584 C 517.105 1.97672 -0.420734 0
M  V30 5585 C 517.426 1.66111 1.02138 0
M  V30 5586 O 516.696 0.955503 1.71017 0
M  V30 5587 H 515.276 0.73125 -0.152587 0
M  V30 5588 H 517.938 1.63483 -1.0611 0
M  V30 5589 H 517.034 3.07294 -0.545588 0
M  V30 5590 N 517.335 0.585699 1.46312 0
M  V30 5591 C 518.265 -0.133556 2.33118 0
M  V30 5592 C 519.246 -0.880707 1.45525 0
M  V30 5593 O 520.431 -0.855579 1.74337 0
M  V30 5594 C 517.561 -1.14585 3.27853 0
M  V30 5595 C 516.515 -0.513341 4.2491 0
M  V30 5596 C 515.841 -1.63231 5.09175 0
M  V30 5597 C 517.141 0.551413 5.19381 0
M  V30 5598 H 518.835 0.59121 2.93505 0
M  V30 5599 H 516.381 0.285761 1.41136 0
M  V30 5600 H 518.334 -1.65741 3.87438 0
M  V30 5601 H 517.058 -1.90093 2.65579 0
M  V30 5602 H 515.717 -0.0228349 3.66593 0
M  V30 5603 H 515.365 -2.37713 4.43285 0
M  V30 5604 H 515.065 -1.21473 5.74907 0
M  V30 5605 H 516.589 -2.14658 5.71624 0
M  V30 5606 H 518.003 0.124804 5.73164 0
M  V30 5607 H 516.4 0.889486 5.93471 0
M  V30 5608 H 517.47 1.43655 4.63132 0
M  V30 5609 N 518.813 -1.54241 0.323641 0
M  V30 5610 C 520.229 -1.59574 -0.0290018 0
M  V30 5611 C 520.429 -1.34017 -1.50472 0
M  V30 5612 O 519.485 -1.12464 -2.26071 0
M  V30 5613 C 520.798 -2.98169 0.389295 0
M  V30 5614 C 522.346 -3.11148 0.339958 0
M  V30 5615 C 522.821 -4.5209 0.733418 0
M  V30 5616 N 524.312 -4.5808 0.686827 0
M  V30 5617 C 525.047 -5.65248 0.963464 0
M  V30 5618 N 524.543 -6.80355 1.30724 0
M  V30 5619 N 526.336 -5.55025 0.88902 0
M  V30 5620 H 518.487 -1.6911 1.28512 0
M  V30 5621 H 520.75 -0.790972 0.522558 0
M  V30 5622 H 520.456 -3.21871 1.41746 0
M  V30 5623 H 520.33 -3.76399 -0.245657 0
M  V30 5624 H 522.717 -2.87182 -0.679002 0
M  V30 5625 H 522.798 -2.35023 1.00985 0
M  V30 5626 H 522.442 -4.76788 1.75029 0
M  V30 5627 H 522.372 -5.26584 0.0412189 0
M  V30 5628 H 524.863 -3.75411 0.43298 0
M  V30 5629 H 525.176 -7.58029 1.5037 0
M  V30 5630 H 523.521 -6.81851 1.3455 0
M  V30 5631 H 526.712 -4.63977 0.619939 0
M  V30 5632 H 526.885 -6.38458 1.10797 0
M  V30 5633 N 520.291 -0.0518155 -1.57515 0
M  V30 5634 C 521.521 0.63048 -1.96745 0
M  V30 5635 C 521.929 1.64875 -0.928054 0
M  V30 5636 O 521.272 1.83449 0.0960678 0
M  V30 5637 C 521.334 1.37381 -3.32215 0
M  V30 5638 C 520.998 0.511298 -4.54131 0
M  V30 5639 C 521.995 -0.222884 -5.19422 0
M  V30 5640 C 519.68 0.442035 -5.00351 0
M  V30 5641 C 521.674 -1.01476 -6.2927 0
M  V30 5642 C 519.361 -0.35353 -6.10077 0
M  V30 5643 C 520.359 -1.08062 -6.74397 0
M  V30 5644 O 520.047 -1.8631 -7.82013 0
M  V30 5645 H 519.779 0.177126 -0.652382 0
M  V30 5646 H 522.333 -0.114726 -2.05079 0
M  V30 5647 H 520.563 2.16466 -3.20436 0
M  V30 5648 H 522.252 1.9464 -3.56188 0
M  V30 5649 H 523.018 -0.178846 -4.8467 0
M  V30 5650 H 518.897 0.997562 -4.50077 0
M  V30 5651 H 522.441 -1.58279 -6.79407 0
M  V30 5652 H 518.338 -0.399205 -6.44264 0
M  V30 5653 H 519.106 -1.78528 -7.98793 0
M  V30 5654 N 521.769 1.56035 0.221574 0
M  V30 5655 C 522.699 1.95434 1.2778 0
M  V30 5656 C 523.68 0.822564 1.48889 0
M  V30 5657 O 524.865 1.08486 1.61072 0
M  V30 5658 C 521.995 2.27102 2.62759 0
M  V30 5659 C 520.949 3.4277 2.56306 0
M  V30 5660 C 520.275 3.60043 3.95314 0
M  V30 5661 C 521.575 4.77742 2.11093 0
M  V30 5662 H 523.269 2.83912 0.950504 0
M  V30 5663 H 520.815 1.36596 0.455791 0
M  V30 5664 H 522.768 2.53256 3.36807 0
M  V30 5665 H 521.492 1.35478 2.97176 0
M  V30 5666 H 520.151 3.16664 1.84715 0
M  V30 5667 H 519.799 2.65794 4.27039 0
M  V30 5668 H 519.499 4.37841 3.91879 0
M  V30 5669 H 521.023 3.88545 4.71025 0
M  V30 5670 H 522.437 5.03102 2.74885 0
M  V30 5671 H 520.834 5.58823 2.18716 0
M  V30 5672 H 521.904 4.731 1.06321 0
M  V30 5673 N 523.247 -0.488276 1.49845 0
M  V30 5674 C 524.524 -1.24959 1.50481 0
M  V30 5675 C 524.904 -2.09735 0.239698 0
M  V30 5676 O 524.252 -2.14865 -0.777524 0
M  V30 5677 C 524.462 -2.0954 2.79095 0
M  V30 5678 C 525.81 -2.68305 3.29086 0
M  V30 5679 O 526.834 -2.19797 2.80299 0
M  V30 5680 O 525.693 -3.56643 4.14087 0
M  V30 5681 H 522.787 -0.566133 0.602845 0
M  V30 5682 H 525.333 -0.501504 1.6212 0
M  V30 5683 H 524.105 -1.46958 3.62656 0
M  V30 5684 H 523.728 -2.91517 2.70377 0
M  V30 5685 N 524.725 -1.39134 -0.740242 0
M  V30 5686 C 525.965 -1.37499 -1.51239 0
M  V30 5687 C 526.329 0.0310084 -1.91975 0
M  V30 5688 O 527.53 0.172319 -2.68247 0
M  V30 5689 C 525.801 -2.31566 -2.72235 0
M  V30 5690 S 527.36 -2.48073 -3.61947 0
M  V30 5691 H 524.178 -0.48768 -0.517387 0
M  V30 5692 H 526.78 -1.75183 -0.867826 0
M  V30 5693 H 525.484 -3.32592 -2.40439 0
M  V30 5694 H 525.015 -1.9508 -3.41625 0
M  V30 5695 H 527.03 -1.71473 -4.6563 0
M  V30 5696 N 526.204 0.969867 -1.24223 0
M  V30 5697 C 527.45 1.7151 -1.08223 0
M  V30 5698 C 527.783 1.90478 0.37838 0
M  V30 5699 O 527.058 1.4647 1.27971 0
M  V30 5700 C 527.341 3.10714 -1.82013 0
M  V30 5701 C 527.194 2.9925 -3.35811 0
M  V30 5702 C 528.513 4.10332 -1.59108 0
M  V30 5703 H 525.632 0.622499 -0.394543 0
M  V30 5704 H 528.274 1.1284 -1.52863 0
M  V30 5705 H 526.424 3.608 -1.44068 0
M  V30 5706 H 528.096 2.56608 -3.83341 0
M  V30 5707 H 526.339 2.35512 -3.64303 0
M  V30 5708 H 527.01 3.97857 -3.82641 0
M  V30 5709 H 529.486 3.69097 -1.92111 0
M  V30 5710 H 528.362 5.05804 -2.13198 0
M  V30 5711 H 528.623 4.38926 -0.528832 0
M  V30 5712 N 527.682 1.05563 1.17022 0
M  V30 5713 C 528.931 0.763036 1.8671 0
M  V30 5714 C 529.244 -0.712857 1.82147 0
M  V30 5715 O 530.45 -1.11955 2.47343 0
M  V30 5716 C 528.906 1.31474 3.35026 0
M  V30 5717 C 528.514 2.82034 3.48081 0
M  V30 5718 C 530.258 1.09935 4.10018 0
M  V30 5719 C 528.165 3.30486 4.90442 0
M  V30 5720 H 527.095 0.281747 0.699382 0
M  V30 5721 H 529.746 1.2734 1.32124 0
M  V30 5722 H 528.128 0.732171 3.89173 0
M  V30 5723 H 529.302 3.46178 3.04133 0
M  V30 5724 H 527.617 3.02156 2.86515 0
M  V30 5725 H 530.214 1.43632 5.15048 0
M  V30 5726 H 530.557 0.0373072 4.16283 0
M  V30 5727 H 531.09 1.64732 3.62089 0
M  V30 5728 H 527.829 4.36137 4.89352 0
M  V30 5729 H 527.349 2.71086 5.35044 0
M  V30 5730 H 529.028 3.25382 5.59227 0
M  V30 5731 N 529.16 -1.33526 0.837174 0
M  V30 5732 C 530.107 -2.29248 0.267169 0
M  V30 5733 C 531.077 -1.54252 -0.616071 0
M  V30 5734 O 532.262 -1.82559 -0.554699 0
M  V30 5735 C 529.402 -3.40638 -0.553152 0
M  V30 5736 C 528.515 -4.30548 0.353921 0
M  V30 5737 C 527.65 -5.29051 -0.477339 0
M  V30 5738 C 526.689 -6.106 0.42823 0
M  V30 5739 N 525.826 -7.01152 -0.364801 0
M  V30 5740 H 530.666 -2.77398 1.08877 0
M  V30 5741 H 528.203 -1.36496 0.54838 0
M  V30 5742 H 530.161 -4.03921 -1.04422 0
M  V30 5743 H 528.791 -2.93685 -1.33973 0
M  V30 5744 H 527.843 -3.68001 0.963289 0
M  V30 5745 H 529.155 -4.87631 1.04964 0
M  V30 5746 H 528.309 -5.97853 -1.0323 0
M  V30 5747 H 527.048 -4.72541 -1.2065 0
M  V30 5748 H 526.053 -5.40718 0.995219 0
M  V30 5749 H 527.278 -6.69193 1.15573 0
M  V30 5750 H 525.224 -6.47092 -1.07738 0
M  V30 5751 H 525.141 -7.5551 0.272238 0
M  V30 5752 H 526.409 -7.74263 -0.902054 0
M  V30 5753 N 530.638 -0.59345 -1.46 0
M  V30 5754 C 531.548 0.135817 -2.34207 0
M  V30 5755 C 532.564 0.875008 -1.50398 0
M  V30 5756 O 533.74 0.835778 -1.83239 0
M  V30 5757 C 530.805 1.12977 -3.27776 0
M  V30 5758 C 529.866 0.394081 -4.27487 0
M  V30 5759 C 529.099 1.34068 -5.16586 0
M  V30 5760 O 529.322 2.5778 -5.08828 0
M  V30 5761 O 528.256 0.845426 -5.95933 0
M  V30 5762 H 532.082 -0.588691 -2.9794 0
M  V30 5763 H 529.667 -0.353784 -1.45151 0
M  V30 5764 H 531.549 1.70261 -3.85473 0
M  V30 5765 H 530.224 1.83556 -2.66625 0
M  V30 5766 H 529.131 -0.220869 -3.73447 0
M  V30 5767 H 530.464 -0.270939 -4.91454 0
M  V30 5768 N 532.116 1.54067 -0.331816 0
M  V30 5769 C 533.362 2.01012 0.268667 0
M  V30 5770 C 533.695 1.2195 1.51136 0
M  V30 5771 O 532.97 0.303972 1.9211 0
M  V30 5772 C 533.253 3.55158 0.59456 0
M  V30 5773 C 533.106 4.4494 -0.659409 0
M  V30 5774 C 534.425 4.16939 1.4089 0
M  V30 5775 H 531.544 0.730698 0.0961756 0
M  V30 5776 H 534.186 1.84593 -0.450031 0
M  V30 5777 H 532.336 3.6928 1.20685 0
M  V30 5778 H 534.008 4.42675 -1.29756 0
M  V30 5779 H 532.251 4.1428 -1.28665 0
M  V30 5780 H 532.922 5.50643 -0.386804 0
M  V30 5781 H 535.398 4.06443 0.891272 0
M  V30 5782 H 534.274 5.24889 1.60569 0
M  V30 5783 H 534.535 3.70798 2.40752 0
M  V30 5784 N 533.594 0.0601682 1.57485 0
M  V30 5785 C 534.527 -0.94676 2.07634 0
M  V30 5786 C 535.505 -1.29837 0.978826 0
M  V30 5787 O 536.689 -1.40969 1.2514 0
M  V30 5788 C 533.816 -2.25822 2.52433 0
M  V30 5789 C 532.862 -2.05901 3.73507 0
M  V30 5790 S 533.695 -1.32907 5.18745 0
M  V30 5791 C 534.851 -2.65356 5.66866 0
M  V30 5792 H 535.084 -0.520003 2.92717 0
M  V30 5793 H 532.617 -0.152319 1.53647 0
M  V30 5794 H 534.575 -3.01201 2.78905 0
M  V30 5795 H 533.236 -2.65624 1.67639 0
M  V30 5796 H 532.429 -3.02929 4.02803 0
M  V30 5797 H 532.031 -1.38659 3.47347 0
M  V30 5798 H 534.323 -3.61492 5.73001 0
M  V30 5799 H 535.266 -2.40685 6.6594 0
M  V30 5800 H 535.674 -2.72028 4.94632 0
M  V30 5801 N 535.072 -1.5615 -0.213296 0
M  V30 5802 C 536.488 -1.49327 -0.56336 0
M  V30 5803 C 536.688 -0.756826 -1.86747 0
M  V30 5804 O 535.744 -0.299866 -2.50713 0
M  V30 5805 C 537.057 -2.9392 -0.634944 0
M  V30 5806 C 538.605 -3.04487 -0.725013 0
M  V30 5807 C 539.08 -4.50456 -0.82787 0
M  V30 5808 N 540.571 -4.54533 -0.891876 0
M  V30 5809 C 541.306 -5.64766 -0.991315 0
M  V30 5810 N 540.802 -6.84733 -1.05419 0
M  V30 5811 N 542.595 -5.52637 -1.02709 0
M  V30 5812 H 534.746 -2.02453 0.642366 0
M  V30 5813 H 537.009 -0.920548 0.226487 0
M  V30 5814 H 536.715 -3.50783 0.253859 0
M  V30 5815 H 536.589 -3.46274 -1.49579 0
M  V30 5816 H 538.976 -2.47685 -1.60425 0
M  V30 5817 H 539.057 -2.55289 0.161669 0
M  V30 5818 H 538.701 -5.07878 0.0469464 0
M  V30 5819 H 538.631 -4.97369 -1.73009 0
M  V30 5820 H 541.122 -3.68141 -0.85327 0
M  V30 5821 H 541.435 -7.64493 -1.13007 0
M  V30 5822 H 539.78 -6.87427 -1.02318 0
M  V30 5823 H 542.971 -4.5784 -0.974687 0
M  V30 5824 H 543.144 -6.38576 -1.10113 0
M  V30 5825 N 536.55 0.480323 -1.50102 0
M  V30 5826 C 537.48 1.58769 -1.71215 0
M  V30 5827 C 538.461 1.60583 -0.560997 0
M  V30 5828 O 539.646 1.76996 -0.799127 0
M  V30 5829 C 536.776 2.97148 -1.79778 0
M  V30 5830 C 535.73 3.10201 -2.94888 0
M  V30 5831 C 535.056 4.50137 -2.88584 0
M  V30 5832 C 536.356 2.88283 -4.35534 0
M  V30 5833 H 538.05 1.41354 -2.6393 0
M  V30 5834 H 535.596 0.678591 -1.27008 0
M  V30 5835 H 537.549 3.74536 -1.93133 0
M  V30 5836 H 536.273 3.15699 -0.836772 0
M  V30 5837 H 534.932 2.35244 -2.81169 0
M  V30 5838 H 534.58 4.65593 -1.90349 0
M  V30 5839 H 534.28 4.59808 -3.65856 0
M  V30 5840 H 535.804 5.29558 -3.03976 0
M  V30 5841 H 537.218 3.55427 -4.49827 0
M  V30 5842 H 535.615 3.09408 -5.14186 0
M  V30 5843 H 536.685 1.84219 -4.48544 0
M  V30 5844 N 538.028 1.39524 0.732853 0
M  V30 5845 C 539.275 1.36865 1.49246 0
M  V30 5846 C 539.603 -0.0347118 1.94469 0
M  V30 5847 O 538.858 -1.01596 1.67262 0
M  V30 5848 C 539.157 2.28916 2.74468 0
M  V30 5849 C 538.823 3.76506 2.481 0
M  V30 5850 C 537.485 4.16721 2.40619 0
M  V30 5851 C 539.837 4.69846 2.25598 0
M  V30 5852 C 537.165 5.48334 2.08679 0
M  V30 5853 C 539.517 6.01739 1.95174 0
M  V30 5854 C 538.181 6.41015 1.86163 0
M  V30 5855 H 537.451 0.500824 0.546129 0
M  V30 5856 H 540.098 1.72047 0.840958 0
M  V30 5857 H 538.403 1.86859 3.4437 0
M  V30 5858 H 540.1 2.2415 3.32502 0
M  V30 5859 H 536.69 3.44635 2.54803 0
M  V30 5860 H 540.874 4.39608 2.30344 0
M  V30 5861 H 536.13 5.77685 2.00226 0
M  V30 5862 H 540.304 6.73591 1.76771 0
M  V30 5863 H 537.931 7.42917 1.61179 0
M  V30 5864 N 539.506 -0.963266 1.24736 0
M  V30 5865 C 540.734 -1.74166 1.11686 0
M  V30 5866 C 541.149 -1.8589 -0.330187 0
M  V30 5867 O 540.506 -1.35042 -1.2276 0
M  V30 5868 C 540.557 -3.15989 1.75595 0
M  V30 5869 O 540.278 -3.04847 3.14642 0
M  V30 5870 C 541.779 -4.10145 1.68213 0
M  V30 5871 H 538.999 -0.546031 0.389989 0
M  V30 5872 H 541.543 -1.20907 1.64929 0
M  V30 5873 H 539.698 -3.66219 1.26343 0
M  V30 5874 H 540.112 -3.9425 3.4593 0
M  V30 5875 H 541.586 -5.07299 2.17604 0
M  V30 5876 H 542.063 -4.3445 0.644208 0
M  V30 5877 H 542.669 -3.65827 2.16912 0
M  V30 5878 N 540.985 -1.06182 -1.16461 0
M  V30 5879 C 542.396 -0.802426 -1.68576 0
M  V30 5880 C 542.747 0.67412 -1.84255 0
M  V30 5881 O 541.872 1.52303 -1.5373 0
M  V30 5882 C 542.467 -1.45002 -3.06202 0
M  V30 5883 C 541.026 -1.23843 -3.55443 0
M  V30 5884 C 540.173 -1.52724 -2.31454 0
M  V30 5885 H 543.124 -1.22545 -1.00839 0
M  V30 5886 H 543.145 -0.864731 -3.70544 0
M  V30 5887 H 542.657 -2.52466 -2.94759 0
M  V30 5888 H 540.758 -0.183487 -3.72148 0
M  V30 5889 H 540.871 -1.95036 -4.37604 0
M  V30 5890 H 539.235 -0.947726 -2.36411 0
M  V30 5891 H 540.018 -2.61343 -2.22609 0
M  V30 5892 N 542.463 1.3308 -0.844243 0
M  V30 5893 C 543.712 1.96868 -0.438833 0
M  V30 5894 C 544.025 1.67599 1.00846 0
M  V30 5895 O 545.231 2.25043 1.51881 0
M  V30 5896 C 543.687 3.5234 -0.73377 0
M  V30 5897 C 543.295 3.90481 -2.1961 0
M  V30 5898 C 545.039 4.22653 -0.395574 0
M  V30 5899 C 542.946 5.38954 -2.43481 0
M  V30 5900 H 541.876 0.736749 -0.160364 0
M  V30 5901 H 544.527 1.51623 -1.03358 0
M  V30 5902 H 542.909 3.95941 -0.068589 0
M  V30 5903 H 544.083 3.57922 -2.90221 0
M  V30 5904 H 542.398 3.33165 -2.4978 0
M  V30 5905 H 544.995 5.31848 -0.551477 0
M  V30 5906 H 545.338 4.11004 0.661921 0
M  V30 5907 H 545.871 3.84601 -1.01621 0
M  V30 5908 H 542.61 5.55612 -3.47816 0
M  V30 5909 H 542.13 5.72954 -1.77437 0
M  V30 5910 H 543.809 6.05907 -2.26905 0
M  V30 5911 N 543.941 0.601185 1.45683 0
M  V30 5912 C 545.166 0.0982245 2.07167 0
M  V30 5913 C 545.591 -1.20546 1.44396 0
M  V30 5914 O 544.949 -1.73247 0.534347 0
M  V30 5915 C 544.997 -0.0346976 3.60583 0
M  V30 5916 O 544.101 -1.08657 3.97828 0
M  V30 5917 H 543.442 0.0711618 0.660176 0
M  V30 5918 H 545.972 0.829376 1.87036 0
M  V30 5919 H 545.982 -0.234969 4.07323 0
M  V30 5920 H 544.657 0.917265 4.05659 0
M  V30 5921 H 543.234 -0.863275 3.6277 0
M  V30 5922 N 545.419 -1.53889 0.339982 0
M  V30 5923 C 546.667 -2.00458 -0.257112 0
M  V30 5924 C 546.988 -1.22953 -1.51353 0
M  V30 5925 O 546.258 -0.335734 -1.93002 0
M  V30 5926 H 544.838 -0.740544 -0.0979965 0
M  V30 5927 H 547.5 -1.89386 0.460317 0
M  V30 5928 H 546.596 -3.08035 -0.502057 0
M  V30 5929 N 546.897 -0.0685191 -1.57451 0
M  V30 5930 C 548.145 0.60016 -1.92983 0
M  V30 5931 C 548.466 1.70348 -0.949028 0
M  V30 5932 O 547.736 1.959 0.00335647 0
M  V30 5933 H 546.316 0.224682 -0.712409 0
M  V30 5934 H 548.978 -0.125605 -1.94495 0
M  V30 5935 H 548.074 1.02759 -2.94698 0
M  V30 5936 N 548.375 1.56261 0.205012 0
M  V30 5937 C 549.605 1.83874 0.942018 0
M  V30 5938 C 550.013 0.647595 1.77772 0
M  V30 5939 O 549.356 -0.393098 1.79445 0
M  V30 5940 C 549.418 3.05453 1.89575 0
M  V30 5941 C 549.082 4.39772 1.24296 0
M  V30 5942 C 550.079 5.16133 0.624724 0
M  V30 5943 C 547.764 4.86504 1.24978 0
M  V30 5944 C 549.758 6.37396 0.0220117 0
M  V30 5945 C 547.445 6.07705 0.643232 0
M  V30 5946 C 548.443 6.82993 0.0304164 0
M  V30 5947 O 548.131 8.019 -0.566654 0
M  V30 5948 H 547.863 0.614896 0.280854 0
M  V30 5949 H 550.417 2.04215 0.220285 0
M  V30 5950 H 548.647 2.80972 2.65691 0
M  V30 5951 H 550.336 3.19797 2.4997 0
M  V30 5952 H 551.102 4.81127 0.611666 0
M  V30 5953 H 546.981 4.27865 1.71616 0
M  V30 5954 H 550.525 6.96102 -0.456926 0
M  V30 5955 H 546.422 6.42181 0.653759 0
M  V30 5956 H 547.19 8.17192 -0.462588 0
M  V30 5957 N 549.853 -0.472356 1.50355 0
M  V30 5958 C 551.269 -0.806001 1.37753 0
M  V30 5959 C 551.469 -1.968 0.432649 0
M  V30 5960 O 550.525 -2.52189 -0.12519 0
M  V30 5961 C 551.838 -1.11926 2.79093 0
M  V30 5962 C 553.386 -1.22579 2.87999 0
M  V30 5963 C 553.861 -1.57218 4.3017 0
M  V30 5964 N 555.352 -1.64212 4.33115 0
M  V30 5965 C 556.087 -1.92517 5.40116 0
M  V30 5966 N 555.583 -2.1885 6.57325 0
M  V30 5967 N 557.376 -1.94008 5.27558 0
M  V30 5968 H 549.527 0.293451 2.10363 0
M  V30 5969 H 551.79 0.0687672 0.945503 0
M  V30 5970 H 551.496 -0.338504 3.50067 0
M  V30 5971 H 551.37 -2.05577 3.16256 0
M  V30 5972 H 553.757 -1.99722 2.17245 0
M  V30 5973 H 553.838 -0.269107 2.54381 0
M  V30 5974 H 553.482 -0.806154 5.01461 0
M  V30 5975 H 553.412 -2.54034 4.61275 0
M  V30 5976 H 555.903 -1.45906 3.48597 0
M  V30 5977 H 556.216 -2.39718 7.3468 0
M  V30 5978 H 554.561 -2.16245 6.60502 0
M  V30 5979 H 557.752 -1.72931 4.34986 0
M  V30 5980 H 557.925 -2.15731 6.11035 0
M  V30 5981 N 551.331 -1.39911 -0.725443 0
M  V30 5982 C 552.559 -1.40949 -1.51463 0
M  V30 5983 C 552.974 -0.0065242 -1.88799 0
M  V30 5984 O 552.331 0.967163 -1.54765 0
M  V30 5985 C 552.382 -2.29119 -2.79619 0
M  V30 5986 O 552.103 -3.63952 -2.43866 0
M  V30 5987 C 553.604 -2.38642 -3.73584 0
M  V30 5988 H 550.824 -0.481091 -0.467752 0
M  V30 5989 H 553.368 -1.83843 -0.895651 0
M  V30 5990 H 551.523 -1.89612 -3.37826 0
M  V30 5991 H 551.937 -4.10677 -3.26258 0
M  V30 5992 H 553.411 -3.04563 -4.60375 0
M  V30 5993 H 553.888 -1.40846 -4.16004 0
M  V30 5994 H 554.494 -2.78659 -3.21293 0
M  V30 5995 N 552.809 0.956637 -1.25245 0
M  V30 5996 C 554.055 1.70352 -1.10036 0
M  V30 5997 C 554.388 1.90869 0.358156 0
M  V30 5998 O 553.663 1.47819 1.26411 0
M  V30 5999 C 553.946 3.08766 -1.85298 0
M  V30 6000 C 553.799 2.95672 -3.38966 0
M  V30 6001 C 555.118 4.08622 -1.63451 0
M  V30 6002 H 552.237 0.618279 -0.401123 0
M  V30 6003 H 554.879 1.11212 -1.54051 0
M  V30 6004 H 553.029 3.59252 -1.47887 0
M  V30 6005 H 554.701 2.52527 -3.86041 0
M  V30 6006 H 552.944 2.31634 -3.6678 0
M  V30 6007 H 553.615 3.93776 -3.86839 0
M  V30 6008 H 556.091 3.67038 -1.96015 0
M  V30 6009 H 554.967 5.03514 -2.18551 0
M  V30 6010 H 555.228 4.3834 -0.575357 0
M  V30 6011 N 554.287 1.06798 1.15896 0
M  V30 6012 C 555.217 0.704677 2.22613 0
M  V30 6013 C 556.198 -0.305252 1.67339 0
M  V30 6014 O 557.383 -0.179247 1.93371 0
M  V30 6015 C 554.513 0.0957325 3.47168 0
M  V30 6016 C 553.467 1.0322 4.15367 0
M  V30 6017 C 552.793 0.286293 5.33933 0
M  V30 6018 C 554.093 2.36341 4.65768 0
M  V30 6019 H 555.787 1.59688 2.53259 0
M  V30 6020 H 553.333 0.769257 1.21731 0
M  V30 6021 H 555.286 -0.170333 4.21056 0
M  V30 6022 H 554.01 -0.831516 3.15838 0
M  V30 6023 H 552.669 1.28309 3.43413 0
M  V30 6024 H 552.317 -0.644237 4.98857 0
M  V30 6025 H 552.017 0.910436 5.80504 0
M  V30 6026 H 553.541 0.0278938 6.10594 0
M  V30 6027 H 554.955 2.1561 5.31211 0
M  V30 6028 H 553.352 2.94299 5.2298 0
M  V30 6029 H 554.422 2.99047 3.81705 0
M  V30 6030 N 555.766 -1.3263 0.851289 0
M  V30 6031 C 556.698 -2.27824 0.250757 0
M  V30 6032 C 557.711 -1.52285 -0.575598 0
M  V30 6033 O 558.9 -1.73946 -0.400638 0
M  V30 6034 C 556 -3.3232 -0.664571 0
M  V30 6035 C 555.173 -4.37221 0.125187 0
M  V30 6036 C 554.232 -5.21314 -0.715385 0
M  V30 6037 O 553.258 -5.69002 -0.150111 0
M  V30 6038 N 554.46 -5.43823 -2.03069 0
M  V30 6039 H 557.225 -2.79997 1.06873 0
M  V30 6040 H 554.786 -1.45455 0.710943 0
M  V30 6041 H 556.778 -3.85486 -1.23216 0
M  V30 6042 H 555.348 -2.80331 -1.38323 0
M  V30 6043 H 554.568 -3.84384 0.874199 0
M  V30 6044 H 555.856 -5.04399 0.667774 0
M  V30 6045 H 555.254 -5.06803 -2.51332 0
M  V30 6046 H 553.811 -5.99998 -2.54648 0
M  V30 6047 N 557.244 -0.608902 -1.45362 0
M  V30 6048 C 558.472 -0.111013 -2.06602 0
M  V30 6049 C 558.887 1.20516 -1.45332 0
M  V30 6050 O 558.244 1.73437 -0.567978 0
M  V30 6051 C 558.295 0.033688 -3.61484 0
M  V30 6052 O 558.016 -1.23041 -4.20467 0
M  V30 6053 C 559.517 0.562882 -4.39712 0
M  V30 6054 H 556.737 -0.0694453 -0.667397 0
M  V30 6055 H 559.281 -0.837008 -1.86586 0
M  V30 6056 H 557.436 0.710016 -3.80838 0
M  V30 6057 H 557.85 -1.06094 -5.13658 0
M  V30 6058 H 559.324 0.613213 -5.48583 0
M  V30 6059 H 559.801 1.58543 -4.09586 0
M  V30 6060 H 560.407 -0.0794454 -4.25226 0
M  V30 6061 N 558.722 1.53707 -0.348139 0
M  V30 6062 C 559.969 2.00988 0.246966 0
M  V30 6063 C 560.297 1.23586 1.50189 0
M  V30 6064 O 559.552 0.312817 1.93184 0
M  V30 6065 C 559.851 3.52292 0.602061 0
M  V30 6066 C 559.517 4.47453 -0.556509 0
M  V30 6067 C 558.179 4.73188 -0.874446 0
M  V30 6068 C 560.531 5.03851 -1.33354 0
M  V30 6069 C 557.859 5.52577 -1.9717 0
M  V30 6070 C 560.211 5.84437 -2.42108 0
M  V30 6071 C 558.875 6.08465 -2.74456 0
M  V30 6072 H 558.145 0.735469 0.0903712 0
M  V30 6073 H 560.792 1.85464 -0.477001 0
M  V30 6074 H 559.097 3.65672 1.40681 0
M  V30 6075 H 560.794 3.86337 1.07447 0
M  V30 6076 H 557.384 4.27558 -0.298652 0
M  V30 6077 H 561.568 4.8393 -1.10117 0
M  V30 6078 H 556.824 5.69418 -2.22651 0
M  V30 6079 H 560.998 6.27151 -3.02745 0
M  V30 6080 H 558.625 6.69768 -3.59604 0
M  V30 6081 N 560.2 0.0768682 1.57412 0
M  V30 6082 C 561.11 -0.903207 2.16516 0
M  V30 6083 C 562.126 -1.32341 1.12968 0
M  V30 6084 O 563.302 -1.39507 1.45258 0
M  V30 6085 C 560.367 -2.1508 2.71922 0
M  V30 6086 C 559.428 -1.78653 3.90361 0
M  V30 6087 C 558.661 -2.97465 4.43114 0
M  V30 6088 O 558.884 -4.11638 3.94854 0
M  V30 6089 O 557.818 -2.76987 5.3438 0
M  V30 6090 H 561.644 -0.430427 3.00634 0
M  V30 6091 H 559.229 -0.146485 1.4868 0
M  V30 6092 H 561.111 -2.8823 3.07411 0
M  V30 6093 H 559.786 -2.61446 1.9086 0
M  V30 6094 H 558.693 -1.0274 3.59716 0
M  V30 6095 H 560.026 -1.37066 4.7273 0
M  V30 6096 N 561.678 -1.56367 -0.196722 0
M  V30 6097 C 562.608 -1.97442 -1.24655 0
M  V30 6098 C 563.589 -0.846147 -1.47561 0
M  V30 6099 O 564.774 -1.11035 -1.59326 0
M  V30 6100 C 561.904 -2.31253 -2.59112 0
M  V30 6101 C 560.858 -3.46804 -2.50821 0
M  V30 6102 C 560.184 -3.66286 -3.89536 0
M  V30 6103 C 561.484 -4.8104 -2.03465 0
M  V30 6104 H 563.178 -2.85388 -0.905216 0
M  V30 6105 H 560.724 -1.37304 -0.434002 0
M  V30 6106 H 562.677 -2.58583 -3.32736 0
M  V30 6107 H 561.401 -1.40188 -2.94983 0
M  V30 6108 H 560.06 -3.19563 -1.79653 0
M  V30 6109 H 559.708 -2.72555 -4.22756 0
M  V30 6110 H 559.408 -4.4402 -3.84864 0
M  V30 6111 H 560.932 -3.9599 -4.64784 0
M  V30 6112 H 562.346 -5.07411 -2.66846 0
M  V30 6113 H 560.743 -5.62232 -2.09798 0
M  V30 6114 H 561.813 -4.74732 -0.98781 0
M  V30 6115 N 563.156 0.464375 -1.50603 0
M  V30 6116 C 564.433 1.22549 -1.5245 0
M  V30 6117 C 564.813 2.09327 -0.273035 0
M  V30 6118 O 564.161 2.16074 0.743242 0
M  V30 6119 C 564.371 2.05074 -2.82393 0
M  V30 6120 C 565.719 2.63036 -3.33313 0
M  V30 6121 O 566.743 2.1531 -2.8376 0
M  V30 6122 O 565.602 3.5001 -4.19709 0
M  V30 6123 H 562.696 0.556471 -0.611775 0
M  V30 6124 H 565.242 0.475648 -1.62898 0
M  V30 6125 H 564.014 1.41169 -3.64948 0
M  V30 6126 H 563.637 2.87179 -2.7498 0
M  V30 6127 N 564.634 1.40294 0.718013 0
M  V30 6128 C 565.882 1.38167 1.47494 0
M  V30 6129 C 566.203 -0.01607 1.94993 0
M  V30 6130 O 565.473 -0.970396 1.70177 0
M  V30 6131 H 564.053 0.508505 0.547203 0
M  V30 6132 H 566.715 1.75324 0.851322 0
M  V30 6133 H 565.811 2.05503 2.34894 0
M  V30 6134 N 566.112 -0.949982 1.2575 0
M  V30 6135 C 567.359 -1.69515 1.10774 0
M  V30 6136 C 567.687 -1.91316 -0.350479 0
M  V30 6137 O 566.942 -1.48515 -1.27443 0
M  V30 6138 C 567.241 -3.08039 1.81237 0
M  V30 6139 C 566.907 -3.06023 3.31151 0
M  V30 6140 C 565.569 -3.0518 3.72047 0
M  V30 6141 C 567.921 -2.98998 4.26907 0
M  V30 6142 C 565.249 -2.95067 5.07102 0
M  V30 6143 C 567.601 -2.90426 5.61992 0
M  V30 6144 C 566.265 -2.87922 6.0221 0
M  V30 6145 H 565.535 -0.6203 0.405351 0
M  V30 6146 H 568.182 -1.10953 1.56082 0
M  V30 6147 H 566.487 -3.70172 1.28373 0
M  V30 6148 H 568.184 -3.64526 1.67098 0
M  V30 6149 H 564.774 -3.07453 2.98614 0
M  V30 6150 H 568.958 -2.98764 3.963 0
M  V30 6151 H 564.214 -2.915 5.37436 0
M  V30 6152 H 568.388 -2.83952 6.35881 0
M  V30 6153 H 566.015 -2.79841 7.06819 0
M  V30 6154 N 567.59 -1.07411 -1.15328 0
M  V30 6155 C 568.522 -0.652924 -2.19703 0
M  V30 6156 C 569.535 0.294869 -1.60107 0
M  V30 6157 O 570.724 0.0840932 -1.78302 0
M  V30 6158 C 567.824 0.061434 -3.38844 0
M  V30 6159 C 566.997 -0.902696 -4.27984 0
M  V30 6160 C 566.056 -0.225521 -5.25717 0
M  V30 6161 O 565.082 -0.86676 -5.62562 0
M  V30 6162 N 566.284 1.02858 -5.71315 0
M  V30 6163 H 569.049 -1.55081 -2.56457 0
M  V30 6164 H 566.61 -0.958883 -1.30449 0
M  V30 6165 H 568.602 0.525145 -4.01278 0
M  V30 6166 H 567.172 0.861269 -3.00501 0
M  V30 6167 H 566.392 -1.54551 -3.6264 0
M  V30 6168 H 567.68 -1.55636 -4.84412 0
M  V30 6169 H 567.078 1.56948 -5.43492 0
M  V30 6170 H 565.635 1.43596 -6.35786 0
M  V30 6171 N 569.068 1.32177 -0.85831 0
M  V30 6172 C 570.317 1.96392 -0.459689 0
M  V30 6173 C 570.63 1.68659 0.990632 0
M  V30 6174 O 571.836 2.26641 1.49485 0
M  V30 6175 C 570.292 3.51542 -0.7711 0
M  V30 6176 C 569.9 3.8813 -2.2374 0
M  V30 6177 C 571.644 4.2221 -0.44038 0
M  V30 6178 C 569.551 5.36341 -2.49183 0
M  V30 6179 H 568.481 0.735007 -0.168169 0
M  V30 6180 H 571.132 1.50518 -1.0496 0
M  V30 6181 H 569.514 3.95846 -0.11058 0
M  V30 6182 H 570.688 3.54824 -2.94001 0
M  V30 6183 H 569.003 3.30497 -2.533 0
M  V30 6184 H 571.6 5.31234 -0.607855 0
M  V30 6185 H 571.943 4.11683 0.618291 0
M  V30 6186 H 572.476 3.83502 -1.05695 0
M  V30 6187 H 569.215 5.51892 -3.53689 0
M  V30 6188 H 568.735 5.7104 -1.83504 0
M  V30 6189 H 570.414 6.03466 -2.33318 0
M  V30 6190 N 570.547 0.616602 1.45037 0
M  V30 6191 C 571.958 0.199359 1.85633 0
M  V30 6192 C 572.309 -1.24588 1.51566 0
M  V30 6193 O 571.434 -1.94594 0.94668 0
M  V30 6194 C 572.029 0.355033 3.36935 0
M  V30 6195 C 570.588 -0.00758748 3.76399 0
M  V30 6196 C 569.735 0.675256 2.68953 0
M  V30 6197 H 572.686 0.822708 1.3571 0
M  V30 6198 H 572.707 -0.410201 3.78282 0
M  V30 6199 H 572.219 1.40699 3.61698 0
M  V30 6200 H 570.32 -1.05837 3.57252 0
M  V30 6201 H 570.433 0.392346 4.77491 0
M  V30 6202 H 568.797 0.111992 2.54454 0
M  V30 6203 H 569.58 1.72952 2.96551 0
M  V30 6204 N 572.025 -1.5352 0.356285 0
M  V30 6205 C 572.972 -2.25439 -0.494569 0
M  V30 6206 C 573.942 -1.25752 -1.08516 0
M  V30 6207 O 575.127 -1.54513 -1.1194 0
M  V30 6208 C 572.267 -3.04011 -1.63313 0
M  V30 6209 C 571.38 -4.18574 -1.06862 0
M  V30 6210 C 570.515 -4.84607 -2.17552 0
M  V30 6211 C 569.554 -5.91218 -1.58518 0
M  V30 6212 N 568.691 -6.50979 -2.63003 0
M  V30 6213 H 573.531 -2.97737 0.125244 0
M  V30 6214 H 571.068 -1.46916 0.0735789 0
M  V30 6215 H 573.026 -3.47834 -2.30363 0
M  V30 6216 H 571.656 -2.33986 -2.22374 0
M  V30 6217 H 570.708 -3.79303 -0.288672 0
M  V30 6218 H 572.02 -4.95215 -0.596924 0
M  V30 6219 H 571.174 -5.31566 -2.92442 0
M  V30 6220 H 569.913 -4.07418 -2.6807 0
M  V30 6221 H 568.918 -5.4363 -0.821391 0
M  V30 6222 H 570.143 -6.70322 -1.08836 0
M  V30 6223 H 568.089 -5.76648 -3.12751 0
M  V30 6224 H 568.006 -7.23131 -2.20493 0
M  V30 6225 H 569.274 -7.02589 -3.37623 0
M  V30 6226 N 573.503 -0.0852151 -1.57369 0
M  V30 6227 C 574.751 0.579658 -1.93609 0
M  V30 6228 C 575.072 1.69332 -0.967043 0
M  V30 6229 O 574.342 1.95892 -0.0174215 0
M  V30 6230 H 572.922 0.217113 -0.714752 0
M  V30 6231 H 575.584 -0.146226 -1.94351 0
M  V30 6232 H 574.68 0.996276 -2.95771 0
M  V30 6233 N 574.981 1.5647 0.188427 0
M  V30 6234 C 576.227 1.82181 0.904534 0
M  V30 6235 C 576.582 0.663258 1.80606 0
M  V30 6236 O 575.875 -0.341231 1.88537 0
M  V30 6237 C 576.069 3.11596 1.7505 0
M  V30 6238 C 575.898 4.39928 0.932372 0
M  V30 6239 C 574.668 5.01554 0.61417 0
M  V30 6240 C 576.866 5.13527 0.281936 0
M  V30 6241 N 574.848 6.13499 -0.221896 0
M  V30 6242 C 576.219 6.18603 -0.416037 0
M  V30 6243 C 578.274 4.97505 0.198345 0
M  V30 6244 C 576.977 7.09394 -1.18965 0
M  V30 6245 C 579.003 5.88725 -0.561887 0
M  V30 6246 C 578.365 6.93251 -1.24828 0
M  V30 6247 H 574.464 0.717858 0.310168 0
M  V30 6248 H 577.048 1.93932 0.172757 0
M  V30 6249 H 575.219 3.01068 2.45383 0
M  V30 6250 H 576.951 3.25369 2.4066 0
M  V30 6251 H 573.706 4.64174 0.940187 0
M  V30 6252 H 574.13 6.74065 -0.629735 0
M  V30 6253 H 578.772 4.16716 0.714665 0
M  V30 6254 H 576.49 7.8964 -1.71737 0
M  V30 6255 H 580.076 5.78401 -0.628009 0
M  V30 6256 H 578.956 7.62618 -1.82712 0
M  V30 6257 N 576.459 -0.456382 1.50847 0
M  V30 6258 C 577.684 -1.2349 1.66628 0
M  V30 6259 C 578.109 -1.84715 0.355254 0
M  V30 6260 O 577.467 -1.67961 -0.682559 0
M  V30 6261 C 577.515 -2.30865 2.77009 0
M  V30 6262 O 576.619 -3.35882 2.39285 0
M  V30 6263 H 575.96 -0.36266 0.556214 0
M  V30 6264 H 578.49 -0.541374 1.97308 0
M  V30 6265 H 578.5 -2.75949 3.00526 0
M  V30 6266 H 577.175 -1.85677 3.72152 0
M  V30 6267 H 575.752 -2.96406 2.26269 0
M  V30 6268 N 577.937 -1.40673 -0.710563 0
M  V30 6269 C 579.183 -1.39428 -1.47267 0
M  V30 6270 C 579.516 0.00182129 -1.942 0
M  V30 6271 O 578.791 0.971387 -1.68506 0
M  V30 6272 C 579.074 -2.38812 -2.6952 0
M  V30 6273 C 578.927 -3.87467 -2.28449 0
M  V30 6274 C 580.246 -2.3566 -3.71689 0
M  V30 6275 H 577.365 -0.507768 -0.534173 0
M  V30 6276 H 580.007 -1.71843 -0.810547 0
M  V30 6277 H 578.157 -2.113 -3.26013 0
M  V30 6278 H 579.829 -4.25825 -1.77399 0
M  V30 6279 H 578.072 -4.03058 -1.60395 0
M  V30 6280 H 578.743 -4.5253 -3.16103 0
M  V30 6281 H 581.219 -2.6004 -3.24836 0
M  V30 6282 H 580.095 -3.07237 -4.54859 0
M  V30 6283 H 580.356 -1.36996 -4.20339 0
M  V30 6284 N 579.415 0.9433 -1.26252 0
M  V30 6285 C 580.348 2.04162 -1.01946 0
M  V30 6286 C 581.326 1.62507 0.0550808 0
M  V30 6287 O 582.51 1.883 -0.0869025 0
M  V30 6288 C 579.637 3.34313 -0.54335 0
M  V30 6289 C 578.683 3.94939 -1.61013 0
M  V30 6290 S 579.516 4.29484 -3.19849 0
M  V30 6291 C 580.672 5.62738 -2.74001 0
M  V30 6292 H 580.905 2.24466 -1.94942 0
M  V30 6293 H 578.438 1.08441 -1.09909 0
M  V30 6294 H 580.396 4.09576 -0.275315 0
M  V30 6295 H 579.057 3.11957 0.36629 0
M  V30 6296 H 578.25 4.88812 -1.22795 0
M  V30 6297 H 577.852 3.26202 -1.82943 0
M  V30 6298 H 580.144 6.41356 -2.18333 0
M  V30 6299 H 581.087 6.05839 -3.66558 0
M  V30 6300 H 581.495 5.22514 -2.13634 0
M  V30 6301 N 580.893 1.08022 1.14757 0
M  V30 6302 C 582.123 0.827646 1.89298 0
M  V30 6303 C 582.531 -0.623506 1.78631 0
M  V30 6304 O 581.874 -1.43991 1.14071 0
M  V30 6305 C 581.936 1.16553 3.40082 0
M  V30 6306 C 581.6 2.61866 3.74533 0
M  V30 6307 C 582.597 3.60116 3.74984 0
M  V30 6308 C 580.282 2.97619 4.04633 0
M  V30 6309 C 582.276 4.92151 4.05051 0
M  V30 6310 C 579.963 4.2985 4.34364 0
M  V30 6311 C 580.961 5.26926 4.34555 0
M  V30 6312 O 580.649 6.5678 4.63568 0
M  V30 6313 H 580.381 0.298396 0.606577 0
M  V30 6314 H 582.935 1.44187 1.46285 0
M  V30 6315 H 581.165 0.494296 3.83528 0
M  V30 6316 H 582.854 0.894407 3.95923 0
M  V30 6317 H 583.62 3.33837 3.51821 0
M  V30 6318 H 579.499 2.22702 4.03639 0
M  V30 6319 H 583.043 5.67915 4.05115 0
M  V30 6320 H 578.94 4.55879 4.56995 0
M  V30 6321 H 579.708 6.62035 4.81303 0
M  V30 6322 N 582.371 -1.3172 0.865308 0
M  V30 6323 C 583.596 -2.01591 0.487415 0
M  V30 6324 C 584.021 -1.6455 -0.911307 0
M  V30 6325 O 583.379 -0.851689 -1.6005 0
M  V30 6326 C 583.427 -3.54759 0.646401 0
M  V30 6327 O 582.531 -4.11185 -0.316284 0
M  V30 6328 H 581.872 -0.634884 0.194468 0
M  V30 6329 H 584.402 -1.68024 1.16744 0
M  V30 6330 H 584.412 -4.04438 0.537932 0
M  V30 6331 H 583.087 -3.8106 1.66632 0
M  V30 6332 H 581.664 -3.72543 -0.163162 0
M  V30 6333 N 583.85 -0.624285 -1.44708 0
M  V30 6334 C 585.099 -0.123539 -2.01321 0
M  V30 6335 C 585.412 1.25966 -1.49639 0
M  V30 6336 O 586.618 1.85405 -1.98336 0
M  V30 6337 C 585.074 -0.170124 -3.59498 0
M  V30 6338 C 584.682 -1.55421 -4.20176 0
M  V30 6339 C 586.426 0.274513 -4.23611 0
M  V30 6340 C 584.332 -1.55628 -5.70556 0
M  V30 6341 H 583.263 -0.0424183 -0.752806 0
M  V30 6342 H 585.913 -0.782076 -1.65999 0
M  V30 6343 H 584.296 0.555385 -3.92086 0
M  V30 6344 H 585.47 -2.30276 -3.99136 0
M  V30 6345 H 583.784 -1.94235 -3.68323 0
M  V30 6346 H 586.382 0.292402 -5.339 0
M  V30 6347 H 586.725 1.3005 -3.95465 0
M  V30 6348 H 587.258 -0.398275 -3.95801 0
M  V30 6349 H 583.997 -2.56041 -6.03426 0
M  V30 6350 H 583.517 -0.850563 -5.93739 0
M  V30 6351 H 585.196 -1.28721 -6.34066 0
M  V30 6352 N 585.328 1.53329 -0.364422 0
M  V30 6353 C 586.744 1.59594 -0.0133165 0
M  V30 6354 C 586.944 1.37959 1.46865 0
M  V30 6355 O 586 1.18418 2.2301 0
M  V30 6356 C 587.313 2.97032 -0.468213 0
M  V30 6357 C 588.861 3.10138 -0.422334 0
M  V30 6358 C 589.336 4.49986 -0.853024 0
M  V30 6359 N 590.827 4.56098 -0.808037 0
M  V30 6360 C 591.562 5.62495 -1.11299 0
M  V30 6361 N 591.058 6.7665 -1.48717 0
M  V30 6362 N 592.851 5.52473 -1.03586 0
M  V30 6363 H 585.002 1.65644 -1.32951 0
M  V30 6364 H 587.265 0.77684 -0.543345 0
M  V30 6365 H 586.971 3.18 -1.5023 0
M  V30 6366 H 586.845 3.76918 0.145775 0
M  V30 6367 H 589.232 2.88881 0.602622 0
M  V30 6368 H 589.313 2.32263 -1.0718 0
M  V30 6369 H 588.957 4.7198 -1.87609 0
M  V30 6370 H 588.887 5.26289 -0.180819 0
M  V30 6371 H 591.378 3.74131 -0.532361 0
M  V30 6372 H 591.691 7.53776 -1.70415 0
M  V30 6373 H 590.036 6.78044 -1.52581 0
M  V30 6374 H 593.227 4.6217 -0.742736 0
M  V30 6375 H 593.4 6.35295 -1.27686 0
M  V30 6376 N 586.806 0.0935595 1.57322 0
M  V30 6377 C 588.083 -0.612692 1.85756 0
M  V30 6378 C 588.463 -1.86439 0.99013 0
M  V30 6379 O 587.811 -2.28416 0.0621362 0
M  V30 6380 C 588.021 -0.929547 3.36393 0
M  V30 6381 C 589.369 -1.29366 4.04413 0
M  V30 6382 O 590.393 -1.02061 3.41265 0
M  V30 6383 O 589.252 -1.80498 5.15832 0
M  V30 6384 H 586.346 -0.306444 0.768128 0
M  V30 6385 H 588.892 0.126141 1.69231 0
M  V30 6386 H 587.664 -0.0414766 3.91278 0
M  V30 6387 H 587.287 -1.72441 3.5826 0
M  V30 6388 N 588.284 -1.56567 -0.180126 0
M  V30 6389 C 589.512 -1.85618 -0.913972 0
M  V30 6390 C 589.927 -0.677892 -1.7621 0
M  V30 6391 O 589.284 0.353171 -1.7905 0
M  V30 6392 C 589.335 -3.13619 -1.79793 0
M  V30 6393 O 589.056 -4.26906 -0.98402 0
M  V30 6394 C 590.557 -3.55954 -2.64219 0
M  V30 6395 H 587.777 -0.616043 -0.265954 0
M  V30 6396 H 590.321 -2.03681 -0.182872 0
M  V30 6397 H 588.476 -2.97409 -2.48247 0
M  V30 6398 H 588.89 -4.9989 -1.58776 0
M  V30 6399 H 590.364 -4.48444 -3.21873 0
M  V30 6400 H 590.841 -2.79653 -3.38661 0
M  V30 6401 H 591.447 -3.74746 -2.01111 0
M  V30 6402 N 589.762 0.448376 -1.51087 0
M  V30 6403 C 590.712 1.54156 -1.67988 0
M  V30 6404 C 591.696 1.5178 -0.534015 0
M  V30 6405 O 592.888 1.58419 -0.789448 0
M  V30 6406 C 590.017 2.92437 -1.79822 0
M  V30 6407 C 589.103 2.99611 -3.00157 0
M  V30 6408 N 589.494 2.7655 -4.23502 0
M  V30 6409 C 587.792 3.30764 -2.99184 0
M  V30 6410 C 588.493 2.89281 -5.0467 0
M  V30 6411 N 587.469 3.20473 -4.39088 0
M  V30 6412 H 591.271 1.35061 -2.61028 0
M  V30 6413 H 588.785 0.655504 -1.48583 0
M  V30 6414 H 590.782 3.71068 -1.90037 0
M  V30 6415 H 589.442 3.1256 -0.879554 0
M  V30 6416 H 590.453 2.5169 -4.52628 0
M  V30 6417 H 587.13 3.56732 -2.16907 0
M  V30 6418 H 588.52 2.75499 -6.12821 0
M  V30 6419 N 591.24 1.41047 0.703093 0
M  V30 6420 C 592.517 1.30493 1.45708 0
M  V30 6421 C 592.897 -0.0709892 2.10981 0
M  V30 6422 O 592.245 -1.08471 2.01113 0
M  V30 6423 C 592.455 2.45287 2.48265 0
M  V30 6424 C 593.803 2.86104 3.13735 0
M  V30 6425 O 594.827 2.44971 2.58587 0
M  V30 6426 O 593.686 3.57206 4.13601 0
M  V30 6427 H 590.78 0.513144 0.648546 0
M  V30 6428 H 593.326 1.52995 0.734208 0
M  V30 6429 H 592.098 3.37135 1.98635 0
M  V30 6430 H 591.721 2.24622 3.28071 0
M  V30 6431 N 592.718 -0.936591 1.26751 0
M  V30 6432 C 593.946 -1.71758 1.15355 0
M  V30 6433 C 594.361 -1.86549 -0.290683 0
M  V30 6434 O 593.718 -1.37616 -1.19868 0
M  V30 6435 C 593.769 -3.12193 1.82258 0
M  V30 6436 O 593.49 -2.98105 3.21038 0
M  V30 6437 C 594.991 -4.06485 1.76875 0
M  V30 6438 H 592.211 -0.537636 0.401483 0
M  V30 6439 H 594.755 -1.17382 1.67457 0
M  V30 6440 H 592.91 -3.63456 1.34083 0
M  V30 6441 H 593.324 -3.86824 3.54214 0
M  V30 6442 H 594.798 -5.02569 2.28316 0
M  V30 6443 H 595.275 -4.32986 0.736216 0
M  V30 6444 H 595.881 -3.61144 2.24623 0
M  V30 6445 N 594.196 -1.08629 -1.14182 0
M  V30 6446 C 595.159 -0.722027 -2.1753 0
M  V30 6447 C 596.159 0.244305 -1.58933 0
M  V30 6448 O 597.349 0.0235545 -1.74184 0
M  V30 6449 C 594.481 -0.0663966 -3.40835 0
M  V30 6450 H 595.674 -1.63719 -2.51269 0
M  V30 6451 H 593.227 -0.884442 -1.28869 0
M  V30 6452 H 593.962 0.860389 -3.12678 0
M  V30 6453 H 593.747 -0.761598 -3.84632 0
M  V30 6454 H 595.237 0.173346 -4.1724 0
M  V30 6455 N 595.674 1.31259 -0.872281 0
M  V30 6456 C 597.085 1.78822 -0.536617 0
M  V30 6457 C 597.436 1.71855 0.946594 0
M  V30 6458 O 596.561 1.28769 1.73918 0
M  V30 6459 C 597.156 3.24698 -0.967294 0
M  V30 6460 C 595.715 3.70147 -0.683251 0
M  V30 6461 C 594.862 2.51994 -1.15733 0
M  V30 6462 H 597.813 1.18308 -1.05777 0
M  V30 6463 H 597.834 3.79386 -0.290929 0
M  V30 6464 H 597.346 3.29737 -2.04683 0
M  V30 6465 H 595.447 3.70607 0.384825 0
M  V30 6466 H 595.56 4.62183 -1.2619 0
M  V30 6467 H 593.924 2.48078 -0.577024 0
M  V30 6468 H 594.707 2.59778 -2.24434 0
M  V30 6469 N 597.152 0.631951 1.44375 0
M  V30 6470 C 598.398 0.13697 2.02337 0
M  V30 6471 C 598.731 -1.23826 1.49602 0
M  V30 6472 O 598.006 -1.8221 0.680415 0
M  V30 6473 C 598.289 0.124536 3.59885 0
M  V30 6474 C 598.142 1.53217 4.229 0
M  V30 6475 C 599.461 -0.550481 4.36644 0
M  V30 6476 H 596.58 0.051247 0.735216 0
M  V30 6477 H 599.222 0.808581 1.71936 0
M  V30 6478 H 597.372 -0.44737 3.85916 0
M  V30 6479 H 599.044 2.15303 4.07973 0
M  V30 6480 H 597.287 2.0858 3.80364 0
M  V30 6481 H 597.958 1.4755 5.31914 0
M  V30 6482 H 600.434 -0.0641154 4.16051 0
M  V30 6483 H 599.31 -0.528371 5.46351 0
M  V30 6484 H 599.571 -1.62097 4.11311 0
M  V30 6485 N 598.631 -1.53133 0.372548 0
M  V30 6486 C 599.878 -2.01356 -0.214959 0
M  V30 6487 C 600.206 -1.2596 -1.48204 0
M  V30 6488 O 599.461 -0.343511 -1.92662 0
M  V30 6489 C 599.76 -3.53206 -0.545938 0
M  V30 6490 C 599.426 -4.46511 0.627624 0
M  V30 6491 C 598.088 -4.71737 0.949615 0
M  V30 6492 C 600.44 -5.01666 1.41353 0
M  V30 6493 C 597.768 -5.4937 2.05936 0
M  V30 6494 C 600.12 -5.80511 2.51375 0
M  V30 6495 C 598.784 -6.04022 2.84101 0
M  V30 6496 H 598.054 -0.736813 -0.078659 0
M  V30 6497 H 600.701 -1.84682 0.506447 0
M  V30 6498 H 599.006 -3.67864 -1.34845 0
M  V30 6499 H 600.703 -3.87997 -1.01287 0
M  V30 6500 H 597.293 -4.27029 0.366635 0
M  V30 6501 H 601.477 -4.82117 1.17802 0
M  V30 6502 H 596.733 -5.65803 2.31682 0
M  V30 6503 H 600.907 -6.22255 3.12684 0
M  V30 6504 H 598.534 -6.63962 3.70214 0
M  V30 6505 N 600.109 -0.101901 -1.5727 0
M  V30 6506 C 601.056 0.854577 -2.14396 0
M  V30 6507 C 602.026 1.27521 -1.06432 0
M  V30 6508 O 603.211 1.35575 -1.34253 0
M  V30 6509 C 600.351 2.10576 -2.73408 0
M  V30 6510 C 599.464 1.73504 -3.95626 0
M  V30 6511 C 598.599 2.9346 -4.42781 0
M  V30 6512 C 597.638 2.52547 -5.57572 0
M  V30 6513 N 596.775 3.65359 -5.99547 0
M  V30 6514 H 601.615 0.360578 -2.9581 0
M  V30 6515 H 599.152 0.166303 -1.46157 0
M  V30 6516 H 601.11 2.83859 -3.05745 0
M  V30 6517 H 599.74 2.57463 -1.94711 0
M  V30 6518 H 598.792 0.901622 -3.6956 0
M  V30 6519 H 600.104 1.39426 -4.78917 0
M  V30 6520 H 599.258 3.74988 -4.76937 0
M  V30 6521 H 597.997 3.30753 -3.58404 0
M  V30 6522 H 597.002 1.69446 -5.23037 0
M  V30 6523 H 598.227 2.1639 -6.43702 0
M  V30 6524 H 596.173 4.02358 -5.18116 0
M  V30 6525 H 596.09 3.35148 -6.77652 0
M  V30 6526 H 597.358 4.47378 -6.38336 0
M  V30 6527 N 601.587 1.56661 0.17182 0
M  V30 6528 C 602.864 1.72838 0.915778 0
M  V30 6529 C 603.244 0.66316 2.00413 0
M  V30 6530 O 602.592 -0.322123 2.26218 0
M  V30 6531 C 602.802 3.16019 1.48097 0
M  V30 6532 C 604.15 3.76962 1.95408 0
M  V30 6533 O 605.174 3.19294 1.57892 0
M  V30 6534 O 604.033 4.78219 2.64516 0
M  V30 6535 H 601.127 0.705797 0.431021 0
M  V30 6536 H 603.673 1.68947 0.159689 0
M  V30 6537 H 602.445 3.85031 0.697618 0
M  V30 6538 H 602.068 3.24234 2.30126 0
M  V30 6539 N 603.065 -0.440357 1.51323 0
M  V30 6540 C 604.311 -1.19181 1.64085 0
M  V30 6541 C 604.644 -1.90936 0.354575 0
M  V30 6542 O 603.919 -1.8347 -0.645675 0
M  V30 6543 C 604.202 -2.2112 2.84215 0
M  V30 6544 C 604.055 -1.53468 4.22809 0
M  V30 6545 C 605.374 -3.22133 2.99864 0
M  V30 6546 H 602.493 -0.431924 0.597169 0
M  V30 6547 H 605.135 -0.481443 1.83799 0
M  V30 6548 H 603.285 -2.81703 2.67537 0
M  V30 6549 H 604.957 -0.962455 4.51148 0
M  V30 6550 H 603.2 -0.837086 4.25647 0
M  V30 6551 H 603.871 -2.27694 5.02852 0
M  V30 6552 H 606.347 -2.71601 3.15233 0
M  V30 6553 H 605.223 -3.90756 3.85488 0
M  V30 6554 H 605.484 -3.88061 2.11804 0
M  V30 6555 N 604.543 -1.41418 -0.695603 0
M  V30 6556 C 605.491 -1.43467 -1.83084 0
M  V30 6557 C 606.485 -0.312719 -1.66489 0
M  V30 6558 O 607.691 -0.484744 -1.7335 0
M  V30 6559 H 604.066 -0.448891 -0.603325 0
M  V30 6560 H 606.037 -2.39144 -1.78473 0
M  V30 6561 C 604.786 -1.3337 -3.21104 0
M  V30 6562 H 604.109 -2.18989 -3.3449 0
M  V30 6563 H 605.549 -1.38865 -4.00615 0
M  V30 6564 C 604.008 -0.0460484 -3.36869 0
M  V30 6565 O 604.538 0.909258 -3.91274 0
M  V30 6566 N 602.744 0.0300222 -2.90584 0
M  V30 6567 H 602.291 -0.748129 -2.46497 0
M  V30 6568 H 602.249 0.890991 -3.01511 0
M  V30 6569 N 606.021 0.929856 -1.27246 0
M  V30 6570 C 607.267 1.6798 -1.13625 0
M  V30 6571 C 607.6 1.91586 0.317589 0
M  V30 6572 O 606.875 1.50467 1.23247 0
M  V30 6573 C 607.158 3.04766 -1.91806 0
M  V30 6574 C 607.011 2.88415 -3.45162 0
M  V30 6575 C 608.33 4.05063 -1.72082 0
M  V30 6576 H 605.449 0.609632 -0.414147 0
M  V30 6577 H 608.091 1.0792 -1.56376 0
M  V30 6578 H 606.241 3.56034 -1.55474 0
M  V30 6579 H 607.913 2.44282 -3.91311 0
M  V30 6580 H 606.156 2.23802 -3.71611 0
M  V30 6581 H 606.827 3.85482 -3.95105 0
M  V30 6582 H 609.303 3.62798 -2.03757 0
M  V30 6583 H 608.179 4.98765 -2.29182 0
M  V30 6584 H 608.44 4.37021 -0.668206 0
M  V30 6585 N 607.499 1.09233 1.13605 0
M  V30 6586 C 608.746 0.827159 1.84836 0
M  V30 6587 C 609.074 -0.647199 1.83416 0
M  V30 6588 O 608.329 -1.49228 1.26608 0
M  V30 6589 C 608.628 1.305 3.32723 0
M  V30 6590 C 608.294 2.78864 3.54325 0
M  V30 6591 C 606.956 3.19382 3.59928 0
M  V30 6592 C 609.308 3.74532 3.62457 0
M  V30 6593 C 606.636 4.54346 3.71196 0
M  V30 6594 C 608.988 5.09283 3.75252 0
M  V30 6595 C 607.652 5.49394 3.79108 0
M  V30 6596 H 606.922 0.302679 0.676363 0
M  V30 6597 H 609.569 1.36676 1.34134 0
M  V30 6598 H 607.874 0.68517 3.85762 0
M  V30 6599 H 609.571 1.07648 3.86281 0
M  V30 6600 H 606.161 2.46507 3.50617 0
M  V30 6601 H 610.345 3.44343 3.57409 0
M  V30 6602 H 605.601 4.84864 3.72447 0
M  V30 6603 H 609.775 5.83269 3.80487 0
M  V30 6604 H 607.402 6.5397 3.87591 0
M  V30 6605 N 608.977 -1.30795 0.87923 0
M  V30 6606 C 610.254 -1.91145 0.415086 0
M  V30 6607 C 610.634 -1.7995 -1.10368 0
M  V30 6608 O 609.982 -1.21305 -1.93642 0
M  V30 6609 C 610.192 -3.37014 0.906778 0
M  V30 6610 C 611.54 -4.14101 0.938358 0
M  V30 6611 O 612.564 -3.45834 0.853053 0
M  V30 6612 O 611.423 -5.36054 1.06342 0
M  V30 6613 H 608.517 -0.81736 0.125905 0
M  V30 6614 H 611.063 -1.39401 0.967753 0
M  V30 6615 H 609.835 -3.3922 1.95053 0
M  V30 6616 H 609.458 -3.96204 0.332948 0
M  V30 6617 N 610.455 -0.639598 -1.44038 0
M  V30 6618 C 611.866 -0.228866 -1.85292 0
M  V30 6619 C 612.217 1.22161 -1.53529 0
M  V30 6620 O 611.342 1.93064 -0.977518 0
M  V30 6621 C 611.937 -0.408592 -3.36327 0
M  V30 6622 C 610.496 -0.0522953 -3.76364 0
M  V30 6623 C 609.643 -0.717959 -2.67844 0
M  V30 6624 H 612.594 -0.844194 -1.34384 0
M  V30 6625 H 612.615 0.349968 -3.78887 0
M  V30 6626 H 612.127 -1.46435 -3.59414 0
M  V30 6627 H 610.228 1.0014 -3.58891 0
M  V30 6628 H 610.341 -0.468261 -4.76806 0
M  V30 6629 H 608.705 -0.152459 -2.54243 0
M  V30 6630 H 609.488 -1.77648 -2.93762 0
M  V30 6631 N 611.933 1.52934 -0.380664 0
M  V30 6632 C 613.21 1.93845 0.261417 0
M  V30 6633 C 613.59 1.31544 1.65104 0
M  V30 6634 O 612.938 0.480234 2.23397 0
M  V30 6635 C 613.148 3.47739 0.296466 0
M  V30 6636 C 614.496 4.21284 0.529578 0
M  V30 6637 O 615.52 3.54199 0.377041 0
M  V30 6638 O 614.379 5.40195 0.827753 0
M  V30 6639 H 611.473 0.811318 0.160285 0
M  V30 6640 H 614.019 1.64042 -0.434544 0
M  V30 6641 H 612.791 3.85395 -0.67724 0
M  V30 6642 H 612.414 3.8382 1.0377 0
M  V30 6643 N 613.412 0.11024 1.57214 0
M  V30 6644 C 614.828 -0.24638 1.57687 0
M  V30 6645 C 615.028 -1.67344 1.12241 0
M  V30 6646 O 614.084 -2.39298 0.805783 0
M  V30 6647 C 615.397 -0.0210288 3.00693 0
M  V30 6648 C 616.945 -0.0876077 3.12877 0
M  V30 6649 C 617.42 0.10994 4.57868 0
M  V30 6650 N 618.911 0.0556135 4.63167 0
M  V30 6651 C 619.646 0.183495 5.73106 0
M  V30 6652 N 619.142 0.367058 6.91827 0
M  V30 6653 N 620.935 0.123689 5.61964 0
M  V30 6654 H 613.086 1.04246 1.85058 0
M  V30 6655 H 615.349 0.40979 0.854854 0
M  V30 6656 H 615.055 0.965203 3.38196 0
M  V30 6657 H 614.929 -0.756748 3.69531 0
M  V30 6658 H 617.316 -1.06436 2.75237 0
M  V30 6659 H 617.397 0.67985 2.466 0
M  V30 6660 H 617.041 1.08362 4.96206 0
M  V30 6661 H 616.971 -0.677397 5.22225 0
M  V30 6662 H 619.462 -0.0831062 3.77809 0
M  V30 6663 H 619.775 0.455739 7.71455 0
M  V30 6664 H 618.12 0.40292 6.93831 0
M  V30 6665 H 621.311 -0.0186928 4.68096 0
M  V30 6666 H 621.484 0.226797 6.47603 0
M  V30 6667 N 614.89 -1.56749 -0.16351 0
M  V30 6668 C 616.137 -1.82434 -0.878866 0
M  V30 6669 C 616.465 -0.688557 -1.81904 0
M  V30 6670 O 615.72 0.323644 -1.93005 0
M  V30 6671 C 616.019 -3.14342 -1.70071 0
M  V30 6672 C 615.685 -4.41647 -0.908775 0
M  V30 6673 C 614.347 -4.76224 -0.690236 0
M  V30 6674 C 616.699 -5.19998 -0.353815 0
M  V30 6675 C 614.027 -5.86624 0.0942374 0
M  V30 6676 C 616.379 -6.3122 0.41761 0
M  V30 6677 C 615.043 -6.64358 0.646879 0
M  V30 6678 H 614.313 -0.667574 -0.3216 0
M  V30 6679 H 616.96 -1.90963 -0.14337 0
M  V30 6680 H 615.265 -3.0119 -2.50583 0
M  V30 6681 H 616.962 -3.31426 -2.25738 0
M  V30 6682 H 613.552 -4.1453 -1.08916 0
M  V30 6683 H 617.736 -4.93673 -0.509975 0
M  V30 6684 H 612.992 -6.10751 0.281529 0
M  V30 6685 H 617.166 -6.91133 0.854849 0
M  V30 6686 H 614.793 -7.49742 1.25662 0
M  V30 6687 N 616.368 0.432326 -1.51554 0
M  V30 6688 C 617.593 1.20824 -1.68571 0
M  V30 6689 C 618.018 1.84126 -0.384596 0
M  V30 6690 O 617.376 1.69025 0.655751 0
M  V30 6691 C 617.424 2.26429 -2.80646 0
M  V30 6692 O 616.528 3.32032 -2.44598 0
M  V30 6693 H 615.869 0.353765 -0.561913 0
M  V30 6694 H 618.399 0.509916 -1.98144 0
M  V30 6695 H 618.409 2.71133 -3.04878 0
M  V30 6696 H 617.084 1.79733 -3.75058 0
M  V30 6697 H 615.661 2.92769 -2.30956 0
M  V30 6698 N 617.846 1.41785 0.688094 0
M  V30 6699 C 618.778 1.40159 1.81351 0
M  V30 6700 C 619.791 0.30262 1.59963 0
M  V30 6701 O 620.98 0.564841 1.69327 0
M  V30 6702 C 618.08 1.16517 3.1824 0
M  V30 6703 C 617.253 2.38597 3.66593 0
M  V30 6704 C 616.312 2.10699 4.82174 0
M  V30 6705 O 615.338 2.83798 4.93404 0
M  V30 6706 N 616.54 1.10187 5.69947 0
M  V30 6707 H 619.305 2.3716 1.83236 0
M  V30 6708 H 616.866 1.36494 0.870697 0
M  V30 6709 H 618.858 0.957941 3.93199 0
M  V30 6710 H 617.428 0.280873 3.11336 0
M  V30 6711 H 616.648 2.74974 2.82459 0
M  V30 6712 H 617.936 3.19919 3.95638 0
M  V30 6713 H 617.334 0.497016 5.63512 0
M  V30 6714 H 615.891 0.954518 6.44773 0
M  V30 6715 N 619.324 -0.923095 1.27737 0
M  V30 6716 C 620.287 -2.00587 1.10894 0
M  V30 6717 C 621.287 -1.60718 0.0514927 0
M  V30 6718 O 622.477 -1.71658 0.296481 0
M  V30 6719 C 619.609 -3.33829 0.690717 0
M  V30 6720 H 620.802 -2.16959 2.07048 0
M  V30 6721 H 618.355 -1.10451 1.1059 0
M  V30 6722 H 619.09 -3.23157 -0.272 0
M  V30 6723 H 618.875 -3.64125 1.45448 0
M  V30 6724 H 620.365 -4.13336 0.595252 0
M  V30 6725 N 620.802 -1.09834 -1.13024 0
M  V30 6726 C 622.218 -0.828875 -1.36388 0
M  V30 6727 C 622.418 0.554756 -1.93713 0
M  V30 6728 O 621.474 1.30882 -2.15931 0
M  V30 6729 C 622.787 -1.92352 -2.3113 0
M  V30 6730 C 624.335 -1.95124 -2.44735 0
M  V30 6731 C 624.81 -3.03745 -3.42787 0
M  V30 6732 N 626.301 -3.03012 -3.5034 0
M  V30 6733 C 627.036 -3.83699 -4.26101 0
M  V30 6734 N 626.532 -4.74306 -5.04981 0
M  V30 6735 N 628.325 -3.71942 -4.21445 0
M  V30 6736 H 620.476 -1.99029 -0.74169 0
M  V30 6737 H 622.739 -0.864557 -0.388903 0
M  V30 6738 H 622.445 -2.91906 -1.96172 0
M  V30 6739 H 622.319 -1.80536 -3.3119 0
M  V30 6740 H 624.706 -0.962069 -2.78977 0
M  V30 6741 H 624.787 -2.11018 -1.44586 0
M  V30 6742 H 624.431 -4.02878 -3.09276 0
M  V30 6743 H 624.361 -2.85094 -4.42752 0
M  V30 6744 H 626.852 -2.37352 -2.94062 0
M  V30 6745 H 627.165 -5.32446 -5.60108 0
M  V30 6746 H 625.51 -4.78339 -5.04199 0
M  V30 6747 H 628.701 -3.00513 -3.589 0
M  V30 6748 H 628.874 -4.35062 -4.80235 0
M  V30 6749 N 622.28 1.30327 -0.886154 0
M  V30 6750 C 623.505 2.0079 -0.519425 0
M  V30 6751 C 623.93 1.65979 0.885013 0
M  V30 6752 O 623.288 0.877043 1.58675 0
M  V30 6753 C 623.336 3.53686 -0.702758 0
M  V30 6754 O 622.44 4.11637 0.250828 0
M  V30 6755 H 621.781 0.63171 -0.204544 0
M  V30 6756 H 624.311 1.66145 -1.19402 0
M  V30 6757 H 624.321 4.03531 -0.602207 0
M  V30 6758 H 622.996 3.78361 -1.72673 0
M  V30 6759 H 621.573 3.72755 0.103873 0
M  V30 6760 N 623.758 0.647228 1.43697 0
M  V30 6761 C 624.668 -0.0487997 2.34549 0
M  V30 6762 C 625.684 -0.818586 1.53542 0
M  V30 6763 O 626.86 -0.767195 1.86215 0
M  V30 6764 C 623.925 -1.00734 3.31743 0
M  V30 6765 C 622.986 -0.23515 4.28655 0
M  V30 6766 C 622.219 -1.14803 5.21206 0
M  V30 6767 O 622.442 -2.38717 5.18045 0
M  V30 6768 O 621.376 -0.623667 5.9866 0
M  V30 6769 H 625.202 0.698863 2.9555 0
M  V30 6770 H 622.787 0.407412 1.43738 0
M  V30 6771 H 624.669 -1.55837 3.91526 0
M  V30 6772 H 623.344 -1.73534 2.73254 0
M  V30 6773 H 622.251 0.359319 3.7237 0
M  V30 6774 H 623.584 0.453152 4.9011 0
M  V30 6775 N 625.236 -1.5273 0.388769 0
M  V30 6776 C 626.513 -1.93981 -0.251133 0
M  V30 6777 C 626.893 -1.32418 -1.64404 0
M  V30 6778 O 626.241 -0.492074 -2.23139 0
M  V30 6779 C 626.451 -3.47891 -0.27802 0
M  V30 6780 C 627.799 -4.21559 -0.507229 0
M  V30 6781 O 628.823 -3.54394 -0.358252 0
M  V30 6782 O 627.682 -5.40626 -0.799094 0
M  V30 6783 H 624.776 -0.812157 -0.15598 0
M  V30 6784 H 627.322 -1.63809 0.443237 0
M  V30 6785 H 626.094 -3.8503 0.697669 0
M  V30 6786 H 625.717 -3.84364 -1.01733 0
M  V30 6787 N 626.714 -0.118576 -1.57153 0
M  V30 6788 C 627.661 0.831789 -2.1529 0
M  V30 6789 C 628.631 1.26385 -1.07778 0
M  V30 6790 O 629.816 1.34144 -1.35684 0
M  V30 6791 C 626.956 2.07664 -2.75626 0
M  V30 6792 C 626.069 1.69298 -3.97444 0
M  V30 6793 C 625.204 2.88747 -4.45868 0
M  V30 6794 C 624.243 2.46619 -5.60219 0
M  V30 6795 N 623.38 3.5898 -6.03389 0
M  V30 6796 H 628.22 0.329183 -2.96176 0
M  V30 6797 H 625.757 0.150792 -1.46325 0
M  V30 6798 H 627.715 2.80601 -3.08738 0
M  V30 6799 H 626.345 2.55384 -1.97431 0
M  V30 6800 H 625.397 0.862374 -3.70496 0
M  V30 6801 H 626.709 1.34338 -4.80369 0
M  V30 6802 H 625.863 3.69909 -4.80887 0
M  V30 6803 H 624.602 3.26933 -3.61892 0
M  V30 6804 H 623.607 1.63889 -5.24805 0
M  V30 6805 H 624.832 2.0955 -6.45961 0
M  V30 6806 H 622.778 3.9684 -5.22354 0
M  V30 6807 H 622.695 3.27942 -6.81168 0
M  V30 6808 H 623.963 4.40583 -6.43045 0
M  V30 6809 N 628.193 1.56834 0.155195 0
M  V30 6810 C 629.47 1.73799 0.897395 0
M  V30 6811 C 629.85 0.684379 1.99698 0
M  V30 6812 O 629.198 -0.298111 2.26547 0
M  V30 6813 C 629.408 3.17572 1.44737 0
M  V30 6814 C 630.756 3.79014 1.91399 0
M  V30 6815 O 631.78 3.20951 1.54496 0
M  V30 6816 O 630.639 4.80998 2.59429 0
M  V30 6817 H 627.733 0.710329 0.423511 0
M  V30 6818 H 630.279 1.69107 0.141761 0
M  V30 6819 H 629.051 3.85749 0.656741 0
M  V30 6820 H 628.674 3.26657 2.26674 0
M  V30 6821 N 629.671 -0.424282 1.51781 0
M  V30 6822 C 630.919 -1.17028 1.64769 0
M  V30 6823 C 631.24 -1.91409 0.372523 0
M  V30 6824 O 630.51 -1.86091 -0.612108 0
M  V30 6825 H 629.09 -0.434992 0.607282 0
M  V30 6826 H 631.752 -0.485169 1.88765 0
M  V30 6827 H 630.848 -1.8927 2.4816 0
M  V30 6828 N 631.149 -1.42148 -0.680565 0
M  V30 6829 C 632.565 -1.24947 -0.992995 0
M  V30 6830 C 632.765 -0.149527 -2.00944 0
M  V30 6831 O 631.821 0.481145 -2.47873 0
M  V30 6832 C 633.134 -2.60426 -1.5033 0
M  V30 6833 C 634.682 -2.67733 -1.62137 0
M  V30 6834 C 635.157 -4.03564 -2.16565 0
M  V30 6835 N 636.648 -4.05488 -2.23905 0
M  V30 6836 C 637.383 -5.07401 -2.67081 0
M  V30 6837 N 636.879 -6.19698 -3.09751 0
M  V30 6838 N 638.672 -4.94758 -2.66778 0
M  V30 6839 H 630.823 -2.12399 -0.0074788 0
M  V30 6840 H 633.086 -0.94571 -0.0658529 0
M  V30 6841 H 632.792 -3.41743 -0.830947 0
M  V30 6842 H 632.666 -2.83949 -2.483 0
M  V30 6843 H 635.053 -1.86765 -2.2848 0
M  V30 6844 H 635.134 -2.48004 -0.626713 0
M  V30 6845 H 634.778 -4.84987 -1.50833 0
M  V30 6846 H 634.708 -4.20641 -3.1681 0
M  V30 6847 H 637.199 -3.24415 -1.93812 0
M  V30 6848 H 637.512 -6.93318 -3.41365 0
M  V30 6849 H 635.857 -6.23212 -3.07623 0
M  V30 6850 H 639.048 -4.06105 -2.32801 0
M  V30 6851 H 639.221 -5.74317 -3.00107 0
M  V30 6852 N 632.627 0.916307 -1.28225 0
M  V30 6853 C 633.874 1.66518 -1.1523 0
M  V30 6854 C 634.202 1.92178 0.299632 0
M  V30 6855 O 633.457 1.51842 1.2346 0
M  V30 6856 C 633.756 3.03125 -1.8934 0
M  V30 6857 C 633.422 2.97135 -3.39148 0
M  V30 6858 C 632.084 2.95208 -3.80007 0
M  V30 6859 C 634.436 2.87574 -4.34685 0
M  V30 6860 C 631.764 2.81518 -5.14747 0
M  V30 6861 C 634.116 2.75424 -5.69495 0
M  V30 6862 C 632.78 2.71854 -6.09632 0
M  V30 6863 H 632.05 0.609334 -0.421655 0
M  V30 6864 H 634.697 1.06776 -1.58969 0
M  V30 6865 H 633.002 3.66639 -1.38143 0
M  V30 6866 H 634.699 3.59968 -1.76704 0
M  V30 6867 H 631.289 2.99428 -3.06661 0
M  V30 6868 H 635.473 2.88152 -4.04082 0
M  V30 6869 H 630.729 2.77148 -5.44976 0
M  V30 6870 H 634.903 2.66993 -6.43185 0
M  V30 6871 H 632.53 2.61003 -7.1399 0
M  V30 6872 N 634.105 1.10431 1.1244 0
M  V30 6873 C 635.055 0.722378 2.16254 0
M  V30 6874 C 636.039 -0.268427 1.58645 0
M  V30 6875 O 637.231 -0.077169 1.76832 0
M  V30 6876 C 634.36 0.155763 3.42946 0
M  V30 6877 C 633.446 1.17361 4.07538 0
M  V30 6878 N 633.837 2.36429 4.47141 0
M  V30 6879 C 632.135 1.01412 4.34317 0
M  V30 6880 C 632.836 3.01259 4.97612 0
M  V30 6881 N 631.812 2.28777 4.93115 0
M  V30 6882 H 635.614 1.62876 2.4464 0
M  V30 6883 H 633.128 0.982031 1.29344 0
M  V30 6884 H 635.125 -0.135936 4.16678 0
M  V30 6885 H 633.785 -0.745339 3.1603 0
M  V30 6886 H 634.796 2.73954 4.39511 0
M  V30 6887 H 631.473 0.168574 4.1716 0
M  V30 6888 H 632.863 4.02541 5.37968 0
M  V30 6889 N 635.583 -1.29855 0.893053 0
M  V30 6890 C 636.813 -1.99686 0.530019 0
M  V30 6891 C 637.221 -1.67066 -0.888012 0
M  V30 6892 O 636.564 -0.908366 -1.5967 0
M  V30 6893 C 636.626 -3.53855 0.63457 0
M  V30 6894 C 636.29 -4.10013 2.01837 0
M  V30 6895 C 637.287 -4.25406 2.98874 0
M  V30 6896 C 634.972 -4.45202 2.32595 0
M  V30 6897 C 636.966 -4.7521 4.24799 0
M  V30 6898 C 634.653 -4.94704 3.58763 0
M  V30 6899 C 635.651 -5.09662 4.5468 0
M  V30 6900 O 635.339 -5.58093 5.78608 0
M  V30 6901 H 635.071 -0.644913 0.20264 0
M  V30 6902 H 637.625 -1.66518 1.20253 0
M  V30 6903 H 635.855 -3.86583 -0.0949477 0
M  V30 6904 H 637.544 -4.04922 0.281648 0
M  V30 6905 H 638.31 -3.98515 2.76425 0
M  V30 6906 H 634.189 -4.32822 1.58701 0
M  V30 6907 H 637.733 -4.86801 4.99671 0
M  V30 6908 H 633.63 -5.21032 3.81046 0
M  V30 6909 H 634.398 -5.7642 5.81104 0
M  V30 6910 N 637.061 -0.65484 -1.43351 0
M  V30 6911 C 637.991 0.0221809 -2.33489 0
M  V30 6912 C 638.972 0.810272 -1.49561 0
M  V30 6913 O 640.157 0.771426 -1.78221 0
M  V30 6914 C 637.287 0.988117 -3.32947 0
M  V30 6915 C 636.241 0.310026 -4.26876 0
M  V30 6916 C 635.567 1.38752 -5.16384 0
M  V30 6917 C 636.867 -0.798589 -5.16159 0
M  V30 6918 H 638.561 -0.730571 -2.9035 0
M  V30 6919 H 636.107 -0.352773 -1.39612 0
M  V30 6920 H 638.06 1.47067 -3.94904 0
M  V30 6921 H 636.784 1.77205 -2.74346 0
M  V30 6922 H 635.443 -0.152097 -3.66284 0
M  V30 6923 H 635.091 2.16293 -4.54121 0
M  V30 6924 H 634.791 0.939051 -5.80048 0
M  V30 6925 H 636.315 1.87141 -5.81215 0
M  V30 6926 H 637.729 -0.398126 -5.71916 0
M  V30 6927 H 636.126 -1.17163 -5.88552 0
M  V30 6928 H 637.196 -1.65588 -4.55751 0
M  V30 6929 N 638.539 1.52521 -0.396863 0
M  V30 6930 C 639.95 1.86547 0.0754868 0
M  V30 6931 C 640.301 1.31621 1.45501 0
M  V30 6932 O 639.426 0.650563 2.0639 0
M  V30 6933 C 640.021 3.38495 0.143754 0
M  V30 6934 C 638.58 3.72205 0.560413 0
M  V30 6935 C 637.727 2.75954 -0.272856 0
M  V30 6936 H 640.678 1.46323 -0.614434 0
M  V30 6937 H 640.699 3.68153 0.961425 0
M  V30 6938 H 640.211 3.78442 -0.860415 0
M  V30 6939 H 638.312 3.3783 1.57167 0
M  V30 6940 H 638.425 4.78074 0.313314 0
M  V30 6941 H 636.789 2.53339 0.263 0
M  V30 6942 H 637.572 3.1874 -1.27515 0
M  V30 6943 N 640.017 0.126909 1.57088 0
M  V30 6944 C 641.264 -0.529168 1.95464 0
M  V30 6945 C 641.592 -1.6618 1.01067 0
M  V30 6946 O 640.847 -1.95667 0.0360254 0
M  V30 6947 C 641.146 -1.095 3.40212 0
M  V30 6948 C 640.812 -0.0829015 4.50824 0
M  V30 6949 C 639.474 0.195377 4.80803 0
M  V30 6950 C 641.826 0.606411 5.1766 0
M  V30 6951 C 639.154 1.16912 5.74933 0
M  V30 6952 C 641.506 1.56884 6.12838 0
M  V30 6953 C 640.17 1.85502 6.41206 0
M  V30 6954 H 639.44 -0.193636 0.715252 0
M  V30 6955 H 642.087 0.209489 1.90351 0
M  V30 6956 H 640.392 -1.91058 3.42059 0
M  V30 6957 H 642.089 -1.61087 3.67222 0
M  V30 6958 H 638.679 -0.309979 4.27478 0
M  V30 6959 H 642.863 0.404597 4.94648 0
M  V30 6960 H 638.119 1.3975 5.95214 0
M  V30 6961 H 642.293 2.10859 6.6371 0
M  V30 6962 H 639.92 2.61109 7.13951 0
M  V30 6963 N 641.495 -1.56914 -0.146875 0
M  V30 6964 C 642.743 -1.82994 -0.85777 0
M  V30 6965 C 643.064 -0.707814 -1.817 0
M  V30 6966 O 642.334 0.270521 -1.94023 0
M  V30 6967 H 640.914 -0.675106 -0.319751 0
M  V30 6968 H 643.576 -1.9439 -0.140849 0
M  V30 6969 H 642.672 -2.77928 -1.41994 0
M  V30 6970 N 642.974 0.416227 -1.52004 0
M  V30 6971 C 644.222 1.16153 -1.65387 0
M  V30 6972 C 644.543 1.91208 -0.382669 0
M  V30 6973 O 643.813 1.86413 0.602231 0
M  V30 6974 H 642.393 0.431765 -0.60958 0
M  V30 6975 H 645.055 0.475151 -1.89019 0
M  V30 6976 H 644.151 1.87952 -2.4916 0
M  V30 6977 N 644.452 1.42507 0.673017 0
M  V30 6978 C 645.7 1.42789 1.43023 0
M  V30 6979 C 646.021 0.0459738 1.94946 0
M  V30 6980 O 645.291 -0.915765 1.73178 0
M  V30 6981 H 643.871 0.525657 0.530748 0
M  V30 6982 H 646.533 1.77944 0.795113 0
M  V30 6983 H 645.629 2.12872 2.28237 0
M  V30 6984 N 645.93 -0.909495 1.28709 0
M  V30 6985 C 647.176 -1.66151 1.16283 0
M  V30 6986 C 647.509 -1.92067 -0.287069 0
M  V30 6987 O 646.784 -1.52409 -1.20837 0
M  V30 6988 C 647.067 -3.01676 1.9663 0
M  V30 6989 C 646.92 -2.82888 3.49707 0
M  V30 6990 C 648.239 -4.02274 1.78504 0
M  V30 6991 H 645.358 -0.602966 0.423793 0
M  V30 6992 H 648 -1.05418 1.58073 0
M  V30 6993 H 646.15 -3.53515 1.61119 0
M  V30 6994 H 647.822 -2.38026 3.95147 0
M  V30 6995 H 646.065 -2.17862 3.75125 0
M  V30 6996 H 646.736 -3.79147 4.01187 0
M  V30 6997 H 649.212 -3.59511 2.09503 0
M  V30 6998 H 648.088 -4.95056 2.37088 0
M  V30 6999 H 648.349 -4.35903 0.737647 0
M  V30 7000 N 647.408 -1.11026 -1.11852 0
M  V30 7001 C 648.824 -0.843294 -1.35502 0
M  V30 7002 C 649.024 0.534179 -1.9429 0
M  V30 7003 O 648.08 1.28585 -2.17307 0
M  V30 7004 C 649.393 -1.94793 -2.29077 0
M  V30 7005 C 650.941 -1.97709 -2.42652 0
M  V30 7006 C 651.416 -3.07364 -3.39546 0
M  V30 7007 N 652.907 -3.0671 -3.47107 0
M  V30 7008 C 653.642 -3.88197 -4.22008 0
M  V30 7009 N 653.138 -4.79635 -4.99922 0
M  V30 7010 N 654.931 -3.76391 -4.17476 0
M  V30 7011 H 647.082 -1.99805 -0.720538 0
M  V30 7012 H 649.345 -0.868633 -0.379711 0
M  V30 7013 H 649.051 -2.93971 -1.93065 0
M  V30 7014 H 648.925 -1.84039 -3.29256 0
M  V30 7015 H 651.312 -0.991604 -2.77941 0
M  V30 7016 H 651.393 -2.1254 -1.4234 0
M  V30 7017 H 651.037 -4.06136 -3.04985 0
M  V30 7018 H 650.967 -2.89774 -4.39703 0
M  V30 7019 H 653.458 -2.40457 -2.91528 0
M  V30 7020 H 653.771 -5.38357 -5.54429 0
M  V30 7021 H 652.116 -4.8366 -4.99097 0
M  V30 7022 H 655.307 -3.04303 -3.55693 0
M  V30 7023 H 655.48 -4.40131 -4.75593 0
M  V30 7024 N 648.886 1.2938 -0.899927 0
M  V30 7025 C 650.114 1.99691 -0.541386 0
M  V30 7026 C 650.529 1.67355 0.873936 0
M  V30 7027 O 649.886 0.918728 1.57688 0
M  V30 7028 C 649.937 3.54168 -0.72438 0
M  V30 7029 O 649.658 3.85359 -2.08399 0
M  V30 7030 C 651.159 4.41746 -0.370819 0
M  V30 7031 H 648.379 0.638037 -0.207726 0
M  V30 7032 H 650.923 1.6491 -1.20934 0
M  V30 7033 H 649.078 3.87261 -0.103607 0
M  V30 7034 H 649.492 4.80032 -2.11352 0
M  V30 7035 H 650.966 5.49256 -0.549693 0
M  V30 7036 H 651.443 4.33712 0.692148 0
M  V30 7037 H 652.049 4.14125 -0.968543 0
M  V30 7038 N 650.364 0.662433 1.43002 0
M  V30 7039 C 651.604 0.183312 2.03576 0
M  V30 7040 C 651.968 -1.18354 1.51183 0
M  V30 7041 O 653.169 -1.7566 2.03462 0
M  V30 7042 C 651.44 0.202908 3.56824 0
M  V30 7043 S 652.999 -0.20702 4.38311 0
M  V30 7044 H 649.817 0.0765001 0.706872 0
M  V30 7045 H 652.419 0.872827 1.74934 0
M  V30 7046 H 651.123 1.20028 3.92456 0
M  V30 7047 H 650.654 -0.506845 3.90121 0
M  V30 7048 H 652.669 -1.44358 4.74737 0
M  V30 7049 N 651.842 -1.52309 0.404946 0
M  V30 7050 C 652.772 -2.29805 -0.41376 0
M  V30 7051 C 653.753 -1.3384 -1.0498 0
M  V30 7052 O 654.938 -1.62745 -1.05961 0
M  V30 7053 C 652.068 -3.11639 -1.53292 0
M  V30 7054 C 651.022 -4.15616 -1.02211 0
M  V30 7055 C 650.348 -4.8577 -2.23455 0
M  V30 7056 C 651.648 -5.2224 -0.0790725 0
M  V30 7057 H 653.342 -2.98493 0.232878 0
M  V30 7058 H 650.888 -1.43552 0.113441 0
M  V30 7059 H 652.841 -3.64618 -2.11262 0
M  V30 7060 H 651.565 -2.40712 -2.20738 0
M  V30 7061 H 650.224 -3.63641 -0.46484 0
M  V30 7062 H 649.872 -4.11376 -2.89445 0
M  V30 7063 H 649.572 -5.56058 -1.89929 0
M  V30 7064 H 651.096 -5.4156 -2.82038 0
M  V30 7065 H 652.51 -5.70485 -0.567438 0
M  V30 7066 H 650.907 -5.99867 0.167167 0
M  V30 7067 H 651.977 -4.77078 0.867447 0
M  V30 7068 N 653.32 -0.135238 -1.57019 0
M  V30 7069 C 654.568 0.51777 -1.95355 0
M  V30 7070 C 654.889 1.6617 -1.02042 0
M  V30 7071 O 654.159 1.95738 -0.0797343 0
M  V30 7072 H 652.739 0.194264 -0.721298 0
M  V30 7073 H 655.401 -0.207983 -1.93787 0
M  V30 7074 H 654.497 0.901675 -2.98791 0
M  V30 7075 N 654.798 1.5699 0.138552 0
M  V30 7076 C 655.745 1.98899 1.17081 0
M  V30 7077 C 656.715 0.857922 1.42228 0
M  V30 7078 O 657.9 1.12065 1.54422 0
M  V30 7079 C 655.04 2.38189 2.4972 0
M  V30 7080 C 654.153 3.64624 2.31674 0
M  V30 7081 C 653.288 3.9298 3.57407 0
M  V30 7082 C 652.327 5.1266 3.34435 0
M  V30 7083 N 651.464 5.36983 4.5232 0
M  V30 7084 H 656.304 2.86881 0.80642 0
M  V30 7085 H 653.841 1.41925 0.386727 0
M  V30 7086 H 655.799 2.59 3.2707 0
M  V30 7087 H 654.429 1.53275 2.84089 0
M  V30 7088 H 653.481 3.51542 1.45337 0
M  V30 7089 H 654.793 4.52131 2.10664 0
M  V30 7090 H 653.947 4.14335 4.43183 0
M  V30 7091 H 652.686 3.03912 3.8143 0
M  V30 7092 H 651.691 4.9117 2.47048 0
M  V30 7093 H 652.916 6.03288 3.11802 0
M  V30 7094 H 650.862 4.50871 4.76499 0
M  V30 7095 H 650.779 6.18775 4.34343 0
M  V30 7096 H 652.047 5.62842 5.39285 0
M  V30 7097 N 656.276 -0.40816 1.52223 0
M  V30 7098 C 657.226 -1.49648 1.72016 0
M  V30 7099 C 658.21 -1.50311 0.574069 0
M  V30 7100 O 659.402 -1.56271 0.831173 0
M  V30 7101 C 656.531 -2.87566 1.87512 0
M  V30 7102 C 655.617 -2.91547 3.07995 0
M  V30 7103 N 656.008 -2.65225 4.30685 0
M  V30 7104 C 654.306 -3.22715 3.07849 0
M  V30 7105 C 655.007 -2.75799 5.12162 0
M  V30 7106 N 653.983 -3.08719 4.4743 0
M  V30 7107 H 657.785 -1.28093 2.64517 0
M  V30 7108 H 655.299 -0.61588 1.50269 0
M  V30 7109 H 657.296 -3.65899 1.99809 0
M  V30 7110 H 655.956 -3.10118 0.962114 0
M  V30 7111 H 656.967 -2.39601 4.59142 0
M  V30 7112 H 653.644 -3.50856 2.26289 0
M  V30 7113 H 655.034 -2.59155 6.1991 0
M  V30 7114 N 657.755 -1.42862 -0.66545 0
M  V30 7115 C 658.685 -1.49867 -1.79059 0
M  V30 7116 C 659.666 -0.354394 -1.66367 0
M  V30 7117 O 660.851 -0.569969 -1.85647 0
M  V30 7118 C 657.981 -1.40943 -3.17415 0
M  V30 7119 C 656.935 -2.53495 -3.44854 0
M  V30 7120 C 656.261 -2.29626 -4.82883 0
M  V30 7121 C 657.561 -3.95781 -3.40815 0
M  V30 7122 H 659.255 -2.44037 -1.73453 0
M  V30 7123 H 656.801 -1.17456 -0.833071 0
M  V30 7124 H 658.754 -1.4445 -3.95869 0
M  V30 7125 H 657.478 -0.432716 -3.23721 0
M  V30 7126 H 656.137 -2.4932 -2.68766 0
M  V30 7127 H 655.785 -1.30226 -4.8585 0
M  V30 7128 H 655.485 -3.05065 -5.02204 0
M  V30 7129 H 657.009 -2.34897 -5.63609 0
M  V30 7130 H 658.423 -4.01508 -4.09224 0
M  V30 7131 H 656.82 -4.71148 -3.71672 0
M  V30 7132 H 657.89 -4.21786 -2.39216 0
M  V30 7133 N 659.233 0.902656 -1.29189 0
M  V30 7134 C 660.196 1.98797 -1.14071 0
M  V30 7135 C 661.196 1.60615 -0.0770549 0
M  V30 7136 O 662.386 1.71165 -0.323753 0
M  V30 7137 C 659.518 3.32688 -0.743739 0
M  V30 7138 H 660.711 2.13637 -2.10473 0
M  V30 7139 H 658.264 1.08678 -1.12334 0
M  V30 7140 H 658.999 3.23549 0.220554 0
M  V30 7141 H 658.784 3.61765 -1.51223 0
M  V30 7142 H 660.274 4.12337 -0.660935 0
M  V30 7143 N 660.711 1.11618 1.11262 0
M  V30 7144 C 661.658 0.7762 2.17356 0
M  V30 7145 C 662.628 -0.253152 1.6416 0
M  V30 7146 O 663.813 -0.129655 1.90359 0
M  V30 7147 C 660.953 0.227581 3.44349 0
M  V30 7148 C 660.066 1.31372 4.1154 0
M  V30 7149 C 659.201 0.72544 5.26223 0
M  V30 7150 C 658.24 1.7913 5.85302 0
M  V30 7151 N 657.377 1.22237 6.91377 0
M  V30 7152 H 662.217 1.68508 2.45783 0
M  V30 7153 H 659.754 0.841475 1.20655 0
M  V30 7154 H 661.712 -0.108483 4.17059 0
M  V30 7155 H 660.342 -0.644486 3.16301 0
M  V30 7156 H 659.394 1.7667 3.36885 0
M  V30 7157 H 660.706 2.12005 4.51504 0
M  V30 7158 H 659.86 0.339541 6.05749 0
M  V30 7159 H 658.599 -0.112188 4.87571 0
M  V30 7160 H 657.604 2.18648 5.04453 0
M  V30 7161 H 658.829 2.63199 6.26022 0
M  V30 7162 H 656.775 0.406423 6.5474 0
M  V30 7163 H 656.692 1.9654 7.30006 0
M  V30 7164 H 657.96 0.863426 7.74703 0
M  V30 7165 N 662.189 -1.289 0.906776 0
M  V30 7166 C 663.119 -2.29932 0.406659 0
M  V30 7167 C 664.1 -1.6189 -0.522061 0
M  V30 7168 O 665.285 -1.8935 -0.431283 0
M  V30 7169 C 662.415 -3.45425 -0.360366 0
M  V30 7170 C 661.369 -4.25316 0.478574 0
M  V30 7171 C 660.695 -5.33076 -0.416373 0
M  V30 7172 C 661.995 -4.92739 1.7322 0
M  V30 7173 H 663.689 -2.72013 1.25097 0
M  V30 7174 H 661.235 -1.30768 0.602977 0
M  V30 7175 H 663.188 -4.15186 -0.721029 0
M  V30 7176 H 661.912 -3.02206 -1.23852 0
M  V30 7177 H 660.571 -3.57273 0.821662 0
M  V30 7178 H 660.219 -4.86101 -1.29287 0
M  V30 7179 H 659.919 -5.8743 0.141309 0
M  V30 7180 H 661.443 -6.05686 -0.773072 0
M  V30 7181 H 662.857 -5.54898 1.44086 0
M  V30 7182 H 661.254 -5.57057 2.23175 0
M  V30 7183 H 662.324 -4.17625 2.46408 0
M  V30 7184 N 663.667 -0.670007 -1.42649 0
M  V30 7185 C 664.914 -0.190286 -2.01604 0
M  V30 7186 C 665.242 1.20155 -1.52948 0
M  V30 7187 O 664.497 1.81964 -0.72026 0
M  V30 7188 C 664.796 -0.168298 -3.57004 0
M  V30 7189 C 664.462 -1.50415 -4.25072 0
M  V30 7190 C 663.124 -1.86992 -4.43382 0
M  V30 7191 C 665.476 -2.38414 -4.63474 0
M  V30 7192 C 662.804 -3.11203 -4.97363 0
M  V30 7193 C 665.156 -3.61933 -5.18833 0
M  V30 7194 C 663.82 -3.98685 -5.35356 0
M  V30 7195 H 663.09 -0.0696305 -0.737721 0
M  V30 7196 H 665.737 -0.864044 -1.70899 0
M  V30 7197 H 664.042 0.588958 -3.87348 0
M  V30 7198 H 665.739 0.22001 -4.00396 0
M  V30 7199 H 662.329 -1.20959 -4.11177 0
M  V30 7200 H 666.513 -2.11442 -4.49006 0
M  V30 7201 H 661.769 -3.39705 -5.08341 0
M  V30 7202 H 665.943 -4.30326 -5.47533 0
M  V30 7203 H 663.57 -4.95009 -5.76949 0
M  V30 7204 N 665.145 1.52092 -0.413018 0
M  V30 7205 C 666.075 2.30021 0.401567 0
M  V30 7206 C 667.056 1.34395 1.04269 0
M  V30 7207 O 668.241 1.63304 1.05097 0
M  V30 7208 C 665.371 3.12447 1.51638 0
M  V30 7209 C 664.325 4.16153 1.00005 0
M  V30 7210 C 663.651 4.86948 2.20875 0
M  V30 7211 C 664.951 5.22275 0.0513757 0
M  V30 7212 H 666.645 2.98365 -0.248704 0
M  V30 7213 H 664.191 1.4349 -0.121052 0
M  V30 7214 H 666.144 3.65733 2.09326 0
M  V30 7215 H 664.868 2.41879 2.19458 0
M  V30 7216 H 663.527 3.63882 0.445549 0
M  V30 7217 H 663.175 4.12905 2.8726 0
M  V30 7218 H 662.875 5.57057 1.86978 0
M  V30 7219 H 664.399 5.43048 2.79162 0
M  V30 7220 H 665.813 5.70778 0.537176 0
M  V30 7221 H 664.21 5.9977 -0.198977 0
M  V30 7222 H 665.28 4.76611 -0.892736 0
M  V30 7223 N 666.623 0.143563 1.56945 0
M  V30 7224 C 667.57 -0.797433 2.16586 0
M  V30 7225 C 668.54 -1.24654 1.09775 0
M  V30 7226 O 669.725 -1.31968 1.37801 0
M  V30 7227 C 666.865 -2.03253 2.78895 0
M  V30 7228 C 665.978 -1.62954 4.00087 0
M  V30 7229 C 665.113 -2.81617 4.50406 0
M  V30 7230 C 664.152 -2.37675 5.64072 0
M  V30 7231 N 663.289 -3.49335 6.09023 0
M  V30 7232 H 668.129 -0.282023 2.96662 0
M  V30 7233 H 665.666 -0.127494 1.46546 0
M  V30 7234 H 667.624 -2.75653 3.13163 0
M  V30 7235 H 666.254 -2.52211 2.01469 0
M  V30 7236 H 665.306 -0.803322 3.71821 0
M  V30 7237 H 666.618 -1.26679 4.82446 0
M  V30 7238 H 665.772 -3.62212 4.86711 0
M  V30 7239 H 664.511 -3.21134 3.67048 0
M  V30 7240 H 663.516 -1.55519 5.27346 0
M  V30 7241 H 664.741 -1.99247 6.49213 0
M  V30 7242 H 662.687 -3.8848 5.28601 0
M  V30 7243 H 662.604 -3.17064 6.86299 0
M  V30 7244 H 663.872 -4.30297 6.49973 0
M  V30 7245 N 668.101 -1.57061 -0.130224 0
M  V30 7246 C 669.347 -1.8453 -0.841216 0
M  V30 7247 C 669.68 -0.727666 -1.80052 0
M  V30 7248 O 668.955 0.267419 -1.92653 0
M  V30 7249 C 669.238 -3.22553 -1.60099 0
M  V30 7250 C 669.091 -4.44901 -0.662048 0
M  V30 7251 C 670.41 -3.58003 -2.55973 0
M  V30 7252 H 667.529 -0.671215 -0.304366 0
M  V30 7253 H 670.171 -1.89705 -0.105821 0
M  V30 7254 H 668.321 -3.18272 -2.22789 0
M  V30 7255 H 669.993 -4.61278 -0.0448559 0
M  V30 7256 H 668.236 -4.33791 0.0272253 0
M  V30 7257 H 668.907 -5.3812 -1.23006 0
M  V30 7258 H 671.383 -3.63002 -2.03393 0
M  V30 7259 H 670.259 -4.55576 -3.06172 0
M  V30 7260 H 670.52 -2.84833 -3.38116 0
M  V30 7261 N 669.579 0.400081 -1.52437 0
M  V30 7262 C 670.509 1.4947 -1.7939 0
M  V30 7263 C 671.49 1.57383 -0.645329 0
M  V30 7264 O 672.675 1.72511 -0.891826 0
M  V30 7265 C 669.805 2.87201 -1.95276 0
M  V30 7266 C 668.759 2.94134 -3.10917 0
M  V30 7267 C 668.085 4.34207 -3.1204 0
M  V30 7268 C 669.385 2.64791 -4.50203 0
M  V30 7269 H 671.079 1.27165 -2.71052 0
M  V30 7270 H 668.625 0.610312 -1.30427 0
M  V30 7271 H 670.578 3.63772 -2.12715 0
M  V30 7272 H 669.302 3.10819 -1.00294 0
M  V30 7273 H 667.961 2.20009 -2.93243 0
M  V30 7274 H 667.609 4.54848 -2.14761 0
M  V30 7275 H 667.309 4.39768 -3.89715 0
M  V30 7276 H 668.833 5.127 -3.31619 0
M  V30 7277 H 670.247 3.31083 -4.68035 0
M  V30 7278 H 668.644 2.81717 -5.29864 0
M  V30 7279 H 669.714 1.60184 -4.57678 0
M  V30 7280 N 671.057 1.43213 0.657864 0
M  V30 7281 C 672.02 1.47687 1.75275 0
M  V30 7282 C 673.02 0.362179 1.56668 0
M  V30 7283 O 674.21 0.623734 1.62651 0
M  V30 7284 C 671.342 1.32497 3.14098 0
M  V30 7285 H 672.535 2.4519 1.7269 0
M  V30 7286 H 670.088 1.2991 0.869087 0
M  V30 7287 H 670.823 0.359831 3.22298 0
M  V30 7288 H 670.608 2.13299 3.29008 0
M  V30 7289 H 672.098 1.38549 3.93946 0
M  V30 7290 N 672.536 -0.895792 1.29666 0
M  V30 7291 C 673.782 -1.64908 1.18039 0
M  V30 7292 C 674.115 -1.9236 -0.266682 0
M  V30 7293 O 673.39 -1.53682 -1.19214 0
M  V30 7294 C 673.673 -2.99574 1.99819 0
M  V30 7295 C 673.526 -2.79163 3.52687 0
M  V30 7296 C 674.845 -4.00358 1.82761 0
M  V30 7297 H 671.964 -0.598437 0.430165 0
M  V30 7298 H 674.606 -1.03736 1.59182 0
M  V30 7299 H 672.756 -3.51786 1.64859 0
M  V30 7300 H 674.428 -2.33821 3.9765 0
M  V30 7301 H 672.671 -2.13871 3.77414 0
M  V30 7302 H 673.342 -3.74871 4.05186 0
M  V30 7303 H 675.818 -3.57268 2.13304 0
M  V30 7304 H 674.694 -4.92514 2.42325 0
M  V30 7305 H 674.955 -4.35096 0.783839 0
M  V30 7306 N 674.014 -1.12206 -1.10668 0
M  V30 7307 C 674.924 -0.800686 -2.20513 0
M  V30 7308 C 675.94 0.209512 -1.72734 0
M  V30 7309 O 677.116 0.043705 -2.01353 0
M  V30 7310 C 674.181 -0.257353 -3.45744 0
M  V30 7311 C 673.242 -1.32718 -4.0827 0
M  V30 7312 C 672.475 -0.809674 -5.27522 0
M  V30 7313 O 672.698 0.35742 -5.69279 0
M  V30 7314 O 671.632 -1.57816 -5.80842 0
M  V30 7315 H 675.458 -1.71807 -2.50432 0
M  V30 7316 H 673.043 -0.898546 -1.19359 0
M  V30 7317 H 674.925 0.0408849 -4.2138 0
M  V30 7318 H 673.6 0.632627 -3.17458 0
M  V30 7319 H 672.507 -1.67855 -3.34329 0
M  V30 7320 H 673.84 -2.19083 -4.40753 0
M  V30 7321 N 675.492 1.28418 -0.913599 0
M  V30 7322 C 676.422 2.29713 -0.418847 0
M  V30 7323 C 677.403 1.62165 0.513469 0
M  V30 7324 O 678.588 1.89576 0.421235 0
M  V30 7325 C 675.718 3.45612 0.342042 0
M  V30 7326 C 674.672 4.25056 -0.501123 0
M  V30 7327 C 673.998 5.3329 0.388097 0
M  V30 7328 C 675.298 4.91814 -1.75831 0
M  V30 7329 H 676.992 2.71346 -1.26538 0
M  V30 7330 H 674.538 1.30446 -0.609903 0
M  V30 7331 H 676.491 4.15562 0.699 0
M  V30 7332 H 675.215 3.02858 1.22248 0
M  V30 7333 H 673.874 3.56833 -0.840598 0
M  V30 7334 H 673.522 4.8678 1.26707 0
M  V30 7335 H 673.222 5.87347 -0.172459 0
M  V30 7336 H 674.746 6.06088 0.74094 0
M  V30 7337 H 676.16 5.54126 -1.47026 0
M  V30 7338 H 674.557 5.55866 -2.26126 0
M  V30 7339 H 675.627 4.16313 -2.4862 0
M  V30 7340 N 676.97 0.677563 1.42291 0
M  V30 7341 C 677.933 0.0101085 2.29198 0
M  V30 7342 C 678.933 -0.726219 1.43467 0
M  V30 7343 O 680.123 -0.563807 1.64824 0
M  V30 7344 C 677.255 -0.996316 3.26016 0
M  V30 7345 H 678.448 0.775071 2.89711 0
M  V30 7346 H 676.001 0.440065 1.49977 0
M  V30 7347 H 676.736 -1.78967 2.70446 0
M  V30 7348 H 676.521 -0.471687 3.89253 0
M  V30 7349 H 678.011 -1.46167 3.91184 0
M  V30 7350 N 678.448 -1.51871 0.421078 0
M  V30 7351 C 679.673 -2.0684 -0.152371 0
M  V30 7352 C 680.098 -1.28802 -1.37083 0
M  V30 7353 O 679.456 -0.321482 -1.78427 0
M  V30 7354 C 679.504 -3.57532 -0.469368 0
M  V30 7355 O 678.608 -3.81818 -1.55848 0
M  V30 7356 H 677.949 -0.663939 -0.00898586 0
M  V30 7357 H 680.479 -1.95674 0.597724 0
M  V30 7358 H 680.489 -4.01515 -0.724553 0
M  V30 7359 H 679.164 -4.13761 0.421276 0
M  V30 7360 H 677.741 -3.49709 -1.29453 0
M  V30 7361 N 679.926 -0.151884 -1.56866 0
M  V30 7362 C 681.154 0.504813 -2.00647 0
M  V30 7363 C 681.569 1.58098 -1.03201 0
M  V30 7364 O 680.926 1.82476 -0.0297814 0
M  V30 7365 C 680.977 1.10099 -3.44326 0
M  V30 7366 O 680.698 0.0678021 -4.38048 0
M  V30 7367 C 682.199 1.83782 -4.03409 0
M  V30 7368 H 679.419 0.130989 -0.65809 0
M  V30 7369 H 681.963 -0.247903 -2.02992 0
M  V30 7370 H 680.118 1.8043 -3.42817 0
M  V30 7371 H 680.532 0.505237 -5.22061 0
M  V30 7372 H 682.006 2.2078 -5.05925 0
M  V30 7373 H 682.483 2.72557 -3.44397 0
M  V30 7374 H 683.089 1.18138 -4.08563 0
M  V30 7375 N 681.404 1.57128 0.121893 0
M  V30 7376 C 682.629 1.89254 0.848385 0
M  V30 7377 C 683.054 0.743527 1.72781 0
M  V30 7378 O 682.412 -0.306056 1.78698 0
M  V30 7379 C 682.46 3.20113 1.66012 0
M  V30 7380 O 681.564 3.05815 2.76679 0
M  V30 7381 H 680.905 0.621103 0.234793 0
M  V30 7382 H 683.435 2.0433 0.10516 0
M  V30 7383 H 683.445 3.52761 2.04996 0
M  V30 7384 H 682.12 4.03336 1.01452 0
M  V30 7385 H 680.697 2.84627 2.40918 0
M  V30 7386 N 682.882 -0.391992 1.52647 0
M  V30 7387 C 684.298 -0.731848 1.41831 0
M  V30 7388 C 684.498 -1.9423 0.536361 0
M  V30 7389 O 683.554 -2.52499 0.00866571 0
M  V30 7390 C 684.867 -0.969743 2.84634 0
M  V30 7391 C 686.415 -1.0714 2.94092 0
M  V30 7392 C 686.89 -1.34195 4.37899 0
M  V30 7393 N 688.381 -1.41023 4.41211 0
M  V30 7394 C 689.116 -1.63616 5.49561 0
M  V30 7395 N 688.612 -1.83699 6.68002 0
M  V30 7396 N 690.405 -1.65771 5.371 0
M  V30 7397 H 682.556 0.404547 2.08512 0
M  V30 7398 H 684.819 0.11879 0.940528 0
M  V30 7399 H 684.525 -0.152465 3.51369 0
M  V30 7400 H 684.399 -1.88523 3.26709 0
M  V30 7401 H 686.786 -1.87925 2.27526 0
M  V30 7402 H 686.867 -0.133887 2.55449 0
M  V30 7403 H 686.511 -0.539207 5.0503 0
M  V30 7404 H 686.441 -2.29226 4.74092 0
M  V30 7405 H 688.932 -1.27223 3.55841 0
M  V30 7406 H 689.245 -2.00437 7.46354 0
M  V30 7407 H 687.59 -1.8093 6.71036 0
M  V30 7408 H 690.781 -1.4963 4.43541 0
M  V30 7409 H 690.954 -1.83038 6.21612 0
M  V30 7410 N 684.36 -1.4356 -0.65026 0
M  V30 7411 C 685.607 -1.45333 -1.41012 0
M  V30 7412 C 685.935 -0.0787282 -1.94341 0
M  V30 7413 O 685.19 0.916715 -1.72901 0
M  V30 7414 C 685.489 -2.44528 -2.60654 0
M  V30 7415 C 685.155 -3.90331 -2.25727 0
M  V30 7416 C 683.817 -4.3004 -2.15914 0
M  V30 7417 C 686.169 -4.822 -1.97821 0
M  V30 7418 C 683.497 -5.59568 -1.76354 0
M  V30 7419 C 685.849 -6.12095 -1.59759 0
M  V30 7420 C 684.513 -6.50778 -1.48473 0
M  V30 7421 H 683.783 -0.531813 -0.516 0
M  V30 7422 H 686.43 -1.76657 -0.739219 0
M  V30 7423 H 684.735 -2.06619 -3.3289 0
M  V30 7424 H 686.432 -2.43155 -3.18868 0
M  V30 7425 H 683.022 -3.58905 -2.34276 0
M  V30 7426 H 687.206 -4.5229 -2.04322 0
M  V30 7427 H 682.462 -5.88376 -1.66205 0
M  V30 7428 H 686.636 -6.82751 -1.37198 0
M  V30 7429 H 684.263 -7.5105 -1.17591 0
M  V30 7430 N 685.838 0.888903 -1.30139 0
M  V30 7431 C 686.748 2.02705 -1.18101 0
M  V30 7432 C 687.764 1.73702 -0.101809 0
M  V30 7433 O 688.94 1.98906 -0.315984 0
M  V30 7434 C 686.005 3.35616 -0.869651 0
M  V30 7435 C 685.066 3.78067 -2.03381 0
M  V30 7436 C 684.299 5.04635 -1.73721 0
M  V30 7437 O 684.522 5.66531 -0.663267 0
M  V30 7438 O 683.456 5.43399 -2.58845 0
M  V30 7439 H 687.282 2.15788 -2.13704 0
M  V30 7440 H 684.867 1.01426 -1.09695 0
M  V30 7441 H 686.749 4.15358 -0.711043 0
M  V30 7442 H 685.424 3.23651 0.0565002 0
M  V30 7443 H 684.331 2.99046 -2.24772 0
M  V30 7444 H 685.664 3.94631 -2.94155 0
M  V30 7445 N 687.317 1.12792 1.10072 0
M  V30 7446 C 688.247 0.821688 2.18565 0
M  V30 7447 C 689.228 -0.21612 1.68721 0
M  V30 7448 O 690.413 -0.0764932 1.94049 0
M  V30 7449 C 687.543 0.279624 3.46172 0
M  V30 7450 C 686.497 1.25092 4.09312 0
M  V30 7451 C 685.823 0.568916 5.31665 0
M  V30 7452 C 687.123 2.60699 4.52585 0
M  V30 7453 H 688.817 1.72888 2.44438 0
M  V30 7454 H 686.363 0.832702 1.17482 0
M  V30 7455 H 688.316 0.053099 4.21367 0
M  V30 7456 H 687.04 -0.662929 3.19801 0
M  V30 7457 H 685.699 1.46332 3.36129 0
M  V30 7458 H 685.347 -0.378898 5.01571 0
M  V30 7459 H 685.047 1.21687 5.74862 0
M  V30 7460 H 686.571 0.351517 6.09587 0
M  V30 7461 H 687.985 2.43465 5.19035 0
M  V30 7462 H 686.382 3.21608 5.06644 0
M  V30 7463 H 687.452 3.1886 3.65317 0
M  V30 7464 N 688.795 -1.27931 0.920396 0
M  V30 7465 C 689.758 -2.25345 0.41858 0
M  V30 7466 C 690.758 -1.54116 -0.458798 0
M  V30 7467 O 691.948 -1.72235 -0.260912 0
M  V30 7468 C 689.08 -3.38556 -0.399104 0
M  V30 7469 H 690.273 -2.71251 1.27918 0
M  V30 7470 H 687.826 -1.39728 0.700406 0
M  V30 7471 H 688.561 -2.98021 -1.27882 0
M  V30 7472 H 688.346 -3.91426 0.229863 0
M  V30 7473 H 689.836 -4.10976 -0.740817 0
M  V30 7474 N 690.273 -0.685099 -1.4193 0
M  V30 7475 C 691.501 -0.220372 -2.05723 0
M  V30 7476 C 691.916 1.12642 -1.51516 0
M  V30 7477 O 691.273 1.70182 -0.659114 0
M  V30 7478 C 691.324 -0.157974 -3.61155 0
M  V30 7479 O 691.045 -1.45156 -4.13354 0
M  V30 7480 C 692.546 0.329009 -4.42077 0
M  V30 7481 H 689.766 -0.104725 -0.662777 0
M  V30 7482 H 692.31 -0.934736 -1.81887 0
M  V30 7483 H 690.465 0.507144 -3.84066 0
M  V30 7484 H 690.879 -1.33172 -5.07312 0
M  V30 7485 H 692.353 0.321559 -5.51063 0
M  V30 7486 H 692.83 1.36608 -4.17414 0
M  V30 7487 H 693.436 -0.304737 -4.24207 0
M  V30 7488 N 691.751 1.51645 -0.429126 0
M  V30 7489 C 693.167 1.59394 -0.080994 0
M  V30 7490 C 693.367 1.44064 1.40882 0
M  V30 7491 O 692.423 1.27771 2.17786 0
M  V30 7492 C 693.736 2.94779 -0.593773 0
M  V30 7493 C 695.284 3.08067 -0.553494 0
M  V30 7494 C 695.759 4.45963 -1.04311 0
M  V30 7495 N 697.25 4.5226 -1.00076 0
M  V30 7496 C 697.985 5.57268 -1.35056 0
M  V30 7497 N 697.481 6.69734 -1.77282 0
M  V30 7498 N 699.274 5.47582 -1.26925 0
M  V30 7499 H 691.425 1.59856 -1.39857 0
M  V30 7500 H 693.688 0.753095 -0.575805 0
M  V30 7501 H 693.394 3.11342 -1.63583 0
M  V30 7502 H 693.268 3.77197 -0.0142202 0
M  V30 7503 H 695.655 2.91177 0.479556 0
M  V30 7504 H 695.736 2.27508 -1.16935 0
M  V30 7505 H 695.38 4.63598 -2.07459 0
M  V30 7506 H 695.31 5.25049 -0.403873 0
M  V30 7507 H 697.801 3.71537 -0.690564 0
M  V30 7508 H 698.114 7.4587 -2.02232 0
M  V30 7509 H 696.459 6.70963 -1.81202 0
M  V30 7510 H 699.65 4.58604 -0.93809 0
M  V30 7511 H 699.823 6.29308 -1.54516 0
M  V30 7512 N 693.229 0.160201 1.56784 0
M  V30 7513 C 694.457 -0.494165 2.00912 0
M  V30 7514 C 694.872 -1.57548 1.04038 0
M  V30 7515 O 694.229 -1.82457 0.0394581 0
M  V30 7516 C 694.28 -1.08271 3.44905 0
M  V30 7517 O 694.001 -0.0445704 4.38077 0
M  V30 7518 C 695.502 -1.8164 4.04378 0
M  V30 7519 H 692.722 -0.127498 0.658776 0
M  V30 7520 H 695.266 0.258665 2.02858 0
M  V30 7521 H 693.421 -1.78609 3.4377 0
M  V30 7522 H 693.835 -0.477544 5.22322 0
M  V30 7523 H 695.309 -2.18094 5.07089 0
M  V30 7524 H 695.786 -2.70727 3.45838 0
M  V30 7525 H 696.392 -1.15969 4.09184 0
M  V30 7526 N 694.707 -1.5719 -0.113559 0
M  V30 7527 C 695.954 -1.85138 -0.820382 0
M  V30 7528 C 696.282 -0.74608 -1.79622 0
M  V30 7529 O 695.537 0.262077 -1.93937 0
M  V30 7530 C 695.836 -3.19593 -1.59984 0
M  V30 7531 C 695.502 -4.44315 -0.767809 0
M  V30 7532 C 694.164 -4.78179 -0.538379 0
M  V30 7533 C 696.516 -5.2086 -0.188203 0
M  V30 7534 C 693.844 -5.86028 0.28082 0
M  V30 7535 C 696.196 -6.29572 0.618217 0
M  V30 7536 C 694.86 -6.61964 0.857912 0
M  V30 7537 H 694.13 -0.677467 -0.300199 0
M  V30 7538 H 696.777 -1.91322 -0.0825443 0
M  V30 7539 H 695.082 -3.0901 -2.40874 0
M  V30 7540 H 696.779 -3.3844 -2.1508 0
M  V30 7541 H 693.369 -4.17786 -0.956724 0
M  V30 7542 H 697.553 -4.95045 -0.352658 0
M  V30 7543 H 692.809 -6.09547 0.475693 0
M  V30 7544 H 696.983 -6.88064 1.0743 0
M  V30 7545 H 694.61 -7.45365 1.49451 0
M  V30 7546 N 696.185 0.383891 -1.52853 0
M  V30 7547 C 697.596 0.961591 -1.60032 0
M  V30 7548 C 697.947 1.90819 -0.456333 0
M  V30 7549 O 697.072 2.12288 0.419873 0
M  V30 7550 C 697.667 1.75078 -2.90057 0
M  V30 7551 C 696.226 2.2781 -2.99632 0
M  V30 7552 C 695.373 1.08512 -2.55187 0
M  V30 7553 H 698.324 0.163269 -1.57858 0
M  V30 7554 H 698.345 2.61046 -2.7683 0
M  V30 7555 H 697.857 1.06157 -3.73299 0
M  V30 7556 H 695.958 3.00028 -2.20939 0
M  V30 7557 H 696.071 2.56947 -4.0437 0
M  V30 7558 H 694.435 1.44667 -2.09627 0
M  V30 7559 H 695.218 0.41118 -3.40829 0
M  V30 7560 N 697.663 1.43903 0.642637 0
M  V30 7561 C 699.079 1.27536 0.959519 0
M  V30 7562 C 699.279 0.202751 2.00477 0
M  V30 7563 O 698.335 -0.415256 2.49062 0
M  V30 7564 C 699.648 2.6432 1.43372 0
M  V30 7565 C 701.196 2.71937 1.54981 0
M  V30 7566 C 701.671 4.09164 2.05789 0
M  V30 7567 N 703.162 4.11282 2.13076 0
M  V30 7568 C 703.897 5.14303 2.53534 0
M  V30 7569 N 703.393 6.27693 2.93212 0
M  V30 7570 N 705.186 5.01657 2.53567 0
M  V30 7571 H 697.337 2.12344 -0.0488376 0
M  V30 7572 H 699.6 0.947124 0.0407559 0
M  V30 7573 H 699.306 3.43826 0.740048 0
M  V30 7574 H 699.18 2.90432 2.40685 0
M  V30 7575 H 701.567 1.92757 2.23448 0
M  V30 7576 H 701.648 2.49578 0.560739 0
M  V30 7577 H 701.292 4.88815 1.37921 0
M  V30 7578 H 701.222 4.28893 3.05546 0
M  V30 7579 H 703.713 3.2944 1.85143 0
M  V30 7580 H 704.026 7.02125 3.22863 0
M  V30 7581 H 702.371 6.31149 2.90991 0
M  V30 7582 H 705.562 4.12134 2.21952 0
M  V30 7583 H 705.735 5.82072 2.84774 0
M  V30 7584 N 699.141 -0.881989 1.30609 0
M  V30 7585 C 700.39 -1.62878 1.18969 0
M  V30 7586 C 700.703 -1.93946 -0.253859 0
M  V30 7587 O 701.909 -2.67008 -0.491813 0
M  V30 7588 C 700.365 -2.93573 2.0819 0
M  V30 7589 C 699.973 -2.70034 3.57471 0
M  V30 7590 C 701.717 -3.71543 2.0532 0
M  V30 7591 C 699.624 -3.96563 4.38739 0
M  V30 7592 H 698.554 -0.611092 0.441682 0
M  V30 7593 H 701.205 -0.976201 1.55379 0
M  V30 7594 H 699.587 -3.6014 1.64666 0
M  V30 7595 H 700.761 -2.11949 4.09163 0
M  V30 7596 H 699.076 -2.05435 3.62195 0
M  V30 7597 H 701.673 -4.65386 2.63288 0
M  V30 7598 H 702.016 -4.03167 1.03739 0
M  V30 7599 H 702.549 -3.11842 2.46981 0
M  V30 7600 H 699.288 -3.70095 5.41027 0
M  V30 7601 H 698.808 -4.54142 3.9181 0
M  V30 7602 H 700.487 -4.64557 4.50329 0
M  V30 7603 N 700.619 -1.13374 -1.09472 0
M  V30 7604 C 701.847 -0.918351 -1.85402 0
M  V30 7605 C 702.262 0.53281 -1.81126 0
M  V30 7606 O 701.619 1.36879 -1.20708 0
M  V30 7607 C 701.67 -1.39743 -3.33398 0
M  V30 7608 O 701.391 -2.79172 -3.37631 0
M  V30 7609 C 702.892 -1.22042 -4.2617 0
M  V30 7610 H 700.112 -0.327511 -0.585643 0
M  V30 7611 H 702.656 -1.50617 -1.38328 0
M  V30 7612 H 700.811 -0.852619 -3.77901 0
M  V30 7613 H 701.225 -3.00428 -4.29934 0
M  V30 7614 H 702.699 -1.60438 -5.2817 0
M  V30 7615 H 703.176 -0.162047 -4.38901 0
M  V30 7616 H 703.782 -1.75323 -3.87482 0
M  V30 7617 N 702.098 1.27442 -0.927168 0
M  V30 7618 C 703.028 2.29256 -0.443188 0
M  V30 7619 C 704.009 1.62701 0.49624 0
M  V30 7620 O 705.194 1.90013 0.401105 0
M  V30 7621 C 702.324 3.45955 0.305366 0
M  V30 7622 C 701.278 4.24501 -0.546178 0
M  V30 7623 C 700.604 5.33671 0.331512 0
M  V30 7624 C 701.904 4.89921 -1.81037 0
M  V30 7625 H 703.598 2.69988 -1.29409 0
M  V30 7626 H 701.144 1.29792 -0.623705 0
M  V30 7627 H 703.097 4.1628 0.654885 0
M  V30 7628 H 701.821 3.04138 1.19029 0
M  V30 7629 H 700.48 3.55921 -0.878398 0
M  V30 7630 H 700.128 4.88096 1.21537 0
M  V30 7631 H 699.828 5.87131 -0.234746 0
M  V30 7632 H 701.352 6.0684 0.676614 0
M  V30 7633 H 702.766 5.52536 -1.52895 0
M  V30 7634 H 701.163 5.53436 -2.32009 0
M  V30 7635 H 702.233 4.13652 -2.53021 0
M  V30 7636 N 703.576 0.692616 1.41565 0
M  V30 7637 C 704.822 0.222664 2.01574 0
M  V30 7638 C 705.155 -1.1737 1.54719 0
M  V30 7639 O 704.43 -1.79161 0.757084 0
M  V30 7640 C 704.713 0.277064 3.59033 0
M  V30 7641 C 704.566 1.71016 4.16021 0
M  V30 7642 C 705.885 -0.36479 4.38586 0
M  V30 7643 H 703.004 0.0823839 0.732381 0
M  V30 7644 H 705.646 0.880778 1.68352 0
M  V30 7645 H 703.796 -0.283288 3.87466 0
M  V30 7646 H 705.468 2.32413 3.98475 0
M  V30 7647 H 703.711 2.24525 3.71175 0
M  V30 7648 H 704.382 1.69978 5.25178 0
M  V30 7649 H 706.858 0.112404 4.15948 0
M  V30 7650 H 705.734 -0.296169 5.481 0
M  V30 7651 H 705.995 -1.44506 4.17816 0
M  V30 7652 N 705.054 -1.51416 0.437162 0
M  V30 7653 C 706.465 -1.86682 -0.0260005 0
M  V30 7654 C 706.816 -1.35432 -1.4196 0
M  V30 7655 O 705.941 -0.705055 -2.04592 0
M  V30 7656 C 706.536 -3.38757 -0.0539577 0
M  V30 7657 C 705.095 -3.7356 -0.461532 0
M  V30 7658 C 704.242 -2.75134 0.345924 0
M  V30 7659 H 707.193 -1.44642 0.653013 0
M  V30 7660 H 707.214 -3.70573 -0.863478 0
M  V30 7661 H 706.726 -3.76028 0.96045 0
M  V30 7662 H 704.827 -3.41878 -1.48155 0
M  V30 7663 H 704.94 -4.78737 -0.186451 0
M  V30 7664 H 703.304 -2.53947 -0.195739 0
M  V30 7665 H 704.087 -3.15247 1.35921 0
M  V30 7666 N 706.532 -0.168513 -1.56696 0
M  V30 7667 C 707.778 0.477865 -1.9709 0
M  V30 7668 C 708.111 1.63084 -1.05438 0
M  V30 7669 O 707.386 1.94238 -0.10095 0
M  V30 7670 C 707.669 0.963521 -3.4697 0
M  V30 7671 C 707.522 -0.189443 -4.49401 0
M  V30 7672 C 708.841 1.83813 -3.99876 0
M  V30 7673 H 705.96 0.172229 -0.716593 0
M  V30 7674 H 708.602 -0.254083 -1.88293 0
M  V30 7675 H 706.752 1.58724 -3.54597 0
M  V30 7676 H 708.424 -0.826451 -4.53836 0
M  V30 7677 H 706.667 -0.845366 -4.25483 0
M  V30 7678 H 707.338 0.192446 -5.51664 0
M  V30 7679 H 709.814 1.31235 -3.94863 0
M  V30 7680 H 708.69 2.14697 -5.0517 0
M  V30 7681 H 708.951 2.78289 -3.43523 0
M  V30 7682 N 708.01 1.57248 0.105221 0
M  V30 7683 C 708.94 2.04374 1.12931 0
M  V30 7684 C 709.921 0.93074 1.42377 0
M  V30 7685 O 711.106 1.20136 1.52581 0
M  V30 7686 C 708.236 2.45967 2.45189 0
M  V30 7687 C 707.19 3.60838 2.30174 0
M  V30 7688 C 706.516 3.88374 3.67518 0
M  V30 7689 C 707.816 4.92084 1.75073 0
M  V30 7690 H 709.51 2.9018 0.737287 0
M  V30 7691 H 707.056 1.39601 0.353211 0
M  V30 7692 H 709.009 2.77542 3.17094 0
M  V30 7693 H 707.733 1.57148 2.86308 0
M  V30 7694 H 706.392 3.29493 1.60716 0
M  V30 7695 H 706.04 2.96739 4.06147 0
M  V30 7696 H 705.74 4.65703 3.58321 0
M  V30 7697 H 707.264 4.22415 4.40906 0
M  V30 7698 H 708.678 5.22106 2.36809 0
M  V30 7699 H 707.075 5.73507 1.76662 0
M  V30 7700 H 708.145 4.79684 0.709347 0
M  V30 7701 N 709.488 -0.375779 1.53054 0
M  V30 7702 C 710.438 -1.45965 1.75152 0
M  V30 7703 C 711.422 -1.49059 0.605823 0
M  V30 7704 O 712.614 -1.54472 0.864133 0
M  V30 7705 C 709.743 -2.83524 1.93569 0
M  V30 7706 C 708.829 -2.84949 3.1411 0
M  V30 7707 N 709.22 -2.56029 4.36214 0
M  V30 7708 C 707.518 -3.16113 3.14625 0
M  V30 7709 C 708.219 -2.64873 5.17897 0
M  V30 7710 N 707.195 -2.99159 4.53878 0
M  V30 7711 H 710.997 -1.22454 2.67175 0
M  V30 7712 H 708.511 -0.583867 1.51541 0
M  V30 7713 H 710.508 -3.61578 2.07525 0
M  V30 7714 H 709.168 -3.08008 1.02768 0
M  V30 7715 H 710.179 -2.29808 4.64121 0
M  V30 7716 H 706.856 -3.45977 2.3368 0
M  V30 7717 H 708.246 -2.45947 6.25268 0
M  V30 7718 N 710.966 -1.44241 -0.634997 0
M  V30 7719 C 712.377 -1.41622 -1.21655 0
M  V30 7720 C 712.728 -0.129584 -1.95772 0
M  V30 7721 O 711.853 0.770225 -2.02229 0
M  V30 7722 C 712.448 -2.56557 -2.21278 0
M  V30 7723 C 711.007 -2.57145 -2.7487 0
M  V30 7724 C 710.154 -2.33354 -1.49804 0
M  V30 7725 H 713.105 -1.52878 -0.425905 0
M  V30 7726 H 713.126 -2.29089 -3.03807 0
M  V30 7727 H 712.638 -3.50186 -1.67306 0
M  V30 7728 H 710.739 -1.67447 -3.32855 0
M  V30 7729 H 710.852 -3.55507 -3.21172 0
M  V30 7730 H 709.216 -1.82372 -1.77799 0
M  V30 7731 H 709.999 -3.29092 -0.977402 0
M  V30 7732 N 712.444 0.87505 -1.31075 0
M  V30 7733 C 713.69 1.63009 -1.20647 0
M  V30 7734 C 714.023 1.9276 0.236045 0
M  V30 7735 O 713.298 1.55559 1.16754 0
M  V30 7736 C 713.581 2.96357 -2.0456 0
M  V30 7737 C 713.434 2.73516 -3.57084 0
M  V30 7738 C 714.753 3.974 -1.89107 0
M  V30 7739 H 711.872 0.591518 -0.439631 0
M  V30 7740 H 714.514 1.0119 -1.60812 0
M  V30 7741 H 712.664 3.49119 -1.70435 0
M  V30 7742 H 714.336 2.27465 -4.01319 0
M  V30 7743 H 712.579 2.0784 -3.80769 0
M  V30 7744 H 713.25 3.68377 -4.11099 0
M  V30 7745 H 715.726 3.5383 -2.18961 0
M  V30 7746 H 714.602 4.88596 -2.5013 0
M  V30 7747 H 714.863 4.33794 -0.85296 0
M  V30 7748 N 713.922 1.13953 1.08869 0
M  V30 7749 C 715.199 0.815768 1.77777 0
M  V30 7750 C 715.579 -0.691624 1.99449 0
M  V30 7751 O 714.927 -1.63085 1.60049 0
M  V30 7752 C 715.137 1.60916 3.09689 0
M  V30 7753 C 716.485 1.80549 3.84301 0
M  V30 7754 O 717.509 1.57562 3.19457 0
M  V30 7755 O 716.368 2.18946 5.00724 0
M  V30 7756 H 713.462 0.298445 0.771271 0
M  V30 7757 H 716.008 1.24446 1.15374 0
M  V30 7758 H 714.78 2.6333 2.89435 0
M  V30 7759 H 714.403 1.17578 3.79817 0
M  V30 7760 N 715.4 -1.26948 0.933913 0
M  V30 7761 C 716.648 -1.93704 0.576484 0
M  V30 7762 C 716.969 -1.73702 -0.886145 0
M  V30 7763 O 716.239 -1.08838 -1.62884 0
M  V30 7764 H 714.819 -0.716812 0.210214 0
M  V30 7765 H 717.481 -1.54534 1.18766 0
M  V30 7766 H 716.577 -3.01987 0.788055 0
M  V30 7767 N 716.879 -0.700114 -1.41195 0
M  V30 7768 C 717.809 -0.0521132 -2.33442 0
M  V30 7769 C 718.79 0.76228 -1.52063 0
M  V30 7770 O 719.975 0.714336 -1.80585 0
M  V30 7771 C 717.105 0.881693 -3.35922 0
M  V30 7772 C 716.059 0.174062 -4.27646 0
M  V30 7773 C 715.385 1.22254 -5.20536 0
M  V30 7774 C 716.685 -0.962396 -5.13357 0
M  V30 7775 H 718.379 -0.822574 -2.87879 0
M  V30 7776 H 715.925 -0.397011 -1.38419 0
M  V30 7777 H 717.878 1.34429 -3.99383 0
M  V30 7778 H 716.602 1.68387 -2.79845 0
M  V30 7779 H 715.261 -0.268551 -3.65615 0
M  V30 7780 H 714.909 2.01736 -4.60773 0
M  V30 7781 H 714.609 0.754038 -5.82742 0
M  V30 7782 H 716.133 1.68555 -5.86874 0
M  V30 7783 H 717.547 -0.579875 -5.7036 0
M  V30 7784 H 715.944 -1.35828 -5.84526 0
M  V30 7785 H 717.014 -1.80003 -4.50252 0
M  V30 7786 N 718.357 1.51182 -0.445186 0
M  V30 7787 C 719.582 2.07056 0.119445 0
M  V30 7788 C 720.007 1.30966 1.35016 0
M  V30 7789 O 719.365 0.349827 1.77893 0
M  V30 7790 C 719.413 3.58234 0.412428 0
M  V30 7791 O 718.517 3.84249 1.49754 0
M  V30 7792 H 717.858 0.663998 -0.00157797 0
M  V30 7793 H 720.388 1.94699 -0.628779 0
M  V30 7794 H 720.398 4.02617 0.660583 0
M  V30 7795 H 719.073 4.13038 -0.487049 0
M  V30 7796 H 717.65 3.51724 1.23873 0
M  V30 7797 N 719.835 0.176821 1.56605 0
M  V30 7798 C 721.081 -0.467406 1.9734 0
M  V30 7799 C 721.414 -1.62523 1.06301 0
M  V30 7800 O 720.689 -1.94182 0.11125 0
M  V30 7801 C 720.972 -0.945106 3.47476 0
M  V30 7802 C 720.825 0.213273 4.49294 0
M  V30 7803 C 722.144 -1.8169 4.00845 0
M  V30 7804 H 719.263 -0.168426 0.717497 0
M  V30 7805 H 721.905 0.264065 1.88156 0
M  V30 7806 H 720.055 -1.56841 3.55434 0
M  V30 7807 H 721.727 0.850508 4.53392 0
M  V30 7808 H 719.97 0.867918 4.25029 0
M  V30 7809 H 720.641 -0.163187 5.51759 0
M  V30 7810 H 723.117 -1.29139 3.95553 0
M  V30 7811 H 721.993 -2.12015 5.06301 0
M  V30 7812 H 722.254 -2.76463 3.44994 0
M  V30 7813 N 721.313 -1.57302 -0.09688 0
M  V30 7814 C 722.26 -2.01933 -1.11766 0
M  V30 7815 C 723.23 -0.895329 -1.39904 0
M  V30 7816 O 724.415 -1.16119 -1.51397 0
M  V30 7817 C 721.555 -2.44726 -2.43317 0
M  V30 7818 C 720.668 -3.70639 -2.21925 0
M  V30 7819 C 719.803 -4.02318 -3.46862 0
M  V30 7820 C 718.842 -5.21346 -3.20725 0
M  V30 7821 N 717.979 -5.48787 -4.37924 0
M  V30 7822 H 722.819 -2.88919 -0.730075 0
M  V30 7823 H 720.356 -1.42901 -0.348962 0
M  V30 7824 H 722.314 -2.6758 -3.20088 0
M  V30 7825 H 720.944 -1.60753 -2.79926 0
M  V30 7826 H 719.996 -3.55271 -1.35965 0
M  V30 7827 H 721.308 -4.57557 -1.98603 0
M  V30 7828 H 720.462 -4.25939 -4.32042 0
M  V30 7829 H 719.201 -3.13918 -3.73238 0
M  V30 7830 H 718.206 -4.97547 -2.33938 0
M  V30 7831 H 719.431 -6.11343 -2.95697 0
M  V30 7832 H 717.377 -4.63346 -4.64378 0
M  V30 7833 H 717.294 -6.30073 -4.17785 0
M  V30 7834 H 718.562 -5.76943 -5.24173 0
M  V30 7835 N 722.791 0.367657 -1.53252 0
M  V30 7836 C 724.038 1.11052 -1.69333 0
M  V30 7837 C 724.366 1.89363 -0.444064 0
M  V30 7838 O 723.621 1.87094 0.573953 0
M  V30 7839 C 723.92 2.09825 -2.89324 0
M  V30 7840 C 723.586 1.4801 -4.25915 0
M  V30 7841 C 722.248 1.30879 -4.6306 0
M  V30 7842 C 724.6 1.03268 -5.10867 0
M  V30 7843 C 721.928 0.675868 -5.82794 0
M  V30 7844 C 724.28 0.41377 -6.31245 0
M  V30 7845 C 722.944 0.229939 -6.67104 0
M  V30 7846 H 722.214 0.406367 -0.619634 0
M  V30 7847 H 724.861 0.392558 -1.87433 0
M  V30 7848 H 723.166 2.87917 -2.65728 0
M  V30 7849 H 724.863 2.67252 -2.98961 0
M  V30 7850 H 721.453 1.62336 -3.96667 0
M  V30 7851 H 725.637 1.15297 -4.82722 0
M  V30 7852 H 720.893 0.521833 -6.09169 0
M  V30 7853 H 725.067 0.0588768 -6.96375 0
M  V30 7854 H 722.694 -0.262562 -7.59746 0
M  V30 7855 N 724.269 1.44576 0.627338 0
M  V30 7856 C 725.516 1.47558 1.38682 0
M  V30 7857 C 725.844 0.109636 1.94191 0
M  V30 7858 O 725.099 -0.889092 1.74338 0
M  V30 7859 C 725.398 2.48644 2.56731 0
M  V30 7860 C 725.064 3.93873 2.19489 0
M  V30 7861 C 723.726 4.33421 2.09045 0
M  V30 7862 C 726.078 4.85286 1.90124 0
M  V30 7863 C 723.406 5.62303 1.6743 0
M  V30 7864 C 725.758 6.14559 1.50001 0
M  V30 7865 C 724.422 6.53058 1.38101 0
M  V30 7866 H 723.692 0.539955 0.507474 0
M  V30 7867 H 726.339 1.77811 0.711021 0
M  V30 7868 H 724.644 2.11889 3.29561 0
M  V30 7869 H 726.341 2.48197 3.14959 0
M  V30 7870 H 722.931 3.62587 2.28537 0
M  V30 7871 H 727.115 4.55483 1.971 0
M  V30 7872 H 722.371 5.90945 1.56823 0
M  V30 7873 H 726.545 6.84848 1.26319 0
M  V30 7874 H 724.172 7.52826 1.05628 0
M  V30 7875 N 725.747 -0.868086 1.31537 0
M  V30 7876 C 726.995 -1.61807 1.21091 0
M  V30 7877 C 727.316 -1.93631 -0.230623 0
M  V30 7878 O 726.586 -1.5846 -1.15183 0
M  V30 7879 H 725.166 -0.599854 0.445178 0
M  V30 7880 H 727.828 -1.03915 1.64887 0
M  V30 7881 H 726.924 -2.56088 1.78396 0
M  V30 7882 N 727.225 -1.14528 -1.08264 0
M  V30 7883 C 728.155 -0.856356 -2.1723 0
M  V30 7884 C 729.136 0.189251 -1.69044 0
M  V30 7885 O 730.321 0.0456119 -1.94146 0
M  V30 7886 C 727.451 -0.334662 -3.45684 0
M  V30 7887 C 726.405 -1.31588 -4.0727 0
M  V30 7888 C 725.731 -0.653428 -5.30692 0
M  V30 7889 C 727.031 -2.67866 -4.48381 0
M  V30 7890 H 728.725 -1.76755 -2.41657 0
M  V30 7891 H 726.271 -0.851287 -1.16143 0
M  V30 7892 H 728.224 -0.120128 -4.21229 0
M  V30 7893 H 726.948 0.611967 -3.20815 0
M  V30 7894 H 725.607 -1.51661 -3.33758 0
M  V30 7895 H 725.255 0.299054 -5.0211 0
M  V30 7896 H 724.955 -1.30817 -5.72853 0
M  V30 7897 H 726.479 -0.448453 -6.08951 0
M  V30 7898 H 727.893 -2.51692 -5.15096 0
M  V30 7899 H 726.29 -3.29627 -5.01464 0
M  V30 7900 H 727.36 -3.24632 -3.60198 0
M  V30 7901 N 728.703 1.26451 -0.940633 0
M  V30 7902 C 729.98 1.88947 -0.505811 0
M  V30 7903 C 730.36 1.85011 1.01657 0
M  V30 7904 O 729.708 1.30406 1.87634 0
M  V30 7905 C 729.918 3.32304 -1.06654 0
M  V30 7906 C 731.266 4.09153 -1.13486 0
M  V30 7907 O 732.29 3.41371 -1.01708 0
M  V30 7908 O 731.149 5.30369 -1.31797 0
M  V30 7909 H 728.243 0.810422 -0.164759 0
M  V30 7910 H 730.789 1.34625 -1.03316 0
M  V30 7911 H 729.561 3.29527 -2.11015 0
M  V30 7912 H 729.184 3.94164 -0.521603 0
M  V30 7913 N 730.181 0.707592 1.40822 0
M  V30 7914 C 731.406 0.251626 2.05868 0
M  V30 7915 C 731.831 -1.09503 1.5294 0
M  V30 7916 O 731.189 -1.68806 0.661385 0
M  V30 7917 C 731.237 0.23287 3.59847 0
M  V30 7918 O 730.341 -0.788477 4.04792 0
M  V30 7919 H 729.682 0.119936 0.653078 0
M  V30 7920 H 732.212 0.96583 1.80369 0
M  V30 7921 H 732.222 0.0678204 4.07944 0
M  V30 7922 H 730.897 1.21565 3.97737 0
M  V30 7923 H 729.474 -0.591802 3.68174 0
M  V30 7924 N 731.66 -1.50943 0.453197 0
M  V30 7925 C 732.608 -2.29728 -0.364419 0
M  V30 7926 C 733.602 -1.36246 -1.00664 0
M  V30 7927 O 734.808 -1.53518 -0.939794 0
M  V30 7928 H 731.183 -0.739536 -0.136347 0
M  V30 7929 H 733.154 -2.96672 0.320696 0
M  V30 7930 C 731.903 -3.1629 -1.44415 0
M  V30 7931 H 731.226 -3.88119 -0.959343 0
M  V30 7932 H 732.666 -3.74444 -1.98917 0
M  V30 7933 C 731.125 -2.32702 -2.43622 0
M  V30 7934 O 731.655 -1.99763 -3.48508 0
M  V30 7935 N 729.861 -1.95621 -2.14897 0
M  V30 7936 H 729.408 -2.22607 -1.29629 0
M  V30 7937 H 729.366 -1.39993 -2.81513 0
M  V30 7938 N 733.138 -0.185124 -1.56509 0
M  V30 7939 C 734.07 0.771401 -2.15829 0
M  V30 7940 C 735.083 1.18392 -1.11747 0
M  V30 7941 O 736.272 1.12137 -1.38879 0
M  V30 7942 C 733.372 2.05169 -2.69739 0
M  V30 7943 C 732.545 1.80056 -3.98621 0
M  V30 7944 C 731.604 2.92435 -4.37456 0
M  V30 7945 O 730.63 2.62473 -5.05071 0
M  V30 7946 N 731.832 4.20554 -4.00143 0
M  V30 7947 H 734.597 0.264184 -2.98533 0
M  V30 7948 H 732.158 -0.00281069 -1.619 0
M  V30 7949 H 734.15 2.7947 -2.92709 0
M  V30 7950 H 732.72 2.47041 -1.91545 0
M  V30 7951 H 731.94 0.895862 -3.83885 0
M  V30 7952 H 733.228 1.60662 -4.82768 0
M  V30 7953 H 732.626 4.47753 -3.45736 0
M  V30 7954 H 731.183 4.91514 -4.28085 0
M  V30 7955 N 734.616 1.57351 0.0885366 0
M  V30 7956 C 735.564 2.03542 1.12576 0
M  V30 7957 C 736.558 0.937668 1.41082 0
M  V30 7958 O 737.764 1.12283 1.40686 0
M  V30 7959 H 734.139 0.648752 0.380296 0
M  V30 7960 H 736.11 2.89833 0.709906 0
M  V30 7961 C 734.859 2.4811 2.43591 0
M  V30 7962 H 734.182 3.32164 2.22502 0
M  V30 7963 H 735.622 2.842 3.14653 0
M  V30 7964 C 734.081 1.35708 3.08359 0
M  V30 7965 O 734.611 0.689852 3.95732 0
M  V30 7966 N 732.817 1.10641 2.68713 0
M  V30 7967 H 732.364 1.6508 1.97753 0
M  V30 7968 H 732.322 0.356355 3.12374 0
M  V30 7969 N 736.094 -0.359525 1.53444 0
M  V30 7970 C 737.004 -1.46445 1.83278 0
M  V30 7971 C 738.02 -1.5833 0.721629 0
M  V30 7972 O 739.196 -1.7411 1.01231 0
M  V30 7973 C 736.261 -2.81638 2.02191 0
M  V30 7974 C 735.322 -2.7923 3.26082 0
M  V30 7975 C 734.555 -4.07974 3.44082 0
M  V30 7976 O 734.778 -5.04447 2.66251 0
M  V30 7977 O 733.712 -4.13417 4.37458 0
M  V30 7978 H 737.538 -1.24156 2.77162 0
M  V30 7979 H 735.123 -0.550201 1.389 0
M  V30 7980 H 737.005 -3.61732 2.16167 0
M  V30 7981 H 735.68 -3.03892 1.11496 0
M  V30 7982 H 734.587 -1.97813 3.17523 0
M  V30 7983 H 735.92 -2.6193 4.16718 0
M  V30 7984 N 737.572 -1.44907 -0.619662 0
M  V30 7985 C 738.821 -1.47569 -1.37501 0
M  V30 7986 C 739.134 -0.116707 -1.95252 0
M  V30 7987 O 740.34 -0.020909 -2.71492 0
M  V30 7988 C 738.796 -2.59851 -2.49009 0
M  V30 7989 C 738.404 -4.02008 -1.97722 0
M  V30 7990 C 740.148 -2.71746 -3.2612 0
M  V30 7991 C 738.055 -5.05693 -3.0664 0
M  V30 7992 H 736.985 -0.549068 -0.51676 0
M  V30 7993 H 739.636 -1.71009 -0.665437 0
M  V30 7994 H 738.018 -2.29671 -3.22594 0
M  V30 7995 H 739.192 -4.41809 -1.30925 0
M  V30 7996 H 737.507 -3.94456 -1.33392 0
M  V30 7997 H 740.104 -3.46382 -4.07337 0
M  V30 7998 H 740.447 -1.77959 -3.76346 0
M  V30 7999 H 740.98 -3.01392 -2.5963 0
M  V30 8000 H 737.719 -6.01148 -2.61345 0
M  V30 8001 H 737.239 -4.70473 -3.72042 0
M  V30 8002 H 738.918 -5.29906 -3.71226 0
M  V30 8003 N 739.05 0.861098 -1.31996 0
M  V30 8004 C 739.98 1.98482 -1.22993 0
M  V30 8005 C 740.961 1.6971 -0.115168 0
M  V30 8006 O 742.146 1.91849 -0.30126 0
M  V30 8007 C 739.276 3.34179 -0.945615 0
M  V30 8008 C 738.23 3.77284 -2.02091 0
M  V30 8009 C 737.556 5.1054 -1.58912 0
M  V30 8010 C 738.856 3.93439 -3.43515 0
M  V30 8011 H 740.55 2.06271 -2.17008 0
M  V30 8012 H 738.096 0.991043 -1.04472 0
M  V30 8013 H 740.049 4.12338 -0.869206 0
M  V30 8014 H 738.773 3.26586 0.0301849 0
M  V30 8015 H 737.432 3.01371 -2.08737 0
M  V30 8016 H 737.08 4.99397 -0.600942 0
M  V30 8017 H 736.78 5.40352 -2.30854 0
M  V30 8018 H 738.304 5.91199 -1.52696 0
M  V30 8019 H 739.718 4.6197 -3.39495 0
M  V30 8020 H 738.115 4.34661 -4.13751 0
M  V30 8021 H 739.185 2.96548 -3.8365 0
M  V30 8022 N 740.528 1.15101 1.07655 0
M  V30 8023 C 741.939 0.933848 1.61667 0
M  V30 8024 C 742.29 -0.525569 1.8903 0
M  V30 8025 O 741.415 -1.39605 1.65346 0
M  V30 8026 C 742.01 1.68876 2.93711 0
M  V30 8027 C 740.569 1.51697 3.44478 0
M  V30 8028 C 739.716 1.70633 2.18586 0
M  V30 8029 H 742.667 1.30171 0.907816 0
M  V30 8030 H 742.688 1.15645 3.625 0
M  V30 8031 H 742.2 2.7509 2.73764 0
M  V30 8032 H 740.301 0.478635 3.69513 0
M  V30 8033 H 740.414 2.29194 4.20722 0
M  V30 8034 H 738.778 1.13259 2.28132 0
M  V30 8035 H 739.561 2.78206 2.01137 0
M  V30 8036 N 742.006 -1.2595 0.947325 0
M  V30 8037 C 742.916 -2.29883 0.468079 0
M  V30 8038 C 743.932 -1.67783 -0.460975 0
M  V30 8039 O 745.108 -1.98526 -0.339006 0
M  V30 8040 C 742.173 -3.45773 -0.253315 0
M  V30 8041 C 741.234 -4.23337 0.713054 0
M  V30 8042 C 740.467 -5.33694 0.025993 0
M  V30 8043 O 740.69 -5.57853 -1.18978 0
M  V30 8044 O 739.624 -5.97724 0.70782 0
M  V30 8045 H 743.45 -2.72952 1.33156 0
M  V30 8046 H 741.035 -1.31263 0.713468 0
M  V30 8047 H 742.917 -4.16209 -0.659423 0
M  V30 8048 H 741.592 -3.04721 -1.09209 0
M  V30 8049 H 740.499 -3.55359 1.16923 0
M  V30 8050 H 741.832 -4.68154 1.51963 0
M  V30 8051 N 743.484 -0.715051 -1.40445 0
M  V30 8052 C 744.712 -0.263959 -2.05209 0
M  V30 8053 C 745.127 1.09403 -1.53871 0
M  V30 8054 O 744.484 1.68746 -0.695064 0
M  V30 8055 C 744.535 -0.234545 -3.60738 0
M  V30 8056 O 744.256 -1.53891 -4.10182 0
M  V30 8057 C 745.757 0.235164 -4.42676 0
M  V30 8058 H 742.977 -0.11876 -0.660407 0
M  V30 8059 H 745.521 -0.973107 -1.79864 0
M  V30 8060 H 743.676 0.425563 -3.85055 0
M  V30 8061 H 744.09 -1.43903 -5.04373 0
M  V30 8062 H 745.564 0.204598 -5.51621 0
M  V30 8063 H 746.041 1.27724 -4.20218 0
M  V30 8064 H 746.647 -0.394649 -4.23465 0
M  V30 8065 N 744.962 1.50701 -0.461195 0
M  V30 8066 C 745.872 2.32069 0.343661 0
M  V30 8067 C 746.888 1.42016 1.00535 0
M  V30 8068 O 748.064 1.75077 0.995498 0
M  V30 8069 C 745.129 3.16424 1.41692 0
M  V30 8070 C 744.19 4.22286 0.772869 0
M  V30 8071 C 743.423 5.02609 1.79499 0
M  V30 8072 O 743.646 4.83874 3.0203 0
M  V30 8073 O 742.58 5.86047 1.3723 0
M  V30 8074 H 746.406 3.01996 -0.321268 0
M  V30 8075 H 743.991 1.47723 -0.223235 0
M  V30 8076 H 745.873 3.68795 2.03883 0
M  V30 8077 H 744.548 2.49236 2.0655 0
M  V30 8078 H 743.455 3.73931 0.112277 0
M  V30 8079 H 744.788 4.91915 0.167399 0
M  V30 8080 N 746.441 0.193421 1.56409 0
M  V30 8081 C 747.404 -0.714371 2.17783 0
M  V30 8082 C 748.404 -1.1422 1.13183 0
M  V30 8083 O 749.594 -1.05557 1.38576 0
M  V30 8084 C 746.726 -1.97509 2.77855 0
M  V30 8085 H 747.919 -0.179714 2.99361 0
M  V30 8086 H 745.472 -0.0561944 1.56199 0
M  V30 8087 H 746.207 -2.5523 2.0007 0
M  V30 8088 H 745.992 -1.67706 3.54425 0
M  V30 8089 H 747.482 -2.62246 3.24987 0
M  V30 8090 N 747.919 -1.57396 -0.0801906 0
M  V30 8091 C 748.852 -1.98386 -1.12774 0
M  V30 8092 C 749.83 -0.859423 -1.38031 0
M  V30 8093 O 751.014 -1.12101 -1.51544 0
M  V30 8094 C 748.141 -2.3134 -2.47386 0
M  V30 8095 C 747.187 -3.53706 -2.38316 0
M  V30 8096 S 748.02 -5.04862 -1.78534 0
M  V30 8097 C 749.176 -5.41008 -3.1474 0
M  V30 8098 H 749.409 -2.86929 -0.778382 0
M  V30 8099 H 746.942 -1.51682 -0.28842 0
M  V30 8100 H 748.9 -2.51 -3.24822 0
M  V30 8101 H 747.561 -1.4334 -2.79486 0
M  V30 8102 H 746.754 -3.74253 -3.37566 0
M  V30 8103 H 746.356 -3.33632 -1.69014 0
M  V30 8104 H 748.648 -5.38565 -4.1104 0
M  V30 8105 H 749.591 -6.41885 -2.98981 0
M  V30 8106 H 749.999 -4.68467 -3.14958 0
M  V30 8107 N 749.397 0.351382 -1.53633 0
M  V30 8108 C 750.327 1.43688 -1.84055 0
M  V30 8109 C 751.308 1.55251 -0.695073 0
M  V30 8110 O 752.493 1.69587 -0.946257 0
M  V30 8111 C 749.623 2.80843 -2.04315 0
M  V30 8112 C 748.577 2.84094 -3.20117 0
M  V30 8113 C 747.903 4.2406 -3.25696 0
M  V30 8114 C 749.203 2.50334 -4.58399 0
M  V30 8115 H 750.897 1.18478 -2.74961 0
M  V30 8116 H 748.443 0.568509 -1.32303 0
M  V30 8117 H 750.396 3.56821 -2.2418 0
M  V30 8118 H 749.12 3.07471 -1.10132 0
M  V30 8119 H 747.779 2.10568 -3.00094 0
M  V30 8120 H 747.427 4.47785 -2.29123 0
M  V30 8121 H 747.127 4.27147 -4.03509 0
M  V30 8122 H 748.651 5.0189 -3.47762 0
M  V30 8123 H 750.065 3.16025 -4.78332 0
M  V30 8124 H 748.462 2.64717 -5.38558 0
M  V30 8125 H 749.532 1.45542 -4.62543 0
M  V30 8126 N 750.875 1.45233 0.611969 0
M  V30 8127 C 752.1 1.52767 1.40274 0
M  V30 8128 C 752.525 0.159701 1.87421 0
M  V30 8129 O 751.883 -0.854837 1.59882 0
M  V30 8130 C 751.931 2.51286 2.58626 0
M  V30 8131 O 751.035 2.02764 3.59111 0
M  V30 8132 H 750.376 0.515141 0.418958 0
M  V30 8133 H 752.906 1.90547 0.745188 0
M  V30 8134 H 752.916 2.69949 3.05927 0
M  V30 8135 H 751.591 3.50641 2.23659 0
M  V30 8136 H 750.168 1.93957 3.18489 0
M  V30 8137 N 752.353 -0.854086 1.3245 0
M  V30 8138 C 753.316 -1.94427 1.21371 0
M  V30 8139 C 754.316 -1.60219 0.136613 0
M  V30 8140 O 755.506 -1.69846 0.387057 0
M  V30 8141 C 752.638 -3.29698 0.866701 0
M  V30 8142 H 753.831 -2.05679 2.18257 0
M  V30 8143 H 751.384 -1.04434 1.1629 0
M  V30 8144 H 752.119 -3.24145 -0.100319 0
M  V30 8145 H 751.904 -3.55903 1.64545 0
M  V30 8146 H 753.394 -4.09599 0.813515 0
M  V30 8147 N 753.831 -1.1567 -1.07043 0
M  V30 8148 C 755.059 -0.957471 -1.83412 0
M  V30 8149 C 755.474 0.494271 -1.82215 0
M  V30 8150 O 754.831 1.34288 -1.23584 0
M  V30 8151 C 754.882 -1.46784 -3.30359 0
M  V30 8152 O 754.603 -2.86271 -3.31633 0
M  V30 8153 C 756.104 -1.31054 -4.23485 0
M  V30 8154 H 753.324 -0.33986 -0.578564 0
M  V30 8155 H 755.868 -1.53518 -1.35102 0
M  V30 8156 H 754.023 -0.932586 -3.76007 0
M  V30 8157 H 754.437 -3.0948 -4.23465 0
M  V30 8158 H 755.911 -1.71605 -5.24648 0
M  V30 8159 H 756.388 -0.255107 -4.38458 0
M  V30 8160 H 756.994 -1.83503 -3.83676 0
M  V30 8161 N 755.309 1.25446 -0.953992 0
M  V30 8162 C 756.555 1.9343 -0.60933 0
M  V30 8163 C 756.888 1.74542 0.851388 0
M  V30 8164 O 756.163 1.09014 1.61078 0
M  V30 8165 C 756.446 3.46844 -0.968041 0
M  V30 8166 C 756.299 3.74961 -2.48444 0
M  V30 8167 C 757.618 4.37334 -0.492641 0
M  V30 8168 H 754.737 0.702502 -0.222844 0
M  V30 8169 H 757.379 1.48076 -1.19053 0
M  V30 8170 H 755.529 3.85604 -0.473465 0
M  V30 8171 H 757.201 3.45841 -3.05273 0
M  V30 8172 H 755.444 3.20589 -2.92241 0
M  V30 8173 H 756.115 4.82246 -2.68594 0
M  V30 8174 H 758.591 4.05873 -0.916878 0
M  V30 8175 H 757.467 5.43439 -0.772331 0
M  V30 8176 H 757.728 4.37908 0.607403 0
M  V30 8177 O 756.826 0.86056 1.36662 0
M  V30 8178 H 757.517 0.45661 1.88241 0
M  V30 END ATOM
M  V30 BEGIN BOND
M  V30 END BOND
M  V30 END CTAB
M  END
$$$$
