drugbank_target|Q9NR33 DNA polymerase epsilon subunit 4 (DB00242)
 OpenBabel12092120363D

  0  0  0     0  0            999 V3000
M  V30 BEGIN CTAB
M  V30 COUNTS 5182 5567 0 0 0
M  V30 BEGIN ATOM
M  V30 1 H -1.547 9.37743 -1.21644 0
M  V30 2 O -1.44 8.89599 -0.40059 0
M  V30 3 P 0 8.91 0 0
M  V30 4 O 0.22 10.1746 0.733838 0
M  V30 5 O 0.79 8.73346 -1.23964 0
M  V30 6 O 0.25 7.66872 0.971405 0
M  V30 7 C -0.69 7.42405 2.04668 0
M  V30 8 C 0.04 6.86059 3.24661 0
M  V30 9 O 0.25 5.42934 3.03695 0
M  V30 10 C 1.44 7.41287 3.50796 0
M  V30 11 O 1.83 7.27073 4.86816 0
M  V30 12 C 2.32 6.5273 2.63741 0
M  V30 13 C 1.61 5.1842 2.73198 0
M  V30 14 N 1.66 4.38762 1.4784 0
M  V30 15 H -1.178 8.36899 2.3252 0
M  V30 16 H -1.45 6.70391 1.71179 0
M  V30 17 H -0.582 7.03638 4.13219 0
M  V30 18 H 2.073 4.59931 3.54016 0
M  V30 19 H 2.353 6.88995 1.59871 0
M  V30 20 H 3.344 6.4684 3.0373 0
M  V30 21 H 1.51 8.47002 3.20749 0
M  V30 22 P 3.37998 7.20834 5.23717 0
M  V30 23 O 3.59998 7.80006 6.57415 0
M  V30 24 O 4.16998 7.79416 4.13051 0
M  V30 25 O 3.62998 5.63315 5.29344 0
M  V30 26 C 2.68998 4.80318 6.01954 0
M  V30 27 C 3.41998 3.64202 6.65911 0
M  V30 28 O 3.62998 2.60736 5.64823 0
M  V30 29 C 4.81998 3.93521 7.19518 0
M  V30 30 O 5.20998 3.02071 8.21205 0
M  V30 31 C 5.69998 3.73047 5.97036 0
M  V30 32 C 4.98998 2.58828 5.25741 0
M  V30 33 N 5.03998 2.68068 3.77503 0
M  V30 34 C 4.95998 3.80474 2.99159 0
M  V30 35 N 5.02998 3.55622 1.71925 0
M  V30 36 C 5.17998 2.1832 1.65733 0
M  V30 37 C 5.30998 1.28842 0.572777 0
M  V30 38 N 5.31998 1.66875 -0.70098 0
M  V30 39 N 5.42998 -0.016788 0.859836 0
M  V30 40 C 5.41998 -0.398145 2.13316 0
M  V30 41 N 5.29998 0.328224 3.22333 0
M  V30 42 C 5.17998 1.62992 2.90383 0
M  V30 43 H 2.20198 5.40394 6.8003 0
M  V30 44 H 1.92998 4.41741 5.32532 0
M  V30 45 H 2.79798 3.26371 7.47889 0
M  V30 46 H 5.45298 1.64007 5.56746 0
M  V30 47 H 5.73298 4.63439 5.3432 0
M  V30 48 H 6.72398 3.44776 6.25925 0
M  V30 49 H 4.88998 4.96707 7.57347 0
M  V30 50 H 4.84898 4.8089 3.39924 0
M  V30 51 H 5.22998 2.66547 -0.941919 0
M  V30 52 H 5.41898 0.965341 -1.44766 0
M  V30 53 H 5.52698 -1.46427 2.29697 0
M  V30 54 P 6.75996 2.75334 8.47391 0
M  V30 55 O 6.97996 2.44619 9.90336 0
M  V30 56 O 7.54996 3.87776 7.92294 0
M  V30 57 O 7.00996 1.4459 7.59357 0
M  V30 58 C 6.06996 0.347653 7.69315 0
M  V30 59 C 6.79996 -0.96767 7.52806 0
M  V30 60 O 7.00996 -1.21055 6.10208 0
M  V30 61 C 8.19996 -1.04557 8.13408 0
M  V30 62 O 8.58996 -2.38311 8.41922 0
M  V30 63 C 9.07996 -0.491279 7.02284 0
M  V30 64 C 8.36996 -0.996264 5.77469 0
M  V30 65 N 8.41996 -0.0501916 4.62973 0
M  V30 66 C 8.33996 1.31969 4.65661 0
M  V30 67 N 8.40996 1.86649 3.48119 0
M  V30 68 C 8.55996 0.792089 2.62406 0
M  V30 69 C 8.68996 0.705684 1.2207 0
M  V30 70 N 8.69996 1.76207 0.413762 0
M  V30 71 N 8.80996 -0.518981 0.685754 0
M  V30 72 C 8.79996 -1.57595 1.49174 0
M  V30 73 N 8.67996 -1.62909 2.80066 0
M  V30 74 C 8.55996 -0.388195 3.3073 0
M  V30 75 H 5.58196 0.374765 8.67791 0
M  V30 76 H 5.30996 0.443613 6.90476 0
M  V30 77 H 6.17796 -1.75559 7.96891 0
M  V30 78 H 8.83296 -1.94563 5.46818 0
M  V30 79 H 9.11296 0.608651 7.04676 0
M  V30 80 H 10.104 -0.889796 7.09039 0
M  V30 81 H 8.26996 -0.433128 9.04664 0
M  V30 82 H 8.22896 1.89246 5.57664 0
M  V30 83 H 8.60996 2.71005 0.804694 0
M  V30 84 H 8.79896 1.63189 -0.603768 0
M  V30 85 H 8.90696 -2.53475 0.997614 0
M  V30 86 P 10.1399 -2.75334 8.47391 0
M  V30 87 O 10.3599 -3.84204 9.44982 0
M  V30 88 O 10.9299 -1.51982 8.68909 0
M  V30 89 O 10.3899 -3.29363 6.99321 0
M  V30 90 C 9.44994 -4.24066 6.42823 0
M  V30 91 C 10.1799 -5.20775 5.52155 0
M  V30 92 O 10.3899 -4.56607 4.22514 0
M  V30 93 C 11.5799 -5.62697 5.96604 0
M  V30 94 O 11.9699 -6.87667 5.41053 0
M  V30 95 C 12.4599 -4.52537 5.39283 0
M  V30 96 C 11.7499 -4.20027 4.08623 0
M  V30 97 N 11.7999 -2.76189 3.71603 0
M  V30 98 C 11.7199 -1.66944 4.54297 0
M  V30 99 N 11.7899 -0.536169 3.91344 0
M  V30 100 C 11.9399 -0.901569 2.58849 0
M  V30 101 C 12.0699 -0.146599 1.40236 0
M  V30 102 N 12.0799 1.18234 1.37046 0
M  V30 103 N 12.1899 -0.822941 0.249738 0
M  V30 104 C 12.1799 -2.15179 0.280525 0
M  V30 105 N 12.0599 -2.96414 1.30822 0
M  V30 106 C 11.9399 -2.25804 2.44748 0
M  V30 107 H 8.96194 -4.79756 7.24086 0
M  V30 108 H 8.68994 -3.69963 5.84682 0
M  V30 109 H 9.55794 -6.10431 5.41508 0
M  V30 110 H 12.2129 -4.78816 3.28024 0
M  V30 111 H 12.4929 -3.64957 6.05871 0
M  V30 112 H 13.4839 -4.88748 5.21323 0
M  V30 113 H 11.6499 -5.66789 7.0643 0
M  V30 114 H 11.6089 -1.74684 5.62396 0
M  V30 115 H 11.9899 1.71949 2.24394 0
M  V30 116 H 12.1789 1.67511 0.470742 0
M  V30 117 H 12.2869 -2.63704 -0.6828 0
M  V30 118 P 13.5199 -7.20834 5.23717 0
M  V30 119 O 13.7399 -8.66274 5.38678 0
M  V30 120 O 14.3099 -6.33687 6.13629 0
M  V30 121 O 13.7699 -6.7751 3.72168 0
M  V30 122 C 12.8299 -7.20919 2.70795 0
M  V30 123 C 13.5599 -7.45864 1.40599 0
M  V30 124 O 13.7699 -6.17751 0.734343 0
M  V30 125 C 14.9599 -8.05906 1.51917 0
M  V30 126 O 15.3499 -8.74358 0.335205 0
M  V30 127 C 15.8399 -6.83093 1.70294 0
M  V30 128 C 15.1299 -5.79992 0.836974 0
M  V30 129 N 15.1799 -4.41864 1.38293 0
M  V30 130 C 15.0999 -4.02089 2.69407 0
M  V30 131 N 15.1699 -2.73403 2.85089 0
M  V30 132 C 15.3199 -2.25086 1.5642 0
M  V30 133 C 15.4499 -0.942887 1.04836 0
M  V30 134 N 15.4599 0.150999 1.80369 0
M  V30 135 N 15.5699 -0.812565 -0.28167 0
M  V30 136 C 15.5599 -1.90572 -1.03784 0
M  V30 137 N 15.4399 -3.167 -0.683905 0
M  V30 138 C 15.3199 -3.26538 0.652815 0
M  V30 139 H 12.3419 -8.13738 3.03804 0
M  V30 140 H 12.0699 -6.42974 2.55559 0
M  V30 141 H 12.9379 -8.12139 0.792866 0
M  V30 142 H 15.5929 -5.80178 -0.160643 0
M  V30 143 H 15.8729 -6.51379 2.75643 0
M  V30 144 H 16.8639 -7.01832 1.3448 0
M  V30 145 H 15.0299 -8.73771 2.38364 0
M  V30 146 H 14.9889 -4.7189 3.52311 0
M  V30 147 H 15.3699 0.0721434 2.82608 0
M  V30 148 H 15.5589 1.0785 1.36544 0
M  V30 149 H 15.6669 -1.73207 -2.10241 0
M  V30 150 P 16.8999 -8.91 1.09116e-15 0
M  V30 151 O 17.1199 -10.1746 -0.733838 0
M  V30 152 O 17.6899 -8.73346 1.23964 0
M  V30 153 O 17.1499 -7.66872 -0.971405 0
M  V30 154 C 16.2099 -7.42405 -2.04668 0
M  V30 155 C 16.9399 -6.86059 -3.24661 0
M  V30 156 O 17.1499 -5.42934 -3.03695 0
M  V30 157 C 18.3399 -7.41287 -3.50796 0
M  V30 158 O 18.7299 -7.27073 -4.86816 0
M  V30 159 C 19.2199 -6.5273 -2.63741 0
M  V30 160 C 18.5099 -5.1842 -2.73198 0
M  V30 161 N 18.5599 -4.38762 -1.4784 0
M  V30 162 C 18.4799 -4.83651 -0.183876 0
M  V30 163 N 18.5499 -3.88759 0.699393 0
M  V30 164 C 18.6999 -2.7404 -0.0575568 0
M  V30 165 C 18.8299 -1.37902 0.293928 0
M  V30 166 N 18.8399 -0.938021 1.54797 0
M  V30 167 N 18.9499 -0.491817 -0.70549 0
M  V30 168 C 18.9399 -0.931735 -1.95979 0
M  V30 169 N 18.8199 -2.16017 -2.41481 0
M  V30 170 C 18.6999 -3.02547 -1.39121 0
M  V30 171 H 15.7219 -8.36899 -2.3252 0
M  V30 172 H 15.4499 -6.70391 -1.71179 0
M  V30 173 H 16.3179 -7.03638 -4.13219 0
M  V30 174 H 18.9729 -4.59931 -3.54016 0
M  V30 175 H 19.2529 -6.88995 -1.59871 0
M  V30 176 H 20.2439 -6.4684 -3.0373 0
M  V30 177 H 18.4099 -8.47002 -3.20749 0
M  V30 178 H 18.3689 -5.8885 0.0765548 0
M  V30 179 H 18.7499 -1.60276 2.32875 0
M  V30 180 H 18.9389 0.0699355 1.73859 0
M  V30 181 H 19.0469 -0.165507 -2.71897 0
M  V30 182 P 20.2799 -7.20834 -5.23717 0
M  V30 183 O 20.4999 -7.80006 -6.57415 0
M  V30 184 O 21.0699 -7.79416 -4.13051 0
M  V30 185 O 20.5299 -5.63315 -5.29344 0
M  V30 186 C 19.5899 -4.80318 -6.01954 0
M  V30 187 C 20.3199 -3.64202 -6.65911 0
M  V30 188 O 20.5299 -2.60736 -5.64823 0
M  V30 189 C 21.7199 -3.93521 -7.19518 0
M  V30 190 O 22.1099 -3.02071 -8.21205 0
M  V30 191 C 22.5999 -3.73047 -5.97036 0
M  V30 192 C 21.8899 -2.58828 -5.25741 0
M  V30 193 N 21.9399 -2.68068 -3.77503 0
M  V30 194 C 21.8599 -3.80474 -2.99159 0
M  V30 195 N 21.9299 -3.55622 -1.71925 0
M  V30 196 C 22.0799 -2.1832 -1.65733 0
M  V30 197 C 22.2099 -1.28842 -0.572777 0
M  V30 198 N 22.2199 -1.66875 0.70098 0
M  V30 199 N 22.3299 0.016788 -0.859836 0
M  V30 200 C 22.3199 0.398145 -2.13316 0
M  V30 201 N 22.1999 -0.328224 -3.22333 0
M  V30 202 C 22.0799 -1.62992 -2.90383 0
M  V30 203 H 19.1019 -5.40394 -6.8003 0
M  V30 204 H 18.8299 -4.41741 -5.32532 0
M  V30 205 H 19.6979 -3.26371 -7.47889 0
M  V30 206 H 22.3529 -1.64007 -5.56746 0
M  V30 207 H 22.6329 -4.63439 -5.3432 0
M  V30 208 H 23.6239 -3.44776 -6.25925 0
M  V30 209 H 21.7899 -4.96707 -7.57347 0
M  V30 210 H 21.7489 -4.8089 -3.39924 0
M  V30 211 H 22.1299 -2.66547 0.941919 0
M  V30 212 H 22.3189 -0.965341 1.44766 0
M  V30 213 H 22.4269 1.46427 -2.29697 0
M  V30 214 P 23.6599 -2.75334 -8.47391 0
M  V30 215 O 23.8799 -2.44571 -9.90142 0
M  V30 216 O 24.4499 -3.87688 -7.92115 0
M  V30 217 O 23.9099 -1.4459 -7.59357 0
M  V30 218 C 22.9699 -0.347608 -7.69215 0
M  V30 219 C 23.6999 0.96767 -7.52806 0
M  V30 220 O 23.9099 1.21036 -6.1011 0
M  V30 221 C 25.0999 1.04544 -8.13308 0
M  V30 222 O 25.4899 2.38311 -8.41922 0
M  V30 223 C 25.9799 0.491279 -7.02284 0
M  V30 224 C 25.2699 0.996264 -5.77469 0
M  V30 225 N 25.3199 0.0501916 -4.62973 0
M  V30 226 C 25.2399 -1.32786 -4.63244 0
M  V30 227 N 25.3199 -1.86957 -3.44545 0
M  V30 228 C 25.4599 -0.780241 -2.58481 0
M  V30 229 C 25.5899 -0.738536 -1.17757 0
M  V30 230 O 25.6099 -1.66794 -0.372349 0
M  V30 231 N 25.7099 0.58337 -0.711393 0
M  V30 232 C 25.7099 1.70816 -1.51017 0
M  V30 233 N 25.8399 2.87826 -0.880757 0
M  V30 234 N 25.5799 1.67126 -2.8339 0
M  V30 235 C 25.4599 0.401421 -3.30572 0
M  V30 236 H 22.4809 -0.374722 -8.67691 0
M  V30 237 H 22.2109 -0.443485 -6.90277 0
M  V30 238 H 23.0779 1.75537 -7.96793 0
M  V30 239 H 25.7329 1.95076 -5.46529 0
M  V30 240 H 26.0119 -0.608565 -7.04577 0
M  V30 241 H 27.0039 0.889672 -7.08939 0
M  V30 242 H 25.1699 0.43308 -9.04564 0
M  V30 243 H 25.1209 -1.91249 -5.54442 0
M  V30 244 H 25.8029 0.718054 0.275244 0
M  V30 245 H 25.8399 3.75721 -1.41832 0
M  V30 246 H 25.9409 2.90436 0.145468 0
M  V30 247 P 27.0398 2.75334 -8.47391 0
M  V30 248 O 27.2598 3.84128 -9.44797 0
M  V30 249 O 27.8298 1.51947 -8.68712 0
M  V30 250 O 27.2898 3.29363 -6.99321 0
M  V30 251 C 26.3498 4.24011 -6.4274 0
M  V30 252 C 27.0798 5.20775 -5.52155 0
M  V30 253 O 27.2898 4.56534 -4.22446 0
M  V30 254 C 28.4798 5.62629 -5.96531 0
M  V30 255 O 28.8698 6.87667 -5.41053 0
M  V30 256 C 29.3598 4.52537 -5.39283 0
M  V30 257 C 28.6498 4.20027 -4.08623 0
M  V30 258 N 28.6998 2.76189 -3.71603 0
M  V30 259 H 25.8608 4.797 -7.24003 0
M  V30 260 H 25.5908 3.69856 -5.84513 0
M  V30 261 H 26.4578 6.10356 -5.41441 0
M  V30 262 P 30.4198 7.20834 -5.23717 0
M  V30 263 O 30.6398 8.66104 -5.38572 0
M  V30 264 O 31.2098 6.33544 -6.1349 0
M  V30 265 O 30.6698 6.7751 -3.72168 0
M  V30 266 C 29.7298 7.20825 -2.7076 0
M  V30 267 C 30.4598 7.45864 -1.40599 0
M  V30 268 O 30.6698 6.17651 -0.734225 0
M  V30 269 C 31.8598 8.05808 -1.51899 0
M  V30 270 O 32.2498 8.74358 -0.335205 0
M  V30 271 C 32.7398 6.83093 -1.70294 0
M  V30 272 C 32.0298 5.79992 -0.836974 0
M  V30 273 N 32.0798 4.41864 -1.38293 0
M  V30 274 C 31.9998 3.99538 -2.69438 0
M  V30 275 N 32.0798 2.69909 -2.84277 0
M  V30 276 C 32.2198 2.21719 -1.5408 0
M  V30 277 C 32.3498 0.891712 -1.06628 0
M  V30 278 O 32.3698 -0.161298 -1.70137 0
M  V30 279 N 32.4698 0.856846 0.334985 0
M  V30 280 C 32.4698 1.9641 1.15789 0
M  V30 281 N 32.5998 1.72708 2.46522 0
M  V30 282 N 32.3398 3.21165 0.713741 0
M  V30 283 C 32.2198 3.26797 -0.639748 0
M  V30 284 H 29.2408 8.13644 -3.0377 0
M  V30 285 H 28.9708 6.42788 -2.55485 0
M  V30 286 H 29.8378 8.12039 -0.792769 0
M  V30 287 H 32.4928 5.80061 0.166416 0
M  V30 288 H 32.7718 6.51287 -2.75604 0
M  V30 289 H 33.7638 7.01734 -1.34462 0
M  V30 290 H 31.9298 8.73674 -2.38337 0
M  V30 291 H 31.8808 4.68207 -3.53221 0
M  V30 292 H 32.5628 -0.0398818 0.767965 0
M  V30 293 H 32.5998 2.50995 3.13503 0
M  V30 294 H 32.7008 0.759148 2.80716 0
M  V30 295 P 33.7998 8.91 -2.18232e-15 0
M  V30 296 O 34.0198 10.1736 0.733766 0
M  V30 297 O 34.5898 8.73247 -1.2395 0
M  V30 298 O 34.0498 7.66872 0.971405 0
M  V30 299 C 33.1098 7.42212 2.04614 0
M  V30 300 C 33.8398 6.86059 3.24661 0
M  V30 301 O 34.0498 5.42847 3.03646 0
M  V30 302 C 35.2398 7.41196 3.50753 0
M  V30 303 O 35.6298 7.27073 4.86816 0
M  V30 304 C 36.1198 6.5273 2.63741 0
M  V30 305 C 35.4098 5.1842 2.73198 0
M  V30 306 N 35.4598 4.38668 1.47808 0
M  V30 307 C 35.6098 3.02239 1.60048 0
M  V30 308 O 35.6998 2.46459 2.67869 0
M  V30 309 N 35.6498 2.32436 0.408571 0
M  V30 310 C 35.5598 2.85471 -0.854993 0
M  V30 311 O 35.6098 2.12566 -1.8531 0
M  V30 312 C 35.4098 4.28918 -0.887335 0
M  V30 313 C 35.2998 4.91066 -2.24619 0
M  V30 314 C 35.3598 5.00349 0.255399 0
M  V30 315 H 32.6198 8.36803 2.32493 0
M  V30 316 H 32.3508 6.701 1.71105 0
M  V30 317 H 33.2178 7.03551 4.13168 0
M  V30 318 H 35.8728 4.59773 3.53894 0
M  V30 319 H 36.1518 6.88995 1.59871 0
M  V30 320 H 37.1438 6.46749 3.03687 0
M  V30 321 H 35.3098 8.46908 3.20714 0
M  V30 322 H 35.2388 6.08548 0.206986 0
M  V30 323 H 36.2688 5.34836 -2.53099 0
M  V30 324 H 34.5318 5.69638 -2.2291 0
M  V30 325 H 35.0198 4.13971 -2.98044 0
M  V30 326 H 35.7558 1.33211 0.474216 0
M  V30 327 P 37.1798 7.20834 5.23717 0
M  V30 328 O 37.3998 7.79853 6.57286 0
M  V30 329 O 37.9698 7.79239 4.12957 0
M  V30 330 O 37.4298 5.63315 5.29344 0
M  V30 331 C 36.4898 4.80255 6.01876 0
M  V30 332 C 37.2198 3.64202 6.65911 0
M  V30 333 O 37.4298 2.60694 5.64732 0
M  V30 334 C 38.6198 3.93473 7.1943 0
M  V30 335 O 39.0098 3.02071 8.21205 0
M  V30 336 C 39.4998 3.73047 5.97036 0
M  V30 337 C 38.7898 2.58828 5.25741 0
M  V30 338 N 38.8398 2.68068 3.77503 0
M  V30 339 H 36.0008 5.40332 6.79951 0
M  V30 340 H 35.7308 4.41613 5.32378 0
M  V30 341 H 36.5978 3.26331 7.47797 0
M  V30 342 P 40.5598 2.75334 8.47391 0
M  V30 343 O 40.7798 2.44571 9.90142 0
M  V30 344 O 41.3498 3.87688 7.92115 0
M  V30 345 O 40.8098 1.4459 7.59357 0
M  V30 346 C 39.8698 0.347608 7.69215 0
M  V30 347 C 40.5998 -0.96767 7.52806 0
M  V30 348 O 40.8098 -1.21036 6.1011 0
M  V30 349 C 41.9998 -1.04544 8.13308 0
M  V30 350 O 42.3898 -2.38311 8.41922 0
M  V30 351 C 42.8798 -0.491279 7.02284 0
M  V30 352 C 42.1698 -0.996264 5.77469 0
M  V30 353 N 42.2198 -0.0501916 4.62973 0
M  V30 354 C 42.1398 1.32786 4.63244 0
M  V30 355 N 42.2198 1.86957 3.44545 0
M  V30 356 C 42.3598 0.780241 2.58481 0
M  V30 357 C 42.4898 0.738536 1.17757 0
M  V30 358 N 42.6098 -0.58337 0.711393 0
M  V30 359 C 42.6098 -1.70816 1.51017 0
M  V30 360 N 42.7398 -2.87826 0.880757 0
M  V30 361 N 42.4798 -1.67126 2.8339 0
M  V30 362 C 42.3598 -0.401421 3.30572 0
M  V30 363 H 39.3808 0.374722 8.67691 0
M  V30 364 H 39.1108 0.443485 6.90277 0
M  V30 365 H 39.9778 -1.75537 7.96793 0
M  V30 366 P 43.9397 -2.75334 8.47391 0
M  V30 367 O 44.1597 -3.84128 9.44797 0
M  V30 368 O 44.7297 -1.51947 8.68712 0
M  V30 369 O 44.1897 -3.29363 6.99321 0
M  V30 370 C 43.2497 -4.24011 6.4274 0
M  V30 371 C 43.9797 -5.20775 5.52155 0
M  V30 372 O 44.1897 -4.56534 4.22446 0
M  V30 373 C 45.3797 -5.62629 5.96531 0
M  V30 374 O 45.7697 -6.87667 5.41053 0
M  V30 375 C 46.2597 -4.52537 5.39283 0
M  V30 376 C 45.5497 -4.20027 4.08623 0
M  V30 377 N 45.5997 -2.76189 3.71603 0
M  V30 378 H 42.7607 -4.797 7.24003 0
M  V30 379 H 42.4907 -3.69856 5.84513 0
M  V30 380 H 43.3577 -6.10356 5.41441 0
M  V30 381 P 47.3197 -7.20834 5.23717 0
M  V30 382 O 47.5397 -8.66104 5.38572 0
M  V30 383 O 48.1097 -6.33544 6.1349 0
M  V30 384 O 47.5697 -6.7751 3.72168 0
M  V30 385 C 46.6297 -7.20825 2.7076 0
M  V30 386 C 47.3597 -7.45864 1.40599 0
M  V30 387 O 47.5697 -6.17651 0.734225 0
M  V30 388 C 48.7597 -8.05808 1.51899 0
M  V30 389 O 49.1497 -8.74358 0.335205 0
M  V30 390 C 49.6397 -6.83093 1.70294 0
M  V30 391 C 48.9297 -5.79992 0.836974 0
M  V30 392 N 48.9797 -4.41864 1.38293 0
M  V30 393 H 46.1407 -8.13644 3.0377 0
M  V30 394 H 45.8707 -6.42788 2.55485 0
M  V30 395 H 46.7377 -8.12039 0.792769 0
M  V30 396 P 50.6997 -8.91 3.27348e-15 0
M  V30 397 O 50.9197 -10.1726 -0.733694 0
M  V30 398 O 51.4897 -8.73148 1.23936 0
M  V30 399 O 50.9497 -7.66872 -0.971405 0
M  V30 400 C 50.0097 -7.42309 -2.04641 0
M  V30 401 C 50.7397 -6.86059 -3.24661 0
M  V30 402 O 50.9497 -5.42847 -3.03646 0
M  V30 403 C 52.1397 -7.41196 -3.50753 0
M  V30 404 O 52.5297 -7.27073 -4.86816 0
M  V30 405 C 53.0197 -6.5273 -2.63741 0
M  V30 406 C 52.3097 -5.1842 -2.73198 0
M  V30 407 N 52.3597 -4.38762 -1.4784 0
M  V30 408 H 49.5207 -8.36803 -2.32493 0
M  V30 409 H 49.2507 -6.70197 -1.71129 0
M  V30 410 H 50.1177 -7.03551 -4.13168 0
M  V30 411 P 54.0797 -7.20834 -5.23717 0
M  V30 412 O 54.2997 -7.79853 -6.57286 0
M  V30 413 O 54.8697 -7.79239 -4.12957 0
M  V30 414 O 54.3297 -5.63315 -5.29344 0
M  V30 415 C 53.3897 -4.80255 -6.01876 0
M  V30 416 C 54.1197 -3.64202 -6.65911 0
M  V30 417 O 54.3297 -2.60694 -5.64732 0
M  V30 418 C 55.5197 -3.93473 -7.1943 0
M  V30 419 O 55.9097 -3.02071 -8.21205 0
M  V30 420 C 56.3997 -3.73047 -5.97036 0
M  V30 421 C 55.6897 -2.58828 -5.25741 0
M  V30 422 N 55.7397 -2.68068 -3.77503 0
M  V30 423 C 55.6597 -3.79715 -2.96723 0
M  V30 424 N 55.7397 -3.5377 -1.68852 0
M  V30 425 C 55.8797 -2.15054 -1.63254 0
M  V30 426 C 56.0097 -1.28964 -0.518571 0
M  V30 427 O 56.0297 -1.56826 0.679156 0
M  V30 428 N 56.1297 0.0538097 -0.918425 0
M  V30 429 C 56.1297 0.494275 -2.22578 0
M  V30 430 N 56.2597 1.81086 -2.40434 0
M  V30 431 N 55.9997 -0.313645 -3.27502 0
M  V30 432 C 55.8797 -1.61829 -2.91033 0
M  V30 433 H 52.9007 -5.40332 -6.79951 0
M  V30 434 H 52.6307 -4.41613 -5.32378 0
M  V30 435 H 53.4977 -3.26331 -7.47797 0
M  V30 436 H 56.1527 -1.63422 -5.56814 0
M  V30 437 H 56.4317 -4.63374 -5.34244 0
M  V30 438 H 57.4237 -3.44728 -6.25838 0
M  V30 439 H 55.5897 -4.96652 -7.57263 0
M  V30 440 H 55.5407 -4.80617 -3.3614 0
M  V30 441 H 56.2227 0.742702 -0.199384 0
M  V30 442 H 56.2597 2.20598 -3.35588 0
M  V30 443 H 56.3607 2.43518 -1.58945 0
M  V30 444 P 57.4597 -2.75334 -8.47391 0
M  V30 445 O 57.6797 -2.44571 -9.90142 0
M  V30 446 O 58.2497 -3.87688 -7.92115 0
M  V30 447 O 57.7097 -1.4459 -7.59357 0
M  V30 448 C 56.7697 -0.347608 -7.69215 0
M  V30 449 C 57.4997 0.96767 -7.52806 0
M  V30 450 O 57.7097 1.21036 -6.1011 0
M  V30 451 C 58.8997 1.04544 -8.13308 0
M  V30 452 O 59.2897 2.38311 -8.41922 0
M  V30 453 C 59.7797 0.491279 -7.02284 0
M  V30 454 C 59.0697 0.996264 -5.77469 0
M  V30 455 N 59.1197 0.0501916 -4.62973 0
M  V30 456 H 56.2807 -0.374722 -8.67691 0
M  V30 457 H 56.0107 -0.443485 -6.90277 0
M  V30 458 H 56.8777 1.75537 -7.96793 0
M  V30 459 P 60.8396 2.75334 -8.47391 0
M  V30 460 O 61.0596 3.84204 -9.44982 0
M  V30 461 O 61.6296 1.51982 -8.68909 0
M  V30 462 O 61.0896 3.29363 -6.99321 0
M  V30 463 C 60.1496 4.24066 -6.42823 0
M  V30 464 C 60.8796 5.20775 -5.52155 0
M  V30 465 O 61.0896 4.56607 -4.22514 0
M  V30 466 C 62.2796 5.62697 -5.96604 0
M  V30 467 O 62.6696 6.87667 -5.41053 0
M  V30 468 C 63.1596 4.52537 -5.39283 0
M  V30 469 C 62.4496 4.20027 -4.08623 0
M  V30 470 N 62.4996 2.76189 -3.71603 0
M  V30 471 C 62.4196 1.66944 -4.54297 0
M  V30 472 N 62.4896 0.536169 -3.91344 0
M  V30 473 C 62.6396 0.901569 -2.58849 0
M  V30 474 C 62.7696 0.146599 -1.40236 0
M  V30 475 N 62.7796 -1.18234 -1.37046 0
M  V30 476 N 62.8896 0.822941 -0.249738 0
M  V30 477 C 62.8796 2.15179 -0.280525 0
M  V30 478 N 62.7596 2.96414 -1.30822 0
M  V30 479 C 62.6396 2.25804 -2.44748 0
M  V30 480 H 59.6616 4.79756 -7.24086 0
M  V30 481 H 59.3896 3.69963 -5.84682 0
M  V30 482 H 60.2576 6.10431 -5.41508 0
M  V30 483 H 62.9126 4.78816 -3.28024 0
M  V30 484 H 63.1926 3.64957 -6.05871 0
M  V30 485 H 64.1836 4.88748 -5.21323 0
M  V30 486 H 62.3496 5.66789 -7.0643 0
M  V30 487 H 62.3086 1.74684 -5.62396 0
M  V30 488 H 62.6896 -1.71949 -2.24394 0
M  V30 489 H 62.8786 -1.67511 -0.470742 0
M  V30 490 H 62.9866 2.63704 0.6828 0
M  V30 491 P 64.2196 7.20834 -5.23717 0
M  V30 492 O 64.4396 8.66104 -5.38572 0
M  V30 493 O 65.0096 6.33544 -6.1349 0
M  V30 494 O 64.4696 6.7751 -3.72168 0
M  V30 495 C 63.5296 7.20825 -2.7076 0
M  V30 496 C 64.2596 7.45864 -1.40599 0
M  V30 497 O 64.4696 6.17651 -0.734225 0
M  V30 498 C 65.6596 8.05808 -1.51899 0
M  V30 499 O 66.0496 8.74358 -0.335205 0
M  V30 500 C 66.5396 6.83093 -1.70294 0
M  V30 501 C 65.8296 5.79992 -0.836974 0
M  V30 502 N 65.8796 4.41864 -1.38293 0
M  V30 503 C 65.7996 3.99538 -2.69438 0
M  V30 504 N 65.8796 2.69909 -2.84277 0
M  V30 505 C 66.0196 2.21719 -1.5408 0
M  V30 506 C 66.1496 0.891712 -1.06628 0
M  V30 507 O 66.1696 -0.161298 -1.70137 0
M  V30 508 N 66.2696 0.856846 0.334985 0
M  V30 509 C 66.2696 1.9641 1.15789 0
M  V30 510 N 66.3996 1.72708 2.46522 0
M  V30 511 N 66.1396 3.21165 0.713741 0
M  V30 512 C 66.0196 3.26797 -0.639748 0
M  V30 513 H 63.0406 8.13644 -3.0377 0
M  V30 514 H 62.7706 6.42788 -2.55485 0
M  V30 515 H 63.6376 8.12039 -0.792769 0
M  V30 516 H 66.2926 5.80061 0.166416 0
M  V30 517 H 66.5716 6.51287 -2.75604 0
M  V30 518 H 67.5636 7.01734 -1.34462 0
M  V30 519 H 65.7296 8.73674 -2.38337 0
M  V30 520 H 65.6806 4.68207 -3.53221 0
M  V30 521 H 66.3626 -0.0398818 0.767965 0
M  V30 522 H 66.3996 2.50995 3.13503 0
M  V30 523 H 66.5006 0.759148 2.80716 0
M  V30 524 P 67.5996 8.91 -4.36464e-15 0
M  V30 525 O 67.8196 10.1726 0.733694 0
M  V30 526 O 68.3896 8.73148 -1.23936 0
M  V30 527 O 67.8496 7.66872 0.971405 0
M  V30 528 C 66.9096 7.42309 2.04641 0
M  V30 529 C 67.6396 6.86059 3.24661 0
M  V30 530 O 67.8496 5.42847 3.03646 0
M  V30 531 C 69.0396 7.41196 3.50753 0
M  V30 532 O 69.4296 7.27073 4.86816 0
M  V30 533 C 69.9196 6.5273 2.63741 0
M  V30 534 C 69.2096 5.1842 2.73198 0
M  V30 535 N 69.2596 4.38762 1.4784 0
M  V30 536 H 66.4206 8.36803 2.32493 0
M  V30 537 H 66.1506 6.70197 1.71129 0
M  V30 538 H 67.0176 7.03551 4.13168 0
M  V30 539 P 70.9796 7.20834 5.23717 0
M  V30 540 O 71.1996 7.80006 6.57415 0
M  V30 541 O 71.7696 7.79416 4.13051 0
M  V30 542 O 71.2296 5.63315 5.29344 0
M  V30 543 C 70.2896 4.80318 6.01954 0
M  V30 544 C 71.0196 3.64202 6.65911 0
M  V30 545 O 71.2296 2.60736 5.64823 0
M  V30 546 C 72.4196 3.93521 7.19518 0
M  V30 547 O 72.8096 3.02071 8.21205 0
M  V30 548 C 73.2996 3.73047 5.97036 0
M  V30 549 C 72.5896 2.58828 5.25741 0
M  V30 550 N 72.6396 2.68068 3.77503 0
M  V30 551 C 72.5596 3.80474 2.99159 0
M  V30 552 N 72.6296 3.55622 1.71925 0
M  V30 553 C 72.7796 2.1832 1.65733 0
M  V30 554 C 72.9096 1.28842 0.572777 0
M  V30 555 N 72.9196 1.66875 -0.70098 0
M  V30 556 N 73.0296 -0.016788 0.859836 0
M  V30 557 C 73.0196 -0.398145 2.13316 0
M  V30 558 N 72.8996 0.328224 3.22333 0
M  V30 559 C 72.7796 1.62992 2.90383 0
M  V30 560 H 69.8016 5.40394 6.8003 0
M  V30 561 H 69.5296 4.41741 5.32532 0
M  V30 562 H 70.3976 3.26371 7.47889 0
M  V30 563 H 73.0526 1.64007 5.56746 0
M  V30 564 H 73.3326 4.63439 5.3432 0
M  V30 565 H 74.3236 3.44776 6.25925 0
M  V30 566 H 72.4896 4.96707 7.57347 0
M  V30 567 H 72.4486 4.8089 3.39924 0
M  V30 568 H 72.8296 2.66547 -0.941919 0
M  V30 569 H 73.0186 0.965341 -1.44766 0
M  V30 570 H 73.1266 -1.46427 2.29697 0
M  V30 571 P 74.3596 2.75334 8.47391 0
M  V30 572 O 74.5796 2.44619 9.90336 0
M  V30 573 O 75.1496 3.87776 7.92294 0
M  V30 574 O 74.6096 1.4459 7.59357 0
M  V30 575 C 73.6696 0.347653 7.69315 0
M  V30 576 C 74.3996 -0.96767 7.52806 0
M  V30 577 O 74.6096 -1.21055 6.10208 0
M  V30 578 C 75.7996 -1.04557 8.13408 0
M  V30 579 O 76.1896 -2.38311 8.41922 0
M  V30 580 C 76.6796 -0.491279 7.02284 0
M  V30 581 C 75.9696 -0.996264 5.77469 0
M  V30 582 N 76.0196 -0.0501916 4.62973 0
M  V30 583 C 75.9396 1.31969 4.65661 0
M  V30 584 N 76.0096 1.86649 3.48119 0
M  V30 585 C 76.1596 0.792089 2.62406 0
M  V30 586 C 76.2896 0.705684 1.2207 0
M  V30 587 N 76.2996 1.76207 0.413762 0
M  V30 588 N 76.4096 -0.518981 0.685754 0
M  V30 589 C 76.3996 -1.57595 1.49174 0
M  V30 590 N 76.2796 -1.62909 2.80066 0
M  V30 591 C 76.1596 -0.388195 3.3073 0
M  V30 592 H 73.1816 0.374765 8.67791 0
M  V30 593 H 72.9096 0.443613 6.90476 0
M  V30 594 H 73.7776 -1.75559 7.96891 0
M  V30 595 H 76.4326 -1.94563 5.46818 0
M  V30 596 H 76.7126 0.608651 7.04676 0
M  V30 597 H 77.7036 -0.889796 7.09039 0
M  V30 598 H 75.8696 -0.433128 9.04664 0
M  V30 599 H 75.8286 1.89246 5.57664 0
M  V30 600 H 76.2096 2.71005 0.804694 0
M  V30 601 H 76.3986 1.63189 -0.603768 0
M  V30 602 H 76.5066 -2.53475 0.997614 0
M  V30 603 P 77.7395 -2.75334 8.47391 0
M  V30 604 O 77.9595 -3.84204 9.44982 0
M  V30 605 O 78.5295 -1.51982 8.68909 0
M  V30 606 O 77.9895 -3.29363 6.99321 0
M  V30 607 C 77.0495 -4.24066 6.42823 0
M  V30 608 C 77.7795 -5.20775 5.52155 0
M  V30 609 O 77.9895 -4.56607 4.22514 0
M  V30 610 C 79.1795 -5.62697 5.96604 0
M  V30 611 O 79.5695 -6.87667 5.41053 0
M  V30 612 C 80.0595 -4.52537 5.39283 0
M  V30 613 C 79.3495 -4.20027 4.08623 0
M  V30 614 N 79.3995 -2.76189 3.71603 0
M  V30 615 C 79.3195 -1.66944 4.54297 0
M  V30 616 N 79.3895 -0.536169 3.91344 0
M  V30 617 C 79.5395 -0.901569 2.58849 0
M  V30 618 C 79.6695 -0.146599 1.40236 0
M  V30 619 N 79.6795 1.18234 1.37046 0
M  V30 620 N 79.7895 -0.822941 0.249738 0
M  V30 621 C 79.7795 -2.15179 0.280525 0
M  V30 622 N 79.6595 -2.96414 1.30822 0
M  V30 623 C 79.5395 -2.25804 2.44748 0
M  V30 624 H 76.5615 -4.79756 7.24086 0
M  V30 625 H 76.2895 -3.69963 5.84682 0
M  V30 626 H 77.1575 -6.10431 5.41508 0
M  V30 627 H 79.8125 -4.78816 3.28024 0
M  V30 628 H 80.0925 -3.64957 6.05871 0
M  V30 629 H 81.0835 -4.88748 5.21323 0
M  V30 630 H 79.2495 -5.66789 7.0643 0
M  V30 631 H 79.2085 -1.74684 5.62396 0
M  V30 632 H 79.5895 1.71949 2.24394 0
M  V30 633 H 79.7785 1.67511 0.470742 0
M  V30 634 H 79.8865 -2.63704 -0.6828 0
M  V30 635 P 81.1195 -7.20834 5.23717 0
M  V30 636 O 81.3395 -8.66104 5.38572 0
M  V30 637 O 81.9095 -6.33544 6.1349 0
M  V30 638 O 81.3695 -6.7751 3.72168 0
M  V30 639 C 80.4295 -7.20825 2.7076 0
M  V30 640 C 81.1595 -7.45864 1.40599 0
M  V30 641 O 81.3695 -6.17651 0.734225 0
M  V30 642 C 82.5595 -8.05808 1.51899 0
M  V30 643 O 82.9495 -8.74358 0.335205 0
M  V30 644 C 83.4395 -6.83093 1.70294 0
M  V30 645 C 82.7295 -5.79992 0.836974 0
M  V30 646 N 82.7795 -4.41864 1.38293 0
M  V30 647 H 79.9405 -8.13644 3.0377 0
M  V30 648 H 79.6705 -6.42788 2.55485 0
M  V30 649 H 80.5375 -8.12039 0.792769 0
M  V30 650 P 84.4995 -8.91 5.4558e-15 0
M  V30 651 O 84.7195 -10.1726 -0.733694 0
M  V30 652 O 85.2895 -8.73148 1.23936 0
M  V30 653 O 84.7495 -7.66872 -0.971405 0
M  V30 654 C 83.8095 -7.42309 -2.04641 0
M  V30 655 C 84.5395 -6.86059 -3.24661 0
M  V30 656 O 84.7495 -5.42847 -3.03646 0
M  V30 657 C 85.9395 -7.41196 -3.50753 0
M  V30 658 O 86.3295 -7.27073 -4.86816 0
M  V30 659 C 86.8195 -6.5273 -2.63741 0
M  V30 660 C 86.1095 -5.1842 -2.73198 0
M  V30 661 N 86.1595 -4.38762 -1.4784 0
M  V30 662 H 83.3205 -8.36803 -2.32493 0
M  V30 663 H 83.0505 -6.70197 -1.71129 0
M  V30 664 H 83.9175 -7.03551 -4.13168 0
M  V30 665 P 87.8795 -7.20834 -5.23717 0
M  V30 666 O 88.0995 -7.79853 -6.57286 0
M  V30 667 O 88.6695 -7.79239 -4.12957 0
M  V30 668 O 88.1295 -5.63315 -5.29344 0
M  V30 669 C 87.1895 -4.80255 -6.01876 0
M  V30 670 C 87.9195 -3.64202 -6.65911 0
M  V30 671 O 88.1295 -2.60694 -5.64732 0
M  V30 672 C 89.3195 -3.93473 -7.1943 0
M  V30 673 O 89.7095 -3.02071 -8.21205 0
M  V30 674 C 90.1995 -3.73047 -5.97036 0
M  V30 675 C 89.4895 -2.58828 -5.25741 0
M  V30 676 N 89.5395 -2.68068 -3.77503 0
M  V30 677 H 86.7005 -5.40332 -6.79951 0
M  V30 678 H 86.4305 -4.41613 -5.32378 0
M  V30 679 H 87.2975 -3.26331 -7.47797 0
M  V30 680 P 91.2595 -2.75334 -8.47391 0
M  V30 681 O 91.4795 -2.44571 -9.90142 0
M  V30 682 O 92.0495 -3.87688 -7.92115 0
M  V30 683 O 91.5095 -1.4459 -7.59357 0
M  V30 684 C 90.5695 -0.347608 -7.69215 0
M  V30 685 C 91.2995 0.96767 -7.52806 0
M  V30 686 O 91.5095 1.21036 -6.1011 0
M  V30 687 C 92.6995 1.04544 -8.13308 0
M  V30 688 O 93.0895 2.38311 -8.41922 0
M  V30 689 C 93.5795 0.491279 -7.02284 0
M  V30 690 C 92.8695 0.996264 -5.77469 0
M  V30 691 N 92.9195 0.0501916 -4.62973 0
M  V30 692 H 90.0805 -0.374722 -8.67691 0
M  V30 693 H 89.8105 -0.443485 -6.90277 0
M  V30 694 H 90.6775 1.75537 -7.96793 0
M  V30 695 P 94.6394 2.75334 -8.47391 0
M  V30 696 O 94.8594 3.84204 -9.44982 0
M  V30 697 O 95.4294 1.51982 -8.68909 0
M  V30 698 O 94.8894 3.29363 -6.99321 0
M  V30 699 C 93.9494 4.24066 -6.42823 0
M  V30 700 C 94.6794 5.20775 -5.52155 0
M  V30 701 O 94.8894 4.56607 -4.22514 0
M  V30 702 C 96.0794 5.62697 -5.96604 0
M  V30 703 O 96.4694 6.87667 -5.41053 0
M  V30 704 C 96.9594 4.52537 -5.39283 0
M  V30 705 C 96.2494 4.20027 -4.08623 0
M  V30 706 N 96.2994 2.76189 -3.71603 0
M  V30 707 C 96.2194 1.66944 -4.54297 0
M  V30 708 N 96.2894 0.536169 -3.91344 0
M  V30 709 C 96.4394 0.901569 -2.58849 0
M  V30 710 C 96.5694 0.146599 -1.40236 0
M  V30 711 N 96.5794 -1.18234 -1.37046 0
M  V30 712 N 96.6894 0.822941 -0.249738 0
M  V30 713 C 96.6794 2.15179 -0.280525 0
M  V30 714 N 96.5594 2.96414 -1.30822 0
M  V30 715 C 96.4394 2.25804 -2.44748 0
M  V30 716 H 93.4614 4.79756 -7.24086 0
M  V30 717 H 93.1894 3.69963 -5.84682 0
M  V30 718 H 94.0574 6.10431 -5.41508 0
M  V30 719 H 96.7124 4.78816 -3.28024 0
M  V30 720 H 96.9924 3.64957 -6.05871 0
M  V30 721 H 97.9834 4.88748 -5.21323 0
M  V30 722 H 96.1494 5.66789 -7.0643 0
M  V30 723 H 96.1084 1.74684 -5.62396 0
M  V30 724 H 96.4894 -1.71949 -2.24394 0
M  V30 725 H 96.6784 -1.67511 -0.470742 0
M  V30 726 H 96.7864 2.63704 0.6828 0
M  V30 727 P 98.0194 7.20834 -5.23717 0
M  V30 728 O 98.2394 8.66104 -5.38572 0
M  V30 729 O 98.8094 6.33544 -6.1349 0
M  V30 730 O 98.2694 6.7751 -3.72168 0
M  V30 731 C 97.3294 7.20825 -2.7076 0
M  V30 732 C 98.0594 7.45864 -1.40599 0
M  V30 733 O 98.2694 6.17651 -0.734225 0
M  V30 734 C 99.4594 8.05808 -1.51899 0
M  V30 735 O 99.8494 8.74358 -0.335205 0
M  V30 736 C 100.339 6.83093 -1.70294 0
M  V30 737 C 99.6294 5.79992 -0.836974 0
M  V30 738 N 99.6794 4.41864 -1.38293 0
M  V30 739 H 96.8404 8.13644 -3.0377 0
M  V30 740 H 96.5704 6.42788 -2.55485 0
M  V30 741 H 97.4374 8.12039 -0.792769 0
M  V30 742 P 101.399 8.91 -6.54696e-15 0
M  V30 743 O 101.619 10.1736 0.733766 0
M  V30 744 O 102.189 8.73247 -1.2395 0
M  V30 745 O 101.649 7.66872 0.971405 0
M  V30 746 C 100.709 7.42212 2.04614 0
M  V30 747 C 101.439 6.86059 3.24661 0
M  V30 748 O 101.649 5.42847 3.03646 0
M  V30 749 C 102.839 7.41196 3.50753 0
M  V30 750 O 103.229 7.27073 4.86816 0
M  V30 751 C 103.719 6.5273 2.63741 0
M  V30 752 C 103.009 5.1842 2.73198 0
M  V30 753 N 103.059 4.38668 1.47808 0
M  V30 754 C 103.209 3.02239 1.60048 0
M  V30 755 O 103.299 2.46459 2.67869 0
M  V30 756 N 103.249 2.32436 0.408571 0
M  V30 757 C 103.159 2.85471 -0.854993 0
M  V30 758 O 103.209 2.12566 -1.8531 0
M  V30 759 C 103.009 4.28918 -0.887335 0
M  V30 760 C 102.899 4.91066 -2.24619 0
M  V30 761 C 102.959 5.00349 0.255399 0
M  V30 762 H 100.219 8.36803 2.32493 0
M  V30 763 H 99.9504 6.701 1.71105 0
M  V30 764 H 100.817 7.03551 4.13168 0
M  V30 765 H 103.472 4.59773 3.53894 0
M  V30 766 H 103.751 6.88995 1.59871 0
M  V30 767 H 104.743 6.46749 3.03687 0
M  V30 768 H 102.909 8.46908 3.20714 0
M  V30 769 H 102.838 6.08548 0.206986 0
M  V30 770 H 103.868 5.34836 -2.53099 0
M  V30 771 H 102.131 5.69638 -2.2291 0
M  V30 772 H 102.619 4.13971 -2.98044 0
M  V30 773 H 103.355 1.33211 0.474216 0
M  V30 774 P 104.779 7.20834 5.23717 0
M  V30 775 O 104.999 7.79853 6.57286 0
M  V30 776 O 105.569 7.79239 4.12957 0
M  V30 777 O 105.029 5.63315 5.29344 0
M  V30 778 C 104.089 4.80255 6.01876 0
M  V30 779 C 104.819 3.64202 6.65911 0
M  V30 780 O 105.029 2.60694 5.64732 0
M  V30 781 C 106.219 3.93473 7.1943 0
M  V30 782 O 106.609 3.02071 8.21205 0
M  V30 783 C 107.099 3.73047 5.97036 0
M  V30 784 C 106.389 2.58828 5.25741 0
M  V30 785 N 106.439 2.68068 3.77503 0
M  V30 786 H 103.6 5.40332 6.79951 0
M  V30 787 H 103.33 4.41613 5.32378 0
M  V30 788 H 104.197 3.26331 7.47797 0
M  V30 789 P 108.159 2.75334 8.47391 0
M  V30 790 O 108.379 2.44571 9.90142 0
M  V30 791 O 108.949 3.87688 7.92115 0
M  V30 792 O 108.409 1.4459 7.59357 0
M  V30 793 C 107.469 0.347608 7.69215 0
M  V30 794 C 108.199 -0.96767 7.52806 0
M  V30 795 O 108.409 -1.21036 6.1011 0
M  V30 796 C 109.599 -1.04544 8.13308 0
M  V30 797 O 109.989 -2.38311 8.41922 0
M  V30 798 C 110.479 -0.491279 7.02284 0
M  V30 799 C 109.769 -0.996264 5.77469 0
M  V30 800 N 109.819 -0.0501916 4.62973 0
M  V30 801 H 106.98 0.374722 8.67691 0
M  V30 802 H 106.71 0.443485 6.90277 0
M  V30 803 H 107.577 -1.75537 7.96793 0
M  V30 804 P 111.539 -2.75334 8.47391 0
M  V30 805 O 111.759 -3.84128 9.44797 0
M  V30 806 O 112.329 -1.51947 8.68712 0
M  V30 807 O 111.789 -3.29363 6.99321 0
M  V30 808 C 110.849 -4.24011 6.4274 0
M  V30 809 C 111.579 -5.20775 5.52155 0
M  V30 810 O 111.789 -4.56534 4.22446 0
M  V30 811 C 112.979 -5.62629 5.96531 0
M  V30 812 O 113.369 -6.87667 5.41053 0
M  V30 813 C 113.859 -4.52537 5.39283 0
M  V30 814 C 113.149 -4.20027 4.08623 0
M  V30 815 N 113.199 -2.76189 3.71603 0
M  V30 816 H 110.36 -4.797 7.24003 0
M  V30 817 H 110.09 -3.69856 5.84513 0
M  V30 818 H 110.957 -6.10356 5.41441 0
M  V30 819 P 114.919 -7.20834 5.23717 0
M  V30 820 O 115.139 -8.66104 5.38572 0
M  V30 821 O 115.709 -6.33544 6.1349 0
M  V30 822 O 115.169 -6.7751 3.72168 0
M  V30 823 C 114.229 -7.20825 2.7076 0
M  V30 824 C 114.959 -7.45864 1.40599 0
M  V30 825 O 115.169 -6.17651 0.734225 0
M  V30 826 C 116.359 -8.05808 1.51899 0
M  V30 827 O 116.749 -8.74358 0.335205 0
M  V30 828 C 117.239 -6.83093 1.70294 0
M  V30 829 C 116.529 -5.79992 0.836974 0
M  V30 830 N 116.579 -4.41864 1.38293 0
M  V30 831 C 116.499 -3.99538 2.69438 0
M  V30 832 N 116.579 -2.69909 2.84277 0
M  V30 833 C 116.719 -2.21719 1.5408 0
M  V30 834 C 116.849 -0.891712 1.06628 0
M  V30 835 O 116.869 0.161298 1.70137 0
M  V30 836 N 116.969 -0.856846 -0.334985 0
M  V30 837 C 116.969 -1.9641 -1.15789 0
M  V30 838 N 117.099 -1.72708 -2.46522 0
M  V30 839 N 116.839 -3.21165 -0.713741 0
M  V30 840 C 116.719 -3.26797 0.639748 0
M  V30 841 H 113.74 -8.13644 3.0377 0
M  V30 842 H 113.47 -6.42788 2.55485 0
M  V30 843 H 114.337 -8.12039 0.792769 0
M  V30 844 H 116.992 -5.80061 -0.166416 0
M  V30 845 H 117.271 -6.51287 2.75604 0
M  V30 846 H 118.263 -7.01734 1.34462 0
M  V30 847 H 116.429 -8.73674 2.38337 0
M  V30 848 H 116.38 -4.68207 3.53221 0
M  V30 849 H 117.062 0.0398818 -0.767965 0
M  V30 850 H 117.099 -2.50995 -3.13503 0
M  V30 851 H 117.2 -0.759148 -2.80716 0
M  V30 852 P 118.299 -8.91 7.63812e-15 0
M  V30 853 O 118.519 -10.1746 -0.733838 0
M  V30 854 O 119.089 -8.73346 1.23964 0
M  V30 855 O 118.549 -7.66872 -0.971405 0
M  V30 856 C 117.609 -7.42405 -2.04668 0
M  V30 857 C 118.339 -6.86059 -3.24661 0
M  V30 858 O 118.549 -5.42934 -3.03695 0
M  V30 859 C 119.739 -7.41287 -3.50796 0
M  V30 860 O 120.129 -7.27073 -4.86816 0
M  V30 861 C 120.619 -6.5273 -2.63741 0
M  V30 862 C 119.909 -5.1842 -2.73198 0
M  V30 863 N 119.959 -4.38762 -1.4784 0
M  V30 864 C 119.879 -4.83651 -0.183876 0
M  V30 865 N 119.949 -3.88759 0.699393 0
M  V30 866 C 120.099 -2.7404 -0.0575568 0
M  V30 867 C 120.229 -1.37902 0.293928 0
M  V30 868 N 120.239 -0.938021 1.54797 0
M  V30 869 N 120.349 -0.491817 -0.70549 0
M  V30 870 C 120.339 -0.931735 -1.95979 0
M  V30 871 N 120.219 -2.16017 -2.41481 0
M  V30 872 C 120.099 -3.02547 -1.39121 0
M  V30 873 H 117.121 -8.36899 -2.3252 0
M  V30 874 H 116.849 -6.70391 -1.71179 0
M  V30 875 H 117.717 -7.03638 -4.13219 0
M  V30 876 H 120.372 -4.59931 -3.54016 0
M  V30 877 H 120.652 -6.88995 -1.59871 0
M  V30 878 H 121.643 -6.4684 -3.0373 0
M  V30 879 H 119.809 -8.47002 -3.20749 0
M  V30 880 H 119.768 -5.8885 0.0765548 0
M  V30 881 H 120.149 -1.60276 2.32875 0
M  V30 882 H 120.338 0.0699355 1.73859 0
M  V30 883 H 120.446 -0.165507 -2.71897 0
M  V30 884 P 121.679 -7.20834 -5.23717 0
M  V30 885 O 121.899 -7.79853 -6.57286 0
M  V30 886 O 122.469 -7.79239 -4.12957 0
M  V30 887 O 121.929 -5.63315 -5.29344 0
M  V30 888 C 120.989 -4.80255 -6.01876 0
M  V30 889 C 121.719 -3.64202 -6.65911 0
M  V30 890 O 121.929 -2.60694 -5.64732 0
M  V30 891 C 123.119 -3.93473 -7.1943 0
M  V30 892 O 123.509 -3.02071 -8.21205 0
M  V30 893 C 123.999 -3.73047 -5.97036 0
M  V30 894 C 123.289 -2.58828 -5.25741 0
M  V30 895 N 123.339 -2.68068 -3.77503 0
M  V30 896 C 123.259 -3.79715 -2.96723 0
M  V30 897 N 123.339 -3.5377 -1.68852 0
M  V30 898 C 123.479 -2.15054 -1.63254 0
M  V30 899 C 123.609 -1.28964 -0.518571 0
M  V30 900 N 123.729 0.0538097 -0.918425 0
M  V30 901 C 123.729 0.494275 -2.22578 0
M  V30 902 N 123.859 1.81086 -2.40434 0
M  V30 903 N 123.599 -0.313645 -3.27502 0
M  V30 904 C 123.479 -1.61829 -2.91033 0
M  V30 905 H 120.5 -5.40332 -6.79951 0
M  V30 906 H 120.23 -4.41613 -5.32378 0
M  V30 907 H 121.097 -3.26331 -7.47797 0
M  V30 908 P 125.059 -2.75334 -8.47391 0
M  V30 909 O 125.279 -2.44571 -9.90142 0
M  V30 910 O 125.849 -3.87688 -7.92115 0
M  V30 911 O 125.309 -1.4459 -7.59357 0
M  V30 912 C 124.369 -0.347608 -7.69215 0
M  V30 913 C 125.099 0.96767 -7.52806 0
M  V30 914 O 125.309 1.21036 -6.1011 0
M  V30 915 C 126.499 1.04544 -8.13308 0
M  V30 916 O 126.889 2.38311 -8.41922 0
M  V30 917 C 127.379 0.491279 -7.02284 0
M  V30 918 C 126.669 0.996264 -5.77469 0
M  V30 919 N 126.719 0.0501916 -4.62973 0
M  V30 920 H 123.88 -0.374722 -8.67691 0
M  V30 921 H 123.61 -0.443485 -6.90277 0
M  V30 922 H 124.477 1.75537 -7.96793 0
M  V30 923 P 128.439 2.75334 -8.47391 0
M  V30 924 O 128.659 3.84128 -9.44797 0
M  V30 925 O 129.229 1.51947 -8.68712 0
M  V30 926 O 128.689 3.29363 -6.99321 0
M  V30 927 C 127.749 4.24011 -6.4274 0
M  V30 928 C 128.479 5.20775 -5.52155 0
M  V30 929 O 128.689 4.56534 -4.22446 0
M  V30 930 C 129.879 5.62629 -5.96531 0
M  V30 931 O 130.269 6.87667 -5.41053 0
M  V30 932 C 130.759 4.52537 -5.39283 0
M  V30 933 C 130.049 4.20027 -4.08623 0
M  V30 934 N 130.099 2.76189 -3.71603 0
M  V30 935 H 127.26 4.797 -7.24003 0
M  V30 936 H 126.99 3.69856 -5.84513 0
M  V30 937 H 127.857 6.10356 -5.41441 0
M  V30 938 P 131.819 7.20834 -5.23717 0
M  V30 939 O 132.039 8.66104 -5.38572 0
M  V30 940 O 132.609 6.33544 -6.1349 0
M  V30 941 O 132.069 6.7751 -3.72168 0
M  V30 942 C 131.129 7.20825 -2.7076 0
M  V30 943 C 131.859 7.45864 -1.40599 0
M  V30 944 O 132.069 6.17651 -0.734225 0
M  V30 945 C 133.259 8.05808 -1.51899 0
M  V30 946 O 133.649 8.74358 -0.335205 0
M  V30 947 C 134.139 6.83093 -1.70294 0
M  V30 948 C 133.429 5.79992 -0.836974 0
M  V30 949 N 133.479 4.41864 -1.38293 0
M  V30 950 C 133.399 3.99538 -2.69438 0
M  V30 951 N 133.479 2.69909 -2.84277 0
M  V30 952 C 133.619 2.21719 -1.5408 0
M  V30 953 C 133.749 0.891712 -1.06628 0
M  V30 954 N 133.869 0.856846 0.334985 0
M  V30 955 C 133.869 1.9641 1.15789 0
M  V30 956 N 133.999 1.72708 2.46522 0
M  V30 957 N 133.739 3.21165 0.713741 0
M  V30 958 C 133.619 3.26797 -0.639748 0
M  V30 959 H 130.64 8.13644 -3.0377 0
M  V30 960 H 130.37 6.42788 -2.55485 0
M  V30 961 H 131.237 8.12039 -0.792769 0
M  V30 962 P 135.199 8.91 -8.72928e-15 0
M  V30 963 O 135.419 10.1726 0.733694 0
M  V30 964 O 135.989 8.73148 -1.23936 0
M  V30 965 O 135.449 7.66872 0.971405 0
M  V30 966 C 134.509 7.42309 2.04641 0
M  V30 967 C 135.239 6.86059 3.24661 0
M  V30 968 O 135.449 5.42847 3.03646 0
M  V30 969 C 136.639 7.41196 3.50753 0
M  V30 970 O 137.029 7.27073 4.86816 0
M  V30 971 C 137.519 6.5273 2.63741 0
M  V30 972 C 136.809 5.1842 2.73198 0
M  V30 973 N 136.859 4.38762 1.4784 0
M  V30 974 H 134.02 8.36803 2.32493 0
M  V30 975 H 133.75 6.70197 1.71129 0
M  V30 976 H 134.617 7.03551 4.13168 0
M  V30 977 P 138.579 7.20834 5.23717 0
M  V30 978 O 138.799 7.79853 6.57286 0
M  V30 979 O 139.369 7.79239 4.12957 0
M  V30 980 O 138.829 5.63315 5.29344 0
M  V30 981 C 137.889 4.80255 6.01876 0
M  V30 982 C 138.619 3.64202 6.65911 0
M  V30 983 O 138.829 2.60694 5.64732 0
M  V30 984 C 140.019 3.93473 7.1943 0
M  V30 985 O 140.409 3.02071 8.21205 0
M  V30 986 C 140.899 3.73047 5.97036 0
M  V30 987 C 140.189 2.58828 5.25741 0
M  V30 988 N 140.239 2.68068 3.77503 0
M  V30 989 H 137.4 5.40332 6.79951 0
M  V30 990 H 137.13 4.41613 5.32378 0
M  V30 991 H 137.997 3.26331 7.47797 0
M  V30 992 P 141.959 2.75334 8.47391 0
M  V30 993 O 142.179 2.44571 9.90142 0
M  V30 994 O 142.749 3.87688 7.92115 0
M  V30 995 O 142.209 1.4459 7.59357 0
M  V30 996 C 141.269 0.347608 7.69215 0
M  V30 997 C 141.999 -0.96767 7.52806 0
M  V30 998 O 142.209 -1.21036 6.1011 0
M  V30 999 C 143.399 -1.04544 8.13308 0
M  V30 1000 O 143.789 -2.38311 8.41922 0
M  V30 1001 C 144.279 -0.491279 7.02284 0
M  V30 1002 C 143.569 -0.996264 5.77469 0
M  V30 1003 N 143.619 -0.0501916 4.62973 0
M  V30 1004 H 140.78 0.374722 8.67691 0
M  V30 1005 H 140.51 0.443485 6.90277 0
M  V30 1006 H 141.377 -1.75537 7.96793 0
M  V30 1007 P 145.339 -2.75334 8.47391 0
M  V30 1008 O 145.559 -3.84204 9.44982 0
M  V30 1009 O 146.129 -1.51982 8.68909 0
M  V30 1010 O 145.589 -3.29363 6.99321 0
M  V30 1011 C 144.649 -4.24066 6.42823 0
M  V30 1012 C 145.379 -5.20775 5.52155 0
M  V30 1013 O 145.589 -4.56607 4.22514 0
M  V30 1014 C 146.779 -5.62697 5.96604 0
M  V30 1015 O 147.169 -6.87667 5.41053 0
M  V30 1016 C 147.659 -4.52537 5.39283 0
M  V30 1017 C 146.949 -4.20027 4.08623 0
M  V30 1018 N 146.999 -2.76189 3.71603 0
M  V30 1019 C 146.919 -1.66944 4.54297 0
M  V30 1020 N 146.989 -0.536169 3.91344 0
M  V30 1021 C 147.139 -0.901569 2.58849 0
M  V30 1022 C 147.269 -0.146599 1.40236 0
M  V30 1023 N 147.279 1.18234 1.37046 0
M  V30 1024 N 147.389 -0.822941 0.249738 0
M  V30 1025 C 147.379 -2.15179 0.280525 0
M  V30 1026 N 147.259 -2.96414 1.30822 0
M  V30 1027 C 147.139 -2.25804 2.44748 0
M  V30 1028 H 144.161 -4.79756 7.24086 0
M  V30 1029 H 143.889 -3.69963 5.84682 0
M  V30 1030 H 144.757 -6.10431 5.41508 0
M  V30 1031 H 147.412 -4.78816 3.28024 0
M  V30 1032 H 147.692 -3.64957 6.05871 0
M  V30 1033 H 148.683 -4.88748 5.21323 0
M  V30 1034 H 146.849 -5.66789 7.0643 0
M  V30 1035 H 146.808 -1.74684 5.62396 0
M  V30 1036 H 147.189 1.71949 2.24394 0
M  V30 1037 H 147.378 1.67511 0.470742 0
M  V30 1038 H 147.486 -2.63704 -0.6828 0
M  V30 1039 P 148.719 -7.20834 5.23717 0
M  V30 1040 O 148.939 -8.66104 5.38572 0
M  V30 1041 O 149.509 -6.33544 6.1349 0
M  V30 1042 O 148.969 -6.7751 3.72168 0
M  V30 1043 C 148.029 -7.20825 2.7076 0
M  V30 1044 C 148.759 -7.45864 1.40599 0
M  V30 1045 O 148.969 -6.17651 0.734225 0
M  V30 1046 C 150.159 -8.05808 1.51899 0
M  V30 1047 O 150.549 -8.74358 0.335205 0
M  V30 1048 C 151.039 -6.83093 1.70294 0
M  V30 1049 C 150.329 -5.79992 0.836974 0
M  V30 1050 N 150.379 -4.41864 1.38293 0
M  V30 1051 C 150.299 -3.99538 2.69438 0
M  V30 1052 N 150.379 -2.69909 2.84277 0
M  V30 1053 C 150.519 -2.21719 1.5408 0
M  V30 1054 C 150.649 -0.891712 1.06628 0
M  V30 1055 N 150.769 -0.856846 -0.334985 0
M  V30 1056 C 150.769 -1.9641 -1.15789 0
M  V30 1057 N 150.899 -1.72708 -2.46522 0
M  V30 1058 N 150.639 -3.21165 -0.713741 0
M  V30 1059 C 150.519 -3.26797 0.639748 0
M  V30 1060 H 147.54 -8.13644 3.0377 0
M  V30 1061 H 147.27 -6.42788 2.55485 0
M  V30 1062 H 148.137 -8.12039 0.792769 0
M  V30 1063 P 152.099 -8.91 9.82044e-15 0
M  V30 1064 O 152.319 -10.1726 -0.733694 0
M  V30 1065 O 152.889 -8.73148 1.23936 0
M  V30 1066 O 152.349 -7.66872 -0.971405 0
M  V30 1067 C 151.409 -7.42309 -2.04641 0
M  V30 1068 C 152.139 -6.86059 -3.24661 0
M  V30 1069 O 152.349 -5.42847 -3.03646 0
M  V30 1070 C 153.539 -7.41196 -3.50753 0
M  V30 1071 O 153.929 -7.27073 -4.86816 0
M  V30 1072 C 154.419 -6.5273 -2.63741 0
M  V30 1073 C 153.709 -5.1842 -2.73198 0
M  V30 1074 N 153.759 -4.38762 -1.4784 0
M  V30 1075 H 150.92 -8.36803 -2.32493 0
M  V30 1076 H 150.65 -6.70197 -1.71129 0
M  V30 1077 H 151.517 -7.03551 -4.13168 0
M  V30 1078 P 155.479 -7.20834 -5.23717 0
M  V30 1079 O 155.699 -7.79853 -6.57286 0
M  V30 1080 O 156.269 -7.79239 -4.12957 0
M  V30 1081 O 155.729 -5.63315 -5.29344 0
M  V30 1082 C 154.789 -4.80255 -6.01876 0
M  V30 1083 C 155.519 -3.64202 -6.65911 0
M  V30 1084 O 155.729 -2.60694 -5.64732 0
M  V30 1085 C 156.919 -3.93473 -7.1943 0
M  V30 1086 O 157.309 -3.02071 -8.21205 0
M  V30 1087 C 157.799 -3.73047 -5.97036 0
M  V30 1088 C 157.089 -2.58828 -5.25741 0
M  V30 1089 N 157.139 -2.68068 -3.77503 0
M  V30 1090 H 154.3 -5.40332 -6.79951 0
M  V30 1091 H 154.03 -4.41613 -5.32378 0
M  V30 1092 H 154.897 -3.26331 -7.47797 0
M  V30 1093 P 158.859 -2.75334 -8.47391 0
M  V30 1094 O 159.079 -2.44619 -9.90336 0
M  V30 1095 O 159.649 -3.87776 -7.92294 0
M  V30 1096 O 159.109 -1.4459 -7.59357 0
M  V30 1097 C 158.169 -0.347653 -7.69315 0
M  V30 1098 C 158.899 0.96767 -7.52806 0
M  V30 1099 O 159.109 1.21055 -6.10208 0
M  V30 1100 C 160.299 1.04557 -8.13408 0
M  V30 1101 O 160.689 2.38311 -8.41922 0
M  V30 1102 C 161.179 0.491279 -7.02284 0
M  V30 1103 C 160.469 0.996264 -5.77469 0
M  V30 1104 N 160.519 0.0501916 -4.62973 0
M  V30 1105 C 160.439 -1.31969 -4.65661 0
M  V30 1106 N 160.509 -1.86649 -3.48119 0
M  V30 1107 C 160.659 -0.792089 -2.62406 0
M  V30 1108 C 160.789 -0.705684 -1.2207 0
M  V30 1109 N 160.799 -1.76207 -0.413762 0
M  V30 1110 N 160.909 0.518981 -0.685754 0
M  V30 1111 C 160.899 1.57595 -1.49174 0
M  V30 1112 N 160.779 1.62909 -2.80066 0
M  V30 1113 C 160.659 0.388195 -3.3073 0
M  V30 1114 H 157.681 -0.374765 -8.67791 0
M  V30 1115 H 157.409 -0.443613 -6.90476 0
M  V30 1116 H 158.277 1.75559 -7.96891 0
M  V30 1117 H 160.932 1.94563 -5.46818 0
M  V30 1118 H 161.212 -0.608651 -7.04676 0
M  V30 1119 H 162.203 0.889796 -7.09039 0
M  V30 1120 H 160.369 0.433128 -9.04664 0
M  V30 1121 H 160.328 -1.89246 -5.57664 0
M  V30 1122 H 160.709 -2.71005 -0.804694 0
M  V30 1123 H 160.898 -1.63189 0.603768 0
M  V30 1124 H 161.006 2.53475 -0.997614 0
M  V30 1125 P 162.239 2.75334 -8.47391 0
M  V30 1126 O 162.459 3.84128 -9.44797 0
M  V30 1127 O 163.029 1.51947 -8.68712 0
M  V30 1128 O 162.489 3.29363 -6.99321 0
M  V30 1129 C 161.549 4.24011 -6.4274 0
M  V30 1130 C 162.279 5.20775 -5.52155 0
M  V30 1131 O 162.489 4.56534 -4.22446 0
M  V30 1132 C 163.679 5.62629 -5.96531 0
M  V30 1133 O 164.069 6.87667 -5.41053 0
M  V30 1134 C 164.559 4.52537 -5.39283 0
M  V30 1135 C 163.849 4.20027 -4.08623 0
M  V30 1136 N 163.899 2.76189 -3.71603 0
M  V30 1137 H 161.06 4.797 -7.24003 0
M  V30 1138 H 160.79 3.69856 -5.84513 0
M  V30 1139 H 161.657 6.10356 -5.41441 0
M  V30 1140 P 165.619 7.20834 -5.23717 0
M  V30 1141 O 165.839 8.66104 -5.38572 0
M  V30 1142 O 166.409 6.33544 -6.1349 0
M  V30 1143 O 165.869 6.7751 -3.72168 0
M  V30 1144 C 164.929 7.20825 -2.7076 0
M  V30 1145 C 165.659 7.45864 -1.40599 0
M  V30 1146 O 165.869 6.17651 -0.734225 0
M  V30 1147 C 167.059 8.05808 -1.51899 0
M  V30 1148 O 167.449 8.74358 -0.335205 0
M  V30 1149 C 167.939 6.83093 -1.70294 0
M  V30 1150 C 167.229 5.79992 -0.836974 0
M  V30 1151 N 167.279 4.41864 -1.38293 0
M  V30 1152 H 164.44 8.13644 -3.0377 0
M  V30 1153 H 164.17 6.42788 -2.55485 0
M  V30 1154 H 165.037 8.12039 -0.792769 0
M  V30 1155 P 168.999 8.91 -1.09116e-14 0
M  V30 1156 O 169.219 10.1726 0.733694 0
M  V30 1157 O 169.789 8.73148 -1.23936 0
M  V30 1158 O 169.249 7.66872 0.971405 0
M  V30 1159 C 168.309 7.42309 2.04641 0
M  V30 1160 C 169.039 6.86059 3.24661 0
M  V30 1161 O 169.249 5.42847 3.03646 0
M  V30 1162 C 170.439 7.41196 3.50753 0
M  V30 1163 O 170.829 7.27073 4.86816 0
M  V30 1164 C 171.319 6.5273 2.63741 0
M  V30 1165 C 170.609 5.1842 2.73198 0
M  V30 1166 N 170.659 4.38762 1.4784 0
M  V30 1167 H 167.82 8.36803 2.32493 0
M  V30 1168 H 167.55 6.70197 1.71129 0
M  V30 1169 H 168.417 7.03551 4.13168 0
M  V30 1170 P 172.379 7.20834 5.23717 0
M  V30 1171 O 172.599 7.80006 6.57415 0
M  V30 1172 O 173.169 7.79416 4.13051 0
M  V30 1173 O 172.629 5.63315 5.29344 0
M  V30 1174 C 171.689 4.80318 6.01954 0
M  V30 1175 C 172.419 3.64202 6.65911 0
M  V30 1176 O 172.629 2.60736 5.64823 0
M  V30 1177 C 173.819 3.93521 7.19518 0
M  V30 1178 O 174.209 3.02071 8.21205 0
M  V30 1179 C 174.699 3.73047 5.97036 0
M  V30 1180 C 173.989 2.58828 5.25741 0
M  V30 1181 N 174.039 2.68068 3.77503 0
M  V30 1182 C 173.959 3.80474 2.99159 0
M  V30 1183 N 174.029 3.55622 1.71925 0
M  V30 1184 C 174.179 2.1832 1.65733 0
M  V30 1185 C 174.309 1.28842 0.572777 0
M  V30 1186 N 174.319 1.66875 -0.70098 0
M  V30 1187 N 174.429 -0.016788 0.859836 0
M  V30 1188 C 174.419 -0.398145 2.13316 0
M  V30 1189 N 174.299 0.328224 3.22333 0
M  V30 1190 C 174.179 1.62992 2.90383 0
M  V30 1191 H 171.201 5.40394 6.8003 0
M  V30 1192 H 170.929 4.41741 5.32532 0
M  V30 1193 H 171.797 3.26371 7.47889 0
M  V30 1194 H 174.452 1.64007 5.56746 0
M  V30 1195 H 174.732 4.63439 5.3432 0
M  V30 1196 H 175.723 3.44776 6.25925 0
M  V30 1197 H 173.889 4.96707 7.57347 0
M  V30 1198 H 173.848 4.8089 3.39924 0
M  V30 1199 H 174.229 2.66547 -0.941919 0
M  V30 1200 H 174.418 0.965341 -1.44766 0
M  V30 1201 H 174.526 -1.46427 2.29697 0
M  V30 1202 P 175.759 2.75334 8.47391 0
M  V30 1203 O 175.979 2.44571 9.90142 0
M  V30 1204 O 176.549 3.87688 7.92115 0
M  V30 1205 O 176.009 1.4459 7.59357 0
M  V30 1206 C 175.069 0.347608 7.69215 0
M  V30 1207 C 175.799 -0.96767 7.52806 0
M  V30 1208 O 176.009 -1.21036 6.1011 0
M  V30 1209 C 177.199 -1.04544 8.13308 0
M  V30 1210 O 177.589 -2.38311 8.41922 0
M  V30 1211 C 178.079 -0.491279 7.02284 0
M  V30 1212 C 177.369 -0.996264 5.77469 0
M  V30 1213 N 177.419 -0.0501916 4.62973 0
M  V30 1214 H 174.58 0.374722 8.67691 0
M  V30 1215 H 174.31 0.443485 6.90277 0
M  V30 1216 H 175.177 -1.75537 7.96793 0
M  V30 1217 P 179.139 -2.75334 8.47391 0
M  V30 1218 O 179.359 -3.84128 9.44797 0
M  V30 1219 O 179.929 -1.51947 8.68712 0
M  V30 1220 O 179.389 -3.29363 6.99321 0
M  V30 1221 C 178.449 -4.24011 6.4274 0
M  V30 1222 C 179.179 -5.20775 5.52155 0
M  V30 1223 O 179.389 -4.56534 4.22446 0
M  V30 1224 C 180.579 -5.62629 5.96531 0
M  V30 1225 O 180.969 -6.87667 5.41053 0
M  V30 1226 C 181.459 -4.52537 5.39283 0
M  V30 1227 C 180.749 -4.20027 4.08623 0
M  V30 1228 N 180.799 -2.76189 3.71603 0
M  V30 1229 H 177.96 -4.797 7.24003 0
M  V30 1230 H 177.69 -3.69856 5.84513 0
M  V30 1231 H 178.557 -6.10356 5.41441 0
M  V30 1232 P 182.519 -7.20834 5.23717 0
M  V30 1233 O 182.739 -8.66104 5.38572 0
M  V30 1234 O 183.309 -6.33544 6.1349 0
M  V30 1235 O 182.769 -6.7751 3.72168 0
M  V30 1236 C 181.829 -7.20825 2.7076 0
M  V30 1237 C 182.559 -7.45864 1.40599 0
M  V30 1238 O 182.769 -6.17651 0.734225 0
M  V30 1239 C 183.959 -8.05808 1.51899 0
M  V30 1240 O 184.349 -8.74358 0.335205 0
M  V30 1241 C 184.839 -6.83093 1.70294 0
M  V30 1242 C 184.129 -5.79992 0.836974 0
M  V30 1243 N 184.179 -4.41864 1.38293 0
M  V30 1244 H 181.34 -8.13644 3.0377 0
M  V30 1245 H 181.07 -6.42788 2.55485 0
M  V30 1246 H 181.937 -8.12039 0.792769 0
M  V30 1247 P 185.899 -8.91 -8.29613e-14 0
M  V30 1248 O 186.119 -10.1726 -0.733694 0
M  V30 1249 O 186.689 -8.73148 1.23936 0
M  V30 1250 O 186.149 -7.66872 -0.971405 0
M  V30 1251 C 185.209 -7.42309 -2.04641 0
M  V30 1252 C 185.939 -6.86059 -3.24661 0
M  V30 1253 O 186.149 -5.42847 -3.03646 0
M  V30 1254 C 187.339 -7.41196 -3.50753 0
M  V30 1255 O 187.729 -7.27073 -4.86816 0
M  V30 1256 C 188.219 -6.5273 -2.63741 0
M  V30 1257 C 187.509 -5.1842 -2.73198 0
M  V30 1258 N 187.559 -4.38762 -1.4784 0
M  V30 1259 H 184.72 -8.36803 -2.32493 0
M  V30 1260 H 184.45 -6.70197 -1.71129 0
M  V30 1261 H 185.317 -7.03551 -4.13168 0
M  V30 1262 P 189.279 -7.20834 -5.23717 0
M  V30 1263 O 189.499 -7.7993 -6.57351 0
M  V30 1264 O 190.069 -7.79328 -4.13004 0
M  V30 1265 O 189.529 -5.63315 -5.29344 0
M  V30 1266 C 188.589 -4.80193 -6.01798 0
M  V30 1267 C 189.319 -3.64202 -6.65911 0
M  V30 1268 O 189.529 -2.60694 -5.64732 0
M  V30 1269 C 190.719 -3.93473 -7.1943 0
M  V30 1270 O 191.109 -3.02071 -8.21205 0
M  V30 1271 C 191.599 -3.73047 -5.97036 0
M  V30 1272 C 190.889 -2.58828 -5.25741 0
M  V30 1273 N 190.939 -2.6801 -3.77422 0
M  V30 1274 C 191.089 -1.50443 -3.07133 0
M  V30 1275 O 191.179 -0.419406 -3.61576 0
M  V30 1276 N 191.129 -1.6403 -1.69677 0
M  V30 1277 C 191.039 -2.81206 -0.986255 0
M  V30 1278 O 191.089 -2.80892 0.249754 0
M  V30 1279 C 190.889 -3.99158 -1.80325 0
M  V30 1280 C 190.779 -5.29309 -1.06921 0
M  V30 1281 C 190.839 -3.89779 -3.1476 0
M  V30 1282 H 188.099 -5.40332 -6.79951 0
M  V30 1283 H 187.83 -4.41549 -5.32301 0
M  V30 1284 H 188.697 -3.26331 -7.47797 0
M  V30 1285 H 191.352 -1.6395 -5.56554 0
M  V30 1286 H 191.631 -4.63439 -5.3432 0
M  V30 1287 H 192.623 -3.44728 -6.25838 0
M  V30 1288 H 190.789 -4.96652 -7.57263 0
M  V30 1289 H 190.718 -4.80159 -3.74441 0
M  V30 1290 H 191.748 -5.81459 -1.09608 0
M  V30 1291 H 190.011 -5.9187 -1.54487 0
M  V30 1292 H 190.499 -5.10095 -0.0220288 0
M  V30 1293 H 191.235 -0.798962 -1.16664 0
M  V30 1294 P 192.659 -2.75334 -8.47391 0
M  V30 1295 O 192.879 -2.44571 -9.90142 0
M  V30 1296 O 193.449 -3.87688 -7.92115 0
M  V30 1297 O 192.909 -1.4459 -7.59357 0
M  V30 1298 C 191.969 -0.347608 -7.69215 0
M  V30 1299 C 192.699 0.96767 -7.52806 0
M  V30 1300 O 192.909 1.21036 -6.1011 0
M  V30 1301 C 194.099 1.04544 -8.13308 0
M  V30 1302 O 194.489 2.38311 -8.41922 0
M  V30 1303 C 194.979 0.491279 -7.02284 0
M  V30 1304 C 194.269 0.996264 -5.77469 0
M  V30 1305 N 194.319 0.0501916 -4.62973 0
M  V30 1306 H 191.48 -0.374722 -8.67691 0
M  V30 1307 H 191.21 -0.443485 -6.90277 0
M  V30 1308 H 192.077 1.75537 -7.96793 0
M  V30 1309 P 196.039 2.75334 -8.47391 0
M  V30 1310 O 196.259 3.84204 -9.44982 0
M  V30 1311 O 196.829 1.51982 -8.68909 0
M  V30 1312 O 196.289 3.29363 -6.99321 0
M  V30 1313 C 195.349 4.24066 -6.42823 0
M  V30 1314 C 196.079 5.20775 -5.52155 0
M  V30 1315 O 196.289 4.56607 -4.22514 0
M  V30 1316 C 197.479 5.62697 -5.96604 0
M  V30 1317 O 197.869 6.87667 -5.41053 0
M  V30 1318 C 198.359 4.52537 -5.39283 0
M  V30 1319 C 197.649 4.20027 -4.08623 0
M  V30 1320 N 197.699 2.76189 -3.71603 0
M  V30 1321 C 197.619 1.66944 -4.54297 0
M  V30 1322 N 197.689 0.536169 -3.91344 0
M  V30 1323 C 197.839 0.901569 -2.58849 0
M  V30 1324 C 197.969 0.146599 -1.40236 0
M  V30 1325 N 197.979 -1.18234 -1.37046 0
M  V30 1326 N 198.089 0.822941 -0.249738 0
M  V30 1327 C 198.079 2.15179 -0.280525 0
M  V30 1328 N 197.959 2.96414 -1.30822 0
M  V30 1329 C 197.839 2.25804 -2.44748 0
M  V30 1330 H 194.861 4.79756 -7.24086 0
M  V30 1331 H 194.589 3.69963 -5.84682 0
M  V30 1332 H 195.457 6.10431 -5.41508 0
M  V30 1333 H 198.112 4.78816 -3.28024 0
M  V30 1334 H 198.392 3.64957 -6.05871 0
M  V30 1335 H 199.383 4.88748 -5.21323 0
M  V30 1336 H 197.549 5.66789 -7.0643 0
M  V30 1337 H 197.508 1.74684 -5.62396 0
M  V30 1338 H 197.889 -1.71949 -2.24394 0
M  V30 1339 H 198.078 -1.67511 -0.470742 0
M  V30 1340 H 198.186 2.63704 0.6828 0
M  V30 1341 P 199.419 7.20834 -5.23717 0
M  V30 1342 O 199.639 8.66104 -5.38572 0
M  V30 1343 O 200.209 6.33544 -6.1349 0
M  V30 1344 O 199.669 6.7751 -3.72168 0
M  V30 1345 C 198.729 7.20825 -2.7076 0
M  V30 1346 C 199.459 7.45864 -1.40599 0
M  V30 1347 O 199.669 6.17651 -0.734225 0
M  V30 1348 C 200.859 8.05808 -1.51899 0
M  V30 1349 O 201.249 8.74358 -0.335205 0
M  V30 1350 C 201.739 6.83093 -1.70294 0
M  V30 1351 C 201.029 5.79992 -0.836974 0
M  V30 1352 N 201.079 4.41864 -1.38293 0
M  V30 1353 C 200.999 3.99538 -2.69438 0
M  V30 1354 N 201.079 2.69909 -2.84277 0
M  V30 1355 C 201.219 2.21719 -1.5408 0
M  V30 1356 C 201.349 0.891712 -1.06628 0
M  V30 1357 O 201.369 -0.161298 -1.70137 0
M  V30 1358 N 201.469 0.856846 0.334985 0
M  V30 1359 C 201.469 1.9641 1.15789 0
M  V30 1360 N 201.599 1.72708 2.46522 0
M  V30 1361 N 201.339 3.21165 0.713741 0
M  V30 1362 C 201.219 3.26797 -0.639748 0
M  V30 1363 H 198.24 8.13644 -3.0377 0
M  V30 1364 H 197.97 6.42788 -2.55485 0
M  V30 1365 H 198.837 8.12039 -0.792769 0
M  V30 1366 H 201.492 5.80061 0.166416 0
M  V30 1367 H 201.771 6.51287 -2.75604 0
M  V30 1368 H 202.763 7.01734 -1.34462 0
M  V30 1369 H 200.929 8.73674 -2.38337 0
M  V30 1370 H 200.88 4.68207 -3.53221 0
M  V30 1371 H 201.562 -0.0398818 0.767965 0
M  V30 1372 H 201.599 2.50995 3.13503 0
M  V30 1373 H 201.7 0.759148 2.80716 0
M  V30 1374 P 202.799 8.91 2.40144e-13 0
M  V30 1375 O 203.019 10.1726 0.733694 0
M  V30 1376 O 203.589 8.73148 -1.23936 0
M  V30 1377 O 203.049 7.66872 0.971405 0
M  V30 1378 C 202.109 7.42309 2.04641 0
M  V30 1379 C 202.839 6.86059 3.24661 0
M  V30 1380 O 203.049 5.42847 3.03646 0
M  V30 1381 C 204.239 7.41196 3.50753 0
M  V30 1382 O 204.629 7.27073 4.86816 0
M  V30 1383 C 205.119 6.5273 2.63741 0
M  V30 1384 C 204.409 5.1842 2.73198 0
M  V30 1385 N 204.459 4.38762 1.4784 0
M  V30 1386 H 201.62 8.36803 2.32493 0
M  V30 1387 H 201.35 6.70197 1.71129 0
M  V30 1388 H 202.217 7.03551 4.13168 0
M  V30 1389 P 206.179 7.20834 5.23717 0
M  V30 1390 O 206.399 7.79853 6.57286 0
M  V30 1391 O 206.969 7.79239 4.12957 0
M  V30 1392 O 206.429 5.63315 5.29344 0
M  V30 1393 C 205.489 4.80255 6.01876 0
M  V30 1394 C 206.219 3.64202 6.65911 0
M  V30 1395 O 206.429 2.60694 5.64732 0
M  V30 1396 C 207.619 3.93473 7.1943 0
M  V30 1397 O 208.009 3.02071 8.21205 0
M  V30 1398 C 208.499 3.73047 5.97036 0
M  V30 1399 C 207.789 2.58828 5.25741 0
M  V30 1400 N 207.839 2.68068 3.77503 0
M  V30 1401 H 205 5.40332 6.79951 0
M  V30 1402 H 204.73 4.41613 5.32378 0
M  V30 1403 H 205.597 3.26331 7.47797 0
M  V30 1404 P 209.559 2.75334 8.47391 0
M  V30 1405 O 209.779 2.44619 9.90336 0
M  V30 1406 O 210.349 3.87776 7.92294 0
M  V30 1407 O 209.809 1.4459 7.59357 0
M  V30 1408 C 208.869 0.347653 7.69315 0
M  V30 1409 C 209.599 -0.96767 7.52806 0
M  V30 1410 O 209.809 -1.21055 6.10208 0
M  V30 1411 C 210.999 -1.04557 8.13408 0
M  V30 1412 O 211.389 -2.38311 8.41922 0
M  V30 1413 C 211.879 -0.491279 7.02284 0
M  V30 1414 C 211.169 -0.996264 5.77469 0
M  V30 1415 N 211.219 -0.0501916 4.62973 0
M  V30 1416 C 211.139 1.31969 4.65661 0
M  V30 1417 N 211.209 1.86649 3.48119 0
M  V30 1418 C 211.359 0.792089 2.62406 0
M  V30 1419 C 211.489 0.705684 1.2207 0
M  V30 1420 N 211.499 1.76207 0.413762 0
M  V30 1421 N 211.609 -0.518981 0.685754 0
M  V30 1422 C 211.599 -1.57595 1.49174 0
M  V30 1423 N 211.479 -1.62909 2.80066 0
M  V30 1424 C 211.359 -0.388195 3.3073 0
M  V30 1425 H 208.381 0.374765 8.67791 0
M  V30 1426 H 208.109 0.443613 6.90476 0
M  V30 1427 H 208.977 -1.75559 7.96891 0
M  V30 1428 H 211.632 -1.94563 5.46818 0
M  V30 1429 H 211.912 0.608651 7.04676 0
M  V30 1430 H 212.903 -0.889796 7.09039 0
M  V30 1431 H 211.069 -0.433128 9.04664 0
M  V30 1432 H 211.028 1.89246 5.57664 0
M  V30 1433 H 211.409 2.71005 0.804694 0
M  V30 1434 H 211.598 1.63189 -0.603768 0
M  V30 1435 H 211.706 -2.53475 0.997614 0
M  V30 1436 P 212.939 -2.75334 8.47391 0
M  V30 1437 O 213.159 -3.84128 9.44797 0
M  V30 1438 O 213.729 -1.51947 8.68712 0
M  V30 1439 O 213.189 -3.29363 6.99321 0
M  V30 1440 C 212.249 -4.24011 6.4274 0
M  V30 1441 C 212.979 -5.20775 5.52155 0
M  V30 1442 O 213.189 -4.56534 4.22446 0
M  V30 1443 C 214.379 -5.62629 5.96531 0
M  V30 1444 O 214.769 -6.87667 5.41053 0
M  V30 1445 C 215.259 -4.52537 5.39283 0
M  V30 1446 C 214.549 -4.20027 4.08623 0
M  V30 1447 N 214.599 -2.76189 3.71603 0
M  V30 1448 H 211.76 -4.797 7.24003 0
M  V30 1449 H 211.49 -3.69856 5.84513 0
M  V30 1450 H 212.357 -6.10356 5.41441 0
M  V30 1451 P 216.319 -7.20834 5.23717 0
M  V30 1452 O 216.539 -8.66104 5.38572 0
M  V30 1453 O 217.109 -6.33544 6.1349 0
M  V30 1454 O 216.569 -6.7751 3.72168 0
M  V30 1455 C 215.629 -7.20825 2.7076 0
M  V30 1456 C 216.359 -7.45864 1.40599 0
M  V30 1457 O 216.569 -6.17651 0.734225 0
M  V30 1458 C 217.759 -8.05808 1.51899 0
M  V30 1459 O 218.149 -8.74358 0.335205 0
M  V30 1460 C 218.639 -6.83093 1.70294 0
M  V30 1461 C 217.929 -5.79992 0.836974 0
M  V30 1462 N 217.979 -4.41864 1.38293 0
M  V30 1463 H 215.14 -8.13644 3.0377 0
M  V30 1464 H 214.87 -6.42788 2.55485 0
M  V30 1465 H 215.737 -8.12039 0.792769 0
M  V30 1466 P 219.699 -8.91 -3.97326e-13 0
M  V30 1467 O 219.919 -10.1726 -0.733694 0
M  V30 1468 O 220.489 -8.73148 1.23936 0
M  V30 1469 O 219.949 -7.66872 -0.971405 0
M  V30 1470 C 219.009 -7.42309 -2.04641 0
M  V30 1471 C 219.739 -6.86059 -3.24661 0
M  V30 1472 O 219.949 -5.42847 -3.03646 0
M  V30 1473 C 221.139 -7.41196 -3.50753 0
M  V30 1474 O 221.529 -7.27073 -4.86816 0
M  V30 1475 C 222.019 -6.5273 -2.63741 0
M  V30 1476 C 221.309 -5.1842 -2.73198 0
M  V30 1477 N 221.359 -4.38762 -1.4784 0
M  V30 1478 H 218.52 -8.36803 -2.32493 0
M  V30 1479 H 218.25 -6.70197 -1.71129 0
M  V30 1480 H 219.117 -7.03551 -4.13168 0
M  V30 1481 P 223.079 -7.20834 -5.23717 0
M  V30 1482 O 223.299 -7.79853 -6.57286 0
M  V30 1483 O 223.869 -7.79239 -4.12957 0
M  V30 1484 O 223.329 -5.63315 -5.29344 0
M  V30 1485 C 222.389 -4.80255 -6.01876 0
M  V30 1486 C 223.119 -3.64202 -6.65911 0
M  V30 1487 O 223.329 -2.60694 -5.64732 0
M  V30 1488 C 224.519 -3.93473 -7.1943 0
M  V30 1489 O 224.909 -3.02071 -8.21205 0
M  V30 1490 C 225.399 -3.73047 -5.97036 0
M  V30 1491 C 224.689 -2.58828 -5.25741 0
M  V30 1492 N 224.739 -2.68068 -3.77503 0
M  V30 1493 H 221.9 -5.40332 -6.79951 0
M  V30 1494 H 221.63 -4.41613 -5.32378 0
M  V30 1495 H 222.497 -3.26331 -7.47797 0
M  V30 1496 P 226.459 -2.75334 -8.47391 0
M  V30 1497 O 226.679 -2.44619 -9.90336 0
M  V30 1498 O 227.249 -3.87776 -7.92294 0
M  V30 1499 O 226.709 -1.4459 -7.59357 0
M  V30 1500 C 225.769 -0.347653 -7.69315 0
M  V30 1501 C 226.499 0.96767 -7.52806 0
M  V30 1502 O 226.709 1.21055 -6.10208 0
M  V30 1503 C 227.899 1.04557 -8.13408 0
M  V30 1504 O 228.289 2.38311 -8.41922 0
M  V30 1505 C 228.779 0.491279 -7.02284 0
M  V30 1506 C 228.069 0.996264 -5.77469 0
M  V30 1507 N 228.119 0.0501916 -4.62973 0
M  V30 1508 C 228.039 -1.31969 -4.65661 0
M  V30 1509 N 228.109 -1.86649 -3.48119 0
M  V30 1510 C 228.259 -0.792089 -2.62406 0
M  V30 1511 C 228.389 -0.705684 -1.2207 0
M  V30 1512 N 228.399 -1.76207 -0.413762 0
M  V30 1513 N 228.509 0.518981 -0.685754 0
M  V30 1514 C 228.499 1.57595 -1.49174 0
M  V30 1515 N 228.379 1.62909 -2.80066 0
M  V30 1516 C 228.259 0.388195 -3.3073 0
M  V30 1517 H 225.281 -0.374765 -8.67791 0
M  V30 1518 H 225.009 -0.443613 -6.90476 0
M  V30 1519 H 225.877 1.75559 -7.96891 0
M  V30 1520 H 228.532 1.94563 -5.46818 0
M  V30 1521 H 228.812 -0.608651 -7.04676 0
M  V30 1522 H 229.803 0.889796 -7.09039 0
M  V30 1523 H 227.969 0.433128 -9.04664 0
M  V30 1524 H 227.928 -1.89246 -5.57664 0
M  V30 1525 H 228.309 -2.71005 -0.804694 0
M  V30 1526 H 228.498 -1.63189 0.603768 0
M  V30 1527 H 228.606 2.53475 -0.997614 0
M  V30 1528 P 229.839 2.75334 -8.47391 0
M  V30 1529 O 230.059 3.84128 -9.44797 0
M  V30 1530 O 230.629 1.51947 -8.68712 0
M  V30 1531 O 230.089 3.29363 -6.99321 0
M  V30 1532 C 229.149 4.24011 -6.4274 0
M  V30 1533 C 229.879 5.20775 -5.52155 0
M  V30 1534 O 230.089 4.56534 -4.22446 0
M  V30 1535 C 231.279 5.62629 -5.96531 0
M  V30 1536 O 231.669 6.87667 -5.41053 0
M  V30 1537 C 232.159 4.52537 -5.39283 0
M  V30 1538 C 231.449 4.20027 -4.08623 0
M  V30 1539 N 231.499 2.76189 -3.71603 0
M  V30 1540 C 231.419 1.64862 -4.52822 0
M  V30 1541 N 231.499 0.512671 -3.88633 0
M  V30 1542 C 231.639 0.888083 -2.54977 0
M  V30 1543 C 231.769 0.094668 -1.38677 0
M  V30 1544 N 231.889 0.890102 -0.232633 0
M  V30 1545 C 231.889 2.26958 -0.21772 0
M  V30 1546 N 232.019 2.84626 0.97925 0
M  V30 1547 N 231.759 3.0178 -1.31033 0
M  V30 1548 C 231.639 2.26781 -2.43843 0
M  V30 1549 H 228.66 4.797 -7.24003 0
M  V30 1550 H 228.39 3.69856 -5.84513 0
M  V30 1551 H 229.257 6.10356 -5.41441 0
M  V30 1552 P 233.219 7.20834 -5.23717 0
M  V30 1553 O 233.439 8.66274 -5.38678 0
M  V30 1554 O 234.009 6.33687 -6.13629 0
M  V30 1555 O 233.469 6.7751 -3.72168 0
M  V30 1556 C 232.529 7.20919 -2.70795 0
M  V30 1557 C 233.259 7.45864 -1.40599 0
M  V30 1558 O 233.469 6.17751 -0.734343 0
M  V30 1559 C 234.659 8.05906 -1.51917 0
M  V30 1560 O 235.049 8.74358 -0.335205 0
M  V30 1561 C 235.539 6.83093 -1.70294 0
M  V30 1562 C 234.829 5.79992 -0.836974 0
M  V30 1563 N 234.879 4.41864 -1.38293 0
M  V30 1564 C 234.799 4.02089 -2.69407 0
M  V30 1565 N 234.869 2.73403 -2.85089 0
M  V30 1566 C 235.019 2.25086 -1.5642 0
M  V30 1567 C 235.149 0.942887 -1.04836 0
M  V30 1568 N 235.159 -0.150999 -1.80369 0
M  V30 1569 N 235.269 0.812565 0.28167 0
M  V30 1570 C 235.259 1.90572 1.03784 0
M  V30 1571 N 235.139 3.167 0.683905 0
M  V30 1572 C 235.019 3.26538 -0.652815 0
M  V30 1573 H 232.041 8.13738 -3.03804 0
M  V30 1574 H 231.769 6.42974 -2.55559 0
M  V30 1575 H 232.637 8.12139 -0.792866 0
M  V30 1576 H 235.292 5.80178 0.160643 0
M  V30 1577 H 235.572 6.51379 -2.75643 0
M  V30 1578 H 236.563 7.01832 -1.3448 0
M  V30 1579 H 234.729 8.73771 -2.38364 0
M  V30 1580 H 234.688 4.7189 -3.52311 0
M  V30 1581 H 235.069 -0.0721434 -2.82608 0
M  V30 1582 H 235.258 -1.0785 -1.36544 0
M  V30 1583 H 235.366 1.73207 2.10241 0
M  V30 1584 P 236.599 8.91 5.54508e-13 0
M  V30 1585 O 236.819 10.1746 0.733838 0
M  V30 1586 O 237.389 8.73346 -1.23964 0
M  V30 1587 O 236.849 7.66872 0.971405 0
M  V30 1588 C 235.909 7.42405 2.04668 0
M  V30 1589 C 236.639 6.86059 3.24661 0
M  V30 1590 O 236.849 5.42934 3.03695 0
M  V30 1591 C 238.039 7.41287 3.50796 0
M  V30 1592 O 238.429 7.27073 4.86816 0
M  V30 1593 C 238.919 6.5273 2.63741 0
M  V30 1594 C 238.209 5.1842 2.73198 0
M  V30 1595 N 238.259 4.38762 1.4784 0
M  V30 1596 C 238.179 4.83651 0.183876 0
M  V30 1597 N 238.249 3.88759 -0.699393 0
M  V30 1598 C 238.399 2.7404 0.0575568 0
M  V30 1599 C 238.529 1.37902 -0.293928 0
M  V30 1600 N 238.539 0.938021 -1.54797 0
M  V30 1601 N 238.649 0.491817 0.70549 0
M  V30 1602 C 238.639 0.931735 1.95979 0
M  V30 1603 N 238.519 2.16017 2.41481 0
M  V30 1604 C 238.399 3.02547 1.39121 0
M  V30 1605 H 235.421 8.36899 2.3252 0
M  V30 1606 H 235.149 6.70391 1.71179 0
M  V30 1607 H 236.017 7.03638 4.13219 0
M  V30 1608 H 238.672 4.59931 3.54016 0
M  V30 1609 H 238.952 6.88995 1.59871 0
M  V30 1610 H 239.943 6.4684 3.0373 0
M  V30 1611 H 238.109 8.47002 3.20749 0
M  V30 1612 H 238.068 5.8885 -0.0765548 0
M  V30 1613 H 238.449 1.60276 -2.32875 0
M  V30 1614 H 238.638 -0.0699355 -1.73859 0
M  V30 1615 H 238.746 0.165507 2.71897 0
M  V30 1616 P 239.979 7.20834 5.23717 0
M  V30 1617 O 240.199 7.79853 6.57286 0
M  V30 1618 O 240.769 7.79239 4.12957 0
M  V30 1619 O 240.229 5.63315 5.29344 0
M  V30 1620 C 239.289 4.80255 6.01876 0
M  V30 1621 C 240.019 3.64202 6.65911 0
M  V30 1622 O 240.229 2.60694 5.64732 0
M  V30 1623 C 241.419 3.93473 7.1943 0
M  V30 1624 O 241.809 3.02071 8.21205 0
M  V30 1625 C 242.299 3.73047 5.97036 0
M  V30 1626 C 241.589 2.58828 5.25741 0
M  V30 1627 N 241.639 2.68068 3.77503 0
M  V30 1628 H 238.8 5.40332 6.79951 0
M  V30 1629 H 238.53 4.41613 5.32378 0
M  V30 1630 H 239.397 3.26331 7.47797 0
M  V30 1631 P 243.359 2.75334 8.47391 0
M  V30 1632 O 243.579 2.44571 9.90142 0
M  V30 1633 O 244.149 3.87688 7.92115 0
M  V30 1634 O 243.609 1.4459 7.59357 0
M  V30 1635 C 242.669 0.347608 7.69215 0
M  V30 1636 C 243.399 -0.96767 7.52806 0
M  V30 1637 O 243.609 -1.21036 6.1011 0
M  V30 1638 C 244.799 -1.04544 8.13308 0
M  V30 1639 O 245.189 -2.38311 8.41922 0
M  V30 1640 C 245.679 -0.491279 7.02284 0
M  V30 1641 C 244.969 -0.996264 5.77469 0
M  V30 1642 N 245.019 -0.0501916 4.62973 0
M  V30 1643 H 242.18 0.374722 8.67691 0
M  V30 1644 H 241.91 0.443485 6.90277 0
M  V30 1645 H 242.777 -1.75537 7.96793 0
M  V30 1646 P 246.739 -2.75334 8.47391 0
M  V30 1647 O 246.959 -3.84128 9.44797 0
M  V30 1648 O 247.529 -1.51947 8.68712 0
M  V30 1649 O 246.989 -3.29363 6.99321 0
M  V30 1650 C 246.049 -4.24011 6.4274 0
M  V30 1651 C 246.779 -5.20775 5.52155 0
M  V30 1652 O 246.989 -4.56534 4.22446 0
M  V30 1653 C 248.179 -5.62629 5.96531 0
M  V30 1654 O 248.569 -6.87667 5.41053 0
M  V30 1655 C 249.059 -4.52537 5.39283 0
M  V30 1656 C 248.349 -4.20027 4.08623 0
M  V30 1657 N 248.399 -2.76189 3.71603 0
M  V30 1658 H 245.56 -4.797 7.24003 0
M  V30 1659 H 245.29 -3.69856 5.84513 0
M  V30 1660 H 246.157 -6.10356 5.41441 0
M  V30 1661 P 250.119 -7.20834 5.23717 0
M  V30 1662 O 250.339 -8.66104 5.38572 0
M  V30 1663 O 250.909 -6.33544 6.1349 0
M  V30 1664 O 250.369 -6.7751 3.72168 0
M  V30 1665 C 249.429 -7.20825 2.7076 0
M  V30 1666 C 250.159 -7.45864 1.40599 0
M  V30 1667 O 250.369 -6.17651 0.734225 0
M  V30 1668 C 251.559 -8.05808 1.51899 0
M  V30 1669 O 251.949 -8.74358 0.335205 0
M  V30 1670 C 252.439 -6.83093 1.70294 0
M  V30 1671 C 251.729 -5.79992 0.836974 0
M  V30 1672 N 251.779 -4.41864 1.38293 0
M  V30 1673 H 248.94 -8.13644 3.0377 0
M  V30 1674 H 248.67 -6.42788 2.55485 0
M  V30 1675 H 249.537 -8.12039 0.792769 0
M  V30 1676 P 253.498 -8.91 -7.1169e-13 0
M  V30 1677 O 253.718 -10.1726 -0.733694 0
M  V30 1678 O 254.288 -8.73148 1.23936 0
M  V30 1679 O 253.748 -7.66872 -0.971405 0
M  V30 1680 C 252.808 -7.42309 -2.04641 0
M  V30 1681 C 253.538 -6.86059 -3.24661 0
M  V30 1682 O 253.748 -5.42847 -3.03646 0
M  V30 1683 C 254.938 -7.41196 -3.50753 0
M  V30 1684 O 255.328 -7.27073 -4.86816 0
M  V30 1685 C 255.818 -6.5273 -2.63741 0
M  V30 1686 C 255.108 -5.1842 -2.73198 0
M  V30 1687 N 255.158 -4.38762 -1.4784 0
M  V30 1688 H 252.319 -8.36803 -2.32493 0
M  V30 1689 H 252.049 -6.70197 -1.71129 0
M  V30 1690 H 252.916 -7.03551 -4.13168 0
M  V30 1691 P 256.878 -7.20834 -5.23717 0
M  V30 1692 O 257.098 -7.7993 -6.57351 0
M  V30 1693 O 257.668 -7.79328 -4.13004 0
M  V30 1694 O 257.128 -5.63315 -5.29344 0
M  V30 1695 C 256.188 -4.80193 -6.01798 0
M  V30 1696 C 256.918 -3.64202 -6.65911 0
M  V30 1697 O 257.128 -2.60694 -5.64732 0
M  V30 1698 C 258.318 -3.93473 -7.1943 0
M  V30 1699 O 258.708 -3.02071 -8.21205 0
M  V30 1700 C 259.198 -3.73047 -5.97036 0
M  V30 1701 C 258.488 -2.58828 -5.25741 0
M  V30 1702 N 258.538 -2.6801 -3.77422 0
M  V30 1703 C 258.688 -1.50443 -3.07133 0
M  V30 1704 O 258.778 -0.419406 -3.61576 0
M  V30 1705 N 258.728 -1.6403 -1.69677 0
M  V30 1706 C 258.638 -2.81206 -0.986255 0
M  V30 1707 O 258.688 -2.80892 0.249754 0
M  V30 1708 C 258.488 -3.99158 -1.80325 0
M  V30 1709 C 258.378 -5.29309 -1.06921 0
M  V30 1710 C 258.438 -3.89779 -3.1476 0
M  V30 1711 H 255.698 -5.40332 -6.79951 0
M  V30 1712 H 255.429 -4.41549 -5.32301 0
M  V30 1713 H 256.296 -3.26331 -7.47797 0
M  V30 1714 H 258.951 -1.6395 -5.56554 0
M  V30 1715 H 259.23 -4.63439 -5.3432 0
M  V30 1716 H 260.222 -3.44728 -6.25838 0
M  V30 1717 H 258.388 -4.96652 -7.57263 0
M  V30 1718 H 258.317 -4.80159 -3.74441 0
M  V30 1719 H 259.347 -5.81459 -1.09608 0
M  V30 1720 H 257.61 -5.9187 -1.54487 0
M  V30 1721 H 258.098 -5.10095 -0.0220288 0
M  V30 1722 H 258.834 -0.798962 -1.16664 0
M  V30 1723 P 260.258 -2.75334 -8.47391 0
M  V30 1724 O 260.478 -2.44571 -9.90142 0
M  V30 1725 O 261.048 -3.87688 -7.92115 0
M  V30 1726 O 260.508 -1.4459 -7.59357 0
M  V30 1727 C 259.568 -0.347608 -7.69215 0
M  V30 1728 C 260.298 0.96767 -7.52806 0
M  V30 1729 O 260.508 1.21036 -6.1011 0
M  V30 1730 C 261.698 1.04544 -8.13308 0
M  V30 1731 O 262.088 2.38311 -8.41922 0
M  V30 1732 C 262.578 0.491279 -7.02284 0
M  V30 1733 C 261.868 0.996264 -5.77469 0
M  V30 1734 N 261.918 0.0501916 -4.62973 0
M  V30 1735 H 259.079 -0.374722 -8.67691 0
M  V30 1736 H 258.809 -0.443485 -6.90277 0
M  V30 1737 H 259.676 1.75537 -7.96793 0
M  V30 1738 P 263.638 2.75334 -8.47391 0
M  V30 1739 O 263.858 3.84204 -9.44982 0
M  V30 1740 O 264.428 1.51982 -8.68909 0
M  V30 1741 O 263.888 3.29363 -6.99321 0
M  V30 1742 C 262.948 4.24066 -6.42823 0
M  V30 1743 C 263.678 5.20775 -5.52155 0
M  V30 1744 O 263.888 4.56607 -4.22514 0
M  V30 1745 C 265.078 5.62697 -5.96604 0
M  V30 1746 O 265.468 6.87667 -5.41053 0
M  V30 1747 C 265.958 4.52537 -5.39283 0
M  V30 1748 C 265.248 4.20027 -4.08623 0
M  V30 1749 N 265.298 2.76189 -3.71603 0
M  V30 1750 C 265.218 1.66944 -4.54297 0
M  V30 1751 N 265.288 0.536169 -3.91344 0
M  V30 1752 C 265.438 0.901569 -2.58849 0
M  V30 1753 C 265.568 0.146599 -1.40236 0
M  V30 1754 N 265.578 -1.18234 -1.37046 0
M  V30 1755 N 265.688 0.822941 -0.249738 0
M  V30 1756 C 265.678 2.15179 -0.280525 0
M  V30 1757 N 265.558 2.96414 -1.30822 0
M  V30 1758 C 265.438 2.25804 -2.44748 0
M  V30 1759 H 262.46 4.79756 -7.24086 0
M  V30 1760 H 262.188 3.69963 -5.84682 0
M  V30 1761 H 263.056 6.10431 -5.41508 0
M  V30 1762 H 265.711 4.78816 -3.28024 0
M  V30 1763 H 265.991 3.64957 -6.05871 0
M  V30 1764 H 266.982 4.88748 -5.21323 0
M  V30 1765 H 265.148 5.66789 -7.0643 0
M  V30 1766 H 265.107 1.74684 -5.62396 0
M  V30 1767 H 265.488 -1.71949 -2.24394 0
M  V30 1768 H 265.677 -1.67511 -0.470742 0
M  V30 1769 H 265.785 2.63704 0.6828 0
M  V30 1770 P 267.018 7.20834 -5.23717 0
M  V30 1771 O 267.238 8.66104 -5.38572 0
M  V30 1772 O 267.808 6.33544 -6.1349 0
M  V30 1773 O 267.268 6.7751 -3.72168 0
M  V30 1774 C 266.328 7.20825 -2.7076 0
M  V30 1775 C 267.058 7.45864 -1.40599 0
M  V30 1776 O 267.268 6.17651 -0.734225 0
M  V30 1777 C 268.458 8.05808 -1.51899 0
M  V30 1778 O 268.848 8.74358 -0.335205 0
M  V30 1779 C 269.338 6.83093 -1.70294 0
M  V30 1780 C 268.628 5.79992 -0.836974 0
M  V30 1781 N 268.678 4.41864 -1.38293 0
M  V30 1782 H 265.839 8.13644 -3.0377 0
M  V30 1783 H 265.569 6.42788 -2.55485 0
M  V30 1784 H 266.436 8.12039 -0.792769 0
M  V30 1785 P 270.398 8.91 8.68872e-13 0
M  V30 1786 O 270.618 10.1726 0.733694 0
M  V30 1787 O 271.188 8.73148 -1.23936 0
M  V30 1788 O 270.648 7.66872 0.971405 0
M  V30 1789 C 269.708 7.42309 2.04641 0
M  V30 1790 C 270.438 6.86059 3.24661 0
M  V30 1791 O 270.648 5.42847 3.03646 0
M  V30 1792 C 271.838 7.41196 3.50753 0
M  V30 1793 O 272.228 7.27073 4.86816 0
M  V30 1794 C 272.718 6.5273 2.63741 0
M  V30 1795 C 272.008 5.1842 2.73198 0
M  V30 1796 N 272.058 4.38762 1.4784 0
M  V30 1797 H 269.219 8.36803 2.32493 0
M  V30 1798 H 268.949 6.70197 1.71129 0
M  V30 1799 H 269.816 7.03551 4.13168 0
M  V30 1800 P 273.778 7.20834 5.23717 0
M  V30 1801 O 273.998 7.80006 6.57415 0
M  V30 1802 O 274.568 7.79416 4.13051 0
M  V30 1803 O 274.028 5.63315 5.29344 0
M  V30 1804 C 273.088 4.80318 6.01954 0
M  V30 1805 C 273.818 3.64202 6.65911 0
M  V30 1806 O 274.028 2.60736 5.64823 0
M  V30 1807 C 275.218 3.93521 7.19518 0
M  V30 1808 O 275.608 3.02071 8.21205 0
M  V30 1809 C 276.098 3.73047 5.97036 0
M  V30 1810 C 275.388 2.58828 5.25741 0
M  V30 1811 N 275.438 2.68068 3.77503 0
M  V30 1812 C 275.358 3.80474 2.99159 0
M  V30 1813 N 275.428 3.55622 1.71925 0
M  V30 1814 C 275.578 2.1832 1.65733 0
M  V30 1815 C 275.708 1.28842 0.572777 0
M  V30 1816 N 275.718 1.66875 -0.70098 0
M  V30 1817 N 275.828 -0.016788 0.859836 0
M  V30 1818 C 275.818 -0.398145 2.13316 0
M  V30 1819 N 275.698 0.328224 3.22333 0
M  V30 1820 C 275.578 1.62992 2.90383 0
M  V30 1821 H 272.6 5.40394 6.8003 0
M  V30 1822 H 272.328 4.41741 5.32532 0
M  V30 1823 H 273.196 3.26371 7.47889 0
M  V30 1824 H 275.851 1.64007 5.56746 0
M  V30 1825 H 276.131 4.63439 5.3432 0
M  V30 1826 H 277.122 3.44776 6.25925 0
M  V30 1827 H 275.288 4.96707 7.57347 0
M  V30 1828 H 275.247 4.8089 3.39924 0
M  V30 1829 H 275.628 2.66547 -0.941919 0
M  V30 1830 H 275.817 0.965341 -1.44766 0
M  V30 1831 H 275.925 -1.46427 2.29697 0
M  V30 1832 P 277.158 2.75334 8.47391 0
M  V30 1833 O 277.378 2.44595 9.90239 0
M  V30 1834 O 277.948 3.87732 7.92204 0
M  V30 1835 O 277.408 1.4459 7.59357 0
M  V30 1836 C 276.468 0.347563 7.69115 0
M  V30 1837 C 277.198 -0.96767 7.52806 0
M  V30 1838 O 277.408 -1.21036 6.1011 0
M  V30 1839 C 278.598 -1.04544 8.13308 0
M  V30 1840 O 278.988 -2.38311 8.41922 0
M  V30 1841 C 279.478 -0.491279 7.02284 0
M  V30 1842 C 278.768 -0.996264 5.77469 0
M  V30 1843 N 278.818 -0.0501808 4.62873 0
M  V30 1844 C 278.968 -0.588177 3.36904 0
M  V30 1845 O 279.058 -1.78598 3.17173 0
M  V30 1846 N 279.008 0.329694 2.33686 0
M  V30 1847 C 278.918 1.6953 2.45079 0
M  V30 1848 C 278.768 2.16933 3.80505 0
M  V30 1849 C 278.718 1.30326 4.83752 0
M  V30 1850 H 275.978 0.374722 8.67691 0
M  V30 1851 H 275.709 0.443421 6.90177 0
M  V30 1852 H 276.576 -1.75537 7.96793 0
M  V30 1853 H 279.231 -1.94496 5.46629 0
M  V30 1854 H 279.51 0.608651 7.04676 0
M  V30 1855 H 280.502 -0.889672 7.08939 0
M  V30 1856 H 278.668 -0.43308 9.04564 0
M  V30 1857 H 278.597 1.68366 5.8516 0
M  V30 1858 P 280.538 -2.75334 8.47391 0
M  V30 1859 O 280.758 -3.84166 9.4489 0
M  V30 1860 O 281.328 -1.51964 8.6881 0
M  V30 1861 O 280.788 -3.29363 6.99321 0
M  V30 1862 C 279.848 -4.24011 6.4274 0
M  V30 1863 C 280.578 -5.20775 5.52155 0
M  V30 1864 O 280.788 -4.56534 4.22446 0
M  V30 1865 C 281.978 -5.62629 5.96531 0
M  V30 1866 O 282.368 -6.87667 5.41053 0
M  V30 1867 C 282.858 -4.52537 5.39283 0
M  V30 1868 C 282.148 -4.20027 4.08623 0
M  V30 1869 N 282.198 -2.7613 3.71522 0
M  V30 1870 C 282.348 -2.43702 2.37085 0
M  V30 1871 O 282.438 -3.3531 1.54039 0
M  V30 1872 N 282.398 -0.951103 2.10621 0
M  V30 1873 C 282.298 -0.165021 2.93537 0
M  V30 1874 N 282.348 1.09723 2.53253 0
M  V30 1875 C 282.148 -0.469576 4.32458 0
M  V30 1876 C 282.098 -1.78658 4.65921 0
M  V30 1877 H 279.358 -4.79645 7.23919 0
M  V30 1878 H 279.089 -3.69802 5.84429 0
M  V30 1879 H 279.956 -6.10431 5.41508 0
M  V30 1880 H 282.611 -4.78733 3.27967 0
M  V30 1881 H 282.89 -3.64957 6.05871 0
M  V30 1882 H 283.882 -4.8868 5.2125 0
M  V30 1883 H 282.048 -5.66726 7.06352 0
M  V30 1884 H 281.976 -2.06987 5.70299 0
M  V30 1885 H 282.078 0.314383 5.07728 0
M  V30 1886 H 282.466 1.31363 1.5319 0
M  V30 1887 H 282.269 1.85978 3.21943 0
M  V30 1888 P 283.918 -7.20834 5.23717 0
M  V30 1889 O 284.138 -8.66189 5.38625 0
M  V30 1890 O 284.708 -6.33615 6.1356 0
M  V30 1891 O 284.168 -6.7751 3.72168 0
M  V30 1892 C 283.228 -7.20825 2.7076 0
M  V30 1893 C 283.958 -7.45864 1.40599 0
M  V30 1894 O 284.168 -6.17651 0.734225 0
M  V30 1895 C 285.358 -8.05808 1.51899 0
M  V30 1896 O 285.748 -8.74358 0.335205 0
M  V30 1897 C 286.238 -6.83093 1.70294 0
M  V30 1898 C 285.528 -5.79992 0.836974 0
M  V30 1899 N 285.578 -4.41769 1.38263 0
M  V30 1900 C 285.728 -3.36514 0.485617 0
M  V30 1901 O 285.818 -3.61814 -0.724703 0
M  V30 1902 N 285.778 -2.00746 1.14492 0
M  V30 1903 C 285.678 -1.85887 2.27776 0
M  V30 1904 N 285.728 -0.600907 2.69379 0
M  V30 1905 C 285.528 -2.92182 3.22265 0
M  V30 1906 C 285.478 -4.18399 2.71925 0
M  V30 1907 H 282.738 -8.1355 3.03735 0
M  V30 1908 H 282.469 -6.42695 2.55448 0
M  V30 1909 H 283.336 -8.12139 0.792866 0
M  V30 1910 H 285.991 -5.80078 -0.160615 0
M  V30 1911 H 286.27 -6.51379 2.75643 0
M  V30 1912 H 287.262 -7.01734 1.34462 0
M  V30 1913 H 285.428 -8.73674 2.38337 0
M  V30 1914 H 285.356 -5.02669 3.39718 0
M  V30 1915 H 285.458 -2.73001 4.29239 0
M  V30 1916 H 285.846 0.162318 2.01146 0
M  V30 1917 H 285.649 -0.387742 3.69773 0
M  V30 1918 P 287.298 -8.91 -1.02605e-12 0
M  V30 1919 O 287.518 -10.1746 -0.733838 0
M  V30 1920 O 288.088 -8.73346 1.23964 0
M  V30 1921 O 287.548 -7.66872 -0.971405 0
M  V30 1922 C 286.608 -7.42405 -2.04668 0
M  V30 1923 C 287.338 -6.86059 -3.24661 0
M  V30 1924 O 287.548 -5.42934 -3.03695 0
M  V30 1925 C 288.738 -7.41287 -3.50796 0
M  V30 1926 O 289.128 -7.27073 -4.86816 0
M  V30 1927 C 289.618 -6.5273 -2.63741 0
M  V30 1928 C 288.908 -5.1842 -2.73198 0
M  V30 1929 N 288.958 -4.38762 -1.4784 0
M  V30 1930 C 288.878 -4.83651 -0.183876 0
M  V30 1931 N 288.948 -3.88759 0.699393 0
M  V30 1932 C 289.098 -2.7404 -0.0575568 0
M  V30 1933 C 289.228 -1.37902 0.293928 0
M  V30 1934 N 289.238 -0.938021 1.54797 0
M  V30 1935 N 289.348 -0.491817 -0.70549 0
M  V30 1936 C 289.338 -0.931735 -1.95979 0
M  V30 1937 N 289.218 -2.16017 -2.41481 0
M  V30 1938 C 289.098 -3.02547 -1.39121 0
M  V30 1939 H 286.12 -8.36899 -2.3252 0
M  V30 1940 H 285.848 -6.70391 -1.71179 0
M  V30 1941 H 286.716 -7.03638 -4.13219 0
M  V30 1942 H 289.371 -4.59931 -3.54016 0
M  V30 1943 H 289.651 -6.88995 -1.59871 0
M  V30 1944 H 290.642 -6.4684 -3.0373 0
M  V30 1945 H 288.808 -8.47002 -3.20749 0
M  V30 1946 H 288.767 -5.8885 0.0765548 0
M  V30 1947 H 289.148 -1.60276 2.32875 0
M  V30 1948 H 289.337 0.0699355 1.73859 0
M  V30 1949 H 289.445 -0.165507 -2.71897 0
M  V30 1950 P 290.678 -7.20834 -5.23717 0
M  V30 1951 O 290.898 -7.79853 -6.57286 0
M  V30 1952 O 291.468 -7.79239 -4.12957 0
M  V30 1953 O 290.928 -5.63315 -5.29344 0
M  V30 1954 C 289.988 -4.80255 -6.01876 0
M  V30 1955 C 290.718 -3.64202 -6.65911 0
M  V30 1956 O 290.928 -2.60694 -5.64732 0
M  V30 1957 C 292.118 -3.93473 -7.1943 0
M  V30 1958 O 292.508 -3.02071 -8.21205 0
M  V30 1959 C 292.998 -3.73047 -5.97036 0
M  V30 1960 C 292.288 -2.58828 -5.25741 0
M  V30 1961 N 292.338 -2.68068 -3.77503 0
M  V30 1962 H 289.499 -5.40332 -6.79951 0
M  V30 1963 H 289.229 -4.41613 -5.32378 0
M  V30 1964 H 290.096 -3.26331 -7.47797 0
M  V30 1965 P 294.058 -2.75334 -8.47391 0
M  V30 1966 O 294.278 -2.44571 -9.90142 0
M  V30 1967 O 294.848 -3.87688 -7.92115 0
M  V30 1968 O 294.308 -1.4459 -7.59357 0
M  V30 1969 C 293.368 -0.347608 -7.69215 0
M  V30 1970 C 294.098 0.96767 -7.52806 0
M  V30 1971 O 294.308 1.21036 -6.1011 0
M  V30 1972 C 295.498 1.04544 -8.13308 0
M  V30 1973 O 295.888 2.38311 -8.41922 0
M  V30 1974 C 296.378 0.491279 -7.02284 0
M  V30 1975 C 295.668 0.996264 -5.77469 0
M  V30 1976 N 295.718 0.0501916 -4.62973 0
M  V30 1977 H 292.879 -0.374722 -8.67691 0
M  V30 1978 H 292.609 -0.443485 -6.90277 0
M  V30 1979 H 293.476 1.75537 -7.96793 0
M  V30 1980 P 297.438 2.75334 -8.47391 0
M  V30 1981 O 297.658 3.84128 -9.44797 0
M  V30 1982 O 298.228 1.51947 -8.68712 0
M  V30 1983 O 297.688 3.29363 -6.99321 0
M  V30 1984 C 296.748 4.24011 -6.4274 0
M  V30 1985 C 297.478 5.20775 -5.52155 0
M  V30 1986 O 297.688 4.56534 -4.22446 0
M  V30 1987 C 298.878 5.62629 -5.96531 0
M  V30 1988 O 299.268 6.87667 -5.41053 0
M  V30 1989 C 299.758 4.52537 -5.39283 0
M  V30 1990 C 299.048 4.20027 -4.08623 0
M  V30 1991 N 299.098 2.76189 -3.71603 0
M  V30 1992 C 299.018 1.64862 -4.52822 0
M  V30 1993 N 299.098 0.512671 -3.88633 0
M  V30 1994 C 299.238 0.888083 -2.54977 0
M  V30 1995 C 299.368 0.094668 -1.38677 0
M  V30 1996 O 299.388 -1.13053 -1.28163 0
M  V30 1997 N 299.488 0.890102 -0.232633 0
M  V30 1998 C 299.488 2.26958 -0.21772 0
M  V30 1999 N 299.618 2.84626 0.97925 0
M  V30 2000 N 299.358 3.0178 -1.31033 0
M  V30 2001 C 299.238 2.26781 -2.43843 0
M  V30 2002 H 296.259 4.797 -7.24003 0
M  V30 2003 H 295.989 3.69856 -5.84513 0
M  V30 2004 H 296.856 6.10356 -5.41441 0
M  V30 2005 H 299.511 4.79061 -3.27488 0
M  V30 2006 H 299.79 3.64906 -6.05785 0
M  V30 2007 H 300.782 4.8868 -5.2125 0
M  V30 2008 H 298.948 5.66726 -7.06352 0
M  V30 2009 H 298.899 1.71169 -5.60966 0
M  V30 2010 H 299.581 0.419134 0.644739 0
M  V30 2011 H 299.618 3.87332 1.06098 0
M  V30 2012 H 299.719 2.26417 1.82483 0
M  V30 2013 P 300.818 7.20834 -5.23717 0
M  V30 2014 O 301.038 8.66104 -5.38572 0
M  V30 2015 O 301.608 6.33544 -6.1349 0
M  V30 2016 O 301.068 6.7751 -3.72168 0
M  V30 2017 C 300.128 7.20825 -2.7076 0
M  V30 2018 C 300.858 7.45864 -1.40599 0
M  V30 2019 O 301.068 6.17651 -0.734225 0
M  V30 2020 C 302.258 8.05808 -1.51899 0
M  V30 2021 O 302.648 8.74358 -0.335205 0
M  V30 2022 C 303.138 6.83093 -1.70294 0
M  V30 2023 C 302.428 5.79992 -0.836974 0
M  V30 2024 N 302.478 4.41864 -1.38293 0
M  V30 2025 H 299.639 8.13644 -3.0377 0
M  V30 2026 H 299.369 6.42788 -2.55485 0
M  V30 2027 H 300.236 8.12039 -0.792769 0
M  V30 2028 P 304.198 8.91 1.18324e-12 0
M  V30 2029 O 304.418 10.1726 0.733694 0
M  V30 2030 O 304.988 8.73148 -1.23936 0
M  V30 2031 O 304.448 7.66872 0.971405 0
M  V30 2032 C 303.508 7.42309 2.04641 0
M  V30 2033 C 304.238 6.86059 3.24661 0
M  V30 2034 O 304.448 5.42847 3.03646 0
M  V30 2035 C 305.638 7.41196 3.50753 0
M  V30 2036 O 306.028 7.27073 4.86816 0
M  V30 2037 C 306.518 6.5273 2.63741 0
M  V30 2038 C 305.808 5.1842 2.73198 0
M  V30 2039 N 305.858 4.38762 1.4784 0
M  V30 2040 C 305.778 4.81605 0.168631 0
M  V30 2041 N 305.858 3.85454 -0.713363 0
M  V30 2042 C 305.998 2.6994 0.0566958 0
M  V30 2043 C 306.128 1.34815 -0.338502 0
M  V30 2044 N 306.248 0.496304 0.77465 0
M  V30 2045 C 306.248 0.908403 2.09122 0
M  V30 2046 N 306.378 -0.0517805 3.00955 0
M  V30 2047 N 306.118 2.17875 2.46519 0
M  V30 2048 C 305.998 3.01988 1.4033 0
M  V30 2049 H 303.019 8.36803 2.32493 0
M  V30 2050 H 302.749 6.70197 1.71129 0
M  V30 2051 H 303.616 7.03551 4.13168 0
M  V30 2052 P 307.578 7.20834 5.23717 0
M  V30 2053 O 307.798 7.79853 6.57286 0
M  V30 2054 O 308.368 7.79239 4.12957 0
M  V30 2055 O 307.828 5.63315 5.29344 0
M  V30 2056 C 306.888 4.80255 6.01876 0
M  V30 2057 C 307.618 3.64202 6.65911 0
M  V30 2058 O 307.828 2.60694 5.64732 0
M  V30 2059 C 309.018 3.93473 7.1943 0
M  V30 2060 O 309.408 3.02071 8.21205 0
M  V30 2061 C 309.898 3.73047 5.97036 0
M  V30 2062 C 309.188 2.58828 5.25741 0
M  V30 2063 N 309.238 2.68068 3.77503 0
M  V30 2064 H 306.399 5.40332 6.79951 0
M  V30 2065 H 306.129 4.41613 5.32378 0
M  V30 2066 H 306.996 3.26331 7.47797 0
M  V30 2067 P 310.958 2.75334 8.47391 0
M  V30 2068 O 311.178 2.44595 9.90239 0
M  V30 2069 O 311.748 3.87732 7.92204 0
M  V30 2070 O 311.208 1.4459 7.59357 0
M  V30 2071 C 310.268 0.347563 7.69115 0
M  V30 2072 C 310.998 -0.96767 7.52806 0
M  V30 2073 O 311.208 -1.21036 6.1011 0
M  V30 2074 C 312.398 -1.04544 8.13308 0
M  V30 2075 O 312.788 -2.38311 8.41922 0
M  V30 2076 C 313.278 -0.491279 7.02284 0
M  V30 2077 C 312.568 -0.996264 5.77469 0
M  V30 2078 N 312.618 -0.0501808 4.62873 0
M  V30 2079 C 312.768 -0.588177 3.36904 0
M  V30 2080 O 312.858 -1.78598 3.17173 0
M  V30 2081 N 312.808 0.329694 2.33686 0
M  V30 2082 C 312.718 1.6953 2.45079 0
M  V30 2083 O 312.768 2.41926 1.44899 0
M  V30 2084 C 312.568 2.16933 3.80505 0
M  V30 2085 C 312.458 3.65373 3.97621 0
M  V30 2086 C 312.518 1.30326 4.83752 0
M  V30 2087 H 309.778 0.374722 8.67691 0
M  V30 2088 H 309.509 0.443421 6.90177 0
M  V30 2089 H 310.376 -1.75537 7.96793 0
M  V30 2090 H 313.031 -1.94496 5.46629 0
M  V30 2091 H 313.31 0.608651 7.04676 0
M  V30 2092 H 314.302 -0.889672 7.08939 0
M  V30 2093 H 312.468 -0.43308 9.04564 0
M  V30 2094 H 312.397 1.68366 5.8516 0
M  V30 2095 H 313.427 4.05985 4.30448 0
M  V30 2096 H 311.69 3.88028 4.72875 0
M  V30 2097 H 312.178 4.11381 3.01609 0
M  V30 2098 H 312.914 -0.0393617 1.41345 0
M  V30 2099 P 314.338 -2.75334 8.47391 0
M  V30 2100 O 314.558 -3.84128 9.44797 0
M  V30 2101 O 315.128 -1.51947 8.68712 0
M  V30 2102 O 314.588 -3.29363 6.99321 0
M  V30 2103 C 313.648 -4.24011 6.4274 0
M  V30 2104 C 314.378 -5.20775 5.52155 0
M  V30 2105 O 314.588 -4.56534 4.22446 0
M  V30 2106 C 315.778 -5.62629 5.96531 0
M  V30 2107 O 316.168 -6.87667 5.41053 0
M  V30 2108 C 316.658 -4.52537 5.39283 0
M  V30 2109 C 315.948 -4.20027 4.08623 0
M  V30 2110 N 315.998 -2.76189 3.71603 0
M  V30 2111 H 313.159 -4.797 7.24003 0
M  V30 2112 H 312.889 -3.69856 5.84513 0
M  V30 2113 H 313.756 -6.10356 5.41441 0
M  V30 2114 P 317.718 -7.20834 5.23717 0
M  V30 2115 O 317.938 -8.66104 5.38572 0
M  V30 2116 O 318.508 -6.33544 6.1349 0
M  V30 2117 O 317.968 -6.7751 3.72168 0
M  V30 2118 C 317.028 -7.20825 2.7076 0
M  V30 2119 C 317.758 -7.45864 1.40599 0
M  V30 2120 O 317.968 -6.17651 0.734225 0
M  V30 2121 C 319.158 -8.05808 1.51899 0
M  V30 2122 O 319.548 -8.74358 0.335205 0
M  V30 2123 C 320.038 -6.83093 1.70294 0
M  V30 2124 C 319.328 -5.79992 0.836974 0
M  V30 2125 N 319.378 -4.41864 1.38293 0
M  V30 2126 H 316.539 -8.13644 3.0377 0
M  V30 2127 H 316.269 -6.42788 2.55485 0
M  V30 2128 H 317.136 -8.12039 0.792769 0
M  V30 2129 P 321.098 -8.91 -1.34042e-12 0
M  V30 2130 O 321.318 -10.1726 -0.733694 0
M  V30 2131 O 321.888 -8.73148 1.23936 0
M  V30 2132 O 321.348 -7.66872 -0.971405 0
M  V30 2133 C 320.408 -7.42309 -2.04641 0
M  V30 2134 C 321.138 -6.86059 -3.24661 0
M  V30 2135 O 321.348 -5.42847 -3.03646 0
M  V30 2136 C 322.538 -7.41196 -3.50753 0
M  V30 2137 O 322.928 -7.27073 -4.86816 0
M  V30 2138 C 323.418 -6.5273 -2.63741 0
M  V30 2139 C 322.708 -5.1842 -2.73198 0
M  V30 2140 N 322.758 -4.38762 -1.4784 0
M  V30 2141 C 322.678 -4.81605 -0.168631 0
M  V30 2142 N 322.758 -3.85454 0.713363 0
M  V30 2143 C 322.898 -2.6994 -0.0566958 0
M  V30 2144 C 323.028 -1.34815 0.338502 0
M  V30 2145 N 323.148 -0.496304 -0.77465 0
M  V30 2146 C 323.148 -0.908403 -2.09122 0
M  V30 2147 N 323.278 0.0517805 -3.00955 0
M  V30 2148 N 323.018 -2.17875 -2.46519 0
M  V30 2149 C 322.898 -3.01988 -1.4033 0
M  V30 2150 H 319.919 -8.36803 -2.32493 0
M  V30 2151 H 319.649 -6.70197 -1.71129 0
M  V30 2152 H 320.516 -7.03551 -4.13168 0
M  V30 2153 P 324.478 -7.20834 -5.23717 0
M  V30 2154 O 324.698 -7.79853 -6.57286 0
M  V30 2155 O 325.268 -7.79239 -4.12957 0
M  V30 2156 O 324.728 -5.63315 -5.29344 0
M  V30 2157 C 323.788 -4.80255 -6.01876 0
M  V30 2158 C 324.518 -3.64202 -6.65911 0
M  V30 2159 O 324.728 -2.60694 -5.64732 0
M  V30 2160 C 325.918 -3.93473 -7.1943 0
M  V30 2161 O 326.308 -3.02071 -8.21205 0
M  V30 2162 C 326.798 -3.73047 -5.97036 0
M  V30 2163 C 326.088 -2.58828 -5.25741 0
M  V30 2164 N 326.138 -2.68068 -3.77503 0
M  V30 2165 C 326.058 -3.79715 -2.96723 0
M  V30 2166 N 326.138 -3.5377 -1.68852 0
M  V30 2167 C 326.278 -2.15054 -1.63254 0
M  V30 2168 C 326.408 -1.28964 -0.518571 0
M  V30 2169 N 326.528 0.0538097 -0.918425 0
M  V30 2170 C 326.528 0.494275 -2.22578 0
M  V30 2171 N 326.658 1.81086 -2.40434 0
M  V30 2172 N 326.398 -0.313645 -3.27502 0
M  V30 2173 C 326.278 -1.61829 -2.91033 0
M  V30 2174 H 323.299 -5.40332 -6.79951 0
M  V30 2175 H 323.029 -4.41613 -5.32378 0
M  V30 2176 H 323.896 -3.26331 -7.47797 0
M  V30 2177 P 327.858 -2.75334 -8.47391 0
M  V30 2178 O 328.078 -2.44571 -9.90142 0
M  V30 2179 O 328.648 -3.87688 -7.92115 0
M  V30 2180 O 328.108 -1.4459 -7.59357 0
M  V30 2181 C 327.168 -0.347608 -7.69215 0
M  V30 2182 C 327.898 0.96767 -7.52806 0
M  V30 2183 O 328.108 1.21036 -6.1011 0
M  V30 2184 C 329.298 1.04544 -8.13308 0
M  V30 2185 O 329.688 2.38311 -8.41922 0
M  V30 2186 C 330.178 0.491279 -7.02284 0
M  V30 2187 C 329.468 0.996264 -5.77469 0
M  V30 2188 N 329.518 0.0501916 -4.62973 0
M  V30 2189 H 326.679 -0.374722 -8.67691 0
M  V30 2190 H 326.409 -0.443485 -6.90277 0
M  V30 2191 H 327.276 1.75537 -7.96793 0
M  V30 2192 P 331.238 2.75334 -8.47391 0
M  V30 2193 O 331.458 3.84128 -9.44797 0
M  V30 2194 O 332.028 1.51947 -8.68712 0
M  V30 2195 O 331.488 3.29363 -6.99321 0
M  V30 2196 C 330.548 4.24011 -6.4274 0
M  V30 2197 C 331.278 5.20775 -5.52155 0
M  V30 2198 O 331.488 4.56534 -4.22446 0
M  V30 2199 C 332.678 5.62629 -5.96531 0
M  V30 2200 O 333.068 6.87667 -5.41053 0
M  V30 2201 C 333.558 4.52537 -5.39283 0
M  V30 2202 C 332.848 4.20027 -4.08623 0
M  V30 2203 N 332.898 2.76189 -3.71603 0
M  V30 2204 H 330.059 4.797 -7.24003 0
M  V30 2205 H 329.789 3.69856 -5.84513 0
M  V30 2206 H 330.656 6.10356 -5.41441 0
M  V30 2207 P 334.618 7.20834 -5.23717 0
M  V30 2208 O 334.838 8.66104 -5.38572 0
M  V30 2209 O 335.408 6.33544 -6.1349 0
M  V30 2210 O 334.868 6.7751 -3.72168 0
M  V30 2211 C 333.928 7.20825 -2.7076 0
M  V30 2212 C 334.658 7.45864 -1.40599 0
M  V30 2213 O 334.868 6.17651 -0.734225 0
M  V30 2214 C 336.058 8.05808 -1.51899 0
M  V30 2215 O 336.448 8.74358 -0.335205 0
M  V30 2216 C 336.938 6.83093 -1.70294 0
M  V30 2217 C 336.228 5.79992 -0.836974 0
M  V30 2218 N 336.278 4.41864 -1.38293 0
M  V30 2219 H 333.439 8.13644 -3.0377 0
M  V30 2220 H 333.169 6.42788 -2.55485 0
M  V30 2221 H 334.036 8.12039 -0.792769 0
M  V30 2222 P 337.998 8.91 1.4976e-12 0
M  V30 2223 O 338.218 10.1726 0.733694 0
M  V30 2224 O 338.788 8.73148 -1.23936 0
M  V30 2225 O 338.248 7.66872 0.971405 0
M  V30 2226 C 337.308 7.42309 2.04641 0
M  V30 2227 C 338.038 6.86059 3.24661 0
M  V30 2228 O 338.248 5.42847 3.03646 0
M  V30 2229 C 339.438 7.41196 3.50753 0
M  V30 2230 O 339.828 7.27073 4.86816 0
M  V30 2231 C 340.318 6.5273 2.63741 0
M  V30 2232 C 339.608 5.1842 2.73198 0
M  V30 2233 N 339.658 4.38762 1.4784 0
M  V30 2234 H 336.819 8.36803 2.32493 0
M  V30 2235 H 336.549 6.70197 1.71129 0
M  V30 2236 H 337.416 7.03551 4.13168 0
M  V30 2237 P 341.378 7.20834 5.23717 0
M  V30 2238 O 341.598 7.80006 6.57415 0
M  V30 2239 O 342.168 7.79416 4.13051 0
M  V30 2240 O 341.628 5.63315 5.29344 0
M  V30 2241 C 340.688 4.80318 6.01954 0
M  V30 2242 C 341.418 3.64202 6.65911 0
M  V30 2243 O 341.628 2.60736 5.64823 0
M  V30 2244 C 342.818 3.93521 7.19518 0
M  V30 2245 O 343.208 3.02071 8.21205 0
M  V30 2246 C 343.698 3.73047 5.97036 0
M  V30 2247 C 342.988 2.58828 5.25741 0
M  V30 2248 N 343.038 2.68068 3.77503 0
M  V30 2249 C 342.958 3.80474 2.99159 0
M  V30 2250 N 343.028 3.55622 1.71925 0
M  V30 2251 C 343.178 2.1832 1.65733 0
M  V30 2252 C 343.308 1.28842 0.572777 0
M  V30 2253 N 343.318 1.66875 -0.70098 0
M  V30 2254 N 343.428 -0.016788 0.859836 0
M  V30 2255 C 343.418 -0.398145 2.13316 0
M  V30 2256 N 343.298 0.328224 3.22333 0
M  V30 2257 C 343.178 1.62992 2.90383 0
M  V30 2258 H 340.2 5.40394 6.8003 0
M  V30 2259 H 339.928 4.41741 5.32532 0
M  V30 2260 H 340.796 3.26371 7.47889 0
M  V30 2261 H 343.451 1.64007 5.56746 0
M  V30 2262 H 343.731 4.63439 5.3432 0
M  V30 2263 H 344.722 3.44776 6.25925 0
M  V30 2264 H 342.888 4.96707 7.57347 0
M  V30 2265 H 342.847 4.8089 3.39924 0
M  V30 2266 H 343.228 2.66547 -0.941919 0
M  V30 2267 H 343.417 0.965341 -1.44766 0
M  V30 2268 H 343.525 -1.46427 2.29697 0
M  V30 2269 P 344.758 2.75334 8.47391 0
M  V30 2270 O 344.978 2.44571 9.90142 0
M  V30 2271 O 345.548 3.87688 7.92115 0
M  V30 2272 O 345.008 1.4459 7.59357 0
M  V30 2273 C 344.068 0.347608 7.69215 0
M  V30 2274 C 344.798 -0.96767 7.52806 0
M  V30 2275 O 345.008 -1.21036 6.1011 0
M  V30 2276 C 346.198 -1.04544 8.13308 0
M  V30 2277 O 346.588 -2.38311 8.41922 0
M  V30 2278 C 347.078 -0.491279 7.02284 0
M  V30 2279 C 346.368 -0.996264 5.77469 0
M  V30 2280 N 346.418 -0.0501916 4.62973 0
M  V30 2281 H 343.579 0.374722 8.67691 0
M  V30 2282 H 343.309 0.443485 6.90277 0
M  V30 2283 H 344.176 -1.75537 7.96793 0
M  V30 2284 P 348.138 -2.75334 8.47391 0
M  V30 2285 O 348.358 -3.84128 9.44797 0
M  V30 2286 O 348.928 -1.51947 8.68712 0
M  V30 2287 O 348.388 -3.29363 6.99321 0
M  V30 2288 C 347.448 -4.24011 6.4274 0
M  V30 2289 C 348.178 -5.20775 5.52155 0
M  V30 2290 O 348.388 -4.56534 4.22446 0
M  V30 2291 C 349.578 -5.62629 5.96531 0
M  V30 2292 O 349.968 -6.87667 5.41053 0
M  V30 2293 C 350.458 -4.52537 5.39283 0
M  V30 2294 C 349.748 -4.20027 4.08623 0
M  V30 2295 N 349.798 -2.76189 3.71603 0
M  V30 2296 H 346.959 -4.797 7.24003 0
M  V30 2297 H 346.689 -3.69856 5.84513 0
M  V30 2298 H 347.556 -6.10356 5.41441 0
M  V30 2299 P 351.518 -7.20834 5.23717 0
M  V30 2300 O 351.738 -8.66274 5.38678 0
M  V30 2301 O 352.308 -6.33687 6.13629 0
M  V30 2302 O 351.768 -6.7751 3.72168 0
M  V30 2303 C 350.828 -7.20919 2.70795 0
M  V30 2304 C 351.558 -7.45864 1.40599 0
M  V30 2305 O 351.768 -6.17751 0.734343 0
M  V30 2306 C 352.958 -8.05906 1.51917 0
M  V30 2307 O 353.348 -8.74358 0.335205 0
M  V30 2308 C 353.838 -6.83093 1.70294 0
M  V30 2309 C 353.128 -5.79992 0.836974 0
M  V30 2310 N 353.178 -4.41864 1.38293 0
M  V30 2311 C 353.098 -4.02089 2.69407 0
M  V30 2312 N 353.168 -2.73403 2.85089 0
M  V30 2313 C 353.318 -2.25086 1.5642 0
M  V30 2314 C 353.448 -0.942887 1.04836 0
M  V30 2315 N 353.458 0.150999 1.80369 0
M  V30 2316 N 353.568 -0.812565 -0.28167 0
M  V30 2317 C 353.558 -1.90572 -1.03784 0
M  V30 2318 N 353.438 -3.167 -0.683905 0
M  V30 2319 C 353.318 -3.26538 0.652815 0
M  V30 2320 H 350.34 -8.13738 3.03804 0
M  V30 2321 H 350.068 -6.42974 2.55559 0
M  V30 2322 H 350.936 -8.12139 0.792866 0
M  V30 2323 H 353.591 -5.80178 -0.160643 0
M  V30 2324 H 353.871 -6.51379 2.75643 0
M  V30 2325 H 354.862 -7.01832 1.3448 0
M  V30 2326 H 353.028 -8.73771 2.38364 0
M  V30 2327 H 352.987 -4.7189 3.52311 0
M  V30 2328 H 353.368 0.0721434 2.82608 0
M  V30 2329 H 353.557 1.0785 1.36544 0
M  V30 2330 H 353.665 -1.73207 -2.10241 0
M  V30 2331 P 354.898 -8.91 -1.65478e-12 0
M  V30 2332 O 355.118 -10.1726 -0.733694 0
M  V30 2333 O 355.688 -8.73148 1.23936 0
M  V30 2334 O 355.148 -7.66872 -0.971405 0
M  V30 2335 C 354.208 -7.42309 -2.04641 0
M  V30 2336 C 354.938 -6.86059 -3.24661 0
M  V30 2337 O 355.148 -5.42847 -3.03646 0
M  V30 2338 C 356.338 -7.41196 -3.50753 0
M  V30 2339 O 356.728 -7.27073 -4.86816 0
M  V30 2340 C 357.218 -6.5273 -2.63741 0
M  V30 2341 C 356.508 -5.1842 -2.73198 0
M  V30 2342 N 356.558 -4.38762 -1.4784 0
M  V30 2343 H 353.719 -8.36803 -2.32493 0
M  V30 2344 H 353.449 -6.70197 -1.71129 0
M  V30 2345 H 354.316 -7.03551 -4.13168 0
M  V30 2346 P 358.278 -7.20834 -5.23717 0
M  V30 2347 O 358.498 -7.79853 -6.57286 0
M  V30 2348 O 359.068 -7.79239 -4.12957 0
M  V30 2349 O 358.528 -5.63315 -5.29344 0
M  V30 2350 C 357.588 -4.80255 -6.01876 0
M  V30 2351 C 358.318 -3.64202 -6.65911 0
M  V30 2352 O 358.528 -2.60694 -5.64732 0
M  V30 2353 C 359.718 -3.93473 -7.1943 0
M  V30 2354 O 360.108 -3.02071 -8.21205 0
M  V30 2355 C 360.598 -3.73047 -5.97036 0
M  V30 2356 C 359.888 -2.58828 -5.25741 0
M  V30 2357 N 359.938 -2.68068 -3.77503 0
M  V30 2358 H 357.099 -5.40332 -6.79951 0
M  V30 2359 H 356.829 -4.41613 -5.32378 0
M  V30 2360 H 357.696 -3.26331 -7.47797 0
M  V30 2361 P 361.658 -2.75334 -8.47391 0
M  V30 2362 O 361.878 -2.44571 -9.90142 0
M  V30 2363 O 362.448 -3.87688 -7.92115 0
M  V30 2364 O 361.908 -1.4459 -7.59357 0
M  V30 2365 C 360.968 -0.347608 -7.69215 0
M  V30 2366 C 361.698 0.96767 -7.52806 0
M  V30 2367 O 361.908 1.21036 -6.1011 0
M  V30 2368 C 363.098 1.04544 -8.13308 0
M  V30 2369 O 363.488 2.38311 -8.41922 0
M  V30 2370 C 363.978 0.491279 -7.02284 0
M  V30 2371 C 363.268 0.996264 -5.77469 0
M  V30 2372 N 363.318 0.0501916 -4.62973 0
M  V30 2373 H 360.479 -0.374722 -8.67691 0
M  V30 2374 H 360.209 -0.443485 -6.90277 0
M  V30 2375 H 361.076 1.75537 -7.96793 0
M  V30 2376 P 365.038 2.75334 -8.47391 0
M  V30 2377 O 365.258 3.84128 -9.44797 0
M  V30 2378 O 365.828 1.51947 -8.68712 0
M  V30 2379 O 365.288 3.29363 -6.99321 0
M  V30 2380 C 364.348 4.24011 -6.4274 0
M  V30 2381 C 365.078 5.20775 -5.52155 0
M  V30 2382 O 365.288 4.56534 -4.22446 0
M  V30 2383 C 366.478 5.62629 -5.96531 0
M  V30 2384 O 366.868 6.87667 -5.41053 0
M  V30 2385 C 367.358 4.52537 -5.39283 0
M  V30 2386 C 366.648 4.20027 -4.08623 0
M  V30 2387 N 366.698 2.76189 -3.71603 0
M  V30 2388 H 363.859 4.797 -7.24003 0
M  V30 2389 H 363.589 3.69856 -5.84513 0
M  V30 2390 H 364.456 6.10356 -5.41441 0
M  V30 2391 P 368.418 7.20834 -5.23717 0
M  V30 2392 O 368.638 8.66274 -5.38678 0
M  V30 2393 O 369.208 6.33687 -6.13629 0
M  V30 2394 O 368.668 6.7751 -3.72168 0
M  V30 2395 C 367.728 7.20919 -2.70795 0
M  V30 2396 C 368.458 7.45864 -1.40599 0
M  V30 2397 O 368.668 6.17751 -0.734343 0
M  V30 2398 C 369.858 8.05906 -1.51917 0
M  V30 2399 O 370.248 8.74358 -0.335205 0
M  V30 2400 C 370.738 6.83093 -1.70294 0
M  V30 2401 C 370.028 5.79992 -0.836974 0
M  V30 2402 N 370.078 4.41864 -1.38293 0
M  V30 2403 C 369.998 4.02089 -2.69407 0
M  V30 2404 N 370.068 2.73403 -2.85089 0
M  V30 2405 C 370.218 2.25086 -1.5642 0
M  V30 2406 C 370.348 0.942887 -1.04836 0
M  V30 2407 N 370.358 -0.150999 -1.80369 0
M  V30 2408 N 370.468 0.812565 0.28167 0
M  V30 2409 C 370.458 1.90572 1.03784 0
M  V30 2410 N 370.338 3.167 0.683905 0
M  V30 2411 C 370.218 3.26538 -0.652815 0
M  V30 2412 H 367.24 8.13738 -3.03804 0
M  V30 2413 H 366.968 6.42974 -2.55559 0
M  V30 2414 H 367.836 8.12139 -0.792866 0
M  V30 2415 H 370.491 5.80178 0.160643 0
M  V30 2416 H 370.771 6.51379 -2.75643 0
M  V30 2417 H 371.762 7.01832 -1.3448 0
M  V30 2418 H 369.928 8.73771 -2.38364 0
M  V30 2419 H 369.887 4.7189 -3.52311 0
M  V30 2420 H 370.268 -0.0721434 -2.82608 0
M  V30 2421 H 370.457 -1.0785 -1.36544 0
M  V30 2422 H 370.565 1.73207 2.10241 0
M  V30 2423 P 371.798 8.91 1.81197e-12 0
M  V30 2424 O 372.018 10.1726 0.733694 0
M  V30 2425 O 372.588 8.73148 -1.23936 0
M  V30 2426 O 372.048 7.66872 0.971405 0
M  V30 2427 C 371.108 7.42309 2.04641 0
M  V30 2428 C 371.838 6.86059 3.24661 0
M  V30 2429 O 372.048 5.42847 3.03646 0
M  V30 2430 C 373.238 7.41196 3.50753 0
M  V30 2431 O 373.628 7.27073 4.86816 0
M  V30 2432 C 374.118 6.5273 2.63741 0
M  V30 2433 C 373.408 5.1842 2.73198 0
M  V30 2434 N 373.458 4.38762 1.4784 0
M  V30 2435 H 370.619 8.36803 2.32493 0
M  V30 2436 H 370.349 6.70197 1.71129 0
M  V30 2437 H 371.216 7.03551 4.13168 0
M  V30 2438 P 375.178 7.20834 5.23717 0
M  V30 2439 O 375.398 7.79853 6.57286 0
M  V30 2440 O 375.968 7.79239 4.12957 0
M  V30 2441 O 375.428 5.63315 5.29344 0
M  V30 2442 C 374.488 4.80255 6.01876 0
M  V30 2443 C 375.218 3.64202 6.65911 0
M  V30 2444 O 375.428 2.60694 5.64732 0
M  V30 2445 C 376.618 3.93473 7.1943 0
M  V30 2446 O 377.008 3.02071 8.21205 0
M  V30 2447 C 377.498 3.73047 5.97036 0
M  V30 2448 C 376.788 2.58828 5.25741 0
M  V30 2449 N 376.838 2.68068 3.77503 0
M  V30 2450 H 373.999 5.40332 6.79951 0
M  V30 2451 H 373.729 4.41613 5.32378 0
M  V30 2452 H 374.596 3.26331 7.47797 0
M  V30 2453 P 378.558 2.75334 8.47391 0
M  V30 2454 O 378.778 2.44571 9.90142 0
M  V30 2455 O 379.348 3.87688 7.92115 0
M  V30 2456 O 378.808 1.4459 7.59357 0
M  V30 2457 C 377.868 0.347608 7.69215 0
M  V30 2458 C 378.598 -0.96767 7.52806 0
M  V30 2459 O 378.808 -1.21036 6.1011 0
M  V30 2460 C 379.998 -1.04544 8.13308 0
M  V30 2461 O 380.388 -2.38311 8.41922 0
M  V30 2462 C 380.878 -0.491279 7.02284 0
M  V30 2463 C 380.168 -0.996264 5.77469 0
M  V30 2464 N 380.218 -0.0501916 4.62973 0
M  V30 2465 H 377.379 0.374722 8.67691 0
M  V30 2466 H 377.109 0.443485 6.90277 0
M  V30 2467 H 377.976 -1.75537 7.96793 0
M  V30 2468 P 381.938 -2.75334 8.47391 0
M  V30 2469 O 382.158 -3.84128 9.44797 0
M  V30 2470 O 382.728 -1.51947 8.68712 0
M  V30 2471 O 382.188 -3.29363 6.99321 0
M  V30 2472 C 381.248 -4.24011 6.4274 0
M  V30 2473 C 381.978 -5.20775 5.52155 0
M  V30 2474 O 382.188 -4.56534 4.22446 0
M  V30 2475 C 383.378 -5.62629 5.96531 0
M  V30 2476 O 383.768 -6.87667 5.41053 0
M  V30 2477 C 384.258 -4.52537 5.39283 0
M  V30 2478 C 383.548 -4.20027 4.08623 0
M  V30 2479 N 383.598 -2.76189 3.71603 0
M  V30 2480 C 383.518 -1.64862 4.52822 0
M  V30 2481 N 383.598 -0.512671 3.88633 0
M  V30 2482 C 383.738 -0.888083 2.54977 0
M  V30 2483 C 383.868 -0.094668 1.38677 0
M  V30 2484 O 383.888 1.13053 1.28163 0
M  V30 2485 N 383.988 -0.890102 0.232633 0
M  V30 2486 C 383.988 -2.26958 0.21772 0
M  V30 2487 N 384.118 -2.84626 -0.97925 0
M  V30 2488 N 383.858 -3.0178 1.31033 0
M  V30 2489 C 383.738 -2.26781 2.43843 0
M  V30 2490 H 380.759 -4.797 7.24003 0
M  V30 2491 H 380.489 -3.69856 5.84513 0
M  V30 2492 H 381.356 -6.10356 5.41441 0
M  V30 2493 H 384.011 -4.79061 3.27488 0
M  V30 2494 H 384.29 -3.64906 6.05785 0
M  V30 2495 H 385.282 -4.8868 5.2125 0
M  V30 2496 H 383.448 -5.66726 7.06352 0
M  V30 2497 H 383.399 -1.71169 5.60966 0
M  V30 2498 H 384.081 -0.419134 -0.644739 0
M  V30 2499 H 384.118 -3.87332 -1.06098 0
M  V30 2500 H 384.219 -2.26417 -1.82483 0
M  V30 2501 P 385.318 -7.20834 5.23717 0
M  V30 2502 O 385.538 -8.66189 5.38625 0
M  V30 2503 O 386.108 -6.33615 6.1356 0
M  V30 2504 O 385.568 -6.7751 3.72168 0
M  V30 2505 C 384.628 -7.20732 2.70725 0
M  V30 2506 C 385.358 -7.45864 1.40599 0
M  V30 2507 O 385.568 -6.17651 0.734225 0
M  V30 2508 C 386.758 -8.05808 1.51899 0
M  V30 2509 O 387.148 -8.74358 0.335205 0
M  V30 2510 C 387.638 -6.83093 1.70294 0
M  V30 2511 C 386.928 -5.79992 0.836974 0
M  V30 2512 N 386.978 -4.41769 1.38263 0
M  V30 2513 C 387.128 -3.38591 0.481702 0
M  V30 2514 O 387.218 -3.56839 -0.718452 0
M  V30 2515 N 387.168 -2.1206 1.03569 0
M  V30 2516 C 387.078 -1.80696 2.36966 0
M  V30 2517 O 387.128 -0.630473 2.74862 0
M  V30 2518 C 386.928 -2.94845 3.23898 0
M  V30 2519 C 386.818 -2.65253 4.70362 0
M  V30 2520 C 386.878 -4.19803 2.73435 0
M  V30 2521 H 384.138 -8.13644 3.0377 0
M  V30 2522 H 383.869 -6.42695 2.55448 0
M  V30 2523 H 384.736 -8.12039 0.792769 0
M  V30 2524 H 387.391 -5.79978 -0.160587 0
M  V30 2525 H 387.67 -6.51379 2.75643 0
M  V30 2526 H 388.662 -7.01734 1.34462 0
M  V30 2527 H 386.828 -8.73674 2.38337 0
M  V30 2528 H 386.757 -5.04492 3.4095 0
M  V30 2529 H 387.787 -2.83924 5.1913 0
M  V30 2530 H 386.05 -3.29824 5.15163 0
M  V30 2531 H 386.538 -1.59723 4.84449 0
M  V30 2532 H 387.274 -1.35644 0.399345 0
M  V30 2533 P 388.698 -8.91 -1.96915e-12 0
M  V30 2534 O 388.918 -10.1726 -0.733694 0
M  V30 2535 O 389.488 -8.73148 1.23936 0
M  V30 2536 O 388.948 -7.66872 -0.971405 0
M  V30 2537 C 388.008 -7.42309 -2.04641 0
M  V30 2538 C 388.738 -6.86059 -3.24661 0
M  V30 2539 O 388.948 -5.42847 -3.03646 0
M  V30 2540 C 390.138 -7.41196 -3.50753 0
M  V30 2541 O 390.528 -7.27073 -4.86816 0
M  V30 2542 C 391.018 -6.5273 -2.63741 0
M  V30 2543 C 390.308 -5.1842 -2.73198 0
M  V30 2544 N 390.358 -4.38762 -1.4784 0
M  V30 2545 H 387.519 -8.36803 -2.32493 0
M  V30 2546 H 387.249 -6.70197 -1.71129 0
M  V30 2547 H 388.116 -7.03551 -4.13168 0
M  V30 2548 P 392.078 -7.20834 -5.23717 0
M  V30 2549 O 392.298 -7.79853 -6.57286 0
M  V30 2550 O 392.868 -7.79239 -4.12957 0
M  V30 2551 O 392.328 -5.63315 -5.29344 0
M  V30 2552 C 391.388 -4.80255 -6.01876 0
M  V30 2553 C 392.118 -3.64202 -6.65911 0
M  V30 2554 O 392.328 -2.60694 -5.64732 0
M  V30 2555 C 393.518 -3.93473 -7.1943 0
M  V30 2556 O 393.908 -3.02071 -8.21205 0
M  V30 2557 C 394.398 -3.73047 -5.97036 0
M  V30 2558 C 393.688 -2.58828 -5.25741 0
M  V30 2559 N 393.738 -2.68068 -3.77503 0
M  V30 2560 H 390.899 -5.40332 -6.79951 0
M  V30 2561 H 390.629 -4.41613 -5.32378 0
M  V30 2562 H 391.496 -3.26331 -7.47797 0
M  V30 2563 H 393.777 -2.12276 -7.9008 0
M  V30 2564 H 397.799 5.66378 7.64073 0
M  V30 2565 O 397.679 5.84357 6.71818 0
M  V30 2566 P 396.238 6.144 6.45285 0
M  V30 2567 O 396.018 7.54673 6.86199 0
M  V30 2568 O 395.448 5.12391 7.179 0
M  V30 2569 O 395.988 5.99158 4.88404 0
M  V30 2570 C 396.928 6.60234 3.96415 0
M  V30 2571 C 396.198 7.08259 2.72856 0
M  V30 2572 O 395.988 5.9427 1.83651 0
M  V30 2573 C 394.798 7.64886 2.9555 0
M  V30 2574 O 394.408 8.53963 1.90717 0
M  V30 2575 C 393.918 6.4116 2.90739 0
M  V30 2576 C 394.628 5.55375 1.86963 0
M  V30 2577 N 394.578 4.09448 2.16152 0
M  V30 2578 H 397.417 7.45574 4.45629 0
M  V30 2579 H 397.689 5.85864 3.679 0
M  V30 2580 H 396.821 7.84412 2.24479 0
M  V30 2581 H 394.166 5.73457 0.888562 0
M  V30 2582 H 393.886 5.90877 3.88583 0
M  V30 2583 H 392.895 6.6596 2.58858 0
M  V30 2584 H 394.729 8.16339 3.92049 0
M  V30 2585 P 392.858 8.7635 1.60911 0
M  V30 2586 O 392.638 10.1388 1.11561 0
M  V30 2587 O 392.068 8.36503 2.79617 0
M  V30 2588 O 392.608 7.71806 0.42951 0
M  V30 2589 C 393.548 7.67148 -0.673689 0
M  V30 2590 C 392.818 7.33374 -1.95559 0
M  V30 2591 O 392.608 5.88721 -2.00726 0
M  V30 2592 C 391.418 7.92526 -2.10483 0
M  V30 2593 O 391.028 8.02971 -3.47653 0
M  V30 2594 C 390.538 6.89602 -1.41652 0
M  V30 2595 C 391.248 5.59201 -1.75185 0
M  V30 2596 N 391.198 4.58235 -0.662552 0
M  V30 2597 H 394.037 8.65116 -0.777161 0
M  V30 2598 H 394.309 6.90173 -0.474152 0
M  V30 2599 H 393.441 7.66548 -2.79458 0
M  V30 2600 P 389.478 8.03563 -3.84925 0
M  V30 2601 O 389.258 8.85821 -5.0569 0
M  V30 2602 O 388.688 8.41101 -2.65469 0
M  V30 2603 O 389.228 6.4965 -4.18908 0
M  V30 2604 C 390.168 5.81037 -5.05421 0
M  V30 2605 C 389.438 4.78366 -5.89277 0
M  V30 2606 O 389.228 3.58302 -5.08433 0
M  V30 2607 C 388.038 5.17448 -6.36119 0
M  V30 2608 O 387.648 4.45271 -7.53232 0
M  V30 2609 C 387.158 4.74639 -5.19936 0
M  V30 2610 C 387.868 3.49432 -4.70418 0
M  V30 2611 N 387.818 3.32099 -3.22613 0
M  V30 2612 C 387.898 4.28245 -2.25527 0
M  V30 2613 N 387.828 3.80823 -1.04874 0
M  V30 2614 C 387.678 2.44571 -1.23535 0
M  V30 2615 C 387.548 1.37068 -0.330675 0
M  V30 2616 N 387.538 1.51472 0.990824 0
M  V30 2617 N 387.428 0.138614 -0.848756 0
M  V30 2618 C 387.438 -0.00675923 -2.16999 0
M  V30 2619 N 387.558 0.904372 -3.11122 0
M  V30 2620 C 387.678 2.12707 -2.56212 0
M  V30 2621 H 390.657 6.54213 -5.71376 0
M  V30 2622 H 390.929 5.30936 -4.43503 0
M  V30 2623 H 390.061 4.55889 -6.76652 0
M  V30 2624 H 387.406 2.61715 -5.17932 0
M  V30 2625 H 387.126 5.52155 -4.41878 0
M  V30 2626 H 386.135 4.51981 -5.53374 0
M  V30 2627 H 387.969 6.25124 -6.55234 0
M  V30 2628 H 388.01 5.34372 -2.47488 0
M  V30 2629 H 387.629 2.45153 1.4078 0
M  V30 2630 H 387.44 0.688422 1.59911 0
M  V30 2631 H 387.332 -1.02584 -2.52346 0
M  V30 2632 P 386.098 4.23843 -7.83734 0
M  V30 2633 O 385.878 4.19407 -9.29784 0
M  V30 2634 O 385.308 5.24426 -7.09156 0
M  V30 2635 O 385.848 2.79386 -7.20852 0
M  V30 2636 C 386.788 1.7299 -7.50419 0
M  V30 2637 C 386.058 0.41401 -7.5797 0
M  V30 2638 O 385.848 -0.089787 -6.22035 0
M  V30 2639 C 384.658 0.447224 -8.1878 0
M  V30 2640 O 384.268 -0.825159 -8.71201 0
M  V30 2641 C 383.778 0.783801 -6.99623 0
M  V30 2642 C 384.488 0.0619192 -5.85967 0
M  V30 2643 N 384.438 0.7859 -4.56281 0
M  V30 2644 C 384.288 0.0359258 -3.39981 0
M  V30 2645 O 384.198 -1.19723 -3.49038 0
M  V30 2646 N 384.238 0.869151 -2.14025 0
M  V30 2647 C 384.338 2.01207 -2.14363 0
M  V30 2648 N 384.288 2.58978 -0.954287 0
M  V30 2649 C 384.488 2.80817 -3.32215 0
M  V30 2650 C 384.538 2.13785 -4.50884 0
M  V30 2651 H 387.278 1.93401 -8.46693 0
M  V30 2652 H 387.548 1.68181 -6.71046 0
M  V30 2653 H 386.681 -0.289076 -8.15488 0
M  V30 2654 H 384.026 -0.927166 -5.72947 0
M  V30 2655 H 383.746 1.87 -6.82132 0
M  V30 2656 H 382.755 0.404009 -7.13457 0
M  V30 2657 H 384.589 1.20599 -8.97534 0
M  V30 2658 H 384.661 2.70295 -5.43162 0
M  V30 2659 H 384.559 3.89465 -3.27406 0
M  V30 2660 H 384.171 2.01616 -0.107046 0
M  V30 2661 H 384.367 3.61403 -0.873101 0
M  V30 2662 P 382.718 -1.17771 -8.83182 0
M  V30 2663 O 382.498 -2.07206 -9.98732 0
M  V30 2664 O 381.928 0.0743816 -8.81969 0
M  V30 2665 O 382.468 -1.97652 -7.47304 0
M  V30 2666 C 383.408 -3.01133 -7.08783 0
M  V30 2667 C 382.678 -4.12613 -6.37049 0
M  V30 2668 O 382.468 -3.72827 -4.97879 0
M  V30 2669 C 381.278 -4.45085 -6.88694 0
M  V30 2670 O 380.888 -5.7877 -6.5624 0
M  V30 2671 C 380.398 -3.47817 -6.12078 0
M  V30 2672 C 381.108 -3.39414 -4.77697 0
M  V30 2673 N 381.058 -2.04615 -4.15333 0
M  V30 2674 H 383.897 -3.41248 -7.98759 0
M  V30 2675 H 384.169 -2.5837 -6.41742 0
M  V30 2676 H 383.301 -5.02657 -6.42673 0
M  V30 2677 P 379.338 -6.144 -6.45285 0
M  V30 2678 O 379.118 -7.54673 -6.86199 0
M  V30 2679 O 378.548 -5.12391 -7.179 0
M  V30 2680 O 379.088 -5.99158 -4.88404 0
M  V30 2681 C 380.028 -6.60234 -3.96415 0
M  V30 2682 C 379.298 -7.08259 -2.72856 0
M  V30 2683 O 379.088 -5.9427 -1.83651 0
M  V30 2684 C 377.898 -7.64886 -2.9555 0
M  V30 2685 O 377.508 -8.53963 -1.90717 0
M  V30 2686 C 377.018 -6.4116 -2.90739 0
M  V30 2687 C 377.728 -5.55375 -1.86963 0
M  V30 2688 N 377.678 -4.09664 -2.15742 0
M  V30 2689 H 380.517 -7.45574 -4.45629 0
M  V30 2690 H 380.789 -5.86232 -3.67314 0
M  V30 2691 H 379.921 -7.84412 -2.24479 0
M  V30 2692 P 375.958 -8.7635 -1.60911 0
M  V30 2693 O 375.738 -10.1388 -1.11561 0
M  V30 2694 O 375.168 -8.36503 -2.79617 0
M  V30 2695 O 375.708 -7.71806 -0.42951 0
M  V30 2696 C 376.648 -7.67148 0.673689 0
M  V30 2697 C 375.918 -7.33374 1.95559 0
M  V30 2698 O 375.708 -5.88721 2.00726 0
M  V30 2699 C 374.518 -7.92526 2.10483 0
M  V30 2700 O 374.128 -8.02971 3.47653 0
M  V30 2701 C 373.638 -6.89602 1.41652 0
M  V30 2702 C 374.348 -5.59201 1.75185 0
M  V30 2703 N 374.298 -4.58235 0.662552 0
M  V30 2704 H 377.137 -8.65116 0.777161 0
M  V30 2705 H 377.409 -6.90173 0.474152 0
M  V30 2706 H 376.541 -7.66548 2.79458 0
M  V30 2707 P 372.578 -8.03563 3.84925 0
M  V30 2708 O 372.358 -8.85821 5.0569 0
M  V30 2709 O 371.788 -8.41101 2.65469 0
M  V30 2710 O 372.328 -6.4965 4.18908 0
M  V30 2711 C 373.268 -5.80886 5.05289 0
M  V30 2712 C 372.538 -4.78366 5.89277 0
M  V30 2713 O 372.328 -3.58302 5.08433 0
M  V30 2714 C 371.138 -5.16748 6.36559 0
M  V30 2715 O 370.748 -4.45271 7.53232 0
M  V30 2716 C 370.258 -4.74572 5.19863 0
M  V30 2717 C 370.968 -3.49373 4.70338 0
M  V30 2718 N 370.918 -3.31704 3.22876 0
M  V30 2719 C 370.768 -2.03326 2.74871 0
M  V30 2720 O 370.678 -1.06486 3.48076 0
M  V30 2721 N 370.728 -1.91838 1.37456 0
M  V30 2722 C 370.818 -2.94295 0.462035 0
M  V30 2723 O 370.768 -2.71763 -0.752928 0
M  V30 2724 C 370.968 -4.25064 1.05249 0
M  V30 2725 C 371.078 -5.39815 0.095697 0
M  V30 2726 C 371.018 -4.40214 2.39192 0
M  V30 2727 H 373.759 -6.54063 5.71245 0
M  V30 2728 H 374.028 -5.30339 4.43905 0
M  V30 2729 H 373.161 -4.55889 6.76652 0
M  V30 2730 H 370.506 -2.6167 5.17842 0
M  V30 2731 H 370.227 -5.52155 4.41878 0
M  V30 2732 H 369.235 -4.51918 5.53297 0
M  V30 2733 H 371.069 -6.25055 6.55162 0
M  V30 2734 H 371.14 -5.39798 2.81523 0
M  V30 2735 H 370.11 -5.91593 0.0279582 0
M  V30 2736 H 371.847 -6.10038 0.450573 0
M  V30 2737 H 371.359 -5.02007 -0.89937 0
M  V30 2738 H 370.623 -0.995326 1.00435 0
M  V30 2739 P 369.198 -4.23843 7.83734 0
M  V30 2740 O 368.978 -4.19407 9.29784 0
M  V30 2741 O 368.408 -5.24426 7.09156 0
M  V30 2742 O 368.948 -2.7935 7.20758 0
M  V30 2743 C 369.888 -1.7299 7.50419 0
M  V30 2744 C 369.158 -0.406376 7.57911 0
M  V30 2745 O 368.948 0.0897726 6.21935 0
M  V30 2746 C 367.758 -0.447224 8.1878 0
M  V30 2747 O 367.368 0.825065 8.71101 0
M  V30 2748 C 366.878 -0.783801 6.99623 0
M  V30 2749 C 367.588 -0.0619192 5.85967 0
M  V30 2750 N 367.538 -0.7859 4.56281 0
M  V30 2751 H 370.377 -1.93423 8.4679 0
M  V30 2752 H 370.649 -1.68181 6.71046 0
M  V30 2753 H 369.781 0.289041 8.15388 0
M  V30 2754 P 365.818 1.17771 8.83182 0
M  V30 2755 O 365.598 2.07206 9.98732 0
M  V30 2756 O 365.028 -0.0743816 8.81969 0
M  V30 2757 O 365.568 1.97652 7.47304 0
M  V30 2758 C 366.508 3.01133 7.08783 0
M  V30 2759 C 365.778 4.12613 6.37049 0
M  V30 2760 O 365.568 3.72827 4.97879 0
M  V30 2761 C 364.378 4.45085 6.88694 0
M  V30 2762 O 363.988 5.7877 6.5624 0
M  V30 2763 C 363.498 3.47817 6.12078 0
M  V30 2764 C 364.208 3.39414 4.77697 0
M  V30 2765 N 364.158 2.04615 4.15333 0
M  V30 2766 H 366.997 3.41248 7.98759 0
M  V30 2767 H 367.269 2.5837 6.41742 0
M  V30 2768 H 366.401 5.02657 6.42673 0
M  V30 2769 P 362.438 6.144 6.45285 0
M  V30 2770 O 362.218 7.54673 6.86199 0
M  V30 2771 O 361.648 5.12391 7.179 0
M  V30 2772 O 362.188 5.99158 4.88404 0
M  V30 2773 C 363.128 6.60234 3.96415 0
M  V30 2774 C 362.398 7.08259 2.72856 0
M  V30 2775 O 362.188 5.9427 1.83651 0
M  V30 2776 C 360.998 7.64886 2.9555 0
M  V30 2777 O 360.608 8.53963 1.90717 0
M  V30 2778 C 360.118 6.4116 2.90739 0
M  V30 2779 C 360.828 5.55375 1.86963 0
M  V30 2780 N 360.778 4.09448 2.16152 0
M  V30 2781 H 363.617 7.45574 4.45629 0
M  V30 2782 H 363.889 5.85864 3.679 0
M  V30 2783 H 363.021 7.84412 2.24479 0
M  V30 2784 H 360.366 5.73457 0.888562 0
M  V30 2785 H 360.086 5.90877 3.88583 0
M  V30 2786 H 359.095 6.6596 2.58858 0
M  V30 2787 H 360.929 8.16339 3.92049 0
M  V30 2788 P 359.058 8.7635 1.60911 0
M  V30 2789 O 358.838 10.1388 1.11561 0
M  V30 2790 O 358.268 8.36503 2.79617 0
M  V30 2791 O 358.808 7.71806 0.42951 0
M  V30 2792 C 359.748 7.67148 -0.673689 0
M  V30 2793 C 359.018 7.33374 -1.95559 0
M  V30 2794 O 358.808 5.88721 -2.00726 0
M  V30 2795 C 357.618 7.92526 -2.10483 0
M  V30 2796 O 357.228 8.02971 -3.47653 0
M  V30 2797 C 356.738 6.89602 -1.41652 0
M  V30 2798 C 357.448 5.59201 -1.75185 0
M  V30 2799 N 357.398 4.58235 -0.662552 0
M  V30 2800 H 360.237 8.65116 -0.777161 0
M  V30 2801 H 360.509 6.90173 -0.474152 0
M  V30 2802 H 359.641 7.66548 -2.79458 0
M  V30 2803 P 355.678 8.03563 -3.84925 0
M  V30 2804 O 355.458 8.85821 -5.0569 0
M  V30 2805 O 354.888 8.41101 -2.65469 0
M  V30 2806 O 355.428 6.4965 -4.18908 0
M  V30 2807 C 356.368 5.80886 -5.05289 0
M  V30 2808 C 355.638 4.78366 -5.89277 0
M  V30 2809 O 355.428 3.58302 -5.08433 0
M  V30 2810 C 354.238 5.16748 -6.36559 0
M  V30 2811 O 353.848 4.45271 -7.53232 0
M  V30 2812 C 353.358 4.74572 -5.19863 0
M  V30 2813 C 354.068 3.49373 -4.70338 0
M  V30 2814 N 354.018 3.31704 -3.22876 0
M  V30 2815 C 353.868 2.03326 -2.74871 0
M  V30 2816 O 353.778 1.06486 -3.48076 0
M  V30 2817 N 353.828 1.91838 -1.37456 0
M  V30 2818 C 353.918 2.94295 -0.462035 0
M  V30 2819 O 353.868 2.71763 0.752928 0
M  V30 2820 C 354.068 4.25064 -1.05249 0
M  V30 2821 C 354.178 5.39815 -0.095697 0
M  V30 2822 C 354.118 4.40214 -2.39192 0
M  V30 2823 H 356.859 6.54063 -5.71245 0
M  V30 2824 H 357.128 5.30339 -4.43905 0
M  V30 2825 H 356.261 4.55889 -6.76652 0
M  V30 2826 H 353.606 2.6167 -5.17842 0
M  V30 2827 H 353.327 5.52155 -4.41878 0
M  V30 2828 H 352.335 4.51918 -5.53297 0
M  V30 2829 H 354.169 6.25055 -6.55162 0
M  V30 2830 H 354.24 5.39798 -2.81523 0
M  V30 2831 H 353.21 5.91593 -0.0279582 0
M  V30 2832 H 354.947 6.10038 -0.450573 0
M  V30 2833 H 354.459 5.02007 0.89937 0
M  V30 2834 H 353.723 0.995326 -1.00435 0
M  V30 2835 P 352.298 4.23843 -7.83734 0
M  V30 2836 O 352.078 4.19407 -9.29784 0
M  V30 2837 O 351.508 5.24426 -7.09156 0
M  V30 2838 O 352.048 2.7935 -7.20758 0
M  V30 2839 C 352.988 1.7299 -7.50419 0
M  V30 2840 C 352.258 0.406376 -7.57911 0
M  V30 2841 O 352.048 -0.0897726 -6.21935 0
M  V30 2842 C 350.858 0.447224 -8.1878 0
M  V30 2843 O 350.468 -0.825065 -8.71101 0
M  V30 2844 C 349.978 0.783801 -6.99623 0
M  V30 2845 C 350.688 0.0619192 -5.85967 0
M  V30 2846 N 350.638 0.7859 -4.56281 0
M  V30 2847 H 353.477 1.93423 -8.4679 0
M  V30 2848 H 353.749 1.68181 -6.71046 0
M  V30 2849 H 352.881 -0.289041 -8.15388 0
M  V30 2850 P 348.918 -1.17771 -8.83182 0
M  V30 2851 O 348.698 -2.07206 -9.98732 0
M  V30 2852 O 348.128 0.0743816 -8.81969 0
M  V30 2853 O 348.668 -1.97652 -7.47304 0
M  V30 2854 C 349.608 -3.01133 -7.08783 0
M  V30 2855 C 348.878 -4.12613 -6.37049 0
M  V30 2856 O 348.668 -3.72827 -4.97879 0
M  V30 2857 C 347.478 -4.45085 -6.88694 0
M  V30 2858 O 347.088 -5.7877 -6.5624 0
M  V30 2859 C 346.598 -3.47817 -6.12078 0
M  V30 2860 C 347.308 -3.39414 -4.77697 0
M  V30 2861 N 347.258 -2.04615 -4.15333 0
M  V30 2862 H 350.097 -3.41248 -7.98759 0
M  V30 2863 H 350.369 -2.5837 -6.41742 0
M  V30 2864 H 349.501 -5.02657 -6.42673 0
M  V30 2865 P 345.538 -6.144 -6.45285 0
M  V30 2866 O 345.318 -7.54673 -6.86199 0
M  V30 2867 O 344.748 -5.12391 -7.179 0
M  V30 2868 O 345.288 -5.99158 -4.88404 0
M  V30 2869 C 346.228 -6.60062 -3.96313 0
M  V30 2870 C 345.498 -7.08259 -2.72856 0
M  V30 2871 O 345.288 -5.9427 -1.83651 0
M  V30 2872 C 344.098 -7.65087 -2.94749 0
M  V30 2873 O 343.708 -8.53963 -1.90717 0
M  V30 2874 C 343.218 -6.41069 -2.90698 0
M  V30 2875 C 343.928 -5.5528 -1.86931 0
M  V30 2876 N 343.878 -4.09575 -2.15696 0
M  V30 2877 C 343.728 -3.24249 -1.08435 0
M  V30 2878 O 343.638 -3.63946 0.0628747 0
M  V30 2879 N 343.688 -1.90009 -1.39973 0
M  V30 2880 C 343.778 -1.34884 -2.65614 0
M  V30 2881 O 343.728 -0.123716 -2.81728 0
M  V30 2882 C 343.928 -2.3145 -3.71736 0
M  V30 2883 C 344.038 -1.75913 -5.10438 0
M  V30 2884 C 343.978 -3.63518 -3.44754 0
M  V30 2885 H 346.719 -7.45402 -4.45526 0
M  V30 2886 H 346.988 -5.86062 -3.67208 0
M  V30 2887 H 346.121 -7.84412 -2.24479 0
M  V30 2888 H 343.466 -5.73358 -0.888409 0
M  V30 2889 H 343.187 -5.90877 -3.88583 0
M  V30 2890 H 342.195 -6.65867 -2.58821 0
M  V30 2891 H 344.029 -8.16248 -3.92006 0
M  V30 2892 H 344.1 -4.34551 -4.26383 0
M  V30 2893 H 343.07 -1.85471 -5.61775 0
M  V30 2894 H 344.807 -2.31364 -5.66257 0
M  V30 2895 H 344.319 -0.695936 -5.05229 0
M  V30 2896 H 343.583 -1.26277 -0.63625 0
M  V30 2897 P 342.158 -8.7635 -1.60911 0
M  V30 2898 O 341.938 -10.1388 -1.11561 0
M  V30 2899 O 341.368 -8.36503 -2.79617 0
M  V30 2900 O 341.908 -7.71806 -0.42951 0
M  V30 2901 C 342.848 -7.67148 0.673689 0
M  V30 2902 C 342.118 -7.33374 1.95559 0
M  V30 2903 O 341.908 -5.88721 2.00726 0
M  V30 2904 C 340.718 -7.92526 2.10483 0
M  V30 2905 O 340.328 -8.02971 3.47653 0
M  V30 2906 C 339.838 -6.89602 1.41652 0
M  V30 2907 C 340.548 -5.59201 1.75185 0
M  V30 2908 N 340.498 -4.58235 0.662552 0
M  V30 2909 H 343.337 -8.65116 0.777161 0
M  V30 2910 H 343.609 -6.90173 0.474152 0
M  V30 2911 H 342.741 -7.66548 2.79458 0
M  V30 2912 P 338.778 -8.03563 3.84925 0
M  V30 2913 O 338.558 -8.85821 5.0569 0
M  V30 2914 O 337.988 -8.41101 2.65469 0
M  V30 2915 O 338.528 -6.4965 4.18908 0
M  V30 2916 C 339.468 -5.81037 5.05421 0
M  V30 2917 C 338.738 -4.78366 5.89277 0
M  V30 2918 O 338.528 -3.58302 5.08433 0
M  V30 2919 C 337.338 -5.17448 6.36119 0
M  V30 2920 O 336.948 -4.45271 7.53232 0
M  V30 2921 C 336.458 -4.74639 5.19936 0
M  V30 2922 C 337.168 -3.49432 4.70418 0
M  V30 2923 N 337.118 -3.32099 3.22613 0
M  V30 2924 H 339.957 -6.54213 5.71376 0
M  V30 2925 H 340.229 -5.30936 4.43503 0
M  V30 2926 H 339.361 -4.55889 6.76652 0
M  V30 2927 H 336.706 -2.61715 5.17932 0
M  V30 2928 H 336.426 -5.52155 4.41878 0
M  V30 2929 H 335.435 -4.51981 5.53374 0
M  V30 2930 H 337.269 -6.25124 6.55234 0
M  V30 2931 P 335.398 -4.23843 7.83734 0
M  V30 2932 O 335.178 -4.19407 9.29784 0
M  V30 2933 O 334.608 -5.24426 7.09156 0
M  V30 2934 O 335.148 -2.7935 7.20758 0
M  V30 2935 C 336.088 -1.7299 7.50419 0
M  V30 2936 C 335.358 -0.406376 7.57911 0
M  V30 2937 O 335.148 0.0897726 6.21935 0
M  V30 2938 C 333.958 -0.447224 8.1878 0
M  V30 2939 O 333.568 0.825065 8.71101 0
M  V30 2940 C 333.078 -0.783801 6.99623 0
M  V30 2941 C 333.788 -0.0619192 5.85967 0
M  V30 2942 N 333.738 -0.7859 4.56281 0
M  V30 2943 H 336.577 -1.93423 8.4679 0
M  V30 2944 H 336.849 -1.68181 6.71046 0
M  V30 2945 H 335.981 0.289041 8.15388 0
M  V30 2946 P 332.018 1.17771 8.83182 0
M  V30 2947 O 331.798 2.07206 9.98732 0
M  V30 2948 O 331.228 -0.0743816 8.81969 0
M  V30 2949 O 331.768 1.97652 7.47304 0
M  V30 2950 C 332.708 3.01133 7.08783 0
M  V30 2951 C 331.978 4.12613 6.37049 0
M  V30 2952 O 331.768 3.72827 4.97879 0
M  V30 2953 C 330.578 4.45085 6.88694 0
M  V30 2954 O 330.188 5.7877 6.5624 0
M  V30 2955 C 329.698 3.47817 6.12078 0
M  V30 2956 C 330.408 3.39414 4.77697 0
M  V30 2957 N 330.358 2.04199 4.15538 0
M  V30 2958 H 333.197 3.41248 7.98759 0
M  V30 2959 H 333.469 2.57728 6.42 0
M  V30 2960 H 332.601 5.02657 6.42673 0
M  V30 2961 H 329.946 4.11708 4.08956 0
M  V30 2962 H 329.666 2.49626 6.61679 0
M  V30 2963 H 328.675 3.8662 6.00862 0
M  V30 2964 H 330.509 4.29991 7.97006 0
M  V30 2965 P 328.638 6.144 6.45285 0
M  V30 2966 O 328.418 7.54673 6.86199 0
M  V30 2967 O 327.848 5.12391 7.179 0
M  V30 2968 O 328.388 5.99158 4.88404 0
M  V30 2969 C 329.328 6.60062 3.96313 0
M  V30 2970 C 328.598 7.08259 2.72856 0
M  V30 2971 O 328.388 5.9427 1.83651 0
M  V30 2972 C 327.198 7.65087 2.94749 0
M  V30 2973 O 326.808 8.53963 1.90717 0
M  V30 2974 C 326.318 6.41069 2.90698 0
M  V30 2975 C 327.028 5.5528 1.86931 0
M  V30 2976 N 326.978 4.09575 2.15696 0
M  V30 2977 C 326.828 3.24249 1.08435 0
M  V30 2978 O 326.738 3.63946 -0.0628747 0
M  V30 2979 N 326.788 1.90009 1.39973 0
M  V30 2980 C 326.878 1.34884 2.65614 0
M  V30 2981 C 327.028 2.3145 3.71736 0
M  V30 2982 C 327.078 3.63518 3.44754 0
M  V30 2983 H 329.819 7.45402 4.45526 0
M  V30 2984 H 330.088 5.86062 3.67208 0
M  V30 2985 H 329.221 7.84412 2.24479 0
M  V30 2986 H 326.566 5.73358 0.888409 0
M  V30 2987 H 326.287 5.90877 3.88583 0
M  V30 2988 H 325.295 6.65867 2.58821 0
M  V30 2989 H 327.129 8.16248 3.92006 0
M  V30 2990 H 327.2 4.34551 4.26383 0
M  V30 2991 P 325.258 8.7635 1.60911 0
M  V30 2992 O 325.038 10.1388 1.11561 0
M  V30 2993 O 324.468 8.36503 2.79617 0
M  V30 2994 O 325.008 7.71806 0.42951 0
M  V30 2995 C 325.948 7.66948 -0.673514 0
M  V30 2996 C 325.218 7.33374 -1.95559 0
M  V30 2997 O 325.008 5.88721 -2.00726 0
M  V30 2998 C 323.818 7.92218 -2.1125 0
M  V30 2999 O 323.428 8.02971 -3.47653 0
M  V30 3000 C 322.938 6.89504 -1.41631 0
M  V30 3001 C 323.648 5.59106 -1.75155 0
M  V30 3002 N 323.598 4.58136 -0.662409 0
M  V30 3003 C 323.448 3.26059 -1.02863 0
M  V30 3004 O 323.358 2.90743 -2.19009 0
M  V30 3005 N 323.408 2.35995 0.0155585 0
M  V30 3006 C 323.498 2.65248 1.35603 0
M  V30 3007 C 323.648 4.05747 1.64698 0
M  V30 3008 C 323.698 4.96734 0.652411 0
M  V30 3009 H 326.439 8.64917 -0.776982 0
M  V30 3010 H 326.708 6.89974 -0.474015 0
M  V30 3011 H 325.841 7.66548 -2.79458 0
M  V30 3012 H 323.186 5.16076 -2.65138 0
M  V30 3013 H 322.907 7.06433 -0.329384 0
M  V30 3014 H 321.915 6.90829 -1.81996 0
M  V30 3015 H 323.749 8.90774 -1.62639 0
M  V30 3016 H 323.82 6.02181 0.895285 0
M  V30 3017 P 321.878 8.03563 -3.84925 0
M  V30 3018 O 321.658 8.85821 -5.0569 0
M  V30 3019 O 321.088 8.41101 -2.65469 0
M  V30 3020 O 321.628 6.4965 -4.18908 0
M  V30 3021 C 322.568 5.81037 -5.05421 0
M  V30 3022 C 321.838 4.78366 -5.89277 0
M  V30 3023 O 321.628 3.58302 -5.08433 0
M  V30 3024 C 320.438 5.17448 -6.36119 0
M  V30 3025 O 320.048 4.45271 -7.53232 0
M  V30 3026 C 319.558 4.74639 -5.19936 0
M  V30 3027 C 320.268 3.49432 -4.70418 0
M  V30 3028 N 320.218 3.31776 -3.22945 0
M  V30 3029 H 323.057 6.54213 -5.71376 0
M  V30 3030 H 323.329 5.30492 -4.44033 0
M  V30 3031 H 322.461 4.55889 -6.76652 0
M  V30 3032 P 318.498 4.23843 -7.83734 0
M  V30 3033 O 318.278 4.19407 -9.29784 0
M  V30 3034 O 317.708 5.24426 -7.09156 0
M  V30 3035 O 318.248 2.7935 -7.20758 0
M  V30 3036 C 319.188 1.7299 -7.50419 0
M  V30 3037 C 318.458 0.406376 -7.57911 0
M  V30 3038 O 318.248 -0.0897726 -6.21935 0
M  V30 3039 C 317.058 0.447224 -8.1878 0
M  V30 3040 O 316.668 -0.825065 -8.71101 0
M  V30 3041 C 316.178 0.783801 -6.99623 0
M  V30 3042 C 316.888 0.0619192 -5.85967 0
M  V30 3043 N 316.838 0.7859 -4.56281 0
M  V30 3044 H 319.677 1.93423 -8.4679 0
M  V30 3045 H 319.949 1.68181 -6.71046 0
M  V30 3046 H 319.081 -0.289041 -8.15388 0
M  V30 3047 P 315.118 -1.17771 -8.83182 0
M  V30 3048 O 314.898 -2.07206 -9.98732 0
M  V30 3049 O 314.328 0.0743816 -8.81969 0
M  V30 3050 O 314.868 -1.97652 -7.47304 0
M  V30 3051 C 315.808 -3.01133 -7.08783 0
M  V30 3052 C 315.078 -4.12613 -6.37049 0
M  V30 3053 O 314.868 -3.72827 -4.97879 0
M  V30 3054 C 313.678 -4.45085 -6.88694 0
M  V30 3055 O 313.288 -5.7877 -6.5624 0
M  V30 3056 C 312.798 -3.47817 -6.12078 0
M  V30 3057 C 313.508 -3.39414 -4.77697 0
M  V30 3058 N 313.458 -2.04199 -4.15538 0
M  V30 3059 C 313.538 -0.821545 -4.76977 0
M  V30 3060 N 313.468 0.1794 -3.94592 0
M  V30 3061 C 313.318 -0.419121 -2.70776 0
M  V30 3062 C 313.188 0.109072 -1.40577 0
M  V30 3063 N 313.178 1.4104 -1.1344 0
M  V30 3064 N 313.068 -0.764381 -0.39411 0
M  V30 3065 C 313.078 -2.06587 -0.664135 0
M  V30 3066 N 313.198 -2.67948 -1.82153 0
M  V30 3067 C 313.318 -1.77942 -2.8147 0
M  V30 3068 H 316.297 -3.41248 -7.98759 0
M  V30 3069 H 316.569 -2.57728 -6.42 0
M  V30 3070 H 315.701 -5.02657 -6.42673 0
M  V30 3071 H 313.046 -4.11708 -4.08956 0
M  V30 3072 H 312.766 -2.49626 -6.61679 0
M  V30 3073 H 311.775 -3.8662 -6.00862 0
M  V30 3074 H 313.609 -4.29991 -7.97006 0
M  V30 3075 H 313.65 -0.702451 -5.84696 0
M  V30 3076 H 313.269 2.09647 -1.89651 0
M  V30 3077 H 313.08 1.73358 -0.160575 0
M  V30 3078 H 312.972 -2.71695 0.195838 0
M  V30 3079 P 311.738 -6.144 -6.45285 0
M  V30 3080 O 311.518 -7.54673 -6.86199 0
M  V30 3081 O 310.948 -5.12391 -7.179 0
M  V30 3082 O 311.488 -5.99158 -4.88404 0
M  V30 3083 C 312.428 -6.60234 -3.96415 0
M  V30 3084 C 311.698 -7.08259 -2.72856 0
M  V30 3085 O 311.488 -5.9427 -1.83651 0
M  V30 3086 C 310.298 -7.64886 -2.9555 0
M  V30 3087 O 309.908 -8.53963 -1.90717 0
M  V30 3088 C 309.418 -6.4116 -2.90739 0
M  V30 3089 C 310.128 -5.55375 -1.86963 0
M  V30 3090 N 310.078 -4.09448 -2.16152 0
M  V30 3091 H 312.917 -7.45574 -4.45629 0
M  V30 3092 H 313.189 -5.85864 -3.679 0
M  V30 3093 H 312.321 -7.84412 -2.24479 0
M  V30 3094 H 309.666 -5.73457 -0.888562 0
M  V30 3095 H 309.386 -5.90877 -3.88583 0
M  V30 3096 H 308.395 -6.6596 -2.58858 0
M  V30 3097 H 310.229 -8.16339 -3.92049 0
M  V30 3098 P 308.358 -8.7635 -1.60911 0
M  V30 3099 O 308.138 -10.1388 -1.11561 0
M  V30 3100 O 307.568 -8.36503 -2.79617 0
M  V30 3101 O 308.108 -7.71806 -0.42951 0
M  V30 3102 C 309.048 -7.66948 0.673514 0
M  V30 3103 C 308.318 -7.33374 1.95559 0
M  V30 3104 O 308.108 -5.88721 2.00726 0
M  V30 3105 C 306.918 -7.92218 2.1125 0
M  V30 3106 O 306.528 -8.02971 3.47653 0
M  V30 3107 C 306.038 -6.89504 1.41631 0
M  V30 3108 C 306.748 -5.59106 1.75155 0
M  V30 3109 N 306.698 -4.58136 0.662409 0
M  V30 3110 C 306.548 -3.26059 1.02863 0
M  V30 3111 O 306.458 -2.90743 2.19009 0
M  V30 3112 N 306.508 -2.35995 -0.0155585 0
M  V30 3113 C 306.598 -2.65248 -1.35603 0
M  V30 3114 C 306.748 -4.05747 -1.64698 0
M  V30 3115 C 306.798 -4.96734 -0.652411 0
M  V30 3116 H 309.539 -8.64917 0.776982 0
M  V30 3117 H 309.808 -6.89974 0.474015 0
M  V30 3118 H 308.941 -7.66548 2.79458 0
M  V30 3119 H 306.286 -5.16076 2.65138 0
M  V30 3120 H 306.007 -7.06433 0.329384 0
M  V30 3121 H 305.015 -6.90829 1.81996 0
M  V30 3122 H 306.849 -8.90774 1.62639 0
M  V30 3123 H 306.92 -6.02181 -0.895285 0
M  V30 3124 P 304.978 -8.03563 3.84925 0
M  V30 3125 O 304.758 -8.85821 5.0569 0
M  V30 3126 O 304.188 -8.41101 2.65469 0
M  V30 3127 O 304.728 -6.4965 4.18908 0
M  V30 3128 C 305.668 -5.81037 5.05421 0
M  V30 3129 C 304.938 -4.78366 5.89277 0
M  V30 3130 O 304.728 -3.58302 5.08433 0
M  V30 3131 C 303.538 -5.17448 6.36119 0
M  V30 3132 O 303.148 -4.45271 7.53232 0
M  V30 3133 C 302.658 -4.74639 5.19936 0
M  V30 3134 C 303.368 -3.49432 4.70418 0
M  V30 3135 N 303.318 -3.32099 3.22613 0
M  V30 3136 H 306.157 -6.54213 5.71376 0
M  V30 3137 H 306.429 -5.30936 4.43503 0
M  V30 3138 H 305.561 -4.55889 6.76652 0
M  V30 3139 H 302.906 -2.61715 5.17932 0
M  V30 3140 H 302.626 -5.52155 4.41878 0
M  V30 3141 H 301.635 -4.51981 5.53374 0
M  V30 3142 H 303.469 -6.25124 6.55234 0
M  V30 3143 P 301.598 -4.23843 7.83734 0
M  V30 3144 O 301.378 -4.19407 9.29784 0
M  V30 3145 O 300.808 -5.24426 7.09156 0
M  V30 3146 O 301.348 -2.79386 7.20852 0
M  V30 3147 C 302.288 -1.7299 7.50419 0
M  V30 3148 C 301.558 -0.41401 7.5797 0
M  V30 3149 O 301.348 0.089787 6.22035 0
M  V30 3150 C 300.158 -0.447224 8.1878 0
M  V30 3151 O 299.768 0.825159 8.71201 0
M  V30 3152 C 299.278 -0.783801 6.99623 0
M  V30 3153 C 299.988 -0.0619192 5.85967 0
M  V30 3154 N 299.938 -0.7859 4.56281 0
M  V30 3155 C 299.788 -0.0359258 3.39981 0
M  V30 3156 O 299.698 1.19723 3.49038 0
M  V30 3157 N 299.738 -0.869151 2.14025 0
M  V30 3158 C 299.838 -2.01207 2.14363 0
M  V30 3159 N 299.788 -2.58978 0.954287 0
M  V30 3160 C 299.988 -2.80817 3.32215 0
M  V30 3161 C 300.038 -2.13785 4.50884 0
M  V30 3162 H 302.778 -1.93401 8.46693 0
M  V30 3163 H 303.048 -1.68181 6.71046 0
M  V30 3164 H 302.181 0.289076 8.15488 0
M  V30 3165 H 299.526 0.927166 5.72947 0
M  V30 3166 H 299.246 -1.87 6.82132 0
M  V30 3167 H 298.255 -0.404009 7.13457 0
M  V30 3168 H 300.089 -1.20599 8.97534 0
M  V30 3169 H 300.161 -2.70295 5.43162 0
M  V30 3170 H 300.059 -3.89465 3.27406 0
M  V30 3171 H 299.671 -2.01616 0.107046 0
M  V30 3172 H 299.867 -3.61403 0.873101 0
M  V30 3173 P 298.218 1.17771 8.83182 0
M  V30 3174 O 297.998 2.07206 9.98732 0
M  V30 3175 O 297.428 -0.0743816 8.81969 0
M  V30 3176 O 297.968 1.97652 7.47304 0
M  V30 3177 C 298.908 3.01133 7.08783 0
M  V30 3178 C 298.178 4.12613 6.37049 0
M  V30 3179 O 297.968 3.72827 4.97879 0
M  V30 3180 C 296.778 4.45085 6.88694 0
M  V30 3181 O 296.388 5.7877 6.5624 0
M  V30 3182 C 295.898 3.47817 6.12078 0
M  V30 3183 C 296.608 3.39414 4.77697 0
M  V30 3184 N 296.558 2.04615 4.15333 0
M  V30 3185 H 299.397 3.41248 7.98759 0
M  V30 3186 H 299.669 2.5837 6.41742 0
M  V30 3187 H 298.801 5.02657 6.42673 0
M  V30 3188 P 294.838 6.144 6.45285 0
M  V30 3189 O 294.618 7.54673 6.86199 0
M  V30 3190 O 294.048 5.12391 7.179 0
M  V30 3191 O 294.588 5.99158 4.88404 0
M  V30 3192 C 295.528 6.60234 3.96415 0
M  V30 3193 C 294.798 7.08259 2.72856 0
M  V30 3194 O 294.588 5.9427 1.83651 0
M  V30 3195 C 293.398 7.64886 2.9555 0
M  V30 3196 O 293.008 8.53963 1.90717 0
M  V30 3197 C 292.518 6.4116 2.90739 0
M  V30 3198 C 293.228 5.55375 1.86963 0
M  V30 3199 N 293.178 4.09664 2.15742 0
M  V30 3200 H 296.017 7.45574 4.45629 0
M  V30 3201 H 296.289 5.86232 3.67314 0
M  V30 3202 H 295.421 7.84412 2.24479 0
M  V30 3203 P 291.458 8.7635 1.60911 0
M  V30 3204 O 291.238 10.1388 1.11561 0
M  V30 3205 O 290.668 8.36503 2.79617 0
M  V30 3206 O 291.208 7.71806 0.42951 0
M  V30 3207 C 292.148 7.66948 -0.673514 0
M  V30 3208 C 291.418 7.33374 -1.95559 0
M  V30 3209 O 291.208 5.88721 -2.00726 0
M  V30 3210 C 290.018 7.92218 -2.1125 0
M  V30 3211 O 289.628 8.02971 -3.47653 0
M  V30 3212 C 289.138 6.89504 -1.41631 0
M  V30 3213 C 289.848 5.59106 -1.75155 0
M  V30 3214 N 289.798 4.58136 -0.662409 0
M  V30 3215 C 289.648 3.26059 -1.02863 0
M  V30 3216 O 289.558 2.90743 -2.19009 0
M  V30 3217 N 289.608 2.35995 0.0155585 0
M  V30 3218 C 289.698 2.65248 1.35603 0
M  V30 3219 O 289.648 1.75605 2.20651 0
M  V30 3220 C 289.848 4.05747 1.64698 0
M  V30 3221 C 289.958 4.42345 3.09553 0
M  V30 3222 C 289.898 4.96734 0.652411 0
M  V30 3223 H 292.639 8.64917 -0.776982 0
M  V30 3224 H 292.908 6.89974 -0.474015 0
M  V30 3225 H 292.041 7.66548 -2.79458 0
M  V30 3226 H 289.386 5.16076 -2.65138 0
M  V30 3227 H 289.107 7.06433 -0.329384 0
M  V30 3228 H 288.115 6.90829 -1.81996 0
M  V30 3229 H 289.949 8.90774 -1.62639 0
M  V30 3230 H 290.02 6.02181 0.895285 0
M  V30 3231 H 288.99 4.80252 3.45468 0
M  V30 3232 H 290.727 5.20015 3.22119 0
M  V30 3233 H 290.239 3.53269 3.67833 0
M  V30 3234 H 289.503 1.39558 -0.227499 0
M  V30 3235 P 288.078 8.03563 -3.84925 0
M  V30 3236 O 287.858 8.85821 -5.0569 0
M  V30 3237 O 287.288 8.41101 -2.65469 0
M  V30 3238 O 287.828 6.4965 -4.18908 0
M  V30 3239 C 288.768 5.81037 -5.05421 0
M  V30 3240 C 288.038 4.78366 -5.89277 0
M  V30 3241 O 287.828 3.58302 -5.08433 0
M  V30 3242 C 286.638 5.17448 -6.36119 0
M  V30 3243 O 286.248 4.45271 -7.53232 0
M  V30 3244 C 285.758 4.74639 -5.19936 0
M  V30 3245 C 286.468 3.49432 -4.70418 0
M  V30 3246 N 286.418 3.31776 -3.22945 0
M  V30 3247 C 286.498 4.27147 -2.23315 0
M  V30 3248 N 286.418 3.78447 -1.02186 0
M  V30 3249 C 286.278 2.41001 -1.21732 0
M  V30 3250 C 286.148 1.36111 -0.27694 0
M  V30 3251 O 286.128 1.42065 0.951767 0
M  V30 3252 N 286.028 0.113683 -0.912949 0
M  V30 3253 C 286.028 -0.0846396 -2.27943 0
M  V30 3254 N 285.898 -1.34737 -2.6916 0
M  V30 3255 N 286.158 0.902521 -3.16379 0
M  V30 3256 C 286.278 2.11937 -2.56849 0
M  V30 3257 H 289.257 6.54213 -5.71376 0
M  V30 3258 H 289.529 5.30492 -4.44033 0
M  V30 3259 H 288.661 4.55889 -6.76652 0
M  V30 3260 H 286.006 2.6176 -5.18021 0
M  V30 3261 H 285.726 5.52233 -4.41941 0
M  V30 3262 H 284.735 4.52045 -5.53452 0
M  V30 3263 H 286.569 6.25193 -6.55307 0
M  V30 3264 H 286.618 5.3351 -2.43857 0
M  V30 3265 H 285.936 -0.69331 -0.330371 0
M  V30 3266 H 285.899 -1.56433 -3.6988 0
M  V30 3267 H 285.798 -2.10701 -2.00133 0
M  V30 3268 P 284.698 4.23843 -7.83734 0
M  V30 3269 O 284.478 4.19407 -9.29784 0
M  V30 3270 O 283.908 5.24426 -7.09156 0
M  V30 3271 O 284.448 2.7935 -7.20758 0
M  V30 3272 C 285.388 1.7299 -7.50419 0
M  V30 3273 C 284.658 0.406376 -7.57911 0
M  V30 3274 O 284.448 -0.0897726 -6.21935 0
M  V30 3275 C 283.258 0.447224 -8.1878 0
M  V30 3276 O 282.868 -0.825065 -8.71101 0
M  V30 3277 C 282.378 0.783801 -6.99623 0
M  V30 3278 C 283.088 0.0619192 -5.85967 0
M  V30 3279 N 283.038 0.7859 -4.56281 0
M  V30 3280 C 283.118 2.14308 -4.31736 0
M  V30 3281 N 283.038 2.46106 -3.05116 0
M  V30 3282 C 282.898 1.23422 -2.4014 0
M  V30 3283 C 282.768 0.938381 -1.02409 0
M  V30 3284 O 282.748 1.70876 -0.0650402 0
M  V30 3285 N 282.648 -0.444647 -0.805413 0
M  V30 3286 C 282.648 -1.40829 -1.79435 0
M  V30 3287 N 282.518 -2.67213 -1.38558 0
M  V30 3288 N 282.778 -1.12947 -3.09005 0
M  V30 3289 C 282.898 0.204887 -3.32369 0
M  V30 3290 H 285.877 1.93423 -8.4679 0
M  V30 3291 H 286.149 1.68181 -6.71046 0
M  V30 3292 H 285.281 -0.289041 -8.15388 0
M  V30 3293 H 282.626 -0.927166 -5.72947 0
M  V30 3294 H 282.346 1.87 -6.82132 0
M  V30 3295 H 281.355 0.404009 -7.13457 0
M  V30 3296 H 283.189 1.20612 -8.97633 0
M  V30 3297 H 283.238 2.88284 -5.10874 0
M  V30 3298 H 282.556 -0.755087 0.140242 0
M  V30 3299 H 282.519 -3.43967 -2.0729 0
M  V30 3300 H 282.418 -2.88096 -0.380644 0
M  V30 3301 P 281.318 -1.17771 -8.83182 0
M  V30 3302 O 281.098 -2.07206 -9.98732 0
M  V30 3303 O 280.528 0.0743816 -8.81969 0
M  V30 3304 O 281.068 -1.97652 -7.47304 0
M  V30 3305 C 282.008 -3.01133 -7.08783 0
M  V30 3306 C 281.278 -4.12613 -6.37049 0
M  V30 3307 O 281.068 -3.72827 -4.97879 0
M  V30 3308 C 279.878 -4.45085 -6.88694 0
M  V30 3309 O 279.488 -5.7877 -6.5624 0
M  V30 3310 C 278.998 -3.47817 -6.12078 0
M  V30 3311 C 279.708 -3.39414 -4.77697 0
M  V30 3312 N 279.658 -2.04615 -4.15333 0
M  V30 3313 C 279.738 -0.803897 -4.75249 0
M  V30 3314 N 279.658 0.197615 -3.91502 0
M  V30 3315 C 279.518 -0.413002 -2.66823 0
M  V30 3316 C 279.388 0.157221 -1.38007 0
M  V30 3317 N 279.268 -0.833136 -0.390236 0
M  V30 3318 C 279.268 -2.19402 -0.623885 0
M  V30 3319 N 279.138 -2.97622 0.449677 0
M  V30 3320 N 279.398 -2.73005 -1.83601 0
M  V30 3321 C 279.518 -1.78786 -2.80935 0
M  V30 3322 H 282.497 -3.41248 -7.98759 0
M  V30 3323 H 282.769 -2.5837 -6.41742 0
M  V30 3324 H 281.901 -5.02657 -6.42673 0
M  V30 3325 P 277.938 -6.144 -6.45285 0
M  V30 3326 O 277.718 -7.54673 -6.86199 0
M  V30 3327 O 277.148 -5.12391 -7.179 0
M  V30 3328 O 277.688 -5.99158 -4.88404 0
M  V30 3329 C 278.628 -6.60062 -3.96313 0
M  V30 3330 C 277.898 -7.08259 -2.72856 0
M  V30 3331 O 277.688 -5.9427 -1.83651 0
M  V30 3332 C 276.498 -7.65087 -2.94749 0
M  V30 3333 O 276.108 -8.53963 -1.90717 0
M  V30 3334 C 275.618 -6.41069 -2.90698 0
M  V30 3335 C 276.328 -5.5528 -1.86931 0
M  V30 3336 N 276.278 -4.09575 -2.15696 0
M  V30 3337 C 276.128 -3.24249 -1.08435 0
M  V30 3338 O 276.038 -3.63946 0.0628747 0
M  V30 3339 N 276.088 -1.90009 -1.39973 0
M  V30 3340 C 276.178 -1.34884 -2.65614 0
M  V30 3341 O 276.128 -0.123716 -2.81728 0
M  V30 3342 C 276.328 -2.3145 -3.71736 0
M  V30 3343 C 276.438 -1.75913 -5.10438 0
M  V30 3344 C 276.378 -3.63518 -3.44754 0
M  V30 3345 H 279.119 -7.45402 -4.45526 0
M  V30 3346 H 279.388 -5.86062 -3.67208 0
M  V30 3347 H 278.521 -7.84412 -2.24479 0
M  V30 3348 H 275.866 -5.73358 -0.888409 0
M  V30 3349 H 275.587 -5.90877 -3.88583 0
M  V30 3350 H 274.595 -6.65867 -2.58821 0
M  V30 3351 H 276.429 -8.16248 -3.92006 0
M  V30 3352 H 276.5 -4.34551 -4.26383 0
M  V30 3353 H 275.47 -1.85471 -5.61775 0
M  V30 3354 H 277.207 -2.31364 -5.66257 0
M  V30 3355 H 276.719 -0.695936 -5.05229 0
M  V30 3356 H 275.983 -1.26277 -0.63625 0
M  V30 3357 P 274.558 -8.7635 -1.60911 0
M  V30 3358 O 274.338 -10.1388 -1.11561 0
M  V30 3359 O 273.768 -8.36503 -2.79617 0
M  V30 3360 O 274.308 -7.71806 -0.42951 0
M  V30 3361 C 275.248 -7.67148 0.673689 0
M  V30 3362 C 274.518 -7.33374 1.95559 0
M  V30 3363 O 274.308 -5.88721 2.00726 0
M  V30 3364 C 273.118 -7.92526 2.10483 0
M  V30 3365 O 272.728 -8.02971 3.47653 0
M  V30 3366 C 272.238 -6.89602 1.41652 0
M  V30 3367 C 272.948 -5.59201 1.75185 0
M  V30 3368 N 272.898 -4.58301 0.657969 0
M  V30 3369 H 275.737 -8.65116 0.777161 0
M  V30 3370 H 276.009 -6.9022 0.46725 0
M  V30 3371 H 275.141 -7.66548 2.79458 0
M  V30 3372 H 272.486 -5.16165 2.65183 0
M  V30 3373 H 272.206 -7.06433 0.329384 0
M  V30 3374 H 271.215 -6.90926 1.82021 0
M  V30 3375 H 273.049 -8.90873 1.62657 0
M  V30 3376 P 271.178 -8.03563 3.84925 0
M  V30 3377 O 270.958 -8.85821 5.0569 0
M  V30 3378 O 270.388 -8.41101 2.65469 0
M  V30 3379 O 270.928 -6.4965 4.18908 0
M  V30 3380 C 271.868 -5.81037 5.05421 0
M  V30 3381 C 271.138 -4.78366 5.89277 0
M  V30 3382 O 270.928 -3.58302 5.08433 0
M  V30 3383 C 269.738 -5.17448 6.36119 0
M  V30 3384 O 269.348 -4.45271 7.53232 0
M  V30 3385 C 268.858 -4.74639 5.19936 0
M  V30 3386 C 269.568 -3.49432 4.70418 0
M  V30 3387 N 269.518 -3.32099 3.22613 0
M  V30 3388 H 272.357 -6.54213 5.71376 0
M  V30 3389 H 272.629 -5.30936 4.43503 0
M  V30 3390 H 271.761 -4.55889 6.76652 0
M  V30 3391 H 269.106 -2.61715 5.17932 0
M  V30 3392 H 268.826 -5.52155 4.41878 0
M  V30 3393 H 267.835 -4.51981 5.53374 0
M  V30 3394 H 269.669 -6.25124 6.55234 0
M  V30 3395 P 267.798 -4.23843 7.83734 0
M  V30 3396 O 267.578 -4.19407 9.29784 0
M  V30 3397 O 267.008 -5.24426 7.09156 0
M  V30 3398 O 267.548 -2.7935 7.20758 0
M  V30 3399 C 268.488 -1.72945 7.50224 0
M  V30 3400 C 267.758 -0.406376 7.57911 0
M  V30 3401 O 267.548 0.0897726 6.21935 0
M  V30 3402 C 266.358 -0.438983 8.18724 0
M  V30 3403 O 265.968 0.825065 8.71101 0
M  V30 3404 C 265.478 -0.783689 6.99524 0
M  V30 3405 C 266.188 -0.0619086 5.85867 0
M  V30 3406 N 266.138 -0.78573 4.56183 0
M  V30 3407 C 265.988 -0.0292889 3.41887 0
M  V30 3408 O 265.898 1.18445 3.4419 0
M  V30 3409 N 265.948 -0.744061 2.23964 0
M  V30 3410 C 266.038 -2.10932 2.10362 0
M  V30 3411 O 265.988 -2.64117 0.98825 0
M  V30 3412 C 266.188 -2.8202 3.34994 0
M  V30 3413 C 266.298 -4.31095 3.25037 0
M  V30 3414 C 266.238 -2.15547 4.52261 0
M  V30 3415 H 268.979 -1.93379 8.46595 0
M  V30 3416 H 269.248 -1.68132 6.70852 0
M  V30 3417 H 268.381 0.289041 8.15388 0
M  V30 3418 H 265.726 0.926847 5.72749 0
M  V30 3419 H 265.447 -1.86973 6.82036 0
M  V30 3420 H 264.455 -0.403896 7.13257 0
M  V30 3421 H 266.289 -1.20585 8.97435 0
M  V30 3422 H 266.36 -2.71231 5.45042 0
M  V30 3423 H 265.33 -4.76966 3.49992 0
M  V30 3424 H 267.067 -4.67047 3.95024 0
M  V30 3425 H 266.579 -4.58996 2.22312 0
M  V30 3426 H 265.843 -0.214893 1.39758 0
M  V30 3427 P 264.418 1.17771 8.83182 0
M  V30 3428 O 264.198 2.07206 9.98732 0
M  V30 3429 O 263.628 -0.0743816 8.81969 0
M  V30 3430 O 264.168 1.97652 7.47304 0
M  V30 3431 C 265.108 3.01133 7.08783 0
M  V30 3432 C 264.378 4.12613 6.37049 0
M  V30 3433 O 264.168 3.72827 4.97879 0
M  V30 3434 C 262.978 4.45085 6.88694 0
M  V30 3435 O 262.588 5.7877 6.5624 0
M  V30 3436 C 262.098 3.47817 6.12078 0
M  V30 3437 C 262.808 3.39414 4.77697 0
M  V30 3438 N 262.758 2.04615 4.15333 0
M  V30 3439 H 265.597 3.41248 7.98759 0
M  V30 3440 H 265.869 2.5837 6.41742 0
M  V30 3441 H 265.001 5.02657 6.42673 0
M  V30 3442 P 261.038 6.144 6.45285 0
M  V30 3443 O 260.818 7.54673 6.86199 0
M  V30 3444 O 260.248 5.12391 7.179 0
M  V30 3445 O 260.788 5.99158 4.88404 0
M  V30 3446 C 261.728 6.60234 3.96415 0
M  V30 3447 C 260.998 7.08259 2.72856 0
M  V30 3448 O 260.788 5.9427 1.83651 0
M  V30 3449 C 259.598 7.64886 2.9555 0
M  V30 3450 O 259.208 8.53963 1.90717 0
M  V30 3451 C 258.718 6.4116 2.90739 0
M  V30 3452 C 259.428 5.55375 1.86963 0
M  V30 3453 N 259.378 4.09448 2.16152 0
M  V30 3454 C 259.458 3.46824 3.37593 0
M  V30 3455 N 259.388 2.17422 3.29777 0
M  V30 3456 C 259.238 1.93065 1.94427 0
M  V30 3457 C 259.108 0.738053 1.20141 0
M  V30 3458 N 259.098 -0.474256 1.74676 0
M  V30 3459 N 258.988 0.850049 -0.13045 0
M  V30 3460 C 258.998 2.06169 -0.676992 0
M  V30 3461 N 259.118 3.23842 -0.101312 0
M  V30 3462 C 259.238 3.09402 1.23122 0
M  V30 3463 H 262.217 7.45574 4.45629 0
M  V30 3464 H 262.489 5.85864 3.679 0
M  V30 3465 H 261.621 7.84412 2.24479 0
M  V30 3466 H 258.966 5.73457 0.888562 0
M  V30 3467 H 258.686 5.90877 3.88583 0
M  V30 3468 H 257.695 6.6596 2.58858 0
M  V30 3469 H 259.529 8.16339 3.92049 0
M  V30 3470 H 259.57 4.00505 4.3174 0
M  V30 3471 H 259.189 -0.581337 2.76658 0
M  V30 3472 H 259 -1.30811 1.14888 0
M  V30 3473 H 258.892 2.08295 -1.75542 0
M  V30 3474 P 257.658 8.7635 1.60911 0
M  V30 3475 O 257.438 10.1388 1.11561 0
M  V30 3476 O 256.868 8.36503 2.79617 0
M  V30 3477 O 257.408 7.71806 0.42951 0
M  V30 3478 C 258.348 7.67148 -0.673689 0
M  V30 3479 C 257.618 7.33374 -1.95559 0
M  V30 3480 O 257.408 5.88721 -2.00726 0
M  V30 3481 C 256.218 7.92526 -2.10483 0
M  V30 3482 O 255.828 8.02971 -3.47653 0
M  V30 3483 C 255.338 6.89602 -1.41652 0
M  V30 3484 C 256.048 5.59201 -1.75185 0
M  V30 3485 N 255.998 4.58235 -0.662552 0
M  V30 3486 H 258.837 8.65116 -0.777161 0
M  V30 3487 H 259.109 6.90173 -0.474152 0
M  V30 3488 H 258.241 7.66548 -2.79458 0
M  V30 3489 P 254.279 8.03563 -3.84925 0
M  V30 3490 O 254.059 8.85821 -5.0569 0
M  V30 3491 O 253.489 8.41101 -2.65469 0
M  V30 3492 O 254.029 6.4965 -4.18908 0
M  V30 3493 C 254.969 5.81037 -5.05421 0
M  V30 3494 C 254.239 4.78366 -5.89277 0
M  V30 3495 O 254.029 3.58302 -5.08433 0
M  V30 3496 C 252.839 5.17448 -6.36119 0
M  V30 3497 O 252.449 4.45271 -7.53232 0
M  V30 3498 C 251.959 4.74639 -5.19936 0
M  V30 3499 C 252.669 3.49432 -4.70418 0
M  V30 3500 N 252.619 3.31776 -3.22945 0
M  V30 3501 H 255.458 6.54213 -5.71376 0
M  V30 3502 H 255.73 5.30492 -4.44033 0
M  V30 3503 H 254.862 4.55889 -6.76652 0
M  V30 3504 P 250.899 4.23843 -7.83734 0
M  V30 3505 O 250.679 4.19407 -9.29784 0
M  V30 3506 O 250.109 5.24426 -7.09156 0
M  V30 3507 O 250.649 2.7935 -7.20758 0
M  V30 3508 C 251.589 1.7299 -7.50419 0
M  V30 3509 C 250.859 0.406376 -7.57911 0
M  V30 3510 O 250.649 -0.0897726 -6.21935 0
M  V30 3511 C 249.459 0.447224 -8.1878 0
M  V30 3512 O 249.069 -0.825065 -8.71101 0
M  V30 3513 C 248.579 0.783801 -6.99623 0
M  V30 3514 C 249.289 0.0619192 -5.85967 0
M  V30 3515 N 249.239 0.7859 -4.56281 0
M  V30 3516 H 252.078 1.93423 -8.4679 0
M  V30 3517 H 252.35 1.68181 -6.71046 0
M  V30 3518 H 251.482 -0.289041 -8.15388 0
M  V30 3519 P 247.519 -1.17771 -8.83182 0
M  V30 3520 O 247.299 -2.07206 -9.98732 0
M  V30 3521 O 246.729 0.0743816 -8.81969 0
M  V30 3522 O 247.269 -1.97652 -7.47304 0
M  V30 3523 C 248.209 -3.01133 -7.08783 0
M  V30 3524 C 247.479 -4.12613 -6.37049 0
M  V30 3525 O 247.269 -3.72827 -4.97879 0
M  V30 3526 C 246.079 -4.45085 -6.88694 0
M  V30 3527 O 245.689 -5.7877 -6.5624 0
M  V30 3528 C 245.199 -3.47817 -6.12078 0
M  V30 3529 C 245.909 -3.39414 -4.77697 0
M  V30 3530 N 245.859 -2.04615 -4.15333 0
M  V30 3531 H 248.698 -3.41248 -7.98759 0
M  V30 3532 H 248.97 -2.5837 -6.41742 0
M  V30 3533 H 248.102 -5.02657 -6.42673 0
M  V30 3534 P 244.139 -6.144 -6.45285 0
M  V30 3535 O 243.919 -7.54673 -6.86199 0
M  V30 3536 O 243.349 -5.12391 -7.179 0
M  V30 3537 O 243.889 -5.99158 -4.88404 0
M  V30 3538 C 244.829 -6.60234 -3.96415 0
M  V30 3539 C 244.099 -7.08259 -2.72856 0
M  V30 3540 O 243.889 -5.9427 -1.83651 0
M  V30 3541 C 242.699 -7.64886 -2.9555 0
M  V30 3542 O 242.309 -8.53963 -1.90717 0
M  V30 3543 C 241.819 -6.4116 -2.90739 0
M  V30 3544 C 242.529 -5.55375 -1.86963 0
M  V30 3545 N 242.479 -4.09664 -2.15742 0
M  V30 3546 H 245.318 -7.45574 -4.45629 0
M  V30 3547 H 245.59 -5.86232 -3.67314 0
M  V30 3548 H 244.722 -7.84412 -2.24479 0
M  V30 3549 P 240.759 -8.7635 -1.60911 0
M  V30 3550 O 240.539 -10.1388 -1.11561 0
M  V30 3551 O 239.969 -8.36503 -2.79617 0
M  V30 3552 O 240.509 -7.71806 -0.42951 0
M  V30 3553 C 241.449 -7.66948 0.673514 0
M  V30 3554 C 240.719 -7.33374 1.95559 0
M  V30 3555 O 240.509 -5.88721 2.00726 0
M  V30 3556 C 239.319 -7.92218 2.1125 0
M  V30 3557 O 238.929 -8.02971 3.47653 0
M  V30 3558 C 238.439 -6.89504 1.41631 0
M  V30 3559 C 239.149 -5.59106 1.75155 0
M  V30 3560 N 239.099 -4.58136 0.662409 0
M  V30 3561 C 238.949 -3.26059 1.02863 0
M  V30 3562 O 238.859 -2.90743 2.19009 0
M  V30 3563 N 238.909 -2.35995 -0.0155585 0
M  V30 3564 C 238.999 -2.65248 -1.35603 0
M  V30 3565 O 238.949 -1.75605 -2.20651 0
M  V30 3566 C 239.149 -4.05747 -1.64698 0
M  V30 3567 C 239.259 -4.42345 -3.09553 0
M  V30 3568 C 239.199 -4.96734 -0.652411 0
M  V30 3569 H 241.94 -8.64917 0.776982 0
M  V30 3570 H 242.209 -6.89974 0.474015 0
M  V30 3571 H 241.342 -7.66548 2.79458 0
M  V30 3572 H 238.687 -5.16076 2.65138 0
M  V30 3573 H 238.408 -7.06433 0.329384 0
M  V30 3574 H 237.416 -6.90829 1.81996 0
M  V30 3575 H 239.25 -8.90774 1.62639 0
M  V30 3576 H 239.321 -6.02181 -0.895285 0
M  V30 3577 H 238.291 -4.80252 -3.45468 0
M  V30 3578 H 240.028 -5.20015 -3.22119 0
M  V30 3579 H 239.54 -3.53269 -3.67833 0
M  V30 3580 H 238.804 -1.39558 0.227499 0
M  V30 3581 P 237.379 -8.03563 3.84925 0
M  V30 3582 O 237.159 -8.85821 5.0569 0
M  V30 3583 O 236.589 -8.41101 2.65469 0
M  V30 3584 O 237.129 -6.4965 4.18908 0
M  V30 3585 C 238.069 -5.80886 5.05289 0
M  V30 3586 C 237.339 -4.78366 5.89277 0
M  V30 3587 O 237.129 -3.58302 5.08433 0
M  V30 3588 C 235.939 -5.16748 6.36559 0
M  V30 3589 O 235.549 -4.45271 7.53232 0
M  V30 3590 C 235.059 -4.74572 5.19863 0
M  V30 3591 C 235.769 -3.49373 4.70338 0
M  V30 3592 N 235.719 -3.31704 3.22876 0
M  V30 3593 C 235.569 -2.03326 2.74871 0
M  V30 3594 O 235.479 -1.06486 3.48076 0
M  V30 3595 N 235.529 -1.91838 1.37456 0
M  V30 3596 C 235.619 -2.94295 0.462035 0
M  V30 3597 O 235.569 -2.71763 -0.752928 0
M  V30 3598 C 235.769 -4.25064 1.05249 0
M  V30 3599 C 235.879 -5.39815 0.095697 0
M  V30 3600 C 235.819 -4.40214 2.39192 0
M  V30 3601 H 238.56 -6.54063 5.71245 0
M  V30 3602 H 238.829 -5.30339 4.43905 0
M  V30 3603 H 237.962 -4.55889 6.76652 0
M  V30 3604 H 235.307 -2.6167 5.17842 0
M  V30 3605 H 235.028 -5.52155 4.41878 0
M  V30 3606 H 234.036 -4.51918 5.53297 0
M  V30 3607 H 235.87 -6.25055 6.55162 0
M  V30 3608 H 235.941 -5.39798 2.81523 0
M  V30 3609 H 234.911 -5.91593 0.0279582 0
M  V30 3610 H 236.648 -6.10038 0.450573 0
M  V30 3611 H 236.16 -5.02007 -0.89937 0
M  V30 3612 H 235.424 -0.995326 1.00435 0
M  V30 3613 P 233.999 -4.23843 7.83734 0
M  V30 3614 O 233.779 -4.19407 9.29784 0
M  V30 3615 O 233.209 -5.24426 7.09156 0
M  V30 3616 O 233.749 -2.7935 7.20758 0
M  V30 3617 C 234.689 -1.72945 7.50224 0
M  V30 3618 C 233.959 -0.406376 7.57911 0
M  V30 3619 O 233.749 0.0897726 6.21935 0
M  V30 3620 C 232.559 -0.438983 8.18724 0
M  V30 3621 O 232.169 0.825065 8.71101 0
M  V30 3622 C 231.679 -0.783689 6.99524 0
M  V30 3623 C 232.389 -0.0619086 5.85867 0
M  V30 3624 N 232.339 -0.78573 4.56183 0
M  V30 3625 C 232.189 -0.0292889 3.41887 0
M  V30 3626 O 232.099 1.18445 3.4419 0
M  V30 3627 N 232.149 -0.744061 2.23964 0
M  V30 3628 C 232.239 -2.10932 2.10362 0
M  V30 3629 C 232.389 -2.8202 3.34994 0
M  V30 3630 C 232.439 -2.15547 4.52261 0
M  V30 3631 H 235.18 -1.93379 8.46595 0
M  V30 3632 H 235.449 -1.68132 6.70852 0
M  V30 3633 H 234.582 0.289041 8.15388 0
M  V30 3634 H 231.927 0.926847 5.72749 0
M  V30 3635 H 231.648 -1.86973 6.82036 0
M  V30 3636 H 230.656 -0.403896 7.13257 0
M  V30 3637 H 232.49 -1.20585 8.97435 0
M  V30 3638 H 232.561 -2.71231 5.45042 0
M  V30 3639 P 230.619 1.17771 8.83182 0
M  V30 3640 O 230.399 2.07206 9.98732 0
M  V30 3641 O 229.829 -0.0743816 8.81969 0
M  V30 3642 O 230.369 1.97652 7.47304 0
M  V30 3643 C 231.309 3.01055 7.08599 0
M  V30 3644 C 230.579 4.12613 6.37049 0
M  V30 3645 O 230.369 3.72827 4.97879 0
M  V30 3646 C 229.179 4.45719 6.88164 0
M  V30 3647 O 228.789 5.7877 6.5624 0
M  V30 3648 C 228.299 3.47768 6.11991 0
M  V30 3649 C 229.009 3.39356 4.77615 0
M  V30 3650 N 228.959 2.04571 4.15244 0
M  V30 3651 C 228.809 1.98587 2.78314 0
M  V30 3652 O 228.719 2.98134 2.08835 0
M  V30 3653 N 228.769 0.714467 2.24925 0
M  V30 3654 C 228.859 -0.470001 2.94169 0
M  V30 3655 O 228.809 -1.55587 2.35195 0
M  V30 3656 C 229.009 -0.312541 4.36783 0
M  V30 3657 C 229.119 -1.57711 5.16352 0
M  V30 3658 C 229.059 0.914512 4.92583 0
M  V30 3659 H 231.8 3.41169 7.98575 0
M  V30 3660 H 232.069 2.58295 6.41556 0
M  V30 3661 H 231.202 5.02657 6.42673 0
M  V30 3662 H 228.547 4.11637 4.08885 0
M  V30 3663 H 228.268 2.49626 6.61679 0
M  V30 3664 H 227.276 3.86566 6.00778 0
M  V30 3665 H 229.11 4.29943 7.96918 0
M  V30 3666 H 229.181 1.00937 6.00374 0
M  V30 3667 H 228.151 -1.80153 5.63503 0
M  V30 3668 H 229.888 -1.4566 5.94104 0
M  V30 3669 H 229.4 -2.40664 4.49645 0
M  V30 3670 H 228.664 0.647622 1.25697 0
M  V30 3671 P 227.239 6.144 6.45285 0
M  V30 3672 O 227.019 7.54673 6.86199 0
M  V30 3673 O 226.449 5.12391 7.179 0
M  V30 3674 O 226.989 5.99158 4.88404 0
M  V30 3675 C 227.929 6.60234 3.96415 0
M  V30 3676 C 227.199 7.08259 2.72856 0
M  V30 3677 O 226.989 5.9427 1.83651 0
M  V30 3678 C 225.799 7.64886 2.9555 0
M  V30 3679 O 225.409 8.53963 1.90717 0
M  V30 3680 C 224.919 6.4116 2.90739 0
M  V30 3681 C 225.629 5.55375 1.86963 0
M  V30 3682 N 225.579 4.09664 2.15742 0
M  V30 3683 H 228.418 7.45574 4.45629 0
M  V30 3684 H 228.69 5.86232 3.67314 0
M  V30 3685 H 227.822 7.84412 2.24479 0
M  V30 3686 P 223.859 8.7635 1.60911 0
M  V30 3687 O 223.639 10.1388 1.11561 0
M  V30 3688 O 223.069 8.36503 2.79617 0
M  V30 3689 O 223.609 7.71806 0.42951 0
M  V30 3690 C 224.549 7.67148 -0.673689 0
M  V30 3691 C 223.819 7.33374 -1.95559 0
M  V30 3692 O 223.609 5.88721 -2.00726 0
M  V30 3693 C 222.419 7.92526 -2.10483 0
M  V30 3694 O 222.029 8.02971 -3.47653 0
M  V30 3695 C 221.539 6.89602 -1.41652 0
M  V30 3696 C 222.249 5.59201 -1.75185 0
M  V30 3697 N 222.199 4.58235 -0.662552 0
M  V30 3698 H 225.038 8.65116 -0.777161 0
M  V30 3699 H 225.31 6.90173 -0.474152 0
M  V30 3700 H 224.442 7.66548 -2.79458 0
M  V30 3701 P 220.479 8.03563 -3.84925 0
M  V30 3702 O 220.259 8.85821 -5.0569 0
M  V30 3703 O 219.689 8.41101 -2.65469 0
M  V30 3704 O 220.229 6.4965 -4.18908 0
M  V30 3705 C 221.169 5.81037 -5.05421 0
M  V30 3706 C 220.439 4.78366 -5.89277 0
M  V30 3707 O 220.229 3.58302 -5.08433 0
M  V30 3708 C 219.039 5.17448 -6.36119 0
M  V30 3709 O 218.649 4.45271 -7.53232 0
M  V30 3710 C 218.159 4.74639 -5.19936 0
M  V30 3711 C 218.869 3.49432 -4.70418 0
M  V30 3712 N 218.819 3.31776 -3.22945 0
M  V30 3713 H 221.658 6.54213 -5.71376 0
M  V30 3714 H 221.93 5.30492 -4.44033 0
M  V30 3715 H 221.062 4.55889 -6.76652 0
M  V30 3716 P 217.099 4.23843 -7.83734 0
M  V30 3717 O 216.879 4.19407 -9.29784 0
M  V30 3718 O 216.309 5.24426 -7.09156 0
M  V30 3719 O 216.849 2.7935 -7.20758 0
M  V30 3720 C 217.789 1.7299 -7.50419 0
M  V30 3721 C 217.059 0.406376 -7.57911 0
M  V30 3722 O 216.849 -0.0897726 -6.21935 0
M  V30 3723 C 215.659 0.447224 -8.1878 0
M  V30 3724 O 215.269 -0.825065 -8.71101 0
M  V30 3725 C 214.779 0.783801 -6.99623 0
M  V30 3726 C 215.489 0.0619192 -5.85967 0
M  V30 3727 N 215.439 0.7859 -4.56281 0
M  V30 3728 H 218.278 1.93423 -8.4679 0
M  V30 3729 H 218.55 1.68181 -6.71046 0
M  V30 3730 H 217.682 -0.289041 -8.15388 0
M  V30 3731 P 213.719 -1.17771 -8.83182 0
M  V30 3732 O 213.499 -2.07206 -9.98732 0
M  V30 3733 O 212.929 0.0743816 -8.81969 0
M  V30 3734 O 213.469 -1.97652 -7.47304 0
M  V30 3735 C 214.409 -3.01055 -7.08599 0
M  V30 3736 C 213.679 -4.12613 -6.37049 0
M  V30 3737 O 213.469 -3.72827 -4.97879 0
M  V30 3738 C 212.279 -4.45719 -6.88164 0
M  V30 3739 O 211.889 -5.7877 -6.5624 0
M  V30 3740 C 211.399 -3.47768 -6.11991 0
M  V30 3741 C 212.109 -3.39356 -4.77615 0
M  V30 3742 N 212.059 -2.04571 -4.15244 0
M  V30 3743 C 211.909 -1.98587 -2.78314 0
M  V30 3744 O 211.819 -2.98134 -2.08835 0
M  V30 3745 N 211.869 -0.714467 -2.24925 0
M  V30 3746 C 211.959 0.470001 -2.94169 0
M  V30 3747 O 211.909 1.55587 -2.35195 0
M  V30 3748 C 212.109 0.312541 -4.36783 0
M  V30 3749 C 212.219 1.57711 -5.16352 0
M  V30 3750 C 212.159 -0.914512 -4.92583 0
M  V30 3751 H 214.9 -3.41169 -7.98575 0
M  V30 3752 H 215.169 -2.58295 -6.41556 0
M  V30 3753 H 214.302 -5.02657 -6.42673 0
M  V30 3754 H 211.647 -4.11637 -4.08885 0
M  V30 3755 H 211.368 -2.49626 -6.61679 0
M  V30 3756 H 210.376 -3.86566 -6.00778 0
M  V30 3757 H 212.21 -4.29943 -7.96918 0
M  V30 3758 H 212.281 -1.00937 -6.00374 0
M  V30 3759 H 211.251 1.80153 -5.63503 0
M  V30 3760 H 212.988 1.4566 -5.94104 0
M  V30 3761 H 212.5 2.40664 -4.49645 0
M  V30 3762 H 211.764 -0.647622 -1.25697 0
M  V30 3763 P 210.339 -6.144 -6.45285 0
M  V30 3764 O 210.119 -7.54673 -6.86199 0
M  V30 3765 O 209.549 -5.12391 -7.179 0
M  V30 3766 O 210.089 -5.99158 -4.88404 0
M  V30 3767 C 211.029 -6.60234 -3.96415 0
M  V30 3768 C 210.299 -7.08259 -2.72856 0
M  V30 3769 O 210.089 -5.9427 -1.83651 0
M  V30 3770 C 208.899 -7.64886 -2.9555 0
M  V30 3771 O 208.509 -8.53963 -1.90717 0
M  V30 3772 C 208.019 -6.4116 -2.90739 0
M  V30 3773 C 208.729 -5.55375 -1.86963 0
M  V30 3774 N 208.679 -4.09664 -2.15742 0
M  V30 3775 H 211.518 -7.45574 -4.45629 0
M  V30 3776 H 211.79 -5.86232 -3.67314 0
M  V30 3777 H 210.922 -7.84412 -2.24479 0
M  V30 3778 P 206.959 -8.7635 -1.60911 0
M  V30 3779 O 206.739 -10.1388 -1.11561 0
M  V30 3780 O 206.169 -8.36503 -2.79617 0
M  V30 3781 O 206.709 -7.71806 -0.42951 0
M  V30 3782 C 207.649 -7.67148 0.673689 0
M  V30 3783 C 206.919 -7.33374 1.95559 0
M  V30 3784 O 206.709 -5.88721 2.00726 0
M  V30 3785 C 205.519 -7.92526 2.10483 0
M  V30 3786 O 205.129 -8.02971 3.47653 0
M  V30 3787 C 204.639 -6.89602 1.41652 0
M  V30 3788 C 205.349 -5.59201 1.75185 0
M  V30 3789 N 205.299 -4.58235 0.662552 0
M  V30 3790 H 208.138 -8.65116 0.777161 0
M  V30 3791 H 208.41 -6.90173 0.474152 0
M  V30 3792 H 207.542 -7.66548 2.79458 0
M  V30 3793 P 203.579 -8.03563 3.84925 0
M  V30 3794 O 203.359 -8.85821 5.0569 0
M  V30 3795 O 202.789 -8.41101 2.65469 0
M  V30 3796 O 203.329 -6.49734 4.18962 0
M  V30 3797 C 204.269 -5.81037 5.05421 0
M  V30 3798 C 203.539 -4.79018 5.88876 0
M  V30 3799 O 203.329 -3.58359 5.08515 0
M  V30 3800 C 202.139 -5.17448 6.36119 0
M  V30 3801 O 201.749 -4.45322 7.53318 0
M  V30 3802 C 201.259 -4.74639 5.19936 0
M  V30 3803 C 201.969 -3.49432 4.70418 0
M  V30 3804 N 201.919 -3.31776 3.22945 0
M  V30 3805 C 201.769 -2.02742 2.72939 0
M  V30 3806 O 201.679 -1.08301 3.52749 0
M  V30 3807 N 201.719 -1.96117 1.22063 0
M  V30 3808 C 201.819 -2.8878 0.551566 0
M  V30 3809 N 201.769 -2.65609 -0.750198 0
M  V30 3810 C 201.969 -4.22457 1.03707 0
M  V30 3811 C 202.019 -4.37979 2.39113 0
M  V30 3812 H 204.759 -6.54138 5.7131 0
M  V30 3813 H 205.029 -5.30492 4.44033 0
M  V30 3814 H 204.162 -4.55945 6.76735 0
M  V30 3815 H 201.507 -2.6176 5.18021 0
M  V30 3816 H 201.227 -5.52233 4.41941 0
M  V30 3817 H 200.236 -4.52045 5.53452 0
M  V30 3818 H 202.07 -6.25124 6.55234 0
M  V30 3819 H 202.142 -5.37936 2.80552 0
M  V30 3820 H 202.04 -5.07528 0.359553 0
M  V30 3821 H 201.652 -1.69403 -1.09847 0
M  V30 3822 H 201.848 -3.43701 -1.41792 0
M  V30 3823 P 200.199 -4.23843 7.83734 0
M  V30 3824 O 199.979 -4.19407 9.29784 0
M  V30 3825 O 199.409 -5.24426 7.09156 0
M  V30 3826 O 199.949 -2.7935 7.20758 0
M  V30 3827 C 200.889 -1.72945 7.50224 0
M  V30 3828 C 200.159 -0.406376 7.57911 0
M  V30 3829 O 199.949 0.0897726 6.21935 0
M  V30 3830 C 198.759 -0.438983 8.18724 0
M  V30 3831 O 198.369 0.825065 8.71101 0
M  V30 3832 C 197.879 -0.783689 6.99524 0
M  V30 3833 C 198.589 -0.0619086 5.85867 0
M  V30 3834 N 198.539 -0.78573 4.56183 0
M  V30 3835 C 198.389 -0.0292889 3.41887 0
M  V30 3836 O 198.299 1.18445 3.4419 0
M  V30 3837 N 198.349 -0.744061 2.23964 0
M  V30 3838 C 198.439 -2.10932 2.10362 0
M  V30 3839 O 198.389 -2.64117 0.98825 0
M  V30 3840 C 198.589 -2.8202 3.34994 0
M  V30 3841 C 198.699 -4.31095 3.25037 0
M  V30 3842 C 198.639 -2.15547 4.52261 0
M  V30 3843 H 201.38 -1.93379 8.46595 0
M  V30 3844 H 201.649 -1.68132 6.70852 0
M  V30 3845 H 200.782 0.289041 8.15388 0
M  V30 3846 H 198.127 0.926847 5.72749 0
M  V30 3847 H 197.848 -1.86973 6.82036 0
M  V30 3848 H 196.856 -0.403896 7.13257 0
M  V30 3849 H 198.69 -1.20585 8.97435 0
M  V30 3850 H 198.761 -2.71231 5.45042 0
M  V30 3851 H 197.731 -4.76966 3.49992 0
M  V30 3852 H 199.468 -4.67047 3.95024 0
M  V30 3853 H 198.98 -4.58996 2.22312 0
M  V30 3854 H 198.244 -0.214893 1.39758 0
M  V30 3855 P 196.819 1.17771 8.83182 0
M  V30 3856 O 196.599 2.07206 9.98732 0
M  V30 3857 O 196.029 -0.0743816 8.81969 0
M  V30 3858 O 196.569 1.97652 7.47304 0
M  V30 3859 C 197.509 3.01133 7.08783 0
M  V30 3860 C 196.779 4.12613 6.37049 0
M  V30 3861 O 196.569 3.72827 4.97879 0
M  V30 3862 C 195.379 4.45085 6.88694 0
M  V30 3863 O 194.989 5.7877 6.5624 0
M  V30 3864 C 194.499 3.47817 6.12078 0
M  V30 3865 C 195.209 3.39414 4.77697 0
M  V30 3866 N 195.159 2.04615 4.15333 0
M  V30 3867 H 197.998 3.41248 7.98759 0
M  V30 3868 H 198.27 2.5837 6.41742 0
M  V30 3869 H 197.402 5.02657 6.42673 0
M  V30 3870 P 193.439 6.144 6.45285 0
M  V30 3871 O 193.219 7.54673 6.86199 0
M  V30 3872 O 192.649 5.12391 7.179 0
M  V30 3873 O 193.189 5.99158 4.88404 0
M  V30 3874 C 194.129 6.60234 3.96415 0
M  V30 3875 C 193.399 7.08259 2.72856 0
M  V30 3876 O 193.189 5.9427 1.83651 0
M  V30 3877 C 191.999 7.64886 2.9555 0
M  V30 3878 O 191.609 8.53963 1.90717 0
M  V30 3879 C 191.119 6.4116 2.90739 0
M  V30 3880 C 191.829 5.55375 1.86963 0
M  V30 3881 N 191.779 4.09448 2.16152 0
M  V30 3882 C 191.859 3.46824 3.37593 0
M  V30 3883 N 191.789 2.17422 3.29777 0
M  V30 3884 C 191.639 1.93065 1.94427 0
M  V30 3885 C 191.509 0.738053 1.20141 0
M  V30 3886 N 191.499 -0.474256 1.74676 0
M  V30 3887 N 191.389 0.850049 -0.13045 0
M  V30 3888 C 191.399 2.06169 -0.676992 0
M  V30 3889 N 191.519 3.23842 -0.101312 0
M  V30 3890 C 191.639 3.09402 1.23122 0
M  V30 3891 H 194.618 7.45574 4.45629 0
M  V30 3892 H 194.89 5.85864 3.679 0
M  V30 3893 H 194.022 7.84412 2.24479 0
M  V30 3894 H 191.367 5.73457 0.888562 0
M  V30 3895 H 191.087 5.90877 3.88583 0
M  V30 3896 H 190.096 6.6596 2.58858 0
M  V30 3897 H 191.93 8.16339 3.92049 0
M  V30 3898 H 191.971 4.00505 4.3174 0
M  V30 3899 H 191.59 -0.581337 2.76658 0
M  V30 3900 H 191.401 -1.30811 1.14888 0
M  V30 3901 H 191.293 2.08295 -1.75542 0
M  V30 3902 P 190.059 8.7635 1.60911 0
M  V30 3903 O 189.839 10.1388 1.11561 0
M  V30 3904 O 189.269 8.36503 2.79617 0
M  V30 3905 O 189.809 7.71806 0.42951 0
M  V30 3906 C 190.749 7.67148 -0.673689 0
M  V30 3907 C 190.019 7.33374 -1.95559 0
M  V30 3908 O 189.809 5.88721 -2.00726 0
M  V30 3909 C 188.619 7.92526 -2.10483 0
M  V30 3910 O 188.229 8.02971 -3.47653 0
M  V30 3911 C 187.739 6.89602 -1.41652 0
M  V30 3912 C 188.449 5.59201 -1.75185 0
M  V30 3913 N 188.399 4.58235 -0.662552 0
M  V30 3914 H 191.238 8.65116 -0.777161 0
M  V30 3915 H 191.51 6.90173 -0.474152 0
M  V30 3916 H 190.642 7.66548 -2.79458 0
M  V30 3917 P 186.679 8.03563 -3.84925 0
M  V30 3918 O 186.459 8.85821 -5.0569 0
M  V30 3919 O 185.889 8.41101 -2.65469 0
M  V30 3920 O 186.429 6.4965 -4.18908 0
M  V30 3921 C 187.369 5.81037 -5.05421 0
M  V30 3922 C 186.639 4.78366 -5.89277 0
M  V30 3923 O 186.429 3.58302 -5.08433 0
M  V30 3924 C 185.239 5.17448 -6.36119 0
M  V30 3925 O 184.849 4.45271 -7.53232 0
M  V30 3926 C 184.359 4.74639 -5.19936 0
M  V30 3927 C 185.069 3.49432 -4.70418 0
M  V30 3928 N 185.019 3.32099 -3.22613 0
M  V30 3929 H 187.858 6.54213 -5.71376 0
M  V30 3930 H 188.13 5.30936 -4.43503 0
M  V30 3931 H 187.262 4.55889 -6.76652 0
M  V30 3932 H 184.607 2.61715 -5.17932 0
M  V30 3933 H 184.327 5.52155 -4.41878 0
M  V30 3934 H 183.336 4.51981 -5.53374 0
M  V30 3935 H 185.17 6.25124 -6.55234 0
M  V30 3936 P 183.299 4.23843 -7.83734 0
M  V30 3937 O 183.079 4.19407 -9.29784 0
M  V30 3938 O 182.509 5.24426 -7.09156 0
M  V30 3939 O 183.049 2.7935 -7.20758 0
M  V30 3940 C 183.989 1.7299 -7.50419 0
M  V30 3941 C 183.259 0.406376 -7.57911 0
M  V30 3942 O 183.049 -0.0897726 -6.21935 0
M  V30 3943 C 181.859 0.447224 -8.1878 0
M  V30 3944 O 181.469 -0.825065 -8.71101 0
M  V30 3945 C 180.979 0.783801 -6.99623 0
M  V30 3946 C 181.689 0.0619192 -5.85967 0
M  V30 3947 N 181.639 0.7859 -4.56281 0
M  V30 3948 H 184.478 1.93423 -8.4679 0
M  V30 3949 H 184.75 1.68181 -6.71046 0
M  V30 3950 H 183.882 -0.289041 -8.15388 0
M  V30 3951 P 179.919 -1.17771 -8.83182 0
M  V30 3952 O 179.699 -2.07206 -9.98732 0
M  V30 3953 O 179.129 0.0743816 -8.81969 0
M  V30 3954 O 179.669 -1.97652 -7.47304 0
M  V30 3955 C 180.609 -3.01133 -7.08783 0
M  V30 3956 C 179.879 -4.12613 -6.37049 0
M  V30 3957 O 179.669 -3.72827 -4.97879 0
M  V30 3958 C 178.479 -4.45085 -6.88694 0
M  V30 3959 O 178.089 -5.7877 -6.5624 0
M  V30 3960 C 177.599 -3.47817 -6.12078 0
M  V30 3961 C 178.309 -3.39414 -4.77697 0
M  V30 3962 N 178.259 -2.04199 -4.15538 0
M  V30 3963 H 181.098 -3.41248 -7.98759 0
M  V30 3964 H 181.37 -2.57728 -6.42 0
M  V30 3965 H 180.502 -5.02657 -6.42673 0
M  V30 3966 H 177.847 -4.11708 -4.08956 0
M  V30 3967 H 177.567 -2.49626 -6.61679 0
M  V30 3968 H 176.576 -3.8662 -6.00862 0
M  V30 3969 H 178.41 -4.29991 -7.97006 0
M  V30 3970 P 176.539 -6.144 -6.45285 0
M  V30 3971 O 176.319 -7.54673 -6.86199 0
M  V30 3972 O 175.749 -5.12391 -7.179 0
M  V30 3973 O 176.289 -5.99158 -4.88404 0
M  V30 3974 C 177.229 -6.60062 -3.96313 0
M  V30 3975 C 176.499 -7.08259 -2.72856 0
M  V30 3976 O 176.289 -5.9427 -1.83651 0
M  V30 3977 C 175.099 -7.65087 -2.94749 0
M  V30 3978 O 174.709 -8.53963 -1.90717 0
M  V30 3979 C 174.219 -6.41069 -2.90698 0
M  V30 3980 C 174.929 -5.5528 -1.86931 0
M  V30 3981 N 174.879 -4.09575 -2.15696 0
M  V30 3982 C 174.729 -3.24249 -1.08435 0
M  V30 3983 O 174.639 -3.63946 0.0628747 0
M  V30 3984 N 174.689 -1.90009 -1.39973 0
M  V30 3985 C 174.779 -1.34884 -2.65614 0
M  V30 3986 O 174.729 -0.123716 -2.81728 0
M  V30 3987 C 174.929 -2.3145 -3.71736 0
M  V30 3988 C 175.039 -1.75913 -5.10438 0
M  V30 3989 C 174.979 -3.63518 -3.44754 0
M  V30 3990 H 177.72 -7.45402 -4.45526 0
M  V30 3991 H 177.989 -5.86062 -3.67208 0
M  V30 3992 H 177.122 -7.84412 -2.24479 0
M  V30 3993 H 174.467 -5.73358 -0.888409 0
M  V30 3994 H 174.188 -5.90877 -3.88583 0
M  V30 3995 H 173.196 -6.65867 -2.58821 0
M  V30 3996 H 175.03 -8.16248 -3.92006 0
M  V30 3997 H 175.101 -4.34551 -4.26383 0
M  V30 3998 H 174.071 -1.85471 -5.61775 0
M  V30 3999 H 175.808 -2.31364 -5.66257 0
M  V30 4000 H 175.32 -0.695936 -5.05229 0
M  V30 4001 H 174.584 -1.26277 -0.63625 0
M  V30 4002 P 173.159 -8.7635 -1.60911 0
M  V30 4003 O 172.939 -10.1388 -1.11561 0
M  V30 4004 O 172.369 -8.36503 -2.79617 0
M  V30 4005 O 172.909 -7.71806 -0.42951 0
M  V30 4006 C 173.849 -7.67148 0.673689 0
M  V30 4007 C 173.119 -7.33374 1.95559 0
M  V30 4008 O 172.909 -5.88721 2.00726 0
M  V30 4009 C 171.719 -7.92526 2.10483 0
M  V30 4010 O 171.329 -8.02971 3.47653 0
M  V30 4011 C 170.839 -6.89602 1.41652 0
M  V30 4012 C 171.549 -5.59201 1.75185 0
M  V30 4013 N 171.499 -4.58301 0.657969 0
M  V30 4014 H 174.338 -8.65116 0.777161 0
M  V30 4015 H 174.61 -6.9022 0.46725 0
M  V30 4016 H 173.742 -7.66548 2.79458 0
M  V30 4017 H 171.087 -5.16165 2.65183 0
M  V30 4018 H 170.807 -7.06433 0.329384 0
M  V30 4019 H 169.816 -6.90926 1.82021 0
M  V30 4020 H 171.65 -8.90873 1.62657 0
M  V30 4021 P 169.779 -8.03563 3.84925 0
M  V30 4022 O 169.559 -8.85821 5.0569 0
M  V30 4023 O 168.989 -8.41101 2.65469 0
M  V30 4024 O 169.529 -6.4965 4.18908 0
M  V30 4025 C 170.469 -5.81037 5.05421 0
M  V30 4026 C 169.739 -4.78366 5.89277 0
M  V30 4027 O 169.529 -3.58302 5.08433 0
M  V30 4028 C 168.339 -5.17448 6.36119 0
M  V30 4029 O 167.949 -4.45271 7.53232 0
M  V30 4030 C 167.459 -4.74639 5.19936 0
M  V30 4031 C 168.169 -3.49432 4.70418 0
M  V30 4032 N 168.119 -3.31776 3.22945 0
M  V30 4033 H 170.958 -6.54213 5.71376 0
M  V30 4034 H 171.23 -5.30492 4.44033 0
M  V30 4035 H 170.362 -4.55889 6.76652 0
M  V30 4036 P 166.399 -4.23843 7.83734 0
M  V30 4037 O 166.179 -4.19407 9.29784 0
M  V30 4038 O 165.609 -5.24426 7.09156 0
M  V30 4039 O 166.149 -2.7935 7.20758 0
M  V30 4040 C 167.089 -1.7299 7.50419 0
M  V30 4041 C 166.359 -0.406376 7.57911 0
M  V30 4042 O 166.149 0.0897726 6.21935 0
M  V30 4043 C 164.959 -0.447224 8.1878 0
M  V30 4044 O 164.569 0.825065 8.71101 0
M  V30 4045 C 164.079 -0.783801 6.99623 0
M  V30 4046 C 164.789 -0.0619192 5.85967 0
M  V30 4047 N 164.739 -0.7859 4.56281 0
M  V30 4048 H 167.578 -1.93423 8.4679 0
M  V30 4049 H 167.85 -1.68181 6.71046 0
M  V30 4050 H 166.982 0.289041 8.15388 0
M  V30 4051 P 163.019 1.17771 8.83182 0
M  V30 4052 O 162.799 2.07206 9.98732 0
M  V30 4053 O 162.229 -0.0743816 8.81969 0
M  V30 4054 O 162.769 1.97652 7.47304 0
M  V30 4055 C 163.709 3.01055 7.08599 0
M  V30 4056 C 162.979 4.12613 6.37049 0
M  V30 4057 O 162.769 3.72827 4.97879 0
M  V30 4058 C 161.579 4.45719 6.88164 0
M  V30 4059 O 161.189 5.7877 6.5624 0
M  V30 4060 C 160.699 3.47768 6.11991 0
M  V30 4061 C 161.409 3.39356 4.77615 0
M  V30 4062 N 161.359 2.04571 4.15244 0
M  V30 4063 C 161.209 1.98587 2.78314 0
M  V30 4064 O 161.119 2.98134 2.08835 0
M  V30 4065 N 161.169 0.714467 2.24925 0
M  V30 4066 C 161.259 -0.470001 2.94169 0
M  V30 4067 O 161.209 -1.55587 2.35195 0
M  V30 4068 C 161.409 -0.312541 4.36783 0
M  V30 4069 C 161.519 -1.57711 5.16352 0
M  V30 4070 C 161.459 0.914512 4.92583 0
M  V30 4071 H 164.2 3.41169 7.98575 0
M  V30 4072 H 164.469 2.58295 6.41556 0
M  V30 4073 H 163.602 5.02657 6.42673 0
M  V30 4074 H 160.947 4.11637 4.08885 0
M  V30 4075 H 160.668 2.49626 6.61679 0
M  V30 4076 H 159.676 3.86566 6.00778 0
M  V30 4077 H 161.51 4.29943 7.96918 0
M  V30 4078 H 161.581 1.00937 6.00374 0
M  V30 4079 H 160.551 -1.80153 5.63503 0
M  V30 4080 H 162.288 -1.4566 5.94104 0
M  V30 4081 H 161.8 -2.40664 4.49645 0
M  V30 4082 H 161.064 0.647622 1.25697 0
M  V30 4083 P 159.639 6.144 6.45285 0
M  V30 4084 O 159.419 7.54673 6.86199 0
M  V30 4085 O 158.849 5.12391 7.179 0
M  V30 4086 O 159.389 5.99158 4.88404 0
M  V30 4087 C 160.329 6.60234 3.96415 0
M  V30 4088 C 159.599 7.08259 2.72856 0
M  V30 4089 O 159.389 5.9427 1.83651 0
M  V30 4090 C 158.199 7.64886 2.9555 0
M  V30 4091 O 157.809 8.53963 1.90717 0
M  V30 4092 C 157.319 6.4116 2.90739 0
M  V30 4093 C 158.029 5.55375 1.86963 0
M  V30 4094 N 157.979 4.09448 2.16152 0
M  V30 4095 H 160.818 7.45574 4.45629 0
M  V30 4096 H 161.09 5.85864 3.679 0
M  V30 4097 H 160.222 7.84412 2.24479 0
M  V30 4098 H 157.567 5.73457 0.888562 0
M  V30 4099 H 157.287 5.90877 3.88583 0
M  V30 4100 H 156.296 6.6596 2.58858 0
M  V30 4101 H 158.13 8.16339 3.92049 0
M  V30 4102 P 156.259 8.7635 1.60911 0
M  V30 4103 O 156.039 10.1388 1.11561 0
M  V30 4104 O 155.469 8.36503 2.79617 0
M  V30 4105 O 156.009 7.71806 0.42951 0
M  V30 4106 C 156.949 7.67148 -0.673689 0
M  V30 4107 C 156.219 7.33374 -1.95559 0
M  V30 4108 O 156.009 5.88721 -2.00726 0
M  V30 4109 C 154.819 7.92526 -2.10483 0
M  V30 4110 O 154.429 8.02971 -3.47653 0
M  V30 4111 C 153.939 6.89602 -1.41652 0
M  V30 4112 C 154.649 5.59201 -1.75185 0
M  V30 4113 N 154.599 4.58235 -0.662552 0
M  V30 4114 H 157.438 8.65116 -0.777161 0
M  V30 4115 H 157.71 6.90173 -0.474152 0
M  V30 4116 H 156.842 7.66548 -2.79458 0
M  V30 4117 P 152.879 8.03563 -3.84925 0
M  V30 4118 O 152.659 8.85821 -5.0569 0
M  V30 4119 O 152.089 8.41101 -2.65469 0
M  V30 4120 O 152.629 6.4965 -4.18908 0
M  V30 4121 C 153.569 5.80886 -5.05289 0
M  V30 4122 C 152.839 4.78366 -5.89277 0
M  V30 4123 O 152.629 3.58302 -5.08433 0
M  V30 4124 C 151.439 5.16748 -6.36559 0
M  V30 4125 O 151.049 4.45271 -7.53232 0
M  V30 4126 C 150.559 4.74572 -5.19863 0
M  V30 4127 C 151.269 3.49373 -4.70338 0
M  V30 4128 N 151.219 3.31704 -3.22876 0
M  V30 4129 C 151.069 2.03326 -2.74871 0
M  V30 4130 O 150.979 1.06486 -3.48076 0
M  V30 4131 N 151.029 1.91838 -1.37456 0
M  V30 4132 C 151.119 2.94295 -0.462035 0
M  V30 4133 C 151.269 4.25064 -1.05249 0
M  V30 4134 C 151.319 4.40214 -2.39192 0
M  V30 4135 H 154.06 6.54063 -5.71245 0
M  V30 4136 H 154.329 5.30339 -4.43905 0
M  V30 4137 H 153.462 4.55889 -6.76652 0
M  V30 4138 H 150.807 2.6167 -5.17842 0
M  V30 4139 H 150.528 5.52155 -4.41878 0
M  V30 4140 H 149.536 4.51918 -5.53297 0
M  V30 4141 H 151.37 6.25055 -6.55162 0
M  V30 4142 H 151.441 5.39798 -2.81523 0
M  V30 4143 P 149.499 4.23843 -7.83734 0
M  V30 4144 O 149.279 4.19407 -9.29784 0
M  V30 4145 O 148.709 5.24426 -7.09156 0
M  V30 4146 O 149.249 2.7935 -7.20758 0
M  V30 4147 C 150.189 1.72945 -7.50224 0
M  V30 4148 C 149.459 0.406376 -7.57911 0
M  V30 4149 O 149.249 -0.0897726 -6.21935 0
M  V30 4150 C 148.059 0.438983 -8.18724 0
M  V30 4151 O 147.669 -0.825065 -8.71101 0
M  V30 4152 C 147.179 0.783689 -6.99524 0
M  V30 4153 C 147.889 0.0619086 -5.85867 0
M  V30 4154 N 147.839 0.78573 -4.56183 0
M  V30 4155 C 147.689 0.0292889 -3.41887 0
M  V30 4156 O 147.599 -1.18445 -3.4419 0
M  V30 4157 N 147.649 0.744061 -2.23964 0
M  V30 4158 C 147.739 2.10932 -2.10362 0
M  V30 4159 O 147.689 2.64117 -0.98825 0
M  V30 4160 C 147.889 2.8202 -3.34994 0
M  V30 4161 C 147.999 4.31095 -3.25037 0
M  V30 4162 C 147.939 2.15547 -4.52261 0
M  V30 4163 H 150.68 1.93379 -8.46595 0
M  V30 4164 H 150.949 1.68132 -6.70852 0
M  V30 4165 H 150.082 -0.289041 -8.15388 0
M  V30 4166 H 147.427 -0.926847 -5.72749 0
M  V30 4167 H 147.148 1.86973 -6.82036 0
M  V30 4168 H 146.156 0.403896 -7.13257 0
M  V30 4169 H 147.99 1.20585 -8.97435 0
M  V30 4170 H 148.061 2.71231 -5.45042 0
M  V30 4171 H 147.031 4.76966 -3.49992 0
M  V30 4172 H 148.768 4.67047 -3.95024 0
M  V30 4173 H 148.28 4.58996 -2.22312 0
M  V30 4174 H 147.544 0.214893 -1.39758 0
M  V30 4175 P 146.119 -1.17771 -8.83182 0
M  V30 4176 O 145.899 -2.07206 -9.98732 0
M  V30 4177 O 145.329 0.0743816 -8.81969 0
M  V30 4178 O 145.869 -1.97652 -7.47304 0
M  V30 4179 C 146.809 -3.01133 -7.08783 0
M  V30 4180 C 146.079 -4.12613 -6.37049 0
M  V30 4181 O 145.869 -3.72827 -4.97879 0
M  V30 4182 C 144.679 -4.45085 -6.88694 0
M  V30 4183 O 144.289 -5.7877 -6.5624 0
M  V30 4184 C 143.799 -3.47817 -6.12078 0
M  V30 4185 C 144.509 -3.39414 -4.77697 0
M  V30 4186 N 144.459 -2.04615 -4.15333 0
M  V30 4187 H 147.298 -3.41248 -7.98759 0
M  V30 4188 H 147.57 -2.5837 -6.41742 0
M  V30 4189 H 146.702 -5.02657 -6.42673 0
M  V30 4190 P 142.739 -6.144 -6.45285 0
M  V30 4191 O 142.519 -7.54673 -6.86199 0
M  V30 4192 O 141.949 -5.12391 -7.179 0
M  V30 4193 O 142.489 -5.99158 -4.88404 0
M  V30 4194 C 143.429 -6.60234 -3.96415 0
M  V30 4195 C 142.699 -7.08259 -2.72856 0
M  V30 4196 O 142.489 -5.9427 -1.83651 0
M  V30 4197 C 141.299 -7.64886 -2.9555 0
M  V30 4198 O 140.909 -8.53963 -1.90717 0
M  V30 4199 C 140.419 -6.4116 -2.90739 0
M  V30 4200 C 141.129 -5.55375 -1.86963 0
M  V30 4201 N 141.079 -4.09664 -2.15742 0
M  V30 4202 H 143.918 -7.45574 -4.45629 0
M  V30 4203 H 144.19 -5.86232 -3.67314 0
M  V30 4204 H 143.322 -7.84412 -2.24479 0
M  V30 4205 P 139.359 -8.7635 -1.60911 0
M  V30 4206 O 139.139 -10.1388 -1.11561 0
M  V30 4207 O 138.569 -8.36503 -2.79617 0
M  V30 4208 O 139.109 -7.71806 -0.42951 0
M  V30 4209 C 140.049 -7.67148 0.673689 0
M  V30 4210 C 139.319 -7.33374 1.95559 0
M  V30 4211 O 139.109 -5.88721 2.00726 0
M  V30 4212 C 137.919 -7.92526 2.10483 0
M  V30 4213 O 137.529 -8.02971 3.47653 0
M  V30 4214 C 137.039 -6.89602 1.41652 0
M  V30 4215 C 137.749 -5.59201 1.75185 0
M  V30 4216 N 137.699 -4.58235 0.662552 0
M  V30 4217 H 140.538 -8.65116 0.777161 0
M  V30 4218 H 140.81 -6.90173 0.474152 0
M  V30 4219 H 139.942 -7.66548 2.79458 0
M  V30 4220 P 135.979 -8.03563 3.84925 0
M  V30 4221 O 135.759 -8.85821 5.0569 0
M  V30 4222 O 135.189 -8.41101 2.65469 0
M  V30 4223 O 135.729 -6.4965 4.18908 0
M  V30 4224 C 136.669 -5.80886 5.05289 0
M  V30 4225 C 135.939 -4.78366 5.89277 0
M  V30 4226 O 135.729 -3.58302 5.08433 0
M  V30 4227 C 134.539 -5.16748 6.36559 0
M  V30 4228 O 134.149 -4.45271 7.53232 0
M  V30 4229 C 133.659 -4.74572 5.19863 0
M  V30 4230 C 134.369 -3.49373 4.70338 0
M  V30 4231 N 134.319 -3.31704 3.22876 0
M  V30 4232 C 134.169 -2.03326 2.74871 0
M  V30 4233 O 134.079 -1.06486 3.48076 0
M  V30 4234 N 134.129 -1.91838 1.37456 0
M  V30 4235 C 134.219 -2.94295 0.462035 0
M  V30 4236 C 134.369 -4.25064 1.05249 0
M  V30 4237 C 134.419 -4.40214 2.39192 0
M  V30 4238 H 137.16 -6.54063 5.71245 0
M  V30 4239 H 137.429 -5.30339 4.43905 0
M  V30 4240 H 136.562 -4.55889 6.76652 0
M  V30 4241 H 133.907 -2.6167 5.17842 0
M  V30 4242 H 133.628 -5.52155 4.41878 0
M  V30 4243 H 132.636 -4.51918 5.53297 0
M  V30 4244 H 134.47 -6.25055 6.55162 0
M  V30 4245 H 134.541 -5.39798 2.81523 0
M  V30 4246 P 132.599 -4.23843 7.83734 0
M  V30 4247 O 132.379 -4.19407 9.29784 0
M  V30 4248 O 131.809 -5.24426 7.09156 0
M  V30 4249 O 132.349 -2.7935 7.20758 0
M  V30 4250 C 133.289 -1.7299 7.50419 0
M  V30 4251 C 132.559 -0.406376 7.57911 0
M  V30 4252 O 132.349 0.0897726 6.21935 0
M  V30 4253 C 131.159 -0.447224 8.1878 0
M  V30 4254 O 130.769 0.825065 8.71101 0
M  V30 4255 C 130.279 -0.783801 6.99623 0
M  V30 4256 C 130.989 -0.0619192 5.85967 0
M  V30 4257 N 130.939 -0.790462 4.56202 0
M  V30 4258 H 133.778 -1.93423 8.4679 0
M  V30 4259 H 134.05 -1.68852 6.70877 0
M  V30 4260 H 133.182 0.289041 8.15388 0
M  V30 4261 H 130.527 0.927006 5.72848 0
M  V30 4262 H 130.247 -1.86973 6.82036 0
M  V30 4263 H 129.256 -0.403953 7.13357 0
M  V30 4264 H 131.09 -1.20599 8.97534 0
M  V30 4265 P 129.219 1.17771 8.83182 0
M  V30 4266 O 128.999 2.07206 9.98732 0
M  V30 4267 O 128.429 -0.0743816 8.81969 0
M  V30 4268 O 128.969 1.97652 7.47304 0
M  V30 4269 C 129.909 3.01133 7.08783 0
M  V30 4270 C 129.179 4.12613 6.37049 0
M  V30 4271 O 128.969 3.72827 4.97879 0
M  V30 4272 C 127.779 4.45085 6.88694 0
M  V30 4273 O 127.389 5.7877 6.5624 0
M  V30 4274 C 126.899 3.47817 6.12078 0
M  V30 4275 C 127.609 3.39414 4.77697 0
M  V30 4276 N 127.559 2.04615 4.15333 0
M  V30 4277 H 130.398 3.41248 7.98759 0
M  V30 4278 H 130.67 2.5837 6.41742 0
M  V30 4279 H 129.802 5.02657 6.42673 0
M  V30 4280 P 125.839 6.144 6.45285 0
M  V30 4281 O 125.619 7.54673 6.86199 0
M  V30 4282 O 125.049 5.12391 7.179 0
M  V30 4283 O 125.589 5.99158 4.88404 0
M  V30 4284 C 126.529 6.60062 3.96313 0
M  V30 4285 C 125.799 7.08259 2.72856 0
M  V30 4286 O 125.589 5.9427 1.83651 0
M  V30 4287 C 124.399 7.65087 2.94749 0
M  V30 4288 O 124.009 8.53963 1.90717 0
M  V30 4289 C 123.519 6.41069 2.90698 0
M  V30 4290 C 124.229 5.5528 1.86931 0
M  V30 4291 N 124.179 4.09575 2.15696 0
M  V30 4292 C 124.029 3.24249 1.08435 0
M  V30 4293 O 123.939 3.63946 -0.0628747 0
M  V30 4294 N 123.989 1.90009 1.39973 0
M  V30 4295 C 124.079 1.34884 2.65614 0
M  V30 4296 C 124.229 2.3145 3.71736 0
M  V30 4297 C 124.279 3.63518 3.44754 0
M  V30 4298 H 127.02 7.45402 4.45526 0
M  V30 4299 H 127.289 5.86062 3.67208 0
M  V30 4300 H 126.422 7.84412 2.24479 0
M  V30 4301 H 123.767 5.73358 0.888409 0
M  V30 4302 H 123.488 5.90877 3.88583 0
M  V30 4303 H 122.496 6.65867 2.58821 0
M  V30 4304 H 124.33 8.16248 3.92006 0
M  V30 4305 H 124.401 4.34551 4.26383 0
M  V30 4306 P 122.459 8.7635 1.60911 0
M  V30 4307 O 122.239 10.1388 1.11561 0
M  V30 4308 O 121.669 8.36503 2.79617 0
M  V30 4309 O 122.209 7.71806 0.42951 0
M  V30 4310 C 123.149 7.66948 -0.673514 0
M  V30 4311 C 122.419 7.33374 -1.95559 0
M  V30 4312 O 122.209 5.88721 -2.00726 0
M  V30 4313 C 121.019 7.92218 -2.1125 0
M  V30 4314 O 120.629 8.02971 -3.47653 0
M  V30 4315 C 120.139 6.89504 -1.41631 0
M  V30 4316 C 120.849 5.59106 -1.75155 0
M  V30 4317 N 120.799 4.58136 -0.662409 0
M  V30 4318 C 120.649 3.26059 -1.02863 0
M  V30 4319 O 120.559 2.90743 -2.19009 0
M  V30 4320 N 120.609 2.35995 0.0155585 0
M  V30 4321 C 120.699 2.65248 1.35603 0
M  V30 4322 O 120.649 1.75605 2.20651 0
M  V30 4323 C 120.849 4.05747 1.64698 0
M  V30 4324 C 120.959 4.42345 3.09553 0
M  V30 4325 C 120.899 4.96734 0.652411 0
M  V30 4326 H 123.64 8.64917 -0.776982 0
M  V30 4327 H 123.909 6.89974 -0.474015 0
M  V30 4328 H 123.042 7.66548 -2.79458 0
M  V30 4329 H 120.387 5.16076 -2.65138 0
M  V30 4330 H 120.108 7.06433 -0.329384 0
M  V30 4331 H 119.116 6.90829 -1.81996 0
M  V30 4332 H 120.95 8.90774 -1.62639 0
M  V30 4333 H 121.021 6.02181 0.895285 0
M  V30 4334 H 119.991 4.80252 3.45468 0
M  V30 4335 H 121.728 5.20015 3.22119 0
M  V30 4336 H 121.24 3.53269 3.67833 0
M  V30 4337 H 120.504 1.39558 -0.227499 0
M  V30 4338 P 119.079 8.03563 -3.84925 0
M  V30 4339 O 118.859 8.85821 -5.0569 0
M  V30 4340 O 118.289 8.41101 -2.65469 0
M  V30 4341 O 118.829 6.49734 -4.18962 0
M  V30 4342 C 119.769 5.81037 -5.05421 0
M  V30 4343 C 119.039 4.79018 -5.88876 0
M  V30 4344 O 118.829 3.58359 -5.08515 0
M  V30 4345 C 117.639 5.17448 -6.36119 0
M  V30 4346 O 117.249 4.45322 -7.53318 0
M  V30 4347 C 116.759 4.74639 -5.19936 0
M  V30 4348 C 117.469 3.49432 -4.70418 0
M  V30 4349 N 117.419 3.31776 -3.22945 0
M  V30 4350 C 117.269 2.02742 -2.72939 0
M  V30 4351 O 117.179 1.08301 -3.52749 0
M  V30 4352 N 117.219 1.96117 -1.22063 0
M  V30 4353 C 117.319 2.8878 -0.551566 0
M  V30 4354 N 117.269 2.65609 0.750198 0
M  V30 4355 C 117.469 4.22457 -1.03707 0
M  V30 4356 C 117.519 4.37979 -2.39113 0
M  V30 4357 H 120.259 6.54138 -5.7131 0
M  V30 4358 H 120.529 5.30492 -4.44033 0
M  V30 4359 H 119.662 4.55945 -6.76735 0
M  V30 4360 H 117.007 2.6176 -5.18021 0
M  V30 4361 H 116.727 5.52233 -4.41941 0
M  V30 4362 H 115.736 4.52045 -5.53452 0
M  V30 4363 H 117.57 6.25124 -6.55234 0
M  V30 4364 H 117.642 5.37936 -2.80552 0
M  V30 4365 H 117.54 5.07528 -0.359553 0
M  V30 4366 H 117.152 1.69403 1.09847 0
M  V30 4367 H 117.348 3.43701 1.41792 0
M  V30 4368 P 115.699 4.23843 -7.83734 0
M  V30 4369 O 115.479 4.19407 -9.29784 0
M  V30 4370 O 114.909 5.24426 -7.09156 0
M  V30 4371 O 115.449 2.7935 -7.20758 0
M  V30 4372 C 116.389 1.7299 -7.50419 0
M  V30 4373 C 115.659 0.406376 -7.57911 0
M  V30 4374 O 115.449 -0.0897726 -6.21935 0
M  V30 4375 C 114.259 0.447224 -8.1878 0
M  V30 4376 O 113.869 -0.825065 -8.71101 0
M  V30 4377 C 113.379 0.783801 -6.99623 0
M  V30 4378 C 114.089 0.0619192 -5.85967 0
M  V30 4379 N 114.039 0.7859 -4.56281 0
M  V30 4380 H 116.878 1.93423 -8.4679 0
M  V30 4381 H 117.15 1.68181 -6.71046 0
M  V30 4382 H 116.282 -0.289041 -8.15388 0
M  V30 4383 P 112.319 -1.17771 -8.83182 0
M  V30 4384 O 112.099 -2.07206 -9.98732 0
M  V30 4385 O 111.529 0.0743816 -8.81969 0
M  V30 4386 O 112.069 -1.97652 -7.47304 0
M  V30 4387 C 113.009 -3.01133 -7.08783 0
M  V30 4388 C 112.279 -4.12613 -6.37049 0
M  V30 4389 O 112.069 -3.72827 -4.97879 0
M  V30 4390 C 110.879 -4.45085 -6.88694 0
M  V30 4391 O 110.489 -5.7877 -6.5624 0
M  V30 4392 C 109.999 -3.47817 -6.12078 0
M  V30 4393 C 110.709 -3.39414 -4.77697 0
M  V30 4394 N 110.659 -2.04615 -4.15333 0
M  V30 4395 H 113.498 -3.41248 -7.98759 0
M  V30 4396 H 113.77 -2.5837 -6.41742 0
M  V30 4397 H 112.902 -5.02657 -6.42673 0
M  V30 4398 P 108.939 -6.144 -6.45285 0
M  V30 4399 O 108.719 -7.54673 -6.86199 0
M  V30 4400 O 108.149 -5.12391 -7.179 0
M  V30 4401 O 108.689 -5.99158 -4.88404 0
M  V30 4402 C 109.629 -6.60234 -3.96415 0
M  V30 4403 C 108.899 -7.08259 -2.72856 0
M  V30 4404 O 108.689 -5.9427 -1.83651 0
M  V30 4405 C 107.499 -7.64886 -2.9555 0
M  V30 4406 O 107.109 -8.53963 -1.90717 0
M  V30 4407 C 106.619 -6.4116 -2.90739 0
M  V30 4408 C 107.329 -5.55375 -1.86963 0
M  V30 4409 N 107.279 -4.09448 -2.16152 0
M  V30 4410 H 110.118 -7.45574 -4.45629 0
M  V30 4411 H 110.39 -5.85864 -3.679 0
M  V30 4412 H 109.522 -7.84412 -2.24479 0
M  V30 4413 H 106.867 -5.73457 -0.888562 0
M  V30 4414 H 106.587 -5.90877 -3.88583 0
M  V30 4415 H 105.596 -6.6596 -2.58858 0
M  V30 4416 H 107.43 -8.16339 -3.92049 0
M  V30 4417 P 105.559 -8.7635 -1.60911 0
M  V30 4418 O 105.339 -10.1388 -1.11561 0
M  V30 4419 O 104.769 -8.36503 -2.79617 0
M  V30 4420 O 105.309 -7.71806 -0.42951 0
M  V30 4421 C 106.249 -7.67148 0.673689 0
M  V30 4422 C 105.519 -7.33374 1.95559 0
M  V30 4423 O 105.309 -5.88721 2.00726 0
M  V30 4424 C 104.119 -7.92526 2.10483 0
M  V30 4425 O 103.729 -8.02971 3.47653 0
M  V30 4426 C 103.239 -6.89602 1.41652 0
M  V30 4427 C 103.949 -5.59201 1.75185 0
M  V30 4428 N 103.899 -4.58301 0.657969 0
M  V30 4429 C 103.979 -4.79019 -0.692603 0
M  V30 4430 N 103.909 -3.69736 -1.38998 0
M  V30 4431 C 103.759 -2.70474 -0.438135 0
M  V30 4432 C 103.629 -1.30327 -0.538142 0
M  V30 4433 N 103.619 -0.64304 -1.69192 0
M  V30 4434 N 103.509 -0.611027 0.605183 0
M  V30 4435 C 103.519 -1.27002 1.75953 0
M  V30 4436 N 103.639 -2.56038 1.98546 0
M  V30 4437 C 103.759 -3.22681 0.822541 0
M  V30 4438 H 106.738 -8.65116 0.777161 0
M  V30 4439 H 107.01 -6.9022 0.46725 0
M  V30 4440 H 106.142 -7.66548 2.79458 0
M  V30 4441 H 103.487 -5.16165 2.65183 0
M  V30 4442 H 103.207 -7.06433 0.329384 0
M  V30 4443 H 102.216 -6.90926 1.82021 0
M  V30 4444 H 104.05 -8.90873 1.62657 0
M  V30 4445 H 104.091 -5.77785 -1.13874 0
M  V30 4446 H 103.71 -1.15585 -2.57991 0
M  V30 4447 H 103.521 0.382989 -1.69835 0
M  V30 4448 H 103.413 -0.653331 2.64449 0
M  V30 4449 P 102.179 -8.03563 3.84925 0
M  V30 4450 O 101.959 -8.85821 5.0569 0
M  V30 4451 O 101.389 -8.41101 2.65469 0
M  V30 4452 O 101.929 -6.4965 4.18908 0
M  V30 4453 C 102.869 -5.81037 5.05421 0
M  V30 4454 C 102.139 -4.78366 5.89277 0
M  V30 4455 O 101.929 -3.58302 5.08433 0
M  V30 4456 C 100.739 -5.17448 6.36119 0
M  V30 4457 O 100.349 -4.45271 7.53232 0
M  V30 4458 C 99.8594 -4.74639 5.19936 0
M  V30 4459 C 100.569 -3.49432 4.70418 0
M  V30 4460 N 100.519 -3.31776 3.22945 0
M  V30 4461 H 103.358 -6.54213 5.71376 0
M  V30 4462 H 103.63 -5.30492 4.44033 0
M  V30 4463 H 102.762 -4.55889 6.76652 0
M  V30 4464 P 98.7994 -4.23843 7.83734 0
M  V30 4465 O 98.5794 -4.19407 9.29784 0
M  V30 4466 O 98.0094 -5.24426 7.09156 0
M  V30 4467 O 98.5494 -2.7935 7.20758 0
M  V30 4468 C 99.4894 -1.72945 7.50224 0
M  V30 4469 C 98.7594 -0.406376 7.57911 0
M  V30 4470 O 98.5494 0.0897726 6.21935 0
M  V30 4471 C 97.3594 -0.438983 8.18724 0
M  V30 4472 O 96.9694 0.825065 8.71101 0
M  V30 4473 C 96.4794 -0.783689 6.99524 0
M  V30 4474 C 97.1894 -0.0619086 5.85867 0
M  V30 4475 N 97.1394 -0.78573 4.56183 0
M  V30 4476 C 96.9894 -0.0292889 3.41887 0
M  V30 4477 O 96.8994 1.18445 3.4419 0
M  V30 4478 N 96.9494 -0.744061 2.23964 0
M  V30 4479 C 97.0394 -2.10932 2.10362 0
M  V30 4480 O 96.9894 -2.64117 0.98825 0
M  V30 4481 C 97.1894 -2.8202 3.34994 0
M  V30 4482 C 97.2994 -4.31095 3.25037 0
M  V30 4483 C 97.2394 -2.15547 4.52261 0
M  V30 4484 H 99.9804 -1.93379 8.46595 0
M  V30 4485 H 100.249 -1.68132 6.70852 0
M  V30 4486 H 99.3824 0.289041 8.15388 0
M  V30 4487 H 96.7274 0.926847 5.72749 0
M  V30 4488 H 96.4484 -1.86973 6.82036 0
M  V30 4489 H 95.4564 -0.403896 7.13257 0
M  V30 4490 H 97.2904 -1.20585 8.97435 0
M  V30 4491 H 97.3614 -2.71231 5.45042 0
M  V30 4492 H 96.3314 -4.76966 3.49992 0
M  V30 4493 H 98.0684 -4.67047 3.95024 0
M  V30 4494 H 97.5804 -4.58996 2.22312 0
M  V30 4495 H 96.8444 -0.214893 1.39758 0
M  V30 4496 P 95.4195 1.17771 8.83182 0
M  V30 4497 O 95.1995 2.07206 9.98732 0
M  V30 4498 O 94.6295 -0.0743816 8.81969 0
M  V30 4499 O 95.1695 1.97652 7.47304 0
M  V30 4500 C 96.1095 3.01133 7.08783 0
M  V30 4501 C 95.3795 4.12613 6.37049 0
M  V30 4502 O 95.1695 3.72827 4.97879 0
M  V30 4503 C 93.9795 4.45085 6.88694 0
M  V30 4504 O 93.5895 5.7877 6.5624 0
M  V30 4505 C 93.0995 3.47817 6.12078 0
M  V30 4506 C 93.8095 3.39414 4.77697 0
M  V30 4507 N 93.7595 2.04615 4.15333 0
M  V30 4508 H 96.5985 3.41248 7.98759 0
M  V30 4509 H 96.8705 2.5837 6.41742 0
M  V30 4510 H 96.0025 5.02657 6.42673 0
M  V30 4511 P 92.0395 6.144 6.45285 0
M  V30 4512 O 91.8195 7.54673 6.86199 0
M  V30 4513 O 91.2495 5.12391 7.179 0
M  V30 4514 O 91.7895 5.99158 4.88404 0
M  V30 4515 C 92.7295 6.60234 3.96415 0
M  V30 4516 C 91.9995 7.08259 2.72856 0
M  V30 4517 O 91.7895 5.9427 1.83651 0
M  V30 4518 C 90.5995 7.64886 2.9555 0
M  V30 4519 O 90.2095 8.53963 1.90717 0
M  V30 4520 C 89.7195 6.4116 2.90739 0
M  V30 4521 C 90.4295 5.55375 1.86963 0
M  V30 4522 N 90.3795 4.09664 2.15742 0
M  V30 4523 H 93.2185 7.45574 4.45629 0
M  V30 4524 H 93.4905 5.86232 3.67314 0
M  V30 4525 H 92.6225 7.84412 2.24479 0
M  V30 4526 P 88.6595 8.7635 1.60911 0
M  V30 4527 O 88.4395 10.1388 1.11561 0
M  V30 4528 O 87.8695 8.36503 2.79617 0
M  V30 4529 O 88.4095 7.71806 0.42951 0
M  V30 4530 C 89.3495 7.67148 -0.673689 0
M  V30 4531 C 88.6195 7.33374 -1.95559 0
M  V30 4532 O 88.4095 5.88721 -2.00726 0
M  V30 4533 C 87.2195 7.92526 -2.10483 0
M  V30 4534 O 86.8295 8.02971 -3.47653 0
M  V30 4535 C 86.3395 6.89602 -1.41652 0
M  V30 4536 C 87.0495 5.59201 -1.75185 0
M  V30 4537 N 86.9995 4.58235 -0.662552 0
M  V30 4538 H 89.8385 8.65116 -0.777161 0
M  V30 4539 H 90.1105 6.90173 -0.474152 0
M  V30 4540 H 89.2425 7.66548 -2.79458 0
M  V30 4541 P 85.2795 8.03563 -3.84925 0
M  V30 4542 O 85.0595 8.85821 -5.0569 0
M  V30 4543 O 84.4895 8.41101 -2.65469 0
M  V30 4544 O 85.0295 6.4965 -4.18908 0
M  V30 4545 C 85.9695 5.81037 -5.05421 0
M  V30 4546 C 85.2395 4.78366 -5.89277 0
M  V30 4547 O 85.0295 3.58302 -5.08433 0
M  V30 4548 C 83.8395 5.17448 -6.36119 0
M  V30 4549 O 83.4495 4.45271 -7.53232 0
M  V30 4550 C 82.9595 4.74639 -5.19936 0
M  V30 4551 C 83.6695 3.49432 -4.70418 0
M  V30 4552 N 83.6195 3.32099 -3.22613 0
M  V30 4553 H 86.4585 6.54213 -5.71376 0
M  V30 4554 H 86.7305 5.30936 -4.43503 0
M  V30 4555 H 85.8625 4.55889 -6.76652 0
M  V30 4556 H 83.2075 2.61715 -5.17932 0
M  V30 4557 H 82.9275 5.52155 -4.41878 0
M  V30 4558 H 81.9365 4.51981 -5.53374 0
M  V30 4559 H 83.7705 6.25124 -6.55234 0
M  V30 4560 P 81.8995 4.23843 -7.83734 0
M  V30 4561 O 81.6795 4.19407 -9.29784 0
M  V30 4562 O 81.1095 5.24426 -7.09156 0
M  V30 4563 O 81.6495 2.7935 -7.20758 0
M  V30 4564 C 82.5895 1.72945 -7.50224 0
M  V30 4565 C 81.8595 0.406376 -7.57911 0
M  V30 4566 O 81.6495 -0.0897726 -6.21935 0
M  V30 4567 C 80.4595 0.438983 -8.18724 0
M  V30 4568 O 80.0695 -0.825065 -8.71101 0
M  V30 4569 C 79.5795 0.783689 -6.99524 0
M  V30 4570 C 80.2895 0.0619086 -5.85867 0
M  V30 4571 N 80.2395 0.78573 -4.56183 0
M  V30 4572 C 80.0895 0.0292889 -3.41887 0
M  V30 4573 O 79.9995 -1.18445 -3.4419 0
M  V30 4574 N 80.0495 0.744061 -2.23964 0
M  V30 4575 C 80.1395 2.10932 -2.10362 0
M  V30 4576 O 80.0895 2.64117 -0.98825 0
M  V30 4577 C 80.2895 2.8202 -3.34994 0
M  V30 4578 C 80.3995 4.31095 -3.25037 0
M  V30 4579 C 80.3395 2.15547 -4.52261 0
M  V30 4580 H 83.0805 1.93379 -8.46595 0
M  V30 4581 H 83.3495 1.68132 -6.70852 0
M  V30 4582 H 82.4825 -0.289041 -8.15388 0
M  V30 4583 H 79.8275 -0.926847 -5.72749 0
M  V30 4584 H 79.5485 1.86973 -6.82036 0
M  V30 4585 H 78.5565 0.403896 -7.13257 0
M  V30 4586 H 80.3905 1.20585 -8.97435 0
M  V30 4587 H 80.4615 2.71231 -5.45042 0
M  V30 4588 H 79.4315 4.76966 -3.49992 0
M  V30 4589 H 81.1685 4.67047 -3.95024 0
M  V30 4590 H 80.6805 4.58996 -2.22312 0
M  V30 4591 H 79.9445 0.214893 -1.39758 0
M  V30 4592 P 78.5196 -1.17771 -8.83182 0
M  V30 4593 O 78.2996 -2.07206 -9.98732 0
M  V30 4594 O 77.7296 0.0743816 -8.81969 0
M  V30 4595 O 78.2696 -1.97652 -7.47304 0
M  V30 4596 C 79.2096 -3.01055 -7.08599 0
M  V30 4597 C 78.4796 -4.12613 -6.37049 0
M  V30 4598 O 78.2696 -3.72827 -4.97879 0
M  V30 4599 C 77.0796 -4.45719 -6.88164 0
M  V30 4600 O 76.6896 -5.7877 -6.5624 0
M  V30 4601 C 76.1996 -3.47768 -6.11991 0
M  V30 4602 C 76.9096 -3.39356 -4.77615 0
M  V30 4603 N 76.8596 -2.04571 -4.15244 0
M  V30 4604 C 76.7096 -1.98587 -2.78314 0
M  V30 4605 O 76.6196 -2.98134 -2.08835 0
M  V30 4606 N 76.6696 -0.714467 -2.24925 0
M  V30 4607 C 76.7596 0.470001 -2.94169 0
M  V30 4608 O 76.7096 1.55587 -2.35195 0
M  V30 4609 C 76.9096 0.312541 -4.36783 0
M  V30 4610 C 77.0196 1.57711 -5.16352 0
M  V30 4611 C 76.9596 -0.914512 -4.92583 0
M  V30 4612 H 79.7006 -3.41169 -7.98575 0
M  V30 4613 H 79.9696 -2.58295 -6.41556 0
M  V30 4614 H 79.1026 -5.02657 -6.42673 0
M  V30 4615 H 76.4476 -4.11637 -4.08885 0
M  V30 4616 H 76.1686 -2.49626 -6.61679 0
M  V30 4617 H 75.1766 -3.86566 -6.00778 0
M  V30 4618 H 77.0106 -4.29943 -7.96918 0
M  V30 4619 H 77.0816 -1.00937 -6.00374 0
M  V30 4620 H 76.0516 1.80153 -5.63503 0
M  V30 4621 H 77.7886 1.4566 -5.94104 0
M  V30 4622 H 77.3006 2.40664 -4.49645 0
M  V30 4623 H 76.5646 -0.647622 -1.25697 0
M  V30 4624 P 75.1396 -6.144 -6.45285 0
M  V30 4625 O 74.9196 -7.54673 -6.86199 0
M  V30 4626 O 74.3496 -5.12391 -7.179 0
M  V30 4627 O 74.8896 -5.99158 -4.88404 0
M  V30 4628 C 75.8296 -6.60062 -3.96313 0
M  V30 4629 C 75.0996 -7.08259 -2.72856 0
M  V30 4630 O 74.8896 -5.9427 -1.83651 0
M  V30 4631 C 73.6996 -7.65087 -2.94749 0
M  V30 4632 O 73.3096 -8.53963 -1.90717 0
M  V30 4633 C 72.8196 -6.41069 -2.90698 0
M  V30 4634 C 73.5296 -5.5528 -1.86931 0
M  V30 4635 N 73.4796 -4.09575 -2.15696 0
M  V30 4636 C 73.3296 -3.24249 -1.08435 0
M  V30 4637 O 73.2396 -3.63946 0.0628747 0
M  V30 4638 N 73.2896 -1.90009 -1.39973 0
M  V30 4639 C 73.3796 -1.34884 -2.65614 0
M  V30 4640 O 73.3296 -0.123716 -2.81728 0
M  V30 4641 C 73.5296 -2.3145 -3.71736 0
M  V30 4642 C 73.6396 -1.75913 -5.10438 0
M  V30 4643 C 73.5796 -3.63518 -3.44754 0
M  V30 4644 H 76.3206 -7.45402 -4.45526 0
M  V30 4645 H 76.5896 -5.86062 -3.67208 0
M  V30 4646 H 75.7226 -7.84412 -2.24479 0
M  V30 4647 H 73.0676 -5.73358 -0.888409 0
M  V30 4648 H 72.7886 -5.90877 -3.88583 0
M  V30 4649 H 71.7966 -6.65867 -2.58821 0
M  V30 4650 H 73.6306 -8.16248 -3.92006 0
M  V30 4651 H 73.7016 -4.34551 -4.26383 0
M  V30 4652 H 72.6716 -1.85471 -5.61775 0
M  V30 4653 H 74.4086 -2.31364 -5.66257 0
M  V30 4654 H 73.9206 -0.695936 -5.05229 0
M  V30 4655 H 73.1846 -1.26277 -0.63625 0
M  V30 4656 P 71.7596 -8.7635 -1.60911 0
M  V30 4657 O 71.5396 -10.1388 -1.11561 0
M  V30 4658 O 70.9696 -8.36503 -2.79617 0
M  V30 4659 O 71.5096 -7.71806 -0.42951 0
M  V30 4660 C 72.4496 -7.67148 0.673689 0
M  V30 4661 C 71.7196 -7.33374 1.95559 0
M  V30 4662 O 71.5096 -5.88721 2.00726 0
M  V30 4663 C 70.3196 -7.92526 2.10483 0
M  V30 4664 O 69.9296 -8.02971 3.47653 0
M  V30 4665 C 69.4396 -6.89602 1.41652 0
M  V30 4666 C 70.1496 -5.59201 1.75185 0
M  V30 4667 N 70.0996 -4.58235 0.662552 0
M  V30 4668 H 72.9386 -8.65116 0.777161 0
M  V30 4669 H 73.2106 -6.90173 0.474152 0
M  V30 4670 H 72.3426 -7.66548 2.79458 0
M  V30 4671 P 68.3796 -8.03563 3.84925 0
M  V30 4672 O 68.1596 -8.85821 5.0569 0
M  V30 4673 O 67.5896 -8.41101 2.65469 0
M  V30 4674 O 68.1296 -6.49734 4.18962 0
M  V30 4675 C 69.0696 -5.81037 5.05421 0
M  V30 4676 C 68.3396 -4.79018 5.88876 0
M  V30 4677 O 68.1296 -3.58359 5.08515 0
M  V30 4678 C 66.9396 -5.17448 6.36119 0
M  V30 4679 O 66.5496 -4.45322 7.53318 0
M  V30 4680 C 66.0596 -4.74639 5.19936 0
M  V30 4681 C 66.7696 -3.49432 4.70418 0
M  V30 4682 N 66.7196 -3.31776 3.22945 0
M  V30 4683 C 66.5696 -2.02742 2.72939 0
M  V30 4684 O 66.4796 -1.08301 3.52749 0
M  V30 4685 N 66.5196 -1.96117 1.22063 0
M  V30 4686 C 66.6196 -2.8878 0.551566 0
M  V30 4687 N 66.5696 -2.65609 -0.750198 0
M  V30 4688 C 66.7696 -4.22457 1.03707 0
M  V30 4689 C 66.8196 -4.37979 2.39113 0
M  V30 4690 H 69.5596 -6.54138 5.7131 0
M  V30 4691 H 69.8296 -5.30492 4.44033 0
M  V30 4692 H 68.9626 -4.55945 6.76735 0
M  V30 4693 H 66.3076 -2.6176 5.18021 0
M  V30 4694 H 66.0276 -5.52233 4.41941 0
M  V30 4695 H 65.0366 -4.52045 5.53452 0
M  V30 4696 H 66.8706 -6.25124 6.55234 0
M  V30 4697 H 66.9426 -5.37936 2.80552 0
M  V30 4698 H 66.8406 -5.07528 0.359553 0
M  V30 4699 H 66.4526 -1.69403 -1.09847 0
M  V30 4700 H 66.6486 -3.43701 -1.41792 0
M  V30 4701 P 64.9996 -4.23843 7.83734 0
M  V30 4702 O 64.7796 -4.19407 9.29784 0
M  V30 4703 O 64.2096 -5.24426 7.09156 0
M  V30 4704 O 64.7496 -2.7935 7.20758 0
M  V30 4705 C 65.6896 -1.72945 7.50224 0
M  V30 4706 C 64.9596 -0.406376 7.57911 0
M  V30 4707 O 64.7496 0.0897726 6.21935 0
M  V30 4708 C 63.5596 -0.438983 8.18724 0
M  V30 4709 O 63.1696 0.825065 8.71101 0
M  V30 4710 C 62.6796 -0.783689 6.99524 0
M  V30 4711 C 63.3896 -0.0619086 5.85867 0
M  V30 4712 N 63.3396 -0.78573 4.56183 0
M  V30 4713 C 63.1896 -0.0292889 3.41887 0
M  V30 4714 O 63.0996 1.18445 3.4419 0
M  V30 4715 N 63.1496 -0.744061 2.23964 0
M  V30 4716 C 63.2396 -2.10932 2.10362 0
M  V30 4717 O 63.1896 -2.64117 0.98825 0
M  V30 4718 C 63.3896 -2.8202 3.34994 0
M  V30 4719 C 63.4996 -4.31095 3.25037 0
M  V30 4720 C 63.4396 -2.15547 4.52261 0
M  V30 4721 H 66.1806 -1.93379 8.46595 0
M  V30 4722 H 66.4496 -1.68132 6.70852 0
M  V30 4723 H 65.5826 0.289041 8.15388 0
M  V30 4724 H 62.9276 0.926847 5.72749 0
M  V30 4725 H 62.6486 -1.86973 6.82036 0
M  V30 4726 H 61.6566 -0.403896 7.13257 0
M  V30 4727 H 63.4906 -1.20585 8.97435 0
M  V30 4728 H 63.5616 -2.71231 5.45042 0
M  V30 4729 H 62.5316 -4.76966 3.49992 0
M  V30 4730 H 64.2686 -4.67047 3.95024 0
M  V30 4731 H 63.7806 -4.58996 2.22312 0
M  V30 4732 H 63.0446 -0.214893 1.39758 0
M  V30 4733 P 61.6197 1.17771 8.83182 0
M  V30 4734 O 61.3997 2.07206 9.98732 0
M  V30 4735 O 60.8297 -0.0743816 8.81969 0
M  V30 4736 O 61.3697 1.97652 7.47304 0
M  V30 4737 C 62.3097 3.01133 7.08783 0
M  V30 4738 C 61.5797 4.12613 6.37049 0
M  V30 4739 O 61.3697 3.72827 4.97879 0
M  V30 4740 C 60.1797 4.45085 6.88694 0
M  V30 4741 O 59.7897 5.7877 6.5624 0
M  V30 4742 C 59.2997 3.47817 6.12078 0
M  V30 4743 C 60.0097 3.39414 4.77697 0
M  V30 4744 N 59.9597 2.04615 4.15333 0
M  V30 4745 H 62.7987 3.41248 7.98759 0
M  V30 4746 H 63.0707 2.5837 6.41742 0
M  V30 4747 H 62.2027 5.02657 6.42673 0
M  V30 4748 P 58.2397 6.144 6.45285 0
M  V30 4749 O 58.0197 7.54673 6.86199 0
M  V30 4750 O 57.4497 5.12391 7.179 0
M  V30 4751 O 57.9897 5.99236 4.88467 0
M  V30 4752 C 58.9297 6.60234 3.96415 0
M  V30 4753 C 58.1997 7.08079 2.736 0
M  V30 4754 O 57.9897 5.94365 1.8368 0
M  V30 4755 C 56.7997 7.64886 2.9555 0
M  V30 4756 O 56.4097 8.5406 1.90739 0
M  V30 4757 C 55.9197 6.4116 2.90739 0
M  V30 4758 C 56.6297 5.55375 1.86963 0
M  V30 4759 N 56.5797 4.09664 2.15742 0
M  V30 4760 C 56.4297 3.22231 1.08477 0
M  V30 4761 O 56.3397 3.68951 -0.0600489 0
M  V30 4762 N 56.3797 1.76692 1.48799 0
M  V30 4763 C 56.4797 1.41695 2.57602 0
M  V30 4764 N 56.4297 0.107296 2.75791 0
M  V30 4765 C 56.6297 2.29178 3.69733 0
M  V30 4766 C 56.6797 3.62753 3.42653 0
M  V30 4767 H 59.4197 7.45488 4.45578 0
M  V30 4768 H 59.6897 5.86232 3.67314 0
M  V30 4769 H 58.8227 7.84508 2.24507 0
M  V30 4770 H 56.1677 5.73556 0.888715 0
M  V30 4771 H 55.8877 5.9096 3.88638 0
M  V30 4772 H 54.8967 6.66053 2.58894 0
M  V30 4773 H 56.7307 8.16339 3.92049 0
M  V30 4774 H 56.8027 4.33052 4.24913 0
M  V30 4775 H 56.7007 1.9103 4.71577 0
M  V30 4776 H 56.3127 -0.521221 1.95056 0
M  V30 4777 H 56.5087 -0.286429 3.70695 0
M  V30 4778 P 54.8597 8.7635 1.60911 0
M  V30 4779 O 54.6397 10.1388 1.11561 0
M  V30 4780 O 54.0697 8.36503 2.79617 0
M  V30 4781 O 54.6097 7.71806 0.42951 0
M  V30 4782 C 55.5497 7.67148 -0.673689 0
M  V30 4783 C 54.8197 7.33374 -1.95559 0
M  V30 4784 O 54.6097 5.88721 -2.00726 0
M  V30 4785 C 53.4197 7.92526 -2.10483 0
M  V30 4786 O 53.0297 8.02971 -3.47653 0
M  V30 4787 C 52.5397 6.89602 -1.41652 0
M  V30 4788 C 53.2497 5.59201 -1.75185 0
M  V30 4789 N 53.1997 4.58235 -0.662552 0
M  V30 4790 H 56.0387 8.65116 -0.777161 0
M  V30 4791 H 56.3107 6.90173 -0.474152 0
M  V30 4792 H 55.4427 7.66548 -2.79458 0
M  V30 4793 P 51.4797 8.03563 -3.84925 0
M  V30 4794 O 51.2597 8.85821 -5.0569 0
M  V30 4795 O 50.6897 8.41101 -2.65469 0
M  V30 4796 O 51.2297 6.4965 -4.18908 0
M  V30 4797 C 52.1697 5.81037 -5.05421 0
M  V30 4798 C 51.4397 4.78366 -5.89277 0
M  V30 4799 O 51.2297 3.58302 -5.08433 0
M  V30 4800 C 50.0397 5.17448 -6.36119 0
M  V30 4801 O 49.6497 4.45271 -7.53232 0
M  V30 4802 C 49.1597 4.74639 -5.19936 0
M  V30 4803 C 49.8697 3.49432 -4.70418 0
M  V30 4804 N 49.8197 3.31776 -3.22945 0
M  V30 4805 H 52.6587 6.54213 -5.71376 0
M  V30 4806 H 52.9307 5.30492 -4.44033 0
M  V30 4807 H 52.0627 4.55889 -6.76652 0
M  V30 4808 P 48.0997 4.23843 -7.83734 0
M  V30 4809 O 47.8797 4.19407 -9.29784 0
M  V30 4810 O 47.3097 5.24426 -7.09156 0
M  V30 4811 O 47.8497 2.7935 -7.20758 0
M  V30 4812 C 48.7897 1.7299 -7.50419 0
M  V30 4813 C 48.0597 0.406376 -7.57911 0
M  V30 4814 O 47.8497 -0.0897726 -6.21935 0
M  V30 4815 C 46.6597 0.447224 -8.1878 0
M  V30 4816 O 46.2697 -0.825065 -8.71101 0
M  V30 4817 C 45.7797 0.783801 -6.99623 0
M  V30 4818 C 46.4897 0.0619192 -5.85967 0
M  V30 4819 N 46.4397 0.7859 -4.56281 0
M  V30 4820 H 49.2787 1.93423 -8.4679 0
M  V30 4821 H 49.5507 1.68181 -6.71046 0
M  V30 4822 H 48.6827 -0.289041 -8.15388 0
M  V30 4823 P 44.7198 -1.17771 -8.83182 0
M  V30 4824 O 44.4998 -2.07206 -9.98732 0
M  V30 4825 O 43.9298 0.0743816 -8.81969 0
M  V30 4826 O 44.4698 -1.97652 -7.47304 0
M  V30 4827 C 45.4098 -3.01055 -7.08599 0
M  V30 4828 C 44.6798 -4.12613 -6.37049 0
M  V30 4829 O 44.4698 -3.72827 -4.97879 0
M  V30 4830 C 43.2798 -4.45719 -6.88164 0
M  V30 4831 O 42.8898 -5.7877 -6.5624 0
M  V30 4832 C 42.3998 -3.47768 -6.11991 0
M  V30 4833 C 43.1098 -3.39356 -4.77615 0
M  V30 4834 N 43.0598 -2.04571 -4.15244 0
M  V30 4835 C 42.9098 -1.98587 -2.78314 0
M  V30 4836 O 42.8198 -2.98134 -2.08835 0
M  V30 4837 N 42.8698 -0.714467 -2.24925 0
M  V30 4838 C 42.9598 0.470001 -2.94169 0
M  V30 4839 C 43.1098 0.312541 -4.36783 0
M  V30 4840 C 43.1598 -0.914512 -4.92583 0
M  V30 4841 H 45.9008 -3.41169 -7.98575 0
M  V30 4842 H 46.1698 -2.58295 -6.41556 0
M  V30 4843 H 45.3028 -5.02657 -6.42673 0
M  V30 4844 H 42.6478 -4.11637 -4.08885 0
M  V30 4845 H 42.3688 -2.49626 -6.61679 0
M  V30 4846 H 41.3768 -3.86566 -6.00778 0
M  V30 4847 H 43.2108 -4.29943 -7.96918 0
M  V30 4848 H 43.2818 -1.00937 -6.00374 0
M  V30 4849 P 41.3398 -6.144 -6.45285 0
M  V30 4850 O 41.1198 -7.54673 -6.86199 0
M  V30 4851 O 40.5498 -5.12391 -7.179 0
M  V30 4852 O 41.0898 -5.99158 -4.88404 0
M  V30 4853 C 42.0298 -6.60234 -3.96415 0
M  V30 4854 C 41.2998 -7.08259 -2.72856 0
M  V30 4855 O 41.0898 -5.9427 -1.83651 0
M  V30 4856 C 39.8998 -7.64886 -2.9555 0
M  V30 4857 O 39.5098 -8.53963 -1.90717 0
M  V30 4858 C 39.0198 -6.4116 -2.90739 0
M  V30 4859 C 39.7298 -5.55375 -1.86963 0
M  V30 4860 N 39.6798 -4.09664 -2.15742 0
M  V30 4861 H 42.5188 -7.45574 -4.45629 0
M  V30 4862 H 42.7908 -5.86232 -3.67314 0
M  V30 4863 H 41.9228 -7.84412 -2.24479 0
M  V30 4864 P 37.9598 -8.7635 -1.60911 0
M  V30 4865 O 37.7398 -10.1388 -1.11561 0
M  V30 4866 O 37.1698 -8.36503 -2.79617 0
M  V30 4867 O 37.7098 -7.71806 -0.42951 0
M  V30 4868 C 38.6498 -7.67148 0.673689 0
M  V30 4869 C 37.9198 -7.33374 1.95559 0
M  V30 4870 O 37.7098 -5.88721 2.00726 0
M  V30 4871 C 36.5198 -7.92526 2.10483 0
M  V30 4872 O 36.1298 -8.02971 3.47653 0
M  V30 4873 C 35.6398 -6.89602 1.41652 0
M  V30 4874 C 36.3498 -5.59201 1.75185 0
M  V30 4875 N 36.2998 -4.58301 0.657969 0
M  V30 4876 C 36.3798 -4.79019 -0.692603 0
M  V30 4877 N 36.3098 -3.69736 -1.38998 0
M  V30 4878 C 36.1598 -2.70474 -0.438135 0
M  V30 4879 C 36.0298 -1.30327 -0.538142 0
M  V30 4880 N 36.0198 -0.64304 -1.69192 0
M  V30 4881 N 35.9098 -0.611027 0.605183 0
M  V30 4882 C 35.9198 -1.27002 1.75953 0
M  V30 4883 N 36.0398 -2.56038 1.98546 0
M  V30 4884 C 36.1598 -3.22681 0.822541 0
M  V30 4885 H 39.1388 -8.65116 0.777161 0
M  V30 4886 H 39.4108 -6.9022 0.46725 0
M  V30 4887 H 38.5428 -7.66548 2.79458 0
M  V30 4888 H 35.8878 -5.16165 2.65183 0
M  V30 4889 H 35.6078 -7.06433 0.329384 0
M  V30 4890 H 34.6168 -6.90926 1.82021 0
M  V30 4891 H 36.4508 -8.90873 1.62657 0
M  V30 4892 H 36.4918 -5.77785 -1.13874 0
M  V30 4893 H 36.1108 -1.15585 -2.57991 0
M  V30 4894 H 35.9218 0.382989 -1.69835 0
M  V30 4895 H 35.8138 -0.653331 2.64449 0
M  V30 4896 P 34.5798 -8.03563 3.84925 0
M  V30 4897 O 34.3598 -8.85821 5.0569 0
M  V30 4898 O 33.7898 -8.41101 2.65469 0
M  V30 4899 O 34.3298 -6.49734 4.18962 0
M  V30 4900 C 35.2698 -5.81037 5.05421 0
M  V30 4901 C 34.5398 -4.79018 5.88876 0
M  V30 4902 O 34.3298 -3.58359 5.08515 0
M  V30 4903 C 33.1398 -5.17448 6.36119 0
M  V30 4904 O 32.7498 -4.45322 7.53318 0
M  V30 4905 C 32.2598 -4.74639 5.19936 0
M  V30 4906 C 32.9698 -3.49432 4.70418 0
M  V30 4907 N 32.9198 -3.31776 3.22945 0
M  V30 4908 C 32.7698 -2.02742 2.72939 0
M  V30 4909 O 32.6798 -1.08301 3.52749 0
M  V30 4910 N 32.7198 -1.96117 1.22063 0
M  V30 4911 C 32.8198 -2.8878 0.551566 0
M  V30 4912 N 32.7698 -2.65609 -0.750198 0
M  V30 4913 C 32.9698 -4.22457 1.03707 0
M  V30 4914 C 33.0198 -4.37979 2.39113 0
M  V30 4915 H 35.7598 -6.54138 5.7131 0
M  V30 4916 H 36.0298 -5.30492 4.44033 0
M  V30 4917 H 35.1628 -4.55945 6.76735 0
M  V30 4918 H 32.5078 -2.6176 5.18021 0
M  V30 4919 H 32.2278 -5.52233 4.41941 0
M  V30 4920 H 31.2368 -4.52045 5.53452 0
M  V30 4921 H 33.0708 -6.25124 6.55234 0
M  V30 4922 H 33.1428 -5.37936 2.80552 0
M  V30 4923 H 33.0408 -5.07528 0.359553 0
M  V30 4924 H 32.6528 -1.69403 -1.09847 0
M  V30 4925 H 32.8488 -3.43701 -1.41792 0
M  V30 4926 P 31.1998 -4.23843 7.83734 0
M  V30 4927 O 30.9798 -4.19407 9.29784 0
M  V30 4928 O 30.4098 -5.24426 7.09156 0
M  V30 4929 O 30.9498 -2.7935 7.20758 0
M  V30 4930 C 31.8898 -1.7299 7.50419 0
M  V30 4931 C 31.1598 -0.406376 7.57911 0
M  V30 4932 O 30.9498 0.0897726 6.21935 0
M  V30 4933 C 29.7598 -0.447224 8.1878 0
M  V30 4934 O 29.3698 0.825065 8.71101 0
M  V30 4935 C 28.8798 -0.783801 6.99623 0
M  V30 4936 C 29.5898 -0.0619192 5.85967 0
M  V30 4937 N 29.5398 -0.790462 4.56202 0
M  V30 4938 H 32.3788 -1.93423 8.4679 0
M  V30 4939 H 32.6508 -1.68852 6.70877 0
M  V30 4940 H 31.7828 0.289041 8.15388 0
M  V30 4941 H 29.1278 0.927006 5.72848 0
M  V30 4942 H 28.8478 -1.86973 6.82036 0
M  V30 4943 H 27.8568 -0.403953 7.13357 0
M  V30 4944 H 29.6908 -1.20599 8.97534 0
M  V30 4945 P 27.8199 1.17771 8.83182 0
M  V30 4946 O 27.5999 2.07206 9.98732 0
M  V30 4947 O 27.0299 -0.0743816 8.81969 0
M  V30 4948 O 27.5699 1.97678 7.474 0
M  V30 4949 C 28.5099 3.01133 7.08783 0
M  V30 4950 C 27.7799 4.1203 6.37546 0
M  V30 4951 O 27.5699 3.72887 4.9796 0
M  V30 4952 C 26.3799 4.45085 6.88694 0
M  V30 4953 O 25.9899 5.78836 6.56315 0
M  V30 4954 C 25.4999 3.47817 6.12078 0
M  V30 4955 C 26.2099 3.39414 4.77697 0
M  V30 4956 N 26.1599 2.04615 4.15333 0
M  V30 4957 C 26.0099 1.96929 2.77162 0
M  V30 4958 O 25.9199 3.02017 2.12006 0
M  V30 4959 N 25.9599 0.55485 2.24237 0
M  V30 4960 C 26.0599 -0.367808 2.9169 0
M  V30 4961 N 26.0099 -1.53426 2.29427 0
M  V30 4962 C 26.2099 -0.319148 4.33828 0
M  V30 4963 C 26.2599 0.920672 4.90433 0
M  V30 4964 H 28.9999 3.41209 7.98667 0
M  V30 4965 H 29.2699 2.5837 6.41742 0
M  V30 4966 H 28.4029 5.02718 6.42752 0
M  V30 4967 H 25.7479 4.11779 4.09026 0
M  V30 4968 H 25.4679 2.49661 6.61772 0
M  V30 4969 H 24.4769 3.86674 6.00946 0
M  V30 4970 H 26.3109 4.29991 7.97006 0
M  V30 4971 H 26.3829 1.00589 5.98303 0
M  V30 4972 H 26.2809 -1.22639 4.93799 0
M  V30 4973 H 25.8929 -1.56819 1.27167 0
M  V30 4974 H 26.0889 -2.41062 2.83063 0
M  V30 4975 P 24.4399 6.144 6.45285 0
M  V30 4976 O 24.2199 7.54673 6.86199 0
M  V30 4977 O 23.6499 5.12391 7.179 0
M  V30 4978 O 24.1899 5.99158 4.88404 0
M  V30 4979 C 25.1299 6.60062 3.96313 0
M  V30 4980 C 24.3999 7.08259 2.72856 0
M  V30 4981 O 24.1899 5.9427 1.83651 0
M  V30 4982 C 22.9999 7.65087 2.94749 0
M  V30 4983 O 22.6099 8.53963 1.90717 0
M  V30 4984 C 22.1199 6.41069 2.90698 0
M  V30 4985 C 22.8299 5.5528 1.86931 0
M  V30 4986 N 22.7799 4.09575 2.15696 0
M  V30 4987 C 22.6299 3.24249 1.08435 0
M  V30 4988 O 22.5399 3.63946 -0.0628747 0
M  V30 4989 N 22.5899 1.90009 1.39973 0
M  V30 4990 C 22.6799 1.34884 2.65614 0
M  V30 4991 O 22.6299 0.123716 2.81728 0
M  V30 4992 C 22.8299 2.3145 3.71736 0
M  V30 4993 C 22.9399 1.75913 5.10438 0
M  V30 4994 C 22.8799 3.63518 3.44754 0
M  V30 4995 H 25.6209 7.45402 4.45526 0
M  V30 4996 H 25.8899 5.86062 3.67208 0
M  V30 4997 H 25.0229 7.84412 2.24479 0
M  V30 4998 H 22.3679 5.73358 0.888409 0
M  V30 4999 H 22.0889 5.90877 3.88583 0
M  V30 5000 H 21.0969 6.65867 2.58821 0
M  V30 5001 H 22.9309 8.16248 3.92006 0
M  V30 5002 H 23.0019 4.34551 4.26383 0
M  V30 5003 H 21.9719 1.85471 5.61775 0
M  V30 5004 H 23.7089 2.31364 5.66257 0
M  V30 5005 H 23.2209 0.695936 5.05229 0
M  V30 5006 H 22.4849 1.26277 0.63625 0
M  V30 5007 P 21.0599 8.7635 1.60911 0
M  V30 5008 O 20.8399 10.1388 1.11561 0
M  V30 5009 O 20.2699 8.36503 2.79617 0
M  V30 5010 O 20.8099 7.71806 0.42951 0
M  V30 5011 C 21.7499 7.66948 -0.673514 0
M  V30 5012 C 21.0199 7.33374 -1.95559 0
M  V30 5013 O 20.8099 5.88721 -2.00726 0
M  V30 5014 C 19.6199 7.92218 -2.1125 0
M  V30 5015 O 19.2299 8.02971 -3.47653 0
M  V30 5016 C 18.7399 6.89504 -1.41631 0
M  V30 5017 C 19.4499 5.59106 -1.75155 0
M  V30 5018 N 19.3999 4.58136 -0.662409 0
M  V30 5019 C 19.2499 3.26059 -1.02863 0
M  V30 5020 O 19.1599 2.90743 -2.19009 0
M  V30 5021 N 19.2099 2.35995 0.0155585 0
M  V30 5022 C 19.2999 2.65248 1.35603 0
M  V30 5023 O 19.2499 1.75605 2.20651 0
M  V30 5024 C 19.4499 4.05747 1.64698 0
M  V30 5025 C 19.5599 4.42345 3.09553 0
M  V30 5026 C 19.4999 4.96734 0.652411 0
M  V30 5027 H 22.2409 8.64917 -0.776982 0
M  V30 5028 H 22.5099 6.89974 -0.474015 0
M  V30 5029 H 21.6429 7.66548 -2.79458 0
M  V30 5030 H 18.9879 5.16076 -2.65138 0
M  V30 5031 H 18.7089 7.06433 -0.329384 0
M  V30 5032 H 17.7169 6.90829 -1.81996 0
M  V30 5033 H 19.5509 8.90774 -1.62639 0
M  V30 5034 H 19.6219 6.02181 0.895285 0
M  V30 5035 H 18.5919 4.80252 3.45468 0
M  V30 5036 H 20.3289 5.20015 3.22119 0
M  V30 5037 H 19.8409 3.53269 3.67833 0
M  V30 5038 H 19.1049 1.39558 -0.227499 0
M  V30 5039 P 17.6799 8.03563 -3.84925 0
M  V30 5040 O 17.4599 8.85821 -5.0569 0
M  V30 5041 O 16.8899 8.41101 -2.65469 0
M  V30 5042 O 17.4299 6.4965 -4.18908 0
M  V30 5043 C 18.3699 5.80886 -5.05289 0
M  V30 5044 C 17.6399 4.78366 -5.89277 0
M  V30 5045 O 17.4299 3.58302 -5.08433 0
M  V30 5046 C 16.2399 5.16748 -6.36559 0
M  V30 5047 O 15.8499 4.45271 -7.53232 0
M  V30 5048 C 15.3599 4.74572 -5.19863 0
M  V30 5049 C 16.0699 3.49373 -4.70338 0
M  V30 5050 N 16.0199 3.31704 -3.22876 0
M  V30 5051 C 15.8699 2.03326 -2.74871 0
M  V30 5052 O 15.7799 1.06486 -3.48076 0
M  V30 5053 N 15.8299 1.91838 -1.37456 0
M  V30 5054 C 15.9199 2.94295 -0.462035 0
M  V30 5055 O 15.8699 2.71763 0.752928 0
M  V30 5056 C 16.0699 4.25064 -1.05249 0
M  V30 5057 C 16.1799 5.39815 -0.095697 0
M  V30 5058 C 16.1199 4.40214 -2.39192 0
M  V30 5059 H 18.8609 6.54063 -5.71245 0
M  V30 5060 H 19.1299 5.30339 -4.43905 0
M  V30 5061 H 18.2629 4.55889 -6.76652 0
M  V30 5062 H 15.6079 2.6167 -5.17842 0
M  V30 5063 H 15.3289 5.52155 -4.41878 0
M  V30 5064 H 14.3369 4.51918 -5.53297 0
M  V30 5065 H 16.1709 6.25055 -6.55162 0
M  V30 5066 H 16.2419 5.39798 -2.81523 0
M  V30 5067 H 15.2119 5.91593 -0.0279582 0
M  V30 5068 H 16.9489 6.10038 -0.450573 0
M  V30 5069 H 16.4609 5.02007 0.89937 0
M  V30 5070 H 15.7249 0.995326 -1.00435 0
M  V30 5071 P 14.2999 4.23843 -7.83734 0
M  V30 5072 O 14.0799 4.19407 -9.29784 0
M  V30 5073 O 13.5099 5.24426 -7.09156 0
M  V30 5074 O 14.0499 2.7935 -7.20758 0
M  V30 5075 C 14.9899 1.72945 -7.50224 0
M  V30 5076 C 14.2599 0.406376 -7.57911 0
M  V30 5077 O 14.0499 -0.0897726 -6.21935 0
M  V30 5078 C 12.8599 0.438983 -8.18724 0
M  V30 5079 O 12.4699 -0.825065 -8.71101 0
M  V30 5080 C 11.9799 0.783689 -6.99524 0
M  V30 5081 C 12.6899 0.0619086 -5.85867 0
M  V30 5082 N 12.6399 0.78573 -4.56183 0
M  V30 5083 C 12.4899 0.0292889 -3.41887 0
M  V30 5084 O 12.3999 -1.18445 -3.4419 0
M  V30 5085 N 12.4499 0.744061 -2.23964 0
M  V30 5086 C 12.5399 2.10932 -2.10362 0
M  V30 5087 O 12.4899 2.64117 -0.98825 0
M  V30 5088 C 12.6899 2.8202 -3.34994 0
M  V30 5089 C 12.7999 4.31095 -3.25037 0
M  V30 5090 C 12.7399 2.15547 -4.52261 0
M  V30 5091 H 15.4809 1.93379 -8.46595 0
M  V30 5092 H 15.7499 1.68132 -6.70852 0
M  V30 5093 H 14.8829 -0.289041 -8.15388 0
M  V30 5094 H 12.2279 -0.926847 -5.72749 0
M  V30 5095 H 11.9489 1.86973 -6.82036 0
M  V30 5096 H 10.9569 0.403896 -7.13257 0
M  V30 5097 H 12.7909 1.20585 -8.97435 0
M  V30 5098 H 12.8619 2.71231 -5.45042 0
M  V30 5099 H 11.8319 4.76966 -3.49992 0
M  V30 5100 H 13.5689 4.67047 -3.95024 0
M  V30 5101 H 13.0809 4.58996 -2.22312 0
M  V30 5102 H 12.3449 0.214893 -1.39758 0
M  V30 5103 P 10.92 -1.17771 -8.83182 0
M  V30 5104 O 10.7 -2.07206 -9.98732 0
M  V30 5105 O 10.13 0.0743816 -8.81969 0
M  V30 5106 O 10.67 -1.97652 -7.47304 0
M  V30 5107 C 11.61 -3.01055 -7.08599 0
M  V30 5108 C 10.88 -4.12613 -6.37049 0
M  V30 5109 O 10.67 -3.72827 -4.97879 0
M  V30 5110 C 9.47996 -4.45719 -6.88164 0
M  V30 5111 O 9.08996 -5.7877 -6.5624 0
M  V30 5112 C 8.59996 -3.47768 -6.11991 0
M  V30 5113 C 9.30996 -3.39356 -4.77615 0
M  V30 5114 N 9.25996 -2.04571 -4.15244 0
M  V30 5115 C 9.10996 -1.98587 -2.78314 0
M  V30 5116 O 9.01996 -2.98134 -2.08835 0
M  V30 5117 N 9.06996 -0.714467 -2.24925 0
M  V30 5118 C 9.15996 0.470001 -2.94169 0
M  V30 5119 O 9.10996 1.55587 -2.35195 0
M  V30 5120 C 9.30996 0.312541 -4.36783 0
M  V30 5121 C 9.41996 1.57711 -5.16352 0
M  V30 5122 C 9.35996 -0.914512 -4.92583 0
M  V30 5123 H 12.101 -3.41169 -7.98575 0
M  V30 5124 H 12.37 -2.58295 -6.41556 0
M  V30 5125 H 11.503 -5.02657 -6.42673 0
M  V30 5126 H 8.84796 -4.11637 -4.08885 0
M  V30 5127 H 8.56896 -2.49626 -6.61679 0
M  V30 5128 H 7.57696 -3.86566 -6.00778 0
M  V30 5129 H 9.41096 -4.29943 -7.96918 0
M  V30 5130 H 9.48196 -1.00937 -6.00374 0
M  V30 5131 H 8.45196 1.80153 -5.63503 0
M  V30 5132 H 10.189 1.4566 -5.94104 0
M  V30 5133 H 9.70096 2.40664 -4.49645 0
M  V30 5134 H 8.96496 -0.647622 -1.25697 0
M  V30 5135 P 7.53998 -6.144 -6.45285 0
M  V30 5136 O 7.31998 -7.54673 -6.86199 0
M  V30 5137 O 6.74998 -5.12391 -7.179 0
M  V30 5138 O 7.28998 -5.99158 -4.88404 0
M  V30 5139 C 8.22998 -6.60062 -3.96313 0
M  V30 5140 C 7.49998 -7.08259 -2.72856 0
M  V30 5141 O 7.28998 -5.9427 -1.83651 0
M  V30 5142 C 6.09998 -7.65087 -2.94749 0
M  V30 5143 O 5.70998 -8.53963 -1.90717 0
M  V30 5144 C 5.21998 -6.41069 -2.90698 0
M  V30 5145 C 5.92998 -5.5528 -1.86931 0
M  V30 5146 N 5.87998 -4.09575 -2.15696 0
M  V30 5147 C 5.72998 -3.24249 -1.08435 0
M  V30 5148 O 5.63998 -3.63946 0.0628747 0
M  V30 5149 N 5.68998 -1.90009 -1.39973 0
M  V30 5150 C 5.77998 -1.34884 -2.65614 0
M  V30 5151 O 5.72998 -0.123716 -2.81728 0
M  V30 5152 C 5.92998 -2.3145 -3.71736 0
M  V30 5153 C 6.03998 -1.75913 -5.10438 0
M  V30 5154 C 5.97998 -3.63518 -3.44754 0
M  V30 5155 H 8.72098 -7.45402 -4.45526 0
M  V30 5156 H 8.98998 -5.86062 -3.67208 0
M  V30 5157 H 8.12298 -7.84412 -2.24479 0
M  V30 5158 H 5.46798 -5.73358 -0.888409 0
M  V30 5159 H 5.18898 -5.90877 -3.88583 0
M  V30 5160 H 4.19698 -6.65867 -2.58821 0
M  V30 5161 H 6.03098 -8.16248 -3.92006 0
M  V30 5162 H 6.10198 -4.34551 -4.26383 0
M  V30 5163 H 5.07198 -1.85471 -5.61775 0
M  V30 5164 H 6.80898 -2.31364 -5.66257 0
M  V30 5165 H 6.32098 -0.695936 -5.05229 0
M  V30 5166 H 5.58498 -1.26277 -0.63625 0
M  V30 5167 P 4.16 -8.7635 -1.60911 0
M  V30 5168 O 3.94 -10.1388 -1.11561 0
M  V30 5169 O 3.37 -8.36503 -2.79617 0
M  V30 5170 O 3.91 -7.71806 -0.42951 0
M  V30 5171 C 4.85 -7.67148 0.673689 0
M  V30 5172 C 4.12 -7.33374 1.95559 0
M  V30 5173 O 3.91 -5.88721 2.00726 0
M  V30 5174 C 2.72 -7.92526 2.10483 0
M  V30 5175 O 2.33 -8.02971 3.47653 0
M  V30 5176 C 1.84 -6.89602 1.41652 0
M  V30 5177 C 2.55 -5.59201 1.75185 0
M  V30 5178 N 2.5 -4.58235 0.662552 0
M  V30 5179 H 5.339 -8.65116 0.777161 0
M  V30 5180 H 5.611 -6.90173 0.474152 0
M  V30 5181 H 4.743 -7.66548 2.79458 0
M  V30 5182 H 1.613 -8.66322 3.55694 0
M  V30 END ATOM
M  V30 BEGIN BOND
M  V30 END BOND
M  V30 END CTAB
M  END
$$$$
