drugbank_target|Q9NRA0 Sphingosine kinase 2 (DB12764)
 OpenBabel12092121283D

  0  0  0     0  0            999 V3000
M  V30 BEGIN CTAB
M  V30 COUNTS 9742 9886 0 0 0
M  V30 BEGIN ATOM
M  V30 1 H -0.908 1.98254 -0.117106 0
M  V30 2 N 0 1.576 0 0
M  V30 3 C 0.933 2.03868 1.02534 0
M  V30 4 C 1.911 0.928543 1.3348 0
M  V30 5 O 3.095 1.19667 1.45644 0
M  V30 6 C 0.222 2.43627 2.35294 0
M  V30 7 C -0.732 3.65373 2.2001 0
M  V30 8 S 0.101 5.13292 1.52614 0
M  V30 9 C 1.257 5.56322 2.86805 0
M  V30 10 H 1.49 2.90518 0.631377 0
M  V30 11 H -0.977 1.52953 0.210867 0
M  V30 12 H 0.981 2.67203 3.11629 0
M  V30 13 H -0.358 1.57376 2.7183 0
M  V30 14 H -1.165 3.90944 3.18086 0
M  V30 15 H -1.563 3.418 1.51819 0
M  V30 16 H 0.729 5.58782 3.83104 0
M  V30 17 H 1.672 6.56266 2.65933 0
M  V30 18 H 2.08 4.83886 2.90714 0
M  V30 19 N 1.4781 -0.272755 1.55222 0
M  V30 20 C 2.4261 -1.35705 1.88909 0
M  V30 21 C 3.4201 -1.5112 0.765456 0
M  V30 22 O 4.6261 -1.52901 0.949802 0
M  V30 23 H 1.0011 -0.453868 0.59959 0
M  V30 24 H 2.9721 -1.04544 2.79487 0
M  V30 25 C 1.7211 -2.71049 2.17779 0
M  V30 26 H 1.0441 -2.59979 3.03728 0
M  V30 27 H 2.4841 -3.45858 2.45272 0
M  V30 28 C 0.9431 -3.22165 0.985473 0
M  V30 29 O 1.4731 -4.01096 0.220233 0
M  V30 30 N -0.3209 -2.7985 0.783108 0
M  V30 31 H -0.7739 -2.15775 1.40708 0
M  V30 32 H -0.8159 -3.14397 -0.0130392 0
M  V30 33 N 2.9562 -1.48159 -0.537278 0
M  V30 34 C 4.2042 -1.55497 -1.29094 0
M  V30 35 C 4.5252 -0.227454 -1.93669 0
M  V30 36 O 3.7952 0.750386 -1.80959 0
M  V30 37 H 2.3752 -0.572832 -0.47945 0
M  V30 38 H 5.0372 -1.84579 -0.625818 0
M  V30 39 H 4.1332 -2.33216 -2.07405 0
M  V30 40 N 4.4343 0.785586 -1.36625 0
M  V30 41 C 5.3843 1.88822 -1.27789 0
M  V30 42 C 6.3683 1.60014 -0.168579 0
M  V30 43 O 7.5603 1.72381 -0.401737 0
M  V30 44 C 4.6893 3.26092 -1.07327 0
M  V30 45 C 3.7753 3.60897 -2.22743 0
M  V30 46 N 4.1663 3.66982 -3.48077 0
M  V30 47 C 2.4643 3.90981 -2.14593 0
M  V30 48 C 3.1653 3.98137 -4.24101 0
M  V30 49 N 2.1413 4.13319 -3.53084 0
M  V30 50 H 5.9433 1.91759 -2.22723 0
M  V30 51 H 3.4573 0.981311 -1.29399 0
M  V30 52 H 5.4543 4.04954 -0.990842 0
M  V30 53 H 4.1143 3.24428 -0.132977 0
M  V30 54 H 5.1253 3.49531 -3.82163 0
M  V30 55 H 1.8023 3.9722 -1.2854 0
M  V30 56 H 3.1923 4.09737 -5.32509 0
M  V30 57 N 5.9124 1.20967 1.01018 0
M  V30 58 C 6.8424 0.988272 2.11555 0
M  V30 59 C 7.8234 -0.0849778 1.69888 0
M  V30 60 O 9.0084 0.0738202 1.9406 0
M  V30 61 C 6.1384 0.546528 3.42973 0
M  V30 62 C 5.0924 1.56375 3.9841 0
M  V30 63 C 4.4184 0.97842 5.25672 0
M  V30 64 C 5.7184 2.94922 4.31066 0
M  V30 65 H 7.4124 1.91276 2.30334 0
M  V30 66 H 4.9584 0.921073 1.1069 0
M  V30 67 H 6.9114 0.378839 4.19694 0
M  V30 68 H 5.6354 -0.413598 3.23971 0
M  V30 69 H 4.2944 1.71891 3.23804 0
M  V30 70 H 3.9424 0.0101688 5.02999 0
M  V30 71 H 3.6424 1.65784 5.63728 0
M  V30 72 H 5.1664 0.821939 6.05043 0
M  V30 73 H 6.5804 2.8288 4.9865 0
M  V30 74 H 4.9774 3.5983 4.80253 0
M  V30 75 H 6.0474 3.4616 3.39561 0
M  V30 76 N 7.3905 -1.2043 1.01659 0
M  V30 77 C 8.3005 -2.2689 0.596484 0
M  V30 78 C 9.3165 -1.70107 -0.36599 0
M  V30 79 O 10.4925 -2.00117 -0.226942 0
M  V30 80 C 7.5575 -3.4665 -0.0586659 0
M  V30 81 C 6.6185 -4.18662 0.949751 0
M  V30 82 C 5.8515 -5.32705 0.32577 0
M  V30 83 O 6.0745 -5.63656 -0.874509 0
M  V30 84 O 5.0085 -5.92803 1.04249 0
M  V30 85 H 8.8345 -2.65041 1.4828 0
M  V30 86 H 6.4195 -1.27048 0.786082 0
M  V30 87 H 8.3015 -4.19256 -0.424564 0
M  V30 88 H 6.9765 -3.10375 -0.91918 0
M  V30 89 H 5.8835 -3.48229 1.36702 0
M  V30 90 H 7.2165 -4.58878 1.78023 0
M  V30 91 N 8.8686 -0.792821 -1.36206 0
M  V30 92 C 9.8316 -0.199459 -2.2833 0
M  V30 93 C 10.8316 0.605189 -1.48977 0
M  V30 94 O 12.0216 0.425685 -1.68919 0
M  V30 95 C 9.1536 0.723523 -3.33134 0
M  V30 96 H 10.3466 -1.01181 -2.82316 0
M  V30 97 H 7.8996 -0.562485 -1.45828 0
M  V30 98 H 8.6346 1.56008 -2.84309 0
M  V30 99 H 8.4196 0.148436 -3.91819 0
M  V30 100 H 9.9096 1.13344 -4.01924 0
M  V30 101 N 10.3467 1.47872 -0.545128 0
M  V30 102 C 11.2567 2.33633 0.212746 0
M  V30 103 C 12.2727 1.4744 0.923983 0
M  V30 104 O 13.4487 1.80393 0.895572 0
M  V30 105 C 10.5137 3.23884 1.23693 0
M  V30 106 C 9.5747 4.25961 0.534417 0
M  V30 107 C 8.8077 5.11899 1.5098 0
M  V30 108 O 9.0307 5.00077 2.7437 0
M  V30 109 O 7.9647 5.92831 1.0409 0
M  V30 110 H 11.7907 2.99714 -0.490416 0
M  V30 111 H 9.3757 1.46235 -0.305871 0
M  V30 112 H 11.2577 3.79666 1.82843 0
M  V30 113 H 9.9327 2.60446 1.92222 0
M  V30 114 H 8.8397 3.73972 -0.0979679 0
M  V30 115 H 10.1727 4.92079 -0.109213 0
M  V30 116 N 11.8248 0.280983 1.55075 0
M  V30 117 C 12.7348 -0.61388 2.26426 0
M  V30 118 C 13.7508 -1.16521 1.29224 0
M  V30 119 O 14.9268 -1.19426 1.62171 0
M  V30 120 C 11.9918 -1.7788 2.9759 0
M  V30 121 C 11.0528 -1.26355 4.10284 0
M  V30 122 C 10.2858 -2.37295 4.78045 0
M  V30 123 O 10.5088 -3.56777 4.45047 0
M  V30 124 O 9.4428 -2.05119 5.65871 0
M  V30 125 H 13.2688 -0.0356932 3.03679 0
M  V30 126 H 10.8538 0.0481686 1.49322 0
M  V30 127 H 12.7358 -2.45791 3.42293 0
M  V30 128 H 11.4108 -2.34397 2.23249 0
M  V30 129 H 10.3178 -0.550735 3.70024 0
M  V30 130 H 11.6508 -0.744065 4.86543 0
M  V30 131 N 13.3029 -1.57598 0.00835791 0
M  V30 132 C 14.2349 -2.05811 -1.00868 0
M  V30 133 C 15.2479 -0.977579 -1.30182 0
M  V30 134 O 16.4369 -1.25421 -1.27011 0
M  V30 135 C 13.5369 -2.45016 -2.34137 0
M  V30 136 C 12.7099 -3.75903 -2.23643 0
M  V30 137 C 11.7689 -4.01884 -3.3967 0
M  V30 138 O 10.7949 -4.72433 -3.17483 0
M  V30 139 N 11.9969 -3.50432 -4.62793 0
M  V30 140 H 14.7619 -2.93684 -0.597458 0
M  V30 141 H 12.3229 -1.60909 -0.178852 0
M  V30 142 H 14.3149 -2.59506 -3.10546 0
M  V30 143 H 12.8849 -1.62618 -2.66972 0
M  V30 144 H 12.1049 -3.7141 -1.32091 0
M  V30 145 H 13.3929 -4.61695 -2.13812 0
M  V30 146 H 12.7909 -2.93317 -4.83716 0
M  V30 147 H 11.3479 -3.70236 -5.3644 0
M  V30 148 N 14.781 0.264519 -1.55364 0
M  V30 149 C 15.713 1.34965 -1.85248 0
M  V30 150 C 16.726 1.45136 -0.737525 0
M  V30 151 O 17.915 1.46801 -1.01547 0
M  V30 152 C 15.015 2.73008 -2.00797 0
M  V30 153 C 14.188 2.85324 -3.31525 0
M  V30 154 C 13.247 4.04097 -3.37034 0
M  V30 155 O 12.273 3.94455 -4.10358 0
M  V30 156 N 13.475 5.16458 -2.65049 0
M  V30 157 H 16.24 1.09672 -2.78913 0
M  V30 158 H 13.801 0.454635 -1.55386 0
M  V30 159 H 15.793 3.50772 -2.01844 0
M  V30 160 H 14.363 2.91087 -1.1396 0
M  V30 161 H 13.583 1.94377 -3.42945 0
M  V30 162 H 14.871 2.9049 -4.17724 0
M  V30 163 H 14.269 5.27181 -2.05175 0
M  V30 164 H 12.826 5.92422 -2.71809 0
M  V30 165 N 16.2591 1.48442 0.529413 0
M  V30 166 C 17.5361 1.46978 1.29062 0
M  V30 167 C 17.9161 0.181769 2.10316 0
M  V30 168 O 17.2641 -0.836481 2.12639 0
M  V30 169 C 17.4741 2.7321 2.17157 0
M  V30 170 C 18.8221 3.21562 2.77278 0
M  V30 171 O 19.8461 2.74131 2.27444 0
M  V30 172 O 18.7051 4.04094 3.67927 0
M  V30 173 H 15.7991 0.587003 0.582543 0
M  V30 174 H 18.3451 1.60676 0.546021 0
M  V30 175 H 17.1171 3.58465 1.56903 0
M  V30 176 H 16.7401 2.62235 2.98862 0
M  V30 177 N 17.7372 -0.778329 1.37039 0
M  V30 178 C 18.6692 -1.90034 1.2814 0
M  V30 179 C 19.6822 -1.61585 0.198558 0
M  V30 180 O 20.8712 -1.72625 0.454175 0
M  V30 181 C 17.9712 -3.25108 0.956968 0
M  V30 182 C 17.1442 -3.81253 2.14394 0
M  V30 183 C 16.2032 -4.94789 1.79082 0
M  V30 184 O 15.2292 -5.10721 2.51301 0
M  V30 185 N 16.4312 -5.75878 0.731043 0
M  V30 186 H 19.1962 -1.98186 2.24816 0
M  V30 187 H 16.7572 -0.957129 1.30578 0
M  V30 188 H 18.7492 -3.9857 0.701701 0
M  V30 189 H 17.3192 -3.125 0.0789812 0
M  V30 190 H 16.5392 -2.99647 2.56135 0
M  V30 191 H 17.8272 -4.15495 2.93668 0
M  V30 192 H 17.2252 -5.65547 0.131618 0
M  V30 193 H 15.7822 -6.49596 0.535622 0
M  V30 194 N 19.2153 -1.21501 -1.00376 0
M  V30 195 C 20.6313 -0.972629 -1.26539 0
M  V30 196 C 20.8313 0.340257 -1.98606 0
M  V30 197 O 19.8873 1.06561 -2.28913 0
M  V30 198 C 21.2003 -2.16404 -2.08781 0
M  V30 199 C 22.7483 -2.20643 -2.22004 0
M  V30 200 C 23.2233 -3.39306 -3.07629 0
M  V30 201 N 24.7143 -3.39401 -3.15217 0
M  V30 202 C 25.4493 -4.27867 -3.81729 0
M  V30 203 N 24.9453 -5.26533 -4.5026 0
M  V30 204 N 26.7383 -4.15672 -3.78382 0
M  V30 205 H 18.8893 -2.05929 -0.520281 0
M  V30 206 H 21.1523 -0.901803 -0.292328 0
M  V30 207 H 20.8583 -3.11554 -1.63178 0
M  V30 208 H 20.7323 -2.15567 -3.09533 0
M  V30 209 H 23.1193 -1.26048 -2.66825 0
M  V30 210 H 23.2003 -2.25523 -1.20718 0
M  V30 211 H 22.8443 -4.34195 -2.63509 0
M  V30 212 H 22.7743 -3.31665 -4.09031 0
M  V30 213 H 25.2653 -2.67997 -2.66432 0
M  V30 214 H 25.5783 -5.90337 -4.98721 0
M  V30 215 H 23.9233 -5.30457 -4.49044 0
M  V30 216 H 27.1143 -3.3785 -3.23998 0
M  V30 217 H 27.2873 -4.84825 -4.2994 0
M  V30 218 N 20.6934 1.19889 -1.02296 0
M  V30 219 C 22.1044 1.71124 -0.746568 0
M  V30 220 C 22.4554 1.81939 0.734335 0
M  V30 221 O 21.5804 1.48639 1.57275 0
M  V30 222 C 22.1754 3.10804 -1.34857 0
M  V30 223 C 20.7344 3.59323 -1.1209 0
M  V30 224 C 19.8814 2.3635 -1.45031 0
M  V30 225 H 22.8324 1.04813 -1.19163 0
M  V30 226 H 22.8534 3.73186 -0.742437 0
M  V30 227 H 22.3654 3.029 -2.42638 0
M  V30 228 H 20.4664 3.7255 -0.0610337 0
M  V30 229 H 20.5794 4.4378 -1.80544 0
M  V30 230 H 18.9434 2.39399 -0.869487 0
M  V30 231 H 19.7264 2.31081 -2.53883 0
M  V30 232 N 22.1715 0.800033 1.35784 0
M  V30 233 C 23.4485 0.30088 1.93272 0
M  V30 234 C 23.8285 -1.20857 1.73081 0
M  V30 235 O 23.1765 -2.00502 1.09596 0
M  V30 236 C 23.3865 0.70511 3.41803 0
M  V30 237 C 24.7345 0.690871 4.18942 0
M  V30 238 O 25.7585 0.646244 3.50289 0
M  V30 239 O 24.6175 0.74332 5.41421 0
M  V30 240 H 21.7115 0.0771605 0.823393 0
M  V30 241 H 24.2575 0.88329 1.449 0
M  V30 242 H 23.0295 1.74571 3.50201 0
M  V30 243 H 22.6525 0.0971541 3.97481 0
M  V30 244 N 23.6496 -1.47581 0.552962 0
M  V30 245 C 24.5816 -2.27997 -0.234533 0
M  V30 246 C 25.5946 -1.36753 -0.883321 0
M  V30 247 O 26.7836 -1.61612 -0.757889 0
M  V30 248 C 23.8836 -3.10879 -1.34935 0
M  V30 249 C 23.0566 -4.30056 -0.798158 0
M  V30 250 C 22.1156 -4.94567 -1.79694 0
M  V30 251 O 21.1416 -5.53087 -1.34474 0
M  V30 252 N 22.3436 -4.88878 -3.13015 0
M  V30 253 H 25.1086 -2.96222 0.455255 0
M  V30 254 H 22.6696 -1.57163 0.388761 0
M  V30 255 H 24.6616 -3.50903 -2.01616 0
M  V30 256 H 23.2316 -2.44924 -1.94244 0
M  V30 257 H 22.4516 -3.94174 0.0453079 0
M  V30 258 H 23.7396 -5.07152 -0.409173 0
M  V30 259 H 23.1376 -4.42526 -3.52402 0
M  V30 260 H 21.6946 -5.32934 -3.75266 0
M  V30 261 N 25.1277 -0.289203 -1.54924 0
M  V30 262 C 26.0377 0.601863 -2.26748 0
M  V30 263 C 27.0537 1.15834 -1.2984 0
M  V30 264 O 28.2297 1.18564 -1.62802 0
M  V30 265 C 25.2947 1.76299 -2.98529 0
M  V30 266 C 24.3557 1.24178 -4.10948 0
M  V30 267 C 23.5887 2.34757 -4.79296 0
M  V30 268 O 23.8117 3.54411 -4.46933 0
M  V30 269 O 22.7457 2.02115 -5.66951 0
M  V30 270 H 26.5717 0.0195879 -3.03694 0
M  V30 271 H 24.1567 -0.0560868 -1.49295 0
M  V30 272 H 26.0387 2.43973 -3.43592 0
M  V30 273 H 24.7137 2.33209 -2.24488 0
M  V30 274 H 23.6207 0.531104 -3.70311 0
M  V30 275 H 24.9537 0.718252 -4.86931 0
M  V30 276 N 26.6058 1.57591 -0.0167156 0
M  V30 277 C 27.5358 2.12496 0.967858 0
M  V30 278 C 28.5168 1.03807 1.34752 0
M  V30 279 O 29.7018 1.31577 1.42833 0
M  V30 280 C 26.8318 2.64194 2.25431 0
M  V30 281 C 25.7858 3.77559 2.01576 0
M  V30 282 C 25.1118 4.15636 3.36379 0
M  V30 283 C 26.4118 5.04151 1.36489 0
M  V30 284 H 28.1058 2.95013 0.510643 0
M  V30 285 H 25.6518 1.41915 0.244181 0
M  V30 286 H 27.6048 3.01236 2.94678 0
M  V30 287 H 26.3288 1.78821 2.73296 0
M  V30 288 H 24.9878 3.40937 1.34751 0
M  V30 289 H 24.6358 3.27263 3.81979 0
M  V30 290 H 24.3358 4.92022 3.21229 0
M  V30 291 H 25.8598 4.5525 4.06915 0
M  V30 292 H 27.2738 5.38857 1.95718 0
M  V30 293 H 25.6708 5.85453 1.31776 0
M  V30 294 H 26.7408 4.83733 0.336219 0
M  V30 295 N 28.0839 -0.256276 1.55502 0
M  V30 296 C 29.3119 -1.00342 1.8094 0
M  V30 297 C 29.7269 -1.79307 0.59114 0
M  V30 298 O 29.0839 -1.77114 -0.440081 0
M  V30 299 C 29.1349 -1.94875 3.04476 0
M  V30 300 O 28.8559 -1.19107 4.21598 0
M  V30 301 C 30.3569 -2.81266 3.42644 0
M  V30 302 H 27.5769 -0.295685 0.602338 0
M  V30 303 H 30.1209 -0.281998 2.02546 0
M  V30 304 H 28.2759 -2.62457 2.84947 0
M  V30 305 H 28.6899 -1.82969 4.91551 0
M  V30 306 H 30.1639 -3.43362 4.32211 0
M  V30 307 H 30.6409 -3.51897 2.62802 0
M  V30 308 H 31.2469 -2.1915 3.64491 0
M  V30 309 N 29.562 -1.4872 -0.521534 0
M  V30 310 C 30.81 -1.56857 -1.27437 0
M  V30 311 C 31.131 -0.247982 -1.93417 0
M  V30 312 O 30.401 0.731151 -1.81744 0
M  V30 313 H 28.981 -0.577885 -0.473347 0
M  V30 314 H 31.643 -1.85233 -0.606205 0
M  V30 315 H 30.739 -2.35402 -2.0492 0
M  V30 316 N 31.0401 0.771051 -1.3745 0
M  V30 317 C 32.2651 1.56529 -1.36065 0
M  V30 318 C 32.6901 1.88029 0.0515859 0
M  V30 319 O 32.0481 1.49282 1.02882 0
M  V30 320 C 32.0961 2.85187 -2.20683 0
M  V30 321 O 31.2001 3.79593 -1.61193 0
M  V30 322 H 30.5411 0.47411 -0.464883 0
M  V30 323 H 33.0711 0.954269 -1.80983 0
M  V30 324 H 33.0811 3.34283 -2.33921 0
M  V30 325 H 31.7561 2.61588 -3.23334 0
M  V30 326 H 30.3331 3.38239 -1.56999 0
M  V30 327 N 32.5182 1.22032 0.997298 0
M  V30 328 C 33.7642 1.05382 1.73972 0
M  V30 329 C 34.1192 -0.407419 1.88037 0
M  V30 330 O 33.4122 -1.29811 1.40924 0
M  V30 331 C 33.6062 1.69345 3.14733 0
M  V30 332 C 33.4352 3.21537 3.14395 0
M  V30 333 C 32.2052 3.9062 3.20537 0
M  V30 334 C 34.4032 4.18527 2.98897 0
M  V30 335 N 32.3852 5.29935 3.09906 0
M  V30 336 C 33.7562 5.44645 2.96247 0
M  V30 337 C 35.8112 4.09476 2.83255 0
M  V30 338 C 34.5142 6.62752 2.79557 0
M  V30 339 C 36.5402 5.27228 2.67926 0
M  V30 340 C 35.9022 6.52262 2.65959 0
M  V30 341 H 32.0012 0.440018 0.646458 0
M  V30 342 H 34.5852 1.54505 1.18475 0
M  V30 343 H 32.7562 1.22778 3.68484 0
M  V30 344 H 34.4882 1.45828 3.77513 0
M  V30 345 H 31.2432 3.41592 3.28043 0
M  V30 346 H 31.6672 6.02926 3.07912 0
M  V30 347 H 36.3092 3.13598 2.83577 0
M  V30 348 H 34.0272 7.58783 2.77982 0
M  V30 349 H 37.6132 5.22053 2.56812 0
M  V30 350 H 36.4932 7.41844 2.54239 0
M  V30 351 N 33.9963 -1.19345 1.0293 0
M  V30 352 C 35.2443 -1.88665 0.724574 0
M  V30 353 C 35.5653 -1.80036 -0.749144 0
M  V30 354 O 34.8353 -1.2111 -1.53978 0
M  V30 355 H 33.4153 -0.698406 0.265025 0
M  V30 356 H 36.0773 -1.44885 1.30362 0
M  V30 357 H 35.1733 -2.94987 1.01926 0
M  V30 358 N 35.4744 -0.807222 -1.35358 0
M  V30 359 C 36.4244 -0.190706 -2.27201 0
M  V30 360 C 37.4084 0.635838 -1.47804 0
M  V30 361 O 38.6004 0.492991 -1.69996 0
M  V30 362 C 35.7294 0.659337 -3.36909 0
M  V30 363 C 34.8154 -0.176971 -4.23731 0
M  V30 364 N 35.2064 -1.24029 -4.90357 0
M  V30 365 C 33.5044 0.0412953 -4.45981 0
M  V30 366 C 34.2054 -1.75092 -5.54723 0
M  V30 367 N 33.1814 -1.05727 -5.33219 0
M  V30 368 H 36.9834 -1.0043 -2.76208 0
M  V30 369 H 34.4974 -0.648445 -1.48892 0
M  V30 370 H 36.4944 1.11706 -4.01656 0
M  V30 371 H 35.1544 1.47127 -2.89454 0
M  V30 372 H 36.1654 -1.62295 -4.91814 0
M  V30 373 H 32.8424 0.82232 -4.09322 0
M  V30 374 H 34.2324 -2.63963 -6.17878 0
M  V30 375 N 36.9525 1.47285 -0.560781 0
M  V30 376 C 38.2005 2.02064 -0.0379868 0
M  V30 377 C 38.5215 1.43711 1.31803 0
M  V30 378 O 37.7915 0.61362 1.86042 0
M  V30 379 H 36.3715 0.746918 -0.0110531 0
M  V30 380 H 39.0335 1.80648 -0.731598 0
M  V30 381 H 38.1295 3.12064 0.0474463 0
M  V30 382 N 38.4306 0.297415 1.54768 0
M  V30 383 C 39.8416 -0.195947 1.85669 0
M  V30 384 C 40.1926 -1.53707 1.21937 0
M  V30 385 O 39.3176 -2.10164 0.515754 0
M  V30 386 C 39.9126 -0.362318 3.36857 0
M  V30 387 C 38.4716 -0.799901 3.67802 0
M  V30 388 C 37.6186 0.0938578 2.77141 0
M  V30 389 H 40.5696 0.518538 1.4999 0
M  V30 390 H 40.5906 -1.19745 3.61167 0
M  V30 391 H 40.1026 0.613921 3.83214 0
M  V30 392 H 38.2036 -1.78682 3.26961 0
M  V30 393 H 38.3166 -0.621773 4.75048 0
M  V30 394 H 36.6806 -0.426254 2.51108 0
M  V30 395 H 37.4636 1.06639 3.26318 0
M  V30 396 N 39.9087 -1.5758 0.0250728 0
M  V30 397 C 41.3247 -1.56124 -0.331282 0
M  V30 398 C 41.5247 -1.03029 -1.73169 0
M  V30 399 O 40.5807 -0.675215 -2.43305 0
M  V30 400 C 41.8937 -3.00139 -0.183584 0
M  V30 401 C 43.4417 -3.11946 -0.256654 0
M  V30 402 C 43.9167 -4.57793 -0.137792 0
M  V30 403 N 45.4077 -4.6279 -0.194904 0
M  V30 404 C 46.1427 -5.7326 -0.126655 0
M  V30 405 N 45.6387 -6.928 -0.00755288 0
M  V30 406 N 47.4317 -5.61811 -0.180348 0
M  V30 407 H 39.5827 -1.90424 0.94087 0
M  V30 408 H 41.8457 -0.875761 0.362968 0
M  V30 409 H 41.5517 -3.4292 0.780927 0
M  V30 410 H 41.4257 -3.64899 -0.955448 0
M  V30 411 H 43.8127 -2.69079 -1.21162 0
M  V30 412 H 43.8937 -2.49915 0.545517 0
M  V30 413 H 43.5377 -5.01339 0.813739 0
M  V30 414 H 43.4677 -5.17798 -0.958775 0
M  V30 415 H 45.9587 -3.76807 -0.287267 0
M  V30 416 H 46.2717 -7.72791 0.0379428 0
M  V30 417 H 44.6167 -6.94995 0.0271731 0
M  V30 418 H 47.8077 -4.6731 -0.271767 0
M  V30 419 H 47.9807 -6.47882 -0.123697 0
M  V30 420 N 41.3868 0.248026 -1.55636 0
M  V30 421 C 42.6118 0.998028 -1.81808 0
M  V30 422 C 43.0368 1.78207 -0.601979 0
M  V30 423 O 42.3948 1.75653 0.448961 0
M  V30 424 C 42.4428 1.9125 -3.05705 0
M  V30 425 O 41.5468 3.00406 -2.82542 0
M  V30 426 H 40.8878 0.284045 -0.600179 0
M  V30 427 H 43.4178 0.269357 -2.02819 0
M  V30 428 H 43.4278 2.32737 -3.35108 0
M  V30 429 H 42.1028 1.33602 -3.93857 0
M  V30 430 H 40.6798 2.63056 -2.64303 0
M  V30 431 N 42.8649 1.48995 0.513639 0
M  V30 432 C 44.0929 1.61531 1.29288 0
M  V30 433 C 44.5079 0.281801 1.86685 0
M  V30 434 O 43.8649 -0.731111 1.67215 0
M  V30 435 C 43.9159 2.67449 2.43215 0
M  V30 436 O 43.6369 3.95626 1.88179 0
M  V30 437 C 45.1379 2.90575 3.34785 0
M  V30 438 H 42.3579 0.544165 0.392588 0
M  V30 439 H 44.9019 1.9494 0.617956 0
M  V30 440 H 43.0569 2.36853 3.0656 0
M  V30 441 H 43.4709 4.53868 2.62876 0
M  V30 442 H 44.9449 3.68449 4.11035 0
M  V30 443 H 45.4219 2.00011 3.91015 0
M  V30 444 H 46.0279 3.22538 2.77218 0
M  V30 445 N 44.343 -0.763751 1.37857 0
M  V30 446 C 45.273 -1.89103 1.36975 0
M  V30 447 C 46.254 -1.68439 0.237152 0
M  V30 448 O 47.439 -1.8918 0.438713 0
M  V30 449 C 44.569 -3.26496 1.18395 0
M  V30 450 C 43.523 -3.61741 2.28751 0
M  V30 451 C 42.849 -4.97762 1.95286 0
M  V30 452 C 44.149 -3.67665 3.70972 0
M  V30 453 H 45.843 -1.90099 2.31307 0
M  V30 454 H 43.389 -0.91319 1.11341 0
M  V30 455 H 45.342 -4.05003 1.16406 0
M  V30 456 H 44.066 -3.25955 0.205215 0
M  V30 457 H 42.725 -2.85547 2.29909 0
M  V30 458 H 42.373 -4.93769 0.959221 0
M  V30 459 H 42.073 -5.22313 2.69189 0
M  V30 460 H 43.597 -5.7866 1.94898 0
M  V30 461 H 45.011 -4.36307 3.719 0
M  V30 462 H 43.408 -4.03718 4.43995 0
M  V30 463 H 44.478 -2.68134 4.0402 0
M  V30 464 N 45.8211 -1.22559 -0.990812 0
M  V30 465 C 47.0671 -1.05297 -1.73322 0
M  V30 466 C 47.4001 0.410655 -1.89808 0
M  V30 467 O 46.6751 1.30439 -1.44277 0
M  V30 468 C 46.9581 -1.76713 -3.13759 0
M  V30 469 C 46.8111 -3.30684 -3.04907 0
M  V30 470 C 48.1301 -1.52121 -4.12974 0
M  V30 471 H 45.2491 -0.38392 -0.629106 0
M  V30 472 H 47.8911 -1.50926 -1.15418 0
M  V30 473 H 46.0411 -1.37924 -3.63193 0
M  V30 474 H 47.7131 -3.7893 -2.63077 0
M  V30 475 H 45.9561 -3.60253 -2.41661 0
M  V30 476 H 46.6271 -3.75833 -4.04294 0
M  V30 477 H 49.1031 -1.85819 -3.72304 0
M  V30 478 H 47.9791 -2.04582 -5.0935 0
M  V30 479 H 48.2401 -0.454257 -4.3976 0
M  V30 480 N 47.2992 1.18797 -1.03562 0
M  V30 481 C 48.7152 1.40671 -0.753917 0
M  V30 482 C 48.9152 1.9043 0.658686 0
M  V30 483 O 47.9712 2.08538 1.42366 0
M  V30 484 C 49.2842 2.41192 -1.79574 0
M  V30 485 C 50.8322 2.54928 -1.81606 0
M  V30 486 C 51.3072 3.58709 -2.84766 0
M  V30 487 N 52.7982 3.66212 -2.83625 0
M  V30 488 C 53.5332 4.46225 -3.60098 0
M  V30 489 N 53.0292 5.29888 -4.46308 0
M  V30 490 N 54.8222 4.40939 -3.4861 0
M  V30 491 H 46.9732 0.848221 -1.94728 0
M  V30 492 H 49.2362 0.435081 -0.842264 0
M  V30 493 H 48.9422 2.11669 -2.80872 0
M  V30 494 H 48.8162 3.40467 -1.62365 0
M  V30 495 H 51.2032 2.83771 -0.809817 0
M  V30 496 H 51.2842 1.55784 -2.02891 0
M  V30 497 H 50.9282 3.30607 -3.85566 0
M  V30 498 H 50.8582 4.57519 -2.60737 0
M  V30 499 H 53.3492 3.06466 -2.21105 0
M  V30 500 H 53.6622 5.88078 -5.01382 0
M  V30 501 H 52.0072 5.29326 -4.50377 0
M  V30 502 H 55.1982 3.74624 -2.80668 0
M  V30 503 H 55.3712 5.03056 -4.08459 0
M  V30 504 N 48.7773 0.814389 1.34928 0
M  V30 505 C 49.7403 0.235759 2.27984 0
M  V30 506 C 50.7403 -0.581412 1.49921 0
M  V30 507 O 51.9303 -0.398758 1.69575 0
M  V30 508 C 49.0623 -0.670433 3.34242 0
M  V30 509 H 50.2553 1.05659 2.80671 0
M  V30 510 H 47.8083 0.585614 1.44915 0
M  V30 511 H 48.5433 -1.51466 2.86755 0
M  V30 512 H 48.3283 -0.0860822 3.92005 0
M  V30 513 H 49.8183 -1.06935 4.03676 0
M  V30 514 N 50.2554 -1.46986 0.568584 0
M  V30 515 C 51.2024 -2.30153 -0.172707 0
M  V30 516 C 52.1724 -1.39759 -0.897586 0
M  V30 517 O 53.3574 -1.68716 -0.891044 0
M  V30 518 C 50.4974 -3.23952 -1.1895 0
M  V30 519 C 49.6104 -4.29441 -0.469517 0
M  V30 520 C 48.7454 -5.1038 -1.47259 0
M  V30 521 C 47.7844 -6.07632 -0.738225 0
M  V30 522 N 46.9214 -6.8149 -1.68868 0
M  V30 523 H 51.7614 -2.93019 0.542596 0
M  V30 524 H 49.2984 -1.44422 0.279401 0
M  V30 525 H 51.2564 -3.76767 -1.79173 0
M  V30 526 H 49.8864 -2.62926 -1.87269 0
M  V30 527 H 48.9384 -3.79594 0.247467 0
M  V30 528 H 50.2504 -4.98689 0.105241 0
M  V30 529 H 49.4044 -5.67402 -2.14803 0
M  V30 530 H 48.1434 -4.4106 -2.08128 0
M  V30 531 H 47.1484 -5.49778 -0.0489293 0
M  V30 532 H 48.3734 -6.78966 -0.135129 0
M  V30 533 H 46.3194 -6.14891 -2.28573 0
M  V30 534 H 46.2364 -7.46948 -1.16636 0
M  V30 535 H 47.5044 -7.43078 -2.3549 0
M  V30 536 N 51.7335 -0.305618 -1.54608 0
M  V30 537 C 52.6965 0.555591 -2.22364 0
M  V30 538 C 53.6965 1.05768 -1.21119 0
M  V30 539 O 54.8865 0.952972 -1.45822 0
M  V30 540 C 52.0185 1.76974 -2.91364 0
M  V30 541 H 53.2115 -0.0364572 -2.99878 0
M  V30 542 H 50.7645 -0.0565007 -1.56198 0
M  V30 543 H 51.4995 2.40151 -2.17941 0
M  V30 544 H 51.2845 1.41732 -3.65588 0
M  V30 545 H 52.7745 2.38148 -3.43038 0
M  V30 546 N 53.2116 1.57565 -0.0334293 0
M  V30 547 C 54.1446 2.05997 0.981866 0
M  V30 548 C 55.1226 0.956647 1.3148 0
M  V30 549 O 56.3066 1.22729 1.43073 0
M  V30 550 C 53.4336 2.48564 2.30074 0
M  V30 551 C 52.4796 3.69958 2.12211 0
M  V30 552 S 53.3126 5.16414 1.41692 0
M  V30 553 C 54.4686 5.6228 2.7494 0
M  V30 554 H 54.7016 2.91792 0.569612 0
M  V30 555 H 52.2346 1.53366 0.178376 0
M  V30 556 H 54.1926 2.73753 3.05892 0
M  V30 557 H 52.8536 1.63106 2.68431 0
M  V30 558 H 52.0466 3.97603 3.09722 0
M  V30 559 H 51.6486 3.44943 1.44535 0
M  V30 560 H 53.9406 5.66783 3.71165 0
M  V30 561 H 54.8836 6.61759 2.51953 0
M  V30 562 H 55.2916 4.89944 2.80384 0
M  V30 563 N 54.6897 -0.239769 1.55765 0
M  V30 564 C 55.6527 -1.28038 1.90103 0
M  V30 565 C 56.6527 -1.40723 0.778055 0
M  V30 566 O 57.8427 -1.39301 1.04599 0
M  V30 567 C 54.9747 -2.65702 2.13577 0
M  V30 568 H 56.1677 -0.988048 2.83157 0
M  V30 569 H 53.7207 -0.479382 1.48767 0
M  V30 570 H 54.4557 -3.00063 1.23015 0
M  V30 571 H 54.2407 -2.57875 2.95369 0
M  V30 572 H 55.7307 -3.40828 2.41301 0
M  V30 573 N 56.1678 -1.49265 -0.50573 0
M  V30 574 C 57.5788 -1.51769 -1.08734 0
M  V30 575 C 57.9298 -0.301192 -1.93874 0
M  V30 576 O 57.0548 0.589456 -2.08217 0
M  V30 577 C 57.6498 -2.75017 -1.97867 0
M  V30 578 C 56.2088 -2.80314 -2.51199 0
M  V30 579 C 55.3558 -2.4562 -1.28709 0
M  V30 580 H 58.3068 -1.56031 -0.289855 0
M  V30 581 H 58.3278 -2.5491 -2.82491 0
M  V30 582 H 57.8398 -3.63539 -1.35873 0
M  V30 583 H 55.9408 -1.96061 -3.16845 0
M  V30 584 H 56.0538 -3.82366 -2.88675 0
M  V30 585 H 54.4178 -1.97297 -1.61078 0
M  V30 586 H 55.2008 -3.36411 -0.6843 0
M  V30 587 N 57.6459 0.756429 -1.3826 0
M  V30 588 C 59.0569 1.33359 -1.30661 0
M  V30 589 C 59.4079 1.96161 0.0388875 0
M  V30 590 O 58.5329 1.94874 0.940918 0
M  V30 591 C 59.1279 2.42477 -2.36622 0
M  V30 592 C 57.6869 2.95922 -2.3261 0
M  V30 593 C 56.8339 1.69275 -2.19639 0
M  V30 594 H 59.7849 0.55552 -1.4866 0
M  V30 595 H 59.8059 3.22345 -2.02174 0
M  V30 596 H 59.3179 1.96739 -3.34538 0
M  V30 597 H 57.4189 3.45996 -1.38267 0
M  V30 598 H 57.5319 3.50494 -3.26636 0
M  V30 599 H 55.8959 1.92793 -1.66442 0
M  V30 600 H 56.6789 1.25619 -3.19491 0
M  V30 601 N 59.124 1.23083 0.984299 0
M  V30 602 C 60.535 1.05609 1.5396 0
M  V30 603 C 60.886 -0.377793 1.92528 0
M  V30 604 O 60.011 -1.26398 1.75649 0
M  V30 605 C 60.606 1.91087 2.7977 0
M  V30 606 C 59.165 1.77885 3.31713 0
M  V30 607 C 58.312 1.87028 2.04733 0
M  V30 608 H 61.263 1.36802 0.804419 0
M  V30 609 H 61.284 1.43336 3.5247 0
M  V30 610 H 60.796 2.9544 2.51668 0
M  V30 611 H 58.897 0.762995 3.64704 0
M  V30 612 H 59.01 2.61047 4.01735 0
M  V30 613 H 57.374 1.30565 2.18689 0
M  V30 614 H 58.157 2.92929 1.79017 0
M  V30 615 N 60.6021 -1.18246 1.0419 0
M  V30 616 C 62.0131 -1.69914 0.773698 0
M  V30 617 C 62.3641 -1.83085 -0.705297 0
M  V30 618 O 61.4891 -1.51123 -1.5489 0
M  V30 619 C 62.0841 -3.08619 1.39784 0
M  V30 620 C 60.6431 -3.57494 1.17792 0
M  V30 621 C 59.7901 -2.34013 1.48773 0
M  V30 622 H 62.7411 -1.02904 1.20816 0
M  V30 623 H 62.7621 -3.71958 0.801714 0
M  V30 624 H 62.2741 -2.99001 2.47426 0
M  V30 625 H 60.3751 -3.72406 0.120295 0
M  V30 626 H 60.4881 -4.40852 1.87581 0
M  V30 627 H 58.8521 -2.37986 0.907463 0
M  V30 628 H 59.6351 -2.27013 2.57527 0
M  V30 629 N 62.0802 -0.821533 -1.34494 0
M  V30 630 C 63.4912 -0.467956 -1.8074 0
M  V30 631 C 63.8422 1.01151 -1.68116 0
M  V30 632 O 62.9672 1.78707 -1.22036 0
M  V30 633 C 63.5622 -0.842627 -3.28154 0
M  V30 634 C 62.1212 -0.541439 -3.72485 0
M  V30 635 C 61.2682 -1.06028 -2.56229 0
M  V30 636 H 64.2192 -1.01183 -1.22261 0
M  V30 637 H 64.2402 -0.145876 -3.8022 0
M  V30 638 H 63.7522 -1.91945 -3.37311 0
M  V30 639 H 61.8532 0.526034 -3.68868 0
M  V30 640 H 61.9662 -1.08453 -4.66663 0
M  V30 641 H 60.3302 -0.481892 -2.501 0
M  V30 642 H 61.1132 -2.14352 -2.68157 0
M  V30 643 N 63.5583 1.46682 -0.576371 0
M  V30 644 C 64.4883 2.33028 0.148397 0
M  V30 645 C 65.4693 1.44961 0.889956 0
M  V30 646 O 66.6543 1.73789 0.866662 0
M  V30 647 C 63.7843 3.27117 1.1667 0
M  V30 648 C 62.7383 4.24575 0.540386 0
M  V30 649 C 62.0643 5.08126 1.6647 0
M  V30 650 C 63.3643 5.19722 -0.518331 0
M  V30 651 H 65.0583 2.93875 -0.572509 0
M  V30 652 H 62.6043 1.41315 -0.276768 0
M  V30 653 H 64.5573 3.86374 1.68204 0
M  V30 654 H 63.2813 2.64364 1.9178 0
M  V30 655 H 61.9403 3.66571 0.0461769 0
M  V30 656 H 61.5883 4.41762 2.40531 0
M  V30 657 H 61.2883 5.74122 1.25131 0
M  V30 658 H 62.8123 5.70246 2.18293 0
M  V30 659 H 64.2263 5.73232 -0.0883058 0
M  V30 660 H 62.6233 5.94026 -0.851679 0
M  V30 661 H 63.6933 4.64037 -1.40703 0
M  V30 662 N 65.0364 0.313813 1.54444 0
M  V30 663 C 65.9994 -0.54379 2.22656 0
M  V30 664 C 66.9994 -1.05124 1.21678 0
M  V30 665 O 68.1894 -0.945225 1.46325 0
M  V30 666 C 65.3214 -1.75427 2.92298 0
M  V30 667 H 66.5144 0.0523599 2.99854 0
M  V30 668 H 64.0674 0.0647834 1.56166 0
M  V30 669 H 64.8024 -2.38991 2.19211 0
M  V30 670 H 64.5874 -1.39791 3.66334 0
M  V30 671 H 66.0774 -2.36325 3.44297 0
M  V30 672 N 66.5145 -1.57545 0.0417849 0
M  V30 673 C 67.4775 -2.09885 -0.92093 0
M  V30 674 C 68.4775 -1.01648 -1.24596 0
M  V30 675 O 69.6675 -1.27759 -1.1842 0
M  V30 676 C 66.7995 -2.57527 -2.23367 0
M  V30 677 H 67.9925 -2.96236 -0.467382 0
M  V30 678 H 65.5455 -1.5493 -0.206467 0
M  V30 679 H 66.2805 -1.74542 -2.73323 0
M  V30 680 H 66.0655 -3.36613 -2.01083 0
M  V30 681 H 67.5555 -2.98201 -2.92346 0
M  V30 682 N 67.9926 0.231505 -1.5589 0
M  V30 683 C 69.2176 0.978689 -1.82856 0
M  V30 684 C 69.6426 1.77559 -0.620846 0
M  V30 685 O 69.0006 1.76119 0.430305 0
M  V30 686 C 69.0486 1.87997 -3.07716 0
M  V30 687 O 68.1526 2.97393 -2.85712 0
M  V30 688 H 67.4936 0.277663 -0.603158 0
M  V30 689 H 70.0236 0.24783 -2.03093 0
M  V30 690 H 70.0336 2.2917 -3.37558 0
M  V30 691 H 68.7086 1.29417 -3.95252 0
M  V30 692 H 67.2856 2.60238 -2.67078 0
M  V30 693 N 69.4707 1.49531 0.497807 0
M  V30 694 C 70.6987 1.62893 1.27567 0
M  V30 695 C 71.1137 0.301585 1.86376 0
M  V30 696 O 70.4707 -0.713335 1.67982 0
M  V30 697 C 70.5217 2.70013 2.40364 0
M  V30 698 O 70.2427 3.976 1.83972 0
M  V30 699 C 71.7437 2.94109 3.31685 0
M  V30 700 H 68.9637 0.548298 0.386794 0
M  V30 701 H 71.5077 1.95584 0.597245 0
M  V30 702 H 69.6627 2.40092 3.04031 0
M  V30 703 H 70.0767 4.56631 2.58047 0
M  V30 704 H 71.5507 3.72788 4.07104 0
M  V30 705 H 72.0277 2.04147 3.88871 0
M  V30 706 H 72.6337 3.2546 2.73781 0
M  V30 707 N 70.9488 -0.749086 1.3866 0
M  V30 708 C 72.3598 -1.32664 1.31366 0
M  V30 709 C 72.7108 -1.96179 -0.028484 0
M  V30 710 O 71.8358 -1.9537 -0.93057 0
M  V30 711 C 72.4308 -2.41219 2.37905 0
M  V30 712 C 70.9898 -2.94684 2.34176 0
M  V30 713 C 70.1368 -1.68108 2.20533 0
M  V30 714 H 73.0878 -0.547628 1.48952 0
M  V30 715 H 73.1088 -3.21268 2.0388 0
M  V30 716 H 72.6208 -1.94962 3.35576 0
M  V30 717 H 70.7218 -3.45258 1.401 0
M  V30 718 H 70.8348 -3.48757 3.2849 0
M  V30 719 H 69.1988 -1.91907 1.67463 0
M  V30 720 H 69.9818 -1.23923 3.20153 0
M  V30 721 N 72.4269 -1.23603 -0.977757 0
M  V30 722 C 73.3569 -1.04401 -2.0886 0
M  V30 723 C 74.3379 0.0399052 -1.70053 0
M  V30 724 O 75.5229 -0.125246 -1.93796 0
M  V30 725 C 72.6529 -0.637269 -3.41403 0
M  V30 726 C 71.6069 -1.66883 -3.94124 0
M  V30 727 C 70.9329 -1.11745 -5.22893 0
M  V30 728 C 72.2329 -3.06247 -4.23096 0
M  V30 729 H 73.9269 -1.97316 -2.25182 0
M  V30 730 H 71.4729 -0.950096 -1.08209 0
M  V30 731 H 73.4259 -0.48998 -4.18542 0
M  V30 732 H 72.1499 0.327557 -3.24953 0
M  V30 733 H 70.8089 -1.80416 -3.19133 0
M  V30 734 H 70.4569 -0.143527 -5.02795 0
M  V30 735 H 70.1569 -1.80672 -5.59134 0
M  V30 736 H 71.6809 -0.982067 -6.02651 0
M  V30 737 H 73.0949 -2.96001 -4.90975 0
M  V30 738 H 71.4919 -3.72436 -4.70544 0
M  V30 739 H 72.5619 -3.55041 -3.30263 0
M  V30 740 N 73.905 1.17692 -1.04816 0
M  V30 741 C 74.835 2.23777 -0.666791 0
M  V30 742 C 75.816 1.66796 0.33361 0
M  V30 743 O 77.001 1.93039 0.212042 0
M  V30 744 C 74.131 3.47281 -0.0367933 0
M  V30 745 C 73.085 4.17059 -0.961546 0
M  V30 746 C 72.411 5.34342 -0.195626 0
M  V30 747 C 73.711 4.69713 -2.28402 0
M  V30 748 H 75.405 2.55933 -1.55367 0
M  V30 749 H 72.951 1.23019 -0.748484 0
M  V30 750 H 74.904 4.20706 0.241775 0
M  V30 751 H 73.628 3.14381 0.885004 0
M  V30 752 H 72.287 3.45541 -1.22462 0
M  V30 753 H 71.935 4.97692 0.728816 0
M  V30 754 H 71.635 5.81966 -0.811775 0
M  V30 755 H 73.159 6.10553 0.0757473 0
M  V30 756 H 74.573 5.34794 -2.06563 0
M  V30 757 H 72.97 5.279 -2.8538 0
M  V30 758 H 74.04 3.86726 -2.92525 0
M  V30 759 N 75.3831 0.828654 1.34056 0
M  V30 760 C 76.3331 0.226828 2.26869 0
M  V30 761 C 77.3171 -0.612243 1.48796 0
M  V30 762 O 78.5091 -0.465884 1.70759 0
M  V30 763 C 75.6381 -0.605654 3.37915 0
M  V30 764 C 74.7241 0.244361 4.23395 0
M  V30 765 N 75.1151 1.31815 4.88322 0
M  V30 766 C 73.4131 0.0296616 4.4599 0
M  V30 767 C 74.1141 1.83895 5.51867 0
M  V30 768 N 73.0901 1.14196 5.3147 0
M  V30 769 H 76.8921 1.04811 2.74576 0
M  V30 770 H 74.4061 0.67205 1.47842 0
M  V30 771 H 76.4031 -1.05302 4.03382 0
M  V30 772 H 75.0631 -1.42504 2.91758 0
M  V30 773 H 76.0741 1.70099 4.8917 0
M  V30 774 H 72.7511 -0.757097 4.10578 0
M  V30 775 H 74.1411 2.7376 6.136 0
M  V30 776 N 76.8612 -1.46375 0.584142 0
M  V30 777 C 78.1092 -2.01978 0.0701287 0
M  V30 778 C 78.4302 -1.4579 -1.295 0
M  V30 779 O 77.7002 -0.64314 -1.85042 0
M  V30 780 H 76.2802 -0.746648 0.0229345 0
M  V30 781 H 78.9422 -1.79461 0.760245 0
M  V30 782 H 78.0382 -3.121 0.0022064 0
M  V30 783 N 78.3393 -0.321999 -1.54275 0
M  V30 784 C 79.2493 0.553631 -2.27974 0
M  V30 785 C 80.2653 1.13054 -1.32268 0
M  V30 786 O 81.4413 1.15084 -1.6528 0
M  V30 787 C 78.5063 1.69927 -3.02201 0
M  V30 788 C 77.5673 1.15433 -4.1349 0
M  V30 789 C 76.8003 2.24537 -4.84168 0
M  V30 790 O 77.0233 3.44852 -4.5435 0
M  V30 791 O 75.9573 1.90044 -5.7111 0
M  V30 792 H 79.7833 -0.0448345 -3.03667 0
M  V30 793 H 77.3683 -0.0877418 -1.49142 0
M  V30 794 H 79.2503 2.3663 -3.48689 0
M  V30 795 H 77.9253 2.28395 -2.29385 0
M  V30 796 H 76.8323 0.452436 -3.71354 0
M  V30 797 H 78.1653 0.614805 -4.88345 0
M  V30 798 N 79.8174 1.5752 -0.0501392 0
M  V30 799 C 81.0644 1.9265 0.623874 0
M  V30 800 C 81.3924 0.928411 1.70912 0
M  V30 801 O 80.6474 -0.0594525 1.9561 0
M  V30 802 C 80.9464 3.34467 1.25963 0
M  V30 803 C 80.6124 4.49883 0.302689 0
M  V30 804 C 79.2744 4.81184 0.0393636 0
M  V30 805 C 81.6264 5.20002 -0.353205 0
M  V30 806 C 78.9544 5.79951 -0.887308 0
M  V30 807 C 81.3064 6.1976 -1.26806 0
M  V30 808 C 79.9704 6.49491 -1.54007 0
M  V30 809 H 79.2404 0.704957 0.228292 0
M  V30 810 H 81.8874 1.91146 -0.116398 0
M  V30 811 H 80.1924 3.32333 2.07514 0
M  V30 812 H 81.8894 3.58928 1.78806 0
M  V30 813 H 78.4794 4.25457 0.518109 0
M  V30 814 H 82.6634 4.96033 -0.162854 0
M  V30 815 H 77.9194 6.01322 -1.10553 0
M  V30 816 H 82.0934 6.73205 -1.78236 0
M  V30 817 H 79.7204 7.25837 -2.25976 0
M  V30 818 N 81.2955 -0.223234 1.56011 0
M  V30 819 C 82.5435 -0.946003 1.78592 0
M  V30 820 C 82.8645 -1.84936 0.618349 0
M  V30 821 O 82.1345 -1.92473 -0.364833 0
M  V30 822 H 80.7145 -0.352298 0.658707 0
M  V30 823 H 83.3765 -0.235494 1.93472 0
M  V30 824 H 82.4725 -1.55381 2.70672 0
M  V30 825 N 82.7736 -1.49793 -0.48987 0
M  V30 826 C 83.9986 -1.63836 -1.27172 0
M  V30 827 C 84.4236 -0.31402 -1.8546 0
M  V30 828 O 83.7816 0.719803 -1.66399 0
M  V30 829 C 83.8296 -2.71797 -2.36978 0
M  V30 830 O 82.9336 -2.31744 -3.41128 0
M  V30 831 H 82.2746 -0.547997 -0.37496 0
M  V30 832 H 84.8046 -1.96053 -0.585191 0
M  V30 833 H 84.8146 -2.94305 -2.82575 0
M  V30 834 H 83.4896 -3.67923 -1.93921 0
M  V30 835 H 82.0666 -2.1961 -3.01373 0
M  V30 836 N 84.2517 0.741722 -1.39055 0
M  V30 837 C 85.4817 1.52876 -1.3897 0
M  V30 838 C 85.8897 1.8919 0.0193266 0
M  V30 839 O 85.2327 1.54138 0.999356 0
M  V30 840 C 85.2947 2.84929 -2.19216 0
M  V30 841 C 84.9587 2.71086 -3.67915 0
M  V30 842 C 85.9557 2.40084 -4.61146 0
M  V30 843 C 83.6407 2.88168 -4.11418 0
M  V30 844 C 85.6347 2.26335 -5.95862 0
M  V30 845 C 83.3217 2.74037 -5.46211 0
M  V30 846 C 84.3197 2.43166 -6.38247 0
M  V30 847 O 84.0077 2.29115 -7.70559 0
M  V30 848 H 83.7397 0.479252 -0.476753 0
M  V30 849 H 86.2937 0.924751 -1.83405 0
M  V30 850 H 84.5237 3.47564 -1.69518 0
M  V30 851 H 86.2127 3.46509 -2.11392 0
M  V30 852 H 86.9787 2.26545 -4.28838 0
M  V30 853 H 82.8577 3.11191 -3.40119 0
M  V30 854 H 86.4017 2.0216 -6.67665 0
M  V30 855 H 82.2987 2.87153 -5.78112 0
M  V30 856 H 83.0667 2.44237 -7.81211 0
M  V30 857 N 85.7298 1.2412 0.971189 0
M  V30 858 C 87.1408 1.07236 1.52831 0
M  V30 859 C 87.4918 -0.357352 1.92918 0
M  V30 860 O 86.6168 -1.24528 1.76979 0
M  V30 861 C 87.2118 1.94043 2.77728 0
M  V30 862 C 85.7708 1.81394 3.29808 0
M  V30 863 C 84.9178 1.89189 2.02738 0
M  V30 864 H 87.8688 1.37648 0.789864 0
M  V30 865 H 87.8898 1.47066 3.5093 0
M  V30 866 H 87.4018 2.98093 2.4852 0
M  V30 867 H 85.5028 0.801634 3.63874 0
M  V30 868 H 85.6158 2.65294 3.98944 0
M  V30 869 H 83.9798 1.32877 2.17292 0
M  V30 870 H 84.7628 2.94812 1.759 0
M  V30 871 N 87.2079 -1.17134 1.05439 0
M  V30 872 C 88.1709 -2.19439 0.661764 0
M  V30 873 C 89.1709 -1.58199 -0.288042 0
M  V30 874 O 90.3609 -1.74053 -0.0715803 0
M  V30 875 C 87.4929 -3.40889 -0.0276209 0
M  V30 876 H 88.6859 -2.55688 1.56728 0
M  V30 877 H 86.2389 -1.31259 0.848567 0
M  V30 878 H 86.9739 -3.10187 -0.94629 0
M  V30 879 H 86.7589 -3.86586 0.655238 0
M  V30 880 H 88.2489 -4.16603 -0.288342 0
M  V30 881 N 88.686 -0.835752 -1.33615 0
M  V30 882 C 90.102 -0.523139 -1.50783 0
M  V30 883 C 90.302 0.950171 -1.77691 0
M  V30 884 O 89.358 1.73411 -1.83534 0
M  V30 885 C 90.671 -1.39378 -2.66448 0
M  V30 886 C 92.219 -1.39223 -2.80332 0
M  V30 887 C 92.694 -2.24765 -3.99055 0
M  V30 888 N 94.185 -2.22458 -4.06284 0
M  V30 889 C 94.92 -2.85386 -4.97336 0
M  V30 890 N 94.416 -3.57354 -5.93523 0
M  V30 891 N 96.209 -2.74872 -4.90308 0
M  V30 892 H 88.36 -1.78952 -1.14411 0
M  V30 893 H 90.623 -0.763297 -0.562212 0
M  V30 894 H 90.329 -2.44061 -2.53234 0
M  V30 895 H 90.203 -1.0676 -3.61776 0
M  V30 896 H 92.59 -0.353136 -2.92979 0
M  V30 897 H 92.671 -1.75846 -1.85773 0
M  V30 898 H 92.315 -3.28732 -3.87167 0
M  V30 899 H 92.245 -1.85485 -4.92852 0
M  V30 900 H 94.736 -1.70119 -3.37443 0
M  V30 901 H 95.049 -4.02584 -6.59656 0
M  V30 902 H 93.394 -3.61461 -5.93608 0
M  V30 903 H 96.585 -2.18213 -4.14126 0
M  V30 904 H 96.758 -3.24199 -5.61069 0
M  V30 905 N 90.1641 1.46063 -0.591896 0
M  V30 906 C 91.4121 2.01938 -0.0808391 0
M  V30 907 C 91.7331 1.46475 1.28725 0
M  V30 908 O 91.0031 0.652944 1.84698 0
M  V30 909 H 89.5831 0.746516 -0.0268938 0
M  V30 910 H 92.2451 1.79055 -0.769752 0
M  V30 911 H 91.3411 3.12094 -0.0187578 0
M  V30 912 N 91.6422 0.330177 1.54103 0
M  V30 913 C 93.0532 -0.15652 1.86043 0
M  V30 914 C 93.4042 -1.51086 1.2517 0
M  V30 915 O 92.5292 -2.09023 0.560217 0
M  V30 916 C 93.1242 -0.290784 3.3755 0
M  V30 917 C 91.6832 -0.721705 3.69416 0
M  V30 918 C 90.8302 0.152622 2.7688 0
M  V30 919 H 93.7812 0.550237 1.48856 0
M  V30 920 H 93.8022 -1.12058 3.63625 0
M  V30 921 H 93.3142 0.695068 3.81825 0
M  V30 922 H 91.4152 -1.71706 3.30678 0
M  V30 923 H 91.5282 -0.520869 4.7626 0
M  V30 924 H 89.8922 -0.372894 2.51956 0
M  V30 925 H 90.6752 1.13536 3.23982 0
M  V30 926 N 93.1203 -1.57491 0.0584922 0
M  V30 927 C 94.5363 -1.56792 -0.298091 0
M  V30 928 C 94.7363 -1.06679 -1.70944 0
M  V30 929 O 93.7923 -0.726672 -2.41818 0
M  V30 930 C 95.1053 -3.00461 -0.119879 0
M  V30 931 C 96.6533 -3.1242 -0.190428 0
M  V30 932 C 97.1283 -4.57982 -0.0406567 0
M  V30 933 N 98.6193 -4.63099 -0.0966958 0
M  V30 934 C 99.3543 -5.734 -0.00502943 0
M  V30 935 N 98.8503 -6.9266 0.139402 0
M  V30 936 N 100.643 -5.62067 -0.0611391 0
M  V30 937 H 92.7943 -1.88386 0.98105 0
M  V30 938 H 95.0573 -0.867865 0.381463 0
M  V30 939 H 94.7633 -3.41187 0.85349 0
M  V30 940 H 94.6373 -3.66843 -0.877833 0
M  V30 941 H 97.0243 -2.71589 -1.15427 0
M  V30 942 H 97.1053 -2.48702 0.598405 0
M  V30 943 H 96.7493 -4.995 0.919897 0
M  V30 944 H 96.6793 -5.19715 -0.848727 0
M  V30 945 H 99.1703 -3.77331 -0.207277 0
M  V30 946 H 99.4833 -7.72536 0.201855 0
M  V30 947 H 97.8283 -6.94781 0.174586 0
M  V30 948 H 101.019 -4.67782 -0.172583 0
M  V30 949 H 101.192 -6.47999 0.0137562 0
M  V30 950 N 94.5984 0.214957 -1.56127 0
M  V30 951 C 95.8454 0.938372 -1.79446 0
M  V30 952 C 96.1734 1.8407 -0.628378 0
M  V30 953 O 95.4284 1.91837 0.386925 0
M  V30 954 C 95.7274 1.80314 -3.0858 0
M  V30 955 C 95.3934 1.05349 -4.3842 0
M  V30 956 C 94.0554 0.846435 -4.73697 0
M  V30 957 C 96.4074 0.524588 -5.18553 0
M  V30 958 C 93.7354 0.098683 -5.86617 0
M  V30 959 C 96.0874 -0.209853 -6.32252 0
M  V30 960 C 94.7514 -0.428102 -6.66126 0
M  V30 961 H 94.0214 0.343375 -0.656639 0
M  V30 962 H 96.6684 0.206077 -1.90388 0
M  V30 963 H 94.9734 2.6035 -2.92789 0
M  V30 964 H 96.6704 2.36513 -3.23825 0
M  V30 965 H 93.2604 1.22486 -4.10725 0
M  V30 966 H 97.4444 0.672008 -4.91729 0
M  V30 967 H 92.7004 -0.0805753 -6.11347 0
M  V30 968 H 96.8744 -0.627157 -6.9357 0
M  V30 969 H 94.5014 -1.00944 -7.53468 0
M  V30 970 N 96.0765 1.50051 0.48192 0
M  V30 971 C 97.0395 1.67584 1.5636 0
M  V30 972 C 98.0395 0.546894 1.51214 0
M  V30 973 O 99.2295 0.813725 1.54026 0
M  V30 974 C 96.3615 1.691 2.96003 0
M  V30 975 H 97.5545 2.64078 1.42136 0
M  V30 976 H 95.1075 1.39369 0.707533 0
M  V30 977 H 95.8425 0.742589 3.15684 0
M  V30 978 H 95.6275 2.51105 3.01146 0
M  V30 979 H 97.1175 1.84656 3.74556 0
M  V30 980 N 97.5546 -0.734337 1.39446 0
M  V30 981 C 98.4846 -1.86155 1.40955 0
M  V30 982 C 99.4656 -1.67898 0.272827 0
M  V30 983 O 100.651 -1.88207 0.478743 0
M  V30 984 C 97.7806 -3.23912 1.25294 0
M  V30 985 C 96.7346 -3.56808 2.36373 0
M  V30 986 C 96.0606 -4.93508 2.058 0
M  V30 987 C 97.3606 -3.59713 3.78687 0
M  V30 988 H 99.0546 -1.8515 2.35287 0
M  V30 989 H 96.6006 -0.889367 1.13253 0
M  V30 990 H 98.5536 -4.02443 1.2497 0
M  V30 991 H 97.2776 -3.25446 0.274308 0
M  V30 992 H 95.9366 -2.80606 2.35914 0
M  V30 993 H 95.5846 -4.91623 1.06374 0
M  V30 994 H 95.2846 -5.16486 2.80208 0
M  V30 995 H 96.8086 -5.74396 2.07128 0
M  V30 996 H 98.2226 -4.2832 3.81071 0
M  V30 997 H 96.6196 -3.94209 4.52459 0
M  V30 998 H 97.6896 -2.59504 4.09617 0
M  V30 999 N 99.0327 -1.24633 -0.964593 0
M  V30 1000 C 100.261 -1.11501 -1.74285 0
M  V30 1001 C 100.676 0.332165 -1.85855 0
M  V30 1002 O 100.033 1.22903 -1.34911 0
M  V30 1003 C 100.084 -1.75258 -3.16175 0
M  V30 1004 O 99.8047 -3.14318 -3.05182 0
M  V30 1005 C 101.306 -1.67776 -4.10324 0
M  V30 1006 H 98.5257 -0.389407 -0.546446 0
M  V30 1007 H 101.07 -1.64801 -1.21083 0
M  V30 1008 H 99.2247 -1.25954 -3.66353 0
M  V30 1009 H 99.6387 -3.4551 -3.94618 0
M  V30 1010 H 101.113 -2.17064 -5.0753 0
M  V30 1011 H 101.59 -0.639584 -4.34518 0
M  V30 1012 H 102.196 -2.16522 -3.66058 0
M  V30 1013 N 100.511 1.16574 -1.06058 0
M  V30 1014 C 101.441 2.23057 -0.690488 0
M  V30 1015 C 102.422 1.67141 0.315901 0
M  V30 1016 O 103.607 1.93253 0.191556 0
M  V30 1017 C 100.737 3.47222 -0.073625 0
M  V30 1018 C 99.6908 4.16016 -1.00573 0
M  V30 1019 C 99.0168 5.34104 -0.252289 0
M  V30 1020 C 100.317 4.67264 -2.33371 0
M  V30 1021 H 102.011 2.54271 -1.58072 0
M  V30 1022 H 99.5568 1.22218 -0.76149 0
M  V30 1023 H 101.51 4.20939 0.19714 0
M  V30 1024 H 100.234 3.15302 0.85161 0
M  V30 1025 H 98.8928 3.44223 -1.2612 0
M  V30 1026 H 98.5408 4.98437 0.675988 0
M  V30 1027 H 98.2408 5.81072 -0.873455 0
M  V30 1028 H 99.7648 6.10599 0.0109857 0
M  V30 1029 H 101.179 5.32573 -2.12223 0
M  V30 1030 H 99.5758 5.24843 -2.90963 0
M  V30 1031 H 100.646 3.83602 -2.96611 0
M  V30 1032 N 101.989 0.842826 1.3317 0
M  V30 1033 C 103.217 0.454055 2.01856 0
M  V30 1034 C 103.632 -0.94587 1.63397 0
M  V30 1035 O 102.989 -1.61534 0.849302 0
M  V30 1036 C 103.04 0.569715 3.56982 0
M  V30 1037 O 102.761 1.91448 3.94055 0
M  V30 1038 C 104.262 0.178412 4.42941 0
M  V30 1039 H 101.482 0.17979 0.646465 0
M  V30 1040 H 104.026 1.1365 1.70012 0
M  V30 1041 H 102.181 -0.0648587 3.87346 0
M  V30 1042 H 102.595 1.90282 4.88767 0
M  V30 1043 H 104.069 0.310376 5.51127 0
M  V30 1044 H 104.546 -0.880056 4.30293 0
M  V30 1045 H 105.152 0.787579 4.17944 0
M  V30 1046 N 103.467 -1.45747 0.599634 0
M  V30 1047 C 104.692 -2.07178 0.0960198 0
M  V30 1048 C 105.117 -1.44268 -1.207 0
M  V30 1049 O 104.475 -0.532503 -1.73303 0
M  V30 1050 C 104.523 -3.60579 -0.0385348 0
M  V30 1051 O 103.627 -3.97713 -1.0908 0
M  V30 1052 H 102.968 -0.660251 0.0704593 0
M  V30 1053 H 105.498 -1.87124 0.827385 0
M  V30 1054 H 105.508 -4.07298 -0.239304 0
M  V30 1055 H 104.183 -4.05756 0.912947 0
M  V30 1056 H 102.76 -3.62678 -0.867135 0
M  V30 1057 N 104.945 -0.338344 -1.53925 0
M  V30 1058 C 105.877 0.555117 -2.22376 0
M  V30 1059 C 106.89 1.06812 -1.22862 0
M  V30 1060 O 108.079 0.979163 -1.49247 0
M  V30 1061 C 105.179 1.77609 -2.88631 0
M  V30 1062 C 104.352 1.39927 -4.14414 0
M  V30 1063 C 103.411 2.47936 -4.64127 0
M  V30 1064 O 102.437 2.11461 -5.28463 0
M  V30 1065 N 103.639 3.79107 -4.39612 0
M  V30 1066 H 106.404 -0.0310778 -2.99684 0
M  V30 1067 H 103.965 -0.162226 -1.61085 0
M  V30 1068 H 105.957 2.49287 -3.18807 0
M  V30 1069 H 104.527 2.26978 -2.14941 0
M  V30 1070 H 103.747 0.513481 -3.90841 0
M  V30 1071 H 105.035 1.12341 -4.96243 0
M  V30 1072 H 104.433 4.11531 -3.88148 0
M  V30 1073 H 102.99 4.4697 -4.74406 0
M  V30 1074 N 106.423 1.57458 -0.0668435 0
M  V30 1075 C 107.386 2.11323 0.887422 0
M  V30 1076 C 108.386 1.03618 1.22964 0
M  V30 1077 O 109.576 1.29626 1.16373 0
M  V30 1078 C 106.708 2.61048 2.19242 0
M  V30 1079 H 107.901 2.96942 0.420194 0
M  V30 1080 H 105.454 1.55239 0.181793 0
M  V30 1081 H 106.189 1.78868 2.70512 0
M  V30 1082 H 105.974 3.39769 1.95702 0
M  V30 1083 H 107.464 3.02814 2.87565 0
M  V30 1084 N 107.901 -0.206675 1.56239 0
M  V30 1085 C 108.831 -1.25909 1.96645 0
M  V30 1086 C 109.812 -1.48097 0.836734 0
M  V30 1087 O 110.997 -1.6003 1.10019 0
M  V30 1088 C 108.127 -2.6058 2.29599 0
M  V30 1089 C 107.081 -2.53024 3.452 0
M  V30 1090 C 106.407 -3.91861 3.63798 0
M  V30 1091 C 107.707 -2.06524 4.79734 0
M  V30 1092 H 109.401 -0.923369 2.84806 0
M  V30 1093 H 106.947 -0.442735 1.37025 0
M  V30 1094 H 108.9 -3.34375 2.56459 0
M  V30 1095 H 107.624 -2.95869 1.38307 0
M  V30 1096 H 106.283 -1.81684 3.18412 0
M  V30 1097 H 105.931 -4.24483 2.69857 0
M  V30 1098 H 105.631 -3.87683 4.4156 0
M  V30 1099 H 107.155 -4.67296 3.93022 0
M  V30 1100 H 108.569 -2.70072 5.05702 0
M  V30 1101 H 106.966 -2.13374 5.60885 0
M  V30 1102 H 108.036 -1.01802 4.74093 0
M  V30 1103 N 109.379 -1.50304 -0.473955 0
M  V30 1104 C 110.329 -1.65347 -1.56985 0
M  V30 1105 C 111.313 -0.508176 -1.52664 0
M  V30 1106 O 112.505 -0.762446 -1.59737 0
M  V30 1107 C 109.634 -1.74832 -2.95447 0
M  V30 1108 C 108.72 -2.95028 -3.04662 0
M  V30 1109 N 109.111 -4.18747 -2.83698 0
M  V30 1110 C 107.409 -2.93527 -3.35795 0
M  V30 1111 C 108.11 -4.99687 -2.97805 0
M  V30 1112 N 107.086 -4.33585 -3.2788 0
M  V30 1113 H 110.888 -2.58698 -1.39472 0
M  V30 1114 H 108.402 -1.47449 -0.680629 0
M  V30 1115 H 110.399 -1.83712 -3.7424 0
M  V30 1116 H 109.059 -0.826376 -3.14008 0
M  V30 1117 H 110.07 -4.48291 -2.59337 0
M  V30 1118 H 106.747 -2.10821 -3.60362 0
M  V30 1119 H 108.137 -6.08057 -2.85861 0
M  V30 1120 N 110.857 0.726932 -1.39834 0
M  V30 1121 C 112.106 1.48214 -1.36805 0
M  V30 1122 C 112.419 1.95576 0.0305291 0
M  V30 1123 O 113.625 2.7088 0.183417 0
M  V30 1124 C 112.081 2.67854 -2.40379 0
M  V30 1125 C 111.689 2.27408 -3.85992 0
M  V30 1126 C 113.433 3.45641 -2.46439 0
M  V30 1127 C 111.34 3.43819 -4.81189 0
M  V30 1128 H 110.27 0.556606 -0.508631 0
M  V30 1129 H 112.921 0.792216 -1.65518 0
M  V30 1130 H 111.303 3.3896 -2.04749 0
M  V30 1131 H 112.477 1.63795 -4.30706 0
M  V30 1132 H 110.792 1.62692 -3.83302 0
M  V30 1133 H 113.389 4.32244 -3.14753 0
M  V30 1134 H 113.732 3.88669 -1.49139 0
M  V30 1135 H 114.265 2.8157 -2.81004 0
M  V30 1136 H 111.004 3.05834 -5.79781 0
M  V30 1137 H 110.524 4.06385 -4.41148 0
M  V30 1138 H 112.203 4.10043 -5.00474 0
M  V30 1139 N 112.336 1.25143 0.95797 0
M  V30 1140 C 113.268 1.01023 2.05735 0
M  V30 1141 C 114.281 -0.0236902 1.62783 0
M  V30 1142 O 115.47 0.21448 1.77207 0
M  V30 1143 C 112.57 0.504595 3.35122 0
M  V30 1144 C 111.743 1.6039 4.06932 0
M  V30 1145 C 110.802 1.09922 5.14591 0
M  V30 1146 O 109.828 1.79293 5.40225 0
M  V30 1147 N 111.03 -0.0612545 5.80468 0
M  V30 1148 H 113.795 1.95683 2.26998 0
M  V30 1149 H 111.356 1.16303 1.12629 0
M  V30 1150 H 113.348 0.151516 4.04416 0
M  V30 1151 H 111.918 -0.347989 3.10657 0
M  V30 1152 H 111.138 2.12872 3.31782 0
M  V30 1153 H 112.426 2.34252 4.51667 0
M  V30 1154 H 111.824 -0.640985 5.62057 0
M  V30 1155 H 110.381 -0.355395 6.5083 0
M  V30 1156 N 113.814 -1.1601 1.06675 0
M  V30 1157 C 115.23 -1.38622 0.790948 0
M  V30 1158 C 115.43 -1.92109 -0.607965 0
M  V30 1159 O 114.486 -2.12239 -1.36787 0
M  V30 1160 C 115.799 -2.36347 1.85905 0
M  V30 1161 C 117.347 -2.50023 1.88301 0
M  V30 1162 C 117.822 -3.51033 2.94176 0
M  V30 1163 N 119.313 -3.58563 2.93235 0
M  V30 1164 C 120.048 -4.36521 3.71803 0
M  V30 1165 N 119.544 -5.17869 4.602 0
M  V30 1166 N 121.337 -4.31541 3.60178 0
M  V30 1167 H 113.488 -0.796294 1.96908 0
M  V30 1168 H 115.751 -0.412597 0.853503 0
M  V30 1169 H 115.457 -2.04147 2.86386 0
M  V30 1170 H 115.331 -3.36042 1.71334 0
M  V30 1171 H 117.718 -2.81524 0.884769 0
M  V30 1172 H 117.799 -1.5035 2.06951 0
M  V30 1173 H 117.443 -3.20268 3.94196 0
M  V30 1174 H 117.373 -4.50445 2.72776 0
M  V30 1175 H 119.864 -3.00496 2.29152 0
M  V30 1176 H 120.177 -5.74578 5.16797 0
M  V30 1177 H 118.522 -5.17199 4.64253 0
M  V30 1178 H 121.713 -3.67051 2.90502 0
M  V30 1179 H 121.886 -4.9205 4.21653 0
M  V30 1180 N 115.292 -0.849877 -1.32721 0
M  V30 1181 C 116.222 -0.306308 -2.31482 0
M  V30 1182 C 117.203 0.591952 -1.59468 0
M  V30 1183 O 118.388 0.513199 -1.87296 0
M  V30 1184 C 115.518 0.510204 -3.43532 0
M  V30 1185 C 114.472 -0.293209 -4.26994 0
M  V30 1186 C 113.798 0.647743 -5.30762 0
M  V30 1187 C 115.098 -1.51634 -4.99804 0
M  V30 1188 H 116.792 -1.13153 -2.77195 0
M  V30 1189 H 114.338 -0.545553 -1.33266 0
M  V30 1190 H 116.291 0.900856 -4.11658 0
M  V30 1191 H 115.015 1.36874 -2.96535 0
M  V30 1192 H 113.674 -0.665555 -3.60508 0
M  V30 1193 H 113.322 1.50299 -4.8002 0
M  V30 1194 H 113.022 0.11422 -5.87489 0
M  V30 1195 H 114.546 1.03567 -6.01753 0
M  V30 1196 H 115.96 -1.19824 -5.60638 0
M  V30 1197 H 114.357 -1.98745 -5.66234 0
M  V30 1198 H 115.427 -2.28018 -4.27943 0
M  V30 1199 N 116.77 1.45427 -0.607355 0
M  V30 1200 C 118.186 1.57283 -0.270985 0
M  V30 1201 C 118.386 1.59875 1.22647 0
M  V30 1202 O 117.442 1.52893 2.00948 0
M  V30 1203 C 118.755 2.85566 -0.941952 0
M  V30 1204 C 120.303 2.9924 -0.917849 0
M  V30 1205 C 120.778 4.30293 -1.56882 0
M  V30 1206 N 122.269 4.37051 -1.5343 0
M  V30 1207 C 123.004 5.37123 -2.00715 0
M  V30 1208 N 122.5 6.43734 -2.56084 0
M  V30 1209 N 124.293 5.28479 -1.91484 0
M  V30 1210 H 116.444 1.41988 -1.57966 0
M  V30 1211 H 118.707 0.67885 -0.661715 0
M  V30 1212 H 118.413 2.8955 -1.99633 0
M  V30 1213 H 118.287 3.74322 -0.465096 0
M  V30 1214 H 120.674 2.94822 0.127984 0
M  V30 1215 H 120.755 2.11895 -1.43297 0
M  V30 1216 H 120.399 4.35469 -2.61398 0
M  V30 1217 H 120.329 5.16454 -1.02873 0
M  V30 1218 H 122.82 3.60615 -1.12982 0
M  V30 1219 H 123.133 7.16341 -2.89958 0
M  V30 1220 H 121.478 6.44485 -2.60122 0
M  V30 1221 H 124.669 4.44098 -1.47967 0
M  V30 1222 H 124.842 6.0632 -2.28648 0
M  V30 1223 N 118.248 0.346503 1.53744 0
M  V30 1224 C 119.659 -0.136779 1.86198 0
M  V30 1225 C 120.01 -1.49749 1.26766 0
M  V30 1226 O 119.135 -2.08417 0.582355 0
M  V30 1227 C 119.73 -0.254966 3.37839 0
M  V30 1228 C 118.289 -0.682482 3.70161 0
M  V30 1229 C 117.436 0.181981 2.76702 0
M  V30 1230 H 120.387 0.565994 1.48264 0
M  V30 1231 H 120.408 -1.08195 3.64793 0
M  V30 1232 H 119.92 0.735526 3.81066 0
M  V30 1233 H 118.021 -1.68189 3.3248 0
M  V30 1234 H 118.134 -0.470326 4.76786 0
M  V30 1235 H 116.498 -0.34615 2.52337 0
M  V30 1236 H 117.281 1.16966 3.2276 0
M  V30 1237 N 119.726 -1.57421 0.075193 0
M  V30 1238 C 120.673 -2.12915 -0.890843 0
M  V30 1239 C 121.643 -1.04252 -1.29309 0
M  V30 1240 O 122.828 -1.31933 -1.37834 0
M  V30 1241 C 119.968 -2.69795 -2.15186 0
M  V30 1242 C 119.081 -3.92624 -1.80194 0
M  V30 1243 C 118.216 -4.37736 -3.00933 0
M  V30 1244 C 117.255 -5.53205 -2.61974 0
M  V30 1245 N 116.392 -5.9326 -3.75483 0
M  V30 1246 H 121.232 -2.95156 -0.410735 0
M  V30 1247 H 118.769 -1.45854 -0.191086 0
M  V30 1248 H 120.727 -3.00883 -2.89008 0
M  V30 1249 H 119.357 -1.90313 -2.60731 0
M  V30 1250 H 118.409 -3.67977 -0.964218 0
M  V30 1251 H 119.721 -4.76482 -1.47534 0
M  V30 1252 H 118.875 -4.70503 -3.8303 0
M  V30 1253 H 117.614 -3.52739 -3.36789 0
M  V30 1254 H 116.619 -5.20086 -1.783 0
M  V30 1255 H 117.844 -6.39936 -2.27284 0
M  V30 1256 H 115.79 -5.11212 -4.11094 0
M  V30 1257 H 115.707 -6.71865 -3.46602 0
M  V30 1258 H 116.975 -6.30651 -4.58148 0
M  V30 1259 N 121.204 0.198386 -1.56346 0
M  V30 1260 C 122.615 0.763358 -1.70381 0
M  V30 1261 C 122.966 1.83995 -0.681203 0
M  V30 1262 O 122.091 2.15785 0.16305 0
M  V30 1263 C 122.686 1.39143 -3.08909 0
M  V30 1264 C 121.245 1.90352 -3.2472 0
M  V30 1265 C 120.392 0.772233 -2.6633 0
M  V30 1266 H 123.343 -0.0266377 -1.58678 0
M  V30 1267 H 123.364 2.26076 -3.06055 0
M  V30 1268 H 122.876 0.607638 -3.83314 0
M  V30 1269 H 120.977 2.71461 -2.55225 0
M  V30 1270 H 121.09 2.06757 -4.3219 0
M  V30 1271 H 119.454 1.18566 -2.2542 0
M  V30 1272 H 120.237 0.00073556 -3.433 0
M  V30 1273 N 122.682 1.50554 0.465978 0
M  V30 1274 C 123.592 1.72585 1.58907 0
M  V30 1275 C 124.608 0.60911 1.6299 0
M  V30 1276 O 125.784 0.88804 1.80765 0
M  V30 1277 C 122.849 1.81995 2.95091 0
M  V30 1278 C 121.91 3.05751 3.01355 0
M  V30 1279 C 121.143 3.14702 4.31043 0
M  V30 1280 O 121.366 2.30313 5.21835 0
M  V30 1281 O 120.3 4.07468 4.43005 0
M  V30 1282 H 124.126 2.67799 1.43239 0
M  V30 1283 H 121.711 1.34711 0.646013 0
M  V30 1284 H 123.593 1.90335 3.75966 0
M  V30 1285 H 122.268 0.899659 3.10947 0
M  V30 1286 H 121.175 3.02908 2.19539 0
M  V30 1287 H 122.508 3.97375 2.90437 0
M  V30 1288 N 124.16 -0.719506 1.40217 0
M  V30 1289 C 125.123 -1.8153 1.39927 0
M  V30 1290 C 126.123 -1.58095 0.293723 0
M  V30 1291 O 127.313 -1.65209 0.552429 0
M  V30 1292 C 124.445 -3.19561 1.18716 0
M  V30 1293 H 125.638 -1.83186 2.37451 0
M  V30 1294 H 123.191 -0.924746 1.26008 0
M  V30 1295 H 123.926 -3.23557 0.219366 0
M  V30 1296 H 123.711 -3.3797 1.98793 0
M  V30 1297 H 125.201 -3.99598 1.21291 0
M  V30 1298 N 125.638 -1.25649 -0.95132 0
M  V30 1299 C 127.054 -1.02542 -1.223 0
M  V30 1300 C 127.254 0.255715 -1.99871 0
M  V30 1301 O 126.31 0.967558 -2.33226 0
M  V30 1302 C 127.623 -2.25065 -1.99415 0
M  V30 1303 C 129.171 -2.29861 -2.12446 0
M  V30 1304 C 129.646 -3.52048 -2.92961 0
M  V30 1305 N 131.137 -3.52465 -3.00538 0
M  V30 1306 C 131.872 -4.43672 -3.63239 0
M  V30 1307 N 131.368 -5.45157 -4.27523 0
M  V30 1308 N 133.161 -4.31346 -3.60412 0
M  V30 1309 H 125.312 -2.07951 -0.432471 0
M  V30 1310 H 127.575 -0.91339 -0.253816 0
M  V30 1311 H 127.281 -3.18194 -1.49817 0
M  V30 1312 H 127.155 -2.28502 -3.00111 0
M  V30 1313 H 129.542 -1.37252 -2.61239 0
M  V30 1314 H 129.623 -2.3044 -1.11044 0
M  V30 1315 H 129.267 -4.44981 -2.44856 0
M  V30 1316 H 129.197 -3.48715 -3.94596 0
M  V30 1317 H 131.688 -2.79056 -2.54826 0
M  V30 1318 H 132.001 -6.10958 -4.73234 0
M  V30 1319 H 130.346 -5.49025 -4.26141 0
M  V30 1320 H 133.537 -3.51288 -3.09377 0
M  V30 1321 H 133.71 -5.02624 -4.0899 0
M  V30 1322 N 127.117 1.15442 -1.07289 0
M  V30 1323 C 128.528 1.67803 -0.818475 0
M  V30 1324 C 128.879 1.8489 0.656507 0
M  V30 1325 O 128.004 1.55176 1.50829 0
M  V30 1326 C 128.599 3.04805 -1.47917 0
M  V30 1327 C 127.158 3.54245 -1.27229 0
M  V30 1328 C 126.305 2.29986 -1.54925 0
M  V30 1329 H 129.256 0.996646 -1.23502 0
M  V30 1330 H 129.277 3.69702 -0.90005 0
M  V30 1331 H 128.789 2.92336 -2.55267 0
M  V30 1332 H 126.89 3.71956 -0.21899 0
M  V30 1333 H 127.003 4.35723 -1.99203 0
M  V30 1334 H 125.367 2.35496 -0.970242 0
M  V30 1335 H 126.15 2.20105 -2.63455 0
M  V30 1336 N 128.595 0.856903 1.32268 0
M  V30 1337 C 130.011 0.547061 1.49931 0
M  V30 1338 C 130.211 -0.921781 1.7918 0
M  V30 1339 O 129.267 -1.70469 1.8627 0
M  V30 1340 C 130.58 1.43599 2.64196 0
M  V30 1341 C 132.128 1.43665 2.78081 0
M  V30 1342 C 132.603 2.31085 3.95428 0
M  V30 1343 N 134.094 2.28893 4.02694 0
M  V30 1344 C 134.829 2.93262 4.92732 0
M  V30 1345 N 134.325 3.66751 5.87763 0
M  V30 1346 N 136.118 2.82638 4.85873 0
M  V30 1347 H 128.269 1.8075 1.11549 0
M  V30 1348 H 130.532 0.772144 0.549997 0
M  V30 1349 H 130.238 2.48058 2.49319 0
M  V30 1350 H 130.112 1.12502 3.60032 0
M  V30 1351 H 132.499 0.399701 2.92381 0
M  V30 1352 H 132.58 1.7878 1.82952 0
M  V30 1353 H 132.224 3.34849 3.81888 0
M  V30 1354 H 132.154 1.93302 4.89839 0
M  V30 1355 H 134.645 1.75466 3.34694 0
M  V30 1356 H 134.958 4.13027 6.53168 0
M  V30 1357 H 133.303 3.70859 5.87783 0
M  V30 1358 H 136.494 2.24774 4.10602 0
M  V30 1359 H 136.667 3.33084 5.55841 0
M  V30 1360 N 130.073 -1.45103 0.615059 0
M  V30 1361 C 131.321 -2.01784 0.112955 0
M  V30 1362 C 131.642 -1.48504 -1.26378 0
M  V30 1363 O 130.912 -0.682245 -1.83636 0
M  V30 1364 H 129.492 -0.745993 0.0387668 0
M  V30 1365 H 132.154 -1.77808 0.798141 0
M  V30 1366 H 131.25 -3.12025 0.0684069 0
M  V30 1367 N 131.551 -0.354651 -1.53558 0
M  V30 1368 C 132.799 0.237972 -2.00694 0
M  V30 1369 C 133.12 1.50173 -1.24391 0
M  V30 1370 O 132.39 1.92673 -0.354135 0
M  V30 1371 H 130.97 0.0909256 -0.741446 0
M  V30 1372 H 133.632 -0.478368 -1.88938 0
M  V30 1373 H 132.728 0.47264 -3.085 0
M  V30 1374 N 133.029 1.57378 -0.0835403 0
M  V30 1375 C 133.959 2.1641 0.87686 0
M  V30 1376 C 134.94 1.09429 1.30228 0
M  V30 1377 O 136.125 1.37516 1.37124 0
M  V30 1378 C 133.255 2.73517 2.14022 0
M  V30 1379 C 132.209 3.85769 1.85381 0
M  V30 1380 C 131.535 4.29529 3.18448 0
M  V30 1381 C 132.835 5.09486 1.14984 0
M  V30 1382 H 134.529 2.96914 0.385059 0
M  V30 1383 H 132.075 1.42823 0.18377 0
M  V30 1384 H 134.028 3.13463 2.81636 0
M  V30 1385 H 132.752 1.90252 2.65465 0
M  V30 1386 H 131.411 3.46345 1.20169 0
M  V30 1387 H 131.059 3.43169 3.67755 0
M  V30 1388 H 130.759 5.05204 3.00071 0
M  V30 1389 H 132.283 4.72099 3.8724 0
M  V30 1390 H 133.697 5.46674 1.72687 0
M  V30 1391 H 132.094 5.90515 1.06826 0
M  V30 1392 H 133.164 4.84724 0.130749 0
M  V30 1393 N 134.507 -0.190092 1.56449 0
M  V30 1394 C 135.753 -0.911052 1.81184 0
M  V30 1395 C 136.086 -1.82699 0.658396 0
M  V30 1396 O 135.361 -1.91491 -0.340775 0
M  V30 1397 C 135.644 -1.72297 3.16205 0
M  V30 1398 C 135.497 -0.831419 4.42049 0
M  V30 1399 C 136.816 -2.69454 3.47969 0
M  V30 1400 H 133.935 -0.32977 0.659106 0
M  V30 1401 H 136.577 -0.178169 1.89163 0
M  V30 1402 H 134.727 -2.34778 3.09534 0
M  V30 1403 H 136.399 -0.220929 4.60771 0
M  V30 1404 H 134.642 -0.138406 4.33579 0
M  V30 1405 H 135.313 -1.43461 5.33032 0
M  V30 1406 H 137.789 -2.17104 3.54972 0
M  V30 1407 H 136.665 -3.23342 4.43555 0
M  V30 1408 H 136.926 -3.48744 2.71717 0
M  V30 1409 N 135.985 -1.50799 -0.457987 0
M  V30 1410 C 137.396 -1.55152 -1.0385 0
M  V30 1411 C 137.747 -0.362719 -1.92818 0
M  V30 1412 O 136.872 0.522915 -2.09987 0
M  V30 1413 C 137.467 -2.81173 -1.89017 0
M  V30 1414 C 136.026 -2.88164 -2.42154 0
M  V30 1415 C 135.173 -2.49591 -1.20829 0
M  V30 1416 H 138.124 -1.56874 -0.240068 0
M  V30 1417 H 138.145 -2.63769 -2.74238 0
M  V30 1418 H 137.657 -3.67677 -1.24238 0
M  V30 1419 H 135.758 -2.06042 -3.10447 0
M  V30 1420 H 135.871 -3.91356 -2.76364 0
M  V30 1421 H 134.235 -2.02322 -1.54719 0
M  V30 1422 H 135.018 -3.38418 -0.576927 0
M  V30 1423 N 137.463 0.71206 -1.40597 0
M  V30 1424 C 138.393 1.83889 -1.43899 0
M  V30 1425 C 139.374 1.67442 -0.299504 0
M  V30 1426 O 140.559 1.87421 -0.508624 0
M  V30 1427 C 137.689 3.21877 -1.30431 0
M  V30 1428 C 136.643 3.53002 -2.42019 0
M  V30 1429 C 135.969 4.90172 -2.13626 0
M  V30 1430 C 137.269 3.53643 -3.84362 0
M  V30 1431 H 138.963 1.81383 -2.38203 0
M  V30 1432 H 136.509 0.871237 -1.14654 0
M  V30 1433 H 138.462 4.00404 -1.31357 0
M  V30 1434 H 137.186 3.24968 -0.326049 0
M  V30 1435 H 135.845 2.76818 -2.40349 0
M  V30 1436 H 135.493 4.89869 -1.14182 0
M  V30 1437 H 135.193 5.11962 -2.88389 0
M  V30 1438 H 136.717 5.71028 -2.1624 0
M  V30 1439 H 138.131 4.22203 -3.87837 0
M  V30 1440 H 136.528 3.86961 -4.58673 0
M  V30 1441 H 137.598 2.52954 -4.13693 0
M  V30 1442 N 138.941 1.26152 0.944643 0
M  V30 1443 C 139.904 1.07474 2.0244 0
M  V30 1444 C 140.904 0.0242064 1.60782 0
M  V30 1445 O 142.094 0.267302 1.72137 0
M  V30 1446 C 139.226 0.633956 3.34953 0
M  V30 1447 H 140.419 2.03336 2.20442 0
M  V30 1448 H 137.972 1.087 1.12312 0
M  V30 1449 H 138.707 -0.326811 3.22649 0
M  V30 1450 H 138.492 1.39247 3.66542 0
M  V30 1451 H 139.982 0.52501 4.14287 0
M  V30 1452 N 140.419 -1.14872 1.07899 0
M  V30 1453 C 141.329 -2.2341 0.715915 0
M  V30 1454 C 142.345 -1.71808 -0.275306 0
M  V30 1455 O 143.521 -2.01039 -0.120545 0
M  V30 1456 C 140.586 -3.46474 0.125168 0
M  V30 1457 C 139.647 -4.13039 1.17034 0
M  V30 1458 C 138.88 -5.30229 0.607688 0
M  V30 1459 O 139.103 -5.675 -0.574497 0
M  V30 1460 O 138.037 -5.86444 1.35526 0
M  V30 1461 H 141.863 -2.56808 1.62121 0
M  V30 1462 H 139.448 -1.22702 0.852322 0
M  V30 1463 H 141.33 -4.20917 -0.201729 0
M  V30 1464 H 140.005 -3.14811 -0.753364 0
M  V30 1465 H 138.912 -3.40493 1.54968 0
M  V30 1466 H 140.245 -4.48796 2.02097 0
M  V30 1467 N 141.898 -0.863906 -1.31812 0
M  V30 1468 C 143.144 -0.472535 -1.97218 0
M  V30 1469 C 143.477 0.971394 -1.68159 0
M  V30 1470 O 142.752 1.68309 -0.974798 0
M  V30 1471 C 143.035 -0.723054 -3.52766 0
M  V30 1472 C 142.888 -2.21608 -3.91421 0
M  V30 1473 C 144.207 -0.185522 -4.39709 0
M  V30 1474 H 141.326 -0.173158 -0.71637 0
M  V30 1475 H 143.968 -1.08403 -1.56041 0
M  V30 1476 H 142.118 -0.202577 -3.87971 0
M  V30 1477 H 143.79 -2.80334 -3.66347 0
M  V30 1478 H 142.033 -2.691 -3.40246 0
M  V30 1479 H 142.704 -2.34203 -4.99853 0
M  V30 1480 H 145.18 -0.630726 -4.11292 0
M  V30 1481 H 144.056 -0.390306 -5.47511 0
M  V30 1482 H 144.317 0.912229 -4.32586 0
M  V30 1483 N 143.376 1.44774 -0.622745 0
M  V30 1484 C 144.601 2.06999 -0.128968 0
M  V30 1485 C 145.026 1.4617 1.1839 0
M  V30 1486 O 144.384 0.560007 1.72434 0
M  V30 1487 C 144.432 3.60595 -0.0188351 0
M  V30 1488 O 143.536 3.99398 1.02739 0
M  V30 1489 H 142.877 0.659047 -0.0809544 0
M  V30 1490 H 145.407 1.85784 -0.85705 0
M  V30 1491 H 145.417 4.07627 0.174476 0
M  V30 1492 H 144.092 4.04252 -0.977384 0
M  V30 1493 H 142.669 3.64011 0.809326 0
M  V30 1494 N 144.854 0.36279 1.53368 0
M  V30 1495 C 146.102 -0.227326 2.00817 0
M  V30 1496 C 146.423 -1.49511 1.25186 0
M  V30 1497 O 145.693 -1.92482 0.364348 0
M  V30 1498 H 144.273 -0.0869923 0.741917 0
M  V30 1499 H 146.935 0.488381 1.88682 0
M  V30 1500 H 146.031 -0.456273 3.08747 0
M  V30 1501 N 146.332 -1.57332 0.0918853 0
M  V30 1502 C 147.572 -1.96117 -0.575988 0
M  V30 1503 C 147.936 -0.972499 -1.65549 0
M  V30 1504 O 149.137 -1.24872 -2.38034 0
M  V30 1505 C 147.408 -3.39407 -1.11973 0
M  V30 1506 S 148.967 -4.00185 -1.79992 0
M  V30 1507 H 145.785 -0.685682 -0.188045 0
M  V30 1508 H 148.387 -1.94755 0.170525 0
M  V30 1509 H 147.091 -4.09131 -0.322504 0
M  V30 1510 H 146.622 -3.44358 -1.90214 0
M  V30 1511 H 148.637 -3.88728 -3.08391 0
M  V30 1512 N 147.81 0.181792 -1.56548 0
M  V30 1513 C 149.05 0.906711 -1.83189 0
M  V30 1514 C 149.414 1.79882 -0.671312 0
M  V30 1515 O 150.615 2.56054 -0.81792 0
M  V30 1516 C 148.886 1.69023 -3.14906 0
M  V30 1517 S 150.445 2.46535 -3.62996 0
M  V30 1518 H 147.263 0.303877 -0.642791 0
M  V30 1519 H 149.865 0.169107 -1.94767 0
M  V30 1520 H 148.569 1.02571 -3.97376 0
M  V30 1521 H 148.1 2.46941 -3.06241 0
M  V30 1522 H 150.115 3.71014 -3.29489 0
M  V30 1523 N 149.288 1.51039 0.449983 0
M  V30 1524 C 150.516 1.66869 1.2232 0
M  V30 1525 C 150.931 0.360727 1.85322 0
M  V30 1526 O 150.288 -0.659531 1.70166 0
M  V30 1527 C 150.339 2.77524 2.31652 0
M  V30 1528 O 150.06 4.03252 1.7123 0
M  V30 1529 C 151.561 3.04512 3.2216 0
M  V30 1530 H 148.781 0.560326 0.369155 0
M  V30 1531 H 151.325 1.97385 0.534719 0
M  V30 1532 H 149.48 2.49642 2.96239 0
M  V30 1533 H 149.894 4.64609 2.43389 0
M  V30 1534 H 151.368 3.85551 3.95038 0
M  V30 1535 H 151.845 2.16415 3.8218 0
M  V30 1536 H 152.451 3.34005 2.63288 0
M  V30 1537 N 150.766 -0.704594 1.40972 0
M  V30 1538 C 151.696 -1.83124 1.44872 0
M  V30 1539 C 152.677 -1.67281 0.30838 0
M  V30 1540 O 153.862 -1.87149 0.518556 0
M  V30 1541 C 150.992 -3.21181 1.32136 0
M  V30 1542 C 149.946 -3.51714 2.43888 0
M  V30 1543 C 149.272 -4.89032 2.16222 0
M  V30 1544 C 150.572 -3.516 3.86232 0
M  V30 1545 H 152.266 -1.80117 2.39161 0
M  V30 1546 H 149.812 -0.865145 1.15114 0
M  V30 1547 H 151.765 -3.99702 1.33479 0
M  V30 1548 H 150.489 -3.24791 0.343279 0
M  V30 1549 H 149.148 -2.75539 2.41813 0
M  V30 1550 H 148.796 -4.89256 1.16778 0
M  V30 1551 H 148.496 -5.10426 2.911 0
M  V30 1552 H 150.02 -5.69873 2.19265 0
M  V30 1553 H 151.434 -4.2014 3.9007 0
M  V30 1554 H 149.831 -3.84523 4.60719 0
M  V30 1555 H 150.901 -2.50757 4.15029 0
M  V30 1556 N 152.244 -1.26651 -0.937939 0
M  V30 1557 C 153.66 -1.03834 -1.21205 0
M  V30 1558 C 153.86 0.234502 -2.00131 0
M  V30 1559 O 152.916 0.942767 -2.3424 0
M  V30 1560 C 154.229 -2.27167 -1.97017 0
M  V30 1561 C 155.777 -2.32101 -2.09996 0
M  V30 1562 C 156.252 -3.55136 -2.8921 0
M  V30 1563 N 157.743 -3.55632 -2.96783 0
M  V30 1564 C 158.478 -4.475 -3.58512 0
M  V30 1565 N 157.974 -5.4966 -4.21717 0
M  V30 1566 N 159.767 -4.35145 -3.55816 0
M  V30 1567 H 151.918 -2.08398 -0.410391 0
M  V30 1568 H 154.181 -0.916031 -0.244114 0
M  V30 1569 H 153.887 -3.19765 -1.46434 0
M  V30 1570 H 153.761 -2.31672 -2.97671 0
M  V30 1571 H 156.148 -1.40015 -2.59769 0
M  V30 1572 H 156.229 -2.31605 -1.08594 0
M  V30 1573 H 155.873 -4.47553 -2.40123 0
M  V30 1574 H 155.803 -3.5288 -3.90875 0
M  V30 1575 H 158.294 -2.81743 -2.51852 0
M  V30 1576 H 158.607 -6.15943 -4.66727 0
M  V30 1577 H 156.952 -5.53514 -4.20294 0
M  V30 1578 H 160.143 -3.5455 -3.05634 0
M  V30 1579 H 160.316 -5.06934 -4.03636 0
M  V30 1580 N 153.722 1.14298 -1.08507 0
M  V30 1581 C 154.947 1.8976 -0.837001 0
M  V30 1582 C 155.372 1.78097 0.605228 0
M  V30 1583 O 154.73 1.12188 1.4242 0
M  V30 1584 C 154.778 3.37685 -1.26495 0
M  V30 1585 O 153.882 4.10281 -0.417514 0
M  V30 1586 H 153.223 0.590365 -0.303917 0
M  V30 1587 H 155.753 1.44672 -1.44676 0
M  V30 1588 H 155.763 3.88501 -1.24625 0
M  V30 1589 H 154.438 3.45492 -2.31534 0
M  V30 1590 H 153.015 3.69536 -0.499722 0
M  V30 1591 N 155.201 0.870884 1.31352 0
M  V30 1592 C 156.617 0.562932 1.49343 0
M  V30 1593 C 156.817 -0.902725 1.80148 0
M  V30 1594 O 155.873 -1.68484 1.88067 0
M  V30 1595 C 157.186 1.46393 2.62659 0
M  V30 1596 C 158.734 1.46607 2.76542 0
M  V30 1597 C 159.209 2.35266 3.92955 0
M  V30 1598 N 160.7 2.33151 4.00243 0
M  V30 1599 C 161.435 2.98471 4.89594 0
M  V30 1600 N 160.931 3.72964 5.8384 0
M  V30 1601 N 162.724 2.87775 4.82848 0
M  V30 1602 H 154.875 1.81923 1.09626 0
M  V30 1603 H 157.138 0.777934 0.541777 0
M  V30 1604 H 156.844 2.50689 2.46674 0
M  V30 1605 H 156.718 1.16314 3.58819 0
M  V30 1606 H 159.105 0.43069 2.9194 0
M  V30 1607 H 159.186 1.8071 1.81046 0
M  V30 1608 H 158.83 3.38881 3.78315 0
M  V30 1609 H 158.76 1.98487 4.87761 0
M  V30 1610 H 161.251 1.79006 3.32814 0
M  V30 1611 H 161.564 4.19932 6.4875 0
M  V30 1612 H 159.909 3.77073 5.83816 0
M  V30 1613 H 163.1 2.29116 4.08195 0
M  V30 1614 H 163.273 3.38961 5.52277 0
M  V30 1615 N 156.679 -1.44442 0.630414 0
M  V30 1616 C 157.904 -2.06927 0.139944 0
M  V30 1617 C 158.329 -1.46795 -1.17613 0
M  V30 1618 O 157.687 -0.569144 -1.72135 0
M  V30 1619 C 157.735 -3.6058 0.0379581 0
M  V30 1620 O 156.839 -3.99937 -1.0062 0
M  V30 1621 H 156.18 -0.658608 0.0844483 0
M  V30 1622 H 158.71 -1.85327 0.866891 0
M  V30 1623 H 158.72 -4.07714 -0.152856 0
M  V30 1624 H 157.395 -4.03728 0.998809 0
M  V30 1625 H 155.972 -3.64436 -0.79001 0
M  V30 1626 N 158.157 -0.370918 -1.53173 0
M  V30 1627 C 159.568 0.107139 -1.86392 0
M  V30 1628 C 159.919 1.47714 -1.29132 0
M  V30 1629 O 159.044 2.07464 -0.615439 0
M  V30 1630 C 159.639 0.201187 -3.38202 0
M  V30 1631 C 158.198 0.623507 -3.712 0
M  V30 1632 C 157.345 -0.225978 -2.76378 0
M  V30 1633 H 160.296 -0.58951 -1.47345 0
M  V30 1634 H 160.317 1.02377 -3.66468 0
M  V30 1635 H 159.829 -0.796058 -3.79848 0
M  V30 1636 H 157.93 1.62879 -3.35114 0
M  V30 1637 H 158.043 0.394414 -4.77474 0
M  V30 1638 H 156.407 0.305962 -2.52856 0
M  V30 1639 H 157.19 -1.22086 -3.20858 0
M  V30 1640 N 159.635 1.57281 -0.100228 0
M  V30 1641 C 160.86 1.99302 0.573881 0
M  V30 1642 C 161.285 0.979059 1.60611 0
M  V30 1643 O 160.643 -0.0517803 1.81226 0
M  V30 1644 C 160.691 3.40274 1.19358 0
M  V30 1645 O 159.795 3.41676 2.30935 0
M  V30 1646 H 159.136 0.647944 0.145138 0
M  V30 1647 H 161.666 2.03779 -0.183156 0
M  V30 1648 H 161.676 3.78078 1.53365 0
M  V30 1649 H 160.351 4.13594 0.437385 0
M  V30 1650 H 158.928 3.15672 1.98509 0
M  V30 1651 N 161.113 -0.173488 1.56642 0
M  V30 1652 C 162.39 -0.917617 1.7274 0
M  V30 1653 C 162.77 -2.00484 0.661027 0
M  V30 1654 O 162.118 -2.26184 -0.32453 0
M  V30 1655 C 162.328 -1.48433 3.15862 0
M  V30 1656 C 163.676 -1.95809 3.76754 0
M  V30 1657 O 164.7 -1.58231 3.19126 0
M  V30 1658 O 163.559 -2.65024 4.77938 0
M  V30 1659 H 160.653 -0.431772 0.705338 0
M  V30 1660 H 163.199 -0.161487 1.6893 0
M  V30 1661 H 161.971 -0.701715 3.84957 0
M  V30 1662 H 161.594 -2.30471 3.23989 0
M  V30 1663 N 162.591 -1.51276 -0.441967 0
M  V30 1664 C 163.816 -1.67799 -1.21895 0
M  V30 1665 C 164.241 -0.372864 -1.84367 0
M  V30 1666 O 163.599 0.666501 -1.68604 0
M  V30 1667 C 163.647 -2.79199 -2.28211 0
M  V30 1668 O 162.751 -2.42479 -3.33583 0
M  V30 1669 H 162.092 -0.559649 -0.357336 0
M  V30 1670 H 164.622 -1.97815 -0.522522 0
M  V30 1671 H 164.632 -3.03146 -2.73069 0
M  V30 1672 H 163.307 -3.73906 -1.82118 0
M  V30 1673 H 161.884 -2.29087 -2.94234 0
M  V30 1674 N 164.069 0.697108 -1.41344 0
M  V30 1675 C 165.032 1.79281 -1.42797 0
M  V30 1676 C 166.032 1.57607 -0.318837 0
M  V30 1677 O 167.222 1.64309 -0.578642 0
M  V30 1678 C 164.354 3.17632 -1.23785 0
M  V30 1679 H 165.547 1.79385 -2.40335 0
M  V30 1680 H 163.1 0.904582 -1.27464 0
M  V30 1681 H 163.835 3.23167 -0.270814 0
M  V30 1682 H 163.62 3.34765 -2.04144 0
M  V30 1683 H 165.11 3.97617 -1.27633 0
M  V30 1684 N 165.547 1.27147 0.931209 0
M  V30 1685 C 166.51 1.09615 2.01289 0
M  V30 1686 C 167.51 0.0412581 1.60747 0
M  V30 1687 O 168.7 0.285545 1.71844 0
M  V30 1688 C 165.832 0.669447 3.34262 0
M  V30 1689 H 167.025 2.05662 2.18273 0
M  V30 1690 H 164.578 1.09885 1.11153 0
M  V30 1691 H 165.313 -0.292572 3.22978 0
M  V30 1692 H 165.098 1.43127 3.65044 0
M  V30 1693 H 166.588 0.568921 4.13706 0
M  V30 1694 N 167.025 -1.13721 1.09112 0
M  V30 1695 C 168.255 -1.88499 0.845671 0
M  V30 1696 C 168.663 -1.79218 -0.606432 0
M  V30 1697 O 168.006 -1.1544 -1.42896 0
M  V30 1698 C 168.068 -3.38954 1.19793 0
M  V30 1699 C 167.732 -3.72018 2.65428 0
M  V30 1700 C 168.729 -3.7153 3.63677 0
M  V30 1701 C 166.414 -4.01775 3.01467 0
M  V30 1702 C 168.408 -4.00336 4.95994 0
M  V30 1703 C 166.095 -4.30243 4.33975 0
M  V30 1704 C 167.093 -4.29508 5.31048 0
M  V30 1705 O 166.781 -4.5728 6.61173 0
M  V30 1706 H 166.513 -0.603702 0.304171 0
M  V30 1707 H 169.067 -1.44903 1.45576 0
M  V30 1708 H 167.297 -3.83039 0.530871 0
M  V30 1709 H 168.986 -3.95052 0.932146 0
M  V30 1710 H 169.752 -3.4862 3.37179 0
M  V30 1711 H 165.631 -4.01496 2.26544 0
M  V30 1712 H 169.175 -3.99678 5.71755 0
M  V30 1713 H 165.072 -4.52625 4.60219 0
M  V30 1714 H 165.84 -4.74964 6.66597 0
M  V30 1715 N 168.503 -0.877838 -1.30888 0
M  V30 1716 C 169.75 -0.492696 -1.96415 0
M  V30 1717 C 170.078 0.956671 -1.69346 0
M  V30 1718 O 169.333 1.68993 -0.986913 0
M  V30 1719 C 169.632 -0.705748 -3.50363 0
M  V30 1720 C 169.298 -2.1291 -3.97467 0
M  V30 1721 C 167.96 -2.51834 -4.1004 0
M  V30 1722 C 170.312 -3.05702 -4.22132 0
M  V30 1723 C 167.64 -3.82775 -4.44635 0
M  V30 1724 C 169.992 -4.36166 -4.58194 0
M  V30 1725 C 168.656 -4.74993 -4.68975 0
M  V30 1726 H 167.926 -0.18029 -0.718733 0
M  V30 1727 H 170.573 -1.11233 -1.55883 0
M  V30 1728 H 168.878 -0.00303058 -3.918 0
M  V30 1729 H 170.575 -0.387456 -3.99124 0
M  V30 1730 H 167.165 -1.81694 -3.88182 0
M  V30 1731 H 171.349 -2.76853 -4.11906 0
M  V30 1732 H 166.605 -4.12609 -4.51181 0
M  V30 1733 H 170.779 -5.08111 -4.76231 0
M  V30 1734 H 168.406 -5.76495 -4.95537 0
M  V30 1735 N 169.982 1.44106 -0.638065 0
M  V30 1736 C 171.222 2.03858 -0.148733 0
M  V30 1737 C 171.586 1.49153 1.20903 0
M  V30 1738 O 172.787 2.00452 1.79088 0
M  V30 1739 C 171.058 3.57117 -0.142314 0
M  V30 1740 S 172.617 4.37897 0.281385 0
M  V30 1741 H 169.435 0.708069 -0.0644912 0
M  V30 1742 H 172.037 1.7639 -0.843009 0
M  V30 1743 H 170.741 3.94436 -1.13349 0
M  V30 1744 H 170.272 3.89205 0.572988 0
M  V30 1745 H 172.287 4.72218 1.52395 0
M  V30 1746 N 171.46 0.379036 1.52974 0
M  V30 1747 C 172.709 -0.207612 2.00629 0
M  V30 1748 C 173.022 -1.48758 1.27006 0
M  V30 1749 O 174.228 -2.15365 1.65318 0
M  V30 1750 C 172.684 -0.42053 3.57435 0
M  V30 1751 C 172.292 0.845587 4.39948 0
M  V30 1752 C 174.036 -0.964102 4.13407 0
M  V30 1753 C 171.943 0.601513 5.88333 0
M  V30 1754 H 170.873 -0.0813591 0.749598 0
M  V30 1755 H 173.524 0.499853 1.76561 0
M  V30 1756 H 171.906 -1.18959 3.7771 0
M  V30 1757 H 173.08 1.61848 4.31442 0
M  V30 1758 H 171.395 1.31336 3.95145 0
M  V30 1759 H 173.992 -1.16225 5.21916 0
M  V30 1760 H 174.335 -1.93019 3.68849 0
M  V30 1761 H 174.868 -0.25487 3.96983 0
M  V30 1762 H 171.607 1.53831 6.37194 0
M  V30 1763 H 171.127 -0.132628 5.99653 0
M  V30 1764 H 172.806 0.232134 6.46583 0
M  V30 1765 N 172.938 -1.57226 0.108567 0
M  V30 1766 C 174.168 -1.9889 -0.559142 0
M  V30 1767 C 174.576 -0.986889 -1.61422 0
M  V30 1768 O 173.919 0.0298705 -1.83676 0
M  V30 1769 C 173.981 -3.36952 -1.25315 0
M  V30 1770 C 173.645 -4.55679 -0.347248 0
M  V30 1771 C 174.642 -5.18281 0.409996 0
M  V30 1772 C 172.327 -5.0162 -0.261367 0
M  V30 1773 C 174.321 -6.25203 1.24096 0
M  V30 1774 C 172.008 -6.08405 0.573238 0
M  V30 1775 C 173.006 -6.70063 1.32304 0
M  V30 1776 O 172.694 -7.74788 2.14381 0
M  V30 1777 H 172.426 -0.658343 -0.153492 0
M  V30 1778 H 174.98 -2.04532 0.188584 0
M  V30 1779 H 173.21 -3.28032 -2.04773 0
M  V30 1780 H 174.899 -3.62974 -1.81673 0
M  V30 1781 H 175.665 -4.8371 0.353457 0
M  V30 1782 H 171.544 -4.53381 -0.834656 0
M  V30 1783 H 175.088 -6.73259 1.82669 0
M  V30 1784 H 170.985 -6.42406 0.631208 0
M  V30 1785 H 171.753 -7.91837 2.07209 0
M  V30 1786 N 174.416 0.165178 -1.56732 0
M  V30 1787 C 175.644 0.896218 -1.86482 0
M  V30 1788 C 176.059 1.75555 -0.694675 0
M  V30 1789 O 175.416 1.79379 0.33607 0
M  V30 1790 C 175.467 1.76792 -3.1532 0
M  V30 1791 O 175.188 0.943239 -4.27825 0
M  V30 1792 C 176.689 2.6081 -3.58459 0
M  V30 1793 H 173.909 0.260064 -0.618553 0
M  V30 1794 H 176.453 0.163428 -2.03846 0
M  V30 1795 H 174.608 2.45398 -2.99764 0
M  V30 1796 H 175.022 1.53998 -5.01383 0
M  V30 1797 H 176.496 3.17579 -4.51495 0
M  V30 1798 H 176.973 3.35977 -2.82872 0
M  V30 1799 H 177.579 1.97526 -3.76648 0
M  V30 1800 N 175.894 1.51508 0.433938 0
M  V30 1801 C 177.124 1.67914 1.20369 0
M  V30 1802 C 177.532 0.377461 1.85397 0
M  V30 1803 O 176.875 -0.654255 1.71654 0
M  V30 1804 C 176.937 2.74045 2.32679 0
M  V30 1805 C 176.601 4.16543 1.87991 0
M  V30 1806 C 177.598 5.01211 1.38145 0
M  V30 1807 C 175.283 4.6266 1.95579 0
M  V30 1808 C 177.277 6.30056 0.964774 0
M  V30 1809 C 174.964 5.91501 1.53523 0
M  V30 1810 C 175.962 6.75027 1.04055 0
M  V30 1811 O 175.65 8.01459 0.625964 0
M  V30 1812 H 175.382 0.566578 0.368735 0
M  V30 1813 H 177.936 1.98709 0.51999 0
M  V30 1814 H 176.166 2.38572 3.04336 0
M  V30 1815 H 177.855 2.79295 2.94532 0
M  V30 1816 H 178.621 4.66783 1.31675 0
M  V30 1817 H 174.5 3.97767 2.33029 0
M  V30 1818 H 178.044 6.95202 0.57796 0
M  V30 1819 H 173.941 6.25442 1.59665 0
M  V30 1820 H 174.709 8.15043 0.751509 0
M  V30 1821 N 177.372 -0.689602 1.41712 0
M  V30 1822 C 178.783 -1.26973 1.36875 0
M  V30 1823 C 179.134 -1.96124 0.054748 0
M  V30 1824 O 178.259 -1.99141 -0.84687 0
M  V30 1825 C 178.854 -2.30912 2.47922 0
M  V30 1826 C 177.413 -2.84486 2.46464 0
M  V30 1827 C 176.56 -1.58603 2.27465 0
M  V30 1828 H 179.511 -0.48396 1.51141 0
M  V30 1829 H 179.532 -3.12331 2.17323 0
M  V30 1830 H 179.044 -1.80554 3.43543 0
M  V30 1831 H 177.145 -3.39005 1.54617 0
M  V30 1832 H 177.258 -3.34511 3.42986 0
M  V30 1833 H 175.622 -1.84632 1.75451 0
M  V30 1834 H 176.405 -1.10233 3.25121 0
M  V30 1835 N 178.85 -1.27639 -0.924453 0
M  V30 1836 C 180.266 -1.05113 -1.20097 0
M  V30 1837 C 180.466 0.213262 -2.00368 0
M  V30 1838 O 179.522 0.91787 -2.35226 0
M  V30 1839 C 180.835 -2.29244 -1.94596 0
M  V30 1840 C 182.383 -2.34315 -2.07522 0
M  V30 1841 C 182.858 -3.58183 -2.85427 0
M  V30 1842 N 184.349 -3.5876 -2.92994 0
M  V30 1843 C 185.084 -4.51277 -3.53746 0
M  V30 1844 N 184.58 -5.54102 -4.15863 0
M  V30 1845 N 186.373 -4.38894 -3.51181 0
M  V30 1846 H 178.524 -2.08821 -0.388264 0
M  V30 1847 H 180.787 -0.918568 -0.234385 0
M  V30 1848 H 180.493 -3.21301 -1.43034 0
M  V30 1849 H 180.367 -2.34816 -2.95197 0
M  V30 1850 H 182.754 -1.42762 -2.58269 0
M  V30 1851 H 182.835 -2.32744 -1.06131 0
M  V30 1852 H 182.479 -4.50074 -2.35363 0
M  V30 1853 H 182.409 -3.57006 -3.8711 0
M  V30 1854 H 184.9 -2.84398 -2.4885 0
M  V30 1855 H 185.213 -6.20859 -4.60168 0
M  V30 1856 H 183.558 -5.57941 -4.144 0
M  V30 1857 H 186.749 -3.57772 -3.01856 0
M  V30 1858 H 186.922 -5.11186 -3.98237 0
M  V30 1859 N 180.328 1.1314 -1.09713 0
M  V30 1860 C 181.576 1.84119 -0.833338 0
M  V30 1861 C 181.897 1.84097 0.642904 0
M  V30 1862 O 181.167 1.29881 1.46655 0
M  V30 1863 H 179.747 0.681766 -0.305293 0
M  V30 1864 H 182.409 1.37038 -1.38588 0
M  V30 1865 H 181.505 2.88543 -1.18951 0
M  V30 1866 N 181.806 0.884767 1.30421 0
M  V30 1867 C 183.222 0.57874 1.48737 0
M  V30 1868 C 183.422 -0.883567 1.81095 0
M  V30 1869 O 182.478 -1.6648 1.89844 0
M  V30 1870 C 183.791 1.49171 2.61091 0
M  V30 1871 C 185.339 1.49532 2.74971 0
M  V30 1872 C 185.814 2.39421 3.90438 0
M  V30 1873 N 187.305 2.37383 3.97748 0
M  V30 1874 C 188.04 3.03647 4.86401 0
M  V30 1875 N 187.536 3.79136 5.79852 0
M  V30 1876 N 189.329 2.9288 4.79768 0
M  V30 1877 H 181.48 1.83075 1.0769 0
M  V30 1878 H 183.743 0.783637 0.533495 0
M  V30 1879 H 183.449 2.53291 2.44001 0
M  V30 1880 H 183.323 1.20113 3.57565 0
M  V30 1881 H 185.71 0.46163 2.91467 0
M  V30 1882 H 185.791 1.8262 1.79119 0
M  V30 1883 H 185.435 3.42874 3.74699 0
M  V30 1884 H 185.365 2.03649 4.85628 0
M  V30 1885 H 187.856 1.82525 3.30897 0
M  V30 1886 H 188.169 4.26789 6.4426 0
M  V30 1887 H 186.514 3.83243 5.79784 0
M  V30 1888 H 189.705 2.33433 4.05742 0
M  V30 1889 H 189.878 3.448 5.4865 0
M  V30 1890 N 183.284 -1.43765 0.645699 0
M  V30 1891 C 184.7 -1.56509 0.312591 0
M  V30 1892 C 184.9 -1.6307 -1.18365 0
M  V30 1893 O 183.956 -1.58167 -1.96824 0
M  V30 1894 C 185.269 -2.82968 1.01733 0
M  V30 1895 C 186.817 -2.96701 0.996865 0
M  V30 1896 C 187.292 -4.25982 1.68236 0
M  V30 1897 N 188.783 -4.32829 1.64964 0
M  V30 1898 C 189.518 -5.31613 2.14885 0
M  V30 1899 N 189.014 -6.36718 2.73061 0
M  V30 1900 N 190.807 -5.23217 2.05428 0
M  V30 1901 H 182.958 -1.3775 1.61675 0
M  V30 1902 H 185.221 -0.661067 0.679481 0
M  V30 1903 H 184.927 -2.84156 2.0724 0
M  V30 1904 H 184.801 -3.72957 0.564177 0
M  V30 1905 H 187.188 -2.95058 -0.0497719 0
M  V30 1906 H 187.269 -2.08022 1.48865 0
M  V30 1907 H 186.913 -4.28386 2.72852 0
M  V30 1908 H 186.843 -5.13545 1.16529 0
M  V30 1909 H 189.334 -3.57493 1.22503 0
M  V30 1910 H 189.647 -7.08401 3.08848 0
M  V30 1911 H 187.992 -6.37362 2.77118 0
M  V30 1912 H 191.183 -4.40019 1.59689 0
M  V30 1913 H 191.356 -6.00045 2.44643 0
M  V30 1914 N 184.763 -0.387143 -1.52771 0
M  V30 1915 C 186.011 0.195349 -2.01154 0
M  V30 1916 C 186.332 1.475 -1.27549 0
M  V30 1917 O 185.602 1.91878 -0.394924 0
M  V30 1918 H 184.182 0.075178 -0.743207 0
M  V30 1919 H 186.844 -0.518337 -1.87881 0
M  V30 1920 H 185.94 0.407096 -3.09434 0
M  V30 1921 N 186.241 1.57166 -0.116904 0
M  V30 1922 C 187.204 2.14039 0.819742 0
M  V30 1923 C 188.204 1.07477 1.19605 0
M  V30 1924 O 189.394 1.33263 1.1219 0
M  V30 1925 C 186.526 2.67891 2.10826 0
M  V30 1926 H 187.719 2.98128 0.325511 0
M  V30 1927 H 185.272 1.55739 0.132312 0
M  V30 1928 H 186.007 1.87384 2.64685 0
M  V30 1929 H 185.792 3.45823 1.84793 0
M  V30 1930 H 187.282 3.11809 2.77785 0
M  V30 1931 N 187.719 -0.156864 1.56817 0
M  V30 1932 C 189.135 -0.50916 1.5126 0
M  V30 1933 C 189.335 -1.83897 0.823658 0
M  V30 1934 O 188.391 -2.49469 0.390055 0
M  V30 1935 C 189.704 -0.52857 2.96018 0
M  V30 1936 C 191.252 -0.614771 3.06903 0
M  V30 1937 C 191.727 -0.664938 4.53147 0
M  V30 1938 N 193.218 -0.727433 4.57452 0
M  V30 1939 C 193.953 -0.787067 5.67973 0
M  V30 1940 N 193.449 -0.806649 6.88088 0
M  V30 1941 N 195.242 -0.827195 5.5598 0
M  V30 1942 H 187.393 0.714935 2.00006 0
M  V30 1943 H 189.656 0.259526 0.911784 0
M  V30 1944 H 189.362 0.380154 3.49639 0
M  V30 1945 H 189.236 -1.36998 3.51442 0
M  V30 1946 H 191.623 -1.51392 2.53307 0
M  V30 1947 H 191.704 0.253597 2.5454 0
M  V30 1948 H 191.348 0.230011 5.07379 0
M  V30 1949 H 191.278 -1.54966 5.03282 0
M  V30 1950 H 193.769 -0.719998 3.70978 0
M  V30 1951 H 194.082 -0.853727 7.6807 0
M  V30 1952 H 192.427 -0.774687 6.90669 0
M  V30 1953 H 195.618 -0.808998 4.61056 0
M  V30 1954 H 195.791 -0.870206 6.4213 0
M  V30 1955 N 189.197 -1.51736 -0.425897 0
M  V30 1956 C 190.613 -1.40166 -0.76326 0
M  V30 1957 C 190.813 -0.492962 -1.95377 0
M  V30 1958 O 189.869 0.0475815 -2.52455 0
M  V30 1959 C 191.182 -2.82403 -1.03291 0
M  V30 1960 C 192.73 -2.91632 -1.13665 0
M  V30 1961 C 193.205 -4.34801 -1.43916 0
M  V30 1962 N 194.696 -4.3796 -1.50816 0
M  V30 1963 C 195.431 -5.4578 -1.75817 0
M  V30 1964 N 194.927 -6.63744 -1.98534 0
M  V30 1965 N 196.72 -5.33274 -1.77694 0
M  V30 1966 H 188.871 -2.09361 0.358 0
M  V30 1967 H 191.134 -0.942941 0.0978094 0
M  V30 1968 H 190.84 -3.50943 -0.230696 0
M  V30 1969 H 190.714 -3.22428 -1.95754 0
M  V30 1970 H 193.101 -2.23284 -1.92947 0
M  V30 1971 H 193.182 -2.55088 -0.190756 0
M  V30 1972 H 192.826 -5.03703 -0.65157 0
M  V30 1973 H 192.756 -4.68868 -2.39729 0
M  V30 1974 H 195.247 -3.52919 -1.35118 0
M  V30 1975 H 195.56 -7.41704 -2.17013 0
M  V30 1976 H 193.905 -6.66839 -1.95832 0
M  V30 1977 H 197.096 -4.40098 -1.59473 0
M  V30 1978 H 197.269 -6.1738 -1.9684 0
M  V30 1979 N 190.675 0.682077 -1.42076 0
M  V30 1980 C 192.091 0.994324 -1.24841 0
M  V30 1981 C 192.291 2.0096 -0.147389 0
M  V30 1982 O 191.347 2.47822 0.483782 0
M  V30 1983 C 192.66 1.50607 -2.60265 0
M  V30 1984 C 194.208 1.62421 -2.6756 0
M  V30 1985 C 194.683 2.16994 -4.03333 0
M  V30 1986 N 196.174 2.24337 -4.0525 0
M  V30 1987 C 196.909 2.67621 -5.07116 0
M  V30 1988 N 196.405 3.1041 -6.19368 0
M  V30 1989 N 198.198 2.67305 -4.94474 0
M  V30 1990 H 190.349 0.00973908 -2.12398 0
M  V30 1991 H 192.612 0.0668593 -0.945639 0
M  V30 1992 H 192.318 0.834583 -3.41654 0
M  V30 1993 H 192.192 2.48602 -2.83684 0
M  V30 1994 H 194.579 2.28678 -1.86521 0
M  V30 1995 H 194.66 0.629352 -2.47937 0
M  V30 1996 H 194.304 1.51349 -4.84826 0
M  V30 1997 H 194.234 3.17258 -4.20304 0
M  V30 1998 H 196.725 1.94158 -3.24209 0
M  V30 1999 H 197.038 3.42103 -6.92954 0
M  V30 2000 H 195.383 3.08286 -6.22884 0
M  V30 2001 H 198.574 2.33233 -4.05857 0
M  V30 2002 H 198.747 3.00718 -5.73997 0
M  V30 2003 N 192.153 1.28127 0.917671 0
M  V30 2004 C 193.116 1.11744 2.00115 0
M  V30 2005 C 194.116 0.0583052 1.60694 0
M  V30 2006 O 195.306 0.303755 1.71531 0
M  V30 2007 C 192.438 0.704862 3.33533 0
M  V30 2008 H 193.631 2.07966 2.16079 0
M  V30 2009 H 191.184 1.11058 1.09981 0
M  V30 2010 H 191.919 -0.258299 3.2327 0
M  V30 2011 H 191.704 1.4699 3.63505 0
M  V30 2012 H 193.194 0.612768 4.1308 0
M  V30 2013 N 193.631 -1.12557 1.10312 0
M  V30 2014 C 194.859 -1.87864 0.866873 0
M  V30 2015 C 195.274 -1.79588 -0.582557 0
M  V30 2016 O 194.631 -1.16887 -1.40156 0
M  V30 2017 C 194.682 -3.37125 1.30496 0
M  V30 2018 O 194.403 -3.45201 2.69755 0
M  V30 2019 C 195.904 -4.29373 1.10243 0
M  V30 2020 H 193.124 -0.594452 0.311236 0
M  V30 2021 H 195.668 -1.42429 1.46745 0
M  V30 2022 H 193.823 -3.80109 0.748081 0
M  V30 2023 H 194.237 -4.38056 2.88457 0
M  V30 2024 H 195.711 -5.32394 1.45811 0
M  V30 2025 H 196.188 -4.39181 0.0409492 0
M  V30 2026 H 196.794 -3.92169 1.64571 0
M  V30 2027 N 195.109 -0.891671 -1.2995 0
M  V30 2028 C 196.525 -0.58662 -1.48428 0
M  V30 2029 C 196.725 0.873951 -1.81561 0
M  V30 2030 O 195.781 1.65471 -1.90724 0
M  V30 2031 C 197.094 -1.50553 -2.60296 0
M  V30 2032 C 198.642 -1.50988 -2.74175 0
M  V30 2033 C 199.117 -2.41488 -3.89163 0
M  V30 2034 N 200.608 -2.39489 -3.96483 0
M  V30 2035 C 201.343 -3.06223 -4.84784 0
M  V30 2036 N 200.839 -3.82206 -5.77833 0
M  V30 2037 N 202.632 -2.95421 -4.78208 0
M  V30 2038 H 194.783 -1.83644 -1.06718 0
M  V30 2039 H 197.046 -0.786455 -0.529332 0
M  V30 2040 H 196.752 -2.54581 -2.42654 0
M  V30 2041 H 196.626 -1.22008 -3.56923 0
M  V30 2042 H 199.013 -0.47708 -2.91218 0
M  V30 2043 H 199.094 -1.83567 -1.78148 0
M  V30 2044 H 198.738 -3.44857 -3.72876 0
M  V30 2045 H 198.668 -2.06222 -4.84541 0
M  V30 2046 H 201.159 -1.84278 -3.29924 0
M  V30 2047 H 201.472 -4.302 -6.41988 0
M  V30 2048 H 199.817 -3.86313 -5.77743 0
M  V30 2049 H 203.008 -2.35581 -4.04499 0
M  V30 2050 H 203.181 -3.47704 -5.46814 0
M  V30 2051 N 196.587 1.43421 -0.653314 0
M  V30 2052 C 197.815 2.06163 -0.174491 0
M  V30 2053 C 198.23 1.48969 1.1599 0
M  V30 2054 O 197.587 0.621042 1.71608 0
M  V30 2055 C 197.638 3.61417 -0.0774865 0
M  V30 2056 O 197.359 4.16485 -1.35912 0
M  V30 2057 C 198.86 4.41235 0.427402 0
M  V30 2058 H 196.08 0.664946 -0.0899353 0
M  V30 2059 H 198.624 1.83924 -0.893988 0
M  V30 2060 H 196.779 3.82841 0.59257 0
M  V30 2061 H 197.193 5.10153 -1.21839 0
M  V30 2062 H 198.667 5.5021 0.44423 0
M  V30 2063 H 199.144 4.14268 1.45873 0
M  V30 2064 H 199.75 4.2478 -0.210167 0
M  V30 2065 N 198.065 0.39524 1.52563 0
M  V30 2066 C 199.312 -0.185044 2.01653 0
M  V30 2067 C 199.64 -1.46317 1.28146 0
M  V30 2068 O 198.895 -1.9213 0.372074 0
M  V30 2069 C 199.194 -0.493444 3.53977 0
M  V30 2070 C 198.86 0.69384 4.4553 0
M  V30 2071 C 197.522 1.01954 4.70275 0
M  V30 2072 C 199.874 1.48785 4.99512 0
M  V30 2073 C 197.202 2.14069 5.46252 0
M  V30 2074 C 199.554 2.59965 5.76716 0
M  V30 2075 C 198.218 2.93037 5.99738 0
M  V30 2076 H 197.488 -0.0677123 0.7379 0
M  V30 2077 H 200.135 0.533807 1.8391 0
M  V30 2078 H 198.44 -1.29369 3.69825 0
M  V30 2079 H 200.137 -0.955163 3.89458 0
M  V30 2080 H 196.727 0.429987 4.26438 0
M  V30 2081 H 200.911 1.24946 4.80315 0
M  V30 2082 H 196.167 2.40056 5.62302 0
M  V30 2083 H 200.341 3.21887 6.17545 0
M  V30 2084 H 197.968 3.8003 6.58393 0
M  V30 2085 N 199.544 -1.57102 0.125237 0
M  V30 2086 C 200.96 -1.57915 -0.231322 0
M  V30 2087 C 201.16 -1.13833 -1.66266 0
M  V30 2088 O 200.216 -0.828581 -2.38518 0
M  V30 2089 C 201.529 -3.00699 0.00766489 0
M  V30 2090 C 203.077 -3.12947 -0.0577483 0
M  V30 2091 C 203.552 -4.57742 0.153626 0
M  V30 2092 N 205.043 -4.63092 0.0998073 0
M  V30 2093 C 205.778 -5.72905 0.238174 0
M  V30 2094 N 205.274 -6.91445 0.433057 0
M  V30 2095 N 207.067 -5.6182 0.177308 0
M  V30 2096 H 199.218 -1.84055 1.06007 0
M  V30 2097 H 201.481 -0.850905 0.417929 0
M  V30 2098 H 201.187 -3.3726 0.997431 0
M  V30 2099 H 201.061 -3.70236 -0.721452 0
M  V30 2100 H 203.448 -2.7624 -1.03804 0
M  V30 2101 H 203.529 -2.4594 0.70335 0
M  V30 2102 H 203.173 -4.95149 1.13092 0
M  V30 2103 H 203.103 -5.22848 -0.627534 0
M  V30 2104 H 205.594 -3.77871 -0.047051 0
M  V30 2105 H 205.907 -7.70985 0.529332 0
M  V30 2106 H 204.252 -6.93415 0.469109 0
M  V30 2107 H 207.443 -4.68093 0.0259748 0
M  V30 2108 H 207.616 -6.47357 0.288582 0
M  V30 2109 N 201.022 0.148545 -1.56898 0
M  V30 2110 C 201.985 1.16736 -1.97244 0
M  V30 2111 C 202.985 1.35947 -0.858777 0
M  V30 2112 O 204.175 1.32966 -1.12542 0
M  V30 2113 C 201.307 2.52798 -2.28705 0
M  V30 2114 H 202.5 0.821279 -2.88435 0
M  V30 2115 H 200.053 0.391831 -1.51309 0
M  V30 2116 H 200.788 2.92381 -1.403 0
M  V30 2117 H 200.573 2.40216 -3.09901 0
M  V30 2118 H 202.063 3.26179 -2.60762 0
M  V30 2119 N 202.5 1.5196 0.417844 0
M  V30 2120 C 203.777 1.56146 1.17803 0
M  V30 2121 C 204.157 0.337275 2.08388 0
M  V30 2122 O 203.505 -0.676447 2.18258 0
M  V30 2123 C 203.715 2.88566 1.96293 0
M  V30 2124 C 205.063 3.41244 2.52662 0
M  V30 2125 O 206.087 2.90247 2.06483 0
M  V30 2126 O 204.946 4.30273 3.36938 0
M  V30 2127 H 202.04 0.628598 0.537395 0
M  V30 2128 H 204.586 1.64283 0.425331 0
M  V30 2129 H 203.358 3.69116 1.2988 0
M  V30 2130 H 202.981 2.83681 2.78587 0
M  V30 2131 N 203.978 -0.674533 1.42435 0
M  V30 2132 C 205.226 -1.43175 1.42637 0
M  V30 2133 C 205.547 -1.94951 0.0438992 0
M  V30 2134 O 204.817 -1.7308 -0.917607 0
M  V30 2135 H 203.397 -0.531307 0.525092 0
M  V30 2136 H 206.059 -0.797006 1.77859 0
M  V30 2137 H 205.155 -2.28463 2.12629 0
M  V30 2138 N 205.456 -1.28612 -0.910864 0
M  V30 2139 C 206.419 -1.12803 -1.9952 0
M  V30 2140 C 207.419 -0.0668264 -1.60661 0
M  V30 2141 O 208.609 -0.312847 -1.71368 0
M  V30 2142 C 205.741 -0.72254 -3.33155 0
M  V30 2143 H 206.934 -2.09109 -2.14973 0
M  V30 2144 H 204.487 -1.11639 -1.09391 0
M  V30 2145 H 205.222 0.241152 -3.23402 0
M  V30 2146 H 205.007 -1.48916 -3.62721 0
M  V30 2147 H 206.497 -0.634666 -4.12749 0
M  V30 2148 N 206.934 1.1197 -1.10907 0
M  V30 2149 C 207.897 2.16031 -0.765707 0
M  V30 2150 C 208.897 1.59393 0.212235 0
M  V30 2151 O 210.087 1.74196 -0.0115441 0
M  V30 2152 C 207.219 3.40632 -0.135053 0
M  V30 2153 H 208.412 2.47919 -1.68748 0
M  V30 2154 H 205.965 1.27061 -0.910226 0
M  V30 2155 H 206.7 3.14348 0.797218 0
M  V30 2156 H 206.485 3.8302 -0.838937 0
M  V30 2157 H 207.975 4.17505 0.0892469 0
M  V30 2158 N 208.412 0.89855 1.29475 0
M  V30 2159 C 209.64 0.539261 1.99749 0
M  V30 2160 C 210.055 -0.875716 1.67262 0
M  V30 2161 O 209.412 -1.57786 0.917049 0
M  V30 2162 C 209.463 0.72061 3.54245 0
M  V30 2163 O 209.184 2.07989 3.8558 0
M  V30 2164 C 210.685 0.366118 4.41786 0
M  V30 2165 H 207.905 0.207047 0.638258 0
M  V30 2166 H 210.449 1.20758 1.65039 0
M  V30 2167 H 208.604 0.0994862 3.87272 0
M  V30 2168 H 209.018 2.10841 4.80257 0
M  V30 2169 H 210.492 0.543848 5.49314 0
M  V30 2170 H 210.969 -0.696763 4.33638 0
M  V30 2171 H 211.575 0.964135 4.14228 0
M  V30 2172 N 209.89 -1.43072 0.660911 0
M  V30 2173 C 211.12 -2.05769 0.185153 0
M  V30 2174 C 211.528 -1.49668 -1.15742 0
M  V30 2175 O 210.871 -0.625649 -1.72717 0
M  V30 2176 C 210.933 -3.59489 0.0278237 0
M  V30 2177 C 210.597 -4.38212 1.2969 0
M  V30 2178 C 211.594 -4.69772 2.22734 0
M  V30 2179 C 209.279 -4.7809 1.54063 0
M  V30 2180 C 211.273 -5.40129 3.38437 0
M  V30 2181 C 208.96 -5.4819 2.70058 0
M  V30 2182 C 209.958 -5.79132 3.62071 0
M  V30 2183 O 209.646 -6.47798 4.76039 0
M  V30 2184 H 209.378 -0.669873 0.0908086 0
M  V30 2185 H 211.932 -1.84436 0.90402 0
M  V30 2186 H 210.162 -3.79426 -0.746489 0
M  V30 2187 H 211.851 -4.03862 -0.406275 0
M  V30 2188 H 212.617 -4.39476 2.05149 0
M  V30 2189 H 208.496 -4.53408 0.833215 0
M  V30 2190 H 212.04 -5.64198 4.10277 0
M  V30 2191 H 207.937 -5.77902 2.87574 0
M  V30 2192 H 208.705 -6.66283 4.75404 0
M  V30 2193 N 211.368 -0.403325 -1.52352 0
M  V30 2194 C 212.278 0.432009 -2.30588 0
M  V30 2195 C 213.294 1.05884 -1.38075 0
M  V30 2196 O 214.47 1.06161 -1.71148 0
M  V30 2197 C 211.535 1.53669 -3.10784 0
M  V30 2198 C 210.596 0.933525 -4.19027 0
M  V30 2199 C 209.829 1.98557 -4.9539 0
M  V30 2200 O 210.052 3.20283 -4.71991 0
M  V30 2201 O 208.986 1.59504 -5.80381 0
M  V30 2202 H 212.812 -0.205739 -3.03002 0
M  V30 2203 H 210.397 -0.166675 -1.48467 0
M  V30 2204 H 212.279 2.17814 -3.60742 0
M  V30 2205 H 210.954 2.15915 -2.41169 0
M  V30 2206 H 209.861 0.254954 -3.7323 0
M  V30 2207 H 211.194 0.35508 -4.90918 0
M  V30 2208 N 212.846 1.57033 -0.133567 0
M  V30 2209 C 213.756 2.19632 0.824564 0
M  V30 2210 C 214.772 1.17666 1.28182 0
M  V30 2211 O 215.948 1.50193 1.3418 0
M  V30 2212 C 213.013 2.79499 2.05137 0
M  V30 2213 C 212.074 3.96548 1.64464 0
M  V30 2214 C 211.307 4.5355 2.81297 0
M  V30 2215 O 211.53 4.09438 3.97136 0
M  V30 2216 O 210.464 5.44018 2.57542 0
M  V30 2217 H 214.29 3.01991 0.321766 0
M  V30 2218 H 211.875 1.49112 0.0927889 0
M  V30 2219 H 213.757 3.17602 2.7696 0
M  V30 2220 H 212.432 2.00162 2.54395 0
M  V30 2221 H 211.339 3.63186 0.897048 0
M  V30 2222 H 212.672 4.77364 1.19934 0
M  V30 2223 N 214.325 -0.140222 1.56975 0
M  V30 2224 C 215.273 -1.19207 1.99731 0
M  V30 2225 C 216.267 -1.44089 0.890777 0
M  V30 2226 O 217.473 -1.44301 1.07597 0
M  V30 2227 H 213.848 -0.40142 0.635898 0
M  V30 2228 H 215.819 -0.804813 2.87342 0
M  V30 2229 C 214.568 -2.51617 2.39967 0
M  V30 2230 H 213.891 -2.33303 3.24669 0
M  V30 2231 H 215.331 -3.23827 2.73701 0
M  V30 2232 C 213.79 -3.12654 1.25496 0
M  V30 2233 O 214.32 -3.97786 0.559371 0
M  V30 2234 N 212.526 -2.72206 1.01746 0
M  V30 2235 H 212.073 -2.03074 1.58489 0
M  V30 2236 H 212.031 -3.13377 0.253461 0
M  V30 2237 N 215.803 -1.52179 -0.40978 0
M  V30 2238 C 217.219 -1.40968 -0.74835 0
M  V30 2239 C 217.419 -0.513657 -1.94843 0
M  V30 2240 O 216.475 0.0208026 -2.52491 0
M  V30 2241 C 217.788 -2.83483 -1.0029 0
M  V30 2242 C 219.336 -2.92821 -1.10565 0
M  V30 2243 C 219.811 -4.36303 -1.39296 0
M  V30 2244 N 221.302 -4.39535 -1.46162 0
M  V30 2245 C 222.037 -5.47614 -1.70018 0
M  V30 2246 N 221.533 -6.65812 -1.91483 0
M  V30 2247 N 223.326 -5.35129 -1.72027 0
M  V30 2248 H 215.477 -2.0897 0.380186 0
M  V30 2249 H 217.74 -0.94185 0.107805 0
M  V30 2250 H 217.446 -3.51168 -0.193461 0
M  V30 2251 H 217.32 -3.24487 -1.92323 0
M  V30 2252 H 219.707 -2.25318 -1.90568 0
M  V30 2253 H 219.788 -2.55276 -0.16369 0
M  V30 2254 H 219.432 -5.04366 -0.598109 0
M  V30 2255 H 219.362 -4.71385 -2.34743 0
M  V30 2256 H 221.853 -3.54332 -1.31367 0
M  V30 2257 H 222.166 -7.43964 -2.09134 0
M  V30 2258 H 220.511 -6.68879 -1.88749 0
M  V30 2259 H 223.702 -4.41764 -1.54796 0
M  V30 2260 H 223.875 -6.19433 -1.9028 0
M  V30 2261 N 217.281 0.66697 -1.42791 0
M  V30 2262 C 218.244 1.76211 -1.46568 0
M  V30 2263 C 219.244 1.56896 -0.352196 0
M  V30 2264 O 220.434 1.63044 -0.613364 0
M  V30 2265 C 217.566 3.14935 -1.30494 0
M  V30 2266 H 218.759 1.74247 -2.44086 0
M  V30 2267 H 216.312 0.877342 -1.29354 0
M  V30 2268 H 217.047 3.2252 -0.339301 0
M  V30 2269 H 216.832 3.30359 -2.11199 0
M  V30 2270 H 218.322 3.94821 -1.36038 0
M  V30 2271 N 218.759 1.29093 0.90403 0
M  V30 2272 C 219.669 1.15727 2.0407 0
M  V30 2273 C 220.685 0.0815308 1.73809 0
M  V30 2274 O 221.861 0.292749 1.99261 0
M  V30 2275 C 218.926 0.830424 3.36608 0
M  V30 2276 C 217.987 1.98955 3.80415 0
M  V30 2277 C 217.22 1.6782 5.06628 0
M  V30 2278 O 217.443 0.597105 5.67266 0
M  V30 2279 O 216.377 2.52486 5.46383 0
M  V30 2280 H 220.203 2.11171 2.18267 0
M  V30 2281 H 217.788 1.08504 1.027 0
M  V30 2282 H 219.67 0.662521 4.16159 0
M  V30 2283 H 218.345 -0.0942678 3.23563 0
M  V30 2284 H 217.252 2.21267 3.01648 0
M  V30 2285 H 218.585 2.89529 3.98037 0
M  V30 2286 N 220.237 -1.11381 1.11499 0
M  V30 2287 C 221.2 -2.15622 0.777153 0
M  V30 2288 C 222.2 -1.59504 -0.203779 0
M  V30 2289 O 223.39 -1.74188 0.020782 0
M  V30 2290 C 220.522 -3.40556 0.153116 0
M  V30 2291 H 221.715 -2.47021 1.70061 0
M  V30 2292 H 219.268 -1.26577 0.916952 0
M  V30 2293 H 220.003 -3.14767 -0.780536 0
M  V30 2294 H 219.788 -3.8257 0.859238 0
M  V30 2295 H 221.278 -4.17546 -0.0671044 0
M  V30 2296 N 221.715 -0.905404 -1.28997 0
M  V30 2297 C 222.647 -0.344748 -2.26592 0
M  V30 2298 C 223.66 0.512135 -1.54535 0
M  V30 2299 O 224.849 0.328368 -1.75454 0
M  V30 2300 C 221.949 0.526587 -3.34784 0
M  V30 2301 C 221.122 -0.305871 -4.36329 0
M  V30 2302 C 220.181 0.499209 -5.23827 0
M  V30 2303 O 219.207 -0.0853004 -5.69136 0
M  V30 2304 N 220.409 1.80408 -5.51755 0
M  V30 2305 H 223.174 -1.18359 -2.75338 0
M  V30 2306 H 220.735 -0.770481 -1.42391 0
M  V30 2307 H 222.727 1.07171 -3.90252 0
M  V30 2308 H 221.297 1.26613 -2.85811 0
M  V30 2309 H 220.517 -1.0324 -3.80441 0
M  V30 2310 H 221.805 -0.875773 -5.01206 0
M  V30 2311 H 221.203 2.3016 -5.16762 0
M  V30 2312 H 219.76 2.29621 -6.10014 0
M  V30 2313 N 223.193 1.4272 -0.668489 0
M  V30 2314 C 224.609 1.55992 -0.33745 0
M  V30 2315 C 224.809 1.64933 1.15756 0
M  V30 2316 O 223.865 1.61278 1.94282 0
M  V30 2317 C 225.178 2.81314 -1.06222 0
M  V30 2318 C 226.726 2.95078 -1.04394 0
M  V30 2319 C 227.201 4.23252 -1.74991 0
M  V30 2320 N 228.692 4.3015 -1.71829 0
M  V30 2321 C 229.427 5.28127 -2.23315 0
M  V30 2322 N 228.923 6.32293 -2.83156 0
M  V30 2323 N 230.716 5.19882 -2.13726 0
M  V30 2324 H 222.867 1.3516 -1.63846 0
M  V30 2325 H 225.13 0.650174 -0.689912 0
M  V30 2326 H 224.836 2.80823 -2.11734 0
M  V30 2327 H 224.71 3.72012 -0.62344 0
M  V30 2328 H 227.097 2.951 0.0028244 0
M  V30 2329 H 227.178 2.05627 -1.52155 0
M  V30 2330 H 226.822 4.2399 -2.79633 0
M  V30 2331 H 226.752 5.11626 -1.24685 0
M  V30 2332 H 229.243 3.55499 -1.28175 0
M  V30 2333 H 229.556 7.03398 -3.20079 0
M  V30 2334 H 227.901 6.32873 -2.87223 0
M  V30 2335 H 231.092 4.37423 -1.66669 0
M  V30 2336 H 231.265 5.96077 -2.54158 0
M  V30 2337 N 224.671 0.411399 1.52136 0
M  V30 2338 C 225.917 -0.156262 2.02799 0
M  V30 2339 C 226.272 -1.42613 1.29149 0
M  V30 2340 O 225.565 -1.87592 0.389839 0
M  V30 2341 C 225.759 -0.455872 3.54481 0
M  V30 2342 C 225.588 0.783404 4.42824 0
M  V30 2343 C 224.358 1.30928 4.88043 0
M  V30 2344 C 226.556 1.66217 4.86699 0
M  V30 2345 N 224.538 2.5038 5.6052 0
M  V30 2346 C 225.909 2.70292 5.5798 0
M  V30 2347 C 227.964 1.67966 4.68713 0
M  V30 2348 C 226.667 3.7603 6.13184 0
M  V30 2349 C 228.693 2.72624 5.24815 0
M  V30 2350 C 228.055 3.7542 5.9602 0
M  V30 2351 H 224.154 -0.0186886 0.781777 0
M  V30 2352 H 226.738 0.566255 1.86284 0
M  V30 2353 H 224.909 -1.14743 3.71064 0
M  V30 2354 H 226.641 -1.01261 3.91827 0
M  V30 2355 H 223.396 0.866977 4.65597 0
M  V30 2356 H 223.82 3.10881 6.014 0
M  V30 2357 H 228.462 0.898312 4.13147 0
M  V30 2358 H 226.18 4.55019 6.6782 0
M  V30 2359 H 229.766 2.74887 5.12765 0
M  V30 2360 H 228.646 4.55073 6.38654 0
M  V30 2361 N 226.149 -1.5696 0.141893 0
M  V30 2362 C 227.112 -2.15316 -0.785587 0
M  V30 2363 C 228.112 -1.09366 -1.1788 0
M  V30 2364 O 229.302 -1.35031 -1.10056 0
M  V30 2365 C 226.434 -2.71211 -2.06537 0
M  V30 2366 H 227.627 -2.98608 -0.278041 0
M  V30 2367 H 225.18 -1.5593 -0.107519 0
M  V30 2368 H 225.915 -1.91571 -2.6167 0
M  V30 2369 H 225.7 -3.4872 -1.79268 0
M  V30 2370 H 227.19 -3.16189 -2.72789 0
M  V30 2371 N 227.627 0.131896 -1.57047 0
M  V30 2372 C 228.855 0.856461 -1.88341 0
M  V30 2373 C 229.27 1.74042 -0.731757 0
M  V30 2374 O 228.627 1.80051 0.297945 0
M  V30 2375 C 228.678 1.70064 -3.18999 0
M  V30 2376 O 228.399 0.852278 -4.2973 0
M  V30 2377 C 229.9 2.53148 -3.63911 0
M  V30 2378 H 227.12 0.246885 -0.62393 0
M  V30 2379 H 229.664 0.120152 -2.04147 0
M  V30 2380 H 227.819 2.38984 -3.04902 0
M  V30 2381 H 228.233 1.43329 -5.04537 0
M  V30 2382 H 229.707 3.07931 -4.58129 0
M  V30 2383 H 230.184 3.29901 -2.89935 0
M  V30 2384 H 230.79 1.89492 -3.80753 0
M  V30 2385 N 229.106 1.52395 0.401703 0
M  V30 2386 C 230.069 1.75636 1.47257 0
M  V30 2387 C 231.069 0.62628 1.48103 0
M  V30 2388 O 232.259 0.894227 1.49497 0
M  V30 2389 C 229.391 1.84553 2.86624 0
M  V30 2390 H 230.584 2.71241 1.27938 0
M  V30 2391 H 228.137 1.42923 0.632662 0
M  V30 2392 H 228.872 0.908882 3.11303 0
M  V30 2393 H 228.657 2.66715 2.87412 0
M  V30 2394 H 230.147 2.04251 3.64241 0
M  V30 2395 N 230.584 -0.659388 1.43143 0
M  V30 2396 C 231.514 -1.78422 1.50625 0
M  V30 2397 C 232.495 -1.66216 0.361443 0
M  V30 2398 O 233.68 -1.85404 0.577834 0
M  V30 2399 C 230.81 -3.16815 1.42287 0
M  V30 2400 C 229.764 -3.43777 2.54954 0
M  V30 2401 C 229.09 -4.81905 2.31671 0
M  V30 2402 C 230.39 -3.39134 3.97222 0
M  V30 2403 H 232.084 -1.72417 2.44771 0
M  V30 2404 H 229.63 -0.828084 1.17808 0
M  V30 2405 H 231.583 -3.95253 1.46127 0
M  V30 2406 H 230.307 -3.23534 0.446435 0
M  V30 2407 H 228.966 -2.67707 2.50457 0
M  V30 2408 H 228.614 -4.85294 1.32284 0
M  V30 2409 H 228.314 -5.00906 3.07192 0
M  V30 2410 H 229.838 -5.62609 2.37284 0
M  V30 2411 H 231.252 -4.07518 4.03239 0
M  V30 2412 H 229.649 -3.69671 4.72719 0
M  V30 2413 H 230.719 -2.37426 4.22797 0
M  V30 2414 N 232.062 -1.29571 -0.897171 0
M  V30 2415 C 233.29 -1.20583 -1.68129 0
M  V30 2416 C 233.705 0.233181 -1.87354 0
M  V30 2417 O 233.062 1.15579 -1.41236 0
M  V30 2418 C 233.113 -1.91772 -3.06441 0
M  V30 2419 O 232.834 -3.30053 -2.88091 0
M  V30 2420 C 234.335 -1.89291 -4.00854 0
M  V30 2421 H 231.555 -0.417826 -0.525036 0
M  V30 2422 H 234.099 -1.70987 -1.12177 0
M  V30 2423 H 232.254 -1.45196 -3.59161 0
M  V30 2424 H 232.668 -3.65942 -3.75748 0
M  V30 2425 H 234.142 -2.43662 -4.95311 0
M  V30 2426 H 234.619 -0.869014 -4.30517 0
M  V30 2427 H 235.225 -2.35622 -3.54066 0
M  V30 2428 N 233.54 1.10788 -1.12088 0
M  V30 2429 C 234.78 1.84297 -0.883974 0
M  V30 2430 C 235.144 1.83036 0.579797 0
M  V30 2431 O 236.345 2.52061 0.933734 0
M  V30 2432 C 234.616 3.27173 -1.43849 0
M  V30 2433 S 236.175 4.17853 -1.33957 0
M  V30 2434 H 232.993 0.635433 -0.318977 0
M  V30 2435 H 235.595 1.33341 -1.4297 0
M  V30 2436 H 234.299 3.25658 -2.49749 0
M  V30 2437 H 233.83 3.83198 -0.890096 0
M  V30 2438 H 235.845 4.95239 -0.308603 0
M  V30 2439 N 235.018 0.912232 1.28515 0
M  V30 2440 C 235.948 0.416403 2.29757 0
M  V30 2441 C 236.929 -0.515194 1.6211 0
M  V30 2442 O 238.114 -0.423253 1.89532 0
M  V30 2443 C 235.244 -0.34572 3.45575 0
M  V30 2444 C 234.198 0.496599 4.25109 0
M  V30 2445 C 233.524 -0.393771 5.33248 0
M  V30 2446 C 234.824 1.75307 4.92001 0
M  V30 2447 H 236.518 1.26249 2.7148 0
M  V30 2448 H 234.064 0.608515 1.30511 0
M  V30 2449 H 236.017 -0.703422 4.15488 0
M  V30 2450 H 234.741 -1.2257 3.02728 0
M  V30 2451 H 233.4 0.8368 3.56922 0
M  V30 2452 H 233.048 -1.27225 4.86644 0
M  V30 2453 H 232.748 0.166209 5.87365 0
M  V30 2454 H 234.272 -0.747389 6.06009 0
M  V30 2455 H 235.686 1.46437 5.54283 0
M  V30 2456 H 234.083 2.25534 5.56106 0
M  V30 2457 H 235.153 2.48176 4.16577 0
M  V30 2458 N 236.496 -1.42363 0.676048 0
M  V30 2459 C 237.426 -2.33497 0.0124832 0
M  V30 2460 C 238.407 -1.50748 -0.787981 0
M  V30 2461 O 239.592 -1.79346 -0.744884 0
M  V30 2462 C 236.722 -3.34377 -0.938582 0
M  V30 2463 C 235.676 -4.27289 -0.246622 0
M  V30 2464 C 235.002 -5.18386 -1.31071 0
M  V30 2465 C 236.302 -5.14916 0.875125 0
M  V30 2466 H 237.996 -2.89233 0.773593 0
M  V30 2467 H 235.542 -1.39073 0.37346 0
M  V30 2468 H 237.495 -3.97044 -1.41188 0
M  V30 2469 H 236.219 -2.76947 -1.73113 0
M  V30 2470 H 234.878 -3.66018 0.206456 0
M  V30 2471 H 234.526 -4.57282 -2.09528 0
M  V30 2472 H 234.226 -5.81378 -0.852839 0
M  V30 2473 H 235.75 -5.83929 -1.78492 0
M  V30 2474 H 237.164 -5.71262 0.482983 0
M  V30 2475 H 235.561 -5.86747 1.25887 0
M  V30 2476 H 236.631 -4.53242 1.72335 0
M  V30 2477 N 237.974 -0.419461 -1.51915 0
M  V30 2478 C 239.39 -0.0708431 -1.59443 0
M  V30 2479 C 239.59 1.41796 -1.43164 0
M  V30 2480 O 238.646 2.18596 -1.26381 0
M  V30 2481 C 239.959 -0.574991 -2.95151 0
M  V30 2482 C 241.507 -0.533867 -3.08413 0
M  V30 2483 C 241.982 -1.01469 -4.46618 0
M  V30 2484 N 243.473 -0.971939 -4.52888 0
M  V30 2485 C 244.208 -1.31505 -5.58116 0
M  V30 2486 N 243.704 -1.73014 -6.70849 0
M  V30 2487 N 245.497 -1.23436 -5.48379 0
M  V30 2488 H 237.648 -1.38836 -1.60743 0
M  V30 2489 H 239.911 -0.570998 -0.756747 0
M  V30 2490 H 239.617 -1.61597 -3.12377 0
M  V30 2491 H 239.491 0.00979777 -3.77199 0
M  V30 2492 H 241.878 0.498086 -2.90866 0
M  V30 2493 H 241.959 -1.15484 -2.28248 0
M  V30 2494 H 241.603 -2.04502 -4.6491 0
M  V30 2495 H 241.533 -0.370433 -5.25295 0
M  V30 2496 H 244.024 -0.666893 -3.71969 0
M  V30 2497 H 244.337 -1.97479 -7.47143 0
M  V30 2498 H 242.682 -1.76926 -6.72103 0
M  V30 2499 H 245.873 -0.908869 -4.59192 0
M  V30 2500 H 246.046 -1.50506 -6.30279 0
M  V30 2501 N 239.452 1.56882 -0.150215 0
M  V30 2502 C 240.7 1.9584 0.499105 0
M  V30 2503 C 241.021 1.03623 1.65188 0
M  V30 2504 O 240.291 0.0984084 1.95653 0
M  V30 2505 H 238.871 0.723119 0.187373 0
M  V30 2506 H 241.533 1.9358 -0.226466 0
M  V30 2507 H 240.629 2.99638 0.873122 0
M  V30 2508 N 240.93 -0.123565 1.57115 0
M  V30 2509 C 241.86 -1.15309 2.03042 0
M  V30 2510 C 242.841 -1.43454 0.914061 0
M  V30 2511 O 244.026 -1.53973 1.18347 0
M  V30 2512 C 241.156 -2.48043 2.43089 0
M  V30 2513 C 240.11 -2.3437 3.58127 0
M  V30 2514 C 239.436 -3.72026 3.84059 0
M  V30 2515 C 240.736 -1.80804 4.90007 0
M  V30 2516 H 242.43 -0.771102 2.893 0
M  V30 2517 H 239.976 -0.369479 1.39179 0
M  V30 2518 H 241.929 -3.20311 2.73823 0
M  V30 2519 H 240.653 -2.88122 1.53796 0
M  V30 2520 H 239.312 -1.64551 3.27595 0
M  V30 2521 H 238.96 -4.09582 2.91979 0
M  V30 2522 H 238.66 -3.63732 4.6149 0
M  V30 2523 H 240.184 -4.45806 4.1724 0
M  V30 2524 H 241.598 -2.42886 5.19307 0
M  V30 2525 H 239.995 -1.83343 5.71407 0
M  V30 2526 H 241.065 -0.76528 4.78823 0
M  V30 2527 N 242.408 -1.52605 -0.393616 0
M  V30 2528 C 243.819 -1.59417 -0.971761 0
M  V30 2529 C 244.17 -0.444173 -1.91106 0
M  V30 2530 O 243.295 0.433382 -2.12016 0
M  V30 2531 C 243.89 -2.88936 -1.76921 0
M  V30 2532 C 242.449 -2.98175 -2.29714 0
M  V30 2533 C 241.596 -2.54491 -1.10135 0
M  V30 2534 H 244.547 -1.57751 -0.173317 0
M  V30 2535 H 244.568 -2.75163 -2.62804 0
M  V30 2536 H 244.08 -3.72616 -1.08532 0
M  V30 2537 H 242.181 -2.19024 -3.01429 0
M  V30 2538 H 242.294 -4.02726 -2.59517 0
M  V30 2539 H 240.658 -2.08702 -1.45999 0
M  V30 2540 H 241.441 -3.4056 -0.432874 0
M  V30 2541 N 243.887 0.651787 -1.4349 0
M  V30 2542 C 244.817 1.77621 -1.51569 0
M  V30 2543 C 245.798 1.66022 -0.370253 0
M  V30 2544 O 246.983 1.85095 -0.587658 0
M  V30 2545 C 244.113 3.16056 -1.43966 0
M  V30 2546 C 243.067 3.4242 -2.56774 0
M  V30 2547 C 242.393 4.8067 -2.34223 0
M  V30 2548 C 243.693 3.37023 -3.99015 0
M  V30 2549 H 245.387 1.71117 -2.45681 0
M  V30 2550 H 242.933 0.821825 -1.18246 0
M  V30 2551 H 244.886 3.94472 -1.48221 0
M  V30 2552 H 243.61 3.23293 -0.463586 0
M  V30 2553 H 242.269 2.66375 -2.51873 0
M  V30 2554 H 241.917 4.84585 -1.34856 0
M  V30 2555 H 241.617 4.9927 -3.09844 0
M  V30 2556 H 243.141 5.61342 -2.40265 0
M  V30 2557 H 244.555 4.05374 -4.05395 0
M  V30 2558 H 242.952 3.67159 -4.74673 0
M  V30 2559 H 244.022 2.3518 -4.2405 0
M  V30 2560 N 245.365 1.30045 0.890287 0
M  V30 2561 C 246.776 1.16738 1.45702 0
M  V30 2562 C 247.127 -0.233939 1.948 0
M  V30 2563 O 246.252 -1.13021 1.84541 0
M  V30 2564 C 246.847 2.11313 2.64825 0
M  V30 2565 C 245.406 2.02001 3.17604 0
M  V30 2566 C 244.553 2.01699 1.90296 0
M  V30 2567 H 247.504 1.42392 0.700726 0
M  V30 2568 H 247.525 1.69086 3.40867 0
M  V30 2569 H 247.037 3.13294 2.2906 0
M  V30 2570 H 245.138 1.03142 3.5804 0
M  V30 2571 H 245.251 2.90128 3.81264 0
M  V30 2572 H 243.615 1.46427 2.08402 0
M  V30 2573 H 244.398 3.05402 1.56795 0
M  V30 2574 N 246.843 -1.10192 1.12674 0
M  V30 2575 C 248.091 -1.81845 0.881861 0
M  V30 2576 C 248.412 -1.85737 -0.593867 0
M  V30 2577 O 247.682 -1.33724 -1.4316 0
M  V30 2578 H 246.262 -0.673432 0.323261 0
M  V30 2579 H 248.924 -1.33316 1.42172 0
M  V30 2580 H 248.02 -2.85288 1.2656 0
M  V30 2581 N 248.321 -0.919034 -1.28029 0
M  V30 2582 C 249.598 -0.473668 -1.89778 0
M  V30 2583 C 249.978 1.04783 -1.83259 0
M  V30 2584 O 249.326 1.8982 -1.27202 0
M  V30 2585 C 249.536 -1.00998 -3.34066 0
M  V30 2586 C 250.884 -1.06525 -4.1102 0
M  V30 2587 O 251.908 -0.958996 -3.43048 0
M  V30 2588 O 250.767 -1.22776 -5.3253 0
M  V30 2589 H 247.861 -0.15098 -0.813101 0
M  V30 2590 H 250.407 -1.01016 -1.36359 0
M  V30 2591 H 249.179 -2.05392 -3.33061 0
M  V30 2592 H 248.802 -0.454626 -3.94992 0
M  V30 2593 N 249.799 1.42003 -0.683588 0
M  V30 2594 C 251.047 2.01015 -0.209101 0
M  V30 2595 C 251.368 1.54365 1.19149 0
M  V30 2596 O 250.638 0.769083 1.80172 0
M  V30 2597 H 249.218 0.743294 -0.074315 0
M  V30 2598 H 251.88 1.73798 -0.882066 0
M  V30 2599 H 250.976 3.11343 -0.2172 0
M  V30 2600 N 251.277 0.427512 1.51691 0
M  V30 2601 C 252.187 -0.39527 2.31246 0
M  V30 2602 C 253.203 -1.03674 1.39742 0
M  V30 2603 O 254.379 -1.03425 1.72816 0
M  V30 2604 C 251.444 -1.48706 3.13189 0
M  V30 2605 C 250.505 -0.866743 4.20459 0
M  V30 2606 C 249.738 -1.90651 4.98486 0
M  V30 2607 O 249.961 -3.12733 4.77026 0
M  V30 2608 O 248.895 -1.5025 5.82845 0
M  V30 2609 H 252.721 0.253918 3.02637 0
M  V30 2610 H 250.306 0.190274 1.48183 0
M  V30 2611 H 252.188 -2.12047 3.64162 0
M  V30 2612 H 250.863 -2.12051 2.44573 0
M  V30 2613 H 249.77 -0.195544 3.73589 0
M  V30 2614 H 251.103 -0.276934 4.9142 0
M  V30 2615 N 252.755 -1.56801 0.158532 0
M  V30 2616 C 254.004 -1.95665 -0.489702 0
M  V30 2617 C 254.317 -1.04654 -1.65248 0
M  V30 2618 O 255.523 -1.33146 -2.3661 0
M  V30 2619 C 253.979 -3.47874 -0.922582 0
M  V30 2620 C 253.587 -4.47489 0.213893 0
M  V30 2621 C 255.331 -3.95583 -1.53996 0
M  V30 2622 C 253.238 -5.90921 -0.237903 0
M  V30 2623 H 252.168 -0.730516 -0.186716 0
M  V30 2624 H 254.819 -1.81861 0.244722 0
M  V30 2625 H 253.201 -3.57051 -1.71261 0
M  V30 2626 H 254.375 -4.50017 0.991036 0
M  V30 2627 H 252.69 -4.09764 0.740407 0
M  V30 2628 H 255.287 -5.0019 -1.8898 0
M  V30 2629 H 255.63 -3.37789 -2.43319 0
M  V30 2630 H 256.163 -3.8937 -0.814611 0
M  V30 2631 H 252.902 -6.52559 0.620236 0
M  V30 2632 H 252.422 -5.91729 -0.980676 0
M  V30 2633 H 254.101 -6.43352 -0.686067 0
M  V30 2634 N 254.233 0.115231 -1.57178 0
M  V30 2635 C 255.461 0.836437 -1.89239 0
M  V30 2636 C 255.876 1.73256 -0.750175 0
M  V30 2637 O 255.233 1.80357 0.278832 0
M  V30 2638 C 255.284 1.66671 -3.20785 0
M  V30 2639 O 255.005 0.806652 -4.3061 0
M  V30 2640 C 256.506 2.49274 -3.66575 0
M  V30 2641 H 253.726 0.240253 -0.626514 0
M  V30 2642 H 256.27 0.0984932 -2.04263 0
M  V30 2643 H 254.425 2.35737 -3.0742 0
M  V30 2644 H 254.839 1.37969 -5.06028 0
M  V30 2645 H 256.313 3.03055 -4.6137 0
M  V30 2646 H 256.79 3.26807 -2.93417 0
M  V30 2647 H 257.396 1.85443 -3.82741 0
M  V30 2648 N 255.711 1.52812 0.385517 0
M  V30 2649 C 257.122 1.5993 0.963293 0
M  V30 2650 C 257.473 0.454302 1.90868 0
M  V30 2651 O 256.598 -0.422132 2.12243 0
M  V30 2652 C 257.193 2.89871 1.75387 0
M  V30 2653 C 255.752 2.99389 2.28129 0
M  V30 2654 C 254.899 2.55071 1.08783 0
M  V30 2655 H 257.85 1.5784 0.164948 0
M  V30 2656 H 257.871 2.76553 2.61341 0
M  V30 2657 H 257.383 3.73186 1.06554 0
M  V30 2658 H 255.484 2.20619 3.00263 0
M  V30 2659 H 255.597 4.04096 2.57377 0
M  V30 2660 H 253.961 2.09473 1.4489 0
M  V30 2661 H 254.744 3.40785 0.414807 0
M  V30 2662 N 257.189 -0.644168 1.43834 0
M  V30 2663 C 258.466 -1.40188 1.36406 0
M  V30 2664 C 258.846 -2.11094 0.0163124 0
M  V30 2665 O 258.194 -2.05426 -1.00062 0
M  V30 2666 C 258.404 -2.3791 2.55343 0
M  V30 2667 C 259.752 -3.01637 2.98832 0
M  V30 2668 O 260.776 -2.48237 2.55455 0
M  V30 2669 O 259.635 -3.98477 3.74003 0
M  V30 2670 H 256.729 -0.626773 0.539523 0
M  V30 2671 H 259.275 -0.670317 1.559 0
M  V30 2672 H 258.047 -1.84525 3.4506 0
M  V30 2673 H 257.67 -3.18503 2.37995 0
M  V30 2674 N 258.668 -1.30515 -0.883378 0
M  V30 2675 C 259.598 -1.19607 -2.00541 0
M  V30 2676 C 260.579 -0.086346 -1.69881 0
M  V30 2677 O 261.764 -0.268654 -1.92333 0
M  V30 2678 C 258.894 -0.888758 -3.35736 0
M  V30 2679 C 257.848 -1.95659 -3.8066 0
M  V30 2680 C 257.174 -1.50224 -5.13164 0
M  V30 2681 C 258.474 -3.36788 -3.99213 0
M  V30 2682 H 260.168 -2.13476 -2.09925 0
M  V30 2683 H 257.714 -1.02775 -1.00863 0
M  V30 2684 H 259.667 -0.799094 -4.13754 0
M  V30 2685 H 258.391 0.0856125 -3.26488 0
M  V30 2686 H 257.05 -2.03591 -3.04871 0
M  V30 2687 H 256.698 -0.516092 -5.00345 0
M  V30 2688 H 256.398 -2.2165 -5.44192 0
M  V30 2689 H 257.922 -1.42639 -5.93706 0
M  V30 2690 H 259.336 -3.31605 -4.67665 0
M  V30 2691 H 257.733 -4.06314 -4.41621 0
M  V30 2692 H 258.803 -3.78561 -3.03017 0
M  V30 2693 N 260.146 1.09593 -1.13257 0
M  V30 2694 C 261.076 2.18214 -0.830946 0
M  V30 2695 C 262.057 1.68812 0.208966 0
M  V30 2696 O 263.242 1.9408 0.0682666 0
M  V30 2697 C 260.372 3.46051 -0.294296 0
M  V30 2698 C 259.326 4.08778 -1.26826 0
M  V30 2699 C 258.652 5.31419 -0.591449 0
M  V30 2700 C 259.952 4.51476 -2.62615 0
M  V30 2701 H 261.646 2.43703 -1.73923 0
M  V30 2702 H 259.192 1.17128 -0.837675 0
M  V30 2703 H 261.145 4.2134 -0.0709606 0
M  V30 2704 H 259.869 3.20079 0.649366 0
M  V30 2705 H 258.528 3.35505 -1.47756 0
M  V30 2706 H 258.176 5.01727 0.357633 0
M  V30 2707 H 257.876 5.74341 -1.24123 0
M  V30 2708 H 259.4 6.09433 -0.377355 0
M  V30 2709 H 260.814 5.17999 -2.45663 0
M  V30 2710 H 259.211 5.05277 -3.23752 0
M  V30 2711 H 260.281 3.63962 -3.20406 0
M  V30 2712 N 261.624 0.925811 1.2754 0
M  V30 2713 C 263.035 0.610102 1.7645 0
M  V30 2714 C 263.386 -0.874723 1.75622 0
M  V30 2715 O 262.511 -1.68444 1.35851 0
M  V30 2716 C 263.106 1.10073 3.20421 0
M  V30 2717 C 261.665 0.835723 3.67005 0
M  V30 2718 C 260.812 1.26054 2.46993 0
M  V30 2719 H 263.763 1.10579 1.13833 0
M  V30 2720 H 263.784 0.447557 3.77859 0
M  V30 2721 H 263.296 2.18143 3.20991 0
M  V30 2722 H 261.397 -0.231249 3.71882 0
M  V30 2723 H 261.51 1.45193 4.56569 0
M  V30 2724 H 259.874 0.679111 2.45479 0
M  V30 2725 H 260.657 2.34984 2.50275 0
M  V30 2726 N 263.102 -1.41638 0.69111 0
M  V30 2727 C 264.518 -1.55435 0.362224 0
M  V30 2728 C 264.718 -1.66754 -1.13117 0
M  V30 2729 O 263.774 -1.64348 -1.91692 0
M  V30 2730 C 265.087 -2.79588 1.10684 0
M  V30 2731 C 266.635 -2.9338 1.09075 0
M  V30 2732 C 267.11 -4.20414 1.81703 0
M  V30 2733 N 268.601 -4.27362 1.7865 0
M  V30 2734 C 269.336 -5.24507 2.31689 0
M  V30 2735 N 268.832 -6.27708 2.93179 0
M  V30 2736 N 270.625 -5.16416 2.2197 0
M  V30 2737 H 262.776 -1.32536 1.65976 0
M  V30 2738 H 265.039 -0.639115 0.700168 0
M  V30 2739 H 264.745 -2.77419 2.16175 0
M  V30 2740 H 264.619 -3.70973 0.682545 0
M  V30 2741 H 267.006 -2.95067 0.0441238 0
M  V30 2742 H 267.087 -2.0318 1.55407 0
M  V30 2743 H 266.731 -4.19488 2.86343 0
M  V30 2744 H 266.661 -5.09578 1.32808 0
M  V30 2745 H 269.152 -3.53415 1.33815 0
M  V30 2746 H 269.465 -6.98217 3.31229 0
M  V30 2747 H 267.81 -6.28223 2.97255 0
M  V30 2748 H 271.001 -4.34716 1.73607 0
M  V30 2749 H 271.174 -5.91958 2.63609 0
M  V30 2750 N 264.58 -0.43555 -1.51462 0
M  V30 2751 C 265.991 0.0279871 -1.86679 0
M  V30 2752 C 266.342 1.42104 -1.35281 0
M  V30 2753 O 265.467 2.04667 -0.702878 0
M  V30 2754 C 266.062 0.0575626 -3.38751 0
M  V30 2755 C 264.621 0.465507 -3.7351 0
M  V30 2756 C 263.768 -0.342996 -2.75171 0
M  V30 2757 H 266.719 -0.651473 -1.44712 0
M  V30 2758 H 266.74 0.867421 -3.70481 0
M  V30 2759 H 266.252 -0.956448 -3.7613 0
M  V30 2760 H 264.353 1.48519 -3.41721 0
M  V30 2761 H 264.466 0.191546 -4.78717 0
M  V30 2762 H 262.83 0.198442 -2.53926 0
M  V30 2763 H 263.613 -1.35585 -3.15391 0
M  V30 2764 N 266.058 1.56714 -0.166846 0
M  V30 2765 C 267.469 1.83378 0.350646 0
M  V30 2766 C 267.82 1.08646 1.63372 0
M  V30 2767 O 266.945 0.338058 2.13743 0
M  V30 2768 C 267.54 3.32643 0.642963 0
M  V30 2769 C 266.099 3.59818 1.10491 0
M  V30 2770 C 265.246 2.76954 0.138411 0
M  V30 2771 H 268.197 1.53803 -0.391193 0
M  V30 2772 H 268.218 3.49878 1.49551 0
M  V30 2773 H 267.73 3.87007 -0.291055 0
M  V30 2774 H 265.831 3.1086 2.05418 0
M  V30 2775 H 265.944 4.68178 1.01716 0
M  V30 2776 H 264.308 2.4666 0.634911 0
M  V30 2777 H 265.091 3.34097 -0.789549 0
M  V30 2778 N 267.536 -0.106894 1.57237 0
M  V30 2779 C 268.952 -0.46078 1.52804 0
M  V30 2780 C 269.152 -1.81184 0.881746 0
M  V30 2781 O 268.208 -2.48102 0.469224 0
M  V30 2782 C 269.521 -0.434127 2.9755 0
M  V30 2783 C 271.069 -0.516821 3.08704 0
M  V30 2784 C 271.544 -0.520436 4.55033 0
M  V30 2785 N 273.035 -0.58153 4.59535 0
M  V30 2786 C 273.77 -0.605973 5.70189 0
M  V30 2787 N 273.266 -0.587331 6.90306 0
M  V30 2788 N 275.059 -0.649895 5.5833 0
M  V30 2789 H 267.21 0.778203 1.9763 0
M  V30 2790 H 269.473 0.288403 0.903066 0
M  V30 2791 H 269.179 0.491197 3.48253 0
M  V30 2792 H 269.053 -1.25748 3.55622 0
M  V30 2793 H 271.44 -1.43256 2.57995 0
M  V30 2794 H 271.521 0.334449 2.53604 0
M  V30 2795 H 271.165 0.391313 5.0639 0
M  V30 2796 H 271.095 -1.38876 5.07958 0
M  V30 2797 H 273.586 -0.60161 3.73081 0
M  V30 2798 H 273.899 -0.60894 7.70397 0
M  V30 2799 H 272.244 -0.554564 6.92784 0
M  V30 2800 H 275.435 -0.661907 4.63397 0
M  V30 2801 H 275.608 -0.665476 6.44574 0
M  V30 2802 N 269.014 -1.53014 -0.377408 0
M  V30 2803 C 269.944 -1.81589 -1.46791 0
M  V30 2804 C 270.925 -0.668622 -1.56408 0
M  V30 2805 O 272.11 -0.917337 -1.71168 0
M  V30 2806 C 269.24 -1.99519 -2.8427 0
M  V30 2807 C 268.194 -3.15249 -2.89486 0
M  V30 2808 C 267.52 -3.18451 -4.29527 0
M  V30 2809 C 268.82 -4.54084 -2.58079 0
M  V30 2810 H 270.514 -2.7291 -1.23127 0
M  V30 2811 H 268.06 -1.31319 -0.590883 0
M  V30 2812 H 270.013 -2.18092 -3.60575 0
M  V30 2813 H 268.737 -1.04897 -3.09296 0
M  V30 2814 H 267.396 -2.96477 -2.15631 0
M  V30 2815 H 267.044 -2.2149 -4.5161 0
M  V30 2816 H 266.744 -3.962 -4.33934 0
M  V30 2817 H 268.268 -3.39193 -5.07721 0
M  V30 2818 H 269.682 -4.72899 -3.24098 0
M  V30 2819 H 268.079 -5.33987 -2.7382 0
M  V30 2820 H 269.149 -4.60006 -1.53372 0
M  V30 2821 N 270.492 0.636531 -1.44174 0
M  V30 2822 C 271.422 1.76003 -1.53444 0
M  V30 2823 C 272.403 1.65619 -0.387841 0
M  V30 2824 O 273.588 1.84461 -0.607257 0
M  V30 2825 C 270.718 3.14511 -1.4731 0
M  V30 2826 C 269.672 3.39677 -2.60391 0
M  V30 2827 C 268.998 4.78159 -2.39308 0
M  V30 2828 C 270.298 3.32772 -4.02567 0
M  V30 2829 H 271.992 1.68501 -2.47483 0
M  V30 2830 H 269.538 0.809237 -1.19111 0
M  V30 2831 H 271.491 3.92878 -1.52397 0
M  V30 2832 H 270.215 3.22783 -0.49785 0
M  V30 2833 H 268.874 2.63688 -2.54684 0
M  V30 2834 H 268.522 4.83128 -1.39988 0
M  V30 2835 H 268.222 4.95956 -3.15122 0
M  V30 2836 H 269.746 5.58762 -2.46205 0
M  V30 2837 H 271.16 4.01051 -4.09672 0
M  V30 2838 H 269.557 3.62104 -4.7854 0
M  V30 2839 H 270.627 2.30669 -4.2652 0
M  V30 2840 N 271.97 1.30982 0.876444 0
M  V30 2841 C 272.9 1.20668 1.99903 0
M  V30 2842 C 273.881 0.095354 1.69833 0
M  V30 2843 O 275.066 0.27885 1.92188 0
M  V30 2844 C 272.196 0.90655 3.3526 0
M  V30 2845 C 271.15 1.97675 3.79617 0
M  V30 2846 C 270.476 1.52943 5.1236 0
M  V30 2847 C 271.776 3.389 3.97422 0
M  V30 2848 H 273.47 2.14586 2.0879 0
M  V30 2849 H 271.016 1.03308 1.00317 0
M  V30 2850 H 272.969 0.821025 4.13324 0
M  V30 2851 H 271.693 -0.0682969 3.26529 0
M  V30 2852 H 270.352 2.05205 3.03787 0
M  V30 2853 H 270 0.54262 5.00065 0
M  V30 2854 H 269.7 2.24532 5.43009 0
M  V30 2855 H 271.224 1.45786 5.92941 0
M  V30 2856 H 272.638 3.34081 4.659 0
M  V30 2857 H 271.035 4.0865 4.3946 0
M  V30 2858 H 272.105 3.80163 3.01006 0
M  V30 2859 N 273.449 -1.08991 1.13837 0
M  V30 2860 C 274.379 -2.17771 0.842507 0
M  V30 2861 C 275.36 -1.6892 -0.20001 0
M  V30 2862 O 276.545 -1.94113 -0.0579731 0
M  V30 2863 C 273.675 -3.4589 0.312644 0
M  V30 2864 C 272.629 -4.08099 1.28992 0
M  V30 2865 C 271.955 -5.31098 0.619623 0
M  V30 2866 C 273.255 -4.50077 2.65005 0
M  V30 2867 H 274.949 -2.42777 1.75213 0
M  V30 2868 H 272.495 -1.16682 0.843875 0
M  V30 2869 H 274.448 -4.21297 0.0933043 0
M  V30 2870 H 273.172 -3.20419 -0.632382 0
M  V30 2871 H 271.831 -3.34717 1.49533 0
M  V30 2872 H 271.479 -5.0191 -0.33102 0
M  V30 2873 H 271.179 -5.73674 1.27167 0
M  V30 2874 H 272.703 -6.09224 0.409669 0
M  V30 2875 H 274.117 -5.16688 2.48407 0
M  V30 2876 H 272.514 -5.03553 3.26427 0
M  V30 2877 H 273.584 -3.62257 3.22332 0
M  V30 2878 N 274.927 -0.932562 -1.27047 0
M  V30 2879 C 276.173 -0.576412 -1.94436 0
M  V30 2880 C 276.506 0.880891 -1.73072 0
M  V30 2881 O 275.781 1.62905 -1.06264 0
M  V30 2882 C 276.064 -0.909031 -3.48437 0
M  V30 2883 C 275.917 -2.42044 -3.79123 0
M  V30 2884 C 277.236 -0.418341 -4.38107 0
M  V30 2885 H 274.355 -0.210888 -0.706184 0
M  V30 2886 H 276.997 -1.16522 -1.50075 0
M  V30 2887 H 275.147 -0.407947 -3.86352 0
M  V30 2888 H 276.819 -2.99359 -3.50973 0
M  V30 2889 H 275.062 -2.86758 -3.25503 0
M  V30 2890 H 275.733 -2.6037 -4.86736 0
M  V30 2891 H 278.209 -0.847856 -4.0737 0
M  V30 2892 H 277.085 -0.679981 -5.44672 0
M  V30 2893 H 277.346 0.681642 -4.36814 0
M  V30 2894 N 276.405 1.4127 -0.698611 0
M  V30 2895 C 277.353 2.32588 -0.023855 0
M  V30 2896 C 278.347 1.51128 0.765292 0
M  V30 2897 O 279.553 1.67043 0.670571 0
M  V30 2898 H 275.928 0.751918 0.0110871 0
M  V30 2899 H 277.899 2.87167 -0.811031 0
M  V30 2900 C 276.648 3.35947 0.896369 0
M  V30 2901 H 275.971 3.98684 0.298548 0
M  V30 2902 H 277.411 4.02376 1.33676 0
M  V30 2903 C 275.87 2.70076 2.01396 0
M  V30 2904 O 276.4 2.55093 3.10307 0
M  V30 2905 N 274.606 2.28724 1.79259 0
M  V30 2906 H 274.153 2.4111 0.906841 0
M  V30 2907 H 274.111 1.84986 2.54219 0
M  V30 2908 N 277.883 0.443576 1.51229 0
M  V30 2909 C 279.294 -0.0180867 1.86691 0
M  V30 2910 C 279.645 -1.41384 1.36033 0
M  V30 2911 O 278.77 -2.04291 0.713722 0
M  V30 2912 C 279.365 -0.039597 3.38777 0
M  V30 2913 C 277.924 -0.445692 3.73752 0
M  V30 2914 C 277.071 0.357584 2.74985 0
M  V30 2915 H 280.022 0.659138 1.44364 0
M  V30 2916 H 280.043 -0.847761 3.70936 0
M  V30 2917 H 279.555 0.976382 3.75617 0
M  V30 2918 H 277.656 -1.46704 3.42503 0
M  V30 2919 H 277.769 -0.166155 4.78812 0
M  V30 2920 H 276.133 -0.184973 2.54027 0
M  V30 2921 H 276.916 1.37256 3.14668 0
M  V30 2922 N 279.361 -1.56624 0.175154 0
M  V30 2923 C 280.608 -1.96999 -0.468811 0
M  V30 2924 C 280.936 -1.06129 -1.62994 0
M  V30 2925 O 280.191 -0.0961771 -1.95464 0
M  V30 2926 C 280.49 -3.43419 -0.989864 0
M  V30 2927 C 280.156 -4.50866 0.0557687 0
M  V30 2928 C 278.818 -4.79975 0.343134 0
M  V30 2929 C 281.17 -5.15551 0.765308 0
M  V30 2930 C 278.498 -5.71066 1.34536 0
M  V30 2931 C 280.85 -6.07724 1.75654 0
M  V30 2932 C 279.514 -6.35199 2.05132 0
M  V30 2933 H 278.784 -0.720869 -0.17155 0
M  V30 2934 H 281.431 -1.89616 0.267924 0
M  V30 2935 H 279.736 -3.47772 -1.80449 0
M  V30 2936 H 281.433 -3.72002 -1.49719 0
M  V30 2937 H 278.023 -4.28229 -0.178381 0
M  V30 2938 H 282.207 -4.9317 0.556513 0
M  V30 2939 H 277.463 -5.90635 1.57988 0
M  V30 2940 H 281.637 -6.56912 2.31169 0
M  V30 2941 H 279.264 -7.05584 2.8294 0
M  V30 2942 N 280.839 0.0985539 -1.57292 0
M  V30 2943 C 282.087 0.801092 -1.85545 0
M  V30 2944 C 282.408 1.79438 -0.763353 0
M  V30 2945 O 281.678 1.94763 0.21073 0
M  V30 2946 H 280.258 0.29884 -0.684619 0
M  V30 2947 H 282.92 0.0810064 -1.94732 0
M  V30 2948 H 282.016 1.3338 -2.82163 0
M  V30 2949 N 282.317 1.53212 0.369288 0
M  V30 2950 C 283.565 1.68881 1.11012 0
M  V30 2951 C 283.886 0.441285 1.89941 0
M  V30 2952 O 283.156 -0.544623 1.88177 0
M  V30 2953 H 281.736 0.622569 0.412816 0
M  V30 2954 H 284.398 1.90391 0.416802 0
M  V30 2955 H 283.494 2.54822 1.80201 0
M  V30 2956 N 283.795 -0.628877 1.44509 0
M  V30 2957 C 285.211 -0.947305 1.28446 0
M  V30 2958 C 285.411 -2.00275 0.221872 0
M  V30 2959 O 284.467 -2.49447 -0.391471 0
M  V30 2960 C 285.78 -1.40843 2.65676 0
M  V30 2961 C 287.328 -1.52379 2.73404 0
M  V30 2962 C 287.803 -2.01875 4.11109 0
M  V30 2963 N 289.294 -2.09142 4.13296 0
M  V30 2964 C 290.029 -2.48615 5.16699 0
M  V30 2965 N 289.525 -2.87209 6.30462 0
M  V30 2966 N 291.318 -2.48768 5.04054 0
M  V30 2967 H 283.469 0.0690977 2.12288 0
M  V30 2968 H 285.732 -0.0317164 0.947469 0
M  V30 2969 H 285.438 -0.707206 3.44516 0
M  V30 2970 H 285.312 -2.37902 2.92716 0
M  V30 2971 H 287.699 -2.21598 1.9488 0
M  V30 2972 H 287.78 -0.536898 2.50102 0
M  V30 2973 H 287.424 -1.3325 4.90109 0
M  V30 2974 H 287.354 -3.0144 4.31789 0
M  V30 2975 H 289.845 -1.81991 3.31191 0
M  V30 2976 H 290.158 -3.16149 7.05174 0
M  V30 2977 H 288.503 -2.84955 6.33897 0
M  V30 2978 H 291.694 -2.18009 4.14234 0
M  V30 2979 H 291.867 -2.79207 5.84763 0
M  V30 2980 N 285.273 -1.31445 -0.869486 0
M  V30 2981 C 286.521 -1.20918 -1.61936 0
M  V30 2982 C 286.842 0.232683 -1.93607 0
M  V30 2983 O 286.112 1.15352 -1.58338 0
M  V30 2984 H 284.692 -0.44454 -0.600328 0
M  V30 2985 H 287.354 -1.64776 -1.0409 0
M  V30 2986 H 286.45 -1.78124 -2.56278 0
M  V30 2987 N 286.751 1.08385 -1.14413 0
M  V30 2988 C 287.681 2.17321 -0.854044 0
M  V30 2989 C 288.662 1.69024 0.191049 0
M  V30 2990 O 289.847 1.94141 0.0476779 0
M  V30 2991 C 286.977 3.45719 -0.330983 0
M  V30 2992 C 285.931 4.07409 -1.31155 0
M  V30 2993 C 285.257 5.30762 -0.64778 0
M  V30 2994 C 286.557 4.48665 -2.67388 0
M  V30 2995 H 288.251 2.41845 -1.76498 0
M  V30 2996 H 285.797 1.16233 -0.850051 0
M  V30 2997 H 287.75 4.21241 -0.115645 0
M  V30 2998 H 286.474 3.2075 0.615381 0
M  V30 2999 H 285.133 3.33919 -1.51306 0
M  V30 3000 H 284.781 5.02078 0.304398 0
M  V30 3001 H 284.481 5.72992 -1.30207 0
M  V30 3002 H 286.005 6.08998 -0.441972 0
M  V30 3003 H 287.419 5.15364 -2.51143 0
M  V30 3004 H 285.816 5.01814 -3.29093 0
M  V30 3005 H 286.886 3.60543 -3.24248 0
M  V30 3006 N 288.23 0.939286 1.26551 0
M  V30 3007 C 289.193 0.451987 2.24699 0
M  V30 3008 C 290.193 -0.435869 1.5478 0
M  V30 3009 O 291.383 -0.235314 1.72603 0
M  V30 3010 C 288.515 -0.348801 3.39111 0
M  V30 3011 H 289.708 1.3193 2.69322 0
M  V30 3012 H 287.261 0.721072 1.38673 0
M  V30 3013 H 287.996 -1.23444 2.99887 0
M  V30 3014 H 287.781 0.287945 3.91041 0
M  V30 3015 H 289.271 -0.679726 4.12031 0
M  V30 3016 N 289.708 -1.40897 0.706093 0
M  V30 3017 C 290.954 -2.01849 0.250681 0
M  V30 3018 C 291.309 -1.5496 -1.14041 0
M  V30 3019 O 290.602 -0.755566 -1.76073 0
M  V30 3020 C 290.796 -3.5646 0.259099 0
M  V30 3021 C 290.625 -4.18357 1.64947 0
M  V30 3022 C 289.395 -4.522 2.25485 0
M  V30 3023 C 291.593 -4.43856 2.598 0
M  V30 3024 N 289.575 -4.9944 3.56977 0
M  V30 3025 C 290.946 -4.92986 3.75985 0
M  V30 3026 C 293.001 -4.25882 2.57933 0
M  V30 3027 C 291.704 -5.2603 4.90597 0
M  V30 3028 C 293.73 -4.6002 3.71665 0
M  V30 3029 C 293.092 -5.09331 4.86581 0
M  V30 3030 H 289.191 -0.769843 0.137353 0
M  V30 3031 H 291.775 -1.71278 0.925845 0
M  V30 3032 H 289.946 -3.86481 -0.385592 0
M  V30 3033 H 291.678 -4.04144 -0.21213 0
M  V30 3034 H 288.433 -4.3901 1.77671 0
M  V30 3035 H 288.857 -5.27454 4.24407 0
M  V30 3036 H 293.499 -3.86986 1.70298 0
M  V30 3037 H 291.217 -5.63843 5.78884 0
M  V30 3038 H 294.803 -4.47762 3.71484 0
M  V30 3039 H 293.683 -5.35251 5.73129 0
M  V30 3040 N 291.186 -0.45159 -1.50991 0
M  V30 3041 C 292.118 0.388634 -2.25881 0
M  V30 3042 C 293.131 0.974041 -1.30446 0
M  V30 3043 O 294.32 0.865758 -1.56099 0
M  V30 3044 C 291.42 1.5571 -3.01011 0
M  V30 3045 C 290.593 1.08801 -4.23652 0
M  V30 3046 C 289.652 2.12825 -4.8124 0
M  V30 3047 O 288.678 1.71678 -5.42693 0
M  V30 3048 N 289.88 3.45453 -4.66522 0
M  V30 3049 H 292.645 -0.25329 -2.98628 0
M  V30 3050 H 290.206 -0.281268 -1.59438 0
M  V30 3051 H 292.198 2.24952 -3.3642 0
M  V30 3052 H 290.768 2.10409 -2.31186 0
M  V30 3053 H 289.988 0.22215 -3.93574 0
M  V30 3054 H 291.276 0.752213 -5.03209 0
M  V30 3055 H 290.674 3.81605 -4.17605 0
M  V30 3056 H 289.231 4.10549 -5.06254 0
M  V30 3057 N 292.664 1.56529 -0.183458 0
M  V30 3058 C 293.91 1.98304 0.452466 0
M  V30 3059 C 294.265 1.06799 1.60037 0
M  V30 3060 O 293.558 0.110049 1.91284 0
M  V30 3061 C 293.752 3.43939 0.971637 0
M  V30 3062 C 293.581 4.49528 -0.124425 0
M  V30 3063 C 292.351 5.01981 -0.578168 0
M  V30 3064 C 294.549 5.05836 -0.929207 0
M  V30 3065 N 292.531 5.91219 -1.65327 0
M  V30 3066 C 293.902 5.91632 -1.85396 0
M  V30 3067 C 295.957 4.88302 -0.972929 0
M  V30 3068 C 294.66 6.61768 -2.81878 0
M  V30 3069 C 296.686 5.59168 -1.92574 0
M  V30 3070 C 296.048 6.44701 -2.83795 0
M  V30 3071 H 292.147 0.770551 0.133324 0
M  V30 3072 H 294.731 1.92581 -0.286473 0
M  V30 3073 H 292.902 3.50184 1.68006 0
M  V30 3074 H 294.634 3.72702 1.5772 0
M  V30 3075 H 291.389 4.73282 -0.173639 0
M  V30 3076 H 291.813 6.40543 -2.19167 0
M  V30 3077 H 296.455 4.21861 -0.28168 0
M  V30 3078 H 294.173 7.27415 -3.51984 0
M  V30 3079 H 297.759 5.47582 -1.96583 0
M  V30 3080 H 296.639 6.98573 -3.56322 0
M  V30 3081 N 294.142 -0.090211 1.57342 0
M  V30 3082 C 295.382 -0.798365 1.88163 0
M  V30 3083 C 295.746 -1.75662 0.775046 0
M  V30 3084 O 296.947 -2.50849 0.965816 0
M  V30 3085 C 295.218 -1.50376 3.24225 0
M  V30 3086 S 296.777 -2.24952 3.76752 0
M  V30 3087 H 293.595 -0.265883 0.659414 0
M  V30 3088 H 296.197 -0.055264 1.95422 0
M  V30 3089 H 294.901 -0.792286 4.0268 0
M  V30 3090 H 294.432 -2.28666 3.20118 0
M  V30 3091 H 296.447 -3.51173 3.5056 0
M  V30 3092 N 295.62 -1.53406 -0.361157 0
M  V30 3093 C 296.567 -1.80156 -1.44265 0
M  V30 3094 C 297.537 -0.646183 -1.53015 0
M  V30 3095 O 298.722 -0.888818 -1.68833 0
M  V30 3096 C 295.862 -2.00116 -2.81154 0
M  V30 3097 C 294.975 -3.27833 -2.81335 0
M  V30 3098 C 294.11 -3.37957 -4.09828 0
M  V30 3099 C 293.149 -4.59689 -4.04168 0
M  V30 3100 N 292.286 -4.66942 -5.24318 0
M  V30 3101 H 297.126 -2.72438 -1.20754 0
M  V30 3102 H 294.663 -1.34954 -0.585296 0
M  V30 3103 H 296.621 -2.09677 -3.60682 0
M  V30 3104 H 295.251 -1.11167 -3.03054 0
M  V30 3105 H 294.303 -3.27204 -1.94014 0
M  V30 3106 H 295.615 -4.17442 -2.73027 0
M  V30 3107 H 294.769 -3.46853 -4.97773 0
M  V30 3108 H 293.508 -2.46372 -4.20894 0
M  V30 3109 H 292.513 -4.50889 -3.14609 0
M  V30 3110 H 293.738 -5.5262 -3.947 0
M  V30 3111 H 291.684 -3.7826 -5.35962 0
M  V30 3112 H 291.601 -5.50462 -5.18197 0
M  V30 3113 H 292.869 -4.80127 -6.14084 0
M  V30 3114 N 297.098 0.621204 -1.44841 0
M  V30 3115 C 298.046 1.75385 -1.52784 0
M  V30 3116 C 299.04 1.64639 -0.398779 0
M  V30 3117 O 300.246 1.70598 -0.574137 0
M  V30 3118 H 296.621 0.579193 -0.479625 0
M  V30 3119 H 298.592 1.6581 -2.48092 0
M  V30 3120 C 297.341 3.13742 -1.4987 0
M  V30 3121 H 296.664 3.22663 -2.36069 0
M  V30 3122 H 298.104 3.92861 -1.59487 0
M  V30 3123 C 296.563 3.36175 -0.220973 0
M  V30 3124 O 297.093 3.95469 0.704782 0
M  V30 3125 N 295.299 2.90348 -0.120963 0
M  V30 3126 H 294.846 2.42278 -0.875162 0
M  V30 3127 H 294.804 3.05732 0.733168 0
M  V30 3128 N 298.576 1.31904 0.862503 0
M  V30 3129 C 299.526 1.16772 1.95827 0
M  V30 3130 C 300.51 0.0767098 1.60717 0
M  V30 3131 O 301.702 0.302407 1.74398 0
M  V30 3132 C 298.831 0.884858 3.317 0
M  V30 3133 C 297.917 2.0172 3.73055 0
M  V30 3134 N 298.308 3.265 3.86305 0
M  V30 3135 C 296.606 1.91861 4.02623 0
M  V30 3136 C 297.307 4.00616 4.2176 0
M  V30 3137 N 296.283 3.28847 4.32852 0
M  V30 3138 H 300.085 2.11382 2.04193 0
M  V30 3139 H 297.599 1.2357 1.05377 0
M  V30 3140 H 299.596 0.757419 4.09962 0
M  V30 3141 H 298.256 -0.0529448 3.24657 0
M  V30 3142 H 299.267 3.61529 3.70833 0
M  V30 3143 H 295.944 1.05593 4.03926 0
M  V30 3144 H 297.334 5.08182 4.39546 0
M  V30 3145 N 300.054 -1.07777 1.14986 0
M  V30 3146 C 301.3 -1.80557 0.923422 0
M  V30 3147 C 301.633 -1.86298 -0.548337 0
M  V30 3148 O 300.908 -1.34354 -1.40639 0
M  V30 3149 C 301.191 -3.25839 1.53299 0
M  V30 3150 C 301.044 -3.28269 3.07505 0
M  V30 3151 C 302.363 -4.22991 1.21518 0
M  V30 3152 H 299.482 -0.655493 0.336894 0
M  V30 3153 H 302.124 -1.26144 1.42083 0
M  V30 3154 H 300.274 -3.72306 1.10999 0
M  V30 3155 H 301.946 -2.90079 3.58681 0
M  V30 3156 H 300.189 -2.67355 3.4162 0
M  V30 3157 H 300.86 -4.30691 3.45266 0
M  V30 3158 H 303.336 -3.84894 1.581 0
M  V30 3159 H 302.212 -5.22945 1.66793 0
M  V30 3160 H 302.473 -4.41904 0.131505 0
M  V30 3161 N 301.532 -0.945985 -1.26051 0
M  V30 3162 C 302.462 -0.477172 -2.28572 0
M  V30 3163 C 303.443 0.472032 -1.63419 0
M  V30 3164 O 304.628 0.372853 -1.90587 0
M  V30 3165 C 301.758 0.253975 -3.4637 0
M  V30 3166 C 300.712 -0.609135 -4.23643 0
M  V30 3167 C 300.038 0.252252 -5.34105 0
M  V30 3168 C 301.338 -1.8829 -4.8718 0
M  V30 3169 H 303.032 -1.33402 -2.68038 0
M  V30 3170 H 300.578 -0.642904 -1.28852 0
M  V30 3171 H 302.531 0.593016 -4.17207 0
M  V30 3172 H 301.255 1.145 -3.05871 0
M  V30 3173 H 299.914 -0.931138 -3.54578 0
M  V30 3174 H 299.562 1.14278 -4.89846 0
M  V30 3175 H 299.262 -0.32188 -5.86718 0
M  V30 3176 H 300.786 0.586454 -6.07777 0
M  V30 3177 H 302.2 -1.61081 -5.50205 0
M  V30 3178 H 300.597 -2.40199 -5.49931 0
M  V30 3179 H 301.667 -2.59134 -4.09851 0
M  V30 3180 N 303.011 1.40521 -0.713556 0
M  V30 3181 C 304.422 1.83853 -0.324807 0
M  V30 3182 C 304.773 1.59667 1.14021 0
M  V30 3183 O 303.898 1.07649 1.87725 0
M  V30 3184 C 304.493 3.33751 -0.582746 0
M  V30 3185 C 303.052 3.75584 -0.247727 0
M  V30 3186 C 302.199 2.63753 -0.856121 0
M  V30 3187 H 305.15 1.29817 -0.91286 0
M  V30 3188 H 305.171 3.80194 0.152682 0
M  V30 3189 H 304.683 3.51322 -1.64908 0
M  V30 3190 H 302.784 3.63608 0.813624 0
M  V30 3191 H 302.897 4.7373 -0.715307 0
M  V30 3192 H 301.261 2.53108 -0.28432 0
M  V30 3193 H 302.044 2.84137 -1.92668 0
M  V30 3194 N 304.489 0.459591 1.5075 0
M  V30 3195 C 305.422 -0.386257 2.24907 0
M  V30 3196 C 306.4 -1.006 1.27744 0
M  V30 3197 O 307.584 -1.04416 1.56938 0
M  V30 3198 C 304.711 -1.54021 3.01654 0
M  V30 3199 C 303.757 -1.03898 4.13651 0
M  V30 3200 S 304.59 0.0370501 5.35487 0
M  V30 3201 C 305.746 -1.12105 6.15779 0
M  V30 3202 H 305.979 0.243272 2.96303 0
M  V30 3203 H 303.512 0.244339 1.52454 0
M  V30 3204 H 305.47 -2.20163 3.46466 0
M  V30 3205 H 304.131 -2.14121 2.29806 0
M  V30 3206 H 303.324 -1.90254 4.66711 0
M  V30 3207 H 302.926 -0.45545 3.71216 0
M  V30 3208 H 305.218 -2.03501 6.46215 0
M  V30 3209 H 306.161 -0.62995 7.05292 0
M  V30 3210 H 306.569 -1.36967 5.47631 0
M  V30 3211 N 305.967 -1.56429 0.191757 0
M  V30 3212 C 307.216 -1.9666 -0.448088 0
M  V30 3213 C 307.529 -1.08136 -1.62991 0
M  V30 3214 O 308.735 -1.38135 -2.33733 0
M  V30 3215 C 307.191 -3.49753 -0.848585 0
M  V30 3216 C 306.799 -4.46935 0.308764 0
M  V30 3217 C 308.543 -3.9876 -1.4557 0
M  V30 3218 C 306.45 -5.91293 -0.112506 0
M  V30 3219 H 305.38 -0.734312 -0.171179 0
M  V30 3220 H 308.031 -1.81301 0.283242 0
M  V30 3221 H 306.413 -3.60604 -1.63649 0
M  V30 3222 H 307.587 -4.47813 1.08627 0
M  V30 3223 H 305.902 -4.08102 0.827158 0
M  V30 3224 H 308.499 -5.04086 -1.78328 0
M  V30 3225 H 308.842 -3.42875 -2.36099 0
M  V30 3226 H 309.375 -3.9101 -0.731836 0
M  V30 3227 H 306.114 -6.51097 0.758514 0
M  V30 3228 H 305.634 -5.93676 -0.854941 0
M  V30 3229 H 307.313 -6.44663 -0.549448 0
M  V30 3230 N 307.445 0.0818655 -1.57387 0
M  V30 3231 C 308.67 0.799946 -1.91352 0
M  V30 3232 C 309.095 1.70833 -0.787258 0
M  V30 3233 O 308.453 1.79419 0.26048 0
M  V30 3234 C 308.501 1.57812 -3.24234 0
M  V30 3235 O 307.605 2.68806 -3.12757 0
M  V30 3236 H 306.946 0.21891 -0.626877 0
M  V30 3237 H 309.476 0.0531256 -2.04531 0
M  V30 3238 H 309.486 1.95952 -3.57864 0
M  V30 3239 H 308.161 0.911548 -4.05788 0
M  V30 3240 H 306.738 2.33597 -2.90666 0
M  V30 3241 N 308.923 1.53595 0.353017 0
M  V30 3242 C 309.833 1.83897 1.45667 0
M  V30 3243 C 310.849 0.728334 1.58023 0
M  V30 3244 O 312.025 1.01968 1.73679 0
M  V30 3245 C 309.09 2.03383 2.80778 0
M  V30 3246 C 308.151 3.27262 2.77845 0
M  V30 3247 C 307.384 3.45809 4.06512 0
M  V30 3248 O 307.607 2.68387 5.03314 0
M  V30 3249 O 306.541 4.39207 4.11559 0
M  V30 3250 H 310.367 2.77686 1.2298 0
M  V30 3251 H 307.952 1.39132 0.544308 0
M  V30 3252 H 309.834 2.17698 3.60812 0
M  V30 3253 H 308.509 1.12783 3.03417 0
M  V30 3254 H 307.416 3.18359 1.96465 0
M  V30 3255 H 308.749 4.17824 2.60161 0
M  V30 3256 N 310.401 -0.613514 1.45168 0
M  V30 3257 C 311.364 -1.7065 1.53007 0
M  V30 3258 C 312.364 -1.5548 0.410184 0
M  V30 3259 O 313.554 -1.60656 0.673455 0
M  V30 3260 C 310.686 -3.09875 1.42093 0
M  V30 3261 H 311.879 -1.65068 2.50385 0
M  V30 3262 H 309.432 -0.828728 1.32521 0
M  V30 3263 H 310.167 -3.21039 0.458769 0
M  V30 3264 H 309.952 -3.22293 2.23315 0
M  V30 3265 H 311.442 -3.895 1.50598 0
M  V30 3266 N 311.879 -1.3236 -0.855495 0
M  V30 3267 C 313.127 -1.22629 -1.60644 0
M  V30 3268 C 313.448 0.212136 -1.93843 0
M  V30 3269 O 312.718 1.13666 -1.59552 0
M  V30 3270 H 311.298 -0.450882 -0.595579 0
M  V30 3271 H 313.96 -1.65871 -1.02337 0
M  V30 3272 H 313.056 -1.80832 -2.54374 0
M  V30 3273 N 313.357 1.07166 -1.15556 0
M  V30 3274 C 314.287 2.16403 -0.877046 0
M  V30 3275 C 315.268 1.69217 0.173111 0
M  V30 3276 O 316.453 1.94181 0.027084 0
M  V30 3277 C 313.583 3.45349 -0.367632 0
M  V30 3278 C 312.537 4.05995 -1.35468 0
M  V30 3279 C 311.863 5.30045 -0.704038 0
M  V30 3280 C 313.163 4.45804 -2.72132 0
M  V30 3281 H 314.857 2.39959 -1.79053 0
M  V30 3282 H 312.403 1.15325 -0.862331 0
M  V30 3283 H 314.356 4.21095 -0.160317 0
M  V30 3284 H 313.08 3.21385 0.581326 0
M  V30 3285 H 311.739 3.32296 -1.54839 0
M  V30 3286 H 311.387 5.02373 0.251128 0
M  V30 3287 H 311.087 5.71579 -1.36277 0
M  V30 3288 H 312.611 6.08495 -0.50654 0
M  V30 3289 H 314.025 5.12671 -2.56595 0
M  V30 3290 H 312.422 4.98296 -3.34397 0
M  V30 3291 H 313.492 3.57083 -3.28054 0
M  V30 3292 N 314.835 0.952656 1.25548 0
M  V30 3293 C 316.06 0.623025 1.97821 0
M  V30 3294 C 316.485 -0.7976 1.70352 0
M  V30 3295 O 315.843 -1.53905 0.958283 0
M  V30 3296 C 315.891 0.885532 3.49558 0
M  V30 3297 O 314.995 -0.0366641 4.12384 0
M  V30 3298 H 314.336 0.237082 0.620232 0
M  V30 3299 H 316.866 1.27871 1.59719 0
M  V30 3300 H 316.876 0.811009 3.99858 0
M  V30 3301 H 315.551 1.92094 3.6888 0
M  V30 3302 H 314.128 0.0898954 3.72792 0
M  V30 3303 N 316.313 -1.40141 0.720998 0
M  V30 3304 C 317.56 -2.00787 0.262842 0
M  V30 3305 C 317.888 -1.5718 -1.14563 0
M  V30 3306 O 317.143 -0.785391 -1.79249 0
M  V30 3307 C 317.442 -3.56165 0.296892 0
M  V30 3308 C 317.108 -4.19373 1.65641 0
M  V30 3309 C 315.77 -4.36352 2.02855 0
M  V30 3310 C 318.122 -4.54578 2.54968 0
M  V30 3311 C 315.45 -4.8582 3.28931 0
M  V30 3312 C 317.802 -5.05447 3.80402 0
M  V30 3313 C 316.466 -5.20635 4.17726 0
M  V30 3314 H 315.736 -0.734731 0.0961807 0
M  V30 3315 H 318.383 -1.67673 0.925093 0
M  V30 3316 H 316.688 -3.8922 -0.448932 0
M  V30 3317 H 318.385 -4.00929 -0.0755208 0
M  V30 3318 H 314.975 -4.06549 1.35704 0
M  V30 3319 H 319.159 -4.41091 2.27491 0
M  V30 3320 H 314.415 -4.95764 3.57811 0
M  V30 3321 H 318.589 -5.31663 4.49786 0
M  V30 3322 H 316.216 -5.58728 5.15487 0
M  V30 3323 N 317.792 -0.46758 -1.50504 0
M  V30 3324 C 318.74 0.342482 -2.30065 0
M  V30 3325 C 319.734 0.993596 -1.37201 0
M  V30 3326 O 320.94 0.925102 -1.54408 0
M  V30 3327 H 317.315 0.129283 -0.740803 0
M  V30 3328 H 319.286 -0.34899 -2.96352 0
M  V30 3329 C 318.035 1.4139 -3.17654 0
M  V30 3330 H 317.358 0.922264 -3.89017 0
M  V30 3331 H 318.798 1.95335 -3.76325 0
M  V30 3332 C 317.257 2.4139 -2.35016 0
M  V30 3333 O 317.787 3.46586 -2.03079 0
M  V30 3334 N 315.993 2.13021 -1.97662 0
M  V30 3335 H 315.54 1.27499 -2.23834 0
M  V30 3336 H 315.498 2.80164 -1.42673 0
M  V30 3337 N 319.27 1.56325 -0.20005 0
M  V30 3338 C 320.2 2.22318 0.713916 0
M  V30 3339 C 321.181 1.18788 1.21752 0
M  V30 3340 O 322.366 1.47309 1.26545 0
M  V30 3341 C 319.496 2.88639 1.93144 0
M  V30 3342 C 318.45 3.98457 1.56255 0
M  V30 3343 C 317.776 4.51967 2.85709 0
M  V30 3344 C 319.076 5.16612 0.768747 0
M  V30 3345 H 320.77 2.98952 0.163755 0
M  V30 3346 H 318.316 1.43792 0.0773219 0
M  V30 3347 H 320.269 3.33491 2.57608 0
M  V30 3348 H 318.993 2.09419 2.50621 0
M  V30 3349 H 317.652 3.54305 0.941471 0
M  V30 3350 H 317.3 3.69503 3.41287 0
M  V30 3351 H 317 5.26071 2.6177 0
M  V30 3352 H 318.524 4.99523 3.51154 0
M  V30 3353 H 319.938 5.57977 1.3166 0
M  V30 3354 H 318.335 5.96812 0.627286 0
M  V30 3355 H 319.405 4.84358 -0.229168 0
M  V30 3356 N 320.748 -0.0735177 1.57428 0
M  V30 3357 C 321.997 -0.771809 1.86349 0
M  V30 3358 C 322.31 -1.78828 0.792452 0
M  V30 3359 O 323.516 -2.53602 0.96945 0
M  V30 3360 C 321.972 -1.42358 3.30548 0
M  V30 3361 C 321.58 -0.445761 4.45777 0
M  V30 3362 C 323.324 -2.10434 3.6867 0
M  V30 3363 C 321.231 -1.10335 5.81016 0
M  V30 3364 H 320.161 -0.291999 0.695164 0
M  V30 3365 H 322.812 -0.0250749 1.83483 0
M  V30 3366 H 321.194 -2.21852 3.28021 0
M  V30 3367 H 322.368 0.319239 4.59693 0
M  V30 3368 H 320.683 0.130457 4.16196 0
M  V30 3369 H 323.28 -2.60405 4.67004 0
M  V30 3370 H 323.623 -2.90298 2.98383 0
M  V30 3371 H 324.156 -1.37773 3.7318 0
M  V30 3372 H 320.895 -0.345061 6.54591 0
M  V30 3373 H 320.415 -1.83925 5.70904 0
M  V30 3374 H 322.094 -1.62367 6.26295 0
M  V30 3375 N 322.226 -1.5378 -0.344866 0
M  V30 3376 C 323.158 -1.77988 -1.44406 0
M  V30 3377 C 324.171 -0.661138 -1.48771 0
M  V30 3378 O 325.36 -0.937842 -1.51877 0
M  V30 3379 C 322.46 -1.86345 -2.8307 0
M  V30 3380 C 321.633 -3.16256 -3.0216 0
M  V30 3381 C 320.692 -3.15588 -4.21059 0
M  V30 3382 O 319.718 -3.89314 -4.15239 0
M  V30 3383 N 320.92 -2.37864 -5.29529 0
M  V30 3384 H 323.685 -2.72839 -1.24012 0
M  V30 3385 H 321.246 -1.52814 -0.534737 0
M  V30 3386 H 323.238 -1.83351 -3.60783 0
M  V30 3387 H 321.808 -0.986858 -2.96614 0
M  V30 3388 H 321.028 -3.32385 -2.11929 0
M  V30 3389 H 322.316 -4.0207 -3.11797 0
M  V30 3390 H 321.714 -1.77514 -5.37127 0
M  V30 3391 H 320.271 -2.40668 -6.05741 0
M  V30 3392 N 323.704 0.605807 -1.45491 0
M  V30 3393 C 324.932 1.39136 -1.5313 0
M  V30 3394 C 325.347 1.88082 -0.164507 0
M  V30 3395 O 324.704 1.62316 0.834247 0
M  V30 3396 C 324.755 2.59463 -2.51716 0
M  V30 3397 O 324.476 2.12551 -3.83084 0
M  V30 3398 C 325.977 3.52301 -2.6907 0
M  V30 3399 H 323.197 0.425849 -0.51855 0
M  V30 3400 H 325.741 0.73865 -1.90694 0
M  V30 3401 H 323.896 3.20772 -2.17219 0
M  V30 3402 H 324.31 2.90744 -4.36541 0
M  V30 3403 H 325.784 4.33271 -3.42024 0
M  V30 3404 H 326.261 4.02757 -1.75167 0
M  V30 3405 H 326.867 2.96845 -3.04571 0
M  V30 3406 N 325.182 1.32811 0.848464 0
M  V30 3407 C 326.092 1.24278 1.98978 0
M  V30 3408 C 327.108 0.155176 1.73307 0
M  V30 3409 O 328.284 0.376999 1.9784 0
M  V30 3410 C 325.349 0.972444 3.32783 0
M  V30 3411 C 324.41 2.14911 3.71634 0
M  V30 3412 C 323.643 1.89157 4.99054 0
M  V30 3413 O 323.866 0.837165 5.64223 0
M  V30 3414 O 322.8 2.75433 5.35183 0
M  V30 3415 H 326.626 2.20238 2.09115 0
M  V30 3416 H 324.211 1.12762 0.980052 0
M  V30 3417 H 326.093 0.838432 4.12975 0
M  V30 3418 H 324.768 0.043051 3.23671 0
M  V30 3419 H 323.675 2.33862 2.91992 0
M  V30 3420 H 325.008 3.06151 3.85399 0
M  V30 3421 N 326.66 -1.06551 1.16123 0
M  V30 3422 C 328.076 -1.3142 0.905585 0
M  V30 3423 C 328.276 -1.96571 -0.442964 0
M  V30 3424 O 327.332 -2.23068 -1.18308 0
M  V30 3425 C 328.645 -2.19741 2.05267 0
M  V30 3426 C 330.193 -2.33165 2.08813 0
M  V30 3427 C 330.668 -3.24838 3.22868 0
M  V30 3428 N 332.159 -3.32421 3.22568 0
M  V30 3429 C 332.894 -4.0344 4.0746 0
M  V30 3430 N 332.39 -4.77003 5.02434 0
M  V30 3431 N 334.183 -3.99464 3.95456 0
M  V30 3432 H 326.334 -0.626548 2.02949 0
M  V30 3433 H 328.597 -0.338777 0.8854 0
M  V30 3434 H 328.303 -1.79142 3.02657 0
M  V30 3435 H 328.177 -3.20313 1.99198 0
M  V30 3436 H 330.564 -2.73013 1.12018 0
M  V30 3437 H 330.645 -1.3227 2.18948 0
M  V30 3438 H 330.289 -2.85708 4.19921 0
M  V30 3439 H 330.219 -4.25707 3.0997 0
M  V30 3440 H 332.71 -2.79994 2.53795 0
M  V30 3441 H 333.023 -5.28712 5.63634 0
M  V30 3442 H 331.368 -4.75992 5.06415 0
M  V30 3443 H 334.559 -3.4111 3.20564 0
M  V30 3444 H 334.732 -4.54544 4.61837 0
M  V30 3445 N 328.138 -0.959301 -1.25041 0
M  V30 3446 C 329.07 -0.440543 -2.24926 0
M  V30 3447 C 330.083 0.446131 -1.56568 0
M  V30 3448 O 331.272 0.253657 -1.76689 0
M  V30 3449 C 328.372 0.38412 -3.36716 0
M  V30 3450 C 327.545 -0.490658 -4.34639 0
M  V30 3451 C 326.604 0.276587 -5.25473 0
M  V30 3452 O 325.63 -0.326614 -5.68262 0
M  V30 3453 N 326.832 1.56844 -5.5891 0
M  V30 3454 H 329.597 -1.29931 -2.70071 0
M  V30 3455 H 327.158 -0.830181 -1.38995 0
M  V30 3456 H 329.15 0.905228 -3.94446 0
M  V30 3457 H 327.72 1.14377 -2.90924 0
M  V30 3458 H 326.94 -1.19282 -3.7572 0
M  V30 3459 H 328.228 -1.08756 -4.97041 0
M  V30 3460 H 327.626 2.08036 -5.26059 0
M  V30 3461 H 326.183 2.03541 -6.19205 0
M  V30 3462 N 329.616 1.39756 -0.72842 0
M  V30 3463 C 330.564 2.32485 -0.0731849 0
M  V30 3464 C 331.558 1.52717 0.733063 0
M  V30 3465 O 332.764 1.68428 0.634988 0
M  V30 3466 H 329.139 0.751984 -0.00486469 0
M  V30 3467 H 331.11 2.85382 -0.871761 0
M  V30 3468 C 329.859 3.37773 0.824908 0
M  V30 3469 H 329.182 3.99227 0.213915 0
M  V30 3470 H 330.622 4.05121 1.25111 0
M  V30 3471 C 329.081 2.74287 1.95622 0
M  V30 3472 O 329.611 2.61618 3.04826 0
M  V30 3473 N 327.817 2.32475 1.74367 0
M  V30 3474 H 327.364 2.4298 0.855494 0
M  V30 3475 H 327.322 1.90337 2.50238 0
M  V30 3476 N 331.094 0.475555 1.50254 0
M  V30 3477 C 332.044 -0.335025 2.25525 0
M  V30 3478 C 333.028 -0.957625 1.29299 0
M  V30 3479 O 334.22 -0.869436 1.54175 0
M  V30 3480 C 331.349 -1.41385 3.12834 0
M  V30 3481 C 330.435 -0.798762 4.1651 0
M  V30 3482 N 330.826 0.0835815 5.05731 0
M  V30 3483 C 329.124 -1.06221 4.33166 0
M  V30 3484 C 329.825 0.433113 5.80085 0
M  V30 3485 N 328.801 -0.1928 5.43258 0
M  V30 3486 H 332.603 0.344612 2.91873 0
M  V30 3487 H 330.117 0.289986 1.5979 0
M  V30 3488 H 332.114 -2.00777 3.65368 0
M  V30 3489 H 330.774 -2.09543 2.48036 0
M  V30 3490 H 331.785 0.452715 5.15918 0
M  V30 3491 H 328.462 -1.73844 3.79585 0
M  V30 3492 H 329.852 1.15346 6.61925 0
M  V30 3493 N 332.573 -1.56217 0.208337 0
M  V30 3494 C 333.536 -2.18455 -0.693557 0
M  V30 3495 C 334.536 -1.14268 -1.13135 0
M  V30 3496 O 335.726 -1.39577 -1.0423 0
M  V30 3497 C 332.858 -2.79727 -1.94848 0
M  V30 3498 H 334.051 -2.99519 -0.15114 0
M  V30 3499 H 331.604 -1.56245 -0.041287 0
M  V30 3500 H 332.339 -2.02497 -2.53309 0
M  V30 3501 H 332.124 -3.56009 -1.64316 0
M  V30 3502 H 333.614 -3.27475 -2.59133 0
M  V30 3503 N 334.051 0.0651679 -1.57465 0
M  V30 3504 C 335.467 0.420105 -1.53972 0
M  V30 3505 C 335.667 1.78782 -0.929474 0
M  V30 3506 O 334.723 2.46771 -0.534839 0
M  V30 3507 C 336.036 0.355084 -2.98596 0
M  V30 3508 C 337.584 0.434792 -3.09965 0
M  V30 3509 C 338.059 0.399609 -4.56253 0
M  V30 3510 N 339.55 0.459488 -4.60915 0
M  V30 3511 C 340.285 0.454584 -5.71595 0
M  V30 3512 N 339.781 0.404102 -6.9162 0
M  V30 3513 N 341.574 0.501635 -5.59857 0
M  V30 3514 H 333.725 -0.830328 -1.95498 0
M  V30 3515 H 335.988 -0.312244 -0.895102 0
M  V30 3516 H 335.694 -0.583357 -3.46828 0
M  V30 3517 H 335.568 1.16275 -3.58831 0
M  V30 3518 H 337.955 1.36366 -2.61703 0
M  V30 3519 H 338.036 -0.40157 -2.52628 0
M  V30 3520 H 337.68 -0.525436 -5.05175 0
M  V30 3521 H 337.61 1.25359 -5.11461 0
M  V30 3522 H 340.101 0.502482 -3.74544 0
M  V30 3523 H 340.414 0.404468 -7.71741 0
M  V30 3524 H 338.759 0.37069 -6.94011 0
M  V30 3525 H 341.95 0.538812 -4.64989 0
M  V30 3526 H 342.123 0.494345 -6.46112 0
M  V30 3527 N 335.529 1.53961 0.336706 0
M  V30 3528 C 336.439 1.85432 1.43708 0
M  V30 3529 C 337.455 0.745053 1.57242 0
M  V30 3530 O 338.631 1.03804 1.72588 0
M  V30 3531 C 335.696 2.06349 2.78605 0
M  V30 3532 C 334.757 3.30191 2.74358 0
M  V30 3533 C 333.99 3.50101 4.02822 0
M  V30 3534 O 334.213 2.7371 5.00439 0
M  V30 3535 O 333.147 4.43547 4.06878 0
M  V30 3536 H 336.973 2.78975 1.20028 0
M  V30 3537 H 334.558 1.39701 0.52952 0
M  V30 3538 H 336.44 2.21513 3.58483 0
M  V30 3539 H 335.115 1.15995 3.02203 0
M  V30 3540 H 334.022 3.20425 1.93078 0
M  V30 3541 H 335.355 4.2056 2.55715 0
M  V30 3542 N 337.007 -0.598083 1.45811 0
M  V30 3543 C 337.937 -1.71873 1.58057 0
M  V30 3544 C 338.918 -1.64533 0.431615 0
M  V30 3545 O 340.103 -1.82787 0.65595 0
M  V30 3546 C 337.233 -3.10495 1.55597 0
M  V30 3547 C 336.187 -3.32654 2.69305 0
M  V30 3548 C 335.513 -4.71646 2.51902 0
M  V30 3549 C 336.813 -3.21981 4.11248 0
M  V30 3550 H 338.507 -1.61881 2.51863 0
M  V30 3551 H 336.053 -0.777372 1.21214 0
M  V30 3552 H 338.006 -3.88699 1.6276 0
M  V30 3553 H 336.73 -3.2135 0.583255 0
M  V30 3554 H 335.389 -2.56843 2.61586 0
M  V30 3555 H 335.037 -4.79246 1.52748 0
M  V30 3556 H 334.737 -4.87426 3.2816 0
M  V30 3557 H 336.261 -5.52038 2.60933 0
M  V30 3558 H 337.675 -3.90049 4.20161 0
M  V30 3559 H 336.072 -3.49289 4.87972 0
M  V30 3560 H 337.142 -2.1928 4.32486 0
M  V30 3561 N 338.485 -1.33259 -0.841409 0
M  V30 3562 C 339.731 -1.24757 -1.59886 0
M  V30 3563 C 340.064 0.186913 -1.93298 0
M  V30 3564 O 339.339 1.12757 -1.5848 0
M  V30 3565 C 339.622 -2.12036 -2.91055 0
M  V30 3566 C 339.475 -3.63929 -2.6434 0
M  V30 3567 C 340.794 -1.9916 -3.92458 0
M  V30 3568 H 337.913 -0.454542 -0.580138 0
M  V30 3569 H 340.555 -1.63335 -0.970647 0
M  V30 3570 H 338.705 -1.79265 -3.44669 0
M  V30 3571 H 340.377 -4.06978 -2.17178 0
M  V30 3572 H 338.62 -3.85935 -1.98082 0
M  V30 3573 H 339.291 -4.20341 -3.57796 0
M  V30 3574 H 341.767 -2.27895 -3.48143 0
M  V30 3575 H 340.643 -2.62484 -4.82072 0
M  V30 3576 H 340.904 -0.963082 -4.31482 0
M  V30 3577 N 339.963 1.05934 -1.16686 0
M  V30 3578 C 340.895 2.13468 -0.834503 0
M  V30 3579 C 341.908 1.62013 0.15984 0
M  V30 3580 O 343.097 1.7838 -0.0654228 0
M  V30 3581 C 340.197 3.3817 -0.222361 0
M  V30 3582 C 339.37 4.18928 -1.25771 0
M  V30 3583 C 338.429 5.21985 -0.664703 0
M  V30 3584 O 337.455 5.53334 -1.33453 0
M  V30 3585 N 338.657 5.77919 0.546834 0
M  V30 3586 H 341.422 2.42578 -1.75999 0
M  V30 3587 H 338.983 1.21967 -1.06469 0
M  V30 3588 H 340.975 4.04266 0.187472 0
M  V30 3589 H 339.545 3.06655 0.606758 0
M  V30 3590 H 338.765 3.48433 -1.84358 0
M  V30 3591 H 340.053 4.69687 -1.95631 0
M  V30 3592 H 339.451 5.54721 1.10912 0
M  V30 3593 H 338.008 6.45573 0.898829 0
M  V30 3594 N 341.441 0.965919 1.2453 0
M  V30 3595 C 342.689 0.625593 1.92174 0
M  V30 3596 C 343.01 -0.841652 1.75901 0
M  V30 3597 O 342.28 -1.60061 1.12948 0
M  V30 3598 H 340.86 0.228388 0.71123 0
M  V30 3599 H 343.522 1.2266 1.51461 0
M  V30 3600 H 342.618 0.864653 2.99884 0
M  V30 3601 N 342.919 -1.39368 0.735821 0
M  V30 3602 C 343.849 -2.33234 0.111506 0
M  V30 3603 C 344.83 -1.53954 -0.723334 0
M  V30 3604 O 346.015 -1.82344 -0.668147 0
M  V30 3605 C 343.145 -3.38057 -0.795917 0
M  V30 3606 C 342.099 -4.2795 -0.065172 0
M  V30 3607 C 341.425 -5.23479 -1.08967 0
M  V30 3608 C 342.725 -5.10741 1.09273 0
M  V30 3609 H 344.419 -2.85692 0.895571 0
M  V30 3610 H 341.965 -1.37364 0.432109 0
M  V30 3611 H 343.918 -4.02675 -1.24221 0
M  V30 3612 H 342.642 -2.8404 -1.61211 0
M  V30 3613 H 341.301 -3.64813 0.361511 0
M  V30 3614 H 340.949 -4.65758 -1.89944 0
M  V30 3615 H 340.649 -5.84472 -0.605489 0
M  V30 3616 H 342.173 -5.90974 -1.53565 0
M  V30 3617 H 343.587 -5.68699 0.724841 0
M  V30 3618 H 341.984 -5.8088 1.50659 0
M  V30 3619 H 343.054 -4.45525 1.91404 0
M  V30 3620 N 344.397 -0.483516 -1.5 0
M  V30 3621 C 345.622 0.0667119 -2.07293 0
M  V30 3622 C 346.047 1.3164 -1.3436 0
M  V30 3623 O 345.405 1.76945 -0.394987 0
M  V30 3624 C 345.453 0.321126 -3.59167 0
M  V30 3625 O 344.557 1.39927 -3.87936 0
M  V30 3626 H 343.898 -0.0184758 -0.663743 0
M  V30 3627 H 346.428 -0.678125 -1.93035 0
M  V30 3628 H 346.438 0.557906 -4.04168 0
M  V30 3629 H 345.113 -0.592007 -4.11665 0
M  V30 3630 H 343.69 1.14882 -3.54763 0
M  V30 3631 N 345.875 1.56104 -0.216619 0
M  V30 3632 C 346.805 2.23063 0.690296 0
M  V30 3633 C 347.786 1.20072 1.20485 0
M  V30 3634 O 348.971 1.48643 1.24976 0
M  V30 3635 C 346.101 2.90672 1.90072 0
M  V30 3636 C 345.055 4.00092 1.5202 0
M  V30 3637 C 344.381 4.54972 2.80899 0
M  V30 3638 C 345.681 5.17398 0.71391 0
M  V30 3639 H 347.375 2.99109 0.132038 0
M  V30 3640 H 344.921 1.43866 0.0620664 0
M  V30 3641 H 346.874 3.36204 2.54057 0
M  V30 3642 H 345.598 2.12066 2.48386 0
M  V30 3643 H 344.257 3.55283 0.903839 0
M  V30 3644 H 343.905 3.73102 3.37348 0
M  V30 3645 H 343.605 5.28817 2.56176 0
M  V30 3646 H 345.129 5.0322 3.45836 0
M  V30 3647 H 346.543 5.59342 1.25735 0
M  V30 3648 H 344.94 5.97444 0.563951 0
M  V30 3649 H 346.01 4.84088 -0.280527 0
M  V30 3650 N 347.353 -0.0568162 1.57498 0
M  V30 3651 C 348.578 -0.769402 1.92601 0
M  V30 3652 C 349.003 -1.69559 0.814336 0
M  V30 3653 O 348.361 -1.79811 -0.231903 0
M  V30 3654 C 348.409 -1.52634 3.26704 0
M  V30 3655 O 347.513 -2.63797 3.16994 0
M  V30 3656 H 346.854 -0.208909 0.63028 0
M  V30 3657 H 349.384 -0.0205798 2.0459 0
M  V30 3658 H 349.394 -1.90234 3.60936 0
M  V30 3659 H 348.069 -0.846875 4.07186 0
M  V30 3660 H 346.646 -2.28943 2.94346 0
M  V30 3661 N 348.832 -1.54138 -0.328536 0
M  V30 3662 C 349.742 -1.86192 -1.42723 0
M  V30 3663 C 350.758 -0.753382 -1.56844 0
M  V30 3664 O 351.934 -1.04718 -1.72035 0
M  V30 3665 C 348.999 -2.07824 -2.77507 0
M  V30 3666 C 348.06 -3.31641 -2.72603 0
M  V30 3667 C 347.293 -3.52232 -4.00959 0
M  V30 3668 O 347.516 -2.7636 -4.9898 0
M  V30 3669 O 346.45 -4.45699 -4.0452 0
M  V30 3670 H 350.276 -2.79608 -1.18547 0
M  V30 3671 H 347.861 -1.3998 -0.522104 0
M  V30 3672 H 349.743 -2.23411 -3.57303 0
M  V30 3673 H 348.418 -1.17596 -3.01584 0
M  V30 3674 H 347.325 -3.21444 -1.91376 0
M  V30 3675 H 348.658 -4.2191 -2.53481 0
M  V30 3676 N 350.31 0.590341 -1.46126 0
M  V30 3677 C 351.556 1.34874 -1.52252 0
M  V30 3678 C 351.911 1.91658 -0.168807 0
M  V30 3679 O 351.204 1.73093 0.821556 0
M  V30 3680 C 351.398 2.5032 -2.55097 0
M  V30 3681 C 351.227 2.04843 -4.00337 0
M  V30 3682 C 349.997 1.90213 -4.68132 0
M  V30 3683 C 352.195 1.61267 -4.88362 0
M  V30 3684 N 350.177 1.38727 -5.9802 0
M  V30 3685 C 351.548 1.21319 -6.08015 0
M  V30 3686 C 353.603 1.49015 -4.75078 0
M  V30 3687 C 352.306 0.7034 -7.15852 0
M  V30 3688 C 354.332 0.994401 -5.8298 0
M  V30 3689 C 353.694 0.604659 -7.018 0
M  V30 3690 H 349.793 0.486803 -0.612002 0
M  V30 3691 H 352.377 0.673007 -1.82698 0
M  V30 3692 H 350.548 3.15466 -2.26574 0
M  V30 3693 H 352.28 3.1725 -2.51266 0
M  V30 3694 H 349.035 2.11927 -4.23537 0
M  V30 3695 H 349.459 1.15168 -6.67132 0
M  V30 3696 H 354.101 1.77768 -3.83612 0
M  V30 3697 H 351.819 0.403446 -8.07092 0
M  V30 3698 H 355.405 0.903621 -5.7474 0
M  V30 3699 H 354.285 0.226963 -7.83871 0
M  V30 3700 N 351.788 1.33704 0.83433 0
M  V30 3701 C 353.065 1.16011 1.57483 0
M  V30 3702 C 353.445 -0.27176 2.09343 0
M  V30 3703 O 352.793 -1.27146 1.89858 0
M  V30 3704 C 353.003 2.20507 2.70514 0
M  V30 3705 C 354.351 2.54898 3.39577 0
M  V30 3706 O 355.375 2.19209 2.80759 0
M  V30 3707 O 354.234 3.16158 4.45765 0
M  V30 3708 H 351.328 0.448992 0.694503 0
M  V30 3709 H 353.874 1.453 0.876691 0
M  V30 3710 H 352.646 3.16667 2.29865 0
M  V30 3711 H 352.269 1.92329 3.47987 0
M  V30 3712 N 353.266 -1.05314 1.17247 0
M  V30 3713 C 354.514 -1.77941 0.958194 0
M  V30 3714 C 354.835 -1.88089 -0.514556 0
M  V30 3715 O 354.105 -1.39676 -1.37359 0
M  V30 3716 H 352.685 -0.659116 0.351533 0
M  V30 3717 H 355.347 -1.27166 1.47699 0
M  V30 3718 H 354.443 -2.79663 1.38546 0
M  V30 3719 N 354.744 -0.972509 -1.24016 0
M  V30 3720 C 355.993 -0.632603 -1.91523 0
M  V30 3721 C 356.306 0.836641 -1.76804 0
M  V30 3722 O 357.512 1.28728 -2.39043 0
M  V30 3723 C 355.968 -1.08082 -3.43287 0
M  V30 3724 C 355.576 -2.57386 -3.66683 0
M  V30 3725 C 357.32 -0.814288 -4.16617 0
M  V30 3726 C 355.227 -2.95915 -5.12043 0
M  V30 3727 H 354.157 -0.232898 -0.717129 0
M  V30 3728 H 356.808 -1.17936 -1.40582 0
M  V30 3729 H 355.19 -0.462339 -3.93292 0
M  V30 3730 H 356.364 -3.24405 -3.27258 0
M  V30 3731 H 354.679 -2.81701 -3.06649 0
M  V30 3732 H 357.276 -1.0781 -5.23718 0
M  V30 3733 H 357.619 0.24955 -4.15551 0
M  V30 3734 H 358.152 -1.39397 -3.72577 0
M  V30 3735 H 354.891 -4.0139 -5.18234 0
M  V30 3736 H 354.411 -2.33584 -5.52448 0
M  V30 3737 H 356.09 -2.86086 -5.80314 0
M  V30 3738 N 356.222 1.38976 -0.743202 0
M  V30 3739 C 357.468 2.0064 -0.295189 0
M  V30 3740 C 357.801 1.5885 1.11716 0
M  V30 3741 O 357.076 0.821181 1.76315 0
M  V30 3742 C 357.359 3.578 -0.406318 0
M  V30 3743 C 357.212 4.09586 -1.85903 0
M  V30 3744 C 358.531 4.39616 0.206439 0
M  V30 3745 H 355.65 0.728935 -0.108733 0
M  V30 3746 H 358.292 1.65067 -0.940897 0
M  V30 3747 H 356.442 3.88235 0.143419 0
M  V30 3748 H 358.114 3.89837 -2.46627 0
M  V30 3749 H 356.357 3.6284 -2.3776 0
M  V30 3750 H 357.028 5.18708 -1.888 0
M  V30 3751 H 359.504 4.15273 -0.262283 0
M  V30 3752 H 358.38 5.48812 0.0983819 0
M  V30 3753 H 358.641 4.22754 1.2935 0
M  V30 3754 N 357.7 0.491464 1.49741 0
M  V30 3755 C 358.928 -0.0535151 2.06831 0
M  V30 3756 C 359.343 -1.31683 1.35296 0
M  V30 3757 O 358.7 -1.77402 0.42836 0
M  V30 3758 C 358.751 -0.320835 3.60073 0
M  V30 3759 O 358.472 0.892394 4.28915 0
M  V30 3760 C 359.973 -0.910519 4.33848 0
M  V30 3761 H 357.193 0.0161909 0.670805 0
M  V30 3762 H 359.737 0.68609 1.92647 0
M  V30 3763 H 357.892 -1.0104 3.73991 0
M  V30 3764 H 358.306 0.649401 5.20464 0
M  V30 3765 H 359.78 -1.04721 5.41976 0
M  V30 3766 H 360.257 -1.90589 3.95692 0
M  V30 3767 H 360.863 -0.258712 4.24512 0
M  V30 3768 N 359.178 -1.55987 0.224894 0
M  V30 3769 C 360.424 -1.98684 -0.406502 0
M  V30 3770 C 360.757 -1.11248 -1.59177 0
M  V30 3771 O 360.032 -0.170909 -1.93748 0
M  V30 3772 C 360.315 -3.50218 -0.837808 0
M  V30 3773 C 360.168 -4.48426 0.351332 0
M  V30 3774 C 361.487 -4.06243 -1.69278 0
M  V30 3775 H 358.606 -0.722337 -0.146283 0
M  V30 3776 H 361.248 -1.87255 0.321799 0
M  V30 3777 H 359.398 -3.60089 -1.45837 0
M  V30 3778 H 361.07 -4.50562 0.989526 0
M  V30 3779 H 359.313 -4.22159 0.998207 0
M  V30 3780 H 359.984 -5.52 0.00655905 0
M  V30 3781 H 362.46 -3.99337 -1.16914 0
M  V30 3782 H 361.336 -5.12581 -1.96346 0
M  V30 3783 H 361.597 -3.53332 -2.65723 0
M  V30 3784 N 360.656 0.0484629 -1.57525 0
M  V30 3785 C 361.881 0.759177 -1.93006 0
M  V30 3786 C 362.306 1.69125 -0.823317 0
M  V30 3787 O 361.664 1.79931 0.222364 0
M  V30 3788 C 361.712 1.50899 -3.27509 0
M  V30 3789 O 360.816 2.62112 -3.18388 0
M  V30 3790 H 360.157 0.205564 -0.631379 0
M  V30 3791 H 362.687 0.00972959 -2.04598 0
M  V30 3792 H 362.697 1.88317 -3.6194 0
M  V30 3793 H 361.372 0.825269 -4.0763 0
M  V30 3794 H 359.949 2.27379 -2.95556 0
M  V30 3795 N 362.134 1.5431 0.320358 0
M  V30 3796 C 363.382 1.72327 1.05583 0
M  V30 3797 C 363.703 0.50149 1.88441 0
M  V30 3798 O 362.973 -0.48448 1.89815 0
M  V30 3799 H 361.553 0.635387 0.3928 0
M  V30 3800 H 364.215 1.91621 0.356019 0
M  V30 3801 H 363.311 2.60426 1.72003 0
M  V30 3802 N 363.613 -0.582584 1.46437 0
M  V30 3803 C 364.89 -1.34276 1.4223 0
M  V30 3804 C 365.27 -2.10835 0.10583 0
M  V30 3805 O 364.618 -2.09485 -0.912596 0
M  V30 3806 C 364.828 -2.26865 2.65204 0
M  V30 3807 C 366.176 -2.88691 3.11356 0
M  V30 3808 O 367.2 -2.37178 2.65753 0
M  V30 3809 O 366.059 -3.82255 3.90568 0
M  V30 3810 H 363.153 -0.603326 0.565621 0
M  V30 3811 H 365.699 -0.603591 1.58603 0
M  V30 3812 H 364.471 -1.69724 3.52576 0
M  V30 3813 H 364.094 -3.08122 2.5129 0
M  V30 3814 N 365.091 -1.34144 -0.827227 0
M  V30 3815 C 366.339 -1.26009 -1.58007 0
M  V30 3816 C 366.66 0.170971 -1.94249 0
M  V30 3817 O 365.93 1.10256 -1.61927 0
M  V30 3818 H 364.51 -0.463414 -0.585881 0
M  V30 3819 H 367.172 -1.68005 -0.987951 0
M  V30 3820 H 366.268 -1.86187 -2.50481 0
M  V30 3821 N 366.569 1.04691 -1.17803 0
M  V30 3822 C 367.499 2.14494 -0.92275 0
M  V30 3823 C 368.48 1.69546 0.137179 0
M  V30 3824 O 369.665 1.94195 -0.0141108 0
M  V30 3825 C 366.795 3.44491 -0.440803 0
M  V30 3826 C 365.749 4.03031 -1.4405 0
M  V30 3827 C 365.075 5.28432 -0.81631 0
M  V30 3828 C 366.375 4.39932 -2.81527 0
M  V30 3829 H 368.069 2.36107 -1.84103 0
M  V30 3830 H 365.615 1.1347 -0.886599 0
M  V30 3831 H 367.568 4.2066 -0.249602 0
M  V30 3832 H 366.292 3.22546 0.513025 0
M  V30 3833 H 364.951 3.28937 -1.61853 0
M  V30 3834 H 364.599 5.02792 0.144511 0
M  V30 3835 H 364.299 5.68559 -1.48371 0
M  V30 3836 H 365.823 6.07284 -0.635496 0
M  V30 3837 H 367.237 5.07113 -2.67412 0
M  V30 3838 H 365.634 4.9109 -3.44892 0
M  V30 3839 H 366.704 3.50045 -3.35554 0
M  V30 3840 N 368.047 0.979072 1.23499 0
M  V30 3841 C 368.977 0.537606 2.27227 0
M  V30 3842 C 369.958 -0.428539 1.64613 0
M  V30 3843 O 371.143 -0.322191 1.91509 0
M  V30 3844 C 368.273 -0.162052 3.46922 0
M  V30 3845 C 367.227 0.721242 4.21879 0
M  V30 3846 C 366.553 -0.110555 5.34586 0
M  V30 3847 C 367.853 2.01141 4.82016 0
M  V30 3848 H 369.547 1.40462 2.64406 0
M  V30 3849 H 367.093 0.67684 1.27102 0
M  V30 3850 H 369.046 -0.482192 4.18632 0
M  V30 3851 H 367.77 -1.06351 3.08799 0
M  V30 3852 H 366.429 1.02482 3.51984 0
M  V30 3853 H 366.077 -1.0125 4.92704 0
M  V30 3854 H 365.777 0.477325 5.85658 0
M  V30 3855 H 367.301 -0.425107 6.09118 0
M  V30 3856 H 368.715 1.75612 5.45741 0
M  V30 3857 H 367.112 2.54695 5.43369 0
M  V30 3858 H 368.182 2.69909 4.02836 0
M  V30 3859 N 369.525 -1.3858 0.750561 0
M  V30 3860 C 370.475 -2.27795 0.0965949 0
M  V30 3861 C 371.459 -1.45048 -0.696411 0
M  V30 3862 O 372.651 -1.67812 -0.562863 0
M  V30 3863 C 369.78 -3.33894 -0.798085 0
M  V30 3864 C 368.866 -4.241 0.0016067 0
M  V30 3865 N 369.257 -4.95067 1.03647 0
M  V30 3866 C 367.555 -4.45429 -0.225674 0
M  V30 3867 C 368.256 -5.61489 1.52004 0
M  V30 3868 N 367.232 -5.37135 0.835874 0
M  V30 3869 H 371.034 -2.80125 0.889228 0
M  V30 3870 H 368.548 -1.51446 0.586323 0
M  V30 3871 H 370.545 -3.96693 -1.28219 0
M  V30 3872 H 369.205 -2.83123 -1.5897 0
M  V30 3873 H 370.216 -4.98104 1.41819 0
M  V30 3874 H 366.893 -4.05571 -0.990872 0
M  V30 3875 H 368.283 -6.28264 2.38188 0
M  V30 3876 N 371.003 -0.499398 -1.49478 0
M  V30 3877 C 371.913 0.284489 -2.32869 0
M  V30 3878 C 372.929 0.968885 -1.44529 0
M  V30 3879 O 374.105 0.95062 -1.77553 0
M  V30 3880 C 371.17 1.33594 -3.19928 0
M  V30 3881 C 370.231 0.665149 -4.24116 0
M  V30 3882 C 369.464 1.6665 -5.07014 0
M  V30 3883 O 369.687 2.89618 -4.91404 0
M  V30 3884 O 368.621 1.22271 -5.8935 0
M  V30 3885 H 372.447 -0.39802 -3.01081 0
M  V30 3886 H 370.032 -0.260758 -1.47107 0
M  V30 3887 H 371.914 1.94431 -3.73864 0
M  V30 3888 H 370.589 2.0014 -2.54412 0
M  V30 3889 H 369.496 0.0170769 -3.74096 0
M  V30 3890 H 370.829 0.0421555 -4.92182 0
M  V30 3891 N 372.481 1.55866 -0.233164 0
M  V30 3892 C 373.727 1.98897 0.395959 0
M  V30 3893 C 374.06 1.12091 1.58585 0
M  V30 3894 O 373.335 0.181182 1.93654 0
M  V30 3895 C 373.618 3.50658 0.819224 0
M  V30 3896 C 373.471 4.48233 -0.375109 0
M  V30 3897 C 374.79 4.07135 1.67121 0
M  V30 3898 H 371.909 0.723102 0.142451 0
M  V30 3899 H 374.551 1.87082 -0.331725 0
M  V30 3900 H 372.701 3.60857 1.43925 0
M  V30 3901 H 374.373 4.50031 -1.01341 0
M  V30 3902 H 372.616 4.21624 -1.02058 0
M  V30 3903 H 373.287 5.51988 -0.0358328 0
M  V30 3904 H 375.763 3.99952 1.14795 0
M  V30 3905 H 374.639 5.13615 1.93625 0
M  V30 3906 H 374.9 3.54736 2.63846 0
M  V30 3907 N 373.959 -0.0401083 1.57549 0
M  V30 3908 C 374.889 -1.04384 2.08869 0
M  V30 3909 C 375.87 -1.38407 0.988817 0
M  V30 3910 O 377.055 -1.47483 1.26342 0
M  V30 3911 C 374.185 -2.34808 2.55895 0
M  V30 3912 C 373.139 -2.15057 3.70047 0
M  V30 3913 C 372.465 -3.51145 4.03239 0
M  V30 3914 C 373.765 -1.54576 4.98902 0
M  V30 3915 H 375.459 -0.616666 2.92981 0
M  V30 3916 H 373.005 -0.295184 1.40942 0
M  V30 3917 H 374.958 -3.05346 2.90417 0
M  V30 3918 H 373.682 -2.79565 1.68853 0
M  V30 3919 H 372.341 -1.46954 3.35857 0
M  V30 3920 H 371.989 -3.93529 3.13279 0
M  V30 3921 H 371.689 -3.38758 4.80122 0
M  V30 3922 H 373.213 -4.23062 4.40285 0
M  V30 3923 H 374.627 -2.15017 5.31451 0
M  V30 3924 H 373.024 -1.52796 5.80322 0
M  V30 3925 H 374.094 -0.51039 4.82206 0
M  V30 3926 N 375.437 -1.54477 -0.31217 0
M  V30 3927 C 376.385 -1.85395 -1.40469 0
M  V30 3928 C 377.379 -0.726749 -1.53019 0
M  V30 3929 O 378.585 -0.910582 -1.55269 0
M  V30 3930 H 374.96 -0.587845 -0.46898 0
M  V30 3931 H 376.931 -2.76736 -1.11623 0
M  V30 3932 C 375.68 -2.10811 -2.76503 0
M  V30 3933 H 375.003 -2.97014 -2.67625 0
M  V30 3934 H 376.443 -2.3639 -3.51988 0
M  V30 3935 C 374.902 -0.903165 -3.24568 0
M  V30 3936 O 375.432 -0.118085 -4.01526 0
M  V30 3937 N 373.638 -0.711634 -2.81752 0
M  V30 3938 H 373.185 -1.35171 -2.19286 0
M  V30 3939 H 373.143 0.0930473 -3.14262 0
M  V30 3940 N 376.915 0.57481 -1.46744 0
M  V30 3941 C 378.163 1.33009 -1.52161 0
M  V30 3942 C 378.484 1.94185 -0.178092 0
M  V30 3943 O 377.754 1.7899 0.796196 0
M  V30 3944 H 376.334 0.493873 -0.560445 0
M  V30 3945 H 378.996 0.672589 -1.82927 0
M  V30 3946 H 378.092 2.13273 -2.27862 0
M  V30 3947 N 378.394 1.34581 0.820102 0
M  V30 3948 C 379.324 1.29038 1.94606 0
M  V30 3949 C 380.305 0.1673 1.69275 0
M  V30 3950 O 381.49 0.360112 1.90832 0
M  V30 3951 C 378.62 1.04793 3.31113 0
M  V30 3952 C 377.574 2.13597 3.70891 0
M  V30 3953 C 376.9 1.74537 5.05412 0
M  V30 3954 C 378.2 3.55451 3.8269 0
M  V30 3955 H 379.894 2.23248 1.99501 0
M  V30 3956 H 377.44 1.0747 0.958449 0
M  V30 3957 H 379.393 0.995592 4.0947 0
M  V30 3958 H 378.117 0.0702565 3.26524 0
M  V30 3959 H 376.776 2.17905 2.9481 0
M  V30 3960 H 376.424 0.754226 4.97313 0
M  V30 3961 H 376.124 2.47361 5.32997 0
M  V30 3962 H 377.648 1.70803 5.86224 0
M  V30 3963 H 379.062 3.5354 4.51312 0
M  V30 3964 H 377.459 4.26922 4.21732 0
M  V30 3965 H 378.529 3.92587 2.84611 0
M  V30 3966 N 379.872 -1.04064 1.18357 0
M  V30 3967 C 380.802 -2.14001 0.934113 0
M  V30 3968 C 381.783 -1.69616 -0.128186 0
M  V30 3969 O 382.968 -1.94185 0.0244093 0
M  V30 3970 C 380.098 -3.44253 0.459066 0
M  V30 3971 C 379.052 -4.02261 1.46185 0
M  V30 3972 C 378.378 -5.27992 0.844322 0
M  V30 3973 C 379.678 -4.38432 2.83856 0
M  V30 3974 H 381.372 -2.35127 1.85352 0
M  V30 3975 H 378.918 -1.12998 0.892604 0
M  V30 3976 H 380.871 -4.20522 0.271907 0
M  V30 3977 H 379.595 -3.22813 -0.495912 0
M  V30 3978 H 378.254 -3.28074 1.63595 0
M  V30 3979 H 377.902 -5.02862 -0.117845 0
M  V30 3980 H 377.602 -5.67765 1.51384 0
M  V30 3981 H 379.126 -6.06938 0.667693 0
M  V30 3982 H 380.54 -5.05688 2.70098 0
M  V30 3983 H 378.937 -4.89254 3.47491 0
M  V30 3984 H 380.007 -3.4826 3.37406 0
M  V30 3985 N 381.35 -0.985608 -1.22978 0
M  V30 3986 C 382.627 -0.573599 -1.87001 0
M  V30 3987 C 383.007 0.949213 -1.88555 0
M  V30 3988 O 382.355 1.82811 -1.37086 0
M  V30 3989 C 382.565 -1.18564 -3.28243 0
M  V30 3990 C 383.913 -1.28163 -4.04796 0
M  V30 3991 O 384.937 -1.13949 -3.37482 0
M  V30 3992 O 383.796 -1.50832 -5.25273 0
M  V30 3993 H 380.89 -0.193868 -0.803955 0
M  V30 3994 H 383.436 -1.08102 -1.30813 0
M  V30 3995 H 382.208 -2.22758 -3.21706 0
M  V30 3996 H 381.831 -0.663363 -3.92027 0
M  V30 3997 N 382.828 1.3818 -0.7579 0
M  V30 3998 C 384.244 1.5353 -0.435972 0
M  V30 3999 C 384.444 1.71961 1.05032 0
M  V30 4000 O 383.5 1.73307 1.83633 0
M  V30 4001 C 384.813 2.73989 -1.23898 0
M  V30 4002 C 386.361 2.87841 -1.22949 0
M  V30 4003 C 386.836 4.11266 -2.01554 0
M  V30 4004 N 388.327 4.18352 -1.98837 0
M  V30 4005 C 389.062 5.12856 -2.5645 0
M  V30 4006 N 388.558 6.13005 -3.22794 0
M  V30 4007 N 390.351 5.05238 -2.46356 0
M  V30 4008 H 382.502 1.24467 -1.7211 0
M  V30 4009 H 384.765 0.604982 -0.729864 0
M  V30 4010 H 384.471 2.66789 -2.29165 0
M  V30 4011 H 384.345 3.67294 -0.858764 0
M  V30 4012 H 386.732 2.9452 -0.184854 0
M  V30 4013 H 386.813 1.95534 -1.64924 0
M  V30 4014 H 386.457 4.05349 -3.06031 0
M  V30 4015 H 386.387 5.02661 -1.5697 0
M  V30 4016 H 388.878 3.46628 -1.50524 0
M  V30 4017 H 389.191 6.81619 -3.64165 0
M  V30 4018 H 387.536 6.13325 -3.2689 0
M  V30 4019 H 390.727 4.25938 -1.9415 0
M  V30 4020 H 390.9 5.78707 -2.91552 0
M  V30 4021 N 384.306 0.507319 1.49211 0
M  V30 4022 C 385.717 0.0611118 1.866 0
M  V30 4023 C 386.068 -1.35488 1.41907 0
M  V30 4024 O 385.193 -2.0108 0.799726 0
M  V30 4025 C 385.788 0.104125 3.3864 0
M  V30 4026 C 384.347 -0.28677 3.75306 0
M  V30 4027 C 383.494 0.473893 2.73221 0
M  V30 4028 H 386.445 0.719775 1.41439 0
M  V30 4029 H 386.466 -0.689672 3.74198 0
M  V30 4030 H 385.978 1.13482 3.71138 0
M  V30 4031 H 384.079 -1.32046 3.48417 0
M  V30 4032 H 384.192 0.0370745 4.79086 0
M  V30 4033 H 382.556 -0.0770644 2.54583 0
M  V30 4034 H 383.339 1.50478 3.08563 0
M  V30 4035 N 385.784 -1.5574 0.241426 0
M  V30 4036 C 387.061 -1.90704 -0.434881 0
M  V30 4037 C 387.441 -1.16145 -1.76277 0
M  V30 4038 O 386.789 -0.277152 -2.26813 0
M  V30 4039 C 386.999 -3.43657 -0.608343 0
M  V30 4040 C 388.347 -4.14806 -0.906725 0
M  V30 4041 O 389.371 -3.49366 -0.694408 0
M  V30 4042 O 388.23 -5.30548 -1.31075 0
M  V30 4043 H 385.324 -0.793592 -0.23268 0
M  V30 4044 H 387.87 -1.67288 0.285086 0
M  V30 4045 H 386.642 -3.89927 0.327505 0
M  V30 4046 H 386.265 -3.72918 -1.37906 0
M  V30 4047 N 387.262 0.0317525 -1.57568 0
M  V30 4048 C 388.508 0.718712 -1.90279 0
M  V30 4049 C 388.863 1.73108 -0.839727 0
M  V30 4050 O 388.156 1.90997 0.15188 0
M  V30 4051 C 388.35 1.43167 -3.27472 0
M  V30 4052 C 388.179 0.489869 -4.47024 0
M  V30 4053 C 386.949 0.111909 -5.05176 0
M  V30 4054 C 389.147 -0.230592 -5.13783 0
M  V30 4055 N 387.129 -0.831427 -6.08244 0
M  V30 4056 C 388.5 -1.02968 -6.1139 0
M  V30 4057 C 390.555 -0.297821 -4.97008 0
M  V30 4058 C 389.258 -1.88982 -6.9403 0
M  V30 4059 C 391.284 -1.14507 -5.80209 0
M  V30 4060 C 390.646 -1.9321 -6.77384 0
M  V30 4061 H 386.745 0.237177 -0.745165 0
M  V30 4062 H 389.329 -0.0211267 -1.94689 0
M  V30 4063 H 387.5 2.14199 -3.23996 0
M  V30 4064 H 389.232 2.0708 -3.47707 0
M  V30 4065 H 385.987 0.473513 -4.71227 0
M  V30 4066 H 386.411 -1.29752 -6.6445 0
M  V30 4067 H 391.053 0.296346 -4.2176 0
M  V30 4068 H 388.771 -2.4948 -7.68626 0
M  V30 4069 H 392.357 -1.20059 -5.69278 0
M  V30 4070 H 391.237 -2.57711 -7.40645 0
M  V30 4071 N 388.74 1.54641 0.303973 0
M  V30 4072 C 389.65 1.88439 1.39743 0
M  V30 4073 C 390.666 0.778239 1.55626 0
M  V30 4074 O 391.842 1.07442 1.70347 0
M  V30 4075 C 388.907 2.12212 2.74166 0
M  V30 4076 C 387.968 3.35936 2.67293 0
M  V30 4077 C 387.201 3.58566 3.95305 0
M  V30 4078 O 387.424 2.84263 4.9452 0
M  V30 4079 O 386.358 4.52078 3.97378 0
M  V30 4080 H 390.184 2.81458 1.14083 0
M  V30 4081 H 387.769 1.40793 0.499768 0
M  V30 4082 H 389.651 2.29067 3.53704 0
M  V30 4083 H 388.326 1.22379 2.99675 0
M  V30 4084 H 387.233 3.24448 1.86237 0
M  V30 4085 H 388.566 4.2589 2.46736 0
M  V30 4086 N 390.218 -0.567019 1.47046 0
M  V30 4087 C 391.128 -1.70247 1.6141 0
M  V30 4088 C 392.144 -1.66746 0.497157 0
M  V30 4089 O 393.32 -1.86371 0.763389 0
M  V30 4090 C 390.385 -3.06756 1.61561 0
M  V30 4091 C 389.446 -3.21399 2.84607 0
M  V30 4092 C 388.679 -4.51396 2.84741 0
M  V30 4093 O 388.902 -5.36255 1.94388 0
M  V30 4094 O 387.836 -4.69621 3.76483 0
M  V30 4095 H 391.662 -1.61073 2.57467 0
M  V30 4096 H 389.247 -0.735894 1.30019 0
M  V30 4097 H 391.129 -3.8801 1.64396 0
M  V30 4098 H 389.804 -3.16333 0.686684 0
M  V30 4099 H 388.711 -2.39579 2.8732 0
M  V30 4100 H 390.044 -3.16721 3.76761 0
M  V30 4101 N 391.696 -1.35014 -0.812953 0
M  V30 4102 C 392.659 -1.27292 -1.90602 0
M  V30 4103 C 393.659 -0.185817 -1.59723 0
M  V30 4104 O 394.849 -0.439102 -1.68575 0
M  V30 4105 C 391.981 -0.967676 -3.26877 0
M  V30 4106 H 393.174 -2.24479 -1.9887 0
M  V30 4107 H 390.727 -1.19446 -1.00808 0
M  V30 4108 H 391.462 0.0005954 -3.243 0
M  V30 4109 H 391.247 -1.75412 -3.50675 0
M  V30 4110 H 392.737 -0.939085 -4.06904 0
M  V30 4111 N 393.175 1.03435 -1.18907 0
M  V30 4112 C 394.421 1.77005 -0.989798 0
M  V30 4113 C 394.754 1.88205 0.478816 0
M  V30 4114 O 394.029 1.39481 1.35556 0
M  V30 4115 C 394.312 3.19925 -1.65287 0
M  V30 4116 C 394.165 3.1663 -3.19477 0
M  V30 4117 C 395.484 4.18189 -1.37134 0
M  V30 4118 H 392.603 0.642538 -0.360991 0
M  V30 4119 H 395.245 1.20784 -1.46667 0
M  V30 4120 H 393.395 3.67929 -1.24741 0
M  V30 4121 H 395.067 2.76567 -3.692 0
M  V30 4122 H 393.31 2.54491 -3.51307 0
M  V30 4123 H 393.981 4.1758 -3.61013 0
M  V30 4124 H 396.457 3.78761 -1.72276 0
M  V30 4125 H 395.333 5.16394 -1.86087 0
M  V30 4126 H 395.594 4.41112 -0.295424 0
M  V30 4127 N 394.653 0.992116 1.22453 0
M  V30 4128 C 395.6 0.541731 2.24352 0
M  V30 4129 C 396.57 -0.425519 1.60557 0
M  V30 4130 O 397.755 -0.330453 1.87917 0
M  V30 4131 C 394.895 -0.138248 3.44823 0
M  V30 4132 C 394.008 0.870649 4.23136 0
M  V30 4133 C 393.143 0.164269 5.30946 0
M  V30 4134 C 392.182 1.16159 6.00977 0
M  V30 4135 N 391.319 0.483568 7.00433 0
M  V30 4136 H 396.159 1.41541 2.62241 0
M  V30 4137 H 393.696 0.709013 1.28885 0
M  V30 4138 H 395.654 -0.5494 4.13567 0
M  V30 4139 H 394.284 -0.975721 3.077 0
M  V30 4140 H 393.336 1.40013 3.53696 0
M  V30 4141 H 394.648 1.63014 4.7141 0
M  V30 4142 H 393.802 -0.303653 6.0594 0
M  V30 4143 H 392.541 -0.627733 4.83643 0
M  V30 4144 H 391.546 1.64015 5.24766 0
M  V30 4145 H 392.771 1.95445 6.50368 0
M  V30 4146 H 390.717 -0.289012 6.55363 0
M  V30 4147 H 390.634 1.18152 7.4671 0
M  V30 4148 H 391.902 0.0384219 7.79491 0
M  V30 4149 N 396.131 -1.37776 0.765217 0
M  V30 4150 C 397.064 -2.28008 0.0935025 0
M  V30 4151 C 398.042 -1.45985 -0.716047 0
M  V30 4152 O 399.226 -1.75331 -0.692203 0
M  V30 4153 C 396.353 -3.27228 -0.874052 0
M  V30 4154 C 395.399 -4.26239 -0.149307 0
M  V30 4155 S 396.232 -5.22827 1.15809 0
M  V30 4156 C 397.388 -6.256 0.193906 0
M  V30 4157 H 397.621 -2.84631 0.858637 0
M  V30 4158 H 395.154 -1.43952 0.558313 0
M  V30 4159 H 397.112 -3.84902 -1.42691 0
M  V30 4160 H 395.773 -2.69565 -1.61225 0
M  V30 4161 H 394.966 -4.96213 -0.88254 0
M  V30 4162 H 394.568 -3.7252 0.332366 0
M  V30 4163 H 396.86 -6.74508 -0.636011 0
M  V30 4164 H 397.803 -7.02838 0.861638 0
M  V30 4165 H 398.211 -5.64173 -0.191975 0
M  V30 4166 N 397.609 -0.515225 -1.4894 0
M  V30 4167 C 399.02 -0.0710067 -1.86565 0
M  V30 4168 C 399.371 1.34733 -1.42623 0
M  V30 4169 O 398.496 2.00653 -0.810379 0
M  V30 4170 C 399.091 -0.122083 -3.3858 0
M  V30 4171 C 397.65 0.266863 -3.75453 0
M  V30 4172 C 396.797 -0.488376 -2.72966 0
M  V30 4173 H 399.748 -0.727266 -1.41055 0
M  V30 4174 H 399.769 0.669818 -3.74558 0
M  V30 4175 H 399.281 -1.15448 -3.70531 0
M  V30 4176 H 397.382 1.30196 -3.49113 0
M  V30 4177 H 397.495 -0.0624811 -4.79059 0
M  V30 4178 H 395.859 0.0635622 -2.54621 0
M  V30 4179 H 396.642 -1.52113 -3.07761 0
M  V30 4180 N 399.087 1.5561 -0.249682 0
M  V30 4181 C 400.333 1.99306 0.374841 0
M  V30 4182 C 400.666 1.13767 1.57387 0
M  V30 4183 O 399.941 0.201711 1.93451 0
M  V30 4184 C 400.224 3.51507 0.781986 0
M  V30 4185 C 400.077 4.4781 -0.422629 0
M  V30 4186 C 401.396 4.08884 1.62793 0
M  V30 4187 H 398.515 0.724572 0.134773 0
M  V30 4188 H 401.157 1.86719 -0.351549 0
M  V30 4189 H 399.307 3.62363 1.4009 0
M  V30 4190 H 400.979 4.48931 -1.06108 0
M  V30 4191 H 399.222 4.20518 -1.06524 0
M  V30 4192 H 399.893 5.51919 -0.0943766 0
M  V30 4193 H 402.369 4.01147 1.10547 0
M  V30 4194 H 401.245 5.1564 1.88166 0
M  V30 4195 H 401.506 3.57515 2.60068 0
M  V30 4196 N 400.565 -0.0233959 1.57583 0
M  V30 4197 C 401.813 -0.711654 1.89156 0
M  V30 4198 C 402.134 -1.75591 0.848096 0
M  V30 4199 O 401.404 -1.95547 -0.117566 0
M  V30 4200 H 399.984 -0.265835 0.698098 0
M  V30 4201 H 402.646 0.0119948 1.94896 0
M  V30 4202 H 401.742 -1.19766 2.88206 0
M  V30 4203 N 402.043 -1.548 -0.295768 0
M  V30 4204 C 403.292 -1.73538 -1.02798 0
M  V30 4205 C 403.605 -0.531159 -1.8825 0
M  V30 4206 O 404.811 -0.600458 -2.64777 0
M  V30 4207 C 403.267 -3.07051 -1.87744 0
M  V30 4208 C 402.875 -4.34968 -1.07269 0
M  V30 4209 C 404.619 -3.35146 -2.60533 0
M  V30 4210 C 402.526 -5.5953 -1.91521 0
M  V30 4211 H 401.456 -0.646794 -0.387522 0
M  V30 4212 H 404.107 -1.81278 -0.284718 0
M  V30 4213 H 402.489 -2.93289 -2.66078 0
M  V30 4214 H 403.663 -4.5958 -0.335117 0
M  V30 4215 H 401.978 -4.13847 -0.460384 0
M  V30 4216 H 404.575 -4.2541 -3.23929 0
M  V30 4217 H 404.918 -2.54255 -3.29636 0
M  V30 4218 H 405.451 -3.49902 -1.89244 0
M  V30 4219 H 402.19 -6.43103 -1.26878 0
M  V30 4220 H 401.71 -5.39096 -2.62937 0
M  V30 4221 H 403.389 -5.96982 -2.49442 0
M  V30 4222 N 403.521 0.559213 -1.47345 0
M  V30 4223 C 404.451 1.67622 -1.62558 0
M  V30 4224 C 405.432 1.63331 -0.475087 0
M  V30 4225 O 406.617 1.80983 -0.704182 0
M  V30 4226 C 403.747 3.0626 -1.63774 0
M  V30 4227 C 402.701 3.25397 -2.7803 0
M  V30 4228 C 402.027 4.64801 -2.64318 0
M  V30 4229 C 403.327 3.10965 -4.19641 0
M  V30 4230 H 405.021 1.55146 -2.56067 0
M  V30 4231 H 402.567 0.744961 -1.23233 0
M  V30 4232 H 404.52 3.84247 -1.73008 0
M  V30 4233 H 403.244 3.1969 -0.66825 0
M  V30 4234 H 401.903 2.49817 -2.68304 0
M  V30 4235 H 401.551 4.75028 -1.65401 0
M  V30 4236 H 401.251 4.78555 -3.40968 0
M  V30 4237 H 402.775 5.44926 -2.75478 0
M  V30 4238 H 404.189 3.78772 -4.30354 0
M  V30 4239 H 402.586 3.36229 -4.97062 0
M  V30 4240 H 403.656 2.07736 -4.38148 0
M  V30 4241 N 404.999 1.35443 0.805782 0
M  V30 4242 C 406.41 1.25768 1.37983 0
M  V30 4243 C 406.761 -0.10958 1.95894 0
M  V30 4244 O 405.886 -1.01056 1.91355 0
M  V30 4245 C 406.481 2.27727 2.5085 0
M  V30 4246 C 405.04 2.2179 3.04115 0
M  V30 4247 C 404.187 2.13393 1.77084 0
M  V30 4248 H 407.138 1.4656 0.608752 0
M  V30 4249 H 407.159 1.90422 3.29424 0
M  V30 4250 H 406.671 3.27227 2.08671 0
M  V30 4251 H 404.772 1.25703 3.50756 0
M  V30 4252 H 404.885 3.13788 3.62042 0
M  V30 4253 H 403.249 1.59384 1.98668 0
M  V30 4254 H 404.032 3.14755 1.37056 0
M  V30 4255 N 406.477 -1.02803 1.19454 0
M  V30 4256 C 407.717 -1.77769 1.00883 0
M  V30 4257 C 408.081 -1.86596 -0.45233 0
M  V30 4258 O 409.282 -2.57895 -0.757877 0
M  V30 4259 C 407.553 -3.16486 1.66046 0
M  V30 4260 S 409.112 -4.07632 1.62424 0
M  V30 4261 H 405.93 -0.611949 0.361993 0
M  V30 4262 H 408.532 -1.23175 1.51816 0
M  V30 4263 H 407.236 -3.0768 2.7159 0
M  V30 4264 H 406.767 -3.76156 1.15196 0
M  V30 4265 H 408.782 -4.91937 0.64903 0
M  V30 4266 N 407.956 -0.998596 -1.21925 0
M  V30 4267 C 409.204 -0.676325 -1.90448 0
M  V30 4268 C 409.525 0.794719 -1.78071 0
M  V30 4269 O 408.795 1.5701 -1.17152 0
M  V30 4270 H 407.375 -0.247165 -0.704925 0
M  V30 4271 H 410.037 -1.26633 -1.48156 0
M  V30 4272 H 409.133 -0.943858 -2.97486 0
M  V30 4273 N 409.434 1.37368 -0.772513 0
M  V30 4274 C 410.659 2.0447 -0.347386 0
M  V30 4275 C 411.084 1.57882 1.0225 0
M  V30 4276 O 410.442 0.73941 1.65537 0
M  V30 4277 C 410.49 3.58369 -0.400479 0
M  V30 4278 O 409.594 4.0803 0.598789 0
M  V30 4279 H 408.935 0.646773 -0.15027 0
M  V30 4280 H 411.465 1.75667 -1.04892 0
M  V30 4281 H 411.475 4.07183 -0.258045 0
M  V30 4282 H 410.15 3.91633 -1.39986 0
M  V30 4283 H 408.727 3.70534 0.419411 0
M  V30 4284 N 410.912 0.523116 1.48665 0
M  V30 4285 C 412.16 -0.0134497 2.02096 0
M  V30 4286 C 412.481 -1.35418 1.40311 0
M  V30 4287 O 411.751 -1.87543 0.566074 0
M  V30 4288 H 410.331 -0.00795915 0.746958 0
M  V30 4289 H 412.993 0.685388 1.82451 0
M  V30 4290 H 412.089 -0.126849 3.11842 0
M  V30 4291 N 412.39 -1.55475 0.257931 0
M  V30 4292 C 413.338 -2.23244 -0.653076 0
M  V30 4293 C 414.332 -1.22366 -1.17144 0
M  V30 4294 O 415.538 -1.40347 -1.12706 0
M  V30 4295 H 411.913 -0.716247 -0.229117 0
M  V30 4296 H 413.884 -2.98343 -0.0584788 0
M  V30 4297 C 412.633 -2.95401 -1.83395 0
M  V30 4298 H 411.956 -3.72802 -1.44424 0
M  V30 4299 H 413.396 -3.46165 -2.44838 0
M  V30 4300 C 411.855 -1.99895 -2.71189 0
M  V30 4301 O 412.385 -1.53909 -3.71046 0
M  V30 4302 N 410.591 -1.6676 -2.3799 0
M  V30 4303 H 410.138 -2.04352 -1.56837 0
M  V30 4304 H 410.096 -1.03127 -2.97005 0
M  V30 4305 N 413.868 0.0150385 -1.57593 0
M  V30 4306 C 414.831 0.995996 -2.06428 0
M  V30 4307 C 415.831 1.2818 -0.970903 0
M  V30 4308 O 417.021 1.22949 -1.23406 0
M  V30 4309 C 414.153 2.32506 -2.49307 0
M  V30 4310 H 415.346 0.573873 -2.94358 0
M  V30 4311 H 412.899 0.262186 -1.54085 0
M  V30 4312 H 413.634 2.79438 -1.64575 0
M  V30 4313 H 413.419 2.13087 -3.29145 0
M  V30 4314 H 414.909 3.02906 -2.87468 0
M  V30 4315 N 415.346 1.54954 0.287554 0
M  V30 4316 C 416.276 1.89839 1.35954 0
M  V30 4317 C 417.257 0.758675 1.52244 0
M  V30 4318 O 418.442 1.01557 1.65529 0
M  V30 4319 C 415.572 2.15753 2.72154 0
M  V30 4320 C 414.526 3.3159 2.70614 0
M  V30 4321 C 413.852 3.42952 4.10229 0
M  V30 4322 C 415.152 4.68359 2.31165 0
M  V30 4323 H 416.846 2.79625 1.07007 0
M  V30 4324 H 414.392 1.3454 0.513316 0
M  V30 4325 H 416.345 2.38743 3.47246 0
M  V30 4326 H 415.069 1.22752 3.02654 0
M  V30 4327 H 413.728 3.08545 1.97979 0
M  V30 4328 H 413.376 2.47443 4.37928 0
M  V30 4329 H 413.076 4.20826 4.10097 0
M  V30 4330 H 414.6 3.68218 4.87081 0
M  V30 4331 H 416.014 4.9099 2.95976 0
M  V30 4332 H 414.411 5.49044 2.42221 0
M  V30 4333 H 415.481 4.68165 1.26291 0
M  V30 4334 N 416.824 -0.551391 1.4764 0
M  V30 4335 C 417.787 -1.64007 1.60107 0
M  V30 4336 C 418.787 -1.53601 0.47576 0
M  V30 4337 O 419.977 -1.57655 0.740988 0
M  V30 4338 C 417.109 -3.03569 1.55108 0
M  V30 4339 H 418.302 -1.543 2.57161 0
M  V30 4340 H 415.855 -0.771776 1.35917 0
M  V30 4341 H 416.59 -3.18804 0.594519 0
M  V30 4342 H 416.375 -3.12532 2.36783 0
M  V30 4343 H 417.865 -3.82762 1.66982 0
M  V30 4344 N 418.302 -1.35869 -0.798587 0
M  V30 4345 C 419.55 -1.29332 -1.55298 0
M  V30 4346 C 419.871 0.129729 -1.94568 0
M  V30 4347 O 419.141 1.06796 -1.6423 0
M  V30 4348 H 417.721 -0.475737 -0.57592 0
M  V30 4349 H 420.383 -1.70062 -0.952093 0
M  V30 4350 H 419.479 -1.91458 -2.46476 0
M  V30 4351 N 419.78 1.02168 -1.19998 0
M  V30 4352 C 420.743 2.08765 -0.94604 0
M  V30 4353 C 421.743 1.60618 0.0763846 0
M  V30 4354 O 422.933 1.73472 -0.159135 0
M  V30 4355 C 420.065 3.38262 -0.423255 0
M  V30 4356 H 421.258 2.32726 -1.89153 0
M  V30 4357 H 418.811 1.1889 -1.01464 0
M  V30 4358 H 419.546 3.19974 0.527938 0
M  V30 4359 H 419.331 3.74532 -1.16053 0
M  V30 4360 H 420.821 4.16759 -0.264911 0
M  V30 4361 N 421.258 1.00505 1.21394 0
M  V30 4362 C 422.504 0.688793 1.90745 0
M  V30 4363 C 422.837 -0.778486 1.77914 0
M  V30 4364 O 422.112 -1.56433 1.15581 0
M  V30 4365 C 422.395 1.11063 3.42545 0
M  V30 4366 C 422.248 2.63737 3.64367 0
M  V30 4367 C 423.567 0.673059 4.34923 0
M  V30 4368 H 420.686 0.251702 0.692687 0
M  V30 4369 H 423.328 1.25074 1.43026 0
M  V30 4370 H 421.478 0.632508 3.83317 0
M  V30 4371 H 423.15 3.19313 3.32922 0
M  V30 4372 H 421.393 3.05248 3.08231 0
M  V30 4373 H 422.064 2.88305 4.70727 0
M  V30 4374 H 424.54 1.08392 4.01734 0
M  V30 4375 H 423.416 0.996383 5.39781 0
M  V30 4376 H 423.677 -0.425808 4.40045 0
M  V30 4377 N 422.737 -1.36956 0.779787 0
M  V30 4378 C 423.685 -2.32053 0.15942 0
M  V30 4379 C 424.679 -1.55333 -0.675878 0
M  V30 4380 O 425.885 -1.70668 -0.57204 0
M  V30 4381 H 422.26 -0.751286 0.0327707 0
M  V30 4382 H 424.231 -2.8195 0.977078 0
M  V30 4383 C 422.98 -3.40602 -0.698977 0
M  V30 4384 H 422.303 -3.99746 -0.0655966 0
M  V30 4385 H 423.743 -4.09486 -1.09989 0
M  V30 4386 C 422.202 -2.81359 -1.85307 0
M  V30 4387 O 422.732 -2.72751 -2.94906 0
M  V30 4388 N 420.938 -2.38786 -1.65619 0
M  V30 4389 H 420.485 -2.45987 -0.764725 0
M  V30 4390 H 420.443 -1.99493 -2.43002 0
M  V30 4391 N 424.215 -0.530993 -1.48385 0
M  V30 4392 C 425.147 0.268353 -2.27624 0
M  V30 4393 C 426.16 0.903525 -1.35426 0
M  V30 4394 O 427.349 0.781796 -1.60469 0
M  V30 4395 C 424.449 1.39535 -3.08842 0
M  V30 4396 C 423.622 0.861913 -4.28824 0
M  V30 4397 C 422.681 1.87016 -4.91845 0
M  V30 4398 O 421.707 1.4267 -5.5103 0
M  V30 4399 N 422.909 3.20238 -4.84178 0
M  V30 4400 H 425.674 -0.41123 -2.96865 0
M  V30 4401 H 423.235 -0.365387 -1.57723 0
M  V30 4402 H 425.227 2.06803 -3.47871 0
M  V30 4403 H 423.797 1.97859 -2.42014 0
M  V30 4404 H 423.017 0.0132126 -3.94198 0
M  V30 4405 H 424.305 0.484415 -5.06489 0
M  V30 4406 H 423.703 3.58932 -4.37246 0
M  V30 4407 H 422.26 3.83136 -5.27305 0
M  V30 4408 N 425.693 1.55336 -0.266172 0
M  V30 4409 C 426.643 2.18848 0.639497 0
M  V30 4410 C 427.627 1.1503 1.12503 0
M  V30 4411 O 428.819 1.40875 1.0716 0
M  V30 4412 C 425.948 2.90626 1.82733 0
M  V30 4413 C 425.034 4.01723 1.35939 0
M  V30 4414 N 425.425 5.02145 0.606988 0
M  V30 4415 C 423.723 4.1463 1.6431 0
M  V30 4416 C 424.424 5.80572 0.362138 0
M  V30 4417 N 423.4 5.35551 0.931971 0
M  V30 4418 H 427.202 2.93845 0.0567057 0
M  V30 4419 H 424.716 1.62252 -0.0693312 0
M  V30 4420 H 426.713 3.34569 2.48735 0
M  V30 4421 H 425.373 2.17137 2.41416 0
M  V30 4422 H 426.384 5.17271 0.255198 0
M  V30 4423 H 423.061 3.52326 2.23993 0
M  V30 4424 H 424.451 6.71472 -0.239848 0
M  V30 4425 N 427.171 -0.0066808 1.57599 0
M  V30 4426 C 428.419 -0.691552 1.899 0
M  V30 4427 C 428.74 -1.74682 0.866672 0
M  V30 4428 O 428.01 -1.95661 -0.0968189 0
M  V30 4429 H 426.59 -0.258416 0.700878 0
M  V30 4430 H 429.252 0.0326655 1.94873 0
M  V30 4431 H 428.348 -1.16702 2.8946 0
M  V30 4432 N 428.649 -1.55105 -0.279332 0
M  V30 4433 C 429.897 -1.75066 -1.00977 0
M  V30 4434 C 430.218 -0.551276 -1.87045 0
M  V30 4435 O 429.488 0.433984 -1.91032 0
M  V30 4436 H 428.068 -0.645578 -0.375816 0
M  V30 4437 H 430.73 -1.92497 -0.305089 0
M  V30 4438 H 429.826 -2.64894 -1.65038 0
M  V30 4439 N 430.127 0.543554 -1.4793 0
M  V30 4440 C 431.374 1.30008 -1.55255 0
M  V30 4441 C 431.702 1.93245 -0.220612 0
M  V30 4442 O 430.957 1.79141 0.787843 0
M  V30 4443 C 431.256 2.42078 -2.62932 0
M  V30 4444 C 430.922 1.96583 -4.0579 0
M  V30 4445 C 429.584 1.83893 -4.44676 0
M  V30 4446 C 431.936 1.62034 -4.95373 0
M  V30 4447 C 429.264 1.34969 -5.70964 0
M  V30 4448 C 431.616 1.14577 -6.22137 0
M  V30 4449 C 430.28 1.00493 -6.59892 0
M  V30 4450 H 429.55 0.475735 -0.568117 0
M  V30 4451 H 432.197 0.608075 -1.81589 0
M  V30 4452 H 430.502 3.16892 -2.30406 0
M  V30 4453 H 432.199 3.00236 -2.65818 0
M  V30 4454 H 428.789 2.07407 -3.75074 0
M  V30 4455 H 432.973 1.70705 -4.66019 0
M  V30 4456 H 428.229 1.2274 -5.98953 0
M  V30 4457 H 432.403 0.869109 -6.90955 0
M  V30 4458 H 430.03 0.623624 -7.57638 0
M  V30 4459 N 431.605 1.3629 0.791371 0
M  V30 4460 C 432.515 1.32606 1.93527 0
M  V30 4461 C 433.531 0.228541 1.72493 0
M  V30 4462 O 434.707 0.460571 1.96063 0
M  V30 4463 C 431.772 1.11271 3.28359 0
M  V30 4464 C 430.833 2.3048 3.62185 0
M  V30 4465 C 430.066 2.10154 4.90583 0
M  V30 4466 O 430.289 1.07572 5.60165 0
M  V30 4467 O 429.223 2.97884 5.23019 0
M  V30 4468 H 433.049 2.28909 1.99585 0
M  V30 4469 H 430.634 1.16818 0.931344 0
M  V30 4470 H 432.516 1.01283 4.09047 0
M  V30 4471 H 431.191 0.180292 3.23198 0
M  V30 4472 H 430.098 2.46036 2.81811 0
M  V30 4473 H 431.431 3.22221 3.72068 0
M  V30 4474 N 433.083 -1.0153 1.20538 0
M  V30 4475 C 434.494 -1.56598 1.01657 0
M  V30 4476 C 434.845 -1.91505 -0.426668 0
M  V30 4477 O 433.97 -1.72375 -1.30827 0
M  V30 4478 C 434.565 -2.84542 1.83905 0
M  V30 4479 C 433.124 -3.36133 1.69386 0
M  V30 4480 C 432.271 -2.09427 1.81757 0
M  V30 4481 H 435.222 -0.838974 1.34711 0
M  V30 4482 H 435.243 -3.56004 1.34319 0
M  V30 4483 H 434.755 -2.59105 2.8894 0
M  V30 4484 H 432.856 -3.66528 0.669933 0
M  V30 4485 H 432.969 -4.08248 2.50739 0
M  V30 4486 H 431.333 -2.21941 1.24957 0
M  V30 4487 H 432.116 -1.86414 2.88279 0
M  V30 4488 N 434.561 -1.01147 -1.20859 0
M  V30 4489 C 435.524 -0.582224 -2.21682 0
M  V30 4490 C 436.524 0.344887 -1.57058 0
M  V30 4491 O 437.714 0.134281 -1.73682 0
M  V30 4492 C 434.846 0.150496 -3.40568 0
M  V30 4493 H 436.039 -1.47408 -2.61172 0
M  V30 4494 H 433.592 -0.800695 -1.34233 0
M  V30 4495 H 434.327 1.0575 -3.06574 0
M  V30 4496 H 434.112 -0.515444 -3.88697 0
M  V30 4497 H 435.602 0.438344 -4.15293 0
M  V30 4498 N 436.039 1.36541 -0.78704 0
M  V30 4499 C 436.969 2.32659 -0.197992 0
M  V30 4500 C 437.95 1.56533 0.665697 0
M  V30 4501 O 439.135 1.84698 0.60001 0
M  V30 4502 C 436.265 3.40778 0.669901 0
M  V30 4503 C 435.219 4.27897 -0.0937039 0
M  V30 4504 C 434.545 5.27163 0.894629 0
M  V30 4505 C 435.845 5.06334 -1.28154 0
M  V30 4506 H 437.539 2.82171 -1.00099 0
M  V30 4507 H 435.085 1.35665 -0.482793 0
M  V30 4508 H 437.038 4.07008 1.09191 0
M  V30 4509 H 435.762 2.89827 1.50558 0
M  V30 4510 H 434.421 3.6322 -0.49666 0
M  V30 4511 H 434.069 4.72486 1.72527 0
M  V30 4512 H 433.769 5.86317 0.388149 0
M  V30 4513 H 435.293 5.96266 1.31525 0
M  V30 4514 H 436.707 5.65617 -0.93541 0
M  V30 4515 H 435.104 5.74888 -1.72115 0
M  V30 4516 H 436.174 4.38114 -2.07807 0
M  V30 4517 N 437.518 0.538854 1.48102 0
M  V30 4518 C 438.766 0.00798599 2.02098 0
M  V30 4519 C 439.087 -1.33922 1.41739 0
M  V30 4520 O 438.357 -1.86932 0.585934 0
M  V30 4521 H 436.937 -3.62179e-05 0.747 0
M  V30 4522 H 439.599 0.7047 1.81714 0
M  V30 4523 H 438.695 -0.0937672 3.11959 0
M  V30 4524 N 438.996 -1.55193 0.274407 0
M  V30 4525 C 439.926 -2.25471 -0.607032 0
M  V30 4526 C 440.907 -1.24461 -1.15946 0
M  V30 4527 O 442.092 -1.53179 -1.19373 0
M  V30 4528 C 439.222 -2.97526 -1.79153 0
M  V30 4529 C 438.176 -4.05459 -1.37067 0
M  V30 4530 C 437.502 -4.65084 -2.6382 0
M  V30 4531 C 438.802 -5.19691 -0.521389 0
M  V30 4532 H 440.496 -2.99393 -0.0209343 0
M  V30 4533 H 438.042 -1.43997 -0.00862866 0
M  V30 4534 H 439.995 -3.45402 -2.41404 0
M  V30 4535 H 438.719 -2.21138 -2.40344 0
M  V30 4536 H 437.378 -3.58393 -0.771355 0
M  V30 4537 H 437.026 -3.85365 -3.23268 0
M  V30 4538 H 436.726 -5.37961 -2.36372 0
M  V30 4539 H 438.25 -5.15708 -3.26921 0
M  V30 4540 H 439.664 -5.63623 -1.04889 0
M  V30 4541 H 438.061 -5.99126 -0.341825 0
M  V30 4542 H 439.131 -4.82713 0.46 0
M  V30 4543 N 440.474 -0.00167713 -1.576 0
M  V30 4544 C 441.751 0.719951 -1.81868 0
M  V30 4545 C 442.131 1.91895 -0.879747 0
M  V30 4546 O 441.479 2.28389 0.0711423 0
M  V30 4547 C 441.689 1.12409 -3.30402 0
M  V30 4548 C 443.037 1.52724 -3.96182 0
M  V30 4549 O 444.061 1.21784 -3.34734 0
M  V30 4550 O 442.92 2.10265 -5.04431 0
M  V30 4551 H 440.014 0.350707 -0.748955 0
M  V30 4552 H 442.56 -0.0272597 -1.69678 0
M  V30 4553 H 441.332 0.269532 -3.90371 0
M  V30 4554 H 440.955 1.93035 -3.47596 0
M  V30 4555 N 441.952 1.55251 0.271103 0
M  V30 4556 C 442.882 1.9127 1.33933 0
M  V30 4557 C 443.863 0.77478 1.5143 0
M  V30 4558 O 445.048 1.03307 1.64442 0
M  V30 4559 C 442.178 2.18627 2.69851 0
M  V30 4560 C 441.132 3.34442 2.67081 0
M  V30 4561 C 440.458 3.47284 4.06569 0
M  V30 4562 C 441.758 4.70784 2.26185 0
M  V30 4563 H 443.452 2.80744 1.04035 0
M  V30 4564 H 440.998 1.35077 0.499017 0
M  V30 4565 H 442.951 2.42413 3.44694 0
M  V30 4566 H 441.675 1.25955 3.01335 0
M  V30 4567 H 440.334 3.10627 1.94695 0
M  V30 4568 H 439.982 2.52074 4.35279 0
M  V30 4569 H 439.682 4.25152 4.0561 0
M  V30 4570 H 441.206 3.73363 4.83148 0
M  V30 4571 H 442.62 4.94102 2.90751 0
M  V30 4572 H 441.017 5.51582 2.36384 0
M  V30 4573 H 442.087 4.69478 1.21319 0
M  V30 4574 N 443.43 -0.535701 1.48216 0
M  V30 4575 C 444.36 -1.65014 1.65204 0
M  V30 4576 C 445.341 -1.62554 0.501011 0
M  V30 4577 O 446.526 -1.7984 0.732886 0
M  V30 4578 C 443.656 -3.03616 1.68626 0
M  V30 4579 C 442.61 -3.20932 2.83172 0
M  V30 4580 C 441.936 -4.60537 2.71679 0
M  V30 4581 C 443.236 -3.04249 4.24535 0
M  V30 4582 H 444.93 -1.51053 2.58502 0
M  V30 4583 H 442.476 -0.725262 1.24402 0
M  V30 4584 H 444.429 -3.81446 1.79099 0
M  V30 4585 H 443.153 -3.18587 0.719026 0
M  V30 4586 H 441.812 -2.45517 2.72244 0
M  V30 4587 H 441.46 -4.72336 1.72937 0
M  V30 4588 H 441.16 -4.73069 3.48538 0
M  V30 4589 H 442.684 -5.40475 2.84112 0
M  V30 4590 H 444.098 -3.71877 4.36326 0
M  V30 4591 H 442.495 -3.28278 5.02348 0
M  V30 4592 H 443.565 -2.00739 4.41397 0
M  V30 4593 N 444.908 -1.36708 -0.784132 0
M  V30 4594 C 445.838 -1.34153 -1.91116 0
M  V30 4595 C 446.819 -0.212121 -1.68772 0
M  V30 4596 O 448.004 -0.410581 -1.8981 0
M  V30 4597 C 445.134 -1.13535 -3.28218 0
M  V30 4598 C 444.088 -2.23356 -3.65097 0
M  V30 4599 C 443.414 -1.87875 -5.00607 0
M  V30 4600 C 444.714 -3.65473 -3.73131 0
M  V30 4601 H 446.408 -2.28459 -1.93512 0
M  V30 4602 H 443.954 -1.09973 -0.929618 0
M  V30 4603 H 445.907 -1.10381 -4.06687 0
M  V30 4604 H 444.631 -0.156804 -3.26223 0
M  V30 4605 H 443.29 -2.25645 -2.88929 0
M  V30 4606 H 442.938 -0.885814 -4.95139 0
M  V30 4607 H 442.638 -2.61406 -5.26252 0
M  V30 4608 H 444.162 -1.86286 -5.81489 0
M  V30 4609 H 445.576 -3.65382 -4.41779 0
M  V30 4610 H 443.973 -4.37953 -4.10265 0
M  V30 4611 H 445.043 -3.99995 -2.74102 0
M  V30 4612 N 446.386 1.0089 -1.21074 0
M  V30 4613 C 447.334 2.11707 -0.963476 0
M  V30 4614 C 448.328 1.69172 0.0879032 0
M  V30 4615 O 449.534 1.79889 -0.0631415 0
M  V30 4616 H 445.909 0.692026 -0.294287 0
M  V30 4617 H 447.88 2.29743 -1.90422 0
M  V30 4618 C 446.629 3.43473 -0.540509 0
M  V30 4619 H 445.952 3.76634 -1.34114 0
M  V30 4620 H 447.392 4.22044 -0.406777 0
M  V30 4621 C 445.851 3.2849 0.748079 0
M  V30 4622 O 446.381 3.58883 1.8046 0
M  V30 4623 N 444.587 2.81715 0.713081 0
M  V30 4624 H 444.134 2.5718 -0.146973 0
M  V30 4625 H 444.092 2.72071 1.57558 0
M  V30 4626 N 447.864 1.01787 1.20321 0
M  V30 4627 C 449.104 0.716493 1.91431 0
M  V30 4628 C 449.468 -0.740352 1.77152 0
M  V30 4629 O 450.669 -1.1543 2.42754 0
M  V30 4630 C 448.94 1.14169 3.38674 0
M  V30 4631 S 450.499 0.962482 4.28114 0
M  V30 4632 H 447.317 0.261175 0.661293 0
M  V30 4633 H 449.919 1.30539 1.45533 0
M  V30 4634 H 448.623 2.19784 3.46588 0
M  V30 4635 H 448.154 0.545621 3.89598 0
M  V30 4636 H 450.169 -0.133253 4.96021 0
M  V30 4637 N 449.342 -1.36122 0.79427 0
M  V30 4638 C 450.567 -2.03891 0.379871 0
M  V30 4639 C 450.992 -1.59488 -0.997251 0
M  V30 4640 O 450.35 -0.765652 -1.64339 0
M  V30 4641 C 450.398 -3.57687 0.457442 0
M  V30 4642 O 449.502 -4.08931 -0.5338 0
M  V30 4643 H 448.843 -0.6443 0.160541 0
M  V30 4644 H 451.373 -1.73976 1.07673 0
M  V30 4645 H 451.383 -4.06721 0.322792 0
M  V30 4646 H 450.058 -3.89357 1.46199 0
M  V30 4647 H 448.635 -3.71154 -0.360409 0
M  V30 4648 N 450.82 -0.546701 -1.47814 0
M  V30 4649 C 451.75 0.195317 -2.32682 0
M  V30 4650 C 452.731 0.918981 -1.43139 0
M  V30 4651 O 453.916 0.901501 -1.72008 0
M  V30 4652 C 451.046 1.23237 -3.247 0
M  V30 4653 C 450 0.625818 -4.234 0
M  V30 4654 C 449.326 1.76674 -5.04669 0
M  V30 4655 C 450.626 -0.413515 -5.2066 0
M  V30 4656 H 452.32 -0.513184 -2.94969 0
M  V30 4657 H 449.866 -0.248241 -1.41844 0
M  V30 4658 H 451.819 1.75955 -3.82907 0
M  V30 4659 H 450.543 1.97067 -2.60446 0
M  V30 4660 H 449.202 0.120023 -3.66403 0
M  V30 4661 H 448.85 2.49383 -4.36826 0
M  V30 4662 H 448.55 1.36673 -5.71484 0
M  V30 4663 H 450.074 2.29738 -5.65732 0
M  V30 4664 H 451.488 0.0272042 -5.73294 0
M  V30 4665 H 449.885 -0.731825 -5.95621 0
M  V30 4666 H 450.955 -1.31325 -4.66778 0
M  V30 4667 N 452.299 1.55045 -0.282633 0
M  V30 4668 C 453.229 2.2579 0.595066 0
M  V30 4669 C 454.21 1.25074 1.15284 0
M  V30 4670 O 455.395 1.5381 1.18559 0
M  V30 4671 C 452.525 2.98472 1.77572 0
M  V30 4672 C 451.479 4.0618 1.34914 0
M  V30 4673 C 450.805 4.66477 2.6135 0
M  V30 4674 C 452.105 5.1996 0.493821 0
M  V30 4675 H 453.799 2.994 0.00505653 0
M  V30 4676 H 451.345 1.44 0.000992001 0
M  V30 4677 H 453.298 3.46677 2.39568 0
M  V30 4678 H 452.022 2.2241 2.39168 0
M  V30 4679 H 450.681 3.58797 0.752338 0
M  V30 4680 H 450.329 3.87074 3.2122 0
M  V30 4681 H 450.029 5.39207 2.33516 0
M  V30 4682 H 451.553 5.17435 3.24181 0
M  V30 4683 H 452.967 5.64172 1.01898 0
M  V30 4684 H 451.364 5.99299 0.310047 0
M  V30 4685 H 452.434 4.82462 -0.485593 0
M  V30 4686 N 453.777 0.010035 1.57597 0
M  V30 4687 C 454.707 -0.976857 2.12084 0
M  V30 4688 C 455.688 -1.35191 1.03235 0
M  V30 4689 O 456.873 -1.43389 1.3097 0
M  V30 4690 C 454.003 -2.26548 2.63236 0
M  V30 4691 C 452.957 -2.03175 3.76701 0
M  V30 4692 C 452.283 -3.38138 4.14206 0
M  V30 4693 C 453.583 -1.38625 5.03568 0
M  V30 4694 H 455.277 -0.523145 2.94794 0
M  V30 4695 H 452.823 -0.250195 1.4181 0
M  V30 4696 H 454.776 -2.95952 2.99984 0
M  V30 4697 H 453.5 -2.74051 1.77661 0
M  V30 4698 H 452.159 -1.36195 3.40362 0
M  V30 4699 H 451.807 -3.83363 3.25641 0
M  V30 4700 H 451.507 -3.23312 4.90656 0
M  V30 4701 H 453.031 -4.08841 4.53521 0
M  V30 4702 H 454.445 -1.98 5.38023 0
M  V30 4703 H 452.842 -1.34256 5.84889 0
M  V30 4704 H 453.912 -0.356722 4.83586 0
M  V30 4705 N 455.255 -1.55392 -0.262866 0
M  V30 4706 C 456.495 -1.78231 -1.00064 0
M  V30 4707 C 456.859 -0.576966 -1.83126 0
M  V30 4708 O 458.06 -0.683809 -2.59957 0
M  V30 4709 C 456.331 -3.05701 -1.85153 0
M  V30 4710 S 457.89 -3.49699 -2.65058 0
M  V30 4711 H 454.708 -0.626138 -0.336856 0
M  V30 4712 H 457.31 -1.93626 -0.27005 0
M  V30 4713 H 456.014 -3.91511 -1.23074 0
M  V30 4714 H 455.545 -2.93 -2.62515 0
M  V30 4715 H 457.56 -3.09772 -3.87629 0
M  V30 4716 N 456.733 0.527833 -1.48498 0
M  V30 4717 C 458.149 0.856571 -1.34666 0
M  V30 4718 C 458.349 1.98271 -0.35931 0
M  V30 4719 O 457.405 2.51551 0.218703 0
M  V30 4720 C 458.718 1.22207 -2.74747 0
M  V30 4721 C 460.266 1.33183 -2.83251 0
M  V30 4722 C 460.741 1.73075 -4.24039 0
M  V30 4723 N 462.232 1.80174 -4.26722 0
M  V30 4724 C 462.967 2.1243 -5.32598 0
M  V30 4725 N 462.463 2.43096 -6.4875 0
M  V30 4726 N 464.256 2.13454 -5.19994 0
M  V30 4727 H 456.407 -0.215174 -2.11307 0
M  V30 4728 H 458.67 -0.0336281 -0.947403 0
M  V30 4729 H 458.376 0.468195 -3.4857 0
M  V30 4730 H 458.25 2.17173 -3.08409 0
M  V30 4731 H 460.637 2.07647 -2.09683 0
M  V30 4732 H 460.718 0.363333 -2.53206 0
M  V30 4733 H 460.362 0.991712 -4.98124 0
M  V30 4734 H 460.292 2.70979 -4.51529 0
M  V30 4735 H 462.783 1.58744 -3.42942 0
M  V30 4736 H 463.096 2.6682 -7.25277 0
M  V30 4737 H 461.441 2.40611 -6.52021 0
M  V30 4738 H 464.632 1.88956 -4.28268 0
M  V30 4739 H 464.805 2.38261 -6.02608 0
M  V30 4740 N 458.211 1.37122 0.776871 0
M  V30 4741 C 459.459 1.31787 1.53221 0
M  V30 4742 C 459.78 -0.0987589 1.9475 0
M  V30 4743 O 459.05 -1.0417 1.65908 0
M  V30 4744 H 457.63 0.484839 0.568278 0
M  V30 4745 H 460.292 1.71556 0.924917 0
M  V30 4746 H 459.388 1.95355 2.43398 0
M  V30 4747 N 459.689 -1.00246 1.21608 0
M  V30 4748 C 460.937 -1.73717 1.0328 0
M  V30 4749 C 461.258 -1.90102 -0.434318 0
M  V30 4750 O 460.528 -1.45376 -1.31311 0
M  V30 4751 H 459.108 -0.643613 0.379172 0
M  V30 4752 H 461.77 -1.20787 1.52959 0
M  V30 4753 H 460.866 -2.73535 1.50283 0
M  V30 4754 N 461.167 -1.02423 -1.1978 0
M  V30 4755 C 462.415 -0.716569 -1.8897 0
M  V30 4756 C 462.736 0.756769 -1.79716 0
M  V30 4757 O 462.006 1.5449 -1.20456 0
M  V30 4758 H 460.586 -0.262062 -0.699523 0
M  V30 4759 H 463.248 -1.29747 -1.45436 0
M  V30 4760 H 462.344 -1.00675 -2.95417 0
M  V30 4761 N 462.645 1.35699 -0.801477 0
M  V30 4762 C 463.595 2.2728 -0.181073 0
M  V30 4763 C 464.579 1.47533 0.642098 0
M  V30 4764 O 465.771 1.69785 0.500193 0
M  V30 4765 C 462.9 3.36626 0.673612 0
M  V30 4766 C 461.986 4.23802 -0.159008 0
M  V30 4767 N 462.377 4.90879 -1.2195 0
M  V30 4768 C 460.675 4.45959 0.0602005 0
M  V30 4769 C 461.376 5.5546 -1.72738 0
M  V30 4770 N 460.352 5.33663 -1.03465 0
M  V30 4771 H 464.154 2.76632 -0.992582 0
M  V30 4772 H 461.668 1.49166 -0.642127 0
M  V30 4773 H 463.665 4.01179 1.13408 0
M  V30 4774 H 462.325 2.88828 1.48353 0
M  V30 4775 H 463.336 4.92497 -1.60209 0
M  V30 4776 H 460.013 4.08969 0.839664 0
M  V30 4777 H 461.403 6.18991 -2.61342 0
M  V30 4778 N 464.123 0.554532 1.47522 0
M  V30 4779 C 465.534 0.120446 1.86311 0
M  V30 4780 C 465.885 -1.30904 1.46145 0
M  V30 4781 O 465.01 -1.98434 0.863294 0
M  V30 4782 C 465.605 0.211808 3.38137 0
M  V30 4783 C 464.164 -0.167224 3.76028 0
M  V30 4784 C 463.311 0.560576 2.71575 0
M  V30 4785 H 466.262 0.764408 1.39077 0
M  V30 4786 H 466.283 -0.570275 3.76202 0
M  V30 4787 H 465.795 1.25232 3.6734 0
M  V30 4788 H 463.896 -1.20894 3.52442 0
M  V30 4789 H 464.009 0.189473 4.78725 0
M  V30 4790 H 462.373 0.00396836 2.547 0
M  V30 4791 H 463.156 1.60219 3.0362 0
M  V30 4792 N 465.601 -1.54893 0.290851 0
M  V30 4793 C 466.531 -2.26103 -0.583084 0
M  V30 4794 C 467.512 -1.25684 -1.14619 0
M  V30 4795 O 468.697 -1.54436 -1.17741 0
M  V30 4796 C 465.827 -2.99409 -1.75987 0
M  V30 4797 C 464.781 -4.0689 -1.32758 0
M  V30 4798 C 464.107 -4.67856 -2.58872 0
M  V30 4799 C 465.407 -5.20215 -0.46624 0
M  V30 4800 H 467.101 -2.99398 0.0108214 0
M  V30 4801 H 464.647 -1.43998 0.00664468 0
M  V30 4802 H 466.6 -3.47943 -2.37727 0
M  V30 4803 H 465.324 -2.23675 -2.37985 0
M  V30 4804 H 463.983 -3.59191 -0.733299 0
M  V30 4805 H 463.631 -3.88772 -3.19163 0
M  V30 4806 H 463.331 -5.40438 -2.30653 0
M  V30 4807 H 464.855 -5.19147 -3.21433 0
M  V30 4808 H 466.269 -5.64704 -0.989047 0
M  V30 4809 H 464.666 -5.99455 -0.27826 0
M  V30 4810 H 465.736 -4.82198 0.511173 0
M  V30 4811 N 467.08 -0.0183926 -1.57589 0
M  V30 4812 C 468.357 0.700621 -1.82622 0
M  V30 4813 C 468.737 1.90951 -0.90005 0
M  V30 4814 O 468.085 2.28452 0.0469145 0
M  V30 4815 C 468.295 1.08899 -3.31575 0
M  V30 4816 C 469.643 1.48514 -3.9778 0
M  V30 4817 O 470.667 1.18227 -3.36007 0
M  V30 4818 O 469.526 2.04903 -5.06633 0
M  V30 4819 H 466.62 0.342743 -0.752633 0
M  V30 4820 H 469.166 -0.0452548 -1.6964 0
M  V30 4821 H 467.938 0.228113 -3.90635 0
M  V30 4822 H 467.561 1.89338 -3.49624 0
M  V30 4823 N 468.558 1.5553 0.254621 0
M  V30 4824 C 469.488 1.9268 1.31897 0
M  V30 4825 C 470.469 0.790797 1.506 0
M  V30 4826 O 471.654 1.05045 1.63337 0
M  V30 4827 C 468.784 2.21477 2.67517 0
M  V30 4828 C 467.738 3.37256 2.63519 0
M  V30 4829 C 467.064 3.51576 4.02862 0
M  V30 4830 C 468.364 4.73157 2.21179 0
M  V30 4831 H 470.058 2.81832 1.01051 0
M  V30 4832 H 467.604 1.35599 0.484662 0
M  V30 4833 H 469.557 2.46055 3.42104 0
M  V30 4834 H 468.281 1.29144 2.99982 0
M  V30 4835 H 466.94 3.12675 1.9139 0
M  V30 4836 H 466.588 2.56676 4.32581 0
M  V30 4837 H 466.288 4.2943 4.01078 0
M  V30 4838 H 467.812 3.78467 4.79161 0
M  V30 4839 H 469.226 4.97158 2.85494 0
M  V30 4840 H 467.623 5.54058 2.30521 0
M  V30 4841 H 468.693 4.70739 1.16332 0
M  V30 4842 N 470.036 -0.519951 1.48776 0
M  V30 4843 C 470.966 -1.63253 1.66945 0
M  V30 4844 C 471.947 -1.62014 0.518224 0
M  V30 4845 O 473.132 -1.79053 0.751919 0
M  V30 4846 C 470.262 -3.0181 1.71836 0
M  V30 4847 C 469.216 -3.17911 2.8656 0
M  V30 4848 C 468.542 -4.5763 2.76548 0
M  V30 4849 C 469.842 -2.99729 4.27738 0
M  V30 4850 H 471.536 -1.48302 2.6009 0
M  V30 4851 H 469.082 -0.712026 1.25165 0
M  V30 4852 H 471.035 -3.79525 1.83135 0
M  V30 4853 H 469.759 -3.17806 0.752775 0
M  V30 4854 H 468.418 -2.42616 2.74833 0
M  V30 4855 H 468.066 -4.70476 1.77937 0
M  V30 4856 H 467.766 -4.69346 3.53536 0
M  V30 4857 H 469.29 -5.37431 2.89828 0
M  V30 4858 H 470.704 -3.67228 4.40246 0
M  V30 4859 H 469.101 -3.22932 5.05801 0
M  V30 4860 H 470.171 -1.96047 4.43502 0
M  V30 4861 N 471.514 -1.37532 -0.769588 0
M  V30 4862 C 472.739 -1.36231 -1.56384 0
M  V30 4863 C 473.164 0.0495849 -1.88035 0
M  V30 4864 O 472.522 1.02723 -1.49391 0
M  V30 4865 C 472.57 -2.20986 -2.84952 0
M  V30 4866 O 471.674 -1.61597 -3.79421 0
M  V30 4867 H 471.015 -0.465387 -0.473615 0
M  V30 4868 H 473.545 -1.81085 -0.952342 0
M  V30 4869 H 473.555 -2.34277 -3.34034 0
M  V30 4870 H 472.23 -3.23612 -2.61243 0
M  V30 4871 H 470.807 -1.57359 -3.38072 0
M  V30 4872 N 472.992 0.995999 -1.22138 0
M  V30 4873 C 474.238 1.73767 -1.04561 0
M  V30 4874 C 474.571 1.89633 0.418698 0
M  V30 4875 O 473.846 1.43723 1.3105 0
M  V30 4876 C 474.129 3.14505 -1.75382 0
M  V30 4877 C 473.982 3.06306 -3.29388 0
M  V30 4878 C 475.301 4.13615 -1.50369 0
M  V30 4879 H 472.42 0.630728 -0.38125 0
M  V30 4880 H 475.062 1.16057 -1.50435 0
M  V30 4881 H 473.212 3.63775 -1.36383 0
M  V30 4882 H 474.884 2.64681 -3.77812 0
M  V30 4883 H 473.127 2.43186 -3.59226 0
M  V30 4884 H 473.798 4.05884 -3.74116 0
M  V30 4885 H 476.274 3.73089 -1.84239 0
M  V30 4886 H 475.15 5.10212 -2.02421 0
M  V30 4887 H 475.411 4.39949 -0.435611 0
M  V30 4888 N 474.47 1.03057 1.19235 0
M  V30 4889 C 475.698 0.747697 1.92917 0
M  V30 4890 C 476.113 -0.69372 1.75593 0
M  V30 4891 O 475.47 -1.47191 1.07894 0
M  V30 4892 C 475.521 1.09159 3.44625 0
M  V30 4893 O 475.242 2.47641 3.61394 0
M  V30 4894 C 476.743 0.831763 4.35427 0
M  V30 4895 H 473.963 0.273453 0.612751 0
M  V30 4896 H 476.507 1.37552 1.51327 0
M  V30 4897 H 474.662 0.508919 3.84043 0
M  V30 4898 H 475.076 2.60499 4.55237 0
M  V30 4899 H 476.55 1.12233 5.4047 0
M  V30 4900 H 477.027 -0.233769 4.38577 0
M  V30 4901 H 477.633 1.39725 4.01693 0
M  V30 4902 N 475.948 -1.35272 0.808662 0
M  V30 4903 C 476.878 -2.32315 0.234981 0
M  V30 4904 C 477.859 -1.57572 -0.64071 0
M  V30 4905 O 479.044 -1.8563 -0.570551 0
M  V30 4906 C 476.174 -3.41801 -0.615601 0
M  V30 4907 C 475.128 -4.27694 0.161767 0
M  V30 4908 C 474.454 -5.28519 -0.810649 0
M  V30 4909 C 475.754 -5.04231 1.36193 0
M  V30 4910 H 477.448 -2.80543 1.04575 0
M  V30 4911 H 474.994 -1.3488 0.504315 0
M  V30 4912 H 476.947 -4.08693 -1.02702 0
M  V30 4913 H 475.671 -2.92186 -1.45928 0
M  V30 4914 H 474.33 -3.62384 0.554382 0
M  V30 4915 H 473.978 -4.75171 -1.64988 0
M  V30 4916 H 473.678 -5.8686 -0.294822 0
M  V30 4917 H 475.202 -5.98283 -1.22023 0
M  V30 4918 H 476.616 -5.64058 1.02528 0
M  V30 4919 H 475.013 -5.72077 1.81239 0
M  V30 4920 H 476.083 -4.34753 2.14751 0
M  V30 4921 N 477.426 -0.562348 -1.47226 0
M  V30 4922 C 478.389 0.172056 -2.28553 0
M  V30 4923 C 479.389 0.837928 -1.37242 0
M  V30 4924 O 480.579 0.693001 -1.59822 0
M  V30 4925 C 477.711 1.25223 -3.17068 0
M  V30 4926 H 478.904 -0.542401 -2.94954 0
M  V30 4927 H 476.457 -0.319493 -1.53 0
M  V30 4928 H 477.192 1.99892 -2.55369 0
M  V30 4929 H 476.977 0.779515 -3.84273 0
M  V30 4930 H 478.467 1.76791 -3.78332 0
M  V30 4931 N 478.904 1.54736 -0.299062 0
M  V30 4932 C 480.129 2.04975 0.316254 0
M  V30 4933 C 480.554 1.17501 1.46885 0
M  V30 4934 O 479.912 0.178678 1.80417 0
M  V30 4935 C 479.96 3.52672 0.751997 0
M  V30 4936 O 479.064 3.68226 1.85697 0
M  V30 4937 H 478.405 0.661126 0.0617175 0
M  V30 4938 H 480.935 1.99805 -0.440341 0
M  V30 4939 H 480.945 3.94488 1.04133 0
M  V30 4940 H 479.62 4.158 -0.0911482 0
M  V30 4941 H 478.197 3.38316 1.56834 0
M  V30 4942 N 480.382 0.0267497 1.57577 0
M  V30 4943 C 481.63 -0.651116 1.91324 0
M  V30 4944 C 481.951 -1.72804 0.90353 0
M  V30 4945 O 481.221 -1.95822 -0.0552946 0
M  V30 4946 H 479.801 -0.243491 0.706202 0
M  V30 4947 H 482.463 0.0739935 1.94759 0
M  V30 4948 H 481.559 -1.10536 2.9187 0
M  V30 4949 N 481.861 -1.55662 -0.24637 0
M  V30 4950 C 483.086 -1.81914 -0.996093 0
M  V30 4951 C 483.511 -0.603875 -1.78143 0
M  V30 4952 O 482.869 0.447091 -1.75701 0
M  V30 4953 C 482.917 -3.05908 -1.90925 0
M  V30 4954 O 482.021 -2.82861 -3.00105 0
M  V30 4955 H 481.362 -0.600481 -0.283406 0
M  V30 4956 H 483.892 -2.02848 -0.267199 0
M  V30 4957 H 483.902 -3.35356 -2.3238 0
M  V30 4958 H 482.577 -3.93999 -1.33183 0
M  V30 4959 H 481.154 -2.64583 -2.62775 0
M  V30 4960 N 483.339 0.512053 -1.4905 0
M  V30 4961 C 484.755 0.84224 -1.35567 0
M  V30 4962 C 484.955 1.97878 -0.380319 0
M  V30 4963 O 484.011 2.51769 0.19201 0
M  V30 4964 C 485.324 1.19286 -2.76028 0
M  V30 4965 C 486.872 1.30171 -2.84648 0
M  V30 4966 C 487.347 1.68568 -4.25851 0
M  V30 4967 N 488.838 1.75638 -4.28609 0
M  V30 4968 C 489.573 2.06769 -5.34821 0
M  V30 4969 N 489.069 2.36201 -6.51292 0
M  V30 4970 N 490.862 2.07927 -5.22229 0
M  V30 4971 H 483.013 -0.237574 -2.11067 0
M  V30 4972 H 485.276 -0.0436747 -0.946993 0
M  V30 4973 H 484.982 0.431199 -3.49047 0
M  V30 4974 H 484.856 2.13889 -3.10695 0
M  V30 4975 H 487.243 2.05411 -2.11873 0
M  V30 4976 H 487.324 0.336457 -2.53578 0
M  V30 4977 H 486.968 0.938824 -4.99148 0
M  V30 4978 H 486.898 2.66174 -4.54377 0
M  V30 4979 H 489.389 1.55097 -3.44606 0
M  V30 4980 H 489.702 2.59112 -7.28066 0
M  V30 4981 H 488.047 2.33681 -6.54536 0
M  V30 4982 H 491.238 1.84403 -4.30248 0
M  V30 4983 H 491.411 2.31856 -6.05101 0
M  V30 4984 N 484.817 1.37938 0.762283 0
M  V30 4985 C 486.057 1.35076 1.53407 0
M  V30 4986 C 486.421 -0.061546 1.91901 0
M  V30 4987 O 487.622 -0.214973 2.67939 0
M  V30 4988 C 485.893 2.27206 2.75884 0
M  V30 4989 S 487.452 2.42283 3.65848 0
M  V30 4990 H 484.27 0.479387 0.52508 0
M  V30 4991 H 486.872 1.7378 0.895586 0
M  V30 4992 H 485.576 3.28724 2.457 0
M  V30 4993 H 485.107 1.8962 3.44685 0
M  V30 4994 H 487.122 1.64044 4.68299 0
M  V30 4995 N 486.295 -0.989507 1.22664 0
M  V30 4996 C 487.542 -1.72953 1.05325 0
M  V30 4997 C 487.87 -1.90104 -0.411168 0
M  V30 4998 O 487.125 -1.44386 -1.32103 0
M  V30 4999 C 487.424 -3.13649 1.71345 0
M  V30 5000 C 487.09 -3.16403 3.21248 0
M  V30 5001 C 485.752 -3.16862 3.62149 0
M  V30 5002 C 488.104 -3.12428 4.17179 0
M  V30 5003 C 485.432 -3.11051 4.97458 0
M  V30 5004 C 487.784 -3.08159 5.52468 0
M  V30 5005 C 486.448 -3.06935 5.92746 0
M  V30 5006 H 485.718 -0.632881 0.385412 0
M  V30 5007 H 488.365 -1.15863 1.52473 0
M  V30 5008 H 486.67 -3.74069 1.16532 0
M  V30 5009 H 488.367 -3.69658 1.55416 0
M  V30 5010 H 484.957 -3.16798 2.88682 0
M  V30 5011 H 489.141 -3.11221 3.86595 0
M  V30 5012 H 484.397 -3.0845 5.27891 0
M  V30 5013 H 488.571 -3.04039 6.26525 0
M  V30 5014 H 486.198 -3.02186 6.97558 0
M  V30 5015 N 487.773 -1.03688 -1.18687 0
M  V30 5016 C 488.998 -0.757819 -1.93059 0
M  V30 5017 C 489.423 0.678353 -1.75442 0
M  V30 5018 O 488.781 1.46938 -1.06203 0
M  V30 5019 C 488.829 -1.12423 -3.42627 0
M  V30 5020 O 487.933 -0.247505 -4.11657 0
M  V30 5021 H 487.274 -0.279245 -0.602427 0
M  V30 5022 H 489.804 -1.3857 -1.5053 0
M  V30 5023 H 489.814 -1.08454 -3.93322 0
M  V30 5024 H 488.489 -2.17049 -3.54771 0
M  V30 5025 H 487.066 -0.34649 -3.71287 0
M  V30 5026 N 489.251 1.34841 -0.815825 0
M  V30 5027 C 490.498 1.98499 -0.400535 0
M  V30 5028 C 490.826 1.64699 1.03463 0
M  V30 5029 O 490.081 0.907006 1.73412 0
M  V30 5030 C 490.38 3.53273 -0.541541 0
M  V30 5031 C 490.046 4.06966 -1.94138 0
M  V30 5032 C 488.708 4.21341 -2.32433 0
M  V30 5033 C 491.06 4.35933 -2.85677 0
M  V30 5034 C 488.388 4.62007 -3.61617 0
M  V30 5035 C 490.74 4.78042 -4.14317 0
M  V30 5036 C 489.404 4.90622 -4.52599 0
M  V30 5037 H 488.674 0.72636 -0.146566 0
M  V30 5038 H 491.321 1.60902 -1.0384 0
M  V30 5039 H 489.626 3.91387 0.179741 0
M  V30 5040 H 491.323 4.00497 -0.20085 0
M  V30 5041 H 487.913 3.96235 -1.63388 0
M  V30 5042 H 492.097 4.24372 -2.57337 0
M  V30 5043 H 487.353 4.69937 -3.91113 0
M  V30 5044 H 491.527 4.99415 -4.85342 0
M  V30 5045 H 489.154 5.2189 -5.52752 0
M  V30 5046 N 490.729 0.570148 1.46925 0
M  V30 5047 C 491.659 -0.158274 2.32963 0
M  V30 5048 C 492.64 -0.896093 1.44583 0
M  V30 5049 O 493.825 -0.874022 1.7342 0
M  V30 5050 C 490.955 -1.18055 3.26619 0
M  V30 5051 C 489.909 -0.558379 4.24342 0
M  V30 5052 C 489.235 -1.68623 5.07415 0
M  V30 5053 C 490.535 0.496295 5.19937 0
M  V30 5054 H 492.229 0.560046 2.94115 0
M  V30 5055 H 489.775 0.270775 1.41431 0
M  V30 5056 H 491.728 -1.69841 3.85658 0
M  V30 5057 H 490.452 -1.92899 2.63548 0
M  V30 5058 H 489.111 -0.0617157 3.66548 0
M  V30 5059 H 488.759 -2.42402 4.40738 0
M  V30 5060 H 488.459 -1.27564 5.73586 0
M  V30 5061 H 489.983 -2.20709 5.69315 0
M  V30 5062 H 491.397 0.0640052 5.73264 0
M  V30 5063 H 489.794 0.82649 5.94381 0
M  V30 5064 H 490.864 1.38735 4.6463 0
M  V30 5065 N 492.207 -1.54576 0.307264 0
M  V30 5066 C 493.432 -2.05139 -0.305379 0
M  V30 5067 C 493.857 -1.18278 -1.46259 0
M  V30 5068 O 493.215 -0.188243 -1.8032 0
M  V30 5069 C 493.263 -3.53066 -0.733283 0
M  V30 5070 O 492.367 -3.69206 -1.83741 0
M  V30 5071 H 491.708 -0.661444 -0.0582105 0
M  V30 5072 H 494.238 -1.99569 0.450931 0
M  V30 5073 H 494.248 -3.95034 -1.02039 0
M  V30 5074 H 492.923 -4.15746 0.113198 0
M  V30 5075 H 491.5 -3.39143 -1.55037 0
M  V30 5076 N 493.685 -0.035106 -1.57561 0
M  V30 5077 C 494.931 0.64318 -1.92331 0
M  V30 5078 C 495.264 1.71434 -0.912368 0
M  V30 5079 O 494.539 1.94395 0.0640303 0
M  V30 5080 C 494.822 1.25411 -3.37556 0
M  V30 5081 C 494.675 0.192109 -4.4939 0
M  V30 5082 C 495.994 2.17041 -3.82859 0
M  V30 5083 H 493.113 0.232341 -0.699419 0
M  V30 5084 H 495.755 -0.0935889 -1.89769 0
M  V30 5085 H 493.905 1.88205 -3.39869 0
M  V30 5086 H 495.577 -0.438849 -4.59208 0
M  V30 5087 H 493.82 -0.481725 -4.31117 0
M  V30 5088 H 494.491 0.659292 -5.48049 0
M  V30 5089 H 496.967 1.64228 -3.8232 0
M  V30 5090 H 495.843 2.56738 -4.85157 0
M  V30 5091 H 496.104 3.06401 -3.18702 0
M  V30 5092 N 495.163 1.55791 0.238111 0
M  V30 5093 C 496.126 1.90239 1.27835 0
M  V30 5094 C 497.126 0.779552 1.4064 0
M  V30 5095 O 498.316 1.04747 1.3919 0
M  V30 5096 C 495.448 2.13859 2.65475 0
M  V30 5097 H 496.641 2.83262 0.985034 0
M  V30 5098 H 494.194 1.48818 0.477799 0
M  V30 5099 H 494.929 1.23334 2.99932 0
M  V30 5100 H 494.714 2.95643 2.57561 0
M  V30 5101 H 496.204 2.41664 3.40571 0
M  V30 5102 N 496.642 -0.504142 1.49319 0
M  V30 5103 C 497.888 -1.25767 1.59857 0
M  V30 5104 C 498.243 -1.90348 0.280262 0
M  V30 5105 O 497.536 -1.77588 -0.719241 0
M  V30 5106 C 497.73 -2.35021 2.69258 0
M  V30 5107 C 497.559 -1.81154 4.11598 0
M  V30 5108 C 496.329 -1.62596 4.78425 0
M  V30 5109 C 498.527 -1.3252 4.96934 0
M  V30 5110 N 496.509 -1.03625 6.05091 0
M  V30 5111 C 497.88 -0.856633 6.14054 0
M  V30 5112 C 499.935 -1.21063 4.82958 0
M  V30 5113 C 498.638 -0.284841 7.18736 0
M  V30 5114 C 500.664 -0.652815 5.87786 0
M  V30 5115 C 500.026 -0.194461 7.04132 0
M  V30 5116 H 496.125 -0.450293 0.639343 0
M  V30 5117 H 498.709 -0.565344 1.86311 0
M  V30 5118 H 496.88 -3.01719 2.44581 0
M  V30 5119 H 498.612 -3.02061 2.69335 0
M  V30 5120 H 495.367 -1.86873 4.35173 0
M  V30 5121 H 495.791 -0.76076 6.72712 0
M  V30 5122 H 500.433 -1.551 3.93324 0
M  V30 5123 H 498.151 0.0677979 8.08072 0
M  V30 5124 H 501.737 -0.566994 5.79031 0
M  V30 5125 H 500.617 0.230442 7.83861 0
M  V30 5126 N 498.12 -1.38341 -0.754957 0
M  V30 5127 C 499.368 -1.34208 -1.51105 0
M  V30 5128 C 499.689 0.0677634 -1.94882 0
M  V30 5129 O 498.959 1.01517 -1.67544 0
M  V30 5130 H 497.539 -0.493819 -0.560493 0
M  V30 5131 H 500.201 -1.73005 -0.897507 0
M  V30 5132 H 499.297 -1.99203 -2.4026 0
M  V30 5133 N 499.598 0.982988 -1.23187 0
M  V30 5134 C 500.845 1.72392 -1.06241 0
M  V30 5135 C 501.173 1.9032 0.40108 0
M  V30 5136 O 500.428 1.45084 1.31336 0
M  V30 5137 C 500.727 3.12736 -1.73006 0
M  V30 5138 C 500.393 3.14695 -3.22921 0
M  V30 5139 C 499.055 3.14937 -3.63824 0
M  V30 5140 C 501.407 3.10211 -4.1883 0
M  V30 5141 C 498.735 3.08408 -4.99101 0
M  V30 5142 C 501.087 3.05224 -5.54095 0
M  V30 5143 C 499.751 3.03787 -5.94365 0
M  V30 5144 H 499.021 0.630829 -0.388762 0
M  V30 5145 H 501.668 1.15053 -1.53085 0
M  V30 5146 H 499.973 3.73446 -1.18514 0
M  V30 5147 H 501.67 3.68828 -1.57374 0
M  V30 5148 H 498.26 3.15262 -2.90358 0
M  V30 5149 H 502.444 3.09166 -3.8824 0
M  V30 5150 H 497.7 3.05646 -5.29519 0
M  V30 5151 H 501.874 3.00712 -6.28128 0
M  V30 5152 H 499.501 2.98483 -6.99151 0
M  V30 5153 N 501.076 1.04316 1.18135 0
M  V30 5154 C 502.322 0.749128 1.88457 0
M  V30 5155 C 502.655 -0.72149 1.803 0
M  V30 5156 O 501.93 -1.52676 1.205 0
M  V30 5157 C 502.213 1.21905 3.38838 0
M  V30 5158 C 502.066 2.75195 3.55792 0
M  V30 5159 C 503.385 0.811085 4.32561 0
M  V30 5160 H 500.504 0.273611 0.684329 0
M  V30 5161 H 503.146 1.29561 1.38975 0
M  V30 5162 H 501.296 0.754137 3.8111 0
M  V30 5163 H 502.968 3.29743 3.22595 0
M  V30 5164 H 501.211 3.14899 2.98364 0
M  V30 5165 H 501.882 3.03135 4.61317 0
M  V30 5166 H 504.358 1.21118 3.98082 0
M  V30 5167 H 503.234 1.16761 5.36338 0
M  V30 5168 H 503.495 -0.285596 4.41177 0
M  V30 5169 N 502.554 -1.34406 0.822964 0
M  V30 5170 C 503.779 -2.0304 0.423034 0
M  V30 5171 C 504.204 -1.61568 -0.963196 0
M  V30 5172 O 503.562 -0.800339 -1.62678 0
M  V30 5173 C 503.61 -3.56636 0.53321 0
M  V30 5174 O 502.714 -4.09971 -0.446939 0
M  V30 5175 H 502.055 -0.64075 0.174171 0
M  V30 5176 H 504.585 -1.71653 1.11339 0
M  V30 5177 H 504.595 -4.05945 0.408991 0
M  V30 5178 H 503.27 -3.86168 1.54425 0
M  V30 5179 H 501.847 -3.71835 -0.281601 0
M  V30 5180 N 504.032 -0.577932 -1.46621 0
M  V30 5181 C 505.309 0.00495287 -1.95599 0
M  V30 5182 C 505.689 1.46428 -1.5206 0
M  V30 5183 O 505.037 2.1517 -0.769046 0
M  V30 5184 C 505.247 -0.162114 -3.48623 0
M  V30 5185 C 506.595 -0.0274623 -4.24591 0
M  V30 5186 O 507.619 -0.0907067 -3.56084 0
M  V30 5187 O 506.478 0.1122 -5.46385 0
M  V30 5188 H 503.572 0.0525057 -0.825332 0
M  V30 5189 H 506.118 -0.645914 -1.56927 0
M  V30 5190 H 504.89 -1.17679 -3.73185 0
M  V30 5191 H 504.513 0.525407 -3.94113 0
M  V30 5192 N 505.51 1.54411 -0.315457 0
M  V30 5193 C 506.756 2.00716 0.289972 0
M  V30 5194 C 507.089 1.2034 1.5242 0
M  V30 5195 O 506.364 0.283579 1.92422 0
M  V30 5196 C 506.647 3.54507 0.632196 0
M  V30 5197 C 506.5 4.45615 -0.61218 0
M  V30 5198 C 507.819 4.15421 1.45305 0
M  V30 5199 H 504.938 0.729637 0.10392 0
M  V30 5200 H 507.58 1.8506 -0.430427 0
M  V30 5201 H 505.73 3.67979 1.24595 0
M  V30 5202 H 507.402 4.44026 -1.25053 0
M  V30 5203 H 505.645 4.15621 -1.24264 0
M  V30 5204 H 506.316 5.51022 -0.328379 0
M  V30 5205 H 508.792 4.05474 0.934331 0
M  V30 5206 H 507.668 5.23157 1.66127 0
M  V30 5207 H 507.929 3.68223 2.44671 0
M  V30 5208 N 506.988 0.0434614 1.5754 0
M  V30 5209 C 508.265 -0.671479 1.83713 0
M  V30 5210 C 508.645 -1.89495 0.930315 0
M  V30 5211 O 507.993 -2.28498 -0.0105639 0
M  V30 5212 C 508.203 -1.0361 3.33266 0
M  V30 5213 C 509.551 -1.42167 4.00092 0
M  V30 5214 O 510.575 -1.12866 3.37846 0
M  V30 5215 O 509.434 -1.96817 5.09829 0
M  V30 5216 H 506.528 -0.330726 0.75799 0
M  V30 5217 H 509.074 0.0722373 1.69546 0
M  V30 5218 H 507.846 -0.165938 3.90948 0
M  V30 5219 H 507.469 -1.83751 3.52592 0
M  V30 5220 N 508.466 -1.55915 -0.229846 0
M  V30 5221 C 509.715 -1.77742 -0.953455 0
M  V30 5222 C 510.028 -0.610524 -1.85828 0
M  V30 5223 O 511.234 -0.712219 -2.61992 0
M  V30 5224 C 509.69 -3.14738 -1.74551 0
M  V30 5225 C 509.298 -4.39126 -0.887242 0
M  V30 5226 C 511.042 -3.45895 -2.46084 0
M  V30 5227 C 508.949 -5.67149 -1.67617 0
M  V30 5228 H 507.879 -0.662648 -0.359741 0
M  V30 5229 H 510.53 -1.82322 -0.207576 0
M  V30 5230 H 508.912 -3.04311 -2.53399 0
M  V30 5231 H 510.086 -4.60588 -0.139892 0
M  V30 5232 H 508.401 -4.15427 -0.284443 0
M  V30 5233 H 510.998 -4.38767 -3.05594 0
M  V30 5234 H 511.341 -2.68007 -3.18556 0
M  V30 5235 H 511.874 -3.57614 -1.74233 0
M  V30 5236 H 508.613 -6.47906 -0.994881 0
M  V30 5237 H 508.133 -5.49763 -2.39836 0
M  V30 5238 H 509.812 -6.07025 -2.23898 0
M  V30 5239 N 509.944 0.496216 -1.49584 0
M  V30 5240 C 510.876 1.61404 -1.62731 0
M  V30 5241 C 511.889 1.54613 -0.50978 0
M  V30 5242 O 513.078 1.60458 -0.782017 0
M  V30 5243 C 510.178 3.00212 -1.57245 0
M  V30 5244 C 509.351 3.32138 -2.84611 0
M  V30 5245 C 508.41 4.5038 -2.72112 0
M  V30 5246 O 507.436 4.51926 -3.46051 0
M  V30 5247 N 508.638 5.50575 -1.83977 0
M  V30 5248 H 511.403 1.50552 -2.59141 0
M  V30 5249 H 508.964 0.684182 -1.46733 0
M  V30 5250 H 510.956 3.77241 -1.4653 0
M  V30 5251 H 509.526 3.04964 -0.686729 0
M  V30 5252 H 508.746 2.4396 -3.09641 0
M  V30 5253 H 510.034 3.50268 -3.69039 0
M  V30 5254 H 509.432 5.52128 -1.23171 0
M  V30 5255 H 507.989 6.26687 -1.79182 0
M  V30 5256 N 511.423 1.38739 0.74761 0
M  V30 5257 C 512.648 1.38702 1.54197 0
M  V30 5258 C 513.073 -0.019664 1.8809 0
M  V30 5259 O 512.431 -1.00333 1.51006 0
M  V30 5260 C 512.479 2.25492 2.814 0
M  V30 5261 O 511.583 1.67613 3.76802 0
M  V30 5262 H 510.924 0.472863 0.466151 0
M  V30 5263 H 513.454 1.82577 0.923413 0
M  V30 5264 H 513.464 2.39561 3.30264 0
M  V30 5265 H 512.139 3.27727 2.56062 0
M  V30 5266 H 510.716 1.62718 3.35526 0
M  V30 5267 N 512.901 -0.976442 1.23707 0
M  V30 5268 C 513.811 -2.10359 1.03856 0
M  V30 5269 C 514.827 -1.73991 -0.0180919 0
M  V30 5270 O 516.003 -2.0061 0.178211 0
M  V30 5271 C 513.068 -3.40809 0.636387 0
M  V30 5272 C 512.129 -3.91179 1.76854 0
M  V30 5273 C 511.362 -5.15404 1.38546 0
M  V30 5274 O 511.585 -5.69754 0.27142 0
M  V30 5275 O 510.519 -5.5994 2.20797 0
M  V30 5276 H 514.345 -2.29997 1.98331 0
M  V30 5277 H 511.93 -1.08742 1.02448 0
M  V30 5278 H 513.812 -4.19269 0.423223 0
M  V30 5279 H 512.487 -3.22493 -0.279322 0
M  V30 5280 H 511.394 -3.13819 2.03638 0
M  V30 5281 H 512.727 -4.13958 2.6627 0
M  V30 5282 N 514.379 -1.04941 -1.1758 0
M  V30 5283 C 515.795 -0.770282 -1.39781 0
M  V30 5284 C 515.995 0.636417 -1.91186 0
M  V30 5285 O 515.051 1.39923 -2.10185 0
M  V30 5286 C 516.364 -1.82376 -2.3908 0
M  V30 5287 C 517.912 -1.84569 -2.52791 0
M  V30 5288 C 518.387 -2.88933 -3.55361 0
M  V30 5289 N 519.878 -2.8788 -3.62877 0
M  V30 5290 C 520.613 -3.65282 -4.41992 0
M  V30 5291 N 520.109 -4.52461 -5.24643 0
M  V30 5292 N 521.902 -3.53732 -4.36841 0
M  V30 5293 H 514.053 -1.95705 -0.825438 0
M  V30 5294 H 516.316 -0.847284 -0.425222 0
M  V30 5295 H 516.022 -2.83323 -2.08376 0
M  V30 5296 H 515.896 -1.66327 -3.38549 0
M  V30 5297 H 518.283 -0.842879 -2.82807 0
M  V30 5298 H 518.364 -2.04696 -1.53406 0
M  V30 5299 H 518.008 -3.89398 -3.26085 0
M  V30 5300 H 517.938 -2.66059 -4.54445 0
M  V30 5301 H 520.429 -2.24666 -3.03864 0
M  V30 5302 H 520.742 -5.08211 -5.82187 0
M  V30 5303 H 519.087 -4.56524 -5.24033 0
M  V30 5304 H 522.278 -2.85021 -3.71323 0
M  V30 5305 H 522.451 -4.14302 -4.98255 0
M  V30 5306 N 515.857 1.33968 -0.830081 0
M  V30 5307 C 517.104 1.98063 -0.421566 0
M  V30 5308 C 517.432 1.65787 1.0171 0
M  V30 5309 O 516.687 0.925348 1.72441 0
M  V30 5310 C 516.986 3.52679 -0.57898 0
M  V30 5311 C 516.652 4.04884 -1.98443 0
M  V30 5312 C 515.314 4.18852 -2.36888 0
M  V30 5313 C 517.666 4.32879 -2.90285 0
M  V30 5314 C 514.994 4.58145 -3.66497 0
M  V30 5315 C 517.346 4.7362 -4.19364 0
M  V30 5316 C 516.01 4.85794 -4.57778 0
M  V30 5317 H 515.28 0.724765 -0.154262 0
M  V30 5318 H 517.927 1.59792 -1.05541 0
M  V30 5319 H 516.232 3.91556 0.138219 0
M  V30 5320 H 517.929 4.00261 -0.243317 0
M  V30 5321 H 514.519 3.9448 -1.67581 0
M  V30 5322 H 518.703 4.21619 -2.61823 0
M  V30 5323 H 513.959 4.65762 -3.96075 0
M  V30 5324 H 518.133 4.9424 -4.90612 0
M  V30 5325 H 515.76 5.15998 -5.58256 0
M  V30 5326 N 517.335 0.585699 1.46312 0
M  V30 5327 C 518.751 0.247607 1.57668 0
M  V30 5328 C 518.951 -1.25007 1.58037 0
M  V30 5329 O 518.007 -2.03196 1.49893 0
M  V30 5330 C 519.32 0.899456 2.86933 0
M  V30 5331 C 520.868 0.873326 3.00569 0
M  V30 5332 C 521.343 1.50477 4.32574 0
M  V30 5333 N 522.834 1.46925 4.3928 0
M  V30 5334 C 523.569 1.92719 5.40044 0
M  V30 5335 N 523.065 2.46499 6.47464 0
M  V30 5336 N 524.858 1.83617 5.31264 0
M  V30 5337 H 517.009 1.55841 1.44317 0
M  V30 5338 H 519.272 0.651564 0.688599 0
M  V30 5339 H 518.978 1.95313 2.92482 0
M  V30 5340 H 518.852 0.409476 3.74971 0
M  V30 5341 H 521.239 -0.171736 2.946 0
M  V30 5342 H 521.32 1.40136 2.13999 0
M  V30 5343 H 520.964 2.54905 4.39302 0
M  V30 5344 H 520.894 0.951944 5.17924 0
M  V30 5345 H 523.385 1.07616 3.62253 0
M  V30 5346 H 523.698 2.79291 7.20567 0
M  V30 5347 H 522.043 2.50526 6.48276 0
M  V30 5348 H 525.234 1.41358 4.46246 0
M  V30 5349 H 525.407 2.19622 6.09648 0
M  V30 5350 N 518.813 -1.54241 0.323641 0
M  V30 5351 C 519.776 -2.22997 -0.529602 0
M  V30 5352 C 520.776 -1.22345 -1.04347 0
M  V30 5353 O 521.966 -1.46924 -0.935889 0
M  V30 5354 C 519.098 -2.93409 -1.73562 0
M  V30 5355 H 520.291 -2.99815 0.0714518 0
M  V30 5356 H 517.844 -1.56121 0.0747258 0
M  V30 5357 H 518.579 -2.20729 -2.37591 0
M  V30 5358 H 518.364 -3.67217 -1.37456 0
M  V30 5359 H 519.854 -3.45794 -2.34128 0
M  V30 5360 N 520.291 -0.0518155 -1.57515 0
M  V30 5361 C 521.221 0.920283 -2.146 0
M  V30 5362 C 522.202 1.32406 -1.06783 0
M  V30 5363 O 523.387 1.39866 -1.34726 0
M  V30 5364 C 520.517 2.1949 -2.6915 0
M  V30 5365 C 519.471 1.93116 -3.81956 0
M  V30 5366 C 518.797 3.27037 -4.23026 0
M  V30 5367 C 520.097 1.25225 -5.07066 0
M  V30 5368 H 521.791 0.444801 -2.96077 0
M  V30 5369 H 519.337 0.212508 -1.42423 0
M  V30 5370 H 521.29 2.87894 -3.07725 0
M  V30 5371 H 520.014 2.69244 -1.84865 0
M  V30 5372 H 518.673 1.27123 -3.43854 0
M  V30 5373 H 518.321 3.74595 -3.3569 0
M  V30 5374 H 518.021 3.10189 -4.99056 0
M  V30 5375 H 519.545 3.96673 -4.64202 0
M  V30 5376 H 520.959 1.83666 -5.43083 0
M  V30 5377 H 519.356 1.18702 -5.88243 0
M  V30 5378 H 520.426 0.228382 -4.84362 0
M  V30 5379 N 521.769 1.56035 0.221574 0
M  V30 5380 C 523.017 1.78693 0.944102 0
M  V30 5381 C 523.338 0.620317 1.8487 0
M  V30 5382 O 522.608 -0.362784 1.92512 0
M  V30 5383 H 521.188 0.659082 0.351597 0
M  V30 5384 H 523.85 1.93497 0.233435 0
M  V30 5385 H 522.946 2.70837 1.55093 0
M  V30 5386 N 523.247 -0.488276 1.49845 0
M  V30 5387 C 524.472 -1.26997 1.63971 0
M  V30 5388 C 524.897 -1.85427 0.315994 0
M  V30 5389 O 524.255 -1.66475 -0.718032 0
M  V30 5390 C 524.303 -2.36689 2.72049 0
M  V30 5391 O 523.407 -3.40882 2.32107 0
M  V30 5392 H 522.748 -0.374376 0.548396 0
M  V30 5393 H 525.278 -0.583104 1.96115 0
M  V30 5394 H 525.288 -2.82262 2.94605 0
M  V30 5395 H 523.963 -1.93529 3.68129 0
M  V30 5396 H 522.54 -3.01139 2.19931 0
M  V30 5397 N 524.725 -1.39134 -0.740242 0
M  V30 5398 C 525.688 -1.37217 -1.83587 0
M  V30 5399 C 526.688 -0.270221 -1.58513 0
M  V30 5400 O 527.878 -0.527843 -1.6601 0
M  V30 5401 C 525.01 -1.13959 -3.21288 0
M  V30 5402 H 526.203 -2.34705 -1.86691 0
M  V30 5403 H 523.756 -1.24622 -0.94335 0
M  V30 5404 H 524.491 -0.17131 -3.23847 0
M  V30 5405 H 524.276 -1.93754 -3.40884 0
M  V30 5406 H 525.766 -1.15346 -4.01354 0
M  V30 5407 N 526.204 0.969867 -1.24223 0
M  V30 5408 C 527.62 1.23809 -1.00716 0
M  V30 5409 C 527.82 1.99469 0.285358 0
M  V30 5410 O 526.876 2.31764 1.00207 0
M  V30 5411 C 528.189 2.02734 -2.2208 0
M  V30 5412 C 529.737 2.15834 -2.26681 0
M  V30 5413 C 530.212 2.98154 -3.47661 0
M  V30 5414 N 531.703 3.05737 -3.47964 0
M  V30 5415 C 532.438 3.69785 -4.38231 0
M  V30 5416 N 531.934 4.35569 -5.3875 0
M  V30 5417 N 533.727 3.66775 -4.25949 0
M  V30 5418 H 525.878 0.463294 -2.07286 0
M  V30 5419 H 528.141 0.267348 -0.909521 0
M  V30 5420 H 527.847 1.54524 -3.15935 0
M  V30 5421 H 527.721 3.0347 -2.24021 0
M  V30 5422 H 530.108 2.63248 -1.33359 0
M  V30 5423 H 530.189 1.14453 -2.28767 0
M  V30 5424 H 529.833 2.51435 -4.41297 0
M  V30 5425 H 529.763 3.99729 -3.42818 0
M  V30 5426 H 532.254 2.58941 -2.75242 0
M  V30 5427 H 532.567 4.82251 -6.03866 0
M  V30 5428 H 530.912 4.34244 -5.42639 0
M  V30 5429 H 534.103 3.14558 -3.46657 0
M  V30 5430 H 534.276 4.16407 -4.96497 0
M  V30 5431 N 527.682 1.05563 1.17022 0
M  V30 5432 C 528.929 0.767937 1.87374 0
M  V30 5433 C 529.257 -0.705224 1.81265 0
M  V30 5434 O 528.512 -1.5318 1.21796 0
M  V30 5435 C 528.811 1.19849 3.36706 0
M  V30 5436 C 528.477 2.6745 3.63017 0
M  V30 5437 C 527.139 3.0777 3.69907 0
M  V30 5438 C 529.491 3.62811 3.74189 0
M  V30 5439 C 526.819 4.42307 3.85463 0
M  V30 5440 C 529.171 4.97087 3.91264 0
M  V30 5441 C 527.835 5.37055 3.96394 0
M  V30 5442 H 527.105 0.281008 0.68565 0
M  V30 5443 H 529.752 1.32339 1.38415 0
M  V30 5444 H 528.057 0.562096 3.87747 0
M  V30 5445 H 529.754 0.953038 3.8951 0
M  V30 5446 H 526.344 2.35228 3.58282 0
M  V30 5447 H 530.528 3.32798 3.68183 0
M  V30 5448 H 525.784 4.72769 3.87684 0
M  V30 5449 H 529.958 5.70869 3.9885 0
M  V30 5450 H 527.585 6.41308 4.082 0
M  V30 5451 N 529.16 -1.33526 0.837174 0
M  V30 5452 C 530.388 -2.02047 0.445494 0
M  V30 5453 C 530.803 -1.62995 -0.952788 0
M  V30 5454 O 530.16 -0.842447 -1.61892 0
M  V30 5455 C 530.211 -3.57221 0.554577 0
M  V30 5456 O 529.932 -3.94863 1.89776 0
M  V30 5457 C 531.433 -4.43012 0.159634 0
M  V30 5458 H 528.653 -0.647221 0.177048 0
M  V30 5459 H 531.197 -1.70492 1.12928 0
M  V30 5460 H 529.352 -3.87315 -0.0812781 0
M  V30 5461 H 529.766 -4.89569 1.88208 0
M  V30 5462 H 531.24 -5.51253 0.28701 0
M  V30 5463 H 531.717 -4.29916 -0.898289 0
M  V30 5464 H 532.323 -4.18274 0.769855 0
M  V30 5465 N 530.638 -0.59345 -1.46 0
M  V30 5466 C 531.568 0.121192 -2.33185 0
M  V30 5467 C 532.549 0.872977 -1.4599 0
M  V30 5468 O 533.734 0.846321 -1.74789 0
M  V30 5469 C 530.864 1.12844 -3.28456 0
M  V30 5470 C 529.818 0.4908 -4.25177 0
M  V30 5471 C 529.144 1.60529 -5.10034 0
M  V30 5472 C 530.444 -0.578949 -5.19081 0
M  V30 5473 H 532.138 -0.606767 -2.93187 0
M  V30 5474 H 529.684 -0.293242 -1.40983 0
M  V30 5475 H 531.637 1.63684 -3.88311 0
M  V30 5476 H 530.361 1.88681 -2.66584 0
M  V30 5477 H 529.02 0.00339328 -3.666 0
M  V30 5478 H 528.668 2.35359 -4.44539 0
M  V30 5479 H 528.368 1.18422 -5.75543 0
M  V30 5480 H 529.892 2.11623 -5.72755 0
M  V30 5481 H 531.306 -0.155199 -5.7309 0
M  V30 5482 H 529.703 -0.920947 -5.92991 0
M  V30 5483 H 530.773 -1.46109 -4.62364 0
M  V30 5484 N 532.116 1.54067 -0.331816 0
M  V30 5485 C 533.364 2.00319 0.267739 0
M  V30 5486 C 533.685 1.22148 1.52003 0
M  V30 5487 O 532.955 0.325494 1.93177 0
M  V30 5488 H 531.535 0.740014 0.101922 0
M  V30 5489 H 534.197 1.89628 -0.450267 0
M  V30 5490 H 533.293 3.07765 0.518385 0
M  V30 5491 N 533.594 0.0601682 1.57485 0
M  V30 5492 C 534.822 -0.620937 1.97363 0
M  V30 5493 C 535.237 -1.63846 0.938082 0
M  V30 5494 O 534.594 -1.82339 -0.0766578 0
M  V30 5495 C 534.645 -1.29987 3.37321 0
M  V30 5496 O 534.366 -0.323081 4.36907 0
M  V30 5497 C 535.867 -2.06989 3.92008 0
M  V30 5498 H 533.087 -0.169135 0.649334 0
M  V30 5499 H 535.631 0.129132 2.04092 0
M  V30 5500 H 533.786 -2.0011 3.31715 0
M  V30 5501 H 534.2 -0.808754 5.18227 0
M  V30 5502 H 535.674 -2.49901 4.92192 0
M  V30 5503 H 536.151 -2.92173 3.2792 0
M  V30 5504 H 536.757 -1.41757 4.0098 0
M  V30 5505 N 535.072 -1.5615 -0.213296 0
M  V30 5506 C 536.318 -1.79812 -0.937849 0
M  V30 5507 C 536.651 -0.631201 -1.83656 0
M  V30 5508 O 535.926 0.369165 -1.90964 0
M  V30 5509 C 536.209 -3.13613 -1.76972 0
M  V30 5510 C 536.062 -4.40766 -0.89695 0
M  V30 5511 C 537.381 -3.43931 -2.7459 0
M  V30 5512 H 534.5 -0.654138 -0.339518 0
M  V30 5513 H 537.142 -1.88877 -0.20623 0
M  V30 5514 H 535.292 -3.06015 -2.39347 0
M  V30 5515 H 536.964 -4.60392 -0.289306 0
M  V30 5516 H 535.207 -4.33326 -0.202756 0
M  V30 5517 H 535.878 -5.30843 -1.51358 0
M  V30 5518 H 538.354 -3.5171 -2.22349 0
M  V30 5519 H 537.23 -4.38706 -3.29891 0
M  V30 5520 H 537.491 -2.6651 -3.52739 0
M  V30 5521 N 536.55 0.480323 -1.50102 0
M  V30 5522 C 537.48 1.58769 -1.71215 0
M  V30 5523 C 538.461 1.60583 -0.560997 0
M  V30 5524 O 539.646 1.76996 -0.799127 0
M  V30 5525 C 536.776 2.97148 -1.79778 0
M  V30 5526 C 535.73 3.10201 -2.94888 0
M  V30 5527 C 535.056 4.50137 -2.88584 0
M  V30 5528 C 536.356 2.88283 -4.35534 0
M  V30 5529 H 538.05 1.41354 -2.6393 0
M  V30 5530 H 535.596 0.678591 -1.27008 0
M  V30 5531 H 537.549 3.74536 -1.93133 0
M  V30 5532 H 536.273 3.15699 -0.836772 0
M  V30 5533 H 534.932 2.35244 -2.81169 0
M  V30 5534 H 534.58 4.65593 -1.90349 0
M  V30 5535 H 534.28 4.59808 -3.65856 0
M  V30 5536 H 535.804 5.29558 -3.03976 0
M  V30 5537 H 537.218 3.55427 -4.49827 0
M  V30 5538 H 535.615 3.09408 -5.14186 0
M  V30 5539 H 536.685 1.84219 -4.48544 0
M  V30 5540 N 538.028 1.39524 0.732853 0
M  V30 5541 C 539.276 1.36594 1.48951 0
M  V30 5542 C 539.597 -0.0367507 1.94965 0
M  V30 5543 O 538.867 -0.988391 1.69138 0
M  V30 5544 H 537.447 0.502673 0.552566 0
M  V30 5545 H 540.109 1.74411 0.869869 0
M  V30 5546 H 539.205 2.03 2.3706 0
M  V30 5547 N 539.506 -0.963266 1.24736 0
M  V30 5548 C 540.436 -2.07628 1.06832 0
M  V30 5549 C 541.417 -1.70088 -0.0200566 0
M  V30 5550 O 542.602 -1.93636 0.147854 0
M  V30 5551 C 539.732 -3.40636 0.677069 0
M  V30 5552 C 538.686 -3.9215 1.71471 0
M  V30 5553 C 538.012 -5.21553 1.1784 0
M  V30 5554 C 539.312 -4.19493 3.11164 0
M  V30 5555 H 541.006 -2.22864 1.9993 0
M  V30 5556 H 538.552 -1.07093 0.96266 0
M  V30 5557 H 540.505 -4.17941 0.538792 0
M  V30 5558 H 539.229 -3.25313 -0.289612 0
M  V30 5559 H 537.888 -3.17005 1.84128 0
M  V30 5560 H 537.536 -5.02593 0.202195 0
M  V30 5561 H 537.236 -5.56988 1.87185 0
M  V30 5562 H 538.76 -6.01463 1.05233 0
M  V30 5563 H 540.174 -4.87487 3.01711 0
M  V30 5564 H 538.571 -4.66165 3.77902 0
M  V30 5565 H 539.641 -3.26097 3.58871 0
M  V30 5566 N 540.985 -1.06182 -1.16461 0
M  V30 5567 C 541.948 -0.675723 -2.19013 0
M  V30 5568 C 542.948 0.277963 -1.58379 0
M  V30 5569 O 544.138 0.0604962 -1.74095 0
M  V30 5570 C 541.27 0.00591459 -3.40899 0
M  V30 5571 H 542.463 -1.58353 -2.54685 0
M  V30 5572 H 540.016 -0.856908 -1.30716 0
M  V30 5573 H 540.751 0.92652 -3.10783 0
M  V30 5574 H 540.536 -0.67984 -3.86161 0
M  V30 5575 H 542.026 0.26181 -4.16778 0
M  V30 5576 N 542.463 1.3308 -0.844243 0
M  V30 5577 C 543.691 2.01808 -0.456203 0
M  V30 5578 C 544.106 1.63498 0.944131 0
M  V30 5579 O 543.463 0.85102 1.61443 0
M  V30 5580 C 543.514 3.56922 -0.573513 0
M  V30 5581 O 543.235 3.93851 -1.91868 0
M  V30 5582 C 544.736 4.42922 -0.183125 0
M  V30 5583 H 541.956 0.646273 -0.180477 0
M  V30 5584 H 544.5 1.69891 -1.1383 0
M  V30 5585 H 542.655 3.87352 0.0607367 0
M  V30 5586 H 543.069 4.88564 -1.90802 0
M  V30 5587 H 544.543 5.51093 -0.316241 0
M  V30 5588 H 545.02 4.30386 0.875477 0
M  V30 5589 H 545.626 4.1786 -0.792027 0
M  V30 5590 N 543.941 0.601185 1.45683 0
M  V30 5591 C 544.871 -0.108824 2.33246 0
M  V30 5592 C 545.852 -0.865223 1.46451 0
M  V30 5593 O 547.037 -0.83704 1.75235 0
M  V30 5594 C 544.167 -1.11101 3.2905 0
M  V30 5595 C 543.121 -0.468244 4.25431 0
M  V30 5596 C 542.447 -1.57822 5.10878 0
M  V30 5597 C 543.747 0.606469 5.18767 0
M  V30 5598 H 545.441 0.622306 2.92861 0
M  V30 5599 H 542.987 0.300714 1.40825 0
M  V30 5600 H 544.94 -1.61622 3.89174 0
M  V30 5601 H 543.664 -1.87265 2.67581 0
M  V30 5602 H 542.323 0.0160484 3.66596 0
M  V30 5603 H 541.971 -2.32998 4.45781 0
M  V30 5604 H 541.671 -1.15369 5.76163 0
M  V30 5605 H 543.195 -2.08583 5.73869 0
M  V30 5606 H 544.609 0.185589 5.73 0
M  V30 5607 H 543.006 0.952381 5.92494 0
M  V30 5608 H 544.076 1.48559 4.61582 0
M  V30 5609 N 545.419 -1.53889 0.339982 0
M  V30 5610 C 546.369 -2.2165 -0.534354 0
M  V30 5611 C 547.353 -1.20266 -1.06887 0
M  V30 5612 O 548.545 -1.45827 -1.00316 0
M  V30 5613 C 545.674 -2.99014 -1.68659 0
M  V30 5614 C 544.76 -4.07751 -1.16618 0
M  V30 5615 N 545.151 -5.04469 -0.366717 0
M  V30 5616 C 543.449 -4.21998 -1.4434 0
M  V30 5617 C 544.15 -5.81638 -0.0847275 0
M  V30 5618 N 543.126 -5.39388 -0.675391 0
M  V30 5619 H 546.928 -2.93781 0.0835562 0
M  V30 5620 H 544.442 -1.61736 0.146665 0
M  V30 5621 H 546.439 -3.46056 -2.32489 0
M  V30 5622 H 545.099 -2.28408 -2.30781 0
M  V30 5623 H 546.11 -5.17899 -0.00811038 0
M  V30 5624 H 542.787 -3.62612 -2.06928 0
M  V30 5625 H 544.177 -6.69563 0.559943 0
M  V30 5626 N 546.897 -0.0685191 -1.57451 0
M  V30 5627 C 548.125 0.610462 -1.97689 0
M  V30 5628 C 548.54 1.63346 -0.946758 0
M  V30 5629 O 547.897 1.82377 0.0669868 0
M  V30 5630 C 547.948 1.28196 -3.38006 0
M  V30 5631 O 547.669 0.299906 -4.37072 0
M  V30 5632 C 549.17 2.04907 -3.931 0
M  V30 5633 H 546.39 0.165689 -0.650222 0
M  V30 5634 H 548.934 -0.139953 -2.04021 0
M  V30 5635 H 547.089 1.98348 -3.32771 0
M  V30 5636 H 547.503 0.78126 -5.18649 0
M  V30 5637 H 548.977 2.47287 -4.93511 0
M  V30 5638 H 549.454 2.9043 -3.29465 0
M  V30 5639 H 550.06 1.39629 -4.01726 0
M  V30 5640 N 548.375 1.56261 0.205012 0
M  V30 5641 C 549.605 1.83874 0.942018 0
M  V30 5642 C 550.013 0.647595 1.77772 0
M  V30 5643 O 549.356 -0.393098 1.79445 0
M  V30 5644 C 549.418 3.05453 1.89575 0
M  V30 5645 C 549.082 4.39772 1.24296 0
M  V30 5646 C 550.079 5.16133 0.624724 0
M  V30 5647 C 547.764 4.86504 1.24978 0
M  V30 5648 C 549.758 6.37396 0.0220117 0
M  V30 5649 C 547.445 6.07705 0.643232 0
M  V30 5650 C 548.443 6.82993 0.0304164 0
M  V30 5651 O 548.131 8.019 -0.566654 0
M  V30 5652 H 547.863 0.614896 0.280854 0
M  V30 5653 H 550.417 2.04215 0.220285 0
M  V30 5654 H 548.647 2.80972 2.65691 0
M  V30 5655 H 550.336 3.19797 2.4997 0
M  V30 5656 H 551.102 4.81127 0.611666 0
M  V30 5657 H 546.981 4.27865 1.71616 0
M  V30 5658 H 550.525 6.96102 -0.456926 0
M  V30 5659 H 546.422 6.42181 0.653759 0
M  V30 5660 H 547.19 8.17192 -0.462588 0
M  V30 5661 N 549.853 -0.472356 1.50355 0
M  V30 5662 C 551.269 -0.806001 1.37753 0
M  V30 5663 C 551.469 -1.968 0.432649 0
M  V30 5664 O 550.525 -2.52189 -0.12519 0
M  V30 5665 C 551.838 -1.11926 2.79093 0
M  V30 5666 C 553.386 -1.22579 2.87999 0
M  V30 5667 C 553.861 -1.57218 4.3017 0
M  V30 5668 N 555.352 -1.64212 4.33115 0
M  V30 5669 C 556.087 -1.92517 5.40116 0
M  V30 5670 N 555.583 -2.1885 6.57325 0
M  V30 5671 N 557.376 -1.94008 5.27558 0
M  V30 5672 H 549.527 0.293451 2.10363 0
M  V30 5673 H 551.79 0.0687672 0.945503 0
M  V30 5674 H 551.496 -0.338504 3.50067 0
M  V30 5675 H 551.37 -2.05577 3.16256 0
M  V30 5676 H 553.757 -1.99722 2.17245 0
M  V30 5677 H 553.838 -0.269107 2.54381 0
M  V30 5678 H 553.482 -0.806154 5.01461 0
M  V30 5679 H 553.412 -2.54034 4.61275 0
M  V30 5680 H 555.903 -1.45906 3.48597 0
M  V30 5681 H 556.216 -2.39718 7.3468 0
M  V30 5682 H 554.561 -2.16245 6.60502 0
M  V30 5683 H 557.752 -1.72931 4.34986 0
M  V30 5684 H 557.925 -2.15731 6.11035 0
M  V30 5685 N 551.331 -1.39911 -0.725443 0
M  V30 5686 C 552.579 -1.37382 -1.48224 0
M  V30 5687 C 552.9 0.0264107 -1.94982 0
M  V30 5688 O 552.17 0.979408 -1.6966 0
M  V30 5689 H 550.75 -0.505596 -0.549892 0
M  V30 5690 H 553.412 -1.7487 -0.860608 0
M  V30 5691 H 552.508 -2.04254 -2.3598 0
M  V30 5692 N 552.809 0.956637 -1.25245 0
M  V30 5693 C 554.225 1.22733 -1.02023 0
M  V30 5694 C 554.425 1.99761 0.264186 0
M  V30 5695 O 553.481 2.32814 0.977436 0
M  V30 5696 C 554.794 2.00367 -2.24217 0
M  V30 5697 C 556.342 2.13418 -2.28958 0
M  V30 5698 C 556.817 2.9445 -3.50803 0
M  V30 5699 N 558.308 3.02029 -3.51187 0
M  V30 5700 C 559.043 3.65116 -4.42129 0
M  V30 5701 N 558.539 4.2983 -5.43339 0
M  V30 5702 N 560.332 3.62237 -4.29815 0
M  V30 5703 H 552.483 0.441282 -2.07765 0
M  V30 5704 H 554.746 0.257686 -0.912306 0
M  V30 5705 H 554.452 1.51165 -3.17556 0
M  V30 5706 H 554.326 3.01077 -2.27228 0
M  V30 5707 H 556.713 2.61819 -1.36143 0
M  V30 5708 H 556.794 1.1202 -2.29968 0
M  V30 5709 H 556.438 2.46741 -4.43939 0
M  V30 5710 H 556.368 3.9607 -3.47039 0
M  V30 5711 H 558.859 2.56007 -2.77973 0
M  V30 5712 H 559.172 4.75819 -6.08947 0
M  V30 5713 H 557.517 4.28465 -5.47214 0
M  V30 5714 H 560.708 3.10863 -3.49974 0
M  V30 5715 H 560.881 4.11117 -5.00886 0
M  V30 5716 N 554.287 1.06798 1.15896 0
M  V30 5717 C 555.217 0.704677 2.22613 0
M  V30 5718 C 556.198 -0.305252 1.67339 0
M  V30 5719 O 557.383 -0.179247 1.93371 0
M  V30 5720 C 554.513 0.0957325 3.47168 0
M  V30 5721 C 553.467 1.0322 4.15367 0
M  V30 5722 C 552.793 0.286293 5.33933 0
M  V30 5723 C 554.093 2.36341 4.65768 0
M  V30 5724 H 555.787 1.59688 2.53259 0
M  V30 5725 H 553.333 0.769257 1.21731 0
M  V30 5726 H 555.286 -0.170333 4.21056 0
M  V30 5727 H 554.01 -0.831516 3.15838 0
M  V30 5728 H 552.669 1.28309 3.43413 0
M  V30 5729 H 552.317 -0.644237 4.98857 0
M  V30 5730 H 552.017 0.910436 5.80504 0
M  V30 5731 H 553.541 0.0278938 6.10594 0
M  V30 5732 H 554.955 2.1561 5.31211 0
M  V30 5733 H 553.352 2.94299 5.2298 0
M  V30 5734 H 554.422 2.99047 3.81705 0
M  V30 5735 N 555.766 -1.3263 0.851289 0
M  V30 5736 C 556.991 -2.02097 0.466006 0
M  V30 5737 C 557.416 -1.63574 -0.928709 0
M  V30 5738 O 556.774 -0.834665 -1.60944 0
M  V30 5739 C 556.822 -3.55425 0.608737 0
M  V30 5740 O 555.926 -4.10827 -0.359878 0
M  V30 5741 H 555.267 -0.636911 0.187724 0
M  V30 5742 H 557.797 -1.69253 1.14955 0
M  V30 5743 H 557.807 -4.04986 0.495006 0
M  V30 5744 H 556.482 -3.82806 1.62581 0
M  V30 5745 H 555.059 -3.72349 -0.202666 0
M  V30 5746 N 557.244 -0.608902 -1.45362 0
M  V30 5747 C 558.474 -0.110852 -2.06302 0
M  V30 5748 C 558.882 1.21062 -1.45398 0
M  V30 5749 O 558.225 1.74861 -0.562976 0
M  V30 5750 C 558.287 0.101793 -3.59356 0
M  V30 5751 C 557.951 -1.13808 -4.42602 0
M  V30 5752 C 558.948 -2.05653 -4.77496 0
M  V30 5753 C 556.633 -1.36727 -4.83333 0
M  V30 5754 C 558.627 -3.18745 -5.51978 0
M  V30 5755 C 556.314 -2.5012 -5.57569 0
M  V30 5756 C 557.312 -3.40957 -5.91809 0
M  V30 5757 O 557 -4.52376 -6.64538 0
M  V30 5758 H 556.732 -0.0666001 -0.672711 0
M  V30 5759 H 559.286 -0.836942 -1.87575 0
M  V30 5760 H 557.516 0.88279 -3.76489 0
M  V30 5761 H 559.205 0.551607 -4.02134 0
M  V30 5762 H 559.971 -1.89172 -4.46586 0
M  V30 5763 H 555.85 -0.669216 -4.56117 0
M  V30 5764 H 559.394 -3.8967 -5.78622 0
M  V30 5765 H 555.291 -2.66553 -5.87894 0
M  V30 5766 H 556.059 -4.51075 -6.82989 0
M  V30 5767 N 558.722 1.53707 -0.348139 0
M  V30 5768 C 559.652 2.28111 0.498766 0
M  V30 5769 C 560.633 1.29851 1.09876 0
M  V30 5770 O 561.818 1.587 1.11928 0
M  V30 5771 C 558.948 3.05735 1.64753 0
M  V30 5772 C 557.902 4.11537 1.17565 0
M  V30 5773 C 557.228 4.77142 2.4133 0
M  V30 5774 C 558.528 5.21587 0.272844 0
M  V30 5775 H 560.222 2.99152 -0.121934 0
M  V30 5776 H 557.768 1.43875 -0.0600842 0
M  V30 5777 H 559.721 3.56526 2.24649 0
M  V30 5778 H 558.445 2.32354 2.2952 0
M  V30 5779 H 557.104 3.61665 0.599483 0
M  V30 5780 H 556.752 4.0035 3.04514 0
M  V30 5781 H 556.452 5.48626 2.10436 0
M  V30 5782 H 557.976 5.30719 3.01943 0
M  V30 5783 H 559.39 5.67986 0.778779 0
M  V30 5784 H 557.787 6.00074 0.0555849 0
M  V30 5785 H 558.857 4.79969 -0.689785 0
M  V30 5786 N 560.2 0.0768682 1.57412 0
M  V30 5787 C 561.611 -0.455037 1.8107 0
M  V30 5788 C 561.962 -1.69323 0.991162 0
M  V30 5789 O 561.087 -2.15328 0.215156 0
M  V30 5790 C 561.682 -0.832316 3.28417 0
M  V30 5791 C 560.241 -1.30906 3.52903 0
M  V30 5792 C 559.388 -0.296714 2.75708 0
M  V30 5793 H 562.339 0.302514 1.5579 0
M  V30 5794 H 562.36 -1.69333 3.40744 0
M  V30 5795 H 561.872 0.0690532 3.88039 0
M  V30 5796 H 559.973 -2.22875 2.98592 0
M  V30 5797 H 560.086 -1.28348 4.61588 0
M  V30 5798 H 558.45 -0.775059 2.42621 0
M  V30 5799 H 559.233 0.597015 3.38069 0
M  V30 5800 N 561.678 -1.56367 -0.196722 0
M  V30 5801 C 562.641 -1.93561 -1.22746 0
M  V30 5802 C 563.641 -0.816566 -1.38524 0
M  V30 5803 O 564.831 -1.084 -1.36363 0
M  V30 5804 C 561.963 -2.20823 -2.59712 0
M  V30 5805 H 563.156 -2.85774 -0.909586 0
M  V30 5806 H 560.709 -1.50032 -0.438174 0
M  V30 5807 H 561.444 -1.31243 -2.96557 0
M  V30 5808 H 561.229 -3.02368 -2.49632 0
M  V30 5809 H 562.719 -2.50608 -3.34044 0
M  V30 5810 N 563.156 0.464375 -1.50603 0
M  V30 5811 C 564.384 1.23907 -1.65695 0
M  V30 5812 C 564.799 1.85658 -0.343027 0
M  V30 5813 O 564.156 1.69529 0.675739 0
M  V30 5814 C 564.207 2.3429 -2.75301 0
M  V30 5815 O 563.928 1.7507 -4.01599 0
M  V30 5816 C 565.429 3.25051 -3.01424 0
M  V30 5817 H 562.649 0.374485 -0.556778 0
M  V30 5818 H 565.193 0.55353 -1.96866 0
M  V30 5819 H 563.348 2.98607 -2.46804 0
M  V30 5820 H 563.762 2.47812 -4.62266 0
M  V30 5821 H 565.236 3.98699 -3.81763 0
M  V30 5822 H 565.713 3.84227 -2.12758 0
M  V30 5823 H 566.319 2.66463 -3.31477 0
M  V30 5824 N 564.634 1.40294 0.718013 0
M  V30 5825 C 565.88 1.38645 1.48005 0
M  V30 5826 C 566.213 -0.0121202 1.94196 0
M  V30 5827 O 565.488 -0.980309 1.67989 0
M  V30 5828 C 565.771 2.37379 2.70782 0
M  V30 5829 C 565.624 3.8625 2.30501 0
M  V30 5830 C 566.943 2.33685 3.72933 0
M  V30 5831 H 564.062 0.504928 0.536858 0
M  V30 5832 H 566.704 1.71411 0.819649 0
M  V30 5833 H 564.854 2.09568 3.27129 0
M  V30 5834 H 566.526 4.24879 1.79655 0
M  V30 5835 H 564.769 4.02202 1.6253 0
M  V30 5836 H 565.44 4.50847 3.18498 0
M  V30 5837 H 567.916 2.58314 3.2621 0
M  V30 5838 H 566.792 3.0482 4.56482 0
M  V30 5839 H 567.053 1.34765 4.21059 0
M  V30 5840 N 566.112 -0.949982 1.2575 0
M  V30 5841 C 567.022 -2.08109 1.08295 0
M  V30 5842 C 568.038 -1.7399 0.0188181 0
M  V30 5843 O 569.214 -2.00187 0.220724 0
M  V30 5844 C 566.279 -3.39383 0.708534 0
M  V30 5845 C 565.34 -3.8734 1.85111 0
M  V30 5846 C 564.573 -5.12349 1.49447 0
M  V30 5847 O 564.796 -5.6905 0.392212 0
M  V30 5848 O 563.73 -5.5513 2.32624 0
M  V30 5849 H 567.556 -2.25738 2.03165 0
M  V30 5850 H 565.141 -1.06545 1.04731 0
M  V30 5851 H 567.023 -4.18277 0.512061 0
M  V30 5852 H 565.698 -3.23013 -0.210854 0
M  V30 5853 H 564.605 -3.09429 2.10248 0
M  V30 5854 H 565.938 -4.08216 2.74991 0
M  V30 5855 N 567.59 -1.07411 -1.15328 0
M  V30 5856 C 569.001 -0.820261 -1.67716 0
M  V30 5857 C 569.352 0.654539 -1.8496 0
M  V30 5858 O 568.477 1.50664 -1.55337 0
M  V30 5859 C 569.072 -1.48242 -3.04647 0
M  V30 5860 C 567.631 -1.27606 -3.5411 0
M  V30 5861 C 566.778 -1.5517 -2.29821 0
M  V30 5862 H 569.729 -1.23608 -0.995332 0
M  V30 5863 H 569.75 -0.903984 -3.69606 0
M  V30 5864 H 569.262 -2.55578 -2.92064 0
M  V30 5865 H 567.363 -0.222948 -3.71932 0
M  V30 5866 H 567.476 -1.99667 -4.35511 0
M  V30 5867 H 565.84 -0.972747 -2.35393 0
M  V30 5868 H 566.623 -2.63689 -2.19824 0
M  V30 5869 N 569.068 1.32177 -0.85831 0
M  V30 5870 C 570.031 2.27086 -0.310588 0
M  V30 5871 C 571.031 1.51751 0.531806 0
M  V30 5872 O 572.221 1.70794 0.34279 0
M  V30 5873 C 569.353 3.36266 0.560179 0
M  V30 5874 H 570.546 2.77045 -1.1483 0
M  V30 5875 H 568.099 1.42911 -0.632942 0
M  V30 5876 H 568.834 2.9158 1.41956 0
M  V30 5877 H 568.619 3.92077 -0.0428473 0
M  V30 5878 H 570.109 4.06974 0.936056 0
M  V30 5879 N 570.547 0.616602 1.45037 0
M  V30 5880 C 571.772 0.120192 2.07051 0
M  V30 5881 C 572.197 -1.19008 1.45666 0
M  V30 5882 O 571.555 -1.7267 0.552692 0
M  V30 5883 C 571.603 0.00354901 3.606 0
M  V30 5884 O 570.707 -1.04431 3.98958 0
M  V30 5885 H 570.048 0.0781599 0.659384 0
M  V30 5886 H 572.578 0.849167 1.86146 0
M  V30 5887 H 572.588 -0.191754 4.07549 0
M  V30 5888 H 571.263 0.960239 4.04663 0
M  V30 5889 H 569.84 -0.824749 3.63665 0
M  V30 5890 N 572.025 -1.5352 0.356285 0
M  V30 5891 C 573.436 -1.86282 -0.12492 0
M  V30 5892 C 573.787 -1.27717 -1.48939 0
M  V30 5893 O 572.912 -0.595614 -2.08042 0
M  V30 5894 C 573.507 -3.37995 -0.23345 0
M  V30 5895 C 572.066 -3.70588 -0.658899 0
M  V30 5896 C 571.213 -2.76581 0.199596 0
M  V30 5897 H 574.164 -1.47901 0.575423 0
M  V30 5898 H 574.185 -3.65475 -1.0587 0
M  V30 5899 H 573.697 -3.8059 0.759776 0
M  V30 5900 H 571.798 -3.33544 -1.66069 0
M  V30 5901 H 571.911 -4.77076 -0.439957 0
M  V30 5902 H 570.275 -2.52552 -0.330076 0
M  V30 5903 H 571.058 -3.22008 1.19019 0
M  V30 5904 N 573.503 -0.0852151 -1.57369 0
M  V30 5905 C 574.731 0.58946 -1.98325 0
M  V30 5906 C 575.146 1.62333 -0.96403 0
M  V30 5907 O 574.503 1.82438 0.0476395 0
M  V30 5908 C 574.554 1.24604 -3.39347 0
M  V30 5909 O 574.275 0.253532 -4.37366 0
M  V30 5910 C 575.776 2.00726 -3.95252 0
M  V30 5911 H 572.996 0.158783 -0.651942 0
M  V30 5912 H 575.54 -0.161584 -2.03861 0
M  V30 5913 H 573.695 1.94808 -3.34856 0
M  V30 5914 H 574.109 0.726207 -5.19448 0
M  V30 5915 H 575.583 2.42039 -4.96106 0
M  V30 5916 H 576.06 2.86919 -3.32527 0
M  V30 5917 H 576.666 1.3536 -4.03185 0
M  V30 5918 N 574.981 1.5647 0.188427 0
M  V30 5919 C 576.392 1.70864 0.752494 0
M  V30 5920 C 576.743 0.692905 1.83557 0
M  V30 5921 O 575.868 -0.149307 2.15884 0
M  V30 5922 C 576.463 3.09789 1.37173 0
M  V30 5923 C 575.022 3.25925 1.88281 0
M  V30 5924 C 574.169 2.66817 0.755259 0
M  V30 5925 H 577.12 1.58657 -0.0367408 0
M  V30 5926 H 577.141 3.07489 2.24122 0
M  V30 5927 H 576.653 3.83693 0.583219 0
M  V30 5928 H 574.754 2.56948 2.6983 0
M  V30 5929 H 574.867 4.33498 2.04001 0
M  V30 5930 H 573.231 2.2617 1.17128 0
M  V30 5931 H 574.014 3.43294 -0.0211237 0
M  V30 5932 N 576.459 -0.456382 1.50847 0
M  V30 5933 C 577.422 -1.53493 1.70213 0
M  V30 5934 C 578.422 -1.50264 0.572481 0
M  V30 5935 O 579.612 -1.52623 0.839751 0
M  V30 5936 C 576.744 -2.93091 1.741 0
M  V30 5937 H 577.937 -1.37633 2.66453 0
M  V30 5938 H 575.49 -0.683776 1.4055 0
M  V30 5939 H 576.225 -3.14378 0.796063 0
M  V30 5940 H 576.01 -2.9684 2.5618 0
M  V30 5941 H 577.5 -3.71368 1.90987 0
M  V30 5942 N 577.937 -1.40673 -0.710563 0
M  V30 5943 C 578.887 -1.37812 -1.81636 0
M  V30 5944 C 579.871 -0.254853 -1.58869 0
M  V30 5945 O 581.063 -0.494356 -1.69956 0
M  V30 5946 C 578.192 -1.24802 -3.19811 0
M  V30 5947 C 577.278 -2.41931 -3.48325 0
M  V30 5948 N 577.669 -3.67411 -3.47625 0
M  V30 5949 C 575.967 -2.35419 -3.78806 0
M  V30 5950 C 576.668 -4.45008 -3.74623 0
M  V30 5951 N 575.644 -3.74916 -3.93623 0
M  V30 5952 H 579.446 -2.32766 -1.79436 0
M  V30 5953 H 576.96 -1.34516 -0.909909 0
M  V30 5954 H 578.957 -1.20835 -3.99004 0
M  V30 5955 H 577.617 -0.308202 -3.23234 0
M  V30 5956 H 578.628 -4.00503 -3.28356 0
M  V30 5957 H 575.305 -1.4983 -3.89689 0
M  V30 5958 H 576.695 -5.53884 -3.80344 0
M  V30 5959 N 579.415 0.9433 -1.26252 0
M  V30 5960 C 580.64 1.72898 -1.14547 0
M  V30 5961 C 581.065 1.85761 0.295743 0
M  V30 5962 O 580.423 1.3463 1.21427 0
M  V30 5963 C 580.471 3.11471 -1.8171 0
M  V30 5964 O 579.575 3.97336 -1.10445 0
M  V30 5965 H 578.916 0.530555 -0.399259 0
M  V30 5966 H 581.446 1.18159 -1.67032 0
M  V30 5967 H 581.456 3.61872 -1.88449 0
M  V30 5968 H 580.131 3.01425 -2.86558 0
M  V30 5969 H 578.708 3.55788 -1.11666 0
M  V30 5970 N 580.893 1.08022 1.14757 0
M  V30 5971 C 581.823 0.728248 2.21853 0
M  V30 5972 C 582.804 -0.287486 1.67653 0
M  V30 5973 O 583.989 -0.158727 1.9355 0
M  V30 5974 C 581.119 0.132549 3.47047 0
M  V30 5975 C 580.073 1.07619 4.14249 0
M  V30 5976 C 579.399 0.342907 5.33599 0
M  V30 5977 C 580.699 2.41268 4.63235 0
M  V30 5978 H 582.393 1.62365 2.51551 0
M  V30 5979 H 579.939 0.782125 1.20908 0
M  V30 5980 H 581.892 -0.125665 4.21213 0
M  V30 5981 H 580.616 -0.797971 3.16702 0
M  V30 5982 H 579.275 1.31944 3.42033 0
M  V30 5983 H 578.923 -0.59129 4.99513 0
M  V30 5984 H 578.623 0.971955 5.79506 0
M  V30 5985 H 580.147 0.0926538 6.1053 0
M  V30 5986 H 581.561 2.21232 5.28894 0
M  V30 5987 H 579.958 2.9983 5.19829 0
M  V30 5988 H 581.028 3.03079 3.78512 0
M  V30 5989 N 582.371 -1.3172 0.865308 0
M  V30 5990 C 583.782 -1.79104 0.527126 0
M  V30 5991 C 584.133 -1.7135 -0.955695 0
M  V30 5992 O 583.258 -1.27845 -1.74598 0
M  V30 5993 C 583.853 -3.25207 0.950061 0
M  V30 5994 C 582.412 -3.70504 0.663611 0
M  V30 5995 C 581.559 -2.52605 1.14395 0
M  V30 5996 H 584.51 -1.18868 1.05148 0
M  V30 5997 H 584.531 -3.79535 0.270805 0
M  V30 5998 H 584.043 -3.30818 2.02931 0
M  V30 5999 H 582.144 -3.70398 -0.404474 0
M  V30 6000 H 582.257 -4.62845 1.23737 0
M  V30 6001 H 580.621 -2.4838 0.563859 0
M  V30 6002 H 581.404 -2.60964 2.23053 0
M  V30 6003 N 583.85 -0.624285 -1.44708 0
M  V30 6004 C 585.266 -0.289322 -1.56956 0
M  V30 6005 C 585.466 1.20773 -1.61295 0
M  V30 6006 O 584.522 1.9915 -1.55227 0
M  V30 6007 C 585.835 -0.975215 -2.84447 0
M  V30 6008 C 587.383 -0.952709 -2.98148 0
M  V30 6009 C 587.858 -1.61893 -4.28433 0
M  V30 6010 N 589.349 -1.5852 -4.35231 0
M  V30 6011 C 590.084 -2.06969 -5.34744 0
M  V30 6012 N 589.58 -2.63579 -6.40701 0
M  V30 6013 N 591.373 -1.97638 -5.26209 0
M  V30 6014 H 583.524 -1.59612 -1.40135 0
M  V30 6015 H 585.787 -0.669592 -0.671081 0
M  V30 6016 H 585.493 -2.02999 -2.87201 0
M  V30 6017 H 585.367 -0.508749 -3.73753 0
M  V30 6018 H 587.754 0.093568 -2.94952 0
M  V30 6019 H 587.835 -1.4576 -2.10209 0
M  V30 6020 H 587.479 -2.66463 -4.32389 0
M  V30 6021 H 587.409 -1.08893 -5.15218 0
M  V30 6022 H 589.899 -1.17183 -3.59272 0
M  V30 6023 H 590.213 -2.98298 -7.12908 0
M  V30 6024 H 588.558 -2.67626 -6.41406 0
M  V30 6025 H 591.749 -1.5314 -4.42341 0
M  V30 6026 H 591.922 -2.35708 -6.03611 0
M  V30 6027 N 585.328 1.53329 -0.364422 0
M  V30 6028 C 586.291 2.24323 0.470292 0
M  V30 6029 C 587.291 1.25068 1.01067 0
M  V30 6030 O 588.481 1.49354 0.896605 0
M  V30 6031 C 585.613 2.97908 1.65722 0
M  V30 6032 H 586.806 2.9952 -0.150917 0
M  V30 6033 H 584.359 1.55868 -0.116092 0
M  V30 6034 H 585.094 2.2695 2.31655 0
M  V30 6035 H 584.879 3.70732 1.27671 0
M  V30 6036 H 586.369 3.5188 2.24878 0
M  V30 6037 N 586.806 0.0935595 1.57322 0
M  V30 6038 C 587.753 -0.865935 2.1394 0
M  V30 6039 C 588.723 -1.28083 1.05754 0
M  V30 6040 O 589.908 -1.36285 1.33533 0
M  V30 6041 C 587.048 -2.12023 2.72287 0
M  V30 6042 C 586.161 -1.756 3.94701 0
M  V30 6043 C 585.296 -2.95804 4.41218 0
M  V30 6044 C 584.335 -2.555 5.56225 0
M  V30 6045 N 583.472 -3.68534 5.97601 0
M  V30 6046 H 588.312 -0.376261 2.95615 0
M  V30 6047 H 585.849 -0.174052 1.46067 0
M  V30 6048 H 587.807 -2.85477 3.04235 0
M  V30 6049 H 586.437 -2.58492 1.93343 0
M  V30 6050 H 585.489 -0.921208 3.69077 0
M  V30 6051 H 586.801 -1.41964 4.78171 0
M  V30 6052 H 585.955 -3.77513 4.74941 0
M  V30 6053 H 584.694 -3.32649 3.56645 0
M  V30 6054 H 583.699 -1.72218 5.22131 0
M  V30 6055 H 584.924 -2.19801 6.42545 0
M  V30 6056 H 582.87 -4.051 5.15974 0
M  V30 6057 H 582.787 -3.38737 6.75865 0
M  V30 6058 H 584.055 -4.50757 6.35955 0
M  V30 6059 N 588.284 -1.56567 -0.180126 0
M  V30 6060 C 589.509 -1.85975 -0.918041 0
M  V30 6061 C 589.934 -0.678888 -1.75422 0
M  V30 6062 O 589.292 0.372168 -1.77439 0
M  V30 6063 C 589.34 -3.13731 -1.77779 0
M  V30 6064 O 588.444 -2.95335 -2.87838 0
M  V30 6065 H 587.785 -0.61196 -0.257683 0
M  V30 6066 H 590.315 -2.03798 -0.180923 0
M  V30 6067 H 590.325 -3.4491 -2.17948 0
M  V30 6068 H 589 -3.99293 -1.16352 0
M  V30 6069 H 587.577 -2.7549 -2.51316 0
M  V30 6070 N 589.762 0.448376 -1.51087 0
M  V30 6071 C 590.672 1.56882 -1.74428 0
M  V30 6072 C 591.688 1.62268 -0.62809 0
M  V30 6073 O 592.864 1.79716 -0.909075 0
M  V30 6074 C 589.929 2.92947 -1.85426 0
M  V30 6075 C 588.99 2.97766 -3.09247 0
M  V30 6076 C 588.223 4.27341 -3.19711 0
M  V30 6077 O 588.446 5.19112 -2.36387 0
M  V30 6078 O 587.38 4.38219 -4.12611 0
M  V30 6079 H 591.206 1.40104 -2.69452 0
M  V30 6080 H 588.791 0.630247 -1.35456 0
M  V30 6081 H 590.673 3.73719 -1.94709 0
M  V30 6082 H 589.348 3.09876 -0.935887 0
M  V30 6083 H 588.255 2.15989 -3.0545 0
M  V30 6084 H 589.588 2.8578 -4.00738 0
M  V30 6085 N 591.24 1.41047 0.703093 0
M  V30 6086 C 592.17 1.45067 1.82969 0
M  V30 6087 C 593.151 0.31016 1.67248 0
M  V30 6088 O 594.336 0.520548 1.87093 0
M  V30 6089 C 591.466 1.32478 3.2104 0
M  V30 6090 C 590.42 2.44262 3.51454 0
M  V30 6091 C 589.746 2.16742 4.88801 0
M  V30 6092 C 591.046 3.86606 3.51189 0
M  V30 6093 H 592.74 2.39353 1.79863 0
M  V30 6094 H 590.286 1.15206 0.863919 0
M  V30 6095 H 592.239 1.33904 3.99559 0
M  V30 6096 H 590.963 0.346735 3.24754 0
M  V30 6097 H 589.622 2.42107 2.75282 0
M  V30 6098 H 589.27 1.17299 4.89132 0
M  V30 6099 H 588.97 2.91643 5.10116 0
M  V30 6100 H 590.494 2.19872 5.69639 0
M  V30 6101 H 591.908 3.90517 4.19725 0
M  V30 6102 H 590.305 4.61128 3.84033 0
M  V30 6103 H 591.375 4.15296 2.50315 0
M  V30 6104 N 592.718 -0.936591 1.26751 0
M  V30 6105 C 593.946 -1.71758 1.15355 0
M  V30 6106 C 594.361 -1.86549 -0.290683 0
M  V30 6107 O 593.718 -1.37616 -1.19868 0
M  V30 6108 C 593.769 -3.12193 1.82258 0
M  V30 6109 O 593.49 -2.98105 3.21038 0
M  V30 6110 C 594.991 -4.06485 1.76875 0
M  V30 6111 H 592.211 -0.537636 0.401483 0
M  V30 6112 H 594.755 -1.17382 1.67457 0
M  V30 6113 H 592.91 -3.63456 1.34083 0
M  V30 6114 H 593.324 -3.86824 3.54214 0
M  V30 6115 H 594.798 -5.02569 2.28316 0
M  V30 6116 H 595.275 -4.32986 0.736216 0
M  V30 6117 H 595.881 -3.61144 2.24623 0
M  V30 6118 N 594.196 -1.08629 -1.14182 0
M  V30 6119 C 595.126 -0.740003 -2.21464 0
M  V30 6120 C 596.107 0.278591 -1.67803 0
M  V30 6121 O 597.292 0.148461 -1.93632 0
M  V30 6122 C 594.422 -0.150952 -3.46972 0
M  V30 6123 C 593.376 -1.09815 -4.13672 0
M  V30 6124 C 592.702 -0.3712 -5.3341 0
M  V30 6125 C 594.002 -2.43722 -4.61949 0
M  V30 6126 H 595.696 -1.63697 -2.50686 0
M  V30 6127 H 593.242 -0.788526 -1.20492 0
M  V30 6128 H 595.195 0.103325 -4.21273 0
M  V30 6129 H 593.919 0.781164 -3.1712 0
M  V30 6130 H 592.578 -1.33756 -3.41328 0
M  V30 6131 H 592.226 0.564792 -4.99819 0
M  V30 6132 H 591.926 -1.00267 -5.78982 0
M  V30 6133 H 593.45 -0.12503 -6.10472 0
M  V30 6134 H 594.864 -2.24034 -5.27714 0
M  V30 6135 H 593.261 -3.02582 -5.18232 0
M  V30 6136 H 594.331 -3.05082 -3.76899 0
M  V30 6137 N 595.674 1.31259 -0.872281 0
M  V30 6138 C 596.902 2.00795 -0.498907 0
M  V30 6139 C 597.317 1.65464 0.909238 0
M  V30 6140 O 596.674 0.885073 1.59602 0
M  V30 6141 C 596.725 3.55625 -0.649092 0
M  V30 6142 O 596.446 3.89692 -2.00179 0
M  V30 6143 C 597.947 4.42434 -0.277034 0
M  V30 6144 H 595.167 0.642299 -0.194145 0
M  V30 6145 H 597.711 1.67438 -1.17408 0
M  V30 6146 H 595.866 3.87394 -0.0214402 0
M  V30 6147 H 596.28 4.84407 -2.01122 0
M  V30 6148 H 597.754 5.50299 -0.433064 0
M  V30 6149 H 598.231 4.32146 0.783989 0
M  V30 6150 H 598.837 4.16086 -0.880483 0
M  V30 6151 N 597.152 0.631951 1.44375 0
M  V30 6152 C 598.563 0.219036 1.85411 0
M  V30 6153 C 598.914 -1.22974 1.52879 0
M  V30 6154 O 598.039 -1.93579 0.967266 0
M  V30 6155 C 598.634 0.39075 3.36539 0
M  V30 6156 C 597.193 0.0323351 3.76386 0
M  V30 6157 C 596.34 0.703744 2.68221 0
M  V30 6158 H 599.291 0.837056 1.3483 0
M  V30 6159 H 599.312 -0.370056 3.78696 0
M  V30 6160 H 598.824 1.44527 3.60185 0
M  V30 6161 H 596.925 -1.02042 3.58355 0
M  V30 6162 H 597.038 0.442969 4.77048 0
M  V30 6163 H 595.402 0.138974 2.54321 0
M  V30 6164 H 596.185 1.76088 2.947 0
M  V30 6165 N 598.631 -1.53133 0.372548 0
M  V30 6166 C 599.908 -1.93704 -0.271693 0
M  V30 6167 C 600.288 -1.30667 -1.65799 0
M  V30 6168 O 599.636 -0.46838 -2.23648 0
M  V30 6169 C 599.846 -3.47576 -0.314903 0
M  V30 6170 C 601.194 -4.20998 -0.551912 0
M  V30 6171 O 602.218 -3.53994 -0.39582 0
M  V30 6172 O 601.077 -5.39748 -0.85639 0
M  V30 6173 H 598.171 -0.810457 -0.164586 0
M  V30 6174 H 600.717 -1.6427 0.425838 0
M  V30 6175 H 599.489 -3.85749 0.656792 0
M  V30 6176 H 599.112 -3.83264 -1.05804 0
M  V30 6177 N 600.109 -0.101901 -1.5727 0
M  V30 6178 C 601.52 0.426173 -1.81771 0
M  V30 6179 C 601.871 1.67725 -1.01797 0
M  V30 6180 O 600.996 2.14958 -0.249386 0
M  V30 6181 C 601.591 0.779962 -3.297 0
M  V30 6182 C 600.15 1.25275 -3.54941 0
M  V30 6183 C 599.297 0.252814 -2.76145 0
M  V30 6184 H 602.248 -0.32726 -1.55289 0
M  V30 6185 H 602.269 1.63891 -3.43395 0
M  V30 6186 H 601.781 -0.130778 -3.8788 0
M  V30 6187 H 599.882 2.18097 -3.021 0
M  V30 6188 H 599.995 1.20988 -4.63572 0
M  V30 6189 H 598.359 0.736362 -2.43823 0
M  V30 6190 H 599.142 -0.650724 -3.37076 0
M  V30 6191 N 601.587 1.56661 0.17182 0
M  V30 6192 C 602.55 1.9549 1.19651 0
M  V30 6193 C 603.55 0.838501 1.37207 0
M  V30 6194 O 604.74 1.10556 1.34622 0
M  V30 6195 C 601.872 2.24927 2.56166 0
M  V30 6196 H 603.065 2.87184 0.864007 0
M  V30 6197 H 600.618 1.50711 0.41425 0
M  V30 6198 H 601.353 1.35944 2.94431 0
M  V30 6199 H 601.138 3.06301 2.4479 0
M  V30 6200 H 602.628 2.55891 3.30014 0
M  V30 6201 N 603.065 -0.440357 1.51323 0
M  V30 6202 C 604.476 -1.02032 1.56353 0
M  V30 6203 C 604.827 -1.92382 0.385197 0
M  V30 6204 O 603.952 -2.10583 -0.498373 0
M  V30 6205 C 604.547 -1.85723 2.83359 0
M  V30 6206 C 603.106 -2.38774 2.90971 0
M  V30 6207 C 602.253 -1.17908 2.50984 0
M  V30 6208 H 605.204 -0.221744 1.57143 0
M  V30 6209 H 605.225 -2.71141 2.66951 0
M  V30 6210 H 604.737 -1.19939 3.69102 0
M  V30 6211 H 602.838 -3.08021 2.09651 0
M  V30 6212 H 602.951 -2.71778 3.94555 0
M  V30 6213 H 601.315 -1.52347 2.04114 0
M  V30 6214 H 602.098 -0.537393 3.39068 0
M  V30 6215 N 604.543 -1.41418 -0.695603 0
M  V30 6216 C 605.954 -1.36335 -1.27552 0
M  V30 6217 C 606.305 -0.0464336 -1.96145 0
M  V30 6218 O 605.43 0.855304 -1.9878 0
M  V30 6219 C 606.025 -2.46941 -2.3196 0
M  V30 6220 C 604.584 -2.45256 -2.85529 0
M  V30 6221 C 603.731 -2.2679 -1.59566 0
M  V30 6222 H 606.682 -1.50934 -0.490362 0
M  V30 6223 H 606.703 -2.15997 -3.1325 0
M  V30 6224 H 606.215 -3.42775 -1.82008 0
M  V30 6225 H 604.316 -1.53179 -3.39657 0
M  V30 6226 H 604.429 -3.41565 -3.35961 0
M  V30 6227 H 602.793 -1.74667 -1.85374 0
M  V30 6228 H 603.576 -3.24651 -1.1161 0
M  V30 6229 N 606.021 0.929856 -1.27246 0
M  V30 6230 C 606.954 2.03069 -1.04106 0
M  V30 6231 C 607.932 1.62556 0.0378417 0
M  V30 6232 O 609.116 1.88197 -0.106869 0
M  V30 6233 C 606.243 3.33718 -0.578778 0
M  V30 6234 C 605.289 3.93209 -1.65193 0
M  V30 6235 S 606.122 4.26068 -3.24386 0
M  V30 6236 C 607.278 5.598 -2.79954 0
M  V30 6237 H 607.511 2.22386 -1.97311 0
M  V30 6238 H 605.044 1.07269 -1.11053 0
M  V30 6239 H 607.002 4.09261 -0.31874 0
M  V30 6240 H 605.663 3.12328 0.333182 0
M  V30 6241 H 604.856 4.87482 -1.27973 0
M  V30 6242 H 604.458 3.24243 -1.86393 0
M  V30 6243 H 606.75 6.39004 -2.25123 0
M  V30 6244 H 607.693 6.01917 -3.72963 0
M  V30 6245 H 608.101 5.20219 -2.19164 0
M  V30 6246 N 607.499 1.09233 1.13605 0
M  V30 6247 C 608.462 0.733553 2.17144 0
M  V30 6248 C 609.462 -0.235873 1.59061 0
M  V30 6249 O 610.652 -0.0143167 1.74194 0
M  V30 6250 C 607.784 0.084471 3.40795 0
M  V30 6251 H 608.977 1.65049 2.50397 0
M  V30 6252 H 606.53 0.891264 1.28399 0
M  V30 6253 H 607.265 -0.843795 3.1313 0
M  V30 6254 H 607.05 0.781985 3.84223 0
M  V30 6255 H 608.54 -0.151216 4.17326 0
M  V30 6256 N 608.977 -1.30795 0.87923 0
M  V30 6257 C 609.927 -2.25838 0.313276 0
M  V30 6258 C 610.911 -1.51025 -0.55499 0
M  V30 6259 O 612.103 -1.72413 -0.400353 0
M  V30 6260 C 609.232 -3.39981 -0.476204 0
M  V30 6261 C 608.318 -4.22154 0.405826 0
M  V30 6262 N 608.709 -4.82934 1.50362 0
M  V30 6263 C 607.007 -4.45552 0.199909 0
M  V30 6264 C 607.708 -5.44444 2.0483 0
M  V30 6265 N 606.684 -5.26723 1.34403 0
M  V30 6266 H 610.486 -2.70374 1.15218 0
M  V30 6267 H 608 -1.45168 0.728003 0
M  V30 6268 H 609.997 -4.07108 -0.898251 0
M  V30 6269 H 608.657 -2.96986 -1.31261 0
M  V30 6270 H 609.668 -4.82319 1.8865 0
M  V30 6271 H 606.345 -4.13169 -0.599795 0
M  V30 6272 H 607.735 -6.02701 2.96986 0
M  V30 6273 N 610.455 -0.639598 -1.44038 0
M  V30 6274 C 611.68 -0.153117 -2.06834 0
M  V30 6275 C 612.105 1.16676 -1.47541 0
M  V30 6276 O 611.463 1.71769 -0.580093 0
M  V30 6277 C 611.511 -0.0609169 -3.60549 0
M  V30 6278 O 610.615 0.98071 -4.00569 0
M  V30 6279 H 609.956 -0.0886402 -0.658057 0
M  V30 6280 H 612.486 -0.878674 -1.84771 0
M  V30 6281 H 612.496 0.126892 -4.07803 0
M  V30 6282 H 611.171 -1.0245 -4.03084 0
M  V30 6283 H 609.748 0.766789 -3.64931 0
M  V30 6284 N 611.933 1.52934 -0.380664 0
M  V30 6285 C 613.344 1.86457 0.0952684 0
M  V30 6286 C 613.695 1.3007 1.46889 0
M  V30 6287 O 612.82 0.628636 2.07068 0
M  V30 6288 C 613.415 3.38323 0.179648 0
M  V30 6289 C 611.974 3.71589 0.599858 0
M  V30 6290 C 611.121 2.76228 -0.243572 0
M  V30 6291 H 614.072 1.46966 -0.59888 0
M  V30 6292 H 614.093 3.67113 1.00042 0
M  V30 6293 H 613.605 3.79333 -0.820228 0
M  V30 6294 H 611.706 3.36144 1.60742 0
M  V30 6295 H 611.819 4.77715 0.364003 0
M  V30 6296 H 610.183 2.53045 0.289855 0
M  V30 6297 H 610.966 3.20074 -1.24127 0
M  V30 6298 N 613.412 0.11024 1.57214 0
M  V30 6299 C 614.342 -0.840002 2.17867 0
M  V30 6300 C 615.323 -1.28352 1.11624 0
M  V30 6301 O 616.508 -1.3477 1.39824 0
M  V30 6302 C 613.638 -2.09349 2.77111 0
M  V30 6303 C 612.592 -1.78807 3.8886 0
M  V30 6304 C 611.918 -3.11112 4.34872 0
M  V30 6305 C 613.218 -1.0632 5.11364 0
M  V30 6306 H 614.912 -0.334608 2.97524 0
M  V30 6307 H 612.458 -0.159502 1.43114 0
M  V30 6308 H 614.411 -2.76275 3.18198 0
M  V30 6309 H 613.135 -2.62198 1.9473 0
M  V30 6310 H 611.794 -1.14273 3.48335 0
M  V30 6311 H 611.442 -3.61877 3.49362 0
M  V30 6312 H 611.142 -2.91453 5.10224 0
M  V30 6313 H 612.666 -3.79171 4.78604 0
M  V30 6314 H 614.08 -1.63383 5.49526 0
M  V30 6315 H 612.477 -0.967876 5.92243 0
M  V30 6316 H 613.547 -0.0484569 4.84876 0
M  V30 6317 N 614.89 -1.56749 -0.16351 0
M  V30 6318 C 615.84 -1.93424 -1.20712 0
M  V30 6319 C 616.824 -0.803469 -1.39403 0
M  V30 6320 O 618.016 -1.06675 -1.41243 0
M  V30 6321 C 615.145 -2.30431 -2.54473 0
M  V30 6322 C 614.231 -3.5004 -2.39443 0
M  V30 6323 N 614.622 -4.67058 -1.9414 0
M  V30 6324 C 612.92 -3.548 -2.70246 0
M  V30 6325 C 613.621 -5.49184 -1.9176 0
M  V30 6326 N 612.597 -4.9044 -2.34457 0
M  V30 6327 H 616.399 -2.8138 -0.848681 0
M  V30 6328 H 613.913 -1.58089 -0.371717 0
M  V30 6329 H 615.91 -2.54903 -3.29894 0
M  V30 6330 H 614.57 -1.43818 -2.91112 0
M  V30 6331 H 615.581 -4.91128 -1.64357 0
M  V30 6332 H 612.258 -2.78685 -3.10871 0
M  V30 6333 H 613.648 -6.5297 -1.58366 0
M  V30 6334 N 616.368 0.432326 -1.51554 0
M  V30 6335 C 617.784 0.769195 -1.39841 0
M  V30 6336 C 617.984 1.95584 -0.484675 0
M  V30 6337 O 617.04 2.52433 0.0582829 0
M  V30 6338 C 618.353 1.04487 -2.81963 0
M  V30 6339 C 619.901 1.149 -2.91148 0
M  V30 6340 C 620.376 1.45758 -4.34187 0
M  V30 6341 N 621.867 1.52671 -4.37317 0
M  V30 6342 C 622.602 1.78129 -5.4503 0
M  V30 6343 N 622.098 2.01345 -6.62897 0
M  V30 6344 N 623.891 1.79953 -5.32516 0
M  V30 6345 H 616.042 -0.349122 -2.09511 0
M  V30 6346 H 618.305 -0.0938113 -0.943347 0
M  V30 6347 H 618.011 0.24557 -3.50842 0
M  V30 6348 H 617.885 1.97119 -3.21596 0
M  V30 6349 H 620.272 1.93891 -2.22464 0
M  V30 6350 H 620.353 0.201568 -2.55005 0
M  V30 6351 H 619.997 0.672917 -5.03423 0
M  V30 6352 H 619.927 2.41715 -4.67848 0
M  V30 6353 H 622.418 1.36612 -3.52343 0
M  V30 6354 H 622.731 2.20155 -7.40778 0
M  V30 6355 H 621.076 1.98657 -6.66003 0
M  V30 6356 H 624.267 1.61337 -4.39418 0
M  V30 6357 H 624.44 1.99455 -6.1654 0
M  V30 6358 N 617.846 1.41785 0.688094 0
M  V30 6359 C 619.071 1.45117 1.48175 0
M  V30 6360 C 619.496 0.060129 1.88004 0
M  V30 6361 O 618.854 -0.938385 1.55126 0
M  V30 6362 C 618.902 2.37224 2.71583 0
M  V30 6363 O 618.006 1.83443 3.69354 0
M  V30 6364 H 617.347 0.492208 0.445676 0
M  V30 6365 H 619.877 1.86329 0.845145 0
M  V30 6366 H 619.887 2.53353 3.19806 0
M  V30 6367 H 618.562 3.38293 2.41931 0
M  V30 6368 H 617.139 1.76802 3.28322 0
M  V30 6369 N 619.324 -0.923095 1.27737 0
M  V30 6370 C 620.57 -1.67375 1.14514 0
M  V30 6371 C 620.903 -1.91751 -0.307424 0
M  V30 6372 O 620.178 -1.51119 -1.22447 0
M  V30 6373 C 620.461 -3.03745 1.9342 0
M  V30 6374 C 620.314 -2.86581 3.46686 0
M  V30 6375 C 621.633 -4.04144 1.74228 0
M  V30 6376 H 618.752 -0.607427 0.417374 0
M  V30 6377 H 621.394 -1.07089 1.56946 0
M  V30 6378 H 619.544 -3.55204 1.5736 0
M  V30 6379 H 621.216 -2.42203 3.92601 0
M  V30 6380 H 619.459 -2.21829 3.72793 0
M  V30 6381 H 620.13 -3.83381 3.97143 0
M  V30 6382 H 622.606 -3.61712 2.05678 0
M  V30 6383 H 621.482 -4.97543 2.31824 0
M  V30 6384 H 621.743 -4.36661 0.691373 0
M  V30 6385 N 620.802 -1.09834 -1.13024 0
M  V30 6386 C 622.027 -0.85909 -1.88771 0
M  V30 6387 C 622.452 0.584402 -1.78791 0
M  V30 6388 O 621.81 1.41101 -1.13842 0
M  V30 6389 C 621.858 -1.30427 -3.36186 0
M  V30 6390 O 620.962 -0.465368 -4.09766 0
M  V30 6391 H 620.303 -0.310786 -0.586778 0
M  V30 6392 H 622.833 -1.46355 -1.42973 0
M  V30 6393 H 622.843 -1.2915 -3.8702 0
M  V30 6394 H 621.518 -2.3555 -3.42767 0
M  V30 6395 H 620.095 -0.542814 -3.68928 0
M  V30 6396 N 622.28 1.30327 -0.886154 0
M  V30 6397 C 623.557 1.90922 -0.425217 0
M  V30 6398 C 623.937 1.80533 1.09413 0
M  V30 6399 O 623.285 1.2233 1.92996 0
M  V30 6400 C 623.495 3.36529 -0.924638 0
M  V30 6401 C 624.843 4.13598 -0.960305 0
M  V30 6402 O 625.867 3.45377 -0.871382 0
M  V30 6403 O 624.726 5.35482 -1.09184 0
M  V30 6404 H 621.82 0.81668 -0.130238 0
M  V30 6405 H 624.366 1.38886 -0.975132 0
M  V30 6406 H 623.138 3.38181 -1.96849 0
M  V30 6407 H 622.761 3.96021 -0.353955 0
M  V30 6408 N 623.758 0.647228 1.43697 0
M  V30 6409 C 624.688 -0.0345631 2.33474 0
M  V30 6410 C 625.669 -0.818193 1.4913 0
M  V30 6411 O 626.854 -0.780867 1.77809 0
M  V30 6412 C 623.984 -1.00576 3.32418 0
M  V30 6413 C 622.938 -0.33266 4.26705 0
M  V30 6414 C 622.264 -1.41489 5.1564 0
M  V30 6415 C 623.564 0.771204 5.16575 0
M  V30 6416 H 625.258 0.715163 2.90733 0
M  V30 6417 H 622.804 0.345364 1.39797 0
M  V30 6418 H 624.757 -1.49159 3.94119 0
M  V30 6419 H 623.481 -1.78657 2.73403 0
M  V30 6420 H 622.14 0.13267 3.6636 0
M  V30 6421 H 621.788 -2.18698 4.52968 0
M  V30 6422 H 621.488 -0.969799 5.79542 0
M  V30 6423 H 623.012 -1.9022 5.80214 0
M  V30 6424 H 624.426 0.36779 5.72119 0
M  V30 6425 H 622.823 1.1404 5.89165 0
M  V30 6426 H 623.893 1.63169 4.56622 0
M  V30 6427 N 625.236 -1.5273 0.388769 0
M  V30 6428 C 626.647 -1.86505 -0.0853788 0
M  V30 6429 C 626.998 -1.30847 -1.46197 0
M  V30 6430 O 626.123 -0.639609 -2.06732 0
M  V30 6431 C 626.718 -3.38414 -0.161703 0
M  V30 6432 C 625.277 -3.71902 -0.580144 0
M  V30 6433 C 624.424 -2.76095 0.258218 0
M  V30 6434 H 627.375 -1.46647 0.606665 0
M  V30 6435 H 627.396 -3.67638 -0.980936 0
M  V30 6436 H 626.908 -3.78893 0.840333 0
M  V30 6437 H 625.009 -3.36992 -1.58957 0
M  V30 6438 H 625.122 -4.77902 -0.338663 0
M  V30 6439 H 623.486 -2.53195 -0.276432 0
M  V30 6440 H 624.269 -3.19411 1.25822 0
M  V30 6441 N 626.714 -0.118576 -1.57153 0
M  V30 6442 C 627.644 0.828436 -2.1831 0
M  V30 6443 C 628.625 1.27758 -1.12303 0
M  V30 6444 O 629.81 1.34026 -1.40537 0
M  V30 6445 C 626.94 2.07876 -2.78217 0
M  V30 6446 C 625.894 1.76742 -3.89803 0
M  V30 6447 C 625.22 3.08801 -4.36516 0
M  V30 6448 C 626.52 1.03606 -5.11921 0
M  V30 6449 H 628.214 0.318824 -2.97698 0
M  V30 6450 H 625.76 0.151911 -1.43196 0
M  V30 6451 H 627.713 2.74584 -3.19659 0
M  V30 6452 H 626.437 2.61161 -1.96118 0
M  V30 6453 H 625.096 1.12424 -3.48936 0
M  V30 6454 H 624.744 3.6002 -3.51276 0
M  V30 6455 H 624.444 2.88743 -5.11763 0
M  V30 6456 H 625.968 3.76627 -4.80608 0
M  V30 6457 H 627.382 1.60467 -5.50385 0
M  V30 6458 H 625.779 0.936454 -5.92748 0
M  V30 6459 H 626.849 0.0227421 -4.84895 0
M  V30 6460 N 628.193 1.56834 0.155195 0
M  V30 6461 C 629.604 1.72421 0.716082 0
M  V30 6462 C 629.955 0.731685 1.82046 0
M  V30 6463 O 629.08 -0.103481 2.16152 0
M  V30 6464 C 629.675 3.12629 1.30571 0
M  V30 6465 C 628.234 3.29846 1.81325 0
M  V30 6466 C 627.381 2.68359 0.698494 0
M  V30 6467 H 630.332 1.58544 -0.0703861 0
M  V30 6468 H 630.353 3.12174 2.1755 0
M  V30 6469 H 629.865 3.84844 0.501701 0
M  V30 6470 H 627.966 2.62614 2.64319 0
M  V30 6471 H 628.079 4.37727 1.9476 0
M  V30 6472 H 626.443 2.28604 1.12305 0
M  V30 6473 H 627.226 3.43171 -0.0939366 0
M  V30 6474 N 629.671 -0.424282 1.51781 0
M  V30 6475 C 630.601 -1.52305 1.7699 0
M  V30 6476 C 631.582 -1.5839 0.620209 0
M  V30 6477 O 632.767 -1.73908 0.864268 0
M  V30 6478 C 629.897 -2.90271 1.90683 0
M  V30 6479 C 628.851 -2.99043 3.06198 0
M  V30 6480 C 628.177 -4.39116 3.05092 0
M  V30 6481 C 629.477 -2.7192 4.45934 0
M  V30 6482 H 631.171 -1.31461 2.68995 0
M  V30 6483 H 628.717 -0.630985 1.29439 0
M  V30 6484 H 630.67 -3.6711 2.06901 0
M  V30 6485 H 629.394 -3.12376 0.953365 0
M  V30 6486 H 628.053 -2.24646 2.89706 0
M  V30 6487 H 627.701 -4.58207 2.07498 0
M  V30 6488 H 627.401 -4.45912 3.82669 0
M  V30 6489 H 628.925 -5.17911 3.2342 0
M  V30 6490 H 630.339 -3.38487 4.62709 0
M  V30 6491 H 628.736 -2.90111 5.25315 0
M  V30 6492 H 629.806 -1.67445 4.55072 0
M  V30 6493 N 631.149 -1.42148 -0.680565 0
M  V30 6494 C 632.56 -1.3768 -1.26099 0
M  V30 6495 C 632.911 -0.0672348 -1.96085 0
M  V30 6496 O 632.036 0.834172 -1.99676 0
M  V30 6497 C 632.631 -2.49387 -2.29328 0
M  V30 6498 C 631.19 -2.4827 -2.82911 0
M  V30 6499 C 630.337 -2.2847 -1.57152 0
M  V30 6500 H 633.288 -1.51446 -0.474326 0
M  V30 6501 H 633.309 -2.19307 -3.10941 0
M  V30 6502 H 632.821 -3.44686 -1.78363 0
M  V30 6503 H 630.922 -1.56773 -3.38013 0
M  V30 6504 H 631.035 -3.45109 -3.3232 0
M  V30 6505 H 629.399 -1.76623 -1.83511 0
M  V30 6506 H 630.182 -3.25816 -1.0816 0
M  V30 6507 N 632.627 0.916307 -1.28225 0
M  V30 6508 C 633.559 2.02303 -1.07732 0
M  V30 6509 C 634.572 1.62773 -0.0298421 0
M  V30 6510 O 635.761 1.76406 -0.272626 0
M  V30 6511 C 632.861 3.33282 -0.614504 0
M  V30 6512 C 632.034 4.01439 -1.73682 0
M  V30 6513 C 631.093 5.10698 -1.26781 0
M  V30 6514 O 630.119 5.34038 -1.96958 0
M  V30 6515 N 631.321 5.80355 -0.129624 0
M  V30 6516 H 634.086 2.20442 -2.03041 0
M  V30 6517 H 631.647 1.08744 -1.19943 0
M  V30 6518 H 633.639 4.03699 -0.284397 0
M  V30 6519 H 632.209 3.11633 0.245664 0
M  V30 6520 H 631.429 3.24604 -2.23665 0
M  V30 6521 H 632.717 4.43721 -2.48976 0
M  V30 6522 H 632.115 5.6386 0.455847 0
M  V30 6523 H 630.672 6.51647 0.141224 0
M  V30 6524 N 634.105 1.10431 1.1244 0
M  V30 6525 C 635.516 0.864439 1.65482 0
M  V30 6526 C 635.867 -0.60527 1.8663 0
M  V30 6527 O 634.992 -1.46492 1.59276 0
M  V30 6528 C 635.587 1.56267 3.0061 0
M  V30 6529 C 634.146 1.3695 3.50602 0
M  V30 6530 C 633.293 1.61209 2.25626 0
M  V30 6531 H 636.244 1.26203 0.962209 0
M  V30 6532 H 636.265 1.00166 3.67079 0
M  V30 6533 H 635.777 2.63231 2.85186 0
M  V30 6534 H 633.878 0.321481 3.71211 0
M  V30 6535 H 633.991 2.11143 4.30064 0
M  V30 6536 H 632.355 1.03482 2.32731 0
M  V30 6537 H 633.138 2.69425 2.12756 0
M  V30 6538 N 635.583 -1.29855 0.893053 0
M  V30 6539 C 636.546 -2.26183 0.370687 0
M  V30 6540 C 637.546 -1.53108 -0.491385 0
M  V30 6541 O 638.736 -1.71643 -0.297386 0
M  V30 6542 C 635.868 -3.37633 -0.470827 0
M  V30 6543 H 637.061 -2.73903 1.22135 0
M  V30 6544 H 634.614 -1.41183 0.67061 0
M  V30 6545 H 635.349 -2.95241 -1.34175 0
M  V30 6546 H 635.134 -3.91825 0.146784 0
M  V30 6547 H 636.624 -4.09313 -0.827825 0
M  V30 6548 N 637.061 -0.65484 -1.43351 0
M  V30 6549 C 637.991 0.0221809 -2.33489 0
M  V30 6550 C 638.972 0.810272 -1.49561 0
M  V30 6551 O 640.157 0.771426 -1.78221 0
M  V30 6552 C 637.287 0.988117 -3.32947 0
M  V30 6553 C 636.241 0.310026 -4.26876 0
M  V30 6554 C 635.567 1.38752 -5.16384 0
M  V30 6555 C 636.867 -0.798589 -5.16159 0
M  V30 6556 H 638.561 -0.730571 -2.9035 0
M  V30 6557 H 636.107 -0.352773 -1.39612 0
M  V30 6558 H 638.06 1.47067 -3.94904 0
M  V30 6559 H 636.784 1.77205 -2.74346 0
M  V30 6560 H 635.443 -0.152097 -3.66284 0
M  V30 6561 H 635.091 2.16293 -4.54121 0
M  V30 6562 H 634.791 0.939051 -5.80048 0
M  V30 6563 H 636.315 1.87141 -5.81215 0
M  V30 6564 H 637.729 -0.398126 -5.71916 0
M  V30 6565 H 636.126 -1.17163 -5.88552 0
M  V30 6566 H 637.196 -1.65588 -4.55751 0
M  V30 6567 N 638.539 1.52521 -0.396863 0
M  V30 6568 C 639.502 2.2527 0.422604 0
M  V30 6569 C 640.502 1.27184 0.983913 0
M  V30 6570 O 641.692 1.51222 0.864723 0
M  V30 6571 C 638.824 3.01356 1.59365 0
M  V30 6572 H 640.017 2.99133 -0.214416 0
M  V30 6573 H 637.57 1.55587 -0.149128 0
M  V30 6574 H 638.305 2.31813 2.26789 0
M  V30 6575 H 638.09 3.73357 1.19779 0
M  V30 6576 H 639.58 3.56571 2.17363 0
M  V30 6577 N 640.017 0.126909 1.57088 0
M  V30 6578 C 641.242 -0.53997 2.00248 0
M  V30 6579 C 641.667 -1.58927 1.00618 0
M  V30 6580 O 641.025 -1.81288 -0.0210131 0
M  V30 6581 C 641.073 -1.13565 3.4225 0
M  V30 6582 O 640.177 -2.25103 3.45547 0
M  V30 6583 H 639.518 -0.13412 0.650314 0
M  V30 6584 H 642.048 0.217718 2.03438 0
M  V30 6585 H 642.058 -1.46925 3.80627 0
M  V30 6586 H 640.733 -0.367122 4.14277 0
M  V30 6587 H 639.31 -1.93123 3.18995 0
M  V30 6588 N 641.495 -1.56914 -0.146875 0
M  V30 6589 C 642.906 -1.72799 -0.706928 0
M  V30 6590 C 643.257 -0.741329 -1.81656 0
M  V30 6591 O 642.382 0.0920162 -2.16204 0
M  V30 6592 C 642.977 -3.13317 -1.28911 0
M  V30 6593 C 641.536 -3.30803 -1.79573 0
M  V30 6594 C 640.683 -2.68725 -0.684252 0
M  V30 6595 H 643.634 -1.58504 0.0787931 0
M  V30 6596 H 643.655 -3.13323 -2.15891 0
M  V30 6597 H 643.167 -3.85104 -0.481284 0
M  V30 6598 H 641.268 -2.64012 -2.62923 0
M  V30 6599 H 641.381 -4.38754 -1.92436 0
M  V30 6600 H 639.745 -2.29196 -1.11091 0
M  V30 6601 H 640.528 -3.43117 0.112134 0
M  V30 6602 N 642.974 0.416227 -1.52004 0
M  V30 6603 C 644.222 1.16153 -1.65387 0
M  V30 6604 C 644.543 1.91208 -0.382669 0
M  V30 6605 O 643.813 1.86413 0.602231 0
M  V30 6606 H 642.393 0.431765 -0.60958 0
M  V30 6607 H 645.055 0.475151 -1.89019 0
M  V30 6608 H 644.151 1.87952 -2.4916 0
M  V30 6609 N 644.452 1.42507 0.673017 0
M  V30 6610 C 645.677 1.4668 1.46627 0
M  V30 6611 C 646.102 0.080066 1.8793 0
M  V30 6612 O 645.46 -0.921879 1.56112 0
M  V30 6613 C 645.508 2.40091 2.69051 0
M  V30 6614 O 644.612 1.8735 3.67387 0
M  V30 6615 H 643.953 0.496908 0.44043 0
M  V30 6616 H 646.483 1.87215 0.825334 0
M  V30 6617 H 646.493 2.56731 3.17101 0
M  V30 6618 H 645.168 3.4084 2.3833 0
M  V30 6619 H 643.745 1.80274 3.26429 0
M  V30 6620 N 645.93 -0.909495 1.28709 0
M  V30 6621 C 647.341 -1.47419 1.14563 0
M  V30 6622 C 647.692 -1.94432 -0.262832 0
M  V30 6623 O 646.817 -1.82842 -1.15748 0
M  V30 6624 C 647.412 -2.67933 2.07358 0
M  V30 6625 C 645.971 -3.20568 1.97264 0
M  V30 6626 C 645.118 -1.93269 1.98852 0
M  V30 6627 H 648.069 -0.721787 1.41336 0
M  V30 6628 H 648.09 -3.43339 1.64007 0
M  V30 6629 H 647.602 -2.33685 3.09859 0
M  V30 6630 H 645.703 -3.59531 0.978157 0
M  V30 6631 H 645.816 -3.85529 2.84436 0
M  V30 6632 H 644.18 -2.10553 1.43317 0
M  V30 6633 H 644.963 -1.61312 3.0304 0
M  V30 6634 N 647.408 -1.11026 -1.11852 0
M  V30 6635 C 648.318 -0.777252 -2.2135 0
M  V30 6636 C 649.334 0.227821 -1.72502 0
M  V30 6637 O 650.51 0.0650587 -2.01295 0
M  V30 6638 C 647.575 -0.220668 -3.45997 0
M  V30 6639 C 646.636 -1.2838 -4.09655 0
M  V30 6640 C 645.869 -0.753678 -5.28352 0
M  V30 6641 O 646.092 0.417779 -5.68868 0
M  V30 6642 O 645.026 -1.51647 -5.82483 0
M  V30 6643 H 648.852 -1.69141 -2.5224 0
M  V30 6644 H 646.437 -0.885836 -1.20305 0
M  V30 6645 H 648.319 0.0855756 -4.21313 0
M  V30 6646 H 646.994 0.666262 -3.16769 0
M  V30 6647 H 645.901 -1.64299 -3.3609 0
M  V30 6648 H 647.234 -2.14396 -4.43052 0
M  V30 6649 N 648.886 1.2938 -0.899927 0
M  V30 6650 C 650.297 1.77644 -0.574427 0
M  V30 6651 C 650.648 1.73824 0.909928 0
M  V30 6652 O 649.773 1.32429 1.71147 0
M  V30 6653 C 650.368 3.22573 -1.03595 0
M  V30 6654 C 648.927 3.68614 -0.76161 0
M  V30 6655 C 648.074 2.49483 -1.21052 0
M  V30 6656 H 651.025 1.16038 -1.08263 0
M  V30 6657 H 651.046 3.78684 -0.371337 0
M  V30 6658 H 650.558 3.25321 -2.11631 0
M  V30 6659 H 648.659 3.7134 0.306127 0
M  V30 6660 H 648.772 4.59402 -1.35965 0
M  V30 6661 H 647.136 2.46798 -0.629515 0
M  V30 6662 H 647.919 2.54959 -2.29893 0
M  V30 6663 N 650.364 0.662433 1.43002 0
M  V30 6664 C 651.294 -0.00979809 2.33498 0
M  V30 6665 C 652.275 -0.802329 1.49989 0
M  V30 6666 O 653.46 -0.761964 1.78627 0
M  V30 6667 C 650.59 -0.970446 3.33466 0
M  V30 6668 C 649.544 -0.287383 4.27034 0
M  V30 6669 C 648.87 -1.36012 5.17112 0
M  V30 6670 C 650.17 0.82595 5.15728 0
M  V30 6671 H 651.864 0.745959 2.89958 0
M  V30 6672 H 649.41 0.360172 1.39423 0
M  V30 6673 H 651.363 -1.44971 3.95679 0
M  V30 6674 H 650.087 -1.75748 2.75282 0
M  V30 6675 H 648.746 0.17152 3.66199 0
M  V30 6676 H 648.394 -2.13882 4.55262 0
M  V30 6677 H 648.094 -0.908276 5.80538 0
M  V30 6678 H 649.618 -1.84056 5.82199 0
M  V30 6679 H 651.032 0.42845 5.71697 0
M  V30 6680 H 649.429 1.20282 5.87922 0
M  V30 6681 H 650.499 1.68003 4.54866 0
M  V30 6682 N 651.842 -1.52309 0.404946 0
M  V30 6683 C 653.253 -1.86585 -0.0655926 0
M  V30 6684 C 653.604 -1.3239 -1.44801 0
M  V30 6685 O 652.729 -0.6615 -2.06042 0
M  V30 6686 C 653.324 -3.38566 -0.125801 0
M  V30 6687 C 651.883 -3.72497 -0.540666 0
M  V30 6688 C 651.03 -2.75806 0.287487 0
M  V30 6689 H 653.981 -1.45995 0.622185 0
M  V30 6690 H 654.002 -3.68658 -0.941888 0
M  V30 6691 H 653.514 -3.77981 0.880473 0
M  V30 6692 H 651.615 -3.38659 -1.55373 0
M  V30 6693 H 651.728 -4.78234 -0.287956 0
M  V30 6694 H 650.092 -2.53474 -0.249561 0
M  V30 6695 H 650.875 -3.18059 1.29203 0
M  V30 6696 N 653.32 -0.135238 -1.57019 0
M  V30 6697 C 654.569 0.518694 -1.94917 0
M  V30 6698 C 654.882 1.66783 -1.0219 0
M  V30 6699 O 656.088 2.38561 -1.29619 0
M  V30 6700 C 654.544 0.974123 -3.46466 0
M  V30 6701 C 654.152 -0.147439 -4.47757 0
M  V30 6702 C 655.896 1.59851 -3.93253 0
M  V30 6703 C 653.803 0.325599 -5.90503 0
M  V30 6704 H 652.733 0.19754 -0.727663 0
M  V30 6705 H 655.384 -0.217698 -1.82204 0
M  V30 6706 H 653.766 1.76542 -3.5447 0
M  V30 6707 H 654.94 -0.924122 -4.51438 0
M  V30 6708 H 653.255 -0.679496 -4.10818 0
M  V30 6709 H 655.852 1.96385 -4.9733 0
M  V30 6710 H 656.195 2.48306 -3.3414 0
M  V30 6711 H 656.728 0.872323 -3.88118 0
M  V30 6712 H 653.467 -0.523295 -6.53408 0
M  V30 6713 H 652.987 1.06841 -5.90208 0
M  V30 6714 H 654.666 0.781498 -6.42263 0
M  V30 6715 N 654.798 1.5699 0.138552 0
M  V30 6716 C 655.728 2.01933 1.17241 0
M  V30 6717 C 656.709 0.90033 1.44319 0
M  V30 6718 O 657.894 1.16872 1.55095 0
M  V30 6719 C 655.024 2.40711 2.50351 0
M  V30 6720 C 653.978 3.55874 2.37776 0
M  V30 6721 C 653.304 3.80491 3.75674 0
M  V30 6722 C 654.604 4.8826 1.85472 0
M  V30 6723 H 656.298 2.88551 0.798672 0
M  V30 6724 H 653.844 1.3882 0.382743 0
M  V30 6725 H 655.797 2.70754 3.22909 0
M  V30 6726 H 654.521 1.5104 2.89576 0
M  V30 6727 H 653.18 3.2601 1.67669 0
M  V30 6728 H 652.828 2.88057 4.12349 0
M  V30 6729 H 652.528 4.57998 3.68119 0
M  V30 6730 H 654.052 4.12967 4.49767 0
M  V30 6731 H 655.466 5.16965 2.4783 0
M  V30 6732 H 653.863 5.69631 1.88787 0
M  V30 6733 H 654.933 4.78071 0.810935 0
M  V30 6734 N 656.276 -0.40816 1.52223 0
M  V30 6735 C 657.501 -1.18127 1.70472 0
M  V30 6736 C 657.926 -1.83491 0.41384 0
M  V30 6737 O 657.284 -1.70047 -0.628778 0
M  V30 6738 C 657.332 -2.21935 2.84213 0
M  V30 6739 O 656.436 -3.28099 2.4985 0
M  V30 6740 H 655.777 -0.344781 0.56747 0
M  V30 6741 H 658.307 -0.478328 1.9893 0
M  V30 6742 H 658.317 -2.66248 3.09153 0
M  V30 6743 H 656.992 -1.73744 3.7787 0
M  V30 6744 H 655.569 -2.89058 2.35584 0
M  V30 6745 N 657.755 -1.42862 -0.66545 0
M  V30 6746 C 658.685 -1.49867 -1.79059 0
M  V30 6747 C 659.666 -0.354394 -1.66367 0
M  V30 6748 O 660.851 -0.569969 -1.85647 0
M  V30 6749 C 657.981 -1.40943 -3.17415 0
M  V30 6750 C 656.935 -2.53495 -3.44854 0
M  V30 6751 C 656.261 -2.29626 -4.82883 0
M  V30 6752 C 657.561 -3.95781 -3.40815 0
M  V30 6753 H 659.255 -2.44037 -1.73453 0
M  V30 6754 H 656.801 -1.17456 -0.833071 0
M  V30 6755 H 658.754 -1.4445 -3.95869 0
M  V30 6756 H 657.478 -0.432716 -3.23721 0
M  V30 6757 H 656.137 -2.4932 -2.68766 0
M  V30 6758 H 655.785 -1.30226 -4.8585 0
M  V30 6759 H 655.485 -3.05065 -5.02204 0
M  V30 6760 H 657.009 -2.34897 -5.63609 0
M  V30 6761 H 658.423 -4.01508 -4.09224 0
M  V30 6762 H 656.82 -4.71148 -3.71672 0
M  V30 6763 H 657.89 -4.21786 -2.39216 0
M  V30 6764 N 659.233 0.902656 -1.29189 0
M  V30 6765 C 660.181 2.0278 -1.13943 0
M  V30 6766 C 661.175 1.69308 -0.055787 0
M  V30 6767 O 662.381 1.78707 -0.215371 0
M  V30 6768 H 658.756 0.664595 -0.351877 0
M  V30 6769 H 660.727 2.12778 -2.09208 0
M  V30 6770 C 659.476 3.37657 -0.82966 0
M  V30 6771 H 658.799 3.63913 -1.65551 0
M  V30 6772 H 660.239 4.17078 -0.762998 0
M  V30 6773 C 658.698 3.33648 0.466991 0
M  V30 6774 O 659.228 3.72886 1.49395 0
M  V30 6775 N 657.434 2.86745 0.471761 0
M  V30 6776 H 656.981 2.55009 -0.364406 0
M  V30 6777 H 656.939 2.84446 1.33933 0
M  V30 6778 N 660.711 1.11618 1.11262 0
M  V30 6779 C 661.959 0.864469 1.82678 0
M  V30 6780 C 662.28 -0.611564 1.85162 0
M  V30 6781 O 661.55 -1.44429 1.32352 0
M  V30 6782 H 660.13 0.316821 0.676486 0
M  V30 6783 H 662.792 1.40894 1.34666 0
M  V30 6784 H 661.888 1.23832 2.86482 0
M  V30 6785 N 662.189 -1.289 0.906776 0
M  V30 6786 C 663.437 -1.94883 0.535266 0
M  V30 6787 C 663.758 -1.71784 -0.922791 0
M  V30 6788 O 663.028 -1.05359 -1.65156 0
M  V30 6789 H 661.608 -0.721109 0.194962 0
M  V30 6790 H 664.27 -1.57018 1.15461 0
M  V30 6791 H 663.366 -3.03591 0.723821 0
M  V30 6792 N 663.667 -0.670007 -1.42649 0
M  V30 6793 C 664.915 -0.18991 -2.01206 0
M  V30 6794 C 665.236 1.20617 -1.53221 0
M  V30 6795 O 664.506 1.80898 -0.751856 0
M  V30 6796 H 663.086 -0.0672189 -0.743969 0
M  V30 6797 H 665.748 -0.865442 -1.74631 0
M  V30 6798 H 664.844 -0.187481 -3.11536 0
M  V30 6799 N 665.145 1.52092 -0.413018 0
M  V30 6800 C 666.556 1.86617 0.0556967 0
M  V30 6801 C 666.907 1.33156 1.44097 0
M  V30 6802 O 666.032 0.672417 2.05688 0
M  V30 6803 C 666.627 3.38628 0.107844 0
M  V30 6804 C 665.186 3.72778 0.520904 0
M  V30 6805 C 664.333 2.75649 -0.302109 0
M  V30 6806 H 667.284 1.45663 -0.629919 0
M  V30 6807 H 667.305 3.69152 0.922324 0
M  V30 6808 H 666.817 3.77508 -0.900506 0
M  V30 6809 H 664.918 3.39478 1.53575 0
M  V30 6810 H 665.031 4.7838 0.262591 0
M  V30 6811 H 663.395 2.53603 0.236115 0
M  V30 6812 H 664.178 3.17369 -1.30888 0
M  V30 6813 N 666.623 0.143563 1.56945 0
M  V30 6814 C 667.533 -0.810562 2.20152 0
M  V30 6815 C 668.549 -1.27431 1.1848 0
M  V30 6816 O 669.725 -1.33221 1.51044 0
M  V30 6817 C 666.79 -2.03353 2.80799 0
M  V30 6818 C 665.851 -1.61936 3.97587 0
M  V30 6819 C 665.084 -2.78403 4.55332 0
M  V30 6820 O 665.307 -3.94521 4.11958 0
M  V30 6821 O 664.241 -2.54073 5.45647 0
M  V30 6822 H 668.067 -0.30253 3.02189 0
M  V30 6823 H 665.652 -0.0832925 1.49168 0
M  V30 6824 H 667.534 -2.74932 3.19359 0
M  V30 6825 H 666.209 -2.53116 2.01777 0
M  V30 6826 H 665.116 -0.873904 3.6375 0
M  V30 6827 H 666.449 -1.16892 4.78118 0
M  V30 6828 N 668.101 -1.57061 -0.130224 0
M  V30 6829 C 669.031 -2.02552 -1.16168 0
M  V30 6830 C 670.012 -0.907971 -1.4384 0
M  V30 6831 O 671.197 -1.17693 -1.54473 0
M  V30 6832 C 668.327 -2.42035 -2.49071 0
M  V30 6833 C 667.281 -3.5713 -2.35886 0
M  V30 6834 C 666.607 -3.82478 -3.7365 0
M  V30 6835 C 667.907 -4.89236 -1.8288 0
M  V30 6836 H 669.601 -2.8897 -0.783359 0
M  V30 6837 H 667.147 -1.39021 -0.375376 0
M  V30 6838 H 669.1 -2.72462 -3.21469 0
M  V30 6839 H 667.824 -1.52573 -2.88771 0
M  V30 6840 H 666.483 -3.26895 -1.65938 0
M  V30 6841 H 666.131 -2.9024 -4.10816 0
M  V30 6842 H 665.831 -4.59944 -3.65685 0
M  V30 6843 H 667.355 -4.15347 -4.47571 0
M  V30 6844 H 668.769 -5.18272 -2.45085 0
M  V30 6845 H 667.166 -5.70624 -1.85763 0
M  V30 6846 H 668.236 -4.78494 -0.785571 0
M  V30 6847 N 669.579 0.400081 -1.52437 0
M  V30 6848 C 670.542 1.4707 -1.75793 0
M  V30 6849 C 671.542 1.48036 -0.627856 0
M  V30 6850 O 672.732 1.49401 -0.895817 0
M  V30 6851 C 669.864 2.86427 -1.84858 0
M  V30 6852 H 671.057 1.27649 -2.71377 0
M  V30 6853 H 668.61 0.631141 -1.42991 0
M  V30 6854 H 669.345 3.11207 -0.912194 0
M  V30 6855 H 669.13 2.87128 -2.6702 0
M  V30 6856 H 670.62 3.64023 -2.04638 0
M  V30 6857 N 671.057 1.43213 0.657864 0
M  V30 6858 C 672.305 1.44298 1.41501 0
M  V30 6859 C 672.626 0.0666478 1.94886 0
M  V30 6860 O 671.896 -0.897345 1.74139 0
M  V30 6861 H 670.476 0.531257 0.525143 0
M  V30 6862 H 673.138 1.78777 0.776195 0
M  V30 6863 H 672.234 2.1528 2.25966 0
M  V30 6864 N 672.536 -0.895792 1.29666 0
M  V30 6865 C 673.813 -1.62723 1.08538 0
M  V30 6866 C 674.193 -2.07848 -0.369119 0
M  V30 6867 O 673.541 -1.8372 -1.35864 0
M  V30 6868 C 673.751 -2.80505 2.07648 0
M  V30 6869 C 675.099 -3.51098 2.3878 0
M  V30 6870 O 676.123 -2.90679 2.05874 0
M  V30 6871 O 674.982 -4.60028 2.9502 0
M  V30 6872 H 672.076 -0.714692 0.416106 0
M  V30 6873 H 674.622 -0.943517 1.41053 0
M  V30 6874 H 673.394 -2.44386 3.05599 0
M  V30 6875 H 673.017 -3.5658 1.75887 0
M  V30 6876 N 674.014 -1.12206 -1.10668 0
M  V30 6877 C 675.26 -0.887096 -1.83036 0
M  V30 6878 C 675.615 0.580887 -1.83422 0
M  V30 6879 O 674.908 1.42379 -1.28213 0
M  V30 6880 C 675.102 -1.39276 -3.29146 0
M  V30 6881 C 674.931 -2.90837 -3.42992 0
M  V30 6882 C 673.701 -3.59047 -3.55546 0
M  V30 6883 C 675.899 -3.8885 -3.36601 0
M  V30 6884 N 673.881 -4.98747 -3.57945 0
M  V30 6885 C 675.252 -5.14666 -3.45716 0
M  V30 6886 C 677.307 -3.81296 -3.20184 0
M  V30 6887 C 676.01 -6.33814 -3.40106 0
M  V30 6888 C 678.036 -4.99965 -3.15895 0
M  V30 6889 C 677.398 -6.24637 -3.25589 0
M  V30 6890 H 673.497 -0.377857 -0.684652 0
M  V30 6891 H 676.081 -1.42791 -1.32358 0
M  V30 6892 H 674.252 -0.879026 -3.78322 0
M  V30 6893 H 675.984 -1.10011 -3.89461 0
M  V30 6894 H 672.739 -3.09533 -3.5845 0
M  V30 6895 H 673.163 -5.71606 -3.62762 0
M  V30 6896 H 677.805 -2.85806 -3.11569 0
M  V30 6897 H 675.523 -7.29574 -3.47487 0
M  V30 6898 H 679.109 -4.95847 -3.04347 0
M  V30 6899 H 677.989 -7.14921 -3.22269 0
M  V30 6900 N 675.492 1.28418 -0.913599 0
M  V30 6901 C 676.74 1.94596 -0.545594 0
M  V30 6902 C 677.061 1.7227 0.913668 0
M  V30 6903 O 676.331 1.06233 1.64595 0
M  V30 6904 H 674.911 0.720065 -0.198783 0
M  V30 6905 H 677.573 1.56404 -1.16292 0
M  V30 6906 H 676.669 3.03202 -0.739911 0
M  V30 6907 N 676.97 0.677563 1.42291 0
M  V30 6908 C 678.218 0.200578 2.01102 0
M  V30 6909 C 678.539 -1.19803 1.53858 0
M  V30 6910 O 677.809 -1.80496 0.761439 0
M  V30 6911 H 676.389 0.0711634 0.743603 0
M  V30 6912 H 679.051 0.874691 1.7417 0
M  V30 6913 H 678.147 0.204 3.11433 0
M  V30 6914 N 678.448 -1.51871 0.421078 0
M  V30 6915 C 679.411 -2.25914 -0.386712 0
M  V30 6916 C 680.411 -1.28733 -0.963555 0
M  V30 6917 O 681.601 -1.52579 -0.840556 0
M  V30 6918 C 678.733 -3.03853 -1.54551 0
M  V30 6919 H 679.926 -2.98754 0.261978 0
M  V30 6920 H 677.479 -1.5533 0.173862 0
M  V30 6921 H 678.214 -2.35392 -2.23072 0
M  V30 6922 H 677.999 -3.75215 -1.13824 0
M  V30 6923 H 679.489 -3.59984 -2.11663 0
M  V30 6924 N 679.926 -0.151884 -1.56866 0
M  V30 6925 C 681.174 0.497021 -1.95893 0
M  V30 6926 C 681.495 1.65078 -1.03799 0
M  V30 6927 O 680.765 1.95642 -0.10049 0
M  V30 6928 H 679.345 0.186603 -0.723318 0
M  V30 6929 H 682.007 -0.228525 -1.93556 0
M  V30 6930 H 681.103 0.869933 -2.99731 0
M  V30 6931 N 681.404 1.57128 0.121893 0
M  V30 6932 C 682.681 1.75664 0.860327 0
M  V30 6933 C 683.061 0.726585 1.98202 0
M  V30 6934 O 682.409 -0.24999 2.27128 0
M  V30 6935 C 682.619 3.20571 1.37968 0
M  V30 6936 C 683.967 3.82988 1.83317 0
M  V30 6937 O 684.991 3.24156 1.47654 0
M  V30 6938 O 683.85 4.86393 2.49168 0
M  V30 6939 H 680.944 0.719153 0.408348 0
M  V30 6940 H 683.49 1.6937 0.105859 0
M  V30 6941 H 682.262 3.87056 0.57477 0
M  V30 6942 H 681.885 3.31392 2.19694 0
M  V30 6943 N 682.882 -0.391992 1.52647 0
M  V30 6944 C 683.845 -1.46135 1.7657 0
M  V30 6945 C 684.845 -1.47701 0.635698 0
M  V30 6946 O 686.035 -1.48924 0.903728 0
M  V30 6947 C 683.167 -2.85443 1.86374 0
M  V30 6948 H 684.36 -1.26208 2.72051 0
M  V30 6949 H 681.913 -0.623549 1.43323 0
M  V30 6950 H 682.648 -3.10718 0.928685 0
M  V30 6951 H 682.433 -2.85708 2.68539 0
M  V30 6952 H 683.923 -3.62933 2.06566 0
M  V30 6953 N 684.36 -1.4356 -0.65026 0
M  V30 6954 C 685.771 -1.40324 -1.2315 0
M  V30 6955 C 686.122 -0.108812 -1.95898 0
M  V30 6956 O 685.247 0.79163 -2.01401 0
M  V30 6957 C 685.842 -2.54195 -2.23987 0
M  V30 6958 C 684.401 -2.54215 -2.77582 0
M  V30 6959 C 683.548 -2.31752 -1.5227 0
M  V30 6960 H 686.499 -1.52418 -0.442095 0
M  V30 6961 H 686.52 -2.25854 -3.0622 0
M  V30 6962 H 686.032 -3.48392 -1.71011 0
M  V30 6963 H 684.133 -1.63907 -3.34612 0
M  V30 6964 H 684.246 -3.52081 -3.24925 0
M  V30 6965 H 682.61 -1.80476 -1.79723 0
M  V30 6966 H 683.393 -3.28037 -1.01225 0
M  V30 6967 N 685.838 0.888903 -1.30139 0
M  V30 6968 C 686.768 2.01046 -1.18755 0
M  V30 6969 C 687.749 1.69916 -0.0791438 0
M  V30 6970 O 688.934 1.92445 -0.260498 0
M  V30 6971 C 686.064 3.36109 -0.874518 0
M  V30 6972 C 685.018 3.81486 -1.94043 0
M  V30 6973 C 684.344 5.13796 -1.48047 0
M  V30 6974 C 685.644 4.00637 -3.35093 0
M  V30 6975 H 687.338 2.10828 -2.12584 0
M  V30 6976 H 684.884 1.01298 -1.02346 0
M  V30 6977 H 686.837 4.14089 -0.781548 0
M  V30 6978 H 685.561 3.26449 0.0994519 0
M  V30 6979 H 684.22 3.05731 -2.02297 0
M  V30 6980 H 683.868 5.0056 -0.494878 0
M  V30 6981 H 683.568 5.45127 -2.19341 0
M  V30 6982 H 685.092 5.94305 -1.40121 0
M  V30 6983 H 686.506 4.69067 -3.2962 0
M  V30 6984 H 684.903 4.43339 -4.04438 0
M  V30 6985 H 685.973 3.0462 -3.77273 0
M  V30 6986 N 687.317 1.12792 1.10072 0
M  V30 6987 C 688.542 0.908838 1.86427 0
M  V30 6988 C 688.967 -0.536793 1.80278 0
M  V30 6989 O 688.325 -1.38033 1.17543 0
M  V30 6990 C 688.373 1.39295 3.3261 0
M  V30 6991 O 687.477 0.573846 4.08388 0
M  V30 6992 H 686.818 0.326234 0.578331 0
M  V30 6993 H 689.348 1.50094 1.39043 0
M  V30 6994 H 689.358 1.39366 3.83459 0
M  V30 6995 H 688.033 2.44555 3.36401 0
M  V30 6996 H 686.61 0.640438 3.67359 0
M  V30 6997 N 688.795 -1.27931 0.920396 0
M  V30 6998 C 690.206 -1.76707 0.602616 0
M  V30 6999 C 690.557 -1.75249 -0.882159 0
M  V30 7000 O 689.682 -1.35135 -1.69019 0
M  V30 7001 C 690.277 -3.20884 1.08714 0
M  V30 7002 C 688.836 -3.67356 0.820157 0
M  V30 7003 C 687.983 -2.47525 1.25006 0
M  V30 7004 H 690.934 -1.14301 1.10095 0
M  V30 7005 H 690.955 -3.78045 0.431535 0
M  V30 7006 H 690.467 -3.21913 2.1678 0
M  V30 7007 H 688.568 -3.7178 -0.247012 0
M  V30 7008 H 688.681 -4.57181 1.43257 0
M  V30 7009 H 687.045 -2.45765 0.668698 0
M  V30 7010 H 687.828 -2.51269 2.3392 0
M  V30 7011 N 690.273 -0.685099 -1.4193 0
M  V30 7012 C 691.55 -0.140152 -1.95097 0
M  V30 7013 C 691.93 1.34745 -1.62502 0
M  V30 7014 O 691.278 2.08872 -0.926534 0
M  V30 7015 C 691.488 -0.420268 -3.4646 0
M  V30 7016 C 692.836 -0.342338 -4.23218 0
M  V30 7017 O 693.86 -0.354592 -3.54431 0
M  V30 7018 O 692.719 -0.293404 -5.45712 0
M  V30 7019 H 689.813 -0.00885998 -0.826953 0
M  V30 7020 H 692.359 -0.760539 -1.51703 0
M  V30 7021 H 691.131 -1.45037 -3.63428 0
M  V30 7022 H 690.754 0.231616 -3.96925 0
M  V30 7023 N 691.751 1.51645 -0.429126 0
M  V30 7024 C 693.162 1.86665 0.0359003 0
M  V30 7025 C 693.513 1.34677 1.42676 0
M  V30 7026 O 692.638 0.694195 2.04963 0
M  V30 7027 C 693.233 3.38724 0.0719221 0
M  V30 7028 C 691.792 3.7331 0.481336 0
M  V30 7029 C 690.939 2.75313 -0.331329 0
M  V30 7030 H 693.89 1.44987 -0.645333 0
M  V30 7031 H 693.911 3.7011 0.883118 0
M  V30 7032 H 693.423 3.76532 -0.940495 0
M  V30 7033 H 691.524 3.41088 1.49966 0
M  V30 7034 H 691.637 4.78631 0.211837 0
M  V30 7035 H 690.001 2.53839 0.209204 0
M  V30 7036 H 690.784 3.15963 -1.34247 0
M  V30 7037 N 693.229 0.160201 1.56784 0
M  V30 7038 C 694.159 -0.770264 2.2043 0
M  V30 7039 C 695.14 -1.24736 1.15651 0
M  V30 7040 O 696.325 -1.30253 1.44041 0
M  V30 7041 C 693.455 -2.00427 2.83631 0
M  V30 7042 C 692.409 -1.66345 3.94352 0
M  V30 7043 C 691.735 -2.97119 4.4455 0
M  V30 7044 C 693.035 -0.899972 5.14488 0
M  V30 7045 H 694.729 -0.239783 2.98438 0
M  V30 7046 H 692.275 -0.113891 1.43549 0
M  V30 7047 H 694.228 -2.66012 3.26827 0
M  V30 7048 H 692.952 -2.5587 2.02973 0
M  V30 7049 H 691.611 -1.03133 3.51794 0
M  V30 7050 H 691.259 -3.5058 3.60698 0
M  V30 7051 H 690.959 -2.75073 5.19238 0
M  V30 7052 H 692.483 -3.63753 4.90425 0
M  V30 7053 H 693.897 -1.45818 5.54446 0
M  V30 7054 H 692.294 -0.778968 5.95023 0
M  V30 7055 H 693.364 0.105827 4.84785 0
M  V30 7056 N 694.707 -1.5719 -0.113559 0
M  V30 7057 C 695.637 -2.03772 -1.14013 0
M  V30 7058 C 696.618 -0.923176 -1.42869 0
M  V30 7059 O 697.803 -1.19325 -1.53216 0
M  V30 7060 C 694.933 -2.44663 -2.4649 0
M  V30 7061 C 693.887 -3.59612 -2.32085 0
M  V30 7062 C 693.213 -3.8642 -3.69573 0
M  V30 7063 C 694.513 -4.91149 -1.7768 0
M  V30 7064 H 696.207 -2.89785 -0.752665 0
M  V30 7065 H 693.753 -1.39412 -0.360609 0
M  V30 7066 H 695.706 -2.75857 -3.18561 0
M  V30 7067 H 694.43 -1.55628 -2.87137 0
M  V30 7068 H 693.089 -3.28636 -1.62461 0
M  V30 7069 H 692.737 -2.94581 -4.07715 0
M  V30 7070 H 692.437 -4.63797 -3.60786 0
M  V30 7071 H 693.961 -4.2007 -4.4314 0
M  V30 7072 H 695.375 -5.20843 -2.39574 0
M  V30 7073 H 693.772 -5.72562 -1.79701 0
M  V30 7074 H 694.842 -4.79301 -0.734776 0
M  V30 7075 N 696.185 0.383891 -1.52853 0
M  V30 7076 C 697.41 1.154 -1.7233 0
M  V30 7077 C 697.835 1.82809 -0.44298 0
M  V30 7078 O 697.193 1.71026 0.601645 0
M  V30 7079 C 697.241 2.17386 -2.87708 0
M  V30 7080 O 696.345 3.24082 -2.55038 0
M  V30 7081 H 695.686 0.335709 -0.572883 0
M  V30 7082 H 698.216 0.44662 -1.99666 0
M  V30 7083 H 698.226 2.61296 -3.1335 0
M  V30 7084 H 696.901 1.6771 -3.80587 0
M  V30 7085 H 695.478 2.85273 -2.40153 0
M  V30 7086 N 697.663 1.43903 0.642637 0
M  V30 7087 C 698.888 1.49758 1.43483 0
M  V30 7088 C 699.313 0.119911 1.87717 0
M  V30 7089 O 698.671 -0.888558 1.58033 0
M  V30 7090 C 698.719 2.45744 2.63898 0
M  V30 7091 O 697.823 1.95101 3.63331 0
M  V30 7092 H 697.164 0.506138 0.429791 0
M  V30 7093 H 699.694 1.88923 0.785438 0
M  V30 7094 H 699.704 2.63399 3.11584 0
M  V30 7095 H 698.379 3.45818 2.31046 0
M  V30 7096 H 696.956 1.87158 3.22531 0
M  V30 7097 N 699.141 -0.881989 1.30609 0
M  V30 7098 C 700.552 -1.44956 1.17664 0
M  V30 7099 C 700.903 -1.94945 -0.221531 0
M  V30 7100 O 700.028 -1.85257 -1.11844 0
M  V30 7101 C 700.623 -2.63474 2.12995 0
M  V30 7102 C 699.182 -3.16312 2.04019 0
M  V30 7103 C 698.329 -1.89008 2.02907 0
M  V30 7104 H 701.28 -0.691645 1.42835 0
M  V30 7105 H 701.301 -3.39783 1.71253 0
M  V30 7106 H 700.813 -2.2706 3.14746 0
M  V30 7107 H 698.914 -3.57376 1.0542 0
M  V30 7108 H 699.027 -3.79409 2.9255 0
M  V30 7109 H 697.391 -2.07465 1.47751 0
M  V30 7110 H 698.174 -1.54848 3.06394 0
M  V30 7111 N 700.619 -1.13374 -1.09472 0
M  V30 7112 C 702.03 -0.90801 -1.63132 0
M  V30 7113 C 702.381 0.555576 -1.8817 0
M  V30 7114 O 701.506 1.42218 -1.63104 0
M  V30 7115 C 702.101 -1.64182 -2.96361 0
M  V30 7116 C 700.66 -1.46197 -3.46848 0
M  V30 7117 C 699.807 -1.67134 -2.21273 0
M  V30 7118 H 702.758 -1.2871 -0.928411 0
M  V30 7119 H 702.779 -1.09863 -3.64294 0
M  V30 7120 H 702.291 -2.707 -2.78106 0
M  V30 7121 H 700.392 -0.419788 -3.70228 0
M  V30 7122 H 700.505 -2.22472 -4.24315 0
M  V30 7123 H 698.869 -1.09616 -2.29905 0
M  V30 7124 H 699.652 -2.74971 -2.05538 0
M  V30 7125 N 702.098 1.27442 -0.927168 0
M  V30 7126 C 703.346 1.94007 -0.566203 0
M  V30 7127 C 703.667 1.7323 0.895345 0
M  V30 7128 O 702.937 1.07973 1.63459 0
M  V30 7129 H 701.517 0.717917 -0.206409 0
M  V30 7130 H 704.179 1.55161 -1.17945 0
M  V30 7131 H 703.275 3.02401 -0.772028 0
M  V30 7132 N 703.576 0.692616 1.41565 0
M  V30 7133 C 704.801 0.229776 2.06123 0
M  V30 7134 C 705.226 -1.11119 1.5177 0
M  V30 7135 O 704.584 -1.69498 0.643444 0
M  V30 7136 C 704.632 0.19469 3.60074 0
M  V30 7137 O 703.736 -0.831366 4.03933 0
M  V30 7138 H 703.077 0.113002 0.654314 0
M  V30 7139 H 705.607 0.946645 1.81383 0
M  V30 7140 H 705.617 0.0245487 4.07993 0
M  V30 7141 H 704.292 1.17339 3.99004 0
M  V30 7142 H 702.869 -0.630819 3.67526 0
M  V30 7143 N 705.054 -1.51416 0.437162 0
M  V30 7144 C 706.465 -1.86682 -0.0260005 0
M  V30 7145 C 706.816 -1.35432 -1.4196 0
M  V30 7146 O 705.941 -0.705055 -2.04592 0
M  V30 7147 C 706.536 -3.38757 -0.0539577 0
M  V30 7148 C 705.095 -3.7356 -0.461532 0
M  V30 7149 C 704.242 -2.75134 0.345924 0
M  V30 7150 H 707.193 -1.44642 0.653013 0
M  V30 7151 H 707.214 -3.70573 -0.863478 0
M  V30 7152 H 706.726 -3.76028 0.96045 0
M  V30 7153 H 704.827 -3.41878 -1.48155 0
M  V30 7154 H 704.94 -4.78737 -0.186451 0
M  V30 7155 H 703.304 -2.53947 -0.195739 0
M  V30 7156 H 704.087 -3.15247 1.35921 0
M  V30 7157 N 706.532 -0.168513 -1.56696 0
M  V30 7158 C 707.479 0.762875 -2.17828 0
M  V30 7159 C 708.449 1.22892 -1.11745 0
M  V30 7160 O 709.634 1.29759 -1.39883 0
M  V30 7161 C 706.774 1.9879 -2.82093 0
M  V30 7162 C 705.887 1.56568 -4.02629 0
M  V30 7163 C 705.022 2.74416 -4.54829 0
M  V30 7164 C 704.061 2.28671 -5.67782 0
M  V30 7165 N 703.198 3.39602 -6.14504 0
M  V30 7166 H 708.038 0.23479 -2.97074 0
M  V30 7167 H 705.575 0.104163 -1.46731 0
M  V30 7168 H 707.533 2.70636 -3.17509 0
M  V30 7169 H 706.163 2.48973 -2.05456 0
M  V30 7170 H 705.215 0.744067 -3.73052 0
M  V30 7171 H 706.527 1.18988 -4.844 0
M  V30 7172 H 705.681 3.54423 -4.92412 0
M  V30 7173 H 704.42 3.15254 -3.7211 0
M  V30 7174 H 703.425 1.4711 -5.29753 0
M  V30 7175 H 704.65 1.88894 -6.52301 0
M  V30 7176 H 702.596 3.80021 -5.34715 0
M  V30 7177 H 702.513 3.06105 -6.91257 0
M  V30 7178 H 703.781 4.19902 -6.56737 0
M  V30 7179 N 708.01 1.57248 0.105221 0
M  V30 7180 C 708.973 2.00388 1.11252 0
M  V30 7181 C 709.973 0.89594 1.33527 0
M  V30 7182 O 711.163 1.16166 1.29811 0
M  V30 7183 C 708.295 2.35589 2.46395 0
M  V30 7184 H 709.488 2.90591 0.741424 0
M  V30 7185 H 707.041 1.52332 0.349956 0
M  V30 7186 H 707.776 1.4831 2.884 0
M  V30 7187 H 707.561 3.16408 2.31578 0
M  V30 7188 H 709.051 2.69658 3.18864 0
M  V30 7189 N 709.488 -0.375779 1.53054 0
M  V30 7190 C 710.451 -1.44254 1.7811 0
M  V30 7191 C 711.451 -1.47018 0.651328 0
M  V30 7192 O 712.641 -1.47957 0.919472 0
M  V30 7193 C 709.773 -2.8345 1.89391 0
M  V30 7194 H 710.966 -1.23316 2.73374 0
M  V30 7195 H 708.519 -0.608312 1.43977 0
M  V30 7196 H 709.254 -3.09716 0.961589 0
M  V30 7197 H 709.039 -2.82844 2.71555 0
M  V30 7198 H 710.529 -3.60722 2.10404 0
M  V30 7199 N 710.966 -1.44241 -0.634997 0
M  V30 7200 C 711.896 -1.53632 -1.7584 0
M  V30 7201 C 712.877 -0.389603 -1.65578 0
M  V30 7202 O 714.062 -0.609219 -1.84397 0
M  V30 7203 C 711.192 -1.47644 -3.14354 0
M  V30 7204 C 710.146 -2.60752 -3.394 0
M  V30 7205 C 709.472 -2.39817 -4.77904 0
M  V30 7206 C 710.772 -4.02921 -3.32343 0
M  V30 7207 H 712.466 -2.47662 -1.68238 0
M  V30 7208 H 710.012 -1.19197 -0.807969 0
M  V30 7209 H 711.965 -1.52815 -3.92716 0
M  V30 7210 H 710.689 -0.501284 -3.2273 0
M  V30 7211 H 709.348 -2.54965 -2.63417 0
M  V30 7212 H 708.996 -1.40502 -4.82978 0
M  V30 7213 H 708.696 -3.15649 -4.9562 0
M  V30 7214 H 710.22 -2.46799 -5.585 0
M  V30 7215 H 711.634 -4.10098 -4.00615 0
M  V30 7216 H 710.031 -4.78925 -3.61595 0
M  V30 7217 H 711.101 -4.26766 -2.30215 0
M  V30 7218 N 712.444 0.87505 -1.31075 0
M  V30 7219 C 713.394 1.96933 -1.14898 0
M  V30 7220 C 714.378 1.60783 -0.0613703 0
M  V30 7221 O 715.57 1.74678 -0.285751 0
M  V30 7222 C 712.699 3.3253 -0.853166 0
M  V30 7223 C 711.785 3.74963 -1.98151 0
M  V30 7224 N 712.176 3.89403 -3.22799 0
M  V30 7225 C 710.474 4.04436 -1.8801 0
M  V30 7226 C 711.175 4.25563 -3.96574 0
M  V30 7227 N 710.151 4.3597 -3.24701 0
M  V30 7228 H 713.953 2.06201 -2.09424 0
M  V30 7229 H 711.467 1.06551 -1.22558 0
M  V30 7230 H 713.464 4.10666 -0.718266 0
M  V30 7231 H 712.124 3.24592 0.0839218 0
M  V30 7232 H 713.135 3.74266 -3.57974 0
M  V30 7233 H 709.812 4.04915 -1.01733 0
M  V30 7234 H 711.202 4.44375 -5.03965 0
M  V30 7235 N 713.922 1.13953 1.08869 0
M  V30 7236 C 715.147 0.928559 1.85452 0
M  V30 7237 C 715.572 -0.517642 1.80837 0
M  V30 7238 O 714.93 -1.36779 1.19001 0
M  V30 7239 C 714.978 1.42814 3.31114 0
M  V30 7240 O 714.082 0.617129 4.07756 0
M  V30 7241 H 713.423 0.33235 0.574839 0
M  V30 7242 H 715.953 1.5156 1.37443 0
M  V30 7243 H 715.963 1.43425 3.8196 0
M  V30 7244 H 714.638 2.48109 3.33788 0
M  V30 7245 H 713.215 0.679365 3.66659 0
M  V30 7246 N 715.4 -1.26948 0.933913 0
M  V30 7247 C 716.811 -1.76058 0.621324 0
M  V30 7248 C 717.162 -1.76175 -0.863522 0
M  V30 7249 O 716.287 -1.36921 -1.67576 0
M  V30 7250 C 716.882 -3.19713 1.12111 0
M  V30 7251 C 715.441 -3.66465 0.859074 0
M  V30 7252 C 714.588 -2.46186 1.27624 0
M  V30 7253 H 717.539 -1.13127 1.11301 0
M  V30 7254 H 717.56 -3.77566 0.471608 0
M  V30 7255 H 717.072 -3.19596 2.20182 0
M  V30 7256 H 715.173 -3.72021 -0.207566 0
M  V30 7257 H 715.286 -4.55636 1.48098 0
M  V30 7258 H 713.65 -2.45042 0.694727 0
M  V30 7259 H 714.433 -2.48774 2.36572 0
M  V30 7260 N 716.879 -0.700114 -1.41195 0
M  V30 7261 C 718.125 -0.233351 -2.01453 0
M  V30 7262 C 718.458 1.16548 -1.55339 0
M  V30 7263 O 717.733 1.78756 -0.766575 0
M  V30 7264 C 718.016 -0.2961 -3.58881 0
M  V30 7265 C 717.869 -1.7322 -4.15108 0
M  V30 7266 C 719.188 0.341525 -4.38773 0
M  V30 7267 H 716.307 -0.0862667 -0.731934 0
M  V30 7268 H 718.949 -0.889693 -1.67882 0
M  V30 7269 H 717.099 0.262736 -3.87611 0
M  V30 7270 H 718.771 -2.34523 -3.97236 0
M  V30 7271 H 717.014 -2.2649 -3.69979 0
M  V30 7272 H 717.685 -1.7276 -5.24269 0
M  V30 7273 H 720.161 -0.134461 -4.15883 0
M  V30 7274 H 719.037 0.267098 -5.4825 0
M  V30 7275 H 719.298 1.42289 -4.18577 0
M  V30 7276 N 718.357 1.51182 -0.445186 0
M  V30 7277 C 719.582 2.07056 0.119445 0
M  V30 7278 C 720.007 1.30966 1.35016 0
M  V30 7279 O 719.365 0.349827 1.77893 0
M  V30 7280 C 719.413 3.58234 0.412428 0
M  V30 7281 O 718.517 3.84249 1.49754 0
M  V30 7282 H 717.858 0.663998 -0.00157797 0
M  V30 7283 H 720.388 1.94699 -0.628779 0
M  V30 7284 H 720.398 4.02617 0.660583 0
M  V30 7285 H 719.073 4.13038 -0.487049 0
M  V30 7286 H 717.65 3.51724 1.23873 0
M  V30 7287 N 719.835 0.176821 1.56605 0
M  V30 7288 C 720.745 -0.763682 2.21822 0
M  V30 7289 C 721.761 -1.24889 1.21156 0
M  V30 7290 O 722.937 -1.29987 1.53836 0
M  V30 7291 C 720.002 -1.97352 2.8505 0
M  V30 7292 C 719.063 -1.53466 4.00932 0
M  V30 7293 C 718.296 -2.68682 4.61135 0
M  V30 7294 O 718.519 -3.85694 4.20234 0
M  V30 7295 O 717.453 -2.42442 5.50913 0
M  V30 7296 H 721.279 -0.238363 3.02763 0
M  V30 7297 H 718.864 -0.0516331 1.49311 0
M  V30 7298 H 720.746 -2.68096 3.25119 0
M  V30 7299 H 719.421 -2.48779 2.07101 0
M  V30 7300 H 718.328 -0.796551 3.65521 0
M  V30 7301 H 719.661 -1.06724 4.8049 0
M  V30 7302 N 721.313 -1.57302 -0.09688 0
M  V30 7303 C 722.561 -1.8563 -0.799117 0
M  V30 7304 C 722.882 -0.765263 -1.79356 0
M  V30 7305 O 722.152 0.208657 -1.94786 0
M  V30 7306 H 720.732 -0.684937 -0.298111 0
M  V30 7307 H 723.394 -1.9474 -0.0789341 0
M  V30 7308 H 722.49 -2.82305 -1.3308 0
M  V30 7309 N 722.791 0.367657 -1.53252 0
M  V30 7310 C 723.754 1.43308 -1.78873 0
M  V30 7311 C 724.754 1.46671 -0.659115 0
M  V30 7312 O 725.944 1.47468 -0.927306 0
M  V30 7313 C 723.076 2.82442 -1.90892 0
M  V30 7314 H 724.269 1.21864 -2.74024 0
M  V30 7315 H 721.822 0.600668 -1.44297 0
M  V30 7316 H 722.557 3.09202 -0.978 0
M  V30 7317 H 722.342 2.81399 -2.73051 0
M  V30 7318 H 723.832 3.59601 -2.12314 0
M  V30 7319 N 724.269 1.44576 0.627338 0
M  V30 7320 C 725.68 1.42266 1.20902 0
M  V30 7321 C 726.031 0.139964 1.957 0
M  V30 7322 O 725.156 -0.759489 2.02634 0
M  V30 7323 C 725.751 2.57727 2.19914 0
M  V30 7324 C 724.31 2.58599 2.73502 0
M  V30 7325 C 723.457 2.34145 1.48564 0
M  V30 7326 H 726.408 1.53102 0.417791 0
M  V30 7327 H 726.429 2.30697 3.02588 0
M  V30 7328 H 725.941 3.51068 1.65447 0
M  V30 7329 H 724.042 1.6921 3.31962 0
M  V30 7330 H 724.155 3.57205 3.19282 0
M  V30 7331 H 722.519 1.83313 1.76829 0
M  V30 7332 H 723.302 3.29606 0.959935 0
M  V30 7333 N 725.747 -0.868086 1.31537 0
M  V30 7334 C 726.993 -1.62367 1.2151 0
M  V30 7335 C 727.326 -1.92883 -0.225819 0
M  V30 7336 O 726.601 -1.56176 -1.15927 0
M  V30 7337 C 726.884 -2.95268 2.06129 0
M  V30 7338 C 726.737 -2.71619 3.58529 0
M  V30 7339 C 728.056 -3.96391 1.91212 0
M  V30 7340 H 725.175 -0.589178 0.442762 0
M  V30 7341 H 727.817 -1.00336 1.61347 0
M  V30 7342 H 725.967 -3.4821 1.72284 0
M  V30 7343 H 727.639 -2.25334 4.0252 0
M  V30 7344 H 725.882 -2.05817 3.81866 0
M  V30 7345 H 726.553 -3.66192 4.13047 0
M  V30 7346 H 729.029 -3.52663 2.20834 0
M  V30 7347 H 727.905 -4.87263 2.52718 0
M  V30 7348 H 728.166 -4.33335 0.875953 0
M  V30 7349 N 727.225 -1.14528 -1.08264 0
M  V30 7350 C 728.474 -0.908992 -1.80056 0
M  V30 7351 C 728.787 0.565859 -1.87236 0
M  V30 7352 O 729.993 0.919454 -2.55457 0
M  V30 7353 C 728.449 -1.57681 -3.23519 0
M  V30 7354 C 728.057 -3.08803 -3.24569 0
M  V30 7355 C 729.801 -1.4217 -3.99985 0
M  V30 7356 C 727.708 -3.68414 -4.62629 0
M  V30 7357 H 726.638 -0.336432 -0.674781 0
M  V30 7358 H 729.289 -1.37437 -1.21587 0
M  V30 7359 H 727.671 -1.03911 -3.82124 0
M  V30 7360 H 728.845 -3.69252 -2.75663 0
M  V30 7361 H 727.16 -3.23968 -2.61598 0
M  V30 7362 H 729.757 -1.84106 -5.02005 0
M  V30 7363 H 730.1 -0.367989 -4.1467 0
M  V30 7364 H 730.633 -1.92984 -3.47853 0
M  V30 7365 H 727.372 -4.73644 -4.53147 0
M  V30 7366 H 726.892 -3.12746 -5.11811 0
M  V30 7367 H 728.571 -3.68793 -5.31602 0
M  V30 7368 N 728.703 1.26451 -0.940633 0
M  V30 7369 C 730.114 1.75726 -0.630653 0
M  V30 7370 C 730.465 1.76631 0.854167 0
M  V30 7371 O 729.59 1.37807 1.66848 0
M  V30 7372 C 730.185 3.19114 -1.13805 0
M  V30 7373 C 728.744 3.66005 -0.878497 0
M  V30 7374 C 727.891 2.45505 -1.28928 0
M  V30 7375 H 730.842 1.12535 -1.119 0
M  V30 7376 H 730.863 3.77311 -0.491625 0
M  V30 7377 H 730.375 3.18424 -2.21874 0
M  V30 7378 H 728.476 3.72126 0.187833 0
M  V30 7379 H 728.589 4.54844 -1.50512 0
M  V30 7380 H 726.953 2.4467 -0.707713 0
M  V30 7381 H 727.736 2.47516 -2.37888 0
M  V30 7382 N 730.181 0.707592 1.40822 0
M  V30 7383 C 731.592 0.317011 1.83989 0
M  V30 7384 C 731.943 -1.14697 1.59182 0
M  V30 7385 O 731.068 -1.8818 1.06852 0
M  V30 7386 C 731.663 0.568593 3.33995 0
M  V30 7387 C 730.222 0.231804 3.75686 0
M  V30 7388 C 729.369 0.844933 2.64114 0
M  V30 7389 H 732.32 0.907349 1.30203 0
M  V30 7390 H 732.341 -0.168798 3.80125 0
M  V30 7391 H 731.853 1.63417 3.52018 0
M  V30 7392 H 729.954 -0.82903 3.6326 0
M  V30 7393 H 730.067 0.695219 4.74029 0
M  V30 7394 H 728.431 0.273588 2.53226 0
M  V30 7395 H 729.214 1.91462 2.84951 0
M  V30 7396 N 731.66 -1.50943 0.453197 0
M  V30 7397 C 732.885 -2.07116 -0.108463 0
M  V30 7398 C 733.31 -1.31681 -1.3432 0
M  V30 7399 O 732.668 -0.359256 -1.77705 0
M  V30 7400 C 732.716 -3.58447 -0.393424 0
M  V30 7401 O 731.82 -3.85038 -1.47714 0
M  V30 7402 H 731.161 -0.66398 0.0050993 0
M  V30 7403 H 733.691 -1.94362 0.639095 0
M  V30 7404 H 733.701 -4.02961 -0.639222 0
M  V30 7405 H 732.376 -4.12774 0.508946 0
M  V30 7406 H 730.953 -3.52376 -1.22006 0
M  V30 7407 N 733.138 -0.185124 -1.56509 0
M  V30 7408 C 734.363 0.465278 -2.02114 0
M  V30 7409 C 734.788 1.55083 -1.06447 0
M  V30 7410 O 734.146 1.81241 -0.0462852 0
M  V30 7411 C 734.194 1.00784 -3.46229 0
M  V30 7412 O 733.298 2.12123 -3.53663 0
M  V30 7413 H 732.639 0.109891 -0.654843 0
M  V30 7414 H 735.169 -0.293072 -2.0249 0
M  V30 7415 H 735.179 1.32697 -3.85818 0
M  V30 7416 H 733.854 0.213113 -4.15354 0
M  V30 7417 H 732.431 1.8115 -3.25943 0
M  V30 7418 N 734.616 1.57351 0.0885366 0
M  V30 7419 C 735.864 1.86051 0.789262 0
M  V30 7420 C 736.185 0.774763 1.78948 0
M  V30 7421 O 735.455 -0.198324 1.94894 0
M  V30 7422 H 734.035 0.686508 0.294475 0
M  V30 7423 H 736.697 1.94779 0.0686055 0
M  V30 7424 H 735.793 2.83007 1.31581 0
M  V30 7425 N 736.094 -0.359525 1.53444 0
M  V30 7426 C 737.024 -1.44662 1.8329 0
M  V30 7427 C 738.005 -1.55617 0.68683 0
M  V30 7428 O 739.19 -1.70086 0.93725 0
M  V30 7429 C 736.32 -2.81923 2.02822 0
M  V30 7430 C 735.274 -2.85787 3.18606 0
M  V30 7431 C 734.6 -4.25781 3.23442 0
M  V30 7432 C 735.9 -2.52762 4.57065 0
M  V30 7433 H 737.594 -1.19934 2.74329 0
M  V30 7434 H 735.14 -0.575517 1.31999 0
M  V30 7435 H 737.093 -3.58005 2.22285 0
M  V30 7436 H 735.817 -3.08051 1.085 0
M  V30 7437 H 734.476 -2.12157 2.98973 0
M  V30 7438 H 734.124 -4.48994 2.26745 0
M  V30 7439 H 733.824 -4.29281 4.01238 0
M  V30 7440 H 735.348 -5.03727 3.45096 0
M  V30 7441 H 736.762 -3.18557 4.76649 0
M  V30 7442 H 735.159 -2.67569 5.37147 0
M  V30 7443 H 736.229 -1.47993 4.61764 0
M  V30 7444 N 737.572 -1.44907 -0.619662 0
M  V30 7445 C 738.983 -1.42905 -1.20146 0
M  V30 7446 C 739.334 -0.150341 -1.95623 0
M  V30 7447 O 738.459 0.748732 -2.03034 0
M  V30 7448 C 739.054 -2.58889 -2.18545 0
M  V30 7449 C 737.613 -2.60046 -2.72127 0
M  V30 7450 C 736.76 -2.3493 -1.4732 0
M  V30 7451 H 739.711 -1.53321 -0.409666 0
M  V30 7452 H 739.732 -2.32298 -3.0136 0
M  V30 7453 H 739.244 -3.51941 -1.63583 0
M  V30 7454 H 737.345 -1.70968 -3.3106 0
M  V30 7455 H 737.458 -3.58893 -3.17384 0
M  V30 7456 H 735.822 -1.84248 -1.75855 0
M  V30 7457 H 736.605 -3.3011 -0.942442 0
M  V30 7458 N 739.05 0.861098 -1.31996 0
M  V30 7459 C 739.98 1.98482 -1.22993 0
M  V30 7460 C 740.961 1.6971 -0.115168 0
M  V30 7461 O 742.146 1.91849 -0.30126 0
M  V30 7462 C 739.276 3.34179 -0.945615 0
M  V30 7463 C 738.23 3.77284 -2.02091 0
M  V30 7464 C 737.556 5.1054 -1.58912 0
M  V30 7465 C 738.856 3.93439 -3.43515 0
M  V30 7466 H 740.55 2.06271 -2.17008 0
M  V30 7467 H 738.096 0.991043 -1.04472 0
M  V30 7468 H 740.049 4.12338 -0.869206 0
M  V30 7469 H 738.773 3.26586 0.0301849 0
M  V30 7470 H 737.432 3.01371 -2.08737 0
M  V30 7471 H 737.08 4.99397 -0.600942 0
M  V30 7472 H 736.78 5.40352 -2.30854 0
M  V30 7473 H 738.304 5.91199 -1.52696 0
M  V30 7474 H 739.718 4.6197 -3.39495 0
M  V30 7475 H 738.115 4.34661 -4.13751 0
M  V30 7476 H 739.185 2.96548 -3.8365 0
M  V30 7477 N 740.528 1.15101 1.07655 0
M  V30 7478 C 741.939 0.933848 1.61667 0
M  V30 7479 C 742.29 -0.525569 1.8903 0
M  V30 7480 O 741.415 -1.39605 1.65346 0
M  V30 7481 C 742.01 1.68876 2.93711 0
M  V30 7482 C 740.569 1.51697 3.44478 0
M  V30 7483 C 739.716 1.70633 2.18586 0
M  V30 7484 H 742.667 1.30171 0.907816 0
M  V30 7485 H 742.688 1.15645 3.625 0
M  V30 7486 H 742.2 2.7509 2.73764 0
M  V30 7487 H 740.301 0.478635 3.69513 0
M  V30 7488 H 740.414 2.29194 4.20722 0
M  V30 7489 H 738.778 1.13259 2.28132 0
M  V30 7490 H 739.561 2.78206 2.01137 0
M  V30 7491 N 742.006 -1.2595 0.947325 0
M  V30 7492 C 743.234 -1.97544 0.615127 0
M  V30 7493 C 743.649 -1.70484 -0.811221 0
M  V30 7494 O 743.006 -0.97662 -1.5417 0
M  V30 7495 C 743.057 -3.51236 0.855328 0
M  V30 7496 O 742.778 -3.77359 2.22558 0
M  V30 7497 C 744.279 -4.40066 0.534515 0
M  V30 7498 H 741.499 -0.629888 0.231263 0
M  V30 7499 H 744.043 -1.60308 1.26971 0
M  V30 7500 H 742.198 -3.8661 0.247266 0
M  V30 7501 H 742.612 -4.71857 2.29022 0
M  V30 7502 H 744.086 -5.46838 0.753168 0
M  V30 7503 H 744.563 -4.35982 -0.530701 0
M  V30 7504 H 745.169 -4.10245 1.12158 0
M  V30 7505 N 743.484 -0.715051 -1.40445 0
M  V30 7506 C 744.895 -0.326763 -1.83818 0
M  V30 7507 C 745.246 1.13851 -1.59789 0
M  V30 7508 O 744.371 1.87611 -1.07848 0
M  V30 7509 C 744.966 -0.586297 -3.33688 0
M  V30 7510 C 743.525 -0.251724 -3.75557 0
M  V30 7511 C 742.672 -0.858928 -2.63662 0
M  V30 7512 H 745.623 -0.914241 -1.2972 0
M  V30 7513 H 745.644 0.148636 -3.8021 0
M  V30 7514 H 745.156 -1.65281 -3.51146 0
M  V30 7515 H 743.257 0.809754 -3.63695 0
M  V30 7516 H 743.37 -0.720348 -4.73654 0
M  V30 7517 H 741.734 -0.287013 -2.53078 0
M  V30 7518 H 742.517 -1.9297 -2.83932 0
M  V30 7519 N 744.962 1.50701 -0.461195 0
M  V30 7520 C 746.239 1.94958 0.158296 0
M  V30 7521 C 746.619 1.40111 1.57899 0
M  V30 7522 O 745.967 0.597976 2.20537 0
M  V30 7523 C 746.177 3.48821 0.11172 0
M  V30 7524 C 747.525 4.23499 0.30552 0
M  V30 7525 O 748.549 3.557 0.188758 0
M  V30 7526 O 747.408 5.43823 0.540244 0
M  V30 7527 H 744.502 0.818674 0.117054 0
M  V30 7528 H 747.048 1.61508 -0.520888 0
M  V30 7529 H 745.82 3.81263 -0.880577 0
M  V30 7530 H 745.443 3.88781 0.832791 0
M  V30 7531 N 746.441 0.193421 1.56409 0
M  V30 7532 C 747.404 -0.714371 2.17783 0
M  V30 7533 C 748.404 -1.1422 1.13183 0
M  V30 7534 O 749.594 -1.05557 1.38576 0
M  V30 7535 C 746.726 -1.97509 2.77855 0
M  V30 7536 H 747.919 -0.179714 2.99361 0
M  V30 7537 H 745.472 -0.0561944 1.56199 0
M  V30 7538 H 746.207 -2.5523 2.0007 0
M  V30 7539 H 745.992 -1.67706 3.54425 0
M  V30 7540 H 747.482 -2.62246 3.24987 0
M  V30 7541 N 747.919 -1.57396 -0.0801906 0
M  V30 7542 C 749.335 -1.53564 -0.434778 0
M  V30 7543 C 749.535 -0.912372 -1.79661 0
M  V30 7544 O 748.591 -0.511268 -2.4727 0
M  V30 7545 C 749.904 -2.98244 -0.383561 0
M  V30 7546 C 751.452 -3.09536 -0.46435 0
M  V30 7547 C 751.927 -4.55851 -0.443128 0
M  V30 7548 N 753.418 -4.60456 -0.503448 0
M  V30 7549 C 754.153 -5.71135 -0.509106 0
M  V30 7550 N 753.649 -6.91203 -0.47008 0
M  V30 7551 N 755.442 -5.59353 -0.555035 0
M  V30 7552 H 747.593 -1.96281 0.811635 0
M  V30 7553 H 749.856 -0.898041 0.303689 0
M  V30 7554 H 749.562 -3.47369 0.550236 0
M  V30 7555 H 749.436 -3.57705 -1.19694 0
M  V30 7556 H 751.823 -2.6039 -1.38857 0
M  V30 7557 H 751.904 -2.53 0.377445 0
M  V30 7558 H 751.548 -5.05653 0.477207 0
M  V30 7559 H 751.478 -5.10242 -1.30234 0
M  V30 7560 H 753.969 -3.74048 -0.538199 0
M  V30 7561 H 754.282 -7.7132 -0.478091 0
M  V30 7562 H 752.627 -6.93625 -0.436897 0
M  V30 7563 H 755.818 -4.64453 -0.583158 0
M  V30 7564 H 755.991 -6.4561 -0.555976 0
M  V30 7565 N 749.397 0.351382 -1.53633 0
M  V30 7566 C 750.643 1.09411 -1.70754 0
M  V30 7567 C 750.976 1.88544 -0.465293 0
M  V30 7568 O 750.251 1.86923 0.537608 0
M  V30 7569 C 750.534 2.04173 -2.96623 0
M  V30 7570 C 750.387 1.28556 -4.31038 0
M  V30 7571 C 751.706 3.04102 -3.18136 0
M  V30 7572 H 748.825 0.396373 -0.621335 0
M  V30 7573 H 751.467 0.373464 -1.86293 0
M  V30 7574 H 749.617 2.65625 -2.83506 0
M  V30 7575 H 751.289 0.697786 -4.55992 0
M  V30 7576 H 749.532 0.587498 -4.29803 0
M  V30 7577 H 750.203 1.97989 -5.15271 0
M  V30 7578 H 752.679 2.5276 -3.30532 0
M  V30 7579 H 751.555 3.67616 -4.07615 0
M  V30 7580 H 751.816 3.75053 -2.34068 0
M  V30 7581 N 750.875 1.45233 0.611969 0
M  V30 7582 C 752.123 1.48727 1.36838 0
M  V30 7583 C 752.444 0.128616 1.94575 0
M  V30 7584 O 751.714 -0.84149 1.76906 0
M  V30 7585 H 750.294 0.547695 0.507976 0
M  V30 7586 H 752.956 1.81156 0.718925 0
M  V30 7587 H 752.052 2.2236 2.19003 0
M  V30 7588 N 752.353 -0.854086 1.3245 0
M  V30 7589 C 753.316 -1.94427 1.21371 0
M  V30 7590 C 754.316 -1.60219 0.136613 0
M  V30 7591 O 755.506 -1.69846 0.387057 0
M  V30 7592 C 752.638 -3.29698 0.866701 0
M  V30 7593 H 753.831 -2.05679 2.18257 0
M  V30 7594 H 751.384 -1.04434 1.1629 0
M  V30 7595 H 752.119 -3.24145 -0.100319 0
M  V30 7596 H 751.904 -3.55903 1.64545 0
M  V30 7597 H 753.394 -4.09599 0.813515 0
M  V30 7598 N 753.831 -1.1567 -1.07043 0
M  V30 7599 C 755.056 -0.957946 -1.83952 0
M  V30 7600 C 755.481 0.488807 -1.81638 0
M  V30 7601 O 754.839 1.34869 -1.21162 0
M  V30 7602 C 754.887 -1.48064 -3.288 0
M  V30 7603 O 753.991 -0.681921 -4.06723 0
M  V30 7604 H 753.332 -0.341453 -0.569479 0
M  V30 7605 H 755.862 -1.53728 -1.35015 0
M  V30 7606 H 755.872 -1.49484 -3.7963 0
M  V30 7607 H 754.547 -2.53388 -3.29799 0
M  V30 7608 H 753.124 -0.737612 -3.65532 0
M  V30 7609 N 755.309 1.25446 -0.953992 0
M  V30 7610 C 756.537 1.97215 -0.625595 0
M  V30 7611 C 756.952 1.70911 0.802168 0
M  V30 7612 O 756.309 0.984782 1.5365 0
M  V30 7613 C 756.36 3.50777 -0.873943 0
M  V30 7614 O 756.081 3.76173 -2.24556 0
M  V30 7615 C 757.582 4.39776 -0.557845 0
M  V30 7616 H 754.802 0.628652 -0.2346 0
M  V30 7617 H 757.346 1.59632 -1.27819 0
M  V30 7618 H 755.501 3.86474 -0.267765 0
M  V30 7619 H 755.915 4.70636 -2.31522 0
M  V30 7620 H 757.389 5.46431 -0.782157 0
M  V30 7621 H 757.866 4.36257 0.507573 0
M  V30 7622 H 758.472 4.09644 -1.14332 0
M  V30 7623 N 756.787 0.722489 1.40064 0
M  V30 7624 C 758.027 0.269491 2.02616 0
M  V30 7625 C 758.391 -1.11835 1.56067 0
M  V30 7626 O 759.592 -1.66873 2.1073 0
M  V30 7627 C 757.863 0.354066 3.55642 0
M  V30 7628 S 759.422 -0.0209309 4.38795 0
M  V30 7629 H 756.24 0.106412 0.702992 0
M  V30 7630 H 758.842 0.946237 1.71075 0
M  V30 7631 H 757.546 1.36565 3.87012 0
M  V30 7632 H 757.077 -0.340925 3.9192 0
M  V30 7633 H 759.092 -1.24093 4.80432 0
M  V30 7634 N 758.265 -1.50454 0.469181 0
M  V30 7635 C 759.513 -2.01916 -0.0862982 0
M  V30 7636 C 759.834 -1.35337 -1.40388 0
M  V30 7637 O 759.104 -0.498096 -1.89462 0
M  V30 7638 H 757.684 -0.746185 -0.0348825 0
M  V30 7639 H 760.346 -1.84804 0.619167 0
M  V30 7640 H 759.442 -3.11182 -0.239189 0
M  V30 7641 N 759.743 -0.201713 -1.56304 0
M  V30 7642 C 761.154 0.309711 -1.84113 0
M  V30 7643 C 761.505 1.60912 -1.12258 0
M  V30 7644 O 760.63 2.12937 -0.385587 0
M  V30 7645 C 761.225 0.568706 -3.33993 0
M  V30 7646 C 759.784 1.02448 -3.6219 0
M  V30 7647 C 758.931 0.0766842 -2.77194 0
M  V30 7648 H 761.882 -0.425356 -1.52893 0
M  V30 7649 H 761.903 1.41721 -3.53122 0
M  V30 7650 H 761.415 -0.37719 -3.86263 0
M  V30 7651 H 759.516 1.98443 -3.15359 0
M  V30 7652 H 759.629 0.912619 -4.70328 0
M  V30 7653 H 757.993 0.579809 -2.48013 0
M  V30 7654 H 758.776 -0.863774 -3.32256 0
M  V30 7655 N 761.222 1.57436 0.0718424 0
M  V30 7656 C 762.633 1.75975 0.623678 0
M  V30 7657 C 762.984 0.827155 1.77912 0
M  V30 7658 O 762.109 0.0112425 2.16397 0
M  V30 7659 C 762.704 3.1911 1.13816 0
M  V30 7660 C 761.263 3.38994 1.63586 0
M  V30 7661 C 760.41 2.71684 0.555261 0
M  V30 7662 H 763.361 1.57948 -0.154328 0
M  V30 7663 H 763.382 3.23267 2.00696 0
M  V30 7664 H 762.894 3.86962 0.296998 0
M  V30 7665 H 760.995 2.76256 2.50027 0
M  V30 7666 H 761.108 4.47436 1.71283 0
M  V30 7667 H 759.472 2.34236 1.00029 0
M  V30 7668 H 760.255 3.42191 -0.275712 0
M  V30 7669 N 762.7 -0.34323 1.53817 0
M  V30 7670 C 763.977 -1.10047 1.61706 0
M  V30 7671 C 764.357 -2.06495 0.438514 0
M  V30 7672 O 763.705 -2.21297 -0.569188 0
M  V30 7673 C 763.915 -1.81985 2.97796 0
M  V30 7674 C 765.263 -2.35717 3.53161 0
M  V30 7675 O 766.287 -1.9208 2.99973 0
M  V30 7676 O 765.146 -3.15551 4.46195 0
M  V30 7677 H 762.24 -0.506096 0.654061 0
M  V30 7678 H 764.786 -0.344697 1.66162 0
M  V30 7679 H 763.558 -1.11722 3.75012 0
M  V30 7680 H 763.181 -2.64419 2.96931 0
M  V30 7681 N 764.178 -1.45556 -0.604258 0
M  V30 7682 C 765.128 -1.50906 -1.70913 0
M  V30 7683 C 766.112 -0.371996 -1.56541 0
M  V30 7684 O 767.304 -0.619064 -1.65821 0
M  V30 7685 C 764.433 -1.48181 -3.09673 0
M  V30 7686 C 763.519 -2.67102 -3.2942 0
M  V30 7687 N 763.91 -3.92184 -3.19414 0
M  V30 7688 C 762.208 -2.6287 -3.60299 0
M  V30 7689 C 762.909 -4.71571 -3.40581 0
M  V30 7690 N 761.885 -4.03081 -3.64728 0
M  V30 7691 H 765.687 -2.45435 -1.61675 0
M  V30 7692 H 763.201 -1.40894 -0.807622 0
M  V30 7693 H 765.198 -1.501 -3.88942 0
M  V30 7694 H 763.858 -0.54712 -3.20057 0
M  V30 7695 H 764.869 -4.23756 -2.97743 0
M  V30 7696 H 761.546 -1.78324 -3.77501 0
M  V30 7697 H 762.936 -5.80571 -3.38211 0
M  V30 7698 N 765.656 0.84705 -1.32902 0
M  V30 7699 C 766.586 1.97166 -1.25091 0
M  V30 7700 C 767.567 1.69578 -0.133161 0
M  V30 7701 O 768.752 1.91519 -0.321591 0
M  V30 7702 C 765.882 3.33157 -0.981006 0
M  V30 7703 C 764.836 3.75119 -2.06082 0
M  V30 7704 C 764.162 5.08826 -1.64318 0
M  V30 7705 C 765.462 3.89774 -3.47669 0
M  V30 7706 H 767.156 2.03958 -2.19184 0
M  V30 7707 H 764.702 0.979907 -1.05517 0
M  V30 7708 H 766.655 4.11393 -0.912891 0
M  V30 7709 H 765.379 3.266 -0.00445559 0
M  V30 7710 H 764.038 2.9914 -2.11921 0
M  V30 7711 H 763.686 4.98732 -0.653876 0
M  V30 7712 H 763.386 5.37873 -2.36572 0
M  V30 7713 H 764.91 5.89546 -1.58958 0
M  V30 7714 H 766.324 4.58343 -3.44376 0
M  V30 7715 H 764.721 4.30248 -4.18338 0
M  V30 7716 H 765.791 2.92463 -3.86773 0
M  V30 7717 N 767.134 1.16236 1.06428 0
M  V30 7718 C 768.064 0.890807 2.1584 0
M  V30 7719 C 769.045 -0.162333 1.69324 0
M  V30 7720 O 770.23 -0.0147191 1.94194 0
M  V30 7721 C 767.36 0.389615 3.45108 0
M  V30 7722 C 766.314 1.38051 4.05125 0
M  V30 7723 C 765.64 0.737773 5.29586 0
M  V30 7724 C 766.94 2.74965 4.44062 0
M  V30 7725 H 768.634 1.80577 2.38814 0
M  V30 7726 H 766.18 0.869657 1.14774 0
M  V30 7727 H 768.133 0.187127 4.20984 0
M  V30 7728 H 766.857 -0.560851 3.21748 0
M  V30 7729 H 765.516 1.56952 3.31303 0
M  V30 7730 H 765.164 -0.219135 5.02522 0
M  V30 7731 H 764.864 1.39914 5.70699 0
M  V30 7732 H 766.388 0.545275 6.0816 0
M  V30 7733 H 767.802 2.59855 5.11027 0
M  V30 7734 H 766.199 3.37563 4.96156 0
M  V30 7735 H 767.269 3.30321 3.54987 0
M  V30 7736 N 768.612 -1.24939 0.960631 0
M  V30 7737 C 770.023 -1.74701 0.658529 0
M  V30 7738 C 770.374 -1.77967 -0.825959 0
M  V30 7739 O 769.499 -1.40444 -1.64634 0
M  V30 7740 C 770.094 -3.17263 1.18867 0
M  V30 7741 C 768.653 -3.64561 0.936614 0
M  V30 7742 C 767.8 -2.43423 1.32817 0
M  V30 7743 H 770.751 -1.10741 1.13676 0
M  V30 7744 H 770.772 -3.76481 0.551589 0
M  V30 7745 H 770.284 -3.14854 2.26912 0
M  V30 7746 H 768.385 -3.72378 -0.128608 0
M  V30 7747 H 768.498 -4.52392 1.57729 0
M  V30 7748 H 766.862 -2.43513 0.746548 0
M  V30 7749 H 767.645 -2.437 2.41796 0
M  V30 7750 N 770.09 -0.729906 -1.39679 0
M  V30 7751 C 771.501 -0.346241 -1.83461 0
M  V30 7752 C 771.852 1.1215 -1.60987 0
M  V30 7753 O 770.977 1.86456 -1.09832 0
M  V30 7754 C 771.572 -0.621656 -3.33048 0
M  V30 7755 C 770.131 -0.291543 -3.75269 0
M  V30 7756 C 769.278 -0.886844 -2.62736 0
M  V30 7757 H 772.229 -0.927949 -1.28743 0
M  V30 7758 H 772.25 0.108301 -3.80346 0
M  V30 7759 H 771.762 -1.68996 -3.49373 0
M  V30 7760 H 769.863 0.771133 -3.64533 0
M  V30 7761 H 769.976 -0.770544 -4.72863 0
M  V30 7762 H 768.34 -0.313839 -2.52759 0
M  V30 7763 H 769.123 -1.95971 -2.81869 0
M  V30 7764 N 771.568 1.50203 -0.477153 0
M  V30 7765 C 772.498 2.31517 0.303646 0
M  V30 7766 C 773.479 1.38696 0.984753 0
M  V30 7767 O 774.664 1.67615 0.980758 0
M  V30 7768 C 771.794 3.18598 1.38249 0
M  V30 7769 C 770.748 4.2002 0.822645 0
M  V30 7770 C 770.074 4.95878 2.00024 0
M  V30 7771 C 771.374 5.22023 -0.170185 0
M  V30 7772 H 773.068 2.97042 -0.375027 0
M  V30 7773 H 770.614 1.42848 -0.181802 0
M  V30 7774 H 772.567 3.74282 1.93625 0
M  V30 7775 H 771.291 2.5097 2.09002 0
M  V30 7776 H 769.95 3.65445 0.290813 0
M  V30 7777 H 769.598 4.24717 2.69489 0
M  V30 7778 H 769.298 5.64487 1.63183 0
M  V30 7779 H 770.822 5.54399 2.55878 0
M  V30 7780 H 772.236 5.72543 0.294606 0
M  V30 7781 H 770.633 5.98386 -0.453181 0
M  V30 7782 H 771.703 4.72396 -1.09408 0
M  V30 7783 N 773.046 0.209999 1.56195 0
M  V30 7784 C 774.294 -0.423974 1.97603 0
M  V30 7785 C 774.615 -1.61112 1.09854 0
M  V30 7786 O 773.885 -1.95134 0.173032 0
M  V30 7787 H 772.465 -0.159629 0.729745 0
M  V30 7788 H 775.127 0.300205 1.92574 0
M  V30 7789 H 774.223 -0.75809 3.02753 0
M  V30 7790 N 774.524 -1.57472 -0.0634922 0
M  V30 7791 C 775.752 -1.91887 -0.773767 0
M  V30 7792 C 776.167 -0.806733 -1.70696 0
M  V30 7793 O 775.524 0.219383 -1.81177 0
M  V30 7794 C 775.575 -3.26092 -1.56034 0
M  V30 7795 O 775.296 -4.33029 -0.66464 0
M  V30 7796 C 776.797 -3.74573 -2.37087 0
M  V30 7797 H 774.017 -0.634074 -0.219525 0
M  V30 7798 H 776.561 -2.04476 -0.0312828 0
M  V30 7799 H 774.716 -3.15004 -2.25502 0
M  V30 7800 H 775.13 -5.10291 -1.21258 0
M  V30 7801 H 776.604 -4.71084 -2.87722 0
M  V30 7802 H 777.081 -3.04003 -3.16984 0
M  V30 7803 H 777.687 -3.88631 -1.72759 0
M  V30 7804 N 776.003 0.335068 -1.53997 0
M  V30 7805 C 777.414 0.910191 -1.6301 0
M  V30 7806 C 777.765 1.89271 -0.516809 0
M  V30 7807 O 776.89 2.13516 0.352123 0
M  V30 7808 C 777.485 1.65761 -2.9548 0
M  V30 7809 C 776.044 2.18163 -3.06728 0
M  V30 7810 C 775.191 1.00338 -2.5851 0
M  V30 7811 H 778.142 0.112965 -1.58297 0
M  V30 7812 H 778.163 2.52107 -2.84995 0
M  V30 7813 H 777.675 0.94227 -3.76488 0
M  V30 7814 H 775.776 2.92847 -2.30372 0
M  V30 7815 H 775.889 2.43952 -4.1234 0
M  V30 7816 H 774.253 1.37925 -2.14124 0
M  V30 7817 H 775.036 0.30254 -3.41964 0
M  V30 7818 N 777.481 1.45874 0.596531 0
M  V30 7819 C 778.411 1.5824 1.71705 0
M  V30 7820 C 779.392 0.433366 1.64487 0
M  V30 7821 O 780.577 0.657895 1.82717 0
M  V30 7822 C 777.707 1.55927 3.10329 0
M  V30 7823 C 776.661 2.69659 3.32367 0
M  V30 7824 C 775.987 2.52403 4.71377 0
M  V30 7825 C 777.287 4.11591 3.21544 0
M  V30 7826 H 778.981 2.52035 1.61613 0
M  V30 7827 H 776.527 1.21297 0.776082 0
M  V30 7828 H 778.48 1.63173 3.88526 0
M  V30 7829 H 777.204 0.586674 3.21288 0
M  V30 7830 H 775.863 2.61859 2.56564 0
M  V30 7831 H 775.511 1.53258 4.79083 0
M  V30 7832 H 775.211 3.28679 4.87077 0
M  V30 7833 H 776.735 2.6152 5.5176 0
M  V30 7834 H 778.149 4.20576 3.89601 0
M  V30 7835 H 776.546 4.88344 3.4877 0
M  V30 7836 H 777.616 4.32719 2.1882 0
M  V30 7837 N 778.959 -0.83999 1.33349 0
M  V30 7838 C 780.37 -1.41139 1.22216 0
M  V30 7839 C 780.721 -1.95551 -0.159398 0
M  V30 7840 O 779.846 -1.88721 -1.05893 0
M  V30 7841 C 780.441 -2.56564 2.21269 0
M  V30 7842 C 779 -3.09661 2.13979 0
M  V30 7843 C 778.147 -1.82457 2.08818 0
M  V30 7844 H 781.098 -0.645853 1.44964 0
M  V30 7845 H 781.119 -3.34163 1.81976 0
M  V30 7846 H 780.631 -2.16932 3.21811 0
M  V30 7847 H 778.732 -3.53841 1.16736 0
M  V30 7848 H 778.845 -3.6991 3.04472 0
M  V30 7849 H 777.209 -2.0266 1.54276 0
M  V30 7850 H 777.992 -1.45022 3.11165 0
M  V30 7851 N 780.437 -1.16799 -1.0581 0
M  V30 7852 C 781.848 -0.95945 -1.60161 0
M  V30 7853 C 782.199 0.49543 -1.89842 0
M  V30 7854 O 781.324 1.36957 -1.67546 0
M  V30 7855 C 781.919 -1.73527 -2.90987 0
M  V30 7856 C 780.478 -1.57158 -3.42021 0
M  V30 7857 C 779.625 -1.74089 -2.15843 0
M  V30 7858 H 782.576 -1.31598 -0.886992 0
M  V30 7859 H 782.597 -1.21397 -3.60615 0
M  V30 7860 H 782.109 -2.79411 -2.69353 0
M  V30 7861 H 780.21 -0.537361 -3.68705 0
M  V30 7862 H 780.323 -2.35858 -4.17022 0
M  V30 7863 H 778.687 -1.16874 -2.26302 0
M  V30 7864 H 779.47 -2.81371 -1.96686 0
M  V30 7865 N 781.915 1.24427 -0.967243 0
M  V30 7866 C 783.192 1.87831 -0.545776 0
M  V30 7867 C 783.572 1.87126 0.977099 0
M  V30 7868 O 782.92 1.34357 1.84826 0
M  V30 7869 C 783.13 3.29967 -1.13679 0
M  V30 7870 C 784.478 4.06654 -1.22139 0
M  V30 7871 O 785.502 3.39136 -1.08926 0
M  V30 7872 O 784.361 5.27455 -1.43017 0
M  V30 7873 H 781.455 0.806745 -0.181912 0
M  V30 7874 H 784.001 1.32403 -1.06148 0
M  V30 7875 H 782.773 3.24977 -2.17958 0
M  V30 7876 H 782.396 3.92969 -0.605093 0
M  V30 7877 N 783.393 0.737304 1.3929 0
M  V30 7878 C 784.639 0.295581 2.01241 0
M  V30 7879 C 784.994 -1.10561 1.57461 0
M  V30 7880 O 784.287 -1.74346 0.7946 0
M  V30 7881 C 784.481 0.338438 3.55794 0
M  V30 7882 C 784.31 1.74225 4.14579 0
M  V30 7883 C 783.08 2.35502 4.47065 0
M  V30 7884 C 785.278 2.69623 4.37959 0
M  V30 7885 N 783.26 3.68014 4.91365 0
M  V30 7886 C 784.631 3.86873 4.84489 0
M  V30 7887 C 786.686 2.67355 4.2003 0
M  V30 7888 C 785.389 5.02193 5.14971 0
M  V30 7889 C 787.415 3.8182 4.51627 0
M  V30 7890 C 786.777 4.97806 4.98366 0
M  V30 7891 H 782.876 0.154468 0.766592 0
M  V30 7892 H 785.46 0.963768 1.69173 0
M  V30 7893 H 783.631 -0.299406 3.87244 0
M  V30 7894 H 785.363 -0.122053 4.04516 0
M  V30 7895 H 782.118 1.87406 4.34943 0
M  V30 7896 H 782.542 4.36051 5.17869 0
M  V30 7897 H 787.184 1.78876 3.83097 0
M  V30 7898 H 784.902 5.913 5.50809 0
M  V30 7899 H 788.488 3.81366 4.39376 0
M  V30 7900 H 787.368 5.84909 5.22351 0
M  V30 7901 N 784.871 -1.49948 0.485112 0
M  V30 7902 C 786.117 -2.02695 -0.0651022 0
M  V30 7903 C 786.45 -1.36534 -1.38102 0
M  V30 7904 O 785.725 -0.495677 -1.88078 0
M  V30 7905 C 786.008 -3.59337 -0.234285 0
M  V30 7906 C 785.861 -4.3605 1.10364 0
M  V30 7907 C 787.18 -4.28996 -0.982351 0
M  V30 7908 H 784.299 -0.736666 -0.0221856 0
M  V30 7909 H 786.941 -1.7913 0.633433 0
M  V30 7910 H 785.091 -3.79546 -0.829262 0
M  V30 7911 H 786.763 -4.27377 1.73627 0
M  V30 7912 H 785.006 -3.99236 1.69686 0
M  V30 7913 H 785.677 -5.43959 0.938743 0
M  V30 7914 H 788.153 -4.13346 -0.477904 0
M  V30 7915 H 787.029 -5.38379 -1.06955 0
M  V30 7916 H 787.29 -3.93135 -2.02231 0
M  V30 7917 N 786.349 -0.21828 -1.56081 0
M  V30 7918 C 787.577 0.419258 -2.02608 0
M  V30 7919 C 787.992 1.53578 -1.09814 0
M  V30 7920 O 787.349 1.82185 -0.107149 0
M  V30 7921 C 787.4 0.953955 -3.48686 0
M  V30 7922 O 787.121 -0.11805 -4.37941 0
M  V30 7923 C 788.622 1.66506 -4.10841 0
M  V30 7924 H 785.842 0.10296 -0.663054 0
M  V30 7925 H 788.386 -0.333776 -2.01758 0
M  V30 7926 H 786.541 1.65727 -3.50162 0
M  V30 7927 H 786.955 0.283359 -5.23734 0
M  V30 7928 H 788.429 1.99123 -5.14834 0
M  V30 7929 H 788.906 2.57705 -3.55647 0
M  V30 7930 H 789.512 1.00703 -4.13206 0
M  V30 7931 N 787.827 1.57504 0.0551401 0
M  V30 7932 C 788.757 2.07864 1.06372 0
M  V30 7933 C 789.738 0.975565 1.39344 0
M  V30 7934 O 790.923 1.24929 1.48682 0
M  V30 7935 C 788.053 2.53643 2.3724 0
M  V30 7936 C 787.007 3.67978 2.18578 0
M  V30 7937 C 786.333 3.9987 3.54976 0
M  V30 7938 C 787.633 4.97405 1.59329 0
M  V30 7939 H 789.327 2.92379 0.644595 0
M  V30 7940 H 786.873 1.40654 0.308619 0
M  V30 7941 H 788.826 2.8749 3.08103 0
M  V30 7942 H 787.55 1.66177 2.81163 0
M  V30 7943 H 786.209 3.3444 1.50152 0
M  V30 7944 H 785.857 3.0951 3.965 0
M  V30 7945 H 785.557 4.76867 3.43324 0
M  V30 7946 H 787.081 4.36228 4.27244 0
M  V30 7947 H 788.495 5.29375 2.20078 0
M  V30 7948 H 786.892 5.78837 1.58327 0
M  V30 7949 H 787.962 4.81697 0.55638 0
M  V30 7950 N 789.305 -0.326896 1.54172 0
M  V30 7951 C 790.215 -1.42525 1.86343 0
M  V30 7952 C 791.231 -1.56764 0.75505 0
M  V30 7953 O 792.407 -1.71924 1.04901 0
M  V30 7954 C 789.472 -2.77286 2.08119 0
M  V30 7955 C 788.533 -2.7225 3.31931 0
M  V30 7956 C 787.766 -4.00584 3.52659 0
M  V30 7957 O 787.989 -4.98686 2.76891 0
M  V30 7958 O 786.923 -4.04045 4.46129 0
M  V30 7959 H 790.749 -1.18249 2.79734 0
M  V30 7960 H 788.334 -0.520614 1.40036 0
M  V30 7961 H 790.216 -3.57065 2.23791 0
M  V30 7962 H 788.891 -3.01459 1.17917 0
M  V30 7963 H 787.798 -1.91033 3.21647 0
M  V30 7964 H 789.131 -2.53032 4.2218 0
M  V30 7965 N 790.784 -1.46188 -0.588786 0
M  V30 7966 C 792.032 -1.50885 -1.34455 0
M  V30 7967 C 792.353 -0.159555 -1.94346 0
M  V30 7968 O 791.623 0.813239 -1.78222 0
M  V30 7969 H 790.203 -0.555707 -0.499198 0
M  V30 7970 H 792.865 -1.82277 -0.690014 0
M  V30 7971 H 791.961 -2.25816 -2.15438 0
M  V30 7972 N 792.262 0.832906 -1.33792 0
M  V30 7973 C 793.539 1.57359 -1.16178 0
M  V30 7974 C 793.919 2.09372 0.269532 0
M  V30 7975 O 793.267 1.89993 1.26944 0
M  V30 7976 C 793.477 2.70279 -2.20795 0
M  V30 7977 C 794.825 3.39305 -2.55259 0
M  V30 7978 O 795.849 2.80526 -2.19508 0
M  V30 7979 O 794.708 4.45428 -3.16632 0
M  V30 7980 H 791.802 0.694025 -0.449731 0
M  V30 7981 H 794.348 0.875144 -1.45394 0
M  V30 7982 H 793.12 2.29527 -3.16911 0
M  V30 7983 H 792.743 3.47782 -1.927 0
M  V30 7984 N 793.74 1.17359 1.05189 0
M  V30 7985 C 794.987 0.961987 1.78191 0
M  V30 7986 C 795.315 -0.509363 1.87712 0
M  V30 7987 O 794.57 -1.39425 1.37329 0
M  V30 7988 C 794.869 1.54821 3.22126 0
M  V30 7989 C 794.535 3.04378 3.32663 0
M  V30 7990 C 793.197 3.45201 3.35246 0
M  V30 7991 C 795.549 4.00387 3.33677 0
M  V30 7992 C 792.877 4.80629 3.36471 0
M  V30 7993 C 795.229 5.35715 3.36441 0
M  V30 7994 C 793.893 5.76002 3.37311 0
M  V30 7995 H 793.163 0.352016 0.652047 0
M  V30 7996 H 795.81 1.46249 1.23627 0
M  V30 7997 H 794.115 0.969432 3.79617 0
M  V30 7998 H 795.812 1.36004 3.77232 0
M  V30 7999 H 792.402 2.71836 3.31366 0
M  V30 8000 H 796.586 3.69906 3.30882 0
M  V30 8001 H 791.842 5.11155 3.35455 0
M  V30 8002 H 796.016 6.09886 3.36173 0
M  V30 8003 H 793.643 6.80919 3.38013 0
M  V30 8004 N 795.218 -1.23913 0.973828 0
M  V30 8005 C 796.464 -1.92436 0.640026 0
M  V30 8006 C 796.797 -1.75875 -0.823512 0
M  V30 8007 O 796.072 -1.11563 -1.59323 0
M  V30 8008 C 796.355 -3.4526 1.0231 0
M  V30 8009 C 796.208 -3.70961 2.54378 0
M  V30 8010 C 797.527 -4.36495 0.562155 0
M  V30 8011 H 794.646 -0.698868 0.233992 0
M  V30 8012 H 797.288 -1.46163 1.21393 0
M  V30 8013 H 795.438 -3.84802 0.534751 0
M  V30 8014 H 797.11 -3.40941 3.10737 0
M  V30 8015 H 795.353 -3.15899 2.97305 0
M  V30 8016 H 796.024 -4.77912 2.76232 0
M  V30 8017 H 798.5 -4.04363 0.981333 0
M  V30 8018 H 797.376 -5.42142 0.858689 0
M  V30 8019 H 797.637 -4.38818 -0.537659 0
M  V30 8020 N 796.696 -0.74468 -1.38897 0
M  V30 8021 C 797.626 -0.126355 -2.33158 0
M  V30 8022 C 798.607 0.713517 -1.54412 0
M  V30 8023 O 799.792 0.656523 -1.82766 0
M  V30 8024 C 796.922 0.774375 -3.38557 0
M  V30 8025 C 795.876 0.0379214 -4.27983 0
M  V30 8026 C 795.202 1.05631 -5.24162 0
M  V30 8027 C 796.502 -1.12523 -5.10035 0
M  V30 8028 H 798.196 -0.913744 -2.85116 0
M  V30 8029 H 795.742 -0.440847 -1.37086 0
M  V30 8030 H 797.695 1.21655 -4.03458 0
M  V30 8031 H 796.419 1.59399 -2.85061 0
M  V30 8032 H 795.078 -0.384733 -3.64576 0
M  V30 8033 H 794.726 1.86975 -4.66958 0
M  V30 8034 H 794.426 0.568261 -5.84846 0
M  V30 8035 H 795.95 1.49799 -5.9194 0
M  V30 8036 H 797.364 -0.761037 -5.68226 0
M  V30 8037 H 795.761 -1.54355 -5.79909 0
M  V30 8038 H 796.831 -1.94237 -4.44297 0
M  V30 8039 N 798.174 1.49689 -0.493057 0
M  V30 8040 C 799.107 2.25712 0.336062 0
M  V30 8041 C 800.085 1.29953 0.977294 0
M  V30 8042 O 801.269 1.59225 1.00895 0
M  V30 8043 C 798.396 3.0501 1.47263 0
M  V30 8044 C 797.442 4.15863 0.946575 0
M  V30 8045 S 798.275 5.35272 -0.156323 0
M  V30 8046 C 799.431 6.18123 0.983601 0
M  V30 8047 H 799.664 2.95688 -0.309215 0
M  V30 8048 H 797.197 1.51872 -0.278238 0
M  V30 8049 H 799.155 3.51284 2.12391 0
M  V30 8050 H 797.816 2.34519 2.08949 0
M  V30 8051 H 797.009 4.70834 1.7981 0
M  V30 8052 H 796.611 3.72139 0.372647 0
M  V30 8053 H 798.903 6.50588 1.89056 0
M  V30 8054 H 799.846 7.06521 0.472687 0
M  V30 8055 H 800.254 5.50547 1.24735 0
M  V30 8056 N 799.652 0.226554 1.55963 0
M  V30 8057 C 800.582 -0.676079 2.23498 0
M  V30 8058 C 801.563 -1.19718 1.20837 0
M  V30 8059 O 802.748 -1.24027 1.49436 0
M  V30 8060 C 799.878 -1.88217 2.91876 0
M  V30 8061 C 798.832 -1.4947 4.01052 0
M  V30 8062 C 798.158 -2.77997 4.56751 0
M  V30 8063 C 799.458 -0.680951 5.17842 0
M  V30 8064 H 801.152 -0.112989 2.99187 0
M  V30 8065 H 798.698 -0.0529046 1.43903 0
M  V30 8066 H 800.651 -2.51911 3.37815 0
M  V30 8067 H 799.375 -2.47031 2.13643 0
M  V30 8068 H 798.034 -0.881199 3.55852 0
M  V30 8069 H 797.682 -3.34966 3.75243 0
M  V30 8070 H 797.382 -2.52803 5.30438 0
M  V30 8071 H 798.906 -3.42625 5.05411 0
M  V30 8072 H 800.32 -1.22171 5.60131 0
M  V30 8073 H 798.717 -0.525898 5.97791 0
M  V30 8074 H 799.787 0.311346 4.83899 0
M  V30 8075 N 801.13 -1.57531 -0.0467866 0
M  V30 8076 C 802.093 -2.04379 -1.03738 0
M  V30 8077 C 803.093 -0.944881 -1.3011 0
M  V30 8078 O 804.283 -1.20904 -1.25411 0
M  V30 8079 C 801.415 -2.44572 -2.37482 0
M  V30 8080 H 802.608 -2.93142 -0.633063 0
M  V30 8081 H 800.161 -1.53526 -0.293177 0
M  V30 8082 H 800.896 -1.58911 -2.82697 0
M  V30 8083 H 800.681 -3.24785 -2.19675 0
M  V30 8084 H 802.171 -2.81307 -3.08636 0
M  V30 8085 N 802.608 0.318715 -1.54344 0
M  V30 8086 C 803.857 1.05363 -1.71993 0
M  V30 8087 C 804.17 1.89018 -0.503155 0
M  V30 8088 O 805.376 2.65639 -0.561085 0
M  V30 8089 C 803.832 1.92281 -3.0423 0
M  V30 8090 C 803.44 1.13715 -4.33328 0
M  V30 8091 C 805.184 2.65479 -3.31242 0
M  V30 8092 C 803.091 1.99806 -5.56625 0
M  V30 8093 H 802.021 0.397081 -0.64097 0
M  V30 8094 H 804.672 0.311598 -1.80835 0
M  V30 8095 H 803.054 2.70402 -2.89307 0
M  V30 8096 H 804.228 0.403305 -4.59032 0
M  V30 8097 H 802.543 0.521769 -4.13118 0
M  V30 8098 H 805.14 3.30209 -4.20555 0
M  V30 8099 H 805.483 3.33374 -2.49334 0
M  V30 8100 H 806.016 1.94417 -3.47054 0
M  V30 8101 H 802.755 1.36411 -6.41149 0
M  V30 8102 H 802.275 2.70911 -5.35133 0
M  V30 8103 H 803.954 2.58277 -5.93213 0
M  V30 8104 N 804.086 1.46499 0.581025 0
M  V30 8105 C 805.311 1.55708 1.37002 0
M  V30 8106 C 805.736 0.19942 1.8704 0
M  V30 8107 O 805.094 -0.820731 1.61659 0
M  V30 8108 C 805.142 2.56716 2.53238 0
M  V30 8109 O 804.246 2.10336 3.54729 0
M  V30 8110 H 803.587 0.523912 0.407937 0
M  V30 8111 H 806.117 1.92085 0.704602 0
M  V30 8112 H 806.127 2.76378 3.00132 0
M  V30 8113 H 804.802 3.55307 2.16171 0
M  V30 8114 H 803.379 2.00669 3.14303 0
M  V30 8115 N 805.565 -0.825799 1.34232 0
M  V30 8116 C 806.976 -1.39835 1.23706 0
M  V30 8117 C 807.327 -1.95709 -0.138649 0
M  V30 8118 O 806.452 -1.89833 -1.03886 0
M  V30 8119 C 807.047 -2.54203 2.23978 0
M  V30 8120 C 805.606 -3.07374 2.17251 0
M  V30 8121 C 804.753 -1.80232 2.10741 0
M  V30 8122 H 807.704 -0.630442 1.4564 0
M  V30 8123 H 807.725 -3.32214 1.8551 0
M  V30 8124 H 807.237 -2.13506 3.24094 0
M  V30 8125 H 805.338 -3.52583 1.20483 0
M  V30 8126 H 805.451 -3.6666 3.08379 0
M  V30 8127 H 803.815 -2.01012 1.56417 0
M  V30 8128 H 804.598 -1.41713 3.12686 0
M  V30 8129 N 807.043 -1.17915 -1.04565 0
M  V30 8130 C 808.268 -0.996749 -1.81878 0
M  V30 8131 C 808.693 0.450169 -1.82634 0
M  V30 8132 O 808.051 1.32268 -1.23995 0
M  V30 8133 C 808.099 -1.55005 -3.25585 0
M  V30 8134 O 807.203 -0.76804 -4.05185 0
M  V30 8135 H 806.544 -0.353456 -0.562108 0
M  V30 8136 H 809.074 -1.56557 -1.31723 0
M  V30 8137 H 809.084 -1.57503 -3.76373 0
M  V30 8138 H 807.759 -2.60327 -3.2435 0
M  V30 8139 H 806.336 -0.81498 -3.63885 0
M  V30 8140 N 808.521 1.23394 -0.980386 0
M  V30 8141 C 809.471 2.22634 -0.491747 0
M  V30 8142 C 810.455 1.54958 0.433222 0
M  V30 8143 O 811.647 1.75049 0.262078 0
M  V30 8144 C 808.776 3.4269 0.204531 0
M  V30 8145 C 807.862 4.17594 -0.740007 0
M  V30 8146 N 808.253 4.69458 -1.88263 0
M  V30 8147 C 806.551 4.42554 -0.553335 0
M  V30 8148 C 807.252 5.26446 -2.47446 0
M  V30 8149 N 806.228 5.14377 -1.75834 0
M  V30 8150 H 810.03 2.60363 -1.36339 0
M  V30 8151 H 807.544 1.38924 -0.841059 0
M  V30 8152 H 809.541 4.12959 0.571901 0
M  V30 8153 H 808.201 3.06477 1.07246 0
M  V30 8154 H 809.212 4.65803 -2.26381 0
M  V30 8155 H 805.889 4.16629 0.269573 0
M  V30 8156 H 807.279 5.77195 -3.43941 0
M  V30 8157 N 809.999 0.752036 1.385 0
M  V30 8158 C 810.929 0.138718 2.33088 0
M  V30 8159 C 811.91 -0.705318 1.54788 0
M  V30 8160 O 813.095 -0.646821 1.83112 0
M  V30 8161 C 810.225 -0.75641 3.38963 0
M  V30 8162 C 809.179 -0.0152239 4.27997 0
M  V30 8163 C 808.505 -1.0285 5.24715 0
M  V30 8164 C 809.805 1.15226 5.09431 0
M  V30 8165 H 811.499 0.928852 2.84627 0
M  V30 8166 H 809.045 0.448111 1.3685 0
M  V30 8167 H 810.998 -1.19513 4.04097 0
M  V30 8168 H 809.722 -1.57885 2.85902 0
M  V30 8169 H 808.381 0.404061 3.64366 0
M  V30 8170 H 808.029 -1.84496 4.67943 0
M  V30 8171 H 807.729 -0.537238 5.85139 0
M  V30 8172 H 809.253 -1.46657 5.92726 0
M  V30 8173 H 810.667 0.791161 5.67815 0
M  V30 8174 H 809.064 1.57428 5.79082 0
M  V30 8175 H 810.134 1.9659 4.43261 0
M  V30 8176 N 811.477 -1.49425 0.500989 0
M  V30 8177 C 812.725 -2.02053 -0.0434495 0
M  V30 8178 C 813.046 -1.38285 -1.37486 0
M  V30 8179 O 812.316 -0.538171 -1.88363 0
M  V30 8180 H 810.896 -0.746757 -0.0190469 0
M  V30 8181 H 813.558 -1.83449 0.658227 0
M  V30 8182 H 812.654 -3.11619 -0.173129 0
M  V30 8183 N 812.955 -0.234822 -1.55841 0
M  V30 8184 C 813.918 0.656378 -2.196 0
M  V30 8185 C 814.918 1.11179 -1.16171 0
M  V30 8186 O 816.108 1.01845 -1.41326 0
M  V30 8187 C 813.24 1.90072 -2.82993 0
M  V30 8188 H 814.433 0.100281 -2.99732 0
M  V30 8189 H 811.986 0.0147613 -1.56293 0
M  V30 8190 H 812.721 2.49836 -2.06767 0
M  V30 8191 H 812.506 1.5825 -3.58747 0
M  V30 8192 H 813.996 2.53538 -3.31826 0
M  V30 8193 N 814.433 1.57553 0.0384317 0
M  V30 8194 C 815.71 1.79977 0.766002 0
M  V30 8195 C 816.09 0.830625 1.94072 0
M  V30 8196 O 815.438 -0.129243 2.28134 0
M  V30 8197 C 815.648 3.27434 1.20781 0
M  V30 8198 C 816.996 3.92167 1.62758 0
M  V30 8199 O 818.02 3.31527 1.30263 0
M  V30 8200 O 816.879 4.98917 2.23035 0
M  V30 8201 H 813.973 0.739787 0.369654 0
M  V30 8202 H 816.519 1.69693 0.0159312 0
M  V30 8203 H 815.291 3.89558 0.368792 0
M  V30 8204 H 814.914 3.42571 2.01819 0
M  V30 8205 N 815.911 -0.310526 1.54511 0
M  V30 8206 C 816.841 -1.38757 1.878 0
M  V30 8207 C 817.822 -1.53353 0.735991 0
M  V30 8208 O 819.007 -1.67018 0.990887 0
M  V30 8209 C 816.137 -2.75327 2.11689 0
M  V30 8210 C 815.091 -2.75506 3.27537 0
M  V30 8211 C 814.417 -4.15275 3.36824 0
M  V30 8212 C 815.717 -2.38093 4.64875 0
M  V30 8213 H 817.411 -1.11146 2.78005 0
M  V30 8214 H 814.957 -0.533232 1.33763 0
M  V30 8215 H 816.91 -3.50752 2.33562 0
M  V30 8216 H 815.634 -3.04443 1.18245 0
M  V30 8217 H 814.293 -2.02538 3.05572 0
M  V30 8218 H 813.941 -4.41553 2.40915 0
M  V30 8219 H 813.641 -4.16299 4.14692 0
M  V30 8220 H 815.165 -4.92493 3.60947 0
M  V30 8221 H 816.579 -3.03232 4.86542 0
M  V30 8222 H 814.976 -2.50345 5.45387 0
M  V30 8223 H 816.046 -1.33227 4.66239 0
M  V30 8224 N 817.389 -1.46805 -0.573248 0
M  V30 8225 C 818.635 -1.5283 -1.33307 0
M  V30 8226 C 818.968 -0.183287 -1.93333 0
M  V30 8227 O 818.243 0.806354 -1.76998 0
M  V30 8228 C 818.526 -2.63414 -2.45531 0
M  V30 8229 C 818.379 -4.07478 -1.90478 0
M  V30 8230 C 819.698 -2.70014 -3.47535 0
M  V30 8231 H 816.817 -0.556371 -0.483343 0
M  V30 8232 H 819.459 -1.78787 -0.643066 0
M  V30 8233 H 817.609 -2.41412 -3.04389 0
M  V30 8234 H 819.281 -4.40795 -1.36004 0
M  V30 8235 H 817.524 -4.16511 -1.21248 0
M  V30 8236 H 818.195 -4.80598 -2.71531 0
M  V30 8237 H 820.671 -2.89817 -2.98572 0
M  V30 8238 H 819.547 -3.49192 -4.23504 0
M  V30 8239 H 819.808 -1.76436 -4.05367 0
M  V30 8240 N 818.867 0.818669 -1.34668 0
M  V30 8241 C 819.83 1.9114 -1.26483 0
M  V30 8242 C 820.83 1.598 -0.179044 0
M  V30 8243 O 822.02 1.6876 -0.431952 0
M  V30 8244 C 819.152 3.27285 -0.95381 0
M  V30 8245 H 820.345 1.9982 -2.23634 0
M  V30 8246 H 817.898 1.01314 -1.19018 0
M  V30 8247 H 818.633 3.24297 0.0143428 0
M  V30 8248 H 818.418 3.51416 -1.73924 0
M  V30 8249 H 819.908 4.07299 -0.921827 0
M  V30 8250 N 820.346 1.18468 1.03938 0
M  V30 8251 C 821.309 0.914944 2.10146 0
M  V30 8252 C 822.309 -0.10022 1.60487 0
M  V30 8253 O 823.499 0.133365 1.73689 0
M  V30 8254 C 820.631 0.372993 3.38853 0
M  V30 8255 H 821.824 1.85677 2.35508 0
M  V30 8256 H 819.377 0.996876 1.20383 0
M  V30 8257 H 820.112 -0.57538 3.19155 0
M  V30 8258 H 819.897 1.1048 3.76213 0
M  V30 8259 H 821.387 0.203014 4.17106 0
M  V30 8260 N 821.824 -1.22873 0.986916 0
M  V30 8261 C 823.235 -1.73264 0.695438 0
M  V30 8262 C 823.586 -1.79679 -0.788023 0
M  V30 8263 O 822.711 -1.43905 -1.61618 0
M  V30 8264 C 823.306 -3.14671 1.2557 0
M  V30 8265 C 821.865 -3.62492 1.01373 0
M  V30 8266 C 821.012 -2.40551 1.37951 0
M  V30 8267 H 823.963 -1.08304 1.15999 0
M  V30 8268 H 823.984 -3.75226 0.631322 0
M  V30 8269 H 823.496 -3.0997 2.33539 0
M  V30 8270 H 821.597 -3.72567 -0.0495917 0
M  V30 8271 H 821.71 -4.48944 1.67289 0
M  V30 8272 H 820.074 -2.41875 0.798033 0
M  V30 8273 H 820.857 -2.38516 2.46911 0
M  V30 8274 N 823.302 -0.75937 -1.38099 0
M  V30 8275 C 824.252 -0.111098 -2.27729 0
M  V30 8276 C 825.236 0.687161 -1.45489 0
M  V30 8277 O 826.428 0.552167 -1.68167 0
M  V30 8278 C 823.557 0.776809 -3.34396 0
M  V30 8279 C 822.643 -0.0286108 -4.2409 0
M  V30 8280 N 823.034 -1.06797 -4.94397 0
M  V30 8281 C 821.332 0.197307 -4.45563 0
M  V30 8282 C 822.033 -1.55576 -5.6051 0
M  V30 8283 N 821.009 -0.870059 -5.36592 0
M  V30 8284 H 824.811 -0.907047 -2.79553 0
M  V30 8285 H 822.325 -0.595954 -1.5107 0
M  V30 8286 H 824.322 1.25691 -3.97502 0
M  V30 8287 H 822.982 1.57164 -2.84129 0
M  V30 8288 H 823.993 -1.44988 -4.97191 0
M  V30 8289 H 820.67 0.965028 -4.06194 0
M  V30 8290 H 822.06 -2.42184 -6.26735 0
M  V30 8291 N 824.78 1.49157 -0.508906 0
M  V30 8292 C 825.743 2.27784 0.25434 0
M  V30 8293 C 826.743 1.34132 0.88686 0
M  V30 8294 O 827.933 1.5722 0.750168 0
M  V30 8295 C 825.065 3.12347 1.36573 0
M  V30 8296 H 826.258 2.96718 -0.435714 0
M  V30 8297 H 823.811 1.54052 -0.264128 0
M  V30 8298 H 824.546 2.47997 2.08969 0
M  V30 8299 H 824.331 3.81213 0.917543 0
M  V30 8300 H 825.821 3.71712 1.90315 0
M  V30 8301 N 826.258 0.243083 1.55714 0
M  V30 8302 C 827.674 -0.111853 1.59208 0
M  V30 8303 C 827.874 -1.5723 1.2602 0
M  V30 8304 O 826.93 -2.31608 1.00569 0
M  V30 8305 C 828.243 0.233885 2.99789 0
M  V30 8306 C 829.791 0.177873 3.12494 0
M  V30 8307 C 830.266 0.49759 4.55289 0
M  V30 8308 N 831.757 0.447949 4.61029 0
M  V30 8309 C 832.492 0.668545 5.69489 0
M  V30 8310 N 831.988 0.952064 6.86227 0
M  V30 8311 N 833.781 0.599512 5.58894 0
M  V30 8312 H 825.932 1.19554 1.75558 0
M  V30 8313 H 828.195 0.480765 0.817049 0
M  V30 8314 H 827.901 1.24835 3.28799 0
M  V30 8315 H 827.775 -0.440846 3.74615 0
M  V30 8316 H 830.162 -0.827263 2.83267 0
M  V30 8317 H 830.243 0.886399 2.39951 0
M  V30 8318 H 829.887 1.50026 4.85237 0
M  V30 8319 H 829.817 -0.232371 5.26087 0
M  V30 8320 H 832.308 0.237388 3.77154 0
M  V30 8321 H 832.621 1.10791 7.64817 0
M  V30 8322 H 830.966 0.989496 6.8792 0
M  V30 8323 H 834.157 0.378088 4.66571 0
M  V30 8324 H 834.33 0.774828 6.43351 0
M  V30 8325 N 827.736 -1.57571 -0.0300757 0
M  V30 8326 C 828.983 -1.89226 -0.721091 0
M  V30 8327 C 829.311 -0.840244 -1.75414 0
M  V30 8328 O 828.566 0.158906 -1.95054 0
M  V30 8329 C 828.865 -3.27624 -1.42818 0
M  V30 8330 C 828.531 -4.4776 -0.531208 0
M  V30 8331 C 827.193 -4.8036 -0.28415 0
M  V30 8332 C 829.545 -5.21125 0.0881582 0
M  V30 8333 C 826.873 -5.83715 0.591065 0
M  V30 8334 C 829.225 -6.2541 0.95107 0
M  V30 8335 C 827.889 -6.56486 1.2076 0
M  V30 8336 H 827.159 -0.692428 -0.263866 0
M  V30 8337 H 829.806 -1.91491 0.0189874 0
M  V30 8338 H 828.111 -3.21343 -2.24155 0
M  V30 8339 H 829.808 -3.49365 -1.96838 0
M  V30 8340 H 826.398 -4.2227 -0.73392 0
M  V30 8341 H 830.582 -4.96219 -0.0897496 0
M  V30 8342 H 825.838 -6.06168 0.798132 0
M  V30 8343 H 830.012 -6.81402 1.43751 0
M  V30 8344 H 827.639 -7.36395 1.88751 0
M  V30 8345 N 829.214 0.302327 -1.54673 0
M  V30 8346 C 830.491 1.05721 -1.64567 0
M  V30 8347 C 830.871 2.0526 -0.493108 0
M  V30 8348 O 830.219 2.22729 0.510315 0
M  V30 8349 C 830.429 1.74025 -3.02517 0
M  V30 8350 C 831.777 2.26271 -3.59286 0
M  V30 8351 O 832.801 1.8406 -3.0496 0
M  V30 8352 O 831.66 3.0361 -4.54404 0
M  V30 8353 H 828.754 0.488577 -0.667249 0
M  V30 8354 H 831.3 0.300521 -1.67018 0
M  V30 8355 H 830.072 1.0174 -3.77842 0
M  V30 8356 H 829.695 2.56454 -3.03838 0
M  V30 8357 N 830.692 1.47107 0.565454 0
M  V30 8358 C 831.969 1.43787 1.32607 0
M  V30 8359 C 832.349 0.130428 2.10697 0
M  V30 8360 O 831.697 -0.888086 2.10536 0
M  V30 8361 C 831.907 2.67833 2.23755 0
M  V30 8362 C 833.255 3.14704 2.85037 0
M  V30 8363 O 834.279 2.68503 2.34061 0
M  V30 8364 O 833.138 3.95002 3.77671 0
M  V30 8365 H 830.232 0.572623 0.596684 0
M  V30 8366 H 832.778 1.59296 0.58504 0
M  V30 8367 H 831.55 3.54532 1.65597 0
M  V30 8368 H 831.173 2.54869 3.05168 0
M  V30 8369 N 832.17 -0.811516 1.35101 0
M  V30 8370 C 833.418 -1.56525 1.27845 0
M  V30 8371 C 833.739 -1.94435 -0.14829 0
M  V30 8372 O 833.009 -1.63203 -1.08359 0
M  V30 8373 H 831.589 -0.580433 0.47022 0
M  V30 8374 H 834.251 -0.968277 1.69146 0
M  V30 8375 H 833.347 -2.48291 1.89097 0
M  V30 8376 N 833.648 -1.19017 -1.03309 0
M  V30 8377 C 834.578 -0.94772 -2.13402 0
M  V30 8378 C 835.559 0.117383 -1.69694 0
M  V30 8379 O 836.744 -0.0367733 -1.94165 0
M  V30 8380 C 833.874 -0.480977 -3.43953 0
M  V30 8381 C 832.828 -1.48743 -4.01322 0
M  V30 8382 C 832.154 -0.877924 -5.27443 0
M  V30 8383 C 833.454 -2.86642 -4.36616 0
M  V30 8384 H 835.148 -1.86846 -2.33942 0
M  V30 8385 H 832.694 -0.899781 -1.12427 0
M  V30 8386 H 834.647 -0.298677 -4.2034 0
M  V30 8387 H 833.371 0.475348 -3.23122 0
M  V30 8388 H 832.03 -1.65681 -3.27025 0
M  V30 8389 H 831.678 0.0858232 -5.02927 0
M  V30 8390 H 831.378 -1.54996 -5.66789 0
M  V30 8391 H 832.902 -0.706326 -6.06501 0
M  V30 8392 H 834.316 -2.73312 -5.03958 0
M  V30 8393 H 832.713 -3.50599 -4.87032 0
M  V30 8394 H 833.783 -3.39617 -3.46105 0
M  V30 8395 N 835.127 1.22348 -0.993418 0
M  V30 8396 C 836.373 1.91393 -0.67056 0
M  V30 8397 C 836.706 1.77163 0.795428 0
M  V30 8398 O 835.981 1.14084 1.57528 0
M  V30 8399 C 836.264 3.43589 -1.0779 0
M  V30 8400 C 836.117 3.66867 -2.60248 0
M  V30 8401 C 837.436 4.35545 -0.631527 0
M  V30 8402 H 834.555 0.695057 -0.24508 0
M  V30 8403 H 837.197 1.44213 -1.23703 0
M  V30 8404 H 835.347 3.83903 -0.595902 0
M  V30 8405 H 837.019 3.35954 -3.16121 0
M  V30 8406 H 835.262 3.1113 -3.02293 0
M  V30 8407 H 835.933 4.73457 -2.838 0
M  V30 8408 H 838.409 4.0275 -1.04554 0
M  V30 8409 H 837.285 5.40707 -0.944831 0
M  V30 8410 H 837.546 4.39618 0.467779 0
M  V30 8411 N 836.605 0.766683 1.37694 0
M  V30 8412 C 837.555 0.123173 2.27667 0
M  V30 8413 C 838.539 -0.679436 1.45851 0
M  V30 8414 O 839.731 -0.54324 1.68457 0
M  V30 8415 C 836.86 -0.759064 3.34803 0
M  V30 8416 C 835.946 0.0511009 4.24069 0
M  V30 8417 N 836.337 1.09418 4.93823 0
M  V30 8418 C 834.635 -0.173675 4.45662 0
M  V30 8419 C 835.336 1.58546 5.59677 0
M  V30 8420 N 834.312 0.898503 5.36123 0
M  V30 8421 H 838.114 0.921859 2.79068 0
M  V30 8422 H 835.628 0.603957 1.50752 0
M  V30 8423 H 837.625 -1.23581 3.98163 0
M  V30 8424 H 836.285 -1.55655 2.84959 0
M  V30 8425 H 837.296 1.47623 4.96415 0
M  V30 8426 H 833.973 -0.943473 4.067 0
M  V30 8427 H 835.363 2.45504 6.25442 0
M  V30 8428 N 838.083 -1.48885 0.516809 0
M  V30 8429 C 839.013 -2.32241 -0.242157 0
M  V30 8430 C 839.994 -1.41258 -0.947633 0
M  V30 8431 O 841.179 -1.70156 -0.935973 0
M  V30 8432 C 838.309 -3.22151 -1.29754 0
M  V30 8433 C 837.263 -4.22053 -0.710995 0
M  V30 8434 C 836.589 -5.01007 -1.86806 0
M  V30 8435 C 837.889 -5.21388 0.30853 0
M  V30 8436 H 839.583 -2.95943 0.453651 0
M  V30 8437 H 837.129 -1.42316 0.219612 0
M  V30 8438 H 839.082 -3.79284 -1.83634 0
M  V30 8439 H 837.806 -2.56423 -2.02274 0
M  V30 8440 H 836.465 -3.66087 -0.193819 0
M  V30 8441 H 836.113 -4.31713 -2.58133 0
M  V30 8442 H 835.813 -5.68615 -1.48159 0
M  V30 8443 H 837.337 -5.60989 -2.4109 0
M  V30 8444 H 838.751 -5.73122 -0.142703 0
M  V30 8445 H 837.148 -5.96975 0.611673 0
M  V30 8446 H 838.218 -4.69329 1.21894 0
M  V30 8447 N 839.561 -0.251338 -1.55583 0
M  V30 8448 C 840.801 0.373651 -2.00956 0
M  V30 8449 C 841.165 1.54806 -1.13574 0
M  V30 8450 O 842.366 2.24108 -1.48422 0
M  V30 8451 C 840.637 0.768919 -3.49031 0
M  V30 8452 S 842.196 1.38381 -4.16409 0
M  V30 8453 H 839.014 0.117371 -0.701245 0
M  V30 8454 H 841.616 -0.367611 -1.92013 0
M  V30 8455 H 840.32 -0.0950492 -4.1029 0
M  V30 8456 H 839.851 1.54225 -3.61909 0
M  V30 8457 H 841.866 2.6728 -4.18062 0
M  V30 8458 N 841.039 1.57585 0.0217189 0
M  V30 8459 C 842.285 1.90733 0.706582 0
M  V30 8460 C 842.64 0.850732 1.7257 0
M  V30 8461 O 841.933 -0.139715 1.9109 0
M  V30 8462 C 842.127 3.28377 1.41079 0
M  V30 8463 C 841.956 4.47327 0.461395 0
M  V30 8464 C 840.726 5.05237 0.0797404 0
M  V30 8465 C 842.924 5.13626 -0.263302 0
M  V30 8466 N 840.906 6.07702 -0.870139 0
M  V30 8467 C 842.277 6.10722 -1.06859 0
M  V30 8468 C 844.332 4.96809 -0.329461 0
M  V30 8469 C 843.035 6.92813 -1.93397 0
M  V30 8470 C 845.061 5.79468 -1.18199 0
M  V30 8471 C 844.423 6.7614 -1.97519 0
M  V30 8472 H 840.522 0.74666 0.232427 0
M  V30 8473 H 843.106 1.94671 -0.0335228 0
M  V30 8474 H 841.277 3.25354 2.12131 0
M  V30 8475 H 843.009 3.49018 2.04862 0
M  V30 8476 H 839.764 4.71519 0.443498 0
M  V30 8477 H 840.188 6.6361 -1.33981 0
M  V30 8478 H 844.83 4.2194 0.269485 0
M  V30 8479 H 842.548 7.67022 -2.54369 0
M  V30 8480 H 846.134 5.68502 -1.23681 0
M  V30 8481 H 845.014 7.38989 -2.62421 0
M  V30 8482 N 842.517 -0.29412 1.54831 0
M  V30 8483 C 843.763 -1.02999 1.74697 0
M  V30 8484 C 844.096 -1.86687 0.534949 0
M  V30 8485 O 843.371 -1.88789 -0.467863 0
M  V30 8486 C 843.654 -1.93024 3.03996 0
M  V30 8487 C 843.507 -1.1247 4.35512 0
M  V30 8488 C 844.826 -2.92085 3.29203 0
M  V30 8489 H 841.945 -0.373039 0.635618 0
M  V30 8490 H 844.587 -0.304065 1.87551 0
M  V30 8491 H 842.737 -2.5492 2.93169 0
M  V30 8492 H 844.409 -0.528067 4.58268 0
M  V30 8493 H 842.652 -0.427574 4.31688 0
M  V30 8494 H 843.323 -1.78728 5.22265 0
M  V30 8495 H 845.799 -2.40319 3.39685 0
M  V30 8496 H 844.675 -3.52234 4.20978 0
M  V30 8497 H 844.936 -3.66107 2.47827 0
M  V30 8498 N 843.995 -1.47404 -0.557645 0
M  V30 8499 C 845.411 -1.32913 -0.88353 0
M  V30 8500 C 845.611 -0.31929 -1.98954 0
M  V30 8501 O 844.667 0.26934 -2.51059 0
M  V30 8502 C 845.98 -2.72229 -1.27718 0
M  V30 8503 C 847.528 -2.8051 -1.38863 0
M  V30 8504 C 848.003 -4.20466 -1.81583 0
M  V30 8505 N 849.494 -4.23005 -1.88735 0
M  V30 8506 C 850.229 -5.2821 -2.23118 0
M  V30 8507 N 849.725 -6.4372 -2.56117 0
M  V30 8508 N 851.518 -5.15588 -2.23888 0
M  V30 8509 H 843.669 -2.11698 0.172557 0
M  V30 8510 H 845.932 -0.947889 0.0145334 0
M  V30 8511 H 845.638 -3.47556 -0.538329 0
M  V30 8512 H 845.512 -3.03971 -2.23342 0
M  V30 8513 H 847.899 -2.05457 -2.11829 0
M  V30 8514 H 847.98 -2.52423 -0.414274 0
M  V30 8515 H 847.624 -4.96025 -1.09187 0
M  V30 8516 H 847.554 -4.45977 -2.80021 0
M  V30 8517 H 850.045 -3.39674 -1.65621 0
M  V30 8518 H 850.358 -7.19754 -2.81378 0
M  V30 8519 H 848.703 -6.47041 -2.53698 0
M  V30 8520 H 851.894 -4.24374 -1.97546 0
M  V30 8521 H 852.067 -5.97685 -2.50353 0
M  V30 8522 N 845.473 0.80434 -1.35529 0
M  V30 8523 C 846.698 1.598 -1.32207 0
M  V30 8524 C 847.123 1.87848 0.0974226 0
M  V30 8525 O 846.481 1.46728 1.06492 0
M  V30 8526 C 846.529 2.90483 -2.13663 0
M  V30 8527 O 845.633 3.83411 -1.51888 0
M  V30 8528 H 844.974 0.485305 -0.453183 0
M  V30 8529 H 847.504 0.998119 -1.78602 0
M  V30 8530 H 847.514 3.39888 -2.257 0
M  V30 8531 H 846.189 2.69395 -3.16859 0
M  V30 8532 H 844.766 3.41967 -1.48704 0
M  V30 8533 N 846.951 1.19563 1.02676 0
M  V30 8534 C 848.199 0.997593 1.75763 0
M  V30 8535 C 848.52 -0.47253 1.89188 0
M  V30 8536 O 847.79 -1.34214 1.42701 0
M  V30 8537 H 846.37 0.366128 0.651122 0
M  V30 8538 H 849.032 1.50495 1.23844 0
M  V30 8539 H 848.128 1.44741 2.76508 0
M  V30 8540 N 848.429 -1.21819 0.999893 0
M  V30 8541 C 849.678 -1.90066 0.675108 0
M  V30 8542 C 849.991 -1.78624 -0.79705 0
M  V30 8543 O 851.197 -2.41851 -1.23371 0
M  V30 8544 C 849.653 -3.40795 1.15702 0
M  V30 8545 C 849.261 -3.60859 2.6549 0
M  V30 8546 C 851.005 -4.147 0.906889 0
M  V30 8547 C 848.912 -5.05324 3.07248 0
M  V30 8548 H 847.842 -0.711763 0.248815 0
M  V30 8549 H 850.493 -1.3792 1.21038 0
M  V30 8550 H 848.875 -3.92164 0.549832 0
M  V30 8551 H 850.049 -3.19951 3.31614 0
M  V30 8552 H 848.364 -3.00298 2.88461 0
M  V30 8553 H 850.961 -5.21187 1.1945 0
M  V30 8554 H 851.304 -4.16004 -0.156923 0
M  V30 8555 H 851.837 -3.69379 1.47662 0
M  V30 8556 H 848.576 -5.09164 4.12834 0
M  V30 8557 H 848.096 -5.47108 2.45832 0
M  V30 8558 H 849.775 -5.73797 2.98941 0
M  V30 8559 N 849.908 -0.773975 -1.37286 0
M  V30 8560 C 851.133 -0.349561 -2.04433 0
M  V30 8561 C 851.558 1.02082 -1.5799 0
M  V30 8562 O 850.916 1.65458 -0.741172 0
M  V30 8563 C 850.964 -0.404292 -3.58326 0
M  V30 8564 O 850.068 0.594447 -4.08093 0
M  V30 8565 H 849.409 -0.150959 -0.646612 0
M  V30 8566 H 851.939 -1.05079 -1.75555 0
M  V30 8567 H 851.949 -0.262378 -4.07155 0
M  V30 8568 H 850.624 -1.40403 -3.91484 0
M  V30 8569 H 849.201 0.415468 -3.70578 0
M  V30 8570 N 851.386 1.48609 -0.524698 0
M  V30 8571 C 852.802 1.58557 -0.182199 0
M  V30 8572 C 853.002 1.52732 1.31435 0
M  V30 8573 O 852.058 1.41362 2.0922 0
M  V30 8574 C 853.371 2.90406 -0.78004 0
M  V30 8575 C 854.919 3.03924 -0.748293 0
M  V30 8576 C 855.394 4.38427 -1.32462 0
M  V30 8577 N 856.885 4.4498 -1.28635 0
M  V30 8578 C 857.62 5.47551 -1.70223 0
M  V30 8579 N 857.116 6.57103 -2.19515 0
M  V30 8580 N 858.909 5.38402 -1.61493 0
M  V30 8581 H 851.06 1.50638 -1.4974 0
M  V30 8582 H 853.323 0.714952 -0.622533 0
M  V30 8583 H 853.029 3.00308 -1.83052 0
M  V30 8584 H 852.903 3.76343 -0.254075 0
M  V30 8585 H 855.29 2.93638 0.293407 0
M  V30 8586 H 855.371 2.19611 -1.31167 0
M  V30 8587 H 855.015 4.49466 -2.36522 0
M  V30 8588 H 854.945 5.21418 -0.736967 0
M  V30 8589 H 857.436 3.66393 -0.92545 0
M  V30 8590 H 857.749 7.31499 -2.49257 0
M  V30 8591 H 856.094 6.58081 -2.23506 0
M  V30 8592 H 859.285 4.5171 -1.22785 0
M  V30 8593 H 859.458 6.18208 -1.94225 0
M  V30 8594 N 852.864 0.259585 1.55447 0
M  V30 8595 C 853.827 -0.621359 2.20617 0
M  V30 8596 C 854.827 -1.09317 1.17925 0
M  V30 8597 O 856.017 -0.995842 1.42929 0
M  V30 8598 C 853.149 -1.85546 2.85982 0
M  V30 8599 H 854.342 -0.0525833 2.99854 0
M  V30 8600 H 851.895 0.0101055 1.56297 0
M  V30 8601 H 852.63 -2.46515 2.10715 0
M  V30 8602 H 852.415 -1.52523 3.61219 0
M  V30 8603 H 853.905 -2.48227 3.35817 0
M  V30 8604 N 854.342 -1.57594 -0.0133615 0
M  V30 8605 C 855.305 -2.06534 -0.993799 0
M  V30 8606 C 856.305 -0.972267 -1.28077 0
M  V30 8607 O 857.495 -1.23537 -1.22818 0
M  V30 8608 C 854.627 -2.49554 -2.3224 0
M  V30 8609 H 855.82 -2.94419 -0.570741 0
M  V30 8610 H 853.373 -1.54113 -0.260546 0
M  V30 8611 H 854.108 -1.64872 -2.79263 0
M  V30 8612 H 853.893 -3.29371 -2.12737 0
M  V30 8613 H 855.383 -2.8779 -3.026 0
M  V30 8614 N 855.82 0.285905 -1.54985 0
M  V30 8615 C 856.75 1.35752 -1.89983 0
M  V30 8616 C 857.731 1.52163 -0.760295 0
M  V30 8617 O 858.916 1.65421 -1.01733 0
M  V30 8618 C 856.046 2.71925 -2.16042 0
M  V30 8619 C 855 2.70261 -3.31878 0
M  V30 8620 C 854.326 4.09864 -3.43388 0
M  V30 8621 C 855.626 2.30667 -4.68604 0
M  V30 8622 H 857.32 1.06709 -2.79738 0
M  V30 8623 H 854.866 0.511884 -1.34595 0
M  V30 8624 H 856.819 3.46992 -2.39113 0
M  V30 8625 H 855.543 3.02523 -1.23074 0
M  V30 8626 H 854.202 1.97651 -3.08755 0
M  V30 8627 H 853.85 4.37664 -2.47909 0
M  V30 8628 H 853.55 4.09648 -4.21262 0
M  V30 8629 H 855.074 4.86689 -3.68736 0
M  V30 8630 H 856.488 2.95453 -4.91305 0
M  V30 8631 H 854.885 2.41637 -5.49301 0
M  V30 8632 H 855.955 1.25793 -4.68299 0
M  V30 8633 N 857.298 1.47698 0.54982 0
M  V30 8634 C 858.228 1.63622 1.66583 0
M  V30 8635 C 859.209 0.485477 1.63025 0
M  V30 8636 O 860.394 0.715692 1.80531 0
M  V30 8637 C 857.524 1.65721 3.05211 0
M  V30 8638 C 856.478 2.80097 3.2362 0
M  V30 8639 C 855.804 2.67272 4.63109 0
M  V30 8640 C 857.104 4.21612 3.08286 0
M  V30 8641 H 858.798 2.57049 1.53512 0
M  V30 8642 H 856.344 1.23705 0.737099 0
M  V30 8643 H 858.297 1.75451 3.83138 0
M  V30 8644 H 857.021 0.688593 3.19258 0
M  V30 8645 H 855.68 2.69889 2.48104 0
M  V30 8646 H 855.328 1.68422 4.73965 0
M  V30 8647 H 855.028 3.44008 4.76374 0
M  V30 8648 H 856.552 2.78942 5.43161 0
M  V30 8649 H 857.966 4.32758 3.76024 0
M  V30 8650 H 856.363 4.99193 3.33057 0
M  V30 8651 H 857.433 4.39462 2.04942 0
M  V30 8652 N 858.776 -0.797141 1.35954 0
M  V30 8653 C 860.192 -1.09408 1.16198 0
M  V30 8654 C 860.392 -2.01491 -0.0191682 0
M  V30 8655 O 859.448 -2.42977 -0.686902 0
M  V30 8656 C 860.761 -1.71597 2.46931 0
M  V30 8657 C 862.309 -1.83974 2.53224 0
M  V30 8658 C 862.784 -2.49579 3.84024 0
M  V30 8659 N 864.275 -2.57055 3.85327 0
M  V30 8660 C 865.01 -3.08608 4.83268 0
M  V30 8661 N 864.506 -3.60527 5.91601 0
M  V30 8662 N 866.299 -3.07249 4.70696 0
M  V30 8663 H 858.45 -0.185209 2.11591 0
M  V30 8664 H 860.713 -0.144768 0.936881 0
M  V30 8665 H 860.419 -1.11404 3.3359 0
M  V30 8666 H 860.293 -2.71193 2.62172 0
M  V30 8667 H 862.68 -2.43308 1.66988 0
M  V30 8668 H 862.761 -0.83207 2.41889 0
M  V30 8669 H 862.405 -1.90892 4.70662 0
M  V30 8670 H 862.335 -3.50902 3.92651 0
M  V30 8671 H 864.826 -2.20283 3.07057 0
M  V30 8672 H 865.139 -3.98192 6.62317 0
M  V30 8673 H 863.484 -3.587 5.95281 0
M  V30 8674 H 866.675 -2.65972 3.85197 0
M  V30 8675 H 866.848 -3.47119 5.47186 0
M  V30 8676 N 860.254 -1.20106 -1.0204 0
M  V30 8677 C 861.184 -0.970301 -2.12385 0
M  V30 8678 C 862.165 0.099378 -1.69809 0
M  V30 8679 O 863.35 -0.057365 -1.94115 0
M  V30 8680 C 860.48 -0.517431 -3.43424 0
M  V30 8681 C 859.434 -1.52992 -3.99722 0
M  V30 8682 C 858.76 -0.933817 -5.26483 0
M  V30 8683 C 860.06 -2.91257 -4.33551 0
M  V30 8684 H 861.754 -1.89316 -2.31948 0
M  V30 8685 H 859.3 -0.911655 -1.11467 0
M  V30 8686 H 861.253 -0.343243 -4.2 0
M  V30 8687 H 859.977 0.441049 -3.23608 0
M  V30 8688 H 858.636 -1.6914 -3.2525 0
M  V30 8689 H 858.284 0.0324763 -5.0299 0
M  V30 8690 H 857.984 -1.60999 -5.65113 0
M  V30 8691 H 859.508 -0.770614 -6.05718 0
M  V30 8692 H 860.922 -2.78642 -5.0103 0
M  V30 8693 H 859.319 -3.55745 -4.83286 0
M  V30 8694 H 860.389 -3.43269 -3.42483 0
M  V30 8695 N 861.732 1.21287 -1.00634 0
M  V30 8696 C 862.979 1.90389 -0.6898 0
M  V30 8697 C 863.307 1.78193 0.779574 0
M  V30 8698 O 862.562 1.15358 1.58085 0
M  V30 8699 C 862.861 3.41374 -1.05824 0
M  V30 8700 C 862.527 3.73766 -2.5221 0
M  V30 8701 C 861.189 3.82317 -2.92211 0
M  V30 8702 C 863.541 3.88871 -3.47028 0
M  V30 8703 C 860.869 4.03423 -4.2599 0
M  V30 8704 C 863.221 4.11484 -4.80483 0
M  V30 8705 C 861.885 4.18263 -5.20204 0
M  V30 8706 H 861.155 0.696683 -0.252416 0
M  V30 8707 H 863.802 1.43769 -1.26502 0
M  V30 8708 H 862.107 3.8974 -0.401281 0
M  V30 8709 H 863.804 3.93118 -0.79116 0
M  V30 8710 H 860.394 3.67702 -2.20212 0
M  V30 8711 H 864.578 3.8163 -3.17289 0
M  V30 8712 H 859.834 4.06902 -4.56334 0
M  V30 8713 H 864.008 4.22115 -5.53888 0
M  V30 8714 H 861.635 4.34369 -6.23881 0
M  V30 8715 N 863.21 0.781244 1.36873 0
M  V30 8716 C 864.14 0.188128 2.32741 0
M  V30 8717 C 865.121 -0.672326 1.56249 0
M  V30 8718 O 866.306 -0.607835 1.84442 0
M  V30 8719 C 863.436 -0.684341 3.40491 0
M  V30 8720 C 862.39 0.0755641 4.27933 0
M  V30 8721 C 861.716 -0.916968 5.26779 0
M  V30 8722 C 863.016 1.26006 5.06873 0
M  V30 8723 H 864.71 0.989016 2.82593 0
M  V30 8724 H 862.256 0.477038 1.35869 0
M  V30 8725 H 864.209 -1.10915 4.06541 0
M  V30 8726 H 862.933 -1.51785 2.89187 0
M  V30 8727 H 861.592 0.481258 3.63427 0
M  V30 8728 H 861.24 -1.74528 4.71751 0
M  V30 8729 H 860.94 -0.413 5.86147 0
M  V30 8730 H 862.464 -1.34052 5.95703 0
M  V30 8731 H 863.878 0.911425 5.66009 0
M  V30 8732 H 862.275 1.69676 5.75613 0
M  V30 8733 H 863.345 2.05948 4.38991 0
M  V30 8734 N 864.689 -1.48329 0.532571 0
M  V30 8735 C 865.652 -2.2816 -0.218069 0
M  V30 8736 C 866.652 -1.35526 -0.865409 0
M  V30 8737 O 867.842 -1.58394 -0.725061 0
M  V30 8738 C 864.974 -3.1448 -1.31586 0
M  V30 8739 H 866.167 -2.95987 0.482865 0
M  V30 8740 H 863.72 -1.53612 0.288603 0
M  V30 8741 H 864.455 -2.5129 -2.04997 0
M  V30 8742 H 864.24 -3.82625 -0.856779 0
M  V30 8743 H 865.73 -3.74693 -1.84377 0
M  V30 8744 N 866.167 -0.267825 -1.55308 0
M  V30 8745 C 867.1 0.663973 -2.18327 0
M  V30 8746 C 868.078 1.15759 -1.14187 0
M  V30 8747 O 869.262 1.23189 -1.42677 0
M  V30 8748 C 866.389 1.9047 -2.8007 0
M  V30 8749 C 865.435 1.54718 -3.97447 0
M  V30 8750 S 866.268 0.631654 -5.31762 0
M  V30 8751 C 867.424 1.88092 -5.96969 0
M  V30 8752 H 867.657 0.128486 -2.97022 0
M  V30 8753 H 865.19 -0.052129 -1.54312 0
M  V30 8754 H 867.148 2.61688 -3.16275 0
M  V30 8755 H 865.809 2.41132 -2.01281 0
M  V30 8756 H 865.002 2.47022 -4.39313 0
M  V30 8757 H 864.604 0.915254 -3.62628 0
M  V30 8758 H 866.896 2.82572 -6.15759 0
M  V30 8759 H 867.839 1.50539 -6.91913 0
M  V30 8760 H 868.247 2.04254 -5.26252 0
M  V30 8761 N 867.645 1.57599 0.00500368 0
M  V30 8762 C 868.555 2.11532 1.01446 0
M  V30 8763 C 869.571 1.05941 1.3803 0
M  V30 8764 O 870.747 1.37815 1.46864 0
M  V30 8765 C 867.812 2.60382 2.28915 0
M  V30 8766 C 866.873 3.80554 1.98689 0
M  V30 8767 C 866.106 4.27064 3.20081 0
M  V30 8768 O 866.329 3.72939 4.31593 0
M  V30 8769 O 865.263 5.1927 3.04371 0
M  V30 8770 H 869.089 2.97993 0.586011 0
M  V30 8771 H 866.674 1.47718 0.223519 0
M  V30 8772 H 868.556 2.92024 3.03809 0
M  V30 8773 H 867.231 1.77022 2.71007 0
M  V30 8774 H 866.138 3.53893 1.21286 0
M  V30 8775 H 867.471 4.64972 1.61437 0
M  V30 8776 N 869.123 -0.277682 1.55134 0
M  V30 8777 C 870.539 -0.624625 1.46869 0
M  V30 8778 C 870.739 -1.89717 0.678958 0
M  V30 8779 O 869.795 -2.51739 0.195939 0
M  V30 8780 C 871.108 -0.755937 2.91043 0
M  V30 8781 C 872.656 -0.850299 3.01229 0
M  V30 8782 C 873.131 -1.01343 4.46647 0
M  V30 8783 N 874.622 -1.07906 4.50456 0
M  V30 8784 C 875.357 -1.224 5.60184 0
M  V30 8785 N 874.853 -1.33642 6.79788 0
M  V30 8786 N 876.646 -1.25473 5.47917 0
M  V30 8787 H 868.797 0.558102 2.04937 0
M  V30 8788 H 871.06 0.188228 0.929125 0
M  V30 8789 H 870.766 0.108593 3.51532 0
M  V30 8790 H 870.64 -1.6377 3.39793 0
M  V30 8791 H 873.027 -1.7053 2.40839 0
M  V30 8792 H 873.108 0.0559681 2.55739 0
M  V30 8793 H 872.752 -0.163102 5.07638 0
M  V30 8794 H 872.682 -1.93427 4.89789 0
M  V30 8795 H 875.173 -1.00477 3.64298 0
M  V30 8796 H 875.486 -1.44522 7.59166 0
M  V30 8797 H 873.831 -1.30655 6.82608 0
M  V30 8798 H 877.022 -1.16317 4.53418 0
M  V30 8799 H 877.195 -1.36424 6.33476 0
M  V30 8800 N 870.601 -1.47988 -0.541979 0
M  V30 8801 C 871.849 -1.55086 -1.29587 0
M  V30 8802 C 872.17 -0.221304 -1.9374 0
M  V30 8803 O 871.44 0.756128 -1.80719 0
M  V30 8804 H 870.02 -0.571307 -0.481266 0
M  V30 8805 H 872.682 -1.8438 -0.631675 0
M  V30 8806 H 871.778 -2.32556 -2.08144 0
M  V30 8807 N 872.079 0.78992 -1.36375 0
M  V30 8808 C 873.304 1.58389 -1.33895 0
M  V30 8809 C 873.729 1.8794 0.0774934 0
M  V30 8810 O 873.087 1.4785 1.0493 0
M  V30 8811 C 873.135 2.88201 -2.16732 0
M  V30 8812 O 872.239 3.81778 -1.55946 0
M  V30 8813 H 871.58 0.480471 -0.458305 0
M  V30 8814 H 874.11 0.979119 -1.79651 0
M  V30 8815 H 874.12 3.37475 -2.29292 0
M  V30 8816 H 872.795 2.66019 -3.19698 0
M  V30 8817 H 871.372 3.40371 -1.52323 0
M  V30 8818 N 873.557 1.20646 1.01402 0
M  V30 8819 C 874.507 0.925209 2.08384 0
M  V30 8820 C 875.491 -0.115994 1.60481 0
M  V30 8821 O 876.683 0.0917276 1.76762 0
M  V30 8822 C 873.812 0.48193 3.399 0
M  V30 8823 C 872.898 1.5567 3.94497 0
M  V30 8824 N 873.289 2.77971 4.2257 0
M  V30 8825 C 871.587 1.42347 4.22674 0
M  V30 8826 C 872.288 3.47317 4.66632 0
M  V30 8827 N 871.264 2.74736 4.69064 0
M  V30 8828 H 875.066 1.85452 2.28002 0
M  V30 8829 H 872.58 1.10084 1.19395 0
M  V30 8830 H 874.577 0.261835 4.16077 0
M  V30 8831 H 873.237 -0.440725 3.21695 0
M  V30 8832 H 874.248 3.14598 4.11398 0
M  V30 8833 H 870.925 0.565417 4.13654 0
M  V30 8834 H 872.315 4.51985 4.97151 0
M  V30 8835 N 875.035 -1.20752 1.01276 0
M  V30 8836 C 876.282 -1.90021 0.699887 0
M  V30 8837 C 876.61 -1.78604 -0.770113 0
M  V30 8838 O 875.865 -1.16195 -1.57471 0
M  V30 8839 C 876.164 -3.40808 1.07633 0
M  V30 8840 C 875.83 -3.72423 2.54189 0
M  V30 8841 C 874.492 -3.80762 2.94234 0
M  V30 8842 C 876.844 -3.87025 3.49086 0
M  V30 8843 C 874.172 -4.01158 4.28123 0
M  V30 8844 C 876.524 -4.0893 4.82658 0
M  V30 8845 C 875.188 -4.15498 5.22415 0
M  V30 8846 H 874.458 -0.695335 0.256107 0
M  V30 8847 H 877.105 -1.43096 1.27263 0
M  V30 8848 H 875.41 -3.89521 0.421944 0
M  V30 8849 H 877.107 -3.92693 0.811997 0
M  V30 8850 H 873.697 -3.66529 2.22158 0
M  V30 8851 H 877.881 -3.79942 3.19309 0
M  V30 8852 H 873.137 -4.04476 4.58486 0
M  V30 8853 H 877.311 -4.19172 5.56119 0
M  V30 8854 H 874.938 -4.31055 6.26176 0
M  V30 8855 N 876.513 -0.788492 -1.36457 0
M  V30 8856 C 877.738 -0.371224 -2.04051 0
M  V30 8857 C 878.163 1.004 -1.59064 0
M  V30 8858 O 877.521 1.64663 -0.758679 0
M  V30 8859 C 877.569 -0.442275 -3.57877 0
M  V30 8860 O 876.673 0.55113 -4.08701 0
M  V30 8861 H 876.014 -0.157808 -0.644975 0
M  V30 8862 H 878.544 -1.06935 -1.74431 0
M  V30 8863 H 878.554 -0.305548 -4.06854 0
M  V30 8864 H 877.229 -1.44547 -3.89973 0
M  V30 8865 H 875.806 0.37614 -3.70998 0
M  V30 8866 N 877.991 1.48044 -0.54043 0
M  V30 8867 C 878.921 2.32597 0.205178 0
M  V30 8868 C 879.902 1.42748 0.925041 0
M  V30 8869 O 881.087 1.71624 0.908784 0
M  V30 8870 C 878.217 3.24175 1.24612 0
M  V30 8871 C 877.171 4.23131 0.64376 0
M  V30 8872 C 876.497 5.03915 1.78812 0
M  V30 8873 C 877.797 5.20831 -0.39144 0
M  V30 8874 H 879.491 2.95184 -0.500676 0
M  V30 8875 H 877.037 1.41948 -0.242225 0
M  V30 8876 H 878.99 3.82158 1.77576 0
M  V30 8877 H 877.714 2.59608 1.98169 0
M  V30 8878 H 876.373 3.66349 0.135554 0
M  V30 8879 H 876.021 4.35765 2.51232 0
M  V30 8880 H 875.721 5.709 1.39094 0
M  V30 8881 H 877.245 5.64753 2.32134 0
M  V30 8882 H 878.659 5.73277 0.0515064 0
M  V30 8883 H 877.056 5.95926 -0.706569 0
M  V30 8884 H 878.126 4.6733 -1.29345 0
M  V30 8885 N 879.47 0.276058 1.55163 0
M  V30 8886 C 880.718 -0.339782 1.99223 0
M  V30 8887 C 881.039 -1.56307 1.16589 0
M  V30 8888 O 880.309 -1.94225 0.25564 0
M  V30 8889 H 878.889 -0.128534 0.735859 0
M  V30 8890 H 881.551 0.381612 1.91128 0
M  V30 8891 H 880.647 -0.629 3.05696 0
M  V30 8892 N 880.948 -1.576 0.00335426 0
M  V30 8893 C 882.188 -1.92571 -0.685253 0
M  V30 8894 C 882.552 -0.877961 -1.70751 0
M  V30 8895 O 883.753 -1.11303 -2.44673 0
M  V30 8896 C 882.024 -3.3258 -1.30863 0
M  V30 8897 S 883.583 -3.89442 -2.02189 0
M  V30 8898 H 880.401 -0.674035 -0.226268 0
M  V30 8899 H 883.003 -1.95405 0.0608461 0
M  V30 8900 H 881.707 -4.06673 -0.551837 0
M  V30 8901 H 881.238 -3.33128 -2.09259 0
M  V30 8902 H 883.253 -3.70789 -3.29742 0
M  V30 8903 N 882.426 0.269451 -1.5528 0
M  V30 8904 C 883.837 0.840233 -1.66724 0
M  V30 8905 C 884.188 1.86909 -0.596621 0
M  V30 8906 O 883.313 2.14817 0.261246 0
M  V30 8907 C 883.908 1.5308 -3.02245 0
M  V30 8908 C 882.467 2.04957 -3.15705 0
M  V30 8909 C 881.614 0.892838 -2.62533 0
M  V30 8910 H 884.565 0.0457236 -1.58634 0
M  V30 8911 H 884.586 2.39792 -2.95432 0
M  V30 8912 H 884.098 0.781741 -3.80145 0
M  V30 8913 H 882.199 2.82813 -2.42585 0
M  V30 8914 H 882.312 2.26244 -4.22316 0
M  V30 8915 H 880.676 1.28719 -2.19781 0
M  V30 8916 H 881.459 0.157229 -3.4294 0
M  V30 8917 N 883.904 1.48273 0.534124 0
M  V30 8918 C 884.836 1.5857 1.65494 0
M  V30 8919 C 885.849 0.470266 1.5586 0
M  V30 8920 O 887.038 0.740928 1.62396 0
M  V30 8921 C 884.138 1.49554 3.04117 0
M  V30 8922 C 883.311 2.76066 3.39273 0
M  V30 8923 C 882.37 2.60562 4.57159 0
M  V30 8924 O 881.396 3.34438 4.60587 0
M  V30 8925 N 882.598 1.69906 5.55079 0
M  V30 8926 H 885.363 2.55226 1.57099 0
M  V30 8927 H 882.924 1.44944 0.721303 0
M  V30 8928 H 884.916 1.36882 3.80848 0
M  V30 8929 H 883.486 0.608895 3.06613 0
M  V30 8930 H 882.706 3.03332 2.51761 0
M  V30 8931 H 883.994 3.60006 3.59546 0
M  V30 8932 H 883.392 1.09079 5.55084 0
M  V30 8933 H 881.949 1.63175 6.31044 0
M  V30 8934 N 885.382 -0.782676 1.36792 0
M  V30 8935 C 886.312 -1.90973 1.34356 0
M  V30 8936 C 887.293 -1.6875 0.213917 0
M  V30 8937 O 888.478 -1.89766 0.412601 0
M  V30 8938 C 885.608 -3.28097 1.13884 0
M  V30 8939 C 884.562 -3.6486 2.23744 0
M  V30 8940 C 883.888 -5.00406 1.88408 0
M  V30 8941 C 885.188 -3.72742 3.6587 0
M  V30 8942 H 886.882 -1.93268 2.28665 0
M  V30 8943 H 884.428 -0.928447 1.10072 0
M  V30 8944 H 886.381 -4.06569 1.10813 0
M  V30 8945 H 885.105 -3.26206 0.160275 0
M  V30 8946 H 883.764 -2.88689 2.25952 0
M  V30 8947 H 883.412 -4.95044 0.891083 0
M  V30 8948 H 883.112 -5.25973 2.61966 0
M  V30 8949 H 884.636 -5.81291 1.86905 0
M  V30 8950 H 886.05 -4.4139 3.65852 0
M  V30 8951 H 884.447 -4.09798 4.38389 0
M  V30 8952 H 885.517 -2.73676 4.00287 0
M  V30 8953 N 886.86 -1.21182 -1.00761 0
M  V30 8954 C 888.108 -1.02543 -1.74153 0
M  V30 8955 C 888.429 0.442372 -1.89916 0
M  V30 8956 O 887.699 1.31927 -1.44818 0
M  V30 8957 H 886.279 -0.37644 -0.645214 0
M  V30 8958 H 888.941 -1.52446 -1.21434 0
M  V30 8959 H 888.037 -1.49122 -2.7417 0
M  V30 8960 N 888.338 1.20213 -1.01915 0
M  V30 8961 C 889.568 1.93341 -0.728197 0
M  V30 8962 C 889.976 1.75151 0.715454 0
M  V30 8963 O 889.319 1.06437 1.49722 0
M  V30 8964 C 889.381 3.45677 -0.9873 0
M  V30 8965 C 889.045 3.8763 -2.42057 0
M  V30 8966 C 890.042 3.93184 -3.40151 0
M  V30 8967 C 887.727 4.19547 -2.76199 0
M  V30 8968 C 889.721 4.30069 -4.70446 0
M  V30 8969 C 887.408 4.56106 -4.06707 0
M  V30 8970 C 888.406 4.6134 -5.03641 0
M  V30 8971 O 888.094 4.97059 -6.31813 0
M  V30 8972 H 887.826 0.621258 -0.266485 0
M  V30 8973 H 890.38 1.53577 -1.36393 0
M  V30 8974 H 888.61 3.85578 -0.294405 0
M  V30 8975 H 890.299 4.00035 -0.687536 0
M  V30 8976 H 891.065 3.68687 -3.15111 0
M  V30 8977 H 886.944 4.14663 -2.01434 0
M  V30 8978 H 890.488 4.34069 -5.46105 0
M  V30 8979 H 886.385 4.80059 -4.31525 0
M  V30 8980 H 887.153 5.15043 -6.36139 0
M  V30 8981 N 889.816 0.795718 1.36037 0
M  V30 8982 C 890.779 0.204318 2.28287 0
M  V30 8983 C 891.779 -0.602017 1.49105 0
M  V30 8984 O 892.969 -0.422089 1.69009 0
M  V30 8985 C 890.101 -0.716431 3.33287 0
M  V30 8986 H 891.294 1.01781 2.821 0
M  V30 8987 H 888.847 0.565588 1.45708 0
M  V30 8988 H 889.582 -1.55403 2.84641 0
M  V30 8989 H 889.367 -0.140096 3.9185 0
M  V30 8990 H 890.857 -1.12488 4.02164 0
M  V30 8991 N 891.294 -1.47756 0.548274 0
M  V30 8992 C 892.257 -2.28379 -0.193857 0
M  V30 8993 C 893.257 -1.36436 -0.850986 0
M  V30 8994 O 894.447 -1.59154 -0.70822 0
M  V30 8995 C 891.579 -3.15858 -1.28243 0
M  V30 8996 H 892.772 -2.95458 0.514231 0
M  V30 8997 H 890.325 -1.53298 0.304879 0
M  V30 8998 H 891.06 -2.5345 -2.0232 0
M  V30 8999 H 890.845 -3.83512 -0.816148 0
M  V30 9000 H 892.335 -3.76627 -1.80393 0
M  V30 9001 N 892.772 -0.284283 -1.55015 0
M  V30 9002 C 893.735 0.586182 -2.21577 0
M  V30 9003 C 894.735 1.07427 -1.1965 0
M  V30 9004 O 895.925 0.972977 -1.44495 0
M  V30 9005 C 893.057 1.80973 -2.88897 0
M  V30 9006 H 894.25 0.00487253 -2.999 0
M  V30 9007 H 891.803 -0.0349696 -1.56261 0
M  V30 9008 H 892.538 2.43131 -2.14611 0
M  V30 9009 H 892.323 1.46757 -3.636 0
M  V30 9010 H 893.813 2.42853 -3.39724 0
M  V30 9011 N 894.251 1.57596 -0.0117121 0
M  V30 9012 C 895.667 1.55837 0.344506 0
M  V30 9013 C 895.867 1.01557 1.74036 0
M  V30 9014 O 894.923 0.654563 2.43868 0
M  V30 9015 C 896.236 2.99973 0.209023 0
M  V30 9016 C 897.784 3.11717 0.283092 0
M  V30 9017 C 898.259 4.57659 0.176599 0
M  V30 9018 N 899.75 4.62608 0.234133 0
M  V30 9019 C 900.485 5.73132 0.175252 0
M  V30 9020 N 899.981 6.92768 0.0662888 0
M  V30 9021 N 901.774 5.61638 0.227972 0
M  V30 9022 H 893.925 1.91215 -0.924692 0
M  V30 9023 H 896.188 0.878807 -0.355531 0
M  V30 9024 H 895.894 3.4357 -0.751826 0
M  V30 9025 H 895.768 3.64075 0.98635 0
M  V30 9026 H 898.155 2.68043 1.23439 0
M  V30 9027 H 898.236 2.50369 -0.52431 0
M  V30 9028 H 897.88 5.02011 -0.771205 0
M  V30 9029 H 897.81 5.16967 1.00264 0
M  V30 9030 H 900.301 3.76549 0.319203 0
M  V30 9031 H 900.614 7.72795 0.0275765 0
M  V30 9032 H 898.959 6.94993 0.0317502 0
M  V30 9033 H 902.15 4.67063 0.311377 0
M  V30 9034 H 902.323 6.47754 0.178621 0
M  V30 9035 N 895.729 -0.261212 1.5542 0
M  V30 9036 C 896.692 -1.30645 1.8832 0
M  V30 9037 C 897.692 -1.41782 0.758588 0
M  V30 9038 O 898.882 -1.40729 1.02669 0
M  V30 9039 C 896.014 -2.6862 2.09895 0
M  V30 9040 H 897.207 -1.02698 2.81768 0
M  V30 9041 H 894.76 -0.499838 1.48092 0
M  V30 9042 H 895.495 -3.0173 1.18868 0
M  V30 9043 H 895.28 -2.61921 2.91787 0
M  V30 9044 H 896.77 -3.44121 2.36581 0
M  V30 9045 N 897.207 -1.48554 -0.526253 0
M  V30 9046 C 898.454 -1.56761 -1.28188 0
M  V30 9047 C 898.782 -0.24315 -1.92974 0
M  V30 9048 O 898.037 0.766883 -1.80048 0
M  V30 9049 C 898.336 -2.65739 -2.38993 0
M  V30 9050 C 898.002 -4.08057 -1.91834 0
M  V30 9051 C 896.664 -4.46792 -1.78691 0
M  V30 9052 C 899.016 -4.9723 -1.56242 0
M  V30 9053 C 896.344 -5.72501 -1.28296 0
M  V30 9054 C 898.696 -6.23432 -1.07309 0
M  V30 9055 C 897.36 -6.6102 -0.927853 0
M  V30 9056 H 896.63 -0.573631 -0.469072 0
M  V30 9057 H 899.277 -1.82287 -0.586842 0
M  V30 9058 H 897.582 -2.34088 -3.14181 0
M  V30 9059 H 899.279 -2.69304 -2.97113 0
M  V30 9060 H 895.869 -3.77469 -2.03016 0
M  V30 9061 H 900.053 -4.67979 -1.65255 0
M  V30 9062 H 895.309 -6.00345 -1.15742 0
M  V30 9063 H 899.483 -6.91923 -0.788412 0
M  V30 9064 H 897.11 -7.58314 -0.535162 0
M  V30 9065 N 898.685 0.775411 -1.37205 0
M  V30 9066 C 900.101 1.07546 -1.17924 0
M  V30 9067 C 900.301 2.01496 -0.0128897 0
M  V30 9068 O 899.357 2.44039 0.64816 0
M  V30 9069 C 900.67 1.67647 -2.49629 0
M  V30 9070 C 902.218 1.79923 -2.56119 0
M  V30 9071 C 902.693 2.43438 -3.87946 0
M  V30 9072 N 904.184 2.50893 -3.89368 0
M  V30 9073 C 904.919 3.00881 -4.88117 0
M  V30 9074 N 904.415 3.5107 -5.97262 0
M  V30 9075 N 906.208 2.99722 -4.75524 0
M  V30 9076 H 898.359 0.151524 -2.11859 0
M  V30 9077 H 900.622 0.129845 -0.939066 0
M  V30 9078 H 900.328 1.06082 -3.3532 0
M  V30 9079 H 900.202 2.66988 -2.66453 0
M  V30 9080 H 902.589 2.40621 -1.70838 0
M  V30 9081 H 902.67 0.793482 -2.43182 0
M  V30 9082 H 902.314 1.8338 -4.73639 0
M  V30 9083 H 902.244 3.44611 -3.98184 0
M  V30 9084 H 904.735 2.1537 -3.10522 0
M  V30 9085 H 905.048 3.87604 -6.68568 0
M  V30 9086 H 903.393 3.49184 -6.00912 0
M  V30 9087 H 906.584 2.5981 -3.8938 0
M  V30 9088 H 906.757 3.38369 -5.52639 0
M  V30 9089 N 900.163 1.21714 1.00117 0
M  V30 9090 C 901.093 1.00397 2.10815 0
M  V30 9091 C 902.074 -0.0723502 1.69946 0
M  V30 9092 O 903.259 0.0882398 1.93999 0
M  V30 9093 C 900.389 0.572001 3.42557 0
M  V30 9094 C 899.343 1.59331 3.97237 0
M  V30 9095 C 898.669 1.01746 5.2493 0
M  V30 9096 C 899.969 2.98117 4.28863 0
M  V30 9097 H 901.663 1.92983 2.28906 0
M  V30 9098 H 899.209 0.929273 1.10002 0
M  V30 9099 H 901.162 0.410018 4.19401 0
M  V30 9100 H 899.886 -0.38951 3.24269 0
M  V30 9101 H 898.545 1.74293 3.22518 0
M  V30 9102 H 898.193 0.0475491 5.02978 0
M  V30 9103 H 897.893 1.69969 5.62481 0
M  V30 9104 H 899.417 0.866881 6.04415 0
M  V30 9105 H 900.831 2.86578 4.96534 0
M  V30 9106 H 899.228 3.63389 4.77565 0
M  V30 9107 H 900.298 3.48674 3.36979 0
M  V30 9108 N 901.641 -1.19671 1.02551 0
M  V30 9109 C 902.551 -2.26441 0.613329 0
M  V30 9110 C 903.567 -1.70375 -0.353339 0
M  V30 9111 O 904.743 -2.0028 -0.212064 0
M  V30 9112 C 901.808 -3.46684 -0.0329028 0
M  V30 9113 C 900.869 -4.17945 0.980837 0
M  V30 9114 C 900.102 -5.32448 0.36535 0
M  V30 9115 O 900.325 -5.64291 -0.832596 0
M  V30 9116 O 899.259 -5.92012 1.08652 0
M  V30 9117 H 903.085 -2.63932 1.50246 0
M  V30 9118 H 900.67 -1.2646 0.795502 0
M  V30 9119 H 902.552 -4.1956 -0.393395 0
M  V30 9120 H 901.227 -3.1105 -0.896089 0
M  V30 9121 H 900.134 -3.47204 1.39286 0
M  V30 9122 H 901.467 -4.57542 1.81428 0
M  V30 9123 N 903.119 -0.802921 -1.35613 0
M  V30 9124 C 904.53 -0.443004 -1.81368 0
M  V30 9125 C 904.881 1.03459 -1.66706 0
M  V30 9126 O 904.006 1.80372 -1.19561 0
M  V30 9127 C 904.601 -0.797324 -3.29284 0
M  V30 9128 C 903.16 -0.490055 -3.73196 0
M  V30 9129 C 902.307 -1.02487 -2.57666 0
M  V30 9130 H 905.258 -0.994888 -1.23643 0
M  V30 9131 H 905.279 -0.0934638 -3.80385 0
M  V30 9132 H 904.791 -1.87278 -3.39924 0
M  V30 9133 H 902.892 0.576818 -3.68108 0
M  V30 9134 H 903.005 -1.02012 -4.68114 0
M  V30 9135 H 901.369 -0.44738 -2.5074 0
M  V30 9136 H 902.152 -2.10636 -2.71085 0
M  V30 9137 N 904.597 1.47463 -0.556102 0
M  V30 9138 C 905.527 2.32801 0.180497 0
M  V30 9139 C 906.508 1.43721 0.909848 0
M  V30 9140 O 907.693 1.72578 0.89053 0
M  V30 9141 C 904.823 3.25478 1.21167 0
M  V30 9142 C 903.777 4.2379 0.598846 0
M  V30 9143 C 903.103 5.05783 1.73457 0
M  V30 9144 C 904.403 5.20387 -0.446659 0
M  V30 9145 H 906.097 2.94636 -0.531956 0
M  V30 9146 H 903.643 1.41683 -0.257267 0
M  V30 9147 H 905.596 3.8402 1.73513 0
M  V30 9148 H 904.32 2.61695 1.95405 0
M  V30 9149 H 902.979 3.66472 0.0966897 0
M  V30 9150 H 902.627 4.38405 2.46596 0
M  V30 9151 H 902.327 5.72343 1.33031 0
M  V30 9152 H 903.851 5.67183 2.26131 0
M  V30 9153 H 905.265 5.73299 -0.00930019 0
M  V30 9154 H 903.662 5.95143 -0.769735 0
M  V30 9155 H 904.732 4.65932 -1.34295 0
M  V30 9156 N 906.075 0.2925 1.54862 0
M  V30 9157 C 907.303 -0.322113 2.04377 0
M  V30 9158 C 907.718 -1.48164 1.17016 0
M  V30 9159 O 907.075 -1.81466 0.19395 0
M  V30 9160 C 907.126 -0.786506 3.5284 0
M  V30 9161 O 906.847 0.326863 4.36879 0
M  V30 9162 C 908.348 -1.46715 4.18318 0
M  V30 9163 H 905.568 -0.0712074 0.667211 0
M  V30 9164 H 908.112 0.429657 1.99935 0
M  V30 9165 H 906.267 -1.48832 3.5767 0
M  V30 9166 H 906.681 -0.0331558 5.2449 0
M  V30 9167 H 908.155 -1.74333 5.23748 0
M  V30 9168 H 908.632 -2.40443 3.67538 0
M  V30 9169 H 909.238 -0.808735 4.1754 0
M  V30 9170 N 907.553 -1.57587 0.0200696 0
M  V30 9171 C 908.964 -1.79312 -0.520019 0
M  V30 9172 C 909.315 -0.929475 -1.72787 0
M  V30 9173 O 908.44 -0.137389 -2.15963 0
M  V30 9174 C 909.035 -3.25203 -0.950172 0
M  V30 9175 C 907.594 -3.47954 -1.43543 0
M  V30 9176 C 906.741 -2.74459 -0.395917 0
M  V30 9177 H 909.692 -1.56779 0.246153 0
M  V30 9178 H 909.713 -3.34418 -1.81508 0
M  V30 9179 H 909.225 -3.88035 -0.070883 0
M  V30 9180 H 907.326 -2.90363 -2.33495 0
M  V30 9181 H 907.439 -4.56661 -1.44905 0
M  V30 9182 H 905.803 -2.39669 -0.862022 0
M  V30 9183 H 906.586 -3.40001 0.47475 0
M  V30 9184 N 909.032 0.252966 -1.55557 0
M  V30 9185 C 910.448 0.60118 -1.47844 0
M  V30 9186 C 910.648 1.88612 -0.709055 0
M  V30 9187 O 909.704 2.51395 -0.235964 0
M  V30 9188 C 911.017 0.709539 -2.92209 0
M  V30 9189 C 912.565 0.802269 -3.02544 0
M  V30 9190 C 913.04 0.94224 -4.48203 0
M  V30 9191 N 914.531 1.00726 -4.52116 0
M  V30 9192 C 915.266 1.13472 -5.6206 0
M  V30 9193 N 914.762 1.22811 -6.81828 0
M  V30 9194 N 916.555 1.1674 -5.49844 0
M  V30 9195 H 908.706 -0.590635 -2.04023 0
M  V30 9196 H 910.969 -0.202986 -0.926013 0
M  V30 9197 H 910.675 -0.164505 -3.51315 0
M  V30 9198 H 910.549 1.58343 -3.42356 0
M  V30 9199 H 912.936 1.66677 -2.43522 0
M  V30 9200 H 913.017 -0.0966469 -2.55617 0
M  V30 9201 H 912.661 0.0823209 -5.07833 0
M  V30 9202 H 912.591 1.85611 -4.92805 0
M  V30 9203 H 915.082 0.946684 -3.6585 0
M  V30 9204 H 915.395 1.32426 -7.61369 0
M  V30 9205 H 913.74 1.19779 -6.84601 0
M  V30 9206 H 916.931 1.09089 -4.55211 0
M  V30 9207 H 917.104 1.26329 -6.35567 0
M  V30 9208 N 910.51 1.48831 0.518367 0
M  V30 9209 C 911.758 1.57128 1.27103 0
M  V30 9210 C 912.079 0.252098 1.93364 0
M  V30 9211 O 911.349 -0.727281 1.819 0
M  V30 9212 H 909.929 0.578891 0.472116 0
M  V30 9213 H 912.591 1.85361 0.602262 0
M  V30 9214 H 911.687 2.35838 2.04418 0
M  V30 9215 N 911.988 -0.768124 1.37614 0
M  V30 9216 C 913.234 -1.52907 1.33219 0
M  V30 9217 C 913.567 -1.94026 -0.0821218 0
M  V30 9218 O 912.842 -1.64345 -1.04023 0
M  V30 9219 C 913.125 -2.79164 2.27463 0
M  V30 9220 C 912.978 -2.44276 3.7769 0
M  V30 9221 C 914.297 -3.81115 2.20089 0
M  V30 9222 H 911.416 -0.554712 0.485246 0
M  V30 9223 H 914.058 -0.880911 1.68345 0
M  V30 9224 H 912.208 -3.34472 1.97639 0
M  V30 9225 H 913.88 -1.94855 4.18126 0
M  V30 9226 H 912.123 -1.76925 3.96081 0
M  V30 9227 H 912.794 -3.34544 4.39072 0
M  V30 9228 H 915.27 -3.35311 2.46386 0
M  V30 9229 H 914.146 -4.67174 2.88166 0
M  V30 9230 H 914.407 -4.25644 1.19498 0
M  V30 9231 N 913.466 -1.22244 -0.994698 0
M  V30 9232 C 914.396 -1.01513 -2.10279 0
M  V30 9233 C 915.377 0.0633365 -1.69982 0
M  V30 9234 O 916.562 -0.0985268 -1.9395 0
M  V30 9235 C 913.692 -0.59016 -3.42249 0
M  V30 9236 C 912.646 -1.61436 -3.96387 0
M  V30 9237 C 911.972 -1.04528 -5.24383 0
M  V30 9238 C 913.272 -3.00388 -4.27276 0
M  V30 9239 H 914.966 -1.94194 -2.2788 0
M  V30 9240 H 912.512 -0.935094 -1.09508 0
M  V30 9241 H 914.465 -0.432254 -4.19177 0
M  V30 9242 H 913.189 0.372308 -3.24471 0
M  V30 9243 H 911.848 -1.76001 -3.21589 0
M  V30 9244 H 911.496 -0.0742225 -5.02945 0
M  V30 9245 H 911.196 -1.72949 -5.61571 0
M  V30 9246 H 912.72 -0.898922 -6.03947 0
M  V30 9247 H 914.134 -2.89207 -4.95007 0
M  V30 9248 H 912.531 -3.65916 -4.75631 0
M  V30 9249 H 913.601 -3.50456 -3.35125 0
M  V30 9250 N 914.944 1.19125 -1.03184 0
M  V30 9251 C 916.172 1.92838 -0.74975 0
M  V30 9252 C 916.587 1.75667 0.691851 0
M  V30 9253 O 915.944 1.0805 1.47076 0
M  V30 9254 C 915.995 3.44509 -1.09525 0
M  V30 9255 O 915.716 3.6113 -2.48025 0
M  V30 9256 C 917.217 4.35338 -0.836397 0
M  V30 9257 H 914.437 0.61246 -0.274105 0
M  V30 9258 H 916.981 1.5118 -1.37712 0
M  V30 9259 H 915.136 3.83988 -0.513006 0
M  V30 9260 H 915.55 4.54959 -2.60984 0
M  V30 9261 H 917.024 5.4035 -1.12808 0
M  V30 9262 H 917.501 4.38602 0.229102 0
M  V30 9263 H 918.107 4.01544 -1.40152 0
M  V30 9264 N 916.422 0.810101 1.35185 0
M  V30 9265 C 917.668 0.392698 1.98962 0
M  V30 9266 C 918.001 -1.03835 1.64109 0
M  V30 9267 O 917.276 -1.721 0.9062 0
M  V30 9268 C 917.559 0.580349 3.55393 0
M  V30 9269 C 917.412 2.05658 4.00031 0
M  V30 9270 C 918.731 0.00822618 4.40099 0
M  V30 9271 H 915.85 0.144157 0.722764 0
M  V30 9272 H 918.492 1.02029 1.60281 0
M  V30 9273 H 916.642 0.0461106 3.88473 0
M  V30 9274 H 918.314 2.65348 3.77344 0
M  V30 9275 H 916.557 2.55174 3.50811 0
M  V30 9276 H 917.228 2.13875 5.08883 0
M  V30 9277 H 919.704 0.464517 4.13499 0
M  V30 9278 H 918.58 0.169414 5.48638 0
M  V30 9279 H 918.841 -1.08576 4.2856 0
M  V30 9280 N 917.9 -1.47166 0.563914 0
M  V30 9281 C 919.177 -1.95586 -0.0236172 0
M  V30 9282 C 919.557 -1.50655 -1.47872 0
M  V30 9283 O 918.905 -0.748479 -2.15894 0
M  V30 9284 C 919.115 -3.48762 0.128841 0
M  V30 9285 C 920.463 -4.24598 -0.0130544 0
M  V30 9286 O 921.487 -3.56155 0.0567242 0
M  V30 9287 O 920.346 -5.46253 -0.164332 0
M  V30 9288 H 917.44 -0.824793 -0.0603789 0
M  V30 9289 H 919.986 -1.57536 0.63091 0
M  V30 9290 H 918.758 -3.74291 1.14113 0
M  V30 9291 H 918.381 -3.93594 -0.56299 0
M  V30 9292 N 919.378 -0.300708 -1.54705 0
M  V30 9293 C 920.626 0.308044 -1.99739 0
M  V30 9294 C 920.947 1.54433 -1.19061 0
M  V30 9295 O 920.217 1.93794 -0.286507 0
M  V30 9296 H 918.797 0.116811 -0.73781 0
M  V30 9297 H 921.459 -0.41197 -1.90496 0
M  V30 9298 H 920.555 0.580287 -3.06658 0
M  V30 9299 N 920.856 1.57574 -0.0284266 0
M  V30 9300 C 921.766 2.13637 0.96936 0
M  V30 9301 C 922.782 1.08845 1.35752 0
M  V30 9302 O 923.958 1.40899 1.43908 0
M  V30 9303 C 921.023 2.65179 2.2334 0
M  V30 9304 C 920.084 3.84683 1.90572 0
M  V30 9305 C 919.317 4.33758 3.1095 0
M  V30 9306 O 919.54 3.82009 4.23586 0
M  V30 9307 O 918.474 5.2561 2.93288 0
M  V30 9308 H 922.3 2.99169 0.52267 0
M  V30 9309 H 919.885 1.48159 0.192135 0
M  V30 9310 H 921.767 2.98402 2.97547 0
M  V30 9311 H 920.442 1.82731 2.67191 0
M  V30 9312 H 919.349 3.56386 1.13753 0
M  V30 9313 H 920.682 4.68292 1.51538 0
M  V30 9314 N 922.334 -0.244713 1.55689 0
M  V30 9315 C 923.266 -1.32595 1.86952 0
M  V30 9316 C 924.279 -1.44185 0.755948 0
M  V30 9317 O 925.468 -1.45496 1.03408 0
M  V30 9318 C 922.568 -2.70429 2.04258 0
M  V30 9319 C 921.741 -2.8108 3.35131 0
M  V30 9320 C 920.8 -3.99773 3.42152 0
M  V30 9321 O 919.826 -3.89197 4.15348 0
M  V30 9322 N 921.028 -5.13041 2.71604 0
M  V30 9323 H 923.793 -1.06111 2.80287 0
M  V30 9324 H 921.354 -0.434811 1.55952 0
M  V30 9325 H 923.346 -3.48173 2.06295 0
M  V30 9326 H 921.916 -2.89612 1.17658 0
M  V30 9327 H 921.136 -1.89994 3.45392 0
M  V30 9328 H 922.424 -2.85147 4.21389 0
M  V30 9329 H 921.822 -5.24525 2.11872 0
M  V30 9330 H 920.379 -5.88912 2.79331 0
M  V30 9331 N 923.813 -1.49104 -0.510467 0
M  V30 9332 C 925.059 -1.58346 -1.26705 0
M  V30 9333 C 925.392 -0.265121 -1.92382 0
M  V30 9334 O 924.667 0.730558 -1.80258 0
M  V30 9335 C 924.95 -2.7359 -2.34137 0
M  V30 9336 C 924.803 -4.1519 -1.73024 0
M  V30 9337 C 926.122 -2.84511 -3.3577 0
M  V30 9338 H 923.241 -0.57637 -0.459311 0
M  V30 9339 H 925.883 -1.81353 -0.566658 0
M  V30 9340 H 924.033 -2.54105 -2.93876 0
M  V30 9341 H 925.705 -4.46167 -1.17186 0
M  V30 9342 H 923.948 -4.21279 -1.03473 0
M  V30 9343 H 924.619 -4.91683 -2.50903 0
M  V30 9344 H 927.095 -3.0222 -2.86011 0
M  V30 9345 H 925.971 -3.6684 -4.08313 0
M  V30 9346 H 926.232 -1.93471 -3.97519 0
M  V30 9347 N 925.291 0.760815 -1.38019 0
M  V30 9348 C 926.201 1.90526 -1.36884 0
M  V30 9349 C 927.217 1.71941 -0.266908 0
M  V30 9350 O 928.393 1.94988 -0.50413 0
M  V30 9351 C 925.458 3.25799 -1.18558 0
M  V30 9352 C 924.519 3.56961 -2.3849 0
M  V30 9353 C 923.752 4.8578 -2.21029 0
M  V30 9354 O 923.975 5.57629 -1.20023 0
M  V30 9355 O 922.909 5.16254 -3.0946 0
M  V30 9356 H 926.735 1.94437 -2.33298 0
M  V30 9357 H 924.32 0.905091 -1.18863 0
M  V30 9358 H 926.202 4.0669 -1.1037 0
M  V30 9359 H 924.877 3.22716 -0.252241 0
M  V30 9360 H 923.784 2.7626 -2.52252 0
M  V30 9361 H 925.117 3.64798 -3.30429 0
M  V30 9362 N 926.769 1.22769 0.988202 0
M  V30 9363 C 927.999 1.07998 1.76125 0
M  V30 9364 C 928.407 -0.372062 1.85506 0
M  V30 9365 O 927.75 -1.26946 1.3278 0
M  V30 9366 C 927.812 1.6219 3.20834 0
M  V30 9367 C 927.476 3.1086 3.34986 0
M  V30 9368 C 928.473 4.08239 3.21927 0
M  V30 9369 C 926.158 3.50411 3.59886 0
M  V30 9370 C 928.152 5.43154 3.33561 0
M  V30 9371 C 925.839 4.85473 3.71159 0
M  V30 9372 C 926.837 5.81653 3.58006 0
M  V30 9373 O 926.525 7.14263 3.68895 0
M  V30 9374 H 926.257 0.378937 0.559806 0
M  V30 9375 H 928.811 1.62925 1.25078 0
M  V30 9376 H 927.041 1.01676 3.73094 0
M  V30 9377 H 928.73 1.43011 3.79872 0
M  V30 9378 H 929.496 3.79025 3.02597 0
M  V30 9379 H 925.375 2.76068 3.69198 0
M  V30 9380 H 928.919 6.18207 3.23211 0
M  V30 9381 H 924.816 5.14365 3.89998 0
M  V30 9382 H 925.584 7.21906 3.85739 0
M  V30 9383 N 928.247 -1.18576 1.03814 0
M  V30 9384 C 929.495 -1.88121 0.738574 0
M  V30 9385 C 929.816 -1.80587 -0.735744 0
M  V30 9386 O 929.086 -1.22251 -1.53074 0
M  V30 9387 H 927.666 -0.696417 0.270208 0
M  V30 9388 H 930.328 -1.43912 1.31435 0
M  V30 9389 H 929.424 -2.94222 1.04115 0
M  V30 9390 N 929.725 -0.817259 -1.34754 0
M  V30 9391 C 931.136 -0.462215 -1.80888 0
M  V30 9392 C 931.487 1.01685 -1.67794 0
M  V30 9393 O 930.612 1.79094 -1.21468 0
M  V30 9394 C 931.207 -0.832204 -3.2842 0
M  V30 9395 C 929.766 -0.52961 -3.72655 0
M  V30 9396 C 928.913 -1.05214 -2.56564 0
M  V30 9397 H 931.864 -1.00795 -1.22581 0
M  V30 9398 H 931.885 -0.133804 -3.80265 0
M  V30 9399 H 931.397 -1.90873 -3.37919 0
M  V30 9400 H 929.498 0.537743 -3.68699 0
M  V30 9401 H 929.611 -1.06971 -4.67005 0
M  V30 9402 H 927.975 -0.473949 -2.50251 0
M  V30 9403 H 928.758 -2.135 -2.68836 0
M  V30 9404 N 931.203 1.46865 -0.571711 0
M  V30 9405 C 932.133 2.3298 0.155795 0
M  V30 9406 C 933.114 1.44678 0.894553 0
M  V30 9407 O 934.299 1.73513 0.872176 0
M  V30 9408 C 931.429 3.26745 1.17708 0
M  V30 9409 C 930.383 4.24401 0.553863 0
M  V30 9410 C 929.709 5.07595 1.68083 0
M  V30 9411 C 931.009 5.19884 -0.501827 0
M  V30 9412 H 932.703 2.94056 -0.563176 0
M  V30 9413 H 930.249 1.41402 -0.27228 0
M  V30 9414 H 932.202 3.85838 1.6943 0
M  V30 9415 H 930.926 2.63753 1.92618 0
M  V30 9416 H 929.585 3.66554 0.057815 0
M  V30 9417 H 929.233 4.40996 2.41933 0
M  V30 9418 H 928.933 5.73722 1.26953 0
M  V30 9419 H 930.457 5.6955 2.20103 0
M  V30 9420 H 931.871 5.73257 -0.0701057 0
M  V30 9421 H 930.268 5.94293 -0.832815 0
M  V30 9422 H 931.338 4.64482 -1.39229 0
M  V30 9423 N 932.681 0.308908 1.54543 0
M  V30 9424 C 933.613 -0.597453 2.21276 0
M  V30 9425 C 934.626 -1.09137 1.20801 0
M  V30 9426 O 935.815 -1.00747 1.47351 0
M  V30 9427 C 932.915 -1.83085 2.85189 0
M  V30 9428 C 932.088 -1.4781 4.11669 0
M  V30 9429 C 931.147 -2.56748 4.59311 0
M  V30 9430 O 930.173 -2.21507 5.24331 0
M  V30 9431 N 931.375 -3.87427 4.32297 0
M  V30 9432 H 934.14 -0.0261183 2.99689 0
M  V30 9433 H 931.701 0.131456 1.61365 0
M  V30 9434 H 933.693 -2.55326 3.13992 0
M  V30 9435 H 932.263 -2.31039 2.1057 0
M  V30 9436 H 931.483 -0.587974 3.8979 0
M  V30 9437 H 932.771 -1.2179 4.94009 0
M  V30 9438 H 932.169 -4.18863 3.80224 0
M  V30 9439 H 930.726 -4.55942 4.6579 0
M  V30 9440 N 934.159 -1.57557 0.0367827 0
M  V30 9441 C 935.122 -2.09591 -0.927589 0
M  V30 9442 C 936.122 -1.01252 -1.24919 0
M  V30 9443 O 937.312 -1.27382 -1.18825 0
M  V30 9444 C 934.444 -2.56816 -2.24184 0
M  V30 9445 H 935.637 -2.96086 -0.476784 0
M  V30 9446 H 933.19 -1.54864 -0.211385 0
M  V30 9447 H 933.925 -1.73673 -2.73876 0
M  V30 9448 H 933.71 -3.35973 -2.0215 0
M  V30 9449 H 935.2 -2.97271 -2.93291 0
M  V30 9450 N 935.637 0.236453 -1.55816 0
M  V30 9451 C 936.569 1.31602 -1.87653 0
M  V30 9452 C 937.582 1.43782 -0.763584 0
M  V30 9453 O 938.771 1.44945 -1.04178 0
M  V30 9454 C 935.871 2.69342 -2.05689 0
M  V30 9455 C 935.044 2.79298 -3.36617 0
M  V30 9456 C 934.103 3.97952 -3.44268 0
M  V30 9457 O 933.129 3.86989 -4.17406 0
M  V30 9458 N 934.331 5.11594 -2.74321 0
M  V30 9459 H 937.096 1.04623 -2.80845 0
M  V30 9460 H 934.657 0.426534 -1.5618 0
M  V30 9461 H 936.649 3.47074 -2.08138 0
M  V30 9462 H 935.219 2.88984 -1.19192 0
M  V30 9463 H 934.439 1.8816 -3.46395 0
M  V30 9464 H 935.727 2.82908 -4.22895 0
M  V30 9465 H 935.125 5.23394 -2.14651 0
M  V30 9466 H 933.682 5.87422 -2.8245 0
M  V30 9467 N 937.115 1.49373 0.502552 0
M  V30 9468 C 938.048 1.60529 1.6219 0
M  V30 9469 C 939.026 0.454431 1.56121 0
M  V30 9470 O 940.21 0.669768 1.762 0
M  V30 9471 C 937.337 1.55879 3.00698 0
M  V30 9472 C 936.383 2.76143 3.25034 0
M  V30 9473 S 937.216 4.37831 3.08325 0
M  V30 9474 C 938.372 4.35824 4.49231 0
M  V30 9475 H 938.605 2.55219 1.52482 0
M  V30 9476 H 936.138 1.38244 0.687594 0
M  V30 9477 H 938.096 1.53882 3.80566 0
M  V30 9478 H 936.757 0.624791 3.07823 0
M  V30 9479 H 935.95 2.69104 4.26144 0
M  V30 9480 H 935.552 2.75544 2.52886 0
M  V30 9481 H 937.844 4.07447 5.41288 0
M  V30 9482 H 938.787 5.37206 4.6132 0
M  V30 9483 H 939.195 3.65923 4.29838 0
M  V30 9484 N 938.594 -0.753485 1.38421 0
M  V30 9485 C 939.544 -1.85788 1.32162 0
M  V30 9486 C 940.528 -1.59577 0.20588 0
M  V30 9487 O 941.72 -1.71396 0.44186 0
M  V30 9488 C 938.849 -3.23498 1.14909 0
M  V30 9489 C 937.935 -3.556 2.31105 0
M  V30 9490 N 938.326 -3.58759 3.56547 0
M  V30 9491 C 936.624 -3.85866 2.23659 0
M  V30 9492 C 937.325 -3.8813 4.33278 0
M  V30 9493 N 936.301 -4.04966 3.62635 0
M  V30 9494 H 940.103 -1.86509 2.27138 0
M  V30 9495 H 937.617 -0.950843 1.31654 0
M  V30 9496 H 939.614 -4.02531 1.08509 0
M  V30 9497 H 938.274 -3.24029 0.20866 0
M  V30 9498 H 939.285 -3.40517 3.90216 0
M  V30 9499 H 935.962 -3.94112 1.37776 0
M  V30 9500 H 937.352 -3.97197 5.41926 0
M  V30 9501 N 940.072 -1.23292 -0.981677 0
M  V30 9502 C 941.483 -1.05936 -1.53735 0
M  V30 9503 C 941.834 0.373695 -1.92608 0
M  V30 9504 O 940.959 1.26024 -1.75917 0
M  V30 9505 C 941.554 -1.91682 -2.79363 0
M  V30 9506 C 940.113 -1.78591 -3.31334 0
M  V30 9507 C 939.26 -1.87463 -2.04335 0
M  V30 9508 H 942.211 -1.36973 -0.801505 0
M  V30 9509 H 942.232 -1.44085 -3.52164 0
M  V30 9510 H 941.744 -2.95975 -2.51039 0
M  V30 9511 H 939.845 -0.770755 -3.64541 0
M  V30 9512 H 939.958 -2.61902 -4.01179 0
M  V30 9513 H 938.322 -1.3103 -2.18411 0
M  V30 9514 H 939.105 -2.9331 -1.78394 0
M  V30 9515 N 941.55 1.18024 -1.04442 0
M  V30 9516 C 942.798 1.87727 -0.74854 0
M  V30 9517 C 943.119 1.80975 0.726156 0
M  V30 9518 O 942.389 1.23061 1.52423 0
M  V30 9519 H 940.969 0.694974 -0.273897 0
M  V30 9520 H 943.631 1.43213 -1.32197 0
M  V30 9521 H 942.727 2.93665 -1.05674 0
M  V30 9522 N 943.028 0.824394 1.34319 0
M  V30 9523 C 944.277 0.40956 1.97498 0
M  V30 9524 C 944.59 -1.03323 1.66083 0
M  V30 9525 O 945.796 -1.55205 2.22764 0
M  V30 9526 C 944.252 0.681384 3.53391 0
M  V30 9527 C 943.86 2.1379 3.93698 0
M  V30 9528 C 945.604 0.332788 4.23194 0
M  V30 9529 C 943.511 2.35453 5.42509 0
M  V30 9530 H 942.441 0.149409 0.739049 0
M  V30 9531 H 945.092 1.01095 1.5314 0
M  V30 9532 H 943.474 0.00980375 3.95999 0
M  V30 9533 H 944.648 2.84876 3.62191 0
M  V30 9534 H 942.963 2.44807 3.36836 0
M  V30 9535 H 945.56 0.472463 5.32609 0
M  V30 9536 H 945.903 -0.722862 4.09976 0
M  V30 9537 H 946.436 0.959005 3.86067 0
M  V30 9538 H 943.175 3.39529 5.60714 0
M  V30 9539 H 942.695 1.68912 5.75525 0
M  V30 9540 H 944.374 2.17885 6.09209 0
M  V30 9541 N 944.506 -1.46559 0.579492 0
M  V30 9542 C 945.754 -2.02 0.0637157 0
M  V30 9543 C 946.075 -1.45378 -1.29962 0
M  V30 9544 O 945.345 -0.637262 -1.85245 0
M  V30 9545 H 943.925 -0.746717 0.0205638 0
M  V30 9546 H 946.587 -1.79702 0.754544 0
M  V30 9547 H 945.683 -3.12099 -0.00770254 0
M  V30 9548 N 945.984 -0.3171 -1.54377 0
M  V30 9549 C 947.212 0.289558 -2.04864 0
M  V30 9550 C 947.627 1.46284 -1.19359 0
M  V30 9551 O 946.984 1.81135 -0.222795 0
M  V30 9552 C 947.035 0.730273 -3.54047 0
M  V30 9553 O 946.756 -0.396325 -4.36304 0
M  V30 9554 C 948.257 1.40041 -4.20599 0
M  V30 9555 H 945.477 0.0605836 -0.668259 0
M  V30 9556 H 948.021 -0.461411 -1.99227 0
M  V30 9557 H 946.176 1.43123 -3.59992 0
M  V30 9558 H 946.59 -0.0502901 -5.24476 0
M  V30 9559 H 948.064 1.65979 -5.26455 0
M  V30 9560 H 948.541 2.34565 -3.71316 0
M  V30 9561 H 949.147 0.742206 -4.18774 0
M  V30 9562 N 947.462 1.57535 -0.0451378 0
M  V30 9563 C 948.392 2.14208 0.929372 0
M  V30 9564 C 949.373 1.06221 1.32858 0
M  V30 9565 O 950.558 1.34132 1.40436 0
M  V30 9566 C 947.688 2.68217 2.20629 0
M  V30 9567 C 946.642 3.81134 1.94734 0
M  V30 9568 C 945.968 4.21636 3.28828 0
M  V30 9569 C 947.268 5.06531 1.27374 0
M  V30 9570 H 948.962 2.95886 0.457348 0
M  V30 9571 H 946.508 1.42332 0.218544 0
M  V30 9572 H 948.461 3.06502 2.89196 0
M  V30 9573 H 947.185 1.83722 2.70026 0
M  V30 9574 H 945.844 3.43312 1.28579 0
M  V30 9575 H 945.492 3.34099 3.76014 0
M  V30 9576 H 945.192 4.97736 3.12302 0
M  V30 9577 H 946.716 4.62516 3.98637 0
M  V30 9578 H 948.13 5.423 1.85967 0
M  V30 9579 H 946.527 5.87735 1.21194 0
M  V30 9580 H 947.597 4.84261 0.248913 0
M  V30 9581 N 948.94 -0.228186 1.55939 0
M  V30 9582 C 949.87 -1.28607 1.94891 0
M  V30 9583 C 950.851 -1.49236 0.816245 0
M  V30 9584 O 952.036 -1.61531 1.07803 0
M  V30 9585 C 949.166 -2.63719 2.25986 0
M  V30 9586 C 948.12 -2.57757 3.4168 0
M  V30 9587 C 947.446 -3.96837 3.58364 0
M  V30 9588 C 948.746 -2.13116 4.76843 0
M  V30 9589 H 950.44 -0.962531 2.83506 0
M  V30 9590 H 947.986 -0.461577 1.36402 0
M  V30 9591 H 949.939 -3.37878 2.51826 0
M  V30 9592 H 948.663 -2.97747 1.34217 0
M  V30 9593 H 947.322 -1.86055 3.15878 0
M  V30 9594 H 946.97 -4.28162 2.63982 0
M  V30 9595 H 946.67 -3.93731 4.36176 0
M  V30 9596 H 948.194 -4.72668 3.86545 0
M  V30 9597 H 949.608 -2.77015 5.01932 0
M  V30 9598 H 948.005 -2.21083 5.57891 0
M  V30 9599 H 949.075 -1.08326 4.72645 0
M  V30 9600 N 950.418 -1.49637 -0.494624 0
M  V30 9601 C 951.646 -1.63164 -1.2722 0
M  V30 9602 C 952.061 -0.305552 -1.86311 0
M  V30 9603 O 951.418 0.709758 -1.68133 0
M  V30 9604 C 951.469 -2.70524 -2.39789 0
M  V30 9605 O 951.19 -3.97991 -1.83126 0
M  V30 9606 C 952.691 -2.94814 -3.31058 0
M  V30 9607 H 949.911 -0.54912 -0.385627 0
M  V30 9608 H 952.455 -1.95711 -0.593081 0
M  V30 9609 H 950.61 -2.40738 -3.03519 0
M  V30 9610 H 951.024 -4.57179 -2.57075 0
M  V30 9611 H 952.498 -3.73653 -4.06309 0
M  V30 9612 H 952.975 -2.04974 -3.88436 0
M  V30 9613 H 953.581 -3.26042 -2.73088 0
M  V30 9614 N 951.896 0.746133 -1.38819 0
M  V30 9615 C 953.144 1.50247 -1.35167 0
M  V30 9616 C 953.465 1.94921 0.0553531 0
M  V30 9617 O 952.735 1.68187 1.00449 0
M  V30 9618 H 951.315 0.557337 -0.497377 0
M  V30 9619 H 953.977 0.886472 -1.73573 0
M  V30 9620 H 953.073 2.38986 -2.00728 0
M  V30 9621 N 953.375 1.23811 0.975125 0
M  V30 9622 C 954.786 1.0675 1.53171 0
M  V30 9623 C 955.137 -0.363475 1.92804 0
M  V30 9624 O 954.262 -1.25089 1.76583 0
M  V30 9625 C 954.857 1.93161 2.78342 0
M  V30 9626 C 953.416 1.80346 3.30382 0
M  V30 9627 C 952.563 1.88544 2.03338 0
M  V30 9628 H 955.514 1.37396 0.79423 0
M  V30 9629 H 955.535 1.45951 3.51395 0
M  V30 9630 H 955.047 2.97302 2.49465 0
M  V30 9631 H 953.148 0.790077 3.64127 0
M  V30 9632 H 953.261 2.64026 3.99784 0
M  V30 9633 H 951.625 1.32186 2.17713 0
M  V30 9634 H 952.408 2.94252 1.76836 0
M  V30 9635 N 954.853 -1.17469 1.05066 0
M  V30 9636 C 956.264 -1.69334 0.786304 0
M  V30 9637 C 956.615 -1.83604 -0.691671 0
M  V30 9638 O 955.74 -1.52269 -1.53763 0
M  V30 9639 C 956.335 -3.07572 1.42074 0
M  V30 9640 C 954.894 -3.56609 1.20446 0
M  V30 9641 C 954.041 -2.329 1.50508 0
M  V30 9642 H 956.992 -1.02003 1.21577 0
M  V30 9643 H 957.013 -3.71352 0.829334 0
M  V30 9644 H 956.525 -2.97154 2.49642 0
M  V30 9645 H 954.626 -3.72306 0.147968 0
M  V30 9646 H 954.739 -4.39446 1.90852 0
M  V30 9647 H 953.103 -2.37305 0.925124 0
M  V30 9648 H 953.886 -2.25093 2.59207 0
M  V30 9649 N 956.331 -0.831506 -1.3388 0
M  V30 9650 C 957.579 -0.422837 -1.97627 0
M  V30 9651 C 957.9 1.01961 -1.6622 0
M  V30 9652 O 957.17 1.70916 -0.957323 0
M  V30 9653 H 955.75 -0.153365 -0.731087 0
M  V30 9654 H 958.412 -1.06284 -1.6337 0
M  V30 9655 H 957.508 -0.548858 -3.07236 0
M  V30 9656 N 957.809 1.4625 -0.587256 0
M  V30 9657 C 959.049 2.04254 -0.0773169 0
M  V30 9658 C 959.413 1.44831 1.26047 0
M  V30 9659 O 960.614 1.94063 1.85992 0
M  V30 9660 C 958.885 3.57396 -0.0172813 0
M  V30 9661 S 960.444 4.36644 0.434422 0
M  V30 9662 H 957.262 0.709892 -0.0396783 0
M  V30 9663 H 959.864 1.79232 -0.780779 0
M  V30 9664 H 958.568 3.98161 -0.994795 0
M  V30 9665 H 958.099 3.86962 0.70881 0
M  V30 9666 H 960.114 4.66597 1.68824 0
M  V30 9667 N 959.287 0.325282 1.54207 0
M  V30 9668 C 960.698 -0.162426 1.85992 0
M  V30 9669 C 961.049 -1.51482 1.2469 0
M  V30 9670 O 960.174 -2.092 0.553578 0
M  V30 9671 C 960.769 -0.3015 3.37456 0
M  V30 9672 C 959.328 -0.73343 3.69185 0
M  V30 9673 C 958.475 0.143831 2.76927 0
M  V30 9674 H 961.426 0.545508 1.4903 0
M  V30 9675 H 961.447 -1.13212 3.63268 0
M  V30 9676 H 960.959 0.682942 3.82044 0
M  V30 9677 H 959.06 -1.72755 3.30131 0
M  V30 9678 H 959.173 -0.535987 4.76092 0
M  V30 9679 H 957.537 -0.380892 2.51836 0
M  V30 9680 H 958.32 1.12507 3.24341 0
M  V30 9681 N 960.765 -1.57509 0.0534917 0
M  V30 9682 C 962.013 -1.92402 -0.618548 0
M  V30 9683 C 962.334 -0.93273 -1.71246 0
M  V30 9684 O 961.604 0.0220495 -1.95888 0
M  V30 9685 H 960.184 -0.710233 -0.23147 0
M  V30 9686 H 962.846 -1.94606 0.10704 0
M  V30 9687 H 961.942 -2.93704 -1.05566 0
M  V30 9688 N 962.243 0.219913 -1.56058 0
M  V30 9689 C 963.659 0.569685 -1.49086 0
M  V30 9690 C 963.859 1.87066 -0.748903 0
M  V30 9691 O 962.915 2.50838 -0.289235 0
M  V30 9692 C 964.228 0.647397 -2.93648 0
M  V30 9693 C 965.776 0.737914 -3.04177 0
M  V30 9694 C 966.251 0.846957 -4.50101 0
M  V30 9695 N 967.742 0.911136 -4.5415 0
M  V30 9696 C 968.477 1.01525 -5.64341 0
M  V30 9697 N 967.973 1.0832 -6.8428 0
M  V30 9698 N 969.766 1.05051 -5.52196 0
M  V30 9699 H 961.917 -0.633778 -2.02724 0
M  V30 9700 H 964.18 -0.222583 -0.921499 0
M  V30 9701 H 963.886 -0.238987 -3.50887 0
M  V30 9702 H 963.76 1.51046 -3.45637 0
M  V30 9703 H 966.147 1.61474 -2.47002 0
M  V30 9704 H 966.228 -0.150845 -2.55355 0
M  V30 9705 H 965.872 -0.0254166 -5.07894 0
M  V30 9706 H 965.802 1.75116 -4.96631 0
M  V30 9707 H 968.293 0.868869 -3.67776 0
M  V30 9708 H 968.606 1.16247 -7.64007 0
M  V30 9709 H 966.951 1.05231 -6.86987 0
M  V30 9710 H 970.142 0.994086 -4.57423 0
M  V30 9711 H 970.315 1.12819 -6.38103 0
M  V30 9712 N 963.721 1.49897 0.486681 0
M  V30 9713 C 964.631 1.70379 1.6127 0
M  V30 9714 C 965.647 0.58659 1.63814 0
M  V30 9715 O 966.823 0.863044 1.81971 0
M  V30 9716 C 963.888 1.77911 2.97571 0
M  V30 9717 C 962.949 3.01569 3.0554 0
M  V30 9718 C 962.182 3.08732 4.35339 0
M  V30 9719 O 962.405 2.23099 5.2496 0
M  V30 9720 O 961.339 4.01325 4.48578 0
M  V30 9721 H 965.165 2.65799 1.46916 0
M  V30 9722 H 962.75 1.33808 0.664516 0
M  V30 9723 H 964.632 1.85135 3.78554 0
M  V30 9724 H 963.307 0.856722 3.12157 0
M  V30 9725 H 962.214 2.99854 2.23693 0
M  V30 9726 H 963.547 3.93335 2.95886 0
M  V30 9727 N 965.199 -0.738761 1.39212 0
M  V30 9728 C 966.61 -1.31684 1.32348 0
M  V30 9729 C 966.961 -1.96195 -0.0139041 0
M  V30 9730 O 966.086 -1.96056 -0.916025 0
M  V30 9731 C 966.681 -2.39444 2.39691 0
M  V30 9732 C 965.24 -2.92935 2.36359 0
M  V30 9733 C 964.387 -1.66465 2.21776 0
M  V30 9734 H 967.338 -0.536543 1.49355 0
M  V30 9735 H 967.359 -3.19744 2.06262 0
M  V30 9736 H 966.871 -1.92463 3.37016 0
M  V30 9737 H 964.972 -3.44207 1.42662 0
M  V30 9738 H 965.085 -3.46306 3.31073 0
M  V30 9739 H 963.449 -1.90657 1.68884 0
M  V30 9740 H 964.232 -1.21541 3.21065 0
M  V30 9741 O 966.716 -1.35434 -0.879766 0
M  V30 9742 H 967.407 -1.20393 -1.51741 0
M  V30 END ATOM
M  V30 BEGIN BOND
M  V30 END BOND
M  V30 END CTAB
M  END
$$$$
