drugbank_target|Q9NSY1 BMP-2-inducible protein kinase (DB12010)
 OpenBabel12092121143D

  0  0  0     0  0            999 V3000
M  V30 BEGIN CTAB
M  V30 COUNTS 17831 18042 0 0 0
M  V30 BEGIN ATOM
M  V30 1 H -0.908 1.98254 -0.117106 0
M  V30 2 N 0 1.576 0 0
M  V30 3 C 0.933 2.03868 1.02534 0
M  V30 4 C 1.911 0.928543 1.3348 0
M  V30 5 O 3.095 1.19667 1.45644 0
M  V30 6 C 0.222 2.43627 2.35294 0
M  V30 7 C -0.732 3.65373 2.2001 0
M  V30 8 S 0.101 5.13292 1.52614 0
M  V30 9 C 1.257 5.56322 2.86805 0
M  V30 10 H 1.49 2.90518 0.631377 0
M  V30 11 H -0.977 1.52953 0.210867 0
M  V30 12 H 0.981 2.67203 3.11629 0
M  V30 13 H -0.358 1.57376 2.7183 0
M  V30 14 H -1.165 3.90944 3.18086 0
M  V30 15 H -1.563 3.418 1.51819 0
M  V30 16 H 0.729 5.58782 3.83104 0
M  V30 17 H 1.672 6.56266 2.65933 0
M  V30 18 H 2.08 4.83886 2.90714 0
M  V30 19 N 1.4781 -0.272755 1.55222 0
M  V30 20 C 2.4251 -1.33716 1.88119 0
M  V30 21 C 3.3951 -1.49066 0.73271 0
M  V30 22 O 4.5801 -1.63469 0.984002 0
M  V30 23 C 1.7201 -2.69238 2.15882 0
M  V30 24 C 0.8331 -2.62108 3.43399 0
M  V30 25 C -0.0319 -3.89811 3.60861 0
M  V30 26 C -0.9929 -3.77193 4.8207 0
M  V30 27 N -1.8559 -4.9673 4.96189 0
M  V30 28 H 2.9841 -1.04962 2.78903 0
M  V30 29 H 0.5211 -0.507088 1.38083 0
M  V30 30 H 2.4791 -3.48089 2.29978 0
M  V30 31 H 1.1091 -2.96194 1.28331 0
M  V30 32 H 0.1611 -1.74967 3.37773 0
M  V30 33 H 1.4731 -2.48685 4.32386 0
M  V30 34 H 0.6271 -4.77103 3.74777 0
M  V30 35 H -0.6339 -4.06102 2.7006 0
M  V30 36 H -1.6289 -2.88284 4.68159 0
M  V30 37 H -0.4039 -3.62421 5.74307 0
M  V30 38 H -2.4579 -5.13431 4.08319 0
M  V30 39 H -2.5409 -4.85839 5.79221 0
M  V30 40 H -1.2729 -5.85594 5.1449 0
M  V30 41 N 2.9562 -1.48159 -0.537278 0
M  V30 42 C 3.9032 -1.62138 -1.64256 0
M  V30 43 C 4.8732 -0.463668 -1.59497 0
M  V30 44 O 6.0582 -0.686241 -1.78032 0
M  V30 45 C 3.1982 -1.66028 -3.02537 0
M  V30 46 C 2.3112 -2.92855 -3.17585 0
M  V30 47 C 1.4462 -2.87952 -4.46382 0
M  V30 48 C 0.4852 -4.09516 -4.54932 0
M  V30 49 N -0.3778 -4.02733 -5.75109 0
M  V30 50 H 4.4622 -2.56529 -1.51647 0
M  V30 51 H 1.9992 -1.27224 -0.738414 0
M  V30 52 H 3.9572 -1.66265 -3.82638 0
M  V30 53 H 2.5872 -0.751331 -3.13934 0
M  V30 54 H 1.6392 -3.02395 -2.30784 0
M  V30 55 H 2.9512 -3.82822 -3.19764 0
M  V30 56 H 2.1052 -2.8655 -5.34765 0
M  V30 57 H 0.8442 -1.95702 -4.46712 0
M  V30 58 H -0.1508 -4.11201 -3.64957 0
M  V30 59 H 1.0742 -5.02917 -4.56346 0
M  V30 60 H -0.9798 -3.13299 -5.76351 0
M  V30 61 H -1.0628 -4.86397 -5.78752 0
M  V30 62 H 0.2052 -4.05379 -6.65799 0
M  V30 63 N 4.4343 0.785586 -1.36625 0
M  V30 64 C 5.6813 1.54362 -1.31067 0
M  V30 65 C 6.0093 1.94195 0.10893 0
M  V30 66 O 5.2643 1.63262 1.07908 0
M  V30 67 C 5.5633 2.83007 -2.1827 0
M  V30 68 C 5.2293 2.62294 -3.6676 0
M  V30 69 C 3.8913 2.56353 -4.0723 0
M  V30 70 C 6.2433 2.43371 -4.6089 0
M  V30 71 C 3.5713 2.29461 -5.39967 0
M  V30 72 C 5.9233 2.18005 -5.93849 0
M  V30 73 C 4.5873 2.105 -6.3344 0
M  V30 74 H 3.8573 0.564851 -0.479609 0
M  V30 75 H 6.5043 0.906028 -1.68711 0
M  V30 76 H 4.8093 3.51253 -1.73576 0
M  V30 77 H 6.5063 3.40817 -2.11292 0
M  V30 78 H 3.0963 2.67774 -3.34656 0
M  V30 79 H 7.2803 2.46959 -4.30494 0
M  V30 80 H 2.5363 2.22135 -5.69619 0
M  V30 81 H 6.7103 2.02359 -6.66351 0
M  V30 82 H 4.3373 1.89425 -7.36222 0
M  V30 83 N 5.9124 1.20967 1.01018 0
M  V30 84 C 7.1374 1.0503 1.78839 0
M  V30 85 C 7.5624 -0.395752 1.8389 0
M  V30 86 O 6.9204 -1.28529 1.27867 0
M  V30 87 C 6.9684 1.64602 3.2084 0
M  V30 88 O 6.0724 0.887988 4.02726 0
M  V30 89 H 5.4134 0.369987 0.551367 0
M  V30 90 H 7.9434 1.60399 1.27018 0
M  V30 91 H 7.9534 1.68607 3.71532 0
M  V30 92 H 6.6284 2.69841 3.16479 0
M  V30 93 H 5.2054 0.922648 3.61305 0
M  V30 94 N 7.3905 -1.2043 1.01659 0
M  V30 95 C 8.8065 -1.41852 0.731442 0
M  V30 96 C 9.0065 -1.89358 -0.688898 0
M  V30 97 O 8.0625 -2.06247 -1.45666 0
M  V30 98 C 9.3755 -2.44019 1.75714 0
M  V30 99 C 10.9235 -2.57785 1.77527 0
M  V30 100 C 11.3985 -3.63194 2.79023 0
M  V30 101 N 12.8895 -3.70678 2.77763 0
M  V30 102 C 13.6245 -4.51897 3.52954 0
M  V30 103 N 13.1205 -5.36921 4.37821 0
M  V30 104 N 14.9135 -4.4643 3.41551 0
M  V30 105 H 7.0645 -0.879093 1.93354 0
M  V30 106 H 9.3275 -0.448425 0.835236 0
M  V30 107 H 9.0335 -2.1611 2.77469 0
M  V30 108 H 8.9075 -3.43007 1.56927 0
M  V30 109 H 11.2945 -2.85023 0.764569 0
M  V30 110 H 11.3755 -1.58992 2.00387 0
M  V30 111 H 11.0195 -3.36699 3.80258 0
M  V30 112 H 10.9495 -4.61609 2.53425 0
M  V30 113 H 13.4405 -3.09944 2.16201 0
M  V30 114 H 13.7535 -5.95981 4.91962 0
M  V30 115 H 12.0985 -5.36424 4.41899 0
M  V30 116 H 15.2895 -3.79042 2.74672 0
M  V30 117 H 15.4625 -5.09491 4.00404 0
M  V30 118 N 8.8686 -0.792821 -1.36206 0
M  V30 119 C 9.8016 -0.139422 -2.27774 0
M  V30 120 C 10.7796 0.68649 -1.47398 0
M  V30 121 O 11.9636 0.656738 -1.7669 0
M  V30 122 C 9.0906 0.807947 -3.28922 0
M  V30 123 C 8.1366 0.0633999 -4.26453 0
M  V30 124 S 8.9696 -1.26319 -5.20388 0
M  V30 125 C 10.1256 -0.31991 -6.25082 0
M  V30 126 H 10.3586 -0.915809 -2.82843 0
M  V30 127 H 7.8916 -0.587203 -1.42798 0
M  V30 128 H 9.8496 1.34908 -3.87699 0
M  V30 129 H 8.5106 1.55761 -2.72759 0
M  V30 130 H 7.7036 0.782386 -4.9789 0
M  V30 131 H 7.3056 -0.407352 -3.71775 0
M  V30 132 H 9.5976 0.499985 -6.75653 0
M  V30 133 H 10.5406 -1.00307 -7.00959 0
M  V30 134 H 10.9486 0.0782694 -5.64446 0
M  V30 135 N 10.3467 1.47872 -0.545128 0
M  V30 136 C 11.7577 1.86384 -0.108581 0
M  V30 137 C 12.1087 1.45309 1.31832 0
M  V30 138 O 11.2337 0.850641 1.9898 0
M  V30 139 C 11.8287 3.38265 -0.190274 0
M  V30 140 C 10.3877 3.75914 0.191164 0
M  V30 141 C 9.5347 2.71926 -0.543273 0
M  V30 142 H 12.4857 1.39561 -0.755537 0
M  V30 143 H 12.5067 3.75831 0.594217 0
M  V30 144 H 12.0187 3.6813 -1.2289 0
M  V30 145 H 10.1197 3.51665 1.23136 0
M  V30 146 H 10.2327 4.78836 -0.158987 0
M  V30 147 H 8.5967 2.54697 0.0122495 0
M  V30 148 H 9.3797 3.04634 -1.58282 0
M  V30 149 N 11.8248 0.280983 1.55075 0
M  V30 150 C 12.7718 -0.603937 2.22758 0
M  V30 151 C 13.7418 -1.1452 1.20309 0
M  V30 152 O 14.9268 -1.19343 1.48869 0
M  V30 153 C 12.0668 -1.77947 2.95684 0
M  V30 154 C 11.1798 -1.2715 4.12864 0
M  V30 155 C 10.3148 -2.4093 4.7342 0
M  V30 156 C 9.3538 -1.87165 5.82783 0
M  V30 157 N 8.4908 -2.94441 6.37377 0
M  V30 158 H 13.3308 -0.020124 2.97993 0
M  V30 159 H 10.8678 0.00183425 1.471 0
M  V30 160 H 12.8258 -2.47055 3.36184 0
M  V30 161 H 11.4558 -2.33522 2.22861 0
M  V30 162 H 10.5078 -0.473331 3.77444 0
M  V30 163 H 11.8198 -0.837751 4.91715 0
M  V30 164 H 10.9738 -3.18021 5.1667 0
M  V30 165 H 9.7128 -2.87623 3.93859 0
M  V30 166 H 8.7178 -1.08556 5.38976 0
M  V30 167 H 9.9428 -1.41401 6.64216 0
M  V30 168 H 7.8888 -3.40505 5.60707 0
M  V30 169 H 7.8058 -2.55501 7.11516 0
M  V30 170 H 9.0738 -3.71489 6.85285 0
M  V30 171 N 13.3029 -1.57598 0.00835791 0
M  V30 172 C 14.5279 -1.95617 -0.689103 0
M  V30 173 C 14.9529 -0.883753 -1.66046 0
M  V30 174 O 14.3109 0.157352 -1.80616 0
M  V30 175 C 14.3589 -3.32736 -1.38994 0
M  V30 176 O 13.4629 -3.27631 -2.50463 0
M  V30 177 H 12.8039 -0.638379 -0.182668 0
M  V30 178 H 15.3339 -2.045 0.064036 0
M  V30 179 H 15.3439 -3.68494 -1.75147 0
M  V30 180 H 14.0189 -4.1034 -0.677778 0
M  V30 181 H 12.5959 -3.03561 -2.16576 0
M  V30 182 N 14.781 0.264519 -1.55364 0
M  V30 183 C 15.691 1.34902 -1.91934 0
M  V30 184 C 16.707 1.53595 -0.817593 0
M  V30 185 O 17.883 1.67558 -1.11742 0
M  V30 186 C 14.948 2.68676 -2.19121 0
M  V30 187 C 14.009 2.58657 -3.4263 0
M  V30 188 C 13.242 3.86051 -3.68511 0
M  V30 189 O 13.465 4.87126 -2.96757 0
M  V30 190 O 12.399 3.85744 -4.62045 0
M  V30 191 H 16.225 1.06883 -2.8427 0
M  V30 192 H 13.81 0.463775 -1.42019 0
M  V30 193 H 15.692 3.47759 -2.37995 0
M  V30 194 H 14.367 2.96463 -1.29966 0
M  V30 195 H 13.274 1.7792 -3.29082 0
M  V30 196 H 14.607 2.35818 -4.32031 0
M  V30 197 N 16.2591 1.48442 0.529413 0
M  V30 198 C 17.5071 1.56179 1.28267 0
M  V30 199 C 17.8281 0.237721 1.93546 0
M  V30 200 O 17.0981 -0.740779 1.81354 0
M  V30 201 H 15.6781 0.575367 0.476405 0
M  V30 202 H 18.3401 1.84909 0.61602 0
M  V30 203 H 17.4361 2.34312 2.06165 0
M  V30 204 N 17.7372 -0.778329 1.37039 0
M  V30 205 C 18.9852 -1.53361 1.31623 0
M  V30 206 C 19.3062 -1.94739 -0.100831 0
M  V30 207 O 18.5762 -1.65797 -1.04347 0
M  V30 208 H 17.1562 -0.568794 0.484234 0
M  V30 209 H 19.8182 -0.926742 1.71457 0
M  V30 210 H 18.9142 -2.43606 1.95096 0
M  V30 211 N 19.2153 -1.21501 -1.00376 0
M  V30 212 C 20.4403 -1.05977 -1.78279 0
M  V30 213 C 20.8653 0.385994 -1.84097 0
M  V30 214 O 20.2233 1.27849 -1.28547 0
M  V30 215 C 20.2713 -1.66302 -3.19963 0
M  V30 216 O 19.3753 -0.909333 -4.0225 0
M  V30 217 H 18.7163 -0.372906 -0.549397 0
M  V30 218 H 21.2463 -1.6107 -1.26165 0
M  V30 219 H 21.2563 -1.70574 -3.70632 0
M  V30 220 H 19.9313 -2.71515 -3.15043 0
M  V30 221 H 18.5083 -0.941795 -3.60811 0
M  V30 222 N 20.6934 1.19889 -1.02296 0
M  V30 223 C 21.9414 1.89046 -0.714558 0
M  V30 224 C 22.2624 1.79636 0.758681 0
M  V30 225 O 21.5324 1.20292 1.54618 0
M  V30 226 H 20.1124 0.699802 -0.261317 0
M  V30 227 H 22.7744 1.45574 -1.29592 0
M  V30 228 H 21.8704 2.95524 -1.0036 0
M  V30 229 N 22.1715 0.800033 1.35784 0
M  V30 230 C 23.4195 0.376597 1.9856 0
M  V30 231 C 23.7405 -1.05812 1.63795 0
M  V30 232 O 23.0105 -1.73103 0.917171 0
M  V30 233 H 21.5905 0.136261 0.734467 0
M  V30 234 H 24.2525 1.02442 1.65806 0
M  V30 235 H 23.3485 0.477002 3.08433 0
M  V30 236 N 23.6496 -1.47581 0.552962 0
M  V30 237 C 24.8976 -2.02082 0.0272703 0
M  V30 238 C 25.2186 -1.4301 -1.32563 0
M  V30 239 O 24.4886 -0.603745 -1.86365 0
M  V30 240 H 23.0686 -0.746966 0.00709182 0
M  V30 241 H 25.7306 -1.81033 0.722008 0
M  V30 242 H 24.8266 -3.12034 -0.0639951 0
M  V30 243 N 25.1277 -0.289203 -1.54924 0
M  V30 244 C 26.0907 0.579144 -2.21762 0
M  V30 245 C 27.0907 1.07047 -1.1999 0
M  V30 246 O 28.2807 0.968384 -1.44803 0
M  V30 247 C 25.4127 1.80055 -2.8947 0
M  V30 248 H 26.6057 -0.00464908 -2.999 0
M  V30 249 H 24.1587 -0.0399306 -1.56249 0
M  V30 250 H 24.8937 2.42449 -2.15381 0
M  V30 251 H 24.6787 1.45602 -3.64064 0
M  V30 252 H 26.1687 2.41773 -3.40493 0
M  V30 253 N 26.6058 1.57591 -0.0167156 0
M  V30 254 C 27.5688 2.08393 0.954204 0
M  V30 255 C 28.5688 0.996531 1.26198 0
M  V30 256 O 29.7588 1.25858 1.20438 0
M  V30 257 C 26.8908 2.5394 2.27436 0
M  V30 258 H 28.0838 2.95455 0.514451 0
M  V30 259 H 25.6368 1.54582 0.231089 0
M  V30 260 H 26.3718 1.70171 2.76066 0
M  V30 261 H 26.1568 3.33371 2.06412 0
M  V30 262 H 27.6468 2.93512 2.97053 0
M  V30 263 N 28.0839 -0.256276 1.55502 0
M  V30 264 C 29.3319 -0.983672 1.76545 0
M  V30 265 C 29.6529 -1.86206 0.578982 0
M  V30 266 O 28.9229 -1.91656 -0.405577 0
M  V30 267 H 27.5029 -0.366191 0.651086 0
M  V30 268 H 30.1649 -0.276479 1.92929 0
M  V30 269 H 29.2609 -1.61087 2.67315 0
M  V30 270 N 29.562 -1.4872 -0.521534 0
M  V30 271 C 30.81 -1.56857 -1.27437 0
M  V30 272 C 31.131 -0.247982 -1.93417 0
M  V30 273 O 30.401 0.731151 -1.81744 0
M  V30 274 H 28.981 -0.577885 -0.473347 0
M  V30 275 H 31.643 -1.85233 -0.606205 0
M  V30 276 H 30.739 -2.35402 -2.0492 0
M  V30 277 N 31.0401 0.771051 -1.3745 0
M  V30 278 C 32.2881 1.52661 -1.32435 0
M  V30 279 C 32.6091 1.9479 0.0905024 0
M  V30 280 O 31.8791 1.66348 1.03466 0
M  V30 281 H 30.4591 0.566218 -0.487244 0
M  V30 282 H 33.1211 0.917636 -1.71946 0
M  V30 283 H 32.2171 2.42568 -1.96385 0
M  V30 284 N 32.5182 1.22032 0.997298 0
M  V30 285 C 33.4812 0.987909 2.06816 0
M  V30 286 C 34.4812 -0.0440084 1.6074 0
M  V30 287 O 35.6712 0.194053 1.73116 0
M  V30 288 C 32.8032 0.49132 3.37341 0
M  V30 289 H 33.9962 1.93803 2.28868 0
M  V30 290 H 31.5492 1.03838 1.16822 0
M  V30 291 H 32.2842 -0.463364 3.20973 0
M  V30 292 H 32.0692 1.23575 3.72118 0
M  V30 293 H 33.5592 0.348824 4.16141 0
M  V30 294 N 33.9963 -1.19345 1.0293 0
M  V30 295 C 35.2443 -1.88665 0.724574 0
M  V30 296 C 35.5653 -1.80036 -0.749144 0
M  V30 297 O 34.8353 -1.2111 -1.53978 0
M  V30 298 H 33.4153 -0.698406 0.265025 0
M  V30 299 H 36.0773 -1.44885 1.30362 0
M  V30 300 H 35.1733 -2.94987 1.01926 0
M  V30 301 N 35.4744 -0.807222 -1.35358 0
M  V30 302 C 36.7224 -0.387122 -1.98358 0
M  V30 303 C 37.0434 1.04942 -1.64354 0
M  V30 304 O 36.3134 1.72615 -0.926339 0
M  V30 305 H 34.8934 -0.140154 -0.733734 0
M  V30 306 H 37.5554 -1.0332 -1.6526 0
M  V30 307 H 36.6514 -0.493352 -3.08176 0
M  V30 308 N 36.9525 1.47285 -0.560781 0
M  V30 309 C 37.9155 2.28535 0.174488 0
M  V30 310 C 38.9155 1.37153 0.839388 0
M  V30 311 O 40.1055 1.59748 0.694702 0
M  V30 312 C 37.2375 3.16934 1.25561 0
M  V30 313 H 38.4305 2.95012 -0.539262 0
M  V30 314 H 35.9835 1.53034 -0.317865 0
M  V30 315 H 36.7185 2.55157 2.00164 0
M  V30 316 H 36.5035 3.8419 0.783604 0
M  V30 317 H 37.9935 3.78143 1.77193 0
M  V30 318 N 38.4306 0.297415 1.54768 0
M  V30 319 C 39.6786 -0.312295 1.99673 0
M  V30 320 C 39.9996 -1.54686 1.18732 0
M  V30 321 O 39.2696 -1.93854 0.282382 0
M  V30 322 H 37.8496 -0.118381 0.73756 0
M  V30 323 H 40.5116 0.407915 1.90583 0
M  V30 324 H 39.6076 -0.586813 3.06534 0
M  V30 325 N 39.9087 -1.5758 0.0250728 0
M  V30 326 C 40.8717 -2.08896 -0.943139 0
M  V30 327 C 41.8717 -1.00321 -1.25668 0
M  V30 328 O 43.0617 -1.26495 -1.19769 0
M  V30 329 C 40.1937 -2.55143 -2.26086 0
M  V30 330 H 41.3867 -2.95723 -0.498775 0
M  V30 331 H 38.9397 -1.54703 -0.222888 0
M  V30 332 H 39.6747 -1.71633 -2.75159 0
M  V30 333 H 39.4597 -3.34461 -2.04641 0
M  V30 334 H 40.9497 -2.95083 -2.95492 0
M  V30 335 N 41.3868 0.248026 -1.55636 0
M  V30 336 C 42.6348 0.974295 -1.77065 0
M  V30 337 C 42.9558 1.85897 -0.588849 0
M  V30 338 O 42.2258 1.91868 0.395407 0
M  V30 339 H 40.8058 0.362733 -0.653019 0
M  V30 340 H 43.4678 0.266244 -1.93073 0
M  V30 341 H 42.5638 1.59667 -2.68166 0
M  V30 342 N 42.8649 1.48995 0.513639 0
M  V30 343 C 43.8279 1.64229 1.59879 0
M  V30 344 C 44.8279 0.514696 1.5234 0
M  V30 345 O 46.0179 0.78087 1.55718 0
M  V30 346 C 43.1499 1.62783 2.99524 0
M  V30 347 H 44.3429 2.61004 1.47705 0
M  V30 348 H 41.8959 1.37837 0.736936 0
M  V30 349 H 42.6309 0.675461 3.17188 0
M  V30 350 H 42.4159 2.4466 3.06404 0
M  V30 351 H 43.9059 1.76669 3.78388 0
M  V30 352 N 44.343 -0.763751 1.37857 0
M  V30 353 C 45.591 -1.51957 1.33243 0
M  V30 354 C 45.912 -1.94835 -0.0801709 0
M  V30 355 O 45.182 -1.66894 -1.02582 0
M  V30 356 H 43.762 -0.563626 0.49024 0
M  V30 357 H 46.424 -0.908504 1.7243 0
M  V30 358 H 45.52 -2.41523 1.97669 0
M  V30 359 N 45.8211 -1.22559 -0.990812 0
M  V30 360 C 47.0611 -1.06302 -1.74583 0
M  V30 361 C 47.4251 0.394737 -1.87898 0
M  V30 362 O 48.6261 0.678214 -2.60103 0
M  V30 363 C 46.8971 -1.75699 -3.11231 0
M  V30 364 S 48.4561 -1.74882 -4.02445 0
M  V30 365 H 45.2741 -0.380639 -0.600529 0
M  V30 366 H 47.8761 -1.55532 -1.18449 0
M  V30 367 H 46.5801 -2.80923 -2.99183 0
M  V30 368 H 46.1111 -1.26708 -3.72436 0
M  V30 369 H 48.1261 -0.799997 -4.89709 0
M  V30 370 N 47.2992 1.18797 -1.03562 0
M  V30 371 C 48.5472 1.88278 -0.734569 0
M  V30 372 C 48.8682 1.8043 0.739586 0
M  V30 373 O 48.1382 1.21925 1.53333 0
M  V30 374 H 46.7182 0.696991 -0.268725 0
M  V30 375 H 49.3802 1.44192 -1.31129 0
M  V30 376 H 48.4762 2.94443 -1.03489 0
M  V30 377 N 48.7773 0.814389 1.34928 0
M  V30 378 C 50.0023 0.410097 2.03305 0
M  V30 379 C 50.4273 -0.973464 1.60951 0
M  V30 380 O 49.7853 -1.63185 0.789964 0
M  V30 381 C 49.8333 0.51049 3.56968 0
M  V30 382 O 48.9373 -0.473035 4.09678 0
M  V30 383 H 48.2783 0.170088 0.641846 0
M  V30 384 H 50.8083 1.10244 1.72358 0
M  V30 385 H 50.8183 0.383135 4.06197 0
M  V30 386 H 49.4933 1.51963 3.87144 0
M  V30 387 H 48.0703 -0.305272 3.71648 0
M  V30 388 N 50.2554 -1.46986 0.568584 0
M  V30 389 C 51.5034 -2.02041 0.0487022 0
M  V30 390 C 51.8244 -1.44408 -1.31039 0
M  V30 391 O 51.0944 -0.623477 -1.85714 0
M  V30 392 H 49.6744 -0.746849 0.015014 0
M  V30 393 H 52.3364 -1.80257 0.741168 0
M  V30 394 H 51.4324 -3.12085 -0.0308961 0
M  V30 395 N 51.7335 -0.305618 -1.54608 0
M  V30 396 C 52.9815 0.301701 -1.99835 0
M  V30 397 C 53.3025 1.54054 -1.19551 0
M  V30 398 O 52.5725 1.93702 -0.292658 0
M  V30 399 H 51.1525 0.114468 -0.738178 0
M  V30 400 H 53.8145 -0.418016 -1.90364 0
M  V30 401 H 52.9105 0.570548 -3.06841 0
M  V30 402 N 53.2116 1.57565 -0.0334293 0
M  V30 403 C 54.4366 1.96689 0.657895 0
M  V30 404 C 54.8616 0.910057 1.64619 0
M  V30 405 O 54.2196 -0.128598 1.80843 0
M  V30 406 C 54.2676 3.34905 1.33683 0
M  V30 407 O 53.3716 3.31574 2.45219 0
M  V30 408 H 52.7126 0.641205 0.172489 0
M  V30 409 H 55.2426 2.04372 -0.0965621 0
M  V30 410 H 55.2526 3.71234 1.69262 0
M  V30 411 H 53.9276 4.11366 0.612411 0
M  V30 412 H 52.5046 3.06968 2.11719 0
M  V30 413 N 54.6897 -0.239769 1.55765 0
M  V30 414 C 55.9147 -0.988373 1.82335 0
M  V30 415 C 56.3397 -1.77886 0.611421 0
M  V30 416 O 55.6977 -1.75889 -0.439639 0
M  V30 417 C 55.7457 -1.89627 3.06715 0
M  V30 418 O 54.8497 -2.98904 2.84131 0
M  V30 419 H 54.1907 -0.280858 0.601677 0
M  V30 420 H 56.7207 -0.258597 2.02959 0
M  V30 421 H 56.7307 -2.30957 3.36338 0
M  V30 422 H 55.4057 -1.31511 3.9456 0
M  V30 423 H 53.9827 -2.61651 2.65694 0
M  V30 424 N 56.1678 -1.49265 -0.50573 0
M  V30 425 C 57.4138 -1.58748 -1.26202 0
M  V30 426 C 57.7468 -0.271227 -1.92297 0
M  V30 427 O 57.0218 0.724831 -1.80489 0
M  V30 428 C 57.3048 -2.74332 -2.33268 0
M  V30 429 C 57.1578 -4.15737 -1.71705 0
M  V30 430 C 58.4768 -2.85576 -3.34865 0
M  V30 431 H 55.5958 -0.577826 -0.457478 0
M  V30 432 H 58.2378 -1.81532 -0.560897 0
M  V30 433 H 56.3878 -2.55036 -2.93068 0
M  V30 434 H 58.0598 -4.46537 -1.15769 0
M  V30 435 H 56.3028 -4.21605 -1.02135 0
M  V30 436 H 56.9738 -4.92477 -2.49341 0
M  V30 437 H 59.4498 -3.03127 -2.8505 0
M  V30 438 H 58.3258 -3.68135 -4.07146 0
M  V30 439 H 58.5868 -1.94732 -3.96903 0
M  V30 440 N 57.6459 0.756429 -1.3826 0
M  V30 441 C 58.8939 1.51248 -1.34047 0
M  V30 442 C 59.2149 1.94875 0.0698372 0
M  V30 443 O 58.4849 1.67436 1.01696 0
M  V30 444 H 57.0649 0.561018 -0.493222 0
M  V30 445 H 59.7269 0.899347 -1.7291 0
M  V30 446 H 58.8229 2.40472 -1.98947 0
M  V30 447 N 59.124 1.23083 0.984299 0
M  V30 448 C 60.37 1.06214 1.72761 0
M  V30 449 C 60.703 -0.400584 1.90024 0
M  V30 450 O 59.978 -1.29672 1.44967 0
M  V30 451 C 60.261 1.78375 3.12817 0
M  V30 452 C 60.114 3.32296 3.03149 0
M  V30 453 C 61.433 1.54309 4.12161 0
M  V30 454 H 58.552 0.387251 0.627061 0
M  V30 455 H 61.194 1.51536 1.14616 0
M  V30 456 H 59.344 1.39848 3.62457 0
M  V30 457 H 61.016 3.8032 2.61064 0
M  V30 458 H 59.259 3.6153 2.39747 0
M  V30 459 H 59.93 3.77972 4.02295 0
M  V30 460 H 62.406 1.87791 3.71314 0
M  V30 461 H 61.282 2.07281 5.08258 0
M  V30 462 H 61.543 0.477572 4.39513 0
M  V30 463 N 60.6021 -1.18246 1.0419 0
M  V30 464 C 62.0181 -1.40269 0.761366 0
M  V30 465 C 62.2181 -1.90777 -0.648578 0
M  V30 466 O 61.2741 -2.0929 -1.41258 0
M  V30 467 C 62.5871 -2.40237 1.8085 0
M  V30 468 C 64.1351 -2.53961 1.82955 0
M  V30 469 C 64.6101 -3.57194 2.86664 0
M  V30 470 N 66.1011 -3.64702 2.85563 0
M  V30 471 C 66.8361 -4.44309 3.6246 0
M  V30 472 N 66.3321 -5.27514 4.49111 0
M  V30 473 N 68.1251 -4.39084 3.50944 0
M  V30 474 H 60.2761 -0.837882 1.95175 0
M  V30 475 H 62.5391 -0.430608 0.84456 0
M  V30 476 H 62.2451 -2.10176 2.81991 0
M  V30 477 H 62.1191 -3.39601 1.64168 0
M  V30 478 H 64.5061 -2.83338 0.824855 0
M  V30 479 H 64.5871 -1.54706 2.03715 0
M  V30 480 H 64.2311 -3.28558 3.87314 0
M  V30 481 H 64.1611 -4.5613 2.6316 0
M  V30 482 H 66.6521 -3.05289 2.22727 0
M  V30 483 H 66.9651 -5.85411 5.04493 0
M  V30 484 H 65.3101 -5.2693 4.53178 0
M  V30 485 H 68.5011 -3.7313 2.82651 0
M  V30 486 H 68.6741 -5.00883 4.11121 0
M  V30 487 N 62.0802 -0.821533 -1.34494 0
M  V30 488 C 63.3262 -0.409552 -1.98622 0
M  V30 489 C 63.6592 1.0244 -1.64984 0
M  V30 490 O 62.9342 1.71325 -0.920758 0
M  V30 491 C 63.2172 -0.610458 -3.54888 0
M  V30 492 C 63.0702 -2.09043 -3.98273 0
M  V30 493 C 64.3892 -0.0455379 -4.40076 0
M  V30 494 H 61.5082 -0.15028 -0.721516 0
M  V30 495 H 64.1502 -1.03384 -1.59411 0
M  V30 496 H 62.3002 -0.079044 -3.8842 0
M  V30 497 H 63.9722 -2.68537 -3.75081 0
M  V30 498 H 62.2152 -2.58139 -3.48635 0
M  V30 499 H 62.8862 -2.18182 -5.07051 0
M  V30 500 H 65.3622 -0.499557 -4.1309 0
M  V30 501 H 64.2382 -0.215922 -5.48475 0
M  V30 502 H 64.4992 1.04939 -4.29465 0
M  V30 503 N 63.5583 1.46682 -0.576371 0
M  V30 504 C 64.8053 2.02412 -0.0595339 0
M  V30 505 C 65.1333 1.44859 1.29793 0
M  V30 506 O 64.3883 0.601099 1.8624 0
M  V30 507 C 64.6873 3.57345 0.062886 0
M  V30 508 C 64.3533 4.33908 -1.22616 0
M  V30 509 C 63.0153 4.54544 -1.57933 0
M  V30 510 C 65.3673 4.77919 -2.07948 0
M  V30 511 C 62.6953 5.16444 -2.78393 0
M  V30 512 C 65.0473 5.41149 -3.27629 0
M  V30 513 C 63.7113 5.60014 -3.63236 0
M  V30 514 H 62.9813 0.74068 -0.021785 0
M  V30 515 H 65.6283 1.76128 -0.751735 0
M  V30 516 H 63.9333 3.82729 0.838178 0
M  V30 517 H 65.6303 3.98136 0.478439 0
M  V30 518 H 62.2203 4.18138 -0.941202 0
M  V30 519 H 66.4043 4.61738 -1.81967 0
M  V30 520 H 61.6603 5.29242 -3.06126 0
M  V30 521 H 65.8343 5.74211 -3.94023 0
M  V30 522 H 63.4613 6.07748 -4.56669 0
M  V30 523 N 65.0364 0.313813 1.54444 0
M  V30 524 C 65.9994 -0.54379 2.22656 0
M  V30 525 C 66.9994 -1.05124 1.21678 0
M  V30 526 O 68.1894 -0.945225 1.46325 0
M  V30 527 C 65.3214 -1.75427 2.92298 0
M  V30 528 H 66.5144 0.0523599 2.99854 0
M  V30 529 H 64.0674 0.0647834 1.56166 0
M  V30 530 H 64.8024 -2.38991 2.19211 0
M  V30 531 H 64.5874 -1.39791 3.66334 0
M  V30 532 H 66.0774 -2.36325 3.44297 0
M  V30 533 N 66.5145 -1.57545 0.0417849 0
M  V30 534 C 67.7605 -1.92601 -0.635021 0
M  V30 535 C 68.0935 -0.919627 -1.71045 0
M  V30 536 O 67.3685 0.0557892 -1.9442 0
M  V30 537 C 67.6515 -3.38085 -1.23979 0
M  V30 538 C 67.5045 -4.49467 -0.173057 0
M  V30 539 C 68.8235 -3.83776 -2.15416 0
M  V30 540 H 65.9425 -0.700397 -0.229374 0
M  V30 541 H 68.5845 -1.89728 0.101633 0
M  V30 542 H 66.7345 -3.40664 -1.86762 0
M  V30 543 H 68.4065 -4.59018 0.458312 0
M  V30 544 H 66.6495 -4.30909 0.499996 0
M  V30 545 H 67.3205 -5.48323 -0.636054 0
M  V30 546 H 69.7965 -3.83013 -1.62605 0
M  V30 547 H 68.6725 -4.8624 -2.54679 0
M  V30 548 H 68.9335 -3.19998 -3.05047 0
M  V30 549 N 67.9926 0.231505 -1.5589 0
M  V30 550 C 69.2406 0.955461 -1.78088 0
M  V30 551 C 69.5616 1.85262 -0.608533 0
M  V30 552 O 68.8316 1.92277 0.375035 0
M  V30 553 H 67.4116 0.355787 -0.656829 0
M  V30 554 H 70.0736 0.245751 -1.93344 0
M  V30 555 H 69.1696 1.56814 -2.69844 0
M  V30 556 N 69.4707 1.49531 0.497807 0
M  V30 557 C 70.8867 1.36365 0.829266 0
M  V30 558 C 71.0867 0.399184 1.97506 0
M  V30 559 O 70.1427 -0.167977 2.51941 0
M  V30 560 C 71.4557 2.77153 1.16647 0
M  V30 561 C 73.0037 2.85877 1.27449 0
M  V30 562 C 73.4787 4.2744 1.64497 0
M  V30 563 N 74.9697 4.30265 1.7154 0
M  V30 564 C 75.7047 5.3677 2.01656 0
M  V30 565 N 75.2007 6.53516 2.29976 0
M  V30 566 N 76.9937 5.24189 2.02934 0
M  V30 567 H 69.1447 2.10831 -0.257703 0
M  V30 568 H 71.4077 0.946534 -0.0527091 0
M  V30 569 H 71.1137 3.49442 0.397872 0
M  V30 570 H 70.9877 3.12722 2.10915 0
M  V30 571 H 73.3747 2.13824 2.0338 0
M  V30 572 H 73.4557 2.53887 0.312244 0
M  V30 573 H 73.0997 5.00021 0.891151 0
M  V30 574 H 73.0297 4.56896 2.61827 0
M  V30 575 H 75.5207 3.4607 1.51802 0
M  V30 576 H 75.8337 7.30506 2.52153 0
M  V30 577 H 74.1787 6.56737 2.27425 0
M  V30 578 H 77.3697 4.31988 1.80289 0
M  V30 579 H 77.5427 6.07286 2.26071 0
M  V30 580 N 70.9488 -0.749086 1.3866 0
M  V30 581 C 71.8988 -1.85368 1.32751 0
M  V30 582 C 72.8828 -1.59511 0.210945 0
M  V30 583 O 74.0748 -1.71255 0.447299 0
M  V30 584 C 71.2038 -3.23131 1.15935 0
M  V30 585 C 70.2898 -3.54864 2.32233 0
M  V30 586 N 70.6808 -3.57625 3.57684 0
M  V30 587 C 68.9788 -3.85154 2.24883 0
M  V30 588 C 69.6798 -3.86753 4.34508 0
M  V30 589 N 68.6558 -4.03812 3.63918 0
M  V30 590 H 72.4578 -1.85787 2.27729 0
M  V30 591 H 69.9718 -0.946658 1.31955 0
M  V30 592 H 71.9688 -4.02185 1.09786 0
M  V30 593 H 70.6288 -3.23961 0.218947 0
M  V30 594 H 71.6398 -3.39276 3.91295 0
M  V30 595 H 68.3168 -3.93672 1.39027 0
M  V30 596 H 69.7068 -3.95474 5.43185 0
M  V30 597 N 72.4269 -1.23603 -0.977757 0
M  V30 598 C 73.3589 -0.977369 -2.07317 0
M  V30 599 C 74.3719 0.0495845 -1.62724 0
M  V30 600 O 75.5609 -0.186261 -1.77526 0
M  V30 601 C 72.6609 -0.451216 -3.35883 0
M  V30 602 C 71.8339 -1.53896 -4.09432 0
M  V30 603 C 70.8929 -1.01721 -5.16274 0
M  V30 604 O 69.9189 -1.70676 -5.43009 0
M  V30 605 N 71.1209 0.153594 -5.80297 0
M  V30 606 H 73.8859 -1.92047 -2.30082 0
M  V30 607 H 71.4469 -1.14497 -1.14465 0
M  V30 608 H 73.4389 -0.0871574 -4.04606 0
M  V30 609 H 72.0089 0.397368 -3.10064 0
M  V30 610 H 71.2289 -2.07566 -3.35127 0
M  V30 611 H 72.5169 -2.27037 -4.55337 0
M  V30 612 H 71.9149 0.730323 -5.60966 0
M  V30 613 H 70.4719 0.458892 -6.50183 0
M  V30 614 N 73.905 1.17692 -1.04816 0
M  V30 615 C 75.151 1.88137 -0.75711 0
M  V30 616 C 75.484 1.80604 0.713841 0
M  V30 617 O 74.759 1.21146 1.52164 0
M  V30 618 C 75.042 3.38318 -1.2334 0
M  V30 619 C 74.895 3.54622 -2.76701 0
M  V30 620 C 76.214 4.32214 -0.829415 0
M  V30 621 H 73.333 0.683163 -0.27651 0
M  V30 622 H 75.975 1.38424 -1.30149 0
M  V30 623 H 74.125 3.80787 -0.770286 0
M  V30 624 H 75.797 3.21194 -3.31107 0
M  V30 625 H 74.04 2.97026 -3.16161 0
M  V30 626 H 74.711 4.60028 -3.05088 0
M  V30 627 H 77.187 3.97565 -1.22805 0
M  V30 628 H 76.063 5.35838 -1.19033 0
M  V30 629 H 76.324 4.41294 0.266891 0
M  V30 630 N 75.3831 0.828654 1.34056 0
M  V30 631 C 76.6111 0.43262 2.02326 0
M  V30 632 C 77.0261 -0.963147 1.62385 0
M  V30 633 O 76.3831 -1.62425 0.832121 0
M  V30 634 C 76.4341 0.53182 3.57567 0
M  V30 635 O 76.1551 1.87258 3.96063 0
M  V30 636 C 77.6561 0.131422 4.43105 0
M  V30 637 H 74.8761 0.172923 0.648335 0
M  V30 638 H 77.4201 1.1184 1.71208 0
M  V30 639 H 75.5751 -0.105938 3.87255 0
M  V30 640 H 75.9891 1.85087 4.90758 0
M  V30 641 H 77.4631 0.251904 5.51425 0
M  V30 642 H 77.9401 -0.925645 4.29335 0
M  V30 643 H 78.5461 0.743207 4.18756 0
M  V30 644 N 76.8612 -1.46375 0.584142 0
M  V30 645 C 77.7912 -2.33103 -0.136037 0
M  V30 646 C 78.7722 -1.45431 -0.882255 0
M  V30 647 O 79.9572 -1.74246 -0.857434 0
M  V30 648 C 77.0872 -3.27731 -1.14933 0
M  V30 649 C 76.0412 -4.24855 -0.517862 0
M  V30 650 C 75.3672 -5.09001 -1.63773 0
M  V30 651 C 76.6672 -5.19439 0.545886 0
M  V30 652 H 78.3612 -2.93568 0.588086 0
M  V30 653 H 75.9072 -1.41166 0.284259 0
M  V30 654 H 77.8602 -3.87261 -1.66153 0
M  V30 655 H 76.5842 -2.65377 -1.90375 0
M  V30 656 H 75.2432 -3.6659 -0.0267361 0
M  V30 657 H 74.8912 -4.43031 -2.38185 0
M  V30 658 H 74.5912 -5.74777 -1.22085 0
M  V30 659 H 76.1152 -5.71396 -2.15266 0
M  V30 660 H 77.5292 -5.73177 0.118704 0
M  V30 661 H 75.9262 -5.93566 0.88317 0
M  V30 662 H 76.9962 -4.63285 1.43162 0
M  V30 663 N 78.3393 -0.321999 -1.54275 0
M  V30 664 C 79.2493 0.553631 -2.27974 0
M  V30 665 C 80.2653 1.13054 -1.32268 0
M  V30 666 O 81.4413 1.15084 -1.6528 0
M  V30 667 C 78.5063 1.69927 -3.02201 0
M  V30 668 C 77.5673 1.15433 -4.1349 0
M  V30 669 C 76.8003 2.24537 -4.84168 0
M  V30 670 O 77.0233 3.44852 -4.5435 0
M  V30 671 O 75.9573 1.90044 -5.7111 0
M  V30 672 H 79.7833 -0.0448345 -3.03667 0
M  V30 673 H 77.3683 -0.0877418 -1.49142 0
M  V30 674 H 79.2503 2.3663 -3.48689 0
M  V30 675 H 77.9253 2.28395 -2.29385 0
M  V30 676 H 76.8323 0.452436 -3.71354 0
M  V30 677 H 78.1653 0.614805 -4.88345 0
M  V30 678 N 79.8174 1.5752 -0.0501392 0
M  V30 679 C 80.7274 2.14952 0.939827 0
M  V30 680 C 81.7434 1.10706 1.34239 0
M  V30 681 O 82.9194 1.42869 1.41952 0
M  V30 682 C 79.9844 2.68232 2.19665 0
M  V30 683 C 79.0454 3.87272 1.85253 0
M  V30 684 C 78.2784 4.38002 3.04943 0
M  V30 685 O 78.5014 3.87811 4.18281 0
M  V30 686 O 77.4354 5.29602 2.86017 0
M  V30 687 H 81.2614 2.9986 0.481392 0
M  V30 688 H 78.8464 1.4841 0.171699 0
M  V30 689 H 80.7284 3.02475 2.93406 0
M  V30 690 H 79.4034 1.86395 2.64648 0
M  V30 691 H 78.3104 3.5792 1.0883 0
M  V30 692 H 79.6434 4.70336 1.4507 0
M  V30 693 N 81.2955 -0.223234 1.56011 0
M  V30 694 C 82.5205 -0.968978 1.83373 0
M  V30 695 C 82.9455 -1.77227 0.630254 0
M  V30 696 O 82.3035 -1.76345 -0.420959 0
M  V30 697 C 82.3515 -1.86363 3.08709 0
M  V30 698 O 81.4555 -2.95873 2.87285 0
M  V30 699 H 80.7965 -0.274461 0.604622 0
M  V30 700 H 83.3265 -0.237056 2.03222 0
M  V30 701 H 83.3365 -2.27376 3.38768 0
M  V30 702 H 82.0115 -1.27319 3.95933 0
M  V30 703 H 80.5885 -2.58818 2.68454 0
M  V30 704 N 82.7736 -1.49793 -0.48987 0
M  V30 705 C 83.7036 -1.70201 -1.59856 0
M  V30 706 C 84.6846 -0.55076 -1.60937 0
M  V30 707 O 85.8696 -0.787841 -1.77501 0
M  V30 708 C 82.9996 -1.77882 -2.98287 0
M  V30 709 C 81.9536 -2.92907 -3.12073 0
M  V30 710 C 81.2796 -2.85712 -4.51965 0
M  V30 711 C 82.5796 -4.3369 -2.91051 0
M  V30 712 H 84.2736 -2.63025 -1.43032 0
M  V30 713 H 81.8196 -1.26574 -0.686664 0
M  V30 714 H 83.7726 -1.90744 -3.75759 0
M  V30 715 H 82.4966 -0.816653 -3.16225 0
M  V30 716 H 81.1556 -2.79665 -2.37029 0
M  V30 717 H 80.8036 -1.8738 -4.66795 0
M  V30 718 H 80.5036 -3.62921 -4.62128 0
M  V30 719 H 82.0276 -3.00598 -5.31482 0
M  V30 720 H 83.4416 -4.47555 -3.58284 0
M  V30 721 H 81.8386 -5.12205 -3.12675 0
M  V30 722 H 82.9086 -4.47362 -1.87071 0
M  V30 723 N 84.2517 0.741722 -1.39055 0
M  V30 724 C 85.2147 1.83733 -1.37021 0
M  V30 725 C 86.2147 1.58542 -0.268534 0
M  V30 726 O 87.4047 1.66067 -0.526076 0
M  V30 727 C 84.5367 3.2141 -1.13617 0
M  V30 728 H 85.7297 1.86941 -2.34506 0
M  V30 729 H 83.2827 0.944676 -1.24521 0
M  V30 730 H 84.0177 3.23865 -0.167863 0
M  V30 731 H 83.8027 3.4109 -1.93391 0
M  V30 732 H 85.2927 4.01477 -1.14918 0
M  V30 733 N 85.7298 1.2412 0.971189 0
M  V30 734 C 86.6398 1.04747 2.09917 0
M  V30 735 C 87.6558 -0.0107162 1.73997 0
M  V30 736 O 88.8318 0.186714 2.00533 0
M  V30 737 C 85.8968 0.650828 3.40537 0
M  V30 738 C 84.9578 1.7851 3.90426 0
M  V30 739 C 84.1908 1.40729 5.14812 0
M  V30 740 O 84.4138 0.29557 5.69634 0
M  V30 741 O 83.3478 2.23168 5.58999 0
M  V30 742 H 87.1738 1.99304 2.29154 0
M  V30 743 H 84.7588 1.02908 1.08307 0
M  V30 744 H 86.6408 0.440992 4.19086 0
M  V30 745 H 85.3158 -0.265649 3.22608 0
M  V30 746 H 84.2228 2.04966 3.12953 0
M  V30 747 H 85.5558 2.68023 4.12825 0
M  V30 748 N 87.2079 -1.17134 1.05439 0
M  V30 749 C 88.4559 -1.87085 0.764429 0
M  V30 750 C 88.7769 -1.81584 -0.710787 0
M  V30 751 O 88.0469 -1.24349 -1.51374 0
M  V30 752 H 86.6269 -0.692627 0.279779 0
M  V30 753 H 89.2889 -1.42087 1.33406 0
M  V30 754 H 88.3849 -2.92759 1.0816 0
M  V30 755 N 88.686 -0.835752 -1.33615 0
M  V30 756 C 89.934 -0.429109 -1.97492 0
M  V30 757 C 90.255 1.01433 -1.66543 0
M  V30 758 O 89.525 1.70611 -0.962744 0
M  V30 759 H 88.105 -0.155686 -0.730596 0
M  V30 760 H 90.767 -1.06802 -1.63031 0
M  V30 761 H 89.863 -0.55861 -3.0706 0
M  V30 762 N 90.1641 1.46063 -0.591896 0
M  V30 763 C 91.4111 2.02338 -0.0809991 0
M  V30 764 C 91.7391 1.46228 1.28249 0
M  V30 765 O 90.9941 0.620818 1.85592 0
M  V30 766 C 91.2931 3.57391 0.0249813 0
M  V30 767 C 90.9591 4.32583 -1.27211 0
M  V30 768 C 89.6211 4.52844 -1.62745 0
M  V30 769 C 91.9731 4.75687 -2.13005 0
M  V30 770 C 89.3011 5.13462 -2.83855 0
M  V30 771 C 91.6531 5.37644 -3.3335 0
M  V30 772 C 90.3171 5.5613 -3.69155 0
M  V30 773 H 89.5871 0.740407 -0.0296397 0
M  V30 774 H 92.2341 1.75321 -0.770374 0
M  V30 775 H 90.5391 3.83597 0.797537 0
M  V30 776 H 92.2361 3.98621 0.436184 0
M  V30 777 H 88.8261 4.17116 -0.985499 0
M  V30 778 H 93.0101 4.59782 -1.86855 0
M  V30 779 H 88.2661 5.25965 -3.11722 0
M  V30 780 H 92.4401 5.7 -4.00092 0
M  V30 781 H 90.0671 6.0287 -4.63089 0
M  V30 782 N 91.6422 0.330177 1.54103 0
M  V30 783 C 92.8672 -0.274893 2.0557 0
M  V30 784 C 93.2922 -1.44487 1.20437 0
M  V30 785 O 92.6502 -1.80021 0.214991 0
M  V30 786 C 92.6982 -0.68079 3.54115 0
M  V30 787 O 91.8022 -1.7824 3.71893 0
M  V30 788 H 91.1432 -0.0483849 0.662235 0
M  V30 789 H 93.6732 0.480508 1.98878 0
M  V30 790 H 93.6832 -0.961635 3.96505 0
M  V30 791 H 92.3582 0.174903 4.15532 0
M  V30 792 H 90.9352 -1.49985 3.41407 0
M  V30 793 N 93.1203 -1.57491 0.0584922 0
M  V30 794 C 94.3483 -1.97296 -0.623037 0
M  V30 795 C 94.7633 -0.936338 -1.63946 0
M  V30 796 O 94.1203 0.0785981 -1.82331 0
M  V30 797 C 94.1713 -3.37183 -1.30345 0
M  V30 798 O 93.8923 -4.36872 -0.32773 0
M  V30 799 C 95.3933 -3.91788 -2.07406 0
M  V30 800 H 92.6133 -0.649153 -0.169826 0
M  V30 801 H 95.1573 -2.04106 0.12696 0
M  V30 802 H 93.3123 -3.31502 -2.00463 0
M  V30 803 H 93.7263 -5.18141 -0.814269 0
M  V30 804 H 95.2003 -4.91926 -2.50425 0
M  V30 805 H 95.6773 -3.27609 -2.92521 0
M  V30 806 H 96.2833 -4.00829 -1.42184 0
M  V30 807 N 94.5984 0.214957 -1.56127 0
M  V30 808 C 95.8444 0.939762 -1.79712 0
M  V30 809 C 96.1774 1.83723 -0.629247 0
M  V30 810 O 95.4524 1.90925 0.371197 0
M  V30 811 C 95.7354 1.77306 -3.13424 0
M  V30 812 C 95.5884 0.90164 -4.40671 0
M  V30 813 C 96.9074 2.74956 -3.43638 0
M  V30 814 H 94.0264 0.340214 -0.653776 0
M  V30 815 H 96.6684 0.20824 -1.88855 0
M  V30 816 H 94.8184 2.39673 -3.0576 0
M  V30 817 H 96.4904 0.294206 -4.60361 0
M  V30 818 H 94.7334 0.207368 -4.33304 0
M  V30 819 H 95.4044 1.51923 -5.30682 0
M  V30 820 H 97.8804 2.22724 -3.51473 0
M  V30 821 H 96.7564 3.30358 -4.38355 0
M  V30 822 H 97.0174 3.53023 -2.66134 0
M  V30 823 N 96.0765 1.50051 0.48192 0
M  V30 824 C 97.3235 1.60498 1.23477 0
M  V30 825 C 97.6515 0.300331 1.92167 0
M  V30 826 O 96.9065 -0.713094 1.82246 0
M  V30 827 C 97.2055 2.72717 2.30998 0
M  V30 828 C 96.8715 4.13572 1.79636 0
M  V30 829 C 95.5335 4.519 1.65348 0
M  V30 830 C 97.8855 5.01649 1.41412 0
M  V30 831 C 95.2135 5.76057 1.11244 0
M  V30 832 C 97.5655 6.26343 0.887538 0
M  V30 833 C 96.2295 6.63483 0.731207 0
M  V30 834 H 95.4995 0.587303 0.451836 0
M  V30 835 H 98.1465 1.83948 0.532468 0
M  V30 836 H 96.4515 2.43312 3.07094 0
M  V30 837 H 98.1485 2.78006 2.88988 0
M  V30 838 H 94.7385 3.83329 1.91721 0
M  V30 839 H 98.9225 4.72679 1.51289 0
M  V30 840 H 94.1785 6.03516 0.978686 0
M  V30 841 H 98.3525 6.93958 0.582654 0
M  V30 842 H 95.9795 7.59568 0.309806 0
M  V30 843 N 97.5546 -0.734337 1.39446 0
M  V30 844 C 98.4846 -1.86155 1.40955 0
M  V30 845 C 99.4656 -1.67898 0.272827 0
M  V30 846 O 100.651 -1.88207 0.478743 0
M  V30 847 C 97.7806 -3.23912 1.25294 0
M  V30 848 C 96.7346 -3.56808 2.36373 0
M  V30 849 C 96.0606 -4.93508 2.058 0
M  V30 850 C 97.3606 -3.59713 3.78687 0
M  V30 851 H 99.0546 -1.8515 2.35287 0
M  V30 852 H 96.6006 -0.889367 1.13253 0
M  V30 853 H 98.5536 -4.02443 1.2497 0
M  V30 854 H 97.2776 -3.25446 0.274308 0
M  V30 855 H 95.9366 -2.80606 2.35914 0
M  V30 856 H 95.5846 -4.91623 1.06374 0
M  V30 857 H 95.2846 -5.16486 2.80208 0
M  V30 858 H 96.8086 -5.74396 2.07128 0
M  V30 859 H 98.2226 -4.2832 3.81071 0
M  V30 860 H 96.6196 -3.94209 4.52459 0
M  V30 861 H 97.6896 -2.59504 4.09617 0
M  V30 862 N 99.0327 -1.24633 -0.964593 0
M  V30 863 C 100.279 -1.08949 -1.71049 0
M  V30 864 C 100.612 0.370302 -1.90637 0
M  V30 865 O 99.8867 1.27349 -1.47011 0
M  V30 866 C 100.17 -1.83329 -3.0994 0
M  V30 867 C 100.023 -3.37077 -2.97824 0
M  V30 868 C 101.342 -1.60846 -4.09654 0
M  V30 869 H 98.4607 -0.397178 -0.620821 0
M  V30 870 H 101.103 -1.5334 -1.12191 0
M  V30 871 H 99.2527 -1.45597 -3.60186 0
M  V30 872 H 100.925 -3.84425 -2.5498 0
M  V30 873 H 99.1677 -3.65298 -2.33965 0
M  V30 874 H 99.8387 -3.84324 -3.96231 0
M  V30 875 H 102.315 -1.93674 -3.68279 0
M  V30 876 H 101.191 -2.1534 -5.04896 0
M  V30 877 H 101.452 -0.547434 -4.38698 0
M  V30 878 N 100.511 1.16574 -1.06058 0
M  V30 879 C 101.927 1.3904 -0.783585 0
M  V30 880 C 102.127 1.91784 0.618145 0
M  V30 881 O 101.183 2.11511 1.37911 0
M  V30 882 C 102.496 2.37329 -1.84649 0
M  V30 883 C 104.044 2.51018 -1.86973 0
M  V30 884 C 104.519 3.52588 -2.92311 0
M  V30 885 N 106.01 3.60113 -2.91329 0
M  V30 886 C 106.745 4.38486 -3.69482 0
M  V30 887 N 106.241 5.20302 -4.57447 0
M  V30 888 N 108.034 4.33446 -3.57885 0
M  V30 889 H 100.185 0.806725 -1.96483 0
M  V30 890 H 102.448 0.417117 -0.851303 0
M  V30 891 H 102.154 2.05663 -2.85299 0
M  V30 892 H 102.028 3.36946 -1.6955 0
M  V30 893 H 104.415 2.81989 -0.869827 0
M  V30 894 H 104.496 1.51445 -2.0615 0
M  V30 895 H 104.14 3.22354 -3.92492 0
M  V30 896 H 104.07 4.51886 -2.70383 0
M  V30 897 H 106.561 3.01707 -2.27555 0
M  V30 898 H 106.874 5.77311 -5.13743 0
M  V30 899 H 105.219 5.19653 -4.61503 0
M  V30 900 H 108.41 3.68586 -2.88551 0
M  V30 901 H 108.583 4.94279 -4.19037 0
M  V30 902 N 101.989 0.842826 1.3317 0
M  V30 903 C 103.217 0.454055 2.01856 0
M  V30 904 C 103.632 -0.94587 1.63397 0
M  V30 905 O 102.989 -1.61534 0.849302 0
M  V30 906 C 103.04 0.569715 3.56982 0
M  V30 907 O 102.761 1.91448 3.94055 0
M  V30 908 C 104.262 0.178412 4.42941 0
M  V30 909 H 101.482 0.17979 0.646465 0
M  V30 910 H 104.026 1.1365 1.70012 0
M  V30 911 H 102.181 -0.0648587 3.87346 0
M  V30 912 H 102.595 1.90282 4.88767 0
M  V30 913 H 104.069 0.310376 5.51127 0
M  V30 914 H 104.546 -0.880056 4.30293 0
M  V30 915 H 105.152 0.787579 4.17944 0
M  V30 916 N 103.467 -1.45747 0.599634 0
M  V30 917 C 104.417 -2.27538 -0.145107 0
M  V30 918 C 105.401 -1.3686 -0.846055 0
M  V30 919 O 106.593 -1.6091 -0.737357 0
M  V30 920 C 103.722 -3.23569 -1.14708 0
M  V30 921 C 102.808 -4.21734 -0.447383 0
M  V30 922 N 103.199 -5.03257 0.506535 0
M  V30 923 C 101.497 -4.40536 -0.695966 0
M  V30 924 C 102.198 -5.74426 0.917068 0
M  V30 925 N 101.174 -5.42966 0.26253 0
M  V30 926 H 104.976 -2.87965 0.587672 0
M  V30 927 H 102.49 -1.56803 0.422697 0
M  V30 928 H 104.487 -3.8089 -1.69495 0
M  V30 929 H 103.147 -2.64702 -1.8805 0
M  V30 930 H 104.158 -5.10319 0.882899 0
M  V30 931 H 100.835 -3.92802 -1.41467 0
M  V30 932 H 102.225 -6.4995 1.70338 0
M  V30 933 N 104.945 -0.338344 -1.53925 0
M  V30 934 C 106.193 0.259245 -2.0043 0
M  V30 935 C 106.514 1.51484 -1.22791 0
M  V30 936 O 105.784 1.93037 -0.33368 0
M  V30 937 H 104.364 0.0987845 -0.740439 0
M  V30 938 H 107.026 -0.458302 -1.89435 0
M  V30 939 H 106.122 0.505334 -3.07982 0
M  V30 940 N 106.423 1.57458 -0.0668435 0
M  V30 941 C 107.671 1.92919 0.602214 0
M  V30 942 C 107.992 0.947215 1.70449 0
M  V30 943 O 107.262 -0.00544117 1.95899 0
M  V30 944 H 105.842 0.71217 0.22544 0
M  V30 945 H 108.504 1.94508 -0.123535 0
M  V30 946 H 107.6 2.94589 1.03073 0
M  V30 947 N 107.901 -0.206675 1.56239 0
M  V30 948 C 109.15 -0.926964 1.79138 0
M  V30 949 C 109.463 -1.84901 0.638043 0
M  V30 950 O 110.669 -2.60906 0.751033 0
M  V30 951 C 109.125 -1.6986 3.17294 0
M  V30 952 C 108.733 -0.821956 4.40395 0
M  V30 953 C 110.477 -2.40922 3.4951 0
M  V30 954 C 108.384 -1.59179 5.69575 0
M  V30 955 H 107.314 -0.349864 0.667915 0
M  V30 956 H 109.965 -0.180487 1.8261 0
M  V30 957 H 108.347 -2.48853 3.08039 0
M  V30 958 H 109.521 -0.0715019 4.60745 0
M  V30 959 H 107.836 -0.222741 4.15804 0
M  V30 960 H 110.433 -2.99047 4.43255 0
M  V30 961 H 110.776 -3.14542 2.72707 0
M  V30 962 H 111.309 -1.68905 3.60161 0
M  V30 963 H 108.048 -0.898589 6.49312 0
M  V30 964 H 107.568 -2.31648 5.53262 0
M  V30 965 H 109.247 -2.14862 6.10281 0
M  V30 966 N 109.379 -1.50304 -0.473955 0
M  V30 967 C 110.795 -1.37667 -0.807466 0
M  V30 968 C 110.995 -0.430555 -1.96846 0
M  V30 969 O 110.051 0.127874 -2.52176 0
M  V30 970 C 111.364 -2.78974 -1.12223 0
M  V30 971 C 112.912 -2.87868 -1.22885 0
M  V30 972 C 113.387 -4.30003 -1.57676 0
M  V30 973 N 114.878 -4.3294 -1.64673 0
M  V30 974 C 115.613 -5.3991 -1.93091 0
M  V30 975 N 115.109 -6.57092 -2.1955 0
M  V30 976 N 116.902 -5.27351 -1.94569 0
M  V30 977 H 109.053 -2.10394 0.291212 0
M  V30 978 H 111.316 -0.945575 0.0677609 0
M  V30 979 H 111.022 -3.50031 -0.342229 0
M  V30 980 H 110.896 -3.16038 -2.05913 0
M  V30 981 H 113.283 -2.17032 -1.99953 0
M  V30 982 H 113.364 -2.54352 -0.271814 0
M  V30 983 H 113.008 -5.01375 -0.81149 0
M  V30 984 H 112.938 -4.61004 -2.54525 0
M  V30 985 H 115.429 -3.48441 -1.46277 0
M  V30 986 H 115.742 -7.34425 -2.405 0
M  V30 987 H 114.087 -6.60272 -2.16948 0
M  V30 988 H 117.278 -4.34801 -1.73394 0
M  V30 989 H 117.451 -6.10805 -2.16381 0
M  V30 990 N 110.857 0.726932 -1.39834 0
M  V30 991 C 112.097 1.4992 -1.38936 0
M  V30 992 C 112.461 1.91996 0.0126883 0
M  V30 993 O 113.662 2.68399 0.146715 0
M  V30 994 C 111.933 2.70013 -2.34153 0
M  V30 995 S 113.492 3.59563 -2.51515 0
M  V30 996 H 110.31 0.51271 -0.492595 0
M  V30 997 H 112.912 0.85107 -1.76003 0
M  V30 998 H 111.616 2.37254 -3.34871 0
M  V30 999 H 111.147 3.39748 -1.98331 0
M  V30 1000 H 113.162 4.63973 -1.75909 0
M  V30 1001 N 112.336 1.25143 0.95797 0
M  V30 1002 C 113.299 1.05321 2.03569 0
M  V30 1003 C 114.299 0.007152 1.60798 0
M  V30 1004 O 115.489 0.24903 1.72411 0
M  V30 1005 C 112.621 0.598394 3.35607 0
M  V30 1006 H 113.814 2.00986 2.22586 0
M  V30 1007 H 111.367 1.07502 1.13459 0
M  V30 1008 H 112.102 -0.361014 3.22284 0
M  V30 1009 H 111.887 1.35351 3.67998 0
M  V30 1010 H 113.377 0.48104 4.1482 0
M  V30 1011 N 113.814 -1.1601 1.06675 0
M  V30 1012 C 114.744 -2.22688 0.702307 0
M  V30 1013 C 115.725 -1.67306 -0.307032 0
M  V30 1014 O 116.91 -1.93352 -0.181305 0
M  V30 1015 C 114.04 -3.47178 0.092038 0
M  V30 1016 C 112.994 -4.15477 1.02777 0
M  V30 1017 C 112.32 -5.33963 0.28061 0
M  V30 1018 C 113.62 -4.66019 2.35846 0
M  V30 1019 H 115.314 -2.53429 1.59419 0
M  V30 1020 H 112.86 -1.21813 0.767961 0
M  V30 1021 H 114.813 -4.21037 -0.174814 0
M  V30 1022 H 113.537 -3.15749 -0.834877 0
M  V30 1023 H 112.196 -3.43549 1.27944 0
M  V30 1024 H 111.844 -4.98788 -0.649545 0
M  V30 1025 H 111.544 -5.806 0.904258 0
M  V30 1026 H 113.068 -6.10596 0.021396 0
M  V30 1027 H 114.482 -5.3144 2.15045 0
M  V30 1028 H 112.879 -5.23293 2.93743 0
M  V30 1029 H 113.949 -3.82023 2.98641 0
M  V30 1030 N 115.292 -0.849877 -1.32721 0
M  V30 1031 C 116.239 -0.289033 -2.28983 0
M  V30 1032 C 117.209 0.601324 -1.54833 0
M  V30 1033 O 118.394 0.537253 -1.8308 0
M  V30 1034 C 115.534 0.520623 -3.4115 0
M  V30 1035 C 114.647 -0.394989 -4.3019 0
M  V30 1036 C 113.782 0.426834 -5.29482 0
M  V30 1037 C 112.821 -0.486476 -6.10164 0
M  V30 1038 N 111.958 0.297879 -7.01468 0
M  V30 1039 H 116.798 -1.11519 -2.76347 0
M  V30 1040 H 114.335 -0.56138 -1.35967 0
M  V30 1041 H 116.293 1.00563 -4.04899 0
M  V30 1042 H 114.923 1.31165 -2.9495 0
M  V30 1043 H 113.975 -0.99836 -3.67065 0
M  V30 1044 H 115.287 -1.09612 -4.86607 0
M  V30 1045 H 114.441 0.975205 -5.98811 0
M  V30 1046 H 113.18 1.16136 -4.73671 0
M  V30 1047 H 112.185 -1.04677 -5.39743 0
M  V30 1048 H 113.41 -1.21953 -6.6806 0
M  V30 1049 H 111.356 1.01558 -6.48091 0
M  V30 1050 H 111.273 -0.344318 -7.55216 0
M  V30 1051 H 112.541 0.828131 -7.75089 0
M  V30 1052 N 116.77 1.45427 -0.607355 0
M  V30 1053 C 118.186 1.57283 -0.270985 0
M  V30 1054 C 118.386 1.59875 1.22647 0
M  V30 1055 O 117.442 1.52893 2.00948 0
M  V30 1056 C 118.755 2.85566 -0.941952 0
M  V30 1057 C 120.303 2.9924 -0.917849 0
M  V30 1058 C 120.778 4.30293 -1.56882 0
M  V30 1059 N 122.269 4.37051 -1.5343 0
M  V30 1060 C 123.004 5.37123 -2.00715 0
M  V30 1061 N 122.5 6.43734 -2.56084 0
M  V30 1062 N 124.293 5.28479 -1.91484 0
M  V30 1063 H 116.444 1.41988 -1.57966 0
M  V30 1064 H 118.707 0.67885 -0.661715 0
M  V30 1065 H 118.413 2.8955 -1.99633 0
M  V30 1066 H 118.287 3.74322 -0.465096 0
M  V30 1067 H 120.674 2.94822 0.127984 0
M  V30 1068 H 120.755 2.11895 -1.43297 0
M  V30 1069 H 120.399 4.35469 -2.61398 0
M  V30 1070 H 120.329 5.16454 -1.02873 0
M  V30 1071 H 122.82 3.60615 -1.12982 0
M  V30 1072 H 123.133 7.16341 -2.89958 0
M  V30 1073 H 121.478 6.44485 -2.60122 0
M  V30 1074 H 124.669 4.44098 -1.47967 0
M  V30 1075 H 124.842 6.0632 -2.28648 0
M  V30 1076 N 118.248 0.346503 1.53744 0
M  V30 1077 C 119.181 -0.552023 2.21423 0
M  V30 1078 C 120.159 -1.09798 1.19929 0
M  V30 1079 O 121.343 -1.1577 1.4876 0
M  V30 1080 C 118.47 -1.75972 2.89398 0
M  V30 1081 C 117.516 -1.34295 4.04805 0
M  V30 1082 S 118.349 -0.360263 5.34287 0
M  V30 1083 C 119.505 -1.57473 6.05767 0
M  V30 1084 H 119.738 0.0228119 2.97291 0
M  V30 1085 H 117.271 0.130579 1.53847 0
M  V30 1086 H 119.229 -2.45256 3.2918 0
M  V30 1087 H 117.89 -2.30578 2.1329 0
M  V30 1088 H 117.083 -2.24349 4.51313 0
M  V30 1089 H 116.685 -0.729555 3.66815 0
M  V30 1090 H 118.977 -2.50875 6.29339 0
M  V30 1091 H 119.92 -1.15138 6.98676 0
M  V30 1092 H 120.328 -1.77212 5.35963 0
M  V30 1093 N 119.726 -1.57421 0.075193 0
M  V30 1094 C 120.956 -1.97659 -0.601203 0
M  V30 1095 C 121.364 -0.952427 -1.63479 0
M  V30 1096 O 120.707 0.0688241 -1.83571 0
M  V30 1097 C 120.769 -3.34218 -1.32434 0
M  V30 1098 C 120.433 -4.5484 -0.443826 0
M  V30 1099 C 121.43 -5.19034 0.299969 0
M  V30 1100 C 119.115 -5.00952 -0.367709 0
M  V30 1101 C 121.109 -6.27695 1.10807 0
M  V30 1102 C 118.796 -6.09484 0.444058 0
M  V30 1103 C 119.794 -6.72719 1.18061 0
M  V30 1104 O 119.482 -7.79161 1.97898 0
M  V30 1105 H 119.214 -0.65494 -0.167422 0
M  V30 1106 H 121.768 -2.04886 0.145157 0
M  V30 1107 H 119.998 -3.23615 -2.11685 0
M  V30 1108 H 121.687 -3.59038 -1.89331 0
M  V30 1109 H 122.453 -4.84351 0.250776 0
M  V30 1110 H 118.332 -4.51509 -0.930638 0
M  V30 1111 H 121.876 -6.76982 1.68347 0
M  V30 1112 H 117.773 -6.43601 0.494803 0
M  V30 1113 H 118.541 -7.96055 1.90367 0
M  V30 1114 N 121.204 0.198386 -1.56346 0
M  V30 1115 C 122.45 0.920648 -1.80698 0
M  V30 1116 C 122.783 1.83045 -0.648697 0
M  V30 1117 O 122.058 1.91308 0.350925 0
M  V30 1118 C 122.341 1.73971 -3.15287 0
M  V30 1119 C 122.194 0.85485 -4.41602 0
M  V30 1120 C 123.513 2.71296 -3.46535 0
M  V30 1121 H 120.632 0.333261 -0.657348 0
M  V30 1122 H 123.274 0.188198 -1.89066 0
M  V30 1123 H 121.424 2.36416 -3.08285 0
M  V30 1124 H 123.096 0.245362 -4.60647 0
M  V30 1125 H 121.339 0.161398 -4.335 0
M  V30 1126 H 122.01 1.46286 -5.32264 0
M  V30 1127 H 124.486 2.18983 -3.53816 0
M  V30 1128 H 123.362 3.2569 -4.41834 0
M  V30 1129 H 123.623 3.5018 -2.69864 0
M  V30 1130 N 122.682 1.50554 0.465978 0
M  V30 1131 C 123.63 1.70324 1.58406 0
M  V30 1132 C 124.624 0.569139 1.59553 0
M  V30 1133 O 125.83 0.749776 1.63641 0
M  V30 1134 H 122.205 0.537688 0.525734 0
M  V30 1135 H 124.176 2.64104 1.38894 0
M  V30 1136 C 122.925 1.81928 2.96307 0
M  V30 1137 H 122.248 2.68586 2.96144 0
M  V30 1138 H 123.688 1.99784 3.73982 0
M  V30 1139 C 122.147 0.572095 3.32007 0
M  V30 1140 O 122.677 -0.286416 4.00678 0
M  V30 1141 N 120.883 0.424606 2.87481 0
M  V30 1142 H 120.43 1.12427 2.31771 0
M  V30 1143 H 120.388 -0.408697 3.11732 0
M  V30 1144 N 124.16 -0.719506 1.40217 0
M  V30 1145 C 125.108 -1.85493 1.40339 0
M  V30 1146 C 126.102 -1.66995 0.284415 0
M  V30 1147 O 127.308 -1.74148 0.455252 0
M  V30 1148 H 123.683 -0.610857 0.438586 0
M  V30 1149 H 125.654 -1.82506 2.36081 0
M  V30 1150 C 124.403 -3.23321 1.27901 0
M  V30 1151 H 123.726 -3.38159 2.1328 0
M  V30 1152 H 125.166 -4.02914 1.32045 0
M  V30 1153 C 123.625 -3.36898 -0.0111355 0
M  V30 1154 O 124.155 -3.89674 -0.975538 0
M  V30 1155 N 122.361 -2.90492 -0.0793393 0
M  V30 1156 H 121.908 -2.47731 0.706183 0
M  V30 1157 H 121.866 -2.99955 -0.942038 0
M  V30 1158 N 125.638 -1.25649 -0.95132 0
M  V30 1159 C 126.571 -1.00644 -2.04807 0
M  V30 1160 C 127.549 0.0654271 -1.62468 0
M  V30 1161 O 128.733 -0.074911 -1.88351 0
M  V30 1162 C 125.86 -0.522052 -3.34653 0
M  V30 1163 C 124.906 -1.58495 -3.95957 0
M  V30 1164 S 125.739 -3.17108 -4.31512 0
M  V30 1165 C 126.895 -2.70412 -5.64471 0
M  V30 1166 H 127.128 -1.93508 -2.25703 0
M  V30 1167 H 124.661 -1.09216 -1.09139 0
M  V30 1168 H 126.619 -0.24923 -4.09743 0
M  V30 1169 H 125.28 0.386146 -3.11717 0
M  V30 1170 H 124.473 -1.1968 -4.89584 0
M  V30 1171 H 124.075 -1.80862 -3.2736 0
M  V30 1172 H 126.367 -2.14245 -6.42733 0
M  V30 1173 H 127.31 -3.62693 -6.08161 0
M  V30 1174 H 127.718 -2.10302 -5.23864 0
M  V30 1175 N 127.117 1.15442 -1.07289 0
M  V30 1176 C 128.528 1.67803 -0.818475 0
M  V30 1177 C 128.879 1.8489 0.656507 0
M  V30 1178 O 128.004 1.55176 1.50829 0
M  V30 1179 C 128.599 3.04805 -1.47917 0
M  V30 1180 C 127.158 3.54245 -1.27229 0
M  V30 1181 C 126.305 2.29986 -1.54925 0
M  V30 1182 H 129.256 0.996646 -1.23502 0
M  V30 1183 H 129.277 3.69702 -0.90005 0
M  V30 1184 H 128.789 2.92336 -2.55267 0
M  V30 1185 H 126.89 3.71956 -0.21899 0
M  V30 1186 H 127.003 4.35723 -1.99203 0
M  V30 1187 H 125.367 2.35496 -0.970242 0
M  V30 1188 H 126.15 2.20105 -2.63455 0
M  V30 1189 N 128.595 0.856903 1.32268 0
M  V30 1190 C 129.872 0.382583 1.91822 0
M  V30 1191 C 130.252 -1.13407 1.78051 0
M  V30 1192 O 129.6 -1.95673 1.18001 0
M  V30 1193 C 129.81 0.849446 3.38505 0
M  V30 1194 C 131.158 0.867936 4.15634 0
M  V30 1195 O 132.182 0.794232 3.47232 0
M  V30 1196 O 131.041 0.972286 5.37781 0
M  V30 1197 H 128.135 0.112014 0.819379 0
M  V30 1198 H 130.681 0.943952 1.41024 0
M  V30 1199 H 129.453 1.89267 3.42482 0
M  V30 1200 H 129.076 0.265652 3.96712 0
M  V30 1201 N 130.073 -1.45103 0.615059 0
M  V30 1202 C 131.003 -2.33339 -0.0865619 0
M  V30 1203 C 131.984 -1.4727 -0.851209 0
M  V30 1204 O 133.169 -1.76026 -0.820281 0
M  V30 1205 C 130.299 -3.30095 -1.07956 0
M  V30 1206 C 129.253 -4.25858 -0.427628 0
M  V30 1207 C 128.579 -5.12361 -1.5294 0
M  V30 1208 C 129.879 -5.18165 0.655944 0
M  V30 1209 H 131.573 -2.92254 0.650224 0
M  V30 1210 H 129.119 -1.40532 0.314138 0
M  V30 1211 H 131.072 -3.90698 -1.57901 0
M  V30 1212 H 129.796 -2.69355 -1.84703 0
M  V30 1213 H 128.455 -3.66564 0.0510292 0
M  V30 1214 H 128.103 -4.47984 -2.28734 0
M  V30 1215 H 127.803 -5.77238 -1.09865 0
M  V30 1216 H 129.327 -5.75833 -2.03098 0
M  V30 1217 H 130.741 -5.72796 0.240257 0
M  V30 1218 H 129.138 -5.91559 1.00888 0
M  V30 1219 H 130.208 -4.60144 1.52957 0
M  V30 1220 N 131.551 -0.354651 -1.53558 0
M  V30 1221 C 132.499 0.512195 -2.26891 0
M  V30 1222 C 133.493 1.09263 -1.29452 0
M  V30 1223 O 134.699 1.03709 -1.47121 0
M  V30 1224 H 131.074 0.183878 -0.729173 0
M  V30 1225 H 133.045 -0.128202 -2.98124 0
M  V30 1226 C 131.794 1.64563 -3.06291 0
M  V30 1227 H 131.117 1.20829 -3.81104 0
M  V30 1228 H 132.557 2.22711 -3.60799 0
M  V30 1229 C 131.016 2.58158 -2.16462 0
M  V30 1230 O 131.546 3.60695 -1.76811 0
M  V30 1231 N 129.752 2.27096 -1.81317 0
M  V30 1232 H 129.299 1.43751 -2.1376 0
M  V30 1233 H 129.257 2.89975 -1.21498 0
M  V30 1234 N 133.029 1.57378 -0.0835403 0
M  V30 1235 C 134.275 1.94217 0.583733 0
M  V30 1236 C 134.608 0.964653 1.68547 0
M  V30 1237 O 133.883 -0.00422258 1.945 0
M  V30 1238 C 134.166 3.41253 1.14972 0
M  V30 1239 C 134.019 4.49768 0.0538277 0
M  V30 1240 C 135.338 3.89352 2.05166 0
M  V30 1241 H 132.457 0.706233 0.210724 0
M  V30 1242 H 135.099 1.89392 -0.1519 0
M  V30 1243 H 133.249 3.45496 1.77665 0
M  V30 1244 H 134.921 4.57641 -0.579851 0
M  V30 1245 H 133.164 4.29432 -0.614068 0
M  V30 1246 H 133.835 5.49817 0.490452 0
M  V30 1247 H 136.311 3.87189 1.52393 0
M  V30 1248 H 135.187 4.92822 2.41698 0
M  V30 1249 H 135.448 3.27973 2.96456 0
M  V30 1250 N 134.507 -0.190092 1.56449 0
M  V30 1251 C 135.747 -0.916414 1.82705 0
M  V30 1252 C 136.111 -1.80235 0.661763 0
M  V30 1253 O 137.312 -2.56484 0.80433 0
M  V30 1254 C 135.583 -1.70691 3.14005 0
M  V30 1255 S 137.142 -2.48457 3.61683 0
M  V30 1256 H 133.96 -0.307281 0.64117 0
M  V30 1257 H 136.562 -0.179433 1.94675 0
M  V30 1258 H 135.266 -1.04677 3.96826 0
M  V30 1259 H 134.797 -2.48562 3.04927 0
M  V30 1260 H 136.812 -3.72756 3.27517 0
M  V30 1261 N 135.985 -1.50799 -0.457987 0
M  V30 1262 C 136.932 -1.70617 -1.5543 0
M  V30 1263 C 137.902 -0.547562 -1.56815 0
M  V30 1264 O 139.087 -0.779647 -1.74144 0
M  V30 1265 C 136.227 -1.81831 -2.93311 0
M  V30 1266 C 135.34 -3.09278 -3.01615 0
M  V30 1267 C 134.475 -3.11209 -4.30491 0
M  V30 1268 C 133.514 -4.33055 -4.32585 0
M  V30 1269 N 132.651 -4.32652 -5.52952 0
M  V30 1270 H 137.491 -2.64207 -1.37836 0
M  V30 1271 H 135.028 -1.30959 -0.669937 0
M  V30 1272 H 136.986 -1.86314 -3.73287 0
M  V30 1273 H 135.616 -0.916685 -3.0951 0
M  V30 1274 H 134.668 -3.14203 -2.1443 0
M  V30 1275 H 135.98 -3.99233 -2.99022 0
M  V30 1276 H 135.134 -3.14494 -5.18824 0
M  V30 1277 H 133.873 -2.19106 -4.35711 0
M  V30 1278 H 132.878 -4.29969 -3.42647 0
M  V30 1279 H 134.103 -5.264 -4.29046 0
M  V30 1280 H 132.049 -3.43409 -5.58933 0
M  V30 1281 H 131.966 -5.16392 -5.52155 0
M  V30 1282 H 133.234 -4.40101 -6.43375 0
M  V30 1283 N 137.463 0.71206 -1.40597 0
M  V30 1284 C 138.879 1.02058 -1.22704 0
M  V30 1285 C 139.079 2.01228 -0.104729 0
M  V30 1286 O 138.135 2.4674 0.53624 0
M  V30 1287 C 139.448 1.56094 -2.57012 0
M  V30 1288 C 140.996 1.6806 -2.64054 0
M  V30 1289 C 141.471 2.25501 -3.9864 0
M  V30 1290 N 142.962 2.32882 -4.004 0
M  V30 1291 C 143.697 2.78317 -5.01325 0
M  V30 1292 N 143.193 3.23478 -6.12645 0
M  V30 1293 N 144.986 2.77733 -4.88693 0
M  V30 1294 H 137.137 0.0547896 -2.12329 0
M  V30 1295 H 139.4 0.0869027 -0.944008 0
M  V30 1296 H 139.106 0.906865 -3.39807 0
M  V30 1297 H 138.98 2.54564 -2.78347 0
M  V30 1298 H 141.367 2.32583 -1.81629 0
M  V30 1299 H 141.448 0.681802 -2.46546 0
M  V30 1300 H 141.092 1.61598 -4.81506 0
M  V30 1301 H 141.022 3.26102 -4.13479 0
M  V30 1302 H 143.513 2.00991 -3.20017 0
M  V30 1303 H 143.826 3.56725 -6.85542 0
M  V30 1304 H 142.171 3.21429 -6.16205 0
M  V30 1305 H 145.362 2.4179 -4.00818 0
M  V30 1306 H 145.535 3.12826 -5.67489 0
M  V30 1307 N 138.941 1.26152 0.944643 0
M  V30 1308 C 139.851 1.09176 2.07648 0
M  V30 1309 C 140.867 0.0261935 1.7398 0
M  V30 1310 O 142.043 0.229208 2.00091 0
M  V30 1311 C 139.108 0.722915 3.39079 0
M  V30 1312 C 138.169 1.86752 3.86552 0
M  V30 1313 C 137.402 1.51617 5.11711 0
M  V30 1314 O 137.625 0.416331 5.68879 0
M  V30 1315 O 136.559 2.34975 5.54139 0
M  V30 1316 H 140.385 2.0412 2.24875 0
M  V30 1317 H 137.97 1.05182 1.061 0
M  V30 1318 H 139.852 0.529787 4.18056 0
M  V30 1319 H 138.527 -0.197159 3.23099 0
M  V30 1320 H 137.434 2.11558 3.08535 0
M  V30 1321 H 138.767 2.76719 4.07047 0
M  V30 1322 N 140.419 -1.14872 1.07899 0
M  V30 1323 C 141.668 -1.85135 0.800499 0
M  V30 1324 C 141.981 -1.83547 -0.676014 0
M  V30 1325 O 143.187 -2.49548 -1.06948 0
M  V30 1326 C 141.643 -3.3231 1.38197 0
M  V30 1327 C 141.251 -3.42329 2.8899 0
M  V30 1328 C 142.995 -4.0772 1.18174 0
M  V30 1329 C 140.902 -4.83684 3.403 0
M  V30 1330 H 139.832 -0.693563 0.29578 0
M  V30 1331 H 142.483 -1.29532 1.29976 0
M  V30 1332 H 140.865 -3.87618 0.810431 0
M  V30 1333 H 142.039 -2.97097 3.52236 0
M  V30 1334 H 140.354 -2.80369 3.07867 0
M  V30 1335 H 142.951 -5.12049 1.5398 0
M  V30 1336 H 143.294 -4.16124 0.12117 0
M  V30 1337 H 143.827 -3.58696 1.71994 0
M  V30 1338 H 140.566 -4.80465 4.45907 0
M  V30 1339 H 140.086 -5.29474 2.81811 0
M  V30 1340 H 141.765 -5.52558 3.36584 0
M  V30 1341 N 141.898 -0.863906 -1.31812 0
M  V30 1342 C 143.126 -0.486111 -2.01108 0
M  V30 1343 C 143.541 0.919755 -1.64882 0
M  V30 1344 O 142.898 1.60162 -0.874893 0
M  V30 1345 C 142.949 -0.626435 -3.56031 0
M  V30 1346 O 142.67 -1.97693 -3.90959 0
M  V30 1347 C 144.171 -0.248857 -4.42601 0
M  V30 1348 H 141.391 -0.190052 -0.643523 0
M  V30 1349 H 143.935 -1.1634 -1.68182 0
M  V30 1350 H 142.09 0.00322717 -3.874 0
M  V30 1351 H 142.504 -1.98034 -4.85678 0
M  V30 1352 H 143.978 -0.398016 -5.50563 0
M  V30 1353 H 144.455 0.811489 -4.31638 0
M  V30 1354 H 145.061 -0.853971 -4.16638 0
M  V30 1355 N 143.376 1.44774 -0.622745 0
M  V30 1356 C 144.625 2.01334 -0.121397 0
M  V30 1357 C 144.938 1.49505 1.26125 0
M  V30 1358 O 146.144 1.98139 1.85616 0
M  V30 1359 C 144.6 3.59516 -0.166298 0
M  V30 1360 C 144.208 4.20342 -1.54974 0
M  V30 1361 C 145.952 4.23582 0.279021 0
M  V30 1362 C 143.859 5.70721 -1.55021 0
M  V30 1363 H 142.789 0.752851 -0.0416172 0
M  V30 1364 H 145.44 1.66083 -0.780309 0
M  V30 1365 H 143.822 3.92027 0.559557 0
M  V30 1366 H 144.996 3.99381 -2.29851 0
M  V30 1367 H 143.311 3.68529 -1.93843 0
M  V30 1368 H 145.908 5.33868 0.298083 0
M  V30 1369 H 146.251 3.95327 1.30471 0
M  V30 1370 H 146.784 3.95843 -0.394063 0
M  V30 1371 H 143.523 6.03698 -2.55399 0
M  V30 1372 H 143.043 5.93829 -0.844245 0
M  V30 1373 H 144.722 6.34203 -1.28047 0
M  V30 1374 N 144.854 0.36279 1.53368 0
M  V30 1375 C 145.787 -0.528507 2.21996 0
M  V30 1376 C 146.765 -1.0852 1.21087 0
M  V30 1377 O 147.949 -1.14186 1.4998 0
M  V30 1378 C 145.076 -1.72893 2.91249 0
M  V30 1379 C 144.122 -1.29994 4.06207 0
M  V30 1380 S 144.955 -0.303575 5.34639 0
M  V30 1381 C 146.111 -1.51039 6.07403 0
M  V30 1382 H 146.344 0.0543423 2.9725 0
M  V30 1383 H 143.877 0.146889 1.537 0
M  V30 1384 H 145.835 -2.41751 3.31763 0
M  V30 1385 H 144.496 -2.28303 2.15724 0
M  V30 1386 H 143.689 -2.19549 4.53667 0
M  V30 1387 H 143.291 -0.690608 3.67569 0
M  V30 1388 H 145.583 -2.44186 6.31965 0
M  V30 1389 H 146.526 -1.07721 6.99858 0
M  V30 1390 H 146.934 -1.71518 5.37812 0
M  V30 1391 N 146.332 -1.57332 0.0918853 0
M  V30 1392 C 147.279 -2.13847 -0.868211 0
M  V30 1393 C 148.249 -1.05618 -1.28196 0
M  V30 1394 O 149.434 -1.33387 -1.36427 0
M  V30 1395 C 146.574 -2.72062 -2.12312 0
M  V30 1396 C 145.687 -3.94514 -1.7602 0
M  V30 1397 C 144.822 -4.40903 -2.96273 0
M  V30 1398 C 143.861 -5.55953 -2.56092 0
M  V30 1399 N 142.998 -5.97209 -3.69169 0
M  V30 1400 H 147.838 -2.95575 -0.379406 0
M  V30 1401 H 145.375 -1.46048 -0.175606 0
M  V30 1402 H 147.333 -3.03931 -2.858 0
M  V30 1403 H 145.963 -1.93068 -2.58698 0
M  V30 1404 H 145.015 -3.68979 -0.925135 0
M  V30 1405 H 146.327 -4.7802 -1.42472 0
M  V30 1406 H 145.481 -4.74539 -3.78018 0
M  V30 1407 H 144.22 -3.56291 -3.33029 0
M  V30 1408 H 143.225 -5.21948 -1.72773 0
M  V30 1409 H 144.45 -6.42311 -2.20484 0
M  V30 1410 H 142.396 -5.15543 -4.05649 0
M  V30 1411 H 142.313 -6.75504 -3.39456 0
M  V30 1412 H 143.581 -6.35475 -4.51434 0
M  V30 1413 N 147.81 0.181792 -1.56548 0
M  V30 1414 C 148.72 1.24538 -1.98815 0
M  V30 1415 C 149.736 1.49045 -0.897861 0
M  V30 1416 O 150.912 1.61399 -1.20467 0
M  V30 1417 C 147.977 2.56683 -2.33055 0
M  V30 1418 C 147.038 2.40131 -3.55859 0
M  V30 1419 C 146.271 3.65975 -3.88456 0
M  V30 1420 O 146.494 4.70711 -3.22161 0
M  V30 1421 O 145.428 3.6071 -4.81842 0
M  V30 1422 H 149.254 0.916647 -2.89536 0
M  V30 1423 H 146.839 0.387842 -1.44278 0
M  V30 1424 H 148.721 3.34655 -2.56094 0
M  V30 1425 H 147.396 2.89157 -1.45498 0
M  V30 1426 H 146.303 1.60226 -3.38051 0
M  V30 1427 H 147.636 2.12585 -4.43924 0
M  V30 1428 N 149.288 1.51039 0.449983 0
M  V30 1429 C 150.218 1.74379 1.55288 0
M  V30 1430 C 151.199 0.593236 1.5942 0
M  V30 1431 O 152.384 0.834625 1.7535 0
M  V30 1432 C 149.514 1.85728 2.93466 0
M  V30 1433 C 148.468 3.01078 3.04197 0
M  V30 1434 C 147.794 2.97595 4.44231 0
M  V30 1435 C 149.094 4.41254 2.7945 0
M  V30 1436 H 150.788 2.66725 1.36008 0
M  V30 1437 H 148.334 1.2835 0.652864 0
M  V30 1438 H 150.287 2.0064 3.70569 0
M  V30 1439 H 149.011 0.900207 3.13949 0
M  V30 1440 H 147.67 2.85851 2.29531 0
M  V30 1441 H 147.318 1.99691 4.61663 0
M  V30 1442 H 147.018 3.75046 4.52343 0
M  V30 1443 H 148.542 3.14583 5.23326 0
M  V30 1444 H 149.956 4.56897 3.46292 0
M  V30 1445 H 148.353 5.20315 2.98985 0
M  V30 1446 H 149.423 4.52164 1.75144 0
M  V30 1447 N 150.766 -0.704594 1.40972 0
M  V30 1448 C 151.991 -1.49858 1.43378 0
M  V30 1449 C 152.416 -1.88061 0.038184 0
M  V30 1450 O 151.774 -1.5402 -0.956425 0
M  V30 1451 C 151.822 -2.74333 2.34038 0
M  V30 1452 O 150.926 -3.7147 1.7912 0
M  V30 1453 H 150.267 -0.45139 0.486974 0
M  V30 1454 H 152.797 -0.866832 1.8533 0
M  V30 1455 H 152.807 -3.22741 2.49604 0
M  V30 1456 H 151.482 -2.45863 3.35446 0
M  V30 1457 H 150.059 -3.30363 1.72958 0
M  V30 1458 N 152.244 -1.26651 -0.937939 0
M  V30 1459 C 153.492 -1.12165 -1.68118 0
M  V30 1460 C 153.813 0.334983 -1.92101 0
M  V30 1461 O 153.083 1.23583 -1.52 0
M  V30 1462 H 151.663 -0.412093 -0.623048 0
M  V30 1463 H 154.325 -1.59027 -1.12678 0
M  V30 1464 H 153.421 -1.64289 -2.6536 0
M  V30 1465 N 153.722 1.14298 -1.08507 0
M  V30 1466 C 154.672 2.17449 -0.685569 0
M  V30 1467 C 155.656 1.58167 0.295315 0
M  V30 1468 O 156.848 1.76675 0.107172 0
M  V30 1469 C 153.977 3.43161 -0.0975318 0
M  V30 1470 C 153.063 4.09471 -1.10426 0
M  V30 1471 N 153.454 4.51089 -2.28806 0
M  V30 1472 C 151.752 4.35976 -0.940258 0
M  V30 1473 C 152.453 5.02654 -2.9277 0
M  V30 1474 N 151.429 4.96927 -2.20374 0
M  V30 1475 H 155.231 2.47369 -1.587 0
M  V30 1476 H 152.745 1.30992 -0.959936 0
M  V30 1477 H 154.742 4.16388 0.20664 0
M  V30 1478 H 153.402 3.14719 0.798872 0
M  V30 1479 H 154.413 4.44097 -2.66455 0
M  V30 1480 H 151.09 4.17386 -0.0977441 0
M  V30 1481 H 152.48 5.44723 -3.93352 0
M  V30 1482 N 155.201 0.870884 1.31352 0
M  V30 1483 C 156.148 0.325425 2.28494 0
M  V30 1484 C 157.118 -0.576615 1.5577 0
M  V30 1485 O 158.303 -0.508059 1.83911 0
M  V30 1486 C 155.443 -0.466283 3.41935 0
M  V30 1487 C 154.556 0.463378 4.29508 0
M  V30 1488 C 153.691 -0.342544 5.30094 0
M  V30 1489 C 152.73 0.583486 6.09313 0
M  V30 1490 N 151.867 -0.186244 7.01853 0
M  V30 1491 H 156.707 1.15901 2.74538 0
M  V30 1492 H 154.244 0.58294 1.35056 0
M  V30 1493 H 156.202 -0.941085 4.06447 0
M  V30 1494 H 154.832 -1.26456 2.97 0
M  V30 1495 H 153.884 1.05663 3.65431 0
M  V30 1496 H 155.196 1.1734 4.84802 0
M  V30 1497 H 154.35 -0.879816 6.00287 0
M  V30 1498 H 153.089 -1.08585 4.75458 0
M  V30 1499 H 152.094 1.13251 5.3801 0
M  V30 1500 H 153.319 1.32566 6.66035 0
M  V30 1501 H 151.265 -0.912348 6.49625 0
M  V30 1502 H 151.182 0.464422 7.54572 0
M  V30 1503 H 152.45 -0.704716 7.76308 0
M  V30 1504 N 156.679 -1.44442 0.630414 0
M  V30 1505 C 157.627 -2.32437 -0.0871428 0
M  V30 1506 C 158.621 -1.47304 -0.836525 0
M  V30 1507 O 159.827 -1.63653 -0.749506 0
M  V30 1508 H 156.202 -0.750533 -0.0469495 0
M  V30 1509 H 158.173 -2.90709 0.673096 0
M  V30 1510 C 156.922 -3.31288 -1.05563 0
M  V30 1511 H 156.245 -3.96805 -0.488426 0
M  V30 1512 H 157.685 -3.9554 -1.52721 0
M  V30 1513 C 156.144 -2.6016 -2.14052 0
M  V30 1514 O 156.674 -2.39997 -3.22124 0
M  V30 1515 N 154.88 -2.19911 -1.89967 0
M  V30 1516 H 154.427 -2.36509 -1.02085 0
M  V30 1517 H 154.385 -1.72646 -2.62756 0
M  V30 1518 N 158.157 -0.370918 -1.53173 0
M  V30 1519 C 159.406 0.218249 -2.00516 0
M  V30 1520 C 159.719 1.49429 -1.26215 0
M  V30 1521 O 160.925 2.16239 -1.64174 0
M  V30 1522 C 159.381 0.43948 -3.57207 0
M  V30 1523 C 158.989 -0.822244 -4.4039 0
M  V30 1524 C 160.733 0.986012 -4.1289 0
M  V30 1525 C 158.64 -0.570304 -5.88644 0
M  V30 1526 H 157.57 0.0853333 -0.749156 0
M  V30 1527 H 160.221 -0.490483 -1.76823 0
M  V30 1528 H 158.603 1.20961 -3.77074 0
M  V30 1529 H 159.777 -1.59557 -4.32294 0
M  V30 1530 H 158.092 -1.29238 -3.95836 0
M  V30 1531 H 160.689 1.18991 -5.21292 0
M  V30 1532 H 161.032 1.94972 -3.6782 0
M  V30 1533 H 161.565 0.27592 -3.96842 0
M  V30 1534 H 158.304 -1.50449 -6.38001 0
M  V30 1535 H 157.824 0.164427 -5.99575 0
M  V30 1536 H 159.503 -0.19784 -6.46697 0
M  V30 1537 N 159.635 1.57281 -0.100228 0
M  V30 1538 C 160.881 1.94826 0.563101 0
M  V30 1539 C 161.214 0.982475 1.67514 0
M  V30 1540 O 160.489 0.0164069 1.94493 0
M  V30 1541 C 160.772 3.42453 1.11346 0
M  V30 1542 C 160.625 4.498 0.00612081 0
M  V30 1543 C 161.944 3.91506 2.01024 0
M  V30 1544 H 159.063 0.708428 0.203221 0
M  V30 1545 H 161.705 1.8922 -0.171979 0
M  V30 1546 H 159.855 3.47361 1.7399 0
M  V30 1547 H 161.527 4.57 -0.628357 0
M  V30 1548 H 159.77 4.28756 -0.659581 0
M  V30 1549 H 160.441 5.50306 0.432109 0
M  V30 1550 H 162.917 3.88784 1.48278 0
M  V30 1551 H 161.793 4.95358 2.36457 0
M  V30 1552 H 162.054 3.31099 2.92961 0
M  V30 1553 N 161.113 -0.173488 1.56642 0
M  V30 1554 C 162.361 -0.888706 1.81512 0
M  V30 1555 C 162.682 -1.82875 0.676872 0
M  V30 1556 O 161.952 -1.93536 -0.303414 0
M  V30 1557 H 160.532 -0.331164 0.669582 0
M  V30 1558 H 163.194 -0.173823 1.94123 0
M  V30 1559 H 162.29 -1.46691 2.75478 0
M  V30 1560 N 162.591 -1.51276 -0.441967 0
M  V30 1561 C 163.821 -1.67273 -1.21257 0
M  V30 1562 C 164.229 -0.367624 -1.85594 0
M  V30 1563 O 163.572 0.663349 -1.71305 0
M  V30 1564 C 163.634 -2.72807 -2.34129 0
M  V30 1565 C 163.298 -4.1554 -1.90198 0
M  V30 1566 C 164.295 -5.00471 -1.40801 0
M  V30 1567 C 161.98 -4.61616 -1.9803 0
M  V30 1568 C 163.974 -6.29536 -0.998174 0
M  V30 1569 C 161.661 -5.90679 -1.56658 0
M  V30 1570 C 162.659 -6.74466 -1.07633 0
M  V30 1571 O 162.347 -8.01116 -0.668459 0
M  V30 1572 H 162.079 -0.564614 -0.371734 0
M  V30 1573 H 164.633 -1.9843 -0.530521 0
M  V30 1574 H 162.863 -2.36954 -3.05597 0
M  V30 1575 H 164.552 -2.77729 -2.96009 0
M  V30 1576 H 165.318 -4.66079 -1.34148 0
M  V30 1577 H 161.197 -3.96526 -2.35135 0
M  V30 1578 H 164.741 -6.94885 -0.61482 0
M  V30 1579 H 160.638 -6.24586 -1.62979 0
M  V30 1580 H 161.406 -8.14633 -0.794722 0
M  V30 1581 N 164.069 0.697108 -1.41344 0
M  V30 1582 C 164.999 1.82353 -1.45841 0
M  V30 1583 C 165.98 1.67115 -0.317247 0
M  V30 1584 O 167.165 1.86871 -0.528474 0
M  V30 1585 C 164.295 3.20476 -1.33838 0
M  V30 1586 C 163.249 3.50415 -2.4575 0
M  V30 1587 C 162.575 4.87878 -2.18813 0
M  V30 1588 C 163.875 3.49546 -3.88091 0
M  V30 1589 H 165.569 1.78846 -2.40113 0
M  V30 1590 H 163.115 0.859028 -1.15571 0
M  V30 1591 H 165.068 3.98988 -1.35596 0
M  V30 1592 H 163.792 3.24604 -0.360498 0
M  V30 1593 H 162.451 2.74253 -2.43271 0
M  V30 1594 H 162.099 4.8863 -1.19371 0
M  V30 1595 H 161.799 5.08875 -2.93803 0
M  V30 1596 H 163.323 5.68702 -2.22284 0
M  V30 1597 H 164.737 4.18066 -3.92293 0
M  V30 1598 H 163.134 3.82075 -4.62751 0
M  V30 1599 H 164.204 2.48552 -4.16353 0
M  V30 1600 N 165.547 1.27147 0.931209 0
M  V30 1601 C 166.824 1.0401 1.65654 0
M  V30 1602 C 167.204 -0.426297 2.06751 0
M  V30 1603 O 166.552 -1.40879 1.79904 0
M  V30 1604 C 166.762 1.99834 2.86125 0
M  V30 1605 C 168.11 2.29007 3.57549 0
M  V30 1606 O 169.134 1.97779 2.96246 0
M  V30 1607 O 167.993 2.82222 4.67989 0
M  V30 1608 H 165.087 0.396239 0.725895 0
M  V30 1609 H 167.633 1.38397 0.982056 0
M  V30 1610 H 166.405 2.98744 2.52721 0
M  V30 1611 H 166.028 1.65987 3.61295 0
M  V30 1612 N 167.025 -1.13721 1.09112 0
M  V30 1613 C 168.265 -1.86576 0.834801 0
M  V30 1614 C 168.629 -1.81435 -0.628122 0
M  V30 1615 O 169.83 -2.49497 -1.00024 0
M  V30 1616 C 168.101 -3.30872 1.35124 0
M  V30 1617 S 169.66 -4.21257 1.22832 0
M  V30 1618 H 166.478 -0.643666 0.302017 0
M  V30 1619 H 169.08 -1.37085 1.39385 0
M  V30 1620 H 167.784 -3.32166 2.41027 0
M  V30 1621 H 167.315 -3.85423 0.788185 0
M  V30 1622 H 169.33 -4.95884 0.177191 0
M  V30 1623 N 168.503 -0.877838 -1.30888 0
M  V30 1624 C 169.466 -0.344265 -2.266 0
M  V30 1625 C 170.466 0.50922 -1.52524 0
M  V30 1626 O 171.656 0.317398 -1.71284 0
M  V30 1627 C 168.788 0.510198 -3.37061 0
M  V30 1628 H 169.981 -1.1893 -2.7531 0
M  V30 1629 H 167.534 -0.654088 -1.41956 0
M  V30 1630 H 168.269 1.37612 -2.93655 0
M  V30 1631 H 168.054 -0.101047 -3.9197 0
M  V30 1632 H 169.544 0.875537 -4.08319 0
M  V30 1633 N 169.982 1.44106 -0.638065 0
M  V30 1634 C 171.228 2.02277 -0.145546 0
M  V30 1635 C 171.561 1.50125 1.23191 0
M  V30 1636 O 170.836 0.688133 1.8192 0
M  V30 1637 C 171.119 3.59829 -0.139791 0
M  V30 1638 C 170.972 4.22247 -1.55008 0
M  V30 1639 C 172.291 4.36873 0.531966 0
M  V30 1640 H 169.41 0.734992 -0.0543632 0
M  V30 1641 H 172.052 1.71592 -0.815863 0
M  V30 1642 H 170.202 3.86102 0.431007 0
M  V30 1643 H 171.874 4.07057 -2.1703 0
M  V30 1644 H 170.117 3.79476 -2.10191 0
M  V30 1645 H 170.788 5.31284 -1.49804 0
M  V30 1646 H 173.264 4.16074 0.0464781 0
M  V30 1647 H 172.14 5.4657 0.505206 0
M  V30 1648 H 172.401 4.11995 1.60352 0
M  V30 1649 N 171.46 0.379036 1.52974 0
M  V30 1650 C 172.408 -0.476033 2.27677 0
M  V30 1651 C 173.402 -1.0719 1.31174 0
M  V30 1652 O 174.608 -1.01355 1.48752 0
M  V30 1653 H 170.983 -0.172255 0.732006 0
M  V30 1654 H 172.954 0.175615 2.97883 0
M  V30 1655 C 171.703 -1.5967 3.0887 0
M  V30 1656 H 171.026 -1.1475 3.82978 0
M  V30 1657 H 172.466 -2.16943 3.64296 0
M  V30 1658 C 170.925 -2.54682 2.20542 0
M  V30 1659 O 171.455 -3.57836 1.82527 0
M  V30 1660 N 169.661 -2.24183 1.84907 0
M  V30 1661 H 169.208 -1.40333 2.1602 0
M  V30 1662 H 169.166 -2.88006 1.26096 0
M  V30 1663 N 172.938 -1.57226 0.108567 0
M  V30 1664 C 174.163 -1.99604 -0.563303 0
M  V30 1665 C 174.588 -0.987563 -1.6009 0
M  V30 1666 O 173.946 0.0421687 -1.81251 0
M  V30 1667 C 173.994 -3.40902 -1.17552 0
M  V30 1668 O 173.098 -3.42896 -2.2912 0
M  V30 1669 H 172.439 -0.648704 -0.1417 0
M  V30 1670 H 174.969 -2.03679 0.193961 0
M  V30 1671 H 174.979 -3.78886 -1.51357 0
M  V30 1672 H 173.654 -4.1382 -0.415445 0
M  V30 1673 H 172.231 -3.1672 -1.96832 0
M  V30 1674 N 174.416 0.165178 -1.56732 0
M  V30 1675 C 175.665 0.879143 -1.81532 0
M  V30 1676 C 175.978 1.83144 -0.686842 0
M  V30 1677 O 177.184 2.58823 -0.819944 0
M  V30 1678 C 175.64 1.61388 -3.21686 0
M  V30 1679 C 175.248 0.704904 -4.4242 0
M  V30 1680 C 176.992 2.3157 -3.55774 0
M  V30 1681 C 174.899 1.44022 -5.73595 0
M  V30 1682 H 173.829 0.332033 -0.676957 0
M  V30 1683 H 176.48 0.132008 -1.83025 0
M  V30 1684 H 174.862 2.40599 -3.14529 0
M  V30 1685 H 176.036 -0.0506815 -4.60772 0
M  V30 1686 H 174.351 0.112419 -4.16248 0
M  V30 1687 H 176.948 2.8719 -4.51028 0
M  V30 1688 H 177.291 3.07201 -2.8095 0
M  V30 1689 H 177.824 1.59297 -3.64513 0
M  V30 1690 H 174.563 0.72612 -6.51466 0
M  V30 1691 H 174.083 2.16898 -5.5921 0
M  V30 1692 H 175.762 1.98606 -6.15764 0
M  V30 1693 N 175.894 1.51508 0.433938 0
M  V30 1694 C 177.119 1.68443 1.21003 0
M  V30 1695 C 177.544 0.382636 1.84167 0
M  V30 1696 O 176.902 -0.65755 1.68956 0
M  V30 1697 C 176.95 2.80405 2.26727 0
M  V30 1698 O 176.054 2.44245 3.32292 0
M  V30 1699 H 175.395 0.561536 0.354363 0
M  V30 1700 H 177.925 1.9809 0.512024 0
M  V30 1701 H 177.935 3.0459 2.71457 0
M  V30 1702 H 176.61 3.74867 1.80132 0
M  V30 1703 H 175.187 2.30644 2.93015 0
M  V30 1704 N 177.372 -0.689602 1.41712 0
M  V30 1705 C 178.649 -1.44457 1.31877 0
M  V30 1706 C 179.029 -2.11039 -0.0508537 0
M  V30 1707 O 178.377 -2.02138 -1.06547 0
M  V30 1708 C 178.587 -2.45913 2.47645 0
M  V30 1709 C 179.935 -3.10991 2.89084 0
M  V30 1710 O 180.959 -2.56238 2.47428 0
M  V30 1711 O 179.818 -4.10174 3.61137 0
M  V30 1712 H 176.912 -0.64362 0.519309 0
M  V30 1713 H 179.458 -0.719576 1.53689 0
M  V30 1714 H 178.23 -1.95409 3.39015 0
M  V30 1715 H 177.853 -3.25913 2.27742 0
M  V30 1716 N 178.85 -1.27639 -0.924453 0
M  V30 1717 C 179.798 -1.10485 -2.04685 0
M  V30 1718 C 180.792 -0.0270421 -1.69378 0
M  V30 1719 O 181.998 -0.185008 -1.79047 0
M  V30 1720 H 178.373 -0.340546 -0.670472 0
M  V30 1721 H 180.344 -2.05566 -2.16298 0
M  V30 1722 C 179.093 -0.772229 -3.39016 0
M  V30 1723 H 178.416 -1.59351 -3.66671 0
M  V30 1724 H 179.856 -0.692097 -4.18313 0
M  V30 1725 C 178.315 0.523554 -3.32807 0
M  V30 1726 O 178.845 1.55702 -3.70297 0
M  V30 1727 N 177.051 0.520363 -2.85903 0
M  V30 1728 H 176.598 -0.32107 -2.55591 0
M  V30 1729 H 176.556 1.38742 -2.82131 0
M  V30 1730 N 180.328 1.1314 -1.09713 0
M  V30 1731 C 181.574 1.84757 -0.836224 0
M  V30 1732 C 181.907 1.8347 0.636598 0
M  V30 1733 O 181.182 1.27491 1.46889 0
M  V30 1734 C 181.465 3.32782 -1.37578 0
M  V30 1735 C 181.318 3.42567 -2.91493 0
M  V30 1736 C 182.637 4.28307 -1.01198 0
M  V30 1737 H 179.756 0.67082 -0.305236 0
M  V30 1738 H 182.398 1.3278 -1.35903 0
M  V30 1739 H 180.548 3.77177 -0.931097 0
M  V30 1740 H 182.22 3.06862 -3.44432 0
M  V30 1741 H 180.463 2.83349 -3.28475 0
M  V30 1742 H 181.134 4.46674 -3.24324 0
M  V30 1743 H 183.61 3.91999 -1.39556 0
M  V30 1744 H 182.486 5.30307 -1.41653 0
M  V30 1745 H 182.747 4.42029 0.0794833 0
M  V30 1746 N 181.806 0.884767 1.30421 0
M  V30 1747 C 183.052 0.513218 1.96819 0
M  V30 1748 C 183.407 -0.927347 1.68577 0
M  V30 1749 O 182.7 -1.64644 0.979941 0
M  V30 1750 C 182.894 0.724318 3.49983 0
M  V30 1751 C 182.723 2.18385 3.93113 0
M  V30 1752 C 181.493 2.82839 4.18725 0
M  V30 1753 C 183.691 3.15763 4.05953 0
M  V30 1754 N 181.673 4.1939 4.48314 0
M  V30 1755 C 183.044 4.37387 4.39423 0
M  V30 1756 C 185.099 3.11555 3.88379 0
M  V30 1757 C 183.802 5.55343 4.5715 0
M  V30 1758 C 185.828 4.28782 4.07308 0
M  V30 1759 C 185.19 5.49172 4.41123 0
M  V30 1760 H 181.289 0.237123 0.745182 0
M  V30 1761 H 183.873 1.14246 1.57658 0
M  V30 1762 H 182.044 0.124565 3.882 0
M  V30 1763 H 183.776 0.31969 4.03435 0
M  V30 1764 H 180.531 2.33708 4.11919 0
M  V30 1765 H 180.955 4.89911 4.67243 0
M  V30 1766 H 185.597 2.19576 3.61312 0
M  V30 1767 H 183.315 6.47826 4.8306 0
M  V30 1768 H 186.901 4.26995 3.95179 0
M  V30 1769 H 185.781 6.38371 4.55469 0
M  V30 1770 N 183.284 -1.43765 0.645699 0
M  V30 1771 C 184.194 -2.34544 -0.0512957 0
M  V30 1772 C 185.21 -1.53455 -0.82022 0
M  V30 1773 O 186.386 -1.86133 -0.769176 0
M  V30 1774 C 183.451 -3.31636 -1.01087 0
M  V30 1775 C 182.512 -4.2863 -0.239712 0
M  V30 1776 C 181.745 -5.21084 -1.15358 0
M  V30 1777 O 181.968 -5.1779 -2.39269 0
M  V30 1778 O 180.902 -5.98593 -0.630038 0
M  V30 1779 H 184.728 -2.95624 0.695718 0
M  V30 1780 H 182.313 -1.43781 0.405882 0
M  V30 1781 H 184.195 -3.9136 -1.56254 0
M  V30 1782 H 182.87 -2.73069 -1.73824 0
M  V30 1783 H 181.777 -3.72408 0.355356 0
M  V30 1784 H 183.11 -4.90157 0.447936 0
M  V30 1785 N 184.763 -0.387143 -1.52771 0
M  V30 1786 C 186.009 0.196025 -2.0185 0
M  V30 1787 C 186.342 1.46641 -1.27319 0
M  V30 1788 O 185.617 1.90889 -0.373032 0
M  V30 1789 C 185.9 0.466136 -3.5707 0
M  V30 1790 C 185.753 -0.819385 -4.42274 0
M  V30 1791 C 187.072 1.25768 -4.21747 0
M  V30 1792 H 184.191 0.0697708 -0.73369 0
M  V30 1793 H 186.833 -0.516286 -1.82851 0
M  V30 1794 H 184.983 1.07293 -3.7339 0
M  V30 1795 H 186.655 -1.4563 -4.37709 0
M  V30 1796 H 184.898 -1.43517 -4.09372 0
M  V30 1797 H 185.569 -0.585065 -5.48891 0
M  V30 1798 H 188.045 0.744167 -4.09391 0
M  V30 1799 H 186.921 1.41541 -5.30337 0
M  V30 1800 H 187.182 2.27228 -3.79236 0
M  V30 1801 N 186.241 1.57166 -0.116904 0
M  V30 1802 C 187.171 2.18222 0.830759 0
M  V30 1803 C 188.152 1.12167 1.27877 0
M  V30 1804 O 189.337 1.40394 1.34176 0
M  V30 1805 C 186.467 2.77996 2.08172 0
M  V30 1806 C 185.421 3.89614 1.77157 0
M  V30 1807 C 184.747 4.36187 3.09265 0
M  V30 1808 C 186.047 5.1181 1.04151 0
M  V30 1809 H 187.741 2.97664 0.321992 0
M  V30 1810 H 185.287 1.4318 0.153434 0
M  V30 1811 H 187.24 3.19366 2.74924 0
M  V30 1812 H 185.964 1.9584 2.6137 0
M  V30 1813 H 184.623 3.48816 1.12796 0
M  V30 1814 H 184.271 3.50893 3.60393 0
M  V30 1815 H 183.971 5.11455 2.89288 0
M  V30 1816 H 185.495 4.80207 3.77139 0
M  V30 1817 H 186.909 5.50214 1.61052 0
M  V30 1818 H 185.306 5.92648 0.942762 0
M  V30 1819 H 186.376 4.84892 0.0279022 0
M  V30 1820 N 187.719 -0.156864 1.56817 0
M  V30 1821 C 188.968 -0.869504 1.81996 0
M  V30 1822 C 189.281 -1.82777 0.696545 0
M  V30 1823 O 190.487 -2.58384 0.833658 0
M  V30 1824 C 188.943 -1.59679 3.22538 0
M  V30 1825 C 188.551 -0.681431 4.42787 0
M  V30 1826 C 190.295 -2.2968 3.56997 0
M  V30 1827 C 188.202 -1.40978 5.74351 0
M  V30 1828 H 187.132 -0.328438 0.678708 0
M  V30 1829 H 189.783 -0.1223 1.83092 0
M  V30 1830 H 188.165 -2.38927 3.158 0
M  V30 1831 H 189.339 0.0751166 4.60739 0
M  V30 1832 H 187.654 -0.0903431 4.16302 0
M  V30 1833 H 190.251 -2.84794 4.52544 0
M  V30 1834 H 190.594 -3.05707 2.82576 0
M  V30 1835 H 191.127 -1.57361 3.65352 0
M  V30 1836 H 187.866 -0.691561 6.51842 0
M  V30 1837 H 187.386 -2.13929 5.60352 0
M  V30 1838 H 189.065 -1.95337 6.16808 0
M  V30 1839 N 189.197 -1.51736 -0.425897 0
M  V30 1840 C 190.127 -1.76827 -1.52494 0
M  V30 1841 C 191.108 -0.618524 -1.58456 0
M  V30 1842 O 192.293 -0.862416 -1.74 0
M  V30 1843 C 189.423 -1.90374 -2.90474 0
M  V30 1844 C 188.377 -3.0588 -2.99369 0
M  V30 1845 C 187.703 -3.04625 -4.3944 0
M  V30 1846 C 189.003 -4.45644 -2.72394 0
M  V30 1847 H 190.697 -2.68855 -1.31748 0
M  V30 1848 H 188.243 -1.29372 -0.632362 0
M  V30 1849 H 190.196 -2.0651 -3.6733 0
M  V30 1850 H 188.92 -0.95004 -3.12477 0
M  V30 1851 H 187.579 -2.89467 -2.24954 0
M  V30 1852 H 187.227 -2.0701 -4.58428 0
M  V30 1853 H 186.927 -3.82195 -4.46319 0
M  V30 1854 H 188.451 -3.22869 -5.18255 0
M  V30 1855 H 189.865 -4.62348 -3.38979 0
M  V30 1856 H 188.262 -5.25006 -2.9067 0
M  V30 1857 H 189.332 -4.54893 -1.67929 0
M  V30 1858 N 190.675 0.682077 -1.42076 0
M  V30 1859 C 191.608 1.80666 -1.3941 0
M  V30 1860 C 192.586 1.60518 -0.25939 0
M  V30 1861 O 193.77 1.83088 -0.448456 0
M  V30 1862 C 190.897 3.17556 -1.17796 0
M  V30 1863 C 189.943 3.56468 -2.34164 0
M  V30 1864 S 190.776 3.59729 -3.96681 0
M  V30 1865 C 191.932 4.99323 -3.77395 0
M  V30 1866 H 192.165 1.82652 -2.34575 0
M  V30 1867 H 189.698 0.852062 -1.2876 0
M  V30 1868 H 191.656 3.96575 -1.06012 0
M  V30 1869 H 190.317 3.13164 -0.242279 0
M  V30 1870 H 189.51 4.5595 -2.1477 0
M  V30 1871 H 189.112 2.84792 -2.42425 0
M  V30 1872 H 191.404 5.87202 -3.37935 0
M  V30 1873 H 192.347 5.23763 -4.76527 0
M  V30 1874 H 192.755 4.71498 -3.10403 0
M  V30 1875 N 192.153 1.28127 0.917671 0
M  V30 1876 C 193.063 1.13556 2.05286 0
M  V30 1877 C 194.079 0.0630914 1.73886 0
M  V30 1878 O 195.255 0.271598 1.9956 0
M  V30 1879 C 192.32 0.794676 3.3747 0
M  V30 1880 C 191.381 1.94909 3.82504 0
M  V30 1881 C 190.614 1.62437 5.0838 0
M  V30 1882 O 190.837 0.536905 5.67867 0
M  V30 1883 O 189.771 2.46677 5.4903 0
M  V30 1884 H 193.597 2.08844 2.20495 0
M  V30 1885 H 191.182 1.07409 1.03845 0
M  V30 1886 H 193.064 0.618344 4.16839 0
M  V30 1887 H 191.739 -0.128581 3.23445 0
M  V30 1888 H 190.646 2.18055 3.03978 0
M  V30 1889 H 191.979 2.85291 4.01086 0
M  V30 1890 N 193.631 -1.12557 1.10312 0
M  V30 1891 C 194.861 -1.87592 0.865617 0
M  V30 1892 C 195.269 -1.79851 -0.587389 0
M  V30 1893 O 194.612 -1.16949 -1.41664 0
M  V30 1894 C 194.674 -3.37665 1.23381 0
M  V30 1895 C 194.338 -3.69181 2.69359 0
M  V30 1896 C 195.335 -3.67652 3.67597 0
M  V30 1897 C 193.02 -3.98555 3.05711 0
M  V30 1898 C 195.014 -3.95053 5.00212 0
M  V30 1899 C 192.701 -4.25616 4.38514 0
M  V30 1900 C 193.699 -4.23851 5.35574 0
M  V30 1901 O 193.387 -4.50242 6.65986 0
M  V30 1902 H 193.119 -0.600442 0.310557 0
M  V30 1903 H 195.673 -1.4335 1.47105 0
M  V30 1904 H 193.903 -3.82454 0.571467 0
M  V30 1905 H 195.592 -3.94041 0.973994 0
M  V30 1906 H 196.358 -3.45024 3.40857 0
M  V30 1907 H 192.237 -3.99071 2.30789 0
M  V30 1908 H 195.781 -3.93591 5.75962 0
M  V30 1909 H 191.678 -4.47718 4.64994 0
M  V30 1910 H 192.446 -4.67867 6.71597 0
M  V30 1911 N 195.109 -0.891671 -1.2995 0
M  V30 1912 C 196.349 -0.520296 -1.97667 0
M  V30 1913 C 196.713 0.914797 -1.68806 0
M  V30 1914 O 197.914 1.39263 -2.29911 0
M  V30 1915 C 196.185 -0.795222 -3.48441 0
M  V30 1916 S 197.744 -0.526953 -4.35624 0
M  V30 1917 H 194.562 -0.19333 -0.684211 0
M  V30 1918 H 197.164 -1.15238 -1.57926 0
M  V30 1919 H 195.868 -1.83805 -3.66938 0
M  V30 1920 H 195.399 -0.15095 -3.9311 0
M  V30 1921 H 197.414 0.631533 -4.92165 0
M  V30 1922 N 196.587 1.43421 -0.653314 0
M  V30 1923 C 198.003 1.56341 -0.320886 0
M  V30 1924 C 198.203 1.63696 1.17499 0
M  V30 1925 O 197.259 1.59208 1.95982 0
M  V30 1926 C 198.572 2.82424 -1.03233 0
M  V30 1927 C 200.12 2.96168 -1.01259 0
M  V30 1928 C 200.595 4.25084 -1.70492 0
M  V30 1929 N 202.086 4.31948 -1.67257 0
M  V30 1930 C 202.821 5.30466 -2.17701 0
M  V30 1931 N 202.317 6.35261 -2.76434 0
M  V30 1932 N 204.11 5.2212 -2.082 0
M  V30 1933 H 196.261 1.3689 -1.62403 0
M  V30 1934 H 198.524 0.657455 -0.682977 0
M  V30 1935 H 198.23 2.83053 -2.08744 0
M  V30 1936 H 198.104 3.72653 -0.583948 0
M  V30 1937 H 200.491 2.9508 0.0341235 0
M  V30 1938 H 200.572 2.07229 -1.49966 0
M  V30 1939 H 200.216 4.26932 -2.7512 0
M  V30 1940 H 200.146 5.1292 -1.19251 0
M  V30 1941 H 202.637 3.56838 -1.24398 0
M  V30 1942 H 202.95 7.06754 -3.12601 0
M  V30 1943 H 201.295 6.35884 -2.80495 0
M  V30 1944 H 204.486 4.39166 -1.62021 0
M  V30 1945 H 204.659 5.98739 -2.47822 0
M  V30 1946 N 198.065 0.39524 1.52563 0
M  V30 1947 C 199.028 -0.425001 2.25225 0
M  V30 1948 C 200.028 -0.985266 1.27079 0
M  V30 1949 O 201.218 -0.866332 1.5113 0
M  V30 1950 C 198.35 -1.59686 3.01186 0
M  V30 1951 H 199.543 0.211233 2.99155 0
M  V30 1952 H 197.096 0.147472 1.55603 0
M  V30 1953 H 197.831 -2.27035 2.31572 0
M  V30 1954 H 197.616 -1.20176 3.73229 0
M  V30 1955 H 199.106 -2.17743 3.5634 0
M  V30 1956 N 199.544 -1.57102 0.125237 0
M  V30 1957 C 200.792 -1.95021 -0.530198 0
M  V30 1958 C 201.113 -1.00982 -1.66816 0
M  V30 1959 O 200.383 -0.0672693 -1.95784 0
M  V30 1960 H 198.963 -0.720046 -0.198853 0
M  V30 1961 H 201.625 -1.93916 0.19564 0
M  V30 1962 H 200.721 -2.98211 -0.920681 0
M  V30 1963 N 201.022 0.148545 -1.56898 0
M  V30 1964 C 201.954 1.20852 -1.9475 0
M  V30 1965 C 202.967 1.39265 -0.843152 0
M  V30 1966 O 204.156 1.38864 -1.12156 0
M  V30 1967 C 201.256 2.57362 -2.20495 0
M  V30 1968 C 200.429 2.59947 -3.51776 0
M  V30 1969 C 199.488 3.77984 -3.6608 0
M  V30 1970 O 198.514 3.62929 -4.38487 0
M  V30 1971 N 199.716 4.95375 -3.02629 0
M  V30 1972 H 202.481 0.886804 -2.86279 0
M  V30 1973 H 200.042 0.338121 -1.5833 0
M  V30 1974 H 202.034 3.34833 -2.27307 0
M  V30 1975 H 200.604 2.81832 -1.35238 0
M  V30 1976 H 199.824 1.68403 -3.56419 0
M  V30 1977 H 201.112 2.58704 -4.38121 0
M  V30 1978 H 200.51 5.10509 -2.43715 0
M  V30 1979 H 199.067 5.70627 -3.15004 0
M  V30 1980 N 202.5 1.5196 0.417844 0
M  V30 1981 C 203.746 1.65836 1.16732 0
M  V30 1982 C 204.079 0.382881 1.90388 0
M  V30 1983 O 203.354 -0.618368 1.84408 0
M  V30 1984 C 203.637 2.87466 2.16876 0
M  V30 1985 C 203.49 4.25041 1.47174 0
M  V30 1986 C 204.809 3.04613 3.17646 0
M  V30 1987 H 201.928 0.603515 0.423011 0
M  V30 1988 H 204.57 1.84494 0.454105 0
M  V30 1989 H 202.72 2.71689 2.777 0
M  V30 1990 H 204.392 4.52527 0.895376 0
M  V30 1991 H 202.635 4.26843 0.773806 0
M  V30 1992 H 203.306 5.06176 2.20204 0
M  V30 1993 H 205.782 3.1923 2.66892 0
M  V30 1994 H 204.658 3.91247 3.8499 0
M  V30 1995 H 204.919 2.17541 3.84874 0
M  V30 1996 N 203.978 -0.674533 1.42435 0
M  V30 1997 C 205.224 -1.43671 1.43131 0
M  V30 1998 C 205.557 -1.94142 0.0476021 0
M  V30 1999 O 204.832 -1.70924 -0.928188 0
M  V30 2000 C 205.115 -2.63355 2.45594 0
M  V30 2001 C 204.968 -2.18514 3.93156 0
M  V30 2002 C 206.287 -3.65571 2.45043 0
M  V30 2003 H 203.406 -0.521077 0.521198 0
M  V30 2004 H 206.048 -0.766551 1.7385 0
M  V30 2005 H 204.198 -3.2053 2.19528 0
M  V30 2006 H 205.87 -1.66504 4.30202 0
M  V30 2007 H 204.113 -1.50086 4.07009 0
M  V30 2008 H 204.784 -3.04484 4.60428 0
M  V30 2009 H 207.26 -3.18113 2.68223 0
M  V30 2010 H 206.136 -4.46893 3.18713 0
M  V30 2011 H 206.397 -4.16716 1.47649 0
M  V30 2012 N 205.456 -1.28612 -0.910864 0
M  V30 2013 C 206.404 -1.1265 -2.03501 0
M  V30 2014 C 207.398 -0.0450054 -1.6934 0
M  V30 2015 O 208.604 -0.203988 -1.7884 0
M  V30 2016 H 204.979 -0.347639 -0.666822 0
M  V30 2017 H 206.95 -2.07849 -2.14106 0
M  V30 2018 C 205.699 -0.808143 -3.38178 0
M  V30 2019 H 205.022 -1.63231 -3.6496 0
M  V30 2020 H 206.462 -0.736426 -4.17556 0
M  V30 2021 C 204.921 0.488226 -3.33344 0
M  V30 2022 O 205.451 1.51766 -3.71927 0
M  V30 2023 N 203.657 0.490009 -2.86439 0
M  V30 2024 H 203.204 -0.348161 -2.55236 0
M  V30 2025 H 203.162 1.35741 -2.83587 0
M  V30 2026 N 206.934 1.1197 -1.10907 0
M  V30 2027 C 207.866 2.17592 -0.720175 0
M  V30 2028 C 208.879 1.60938 0.245495 0
M  V30 2029 O 210.068 1.78476 0.0292245 0
M  V30 2030 C 207.168 3.38873 -0.0427917 0
M  V30 2031 C 206.341 4.25006 -1.03388 0
M  V30 2032 C 205.4 5.24774 -0.387075 0
M  V30 2033 O 204.426 5.59631 -1.03934 0
M  V30 2034 N 205.628 5.74208 0.852407 0
M  V30 2035 H 208.393 2.51567 -1.62893 0
M  V30 2036 H 205.954 1.27439 -0.998543 0
M  V30 2037 H 207.946 4.02703 0.401501 0
M  V30 2038 H 206.516 3.03007 0.768456 0
M  V30 2039 H 205.736 3.57716 -1.65629 0
M  V30 2040 H 207.024 4.79397 -1.70458 0
M  V30 2041 H 206.422 5.48062 1.40161 0
M  V30 2042 H 204.979 6.39901 1.23977 0
M  V30 2043 N 208.412 0.89855 1.29475 0
M  V30 2044 C 209.345 0.319981 2.25945 0
M  V30 2045 C 210.323 -0.567189 1.52387 0
M  V30 2046 O 211.507 -0.514254 1.8135 0
M  V30 2047 C 208.634 -0.544013 3.34303 0
M  V30 2048 C 207.68 0.275682 4.25608 0
M  V30 2049 S 208.513 1.67272 5.08704 0
M  V30 2050 C 209.669 0.815621 6.20563 0
M  V30 2051 H 209.902 1.13767 2.74671 0
M  V30 2052 H 207.435 0.69882 1.3768 0
M  V30 2053 H 209.393 -1.03673 3.97193 0
M  V30 2054 H 208.054 -1.33593 2.84274 0
M  V30 2055 H 207.247 -0.384263 5.02533 0
M  V30 2056 H 206.849 0.701496 3.67362 0
M  V30 2057 H 209.141 0.0385042 6.77489 0
M  V30 2058 H 210.084 1.55691 6.90772 0
M  V30 2059 H 210.492 0.370516 5.63283 0
M  V30 2060 N 209.89 -1.43072 0.660911 0
M  V30 2061 C 210.838 -2.32569 -0.0378199 0
M  V30 2062 C 211.832 -1.49046 -0.805092 0
M  V30 2063 O 213.038 -1.65206 -0.714624 0
M  V30 2064 H 209.413 -0.75136 -0.031019 0
M  V30 2065 H 211.384 -2.89216 0.734609 0
M  V30 2066 C 210.133 -3.33453 -0.985124 0
M  V30 2067 H 209.456 -3.97752 -0.404147 0
M  V30 2068 H 210.896 -3.98691 -1.44297 0
M  V30 2069 C 209.355 -2.64642 -2.08486 0
M  V30 2070 O 209.885 -2.46776 -3.16961 0
M  V30 2071 N 208.091 -2.23891 -1.8526 0
M  V30 2072 H 207.638 -2.38621 -0.970449 0
M  V30 2073 H 207.596 -1.78181 -2.59034 0
M  V30 2074 N 211.368 -0.403325 -1.52352 0
M  V30 2075 C 212.315 0.425011 -2.26853 0
M  V30 2076 C 213.285 1.04598 -1.29029 0
M  V30 2077 O 214.47 1.07135 -1.57882 0
M  V30 2078 C 211.61 1.53888 -3.08889 0
M  V30 2079 C 210.723 0.939396 -4.21663 0
M  V30 2080 C 209.858 2.02547 -4.91068 0
M  V30 2081 C 208.897 1.40263 -5.95813 0
M  V30 2082 N 208.034 2.4286 -6.58759 0
M  V30 2083 H 212.874 -0.21674 -2.97211 0
M  V30 2084 H 210.411 -0.118722 -1.4662 0
M  V30 2085 H 212.369 2.19558 -3.54753 0
M  V30 2086 H 210.999 2.15074 -2.40714 0
M  V30 2087 H 210.051 0.171898 -3.80011 0
M  V30 2088 H 211.363 0.44436 -4.96817 0
M  V30 2089 H 210.517 2.75958 -5.40308 0
M  V30 2090 H 209.256 2.55415 -4.15469 0
M  V30 2091 H 208.261 0.653833 -5.45898 0
M  V30 2092 H 209.486 0.881719 -6.73352 0
M  V30 2093 H 207.432 2.94871 -5.85992 0
M  V30 2094 H 207.349 1.98152 -7.2957 0
M  V30 2095 H 208.617 3.15858 -7.12639 0
M  V30 2096 N 212.846 1.57033 -0.133567 0
M  V30 2097 C 213.793 2.16074 0.811208 0
M  V30 2098 C 214.763 1.08979 1.2535 0
M  V30 2099 O 215.948 1.36958 1.32843 0
M  V30 2100 C 213.088 2.77595 2.05024 0
M  V30 2101 C 212.201 3.99042 1.65498 0
M  V30 2102 C 211.336 4.48603 2.84479 0
M  V30 2103 C 210.375 5.62547 2.41262 0
M  V30 2104 N 209.512 6.06787 3.53206 0
M  V30 2105 H 214.352 2.96477 0.300906 0
M  V30 2106 H 211.889 1.46462 0.136822 0
M  V30 2107 H 213.847 3.11402 2.77642 0
M  V30 2108 H 212.477 1.99859 2.53488 0
M  V30 2109 H 211.529 3.71302 0.826981 0
M  V30 2110 H 212.841 4.81629 1.29748 0
M  V30 2111 H 211.995 4.84395 3.65303 0
M  V30 2112 H 210.734 3.64995 3.23465 0
M  V30 2113 H 209.739 5.26345 1.58874 0
M  V30 2114 H 210.964 6.47931 2.03377 0
M  V30 2115 H 208.91 5.26117 3.91838 0
M  V30 2116 H 208.827 6.84266 3.21427 0
M  V30 2117 H 210.095 6.4722 4.34427 0
M  V30 2118 N 214.325 -0.140222 1.56975 0
M  V30 2119 C 215.255 -1.17456 2.01808 0
M  V30 2120 C 216.236 -1.44415 0.898794 0
M  V30 2121 O 217.421 -1.5522 1.16707 0
M  V30 2122 C 214.551 -2.50607 2.40444 0
M  V30 2123 C 213.505 -2.38155 3.55621 0
M  V30 2124 C 212.831 -3.76078 3.80091 0
M  V30 2125 C 214.131 -1.85991 4.88062 0
M  V30 2126 H 215.825 -0.801743 2.88466 0
M  V30 2127 H 213.371 -0.38422 1.38779 0
M  V30 2128 H 215.324 -3.23197 2.7041 0
M  V30 2129 H 214.048 -2.89737 1.50732 0
M  V30 2130 H 212.707 -1.68016 3.25832 0
M  V30 2131 H 212.355 -4.12656 2.87618 0
M  V30 2132 H 212.055 -3.68606 4.57606 0
M  V30 2133 H 213.579 -4.50206 4.12488 0
M  V30 2134 H 214.993 -2.4838 5.16701 0
M  V30 2135 H 213.39 -1.89393 5.6943 0
M  V30 2136 H 214.46 -0.816023 4.77984 0
M  V30 2137 N 215.803 -1.52179 -0.40978 0
M  V30 2138 C 216.735 -1.71703 -1.51825 0
M  V30 2139 C 217.748 -0.597445 -1.51441 0
M  V30 2140 O 218.937 -0.872582 -1.55719 0
M  V30 2141 C 216.037 -1.74171 -2.90719 0
M  V30 2142 C 215.21 -3.03156 -3.15302 0
M  V30 2143 C 214.269 -2.97445 -4.34065 0
M  V30 2144 O 213.295 -3.71352 -4.31377 0
M  V30 2145 N 214.497 -2.15191 -5.39141 0
M  V30 2146 H 217.262 -2.67334 -1.35472 0
M  V30 2147 H 214.823 -1.50409 -0.599069 0
M  V30 2148 H 216.815 -1.67884 -3.68235 0
M  V30 2149 H 215.385 -0.860166 -3.00533 0
M  V30 2150 H 214.605 -3.23097 -2.25836 0
M  V30 2151 H 215.893 -3.88484 -3.28569 0
M  V30 2152 H 215.291 -1.54573 -5.44173 0
M  V30 2153 H 213.848 -2.1476 -6.15403 0
M  V30 2154 N 217.281 0.66697 -1.42791 0
M  V30 2155 C 218.509 1.45505 -1.47091 0
M  V30 2156 C 218.924 1.8861 -0.0845873 0
M  V30 2157 O 218.281 1.58632 0.90234 0
M  V30 2158 C 218.332 2.69906 -2.40485 0
M  V30 2159 O 218.053 2.28608 -3.73725 0
M  V30 2160 C 219.554 3.63396 -2.53886 0
M  V30 2161 H 216.774 0.447459 -0.500022 0
M  V30 2162 H 219.318 0.818866 -1.8739 0
M  V30 2163 H 217.473 3.29696 -2.03419 0
M  V30 2164 H 217.887 3.08997 -4.23817 0
M  V30 2165 H 219.361 4.47387 -3.2334 0
M  V30 2166 H 219.838 4.09824 -1.57927 0
M  V30 2167 H 220.444 3.09495 -2.91706 0
M  V30 2168 N 218.759 1.29093 0.90403 0
M  V30 2169 C 220.007 1.16583 1.65085 0
M  V30 2170 C 220.328 -0.283933 1.92922 0
M  V30 2171 O 219.598 -1.19509 1.55224 0
M  V30 2172 H 218.178 0.428467 0.611903 0
M  V30 2173 H 220.84 1.61959 1.08422 0
M  V30 2174 H 219.936 1.71266 2.6091 0
M  V30 2175 N 220.237 -1.11381 1.11499 0
M  V30 2176 C 221.484 -1.83132 0.864231 0
M  V30 2177 C 221.812 -1.84683 -0.610114 0
M  V30 2178 O 221.067 -1.29589 -1.46646 0
M  V30 2179 C 221.366 -3.30026 1.37177 0
M  V30 2180 C 221.032 -3.48634 2.85946 0
M  V30 2181 C 219.694 -3.53421 3.26569 0
M  V30 2182 C 222.046 -3.54837 3.81759 0
M  V30 2183 C 219.374 -3.61967 4.61733 0
M  V30 2184 C 221.726 -3.64915 5.1674 0
M  V30 2185 C 220.39 -3.67962 5.5692 0
M  V30 2186 H 219.66 -0.670127 0.316245 0
M  V30 2187 H 222.307 -1.31354 1.3935 0
M  V30 2188 H 220.612 -3.84304 0.762753 0
M  V30 2189 H 222.309 -3.84034 1.15408 0
M  V30 2190 H 218.899 -3.45579 2.53521 0
M  V30 2191 H 223.083 -3.50399 3.51474 0
M  V30 2192 H 218.339 -3.62603 4.92269 0
M  V30 2193 H 222.513 -3.68658 5.90816 0
M  V30 2194 H 220.14 -3.74336 6.61647 0
M  V30 2195 N 221.715 -0.905404 -1.28997 0
M  V30 2196 C 222.943 -0.549846 -1.9946 0
M  V30 2197 C 223.358 0.866834 -1.67724 0
M  V30 2198 O 222.715 1.57298 -0.925404 0
M  V30 2199 C 222.766 -0.739387 -3.53858 0
M  V30 2200 O 222.487 -2.10031 -3.84472 0
M  V30 2201 C 223.988 -0.389541 -4.41585 0
M  V30 2202 H 221.208 -0.210429 -0.637151 0
M  V30 2203 H 223.752 -1.21632 -1.64396 0
M  V30 2204 H 221.907 -0.120023 -3.87214 0
M  V30 2205 H 222.321 -2.13385 -4.79132 0
M  V30 2206 H 223.795 -0.572972 -5.49018 0
M  V30 2207 H 224.272 0.673756 -4.34001 0
M  V30 2208 H 224.878 -0.986089 -4.1371 0
M  V30 2209 N 223.193 1.4272 -0.668489 0
M  V30 2210 C 224.103 2.34596 0.0139753 0
M  V30 2211 C 225.119 1.5474 0.795703 0
M  V30 2212 O 226.295 1.87334 0.739466 0
M  V30 2213 C 223.36 3.33202 0.957982 0
M  V30 2214 C 222.421 4.28957 0.17149 0
M  V30 2215 C 221.654 5.22853 1.07053 0
M  V30 2216 O 221.877 5.21531 2.31001 0
M  V30 2217 O 220.811 5.9952 0.534727 0
M  V30 2218 H 224.637 2.9448 -0.742661 0
M  V30 2219 H 222.222 1.43117 -0.428705 0
M  V30 2220 H 224.104 3.93796 1.50008 0
M  V30 2221 H 222.779 2.758 1.69458 0
M  V30 2222 H 221.686 3.71796 -0.414558 0
M  V30 2223 H 223.019 4.89383 -0.52586 0
M  V30 2224 N 224.671 0.411399 1.52136 0
M  V30 2225 C 226.082 -0.0576826 1.86611 0
M  V30 2226 C 226.433 -1.44238 1.33003 0
M  V30 2227 O 225.558 -2.05759 0.670228 0
M  V30 2228 C 226.153 -0.111448 3.38617 0
M  V30 2229 C 224.712 -0.52487 3.72723 0
M  V30 2230 C 223.859 0.299176 2.75681 0
M  V30 2231 H 226.81 0.628368 1.4573 0
M  V30 2232 H 226.831 -0.926252 3.69054 0
M  V30 2233 H 226.343 0.896488 3.77604 0
M  V30 2234 H 224.444 -1.53936 3.39315 0
M  V30 2235 H 224.557 -0.267681 4.78352 0
M  V30 2236 H 222.921 -0.238814 2.53578 0
M  V30 2237 H 223.704 1.3055 3.17508 0
M  V30 2238 N 226.149 -1.5696 0.141893 0
M  V30 2239 C 227.059 -2.20066 -0.812905 0
M  V30 2240 C 228.075 -1.18344 -1.27557 0
M  V30 2241 O 229.251 -1.50902 -1.33381 0
M  V30 2242 C 226.316 -2.80583 -2.03652 0
M  V30 2243 C 225.377 -3.97414 -1.62359 0
M  V30 2244 C 224.61 -4.55036 -2.78887 0
M  V30 2245 O 224.833 -4.11538 -3.94959 0
M  V30 2246 O 223.767 -5.45376 -2.54653 0
M  V30 2247 H 227.593 -3.02157 -0.305746 0
M  V30 2248 H 225.178 -1.49159 -0.0848799 0
M  V30 2249 H 227.06 -3.19067 -2.75272 0
M  V30 2250 H 225.735 -2.01508 -2.5333 0
M  V30 2251 H 224.642 -3.63656 -0.877775 0
M  V30 2252 H 225.975 -4.77994 -1.17401 0
M  V30 2253 N 227.627 0.131896 -1.57047 0
M  V30 2254 C 228.873 0.843179 -1.84441 0
M  V30 2255 C 229.206 1.80129 -0.725749 0
M  V30 2256 O 228.481 1.92624 0.269469 0
M  V30 2257 C 228.764 1.60442 -3.22382 0
M  V30 2258 C 228.617 0.666782 -4.4483 0
M  V30 2259 C 229.936 2.56354 -3.5773 0
M  V30 2260 H 227.055 0.305081 -0.670891 0
M  V30 2261 H 229.697 0.107839 -1.89694 0
M  V30 2262 H 227.847 2.23128 -3.18035 0
M  V30 2263 H 229.519 0.0497646 -4.61273 0
M  V30 2264 H 227.762 -0.022609 -4.33794 0
M  V30 2265 H 228.433 1.23579 -5.37989 0
M  V30 2266 H 230.909 2.0378 -3.62785 0
M  V30 2267 H 229.785 3.06657 -4.5525 0
M  V30 2268 H 230.046 3.38419 -2.84473 0
M  V30 2269 N 229.106 1.52395 0.401703 0
M  V30 2270 C 230.036 1.79231 1.49661 0
M  V30 2271 C 231.017 0.643654 1.57452 0
M  V30 2272 O 232.202 0.889989 1.72606 0
M  V30 2273 C 229.332 1.94971 2.87409 0
M  V30 2274 C 228.286 3.10604 2.94465 0
M  V30 2275 C 227.612 3.11577 4.34538 0
M  V30 2276 C 228.912 4.49921 2.6527 0
M  V30 2277 H 230.606 2.70917 1.27454 0
M  V30 2278 H 228.152 1.30362 0.6117 0
M  V30 2279 H 230.105 2.12328 3.63999 0
M  V30 2280 H 228.829 0.999632 3.10926 0
M  V30 2281 H 227.488 2.93009 2.20321 0
M  V30 2282 H 227.136 2.14277 4.55076 0
M  V30 2283 H 226.836 3.89247 4.40183 0
M  V30 2284 H 228.36 3.31073 5.13053 0
M  V30 2285 H 229.774 4.67683 3.31581 0
M  V30 2286 H 228.171 5.29564 2.82281 0
M  V30 2287 H 229.241 4.57507 1.60671 0
M  V30 2288 N 230.584 -0.659388 1.43143 0
M  V30 2289 C 231.516 -1.7849 1.43784 0
M  V30 2290 C 232.529 -1.5932 0.334787 0
M  V30 2291 O 233.718 -1.68155 0.598842 0
M  V30 2292 C 230.818 -3.15828 1.22906 0
M  V30 2293 C 229.991 -3.61711 2.45934 0
M  V30 2294 C 229.05 -4.77831 2.20371 0
M  V30 2295 O 228.076 -4.87586 2.93681 0
M  V30 2296 N 229.278 -5.67611 1.21647 0
M  V30 2297 H 232.043 -1.7842 2.40803 0
M  V30 2298 H 229.604 -0.84302 1.3822 0
M  V30 2299 H 231.596 -3.91189 1.03697 0
M  V30 2300 H 230.166 -3.10707 0.343542 0
M  V30 2301 H 229.386 -2.76861 2.80609 0
M  V30 2302 H 230.674 -3.89112 3.27825 0
M  V30 2303 H 230.072 -5.62397 0.610449 0
M  V30 2304 H 228.629 -6.42719 1.08423 0
M  V30 2305 N 232.062 -1.29571 -0.897171 0
M  V30 2306 C 233.311 -1.1706 -1.64256 0
M  V30 2307 C 233.624 0.276476 -1.93636 0
M  V30 2308 O 234.83 0.52294 -2.66416 0
M  V30 2309 C 233.286 -2.0475 -2.95982 0
M  V30 2310 C 232.894 -3.54295 -2.74187 0
M  V30 2311 C 234.638 -2.0097 -3.73914 0
M  V30 2312 C 232.545 -4.34081 -4.01656 0
M  V30 2313 H 231.475 -0.43452 -0.616205 0
M  V30 2314 H 234.126 -1.54229 -0.994268 0
M  V30 2315 H 232.508 -1.60452 -3.62038 0
M  V30 2316 H 233.682 -4.06662 -2.1671 0
M  V30 2317 H 231.997 -3.59773 -2.09648 0
M  V30 2318 H 234.594 -2.57838 -4.68427 0
M  V30 2319 H 234.937 -0.990273 -4.0435 0
M  V30 2320 H 235.47 -2.43325 -3.14703 0
M  V30 2321 H 232.209 -5.36671 -3.76384 0
M  V30 2322 H 231.729 -3.86483 -4.58684 0
M  V30 2323 H 233.408 -4.44877 -4.69781 0
M  V30 2324 N 233.54 1.10788 -1.12088 0
M  V30 2325 C 234.787 1.82671 -0.873931 0
M  V30 2326 C 235.115 1.85004 0.600311 0
M  V30 2327 O 234.37 1.30365 1.45957 0
M  V30 2328 C 234.669 3.29294 -1.38926 0
M  V30 2329 C 234.335 3.47113 -2.87791 0
M  V30 2330 C 232.997 3.51684 -3.28439 0
M  V30 2331 C 235.349 3.52808 -3.83635 0
M  V30 2332 C 232.677 3.59513 -4.63646 0
M  V30 2333 C 235.029 3.62169 -5.18668 0
M  V30 2334 C 233.693 3.65003 -5.58864 0
M  V30 2335 H 232.963 0.668441 -0.319794 0
M  V30 2336 H 235.61 1.30613 -1.40045 0
M  V30 2337 H 233.915 3.83894 -0.783122 0
M  V30 2338 H 235.612 3.83416 -1.17443 0
M  V30 2339 H 232.202 3.4423 -2.5535 0
M  V30 2340 H 236.386 3.4853 -3.53328 0
M  V30 2341 H 231.642 3.59987 -4.94185 0
M  V30 2342 H 235.816 3.6552 -5.92763 0
M  V30 2343 H 233.443 3.70822 -6.63623 0
M  V30 2344 N 235.018 0.912232 1.28515 0
M  V30 2345 C 236.258 0.551677 1.96814 0
M  V30 2346 C 236.622 -0.887825 1.7024 0
M  V30 2347 O 237.823 -1.35588 2.32098 0
M  V30 2348 C 236.094 0.850555 3.47132 0
M  V30 2349 S 237.653 0.59619 4.34731 0
M  V30 2350 H 234.471 0.204191 0.681049 0
M  V30 2351 H 237.073 1.17736 1.56072 0
M  V30 2352 H 235.777 1.8962 3.63968 0
M  V30 2353 H 235.308 0.213471 3.9282 0
M  V30 2354 H 237.323 -0.553154 4.93107 0
M  V30 2355 N 236.496 -1.42363 0.676048 0
M  V30 2356 C 237.773 -1.95183 0.127726 0
M  V30 2357 C 238.153 -1.61641 -1.35777 0
M  V30 2358 O 237.501 -0.913216 -2.09458 0
M  V30 2359 C 237.711 -3.46721 0.398199 0
M  V30 2360 C 239.059 -4.23427 0.315383 0
M  V30 2361 O 240.083 -3.54649 0.332016 0
M  V30 2362 O 238.942 -5.45888 0.25865 0
M  V30 2363 H 236.036 -0.826992 0.00359427 0
M  V30 2364 H 238.582 -1.52184 0.750864 0
M  V30 2365 H 237.354 -3.64344 1.4272 0
M  V30 2366 H 236.977 -3.96769 -0.256885 0
M  V30 2367 N 237.974 -0.419461 -1.51915 0
M  V30 2368 C 239.202 0.152136 -2.0634 0
M  V30 2369 C 239.617 1.37988 -1.28859 0
M  V30 2370 O 238.974 1.79243 -0.343232 0
M  V30 2371 C 239.025 0.492266 -3.58133 0
M  V30 2372 O 238.746 -0.686736 -4.32684 0
M  V30 2373 C 240.247 1.11648 -4.2901 0
M  V30 2374 H 237.467 0.0158325 -0.670813 0
M  V30 2375 H 240.011 -0.593394 -1.95702 0
M  V30 2376 H 238.166 1.18769 -3.68745 0
M  V30 2377 H 238.58 -0.400341 -5.2297 0
M  V30 2378 H 240.054 1.3046 -5.36362 0
M  V30 2379 H 240.531 2.09251 -3.86148 0
M  V30 2380 H 241.137 0.460958 -4.22795 0
M  V30 2381 N 239.452 1.56882 -0.150215 0
M  V30 2382 C 240.692 1.98119 0.502804 0
M  V30 2383 C 241.056 1.03327 1.61826 0
M  V30 2384 O 242.257 1.33621 2.33236 0
M  V30 2385 C 240.528 3.43329 0.992988 0
M  V30 2386 S 242.087 4.0659 1.65015 0
M  V30 2387 H 238.905 0.692189 0.162467 0
M  V30 2388 H 241.507 1.93988 -0.242689 0
M  V30 2389 H 240.211 4.10046 0.170436 0
M  V30 2390 H 239.742 3.5118 1.77303 0
M  V30 2391 H 241.757 3.99906 2.93752 0
M  V30 2392 N 240.93 -0.123565 1.57115 0
M  V30 2393 C 241.84 -1.17074 2.033 0
M  V30 2394 C 242.856 -1.4561 0.952559 0
M  V30 2395 O 244.032 -1.56817 1.26374 0
M  V30 2396 C 241.097 -2.47857 2.42421 0
M  V30 2397 C 240.158 -2.26758 3.64526 0
M  V30 2398 C 239.391 -3.51305 4.01771 0
M  V30 2399 O 239.614 -4.5843 3.39409 0
M  V30 2400 O 238.548 -3.42578 4.94898 0
M  V30 2401 H 242.374 -0.808555 2.92739 0
M  V30 2402 H 239.959 -0.334027 1.45618 0
M  V30 2403 H 241.841 -3.2492 2.68338 0
M  V30 2404 H 240.516 -2.83558 1.5613 0
M  V30 2405 H 239.423 -1.47569 3.43765 0
M  V30 2406 H 240.756 -1.95963 4.51508 0
M  V30 2407 N 242.408 -1.52605 -0.393616 0
M  V30 2408 C 243.371 -1.76415 -1.46323 0
M  V30 2409 C 244.371 -0.634126 -1.47768 0
M  V30 2410 O 245.561 -0.902142 -1.4902 0
M  V30 2411 C 242.693 -1.8607 -2.85641 0
M  V30 2412 H 243.886 -2.71916 -1.26498 0
M  V30 2413 H 241.439 -1.43257 -0.625073 0
M  V30 2414 H 242.174 -0.925378 -3.10817 0
M  V30 2415 H 241.959 -2.68235 -2.85993 0
M  V30 2416 H 243.449 -2.06179 -3.63153 0
M  V30 2417 N 243.887 0.651787 -1.4349 0
M  V30 2418 C 245.133 1.41376 -1.45398 0
M  V30 2419 C 245.466 1.94041 -0.0784823 0
M  V30 2420 O 244.741 1.72379 0.900878 0
M  V30 2421 C 245.024 2.59414 -2.49752 0
M  V30 2422 C 244.877 2.12232 -3.96582 0
M  V30 2423 C 246.196 3.61626 -2.50827 0
M  V30 2424 H 243.315 0.512719 -0.529422 0
M  V30 2425 H 245.957 0.738796 -1.75048 0
M  V30 2426 H 244.107 3.16997 -2.246 0
M  V30 2427 H 245.779 1.59639 -4.32797 0
M  V30 2428 H 244.022 1.43592 -4.09346 0
M  V30 2429 H 244.693 2.9712 -4.65214 0
M  V30 2430 H 247.169 3.13805 -2.7325 0
M  V30 2431 H 246.045 4.41766 -3.25783 0
M  V30 2432 H 246.306 4.14314 -1.5426 0
M  V30 2433 N 245.365 1.30045 0.890287 0
M  V30 2434 C 246.328 1.15963 1.977 0
M  V30 2435 C 247.328 0.0923777 1.60534 0
M  V30 2436 O 248.518 0.340071 1.70848 0
M  V30 2437 C 245.65 0.775451 3.31963 0
M  V30 2438 H 246.843 2.12502 2.11619 0
M  V30 2439 H 244.396 1.13366 1.07601 0
M  V30 2440 H 245.131 -0.189671 3.23745 0
M  V30 2441 H 244.916 1.54668 3.60306 0
M  V30 2442 H 246.406 0.700251 4.11687 0
M  V30 2443 N 246.843 -1.10192 1.12674 0
M  V30 2444 C 248.259 -1.34235 0.863317 0
M  V30 2445 C 248.459 -1.95062 -0.505277 0
M  V30 2446 O 247.515 -2.19192 -1.25345 0
M  V30 2447 C 248.828 -2.2616 1.98172 0
M  V30 2448 C 250.376 -2.3969 2.0129 0
M  V30 2449 C 250.851 -3.34946 3.1237 0
M  V30 2450 N 252.342 -3.42515 3.11829 0
M  V30 2451 C 253.077 -4.16199 3.94419 0
M  V30 2452 N 252.573 -4.92747 4.87004 0
M  V30 2453 N 254.366 -4.11843 3.82547 0
M  V30 2454 H 246.517 -0.690798 2.00853 0
M  V30 2455 H 248.78 -0.366774 0.874174 0
M  V30 2456 H 248.486 -1.8868 2.96804 0
M  V30 2457 H 248.36 -3.26488 1.88906 0
M  V30 2458 H 250.747 -2.76438 1.03276 0
M  V30 2459 H 250.828 -1.39169 2.14629 0
M  V30 2460 H 250.472 -2.98923 4.10619 0
M  V30 2461 H 250.402 -4.35353 2.96269 0
M  V30 2462 H 252.893 -2.87926 2.44759 0
M  V30 2463 H 253.206 -5.46376 5.46528 0
M  V30 2464 H 251.551 -4.91862 4.91016 0
M  V30 2465 H 254.742 -3.51136 3.0955 0
M  V30 2466 H 254.915 -4.69007 4.47142 0
M  V30 2467 N 248.321 -0.919034 -1.28029 0
M  V30 2468 C 249.251 -0.428581 -2.29533 0
M  V30 2469 C 250.232 0.50659 -1.62381 0
M  V30 2470 O 251.417 0.413195 -1.89753 0
M  V30 2471 C 248.547 0.327388 -3.45753 0
M  V30 2472 C 247.501 -0.519137 -4.2484 0
M  V30 2473 C 246.827 0.365486 -5.33449 0
M  V30 2474 C 248.127 -1.77914 -4.91064 0
M  V30 2475 H 249.821 -1.27687 -2.70807 0
M  V30 2476 H 247.367 -0.615428 -1.30186 0
M  V30 2477 H 249.32 0.681378 -4.15855 0
M  V30 2478 H 248.044 1.20963 -3.03374 0
M  V30 2479 H 246.703 -0.855717 -3.56473 0
M  V30 2480 H 246.351 1.24642 -4.87312 0
M  V30 2481 H 246.051 -0.197356 -5.87268 0
M  V30 2482 H 247.575 0.715241 -6.06396 0
M  V30 2483 H 248.989 -1.49374 -5.53498 0
M  V30 2484 H 247.386 -2.2848 -5.54903 0
M  V30 2485 H 248.456 -2.50382 -4.15255 0
M  V30 2486 N 249.799 1.42003 -0.683588 0
M  V30 2487 C 250.749 2.27997 0.0121992 0
M  V30 2488 C 251.733 1.4156 0.764822 0
M  V30 2489 O 252.925 1.64935 0.642287 0
M  V30 2490 C 250.054 3.29706 0.956482 0
M  V30 2491 C 249.14 4.23625 0.200739 0
M  V30 2492 N 249.531 4.99448 -0.799087 0
M  V30 2493 C 247.829 4.43845 0.437937 0
M  V30 2494 C 248.53 5.68102 -1.25041 0
M  V30 2495 N 247.506 5.40511 -0.578648 0
M  V30 2496 H 251.308 2.84048 -0.754564 0
M  V30 2497 H 248.822 1.54071 -0.513398 0
M  V30 2498 H 250.819 3.90124 1.47 0
M  V30 2499 H 249.479 2.75216 1.72297 0
M  V30 2500 H 250.49 5.04303 -1.17893 0
M  V30 2501 H 247.167 4.00382 1.18325 0
M  V30 2502 H 248.557 6.38913 -2.07942 0
M  V30 2503 N 251.277 0.427512 1.51691 0
M  V30 2504 C 252.209 -0.424521 2.25234 0
M  V30 2505 C 253.222 -0.994671 1.2888 0
M  V30 2506 O 254.411 -0.890483 1.54702 0
M  V30 2507 C 251.511 -1.60479 2.98496 0
M  V30 2508 C 250.684 -1.15527 4.21868 0
M  V30 2509 C 249.743 -2.20454 4.77793 0
M  V30 2510 O 248.769 -1.8029 5.39893 0
M  V30 2511 N 249.971 -3.52831 4.60967 0
M  V30 2512 H 252.736 0.205749 2.98993 0
M  V30 2513 H 250.297 0.255867 1.59865 0
M  V30 2514 H 252.289 -2.30276 3.32799 0
M  V30 2515 H 250.859 -2.14061 2.27809 0
M  V30 2516 H 250.079 -0.284736 3.9317 0
M  V30 2517 H 251.367 -0.832173 5.01949 0
M  V30 2518 H 250.765 -3.88201 4.11481 0
M  V30 2519 H 249.322 -4.18551 4.99658 0
M  V30 2520 N 252.755 -1.56801 0.158532 0
M  V30 2521 C 253.995 -1.98383 -0.49229 0
M  V30 2522 C 254.359 -1.04184 -1.61275 0
M  V30 2523 O 255.56 -1.34856 -2.32524 0
M  V30 2524 C 253.831 -3.4385 -0.974766 0
M  V30 2525 S 255.39 -4.07459 -1.62857 0
M  V30 2526 H 252.208 -0.693041 -0.158794 0
M  V30 2527 H 254.81 -1.93856 0.252974 0
M  V30 2528 H 253.514 -4.10131 -0.148688 0
M  V30 2529 H 253.045 -3.52115 -1.75438 0
M  V30 2530 H 255.06 -4.01458 -2.91627 0
M  V30 2531 N 254.233 0.115231 -1.57178 0
M  V30 2532 C 255.18 1.14115 -2.00615 0
M  V30 2533 C 256.15 1.40939 -0.878941 0
M  V30 2534 O 257.335 1.52741 -1.14345 0
M  V30 2535 C 254.475 2.46156 -2.4187 0
M  V30 2536 C 253.588 2.26236 -3.68024 0
M  V30 2537 C 252.723 3.51534 -3.98243 0
M  V30 2538 C 251.762 3.26787 -5.17568 0
M  V30 2539 N 250.899 4.44298 -5.43639 0
M  V30 2540 H 255.739 0.763743 -2.88047 0
M  V30 2541 H 253.276 0.365615 -1.42484 0
M  V30 2542 H 255.234 3.23189 -2.63827 0
M  V30 2543 H 253.864 2.81783 -1.57475 0
M  V30 2544 H 252.916 1.40102 -3.5366 0
M  V30 2545 H 254.228 2.03929 -4.55208 0
M  V30 2546 H 253.382 4.36984 -4.20868 0
M  V30 2547 H 252.121 3.76876 -3.09541 0
M  V30 2548 H 251.126 2.39729 -4.94783 0
M  V30 2549 H 252.351 3.02812 -6.0785 0
M  V30 2550 H 250.297 4.69754 -4.57895 0
M  V30 2551 H 250.214 4.25109 -6.25154 0
M  V30 2552 H 251.482 5.3087 -5.70786 0
M  V30 2553 N 255.711 1.52812 0.385517 0
M  V30 2554 C 256.939 1.71907 1.15133 0
M  V30 2555 C 257.354 0.439004 1.83625 0
M  V30 2556 O 256.711 -0.586765 1.7281 0
M  V30 2557 C 256.762 2.87099 2.19673 0
M  V30 2558 O 256.483 4.10151 1.53973 0
M  V30 2559 C 257.984 3.17902 3.08955 0
M  V30 2560 H 255.204 0.575479 0.345057 0
M  V30 2561 H 257.748 1.99476 0.45052 0
M  V30 2562 H 255.903 2.61982 2.85384 0
M  V30 2563 H 256.317 4.74514 2.23465 0
M  V30 2564 H 257.791 4.01959 3.7833 0
M  V30 2565 H 258.268 2.3243 3.72657 0
M  V30 2566 H 258.874 3.44871 2.48885 0
M  V30 2567 N 257.189 -0.644168 1.43834 0
M  V30 2568 C 258.6 -1.22554 1.40845 0
M  V30 2569 C 258.951 -1.9585 0.117115 0
M  V30 2570 O 258.076 -2.01734 -0.783086 0
M  V30 2571 C 258.671 -2.22907 2.55143 0
M  V30 2572 C 257.23 -2.76501 2.5539 0
M  V30 2573 C 256.377 -1.51287 2.32396 0
M  V30 2574 H 259.328 -0.43563 1.52604 0
M  V30 2575 H 259.349 -3.05259 2.2715 0
M  V30 2576 H 258.861 -1.69533 3.49114 0
M  V30 2577 H 256.962 -3.33914 1.65324 0
M  V30 2578 H 257.075 -3.23429 3.53455 0
M  V30 2579 H 255.439 -1.78957 1.81236 0
M  V30 2580 H 256.222 -0.998336 3.28463 0
M  V30 2581 N 258.668 -1.30515 -0.883378 0
M  V30 2582 C 259.917 -1.18795 -1.63005 0
M  V30 2583 C 260.23 0.255923 -1.93919 0
M  V30 2584 O 261.436 0.494654 -2.66956 0
M  V30 2585 C 259.892 -2.07878 -2.93794 0
M  V30 2586 C 259.5 -3.57184 -2.70414 0
M  V30 2587 C 261.244 -2.04924 -3.71761 0
M  V30 2588 C 259.151 -4.38317 -3.97029 0
M  V30 2589 H 258.081 -0.441031 -0.611562 0
M  V30 2590 H 260.732 -1.55275 -0.977854 0
M  V30 2591 H 259.114 -1.64283 -3.60315 0
M  V30 2592 H 260.288 -4.08937 -2.12384 0
M  V30 2593 H 258.603 -3.61976 -2.0582 0
M  V30 2594 H 261.2 -2.62792 -4.65665 0
M  V30 2595 H 261.543 -1.0331 -4.03277 0
M  V30 2596 H 262.076 -2.46649 -3.12104 0
M  V30 2597 H 258.815 -5.40632 -3.70671 0
M  V30 2598 H 258.335 -3.91326 -4.54559 0
M  V30 2599 H 260.014 -4.49834 -4.65036 0
M  V30 2600 N 260.146 1.09593 -1.13257 0
M  V30 2601 C 261.395 1.81105 -0.887917 0
M  V30 2602 C 261.708 1.86563 0.587672 0
M  V30 2603 O 262.914 2.54367 0.949204 0
M  V30 2604 C 261.37 3.25338 -1.53895 0
M  V30 2605 C 260.978 3.28151 -3.04994 0
M  V30 2606 C 262.722 4.01617 -1.37492 0
M  V30 2607 C 260.629 4.66897 -3.6299 0
M  V30 2608 H 259.559 0.678661 -0.328534 0
M  V30 2609 H 262.21 1.23183 -1.36008 0
M  V30 2610 H 260.592 3.8331 -0.994446 0
M  V30 2611 H 261.766 2.79953 -3.66009 0
M  V30 2612 H 260.081 2.65361 -3.20893 0
M  V30 2613 H 262.678 5.04119 -1.78235 0
M  V30 2614 H 263.021 4.15072 -0.31957 0
M  V30 2615 H 263.554 3.50082 -1.88912 0
M  V30 2616 H 260.293 4.58643 -4.68323 0
M  V30 2617 H 259.813 5.15426 -3.06752 0
M  V30 2618 H 261.492 5.3587 -3.62563 0
M  V30 2619 N 261.624 0.925811 1.2754 0
M  V30 2620 C 262.574 0.394488 2.24561 0
M  V30 2621 C 263.558 -0.500183 1.52928 0
M  V30 2622 O 264.75 -0.337936 1.73744 0
M  V30 2623 C 261.879 -0.353328 3.41477 0
M  V30 2624 C 260.965 0.557752 4.20416 0
M  V30 2625 N 261.356 1.67674 4.77199 0
M  V30 2626 C 259.654 0.360404 4.44541 0
M  V30 2627 C 260.355 2.24324 5.36706 0
M  V30 2628 N 259.331 1.53305 5.21535 0
M  V30 2629 H 263.133 1.2489 2.66045 0
M  V30 2630 H 260.647 0.779864 1.4245 0
M  V30 2631 H 262.644 -0.7509 4.10082 0
M  V30 2632 H 261.304 -1.20469 3.01525 0
M  V30 2633 H 262.315 2.05915 4.75204 0
M  V30 2634 H 258.992 -0.450454 4.15063 0
M  V30 2635 H 260.382 3.18521 5.91603 0
M  V30 2636 N 263.102 -1.41638 0.69111 0
M  V30 2637 C 264.518 -1.55435 0.362224 0
M  V30 2638 C 264.718 -1.66754 -1.13117 0
M  V30 2639 O 263.774 -1.64348 -1.91692 0
M  V30 2640 C 265.087 -2.79588 1.10684 0
M  V30 2641 C 266.635 -2.9338 1.09075 0
M  V30 2642 C 267.11 -4.20414 1.81703 0
M  V30 2643 N 268.601 -4.27362 1.7865 0
M  V30 2644 C 269.336 -5.24507 2.31689 0
M  V30 2645 N 268.832 -6.27708 2.93179 0
M  V30 2646 N 270.625 -5.16416 2.2197 0
M  V30 2647 H 262.776 -1.32536 1.65976 0
M  V30 2648 H 265.039 -0.639115 0.700168 0
M  V30 2649 H 264.745 -2.77419 2.16175 0
M  V30 2650 H 264.619 -3.70973 0.682545 0
M  V30 2651 H 267.006 -2.95067 0.0441238 0
M  V30 2652 H 267.087 -2.0318 1.55407 0
M  V30 2653 H 266.731 -4.19488 2.86343 0
M  V30 2654 H 266.661 -5.09578 1.32808 0
M  V30 2655 H 269.152 -3.53415 1.33815 0
M  V30 2656 H 269.465 -6.98217 3.31229 0
M  V30 2657 H 267.81 -6.28223 2.97255 0
M  V30 2658 H 271.001 -4.34716 1.73607 0
M  V30 2659 H 271.174 -5.91958 2.63609 0
M  V30 2660 N 264.58 -0.43555 -1.51462 0
M  V30 2661 C 265.857 0.191364 -1.94662 0
M  V30 2662 C 266.237 1.60254 -1.37411 0
M  V30 2663 O 265.585 2.2152 -0.560458 0
M  V30 2664 C 265.795 0.17091 -3.48581 0
M  V30 2665 C 267.143 0.377357 -4.2292 0
M  V30 2666 O 268.167 0.249104 -3.55328 0
M  V30 2667 O 267.026 0.63247 -5.42828 0
M  V30 2668 H 264.12 0.130932 -0.816569 0
M  V30 2669 H 266.666 -0.4934 -1.62369 0
M  V30 2670 H 265.438 -0.815738 -3.82703 0
M  V30 2671 H 265.061 0.898659 -3.87311 0
M  V30 2672 N 266.058 1.56714 -0.166846 0
M  V30 2673 C 266.988 2.20754 0.760913 0
M  V30 2674 C 267.969 1.16178 1.24244 0
M  V30 2675 O 269.154 1.44592 1.29641 0
M  V30 2676 C 266.284 2.84478 1.99223 0
M  V30 2677 C 265.238 3.95053 1.64672 0
M  V30 2678 C 264.564 4.45805 2.95232 0
M  V30 2679 C 265.864 5.14865 0.878155 0
M  V30 2680 H 267.558 2.98537 0.22713 0
M  V30 2681 H 265.104 1.43596 0.107805 0
M  V30 2682 H 267.057 3.27951 2.64624 0
M  V30 2683 H 265.781 2.04056 2.55007 0
M  V30 2684 H 264.44 3.52228 1.01641 0
M  V30 2685 H 264.088 3.62181 3.49047 0
M  V30 2686 H 263.788 5.204 2.7287 0
M  V30 2687 H 265.312 4.91962 3.6167 0
M  V30 2688 H 266.726 5.55059 1.43466 0
M  V30 2689 H 265.123 5.95348 0.753738 0
M  V30 2690 H 266.193 4.84735 -0.126377 0
M  V30 2691 N 267.536 -0.106894 1.57237 0
M  V30 2692 C 268.483 -1.13049 2.01217 0
M  V30 2693 C 269.453 -1.40471 0.886403 0
M  V30 2694 O 270.638 -1.52133 1.15153 0
M  V30 2695 C 267.778 -2.4487 2.43172 0
M  V30 2696 C 266.891 -2.24281 3.69218 0
M  V30 2697 C 266.026 -3.49417 4.00101 0
M  V30 2698 C 265.065 -3.24038 5.19294 0
M  V30 2699 N 264.202 -4.41409 5.45988 0
M  V30 2700 H 269.042 -0.748456 2.88448 0
M  V30 2701 H 266.579 -0.358054 1.42676 0
M  V30 2702 H 268.537 -3.21786 2.65537 0
M  V30 2703 H 267.167 -2.80944 1.58967 0
M  V30 2704 H 266.219 -1.38224 3.54398 0
M  V30 2705 H 267.531 -2.01512 4.56283 0
M  V30 2706 H 266.685 -4.34746 4.2318 0
M  V30 2707 H 265.424 -3.75229 3.11535 0
M  V30 2708 H 264.429 -2.37102 4.96047 0
M  V30 2709 H 265.654 -2.99584 6.09447 0
M  V30 2710 H 263.6 -4.67319 4.60379 0
M  V30 2711 H 263.517 -4.21788 6.274 0
M  V30 2712 H 264.785 -5.27836 5.73593 0
M  V30 2713 N 269.014 -1.53014 -0.377408 0
M  V30 2714 C 270.26 -1.68872 -1.12294 0
M  V30 2715 C 270.593 -0.433224 -1.89306 0
M  V30 2716 O 269.868 0.569258 -1.85983 0
M  V30 2717 C 270.151 -2.93115 -2.09179 0
M  V30 2718 C 270.004 -4.28794 -1.35853 0
M  V30 2719 C 271.323 -3.12928 -3.09458 0
M  V30 2720 H 268.442 -0.614518 -0.406862 0
M  V30 2721 H 271.084 -1.85633 -0.40503 0
M  V30 2722 H 269.234 -2.78956 -2.70399 0
M  V30 2723 H 270.906 -4.54742 -0.775082 0
M  V30 2724 H 269.149 -4.28744 -0.660364 0
M  V30 2725 H 269.82 -5.11837 -2.06706 0
M  V30 2726 H 272.296 -3.26194 -2.58334 0
M  V30 2727 H 271.172 -4.01316 -3.74482 0
M  V30 2728 H 271.433 -2.27669 -3.78971 0
M  V30 2729 N 270.492 0.636531 -1.44174 0
M  V30 2730 C 271.402 1.77754 -1.53103 0
M  V30 2731 C 272.418 1.68928 -0.417034 0
M  V30 2732 O 273.594 1.89801 -0.6736 0
M  V30 2733 C 270.659 3.14115 -1.46741 0
M  V30 2734 C 269.72 3.34612 -2.68948 0
M  V30 2735 C 268.953 4.64467 -2.6288 0
M  V30 2736 O 269.176 5.44919 -1.68581 0
M  V30 2737 O 268.11 4.87049 -3.53648 0
M  V30 2738 H 271.936 1.73174 -2.49489 0
M  V30 2739 H 269.521 0.79709 -1.2636 0
M  V30 2740 H 271.403 3.95412 -1.45696 0
M  V30 2741 H 270.078 3.19249 -0.534975 0
M  V30 2742 H 268.985 2.53014 -2.75562 0
M  V30 2743 H 270.318 3.34336 -3.61221 0
M  V30 2744 N 271.97 1.30982 0.876444 0
M  V30 2745 C 272.918 1.18006 2.00443 0
M  V30 2746 C 273.912 0.0898871 1.69161 0
M  V30 2747 O 275.118 0.251333 1.78237 0
M  V30 2748 H 271.493 0.365196 0.65737 0
M  V30 2749 H 273.464 2.13453 2.0852 0
M  V30 2750 C 272.213 0.897521 3.35916 0
M  V30 2751 H 271.536 1.7285 3.60504 0
M  V30 2752 H 272.976 0.846874 4.15456 0
M  V30 2753 C 271.435 -0.399674 3.34521 0
M  V30 2754 O 271.965 -1.41852 3.7582 0
M  V30 2755 N 270.171 -0.413893 2.87637 0
M  V30 2756 H 269.718 0.41571 2.54224 0
M  V30 2757 H 269.676 -1.28175 2.87086 0
M  V30 2758 N 273.449 -1.08991 1.13837 0
M  V30 2759 C 274.698 -1.80631 0.897509 0
M  V30 2760 C 275.011 -1.86872 -0.57777 0
M  V30 2761 O 276.217 -2.54866 -0.935701 0
M  V30 2762 C 274.673 -3.24517 1.55618 0
M  V30 2763 C 274.281 -3.26529 3.0673 0
M  V30 2764 C 276.025 -4.00882 1.3962 0
M  V30 2765 C 273.932 -4.64965 3.65461 0
M  V30 2766 H 272.862 -0.67691 0.332129 0
M  V30 2767 H 275.513 -1.2246 1.3666 0
M  V30 2768 H 273.895 -3.82778 1.01476 0
M  V30 2769 H 275.069 -2.78008 3.67489 0
M  V30 2770 H 273.384 -2.63656 3.22296 0
M  V30 2771 H 275.981 -5.03167 1.80906 0
M  V30 2772 H 276.324 -4.14896 0.341578 0
M  V30 2773 H 276.857 -3.49075 1.90766 0
M  V30 2774 H 273.596 -4.56153 4.70749 0
M  V30 2775 H 273.116 -5.13792 3.09481 0
M  V30 2776 H 274.795 -5.3394 3.654 0
M  V30 2777 N 274.927 -0.932562 -1.27047 0
M  V30 2778 C 275.857 -0.452902 -2.29066 0
M  V30 2779 C 276.838 0.489338 -1.62909 0
M  V30 2780 O 278.023 0.393046 -1.90181 0
M  V30 2781 C 275.153 0.290698 -3.46081 0
M  V30 2782 C 274.107 -0.564168 -4.24265 0
M  V30 2783 C 273.433 0.308886 -5.33807 0
M  V30 2784 C 274.733 -1.83112 -4.89149 0
M  V30 2785 H 276.427 -1.30552 -2.69437 0
M  V30 2786 H 273.973 -0.629201 -1.29526 0
M  V30 2787 H 275.926 0.637233 -4.16554 0
M  V30 2788 H 274.65 1.17738 -3.0464 0
M  V30 2789 H 273.309 -0.893477 -3.55545 0
M  V30 2790 H 272.957 1.19467 -4.88607 0
M  V30 2791 H 272.657 -0.259633 -5.87026 0
M  V30 2792 H 274.181 0.650884 -6.07121 0
M  V30 2793 H 275.595 -1.55236 -5.51883 0
M  V30 2794 H 273.992 -2.34353 -5.52448 0
M  V30 2795 H 275.062 -2.54772 -4.12576 0
M  V30 2796 N 276.405 1.4127 -0.698611 0
M  V30 2797 C 277.335 2.33447 -0.049629 0
M  V30 2798 C 278.316 1.51982 0.763898 0
M  V30 2799 O 279.501 1.80509 0.716257 0
M  V30 2800 C 276.631 3.35828 0.885267 0
M  V30 2801 C 275.585 4.27627 0.178613 0
M  V30 2802 C 274.911 5.20406 1.22807 0
M  V30 2803 C 276.211 5.13459 -0.956933 0
M  V30 2804 H 277.905 2.87966 -0.81951 0
M  V30 2805 H 275.451 1.38461 -0.395538 0
M  V30 2806 H 277.404 3.9924 1.34854 0
M  V30 2807 H 276.128 2.79666 1.68685 0
M  V30 2808 H 274.787 3.65643 -0.26466 0
M  V30 2809 H 274.435 4.60558 2.02226 0
M  V30 2810 H 274.135 5.82661 0.760239 0
M  V30 2811 H 275.659 5.86695 1.69179 0
M  V30 2812 H 277.073 5.70421 -0.573805 0
M  V30 2813 H 275.47 5.8467 -1.35205 0
M  V30 2814 H 276.54 4.50443 -1.79524 0
M  V30 2815 N 277.883 0.443576 1.51229 0
M  V30 2816 C 278.831 -0.37904 2.29491 0
M  V30 2817 C 279.825 -1.0153 1.35603 0
M  V30 2818 O 281.031 -0.94955 1.52917 0
M  V30 2819 H 277.406 -0.141053 0.738653 0
M  V30 2820 H 279.377 0.301799 2.9687 0
M  V30 2821 C 278.126 -1.46426 3.15364 0
M  V30 2822 H 277.449 -0.984037 3.87501 0
M  V30 2823 H 278.889 -2.01297 3.7317 0
M  V30 2824 C 277.348 -2.45099 2.31146 0
M  V30 2825 O 277.878 -3.49773 1.9754 0
M  V30 2826 N 276.084 -2.16139 1.94249 0
M  V30 2827 H 275.631 -1.31044 2.21777 0
M  V30 2828 H 275.589 -2.82398 1.38198 0
M  V30 2829 N 279.361 -1.56624 0.175154 0
M  V30 2830 C 280.638 -1.88688 -0.515373 0
M  V30 2831 C 281.018 -1.08564 -1.81044 0
M  V30 2832 O 280.366 -0.180703 -2.27784 0
M  V30 2833 C 280.576 -3.40768 -0.753552 0
M  V30 2834 C 281.924 -4.10587 -1.08184 0
M  V30 2835 O 282.948 -3.46106 -0.841961 0
M  V30 2836 O 281.807 -5.24512 -1.53459 0
M  V30 2837 H 278.901 -0.78301 -0.26613 0
M  V30 2838 H 281.447 -1.68347 0.213877 0
M  V30 2839 H 280.219 -3.90965 0.161829 0
M  V30 2840 H 279.842 -3.66733 -1.53598 0
M  V30 2841 N 280.839 0.0985539 -1.57292 0
M  V30 2842 C 282.087 0.801092 -1.85545 0
M  V30 2843 C 282.408 1.79438 -0.763353 0
M  V30 2844 O 281.678 1.94763 0.21073 0
M  V30 2845 H 280.258 0.29884 -0.684619 0
M  V30 2846 H 282.92 0.0810064 -1.94732 0
M  V30 2847 H 282.016 1.3338 -2.82163 0
M  V30 2848 N 282.317 1.53212 0.369288 0
M  V30 2849 C 283.565 1.68881 1.11012 0
M  V30 2850 C 283.886 0.441285 1.89941 0
M  V30 2851 O 283.156 -0.544623 1.88177 0
M  V30 2852 H 281.736 0.622569 0.412816 0
M  V30 2853 H 284.398 1.90391 0.416802 0
M  V30 2854 H 283.494 2.54822 1.80201 0
M  V30 2855 N 283.795 -0.628877 1.44509 0
M  V30 2856 C 284.743 -1.76193 1.51852 0
M  V30 2857 C 285.737 -1.64849 0.390042 0
M  V30 2858 O 286.943 -1.709 0.565082 0
M  V30 2859 H 283.318 -0.581728 0.476547 0
M  V30 2860 H 285.289 -1.67123 2.47209 0
M  V30 2861 C 284.038 -3.14533 1.48204 0
M  V30 2862 H 283.361 -3.23911 2.34354 0
M  V30 2863 H 284.801 -3.93701 1.57402 0
M  V30 2864 C 283.26 -3.36287 0.203142 0
M  V30 2865 O 283.79 -3.9509 -0.725745 0
M  V30 2866 N 281.996 -2.90408 0.105563 0
M  V30 2867 H 281.543 -2.42739 0.862301 0
M  V30 2868 H 281.501 -3.05339 -0.749371 0
M  V30 2869 N 285.273 -1.31445 -0.869486 0
M  V30 2870 C 286.503 -1.23942 -1.65294 0
M  V30 2871 C 286.911 0.197561 -1.88166 0
M  V30 2872 O 286.254 1.14019 -1.44033 0
M  V30 2873 C 286.316 -1.91385 -3.04322 0
M  V30 2874 C 285.98 -3.40726 -3.04557 0
M  V30 2875 C 286.977 -4.36464 -2.82481 0
M  V30 2876 C 284.662 -3.82425 -3.25663 0
M  V30 2877 C 286.656 -5.71876 -2.8149 0
M  V30 2878 C 284.343 -5.1795 -3.243 0
M  V30 2879 C 285.341 -6.12486 -3.02241 0
M  V30 2880 O 285.029 -7.45534 -3.00724 0
M  V30 2881 H 284.761 -0.429459 -0.522054 0
M  V30 2882 H 287.315 -1.73873 -1.0935 0
M  V30 2883 H 285.545 -1.36004 -3.61994 0
M  V30 2884 H 287.234 -1.77791 -3.64891 0
M  V30 2885 H 288 -4.05576 -2.65956 0
M  V30 2886 H 283.879 -3.09274 -3.41863 0
M  V30 2887 H 287.423 -6.45638 -2.64191 0
M  V30 2888 H 283.32 -5.48473 -3.40365 0
M  V30 2889 H 284.088 -7.54713 -3.16782 0
M  V30 2890 N 286.751 1.08385 -1.14413 0
M  V30 2891 C 287.997 1.81044 -0.913834 0
M  V30 2892 C 288.33 1.86004 0.558209 0
M  V30 2893 O 287.605 1.33606 1.4135 0
M  V30 2894 C 287.888 3.26648 -1.51569 0
M  V30 2895 C 287.741 3.29895 -3.0576 0
M  V30 2896 C 289.06 4.23629 -1.19273 0
M  V30 2897 H 286.179 0.65727 -0.333414 0
M  V30 2898 H 288.821 1.26896 -1.41412 0
M  V30 2899 H 286.971 3.72889 -1.09023 0
M  V30 2900 H 288.643 2.91977 -3.57137 0
M  V30 2901 H 286.886 2.69163 -3.40197 0
M  V30 2902 H 287.557 4.32516 -3.42977 0
M  V30 2903 H 290.033 3.85727 -1.56057 0
M  V30 2904 H 288.909 5.23822 -1.64017 0
M  V30 2905 H 289.17 4.41968 -0.108068 0
M  V30 2906 N 288.23 0.939286 1.26551 0
M  V30 2907 C 289.16 0.465044 2.28822 0
M  V30 2908 C 290.141 -0.480692 1.63167 0
M  V30 2909 O 291.326 -0.382955 1.90387 0
M  V30 2910 C 288.456 -0.27234 3.46231 0
M  V30 2911 C 287.41 0.58666 4.2396 0
M  V30 2912 C 286.736 -0.280573 5.33963 0
M  V30 2913 C 288.036 1.85704 4.88171 0
M  V30 2914 H 289.73 1.31979 2.68741 0
M  V30 2915 H 287.276 0.636061 1.29191 0
M  V30 2916 H 289.229 -0.615133 4.16886 0
M  V30 2917 H 287.953 -1.16121 3.0526 0
M  V30 2918 H 286.612 0.91232 3.55067 0
M  V30 2919 H 286.26 -1.16874 4.89234 0
M  V30 2920 H 285.96 0.29076 5.8688 0
M  V30 2921 H 287.484 -0.618678 6.07458 0
M  V30 2922 H 288.898 1.58161 5.51052 0
M  V30 2923 H 287.295 2.37279 5.51197 0
M  V30 2924 H 288.365 2.56957 4.11219 0
M  V30 2925 N 289.708 -1.40897 0.706093 0
M  V30 2926 C 290.948 -2.02916 0.245827 0
M  V30 2927 C 291.312 -1.54751 -1.13649 0
M  V30 2928 O 292.513 -2.08768 -1.69321 0
M  V30 2929 C 290.784 -3.56031 0.312537 0
M  V30 2930 S 292.343 -4.38741 -0.0721388 0
M  V30 2931 H 289.161 -0.704186 0.0982007 0
M  V30 2932 H 291.763 -1.72168 0.926207 0
M  V30 2933 H 290.467 -3.88579 1.32039 0
M  V30 2934 H 289.998 -3.91495 -0.386641 0
M  V30 2935 H 292.013 -4.78952 -1.29692 0
M  V30 2936 N 291.186 -0.45159 -1.50991 0
M  V30 2937 C 292.463 0.170707 -1.94854 0
M  V30 2938 C 292.843 1.58788 -1.39103 0
M  V30 2939 O 292.191 2.20913 -0.583921 0
M  V30 2940 C 292.401 0.133929 -3.48743 0
M  V30 2941 C 293.749 0.33248 -4.23296 0
M  V30 2942 O 294.773 0.211403 -3.55572 0
M  V30 2943 O 293.632 0.57486 -5.43468 0
M  V30 2944 H 290.726 0.122264 -0.817912 0
M  V30 2945 H 293.272 -0.510594 -1.61836 0
M  V30 2946 H 292.044 -0.856283 -3.81816 0
M  V30 2947 H 291.667 0.857529 -3.88242 0
M  V30 2948 N 292.664 1.56529 -0.183458 0
M  V30 2949 C 293.911 1.97244 0.458357 0
M  V30 2950 C 294.239 1.06992 1.62428 0
M  V30 2951 O 293.494 0.106542 1.9541 0
M  V30 2952 C 293.793 3.43939 0.971637 0
M  V30 2953 C 293.459 4.5083 -0.0796784 0
M  V30 2954 C 292.121 4.79786 -0.368584 0
M  V30 2955 C 294.473 5.15138 -0.792638 0
M  V30 2956 C 291.801 5.70345 -1.37563 0
M  V30 2957 C 294.153 6.06784 -1.78875 0
M  V30 2958 C 292.817 6.34102 -2.08497 0
M  V30 2959 H 292.087 0.721768 0.167725 0
M  V30 2960 H 294.734 1.89472 -0.277976 0
M  V30 2961 H 293.039 3.48724 1.78602 0
M  V30 2962 H 294.736 3.72791 1.47744 0
M  V30 2963 H 291.326 4.28317 0.155668 0
M  V30 2964 H 295.51 4.92868 -0.582659 0
M  V30 2965 H 290.766 5.89789 -1.61118 0
M  V30 2966 H 294.94 6.55677 -2.3465 0
M  V30 2967 H 292.567 7.04074 -2.86678 0
M  V30 2968 N 294.142 -0.090211 1.57342 0
M  V30 2969 C 295.39 -0.791241 1.85967 0
M  V30 2970 C 295.711 -1.7903 0.772859 0
M  V30 2971 O 294.981 -1.94872 -0.200398 0
M  V30 2972 H 293.561 -0.295205 0.686195 0
M  V30 2973 H 296.223 -0.0706782 1.94772 0
M  V30 2974 H 295.319 -1.31882 2.82867 0
M  V30 2975 N 295.62 -1.53406 -0.361157 0
M  V30 2976 C 296.845 -1.74024 -1.12829 0
M  V30 2977 C 297.27 -0.470069 -1.82132 0
M  V30 2978 O 296.628 0.57619 -1.719 0
M  V30 2979 C 296.676 -2.90903 -2.13091 0
M  V30 2980 O 295.78 -2.59821 -3.20261 0
M  V30 2981 H 295.121 -0.577804 -0.327168 0
M  V30 2982 H 297.651 -2.00307 -0.41693 0
M  V30 2983 H 297.661 -3.17194 -2.56616 0
M  V30 2984 H 296.336 -3.83034 -1.62042 0
M  V30 2985 H 294.913 -2.44362 -2.81677 0
M  V30 2986 N 297.098 0.621204 -1.44841 0
M  V30 2987 C 298.061 1.71459 -1.521 0
M  V30 2988 C 299.061 1.55696 -0.401933 0
M  V30 2989 O 300.251 1.61011 -0.664925 0
M  V30 2990 C 297.383 3.10624 -1.40447 0
M  V30 2991 H 298.576 1.66394 -2.49506 0
M  V30 2992 H 296.129 0.835745 -1.3208 0
M  V30 2993 H 296.864 3.21277 -0.441737 0
M  V30 2994 H 296.649 3.23473 -2.21602 0
M  V30 2995 H 298.139 3.90293 -1.4853 0
M  V30 2996 N 298.576 1.31904 0.862503 0
M  V30 2997 C 299.804 1.24998 1.64873 0
M  V30 2998 C 300.219 -0.183425 1.87907 0
M  V30 2999 O 299.576 -1.11794 1.44251 0
M  V30 3000 C 299.627 1.99829 3.01248 0
M  V30 3001 O 299.348 3.37575 2.79239 0
M  V30 3002 C 300.849 1.99852 3.95694 0
M  V30 3003 H 298.069 0.431599 0.513773 0
M  V30 3004 H 300.613 1.73901 1.07604 0
M  V30 3005 H 298.768 1.54668 3.55185 0
M  V30 3006 H 299.182 3.75776 3.65914 0
M  V30 3007 H 300.656 2.56709 4.88676 0
M  V30 3008 H 301.133 0.982852 4.28062 0
M  V30 3009 H 301.739 2.44926 3.47694 0
M  V30 3010 N 300.054 -1.07777 1.14986 0
M  V30 3011 C 301.002 -2.16964 0.838406 0
M  V30 3012 C 301.996 -1.68372 -0.186386 0
M  V30 3013 O 303.202 -1.79951 -0.0418465 0
M  V30 3014 H 299.577 -0.708006 0.253439 0
M  V30 3015 H 301.548 -2.40454 1.76704 0
M  V30 3016 C 300.297 -3.4604 0.339335 0
M  V30 3017 H 299.62 -3.83813 1.11927 0
M  V30 3018 H 301.06 -4.23698 0.160021 0
M  V30 3019 C 299.519 -3.23569 -0.938325 0
M  V30 3020 O 300.049 -3.47752 -2.01077 0
M  V30 3021 N 298.255 -2.77079 -0.876117 0
M  V30 3022 H 297.802 -2.576 -0.00322037 0
M  V30 3023 H 297.76 -2.62422 -1.73153 0
M  V30 3024 N 301.532 -0.945985 -1.26051 0
M  V30 3025 C 302.479 -0.45809 -2.26208 0
M  V30 3026 C 303.449 0.484816 -1.58867 0
M  V30 3027 O 304.634 0.399969 -1.86561 0
M  V30 3028 C 301.774 0.266131 -3.44072 0
M  V30 3029 C 300.887 -0.713005 -4.26075 0
M  V30 3030 C 300.022 0.0329013 -5.3119 0
M  V30 3031 C 299.061 -0.93774 -6.04874 0
M  V30 3032 N 298.198 -0.223274 -7.01745 0
M  V30 3033 H 303.038 -1.3171 -2.67313 0
M  V30 3034 H 300.575 -0.66069 -1.31428 0
M  V30 3035 H 302.533 0.702514 -4.11243 0
M  V30 3036 H 301.163 1.08925 -3.03867 0
M  V30 3037 H 300.215 -1.26789 -3.58648 0
M  V30 3038 H 301.527 -1.45406 -4.77136 0
M  V30 3039 H 300.681 0.528335 -6.04395 0
M  V30 3040 H 299.42 0.806801 -4.8098 0
M  V30 3041 H 298.425 -1.44425 -5.30492 0
M  V30 3042 H 299.65 -1.71172 -6.57173 0
M  V30 3043 H 297.596 0.532046 -6.53839 0
M  V30 3044 H 297.513 -0.90357 -7.50581 0
M  V30 3045 H 298.781 0.250907 -7.79096 0
M  V30 3046 N 303.011 1.40521 -0.713556 0
M  V30 3047 C 304.258 2.00923 -0.25219 0
M  V30 3048 C 304.586 1.56571 1.15395 0
M  V30 3049 O 303.841 0.775874 1.79663 0
M  V30 3050 C 304.14 3.56317 -0.278 0
M  V30 3051 C 303.806 4.20246 -1.63415 0
M  V30 3052 C 302.468 4.37422 -2.00538 0
M  V30 3053 C 304.82 4.55923 -2.52554 0
M  V30 3054 C 302.148 4.87558 -3.2635 0
M  V30 3055 C 304.5 5.07458 -3.77716 0
M  V30 3056 C 303.164 5.22843 -4.14959 0
M  V30 3057 H 302.434 0.735231 -0.0922829 0
M  V30 3058 H 305.081 1.68161 -0.916188 0
M  V30 3059 H 303.386 3.88976 0.469567 0
M  V30 3060 H 305.083 4.00883 0.0967819 0
M  V30 3061 H 301.673 4.07263 -1.33546 0
M  V30 3062 H 305.857 4.42291 -2.25149 0
M  V30 3063 H 301.113 4.97654 -3.55176 0
M  V30 3064 H 305.287 5.34041 -4.4696 0
M  V30 3065 H 302.914 5.61454 -5.12516 0
M  V30 3066 N 304.489 0.459591 1.5075 0
M  V30 3067 C 305.419 -0.330644 2.31147 0
M  V30 3068 C 306.4 -1.00087 1.37538 0
M  V30 3069 O 307.585 -1.00025 1.66459 0
M  V30 3070 C 304.715 -1.41958 3.16962 0
M  V30 3071 C 303.669 -0.871608 4.19031 0
M  V30 3072 C 302.995 -2.05797 4.9351 0
M  V30 3073 C 304.295 0.109251 5.22186 0
M  V30 3074 H 305.989 0.340336 2.97459 0
M  V30 3075 H 303.535 0.165119 1.4305 0
M  V30 3076 H 305.488 -1.9798 3.71997 0
M  V30 3077 H 304.212 -2.11917 2.48513 0
M  V30 3078 H 302.871 -0.333442 3.6508 0
M  V30 3079 H 302.519 -2.74427 4.21544 0
M  V30 3080 H 302.219 -1.6976 5.62544 0
M  V30 3081 H 303.743 -2.62331 5.51375 0
M  V30 3082 H 305.157 -0.361405 5.7216 0
M  V30 3083 H 303.554 0.383316 5.98875 0
M  V30 3084 H 304.624 1.03887 4.73641 0
M  V30 3085 N 305.967 -1.56429 0.191757 0
M  V30 3086 C 306.915 -2.20273 -0.747174 0
M  V30 3087 C 307.909 -1.17288 -1.22229 0
M  V30 3088 O 309.115 -1.35441 -1.18557 0
M  V30 3089 H 305.49 -0.705885 -0.259289 0
M  V30 3090 H 307.461 -2.97826 -0.184963 0
M  V30 3091 C 306.21 -2.87356 -1.95759 0
M  V30 3092 H 305.533 -3.66341 -1.60106 0
M  V30 3093 H 306.973 -3.3547 -2.59299 0
M  V30 3094 C 305.432 -1.88213 -2.79423 0
M  V30 3095 O 305.962 -1.38033 -3.7724 0
M  V30 3096 N 304.168 -1.56516 -2.44849 0
M  V30 3097 H 303.715 -1.97516 -1.65364 0
M  V30 3098 H 303.673 -0.904369 -3.01112 0
M  V30 3099 N 307.445 0.0818655 -1.57387 0
M  V30 3100 C 308.856 0.634871 -1.75574 0
M  V30 3101 C 309.207 1.78435 -0.815809 0
M  V30 3102 O 308.332 2.164 0.0025366 0
M  V30 3103 C 308.927 1.15845 -3.18379 0
M  V30 3104 C 307.486 1.65741 -3.37945 0
M  V30 3105 C 306.633 0.572549 -2.71325 0
M  V30 3106 H 309.584 -0.144268 -1.58043 0
M  V30 3107 H 309.605 2.02751 -3.21982 0
M  V30 3108 H 309.117 0.321631 -3.86765 0
M  V30 3109 H 307.218 2.51781 -2.74658 0
M  V30 3110 H 307.331 1.74129 -4.46336 0
M  V30 3111 H 305.695 1.01518 -2.33594 0
M  V30 3112 H 306.478 -0.253918 -3.4236 0
M  V30 3113 N 308.923 1.53595 0.353017 0
M  V30 3114 C 309.855 1.77219 1.45348 0
M  V30 3115 C 310.868 0.65324 1.49119 0
M  V30 3116 O 312.057 0.929775 1.52373 0
M  V30 3117 C 309.157 1.84841 2.84055 0
M  V30 3118 C 308.33 3.14649 3.03833 0
M  V30 3119 C 307.389 3.13351 4.22727 0
M  V30 3120 O 306.415 3.87107 4.17297 0
M  V30 3121 N 307.617 2.35052 5.30783 0
M  V30 3122 H 310.382 2.72178 1.25457 0
M  V30 3123 H 307.943 1.52528 0.542833 0
M  V30 3124 H 309.935 1.81435 3.61751 0
M  V30 3125 H 308.505 0.971114 2.97133 0
M  V30 3126 H 307.725 3.31256 2.13689 0
M  V30 3127 H 309.013 4.00411 3.13925 0
M  V30 3128 H 308.411 1.74663 5.38061 0
M  V30 3129 H 306.968 2.37453 6.07009 0
M  V30 3130 N 310.401 -0.613514 1.45168 0
M  V30 3131 C 311.348 -1.72456 1.53387 0
M  V30 3132 C 312.318 -1.6169 0.380191 0
M  V30 3133 O 313.503 -1.81356 0.592836 0
M  V30 3134 C 310.643 -3.10753 1.50088 0
M  V30 3135 C 309.756 -3.32368 2.75963 0
M  V30 3136 C 308.891 -4.60737 2.64376 0
M  V30 3137 C 307.93 -4.7559 3.85332 0
M  V30 3138 N 307.067 -5.95253 3.72315 0
M  V30 3139 H 311.907 -1.64768 2.48305 0
M  V30 3140 H 309.444 -0.803503 1.23216 0
M  V30 3141 H 311.402 -3.90758 1.46164 0
M  V30 3142 H 310.032 -3.17413 0.587243 0
M  V30 3143 H 309.084 -2.4618 2.89999 0
M  V30 3144 H 310.396 -3.39218 3.65695 0
M  V30 3145 H 309.55 -5.48928 2.58385 0
M  V30 3146 H 308.289 -4.56275 1.72233 0
M  V30 3147 H 307.294 -3.85824 3.91688 0
M  V30 3148 H 308.519 -4.81854 4.78533 0
M  V30 3149 H 306.465 -5.91847 2.82937 0
M  V30 3150 H 306.382 -6.03236 4.55677 0
M  V30 3151 H 307.65 -6.85958 3.70246 0
M  V30 3152 N 311.879 -1.3236 -0.855495 0
M  V30 3153 C 313.156 -1.13491 -1.59309 0
M  V30 3154 C 313.536 0.30503 -2.08885 0
M  V30 3155 O 312.884 1.30151 -1.87811 0
M  V30 3156 C 313.094 -2.16176 -2.73987 0
M  V30 3157 C 314.442 -2.49463 -3.43589 0
M  V30 3158 O 315.466 -2.14715 -2.84211 0
M  V30 3159 O 314.325 -3.09027 -4.50738 0
M  V30 3160 H 311.419 -0.437887 -0.701559 0
M  V30 3161 H 313.965 -1.43887 -0.899696 0
M  V30 3162 H 312.737 -3.1297 -2.34873 0
M  V30 3163 H 312.36 -1.86769 -3.51003 0
M  V30 3164 N 313.357 1.07166 -1.15556 0
M  V30 3165 C 314.605 1.79443 -0.929764 0
M  V30 3166 C 314.926 1.87246 0.544414 0
M  V30 3167 O 314.196 1.37473 1.39564 0
M  V30 3168 H 312.776 0.664625 -0.341003 0
M  V30 3169 H 315.438 1.29499 -1.45657 0
M  V30 3170 H 314.534 2.81832 -1.34079 0
M  V30 3171 N 314.835 0.952656 1.25548 0
M  V30 3172 C 316.081 0.607272 1.93494 0
M  V30 3173 C 316.414 -0.853245 1.74452 0
M  V30 3174 O 315.689 -1.61194 1.08843 0
M  V30 3175 C 315.972 0.96435 3.46947 0
M  V30 3176 C 315.825 2.48045 3.75225 0
M  V30 3177 C 317.144 0.487987 4.37386 0
M  V30 3178 H 314.263 0.222096 0.702739 0
M  V30 3179 H 316.905 1.18895 1.48203 0
M  V30 3180 H 315.055 0.469361 3.85654 0
M  V30 3181 H 316.727 3.04905 3.46166 0
M  V30 3182 H 314.97 2.919 3.209 0
M  V30 3183 H 315.641 2.6808 4.82532 0
M  V30 3184 H 318.117 0.912558 4.0597 0
M  V30 3185 H 316.993 0.766547 5.43521 0
M  V30 3186 H 317.254 -0.612063 4.37843 0
M  V30 3187 N 316.313 -1.40141 0.720998 0
M  V30 3188 C 317.261 -2.3252 0.0608547 0
M  V30 3189 C 318.255 -1.52326 -0.741152 0
M  V30 3190 O 319.461 -1.68089 -0.643911 0
M  V30 3191 H 315.836 -0.751999 0.000876664 0
M  V30 3192 H 317.807 -2.8584 0.856614 0
M  V30 3193 C 316.556 -3.37331 -0.842809 0
M  V30 3194 H 315.879 -3.99108 -0.235084 0
M  V30 3195 H 317.319 -4.04452 -1.27257 0
M  V30 3196 C 315.778 -2.73246 -1.97074 0
M  V30 3197 O 316.308 -2.59998 -3.06209 0
M  V30 3198 N 314.514 -2.31547 -1.75597 0
M  V30 3199 H 314.061 -2.42522 -0.868368 0
M  V30 3200 H 314.019 -1.89007 -2.51244 0
M  V30 3201 N 317.792 -0.46758 -1.50504 0
M  V30 3202 C 319.038 0.0887532 -2.02606 0
M  V30 3203 C 319.371 1.39686 -1.34913 0
M  V30 3204 O 318.646 1.88644 -0.473694 0
M  V30 3205 C 318.929 0.276206 -3.59039 0
M  V30 3206 C 318.782 -1.05267 -4.37309 0
M  V30 3207 C 320.101 1.03235 -4.27821 0
M  V30 3208 H 317.22 0.0307814 -0.736357 0
M  V30 3209 H 319.862 -0.612485 -1.79857 0
M  V30 3210 H 318.012 0.8735 -3.78553 0
M  V30 3211 H 319.684 -1.68628 -4.29374 0
M  V30 3212 H 317.927 -1.65015 -4.01189 0
M  V30 3213 H 318.598 -0.875197 -5.45018 0
M  V30 3214 H 321.074 0.526111 -4.12761 0
M  V30 3215 H 319.95 1.1323 -5.37094 0
M  V30 3216 H 320.211 2.06806 -3.90748 0
M  V30 3217 N 319.27 1.56325 -0.20005 0
M  V30 3218 C 320.516 1.98012 0.438059 0
M  V30 3219 C 320.849 1.08702 1.60927 0
M  V30 3220 O 320.124 0.140064 1.93995 0
M  V30 3221 C 320.407 3.48841 0.893419 0
M  V30 3222 C 320.26 4.48928 -0.279947 0
M  V30 3223 C 321.579 4.03498 1.75719 0
M  V30 3224 H 318.698 0.719918 0.157757 0
M  V30 3225 H 321.34 1.87743 -0.291968 0
M  V30 3226 H 319.49 3.57723 1.51547 0
M  V30 3227 H 321.162 4.52079 -0.91772 0
M  V30 3228 H 319.405 4.23694 -0.930919 0
M  V30 3229 H 320.076 5.5194 0.0812601 0
M  V30 3230 H 322.552 3.97427 1.23253 0
M  V30 3231 H 321.428 5.09393 2.04476 0
M  V30 3232 H 321.689 3.4906 2.71311 0
M  V30 3233 N 320.748 -0.0735177 1.57428 0
M  V30 3234 C 321.658 -1.10547 2.06922 0
M  V30 3235 C 322.674 -1.42506 0.998402 0
M  V30 3236 O 323.85 -1.52717 1.31299 0
M  V30 3237 C 320.915 -2.40019 2.50184 0
M  V30 3238 C 319.976 -2.15046 3.71556 0
M  V30 3239 C 319.209 -3.38345 4.12745 0
M  V30 3240 O 319.432 -4.47399 3.53822 0
M  V30 3241 O 318.366 -3.2666 5.05546 0
M  V30 3242 H 322.192 -0.715013 2.95163 0
M  V30 3243 H 319.777 -0.287531 1.46607 0
M  V30 3244 H 321.659 -3.16218 2.78539 0
M  V30 3245 H 320.334 -2.78447 1.65072 0
M  V30 3246 H 319.241 -1.36558 3.48285 0
M  V30 3247 H 320.574 -1.81499 4.57514 0
M  V30 3248 N 322.226 -1.5378 -0.344866 0
M  V30 3249 C 323.136 -1.84667 -1.4469 0
M  V30 3250 C 324.152 -0.736704 -1.57635 0
M  V30 3251 O 325.328 -1.02888 -1.73136 0
M  V30 3252 C 322.393 -2.04869 -2.79696 0
M  V30 3253 C 321.454 -3.28731 -2.76106 0
M  V30 3254 C 320.687 -3.4796 -4.04673 0
M  V30 3255 O 320.91 -2.71052 -5.01883 0
M  V30 3256 O 319.844 -4.41383 -4.09224 0
M  V30 3257 H 323.67 -2.78334 -1.21506 0
M  V30 3258 H 321.255 -1.39418 -0.536921 0
M  V30 3259 H 323.137 -2.19609 -3.59652 0
M  V30 3260 H 321.812 -1.14391 -3.02814 0
M  V30 3261 H 320.719 -3.19396 -1.94774 0
M  V30 3262 H 322.052 -4.19198 -2.57941 0
M  V30 3263 N 323.704 0.605807 -1.45491 0
M  V30 3264 C 324.614 1.74466 -1.56839 0
M  V30 3265 C 325.63 1.68006 -0.452772 0
M  V30 3266 O 326.806 1.8833 -0.713708 0
M  V30 3267 C 323.871 3.10931 -1.53371 0
M  V30 3268 C 322.932 3.28832 -2.75986 0
M  V30 3269 C 322.165 4.58787 -2.72673 0
M  V30 3270 O 322.388 5.4122 -1.80102 0
M  V30 3271 O 321.322 4.79438 -3.63899 0
M  V30 3272 H 325.148 1.67843 -2.53106 0
M  V30 3273 H 322.733 0.770108 -1.28022 0
M  V30 3274 H 324.615 3.92233 -1.54051 0
M  V30 3275 H 323.29 3.18042 -0.602572 0
M  V30 3276 H 322.197 2.47112 -2.80867 0
M  V30 3277 H 323.53 3.26599 -3.68231 0
M  V30 3278 N 325.182 1.32811 0.848464 0
M  V30 3279 C 326.431 1.23075 1.59798 0
M  V30 3280 C 326.744 -0.204419 1.94529 0
M  V30 3281 O 327.95 -0.423701 2.68173 0
M  V30 3282 C 326.406 2.15594 2.88179 0
M  V30 3283 C 326.014 3.64228 2.60849 0
M  V30 3284 C 327.758 2.14709 3.66197 0
M  V30 3285 C 325.665 4.48689 3.85269 0
M  V30 3286 H 324.595 0.457091 0.599653 0
M  V30 3287 H 327.246 1.57813 0.936342 0
M  V30 3288 H 325.628 1.73778 3.55833 0
M  V30 3289 H 326.802 4.14424 2.01467 0
M  V30 3290 H 325.117 3.67306 1.96151 0
M  V30 3291 H 327.714 2.75046 4.58534 0
M  V30 3292 H 328.057 1.13966 4.00397 0
M  V30 3293 H 328.59 2.54837 3.05455 0
M  V30 3294 H 325.329 5.5027 3.56207 0
M  V30 3295 H 324.849 4.03241 4.44024 0
M  V30 3296 H 326.528 4.62006 4.52946 0
M  V30 3297 N 326.66 -1.06551 1.16123 0
M  V30 3298 C 327.607 -2.13961 0.865414 0
M  V30 3299 C 328.577 -1.65066 -0.185055 0
M  V30 3300 O 329.762 -1.90732 -0.05083 0
M  V30 3301 C 326.902 -3.43113 0.369776 0
M  V30 3302 C 326.015 -4.05756 1.48276 0
M  V30 3303 C 325.15 -5.22773 0.942414 0
M  V30 3304 C 324.189 -5.77395 2.03179 0
M  V30 3305 N 323.326 -6.85731 1.50721 0
M  V30 3306 H 328.166 -2.38605 1.78527 0
M  V30 3307 H 325.703 -1.17072 0.890646 0
M  V30 3308 H 327.661 -4.17151 0.0640643 0
M  V30 3309 H 326.291 -3.18695 -0.513143 0
M  V30 3310 H 325.343 -3.29292 1.9045 0
M  V30 3311 H 326.655 -4.42351 2.30493 0
M  V30 3312 H 325.809 -6.03827 0.589729 0
M  V30 3313 H 324.548 -4.87618 0.0895191 0
M  V30 3314 H 323.553 -4.94981 2.3932 0
M  V30 3315 H 324.778 -6.14603 2.8886 0
M  V30 3316 H 322.724 -6.52499 0.676811 0
M  V30 3317 H 322.641 -7.21254 2.26557 0
M  V30 3318 H 323.909 -7.7047 1.18303 0
M  V30 3319 N 328.138 -0.959301 -1.25041 0
M  V30 3320 C 329.085 -0.482057 -2.2571 0
M  V30 3321 C 330.055 0.467939 -1.59372 0
M  V30 3322 O 331.24 0.380159 -1.86974 0
M  V30 3323 C 328.38 0.229623 -3.44335 0
M  V30 3324 C 327.493 -0.758156 -4.25295 0
M  V30 3325 C 326.628 -0.0234403 -5.31195 0
M  V30 3326 C 325.667 -1.00184 -6.03846 0
M  V30 3327 N 324.804 -0.29769 -7.01469 0
M  V30 3328 H 329.644 -1.34538 -2.65901 0
M  V30 3329 H 327.181 -0.674592 -1.3072 0
M  V30 3330 H 329.139 0.658856 -4.11965 0
M  V30 3331 H 327.769 1.05696 -3.05005 0
M  V30 3332 H 326.821 -1.30586 -3.57284 0
M  V30 3333 H 328.133 -1.50458 -4.75567 0
M  V30 3334 H 327.287 0.464201 -6.04922 0
M  V30 3335 H 326.026 0.755741 -4.81809 0
M  V30 3336 H 325.031 -1.50044 -5.2893 0
M  V30 3337 H 326.256 -1.78133 -6.55321 0
M  V30 3338 H 324.202 0.462668 -6.54366 0
M  V30 3339 H 324.119 -0.983128 -7.4958 0
M  V30 3340 H 325.387 0.16826 -7.79318 0
M  V30 3341 N 329.616 1.39756 -0.72842 0
M  V30 3342 C 330.846 2.04651 -0.283117 0
M  V30 3343 C 331.254 1.5502 1.08469 0
M  V30 3344 O 330.597 0.707343 1.69536 0
M  V30 3345 C 330.659 3.58947 -0.199309 0
M  V30 3346 C 330.323 4.31525 -1.5045 0
M  V30 3347 C 331.32 4.5861 -2.44894 0
M  V30 3348 C 329.005 4.70195 -1.76698 0
M  V30 3349 C 330.999 5.23366 -3.63822 0
M  V30 3350 C 328.686 5.3468 -2.95906 0
M  V30 3351 C 329.684 5.61198 -3.89289 0
M  V30 3352 O 329.372 6.24347 -5.06404 0
M  V30 3353 H 329.104 0.664777 -0.122666 0
M  V30 3354 H 331.658 1.79913 -0.990987 0
M  V30 3355 H 329.888 3.82556 0.56461 0
M  V30 3356 H 331.577 4.0534 0.213125 0
M  V30 3357 H 332.343 4.29187 -2.25883 0
M  V30 3358 H 328.222 4.48916 -1.04859 0
M  V30 3359 H 331.766 5.4398 -4.36728 0
M  V30 3360 H 327.663 5.63524 -3.14819 0
M  V30 3361 H 328.431 6.42842 -5.06652 0
M  V30 3362 N 331.094 0.475555 1.50254 0
M  V30 3363 C 332.322 -0.0754493 2.06762 0
M  V30 3364 C 332.737 -1.33111 1.33891 0
M  V30 3365 O 332.094 -1.77846 0.40952 0
M  V30 3366 C 332.145 -0.359008 3.59713 0
M  V30 3367 O 331.866 0.846851 4.29837 0
M  V30 3368 C 333.367 -0.956484 4.32858 0
M  V30 3369 H 330.587 0.00907525 0.670939 0
M  V30 3370 H 333.131 0.665618 1.93364 0
M  V30 3371 H 331.286 -1.05001 3.72899 0
M  V30 3372 H 331.7 0.594162 5.21124 0
M  V30 3373 H 333.174 -1.10463 5.40834 0
M  V30 3374 H 333.651 -1.94775 3.93649 0
M  V30 3375 H 334.257 -0.303723 4.24214 0
M  V30 3376 N 332.573 -1.56217 0.208337 0
M  V30 3377 C 333.801 -2.02337 -0.43215 0
M  V30 3378 C 334.216 -1.08834 -1.54275 0
M  V30 3379 O 333.573 -0.0955462 -1.8225 0
M  V30 3380 C 333.624 -3.48072 -0.976138 0
M  V30 3381 O 333.345 -4.38007 0.0901621 0
M  V30 3382 C 334.846 -4.09773 -1.69119 0
M  V30 3383 H 332.066 -0.662385 -0.10718 0
M  V30 3384 H 334.61 -2.01966 0.320923 0
M  V30 3385 H 332.765 -3.49099 -1.67954 0
M  V30 3386 H 333.179 -5.23543 -0.316701 0
M  V30 3387 H 334.653 -5.13556 -2.02397 0
M  V30 3388 H 335.13 -3.53999 -2.59964 0
M  V30 3389 H 335.736 -4.12556 -1.03332 0
M  V30 3390 N 334.051 0.0651679 -1.57465 0
M  V30 3391 C 334.981 1.07693 -2.07182 0
M  V30 3392 C 335.962 1.39962 -0.966673 0
M  V30 3393 O 337.147 1.49475 -1.2398 0
M  V30 3394 C 334.277 2.3885 -2.52127 0
M  V30 3395 C 333.231 2.20917 -3.66579 0
M  V30 3396 C 332.557 3.57515 -3.97601 0
M  V30 3397 C 333.857 1.62493 -4.9638 0
M  V30 3398 H 335.551 0.663199 -2.91962 0
M  V30 3399 H 333.097 0.317569 -1.40455 0
M  V30 3400 H 335.05 3.09928 -2.85522 0
M  V30 3401 H 333.774 2.82215 -1.64384 0
M  V30 3402 H 332.433 1.52279 -3.33477 0
M  V30 3403 H 332.081 3.98463 -3.06979 0
M  V30 3404 H 331.781 3.46353 -4.74672 0
M  V30 3405 H 333.305 4.30013 -4.33499 0
M  V30 3406 H 334.719 2.23445 -5.27963 0
M  V30 3407 H 333.116 1.62009 -5.77818 0
M  V30 3408 H 334.186 0.587041 -4.81333 0
M  V30 3409 N 335.529 1.53961 0.336706 0
M  V30 3410 C 336.754 1.75797 1.10046 0
M  V30 3411 C 337.179 0.498985 1.81361 0
M  V30 3412 O 336.537 -0.548769 1.72795 0
M  V30 3413 C 336.585 2.94257 2.08436 0
M  V30 3414 O 335.689 2.64883 3.16087 0
M  V30 3415 H 335.03 0.582936 0.317934 0
M  V30 3416 H 337.56 2.00945 0.38501 0
M  V30 3417 H 337.57 3.21237 2.51537 0
M  V30 3418 H 336.245 3.85564 1.55927 0
M  V30 3419 H 334.822 2.48812 2.77753 0
M  V30 3420 N 337.007 -0.598083 1.45811 0
M  V30 3421 C 338.237 -1.38121 1.53643 0
M  V30 3422 C 338.645 -1.88425 0.171081 0
M  V30 3423 O 337.988 -1.63409 -0.839237 0
M  V30 3424 C 338.05 -2.61432 2.46766 0
M  V30 3425 C 337.714 -2.32702 3.93318 0
M  V30 3426 C 338.711 -1.92479 4.82957 0
M  V30 3427 C 336.396 -2.45321 4.38318 0
M  V30 3428 C 338.39 -1.65248 6.15607 0
M  V30 3429 C 336.077 -2.17703 5.71007 0
M  V30 3430 C 337.075 -1.7773 6.5947 0
M  V30 3431 O 336.763 -1.50441 7.89698 0
M  V30 3432 H 336.495 -0.428863 0.522544 0
M  V30 3433 H 339.049 -0.73557 1.91777 0
M  V30 3434 H 337.279 -3.28749 2.0362 0
M  V30 3435 H 338.968 -3.23487 2.45175 0
M  V30 3436 H 339.734 -1.82258 4.49452 0
M  V30 3437 H 335.613 -2.75399 3.69697 0
M  V30 3438 H 339.157 -1.33973 6.84614 0
M  V30 3439 H 335.054 -2.27544 6.04065 0
M  V30 3440 H 335.822 -1.64415 8.01817 0
M  V30 3441 N 338.485 -1.33259 -0.841409 0
M  V30 3442 C 339.901 -1.12538 -1.13169 0
M  V30 3443 C 340.101 0.0854037 -2.01319 0
M  V30 3444 O 339.157 0.766417 -2.40587 0
M  V30 3445 C 340.47 -2.41156 -1.79623 0
M  V30 3446 C 342.018 -2.47038 -1.922 0
M  V30 3447 C 342.493 -3.7561 -2.6207 0
M  V30 3448 N 343.984 -3.76667 -2.69585 0
M  V30 3449 C 344.719 -4.72861 -3.2433 0
M  V30 3450 N 344.215 -5.79428 -3.79783 0
M  V30 3451 N 346.008 -4.6034 -3.22558 0
M  V30 3452 H 338.159 -2.10868 -0.254676 0
M  V30 3453 H 340.422 -0.931615 -0.175493 0
M  V30 3454 H 340.128 -3.29747 -1.22311 0
M  V30 3455 H 340.002 -2.53114 -2.79666 0
M  V30 3456 H 342.389 -1.58898 -2.48667 0
M  V30 3457 H 342.47 -2.39022 -0.911148 0
M  V30 3458 H 342.114 -4.64131 -2.06263 0
M  V30 3459 H 342.044 -3.80902 -3.63622 0
M  V30 3460 H 344.535 -2.99648 -2.30259 0
M  V30 3461 H 344.848 -6.48867 -4.19752 0
M  V30 3462 H 343.193 -5.83166 -3.78078 0
M  V30 3463 H 346.384 -3.76244 -2.78492 0
M  V30 3464 H 346.557 -5.35478 -3.64921 0
M  V30 3465 N 339.963 1.05934 -1.16686 0
M  V30 3466 C 340.926 2.11669 -0.879144 0
M  V30 3467 C 341.926 1.60294 0.127445 0
M  V30 3468 O 343.116 1.7389 -0.103865 0
M  V30 3469 C 340.248 3.39438 -0.315425 0
M  V30 3470 H 341.441 2.38626 -1.81653 0
M  V30 3471 H 338.994 1.22058 -0.976299 0
M  V30 3472 H 339.729 3.18132 0.629468 0
M  V30 3473 H 339.514 3.78034 -1.04079 0
M  V30 3474 H 341.004 4.17391 -0.132189 0
M  V30 3475 N 341.441 0.965919 1.2453 0
M  V30 3476 C 342.852 0.665929 1.7442 0
M  V30 3477 C 343.203 -0.818407 1.78316 0
M  V30 3478 O 342.328 -1.64037 1.41141 0
M  V30 3479 C 342.923 1.20211 3.16757 0
M  V30 3480 C 341.482 0.952059 3.6416 0
M  V30 3481 C 340.629 1.33848 2.42858 0
M  V30 3482 H 343.58 1.14144 1.10258 0
M  V30 3483 H 343.601 0.567544 3.76244 0
M  V30 3484 H 343.113 2.28244 3.13889 0
M  V30 3485 H 341.214 -0.112821 3.72429 0
M  V30 3486 H 341.327 1.59645 4.51719 0
M  V30 3487 H 339.691 0.756864 2.43195 0
M  V30 3488 H 340.474 2.42827 2.42673 0
M  V30 3489 N 342.919 -1.39368 0.735821 0
M  V30 3490 C 343.829 -2.34395 0.0979693 0
M  V30 3491 C 344.845 -1.58361 -0.720968 0
M  V30 3492 O 346.021 -1.90648 -0.649245 0
M  V30 3493 C 343.086 -3.37393 -0.797916 0
M  V30 3494 C 342.147 -4.29287 0.0333662 0
M  V30 3495 C 341.38 -5.27365 -0.819854 0
M  V30 3496 O 341.603 -5.31959 -2.05855 0
M  V30 3497 O 340.537 -6.01389 -0.248079 0
M  V30 3498 H 344.363 -2.90601 0.882315 0
M  V30 3499 H 341.948 -1.40909 0.4965 0
M  V30 3500 H 343.83 -4.00505 -1.31048 0
M  V30 3501 H 342.505 -2.83571 -1.56106 0
M  V30 3502 H 341.412 -3.69395 0.591475 0
M  V30 3503 H 342.745 -4.86317 0.758752 0
M  V30 3504 N 344.397 -0.483516 -1.5 0
M  V30 3505 C 345.33 0.350427 -2.25493 0
M  V30 3506 C 346.308 0.985549 -1.29328 0
M  V30 3507 O 347.492 1.01906 -1.58579 0
M  V30 3508 C 344.619 1.49202 -3.04066 0
M  V30 3509 C 343.665 0.973036 -4.15252 0
M  V30 3510 S 344.498 -0.122237 -5.3536 0
M  V30 3511 C 345.654 1.02294 -6.17484 0
M  V30 3512 H 345.887 -0.290381 -2.95878 0
M  V30 3513 H 343.42 -0.268562 -1.52046 0
M  V30 3514 H 345.378 2.14623 -3.49925 0
M  V30 3515 H 344.039 2.10438 -2.33183 0
M  V30 3516 H 343.232 1.82804 -4.69679 0
M  V30 3517 H 342.834 0.396335 -3.71894 0
M  V30 3518 H 345.126 1.93195 -6.49371 0
M  V30 3519 H 346.069 0.517664 -7.06205 0
M  V30 3520 H 346.477 1.28238 -5.49741 0
M  V30 3521 N 345.875 1.56104 -0.216619 0
M  V30 3522 C 347.124 1.97348 0.416744 0
M  V30 3523 C 347.437 1.10715 1.6125 0
M  V30 3524 O 348.643 1.41836 2.31506 0
M  V30 3525 C 347.099 3.51059 0.792835 0
M  V30 3526 C 346.707 4.46387 -0.379828 0
M  V30 3527 C 348.451 4.01026 1.39208 0
M  V30 3528 C 346.358 5.91397 0.0184223 0
M  V30 3529 H 345.288 0.736942 0.159475 0
M  V30 3530 H 347.939 1.80827 -0.31205 0
M  V30 3531 H 346.321 3.63162 1.57891 0
M  V30 3532 H 347.495 4.46029 -1.15737 0
M  V30 3533 H 345.81 4.06734 -0.891979 0
M  V30 3534 H 348.407 5.0686 1.70286 0
M  V30 3535 H 348.75 3.46587 2.30614 0
M  V30 3536 H 349.283 3.92125 0.669537 0
M  V30 3537 H 346.022 6.49807 -0.862002 0
M  V30 3538 H 345.542 5.94961 0.760384 0
M  V30 3539 H 347.221 6.45455 0.446818 0
M  V30 3540 N 347.353 -0.0568162 1.57498 0
M  V30 3541 C 348.301 -1.08452 2.05769 0
M  V30 3542 C 349.295 -1.39164 0.965903 0
M  V30 3543 O 350.501 -1.38395 1.15095 0
M  V30 3544 H 346.876 -0.367148 0.656282 0
M  V30 3545 H 348.847 -0.651368 2.91204 0
M  V30 3546 C 347.596 -2.38543 2.52968 0
M  V30 3547 H 346.919 -2.15765 3.36579 0
M  V30 3548 H 348.359 -3.08863 2.90481 0
M  V30 3549 C 346.818 -3.05562 1.41893 0
M  V30 3550 O 347.348 -3.94262 0.769442 0
M  V30 3551 N 345.554 -2.6643 1.16032 0
M  V30 3552 H 345.101 -1.94387 1.6903 0
M  V30 3553 H 345.059 -3.11593 0.419219 0
M  V30 3554 N 348.832 -1.54138 -0.328536 0
M  V30 3555 C 349.762 -1.86167 -1.40939 0
M  V30 3556 C 350.743 -0.718044 -1.54202 0
M  V30 3557 O 351.928 -0.971328 -1.68163 0
M  V30 3558 C 349.058 -2.08461 -2.77779 0
M  V30 3559 C 348.012 -3.24299 -2.7931 0
M  V30 3560 C 347.338 -3.31955 -4.19178 0
M  V30 3561 C 348.638 -4.62065 -2.43502 0
M  V30 3562 H 350.332 -2.76689 -1.14383 0
M  V30 3563 H 347.878 -1.33132 -0.548806 0
M  V30 3564 H 349.831 -2.29453 -3.53454 0
M  V30 3565 H 348.555 -1.14684 -3.05802 0
M  V30 3566 H 347.214 -3.03187 -2.0609 0
M  V30 3567 H 346.862 -2.35745 -4.44335 0
M  V30 3568 H 346.562 -4.09805 -4.2111 0
M  V30 3569 H 348.086 -3.55175 -4.96672 0
M  V30 3570 H 349.5 -4.8297 -3.08889 0
M  V30 3571 H 347.897 -5.42429 -2.56693 0
M  V30 3572 H 348.967 -4.64652 -1.38659 0
M  V30 3573 N 350.31 0.590341 -1.46126 0
M  V30 3574 C 351.54 1.37304 -1.54373 0
M  V30 3575 C 351.948 1.88332 -0.181071 0
M  V30 3576 O 351.291 1.63852 0.830559 0
M  V30 3577 C 351.353 2.6012 -2.48149 0
M  V30 3578 C 351.017 2.30613 -3.94546 0
M  V30 3579 C 352.014 1.89915 -4.83971 0
M  V30 3580 C 349.699 2.42993 -4.39613 0
M  V30 3581 C 351.693 1.61981 -6.16475 0
M  V30 3582 C 349.38 2.14672 -5.72153 0
M  V30 3583 C 350.378 1.7423 -6.60404 0
M  V30 3584 O 350.066 1.46251 -7.90485 0
M  V30 3585 H 349.798 0.426086 -0.524811 0
M  V30 3586 H 352.352 0.72539 -1.92165 0
M  V30 3587 H 350.582 3.27664 -2.05361 0
M  V30 3588 H 352.271 3.22182 -2.46887 0
M  V30 3589 H 353.037 1.79872 -4.50412 0
M  V30 3590 H 348.916 2.73435 -3.71153 0
M  V30 3591 H 352.46 1.30341 -6.85315 0
M  V30 3592 H 348.357 2.24337 -6.05263 0
M  V30 3593 H 349.125 1.6016 -8.02677 0
M  V30 3594 N 351.788 1.33704 0.83433 0
M  V30 3595 C 353.036 1.25169 1.58673 0
M  V30 3596 C 353.357 -0.18127 1.94156 0
M  V30 3597 O 352.627 -1.11113 1.6134 0
M  V30 3598 H 351.207 0.4603 0.58833 0
M  V30 3599 H 353.869 1.67478 0.996847 0
M  V30 3600 H 352.965 1.84856 2.51465 0
M  V30 3601 N 353.266 -1.05314 1.17247 0
M  V30 3602 C 354.514 -1.77941 0.958194 0
M  V30 3603 C 354.835 -1.88089 -0.514556 0
M  V30 3604 O 354.105 -1.39676 -1.37359 0
M  V30 3605 H 352.685 -0.659116 0.351533 0
M  V30 3606 H 355.347 -1.27166 1.47699 0
M  V30 3607 H 354.443 -2.79663 1.38546 0
M  V30 3608 N 354.744 -0.972509 -1.24016 0
M  V30 3609 C 355.691 -0.505969 -2.25186 0
M  V30 3610 C 356.661 0.451009 -1.5986 0
M  V30 3611 O 357.846 0.360307 -1.87367 0
M  V30 3612 C 354.986 0.193089 -3.44559 0
M  V30 3613 C 354.099 -0.803222 -4.24467 0
M  V30 3614 C 353.234 -0.0797793 -5.3114 0
M  V30 3615 C 352.273 -1.06583 -6.02749 0
M  V30 3616 N 351.41 -0.372074 -7.01113 0
M  V30 3617 H 356.25 -1.37351 -2.64459 0
M  V30 3618 H 353.787 -0.688419 -1.29997 0
M  V30 3619 H 355.745 0.615125 -4.1264 0
M  V30 3620 H 354.375 1.02455 -3.06109 0
M  V30 3621 H 353.427 -1.34368 -3.55878 0
M  V30 3622 H 354.739 -1.55494 -4.73944 0
M  V30 3623 H 353.893 0.400015 -6.0538 0
M  V30 3624 H 352.632 0.704597 -4.82583 0
M  V30 3625 H 351.637 -1.55645 -5.27309 0
M  V30 3626 H 352.862 -1.85074 -6.53395 0
M  V30 3627 H 350.808 0.393238 -6.5482 0
M  V30 3628 H 350.725 -1.06258 -7.48495 0
M  V30 3629 H 351.993 0.0855932 -7.79453 0
M  V30 3630 N 356.222 1.38976 -0.743202 0
M  V30 3631 C 357.633 1.83123 -0.363732 0
M  V30 3632 C 357.984 1.6205 1.10609 0
M  V30 3633 O 357.109 1.11606 1.854 0
M  V30 3634 C 357.704 3.32439 -0.653408 0
M  V30 3635 C 356.263 3.74974 -0.327338 0
M  V30 3636 C 355.41 2.61878 -0.911875 0
M  V30 3637 H 358.361 1.27852 -0.940191 0
M  V30 3638 H 358.382 3.80432 0.0720031 0
M  V30 3639 H 357.894 3.47745 -1.72323 0
M  V30 3640 H 355.995 3.65252 0.736314 0
M  V30 3641 H 356.108 4.72106 -0.815631 0
M  V30 3642 H 354.472 2.52448 -0.337944 0
M  V30 3643 H 355.255 2.79987 -1.98651 0
M  V30 3644 N 357.7 0.491464 1.49741 0
M  V30 3645 C 358.949 -0.0582189 2.01616 0
M  V30 3646 C 359.262 -1.38927 1.3769 0
M  V30 3647 O 360.468 -2.02509 1.80838 0
M  V30 3648 C 358.924 -0.154235 3.59569 0
M  V30 3649 C 358.532 1.1696 4.32463 0
M  V30 3650 C 360.276 -0.65479 4.1942 0
M  V30 3651 C 358.183 1.03627 5.8225 0
M  V30 3652 H 357.113 -0.0255317 0.753568 0
M  V30 3653 H 359.764 0.629445 1.72367 0
M  V30 3654 H 358.146 -0.906138 3.85493 0
M  V30 3655 H 359.32 1.93405 4.18248 0
M  V30 3656 H 357.635 1.60285 3.84315 0
M  V30 3657 H 360.232 -0.771903 5.29099 0
M  V30 3658 H 360.575 -1.65127 3.8215 0
M  V30 3659 H 361.108 0.040304 3.9778 0
M  V30 3660 H 357.847 2.00672 6.24028 0
M  V30 3661 H 357.367 0.312546 5.98985 0
M  V30 3662 H 359.046 0.711114 6.4308 0
M  V30 3663 N 359.178 -1.55987 0.224894 0
M  V30 3664 C 360.406 -2.02784 -0.410665 0
M  V30 3665 C 360.821 -1.10464 -1.53112 0
M  V30 3666 O 360.178 -0.114871 -1.82138 0
M  V30 3667 C 360.229 -3.49087 -0.939165 0
M  V30 3668 O 359.95 -4.37887 0.136614 0
M  V30 3669 C 361.451 -4.11543 -1.64763 0
M  V30 3670 H 358.671 -0.663484 -0.100148 0
M  V30 3671 H 361.215 -2.01614 0.342326 0
M  V30 3672 H 359.37 -3.50861 -1.64242 0
M  V30 3673 H 359.784 -5.23849 -0.261155 0
M  V30 3674 H 361.258 -5.15673 -1.96939 0
M  V30 3675 H 361.735 -3.56736 -2.56195 0
M  V30 3676 H 362.341 -4.13629 -0.989503 0
M  V30 3677 N 360.656 0.0484629 -1.57525 0
M  V30 3678 C 361.884 0.755421 -1.92616 0
M  V30 3679 C 362.299 1.69919 -0.822984 0
M  V30 3680 O 361.656 1.81378 0.202085 0
M  V30 3681 C 361.707 1.52915 -3.27566 0
M  V30 3682 O 361.428 0.62329 -4.33644 0
M  V30 3683 C 362.929 2.33502 -3.76818 0
M  V30 3684 H 360.149 0.213465 -0.63614 0
M  V30 3685 H 362.693 0.0117698 -2.04497 0
M  V30 3686 H 360.848 2.22486 -3.17142 0
M  V30 3687 H 361.262 1.16383 -5.11425 0
M  V30 3688 H 362.736 2.83214 -4.73808 0
M  V30 3689 H 363.213 3.14068 -3.07014 0
M  V30 3690 H 363.819 1.69043 -3.90262 0
M  V30 3691 N 362.134 1.5431 0.320358 0
M  V30 3692 C 363.081 1.83918 1.39438 0
M  V30 3693 C 364.051 0.686525 1.51248 0
M  V30 3694 O 365.236 0.933269 1.66417 0
M  V30 3695 C 362.376 2.075 2.75749 0
M  V30 3696 C 361.489 3.35177 2.72544 0
M  V30 3697 C 360.624 3.48704 4.00723 0
M  V30 3698 C 359.663 4.70244 3.91838 0
M  V30 3699 N 358.8 4.80679 5.11754 0
M  V30 3700 H 363.64 2.75544 1.13489 0
M  V30 3701 H 361.177 1.36459 0.549309 0
M  V30 3702 H 363.135 2.19166 3.54996 0
M  V30 3703 H 361.765 1.19163 3 0
M  V30 3704 H 360.817 3.32233 1.85271 0
M  V30 3705 H 362.129 4.24534 2.61863 0
M  V30 3706 H 361.283 3.59928 4.88402 0
M  V30 3707 H 360.022 2.57445 4.14214 0
M  V30 3708 H 359.027 4.59072 3.02544 0
M  V30 3709 H 360.252 5.6289 3.7991 0
M  V30 3710 H 358.198 3.92337 5.25745 0
M  V30 3711 H 358.115 5.64007 5.0342 0
M  V30 3712 H 359.383 4.96239 6.01138 0
M  V30 3713 N 363.613 -0.582584 1.46437 0
M  V30 3714 C 364.576 -1.67366 1.56592 0
M  V30 3715 C 365.576 -1.54575 0.443072 0
M  V30 3716 O 366.766 -1.59191 0.707381 0
M  V30 3717 C 363.898 -3.06791 1.48634 0
M  V30 3718 H 365.091 -1.5972 2.5383 0
M  V30 3719 H 362.644 -0.800432 1.34249 0
M  V30 3720 H 363.379 -3.19993 0.526763 0
M  V30 3721 H 363.164 -3.17484 2.30101 0
M  V30 3722 H 364.654 -3.86218 1.58826 0
M  V30 3723 N 365.091 -1.34144 -0.827227 0
M  V30 3724 C 366.368 -1.16844 -1.56865 0
M  V30 3725 C 366.748 0.260654 -2.09485 0
M  V30 3726 O 366.096 1.26138 -1.9053 0
M  V30 3727 C 366.306 -2.21939 -2.6934 0
M  V30 3728 C 367.654 -2.56695 -3.3822 0
M  V30 3729 O 368.678 -2.20695 -2.79593 0
M  V30 3730 O 367.537 -3.18518 -4.44082 0
M  V30 3731 H 364.631 -0.452669 -0.692112 0
M  V30 3732 H 367.177 -1.45763 -0.868973 0
M  V30 3733 H 365.949 -3.17882 -2.28182 0
M  V30 3734 H 365.572 -1.94172 -3.46962 0
M  V30 3735 N 366.569 1.04691 -1.17803 0
M  V30 3736 C 367.818 1.77176 -0.963931 0
M  V30 3737 C 368.131 1.88888 0.508015 0
M  V30 3738 O 369.337 2.58164 0.840465 0
M  V30 3739 C 367.793 3.18518 -1.67555 0
M  V30 3740 C 367.401 3.14919 -3.18637 0
M  V30 3741 C 369.145 3.95424 -1.54402 0
M  V30 3742 C 367.052 4.51081 -3.82466 0
M  V30 3743 H 365.982 0.664116 -0.357023 0
M  V30 3744 H 368.633 1.17303 -1.4111 0
M  V30 3745 H 367.015 3.78748 -1.15613 0
M  V30 3746 H 368.189 2.64178 -3.77554 0
M  V30 3747 H 366.504 2.51512 -3.31859 0
M  V30 3748 H 369.101 4.96106 -1.99456 0
M  V30 3749 H 369.444 4.13343 -0.495329 0
M  V30 3750 H 369.977 3.41754 -2.0359 0
M  V30 3751 H 366.716 4.38368 -4.87354 0
M  V30 3752 H 366.236 5.01951 -3.28337 0
M  V30 3753 H 367.915 5.2001 -3.84965 0
M  V30 3754 N 368.047 0.979072 1.23499 0
M  V30 3755 C 369.293 0.6578 1.9247 0
M  V30 3756 C 369.648 -0.799746 1.74991 0
M  V30 3757 O 368.941 -1.56922 1.09937 0
M  V30 3758 C 369.135 0.981932 3.43646 0
M  V30 3759 C 368.964 2.46944 3.75831 0
M  V30 3760 C 367.734 3.13119 3.96591 0
M  V30 3761 C 369.932 3.45006 3.81412 0
M  V30 3762 N 367.914 4.51489 4.15969 0
M  V30 3763 C 369.285 4.68778 4.05768 0
M  V30 3764 C 371.34 3.39505 3.64198 0
M  V30 3765 C 370.043 5.87723 4.14697 0
M  V30 3766 C 372.069 4.57814 3.7438 0
M  V30 3767 C 371.431 5.80381 3.99171 0
M  V30 3768 H 367.53 0.291746 0.72554 0
M  V30 3769 H 370.114 1.25626 1.48749 0
M  V30 3770 H 368.285 0.412179 3.86207 0
M  V30 3771 H 370.017 0.618068 3.99953 0
M  V30 3772 H 366.772 2.63619 3.93449 0
M  V30 3773 H 367.196 5.23221 4.29615 0
M  V30 3774 H 371.838 2.45773 3.44029 0
M  V30 3775 H 369.556 6.81874 4.33675 0
M  V30 3776 H 373.142 4.55132 3.62417 0
M  V30 3777 H 372.022 6.70398 4.06861 0
M  V30 3778 N 369.525 -1.3858 0.750561 0
M  V30 3779 C 370.488 -2.28836 0.129152 0
M  V30 3780 C 371.488 -1.47045 -0.650714 0
M  V30 3781 O 372.678 -1.6753 -0.477428 0
M  V30 3782 C 369.81 -3.30751 -0.825622 0
M  V30 3783 H 371.003 -2.85294 0.924516 0
M  V30 3784 H 368.556 -1.47489 0.517376 0
M  V30 3785 H 369.291 -2.79378 -1.64677 0
M  V30 3786 H 369.076 -3.91177 -0.268852 0
M  V30 3787 H 370.566 -3.98249 -1.2565 0
M  V30 3788 N 371.003 -0.499398 -1.49478 0
M  V30 3789 C 371.933 0.269244 -2.31943 0
M  V30 3790 C 372.914 0.964054 -1.40143 0
M  V30 3791 O 374.099 0.955767 -1.69052 0
M  V30 3792 C 371.229 1.33504 -3.20615 0
M  V30 3793 C 370.183 0.760202 -4.21195 0
M  V30 3794 C 369.509 1.9264 -4.98792 0
M  V30 3795 C 370.809 -0.247661 -5.21712 0
M  V30 3796 H 372.503 -0.419082 -2.96452 0
M  V30 3797 H 370.049 -0.202988 -1.42562 0
M  V30 3798 H 372.002 1.88048 -3.77115 0
M  V30 3799 H 370.726 2.05253 -2.54045 0
M  V30 3800 H 369.385 0.23653 -3.65836 0
M  V30 3801 H 369.033 2.63154 -4.28671 0
M  V30 3802 H 368.733 1.54785 -5.66847 0
M  V30 3803 H 370.257 2.4762 -5.58137 0
M  V30 3804 H 371.671 0.209579 -5.72917 0
M  V30 3805 H 370.068 -0.541962 -5.97648 0
M  V30 3806 H 371.138 -1.16409 -4.7072 0
M  V30 3807 N 372.481 1.55866 -0.233164 0
M  V30 3808 C 373.729 1.9821 0.394593 0
M  V30 3809 C 374.05 1.12234 1.59463 0
M  V30 3810 O 373.32 0.201981 1.94856 0
M  V30 3811 H 371.9 0.732034 0.148778 0
M  V30 3812 H 374.562 1.92107 -0.32876 0
M  V30 3813 H 373.658 3.03845 0.713063 0
M  V30 3814 N 373.959 -0.0401083 1.57549 0
M  V30 3815 C 375.199 -0.738098 1.90608 0
M  V30 3816 C 375.563 -1.73107 0.830539 0
M  V30 3817 O 376.764 -2.4765 1.04513 0
M  V30 3818 C 375.035 -1.39985 3.28845 0
M  V30 3819 S 376.594 -2.12852 3.83718 0
M  V30 3820 H 373.412 -0.24477 0.667539 0
M  V30 3821 H 376.014 0.00693599 1.95499 0
M  V30 3822 H 374.718 -0.663775 4.04997 0
M  V30 3823 H 374.249 -2.18366 3.2723 0
M  V30 3824 H 376.264 -3.39842 3.61555 0
M  V30 3825 N 375.437 -1.54477 -0.31217 0
M  V30 3826 C 376.367 -1.87652 -1.38957 0
M  V30 3827 C 377.348 -0.734358 -1.53431 0
M  V30 3828 O 378.533 -0.98911 -1.67123 0
M  V30 3829 C 375.663 -2.11396 -2.75552 0
M  V30 3830 C 374.617 -3.27243 -2.75855 0
M  V30 3831 C 373.943 -3.36382 -4.15633 0
M  V30 3832 C 375.243 -4.64622 -2.38587 0
M  V30 3833 H 376.937 -2.77887 -1.11442 0
M  V30 3834 H 374.483 -1.33707 -0.534655 0
M  V30 3835 H 376.436 -2.33189 -3.51 0
M  V30 3836 H 375.16 -1.17921 -3.04569 0
M  V30 3837 H 373.819 -3.05356 -2.02863 0
M  V30 3838 H 373.467 -2.40445 -4.41809 0
M  V30 3839 H 373.167 -4.14249 -4.1674 0
M  V30 3840 H 374.691 -3.60422 -4.92877 0
M  V30 3841 H 376.105 -4.86219 -3.03749 0
M  V30 3842 H 374.502 -5.45121 -2.50925 0
M  V30 3843 H 375.572 -4.66097 -1.33723 0
M  V30 3844 N 376.915 0.57481 -1.46744 0
M  V30 3845 C 377.845 1.69337 -1.60771 0
M  V30 3846 C 378.826 1.63825 -0.457736 0
M  V30 3847 O 380.011 1.8172 -0.684947 0
M  V30 3848 C 377.141 3.0798 -1.60517 0
M  V30 3849 C 376.095 3.28327 -2.74564 0
M  V30 3850 C 375.421 4.67578 -2.59373 0
M  V30 3851 C 376.721 3.15398 -4.16319 0
M  V30 3852 H 378.415 1.57853 -2.54407 0
M  V30 3853 H 375.961 0.75799 -1.22436 0
M  V30 3854 H 377.914 3.86061 -1.68923 0
M  V30 3855 H 376.638 3.20381 -0.634305 0
M  V30 3856 H 375.297 2.52649 -2.65639 0
M  V30 3857 H 374.945 4.76755 -1.60353 0
M  V30 3858 H 374.645 4.82144 -3.35873 0
M  V30 3859 H 376.169 5.47817 -2.69682 0
M  V30 3860 H 377.583 3.83315 -4.26313 0
M  V30 3861 H 375.98 3.41482 -4.93468 0
M  V30 3862 H 377.05 2.12372 -4.3592 0
M  V30 3863 N 378.394 1.34581 0.820102 0
M  V30 3864 C 379.624 1.29991 1.6058 0
M  V30 3865 C 380.032 -0.127588 1.88769 0
M  V30 3866 O 379.375 -1.08595 1.48165 0
M  V30 3867 C 379.437 2.02548 2.9701 0
M  V30 3868 C 379.101 3.51794 2.91701 0
M  V30 3869 C 380.098 4.46647 2.66087 0
M  V30 3870 C 377.783 3.94249 3.11245 0
M  V30 3871 C 379.777 5.81929 2.60071 0
M  V30 3872 C 377.464 5.2963 3.04853 0
M  V30 3873 C 378.462 6.23282 2.793 0
M  V30 3874 O 378.15 7.56181 2.72847 0
M  V30 3875 H 377.882 0.448539 0.505756 0
M  V30 3876 H 380.436 1.77811 1.02822 0
M  V30 3877 H 378.666 1.49345 3.56697 0
M  V30 3878 H 380.355 1.91211 3.58041 0
M  V30 3879 H 381.121 4.15168 2.5072 0
M  V30 3880 H 377 3.21749 3.30149 0
M  V30 3881 H 380.544 6.54999 2.40046 0
M  V30 3882 H 376.441 5.60727 3.19774 0
M  V30 3883 H 377.209 7.6595 2.88553 0
M  V30 3884 N 379.872 -1.04064 1.18357 0
M  V30 3885 C 380.819 -2.12077 0.910603 0
M  V30 3886 C 381.789 -1.65421 -0.15 0
M  V30 3887 O 382.974 -1.90797 -0.0103614 0
M  V30 3888 C 380.114 -3.42252 0.442472 0
M  V30 3889 C 379.227 -4.0252 1.5685 0
M  V30 3890 C 378.362 -5.20657 1.05309 0
M  V30 3891 C 377.401 -5.72955 2.1538 0
M  V30 3892 N 376.538 -6.8238 1.65233 0
M  V30 3893 H 381.378 -2.34764 1.83548 0
M  V30 3894 H 378.915 -1.15157 0.915279 0
M  V30 3895 H 380.873 -4.16921 0.152534 0
M  V30 3896 H 379.503 -3.19712 -0.445428 0
M  V30 3897 H 378.555 -3.25178 1.97391 0
M  V30 3898 H 379.867 -4.37362 2.39824 0
M  V30 3899 H 379.021 -6.0244 0.717677 0
M  V30 3900 H 377.76 -4.87318 0.19293 0
M  V30 3901 H 376.765 -4.89793 2.49766 0
M  V30 3902 H 377.99 -6.08337 3.01832 0
M  V30 3903 H 375.936 -6.50917 0.815064 0
M  V30 3904 H 375.853 -7.16286 2.41805 0
M  V30 3905 H 377.121 -7.67788 1.34619 0
M  V30 3906 N 381.35 -0.985608 -1.22978 0
M  V30 3907 C 382.28 -0.549649 -2.26939 0
M  V30 3908 C 383.261 0.419803 -1.64838 0
M  V30 3909 O 384.446 0.31203 -1.91677 0
M  V30 3910 C 381.576 0.143652 -3.47003 0
M  V30 3911 C 380.53 -0.743606 -4.21491 0
M  V30 3912 C 379.856 0.0822027 -5.34637 0
M  V30 3913 C 381.156 -2.03694 -4.80943 0
M  V30 3914 H 382.85 -1.41862 -2.63658 0
M  V30 3915 H 380.396 -0.683571 -1.26741 0
M  V30 3916 H 382.349 0.459985 -4.18882 0
M  V30 3917 H 381.073 1.04711 -3.09359 0
M  V30 3918 H 379.732 -1.04347 -3.51436 0
M  V30 3919 H 379.38 0.986359 -4.93234 0
M  V30 3920 H 379.08 -0.508377 -5.85397 0
M  V30 3921 H 380.604 0.392797 -6.09335 0
M  V30 3922 H 382.018 -1.78504 -5.44802 0
M  V30 3923 H 380.415 -2.57573 -5.42011 0
M  V30 3924 H 381.485 -2.72042 -4.01399 0
M  V30 3925 N 382.828 1.3818 -0.7579 0
M  V30 3926 C 384.068 2.01864 -0.320968 0
M  V30 3927 C 384.432 1.58863 1.07827 0
M  V30 3928 O 385.633 2.14908 1.61456 0
M  V30 3929 C 383.904 3.54626 -0.44446 0
M  V30 3930 S 385.463 4.38706 -0.0907467 0
M  V30 3931 H 382.281 0.700056 -0.124268 0
M  V30 3932 H 384.883 1.68611 -0.989468 0
M  V30 3933 H 383.587 3.83411 -1.4637 0
M  V30 3934 H 383.118 3.92661 0.241073 0
M  V30 3935 H 385.133 4.83435 1.11826 0
M  V30 3936 N 384.306 0.507319 1.49211 0
M  V30 3937 C 385.553 -0.0349529 2.0247 0
M  V30 3938 C 385.881 -1.36409 1.38647 0
M  V30 3939 O 385.136 -1.88841 0.513566 0
M  V30 3940 C 385.435 -0.229513 3.56662 0
M  V30 3941 C 385.101 1.02241 4.39156 0
M  V30 3942 C 383.763 1.36557 4.61417 0
M  V30 3943 C 386.115 1.85428 4.871 0
M  V30 3944 C 383.443 2.53999 5.28868 0
M  V30 3945 C 385.795 3.02028 5.55843 0
M  V30 3946 C 384.459 3.36717 5.76349 0
M  V30 3947 H 383.729 -0.0127902 0.74089 0
M  V30 3948 H 386.376 0.668756 1.79443 0
M  V30 3949 H 384.681 -1.0158 3.78403 0
M  V30 3950 H 386.378 -0.663641 3.9547 0
M  V30 3951 H 382.968 0.745124 4.22073 0
M  V30 3952 H 387.152 1.6023 4.69723 0
M  V30 3953 H 382.408 2.81105 5.42946 0
M  V30 3954 H 386.582 3.66808 5.91967 0
M  V30 3955 H 384.209 4.27821 6.28389 0
M  V30 3956 N 385.784 -1.5574 0.241426 0
M  V30 3957 C 387.031 -1.9881 -0.384836 0
M  V30 3958 C 387.359 -1.12947 -1.58346 0
M  V30 3959 O 386.614 -0.178993 -1.9488 0
M  V30 3960 C 386.913 -3.47308 -0.843317 0
M  V30 3961 C 386.579 -4.50223 0.246946 0
M  V30 3962 C 385.241 -4.78088 0.546399 0
M  V30 3963 C 387.593 -5.11841 0.983282 0
M  V30 3964 C 384.921 -5.64846 1.58636 0
M  V30 3965 C 387.273 -5.99727 2.01272 0
M  V30 3966 C 385.937 -6.25927 2.31888 0
M  V30 3967 H 385.207 -0.727496 -0.140821 0
M  V30 3968 H 387.854 -1.8831 0.348106 0
M  V30 3969 H 386.159 -3.55112 -1.65537 0
M  V30 3970 H 387.856 -3.78017 -1.33806 0
M  V30 3971 H 384.446 -4.286 0.00340639 0
M  V30 3972 H 388.63 -4.90366 0.765182 0
M  V30 3973 H 383.886 -5.83403 1.82896 0
M  V30 3974 H 388.06 -6.46517 2.58823 0
M  V30 3975 H 385.687 -6.92949 3.12611 0
M  V30 3976 N 387.262 0.0317525 -1.57568 0
M  V30 3977 C 388.49 0.734949 -1.93407 0
M  V30 3978 C 388.905 1.69036 -0.84096 0
M  V30 3979 O 388.262 1.81582 0.182836 0
M  V30 3980 C 388.313 1.49432 -3.29169 0
M  V30 3981 O 388.034 0.577261 -4.3428 0
M  V30 3982 C 389.535 2.29492 -3.79273 0
M  V30 3983 H 386.755 0.206706 -0.638368 0
M  V30 3984 H 389.299 -0.00992046 -2.04498 0
M  V30 3985 H 387.454 2.1911 -3.19483 0
M  V30 3986 H 387.868 1.10952 -5.1263 0
M  V30 3987 H 389.342 2.78172 -4.76785 0
M  V30 3988 H 389.819 3.10794 -3.10328 0
M  V30 3989 H 390.425 1.64894 -3.92033 0
M  V30 3990 N 388.74 1.54641 0.303973 0
M  V30 3991 C 389.67 1.88386 1.3796 0
M  V30 3992 C 390.651 0.742485 1.5304 0
M  V30 3993 O 391.836 0.997959 1.66597 0
M  V30 3994 C 388.966 2.12854 2.74427 0
M  V30 3995 C 387.92 3.28702 2.74115 0
M  V30 3996 C 387.246 3.38582 4.13844 0
M  V30 3997 C 388.546 4.65881 2.3612 0
M  V30 3998 H 390.24 2.78474 1.09966 0
M  V30 3999 H 387.786 1.33988 0.527556 0
M  V30 4000 H 389.739 2.35047 3.49758 0
M  V30 4001 H 388.463 1.19535 3.03939 0
M  V30 4002 H 387.122 3.06428 2.0124 0
M  V30 4003 H 386.77 2.42784 4.40528 0
M  V30 4004 H 386.47 4.16453 4.14537 0
M  V30 4005 H 387.994 3.63031 4.90959 0
M  V30 4006 H 389.408 4.87823 3.01167 0
M  V30 4007 H 387.805 5.46444 2.48031 0
M  V30 4008 H 388.875 4.66799 1.3125 0
M  V30 4009 N 390.218 -0.567019 1.47046 0
M  V30 4010 C 391.629 -1.14916 1.47143 0
M  V30 4011 C 391.98 -1.94954 0.220767 0
M  V30 4012 O 391.105 -2.05602 -0.67505 0
M  V30 4013 C 391.7 -2.09069 2.666 0
M  V30 4014 C 390.259 -2.62575 2.69687 0
M  V30 4015 C 389.406 -1.38755 2.40088 0
M  V30 4016 H 392.357 -0.354126 1.54699 0
M  V30 4017 H 392.378 -2.92789 2.43011 0
M  V30 4018 H 391.89 -1.50789 3.57609 0
M  V30 4019 H 389.991 -3.24681 1.82792 0
M  V30 4020 H 390.104 -3.04239 3.70102 0
M  V30 4021 H 388.468 -1.69098 1.90468 0
M  V30 4022 H 389.251 -0.822822 3.33293 0
M  V30 4023 N 391.696 -1.35014 -0.812953 0
M  V30 4024 C 392.943 -1.27931 -1.56971 0
M  V30 4025 C 393.271 0.148034 -1.93936 0
M  V30 4026 O 392.526 1.11175 -1.61054 0
M  V30 4027 C 392.825 -2.12524 -2.87347 0
M  V30 4028 C 392.491 -3.61401 -2.6963 0
M  V30 4029 C 391.153 -4.01983 -2.64506 0
M  V30 4030 C 393.505 -4.55894 -2.52607 0
M  V30 4031 C 390.833 -5.35235 -2.40293 0
M  V30 4032 C 393.185 -5.89336 -2.29925 0
M  V30 4033 C 391.849 -6.2907 -2.23219 0
M  V30 4034 H 391.119 -0.468131 -0.574399 0
M  V30 4035 H 393.766 -1.66851 -0.939836 0
M  V30 4036 H 392.071 -1.66463 -3.54679 0
M  V30 4037 H 393.768 -2.04383 -3.45005 0
M  V30 4038 H 390.358 -3.29193 -2.74463 0
M  V30 4039 H 394.542 -4.25431 -2.55583 0
M  V30 4040 H 389.798 -5.65028 -2.33566 0
M  V30 4041 H 393.972 -6.62139 -2.15743 0
M  V30 4042 H 391.599 -7.32256 -2.04219 0
M  V30 4043 N 393.175 1.03435 -1.18907 0
M  V30 4044 C 394.423 1.76394 -0.986382 0
M  V30 4045 C 394.744 1.88883 0.484567 0
M  V30 4046 O 394.014 1.41843 1.3512 0
M  V30 4047 H 392.594 0.65344 -0.361975 0
M  V30 4048 H 395.256 1.248 -1.49703 0
M  V30 4049 H 394.352 2.77424 -1.42978 0
M  V30 4050 N 394.653 0.992116 1.22453 0
M  V30 4051 C 395.563 0.55065 2.28046 0
M  V30 4052 C 396.579 -0.400189 1.69335 0
M  V30 4053 O 397.755 -0.267215 1.99619 0
M  V30 4054 C 394.82 -0.128496 3.46462 0
M  V30 4055 C 393.881 0.865208 4.20491 0
M  V30 4056 C 393.114 0.218377 5.33253 0
M  V30 4057 O 393.337 -0.987894 5.6178 0
M  V30 4058 O 392.271 0.922845 5.94783 0
M  V30 4059 H 396.097 1.4291 2.67975 0
M  V30 4060 H 393.682 0.760326 1.28606 0
M  V30 4061 H 395.564 -0.508947 4.18315 0
M  V30 4062 H 394.239 -0.981526 3.0846 0
M  V30 4063 H 393.146 1.29658 3.50913 0
M  V30 4064 H 394.479 1.68741 4.62371 0
M  V30 4065 N 396.131 -1.37776 0.765217 0
M  V30 4066 C 397.356 -2.04651 0.336537 0
M  V30 4067 C 397.781 -1.57337 -1.03086 0
M  V30 4068 O 397.139 -0.730621 -1.65927 0
M  V30 4069 C 397.187 -3.58577 0.381468 0
M  V30 4070 O 396.291 -4.07706 -0.62042 0
M  V30 4071 H 395.632 -0.64756 0.146838 0
M  V30 4072 H 398.162 -1.76221 1.03959 0
M  V30 4073 H 398.172 -4.07314 0.236448 0
M  V30 4074 H 396.847 -3.9237 1.37907 0
M  V30 4075 H 395.424 -3.70306 -0.439056 0
M  V30 4076 N 397.609 -0.515225 -1.4894 0
M  V30 4077 C 398.541 0.292481 -2.27326 0
M  V30 4078 C 399.554 0.917838 -1.3446 0
M  V30 4079 O 400.743 0.798772 -1.5963 0
M  V30 4080 C 397.843 1.42803 -3.07344 0
M  V30 4081 C 397.016 0.907347 -4.27885 0
M  V30 4082 C 396.075 1.92222 -4.89834 0
M  V30 4083 O 395.101 1.48506 -5.49486 0
M  V30 4084 N 396.303 3.25355 -4.80754 0
M  V30 4085 H 399.068 -0.379721 -2.97285 0
M  V30 4086 H 396.629 -0.348638 -1.58102 0
M  V30 4087 H 398.621 2.10481 -3.45658 0
M  V30 4088 H 397.191 2.00414 -2.39902 0
M  V30 4089 H 396.411 0.0550218 -3.94162 0
M  V30 4090 H 397.699 0.538108 -5.05946 0
M  V30 4091 H 397.097 3.6355 -4.33414 0
M  V30 4092 H 395.654 3.88707 -5.23211 0
M  V30 4093 N 399.087 1.5561 -0.249682 0
M  V30 4094 C 400.333 1.99306 0.374841 0
M  V30 4095 C 400.666 1.13767 1.57387 0
M  V30 4096 O 399.941 0.201711 1.93451 0
M  V30 4097 C 400.224 3.51507 0.781986 0
M  V30 4098 C 400.077 4.4781 -0.422629 0
M  V30 4099 C 401.396 4.08884 1.62793 0
M  V30 4100 H 398.515 0.724572 0.134773 0
M  V30 4101 H 401.157 1.86719 -0.351549 0
M  V30 4102 H 399.307 3.62363 1.4009 0
M  V30 4103 H 400.979 4.48931 -1.06108 0
M  V30 4104 H 399.222 4.20518 -1.06524 0
M  V30 4105 H 399.893 5.51919 -0.0943766 0
M  V30 4106 H 402.369 4.01147 1.10547 0
M  V30 4107 H 401.245 5.1564 1.88166 0
M  V30 4108 H 401.506 3.57515 2.60068 0
M  V30 4109 N 400.565 -0.0233959 1.57583 0
M  V30 4110 C 401.528 -1.00693 2.05897 0
M  V30 4111 C 402.528 -1.28693 0.964092 0
M  V30 4112 O 403.718 -1.23602 1.22753 0
M  V30 4113 C 400.85 -2.33825 2.4807 0
M  V30 4114 H 402.043 -0.589476 2.9405 0
M  V30 4115 H 399.596 -0.270354 1.53944 0
M  V30 4116 H 400.331 -2.80307 1.6309 0
M  V30 4117 H 400.116 -2.1483 3.2801 0
M  V30 4118 H 401.606 -3.04426 2.85857 0
M  V30 4119 N 402.043 -1.548 -0.295768 0
M  V30 4120 C 403.292 -1.73538 -1.02798 0
M  V30 4121 C 403.605 -0.531159 -1.8825 0
M  V30 4122 O 404.811 -0.600458 -2.64777 0
M  V30 4123 C 403.267 -3.07051 -1.87744 0
M  V30 4124 C 402.875 -4.34968 -1.07269 0
M  V30 4125 C 404.619 -3.35146 -2.60533 0
M  V30 4126 C 402.526 -5.5953 -1.91521 0
M  V30 4127 H 401.456 -0.646794 -0.387522 0
M  V30 4128 H 404.107 -1.81278 -0.284718 0
M  V30 4129 H 402.489 -2.93289 -2.66078 0
M  V30 4130 H 403.663 -4.5958 -0.335117 0
M  V30 4131 H 401.978 -4.13847 -0.460384 0
M  V30 4132 H 404.575 -4.2541 -3.23929 0
M  V30 4133 H 404.918 -2.54255 -3.29636 0
M  V30 4134 H 405.451 -3.49902 -1.89244 0
M  V30 4135 H 402.19 -6.43103 -1.26878 0
M  V30 4136 H 401.71 -5.39096 -2.62937 0
M  V30 4137 H 403.389 -5.96982 -2.49442 0
M  V30 4138 N 403.521 0.559213 -1.47345 0
M  V30 4139 C 404.761 1.32728 -1.55444 0
M  V30 4140 C 405.125 1.90838 -0.210895 0
M  V30 4141 O 406.326 2.68282 -0.166719 0
M  V30 4142 C 404.597 2.4092 -2.63993 0
M  V30 4143 S 406.156 3.2784 -2.91661 0
M  V30 4144 H 402.974 0.451883 -0.548929 0
M  V30 4145 H 405.576 0.640404 -1.84714 0
M  V30 4146 H 404.28 1.9666 -3.60212 0
M  V30 4147 H 403.811 3.14351 -2.36531 0
M  V30 4148 H 405.826 4.40341 -2.28722 0
M  V30 4149 N 404.999 1.35443 0.805782 0
M  V30 4150 C 406.276 1.19325 1.54987 0
M  V30 4151 C 406.656 -0.227294 2.09873 0
M  V30 4152 O 406.004 -1.2309 1.92512 0
M  V30 4153 C 406.214 2.26196 2.65775 0
M  V30 4154 C 407.562 2.62043 3.34094 0
M  V30 4155 O 408.586 2.25115 2.76046 0
M  V30 4156 O 407.445 3.25542 4.38958 0
M  V30 4157 H 404.539 0.463623 0.684823 0
M  V30 4158 H 407.085 1.47127 0.845674 0
M  V30 4159 H 405.857 3.21471 2.23096 0
M  V30 4160 H 405.48 1.99667 3.43829 0
M  V30 4161 N 406.477 -1.02803 1.19454 0
M  V30 4162 C 407.725 -1.75869 0.995722 0
M  V30 4163 C 408.046 -1.89138 -0.474543 0
M  V30 4164 O 407.316 -1.42558 -1.34366 0
M  V30 4165 H 405.896 -0.651511 0.365435 0
M  V30 4166 H 408.558 -1.24004 1.50363 0
M  V30 4167 H 407.654 -2.76661 1.44447 0
M  V30 4168 N 407.956 -0.998596 -1.21925 0
M  V30 4169 C 408.904 -0.546641 -2.26085 0
M  V30 4170 C 409.898 0.405576 -1.64473 0
M  V30 4171 O 411.104 0.277471 -1.77849 0
M  V30 4172 H 407.479 -0.158403 -0.735127 0
M  V30 4173 H 409.45 -1.43645 -2.61551 0
M  V30 4174 C 408.199 0.117388 -3.47502 0
M  V30 4175 H 407.522 -0.606277 -3.95176 0
M  V30 4176 H 408.962 0.396993 -4.22137 0
M  V30 4177 C 407.421 1.35455 -3.0847 0
M  V30 4178 O 407.951 2.44944 -3.18379 0
M  V30 4179 N 406.157 1.23191 -2.63196 0
M  V30 4180 H 405.704 0.341006 -2.55333 0
M  V30 4181 H 405.662 2.06071 -2.37449 0
M  V30 4182 N 409.434 1.37368 -0.772513 0
M  V30 4183 C 410.681 1.99673 -0.337182 0
M  V30 4184 C 411.009 1.61324 1.0865 0
M  V30 4185 O 410.264 0.851377 1.7621 0
M  V30 4186 C 410.563 3.54817 -0.428876 0
M  V30 4187 C 410.229 4.12936 -1.81092 0
M  V30 4188 C 408.891 4.28523 -2.1891 0
M  V30 4189 C 411.243 4.44801 -2.71664 0
M  V30 4190 C 408.571 4.73277 -3.46735 0
M  V30 4191 C 410.923 4.90981 -3.98899 0
M  V30 4192 C 409.587 5.04773 -4.36761 0
M  V30 4193 H 408.857 0.730656 -0.123384 0
M  V30 4194 H 411.504 1.64124 -0.986686 0
M  V30 4195 H 409.809 3.90618 0.304167 0
M  V30 4196 H 411.506 4.00933 -0.0733334 0
M  V30 4197 H 408.096 4.01233 -1.50699 0
M  V30 4198 H 412.28 4.32344 -2.43706 0
M  V30 4199 H 407.536 4.82142 -3.75964 0
M  V30 4200 H 411.71 5.14603 -4.69208 0
M  V30 4201 H 409.337 5.39211 -5.35868 0
M  V30 4202 N 410.912 0.523116 1.48665 0
M  V30 4203 C 412.14 -0.0096312 2.06898 0
M  V30 4204 C 412.555 -1.28784 1.38059 0
M  V30 4205 O 411.912 -1.76453 0.465893 0
M  V30 4206 C 411.963 -0.244386 3.60673 0
M  V30 4207 O 411.684 0.983172 4.26925 0
M  V30 4208 C 413.185 -0.818289 4.35682 0
M  V30 4209 H 410.405 0.0304161 0.67031 0
M  V30 4210 H 412.949 0.726799 1.91149 0
M  V30 4211 H 411.104 -0.930847 3.76051 0
M  V30 4212 H 411.518 0.759653 5.1897 0
M  V30 4213 H 412.992 -0.93201 5.44075 0
M  V30 4214 H 413.469 -1.82153 3.99646 0
M  V30 4215 H 414.075 -0.168609 4.24966 0
M  V30 4216 N 412.39 -1.55475 0.257931 0
M  V30 4217 C 413.639 -1.98383 -0.364275 0
M  V30 4218 C 413.952 -1.14952 -1.58258 0
M  V30 4219 O 415.158 -1.47924 -2.27664 0
M  V30 4220 C 413.614 -3.53037 -0.699479 0
M  V30 4221 C 413.222 -4.45223 0.498046 0
M  V30 4222 C 414.966 -4.04575 -1.28526 0
M  V30 4223 C 412.873 -5.91238 0.138383 0
M  V30 4224 H 411.803 -0.740911 -0.13988 0
M  V30 4225 H 414.454 -1.79936 0.359883 0
M  V30 4226 H 412.836 -3.6722 -1.48207 0
M  V30 4227 H 414.01 -4.42803 1.27522 0
M  V30 4228 H 412.325 -4.04226 0.999503 0
M  V30 4229 H 414.922 -5.11196 -1.56788 0
M  V30 4230 H 415.265 -3.5258 -2.21344 0
M  V30 4231 H 415.798 -3.93762 -0.565337 0
M  V30 4232 H 412.537 -6.47294 1.03398 0
M  V30 4233 H 412.057 -5.96768 -0.602374 0
M  V30 4234 H 413.736 -6.46413 -0.27553 0
M  V30 4235 N 413.868 0.0150385 -1.57593 0
M  V30 4236 C 415.279 0.559832 -1.78109 0
M  V30 4237 C 415.63 1.74814 -0.890756 0
M  V30 4238 O 414.755 2.16216 -0.0892482 0
M  V30 4239 C 415.35 1.02238 -3.23006 0
M  V30 4240 C 413.909 1.51258 -3.44671 0
M  V30 4241 C 413.056 0.456955 -2.73509 0
M  V30 4242 H 416.007 -0.211169 -1.57289 0
M  V30 4243 H 416.028 1.88912 -3.30292 0
M  V30 4244 H 415.54 0.157302 -3.87781 0
M  V30 4245 H 413.641 2.39905 -2.8509 0
M  V30 4246 H 413.754 1.55042 -4.5332 0
M  V30 4247 H 412.118 0.915196 -2.37689 0
M  V30 4248 H 412.901 -0.398896 -3.40975 0
M  V30 4249 N 415.346 1.54954 0.287554 0
M  V30 4250 C 416.623 1.65569 1.04146 0
M  V30 4251 C 417.003 0.512672 2.0478 0
M  V30 4252 O 416.351 -0.489038 2.23205 0
M  V30 4253 C 416.561 3.04163 1.71131 0
M  V30 4254 C 417.909 3.61429 2.22832 0
M  V30 4255 O 418.933 3.06702 1.81141 0
M  V30 4256 O 417.792 4.57281 2.9926 0
M  V30 4257 H 414.886 0.671881 0.482188 0
M  V30 4258 H 417.432 1.67297 0.28457 0
M  V30 4259 H 416.204 3.78796 0.981303 0
M  V30 4260 H 415.827 3.06271 2.53543 0
M  V30 4261 N 416.824 -0.551391 1.4764 0
M  V30 4262 C 417.772 -1.67896 1.60978 0
M  V30 4263 C 418.766 -1.62549 0.476877 0
M  V30 4264 O 419.972 -1.67664 0.654878 0
M  V30 4265 H 416.347 -0.555649 0.506713 0
M  V30 4266 H 418.318 -1.53784 2.55721 0
M  V30 4267 C 417.067 -3.06234 1.64669 0
M  V30 4268 H 416.39 -3.11033 2.51194 0
M  V30 4269 H 417.83 -3.84804 1.7805 0
M  V30 4270 C 416.289 -3.34737 0.381115 0
M  V30 4271 O 416.819 -3.98381 -0.515297 0
M  V30 4272 N 415.025 -2.8944 0.259354 0
M  V30 4273 H 414.572 -2.37827 0.98976 0
M  V30 4274 H 414.53 -3.08882 -0.586464 0
M  V30 4275 N 418.302 -1.35869 -0.798587 0
M  V30 4276 C 419.527 -1.32883 -1.59238 0
M  V30 4277 C 419.952 0.0894587 -1.87887 0
M  V30 4278 O 419.31 1.05869 -1.47178 0
M  V30 4279 C 419.358 -2.14892 -2.89575 0
M  V30 4280 O 418.462 -1.53512 -3.82763 0
M  V30 4281 H 417.803 -0.455236 -0.48338 0
M  V30 4282 H 420.333 -1.79024 -0.990539 0
M  V30 4283 H 420.343 -2.27139 -3.38928 0
M  V30 4284 H 419.018 -3.17998 -2.68049 0
M  V30 4285 H 417.595 -1.50153 -3.41334 0
M  V30 4286 N 419.78 1.02168 -1.19998 0
M  V30 4287 C 421.196 1.27969 -0.953737 0
M  V30 4288 C 421.396 1.98079 0.369703 0
M  V30 4289 O 420.452 2.27306 1.09947 0
M  V30 4290 C 421.765 2.11971 -2.13281 0
M  V30 4291 C 423.313 2.25255 -2.17323 0
M  V30 4292 C 423.788 3.12632 -3.34702 0
M  V30 4293 N 425.279 3.2022 -3.34684 0
M  V30 4294 C 426.014 3.88039 -4.22153 0
M  V30 4295 N 425.51 4.58027 -5.19791 0
M  V30 4296 N 427.303 3.84511 -4.10009 0
M  V30 4297 H 419.454 0.550794 -2.05134 0
M  V30 4298 H 421.717 0.305683 -0.897364 0
M  V30 4299 H 421.423 1.67785 -3.09097 0
M  V30 4300 H 421.297 3.12699 -2.10949 0
M  V30 4301 H 423.684 2.68667 -1.22073 0
M  V30 4302 H 423.765 1.24053 -2.23706 0
M  V30 4303 H 423.409 2.69926 -4.30235 0
M  V30 4304 H 423.339 4.13909 -3.25556 0
M  V30 4305 H 425.83 2.70382 -2.64012 0
M  V30 4306 H 426.143 5.07429 -5.82868 0
M  V30 4307 H 424.488 4.56869 -5.23733 0
M  V30 4308 H 427.679 3.28978 -3.33003 0
M  V30 4309 H 427.852 4.3709 -4.78389 0
M  V30 4310 N 421.258 1.00505 1.21394 0
M  V30 4311 C 422.488 0.705584 1.94178 0
M  V30 4312 C 422.896 -0.735846 1.74304 0
M  V30 4313 O 422.239 -1.50954 1.04683 0
M  V30 4314 C 422.301 0.94689 3.46806 0
M  V30 4315 C 421.965 2.37517 3.90429 0
M  V30 4316 C 422.962 3.35539 3.97127 0
M  V30 4317 C 420.647 2.71284 4.22742 0
M  V30 4318 C 422.641 4.65395 4.3553 0
M  V30 4319 C 420.328 4.01356 4.60822 0
M  V30 4320 C 421.326 4.98223 4.67186 0
M  V30 4321 O 421.014 6.25969 5.04399 0
M  V30 4322 H 420.746 0.259216 0.624326 0
M  V30 4323 H 423.3 1.34592 1.55159 0
M  V30 4324 H 421.53 0.249386 3.85895 0
M  V30 4325 H 423.219 0.640804 4.0081 0
M  V30 4326 H 423.985 3.10786 3.7234 0
M  V30 4327 H 419.864 1.96581 4.16985 0
M  V30 4328 H 423.408 5.41002 4.40412 0
M  V30 4329 H 419.305 4.25893 4.85063 0
M  V30 4330 H 420.073 6.30085 5.22431 0
M  V30 4331 N 422.737 -1.36956 0.779787 0
M  V30 4332 C 423.962 -2.04283 0.358224 0
M  V30 4333 C 424.387 -1.58422 -1.01411 0
M  V30 4334 O 423.745 -0.748179 -1.65142 0
M  V30 4335 C 423.793 -3.58152 0.419479 0
M  V30 4336 O 422.897 -4.08342 -0.577142 0
M  V30 4337 H 422.238 -0.645967 0.153698 0
M  V30 4338 H 424.768 -1.75108 1.05822 0
M  V30 4339 H 424.778 -4.07041 0.279636 0
M  V30 4340 H 423.453 -3.90886 1.42061 0
M  V30 4341 H 422.03 -3.70751 -0.399755 0
M  V30 4342 N 424.215 -0.530993 -1.48385 0
M  V30 4343 C 425.631 -0.188919 -1.58478 0
M  V30 4344 C 425.831 1.30786 -1.53288 0
M  V30 4345 O 424.887 2.08619 -1.42248 0
M  V30 4346 C 426.2 -0.792343 -2.90073 0
M  V30 4347 C 427.748 -0.76117 -3.03604 0
M  V30 4348 C 428.223 -1.34319 -4.37861 0
M  V30 4349 N 429.714 -1.3052 -4.44431 0
M  V30 4350 C 430.449 -1.72543 -5.46824 0
M  V30 4351 N 429.945 -2.22299 -6.56167 0
M  V30 4352 N 431.738 -1.63773 -5.37712 0
M  V30 4353 H 423.889 -1.50377 -1.50002 0
M  V30 4354 H 426.152 -0.625559 -0.712306 0
M  V30 4355 H 425.858 -1.84323 -2.99529 0
M  V30 4356 H 425.732 -0.270026 -3.76232 0
M  V30 4357 H 428.119 0.280957 -2.93759 0
M  V30 4358 H 428.2 -1.32097 -2.19053 0
M  V30 4359 H 427.844 -2.38425 -4.4846 0
M  V30 4360 H 427.774 -0.759064 -5.21101 0
M  V30 4361 H 430.265 -0.940973 -3.65997 0
M  V30 4362 H 430.578 -2.52356 -7.30436 0
M  V30 4363 H 428.923 -2.26293 -6.57127 0
M  V30 4364 H 432.114 -1.24698 -4.51185 0
M  V30 4365 H 432.287 -1.96844 -6.17379 0
M  V30 4366 N 425.693 1.55336 -0.266172 0
M  V30 4367 C 426.641 2.23587 0.641228 0
M  V30 4368 C 427.635 1.22986 1.16494 0
M  V30 4369 O 428.841 1.40943 1.1196 0
M  V30 4370 H 425.216 0.717452 0.225315 0
M  V30 4371 H 427.187 2.9837 0.0426561 0
M  V30 4372 C 425.936 2.96369 1.81826 0
M  V30 4373 H 425.259 3.73563 1.42445 0
M  V30 4374 H 426.699 3.47459 2.42998 0
M  V30 4375 C 425.158 2.0133 2.70125 0
M  V30 4376 O 425.688 1.55875 3.70224 0
M  V30 4377 N 423.894 1.6802 2.37102 0
M  V30 4378 H 423.441 2.05181 1.55751 0
M  V30 4379 H 423.399 1.047 2.96454 0
M  V30 4380 N 427.171 -0.0066808 1.57599 0
M  V30 4381 C 428.42 -0.692078 1.89455 0
M  V30 4382 C 428.733 -1.75306 0.867586 0
M  V30 4383 O 429.939 -2.49262 1.07614 0
M  V30 4384 C 428.395 -1.2821 3.36289 0
M  V30 4385 C 428.003 -0.256291 4.47266 0
M  V30 4386 C 429.747 -1.94608 3.77264 0
M  V30 4387 C 427.654 -0.855927 5.85173 0
M  V30 4388 H 426.584 -0.262252 0.706923 0
M  V30 4389 H 429.235 0.052769 1.83424 0
M  V30 4390 H 427.617 -2.0774 3.37135 0
M  V30 4391 H 428.791 0.513923 4.57925 0
M  V30 4392 H 427.106 0.306862 4.15268 0
M  V30 4393 H 429.703 -2.40364 4.77629 0
M  V30 4394 H 430.046 -2.77382 3.10427 0
M  V30 4395 H 430.579 -1.21822 3.78688 0
M  V30 4396 H 427.318 -0.0671161 6.55466 0
M  V30 4397 H 426.838 -1.59546 5.78191 0
M  V30 4398 H 428.517 -1.35658 6.32618 0
M  V30 4399 N 428.649 -1.55105 -0.279332 0
M  V30 4400 C 429.599 -1.83937 -1.34727 0
M  V30 4401 C 430.583 -0.69785 -1.44979 0
M  V30 4402 O 431.775 -0.95904 -1.48766 0
M  V30 4403 C 428.904 -2.1092 -2.70864 0
M  V30 4404 C 427.99 -3.31314 -2.64748 0
M  V30 4405 N 428.381 -4.51371 -2.2825 0
M  V30 4406 C 426.679 -3.33777 -2.95819 0
M  V30 4407 C 427.38 -5.33447 -2.31969 0
M  V30 4408 N 426.356 -4.71697 -2.7019 0
M  V30 4409 H 430.158 -2.74309 -1.05506 0
M  V30 4410 H 427.672 -1.54896 -0.487959 0
M  V30 4411 H 429.669 -2.2973 -3.47893 0
M  V30 4412 H 428.329 -1.21828 -3.00979 0
M  V30 4413 H 429.34 -4.77584 -2.00335 0
M  V30 4414 H 426.017 -2.54858 -3.30687 0
M  V30 4415 H 427.407 -6.39424 -2.06365 0
M  V30 4416 N 430.127 0.543554 -1.4793 0
M  V30 4417 C 431.367 1.31072 -1.56843 0
M  V30 4418 C 431.731 1.90604 -0.231124 0
M  V30 4419 O 432.932 2.68091 -0.195165 0
M  V30 4420 C 431.203 2.38106 -2.66533 0
M  V30 4421 S 432.762 3.24729 -2.95122 0
M  V30 4422 H 429.58 0.446035 -0.553691 0
M  V30 4423 H 432.182 0.620777 -1.85382 0
M  V30 4424 H 430.886 1.92828 -3.62278 0
M  V30 4425 H 430.417 3.11824 -2.39852 0
M  V30 4426 H 432.432 4.37891 -2.3338 0
M  V30 4427 N 431.605 1.3629 0.791371 0
M  V30 4428 C 432.535 1.33137 1.91825 0
M  V30 4429 C 433.516 0.203168 1.68882 0
M  V30 4430 O 434.701 0.400509 1.90025 0
M  V30 4431 C 431.831 1.11793 3.28816 0
M  V30 4432 C 430.785 2.21417 3.66277 0
M  V30 4433 C 430.111 1.85218 5.01596 0
M  V30 4434 C 431.411 3.63489 3.75064 0
M  V30 4435 H 433.105 2.2743 1.9472 0
M  V30 4436 H 430.651 1.09479 0.935437 0
M  V30 4437 H 432.604 1.08222 4.07266 0
M  V30 4438 H 431.328 0.139501 3.26302 0
M  V30 4439 H 429.987 2.2411 2.90121 0
M  V30 4440 H 429.635 0.859544 4.95602 0
M  V30 4441 H 429.335 2.58611 5.27631 0
M  V30 4442 H 430.859 1.832 5.82469 0
M  V30 4443 H 432.273 3.63034 4.43711 0
M  V30 4444 H 430.67 4.35771 4.12582 0
M  V30 4445 H 431.74 3.98536 2.76219 0
M  V30 4446 N 433.083 -1.0153 1.20538 0
M  V30 4447 C 434.332 -1.74558 1.01057 0
M  V30 4448 C 434.645 -1.90168 -0.457756 0
M  V30 4449 O 435.851 -2.60301 -0.771722 0
M  V30 4450 C 434.307 -3.13963 1.75941 0
M  V30 4451 C 433.915 -3.06361 3.26875 0
M  V30 4452 C 435.659 -3.91191 1.64832 0
M  V30 4453 C 433.566 -4.40782 3.94291 0
M  V30 4454 H 432.496 -0.654417 0.374505 0
M  V30 4455 H 435.147 -1.13521 1.44171 0
M  V30 4456 H 433.529 -3.75549 1.25614 0
M  V30 4457 H 434.703 -2.54074 3.84425 0
M  V30 4458 H 433.018 -2.42625 3.38411 0
M  V30 4459 H 435.615 -4.90644 2.12539 0
M  V30 4460 H 435.958 -4.11884 0.604745 0
M  V30 4461 H 436.491 -3.36236 2.12579 0
M  V30 4462 H 433.23 -4.25292 4.98805 0
M  V30 4463 H 432.75 -4.9307 3.41529 0
M  V30 4464 H 434.429 -5.09621 3.98617 0
M  V30 4465 N 434.561 -1.01147 -1.20859 0
M  V30 4466 C 435.977 -0.725422 -1.42161 0
M  V30 4467 C 436.177 0.696919 -1.89064 0
M  V30 4468 O 435.233 1.46539 -2.05627 0
M  V30 4469 C 436.546 -1.74678 -2.44761 0
M  V30 4470 C 438.094 -1.76433 -2.58535 0
M  V30 4471 C 438.569 -2.77481 -3.64374 0
M  V30 4472 N 440.06 -2.76189 -3.71852 0
M  V30 4473 C 440.795 -3.51035 -4.53389 0
M  V30 4474 N 440.291 -4.35541 -5.38773 0
M  V30 4475 N 442.084 -3.39655 -4.47873 0
M  V30 4476 H 434.235 -1.92979 -0.887282 0
M  V30 4477 H 436.498 -0.833327 -0.451962 0
M  V30 4478 H 436.204 -2.76551 -2.17285 0
M  V30 4479 H 436.078 -1.55472 -3.43669 0
M  V30 4480 H 438.465 -0.75248 -2.85345 0
M  V30 4481 H 438.546 -1.99712 -1.5984 0
M  V30 4482 H 438.19 -3.78827 -3.38308 0
M  V30 4483 H 438.12 -2.51466 -4.6268 0
M  V30 4484 H 440.611 -2.14885 -3.10858 0
M  V30 4485 H 440.924 -4.89432 -5.98061 0
M  V30 4486 H 439.269 -4.39621 -5.38292 0
M  V30 4487 H 442.46 -2.73063 -3.80203 0
M  V30 4488 H 442.633 -3.9824 -5.11184 0
M  V30 4489 N 436.039 1.36541 -0.78704 0
M  V30 4490 C 437.286 1.99304 -0.358341 0
M  V30 4491 C 437.614 1.62467 1.06933 0
M  V30 4492 O 436.869 0.870019 1.75297 0
M  V30 4493 C 437.168 3.54343 -0.466485 0
M  V30 4494 C 436.834 4.10993 -1.85461 0
M  V30 4495 C 435.496 4.26177 -2.23443 0
M  V30 4496 C 437.848 4.41895 -2.76366 0
M  V30 4497 C 435.176 4.69573 -3.51736 0
M  V30 4498 C 437.528 4.86722 -4.04084 0
M  V30 4499 C 436.192 5.00112 -4.42091 0
M  V30 4500 H 435.462 0.729306 -0.131126 0
M  V30 4501 H 438.109 1.63068 -1.00404 0
M  V30 4502 H 436.414 3.90918 0.262719 0
M  V30 4503 H 438.111 4.00833 -0.115854 0
M  V30 4504 H 434.701 3.99612 -1.54946 0
M  V30 4505 H 438.885 4.29735 -2.48277 0
M  V30 4506 H 434.141 4.78127 -3.81057 0
M  V30 4507 H 438.315 5.09598 -4.7464 0
M  V30 4508 H 435.942 5.33498 -5.41557 0
M  V30 4509 N 437.518 0.538854 1.48102 0
M  V30 4510 C 438.451 -0.266495 2.26639 0
M  V30 4511 C 439.429 -0.93687 1.32897 0
M  V30 4512 O 440.613 -0.959507 1.62252 0
M  V30 4513 C 437.74 -1.37814 3.09394 0
M  V30 4514 C 436.786 -0.818247 4.18577 0
M  V30 4515 S 437.619 0.320848 5.34538 0
M  V30 4516 C 438.775 -0.793059 6.20855 0
M  V30 4517 H 439.008 0.399994 2.94597 0
M  V30 4518 H 436.541 0.324808 1.50945 0
M  V30 4519 H 438.499 -2.01488 3.57649 0
M  V30 4520 H 437.16 -2.01639 2.40833 0
M  V30 4521 H 436.353 -1.65247 4.7614 0
M  V30 4522 H 435.955 -0.258036 3.73109 0
M  V30 4523 H 438.247 -1.68961 6.56093 0
M  V30 4524 H 439.19 -0.255204 7.0764 0
M  V30 4525 H 439.598 -1.07746 5.54122 0
M  V30 4526 N 438.996 -1.55193 0.274407 0
M  V30 4527 C 439.926 -2.25471 -0.607032 0
M  V30 4528 C 440.907 -1.24461 -1.15946 0
M  V30 4529 O 442.092 -1.53179 -1.19373 0
M  V30 4530 C 439.222 -2.97526 -1.79153 0
M  V30 4531 C 438.176 -4.05459 -1.37067 0
M  V30 4532 C 437.502 -4.65084 -2.6382 0
M  V30 4533 C 438.802 -5.19691 -0.521389 0
M  V30 4534 H 440.496 -2.99393 -0.0209343 0
M  V30 4535 H 438.042 -1.43997 -0.00862866 0
M  V30 4536 H 439.995 -3.45402 -2.41404 0
M  V30 4537 H 438.719 -2.21138 -2.40344 0
M  V30 4538 H 437.378 -3.58393 -0.771355 0
M  V30 4539 H 437.026 -3.85365 -3.23268 0
M  V30 4540 H 436.726 -5.37961 -2.36372 0
M  V30 4541 H 438.25 -5.15708 -3.26921 0
M  V30 4542 H 439.664 -5.63623 -1.04889 0
M  V30 4543 H 438.061 -5.99126 -0.341825 0
M  V30 4544 H 439.131 -4.82713 0.46 0
M  V30 4545 N 440.474 -0.00167713 -1.576 0
M  V30 4546 C 441.384 1.00548 -2.1196 0
M  V30 4547 C 442.4 1.3758 -1.06526 0
M  V30 4548 O 443.576 1.46278 -1.38436 0
M  V30 4549 C 440.641 2.27809 -2.6135 0
M  V30 4550 C 439.702 1.97074 -3.81393 0
M  V30 4551 C 438.935 3.18267 -4.28417 0
M  V30 4552 O 439.158 4.30009 -3.74765 0
M  V30 4553 O 438.092 3.02167 -5.20556 0
M  V30 4554 H 441.918 0.573373 -2.98238 0
M  V30 4555 H 439.503 0.217255 -1.47812 0
M  V30 4556 H 441.385 3.02568 -2.93309 0
M  V30 4557 H 440.06 2.70254 -1.78169 0
M  V30 4558 H 438.967 1.19785 -3.54404 0
M  V30 4559 H 440.3 1.59464 -4.65652 0
M  V30 4560 N 441.952 1.55251 0.271103 0
M  V30 4561 C 443.363 1.66635 0.842007 0
M  V30 4562 C 443.714 0.594631 1.86972 0
M  V30 4563 O 442.839 -0.263532 2.14789 0
M  V30 4564 C 443.434 3.02082 1.53401 0
M  V30 4565 C 441.993 3.15487 2.05293 0
M  V30 4566 C 441.14 2.62438 0.895631 0
M  V30 4567 H 444.091 1.58629 0.0474117 0
M  V30 4568 H 444.112 2.95176 2.40107 0
M  V30 4569 H 443.624 3.80062 0.785786 0
M  V30 4570 H 441.725 2.42284 2.83071 0
M  V30 4571 H 441.838 4.22075 2.26693 0
M  V30 4572 H 440.202 2.19644 1.28953 0
M  V30 4573 H 440.985 3.42923 0.160878 0
M  V30 4574 N 443.43 -0.535701 1.48216 0
M  V30 4575 C 444.707 -1.29683 1.46429 0
M  V30 4576 C 445.087 -2.10391 0.172852 0
M  V30 4577 O 444.435 -2.12282 -0.845488 0
M  V30 4578 C 444.645 -2.18313 2.72287 0
M  V30 4579 C 445.993 -2.78639 3.20383 0
M  V30 4580 O 447.017 -2.28604 2.73164 0
M  V30 4581 O 445.876 -3.69636 4.02531 0
M  V30 4582 H 442.97 -0.585026 0.584529 0
M  V30 4583 H 445.516 -0.552827 1.60443 0
M  V30 4584 H 444.288 -1.58421 3.57797 0
M  V30 4585 H 443.911 -2.99971 2.60966 0
M  V30 4586 N 444.908 -1.36708 -0.784132 0
M  V30 4587 C 446.319 -1.27947 -1.35965 0
M  V30 4588 C 446.67 0.0784013 -1.96043 0
M  V30 4589 O 445.795 0.979989 -1.92938 0
M  V30 4590 C 446.39 -2.31689 -2.47195 0
M  V30 4591 C 444.949 -2.26601 -3.00548 0
M  V30 4592 C 444.096 -2.16184 -1.73666 0
M  V30 4593 H 447.047 -1.4751 -0.585358 0
M  V30 4594 H 447.068 -1.95638 -3.26352 0
M  V30 4595 H 446.58 -3.30506 -2.03439 0
M  V30 4596 H 444.681 -1.31268 -3.48711 0
M  V30 4597 H 444.794 -3.19508 -3.57004 0
M  V30 4598 H 443.158 -1.62524 -1.96107 0
M  V30 4599 H 443.941 -3.16896 -1.32031 0
M  V30 4600 N 446.386 1.0089 -1.21074 0
M  V30 4601 C 447.296 2.13039 -0.982425 0
M  V30 4602 C 448.312 1.73881 0.0642161 0
M  V30 4603 O 449.488 2.01012 -0.12496 0
M  V30 4604 C 446.553 3.42377 -0.545803 0
M  V30 4605 C 445.614 3.95731 -1.6642 0
M  V30 4606 C 444.847 5.18896 -1.24832 0
M  V30 4607 O 445.07 5.70273 -0.120265 0
M  V30 4608 O 444.004 5.65597 -2.05873 0
M  V30 4609 H 447.83 2.35175 -1.92163 0
M  V30 4610 H 445.415 1.1142 -0.995285 0
M  V30 4611 H 447.297 4.20244 -0.311912 0
M  V30 4612 H 445.972 3.21639 0.364727 0
M  V30 4613 H 444.879 3.19108 -1.95246 0
M  V30 4614 H 446.212 4.20872 -2.55201 0
M  V30 4615 N 447.864 1.01787 1.20321 0
M  V30 4616 C 448.814 0.559976 2.21016 0
M  V30 4617 C 449.798 -0.385366 1.56217 0
M  V30 4618 O 450.99 -0.208126 1.75772 0
M  V30 4619 C 448.119 -0.0990553 3.43157 0
M  V30 4620 C 447.205 0.86807 4.15121 0
M  V30 4621 N 447.596 2.0261 4.63447 0
M  V30 4622 C 445.894 0.689162 4.40643 0
M  V30 4623 C 446.595 2.63518 5.18588 0
M  V30 4624 N 445.571 1.91569 5.08726 0
M  V30 4625 H 449.373 1.44281 2.56048 0
M  V30 4626 H 446.887 0.883381 1.36272 0
M  V30 4627 H 448.884 -0.444643 4.14522 0
M  V30 4628 H 447.544 -0.977709 3.0963 0
M  V30 4629 H 448.555 2.40598 4.58621 0
M  V30 4630 H 445.232 -0.14133 4.17261 0
M  V30 4631 H 446.622 3.61527 5.66346 0
M  V30 4632 N 449.342 -1.36122 0.79427 0
M  V30 4633 C 450.758 -1.5232 0.476525 0
M  V30 4634 C 450.958 -1.74685 -1.00436 0
M  V30 4635 O 450.014 -1.78115 -1.78973 0
M  V30 4636 C 451.327 -2.70607 1.31119 0
M  V30 4637 C 452.875 -2.8448 1.30537 0
M  V30 4638 C 453.35 -4.05778 2.12387 0
M  V30 4639 N 454.841 -4.12933 2.09859 0
M  V30 4640 C 455.576 -5.05876 2.69957 0
M  V30 4641 N 455.072 -6.04232 3.38934 0
M  V30 4642 N 456.865 -4.98528 2.59665 0
M  V30 4643 H 449.016 -1.1986 1.75349 0
M  V30 4644 H 451.279 -0.585418 0.745647 0
M  V30 4645 H 450.985 -2.60619 2.36158 0
M  V30 4646 H 450.859 -3.64888 0.955843 0
M  V30 4647 H 453.246 -2.93927 0.262876 0
M  V30 4648 H 453.327 -1.91093 1.70051 0
M  V30 4649 H 452.971 -3.97092 3.1667 0
M  V30 4650 H 452.901 -4.98323 1.70242 0
M  V30 4651 H 455.392 -3.42515 1.59662 0
M  V30 4652 H 455.705 -6.71724 3.82109 0
M  V30 4653 H 454.05 -6.04443 3.43036 0
M  V30 4654 H 457.241 -4.20641 2.05375 0
M  V30 4655 H 457.414 -5.70773 3.06793 0
M  V30 4656 N 450.82 -0.546701 -1.47814 0
M  V30 4657 C 452.231 -0.110564 -1.86372 0
M  V30 4658 C 452.582 1.31678 -1.45449 0
M  V30 4659 O 451.707 1.98889 -0.852758 0
M  V30 4660 C 452.302 -0.193873 -3.38245 0
M  V30 4661 C 450.861 0.187164 -3.75934 0
M  V30 4662 C 450.008 -0.546166 -2.71868 0
M  V30 4663 H 452.959 -0.757022 -1.39481 0
M  V30 4664 H 452.98 0.590218 -3.75895 0
M  V30 4665 H 452.492 -1.23282 -3.67999 0
M  V30 4666 H 450.593 1.22762 -3.51796 0
M  V30 4667 H 450.706 -0.164083 -4.78819 0
M  V30 4668 H 449.07 0.00953904 -2.54698 0
M  V30 4669 H 449.853 -1.58606 -3.04465 0
M  V30 4670 N 452.299 1.55045 -0.282633 0
M  V30 4671 C 453.576 1.9179 0.384166 0
M  V30 4672 C 453.956 1.20778 1.73136 0
M  V30 4673 O 453.304 0.33719 2.25998 0
M  V30 4674 C 453.514 3.45149 0.517014 0
M  V30 4675 C 454.862 4.17064 0.796427 0
M  V30 4676 O 455.886 3.51084 0.601535 0
M  V30 4677 O 454.745 5.33837 1.16962 0
M  V30 4678 H 451.839 0.799483 0.211558 0
M  V30 4679 H 454.385 1.66474 -0.32934 0
M  V30 4680 H 453.157 3.88922 -0.430772 0
M  V30 4681 H 452.78 3.76443 1.2797 0
M  V30 4682 N 453.777 0.010035 1.57597 0
M  V30 4683 C 455.026 -0.671945 1.90178 0
M  V30 4684 C 455.339 -1.74376 0.886131 0
M  V30 4685 O 456.545 -2.48107 1.10252 0
M  V30 4686 C 455.001 -1.24636 3.3763 0
M  V30 4687 C 454.609 -0.208838 4.47513 0
M  V30 4688 C 456.353 -1.90595 3.79307 0
M  V30 4689 C 454.26 -0.793814 5.86048 0
M  V30 4690 H 453.19 -0.25474 0.709665 0
M  V30 4691 H 455.841 0.0722206 1.83358 0
M  V30 4692 H 454.223 -2.04152 3.3932 0
M  V30 4693 H 455.397 0.562463 4.57354 0
M  V30 4694 H 453.712 0.350889 4.14919 0
M  V30 4695 H 456.309 -2.35284 4.80151 0
M  V30 4696 H 456.652 -2.74074 3.13352 0
M  V30 4697 H 457.185 -1.17798 3.79958 0
M  V30 4698 H 453.924 0.00240855 6.555 0
M  V30 4699 H 453.444 -1.53404 5.79851 0
M  V30 4700 H 455.123 -1.2894 6.34022 0
M  V30 4701 N 455.255 -1.55392 -0.262866 0
M  V30 4702 C 456.502 -1.76476 -0.993109 0
M  V30 4703 C 456.83 -0.571479 -1.85915 0
M  V30 4704 O 456.085 0.445733 -1.90556 0
M  V30 4705 C 456.384 -3.02889 -1.89718 0
M  V30 4706 C 456.05 -4.34974 -1.18781 0
M  V30 4707 C 454.712 -4.7087 -0.991699 0
M  V30 4708 C 457.064 -5.16695 -0.683798 0
M  V30 4709 C 454.392 -5.86036 -0.279024 0
M  V30 4710 C 456.744 -6.32598 0.0153327 0
M  V30 4711 C 455.408 -6.67127 0.223062 0
M  V30 4712 H 454.678 -0.64577 -0.363404 0
M  V30 4713 H 457.325 -1.89664 -0.264525 0
M  V30 4714 H 455.63 -2.84644 -2.6923 0
M  V30 4715 H 457.327 -3.16399 -2.46359 0
M  V30 4716 H 453.917 -4.06765 -1.35058 0
M  V30 4717 H 458.101 -4.8943 -0.8229 0
M  V30 4718 H 453.357 -6.11306 -0.107456 0
M  V30 4719 H 457.531 -6.95171 0.413584 0
M  V30 4720 H 455.158 -7.56216 0.777265 0
M  V30 4721 N 456.733 0.527833 -1.48498 0
M  V30 4722 C 457.665 1.6482 -1.5927 0
M  V30 4723 C 458.678 1.55659 -0.476869 0
M  V30 4724 O 459.867 1.62081 -0.747806 0
M  V30 4725 C 456.967 3.0348 -1.50842 0
M  V30 4726 C 456.14 3.381 -2.77502 0
M  V30 4727 C 455.199 4.5605 -2.62497 0
M  V30 4728 O 454.225 4.59165 -3.36387 0
M  V30 4729 N 455.427 5.54353 -1.72257 0
M  V30 4730 H 458.192 1.56015 -2.55889 0
M  V30 4731 H 455.753 0.715152 -1.45249 0
M  V30 4732 H 457.745 3.80264 -1.38496 0
M  V30 4733 H 456.315 3.06352 -0.621887 0
M  V30 4734 H 455.535 2.50473 -3.04396 0
M  V30 4735 H 456.823 3.58017 -3.61527 0
M  V30 4736 H 456.221 5.54617 -1.11431 0
M  V30 4737 H 454.778 6.30347 -1.65849 0
M  V30 4738 N 458.211 1.37122 0.776871 0
M  V30 4739 C 459.457 1.32243 1.53752 0
M  V30 4740 C 459.79 -0.0944745 1.9397 0
M  V30 4741 O 459.065 -1.05068 1.6368 0
M  V30 4742 C 459.348 2.25681 2.80607 0
M  V30 4743 C 459.201 3.76127 2.46676 0
M  V30 4744 C 460.52 2.17657 3.82509 0
M  V30 4745 H 457.639 0.481704 0.557791 0
M  V30 4746 H 460.281 1.6778 0.891612 0
M  V30 4747 H 458.431 1.95505 3.35723 0
M  V30 4748 H 460.103 4.16877 1.97513 0
M  V30 4749 H 458.346 3.94946 1.79443 0
M  V30 4750 H 459.017 4.36933 3.37333 0
M  V30 4751 H 461.493 2.44245 3.36873 0
M  V30 4752 H 460.369 2.85185 4.69 0
M  V30 4753 H 460.63 1.16785 4.26396 0
M  V30 4754 N 459.689 -1.00246 1.21608 0
M  V30 4755 C 460.914 -1.78167 1.06167 0
M  V30 4756 C 461.339 -1.84138 -0.384035 0
M  V30 4757 O 460.697 -1.28683 -1.27712 0
M  V30 4758 C 460.745 -3.19786 1.66642 0
M  V30 4759 O 459.849 -4.02153 0.913613 0
M  V30 4760 H 459.19 -0.549 0.37349 0
M  V30 4761 H 461.72 -1.25994 1.61204 0
M  V30 4762 H 461.73 -3.70451 1.70969 0
M  V30 4763 H 460.405 -3.14754 2.7185 0
M  V30 4764 H 458.982 -3.60711 0.945635 0
M  V30 4765 N 461.167 -1.02423 -1.1978 0
M  V30 4766 C 462.397 -0.736387 -1.93031 0
M  V30 4767 C 462.805 0.708023 -1.75453 0
M  V30 4768 O 462.148 1.4927 -1.07071 0
M  V30 4769 C 462.21 -1.00194 -3.45255 0
M  V30 4770 C 461.874 -2.43698 -3.86601 0
M  V30 4771 C 462.871 -3.41814 -3.91738 0
M  V30 4772 C 460.556 -2.77975 -4.18372 0
M  V30 4773 C 462.55 -4.72265 -4.28071 0
M  V30 4774 C 460.237 -4.08636 -4.54378 0
M  V30 4775 C 461.235 -5.05592 -4.59201 0
M  V30 4776 O 460.923 -6.33914 -4.94376 0
M  V30 4777 H 460.655 -0.269116 -0.620123 0
M  V30 4778 H 463.209 -1.37043 -1.52998 0
M  V30 4779 H 461.439 -0.310747 -3.85449 0
M  V30 4780 H 463.128 -0.704488 -3.9974 0
M  V30 4781 H 463.894 -3.16671 -3.67348 0
M  V30 4782 H 459.773 -2.0319 -4.13805 0
M  V30 4783 H 463.317 -5.4794 -4.3175 0
M  V30 4784 H 459.214 -4.33556 -4.78226 0
M  V30 4785 H 459.982 -6.38317 -5.12341 0
M  V30 4786 N 462.645 1.35699 -0.801477 0
M  V30 4787 C 463.892 1.98913 -0.379459 0
M  V30 4788 C 464.22 1.63592 1.05204 0
M  V30 4789 O 463.475 0.888563 1.74365 0
M  V30 4790 C 463.774 3.53828 -0.504041 0
M  V30 4791 C 463.44 4.09002 -1.8981 0
M  V30 4792 C 462.102 4.23783 -2.27951 0
M  V30 4793 C 464.454 4.38939 -2.81038 0
M  V30 4794 C 461.782 4.65816 -3.56696 0
M  V30 4795 C 464.134 4.82409 -4.09224 0
M  V30 4796 C 462.798 4.95395 -4.4737 0
M  V30 4797 H 462.068 0.727874 -0.138854 0
M  V30 4798 H 464.715 1.61994 -1.02128 0
M  V30 4799 H 463.02 3.91175 0.221242 0
M  V30 4800 H 464.717 4.00687 -0.158361 0
M  V30 4801 H 461.307 3.97946 -1.59176 0
M  V30 4802 H 465.491 4.27077 -2.52821 0
M  V30 4803 H 460.747 4.74059 -3.86106 0
M  V30 4804 H 464.921 5.04535 -4.80018 0
M  V30 4805 H 462.548 5.27724 -5.47185 0
M  V30 4806 N 464.123 0.554532 1.47522 0
M  V30 4807 C 465.086 -0.184174 2.28459 0
M  V30 4808 C 466.086 -0.845195 1.36796 0
M  V30 4809 O 467.276 -0.701467 1.59452 0
M  V30 4810 C 464.408 -1.26903 3.16399 0
M  V30 4811 H 465.601 0.526751 2.95238 0
M  V30 4812 H 463.154 0.311375 1.53167 0
M  V30 4813 H 463.889 -2.01244 2.54306 0
M  V30 4814 H 463.674 -0.799883 3.83854 0
M  V30 4815 H 465.164 -1.78794 3.77389 0
M  V30 4816 N 465.601 -1.54893 0.290851 0
M  V30 4817 C 466.848 -1.99933 -0.321391 0
M  V30 4818 C 467.176 -1.17927 -1.54672 0
M  V30 4819 O 466.431 -0.240902 -1.94212 0
M  V30 4820 C 466.73 -3.49815 -0.732397 0
M  V30 4821 C 466.396 -4.4921 0.390056 0
M  V30 4822 C 465.058 -4.76107 0.698223 0
M  V30 4823 C 467.41 -5.08453 1.14562 0
M  V30 4824 C 464.738 -5.59514 1.76526 0
M  V30 4825 C 467.09 -5.9302 2.2025 0
M  V30 4826 C 465.754 -6.18232 2.51684 0
M  V30 4827 H 465.024 -0.731608 -0.117605 0
M  V30 4828 H 467.671 -1.87107 0.407839 0
M  V30 4829 H 465.976 -3.60199 -1.54155 0
M  V30 4830 H 467.673 -3.82083 -1.21712 0
M  V30 4831 H 464.263 -4.28372 0.13976 0
M  V30 4832 H 468.447 -4.87683 0.920801 0
M  V30 4833 H 463.703 -5.77289 2.01364 0
M  V30 4834 H 467.877 -6.37955 2.7926 0
M  V30 4835 H 465.504 -6.82653 3.34499 0
M  V30 4836 N 467.08 -0.0183926 -1.57589 0
M  V30 4837 C 468.027 0.967022 -2.09565 0
M  V30 4838 C 468.997 1.32983 -0.995225 0
M  V30 4839 O 470.182 1.42501 -1.26878 0
M  V30 4840 C 467.322 2.24772 -2.61861 0
M  V30 4841 C 466.435 1.94232 -3.85873 0
M  V30 4842 C 465.57 3.16518 -4.26603 0
M  V30 4843 C 464.609 2.81748 -5.43401 0
M  V30 4844 N 463.746 3.96626 -5.79338 0
M  V30 4845 H 468.586 0.516874 -2.93483 0
M  V30 4846 H 466.123 0.243544 -1.4507 0
M  V30 4847 H 468.081 2.99667 -2.90268 0
M  V30 4848 H 466.711 2.67423 -1.8079 0
M  V30 4849 H 465.763 1.09625 -3.64262 0
M  V30 4850 H 467.075 1.64616 -4.70853 0
M  V30 4851 H 466.229 3.99743 -4.56389 0
M  V30 4852 H 464.968 3.49286 -3.40368 0
M  V30 4853 H 463.973 1.96933 -5.1332 0
M  V30 4854 H 465.198 2.50207 -6.31327 0
M  V30 4855 H 463.144 4.29257 -4.96059 0
M  V30 4856 H 463.061 3.70598 -6.58933 0
M  V30 4857 H 464.329 4.80586 -6.13724 0
M  V30 4858 N 468.558 1.5553 0.254621 0
M  V30 4859 C 469.805 1.77 0.983736 0
M  V30 4860 C 470.133 0.58133 1.85609 0
M  V30 4861 O 469.388 -0.435621 1.9079 0
M  V30 4862 C 469.687 3.03891 1.88109 0
M  V30 4863 C 469.353 4.35597 1.16472 0
M  V30 4864 C 468.015 4.7139 0.966714 0
M  V30 4865 C 470.367 5.1705 0.656387 0
M  V30 4866 C 467.695 5.86176 0.247942 0
M  V30 4867 C 470.047 6.32581 -0.0488807 0
M  V30 4868 C 468.711 6.67 -0.258438 0
M  V30 4869 H 467.981 0.647688 0.359974 0
M  V30 4870 H 470.628 1.89802 0.254463 0
M  V30 4871 H 468.933 2.86068 2.67717 0
M  V30 4872 H 470.63 3.17701 2.44677 0
M  V30 4873 H 467.22 4.07475 1.32899 0
M  V30 4874 H 471.404 4.8986 0.796933 0
M  V30 4875 H 466.66 6.11354 0.075035 0
M  V30 4876 H 470.834 6.94942 -0.450444 0
M  V30 4877 H 468.461 7.55793 -0.817358 0
M  V30 4878 N 470.036 -0.519951 1.48776 0
M  V30 4879 C 470.999 -1.60574 1.6355 0
M  V30 4880 C 471.999 -1.52557 0.508234 0
M  V30 4881 O 473.189 -1.56047 0.774262 0
M  V30 4882 C 470.321 -3.00211 1.61512 0
M  V30 4883 H 471.514 -1.4881 2.60376 0
M  V30 4884 H 469.067 -0.742772 1.37523 0
M  V30 4885 H 469.802 -3.17471 0.662009 0
M  V30 4886 H 469.587 -3.07439 2.43359 0
M  V30 4887 H 471.077 -3.79134 1.75064 0
M  V30 4888 N 471.514 -1.37532 -0.769588 0
M  V30 4889 C 472.461 -1.3347 -1.88293 0
M  V30 4890 C 473.431 -0.199891 -1.64893 0
M  V30 4891 O 474.616 -0.389594 -1.8678 0
M  V30 4892 C 471.756 -1.14968 -3.25387 0
M  V30 4893 C 470.869 -2.37698 -3.60727 0
M  V30 4894 C 470.004 -2.12051 -4.8704 0
M  V30 4895 C 469.043 -3.30636 -5.15117 0
M  V30 4896 N 468.18 -3.04527 -6.3262 0
M  V30 4897 H 473.02 -2.28658 -1.911 0
M  V30 4898 H 470.557 -1.13622 -0.934257 0
M  V30 4899 H 472.515 -1.02261 -4.04473 0
M  V30 4900 H 471.145 -0.234263 -3.21949 0
M  V30 4901 H 470.197 -2.61137 -2.76608 0
M  V30 4902 H 471.509 -3.26131 -3.77413 0
M  V30 4903 H 470.663 -1.96388 -5.74035 0
M  V30 4904 H 469.402 -1.20959 -4.72462 0
M  V30 4905 H 468.407 -3.46836 -4.26597 0
M  V30 4906 H 469.632 -4.22582 -5.31603 0
M  V30 4907 H 467.578 -2.16067 -6.19396 0
M  V30 4908 H 467.495 -3.86503 -6.49732 0
M  V30 4909 H 468.763 -2.92485 -7.22546 0
M  V30 4910 N 472.992 0.995999 -1.22138 0
M  V30 4911 C 473.939 2.08551 -0.988687 0
M  V30 4912 C 474.909 1.65864 0.0885021 0
M  V30 4913 O 476.094 1.90704 -0.0604589 0
M  V30 4914 C 473.234 3.40374 -0.569191 0
M  V30 4915 C 472.347 3.96421 -1.71681 0
M  V30 4916 C 471.482 5.1639 -1.2456 0
M  V30 4917 C 470.521 5.64567 -2.36497 0
M  V30 4918 N 469.658 6.75777 -1.90445 0
M  V30 4919 H 474.498 2.2779 -1.92135 0
M  V30 4920 H 472.035 1.1168 -0.957388 0
M  V30 4921 H 473.993 4.16068 -0.307166 0
M  V30 4922 H 472.623 3.21145 0.326462 0
M  V30 4923 H 471.675 3.17628 -2.09324 0
M  V30 4924 H 472.987 4.2816 -2.55891 0
M  V30 4925 H 472.141 5.99362 -0.940774 0
M  V30 4926 H 470.88 4.86266 -0.373662 0
M  V30 4927 H 469.885 4.80185 -2.67772 0
M  V30 4928 H 471.11 5.96716 -3.24202 0
M  V30 4929 H 469.056 6.47443 -1.05609 0
M  V30 4930 H 468.973 7.06818 -2.68223 0
M  V30 4931 H 470.241 7.62262 -1.63022 0
M  V30 4932 N 474.47 1.03057 1.19235 0
M  V30 4933 C 475.747 0.642608 1.84743 0
M  V30 4934 C 476.127 -0.878577 1.91948 0
M  V30 4935 O 475.475 -1.77597 1.43776 0
M  V30 4936 C 475.685 1.30665 3.23616 0
M  V30 4937 C 477.033 1.43098 3.9976 0
M  V30 4938 O 478.057 1.26396 3.3302 0
M  V30 4939 O 476.916 1.70223 5.19313 0
M  V30 4940 H 474.01 0.223573 0.796206 0
M  V30 4941 H 476.556 1.12883 1.26711 0
M  V30 4942 H 475.328 2.34544 3.13217 0
M  V30 4943 H 474.951 0.808405 3.89295 0
M  V30 4944 N 475.948 -1.35272 0.808662 0
M  V30 4945 C 477.188 -2.00534 0.395668 0
M  V30 4946 C 477.552 -1.62755 -1.01857 0
M  V30 4947 O 478.753 -2.20752 -1.53368 0
M  V30 4948 C 477.024 -3.52732 0.575771 0
M  V30 4949 S 478.583 -4.38067 0.253507 0
M  V30 4950 H 475.401 -0.694962 0.150165 0
M  V30 4951 H 478.003 -1.64823 1.05137 0
M  V30 4952 H 476.707 -3.77714 1.60499 0
M  V30 4953 H 476.238 -3.93285 -0.0951739 0
M  V30 4954 H 478.253 -4.87252 -0.938068 0
M  V30 4955 N 477.426 -0.562348 -1.47226 0
M  V30 4956 C 478.837 -0.130325 -1.86245 0
M  V30 4957 C 479.188 1.30128 -1.46838 0
M  V30 4958 O 478.313 1.97974 -0.873805 0
M  V30 4959 C 478.908 -0.229738 -3.3802 0
M  V30 4960 C 477.467 0.14728 -3.76112 0
M  V30 4961 C 476.614 -0.574971 -2.71274 0
M  V30 4962 H 479.565 -0.771773 -1.3867 0
M  V30 4963 H 479.586 0.550316 -3.76499 0
M  V30 4964 H 479.098 -1.27178 -3.66671 0
M  V30 4965 H 477.199 1.19023 -3.53078 0
M  V30 4966 H 477.312 -0.214858 -4.78618 0
M  V30 4967 H 475.676 -0.0174756 -2.54694 0
M  V30 4968 H 476.459 -1.61827 -3.02766 0
M  V30 4969 N 478.904 1.54736 -0.299062 0
M  V30 4970 C 480.15 2.00397 0.311244 0
M  V30 4971 C 480.483 1.18716 1.53688 0
M  V30 4972 O 479.758 0.263154 1.92712 0
M  V30 4973 C 480.041 3.53817 0.669761 0
M  V30 4974 C 479.894 4.46239 -0.564882 0
M  V30 4975 C 481.213 4.13856 1.49702 0
M  V30 4976 H 478.332 0.728493 0.111653 0
M  V30 4977 H 480.974 1.85506 -0.410774 0
M  V30 4978 H 479.124 3.66637 1.28491 0
M  V30 4979 H 480.796 4.45328 -1.20337 0
M  V30 4980 H 479.039 4.16916 -1.19849 0
M  V30 4981 H 479.71 5.5134 -0.269918 0
M  V30 4982 H 482.186 4.04461 0.977284 0
M  V30 4983 H 481.062 5.21365 1.71666 0
M  V30 4984 H 481.323 3.65608 2.48563 0
M  V30 4985 N 480.382 0.0267497 1.57577 0
M  V30 4986 C 481.607 -0.666227 1.96408 0
M  V30 4987 C 482.032 -1.65004 0.903071 0
M  V30 4988 O 481.39 -1.80787 -0.136263 0
M  V30 4989 C 481.438 -1.35101 3.34335 0
M  V30 4990 O 480.542 -2.46623 3.30531 0
M  V30 4991 H 479.883 -0.175206 0.640468 0
M  V30 4992 H 482.413 0.0878977 2.04411 0
M  V30 4993 H 482.423 -1.70834 3.70513 0
M  V30 4994 H 481.098 -0.629844 4.11103 0
M  V30 4995 H 479.675 -2.13019 3.06068 0
M  V30 4996 N 481.861 -1.55662 -0.24637 0
M  V30 4997 C 482.809 -1.91186 -1.3248 0
M  V30 4998 C 483.803 -0.790996 -1.49799 0
M  V30 4999 O 485.009 -0.975617 -1.51267 0
M  V30 5000 H 481.384 -0.607207 -0.443626 0
M  V30 5001 H 483.355 -2.81221 -0.997853 0
M  V30 5002 C 482.104 -2.22349 -2.67313 0
M  V30 5003 H 481.427 -3.08097 -2.54786 0
M  V30 5004 H 482.867 -2.51107 -3.41645 0
M  V30 5005 C 481.326 -1.04001 -3.20446 0
M  V30 5006 O 481.856 -0.28828 -4.00664 0
M  V30 5007 N 480.062 -0.830494 -2.7848 0
M  V30 5008 H 479.609 -1.4435 -2.13356 0
M  V30 5009 H 479.567 -0.0403258 -3.14374 0
M  V30 5010 N 483.339 0.512053 -1.4905 0
M  V30 5011 C 484.588 1.26343 -1.57227 0
M  V30 5012 C 484.901 1.93876 -0.259155 0
M  V30 5013 O 486.107 2.70612 -0.219358 0
M  V30 5014 C 484.563 2.29343 -2.77362 0
M  V30 5015 C 484.171 1.67799 -4.15388 0
M  V30 5016 C 485.915 3.05378 -2.94864 0
M  V30 5017 C 483.822 2.68845 -5.2676 0
M  V30 5018 H 482.752 0.475231 -0.585382 0
M  V30 5019 H 485.403 0.53862 -1.75417 0
M  V30 5020 H 483.785 3.04938 -2.52643 0
M  V30 5021 H 484.959 0.982715 -4.50199 0
M  V30 5022 H 483.274 1.04194 -4.03153 0
M  V30 5023 H 485.871 3.80921 -3.75238 0
M  V30 5024 H 486.214 3.62327 -2.05 0
M  V30 5025 H 486.747 2.36898 -3.19569 0
M  V30 5026 H 483.486 2.16692 -6.18647 0
M  V30 5027 H 483.006 3.36647 -4.96416 0
M  V30 5028 H 484.685 3.31487 -5.5563 0
M  V30 5029 N 484.817 1.37938 0.762283 0
M  V30 5030 C 485.765 1.34569 1.89721 0
M  V30 5031 C 486.759 0.232929 1.67791 0
M  V30 5032 O 487.965 0.401485 1.75465 0
M  V30 5033 H 484.34 0.419594 0.624055 0
M  V30 5034 H 486.311 2.30357 1.8968 0
M  V30 5035 C 485.06 1.17898 3.27101 0
M  V30 5036 H 484.383 2.02781 3.44558 0
M  V30 5037 H 485.823 1.19593 4.06784 0
M  V30 5038 C 484.282 -0.114728 3.36705 0
M  V30 5039 O 484.812 -1.0949 3.8649 0
M  V30 5040 N 483.018 -0.16863 2.9011 0
M  V30 5041 H 482.565 0.62967 2.49786 0
M  V30 5042 H 482.523 -1.03383 2.96916 0
M  V30 5043 N 486.295 -0.989507 1.22664 0
M  V30 5044 C 487.243 -2.10148 0.997035 0
M  V30 5045 C 488.237 -1.6929 -0.0609783 0
M  V30 5046 O 489.443 -1.79766 0.0917523 0
M  V30 5047 H 485.818 -0.687256 0.305259 0
M  V30 5048 H 487.789 -2.26685 1.94053 0
M  V30 5049 C 486.538 -3.4257 0.595085 0
M  V30 5050 H 485.861 -3.74453 1.40089 0
M  V30 5051 H 487.301 -4.21344 0.473869 0
M  V30 5052 C 485.76 -3.29638 -0.695725 0
M  V30 5053 O 486.29 -3.61709 -1.74727 0
M  V30 5054 N 484.496 -2.82814 -0.668173 0
M  V30 5055 H 484.043 -2.56914 0.18787 0
M  V30 5056 H 484.001 -2.74544 -1.5321 0
M  V30 5057 N 487.773 -1.03688 -1.18687 0
M  V30 5058 C 488.998 -0.757819 -1.93059 0
M  V30 5059 C 489.423 0.678353 -1.75442 0
M  V30 5060 O 488.781 1.46938 -1.06203 0
M  V30 5061 C 488.829 -1.12423 -3.42627 0
M  V30 5062 O 487.933 -0.247505 -4.11657 0
M  V30 5063 H 487.274 -0.279245 -0.602427 0
M  V30 5064 H 489.804 -1.3857 -1.5053 0
M  V30 5065 H 489.814 -1.08454 -3.93322 0
M  V30 5066 H 488.489 -2.17049 -3.54771 0
M  V30 5067 H 487.066 -0.34649 -3.71287 0
M  V30 5068 N 489.251 1.34841 -0.815825 0
M  V30 5069 C 490.476 2.03261 -0.41226 0
M  V30 5070 C 490.901 1.61055 0.971751 0
M  V30 5071 O 490.259 0.7917 1.63101 0
M  V30 5072 C 490.307 3.56914 -0.514289 0
M  V30 5073 O 489.411 4.09728 0.468675 0
M  V30 5074 H 488.752 0.641664 -0.170771 0
M  V30 5075 H 491.282 1.72241 -1.10427 0
M  V30 5076 H 491.292 4.06156 -0.387457 0
M  V30 5077 H 489.967 3.86982 -1.52375 0
M  V30 5078 H 488.544 3.71681 0.301316 0
M  V30 5079 N 490.729 0.570148 1.46925 0
M  V30 5080 C 491.978 0.0487352 2.01641 0
M  V30 5081 C 492.291 -1.31433 1.44861 0
M  V30 5082 O 493.497 -1.92638 1.91318 0
M  V30 5083 C 491.953 0.0365817 3.59881 0
M  V30 5084 C 491.561 1.39719 4.25655 0
M  V30 5085 C 493.305 -0.431545 4.22301 0
M  V30 5086 C 491.212 1.34345 5.75939 0
M  V30 5087 H 490.142 0.0144492 0.753862 0
M  V30 5088 H 492.793 0.719928 1.68788 0
M  V30 5089 H 491.175 -0.700522 3.89755 0
M  V30 5090 H 492.349 2.15303 4.07408 0
M  V30 5091 H 490.664 1.80431 3.75278 0
M  V30 5092 H 493.261 -0.490354 5.32447 0
M  V30 5093 H 493.604 -1.44638 3.90366 0
M  V30 5094 H 494.137 0.251102 3.97007 0
M  V30 5095 H 490.876 2.33469 6.12513 0
M  V30 5096 H 490.396 0.629615 5.96486 0
M  V30 5097 H 492.075 1.051 6.38407 0
M  V30 5098 N 492.207 -1.54576 0.307264 0
M  V30 5099 C 493.618 -1.8579 -0.184121 0
M  V30 5100 C 493.969 -1.22914 -1.52927 0
M  V30 5101 O 493.094 -0.529126 -2.09831 0
M  V30 5102 C 493.689 -3.37081 -0.340862 0
M  V30 5103 C 492.248 -3.68304 -0.776465 0
M  V30 5104 C 491.395 -2.77076 0.111503 0
M  V30 5105 H 494.346 -1.49656 0.528078 0
M  V30 5106 H 494.367 -3.61922 -1.17443 0
M  V30 5107 H 493.879 -3.82815 0.638309 0
M  V30 5108 H 491.98 -3.28092 -1.76596 0
M  V30 5109 H 492.093 -4.75434 -0.591512 0
M  V30 5110 H 490.457 -2.51374 -0.410256 0
M  V30 5111 H 491.24 -3.25632 1.08714 0
M  V30 5112 N 493.685 -0.035106 -1.57561 0
M  V30 5113 C 494.91 0.655802 -1.96759 0
M  V30 5114 C 495.335 1.64523 -0.911809 0
M  V30 5115 O 494.693 1.80857 0.126673 0
M  V30 5116 C 494.741 1.33326 -3.35047 0
M  V30 5117 O 493.845 2.44866 -3.31835 0
M  V30 5118 H 493.186 0.171807 -0.641388 0
M  V30 5119 H 495.716 -0.0987369 -2.04362 0
M  V30 5120 H 495.726 1.68867 -3.71413 0
M  V30 5121 H 494.401 0.608033 -4.11431 0
M  V30 5122 H 492.978 2.11392 -3.07193 0
M  V30 5123 N 495.163 1.55791 0.238111 0
M  V30 5124 C 496.126 1.90239 1.27835 0
M  V30 5125 C 497.126 0.779552 1.4064 0
M  V30 5126 O 498.316 1.04747 1.3919 0
M  V30 5127 C 495.448 2.13859 2.65475 0
M  V30 5128 H 496.641 2.83262 0.985034 0
M  V30 5129 H 494.194 1.48818 0.477799 0
M  V30 5130 H 494.929 1.23334 2.99932 0
M  V30 5131 H 494.714 2.95643 2.57561 0
M  V30 5132 H 496.204 2.41664 3.40571 0
M  V30 5133 N 496.642 -0.504142 1.49319 0
M  V30 5134 C 497.572 -1.61473 1.68667 0
M  V30 5135 C 498.553 -1.61455 0.535378 0
M  V30 5136 O 499.738 -1.78245 0.770868 0
M  V30 5137 C 496.868 -2.99971 1.75028 0
M  V30 5138 C 495.822 -3.14854 2.89916 0
M  V30 5139 C 495.148 -4.54671 2.81387 0
M  V30 5140 C 496.448 -2.95176 4.30893 0
M  V30 5141 H 498.142 -1.45535 2.61648 0
M  V30 5142 H 495.688 -0.698711 1.25913 0
M  V30 5143 H 497.641 -3.77562 1.8715 0
M  V30 5144 H 496.365 -3.1699 0.786441 0
M  V30 5145 H 495.024 -2.39687 2.77391 0
M  V30 5146 H 494.672 -4.68562 1.82917 0
M  V30 5147 H 494.372 -4.6557 3.58494 0
M  V30 5148 H 495.896 -5.34327 2.95512 0
M  V30 5149 H 497.31 -3.62538 4.44116 0
M  V30 5150 H 495.707 -3.17549 5.09198 0
M  V30 5151 H 496.777 -1.91332 4.45556 0
M  V30 5152 N 498.12 -1.38341 -0.754957 0
M  V30 5153 C 499.531 -1.30803 -1.3322 0
M  V30 5154 C 499.882 0.0368 -1.96165 0
M  V30 5155 O 499.007 0.938844 -1.94974 0
M  V30 5156 C 499.602 -2.3688 -2.42225 0
M  V30 5157 C 498.161 -2.32925 -2.95674 0
M  V30 5158 C 497.308 -2.19819 -1.69042 0
M  V30 5159 H 500.259 -1.48719 -0.553937 0
M  V30 5160 H 500.28 -2.02517 -3.22129 0
M  V30 5161 H 499.792 -3.34747 -1.96383 0
M  V30 5162 H 497.893 -1.38635 -3.45848 0
M  V30 5163 H 498.006 -3.27008 -3.50146 0
M  V30 5164 H 496.37 -1.66648 -1.92615 0
M  V30 5165 H 497.153 -3.19625 -1.25279 0
M  V30 5166 N 499.598 0.982988 -1.23187 0
M  V30 5167 C 500.508 2.10907 -1.02739 0
M  V30 5168 C 501.524 1.73979 0.0273188 0
M  V30 5169 O 502.7 2.00702 -0.16757 0
M  V30 5170 C 499.765 3.41142 -0.618304 0
M  V30 5171 C 498.826 3.92112 -1.74777 0
M  V30 5172 C 498.059 5.16131 -1.3581 0
M  V30 5173 O 498.282 5.6989 -0.241201 0
M  V30 5174 O 497.216 5.61103 -2.17824 0
M  V30 5175 H 501.042 2.31046 -1.97108 0
M  V30 5176 H 498.627 1.09284 -1.01869 0
M  V30 5177 H 500.509 4.19488 -0.400982 0
M  V30 5178 H 499.184 3.2234 0.296421 0
M  V30 5179 H 498.091 3.14895 -2.0197 0
M  V30 5180 H 499.424 4.15364 -2.64071 0
M  V30 5181 N 501.076 1.04316 1.18135 0
M  V30 5182 C 502.487 0.775505 1.69832 0
M  V30 5183 C 502.838 -0.703348 1.8316 0
M  V30 5184 O 501.963 -1.54729 1.51287 0
M  V30 5185 C 502.558 1.40112 3.0847 0
M  V30 5186 C 501.117 1.18172 3.57368 0
M  V30 5187 C 500.264 1.49022 2.33854 0
M  V30 5188 H 503.215 1.20925 1.02775 0
M  V30 5189 H 503.236 0.805672 3.71873 0
M  V30 5190 H 502.748 2.47744 2.98738 0
M  V30 5191 H 500.849 0.124258 3.72393 0
M  V30 5192 H 500.962 1.8805 4.40652 0
M  V30 5193 H 499.326 0.909995 2.37889 0
M  V30 5194 H 500.109 2.57768 2.26738 0
M  V30 5195 N 502.554 -1.34406 0.822964 0
M  V30 5196 C 503.487 -2.27407 0.190124 0
M  V30 5197 C 504.465 -1.4889 -0.653486 0
M  V30 5198 O 505.649 -1.78109 -0.617216 0
M  V30 5199 C 502.776 -3.3064 -0.734477 0
M  V30 5200 C 501.822 -4.26488 0.0316099 0
M  V30 5201 S 502.655 -5.17445 1.3788 0
M  V30 5202 C 503.811 -6.24214 0.45907 0
M  V30 5203 H 504.044 -2.80733 0.978586 0
M  V30 5204 H 501.577 -1.41455 0.618866 0
M  V30 5205 H 503.535 -3.90607 -1.26238 0
M  V30 5206 H 502.196 -2.76161 -1.49646 0
M  V30 5207 H 501.389 -4.9951 -0.671285 0
M  V30 5208 H 500.991 -3.70775 0.490066 0
M  V30 5209 H 503.283 -6.76599 -0.349357 0
M  V30 5210 H 504.226 -6.98551 1.15896 0
M  V30 5211 H 504.634 -5.6448 0.0474825 0
M  V30 5212 N 504.032 -0.577932 -1.46621 0
M  V30 5213 C 505.26 -0.0671642 -2.06791 0
M  V30 5214 C 505.675 1.23571 -1.42743 0
M  V30 5215 O 505.032 1.74602 -0.531062 0
M  V30 5216 C 505.083 0.110357 -3.61332 0
M  V30 5217 O 504.804 -1.14095 -4.22982 0
M  V30 5218 C 506.305 0.656025 -4.38419 0
M  V30 5219 H 503.525 -0.0552732 -0.66872 0
M  V30 5220 H 506.069 -0.797242 -1.8832 0
M  V30 5221 H 504.224 0.790637 -3.79246 0
M  V30 5222 H 504.638 -0.951742 -5.15793 0
M  V30 5223 H 506.112 0.729438 -5.47159 0
M  V30 5224 H 506.589 1.67195 -4.06131 0
M  V30 5225 H 507.195 0.0107692 -4.25299 0
M  V30 5226 N 505.51 1.54411 -0.315457 0
M  V30 5227 C 506.473 2.22713 0.54142 0
M  V30 5228 C 507.473 1.2179 1.04995 0
M  V30 5229 O 508.663 1.46426 0.943667 0
M  V30 5230 C 505.795 2.92485 1.75116 0
M  V30 5231 H 506.988 2.99849 -0.0555508 0
M  V30 5232 H 504.541 1.56159 -0.0664453 0
M  V30 5233 H 505.276 2.19466 2.38758 0
M  V30 5234 H 505.061 3.66483 1.39401 0
M  V30 5235 H 506.551 3.44548 2.35959 0
M  V30 5236 N 506.988 0.0434614 1.5754 0
M  V30 5237 C 508.213 -0.645358 1.97104 0
M  V30 5238 C 508.638 -1.64037 0.920521 0
M  V30 5239 O 507.996 -1.80922 -0.11708 0
M  V30 5240 C 508.044 -1.31547 3.35749 0
M  V30 5241 O 507.148 -2.43103 3.33129 0
M  V30 5242 H 506.489 -0.168403 0.64229 0
M  V30 5243 H 509.019 0.109573 2.04306 0
M  V30 5244 H 509.029 -1.66895 3.72304 0
M  V30 5245 H 507.704 -0.586205 4.11748 0
M  V30 5246 H 506.281 -2.0976 3.0831 0
M  V30 5247 N 508.466 -1.55915 -0.229846 0
M  V30 5248 C 509.376 -1.94891 -1.30593 0
M  V30 5249 C 510.392 -0.851604 -1.51736 0
M  V30 5250 O 511.568 -1.15447 -1.65027 0
M  V30 5251 C 508.633 -2.25052 -2.63728 0
M  V30 5252 C 507.694 -3.48306 -2.5096 0
M  V30 5253 C 506.927 -3.77019 -3.77747 0
M  V30 5254 O 507.15 -3.07534 -4.80395 0
M  V30 5255 O 506.084 -4.70523 -3.75356 0
M  V30 5256 H 509.91 -2.86581 -1.00525 0
M  V30 5257 H 507.495 -1.43017 -0.432025 0
M  V30 5258 H 509.377 -2.45682 -3.42372 0
M  V30 5259 H 508.052 -1.36538 -2.93495 0
M  V30 5260 H 506.959 -3.32964 -1.70546 0
M  V30 5261 H 508.292 -4.37177 -2.26136 0
M  V30 5262 N 509.944 0.496216 -1.49584 0
M  V30 5263 C 510.907 1.57952 -1.66084 0
M  V30 5264 C 511.907 1.51729 -0.53244 0
M  V30 5265 O 513.097 1.54796 -0.79899 0
M  V30 5266 C 510.229 2.97604 -1.66268 0
M  V30 5267 H 511.422 1.44649 -2.6271 0
M  V30 5268 H 508.975 0.7208 -1.38687 0
M  V30 5269 H 509.71 3.16378 -0.712432 0
M  V30 5270 H 509.495 3.03528 -2.4822 0
M  V30 5271 H 510.985 3.76301 -1.81073 0
M  V30 5272 N 511.423 1.38739 0.74761 0
M  V30 5273 C 512.386 1.36241 1.84312 0
M  V30 5274 C 513.386 0.261811 1.58654 0
M  V30 5275 O 514.576 0.519031 1.66288 0
M  V30 5276 C 511.708 1.12253 3.21888 0
M  V30 5277 H 512.901 2.33712 1.87933 0
M  V30 5278 H 510.454 1.2412 0.949946 0
M  V30 5279 H 511.189 0.154133 3.23934 0
M  V30 5280 H 510.974 1.91943 3.41907 0
M  V30 5281 H 512.464 1.13215 4.0196 0
M  V30 5282 N 512.901 -0.976442 1.23707 0
M  V30 5283 C 513.864 -2.0511 1.02287 0
M  V30 5284 C 514.864 -1.60791 -0.0167195 0
M  V30 5285 O 516.054 -1.72761 0.223408 0
M  V30 5286 C 513.186 -3.36458 0.548507 0
M  V30 5287 H 514.379 -2.25545 1.9766 0
M  V30 5288 H 511.932 -1.15042 1.05806 0
M  V30 5289 H 512.667 -3.21713 -0.408818 0
M  V30 5290 H 512.452 -3.69967 1.29874 0
M  V30 5291 H 513.942 -4.15489 0.419406 0
M  V30 5292 N 514.379 -1.04941 -1.1758 0
M  V30 5293 C 515.795 -0.770282 -1.39781 0
M  V30 5294 C 515.995 0.636417 -1.91186 0
M  V30 5295 O 515.051 1.39923 -2.10185 0
M  V30 5296 C 516.364 -1.82376 -2.3908 0
M  V30 5297 C 517.912 -1.84569 -2.52791 0
M  V30 5298 C 518.387 -2.88933 -3.55361 0
M  V30 5299 N 519.878 -2.8788 -3.62877 0
M  V30 5300 C 520.613 -3.65282 -4.41992 0
M  V30 5301 N 520.109 -4.52461 -5.24643 0
M  V30 5302 N 521.902 -3.53732 -4.36841 0
M  V30 5303 H 514.053 -1.95705 -0.825438 0
M  V30 5304 H 516.316 -0.847284 -0.425222 0
M  V30 5305 H 516.022 -2.83323 -2.08376 0
M  V30 5306 H 515.896 -1.66327 -3.38549 0
M  V30 5307 H 518.283 -0.842879 -2.82807 0
M  V30 5308 H 518.364 -2.04696 -1.53406 0
M  V30 5309 H 518.008 -3.89398 -3.26085 0
M  V30 5310 H 517.938 -2.66059 -4.54445 0
M  V30 5311 H 520.429 -2.24666 -3.03864 0
M  V30 5312 H 520.742 -5.08211 -5.82187 0
M  V30 5313 H 519.087 -4.56524 -5.24033 0
M  V30 5314 H 522.278 -2.85021 -3.71323 0
M  V30 5315 H 522.451 -4.14302 -4.98255 0
M  V30 5316 N 515.857 1.33968 -0.830081 0
M  V30 5317 C 516.804 2.29387 -0.255008 0
M  V30 5318 C 517.774 1.53923 0.624243 0
M  V30 5319 O 518.959 1.82262 0.564372 0
M  V30 5320 C 516.099 3.4034 0.571209 0
M  V30 5321 C 515.212 4.30729 -0.331083 0
M  V30 5322 C 514.347 5.2879 0.505389 0
M  V30 5323 C 513.386 6.10819 -0.395843 0
M  V30 5324 N 512.523 7.00948 0.401979 0
M  V30 5325 H 517.363 2.77972 -1.07404 0
M  V30 5326 H 514.9 1.36785 -0.541133 0
M  V30 5327 H 516.858 4.03361 1.06562 0
M  V30 5328 H 515.488 2.9297 1.35529 0
M  V30 5329 H 514.54 3.68507 -0.943759 0
M  V30 5330 H 515.852 4.88181 -1.02377 0
M  V30 5331 H 515.006 5.97297 1.06399 0
M  V30 5332 H 513.745 4.71894 1.23155 0
M  V30 5333 H 512.75 5.41238 -0.966529 0
M  V30 5334 H 513.975 6.69797 -1.12023 0
M  V30 5335 H 511.921 6.46512 1.11168 0
M  V30 5336 H 511.838 7.55643 -0.232167 0
M  V30 5337 H 513.106 7.73774 0.943102 0
M  V30 5338 N 517.335 0.585699 1.46312 0
M  V30 5339 C 518.56 0.0762461 2.0726 0
M  V30 5340 C 518.985 -1.22071 1.43109 0
M  V30 5341 O 518.343 -1.73804 0.515942 0
M  V30 5342 C 518.391 -0.0729404 3.60526 0
M  V30 5343 O 517.495 -1.1287 3.96654 0
M  V30 5344 H 516.836 0.0641558 0.660893 0
M  V30 5345 H 519.366 0.809492 1.87905 0
M  V30 5346 H 519.376 -0.278158 4.07051 0
M  V30 5347 H 518.051 0.874188 4.06609 0
M  V30 5348 H 516.628 -0.901703 3.61834 0
M  V30 5349 N 518.813 -1.54241 0.323641 0
M  V30 5350 C 519.745 -2.21836 -0.576311 0
M  V30 5351 C 520.758 -1.21837 -1.07979 0
M  V30 5352 O 521.947 -1.48306 -0.99336 0
M  V30 5353 C 519.047 -2.86923 -1.80356 0
M  V30 5354 C 518.22 -4.1306 -1.43875 0
M  V30 5355 C 517.279 -4.6174 -2.52353 0
M  V30 5356 O 516.305 -5.26421 -2.16494 0
M  V30 5357 N 517.507 -4.35974 -3.83284 0
M  V30 5358 H 520.272 -2.997 0.00247987 0
M  V30 5359 H 517.833 -1.61233 0.146848 0
M  V30 5360 H 519.825 -3.16414 -2.52318 0
M  V30 5361 H 518.395 -2.12765 -2.29019 0
M  V30 5362 H 517.615 -3.90334 -0.550752 0
M  V30 5363 H 518.903 -4.95148 -1.17071 0
M  V30 5364 H 518.301 -3.84203 -4.15216 0
M  V30 5365 H 516.858 -4.70119 -4.51477 0
M  V30 5366 N 520.291 -0.0518155 -1.57515 0
M  V30 5367 C 521.54 0.621286 -1.91893 0
M  V30 5368 C 521.853 1.71966 -0.932052 0
M  V30 5369 O 523.059 2.45096 -1.16791 0
M  V30 5370 C 521.515 1.15641 -3.40816 0
M  V30 5371 C 521.123 0.0901146 -4.47909 0
M  V30 5372 C 522.867 1.80472 -3.84227 0
M  V30 5373 C 520.774 0.638154 -5.87947 0
M  V30 5374 H 519.704 0.235835 -0.716169 0
M  V30 5375 H 522.355 -0.120809 -1.83102 0
M  V30 5376 H 520.737 1.95084 -3.44613 0
M  V30 5377 H 521.911 -0.683525 -4.55702 0
M  V30 5378 H 520.226 -0.460774 -4.13843 0
M  V30 5379 H 522.823 2.22471 -4.86221 0
M  V30 5380 H 523.166 2.65669 -3.20508 0
M  V30 5381 H 523.699 1.07683 -3.82948 0
M  V30 5382 H 520.438 -0.176202 -6.55263 0
M  V30 5383 H 519.958 1.37976 -5.83714 0
M  V30 5384 H 521.637 1.12085 -6.37217 0
M  V30 5385 N 521.769 1.56035 0.221574 0
M  V30 5386 C 522.716 1.92413 1.27459 0
M  V30 5387 C 523.686 0.781323 1.46576 0
M  V30 5388 O 524.871 1.03721 1.60145 0
M  V30 5389 C 522.011 2.24617 2.61995 0
M  V30 5390 C 521.124 3.51831 2.50677 0
M  V30 5391 C 520.259 3.73482 3.77736 0
M  V30 5392 C 519.298 4.94211 3.6114 0
M  V30 5393 N 518.435 5.12252 4.80148 0
M  V30 5394 H 523.275 2.82203 0.957355 0
M  V30 5395 H 520.812 1.39676 0.461415 0
M  V30 5396 H 522.77 2.41298 3.40339 0
M  V30 5397 H 521.4 1.38 2.91815 0
M  V30 5398 H 520.452 3.43343 1.63767 0
M  V30 5399 H 521.764 4.40328 2.34334 0
M  V30 5400 H 520.918 3.9026 4.64523 0
M  V30 5401 H 519.657 2.83266 3.97003 0
M  V30 5402 H 518.662 4.77384 2.72736 0
M  V30 5403 H 519.887 5.85912 3.43343 0
M  V30 5404 H 517.833 4.24978 4.99729 0
M  V30 5405 H 517.75 5.94881 4.66532 0
M  V30 5406 H 519.018 5.33465 5.68362 0
M  V30 5407 N 523.247 -0.488276 1.49845 0
M  V30 5408 C 524.21 -1.57069 1.66919 0
M  V30 5409 C 525.21 -1.51445 0.540479 0
M  V30 5410 O 526.4 -1.5437 0.807188 0
M  V30 5411 C 523.532 -2.96718 1.67844 0
M  V30 5412 H 524.725 -1.43254 2.63474 0
M  V30 5413 H 522.278 -0.713435 1.39068 0
M  V30 5414 H 523.013 -3.15996 0.7292 0
M  V30 5415 H 522.798 -3.02208 2.49826 0
M  V30 5416 H 524.288 -3.75335 1.83066 0
M  V30 5417 N 524.725 -1.39134 -0.740242 0
M  V30 5418 C 526.141 -1.20623 -1.0451 0
M  V30 5419 C 526.341 -0.0641651 -2.01398 0
M  V30 5420 O 525.397 0.585843 -2.4561 0
M  V30 5421 C 526.71 -2.53815 -1.6124 0
M  V30 5422 C 528.258 -2.60615 -1.73346 0
M  V30 5423 C 528.733 -3.94015 -2.33486 0
M  V30 5424 N 530.224 -3.95627 -2.40902 0
M  V30 5425 C 530.959 -4.95616 -2.88361 0
M  V30 5426 N 530.455 -6.06003 -3.35756 0
M  V30 5427 N 532.248 -4.82998 -2.87523 0
M  V30 5428 H 524.399 -2.12176 -0.0975576 0
M  V30 5429 H 526.662 -0.942066 -0.105904 0
M  V30 5430 H 526.368 -3.37911 -0.975144 0
M  V30 5431 H 526.242 -2.73162 -2.6012 0
M  V30 5432 H 528.629 -1.76906 -2.36195 0
M  V30 5433 H 528.71 -2.45123 -0.731336 0
M  V30 5434 H 528.354 -4.78153 -1.71267 0
M  V30 5435 H 528.284 -4.06825 -3.34366 0
M  V30 5436 H 530.775 -3.15903 -2.07398 0
M  V30 5437 H 531.088 -6.78215 -3.70464 0
M  V30 5438 H 529.433 -6.09604 -3.33778 0
M  V30 5439 H 532.624 -3.95866 -2.49816 0
M  V30 5440 H 532.797 -5.61072 -3.24196 0
M  V30 5441 N 526.204 0.969867 -1.24223 0
M  V30 5442 C 527.453 1.70687 -1.07466 0
M  V30 5443 C 527.766 1.91736 0.386861 0
M  V30 5444 O 528.972 2.62986 0.674581 0
M  V30 5445 C 527.428 3.07217 -1.87472 0
M  V30 5446 C 527.036 2.94018 -3.3802 0
M  V30 5447 C 528.78 3.84804 -1.79237 0
M  V30 5448 C 526.687 4.25844 -4.10379 0
M  V30 5449 H 525.617 0.640067 -0.398536 0
M  V30 5450 H 528.268 1.08092 -1.48285 0
M  V30 5451 H 526.65 3.70628 -1.39466 0
M  V30 5452 H 527.824 2.39632 -3.9359 0
M  V30 5453 H 526.139 2.29898 -3.47183 0
M  V30 5454 H 528.736 4.82417 -2.30603 0
M  V30 5455 H 529.079 4.09356 -0.757197 0
M  V30 5456 H 529.612 3.28115 -2.24912 0
M  V30 5457 H 526.351 4.06486 -5.14246 0
M  V30 5458 H 525.871 4.80054 -3.59594 0
M  V30 5459 H 527.55 4.94475 -4.17257 0
M  V30 5460 N 527.682 1.05563 1.17022 0
M  V30 5461 C 528.91 0.78845 1.91288 0
M  V30 5462 C 529.325 -0.656318 1.77025 0
M  V30 5463 O 528.682 -1.44869 1.10992 0
M  V30 5464 C 528.733 1.16444 3.42232 0
M  V30 5465 O 528.454 2.5525 3.5606 0
M  V30 5466 C 529.955 0.923937 4.33565 0
M  V30 5467 H 527.175 0.286389 0.606813 0
M  V30 5468 H 529.719 1.4073 1.48375 0
M  V30 5469 H 527.874 0.590266 3.82877 0
M  V30 5470 H 528.288 2.70097 4.49609 0
M  V30 5471 H 529.762 1.23672 5.37968 0
M  V30 5472 H 530.239 -0.140688 4.38975 0
M  V30 5473 H 530.845 1.48214 3.98639 0
M  V30 5474 N 529.16 -1.33526 0.837174 0
M  V30 5475 C 530.437 -1.92369 0.354065 0
M  V30 5476 C 530.817 -1.76348 -1.16038 0
M  V30 5477 O 530.165 -1.15083 -1.97403 0
M  V30 5478 C 530.375 -3.39728 0.799101 0
M  V30 5479 C 531.723 -4.16877 0.806139 0
M  V30 5480 O 532.747 -3.48373 0.742597 0
M  V30 5481 O 531.606 -5.39166 0.892345 0
M  V30 5482 H 528.7 -0.820952 0.0998378 0
M  V30 5483 H 531.246 -1.42409 0.922913 0
M  V30 5484 H 530.018 -3.45254 1.84162 0
M  V30 5485 H 529.641 -3.97062 0.206731 0
M  V30 5486 N 530.638 -0.59345 -1.46 0
M  V30 5487 C 531.866 -0.0890934 -2.06708 0
M  V30 5488 C 532.281 1.2205 -1.44046 0
M  V30 5489 O 531.638 1.74029 -0.549551 0
M  V30 5490 C 531.689 0.0720263 -3.61428 0
M  V30 5491 O 531.41 -1.18574 -4.21748 0
M  V30 5492 C 532.911 0.609487 -4.3909 0
M  V30 5493 H 530.131 -0.0623628 -0.668096 0
M  V30 5494 H 532.675 -0.817171 -1.87464 0
M  V30 5495 H 530.83 0.750369 -3.80063 0
M  V30 5496 H 531.244 -1.0064 -5.14754 0
M  V30 5497 H 532.718 0.671363 -5.47902 0
M  V30 5498 H 533.195 1.62878 -4.07882 0
M  V30 5499 H 533.801 -0.03434 -4.25286 0
M  V30 5500 N 532.116 1.54067 -0.331816 0
M  V30 5501 C 533.365 1.99895 0.269209 0
M  V30 5502 C 533.678 1.22371 1.52593 0
M  V30 5503 O 534.884 1.58618 2.20347 0
M  V30 5504 C 533.34 3.55972 0.530244 0
M  V30 5505 C 532.948 4.4234 -0.709901 0
M  V30 5506 C 534.692 4.10247 1.09077 0
M  V30 5507 C 532.599 5.89905 -0.420312 0
M  V30 5508 H 531.529 0.746741 0.104371 0
M  V30 5509 H 534.18 1.78014 -0.445324 0
M  V30 5510 H 532.562 3.73873 1.30518 0
M  V30 5511 H 533.736 4.36215 -1.48504 0
M  V30 5512 H 532.051 3.98997 -1.19123 0
M  V30 5513 H 534.648 5.18095 1.32219 0
M  V30 5514 H 534.991 3.62739 2.0427 0
M  V30 5515 H 535.524 3.96011 0.376824 0
M  V30 5516 H 532.263 6.41623 -1.34164 0
M  V30 5517 H 531.783 5.98962 0.316962 0
M  V30 5518 H 533.462 6.46991 -0.0331956 0
M  V30 5519 N 533.594 0.0601682 1.57485 0
M  V30 5520 C 534.842 -0.610386 1.92662 0
M  V30 5521 C 535.163 -1.70849 0.939981 0
M  V30 5522 O 534.433 -1.95895 -0.0137455 0
M  V30 5523 H 533.013 -0.228457 0.711208 0
M  V30 5524 H 535.675 0.115288 1.94559 0
M  V30 5525 H 534.771 -1.0432 2.94149 0
M  V30 5526 N 535.072 -1.5615 -0.213296 0
M  V30 5527 C 536.483 -1.69645 -0.779582 0
M  V30 5528 C 536.834 -0.663615 -1.84636 0
M  V30 5529 O 535.959 0.183633 -2.15619 0
M  V30 5530 C 536.554 -3.07567 -1.42084 0
M  V30 5531 C 535.113 -3.22889 -1.93442 0
M  V30 5532 C 534.26 -2.65581 -0.797612 0
M  V30 5533 H 537.211 -1.58696 0.0114951 0
M  V30 5534 H 537.232 -3.03884 -2.28986 0
M  V30 5535 H 536.744 -3.82716 -0.644187 0
M  V30 5536 H 534.845 -2.52623 -2.73884 0
M  V30 5537 H 534.958 -4.30197 -2.10872 0
M  V30 5538 H 533.322 -2.24278 -1.20712 0
M  V30 5539 H 534.105 -3.43284 -0.033494 0
M  V30 5540 N 536.55 0.480323 -1.50102 0
M  V30 5541 C 537.778 1.25657 -1.64371 0
M  V30 5542 C 538.193 1.86011 -0.323316 0
M  V30 5543 O 537.55 1.68803 0.693682 0
M  V30 5544 C 537.601 2.37197 -2.728 0
M  V30 5545 O 537.322 1.7932 -3.9972 0
M  V30 5546 C 538.823 3.2823 -2.9796 0
M  V30 5547 H 536.043 0.380369 -0.552775 0
M  V30 5548 H 538.587 0.574379 -1.96268 0
M  V30 5549 H 536.742 3.01208 -2.43623 0
M  V30 5550 H 537.156 2.52701 -4.59611 0
M  V30 5551 H 538.63 4.02725 -3.77513 0
M  V30 5552 H 539.107 3.86462 -2.08671 0
M  V30 5553 H 539.713 2.69964 -3.28633 0
M  V30 5554 N 538.028 1.39524 0.732853 0
M  V30 5555 C 538.938 1.40695 1.87729 0
M  V30 5556 C 539.954 0.301496 1.71368 0
M  V30 5557 O 541.13 0.543313 1.93933 0
M  V30 5558 C 538.195 1.25098 3.23344 0
M  V30 5559 C 537.256 2.45634 3.52083 0
M  V30 5560 C 536.489 2.30772 4.81228 0
M  V30 5561 O 536.712 1.31233 5.55098 0
M  V30 5562 O 535.646 3.19799 5.09914 0
M  V30 5563 H 539.472 2.37168 1.89697 0
M  V30 5564 H 537.057 1.20663 0.880959 0
M  V30 5565 H 538.939 1.18541 4.04383 0
M  V30 5566 H 537.614 0.317209 3.22142 0
M  V30 5567 H 536.521 2.57767 2.71122 0
M  V30 5568 H 537.854 3.37712 3.58066 0
M  V30 5569 N 539.506 -0.963266 1.24736 0
M  V30 5570 C 540.734 -1.74166 1.11686 0
M  V30 5571 C 541.149 -1.8589 -0.330187 0
M  V30 5572 O 540.506 -1.35042 -1.2276 0
M  V30 5573 C 540.557 -3.15989 1.75595 0
M  V30 5574 O 540.278 -3.04847 3.14642 0
M  V30 5575 C 541.779 -4.10145 1.68213 0
M  V30 5576 H 538.999 -0.546031 0.389989 0
M  V30 5577 H 541.543 -1.20907 1.64929 0
M  V30 5578 H 539.698 -3.66219 1.26343 0
M  V30 5579 H 540.112 -3.9425 3.4593 0
M  V30 5580 H 541.586 -5.07299 2.17604 0
M  V30 5581 H 542.063 -4.3445 0.644208 0
M  V30 5582 H 542.669 -3.65827 2.16912 0
M  V30 5583 N 540.985 -1.06182 -1.16461 0
M  V30 5584 C 542.21 -0.798599 -1.91408 0
M  V30 5585 C 542.635 0.640987 -1.76842 0
M  V30 5586 O 541.993 1.44652 -1.09296 0
M  V30 5587 C 542.041 -1.19665 -3.40165 0
M  V30 5588 O 541.145 -0.334768 -4.11039 0
M  V30 5589 H 540.486 -0.291961 -0.596368 0
M  V30 5590 H 543.016 -1.41732 -1.47557 0
M  V30 5591 H 543.026 -1.16772 -3.90933 0
M  V30 5592 H 541.701 -2.24526 -3.50087 0
M  V30 5593 H 540.278 -0.425168 -3.70468 0
M  V30 5594 N 542.463 1.3308 -0.844243 0
M  V30 5595 C 543.712 1.96868 -0.438833 0
M  V30 5596 C 544.025 1.67599 1.00846 0
M  V30 5597 O 545.231 2.25043 1.51881 0
M  V30 5598 C 543.687 3.5234 -0.73377 0
M  V30 5599 C 543.295 3.90481 -2.1961 0
M  V30 5600 C 545.039 4.22653 -0.395574 0
M  V30 5601 C 542.946 5.38954 -2.43481 0
M  V30 5602 H 541.876 0.736749 -0.160364 0
M  V30 5603 H 544.527 1.51623 -1.03358 0
M  V30 5604 H 542.909 3.95941 -0.068589 0
M  V30 5605 H 544.083 3.57922 -2.90221 0
M  V30 5606 H 542.398 3.33165 -2.4978 0
M  V30 5607 H 544.995 5.31848 -0.551477 0
M  V30 5608 H 545.338 4.11004 0.661921 0
M  V30 5609 H 545.871 3.84601 -1.01621 0
M  V30 5610 H 542.61 5.55612 -3.47816 0
M  V30 5611 H 542.13 5.72954 -1.77437 0
M  V30 5612 H 543.809 6.05907 -2.26905 0
M  V30 5613 N 543.941 0.601185 1.45683 0
M  V30 5614 C 544.904 -0.111398 2.28929 0
M  V30 5615 C 545.904 -0.801246 1.39416 0
M  V30 5616 O 547.094 -0.650383 1.61603 0
M  V30 5617 C 544.226 -1.16773 3.20276 0
M  V30 5618 H 545.419 0.620412 2.93413 0
M  V30 5619 H 542.972 0.359946 1.52099 0
M  V30 5620 H 543.707 -1.93051 2.60579 0
M  V30 5621 H 543.492 -0.677358 3.86205 0
M  V30 5622 H 544.982 -1.66698 3.82886 0
M  V30 5623 N 545.419 -1.53889 0.339982 0
M  V30 5624 C 546.83 -1.86139 -0.144671 0
M  V30 5625 C 547.181 -1.2613 -1.50285 0
M  V30 5626 O 546.306 -0.573515 -2.08662 0
M  V30 5627 C 546.901 -3.37728 -0.269285 0
M  V30 5628 C 545.46 -3.69868 -0.698168 0
M  V30 5629 C 544.607 -2.76777 0.170249 0
M  V30 5630 H 547.558 -1.48503 0.559704 0
M  V30 5631 H 547.579 -3.64331 -1.0974 0
M  V30 5632 H 547.091 -3.81375 0.719366 0
M  V30 5633 H 545.192 -3.31764 -1.69597 0
M  V30 5634 H 545.305 -4.76582 -0.490533 0
M  V30 5635 H 543.669 -2.52188 -0.356844 0
M  V30 5636 H 544.452 -3.23253 1.15597 0
M  V30 5637 N 546.897 -0.0685191 -1.57451 0
M  V30 5638 C 548.313 0.288101 -1.56978 0
M  V30 5639 C 548.513 1.70262 -1.07765 0
M  V30 5640 O 547.569 2.4135 -0.742054 0
M  V30 5641 C 548.882 0.100745 -3.00531 0
M  V30 5642 C 550.43 0.170531 -3.12535 0
M  V30 5643 C 550.905 0.0114944 -4.57999 0
M  V30 5644 N 552.396 0.0672065 -4.63151 0
M  V30 5645 C 553.131 -0.0314813 -5.73391 0
M  V30 5646 N 552.627 -0.183503 -6.92557 0
M  V30 5647 N 554.42 0.0253489 -5.62094 0
M  V30 5648 H 546.571 -0.993026 -1.87757 0
M  V30 5649 H 548.834 -0.386981 -0.865419 0
M  V30 5650 H 548.54 -0.875197 -3.40636 0
M  V30 5651 H 548.414 0.854457 -3.67395 0
M  V30 5652 H 550.801 1.13696 -2.72318 0
M  V30 5653 H 550.882 -0.614229 -2.48316 0
M  V30 5654 H 550.526 -0.951684 -4.98904 0
M  V30 5655 H 550.456 0.815617 -5.20245 0
M  V30 5656 H 552.947 0.183246 -3.77455 0
M  V30 5657 H 553.26 -0.251041 -7.72392 0
M  V30 5658 H 551.605 -0.218822 -6.94655 0
M  V30 5659 H 554.796 0.142794 -4.67882 0
M  V30 5660 H 554.969 -0.0550166 -6.47977 0
M  V30 5661 N 548.375 1.56261 0.205012 0
M  V30 5662 C 549.307 1.90266 1.27795 0
M  V30 5663 C 550.32 0.792397 1.42214 0
M  V30 5664 O 551.509 1.07077 1.42817 0
M  V30 5665 C 548.609 2.11074 2.65143 0
M  V30 5666 C 547.782 3.42176 2.7246 0
M  V30 5667 C 546.841 3.52216 3.90936 0
M  V30 5668 O 545.867 4.25119 3.78501 0
M  V30 5669 N 547.069 2.84573 5.05963 0
M  V30 5670 H 549.834 2.82896 0.989434 0
M  V30 5671 H 547.395 1.57008 0.394981 0
M  V30 5672 H 549.387 2.15089 3.4281 0
M  V30 5673 H 547.957 1.2499 2.86524 0
M  V30 5674 H 547.177 3.50116 1.81142 0
M  V30 5675 H 548.465 4.28509 2.74331 0
M  V30 5676 H 547.863 2.25152 5.18963 0
M  V30 5677 H 546.42 2.94228 5.81613 0
M  V30 5678 N 549.853 -0.472356 1.50355 0
M  V30 5679 C 551.269 -0.806001 1.37753 0
M  V30 5680 C 551.469 -1.968 0.432649 0
M  V30 5681 O 550.525 -2.52189 -0.12519 0
M  V30 5682 C 551.838 -1.11926 2.79093 0
M  V30 5683 C 553.386 -1.22579 2.87999 0
M  V30 5684 C 553.861 -1.57218 4.3017 0
M  V30 5685 N 555.352 -1.64212 4.33115 0
M  V30 5686 C 556.087 -1.92517 5.40116 0
M  V30 5687 N 555.583 -2.1885 6.57325 0
M  V30 5688 N 557.376 -1.94008 5.27558 0
M  V30 5689 H 549.527 0.293451 2.10363 0
M  V30 5690 H 551.79 0.0687672 0.945503 0
M  V30 5691 H 551.496 -0.338504 3.50067 0
M  V30 5692 H 551.37 -2.05577 3.16256 0
M  V30 5693 H 553.757 -1.99722 2.17245 0
M  V30 5694 H 553.838 -0.269107 2.54381 0
M  V30 5695 H 553.482 -0.806154 5.01461 0
M  V30 5696 H 553.412 -2.54034 4.61275 0
M  V30 5697 H 555.903 -1.45906 3.48597 0
M  V30 5698 H 556.216 -2.39718 7.3468 0
M  V30 5699 H 554.561 -2.16245 6.60502 0
M  V30 5700 H 557.752 -1.72931 4.34986 0
M  V30 5701 H 557.925 -2.15731 6.11035 0
M  V30 5702 N 551.331 -1.39911 -0.725443 0
M  V30 5703 C 552.742 -1.33599 -1.30415 0
M  V30 5704 C 553.093 -0.00481792 -1.96199 0
M  V30 5705 O 552.218 0.897275 -1.96921 0
M  V30 5706 C 552.813 -2.41965 -2.37146 0
M  V30 5707 C 551.372 -2.39144 -2.90667 0
M  V30 5708 C 550.519 -2.23355 -1.64341 0
M  V30 5709 H 553.47 -1.4986 -0.522267 0
M  V30 5710 H 553.491 -2.09304 -3.17761 0
M  V30 5711 H 553.003 -3.38837 -1.89238 0
M  V30 5712 H 551.104 -1.4594 -3.4283 0
M  V30 5713 H 551.217 -3.34362 -3.43131 0
M  V30 5714 H 549.581 -1.70696 -1.89037 0
M  V30 5715 H 550.364 -3.2221 -1.18471 0
M  V30 5716 N 552.809 0.956637 -1.25245 0
M  V30 5717 C 553.756 2.053 -1.05454 0
M  V30 5718 C 554.726 1.66062 0.0356889 0
M  V30 5719 O 555.911 1.90415 -0.121099 0
M  V30 5720 C 553.051 3.38391 -0.677191 0
M  V30 5721 C 552.164 3.90758 -1.84206 0
M  V30 5722 C 551.299 5.12165 -1.40926 0
M  V30 5723 C 550.338 5.56757 -2.54338 0
M  V30 5724 N 549.475 6.69376 -2.11848 0
M  V30 5725 H 554.315 2.21562 -1.99284 0
M  V30 5726 H 551.852 1.08578 -0.992434 0
M  V30 5727 H 553.81 4.1488 -0.43938 0
M  V30 5728 H 552.44 3.22021 0.224127 0
M  V30 5729 H 551.492 3.10808 -2.19323 0
M  V30 5730 H 552.804 4.19802 -2.69383 0
M  V30 5731 H 551.958 5.96065 -1.13098 0
M  V30 5732 H 550.697 4.84832 -0.528175 0
M  V30 5733 H 549.702 4.71423 -2.82913 0
M  V30 5734 H 550.927 5.861 -3.43022 0
M  V30 5735 H 548.873 6.43756 -1.26153 0
M  V30 5736 H 548.79 6.97927 -2.90574 0
M  V30 5737 H 550.058 7.5669 -1.87191 0
M  V30 5738 N 554.287 1.06798 1.15896 0
M  V30 5739 C 555.25 0.687328 2.18651 0
M  V30 5740 C 556.25 -0.269559 1.58524 0
M  V30 5741 O 557.44 -0.0512627 1.74125 0
M  V30 5742 C 554.572 0.0121642 3.40898 0
M  V30 5743 H 555.765 1.59701 2.53842 0
M  V30 5744 H 553.318 0.863828 1.3026 0
M  V30 5745 H 554.053 -0.910025 3.1127 0
M  V30 5746 H 553.838 0.700309 3.85795 0
M  V30 5747 H 555.328 -0.239703 4.16911 0
M  V30 5748 N 555.766 -1.3263 0.851289 0
M  V30 5749 C 556.714 -2.30882 0.282202 0
M  V30 5750 C 557.708 -1.58697 -0.592589 0
M  V30 5751 O 558.914 -1.73461 -0.480768 0
M  V30 5752 H 555.289 -0.748492 0.0725487 0
M  V30 5753 H 557.26 -2.76374 1.12516 0
M  V30 5754 C 556.009 -3.43828 -0.517449 0
M  V30 5755 H 555.332 -3.99532 0.146392 0
M  V30 5756 H 556.772 -4.1474 -0.88128 0
M  V30 5757 C 555.231 -2.90786 -1.70133 0
M  V30 5758 O 555.761 -2.88 -2.80034 0
M  V30 5759 N 553.967 -2.4723 -1.52728 0
M  V30 5760 H 553.514 -2.49695 -0.633257 0
M  V30 5761 H 553.472 -2.12094 -2.32085 0
M  V30 5762 N 557.244 -0.608902 -1.45362 0
M  V30 5763 C 558.469 -0.10921 -2.07112 0
M  V30 5764 C 558.894 1.19779 -1.45033 0
M  V30 5765 O 558.252 1.72961 -0.543527 0
M  V30 5766 C 558.3 0.0155745 -3.60597 0
M  V30 5767 O 557.404 1.06546 -3.98399 0
M  V30 5768 H 556.745 -0.0746619 -0.659789 0
M  V30 5769 H 559.275 -0.839283 -1.86594 0
M  V30 5770 H 559.285 0.213364 -4.07442 0
M  V30 5771 H 557.96 -0.938765 -4.05167 0
M  V30 5772 H 556.537 0.844024 -3.63223 0
M  V30 5773 N 558.722 1.53707 -0.348139 0
M  V30 5774 C 559.685 2.23812 0.494058 0
M  V30 5775 C 560.685 1.23989 1.02388 0
M  V30 5776 O 561.875 1.48395 0.912396 0
M  V30 5777 C 559.007 2.96133 1.68872 0
M  V30 5778 H 560.2 2.99663 -0.119141 0
M  V30 5779 H 557.753 1.55983 -0.0995539 0
M  V30 5780 H 558.488 2.24481 2.34049 0
M  V30 5781 H 558.273 3.69357 1.31596 0
M  V30 5782 H 559.763 3.49475 2.28597 0
M  V30 5783 N 560.2 0.0768682 1.57412 0
M  V30 5784 C 561.428 -0.59997 1.9801 0
M  V30 5785 C 561.843 -1.62842 0.955408 0
M  V30 5786 O 561.2 -1.8241 -0.057314 0
M  V30 5787 C 561.251 -1.26401 3.38681 0
M  V30 5788 O 560.972 -0.276723 4.37225 0
M  V30 5789 C 562.473 -2.0282 3.94182 0
M  V30 5790 H 559.693 -0.162239 0.651091 0
M  V30 5791 H 562.237 0.150771 2.03943 0
M  V30 5792 H 560.392 -1.96581 3.33819 0
M  V30 5793 H 560.806 -0.753744 5.19056 0
M  V30 5794 H 562.28 -2.44667 4.94815 0
M  V30 5795 H 562.757 -2.88678 3.31001 0
M  V30 5796 H 563.363 -1.37496 4.02461 0
M  V30 5797 N 561.678 -1.56367 -0.196722 0
M  V30 5798 C 562.906 -1.84639 -0.933608 0
M  V30 5799 C 563.321 -0.659164 -1.76919 0
M  V30 5800 O 562.678 0.372142 -1.78665 0
M  V30 5801 C 562.729 -3.11694 -1.83109 0
M  V30 5802 O 562.45 -4.25838 -1.02924 0
M  V30 5803 C 563.951 -3.53132 -2.67979 0
M  V30 5804 H 561.171 -0.613188 -0.272473 0
M  V30 5805 H 563.715 -2.03475 -0.204465 0
M  V30 5806 H 561.87 -2.94759 -2.51387 0
M  V30 5807 H 562.284 -4.98178 -1.64069 0
M  V30 5808 H 563.758 -4.45005 -3.26611 0
M  V30 5809 H 564.235 -2.76045 -3.41608 0
M  V30 5810 H 564.841 -3.72592 -2.05074 0
M  V30 5811 N 563.156 0.464375 -1.50603 0
M  V30 5812 C 564.119 1.54393 -1.69397 0
M  V30 5813 C 565.119 1.50566 -0.564504 0
M  V30 5814 O 566.309 1.53066 -0.831645 0
M  V30 5815 C 563.441 2.9401 -1.72543 0
M  V30 5816 H 564.634 1.39044 -2.65719 0
M  V30 5817 H 562.187 0.69122 -1.40185 0
M  V30 5818 H 562.922 3.14795 -0.77938 0
M  V30 5819 H 562.707 2.98195 -2.54602 0
M  V30 5820 H 564.197 3.72375 -1.89015 0
M  V30 5821 N 564.634 1.40294 0.718013 0
M  V30 5822 C 565.862 1.4175 1.50714 0
M  V30 5823 C 566.277 0.0165366 1.88793 0
M  V30 5824 O 565.634 -0.958942 1.55276 0
M  V30 5825 C 565.685 2.30598 2.784 0
M  V30 5826 O 565.406 3.6524 2.41932 0
M  V30 5827 C 566.907 2.4062 3.72313 0
M  V30 5828 H 564.127 0.483565 0.465194 0
M  V30 5829 H 566.671 1.84316 0.885889 0
M  V30 5830 H 564.826 1.91401 3.36815 0
M  V30 5831 H 565.24 4.12402 3.24076 0
M  V30 5832 H 566.714 3.07001 4.58753 0
M  V30 5833 H 567.191 1.4305 4.15251 0
M  V30 5834 H 567.797 2.80359 3.19811 0
M  V30 5835 N 566.112 -0.949982 1.2575 0
M  V30 5836 C 567.523 -1.50989 1.09815 0
M  V30 5837 C 567.874 -1.93497 -0.324556 0
M  V30 5838 O 566.999 -1.79068 -1.21506 0
M  V30 5839 C 567.594 -2.74394 1.98729 0
M  V30 5840 C 566.153 -3.26682 1.86965 0
M  V30 5841 C 565.3 -1.99498 1.92603 0
M  V30 5842 H 568.251 -0.766387 1.38968 0
M  V30 5843 H 568.272 -3.48383 1.53001 0
M  V30 5844 H 567.784 -2.43425 3.02268 0
M  V30 5845 H 565.885 -3.62461 0.863279 0
M  V30 5846 H 565.998 -3.94383 2.72027 0
M  V30 5847 H 564.362 -2.15005 1.36546 0
M  V30 5848 H 565.145 -1.70871 2.97755 0
M  V30 5849 N 567.59 -1.07411 -1.15328 0
M  V30 5850 C 568.815 -0.818856 -1.90551 0
M  V30 5851 C 569.24 0.622194 -1.77512 0
M  V30 5852 O 568.598 1.43484 -1.10824 0
M  V30 5853 C 568.646 -1.23267 -3.38877 0
M  V30 5854 O 567.75 -0.378345 -4.10661 0
M  V30 5855 H 567.091 -0.29827 -0.593238 0
M  V30 5856 H 569.621 -1.43289 -1.46046 0
M  V30 5857 H 569.631 -1.20912 -3.89672 0
M  V30 5858 H 568.306 -2.28226 -3.47686 0
M  V30 5859 H 566.883 -0.464437 -3.69996 0
M  V30 5860 N 569.068 1.32177 -0.85831 0
M  V30 5861 C 570.314 1.97417 -0.46417 0
M  V30 5862 C 570.647 1.67746 0.978514 0
M  V30 5863 O 569.922 0.967654 1.68721 0
M  V30 5864 C 570.205 3.53069 -0.708094 0
M  V30 5865 C 570.058 3.92357 -2.19946 0
M  V30 5866 C 571.377 4.39783 -0.166881 0
M  V30 5867 H 568.496 0.717097 -0.17012 0
M  V30 5868 H 571.138 1.56499 -1.07741 0
M  V30 5869 H 569.288 3.88054 -0.186128 0
M  V30 5870 H 570.96 3.67533 -2.78779 0
M  V30 5871 H 569.203 3.41384 -2.67656 0
M  V30 5872 H 569.874 5.00841 -2.32082 0
M  V30 5873 H 572.35 4.11556 -0.613285 0
M  V30 5874 H 571.226 5.47671 -0.367093 0
M  V30 5875 H 571.487 4.32196 0.930559 0
M  V30 5876 N 570.547 0.616602 1.45037 0
M  V30 5877 C 571.477 -0.0840787 2.33349 0
M  V30 5878 C 572.458 -0.849641 1.4736 0
M  V30 5879 O 573.643 -0.818407 1.76113 0
M  V30 5880 C 570.773 -1.07604 3.3021 0
M  V30 5881 C 569.727 -0.423096 4.25904 0
M  V30 5882 C 569.053 -1.52394 5.12523 0
M  V30 5883 C 570.353 0.661457 5.18095 0
M  V30 5884 H 572.047 0.653333 2.92185 0
M  V30 5885 H 569.593 0.315634 1.40498 0
M  V30 5886 H 571.546 -1.57485 3.90866 0
M  V30 5887 H 570.27 -1.84416 2.69552 0
M  V30 5888 H 568.929 0.05493 3.66559 0
M  V30 5889 H 568.577 -2.28257 4.48227 0
M  V30 5890 H 568.277 -1.09251 5.77354 0
M  V30 5891 H 569.801 -2.02485 5.76049 0
M  V30 5892 H 571.215 0.246353 5.7277 0
M  V30 5893 H 569.612 1.01517 5.91451 0
M  V30 5894 H 570.682 1.53446 4.59981 0
M  V30 5895 N 572.025 -1.5352 0.356285 0
M  V30 5896 C 573.253 -2.05534 -0.237328 0
M  V30 5897 C 573.668 -1.23043 -1.43199 0
M  V30 5898 O 573.025 -0.268821 -1.80509 0
M  V30 5899 C 573.076 -3.55791 -0.639933 0
M  V30 5900 O 572.797 -4.35154 0.507233 0
M  V30 5901 C 574.298 -4.24027 -1.29292 0
M  V30 5902 H 571.518 -0.669585 -0.0435572 0
M  V30 5903 H 574.062 -1.97988 0.511963 0
M  V30 5904 H 572.217 -3.63518 -1.33915 0
M  V30 5905 H 572.631 -5.24178 0.18375 0
M  V30 5906 H 574.105 -5.30509 -1.52527 0
M  V30 5907 H 574.582 -3.77166 -2.25039 0
M  V30 5908 H 575.188 -4.20527 -0.63539 0
M  V30 5909 N 573.503 -0.0852151 -1.57369 0
M  V30 5910 C 574.752 0.580443 -1.93168 0
M  V30 5911 C 575.065 1.6995 -0.968319 0
M  V30 5912 O 576.271 2.42564 -1.21963 0
M  V30 5913 C 574.727 1.08386 -3.43192 0
M  V30 5914 C 574.335 -0.00491388 -4.48 0
M  V30 5915 C 576.079 1.72281 -3.87968 0
M  V30 5916 C 573.986 0.513299 -5.89168 0
M  V30 5917 H 572.916 0.22059 -0.72101 0
M  V30 5918 H 575.567 -0.159621 -1.82804 0
M  V30 5919 H 573.949 1.8773 -3.48674 0
M  V30 5920 H 575.123 -0.780032 -4.5415 0
M  V30 5921 H 573.438 -0.548453 -4.12772 0
M  V30 5922 H 576.035 2.12108 -4.9083 0
M  V30 5923 H 576.378 2.58811 -3.26071 0
M  V30 5924 H 576.911 0.995359 -3.85146 0
M  V30 5925 H 573.65 -0.315153 -6.54742 0
M  V30 5926 H 573.17 1.25564 -5.8651 0
M  V30 5927 H 574.849 0.985433 -6.39451 0
M  V30 5928 N 574.981 1.5647 0.188427 0
M  V30 5929 C 575.913 1.91611 1.25769 0
M  V30 5930 C 576.926 0.807436 1.41366 0
M  V30 5931 O 578.115 1.08586 1.41673 0
M  V30 5932 C 575.215 2.13874 2.6289 0
M  V30 5933 C 574.388 3.45047 2.68815 0
M  V30 5934 C 573.447 3.56342 3.87178 0
M  V30 5935 O 572.473 4.29109 3.73971 0
M  V30 5936 N 573.675 2.89924 5.02916 0
M  V30 5937 H 576.44 2.8393 0.959373 0
M  V30 5938 H 574.001 1.57418 0.378306 0
M  V30 5939 H 575.993 2.18713 3.4051 0
M  V30 5940 H 574.563 1.28022 2.85183 0
M  V30 5941 H 573.783 3.52017 1.77419 0
M  V30 5942 H 575.071 4.31395 2.6977 0
M  V30 5943 H 574.469 2.30644 5.16546 0
M  V30 5944 H 573.026 3.0038 5.78459 0
M  V30 5945 N 576.459 -0.456382 1.50847 0
M  V30 5946 C 577.684 -1.2349 1.66628 0
M  V30 5947 C 578.109 -1.84715 0.355254 0
M  V30 5948 O 577.467 -1.67961 -0.682559 0
M  V30 5949 C 577.515 -2.30865 2.77009 0
M  V30 5950 O 576.619 -3.35882 2.39285 0
M  V30 5951 H 575.96 -0.36266 0.556214 0
M  V30 5952 H 578.49 -0.541374 1.97308 0
M  V30 5953 H 578.5 -2.75949 3.00526 0
M  V30 5954 H 577.175 -1.85677 3.72152 0
M  V30 5955 H 575.752 -2.96406 2.26269 0
M  V30 5956 N 577.937 -1.40673 -0.710563 0
M  V30 5957 C 579.162 -1.42741 -1.50465 0
M  V30 5958 C 579.587 -0.0302116 -1.88076 0
M  V30 5959 O 578.945 0.962945 -1.53613 0
M  V30 5960 C 578.993 -2.32873 -2.75322 0
M  V30 5961 O 578.097 -1.77544 -3.72226 0
M  V30 5962 H 577.438 -0.485056 -0.45345 0
M  V30 5963 H 579.968 -1.84961 -0.874681 0
M  V30 5964 H 579.978 -2.48233 -3.23797 0
M  V30 5965 H 578.653 -3.34401 -2.47283 0
M  V30 5966 H 577.23 -1.71556 -3.31093 0
M  V30 5967 N 579.415 0.9433 -1.26252 0
M  V30 5968 C 580.378 2.02326 -1.07689 0
M  V30 5969 C 581.378 1.60779 -0.0259174 0
M  V30 5970 O 582.568 1.72108 -0.269134 0
M  V30 5971 C 579.7 3.34886 -0.63752 0
M  V30 5972 H 580.893 2.20225 -2.0357 0
M  V30 5973 H 578.446 1.12197 -1.08819 0
M  V30 5974 H 579.181 3.22684 0.323377 0
M  V30 5975 H 578.966 3.66393 -1.39637 0
M  V30 5976 H 580.456 4.14231 -0.529418 0
M  V30 5977 N 580.893 1.08022 1.14757 0
M  V30 5978 C 582.121 0.828847 1.89572 0
M  V30 5979 C 582.536 -0.618621 1.78377 0
M  V30 5980 O 581.893 -1.42482 1.1404 0
M  V30 5981 C 581.944 1.23677 3.39685 0
M  V30 5982 O 581.665 2.62746 3.50566 0
M  V30 5983 C 583.166 1.01569 4.31507 0
M  V30 5984 H 580.386 0.299196 0.600602 0
M  V30 5985 H 582.93 1.43846 1.45357 0
M  V30 5986 H 581.085 0.671347 3.81539 0
M  V30 5987 H 581.499 2.79573 4.43778 0
M  V30 5988 H 582.973 1.35055 5.35223 0
M  V30 5989 H 583.45 -0.0475433 4.39174 0
M  V30 5990 H 584.056 1.56636 3.95405 0
M  V30 5991 N 582.371 -1.3172 0.865308 0
M  V30 5992 C 583.782 -1.79104 0.527126 0
M  V30 5993 C 584.133 -1.7135 -0.955695 0
M  V30 5994 O 583.258 -1.27845 -1.74598 0
M  V30 5995 C 583.853 -3.25207 0.950061 0
M  V30 5996 C 582.412 -3.70504 0.663611 0
M  V30 5997 C 581.559 -2.52605 1.14395 0
M  V30 5998 H 584.51 -1.18868 1.05148 0
M  V30 5999 H 584.531 -3.79535 0.270805 0
M  V30 6000 H 584.043 -3.30818 2.02931 0
M  V30 6001 H 582.144 -3.70398 -0.404474 0
M  V30 6002 H 582.257 -4.62845 1.23737 0
M  V30 6003 H 580.621 -2.4838 0.563859 0
M  V30 6004 H 581.404 -2.60964 2.23053 0
M  V30 6005 N 583.85 -0.624285 -1.44708 0
M  V30 6006 C 585.096 -0.126237 -2.02407 0
M  V30 6007 C 585.428 1.24618 -1.48943 0
M  V30 6008 O 584.704 1.82569 -0.670742 0
M  V30 6009 C 584.986 -0.105449 -3.59946 0
M  V30 6010 C 584.84 -1.50972 -4.23707 0
M  V30 6011 C 586.159 0.573629 -4.36346 0
M  V30 6012 H 583.278 -0.0473472 -0.735478 0
M  V30 6013 H 585.92 -0.799452 -1.72362 0
M  V30 6014 H 584.07 0.46783 -3.85673 0
M  V30 6015 H 585.742 -2.13136 -4.0911 0
M  V30 6016 H 583.985 -2.0656 -3.81465 0
M  V30 6017 H 584.656 -1.44727 -5.32689 0
M  V30 6018 H 587.132 0.0861787 -4.16011 0
M  V30 6019 H 586.008 0.557338 -5.46063 0
M  V30 6020 H 586.269 1.64276 -4.10446 0
M  V30 6021 N 585.328 1.53329 -0.364422 0
M  V30 6022 C 586.275 2.25698 0.482607 0
M  V30 6023 C 587.245 1.26325 1.07848 0
M  V30 6024 O 588.43 1.55104 1.11119 0
M  V30 6025 C 585.57 3.04873 1.61699 0
M  V30 6026 C 584.683 4.19135 1.0464 0
M  V30 6027 C 583.818 4.85754 2.14979 0
M  V30 6028 C 582.857 5.9205 1.5538 0
M  V30 6029 N 581.994 6.52365 2.59547 0
M  V30 6030 H 586.834 2.97666 -0.141032 0
M  V30 6031 H 584.371 1.46875 -0.0813692 0
M  V30 6032 H 586.329 3.49051 2.28516 0
M  V30 6033 H 584.959 2.35162 2.2113 0
M  V30 6034 H 584.011 3.79451 0.268553 0
M  V30 6035 H 585.323 4.95525 0.570653 0
M  V30 6036 H 584.477 5.3311 2.89619 0
M  V30 6037 H 583.216 4.08834 2.65906 0
M  V30 6038 H 582.221 5.44058 0.792549 0
M  V30 6039 H 583.446 6.7089 1.0528 0
M  V30 6040 H 581.392 5.78298 3.09689 0
M  V30 6041 H 581.309 7.2429 2.16655 0
M  V30 6042 H 582.577 7.0437 3.33892 0
M  V30 6043 N 586.806 0.0935595 1.57322 0
M  V30 6044 C 588.052 -0.571355 1.94585 0
M  V30 6045 C 588.385 -1.67929 0.975366 0
M  V30 6046 O 587.66 -1.94498 0.00816206 0
M  V30 6047 C 587.943 -1.12797 3.41978 0
M  V30 6048 C 587.796 -0.0251881 4.49793 0
M  V30 6049 C 589.115 -2.02682 3.90651 0
M  V30 6050 H 586.234 -0.206223 0.70756 0
M  V30 6051 H 588.876 0.163956 1.89291 0
M  V30 6052 H 587.026 -1.75461 3.4662 0
M  V30 6053 H 588.698 0.608979 4.57263 0
M  V30 6054 H 586.941 0.641399 4.29032 0
M  V30 6055 H 587.612 -0.455433 5.50118 0
M  V30 6056 H 590.088 -1.49925 3.88152 0
M  V30 6057 H 588.964 -2.38555 4.94351 0
M  V30 6058 H 589.225 -2.94362 3.29854 0
M  V30 6059 N 588.284 -1.56567 -0.180126 0
M  V30 6060 C 589.214 -1.98753 -1.22553 0
M  V30 6061 C 590.195 -0.86175 -1.46656 0
M  V30 6062 O 591.38 -1.12719 -1.58139 0
M  V30 6063 C 588.51 -2.33988 -2.56645 0
M  V30 6064 C 587.464 -3.49445 -2.47128 0
M  V30 6065 C 586.79 -3.70397 -3.8563 0
M  V30 6066 C 588.09 -4.83171 -1.98352 0
M  V30 6067 H 589.784 -2.86332 -0.874896 0
M  V30 6068 H 587.33 -1.37757 -0.419414 0
M  V30 6069 H 589.283 -2.62097 -3.29974 0
M  V30 6070 H 588.007 -1.43309 -2.93479 0
M  V30 6071 H 586.666 -3.2145 -1.76254 0
M  V30 6072 H 586.314 -2.77023 -4.19842 0
M  V30 6073 H 586.014 -4.48077 -3.80132 0
M  V30 6074 H 587.538 -4.00897 -4.60558 0
M  V30 6075 H 588.952 -5.10213 -2.61449 0
M  V30 6076 H 587.349 -5.64425 -2.03823 0
M  V30 6077 H 588.419 -4.75753 -0.937402 0
M  V30 6078 N 589.762 0.448376 -1.51087 0
M  V30 6079 C 590.725 1.52588 -1.71025 0
M  V30 6080 C 591.725 1.49958 -0.580442 0
M  V30 6081 O 592.915 1.52176 -0.847833 0
M  V30 6082 C 590.047 2.92163 -1.75652 0
M  V30 6083 H 591.24 1.36218 -2.67179 0
M  V30 6084 H 588.793 0.676313 -1.4091 0
M  V30 6085 H 589.528 3.13951 -0.812724 0
M  V30 6086 H 589.313 2.95478 -2.57751 0
M  V30 6087 H 590.803 3.70349 -1.92953 0
M  V30 6088 N 591.24 1.41047 0.703093 0
M  V30 6089 C 592.651 1.35657 1.28274 0
M  V30 6090 C 593.002 0.0360309 1.96167 0
M  V30 6091 O 592.127 -0.865833 1.98324 0
M  V30 6092 C 592.722 2.45707 2.33267 0
M  V30 6093 C 591.281 2.43738 2.86825 0
M  V30 6094 C 590.428 2.25941 1.60767 0
M  V30 6095 H 593.379 1.50672 0.49836 0
M  V30 6096 H 593.4 2.14333 3.14391 0
M  V30 6097 H 592.912 3.41805 1.83824 0
M  V30 6098 H 591.013 1.51375 3.40465 0
M  V30 6099 H 591.126 3.39779 3.37768 0
M  V30 6100 H 589.49 1.73681 1.86298 0
M  V30 6101 H 590.273 3.24054 1.1333 0
M  V30 6102 N 592.718 -0.936591 1.26751 0
M  V30 6103 C 593.966 -1.67998 1.12343 0
M  V30 6104 C 594.287 -1.92137 -0.332938 0
M  V30 6105 O 593.557 -1.52132 -1.23421 0
M  V30 6106 H 592.137 -0.622609 0.412756 0
M  V30 6107 H 594.799 -1.12509 1.59147 0
M  V30 6108 H 593.895 -2.65185 1.64571 0
M  V30 6109 N 594.196 -1.08629 -1.14182 0
M  V30 6110 C 595.106 -0.730126 -2.22949 0
M  V30 6111 C 596.122 0.26436 -1.7198 0
M  V30 6112 O 597.298 0.107742 -2.01112 0
M  V30 6113 C 594.363 -0.147227 -3.46387 0
M  V30 6114 C 593.424 -1.19662 -4.12286 0
M  V30 6115 C 592.657 -0.641437 -5.29831 0
M  V30 6116 O 592.88 0.538351 -5.67854 0
M  V30 6117 O 591.814 -1.39257 -5.85569 0
M  V30 6118 H 595.64 -1.63753 -2.55771 0
M  V30 6119 H 593.225 -0.860118 -1.22157 0
M  V30 6120 H 595.107 0.174923 -4.21037 0
M  V30 6121 H 593.782 0.733304 -3.15285 0
M  V30 6122 H 592.689 -1.57133 -3.395 0
M  V30 6123 H 594.022 -2.0495 -4.475 0
M  V30 6124 N 595.674 1.31259 -0.872281 0
M  V30 6125 C 596.921 1.96622 -0.484365 0
M  V30 6126 C 597.249 1.68939 0.963841 0
M  V30 6127 O 596.504 0.97974 1.6941 0
M  V30 6128 C 596.803 3.50659 -0.690889 0
M  V30 6129 C 596.469 3.98366 -2.11224 0
M  V30 6130 C 595.131 4.11104 -2.50094 0
M  V30 6131 C 597.483 4.23425 -3.0391 0
M  V30 6132 C 594.811 4.46254 -3.80887 0
M  V30 6133 C 597.163 4.60039 -4.3422 0
M  V30 6134 C 595.827 4.70984 -4.73001 0
M  V30 6135 H 595.097 0.71949 -0.177242 0
M  V30 6136 H 597.744 1.56353 -1.10571 0
M  V30 6137 H 596.049 3.91798 0.0135782 0
M  V30 6138 H 597.746 3.99284 -0.370534 0
M  V30 6139 H 594.336 3.88949 -1.80047 0
M  V30 6140 H 598.52 4.13075 -2.75104 0
M  V30 6141 H 593.776 4.52926 -4.10692 0
M  V30 6142 H 597.95 4.78381 -5.06088 0
M  V30 6143 H 595.577 4.97977 -5.7439 0
M  V30 6144 N 597.152 0.631951 1.44375 0
M  V30 6145 C 598.4 0.136497 2.01639 0
M  V30 6146 C 598.721 -1.24637 1.49969 0
M  V30 6147 O 597.991 -1.82827 0.70363 0
M  V30 6148 H 596.571 0.0474703 0.74549 0
M  V30 6149 H 599.233 0.818837 1.76865 0
M  V30 6150 H 598.329 0.104817 3.11924 0
M  V30 6151 N 598.631 -1.53133 0.372548 0
M  V30 6152 C 599.579 -2.27473 -0.485681 0
M  V30 6153 C 600.573 -1.30719 -1.07745 0
M  V30 6154 O 601.779 -1.48321 -1.01985 0
M  V30 6155 H 598.154 -0.731269 -0.175356 0
M  V30 6156 H 600.125 -2.97955 0.162986 0
M  V30 6157 C 598.874 -3.08191 -1.60978 0
M  V30 6158 H 598.197 -3.82488 -1.16373 0
M  V30 6159 H 599.637 -3.63373 -2.18485 0
M  V30 6160 C 598.096 -2.19461 -2.55614 0
M  V30 6161 O 598.626 -1.81008 -3.58607 0
M  V30 6162 N 596.832 -1.83955 -2.24965 0
M  V30 6163 H 596.379 -2.15423 -1.41247 0
M  V30 6164 H 596.337 -1.24874 -2.88538 0
M  V30 6165 N 600.109 -0.101901 -1.5727 0
M  V30 6166 C 601.059 0.865346 -2.1094 0
M  V30 6167 C 602.043 1.2394 -1.02605 0
M  V30 6168 O 603.235 1.21334 -1.28868 0
M  V30 6169 C 600.364 2.12187 -2.69874 0
M  V30 6170 C 599.45 1.77295 -3.85263 0
M  V30 6171 N 599.841 1.12993 -4.93017 0
M  V30 6172 C 598.139 2.06862 -3.95126 0
M  V30 6173 C 598.84 0.968631 -5.73579 0
M  V30 6174 N 597.816 1.48814 -5.22834 0
M  V30 6175 H 601.618 0.364368 -2.91633 0
M  V30 6176 H 599.132 0.101104 -1.62085 0
M  V30 6177 H 601.129 2.82431 -3.06657 0
M  V30 6178 H 599.789 2.62844 -1.90639 0
M  V30 6179 H 600.8 0.795935 -5.11747 0
M  V30 6180 H 597.477 2.59686 -3.26909 0
M  V30 6181 H 598.867 0.465231 -6.70287 0
M  V30 6182 N 601.587 1.56661 0.17182 0
M  V30 6183 C 603.003 1.50768 0.52357 0
M  V30 6184 C 603.203 0.806072 1.84675 0
M  V30 6185 O 602.259 0.366233 2.4983 0
M  V30 6186 C 603.572 2.955 0.556793 0
M  V30 6187 C 605.12 3.06303 0.644029 0
M  V30 6188 C 605.595 4.52492 0.708148 0
M  V30 6189 N 607.086 4.56737 0.771051 0
M  V30 6190 C 607.821 5.67196 0.841229 0
M  V30 6191 N 607.317 6.87287 0.872272 0
M  V30 6192 N 609.11 5.55165 0.88021 0
M  V30 6193 H 601.261 2.00679 -0.695817 0
M  V30 6194 H 603.524 0.914219 -0.250814 0
M  V30 6195 H 603.23 3.49986 -0.346774 0
M  V30 6196 H 603.104 3.50119 1.40346 0
M  V30 6197 H 605.491 2.51851 1.53802 0
M  V30 6198 H 605.572 2.5477 -0.229297 0
M  V30 6199 H 605.216 5.07575 -0.181585 0
M  V30 6200 H 605.146 5.01781 1.59761 0
M  V30 6201 H 607.637 3.70274 0.755364 0
M  V30 6202 H 607.95 7.6722 0.92698 0
M  V30 6203 H 606.295 6.89898 0.840557 0
M  V30 6204 H 609.486 4.60263 0.852956 0
M  V30 6205 H 609.659 6.41271 0.931439 0
M  V30 6206 N 603.065 -0.440357 1.51323 0
M  V30 6207 C 604.476 -1.02032 1.56353 0
M  V30 6208 C 604.827 -1.92382 0.385197 0
M  V30 6209 O 603.952 -2.10583 -0.498373 0
M  V30 6210 C 604.547 -1.85723 2.83359 0
M  V30 6211 C 603.106 -2.38774 2.90971 0
M  V30 6212 C 602.253 -1.17908 2.50984 0
M  V30 6213 H 605.204 -0.221744 1.57143 0
M  V30 6214 H 605.225 -2.71141 2.66951 0
M  V30 6215 H 604.737 -1.19939 3.69102 0
M  V30 6216 H 602.838 -3.08021 2.09651 0
M  V30 6217 H 602.951 -2.71778 3.94555 0
M  V30 6218 H 601.315 -1.52347 2.04114 0
M  V30 6219 H 602.098 -0.537393 3.39068 0
M  V30 6220 N 604.543 -1.41418 -0.695603 0
M  V30 6221 C 605.49 -1.43264 -1.80954 0
M  V30 6222 C 606.46 -0.287016 -1.63601 0
M  V30 6223 O 607.645 -0.488054 -1.84452 0
M  V30 6224 C 604.785 -1.32054 -3.18835 0
M  V30 6225 C 603.898 -2.56485 -3.4762 0
M  V30 6226 C 603.033 -2.3757 -4.75115 0
M  V30 6227 C 602.072 -3.57477 -4.96867 0
M  V30 6228 N 601.209 -3.37632 -6.15588 0
M  V30 6229 H 606.049 -2.38467 -1.78711 0
M  V30 6230 H 603.586 -1.18415 -0.872715 0
M  V30 6231 H 605.544 -1.23558 -3.98484 0
M  V30 6232 H 604.174 -0.404592 -3.20254 0
M  V30 6233 H 603.226 -2.75432 -2.62376 0
M  V30 6234 H 604.538 -3.45678 -3.59594 0
M  V30 6235 H 603.692 -2.2654 -5.62818 0
M  V30 6236 H 602.431 -1.45834 -4.65386 0
M  V30 6237 H 601.436 -3.68961 -4.07612 0
M  V30 6238 H 602.661 -4.50167 -5.08455 0
M  V30 6239 H 600.607 -2.48596 -6.07072 0
M  V30 6240 H 600.524 -4.20401 -6.2833 0
M  V30 6241 H 601.792 -3.30375 -7.06026 0
M  V30 6242 N 606.021 0.929856 -1.27246 0
M  V30 6243 C 607.269 1.674 -1.13233 0
M  V30 6244 C 607.59 1.92311 0.322744 0
M  V30 6245 O 606.86 1.52784 1.22612 0
M  V30 6246 H 605.44 0.620411 -0.416052 0
M  V30 6247 H 608.102 1.11663 -1.59741 0
M  V30 6248 H 607.198 2.64308 -1.65975 0
M  V30 6249 N 607.499 1.09233 1.13605 0
M  V30 6250 C 608.462 0.733553 2.17144 0
M  V30 6251 C 609.462 -0.235873 1.59061 0
M  V30 6252 O 610.652 -0.0143167 1.74194 0
M  V30 6253 C 607.784 0.084471 3.40795 0
M  V30 6254 H 608.977 1.65049 2.50397 0
M  V30 6255 H 606.53 0.891264 1.28399 0
M  V30 6256 H 607.265 -0.843795 3.1313 0
M  V30 6257 H 607.05 0.781985 3.84223 0
M  V30 6258 H 608.54 -0.151216 4.17326 0
M  V30 6259 N 608.977 -1.30795 0.87923 0
M  V30 6260 C 609.907 -2.30742 0.357796 0
M  V30 6261 C 610.888 -1.60747 -0.556283 0
M  V30 6262 O 612.073 -1.88393 -0.47135 0
M  V30 6263 C 609.203 -3.44583 -0.433555 0
M  V30 6264 C 608.157 -4.26235 0.388251 0
M  V30 6265 C 607.483 -5.32073 -0.529352 0
M  V30 6266 C 608.783 -4.96303 1.62729 0
M  V30 6267 H 610.477 -2.74605 1.19299 0
M  V30 6268 H 608.023 -1.32017 0.575104 0
M  V30 6269 H 609.976 -4.13563 -0.808934 0
M  V30 6270 H 608.7 -2.99511 -1.30234 0
M  V30 6271 H 607.359 -3.58936 0.745695 0
M  V30 6272 H 607.007 -4.83249 -1.39569 0
M  V30 6273 H 606.707 -5.87598 0.0166741 0
M  V30 6274 H 608.231 -6.0391 -0.901373 0
M  V30 6275 H 609.645 -5.5783 1.32283 0
M  V30 6276 H 608.042 -5.61666 2.11309 0
M  V30 6277 H 609.112 -4.22758 2.37494 0
M  V30 6278 N 610.455 -0.639598 -1.44038 0
M  V30 6279 C 611.871 -0.305953 -1.5664 0
M  V30 6280 C 612.071 1.19055 -1.62567 0
M  V30 6281 O 611.127 1.97492 -1.57331 0
M  V30 6282 C 612.44 -1.00533 -2.83397 0
M  V30 6283 C 613.988 -0.984278 -2.97121 0
M  V30 6284 C 614.463 -1.66428 -4.26691 0
M  V30 6285 N 615.954 -1.63127 -4.33525 0
M  V30 6286 C 616.689 -2.12629 -5.32519 0
M  V30 6287 N 616.185 -2.70359 -6.3787 0
M  V30 6288 N 617.978 -2.03208 -5.24083 0
M  V30 6289 H 610.129 -1.6109 -1.38434 0
M  V30 6290 H 612.392 -0.676672 -0.663942 0
M  V30 6291 H 612.098 -2.06034 -2.85032 0
M  V30 6292 H 611.972 -0.548362 -3.73193 0
M  V30 6293 H 614.359 0.0622792 -2.95034 0
M  V30 6294 H 614.44 -1.47981 -2.08651 0
M  V30 6295 H 614.084 -2.71034 -4.29538 0
M  V30 6296 H 614.014 -1.14351 -5.14034 0
M  V30 6297 H 616.505 -1.20987 -3.58009 0
M  V30 6298 H 616.818 -3.05842 -7.09704 0
M  V30 6299 H 615.163 -2.74414 -6.38531 0
M  V30 6300 H 618.354 -1.57823 -4.40692 0
M  V30 6301 H 618.527 -2.42097 -6.01077 0
M  V30 6302 N 611.933 1.52934 -0.380664 0
M  V30 6303 C 613.344 1.86457 0.0952684 0
M  V30 6304 C 613.695 1.3007 1.46889 0
M  V30 6305 O 612.82 0.628636 2.07068 0
M  V30 6306 C 613.415 3.38323 0.179648 0
M  V30 6307 C 611.974 3.71589 0.599858 0
M  V30 6308 C 611.121 2.76228 -0.243572 0
M  V30 6309 H 614.072 1.46966 -0.59888 0
M  V30 6310 H 614.093 3.67113 1.00042 0
M  V30 6311 H 613.605 3.79333 -0.820228 0
M  V30 6312 H 611.706 3.36144 1.60742 0
M  V30 6313 H 611.819 4.77715 0.364003 0
M  V30 6314 H 610.183 2.53045 0.289855 0
M  V30 6315 H 610.966 3.20074 -1.24127 0
M  V30 6316 N 613.412 0.11024 1.57214 0
M  V30 6317 C 614.66 -0.548783 1.94506 0
M  V30 6318 C 614.981 -1.67772 0.99386 0
M  V30 6319 O 614.251 -1.9584 0.0485841 0
M  V30 6320 H 612.831 -0.205715 0.718116 0
M  V30 6321 H 615.493 0.177127 1.94093 0
M  V30 6322 H 614.589 -0.949096 2.97319 0
M  V30 6323 N 614.89 -1.56749 -0.16351 0
M  V30 6324 C 615.838 -1.97939 -1.22159 0
M  V30 6325 C 616.832 -0.869288 -1.45395 0
M  V30 6326 O 618.038 -1.05443 -1.45883 0
M  V30 6327 H 614.413 -0.629869 -0.410815 0
M  V30 6328 H 616.384 -2.86115 -0.847381 0
M  V30 6329 C 615.133 -2.36206 -2.55151 0
M  V30 6330 H 614.456 -3.2117 -2.38097 0
M  V30 6331 H 615.896 -2.68863 -3.27854 0
M  V30 6332 C 614.355 -1.20841 -3.14482 0
M  V30 6333 O 614.885 -0.500258 -3.98573 0
M  V30 6334 N 613.091 -0.976943 -2.73686 0
M  V30 6335 H 612.638 -1.55457 -2.05404 0
M  V30 6336 H 612.596 -0.206912 -3.13718 0
M  V30 6337 N 616.368 0.432326 -1.51554 0
M  V30 6338 C 617.616 1.17901 -1.64146 0
M  V30 6339 C 617.937 1.91604 -0.362367 0
M  V30 6340 O 617.207 1.85764 0.621968 0
M  V30 6341 H 615.787 0.438206 -0.604966 0
M  V30 6342 H 618.449 0.495172 -1.88505 0
M  V30 6343 H 617.545 1.90584 -2.47152 0
M  V30 6344 N 617.846 1.41785 0.688094 0
M  V30 6345 C 619.257 1.3701 1.26828 0
M  V30 6346 C 619.608 0.056835 1.96118 0
M  V30 6347 O 618.733 -0.84475 1.99231 0
M  V30 6348 C 619.328 2.48168 2.30648 0
M  V30 6349 C 617.887 2.46766 2.84224 0
M  V30 6350 C 617.034 2.27633 1.58361 0
M  V30 6351 H 619.985 1.51192 0.482351 0
M  V30 6352 H 620.006 2.17655 3.121 0
M  V30 6353 H 619.518 3.43735 1.80188 0
M  V30 6354 H 617.619 1.54978 3.3884 0
M  V30 6355 H 617.732 3.43342 3.34145 0
M  V30 6356 H 616.096 1.75648 1.84445 0
M  V30 6357 H 616.879 3.25238 1.09887 0
M  V30 6358 N 619.324 -0.923095 1.27737 0
M  V30 6359 C 620.234 -2.05765 1.12685 0
M  V30 6360 C 621.25 -1.73911 0.0557197 0
M  V30 6361 O 622.426 -1.99674 0.263137 0
M  V30 6362 C 619.491 -3.37804 0.780363 0
M  V30 6363 C 618.552 -3.83326 1.93286 0
M  V30 6364 C 617.785 -5.09064 1.60281 0
M  V30 6365 O 618.008 -5.6809 0.512828 0
M  V30 6366 O 616.942 -5.50071 2.44347 0
M  V30 6367 H 620.768 -2.21378 2.07907 0
M  V30 6368 H 618.353 -1.04299 1.06968 0
M  V30 6369 H 620.235 -4.17097 0.600668 0
M  V30 6370 H 618.91 -3.23387 -0.142291 0
M  V30 6371 H 617.817 -3.049 2.16764 0
M  V30 6372 H 619.15 -4.02292 2.83588 0
M  V30 6373 N 620.802 -1.09834 -1.13024 0
M  V30 6374 C 622.051 -0.831806 -1.83749 0
M  V30 6375 C 622.364 0.644763 -1.84668 0
M  V30 6376 O 623.57 1.02697 -2.51327 0
M  V30 6377 C 622.026 -1.43817 -3.29916 0
M  V30 6378 C 621.634 -2.94759 -3.37374 0
M  V30 6379 C 623.378 -1.25077 -4.05655 0
M  V30 6380 C 621.285 -3.48461 -4.77838 0
M  V30 6381 H 620.215 -0.30751 -0.688443 0
M  V30 6382 H 622.866 -1.32156 -1.27307 0
M  V30 6383 H 621.248 -0.876106 -3.86187 0
M  V30 6384 H 622.422 -3.57228 -2.91076 0
M  V30 6385 H 620.737 -3.12581 -2.75103 0
M  V30 6386 H 623.334 -1.62649 -5.09362 0
M  V30 6387 H 623.677 -0.191782 -4.15858 0
M  V30 6388 H 624.21 -1.78057 -3.55725 0
M  V30 6389 H 620.949 -4.53998 -4.72828 0
M  V30 6390 H 620.469 -2.90757 -5.24615 0
M  V30 6391 H 622.148 -3.45914 -5.46766 0
M  V30 6392 N 622.28 1.30327 -0.886154 0
M  V30 6393 C 623.21 2.30549 -0.370028 0
M  V30 6394 C 624.191 1.61039 0.547751 0
M  V30 6395 O 625.376 1.8864 0.461353 0
M  V30 6396 C 622.506 3.44808 0.415275 0
M  V30 6397 C 621.46 4.26024 -0.41085 0
M  V30 6398 C 620.786 5.32347 0.501128 0
M  V30 6399 C 622.086 4.95433 -1.65359 0
M  V30 6400 H 623.78 2.73969 -1.20754 0
M  V30 6401 H 621.326 1.3171 -0.582097 0
M  V30 6402 H 623.279 4.13986 0.78699 0
M  V30 6403 H 622.003 3.00197 1.28644 0
M  V30 6404 H 620.662 3.58535 -0.764719 0
M  V30 6405 H 620.31 4.83982 1.37004 0
M  V30 6406 H 620.01 5.87581 -0.0478356 0
M  V30 6407 H 621.534 6.0438 0.869333 0
M  V30 6408 H 622.948 5.5712 -1.35239 0
M  V30 6409 H 621.345 5.60537 -2.14284 0
M  V30 6410 H 622.415 4.21493 -2.39733 0
M  V30 6411 N 623.758 0.647228 1.43697 0
M  V30 6412 C 624.688 -0.0345631 2.33474 0
M  V30 6413 C 625.669 -0.818193 1.4913 0
M  V30 6414 O 626.854 -0.780867 1.77809 0
M  V30 6415 C 623.984 -1.00576 3.32418 0
M  V30 6416 C 622.938 -0.33266 4.26705 0
M  V30 6417 C 622.264 -1.41489 5.1564 0
M  V30 6418 C 623.564 0.771204 5.16575 0
M  V30 6419 H 625.258 0.715163 2.90733 0
M  V30 6420 H 622.804 0.345364 1.39797 0
M  V30 6421 H 624.757 -1.49159 3.94119 0
M  V30 6422 H 623.481 -1.78657 2.73403 0
M  V30 6423 H 622.14 0.13267 3.6636 0
M  V30 6424 H 621.788 -2.18698 4.52968 0
M  V30 6425 H 621.488 -0.969799 5.79542 0
M  V30 6426 H 623.012 -1.9022 5.80214 0
M  V30 6427 H 624.426 0.36779 5.72119 0
M  V30 6428 H 622.823 1.1404 5.89165 0
M  V30 6429 H 623.893 1.63169 4.56622 0
M  V30 6430 N 625.236 -1.5273 0.388769 0
M  V30 6431 C 626.484 -2.01174 -0.193208 0
M  V30 6432 C 626.805 -1.27705 -1.47365 0
M  V30 6433 O 626.075 -0.396966 -1.91836 0
M  V30 6434 H 624.655 -0.743287 -0.0743871 0
M  V30 6435 H 627.317 -1.87826 0.520336 0
M  V30 6436 H 626.413 -3.09477 -0.403803 0
M  V30 6437 N 626.714 -0.118576 -1.57153 0
M  V30 6438 C 627.646 0.862247 -2.12363 0
M  V30 6439 C 628.659 1.23025 -1.06625 0
M  V30 6440 O 629.848 1.17927 -1.33998 0
M  V30 6441 C 626.948 2.16425 -2.60794 0
M  V30 6442 C 626.121 1.96801 -3.90626 0
M  V30 6443 C 625.18 3.10726 -4.2466 0
M  V30 6444 O 624.206 2.83659 -4.93484 0
M  V30 6445 N 625.408 4.37147 -3.81946 0
M  V30 6446 H 628.173 0.390564 -2.97144 0
M  V30 6447 H 625.734 0.0658591 -1.61766 0
M  V30 6448 H 627.726 2.91633 -2.80593 0
M  V30 6449 H 626.296 2.54943 -1.80895 0
M  V30 6450 H 625.516 1.05787 -3.7974 0
M  V30 6451 H 626.804 1.80993 -4.7552 0
M  V30 6452 H 626.202 4.62014 -3.26435 0
M  V30 6453 H 624.759 5.09229 -4.06853 0
M  V30 6454 N 628.193 1.56834 0.155195 0
M  V30 6455 C 629.441 1.82536 0.867462 0
M  V30 6456 C 629.762 0.698168 1.82073 0
M  V30 6457 O 629.032 -0.280807 1.93877 0
M  V30 6458 H 627.612 0.673401 0.323327 0
M  V30 6459 H 630.274 1.94313 0.151156 0
M  V30 6460 H 629.37 2.77171 1.43466 0
M  V30 6461 N 629.671 -0.424282 1.51781 0
M  V30 6462 C 631.082 -1.00368 1.57427 0
M  V30 6463 C 631.433 -1.91962 0.40558 0
M  V30 6464 O 630.558 -2.111 -0.47601 0
M  V30 6465 C 631.153 -1.82707 2.85313 0
M  V30 6466 C 629.712 -2.35675 2.93487 0
M  V30 6467 C 628.859 -1.1524 2.5222 0
M  V30 6468 H 631.81 -0.205064 1.5737 0
M  V30 6469 H 631.831 -2.68294 2.69812 0
M  V30 6470 H 631.343 -1.16017 3.70353 0
M  V30 6471 H 629.444 -3.05781 2.12906 0
M  V30 6472 H 629.557 -2.67578 3.97415 0
M  V30 6473 H 627.921 -1.50174 2.05718 0
M  V30 6474 H 628.704 -0.5014 3.39619 0
M  V30 6475 N 631.149 -1.42148 -0.680565 0
M  V30 6476 C 632.56 -1.3768 -1.26099 0
M  V30 6477 C 632.911 -0.0672348 -1.96085 0
M  V30 6478 O 632.036 0.834172 -1.99676 0
M  V30 6479 C 632.631 -2.49387 -2.29328 0
M  V30 6480 C 631.19 -2.4827 -2.82911 0
M  V30 6481 C 630.337 -2.2847 -1.57152 0
M  V30 6482 H 633.288 -1.51446 -0.474326 0
M  V30 6483 H 633.309 -2.19307 -3.10941 0
M  V30 6484 H 632.821 -3.44686 -1.78363 0
M  V30 6485 H 630.922 -1.56773 -3.38013 0
M  V30 6486 H 631.035 -3.45109 -3.3232 0
M  V30 6487 H 629.399 -1.76623 -1.83511 0
M  V30 6488 H 630.182 -3.25816 -1.0816 0
M  V30 6489 N 632.627 0.916307 -1.28225 0
M  V30 6490 C 633.559 2.02303 -1.07732 0
M  V30 6491 C 634.572 1.62773 -0.0298421 0
M  V30 6492 O 635.761 1.76406 -0.272626 0
M  V30 6493 C 632.861 3.33282 -0.614504 0
M  V30 6494 C 632.034 4.01439 -1.73682 0
M  V30 6495 C 631.093 5.10698 -1.26781 0
M  V30 6496 O 630.119 5.34038 -1.96958 0
M  V30 6497 N 631.321 5.80355 -0.129624 0
M  V30 6498 H 634.086 2.20442 -2.03041 0
M  V30 6499 H 631.647 1.08744 -1.19943 0
M  V30 6500 H 633.639 4.03699 -0.284397 0
M  V30 6501 H 632.209 3.11633 0.245664 0
M  V30 6502 H 631.429 3.24604 -2.23665 0
M  V30 6503 H 632.717 4.43721 -2.48976 0
M  V30 6504 H 632.115 5.6386 0.455847 0
M  V30 6505 H 630.672 6.51647 0.141224 0
M  V30 6506 N 634.105 1.10431 1.1244 0
M  V30 6507 C 635.037 0.710945 2.17895 0
M  V30 6508 C 636.05 -0.252315 1.60833 0
M  V30 6509 O 637.239 -0.03679 1.78462 0
M  V30 6510 C 634.339 0.0284262 3.38888 0
M  V30 6511 C 633.512 1.01585 4.2544 0
M  V30 6512 C 632.571 0.364826 5.24934 0
M  V30 6513 O 631.597 1.01561 5.60066 0
M  V30 6514 N 632.799 -0.87674 5.73841 0
M  V30 6515 H 635.564 1.61826 2.52255 0
M  V30 6516 H 633.125 0.993132 1.27861 0
M  V30 6517 H 635.117 -0.418568 4.0253 0
M  V30 6518 H 633.687 -0.781294 3.02679 0
M  V30 6519 H 632.907 1.64111 3.58415 0
M  V30 6520 H 634.195 1.68425 4.80115 0
M  V30 6521 H 633.593 -1.42483 5.47462 0
M  V30 6522 H 632.15 -1.26688 6.39369 0
M  V30 6523 N 635.583 -1.29855 0.893053 0
M  V30 6524 C 636.994 -1.77946 0.564998 0
M  V30 6525 C 637.345 -1.73339 -0.919134 0
M  V30 6526 O 636.47 -1.3152 -1.71847 0
M  V30 6527 C 637.065 -3.23118 1.01883 0
M  V30 6528 C 635.624 -3.69013 0.742051 0
M  V30 6529 C 634.771 -2.50121 1.19727 0
M  V30 6530 H 637.722 -1.16611 1.07646 0
M  V30 6531 H 637.743 -3.78875 0.351249 0
M  V30 6532 H 637.255 -3.26439 2.09903 0
M  V30 6533 H 635.356 -3.71173 -0.325816 0
M  V30 6534 H 635.469 -4.60117 1.33527 0
M  V30 6535 H 633.833 -2.47128 0.616418 0
M  V30 6536 H 634.616 -2.56174 2.28538 0
M  V30 6537 N 637.061 -0.65484 -1.43351 0
M  V30 6538 C 638.472 -0.248506 -1.85039 0
M  V30 6539 C 638.823 1.20526 -1.54816 0
M  V30 6540 O 637.948 1.92016 -0.99794 0
M  V30 6541 C 638.543 -0.444241 -3.35875 0
M  V30 6542 C 637.102 -0.0922108 -3.76287 0
M  V30 6543 C 636.249 -0.746327 -2.67068 0
M  V30 6544 H 639.2 -0.8584 -1.33481 0
M  V30 6545 H 639.221 0.309762 -3.79237 0
M  V30 6546 H 638.733 -1.50239 -3.5784 0
M  V30 6547 H 636.834 0.96328 -3.59933 0
M  V30 6548 H 636.947 -0.518807 -4.76283 0
M  V30 6549 H 635.311 -0.179416 -2.54067 0
M  V30 6550 H 636.094 -1.80754 -2.91861 0
M  V30 6551 N 638.539 1.52521 -0.396863 0
M  V30 6552 C 639.471 2.24333 0.469814 0
M  V30 6553 C 640.484 1.2685 1.02043 0
M  V30 6554 O 641.673 1.52876 0.92147 0
M  V30 6555 C 638.773 2.95202 1.66461 0
M  V30 6556 C 637.946 4.19454 1.24003 0
M  V30 6557 C 637.005 4.73255 2.30036 0
M  V30 6558 O 636.031 5.36151 1.91131 0
M  V30 6559 N 637.233 4.53765 3.62047 0
M  V30 6560 H 639.998 2.99347 -0.145468 0
M  V30 6561 H 637.559 1.60348 -0.223606 0
M  V30 6562 H 639.551 3.28092 2.36934 0
M  V30 6563 H 638.121 2.2345 2.18607 0
M  V30 6564 H 637.341 3.92517 0.363892 0
M  V30 6565 H 638.629 5.0017 0.933135 0
M  V30 6566 H 638.027 4.03576 3.96412 0
M  V30 6567 H 636.584 4.91124 4.28533 0
M  V30 6568 N 640.017 0.126909 1.57088 0
M  V30 6569 C 640.949 -0.850973 2.12817 0
M  V30 6570 C 641.962 -1.22457 1.07276 0
M  V30 6571 O 643.151 -1.17215 1.34622 0
M  V30 6572 C 640.251 -2.15039 2.61938 0
M  V30 6573 C 639.424 -1.94726 3.91664 0
M  V30 6574 C 638.483 -3.0847 4.26301 0
M  V30 6575 O 637.509 -2.81038 4.94981 0
M  V30 6576 N 638.711 -4.35116 3.84259 0
M  V30 6577 H 641.476 -0.3748 2.97347 0
M  V30 6578 H 639.037 -0.0572793 1.61799 0
M  V30 6579 H 641.029 -2.90141 2.82135 0
M  V30 6580 H 639.599 -2.5398 1.82244 0
M  V30 6581 H 638.819 -1.03772 3.80296 0
M  V30 6582 H 640.107 -1.78469 4.76473 0
M  V30 6583 H 639.505 -4.60276 3.2888 0
M  V30 6584 H 638.062 -5.07064 4.09548 0
M  V30 6585 N 641.495 -1.56914 -0.146875 0
M  V30 6586 C 642.445 -1.94693 -1.18653 0
M  V30 6587 C 643.429 -0.81821 -1.38543 0
M  V30 6588 O 644.621 -1.08167 -1.40103 0
M  V30 6589 C 641.75 -2.33117 -2.52014 0
M  V30 6590 C 640.836 -3.5256 -2.35717 0
M  V30 6591 N 641.227 -4.69091 -1.89175 0
M  V30 6592 C 639.525 -3.57647 -2.66467 0
M  V30 6593 C 640.226 -5.51187 -1.85924 0
M  V30 6594 N 639.202 -4.92899 -2.29242 0
M  V30 6595 H 643.004 -2.82264 -0.81879 0
M  V30 6596 H 640.518 -1.58474 -0.354929 0
M  V30 6597 H 642.515 -2.58387 -3.27172 0
M  V30 6598 H 641.175 -1.46898 -2.89571 0
M  V30 6599 H 642.186 -4.92844 -1.59139 0
M  V30 6600 H 638.863 -2.81967 -3.07898 0
M  V30 6601 H 640.253 -6.54613 -1.51431 0
M  V30 6602 N 642.974 0.416227 -1.52004 0
M  V30 6603 C 644.39 0.754319 -1.40649 0
M  V30 6604 C 644.59 1.95059 -0.505392 0
M  V30 6605 O 643.646 2.5248 0.0315057 0
M  V30 6606 C 644.959 1.0149 -2.83055 0
M  V30 6607 C 646.507 1.11805 -2.9235 0
M  V30 6608 C 646.982 1.41144 -4.35709 0
M  V30 6609 N 648.473 1.48024 -4.38911 0
M  V30 6610 C 649.208 1.72338 -5.46889 0
M  V30 6611 N 648.704 1.94303 -6.64995 0
M  V30 6612 N 650.497 1.74294 -5.34395 0
M  V30 6613 H 642.648 -0.371324 -2.09129 0
M  V30 6614 H 644.911 -0.103811 -0.942299 0
M  V30 6615 H 644.617 0.208345 -3.51082 0
M  V30 6616 H 644.491 1.93697 -3.23668 0
M  V30 6617 H 646.878 1.91521 -2.24508 0
M  V30 6618 H 646.959 0.17451 -2.55204 0
M  V30 6619 H 646.603 0.619484 -5.04108 0
M  V30 6620 H 646.533 2.36739 -4.70385 0
M  V30 6621 H 649.024 1.32868 -3.53772 0
M  V30 6622 H 649.337 2.12286 -7.43071 0
M  V30 6623 H 647.682 1.91582 -6.68073 0
M  V30 6624 H 650.873 1.56667 -4.41104 0
M  V30 6625 H 651.046 1.92904 -6.18621 0
M  V30 6626 N 644.452 1.42507 0.673017 0
M  V30 6627 C 645.698 1.43284 1.43519 0
M  V30 6628 C 646.031 0.049668 1.94136 0
M  V30 6629 O 645.306 -0.926369 1.71022 0
M  V30 6630 C 645.589 2.45874 2.63093 0
M  V30 6631 C 645.442 3.93388 2.18096 0
M  V30 6632 C 646.761 2.45431 3.6531 0
M  V30 6633 H 643.88 0.521752 0.520522 0
M  V30 6634 H 646.522 1.73932 0.764701 0
M  V30 6635 H 644.672 2.19869 3.20296 0
M  V30 6636 H 646.344 4.30379 1.66046 0
M  V30 6637 H 644.587 4.07169 1.49652 0
M  V30 6638 H 645.258 4.60752 3.03993 0
M  V30 6639 H 647.734 2.68561 3.17827 0
M  V30 6640 H 646.61 3.19189 4.46553 0
M  V30 6641 H 646.871 1.48092 4.16559 0
M  V30 6642 N 645.93 -0.909495 1.28709 0
M  V30 6643 C 646.86 -2.0291 1.15542 0
M  V30 6644 C 647.841 -1.7002 0.0521017 0
M  V30 6645 O 649.026 -1.92835 0.229849 0
M  V30 6646 C 646.156 -3.37458 0.820935 0
M  V30 6647 C 645.11 -3.84524 1.87949 0
M  V30 6648 C 644.436 -5.16086 1.39854 0
M  V30 6649 C 645.736 -4.05918 3.28676 0
M  V30 6650 H 647.43 -2.14183 2.09203 0
M  V30 6651 H 644.976 -1.02913 1.00722 0
M  V30 6652 H 646.929 -4.1528 0.715571 0
M  V30 6653 H 645.653 -3.26249 -0.151374 0
M  V30 6654 H 644.312 -3.08911 1.97408 0
M  V30 6655 H 643.96 -5.01284 0.41518 0
M  V30 6656 H 643.66 -5.48547 2.1064 0
M  V30 6657 H 645.184 -5.96459 1.30649 0
M  V30 6658 H 646.598 -4.74252 3.22115 0
M  V30 6659 H 644.995 -4.49717 3.97334 0
M  V30 6660 H 646.065 -3.10583 3.72379 0
M  V30 6661 N 647.408 -1.11026 -1.11852 0
M  V30 6662 C 648.34 -0.72249 -2.17515 0
M  V30 6663 C 649.353 0.243782 -1.60964 0
M  V30 6664 O 650.542 0.0273252 -1.78479 0
M  V30 6665 C 647.642 -0.0463979 -3.38868 0
M  V30 6666 C 646.815 -1.0384 -4.24895 0
M  V30 6667 C 645.874 -0.392659 -5.24733 0
M  V30 6668 O 644.9 -1.0453 -5.5952 0
M  V30 6669 N 646.102 0.846296 -5.74298 0
M  V30 6670 H 648.867 -1.63161 -2.51393 0
M  V30 6671 H 646.428 -0.999899 -1.27333 0
M  V30 6672 H 648.42 0.397215 -4.02746 0
M  V30 6673 H 646.99 0.765231 -3.03089 0
M  V30 6674 H 646.21 -1.6601 -3.57539 0
M  V30 6675 H 647.498 -1.70968 -4.79215 0
M  V30 6676 H 646.896 1.39578 -5.4821 0
M  V30 6677 H 645.453 1.23296 -6.40032 0
M  V30 6678 N 648.886 1.2938 -0.899927 0
M  V30 6679 C 649.818 2.26737 -0.335139 0
M  V30 6680 C 650.831 1.54316 0.518681 0
M  V30 6681 O 652.02 1.75313 0.335803 0
M  V30 6682 C 649.12 3.34558 0.540774 0
M  V30 6683 C 648.293 4.36455 -0.287372 0
M  V30 6684 C 647.352 5.2361 0.52141 0
M  V30 6685 O 646.378 5.69167 -0.0611735 0
M  V30 6686 N 647.58 5.50985 1.82745 0
M  V30 6687 H 650.345 2.75838 -1.17191 0
M  V30 6688 H 647.906 1.42716 -0.764438 0
M  V30 6689 H 649.898 3.89794 1.08825 0
M  V30 6690 H 648.468 2.85272 1.27823 0
M  V30 6691 H 647.688 3.80875 -1.01626 0
M  V30 6692 H 648.976 5.01573 -0.854518 0
M  V30 6693 H 648.374 5.15781 2.32349 0
M  V30 6694 H 646.931 6.09036 2.32204 0
M  V30 6695 N 650.364 0.662433 1.43002 0
M  V30 6696 C 651.294 -0.00979809 2.33498 0
M  V30 6697 C 652.275 -0.802329 1.49989 0
M  V30 6698 O 653.46 -0.761964 1.78627 0
M  V30 6699 C 650.59 -0.970446 3.33466 0
M  V30 6700 C 649.544 -0.287383 4.27034 0
M  V30 6701 C 648.87 -1.36012 5.17112 0
M  V30 6702 C 650.17 0.82595 5.15728 0
M  V30 6703 H 651.864 0.745959 2.89958 0
M  V30 6704 H 649.41 0.360172 1.39423 0
M  V30 6705 H 651.363 -1.44971 3.95679 0
M  V30 6706 H 650.087 -1.75748 2.75282 0
M  V30 6707 H 648.746 0.17152 3.66199 0
M  V30 6708 H 648.394 -2.13882 4.55262 0
M  V30 6709 H 648.094 -0.908276 5.80538 0
M  V30 6710 H 649.618 -1.84056 5.82199 0
M  V30 6711 H 651.032 0.42845 5.71697 0
M  V30 6712 H 649.429 1.20282 5.87922 0
M  V30 6713 H 650.499 1.68003 4.54866 0
M  V30 6714 N 651.842 -1.52309 0.404946 0
M  V30 6715 C 652.774 -2.24579 -0.45791 0
M  V30 6716 C 653.787 -1.2739 -1.01369 0
M  V30 6717 O 654.976 -1.53363 -0.91335 0
M  V30 6718 C 652.076 -2.9608 -1.64893 0
M  V30 6719 C 651.249 -4.20106 -1.21777 0
M  V30 6720 C 650.308 -4.74468 -2.27523 0
M  V30 6721 O 649.334 -5.37157 -1.88285 0
M  V30 6722 N 650.536 -4.55678 -3.59635 0
M  V30 6723 H 653.301 -2.99265 0.161341 0
M  V30 6724 H 650.862 -1.60228 0.232107 0
M  V30 6725 H 652.854 -3.29344 -2.35191 0
M  V30 6726 H 651.424 -2.24606 -2.17419 0
M  V30 6727 H 650.644 -3.92704 -0.343071 0
M  V30 6728 H 651.932 -5.00658 -0.906596 0
M  V30 6729 H 651.33 -4.05673 -3.94266 0
M  V30 6730 H 649.887 -4.9339 -4.25922 0
M  V30 6731 N 653.32 -0.135238 -1.57019 0
M  V30 6732 C 654.252 0.839675 -2.13265 0
M  V30 6733 C 655.265 1.21887 -1.07923 0
M  V30 6734 O 656.454 1.16499 -1.35241 0
M  V30 6735 C 653.554 2.13647 -2.63075 0
M  V30 6736 C 652.727 1.92646 -3.92691 0
M  V30 6737 C 651.786 3.06205 -4.27931 0
M  V30 6738 O 650.812 2.78409 -4.96465 0
M  V30 6739 N 652.014 4.33072 -3.86561 0
M  V30 6740 H 654.779 0.359026 -2.97542 0
M  V30 6741 H 652.34 0.0486979 -1.61827 0
M  V30 6742 H 654.332 2.88641 -2.8367 0
M  V30 6743 H 652.902 2.5301 -1.83588 0
M  V30 6744 H 652.122 1.01754 -3.80841 0
M  V30 6745 H 653.41 1.75939 -4.77413 0
M  V30 6746 H 652.808 4.58526 -3.31316 0
M  V30 6747 H 651.365 5.04885 -4.12231 0
M  V30 6748 N 654.798 1.5699 0.138552 0
M  V30 6749 C 656.046 1.83446 0.848053 0
M  V30 6750 C 656.367 0.71744 1.81322 0
M  V30 6751 O 655.637 -0.260228 1.94164 0
M  V30 6752 H 654.217 0.676792 0.316166 0
M  V30 6753 H 656.879 1.94462 0.130538 0
M  V30 6754 H 655.975 2.78677 1.40518 0
M  V30 6755 N 656.276 -0.40816 1.52223 0
M  V30 6756 C 657.553 -1.16807 1.56893 0
M  V30 6757 C 657.933 -2.08169 0.350537 0
M  V30 6758 O 657.281 -2.18684 -0.662536 0
M  V30 6759 C 657.491 -1.94451 2.8981 0
M  V30 6760 C 658.839 -2.50484 3.42845 0
M  V30 6761 O 659.863 -2.0463 2.91556 0
M  V30 6762 O 658.722 -3.34192 4.3241 0
M  V30 6763 H 655.816 -0.533382 0.632007 0
M  V30 6764 H 658.362 -0.414862 1.64551 0
M  V30 6765 H 657.134 -1.27527 3.69936 0
M  V30 6766 H 656.757 -2.76775 2.85449 0
M  V30 6767 N 657.755 -1.42862 -0.66545 0
M  V30 6768 C 659.001 -1.4504 -1.426 0
M  V30 6769 C 659.356 -0.0690217 -1.92276 0
M  V30 6770 O 658.649 0.91036 -1.68591 0
M  V30 6771 C 658.843 -2.4175 -2.63233 0
M  V30 6772 C 658.672 -3.89155 -2.25362 0
M  V30 6773 C 657.442 -4.57619 -2.14273 0
M  V30 6774 C 659.64 -4.79326 -1.86417 0
M  V30 6775 N 657.622 -5.90006 -1.69604 0
M  V30 6776 C 658.993 -6.00892 -1.52738 0
M  V30 6777 C 661.048 -4.66696 -1.73492 0
M  V30 6778 C 659.751 -7.11232 -1.0743 0
M  V30 6779 C 661.777 -5.77027 -1.29589 0
M  V30 6780 C 661.139 -6.97712 -0.968393 0
M  V30 6781 H 657.238 -0.585889 -0.517936 0
M  V30 6782 H 659.822 -1.78956 -0.767002 0
M  V30 6783 H 657.993 -2.09881 -3.26809 0
M  V30 6784 H 659.725 -2.34447 -3.29874 0
M  V30 6785 H 656.48 -4.11957 -2.33641 0
M  V30 6786 H 656.904 -6.60249 -1.49666 0
M  V30 6787 H 661.546 -3.7386 -1.97455 0
M  V30 6788 H 659.264 -8.03907 -0.822147 0
M  V30 6789 H 662.85 -5.6927 -1.20095 0
M  V30 6790 H 661.73 -7.81634 -0.63384 0
M  V30 6791 N 659.233 0.902656 -1.29189 0
M  V30 6792 C 660.649 1.18296 -1.07137 0
M  V30 6793 C 660.849 2.00701 0.179223 0
M  V30 6794 O 659.905 2.3675 0.877812 0
M  V30 6795 C 661.218 1.90677 -2.32514 0
M  V30 6796 C 662.766 2.03515 -2.37804 0
M  V30 6797 C 663.241 2.79307 -3.62976 0
M  V30 6798 N 664.732 2.86862 -3.63681 0
M  V30 6799 C 665.467 3.46035 -4.57217 0
M  V30 6800 N 664.963 4.06399 -5.61081 0
M  V30 6801 N 666.756 3.43681 -4.44792 0
M  V30 6802 H 658.907 0.352765 -2.0945 0
M  V30 6803 H 661.17 0.21876 -0.922414 0
M  V30 6804 H 660.876 1.3756 -3.23682 0
M  V30 6805 H 660.75 2.91169 -2.39793 0
M  V30 6806 H 663.137 2.55809 -1.47125 0
M  V30 6807 H 663.218 1.02166 -2.34512 0
M  V30 6808 H 662.862 2.2769 -4.54004 0
M  V30 6809 H 662.792 3.80995 -3.63525 0
M  V30 6810 H 665.283 2.43987 -2.88581 0
M  V30 6811 H 665.596 4.49564 -6.2858 0
M  V30 6812 H 663.941 4.0487 -5.64894 0
M  V30 6813 H 667.132 2.9574 -3.62843 0
M  V30 6814 H 667.305 3.89503 -5.17872 0
M  V30 6815 N 660.711 1.11618 1.11262 0
M  V30 6816 C 661.641 0.79846 2.19424 0
M  V30 6817 C 662.622 -0.234003 1.68483 0
M  V30 6818 O 663.807 -0.0970704 1.93957 0
M  V30 6819 C 660.937 0.242892 3.4645 0
M  V30 6820 C 659.891 1.20744 4.10615 0
M  V30 6821 C 659.217 0.512494 5.32238 0
M  V30 6822 C 660.517 2.55884 4.55325 0
M  V30 6823 H 662.211 1.70286 2.46258 0
M  V30 6824 H 659.757 0.820195 1.18359 0
M  V30 6825 H 661.71 0.00840447 4.21399 0
M  V30 6826 H 660.434 -0.696811 3.1908 0
M  V30 6827 H 659.093 1.42759 3.37662 0
M  V30 6828 H 658.741 -0.432075 5.01141 0
M  V30 6829 H 658.441 1.15583 5.7612 0
M  V30 6830 H 659.965 0.286842 6.09926 0
M  V30 6831 H 661.379 2.37946 5.21588 0
M  V30 6832 H 659.776 3.16216 5.10027 0
M  V30 6833 H 660.846 3.14968 3.68678 0
M  V30 6834 N 662.189 -1.289 0.906776 0
M  V30 6835 C 663.121 -2.26556 0.347159 0
M  V30 6836 C 664.134 -1.54589 -0.51049 0
M  V30 6837 O 665.323 -1.75489 -0.326501 0
M  V30 6838 C 662.423 -3.3484 -0.523024 0
M  V30 6839 C 661.596 -4.36296 0.310515 0
M  V30 6840 C 660.655 -5.23879 -0.493634 0
M  V30 6841 O 659.681 -5.69127 0.0913569 0
M  V30 6842 N 660.883 -5.51946 -1.7982 0
M  V30 6843 H 663.648 -2.75212 1.18652 0
M  V30 6844 H 661.209 -1.42309 0.771996 0
M  V30 6845 H 663.201 -3.90366 -1.06756 0
M  V30 6846 H 661.771 -2.85946 -1.26309 0
M  V30 6847 H 660.991 -3.80331 1.03644 0
M  V30 6848 H 662.279 -5.01113 0.881106 0
M  V30 6849 H 661.677 -5.17006 -2.2961 0
M  V30 6850 H 660.234 -6.10258 -2.28971 0
M  V30 6851 N 663.667 -0.670007 -1.42649 0
M  V30 6852 C 664.599 0.0501746 -2.29145 0
M  V30 6853 C 665.612 0.770331 -1.43422 0
M  V30 6854 O 666.801 0.625288 -1.6719 0
M  V30 6855 C 663.901 1.09463 -3.20735 0
M  V30 6856 C 663.074 0.44926 -4.35087 0
M  V30 6857 C 662.133 1.39285 -5.07431 0
M  V30 6858 O 661.159 0.894997 -5.6212 0
M  V30 6859 N 662.361 2.72631 -5.12496 0
M  V30 6860 H 665.126 -0.692312 -2.91594 0
M  V30 6861 H 662.687 -0.514056 -1.53522 0
M  V30 6862 H 664.679 1.72705 -3.65999 0
M  V30 6863 H 663.249 1.73891 -2.59771 0
M  V30 6864 H 662.469 -0.362573 -3.92529 0
M  V30 6865 H 663.757 -0.000544776 -5.088 0
M  V30 6866 H 663.155 3.15623 -4.69467 0
M  V30 6867 H 661.712 3.31132 -5.61422 0
M  V30 6868 N 665.145 1.52092 -0.413018 0
M  V30 6869 C 666.075 2.30021 0.401567 0
M  V30 6870 C 667.056 1.34395 1.04269 0
M  V30 6871 O 668.241 1.63304 1.05097 0
M  V30 6872 C 665.371 3.12447 1.51638 0
M  V30 6873 C 664.325 4.16153 1.00005 0
M  V30 6874 C 663.651 4.86948 2.20875 0
M  V30 6875 C 664.951 5.22275 0.0513757 0
M  V30 6876 H 666.645 2.98365 -0.248704 0
M  V30 6877 H 664.191 1.4349 -0.121052 0
M  V30 6878 H 666.144 3.65733 2.09326 0
M  V30 6879 H 664.868 2.41879 2.19458 0
M  V30 6880 H 663.527 3.63882 0.445549 0
M  V30 6881 H 663.175 4.12905 2.8726 0
M  V30 6882 H 662.875 5.57057 1.86978 0
M  V30 6883 H 664.399 5.43048 2.79162 0
M  V30 6884 H 665.813 5.70778 0.537176 0
M  V30 6885 H 664.21 5.9977 -0.198977 0
M  V30 6886 H 665.28 4.76611 -0.892736 0
M  V30 6887 N 666.623 0.143563 1.56945 0
M  V30 6888 C 667.573 -0.809115 2.1316 0
M  V30 6889 C 668.557 -1.21176 1.05855 0
M  V30 6890 O 669.749 -1.17875 1.3204 0
M  V30 6891 C 666.878 -2.04957 2.75405 0
M  V30 6892 C 665.964 -1.67018 3.89828 0
M  V30 6893 N 666.355 -0.998822 4.9584 0
M  V30 6894 C 664.653 -1.96313 4.00471 0
M  V30 6895 C 665.354 -0.816217 5.75945 0
M  V30 6896 N 664.33 -1.349 5.26596 0
M  V30 6897 H 668.132 -0.286919 2.92496 0
M  V30 6898 H 665.646 -0.0580948 1.62296 0
M  V30 6899 H 667.643 -2.74201 3.14037 0
M  V30 6900 H 666.303 -2.57697 1.97541 0
M  V30 6901 H 667.314 -0.659975 5.13678 0
M  V30 6902 H 663.991 -2.50927 3.33679 0
M  V30 6903 H 665.381 -0.287353 6.71285 0
M  V30 6904 N 668.101 -1.57061 -0.130224 0
M  V30 6905 C 669.031 -2.02552 -1.16168 0
M  V30 6906 C 670.012 -0.907971 -1.4384 0
M  V30 6907 O 671.197 -1.17693 -1.54473 0
M  V30 6908 C 668.327 -2.42035 -2.49071 0
M  V30 6909 C 667.281 -3.5713 -2.35886 0
M  V30 6910 C 666.607 -3.82478 -3.7365 0
M  V30 6911 C 667.907 -4.89236 -1.8288 0
M  V30 6912 H 669.601 -2.8897 -0.783359 0
M  V30 6913 H 667.147 -1.39021 -0.375376 0
M  V30 6914 H 669.1 -2.72462 -3.21469 0
M  V30 6915 H 667.824 -1.52573 -2.88771 0
M  V30 6916 H 666.483 -3.26895 -1.65938 0
M  V30 6917 H 666.131 -2.9024 -4.10816 0
M  V30 6918 H 665.831 -4.59944 -3.65685 0
M  V30 6919 H 667.355 -4.15347 -4.47571 0
M  V30 6920 H 668.769 -5.18272 -2.45085 0
M  V30 6921 H 667.166 -5.70624 -1.85763 0
M  V30 6922 H 668.236 -4.78494 -0.785571 0
M  V30 6923 N 669.579 0.400081 -1.52437 0
M  V30 6924 C 670.511 1.50729 -1.72666 0
M  V30 6925 C 671.524 1.51058 -0.607075 0
M  V30 6926 O 672.713 1.5516 -0.88248 0
M  V30 6927 C 669.813 2.89604 -1.76019 0
M  V30 6928 C 668.986 3.13365 -3.05157 0
M  V30 6929 C 668.045 4.32163 -3.00203 0
M  V30 6930 O 667.071 4.29004 -3.74092 0
M  V30 6931 N 668.273 5.3776 -2.18619 0
M  V30 6932 H 671.038 1.33767 -2.68191 0
M  V30 6933 H 668.599 0.58948 -1.50787 0
M  V30 6934 H 670.591 3.67159 -1.70225 0
M  V30 6935 H 669.161 2.99979 -0.879284 0
M  V30 6936 H 668.381 2.23774 -3.24529 0
M  V30 6937 H 669.669 3.26089 -3.90568 0
M  V30 6938 H 669.067 5.43177 -1.58035 0
M  V30 6939 H 667.624 6.14023 -2.18674 0
M  V30 6940 N 671.057 1.43213 0.657864 0
M  V30 6941 C 672.007 1.44459 1.76396 0
M  V30 6942 C 672.991 0.313641 1.57814 0
M  V30 6943 O 674.183 0.557094 1.68004 0
M  V30 6944 C 671.312 1.36586 3.14959 0
M  V30 6945 C 670.398 2.54692 3.39106 0
M  V30 6946 N 670.789 3.80059 3.33749 0
M  V30 6947 C 669.087 2.49316 3.69807 0
M  V30 6948 C 669.788 4.58606 3.57849 0
M  V30 6949 N 668.764 3.89267 3.79437 0
M  V30 6950 H 672.566 2.39265 1.70673 0
M  V30 6951 H 670.08 1.378 0.859357 0
M  V30 6952 H 672.077 1.35561 3.94245 0
M  V30 6953 H 670.737 0.427956 3.21867 0
M  V30 6954 H 671.748 4.12414 3.13266 0
M  V30 6955 H 668.425 1.6419 3.83859 0
M  V30 6956 H 669.815 5.67619 3.59525 0
M  V30 6957 N 672.536 -0.895792 1.29666 0
M  V30 6958 C 673.952 -1.17726 1.07763 0
M  V30 6959 C 674.152 -2.00794 -0.168576 0
M  V30 6960 O 673.208 -2.37213 -0.865244 0
M  V30 6961 C 674.521 -1.89441 2.33522 0
M  V30 6962 C 676.069 -2.02251 2.3888 0
M  V30 6963 C 676.544 -2.77378 3.64452 0
M  V30 6964 N 678.035 -2.8493 3.65198 0
M  V30 6965 C 678.77 -3.43606 4.59045 0
M  V30 6966 N 678.266 -4.03417 5.63228 0
M  V30 6967 N 680.059 -3.41317 4.46608 0
M  V30 6968 H 672.21 -0.341652 2.09634 0
M  V30 6969 H 674.473 -0.213865 0.923561 0
M  V30 6970 H 674.179 -1.35842 3.24407 0
M  V30 6971 H 674.053 -2.89893 2.41334 0
M  V30 6972 H 676.44 -2.55025 1.4848 0
M  V30 6973 H 676.521 -1.0092 2.3505 0
M  V30 6974 H 676.165 -2.25279 4.55205 0
M  V30 6975 H 676.095 -3.79062 3.65541 0
M  V30 6976 H 678.586 -2.42453 2.89871 0
M  V30 6977 H 678.899 -4.46224 6.30955 0
M  V30 6978 H 677.244 -4.01868 5.67033 0
M  V30 6979 H 680.435 -2.93812 3.64407 0
M  V30 6980 H 680.608 -3.86751 5.1993 0
M  V30 6981 N 674.014 -1.12206 -1.10668 0
M  V30 6982 C 674.964 -0.75669 -2.15077 0
M  V30 6983 C 675.948 0.243154 -1.59052 0
M  V30 6984 O 677.14 0.0490268 -1.76932 0
M  V30 6985 C 674.269 -0.210303 -3.42655 0
M  V30 6986 C 673.355 -1.23829 -4.05619 0
M  V30 6987 N 673.746 -2.43513 -4.43323 0
M  V30 6988 C 672.044 -1.08309 -4.32649 0
M  V30 6989 C 672.745 -3.09138 -4.92756 0
M  V30 6990 N 671.721 -2.36593 -4.89413 0
M  V30 6991 H 675.523 -1.66747 -2.42018 0
M  V30 6992 H 673.037 -1.00248 -1.27765 0
M  V30 6993 H 675.034 0.0696287 -4.16842 0
M  V30 6994 H 673.694 0.694967 -3.17176 0
M  V30 6995 H 674.705 -2.80912 -4.35097 0
M  V30 6996 H 671.382 -0.234919 -4.16839 0
M  V30 6997 H 672.772 -4.11049 -5.31496 0
M  V30 6998 N 675.492 1.28418 -0.913599 0
M  V30 6999 C 676.903 1.77024 -0.593237 0
M  V30 7000 C 677.254 1.74779 0.891441 0
M  V30 7001 O 676.379 1.34237 1.69733 0
M  V30 7002 C 676.974 3.21456 -1.07011 0
M  V30 7003 C 675.533 3.67786 -0.800664 0
M  V30 7004 C 674.68 2.48185 -1.23691 0
M  V30 7005 H 677.631 1.14883 -1.09487 0
M  V30 7006 H 677.652 3.78269 -0.411481 0
M  V30 7007 H 677.164 3.23058 -2.1507 0
M  V30 7008 H 675.265 3.71644 0.266725 0
M  V30 7009 H 675.378 4.57934 -1.4083 0
M  V30 7010 H 673.742 2.46116 -0.655655 0
M  V30 7011 H 674.525 2.52506 -2.32585 0
M  V30 7012 N 676.97 0.677563 1.42291 0
M  V30 7013 C 677.92 -0.0218641 2.2799 0
M  V30 7014 C 678.904 -0.770816 1.41235 0
M  V30 7015 O 680.096 -0.649273 1.64662 0
M  V30 7016 C 677.225 -0.970449 3.29298 0
M  V30 7017 C 676.311 -0.218695 4.23536 0
M  V30 7018 N 676.702 0.777908 4.99782 0
M  V30 7019 C 675 -0.456748 4.43655 0
M  V30 7020 C 675.701 1.22632 5.68627 0
M  V30 7021 N 674.677 0.55573 5.40752 0
M  V30 7022 H 678.479 0.742516 2.84366 0
M  V30 7023 H 675.993 0.506862 1.54288 0
M  V30 7024 H 677.99 -1.48652 3.89497 0
M  V30 7025 H 676.65 -1.73463 2.74483 0
M  V30 7026 H 677.661 1.15754 5.04798 0
M  V30 7027 H 674.338 -1.20021 3.99877 0
M  V30 7028 H 675.728 2.05231 6.39789 0
M  V30 7029 N 678.448 -1.51871 0.421078 0
M  V30 7030 C 679.38 -2.25052 -0.434065 0
M  V30 7031 C 680.393 -1.28458 -1.00013 0
M  V30 7032 O 681.582 -1.54323 -0.897033 0
M  V30 7033 C 678.682 -2.97813 -1.61743 0
M  V30 7034 C 677.855 -4.21374 -1.17315 0
M  V30 7035 C 676.914 -4.76854 -2.22478 0
M  V30 7036 O 675.94 -5.39123 -1.82577 0
M  V30 7037 N 677.142 -4.59467 -3.54782 0
M  V30 7038 H 679.907 -2.99077 0.193073 0
M  V30 7039 H 677.468 -1.59972 0.249088 0
M  V30 7040 H 679.46 -3.3182 -2.31685 0
M  V30 7041 H 678.03 -2.26899 -2.15024 0
M  V30 7042 H 677.25 -3.93046 -0.3014 0
M  V30 7043 H 678.538 -5.01591 -0.853444 0
M  V30 7044 H 677.936 -4.09832 -3.89941 0
M  V30 7045 H 676.493 -4.9788 -4.20665 0
M  V30 7046 N 679.926 -0.151884 -1.56866 0
M  V30 7047 C 680.858 0.817008 -2.14144 0
M  V30 7048 C 681.871 1.20735 -1.0921 0
M  V30 7049 O 683.06 1.15058 -1.36469 0
M  V30 7050 C 680.16 2.10844 -2.65326 0
M  V30 7051 C 679.333 1.88471 -3.94712 0
M  V30 7052 C 678.392 3.01649 -4.31155 0
M  V30 7053 O 677.418 2.73127 -4.9939 0
M  V30 7054 N 678.62 4.28947 -3.91132 0
M  V30 7055 H 681.385 0.327448 -2.97906 0
M  V30 7056 H 678.946 0.0315313 -1.61869 0
M  V30 7057 H 680.938 2.85616 -2.86715 0
M  V30 7058 H 679.508 2.51049 -1.86262 0
M  V30 7059 H 678.728 0.977088 -3.81899 0
M  V30 7060 H 680.016 1.70866 -4.79252 0
M  V30 7061 H 679.414 4.54986 -3.36161 0
M  V30 7062 H 677.971 5.00484 -4.17563 0
M  V30 7063 N 681.404 1.57128 0.121893 0
M  V30 7064 C 682.336 1.96773 1.17529 0
M  V30 7065 C 683.349 0.866668 1.37814 0
M  V30 7066 O 684.538 1.14497 1.3694 0
M  V30 7067 C 681.638 2.24832 2.53582 0
M  V30 7068 C 680.811 3.56138 2.53939 0
M  V30 7069 C 679.87 3.72443 3.71716 0
M  V30 7070 O 678.896 4.44584 3.55434 0
M  V30 7071 N 680.098 3.10993 4.90167 0
M  V30 7072 H 682.863 2.87743 0.838086 0
M  V30 7073 H 680.424 1.58881 0.311199 0
M  V30 7074 H 682.416 2.32958 3.30927 0
M  V30 7075 H 680.986 1.40002 2.79496 0
M  V30 7076 H 680.206 3.59226 1.62329 0
M  V30 7077 H 681.494 4.42448 2.51231 0
M  V30 7078 H 680.892 2.52345 5.06299 0
M  V30 7079 H 679.449 3.24644 5.65198 0
M  V30 7080 N 682.882 -0.391992 1.52647 0
M  V30 7081 C 683.814 -1.49811 1.73463 0
M  V30 7082 C 684.827 -1.50734 0.615078 0
M  V30 7083 O 686.016 -1.5469 0.890696 0
M  V30 7084 C 683.116 -2.88667 1.77552 0
M  V30 7085 C 682.289 -3.11743 3.06815 0
M  V30 7086 C 681.348 -4.30564 3.02491 0
M  V30 7087 O 680.374 -4.27014 3.76361 0
M  V30 7088 N 681.576 -5.36593 2.21468 0
M  V30 7089 H 684.341 -1.32343 2.68897 0
M  V30 7090 H 681.902 -0.581475 1.51098 0
M  V30 7091 H 683.894 -3.66251 1.7217 0
M  V30 7092 H 682.464 -2.99508 0.895181 0
M  V30 7093 H 681.684 -2.2205 3.25711 0
M  V30 7094 H 682.972 -3.24013 3.92292 0
M  V30 7095 H 682.37 -5.42332 1.60913 0
M  V30 7096 H 680.927 -6.12855 2.21928 0
M  V30 7097 N 684.36 -1.4356 -0.65026 0
M  V30 7098 C 685.292 -1.44918 -1.77571 0
M  V30 7099 C 686.305 -0.344925 -1.59104 0
M  V30 7100 O 687.494 -0.609537 -1.6777 0
M  V30 7101 C 684.594 -1.24914 -3.15039 0
M  V30 7102 C 683.767 -2.48232 -3.60138 0
M  V30 7103 C 682.826 -2.23409 -4.76419 0
M  V30 7104 O 681.852 -2.9678 -4.85706 0
M  V30 7105 N 683.054 -1.25259 -5.66825 0
M  V30 7106 H 685.819 -2.41935 -1.76883 0
M  V30 7107 H 683.38 -1.38754 -0.834202 0
M  V30 7108 H 685.372 -1.06185 -3.90521 0
M  V30 7109 H 683.942 -0.363319 -3.10481 0
M  V30 7110 H 683.162 -2.82366 -2.75069 0
M  V30 7111 H 684.45 -3.30296 -3.87017 0
M  V30 7112 H 683.848 -0.646246 -5.61997 0
M  V30 7113 H 682.405 -1.12513 -6.42016 0
M  V30 7114 N 685.838 0.888903 -1.30139 0
M  V30 7115 C 686.77 1.99972 -1.11999 0
M  V30 7116 C 687.783 1.62673 -0.0643619 0
M  V30 7117 O 688.972 1.75788 -0.309983 0
M  V30 7118 C 686.072 3.31904 -0.685059 0
M  V30 7119 C 685.245 3.97665 -1.82158 0
M  V30 7120 C 684.304 5.07894 -1.37585 0
M  V30 7121 O 683.33 5.2974 -2.08241 0
M  V30 7122 N 684.532 5.7995 -0.252697 0
M  V30 7123 H 687.297 2.16085 -2.07671 0
M  V30 7124 H 684.858 1.06175 -1.22223 0
M  V30 7125 H 686.85 4.03005 -0.369964 0
M  V30 7126 H 685.42 3.12084 0.179507 0
M  V30 7127 H 684.64 3.19787 -2.305 0
M  V30 7128 H 685.928 4.3834 -2.58332 0
M  V30 7129 H 685.326 5.647 0.336141 0
M  V30 7130 H 683.883 6.518 0.00296813 0
M  V30 7131 N 687.317 1.12792 1.10072 0
M  V30 7132 C 688.249 0.757003 2.16338 0
M  V30 7133 C 689.262 -0.218144 1.61332 0
M  V30 7134 O 690.451 0.0010727 1.785 0
M  V30 7135 C 687.551 0.100303 3.38752 0
M  V30 7136 C 686.724 1.10586 4.2319 0
M  V30 7137 C 685.783 0.47609 5.24042 0
M  V30 7138 O 684.809 1.13418 5.57786 0
M  V30 7139 N 686.011 -0.754823 5.75572 0
M  V30 7140 H 688.776 1.6714 2.48766 0
M  V30 7141 H 686.337 1.02003 1.25726 0
M  V30 7142 H 688.329 -0.333092 4.03327 0
M  V30 7143 H 686.899 -0.716915 3.04268 0
M  V30 7144 H 686.119 1.71677 3.54853 0
M  V30 7145 H 687.407 1.78571 4.76435 0
M  V30 7146 H 686.805 -1.30838 5.50362 0
M  V30 7147 H 685.362 -1.13098 6.41913 0
M  V30 7148 N 688.795 -1.27931 0.920396 0
M  V30 7149 C 689.727 -2.26175 0.371169 0
M  V30 7150 C 690.74 -1.55122 -0.494065 0
M  V30 7151 O 691.929 -1.75825 -0.30787 0
M  V30 7152 C 689.029 -3.35376 -0.487481 0
M  V30 7153 C 688.202 -4.35943 0.356772 0
M  V30 7154 C 687.261 -5.24374 -0.438042 0
M  V30 7155 O 686.287 -5.68998 0.151715 0
M  V30 7156 N 687.489 -5.53823 -1.73956 0
M  V30 7157 H 690.254 -2.73938 1.21564 0
M  V30 7158 H 687.815 -1.41482 0.787047 0
M  V30 7159 H 689.807 -3.91476 -1.02609 0
M  V30 7160 H 688.377 -2.87269 -1.23269 0
M  V30 7161 H 687.597 -3.7921 1.07672 0
M  V30 7162 H 688.885 -5.0015 0.934206 0
M  V30 7163 H 688.283 -5.19413 -2.24114 0
M  V30 7164 H 686.84 -6.12653 -2.22486 0
M  V30 7165 N 690.273 -0.685099 -1.4193 0
M  V30 7166 C 691.205 0.0258679 -2.29185 0
M  V30 7167 C 692.218 0.755076 -1.44231 0
M  V30 7168 O 693.407 0.60752 -1.67844 0
M  V30 7169 C 690.507 1.06055 -3.21878 0
M  V30 7170 C 689.68 0.403088 -4.35539 0
M  V30 7171 C 688.739 1.33895 -5.0888 0
M  V30 7172 O 687.765 0.835326 -5.63037 0
M  V30 7173 N 688.967 2.6718 -5.15359 0
M  V30 7174 H 691.732 -0.723201 -2.90843 0
M  V30 7175 H 689.293 -0.53031 -1.52968 0
M  V30 7176 H 691.285 1.68813 -3.6781 0
M  V30 7177 H 689.855 1.71126 -2.616 0
M  V30 7178 H 689.075 -0.404185 -3.92122 0
M  V30 7179 H 690.363 -0.0545098 -5.08771 0
M  V30 7180 H 689.761 3.10626 -4.72788 0
M  V30 7181 H 688.318 3.25159 -5.64903 0
M  V30 7182 N 691.751 1.51645 -0.429126 0
M  V30 7183 C 692.683 2.25279 0.422124 0
M  V30 7184 C 693.696 1.28986 0.993299 0
M  V30 7185 O 694.885 1.54797 0.888836 0
M  V30 7186 C 691.985 2.98666 1.60162 0
M  V30 7187 C 691.158 4.2199 1.15078 0
M  V30 7188 C 690.217 4.78028 2.19946 0
M  V30 7189 O 689.243 5.40084 1.79716 0
M  V30 7190 N 690.445 4.61342 3.5234 0
M  V30 7191 H 693.21 2.98971 -0.208931 0
M  V30 7192 H 690.771 1.59838 -0.257568 0
M  V30 7193 H 692.763 3.33044 2.29922 0
M  V30 7194 H 691.333 2.28036 2.13818 0
M  V30 7195 H 690.553 3.932 0.280552 0
M  V30 7196 H 691.841 5.02037 0.826831 0
M  V30 7197 H 691.239 4.11894 3.87763 0
M  V30 7198 H 689.796 5.00104 4.18019 0
M  V30 7199 N 693.229 0.160201 1.56784 0
M  V30 7200 C 694.161 -0.80564 2.14574 0
M  V30 7201 C 695.174 -1.20154 1.09849 0
M  V30 7202 O 696.363 -1.14333 1.37078 0
M  V30 7203 C 693.463 -2.09434 2.6644 0
M  V30 7204 C 692.636 -1.86375 3.95706 0
M  V30 7205 C 691.695 -2.99358 4.32749 0
M  V30 7206 O 690.721 -2.70475 5.00831 0
M  V30 7207 N 691.923 -4.26867 3.93402 0
M  V30 7208 H 694.688 -0.311644 2.98075 0
M  V30 7209 H 692.249 -0.0229465 1.61884 0
M  V30 7210 H 694.241 -2.84091 2.88226 0
M  V30 7211 H 692.811 -2.50057 1.8759 0
M  V30 7212 H 692.031 -0.956821 3.82412 0
M  V30 7213 H 693.319 -1.68322 4.80151 0
M  V30 7214 H 692.717 -4.53197 3.38569 0
M  V30 7215 H 691.274 -4.98263 4.20211 0
M  V30 7216 N 694.707 -1.5719 -0.113559 0
M  V30 7217 C 695.639 -1.97393 -1.16484 0
M  V30 7218 C 696.652 -0.873964 -1.37352 0
M  V30 7219 O 697.841 -1.15222 -1.36331 0
M  V30 7220 C 694.941 -2.26174 -2.52386 0
M  V30 7221 C 694.114 -3.57479 -2.52046 0
M  V30 7222 C 693.173 -3.74409 -3.69735 0
M  V30 7223 O 692.199 -4.46463 -3.53071 0
M  V30 7224 N 693.401 -3.13588 -4.88511 0
M  V30 7225 H 696.166 -2.88184 -0.822814 0
M  V30 7226 H 693.727 -1.59044 -0.302769 0
M  V30 7227 H 695.719 -2.3471 -3.29687 0
M  V30 7228 H 694.289 -1.41483 -2.7875 0
M  V30 7229 H 693.509 -3.60081 -1.60421 0
M  V30 7230 H 694.797 -4.43775 -2.48881 0
M  V30 7231 H 694.195 -2.55026 -5.04953 0
M  V30 7232 H 692.752 -3.27637 -5.63469 0
M  V30 7233 N 696.185 0.383891 -1.52853 0
M  V30 7234 C 697.117 1.48889 -1.74255 0
M  V30 7235 C 698.13 1.50405 -0.623063 0
M  V30 7236 O 699.319 1.54215 -0.898887 0
M  V30 7237 C 696.419 2.87721 -1.79081 0
M  V30 7238 C 695.592 3.10111 -3.08464 0
M  V30 7239 C 694.651 4.28954 -3.0477 0
M  V30 7240 O 693.677 4.25012 -3.78621 0
M  V30 7241 N 694.879 5.35411 -2.24311 0
M  V30 7242 H 697.644 1.30915 -2.69595 0
M  V30 7243 H 695.205 0.573454 -1.51404 0
M  V30 7244 H 697.197 3.65333 -1.7411 0
M  V30 7245 H 695.767 2.99029 -0.911052 0
M  V30 7246 H 694.987 2.20319 -3.26884 0
M  V30 7247 H 696.275 3.21928 -3.94005 0
M  V30 7248 H 695.673 5.41471 -1.63787 0
M  V30 7249 H 694.23 6.1167 -2.25175 0
M  V30 7250 N 697.663 1.43903 0.642637 0
M  V30 7251 C 698.595 1.45857 1.768 0
M  V30 7252 C 699.608 0.353358 1.58919 0
M  V30 7253 O 700.797 0.618426 1.67445 0
M  V30 7254 C 697.897 1.26583 3.14372 0
M  V30 7255 C 697.07 2.50139 3.58817 0
M  V30 7256 C 696.129 2.25933 4.75227 0
M  V30 7257 O 695.155 2.99351 4.84125 0
M  V30 7258 N 696.357 1.28263 5.66153 0
M  V30 7259 H 699.122 2.42869 1.75598 0
M  V30 7260 H 696.683 1.39194 0.826832 0
M  V30 7261 H 698.675 1.08255 3.89953 0
M  V30 7262 H 697.245 0.37978 3.10284 0
M  V30 7263 H 696.465 2.83821 2.73568 0
M  V30 7264 H 697.753 3.32344 3.8526 0
M  V30 7265 H 697.151 0.676041 5.61646 0
M  V30 7266 H 695.708 1.15916 6.4141 0
M  V30 7267 N 699.141 -0.881989 1.30609 0
M  V30 7268 C 700.073 -1.99375 1.13058 0
M  V30 7269 C 701.086 -1.62636 0.0729879 0
M  V30 7270 O 702.275 -1.75621 0.319301 0
M  V30 7271 C 699.375 -3.31536 0.702651 0
M  V30 7272 C 698.548 -3.96693 1.84265 0
M  V30 7273 C 697.607 -5.07158 1.40277 0
M  V30 7274 O 696.633 -5.28628 2.11048 0
M  V30 7275 N 697.835 -5.79808 0.283449 0
M  V30 7276 H 700.6 -2.14981 2.08814 0
M  V30 7277 H 698.161 -1.05526 1.22784 0
M  V30 7278 H 700.153 -4.02804 0.391331 0
M  V30 7279 H 698.723 -3.12175 -0.162954 0
M  V30 7280 H 697.943 -3.1856 2.32192 0
M  V30 7281 H 699.231 -4.36964 2.60653 0
M  V30 7282 H 698.629 -5.64871 -0.306189 0
M  V30 7283 H 697.186 -6.51792 0.0315985 0
M  V30 7284 N 700.619 -1.13374 -1.09472 0
M  V30 7285 C 701.551 -0.768466 -2.15933 0
M  V30 7286 C 702.564 0.209585 -1.61445 0
M  V30 7287 O 703.753 -0.010539 -1.78497 0
M  V30 7288 C 700.853 -0.118266 -3.38694 0
M  V30 7289 C 700.026 -1.12829 -4.22597 0
M  V30 7290 C 699.085 -0.503875 -5.23782 0
M  V30 7291 O 698.111 -1.16374 -5.57177 0
M  V30 7292 N 699.313 0.724288 -5.75964 0
M  V30 7293 H 702.078 -1.68457 -2.47876 0
M  V30 7294 H 699.639 -1.02668 -1.25183 0
M  V30 7295 H 701.631 0.311698 -4.03498 0
M  V30 7296 H 700.201 0.700769 -3.04644 0
M  V30 7297 H 699.421 -1.73556 -3.53938 0
M  V30 7298 H 700.709 -1.81095 -4.75481 0
M  V30 7299 H 700.107 1.27918 -5.51048 0
M  V30 7300 H 698.664 1.09692 -6.42504 0
M  V30 7301 N 702.098 1.27442 -0.927168 0
M  V30 7302 C 703.03 2.25975 -0.383158 0
M  V30 7303 C 704.043 1.55382 0.485832 0
M  V30 7304 O 705.232 1.75986 0.298541 0
M  V30 7305 C 702.332 3.35629 0.469688 0
M  V30 7306 C 701.505 4.35747 -0.379886 0
M  V30 7307 C 700.564 5.24598 0.410227 0
M  V30 7308 O 699.59 5.68909 -0.181888 0
M  V30 7309 N 700.792 5.54737 1.71017 0
M  V30 7310 H 703.557 2.7329 -1.23015 0
M  V30 7311 H 701.118 1.41063 -0.794539 0
M  V30 7312 H 703.11 3.92015 1.00532 0
M  V30 7313 H 701.68 2.87919 1.21744 0
M  V30 7314 H 700.9 3.78634 -1.09682 0
M  V30 7315 H 702.188 4.99648 -0.960717 0
M  V30 7316 H 701.586 5.20594 2.21356 0
M  V30 7317 H 700.143 6.13824 2.19234 0
M  V30 7318 N 703.576 0.692616 1.41565 0
M  V30 7319 C 704.508 -0.0137132 2.29196 0
M  V30 7320 C 705.521 -0.747417 1.44629 0
M  V30 7321 O 706.71 -0.598611 1.68163 0
M  V30 7322 C 703.81 -1.04347 3.22436 0
M  V30 7323 C 702.983 -0.379985 4.35746 0
M  V30 7324 C 702.042 -1.31195 5.09583 0
M  V30 7325 O 701.068 -0.805455 5.63472 0
M  V30 7326 N 702.27 -2.64443 5.16769 0
M  V30 7327 H 705.035 0.738614 2.90456 0
M  V30 7328 H 702.596 0.538415 1.52685 0
M  V30 7329 H 704.588 -1.6686 3.687 0
M  V30 7330 H 703.158 -1.69736 2.62504 0
M  V30 7331 H 702.378 0.424975 3.91903 0
M  V30 7332 H 703.666 0.0814904 5.08735 0
M  V30 7333 H 703.064 -3.08114 4.74428 0
M  V30 7334 H 701.621 -3.22159 5.66619 0
M  V30 7335 N 705.054 -1.51416 0.437162 0
M  V30 7336 C 705.986 -2.255 -0.410171 0
M  V30 7337 C 706.999 -1.29511 -0.986444 0
M  V30 7338 O 708.188 -1.55266 -0.880614 0
M  V30 7339 C 705.288 -2.99511 -1.58575 0
M  V30 7340 C 704.461 -4.22595 -1.12839 0
M  V30 7341 C 703.52 -4.79187 -2.17407 0
M  V30 7342 O 702.546 -5.4103 -1.76849 0
M  V30 7343 N 703.748 -4.63204 -3.49889 0
M  V30 7344 H 706.513 -2.98856 0.224783 0
M  V30 7345 H 704.074 -1.59699 0.266041 0
M  V30 7346 H 706.066 -3.34258 -2.28152 0
M  V30 7347 H 704.636 -2.29167 -2.12606 0
M  V30 7348 H 703.856 -3.93344 -0.259695 0
M  V30 7349 H 705.144 -5.02468 -0.800196 0
M  V30 7350 H 704.542 -4.13945 -3.85573 0
M  V30 7351 H 703.099 -5.02313 -4.15361 0
M  V30 7352 N 706.532 -0.168513 -1.56696 0
M  V30 7353 C 707.464 0.794249 -2.14998 0
M  V30 7354 C 708.477 1.1957 -1.10485 0
M  V30 7355 O 709.666 1.13604 -1.37682 0
M  V30 7356 C 706.766 2.08018 -2.67547 0
M  V30 7357 C 705.939 1.84274 -3.96689 0
M  V30 7358 C 704.998 2.97059 -4.3433 0
M  V30 7359 O 704.024 2.67815 -5.02259 0
M  V30 7360 N 705.226 4.24775 -3.9566 0
M  V30 7361 H 707.991 0.295832 -2.98236 0
M  V30 7362 H 705.552 0.0143611 -1.61894 0
M  V30 7363 H 707.544 2.82559 -2.89729 0
M  V30 7364 H 706.114 2.49059 -1.88914 0
M  V30 7365 H 705.334 0.936528 -3.82914 0
M  V30 7366 H 706.622 1.65773 -4.81037 0
M  V30 7367 H 706.02 4.51395 -3.40968 0
M  V30 7368 H 704.577 4.96027 -4.22848 0
M  V30 7369 N 708.01 1.57248 0.105221 0
M  V30 7370 C 708.942 1.98008 1.15436 0
M  V30 7371 C 709.955 0.881236 1.36887 0
M  V30 7372 O 711.144 1.15943 1.35718 0
M  V30 7373 C 708.244 2.27509 2.51183 0
M  V30 7374 C 707.417 3.58811 2.50147 0
M  V30 7375 C 706.476 3.76365 3.67745 0
M  V30 7376 O 705.502 4.48329 3.50699 0
M  V30 7377 N 706.704 3.16174 4.86841 0
M  V30 7378 H 709.469 2.88616 0.807519 0
M  V30 7379 H 707.03 1.59202 0.29433 0
M  V30 7380 H 709.022 2.36455 3.28438 0
M  V30 7381 H 707.592 1.42959 2.77995 0
M  V30 7382 H 706.812 3.60927 1.5851 0
M  V30 7383 H 708.1 4.45088 2.46524 0
M  V30 7384 H 707.498 2.57701 5.03594 0
M  V30 7385 H 706.055 3.30621 5.61723 0
M  V30 7386 N 709.488 -0.375779 1.53054 0
M  V30 7387 C 710.42 -1.47963 1.75042 0
M  V30 7388 C 711.433 -1.50073 0.631031 0
M  V30 7389 O 712.622 -1.53736 0.907052 0
M  V30 7390 C 709.722 -2.86767 1.80604 0
M  V30 7391 C 708.895 -3.08471 3.10104 0
M  V30 7392 C 707.954 -4.27332 3.07041 0
M  V30 7393 O 706.98 -4.22998 3.80869 0
M  V30 7394 N 708.182 -5.34214 2.27147 0
M  V30 7395 H 710.947 -1.29484 2.70285 0
M  V30 7396 H 708.508 -0.565416 1.51706 0
M  V30 7397 H 710.5 -3.64404 1.76045 0
M  V30 7398 H 709.07 -2.98542 0.926897 0
M  V30 7399 H 708.29 -2.18583 3.28048 0
M  V30 7400 H 709.578 -3.19834 3.95706 0
M  V30 7401 H 708.976 -5.40594 1.66656 0
M  V30 7402 H 707.533 -6.10467 2.28415 0
M  V30 7403 N 710.966 -1.44241 -0.634997 0
M  V30 7404 C 711.898 -1.46793 -1.76024 0
M  V30 7405 C 712.911 -0.361781 -1.58729 0
M  V30 7406 O 714.1 -0.627297 -1.67114 0
M  V30 7407 C 711.2 -1.28248 -3.13697 0
M  V30 7408 C 710.373 -2.52038 -3.57485 0
M  V30 7409 C 709.432 -2.2845 -4.74022 0
M  V30 7410 O 708.458 -3.01915 -4.82531 0
M  V30 7411 N 709.66 -1.31264 -5.65464 0
M  V30 7412 H 712.425 -2.43797 -1.74307 0
M  V30 7413 H 709.986 -1.39631 -0.819438 0
M  V30 7414 H 711.978 -1.10321 -3.89373 0
M  V30 7415 H 710.548 -0.39623 -3.10079 0
M  V30 7416 H 709.768 -2.85268 -2.72059 0
M  V30 7417 H 711.056 -3.34382 -3.83492 0
M  V30 7418 H 710.454 -0.705817 -5.6128 0
M  V30 7419 H 709.011 -1.19316 -6.40786 0
M  V30 7420 N 712.444 0.87505 -1.31075 0
M  V30 7421 C 713.376 1.98773 -1.14114 0
M  V30 7422 C 714.389 1.62595 -0.0816119 0
M  V30 7423 O 715.578 1.75449 -0.32861 0
M  V30 7424 C 712.678 3.31159 -0.720224 0
M  V30 7425 C 711.851 3.9571 -1.86366 0
M  V30 7426 C 710.91 5.06407 -1.42965 0
M  V30 7427 O 709.936 5.27501 -2.13848 0
M  V30 7428 N 711.138 5.79649 -0.314194 0
M  V30 7429 H 713.903 2.1387 -2.09951 0
M  V30 7430 H 711.464 1.04873 -1.23342 0
M  V30 7431 H 713.456 4.0259 -0.412687 0
M  V30 7432 H 712.026 3.12257 0.146396 0
M  V30 7433 H 711.246 3.17324 -2.33879 0
M  V30 7434 H 712.534 4.35576 -2.62966 0
M  V30 7435 H 711.932 5.65025 0.276228 0
M  V30 7436 H 710.489 6.51766 -0.0661641 0
M  V30 7437 N 713.922 1.13953 1.08869 0
M  V30 7438 C 714.854 0.779906 2.15523 0
M  V30 7439 C 715.867 -0.20102 1.61554 0
M  V30 7440 O 717.056 0.0200049 1.78489 0
M  V30 7441 C 714.156 0.136226 3.38626 0
M  V30 7442 C 713.329 1.15069 4.21993 0
M  V30 7443 C 712.388 0.531645 5.23507 0
M  V30 7444 O 711.414 1.19327 5.56552 0
M  V30 7445 N 712.616 -0.693734 5.7634 0
M  V30 7446 H 715.381 1.69769 2.46979 0
M  V30 7447 H 712.942 1.03331 1.24637 0
M  V30 7448 H 714.934 -0.290295 4.03658 0
M  V30 7449 H 713.504 -0.684603 3.05011 0
M  V30 7450 H 712.724 1.75431 3.53012 0
M  V30 7451 H 714.012 1.83614 4.74514 0
M  V30 7452 H 713.41 -1.24994 5.51718 0
M  V30 7453 H 711.967 -1.06283 6.43076 0
M  V30 7454 N 715.4 -1.26948 0.933913 0
M  V30 7455 C 716.332 -2.25768 0.395137 0
M  V30 7456 C 717.345 -1.55637 -0.477585 0
M  V30 7457 O 718.534 -1.76142 -0.289204 0
M  V30 7458 C 715.634 -3.35874 -0.451882 0
M  V30 7459 C 714.807 -4.3554 0.40299 0
M  V30 7460 C 713.866 -5.24809 -0.3824 0
M  V30 7461 O 712.892 -5.68805 0.212057 0
M  V30 7462 N 714.094 -5.55636 -1.68072 0
M  V30 7463 H 716.859 -2.72634 1.24463 0
M  V30 7464 H 714.42 -1.40639 0.802008 0
M  V30 7465 H 716.412 -3.92542 -0.984516 0
M  V30 7466 H 714.982 -2.8856 -1.20215 0
M  V30 7467 H 714.202 -3.78047 1.11688 0
M  V30 7468 H 715.49 -4.99131 0.987201 0
M  V30 7469 H 714.888 -5.2176 -2.18592 0
M  V30 7470 H 713.445 -6.14978 -2.15975 0
M  V30 7471 N 716.879 -0.700114 -1.41195 0
M  V30 7472 C 717.811 0.00155823 -2.292 0
M  V30 7473 C 718.824 0.739736 -1.45023 0
M  V30 7474 O 720.013 0.589684 -1.68478 0
M  V30 7475 C 717.113 1.02635 -3.22985 0
M  V30 7476 C 716.286 0.356871 -4.35942 0
M  V30 7477 C 715.345 1.28491 -5.10271 0
M  V30 7478 O 714.371 0.775562 -5.63892 0
M  V30 7479 N 715.573 2.61699 -5.18164 0
M  V30 7480 H 718.338 -0.754008 -2.9006 0
M  V30 7481 H 715.899 -0.546504 -1.52397 0
M  V30 7482 H 717.891 1.64902 -3.6958 0
M  V30 7483 H 716.461 1.68341 -2.63401 0
M  V30 7484 H 715.681 -0.445753 -3.91672 0
M  V30 7485 H 716.969 -0.108469 -5.08684 0
M  V30 7486 H 716.367 3.05594 -4.76056 0
M  V30 7487 H 714.924 3.19149 -5.6832 0
M  V30 7488 N 718.357 1.51182 -0.445186 0
M  V30 7489 C 719.307 2.24804 0.380394 0
M  V30 7490 C 720.291 1.27344 0.983482 0
M  V30 7491 O 721.483 1.52392 0.900322 0
M  V30 7492 C 718.612 3.09922 1.4766 0
M  V30 7493 C 717.698 4.14816 0.882517 0
M  V30 7494 N 718.089 5.05797 0.0183278 0
M  V30 7495 C 716.387 4.30938 1.14927 0
M  V30 7496 C 717.088 5.8084 -0.316152 0
M  V30 7497 N 716.064 5.42759 0.302214 0
M  V30 7498 H 719.866 2.92508 -0.285737 0
M  V30 7499 H 717.38 1.60342 -0.257733 0
M  V30 7500 H 719.377 3.61249 2.08098 0
M  V30 7501 H 718.037 2.43763 2.14498 0
M  V30 7502 H 719.048 5.16725 -0.348679 0
M  V30 7503 H 715.725 3.76005 1.81457 0
M  V30 7504 H 717.115 6.64115 -1.01986 0
M  V30 7505 N 719.835 0.176821 1.56605 0
M  V30 7506 C 720.785 -0.763718 2.14829 0
M  V30 7507 C 721.769 -1.18903 1.08401 0
M  V30 7508 O 722.961 -1.15048 1.3451 0
M  V30 7509 C 720.09 -1.99069 2.7969 0
M  V30 7510 C 719.176 -1.58711 3.93283 0
M  V30 7511 N 719.567 -0.893423 4.97847 0
M  V30 7512 C 717.865 -1.87774 4.04545 0
M  V30 7513 C 718.566 -0.693866 5.77547 0
M  V30 7514 N 717.542 -1.23699 5.29339 0
M  V30 7515 H 721.344 -0.224811 2.93039 0
M  V30 7516 H 718.858 -0.0236563 1.62383 0
M  V30 7517 H 720.855 -2.67478 3.19783 0
M  V30 7518 H 719.515 -2.53449 2.02962 0
M  V30 7519 H 720.526 -0.550868 5.14962 0
M  V30 7520 H 717.203 -2.43793 3.38927 0
M  V30 7521 H 718.593 -0.144899 6.71744 0
M  V30 7522 N 721.313 -1.57302 -0.09688 0
M  V30 7523 C 722.263 -1.98369 -1.12399 0
M  V30 7524 C 723.247 -0.861872 -1.3587 0
M  V30 7525 O 724.439 -1.1257 -1.36591 0
M  V30 7526 C 721.568 -2.41017 -2.4447 0
M  V30 7527 C 720.654 -3.59881 -2.24381 0
M  V30 7528 N 721.045 -4.74872 -1.74155 0
M  V30 7529 C 719.343 -3.65943 -2.54954 0
M  V30 7530 C 720.044 -5.56823 -1.68294 0
M  V30 7531 N 719.02 -4.99942 -2.13444 0
M  V30 7532 H 722.822 -2.84726 -0.728575 0
M  V30 7533 H 720.336 -1.59523 -0.304332 0
M  V30 7534 H 722.333 -2.68665 -3.18786 0
M  V30 7535 H 720.993 -1.56036 -2.84751 0
M  V30 7536 H 722.004 -4.97657 -1.43379 0
M  V30 7537 H 718.681 -2.9162 -2.98771 0
M  V30 7538 H 720.071 -6.59099 -1.30528 0
M  V30 7539 N 722.791 0.367657 -1.53252 0
M  V30 7540 C 723.741 1.45035 -1.75923 0
M  V30 7541 C 724.725 1.48736 -0.613719 0
M  V30 7542 O 725.917 1.54012 -0.872313 0
M  V30 7543 C 723.046 2.82493 -1.9507 0
M  V30 7544 C 722.132 2.83279 -3.15617 0
M  V30 7545 N 722.523 2.53712 -4.37566 0
M  V30 7546 C 720.821 3.1444 -3.16297 0
M  V30 7547 C 721.522 2.62123 -5.19294 0
M  V30 7548 N 720.498 2.96747 -4.55458 0
M  V30 7549 H 724.3 1.21035 -2.6782 0
M  V30 7550 H 721.814 0.575822 -1.51849 0
M  V30 7551 H 723.811 3.60473 -2.0944 0
M  V30 7552 H 722.471 3.07459 -1.044 0
M  V30 7553 H 723.482 2.27344 -4.65333 0
M  V30 7554 H 720.159 3.44733 -2.35511 0
M  V30 7555 H 721.549 2.42628 -6.26563 0
M  V30 7556 N 724.269 1.44576 0.627338 0
M  V30 7557 C 725.219 1.48168 1.73293 0
M  V30 7558 C 726.203 0.347045 1.57113 0
M  V30 7559 O 727.395 0.592605 1.66785 0
M  V30 7560 C 724.524 1.43236 3.11991 0
M  V30 7561 C 723.61 2.61828 3.33627 0
M  V30 7562 N 724.001 3.87053 3.25612 0
M  V30 7563 C 722.299 2.57104 3.64436 0
M  V30 7564 C 723 4.66093 3.48041 0
M  V30 7565 N 721.976 3.97228 3.71095 0
M  V30 7566 H 725.778 2.42832 1.6556 0
M  V30 7567 H 723.292 1.39592 0.829934 0
M  V30 7568 H 725.289 1.43893 3.91281 0
M  V30 7569 H 723.949 0.496133 3.20887 0
M  V30 7570 H 724.96 4.18966 3.04447 0
M  V30 7571 H 721.637 1.72295 3.8029 0
M  V30 7572 H 723.027 5.75117 3.47404 0
M  V30 7573 N 725.747 -0.868086 1.31537 0
M  V30 7574 C 726.697 -1.96321 1.1594 0
M  V30 7575 C 727.681 -1.60748 0.0698962 0
M  V30 7576 O 728.873 -1.74524 0.295011 0
M  V30 7577 C 726.002 -3.32073 0.870789 0
M  V30 7578 C 725.088 -3.73907 2.00136 0
M  V30 7579 N 725.479 -3.87685 3.24859 0
M  V30 7580 C 723.777 -4.03433 1.90152 0
M  V30 7581 C 724.478 -4.23454 3.98825 0
M  V30 7582 N 723.454 -4.34242 3.27009 0
M  V30 7583 H 727.256 -2.05088 2.10514 0
M  V30 7584 H 724.77 -1.059 1.23122 0
M  V30 7585 H 726.767 -4.10279 0.740034 0
M  V30 7586 H 725.427 -3.24631 -0.0667068 0
M  V30 7587 H 726.438 -3.72363 3.59953 0
M  V30 7588 H 723.115 -4.0437 1.03879 0
M  V30 7589 H 724.505 -4.41696 5.06314 0
M  V30 7590 N 727.225 -1.14528 -1.08264 0
M  V30 7591 C 728.175 -0.802141 -2.13424 0
M  V30 7592 C 729.159 0.209362 -1.59532 0
M  V30 7593 O 730.351 0.0114859 -1.76996 0
M  V30 7594 C 727.48 -0.282938 -3.42132 0
M  V30 7595 C 726.566 -1.32405 -4.02902 0
M  V30 7596 N 726.957 -2.52861 -4.38058 0
M  V30 7597 C 725.255 -1.17462 -4.30254 0
M  V30 7598 C 725.956 -3.1952 -4.86088 0
M  V30 7599 N 724.932 -2.46921 -4.84284 0
M  V30 7600 H 728.734 -1.71843 -2.38426 0
M  V30 7601 H 726.248 -1.02936 -1.2561 0
M  V30 7602 H 728.245 -0.0188053 -4.16896 0
M  V30 7603 H 726.905 0.627533 -3.18578 0
M  V30 7604 H 727.916 -2.90078 -4.2904 0
M  V30 7605 H 724.593 -0.323283 -4.16246 0
M  V30 7606 H 725.983 -4.2223 -5.22658 0
M  V30 7607 N 728.703 1.26451 -0.940633 0
M  V30 7608 C 729.653 2.24086 -0.420669 0
M  V30 7609 C 730.637 1.53501 0.482301 0
M  V30 7610 O 731.829 1.74127 0.317636 0
M  V30 7611 C 728.958 3.41866 0.313452 0
M  V30 7612 C 728.044 4.19737 -0.606779 0
M  V30 7613 N 728.435 4.7521 -1.73232 0
M  V30 7614 C 726.733 4.44091 -0.41226 0
M  V30 7615 C 727.434 5.34052 -2.30572 0
M  V30 7616 N 726.41 5.1971 -1.59381 0
M  V30 7617 H 730.212 2.64569 -1.27986 0
M  V30 7618 H 727.726 1.4153 -0.796436 0
M  V30 7619 H 729.723 4.1093 0.702991 0
M  V30 7620 H 728.383 3.0291 1.16942 0
M  V30 7621 H 729.394 4.72769 -2.11447 0
M  V30 7622 H 726.071 4.1556 0.401984 0
M  V30 7623 H 727.461 5.87845 -3.25404 0
M  V30 7624 N 730.181 0.707592 1.40822 0
M  V30 7625 C 731.111 0.0644925 2.33411 0
M  V30 7626 C 732.092 -0.754205 1.52466 0
M  V30 7627 O 733.277 -0.704749 1.80961 0
M  V30 7628 C 730.407 -0.863865 3.36385 0
M  V30 7629 C 729.361 -0.15138 4.27732 0
M  V30 7630 C 728.687 -1.19491 5.21177 0
M  V30 7631 C 729.987 0.989607 5.12839 0
M  V30 7632 H 731.681 0.837829 2.87438 0
M  V30 7633 H 729.227 0.404346 1.38207 0
M  V30 7634 H 731.18 -1.32309 4.0009 0
M  V30 7635 H 729.904 -1.66901 2.80734 0
M  V30 7636 H 728.563 0.287937 3.65467 0
M  V30 7637 H 728.211 -1.9929 4.61836 0
M  V30 7638 H 727.911 -0.723123 5.83134 0
M  V30 7639 H 729.435 -1.6544 5.8776 0
M  V30 7640 H 730.849 0.610114 5.70044 0
M  V30 7641 H 729.246 1.38926 5.83798 0
M  V30 7642 H 730.316 1.82389 4.49291 0
M  V30 7643 N 731.66 -1.50943 0.453197 0
M  V30 7644 C 732.59 -2.31005 -0.34044 0
M  V30 7645 C 733.571 -1.37112 -1.00669 0
M  V30 7646 O 734.756 -1.66033 -1.0073 0
M  V30 7647 C 731.886 -3.16358 -1.433 0
M  V30 7648 C 730.84 -4.18658 -0.889363 0
M  V30 7649 C 730.166 -4.92633 -2.07887 0
M  V30 7650 C 731.466 -5.22227 0.0871142 0
M  V30 7651 H 733.16 -2.97601 0.327723 0
M  V30 7652 H 730.706 -1.43119 0.159054 0
M  V30 7653 H 732.659 -3.71155 -1.99555 0
M  V30 7654 H 731.383 -2.47613 -2.12968 0
M  V30 7655 H 730.042 -3.64936 -0.348915 0
M  V30 7656 H 729.69 -4.20376 -2.76211 0
M  V30 7657 H 729.39 -5.61819 -1.72143 0
M  V30 7658 H 730.914 -5.50258 -2.64666 0
M  V30 7659 H 732.328 -5.72001 -0.385656 0
M  V30 7660 H 730.725 -5.99032 0.357926 0
M  V30 7661 H 731.795 -4.74077 1.01879 0
M  V30 7662 N 733.138 -0.185124 -1.56509 0
M  V30 7663 C 734.07 0.771401 -2.15829 0
M  V30 7664 C 735.083 1.18392 -1.11747 0
M  V30 7665 O 736.272 1.12137 -1.38879 0
M  V30 7666 C 733.372 2.05169 -2.69739 0
M  V30 7667 C 732.545 1.80056 -3.98621 0
M  V30 7668 C 731.604 2.92435 -4.37456 0
M  V30 7669 O 730.63 2.62473 -5.05071 0
M  V30 7670 N 731.832 4.20554 -4.00143 0
M  V30 7671 H 734.597 0.264184 -2.98533 0
M  V30 7672 H 732.158 -0.00281069 -1.619 0
M  V30 7673 H 734.15 2.7947 -2.92709 0
M  V30 7674 H 732.72 2.47041 -1.91545 0
M  V30 7675 H 731.94 0.895862 -3.83885 0
M  V30 7676 H 733.228 1.60662 -4.82768 0
M  V30 7677 H 732.626 4.47753 -3.45736 0
M  V30 7678 H 731.183 4.91514 -4.28085 0
M  V30 7679 N 734.616 1.57351 0.0885366 0
M  V30 7680 C 735.893 1.77449 0.822873 0
M  V30 7681 C 736.273 0.768463 1.96616 0
M  V30 7682 O 735.621 -0.201757 2.27608 0
M  V30 7683 C 735.831 3.23425 1.31137 0
M  V30 7684 C 737.179 3.86791 1.75152 0
M  V30 7685 O 738.203 3.27215 1.40745 0
M  V30 7686 O 737.062 4.91568 2.38794 0
M  V30 7687 H 734.156 0.727653 0.393002 0
M  V30 7688 H 736.702 1.69556 0.0699095 0
M  V30 7689 H 735.474 3.88188 0.49254 0
M  V30 7690 H 735.097 3.35977 2.12615 0
M  V30 7691 N 736.094 -0.359525 1.53444 0
M  V30 7692 C 737.057 -1.42357 1.7963 0
M  V30 7693 C 738.057 -1.46319 0.666884 0
M  V30 7694 O 739.247 -1.46974 0.935113 0
M  V30 7695 C 736.379 -2.81425 1.92387 0
M  V30 7696 H 737.572 -1.20409 2.74666 0
M  V30 7697 H 735.125 -0.593007 1.44614 0
M  V30 7698 H 735.86 -3.08679 0.994384 0
M  V30 7699 H 735.645 -2.79947 2.74539 0
M  V30 7700 H 737.135 -3.5847 2.14218 0
M  V30 7701 N 737.572 -1.44907 -0.619662 0
M  V30 7702 C 738.802 -1.51575 -1.40387 0
M  V30 7703 C 739.21 -0.14309 -1.88658 0
M  V30 7704 O 738.553 0.863403 -1.62145 0
M  V30 7705 C 738.615 -2.42858 -2.65067 0
M  V30 7706 C 738.279 -3.8982 -2.38515 0
M  V30 7707 C 739.276 -4.80047 -1.99627 0
M  V30 7708 C 736.961 -4.34628 -2.51801 0
M  V30 7709 C 738.955 -6.13086 -1.74369 0
M  V30 7710 C 736.642 -5.67712 -2.26156 0
M  V30 7711 C 737.64 -6.56759 -1.875 0
M  V30 7712 O 737.328 -7.87377 -1.62148 0
M  V30 7713 H 737.06 -0.51612 -0.436573 0
M  V30 7714 H 739.614 -1.90664 -0.763959 0
M  V30 7715 H 737.844 -1.98717 -3.31735 0
M  V30 7716 H 739.533 -2.40346 -3.27091 0
M  V30 7717 H 740.299 -4.46697 -1.8891 0
M  V30 7718 H 736.178 -3.65568 -2.80857 0
M  V30 7719 H 739.722 -6.8255 -1.44122 0
M  V30 7720 H 735.619 -6.0062 -2.36486 0
M  V30 7721 H 736.387 -7.99288 -1.763 0
M  V30 7722 N 739.05 0.861098 -1.31996 0
M  V30 7723 C 739.983 1.97266 -1.14724 0
M  V30 7724 C 740.961 1.62528 -0.0483789 0
M  V30 7725 O 742.145 1.87366 -0.206478 0
M  V30 7726 C 739.272 3.30181 -0.754861 0
M  V30 7727 C 738.318 3.839 -1.85804 0
M  V30 7728 S 739.151 4.08274 -3.46515 0
M  V30 7729 C 740.307 5.44174 -3.09235 0
M  V30 7730 H 740.54 2.11614 -2.08822 0
M  V30 7731 H 738.073 1.01232 -1.16582 0
M  V30 7732 H 740.031 4.06996 -0.535232 0
M  V30 7733 H 738.692 3.13655 0.167155 0
M  V30 7734 H 737.885 4.80013 -1.53633 0
M  V30 7735 H 737.487 3.13907 -2.03318 0
M  V30 7736 H 739.779 6.26172 -2.58679 0
M  V30 7737 H 740.722 5.81301 -4.04345 0
M  V30 7738 H 741.13 5.0787 -2.46431 0
M  V30 7739 N 740.528 1.15101 1.07655 0
M  V30 7740 C 741.46 0.802722 2.14684 0
M  V30 7741 C 742.473 -0.183874 1.61758 0
M  V30 7742 O 743.662 0.0389349 1.78458 0
M  V30 7743 C 740.762 0.172135 3.38463 0
M  V30 7744 C 739.935 1.19538 4.20749 0
M  V30 7745 C 738.994 0.58714 5.22914 0
M  V30 7746 O 738.02 1.25224 5.55255 0
M  V30 7747 N 739.222 -0.632566 5.77043 0
M  V30 7748 H 741.987 1.72379 2.45164 0
M  V30 7749 H 739.548 1.04647 1.23534 0
M  V30 7750 H 741.54 -0.247465 4.03943 0
M  V30 7751 H 740.11 -0.652214 3.0572 0
M  V30 7752 H 739.33 1.79165 3.51132 0
M  V30 7753 H 740.618 1.88636 4.7254 0
M  V30 7754 H 740.016 -1.19135 5.53013 0
M  V30 7755 H 738.573 -0.994566 6.44167 0
M  V30 7756 N 742.006 -1.2595 0.947325 0
M  V30 7757 C 742.938 -2.25336 0.41906 0
M  V30 7758 C 743.951 -1.56135 -0.461051 0
M  V30 7759 O 745.14 -1.76438 -0.270505 0
M  V30 7760 C 742.24 -3.36334 -0.416233 0
M  V30 7761 C 741.413 -4.35088 0.449162 0
M  V30 7762 C 740.472 -5.25185 -0.326716 0
M  V30 7763 O 739.498 -5.68548 0.272374 0
M  V30 7764 N 740.7 -5.57388 -1.6217 0
M  V30 7765 H 743.465 -2.71298 1.27348 0
M  V30 7766 H 741.026 -1.39781 0.81688 0
M  V30 7767 H 743.018 -3.93564 -0.942826 0
M  V30 7768 H 741.588 -2.89819 -1.17148 0
M  V30 7769 H 740.808 -3.76841 1.15692 0
M  V30 7770 H 742.096 -4.98056 1.04008 0
M  V30 7771 H 741.494 -5.2405 -2.13046 0
M  V30 7772 H 740.051 -6.17234 -2.0944 0
M  V30 7773 N 743.484 -0.715051 -1.40445 0
M  V30 7774 C 744.714 -0.263576 -2.04912 0
M  V30 7775 C 745.122 1.09943 -1.53978 0
M  V30 7776 O 744.465 1.70203 -0.691133 0
M  V30 7777 C 744.527 -0.165048 -3.59121 0
M  V30 7778 C 744.191 -1.46325 -4.32941 0
M  V30 7779 C 745.188 -2.40506 -4.60926 0
M  V30 7780 C 742.873 -1.72203 -4.7186 0
M  V30 7781 C 744.867 -3.58812 -5.26814 0
M  V30 7782 C 742.554 -2.9079 -5.3748 0
M  V30 7783 C 743.552 -3.83917 -5.64887 0
M  V30 7784 O 743.24 -5.00424 -6.29151 0
M  V30 7785 H 742.972 -0.116317 -0.665918 0
M  V30 7786 H 745.526 -0.973774 -1.8085 0
M  V30 7787 H 743.756 0.601088 -3.82 0
M  V30 7788 H 745.445 0.251794 -4.05118 0
M  V30 7789 H 746.211 -2.21778 -4.31323 0
M  V30 7790 H 742.09 -1.00571 -4.49896 0
M  V30 7791 H 745.634 -4.31517 -5.48123 0
M  V30 7792 H 741.531 -3.09428 -5.66502 0
M  V30 7793 H 742.299 -5.00494 -6.47648 0
M  V30 7794 N 744.962 1.50701 -0.461195 0
M  V30 7795 C 745.894 2.26124 0.374244 0
M  V30 7796 C 746.907 1.31064 0.965715 0
M  V30 7797 O 748.096 1.56647 0.855801 0
M  V30 7798 C 745.196 3.01996 1.5379 0
M  V30 7799 C 744.369 4.24336 1.06101 0
M  V30 7800 C 743.428 4.82585 2.09756 0
M  V30 7801 O 742.454 5.43775 1.68219 0
M  V30 7802 N 743.656 4.68712 3.42475 0
M  V30 7803 H 746.421 2.9846 -0.2723 0
M  V30 7804 H 743.982 1.59256 -0.291415 0
M  V30 7805 H 745.974 3.37846 2.22806 0
M  V30 7806 H 744.544 2.32521 2.08933 0
M  V30 7807 H 743.764 3.93707 0.197085 0
M  V30 7808 H 745.052 5.03678 0.720156 0
M  V30 7809 H 744.45 4.20026 3.78938 0
M  V30 7810 H 743.007 5.08858 4.07317 0
M  V30 7811 N 746.441 0.193421 1.56409 0
M  V30 7812 C 747.391 -0.74089 2.15627 0
M  V30 7813 C 748.375 -1.17747 1.09656 0
M  V30 7814 O 749.567 -1.13615 1.35723 0
M  V30 7815 C 746.696 -1.96091 2.81786 0
M  V30 7816 C 745.782 -1.54531 3.94944 0
M  V30 7817 N 746.173 -0.840569 4.98767 0
M  V30 7818 C 744.471 -1.83473 4.06514 0
M  V30 7819 C 745.172 -0.632571 5.7825 0
M  V30 7820 N 744.148 -1.18078 5.30621 0
M  V30 7821 H 747.95 -0.193718 2.93261 0
M  V30 7822 H 745.464 -0.00643211 1.62399 0
M  V30 7823 H 747.461 -2.64071 3.22602 0
M  V30 7824 H 746.121 -2.51282 2.05639 0
M  V30 7825 H 747.132 -0.496218 5.15517 0
M  V30 7826 H 743.809 -2.40184 3.41493 0
M  V30 7827 H 745.199 -0.0736433 6.7186 0
M  V30 7828 N 747.919 -1.57396 -0.0801906 0
M  V30 7829 C 748.882 -2.02133 -1.0805 0
M  V30 7830 C 749.882 -0.91707 -1.32085 0
M  V30 7831 O 751.072 -1.18217 -1.27947 0
M  V30 7832 C 748.204 -2.39479 -2.42616 0
M  V30 7833 H 749.397 -2.91733 -0.6951 0
M  V30 7834 H 746.95 -1.52869 -0.325677 0
M  V30 7835 H 747.685 -1.52879 -2.86004 0
M  V30 7836 H 747.47 -3.20052 -2.26515 0
M  V30 7837 H 748.96 -2.74697 -3.14534 0
M  V30 7838 N 749.397 0.351382 -1.53633 0
M  V30 7839 C 750.625 1.11275 -1.74429 0
M  V30 7840 C 751.04 1.82602 -0.479798 0
M  V30 7841 O 750.397 1.74074 0.548125 0
M  V30 7842 C 750.448 2.13223 -2.91921 0
M  V30 7843 O 750.169 1.44798 -4.13479 0
M  V30 7844 C 751.67 3.01797 -3.24706 0
M  V30 7845 H 748.89 0.332153 -0.583023 0
M  V30 7846 H 751.434 0.405974 -2.0043 0
M  V30 7847 H 749.589 2.79477 -2.68274 0
M  V30 7848 H 750.003 2.12839 -4.79374 0
M  V30 7849 H 751.477 3.69282 -4.10286 0
M  V30 7850 H 751.954 3.67387 -2.40673 0
M  V30 7851 H 752.56 2.41141 -3.5033 0
M  V30 7852 N 750.875 1.45233 0.611969 0
M  V30 7853 C 751.807 1.49575 1.73666 0
M  V30 7854 C 752.82 0.386987 1.58134 0
M  V30 7855 O 754.009 0.653804 1.66095 0
M  V30 7856 C 751.109 1.33223 3.11617 0
M  V30 7857 C 750.282 2.57694 3.5343 0
M  V30 7858 C 749.341 2.35962 4.70328 0
M  V30 7859 O 748.367 3.09553 4.77667 0
M  V30 7860 N 749.569 1.40243 5.63305 0
M  V30 7861 H 752.334 2.46539 1.70407 0
M  V30 7862 H 749.895 1.40917 0.79712 0
M  V30 7863 H 751.887 1.16502 3.87569 0
M  V30 7864 H 750.457 0.44551 3.09409 0
M  V30 7865 H 749.677 2.8956 2.67486 0
M  V30 7866 H 750.965 3.40441 3.78124 0
M  V30 7867 H 750.363 0.795023 5.60086 0
M  V30 7868 H 748.92 1.29496 6.38807 0
M  V30 7869 N 752.353 -0.854086 1.3245 0
M  V30 7870 C 753.285 -1.96932 1.17262 0
M  V30 7871 C 754.298 -1.62445 0.107469 0
M  V30 7872 O 755.487 -1.74904 0.356481 0
M  V30 7873 C 752.587 -3.29971 0.772817 0
M  V30 7874 C 751.76 -3.92695 1.92638 0
M  V30 7875 C 750.819 -5.04068 1.51003 0
M  V30 7876 O 749.845 -5.24032 2.22213 0
M  V30 7877 N 751.047 -5.79076 0.406371 0
M  V30 7878 H 753.812 -2.10503 2.13327 0
M  V30 7879 H 751.373 -1.02897 1.24995 0
M  V30 7880 H 753.365 -4.01883 0.476684 0
M  V30 7881 H 751.935 -3.1245 -0.0967 0
M  V30 7882 H 751.155 -3.13563 2.38897 0
M  V30 7883 H 752.443 -4.31337 2.69863 0
M  V30 7884 H 751.841 -5.65393 -0.186302 0
M  V30 7885 H 750.398 -6.51579 0.169846 0
M  V30 7886 N 753.831 -1.1567 -1.07043 0
M  V30 7887 C 754.763 -0.814095 -2.14255 0
M  V30 7888 C 755.776 0.175293 -1.61854 0
M  V30 7889 O 756.965 -0.0483984 -1.78434 0
M  V30 7890 C 754.065 -0.190082 -3.38367 0
M  V30 7891 C 753.238 -1.21768 -4.20109 0
M  V30 7892 C 752.297 -0.614863 -5.22595 0
M  V30 7893 O 751.323 -1.28167 -5.54583 0
M  V30 7894 N 752.525 0.601955 -5.77371 0
M  V30 7895 H 755.29 -1.73677 -2.44247 0
M  V30 7896 H 752.851 -1.05301 -1.22977 0
M  V30 7897 H 754.843 0.22604 -4.04068 0
M  V30 7898 H 753.413 0.635992 -3.06062 0
M  V30 7899 H 752.633 -1.81025 -3.50177 0
M  V30 7900 H 753.921 -1.9114 -4.71533 0
M  V30 7901 H 753.319 1.162 -5.53637 0
M  V30 7902 H 751.876 0.96039 -6.44686 0
M  V30 7903 N 755.309 1.25446 -0.953992 0
M  V30 7904 C 756.241 2.25111 -0.431004 0
M  V30 7905 C 757.254 1.56377 0.452764 0
M  V30 7906 O 758.443 1.76579 0.261144 0
M  V30 7907 C 755.543 3.3655 0.39839 0
M  V30 7908 C 754.716 4.34843 -0.472229 0
M  V30 7909 C 753.775 5.25351 0.29886 0
M  V30 7910 O 752.801 5.68396 -0.302522 0
M  V30 7911 N 754.003 5.5824 1.59211 0
M  V30 7912 H 756.768 2.70619 -1.28785 0
M  V30 7913 H 754.329 1.39346 -0.824281 0
M  V30 7914 H 756.321 3.94059 0.921941 0
M  V30 7915 H 754.891 2.90436 1.15609 0
M  V30 7916 H 754.111 3.76222 -1.17689 0
M  V30 7917 H 755.399 4.97497 -1.06648 0
M  V30 7918 H 754.797 5.25172 2.10264 0
M  V30 7919 H 753.354 6.18336 2.06164 0
M  V30 7920 N 756.787 0.722489 1.40064 0
M  V30 7921 C 757.72 0.0233443 2.28188 0
M  V30 7922 C 758.698 -0.7606 1.43714 0
M  V30 7923 O 759.882 -0.745791 1.73119 0
M  V30 7924 C 757.009 -0.974264 3.24385 0
M  V30 7925 C 756.055 -0.280307 4.25578 0
M  V30 7926 S 756.888 0.996769 5.26141 0
M  V30 7927 C 758.044 0.00143923 6.259 0
M  V30 7928 H 758.277 0.770705 2.87137 0
M  V30 7929 H 755.81 0.513783 1.45601 0
M  V30 7930 H 757.768 -1.5446 3.80332 0
M  V30 7931 H 756.429 -1.69438 2.6448 0
M  V30 7932 H 755.622 -1.03471 4.93264 0
M  V30 7933 H 755.224 0.217657 3.73366 0
M  V30 7934 H 757.516 -0.843126 6.72233 0
M  V30 7935 H 758.459 0.645104 7.05155 0
M  V30 7936 H 758.867 -0.365371 5.63316 0
M  V30 7937 N 758.265 -1.50454 0.469181 0
M  V30 7938 C 759.195 -2.31353 -0.31592 0
M  V30 7939 C 760.176 -1.38172 -0.992094 0
M  V30 7940 O 761.361 -1.67093 -0.989633 0
M  V30 7941 C 758.491 -3.1786 -1.39937 0
M  V30 7942 C 757.445 -4.19578 -0.844909 0
M  V30 7943 C 756.771 -4.9481 -2.0265 0
M  V30 7944 C 758.071 -5.22106 0.142499 0
M  V30 7945 H 759.765 -2.97237 0.359269 0
M  V30 7946 H 757.311 -1.42942 0.174224 0
M  V30 7947 H 759.264 -3.7325 -1.95607 0
M  V30 7948 H 757.988 -2.49858 -2.1033 0
M  V30 7949 H 756.647 -3.65285 -0.310189 0
M  V30 7950 H 756.295 -4.23282 -2.71737 0
M  V30 7951 H 755.995 -5.63613 -1.66174 0
M  V30 7952 H 757.519 -5.53035 -2.58815 0
M  V30 7953 H 758.933 -5.72378 -0.324966 0
M  V30 7954 H 757.33 -5.98618 0.421441 0
M  V30 7955 H 758.4 -4.7297 1.06901 0
M  V30 7956 N 759.743 -0.201713 -1.56304 0
M  V30 7957 C 760.675 0.748466 -2.16635 0
M  V30 7958 C 761.688 1.172 -1.12996 0
M  V30 7959 O 762.877 1.10658 -1.40061 0
M  V30 7960 C 759.977 2.02296 -2.719 0
M  V30 7961 C 759.15 1.75818 -4.00508 0
M  V30 7962 C 758.209 2.87779 -4.40533 0
M  V30 7963 O 757.235 2.57101 -5.07826 0
M  V30 7964 N 758.437 4.16287 -4.04581 0
M  V30 7965 H 761.202 0.232505 -2.98797 0
M  V30 7966 H 758.763 -0.0199822 -1.61888 0
M  V30 7967 H 760.755 2.7635 -2.95657 0
M  V30 7968 H 759.325 2.44996 -1.94154 0
M  V30 7969 H 758.545 0.855095 -3.84814 0
M  V30 7970 H 759.833 1.55532 -4.84445 0
M  V30 7971 H 759.231 4.44061 -3.50466 0
M  V30 7972 H 757.788 4.86946 -4.33274 0
M  V30 7973 N 761.222 1.57436 0.0718424 0
M  V30 7974 C 762.154 2.00412 1.1121 0
M  V30 7975 C 763.167 0.910074 1.34987 0
M  V30 7976 O 764.356 1.18796 1.33228 0
M  V30 7977 C 761.456 2.32786 2.46301 0
M  V30 7978 C 760.629 3.64036 2.4248 0
M  V30 7979 C 759.688 3.8408 3.59679 0
M  V30 7980 O 758.714 4.55667 3.4111 0
M  V30 7981 N 759.916 3.2643 4.80025 0
M  V30 7982 H 762.681 2.90264 0.746118 0
M  V30 7983 H 760.242 1.59791 0.260495 0
M  V30 7984 H 762.234 2.43368 3.23348 0
M  V30 7985 H 760.804 1.48824 2.74901 0
M  V30 7986 H 760.024 3.64208 1.50818 0
M  V30 7987 H 761.312 4.50217 2.37027 0
M  V30 7988 H 760.71 2.68325 4.98014 0
M  V30 7989 H 759.267 3.42461 5.54584 0
M  V30 7990 N 762.7 -0.34323 1.53817 0
M  V30 7991 C 763.632 -1.44216 1.78141 0
M  V30 7992 C 764.645 -1.48701 0.662721 0
M  V30 7993 O 765.834 -1.51778 0.939458 0
M  V30 7994 C 762.934 -2.82872 1.86646 0
M  V30 7995 C 762.107 -3.01824 3.16577 0
M  V30 7996 C 761.166 -4.20723 3.16036 0
M  V30 7997 O 760.192 -4.14824 3.89756 0
M  V30 7998 N 761.394 -5.29276 2.38427 0
M  V30 7999 H 764.159 -1.23721 2.72971 0
M  V30 8000 H 761.72 -0.53311 1.52871 0
M  V30 8001 H 763.712 -3.60588 1.83735 0
M  V30 8002 H 762.282 -2.96509 0.990014 0
M  V30 8003 H 761.502 -2.11575 3.3261 0
M  V30 8004 H 762.79 -3.11369 4.02402 0
M  V30 8005 H 762.188 -5.36938 1.78085 0
M  V30 8006 H 760.745 -6.05484 2.41313 0
M  V30 8007 N 764.178 -1.45556 -0.604258 0
M  V30 8008 C 765.425 -1.49746 -1.36317 0
M  V30 8009 C 765.753 -0.140516 -1.93992 0
M  V30 8010 O 765.008 0.861244 -1.7573 0
M  V30 8011 C 765.307 -2.52697 -2.52743 0
M  V30 8012 C 764.973 -3.97315 -2.13195 0
M  V30 8013 C 763.635 -4.36692 -2.02123 0
M  V30 8014 C 765.987 -4.88249 -1.8238 0
M  V30 8015 C 763.315 -5.64895 -1.58463 0
M  V30 8016 C 765.667 -6.16867 -1.40205 0
M  V30 8017 C 764.331 -6.55172 -1.27694 0
M  V30 8018 H 763.601 -0.54796 -0.49882 0
M  V30 8019 H 766.248 -1.7892 -0.682643 0
M  V30 8020 H 764.553 -2.17105 -3.26148 0
M  V30 8021 H 766.25 -2.53176 -3.10971 0
M  V30 8022 H 762.84 -3.66176 -2.22739 0
M  V30 8023 H 767.024 -4.58561 -1.89829 0
M  V30 8024 H 762.28 -5.93365 -1.47402 0
M  V30 8025 H 766.454 -6.86771 -1.15408 0
M  V30 8026 H 764.081 -7.54411 -0.936375 0
M  V30 8027 N 765.656 0.84705 -1.32902 0
M  V30 8028 C 766.586 1.97166 -1.25091 0
M  V30 8029 C 767.567 1.69578 -0.133161 0
M  V30 8030 O 768.752 1.91519 -0.321591 0
M  V30 8031 C 765.882 3.33157 -0.981006 0
M  V30 8032 C 764.836 3.75119 -2.06082 0
M  V30 8033 C 764.162 5.08826 -1.64318 0
M  V30 8034 C 765.462 3.89774 -3.47669 0
M  V30 8035 H 767.156 2.03958 -2.19184 0
M  V30 8036 H 764.702 0.979907 -1.05517 0
M  V30 8037 H 766.655 4.11393 -0.912891 0
M  V30 8038 H 765.379 3.266 -0.00445559 0
M  V30 8039 H 764.038 2.9914 -2.11921 0
M  V30 8040 H 763.686 4.98732 -0.653876 0
M  V30 8041 H 763.386 5.37873 -2.36572 0
M  V30 8042 H 764.91 5.89546 -1.58958 0
M  V30 8043 H 766.324 4.58343 -3.44376 0
M  V30 8044 H 764.721 4.30248 -4.18338 0
M  V30 8045 H 765.791 2.92463 -3.86773 0
M  V30 8046 N 767.134 1.16236 1.06428 0
M  V30 8047 C 768.067 0.81119 2.13295 0
M  V30 8048 C 769.045 -0.216555 1.61151 0
M  V30 8049 O 770.229 -0.100949 1.88229 0
M  V30 8050 C 767.356 0.207901 3.38061 0
M  V30 8051 C 766.402 1.20904 4.09004 0
M  V30 8052 S 767.235 2.75513 4.59187 0
M  V30 8053 C 768.391 2.1663 5.87216 0
M  V30 8054 H 768.624 1.71632 2.42755 0
M  V30 8055 H 766.157 0.985693 1.18842 0
M  V30 8056 H 768.115 -0.133715 4.10282 0
M  V30 8057 H 766.776 -0.67497 3.06762 0
M  V30 8058 H 765.969 0.735326 4.98607 0
M  V30 8059 H 765.571 1.49567 3.42791 0
M  V30 8060 H 767.863 1.53413 6.59902 0
M  V30 8061 H 768.806 3.04437 6.39315 0
M  V30 8062 H 769.214 1.60565 5.41183 0
M  V30 8063 N 768.612 -1.24939 0.960631 0
M  V30 8064 C 769.562 -2.23388 0.456266 0
M  V30 8065 C 770.546 -1.54249 -0.45782 0
M  V30 8066 O 771.738 -1.7461 -0.289894 0
M  V30 8067 C 768.867 -3.42321 -0.259024 0
M  V30 8068 C 767.953 -4.18718 0.673478 0
M  V30 8069 N 768.344 -4.72394 1.8077 0
M  V30 8070 C 766.642 -4.43378 0.482859 0
M  V30 8071 C 767.343 -5.30316 2.3904 0
M  V30 8072 N 766.319 -5.17109 1.67629 0
M  V30 8073 H 770.121 -2.62499 1.32179 0
M  V30 8074 H 767.635 -1.40245 0.818851 0
M  V30 8075 H 769.632 -4.11997 -0.637527 0
M  V30 8076 H 768.292 -3.04732 -1.12108 0
M  V30 8077 H 769.303 -4.69345 2.18942 0
M  V30 8078 H 765.98 -4.16147 -0.335821 0
M  V30 8079 H 767.37 -5.82594 3.34715 0
M  V30 8080 N 770.09 -0.729906 -1.39679 0
M  V30 8081 C 771.315 -0.284345 -2.05442 0
M  V30 8082 C 771.74 1.07056 -1.54663 0
M  V30 8083 O 771.098 1.67732 -0.688157 0
M  V30 8084 C 771.146 -0.290089 -3.59431 0
M  V30 8085 O 770.25 0.723978 -4.05995 0
M  V30 8086 H 769.591 -0.130311 -0.651088 0
M  V30 8087 H 772.121 -0.994403 -1.78809 0
M  V30 8088 H 772.131 -0.132712 -4.07784 0
M  V30 8089 H 770.806 -1.27877 -3.95753 0
M  V30 8090 H 769.383 0.533154 -3.69069 0
M  V30 8091 N 771.568 1.50203 -0.477153 0
M  V30 8092 C 772.814 2.02658 0.0758507 0
M  V30 8093 C 773.147 1.358 1.38824 0
M  V30 8094 O 772.422 0.485696 1.88338 0
M  V30 8095 C 772.705 3.59208 0.253339 0
M  V30 8096 C 772.558 4.36629 -1.0805 0
M  V30 8097 C 773.877 4.28469 1.00509 0
M  V30 8098 H 770.996 0.736538 0.0260921 0
M  V30 8099 H 773.638 1.79464 -0.623925 0
M  V30 8100 H 771.788 3.79101 0.849378 0
M  V30 8101 H 773.46 4.28292 -1.71358 0
M  V30 8102 H 771.703 4.0013 -1.67566 0
M  V30 8103 H 772.374 5.44449 -0.909883 0
M  V30 8104 H 774.85 4.13087 0.499818 0
M  V30 8105 H 773.726 5.37804 1.09808 0
M  V30 8106 H 773.987 3.92057 2.04314 0
M  V30 8107 N 773.046 0.209999 1.56195 0
M  V30 8108 C 774.276 -0.429373 2.02089 0
M  V30 8109 C 774.684 -1.54703 1.0892 0
M  V30 8110 O 774.027 -1.83485 0.0889535 0
M  V30 8111 C 774.089 -1.03266 3.44349 0
M  V30 8112 C 773.753 -0.0518873 4.56971 0
M  V30 8113 C 774.75 0.744249 5.14545 0
M  V30 8114 C 772.435 0.0635185 5.0226 0
M  V30 8115 C 774.429 1.64261 6.15871 0
M  V30 8116 C 772.116 0.965423 6.03426 0
M  V30 8117 C 773.114 1.75352 6.60106 0
M  V30 8118 O 772.802 2.64029 7.59305 0
M  V30 8119 H 772.534 -0.110604 0.66689 0
M  V30 8120 H 775.088 0.320436 2.02885 0
M  V30 8121 H 773.318 -1.83134 3.40586 0
M  V30 8122 H 775.007 -1.57823 3.73961 0
M  V30 8123 H 775.773 0.665476 4.80413 0
M  V30 8124 H 771.652 -0.539762 4.57829 0
M  V30 8125 H 775.196 2.25819 6.60039 0
M  V30 8126 H 771.093 1.04526 6.36981 0
M  V30 8127 H 771.861 2.57974 7.76783 0
M  V30 8128 N 774.524 -1.57472 -0.0634922 0
M  V30 8129 C 775.456 -2.00999 -1.10145 0
M  V30 8130 C 776.469 -0.917219 -1.34503 0
M  V30 8131 O 777.658 -1.19501 -1.32596 0
M  V30 8132 C 774.758 -2.34089 -2.45063 0
M  V30 8133 C 773.931 -3.65317 -2.40546 0
M  V30 8134 C 772.99 -3.85982 -3.57637 0
M  V30 8135 O 772.016 -4.5747 -3.38689 0
M  V30 8136 N 773.218 -3.28971 -4.78287 0
M  V30 8137 H 775.983 -2.90656 -0.730714 0
M  V30 8138 H 773.544 -1.59926 -0.252017 0
M  V30 8139 H 775.536 -2.4508 -3.22053 0
M  V30 8140 H 774.106 -1.50279 -2.74107 0
M  V30 8141 H 773.326 -3.65003 -1.48885 0
M  V30 8142 H 774.614 -4.51468 -2.34636 0
M  V30 8143 H 774.012 -2.70962 -4.96584 0
M  V30 8144 H 772.569 -3.45398 -5.5276 0
M  V30 8145 N 776.003 0.335068 -1.53997 0
M  V30 8146 C 777.414 0.910191 -1.6301 0
M  V30 8147 C 777.765 1.89271 -0.516809 0
M  V30 8148 O 776.89 2.13516 0.352123 0
M  V30 8149 C 777.485 1.65761 -2.9548 0
M  V30 8150 C 776.044 2.18163 -3.06728 0
M  V30 8151 C 775.191 1.00338 -2.5851 0
M  V30 8152 H 778.142 0.112965 -1.58297 0
M  V30 8153 H 778.163 2.52107 -2.84995 0
M  V30 8154 H 777.675 0.94227 -3.76488 0
M  V30 8155 H 775.776 2.92847 -2.30372 0
M  V30 8156 H 775.889 2.43952 -4.1234 0
M  V30 8157 H 774.253 1.37925 -2.14124 0
M  V30 8158 H 775.036 0.30254 -3.41964 0
M  V30 8159 N 777.481 1.45874 0.596531 0
M  V30 8160 C 778.413 1.51408 1.7207 0
M  V30 8161 C 779.426 0.403738 1.57714 0
M  V30 8162 O 780.615 0.671384 1.65393 0
M  V30 8163 C 777.715 1.3652 3.10186 0
M  V30 8164 C 776.888 2.61428 3.50677 0
M  V30 8165 C 775.947 2.40937 4.67799 0
M  V30 8166 O 774.973 3.14602 4.74357 0
M  V30 8167 N 776.175 1.4621 5.61785 0
M  V30 8168 H 778.94 2.48333 1.67782 0
M  V30 8169 H 776.501 1.41755 0.782129 0
M  V30 8170 H 778.493 1.20606 3.86311 0
M  V30 8171 H 777.063 0.478302 3.08919 0
M  V30 8172 H 776.283 2.92381 2.644 0
M  V30 8173 H 777.571 3.44432 3.74491 0
M  V30 8174 H 776.969 0.854382 5.59211 0
M  V30 8175 H 775.526 1.36264 6.37397 0
M  V30 8176 N 778.959 -0.83999 1.33349 0
M  V30 8177 C 780.37 -1.41139 1.22216 0
M  V30 8178 C 780.721 -1.95551 -0.159398 0
M  V30 8179 O 779.846 -1.88721 -1.05893 0
M  V30 8180 C 780.441 -2.56564 2.21269 0
M  V30 8181 C 779 -3.09661 2.13979 0
M  V30 8182 C 778.147 -1.82457 2.08818 0
M  V30 8183 H 781.098 -0.645853 1.44964 0
M  V30 8184 H 781.119 -3.34163 1.81976 0
M  V30 8185 H 780.631 -2.16932 3.21811 0
M  V30 8186 H 778.732 -3.53841 1.16736 0
M  V30 8187 H 778.845 -3.6991 3.04472 0
M  V30 8188 H 777.209 -2.0266 1.54276 0
M  V30 8189 H 777.992 -1.45022 3.11165 0
M  V30 8190 N 780.437 -1.16799 -1.0581 0
M  V30 8191 C 781.662 -0.977402 -1.82925 0
M  V30 8192 C 782.087 0.469514 -1.82146 0
M  V30 8193 O 781.445 1.33576 -1.22585 0
M  V30 8194 C 781.493 -1.51543 -3.27211 0
M  V30 8195 O 780.597 -0.725021 -4.05977 0
M  V30 8196 H 779.938 -0.347474 -0.565825 0
M  V30 8197 H 782.468 -1.55151 -1.33376 0
M  V30 8198 H 782.478 -1.53502 -3.78023 0
M  V30 8199 H 781.153 -2.56872 -3.27093 0
M  V30 8200 H 779.73 -0.77634 -3.64729 0
M  V30 8201 N 781.915 1.24427 -0.967243 0
M  V30 8202 C 782.878 2.23637 -0.501927 0
M  V30 8203 C 783.878 1.55712 0.401283 0
M  V30 8204 O 785.068 1.73085 0.196808 0
M  V30 8205 C 782.2 3.39804 0.273176 0
M  V30 8206 H 783.393 2.66317 -1.37897 0
M  V30 8207 H 780.946 1.37033 -0.751783 0
M  V30 8208 H 781.681 3.02562 1.16733 0
M  V30 8209 H 781.466 3.90303 -0.37498 0
M  V30 8210 H 782.956 4.13443 0.587776 0
M  V30 8211 N 783.393 0.737304 1.3929 0
M  V30 8212 C 784.618 0.295237 2.05288 0
M  V30 8213 C 785.043 -1.06235 1.55228 0
M  V30 8214 O 784.401 -1.67365 0.697043 0
M  V30 8215 C 784.449 0.309146 3.59272 0
M  V30 8216 O 783.553 -0.702437 4.06374 0
M  V30 8217 H 782.894 0.133762 0.650387 0
M  V30 8218 H 785.424 1.00387 1.78279 0
M  V30 8219 H 785.434 0.154336 4.07708 0
M  V30 8220 H 784.109 1.29974 3.95069 0
M  V30 8221 H 782.686 -0.513574 3.69346 0
M  V30 8222 N 784.871 -1.49948 0.485112 0
M  V30 8223 C 785.803 -2.26691 -0.338222 0
M  V30 8224 C 786.816 -1.32584 -0.944742 0
M  V30 8225 O 788.005 -1.57989 -0.830772 0
M  V30 8226 C 785.105 -3.04405 -1.48966 0
M  V30 8227 C 784.278 -4.25971 -0.993371 0
M  V30 8228 C 783.337 -4.85861 -2.02052 0
M  V30 8229 O 782.363 -5.46382 -1.59547 0
M  V30 8230 N 783.565 -4.74101 -3.34975 0
M  V30 8231 H 786.33 -2.97989 0.319748 0
M  V30 8232 H 783.891 -1.58772 0.316714 0
M  V30 8233 H 785.883 -3.41348 -2.17403 0
M  V30 8234 H 784.453 -2.35815 -2.05207 0
M  V30 8235 H 783.673 -3.93971 -0.134424 0
M  V30 8236 H 784.961 -5.0476 -0.639934 0
M  V30 8237 H 784.359 -4.26002 -3.72208 0
M  V30 8238 H 782.916 -5.15274 -3.9917 0
M  V30 8239 N 786.349 -0.21828 -1.56081 0
M  V30 8240 C 787.579 0.41865 -2.02314 0
M  V30 8241 C 787.987 1.54124 -1.09739 0
M  V30 8242 O 787.33 1.83435 -0.0986829 0
M  V30 8243 C 787.392 1.01439 -3.44892 0
M  V30 8244 C 787.056 0.0276523 -4.56992 0
M  V30 8245 C 788.053 -0.771526 -5.14143 0
M  V30 8246 C 785.738 -0.0901537 -5.02219 0
M  V30 8247 C 787.732 -1.67525 -6.14991 0
M  V30 8248 C 785.419 -0.997411 -6.02905 0
M  V30 8249 C 786.417 -1.78851 -6.59167 0
M  V30 8250 O 786.105 -2.68052 -7.57894 0
M  V30 8251 H 785.837 0.107066 -0.667468 0
M  V30 8252 H 788.391 -0.331191 -2.02712 0
M  V30 8253 H 786.621 1.81326 -3.41552 0
M  V30 8254 H 788.31 1.55838 -3.74792 0
M  V30 8255 H 789.076 -0.690945 -4.80053 0
M  V30 8256 H 784.955 0.515474 -4.58109 0
M  V30 8257 H 788.499 -2.29316 -6.58832 0
M  V30 8258 H 784.396 -1.07902 -6.36418 0
M  V30 8259 H 785.164 -2.6209 -7.75404 0
M  V30 8260 N 787.827 1.57504 0.0551401 0
M  V30 8261 C 789.238 1.76626 0.604979 0
M  V30 8262 C 789.589 0.845978 1.77024 0
M  V30 8263 O 788.714 0.0341936 2.16373 0
M  V30 8264 C 789.309 3.203 1.10425 0
M  V30 8265 C 787.868 3.4071 1.59981 0
M  V30 8266 C 787.015 2.72258 0.526414 0
M  V30 8267 H 789.966 1.57775 -0.171072 0
M  V30 8268 H 789.987 3.25377 1.97256 0
M  V30 8269 H 789.499 3.87255 0.255939 0
M  V30 8270 H 787.6 2.78892 2.47083 0
M  V30 8271 H 787.713 4.49227 1.66528 0
M  V30 8272 H 786.077 2.35283 0.97539 0
M  V30 8273 H 786.86 3.41879 -0.311991 0
M  V30 8274 N 789.305 -0.326896 1.54172 0
M  V30 8275 C 790.533 -1.08486 1.76177 0
M  V30 8276 C 790.948 -1.81815 0.508788 0
M  V30 8277 O 790.305 -1.74924 -0.520362 0
M  V30 8278 C 790.356 -2.08552 2.95276 0
M  V30 8279 O 790.077 -1.38202 4.15731 0
M  V30 8280 C 791.578 -2.96593 3.29466 0
M  V30 8281 H 788.798 -0.322835 0.588233 0
M  V30 8282 H 791.342 -0.374036 2.0105 0
M  V30 8283 H 789.497 -2.75174 2.72687 0
M  V30 8284 H 789.911 -2.05186 4.827 0
M  V30 8285 H 791.385 -3.62708 4.16109 0
M  V30 8286 H 791.862 -3.63511 2.46487 0
M  V30 8287 H 792.468 -2.35537 3.54122 0
M  V30 8288 N 790.784 -1.46188 -0.588786 0
M  V30 8289 C 791.717 -1.508 -1.71274 0
M  V30 8290 C 792.695 -0.362635 -1.58505 0
M  V30 8291 O 793.879 -0.565899 -1.79805 0
M  V30 8292 C 791.006 -1.38082 -3.09275 0
M  V30 8293 C 790.052 -2.56723 -3.40581 0
M  V30 8294 S 790.885 -4.1911 -3.33327 0
M  V30 8295 C 792.041 -4.08891 -4.73877 0
M  V30 8296 H 792.274 -2.45895 -1.67102 0
M  V30 8297 H 789.807 -1.34 -0.767025 0
M  V30 8298 H 791.765 -1.31432 -3.88891 0
M  V30 8299 H 790.426 -0.444259 -3.10942 0
M  V30 8300 H 789.619 -2.43801 -4.41109 0
M  V30 8301 H 789.221 -2.60332 -2.68521 0
M  V30 8302 H 791.513 -3.75196 -5.64123 0
M  V30 8303 H 792.456 -5.09395 -4.91856 0
M  V30 8304 H 792.864 -3.40239 -4.50441 0
M  V30 8305 N 792.262 0.832906 -1.33792 0
M  V30 8306 C 793.195 1.94788 -1.18882 0
M  V30 8307 C 794.173 1.62389 -0.0828426 0
M  V30 8308 O 795.357 1.86886 -0.246175 0
M  V30 8309 C 792.484 3.28506 -0.824728 0
M  V30 8310 C 791.53 3.79872 -1.93905 0
M  V30 8311 S 792.363 4.00832 -3.55097 0
M  V30 8312 C 793.519 5.37492 -3.20708 0
M  V30 8313 H 793.752 2.07137 -2.13264 0
M  V30 8314 H 791.285 0.987362 -1.18704 0
M  V30 8315 H 793.243 4.05769 -0.621442 0
M  V30 8316 H 791.904 3.13939 0.100587 0
M  V30 8317 H 791.097 4.76647 -1.6378 0
M  V30 8318 H 790.699 3.09524 -2.09931 0
M  V30 8319 H 792.991 6.20544 -2.71903 0
M  V30 8320 H 793.934 5.72593 -4.16584 0
M  V30 8321 H 794.342 5.02529 -2.57148 0
M  V30 8322 N 793.74 1.17359 1.05189 0
M  V30 8323 C 795.151 0.96793 1.5965 0
M  V30 8324 C 795.502 -0.485355 1.90102 0
M  V30 8325 O 794.627 -1.36066 1.6827 0
M  V30 8326 C 795.222 1.75068 2.90063 0
M  V30 8327 C 793.781 1.58969 3.41183 0
M  V30 8328 C 792.928 1.75231 2.14917 0
M  V30 8329 H 795.879 1.32067 0.880001 0
M  V30 8330 H 795.9 1.23308 3.59966 0
M  V30 8331 H 795.412 2.80835 2.67868 0
M  V30 8332 H 793.513 0.556906 3.68415 0
M  V30 8333 H 793.626 2.38067 4.15766 0
M  V30 8334 H 791.99 1.18073 2.25679 0
M  V30 8335 H 792.773 2.8241 1.95191 0
M  V30 8336 N 795.218 -1.23913 0.973828 0
M  V30 8337 C 796.15 -2.24397 0.466763 0
M  V30 8338 C 797.163 -1.57078 -0.427828 0
M  V30 8339 O 798.352 -1.76973 -0.233019 0
M  V30 8340 C 795.452 -3.37141 -0.344798 0
M  V30 8341 C 794.625 -4.34037 0.541349 0
M  V30 8342 C 793.684 -5.2576 -0.215243 0
M  V30 8343 O 792.71 -5.67842 0.39291 0
M  V30 8344 N 793.912 -5.60702 -1.5031 0
M  V30 8345 H 796.677 -2.68536 1.33074 0
M  V30 8346 H 794.238 -1.38017 0.846346 0
M  V30 8347 H 796.23 -3.95476 -0.859133 0
M  V30 8348 H 794.8 -2.92239 -1.10974 0
M  V30 8349 H 794.02 -3.74302 1.23659 0
M  V30 8350 H 795.308 -4.95738 1.1455 0
M  V30 8351 H 794.706 -5.28451 -2.01882 0
M  V30 8352 H 793.263 -6.21538 -1.96301 0
M  V30 8353 N 796.696 -0.74468 -1.38897 0
M  V30 8354 C 797.926 -0.306982 -2.04307 0
M  V30 8355 C 798.334 1.06652 -1.56275 0
M  V30 8356 O 797.677 1.68699 -0.72708 0
M  V30 8357 C 797.739 -0.241186 -3.5869 0
M  V30 8358 C 797.403 -1.55476 -4.2974 0
M  V30 8359 C 798.4 -2.50229 -4.55721 0
M  V30 8360 C 796.085 -1.82173 -4.68101 0
M  V30 8361 C 798.079 -3.69905 -5.19085 0
M  V30 8362 C 795.766 -3.02125 -5.31191 0
M  V30 8363 C 796.764 -3.95812 -5.56616 0
M  V30 8364 O 796.452 -5.13656 -6.18395 0
M  V30 8365 H 796.184 -0.130416 -0.663301 0
M  V30 8366 H 798.738 -1.01192 -1.78744 0
M  V30 8367 H 796.968 0.519925 -3.83189 0
M  V30 8368 H 798.657 0.165806 -4.05561 0
M  V30 8369 H 799.423 -2.30877 -4.26522 0
M  V30 8370 H 795.302 -1.10091 -4.47662 0
M  V30 8371 H 798.846 -4.43047 -5.38846 0
M  V30 8372 H 794.743 -3.21374 -5.59811 0
M  V30 8373 H 795.511 -5.14119 -6.36886 0
M  V30 8374 N 798.174 1.49689 -0.493057 0
M  V30 8375 C 799.106 2.26867 0.326195 0
M  V30 8376 C 800.119 1.33083 0.937697 0
M  V30 8377 O 801.308 1.58427 0.822382 0
M  V30 8378 C 798.408 3.0519 1.4735 0
M  V30 8379 C 797.581 4.26491 0.970767 0
M  V30 8380 C 796.64 4.86926 1.99473 0
M  V30 8381 O 795.666 5.47221 1.56647 0
M  V30 8382 N 796.868 4.75871 3.32456 0
M  V30 8383 H 799.633 2.97816 -0.335547 0
M  V30 8384 H 797.194 1.58602 -0.325129 0
M  V30 8385 H 799.186 3.42496 2.15589 0
M  V30 8386 H 797.756 2.369 2.03954 0
M  V30 8387 H 796.976 3.94036 0.113529 0
M  V30 8388 H 798.264 5.05092 0.613156 0
M  V30 8389 H 797.662 4.2797 3.69944 0
M  V30 8390 H 796.219 5.17383 3.96431 0
M  V30 8391 N 799.652 0.226554 1.55963 0
M  V30 8392 C 800.584 -0.713907 2.17798 0
M  V30 8393 C 801.597 -1.15387 1.14846 0
M  V30 8394 O 802.786 -1.08416 1.41804 0
M  V30 8395 C 799.886 -1.97945 2.75084 0
M  V30 8396 C 799.059 -1.69424 4.03255 0
M  V30 8397 C 798.118 -2.80734 4.45056 0
M  V30 8398 O 797.144 -2.4899 5.11852 0
M  V30 8399 N 798.346 -4.09797 4.11152 0
M  V30 8400 H 801.111 -0.18494 2.99129 0
M  V30 8401 H 798.672 0.0457346 1.61835 0
M  V30 8402 H 800.664 -2.71611 3.00016 0
M  V30 8403 H 799.234 -2.41876 1.98027 0
M  V30 8404 H 798.454 -0.793767 3.86126 0
M  V30 8405 H 799.742 -1.47806 4.86858 0
M  V30 8406 H 799.14 -4.38429 3.57486 0
M  V30 8407 H 797.697 -4.79992 4.40966 0
M  V30 8408 N 801.13 -1.57531 -0.0467866 0
M  V30 8409 C 802.093 -2.04379 -1.03738 0
M  V30 8410 C 803.093 -0.944881 -1.3011 0
M  V30 8411 O 804.283 -1.20904 -1.25411 0
M  V30 8412 C 801.415 -2.44572 -2.37482 0
M  V30 8413 H 802.608 -2.93142 -0.633063 0
M  V30 8414 H 800.161 -1.53526 -0.293177 0
M  V30 8415 H 800.896 -1.58911 -2.82697 0
M  V30 8416 H 800.681 -3.24785 -2.19675 0
M  V30 8417 H 802.171 -2.81307 -3.08636 0
M  V30 8418 N 802.608 0.318715 -1.54344 0
M  V30 8419 C 803.855 1.05608 -1.72781 0
M  V30 8420 C 804.183 1.87854 -0.504083 0
M  V30 8421 O 803.438 1.88826 0.51414 0
M  V30 8422 C 803.737 2.00514 -2.95853 0
M  V30 8423 C 803.403 1.34385 -4.30409 0
M  V30 8424 C 802.065 1.16081 -4.66989 0
M  V30 8425 C 804.417 0.869627 -5.13894 0
M  V30 8426 C 801.745 0.490114 -5.84649 0
M  V30 8427 C 804.097 0.212735 -6.32242 0
M  V30 8428 C 802.761 0.0175882 -6.67498 0
M  V30 8429 H 802.031 0.386449 -0.632249 0
M  V30 8430 H 804.678 0.332729 -1.88587 0
M  V30 8431 H 802.983 2.79317 -2.74753 0
M  V30 8432 H 804.68 2.57605 -3.07312 0
M  V30 8433 H 801.27 1.49634 -4.01631 0
M  V30 8434 H 805.454 0.998809 -4.86146 0
M  V30 8435 H 800.71 0.327767 -6.10521 0
M  V30 8436 H 804.884 -0.162699 -6.9621 0
M  V30 8437 H 802.511 -0.504137 -7.58527 0
M  V30 8438 N 804.086 1.46499 0.581025 0
M  V30 8439 C 805.333 1.51896 1.33918 0
M  V30 8440 C 805.661 0.171361 1.93744 0
M  V30 8441 O 804.916 -0.833178 1.77078 0
M  V30 8442 C 805.215 2.56686 2.48691 0
M  V30 8443 C 804.881 4.00656 2.06847 0
M  V30 8444 C 803.543 4.39852 1.9515 0
M  V30 8445 C 805.895 4.91089 1.74589 0
M  V30 8446 C 803.223 5.67345 1.49456 0
M  V30 8447 C 805.575 6.1902 1.30373 0
M  V30 8448 C 804.239 6.57121 1.17255 0
M  V30 8449 H 803.509 0.555826 0.490039 0
M  V30 8450 H 806.156 1.79983 0.654092 0
M  V30 8451 H 804.461 2.22266 3.22653 0
M  V30 8452 H 806.158 2.58091 3.06904 0
M  V30 8453 H 802.748 3.69674 2.16886 0
M  V30 8454 H 806.932 4.61523 1.8251 0
M  V30 8455 H 802.188 5.95635 1.37944 0
M  V30 8456 H 806.362 6.8852 1.04467 0
M  V30 8457 H 803.989 7.55805 0.816236 0
M  V30 8458 N 805.565 -0.825799 1.34232 0
M  V30 8459 C 806.497 -1.94401 1.21413 0
M  V30 8460 C 807.51 -1.6218 0.141902 0
M  V30 8461 O 808.699 -1.74109 0.3935 0
M  V30 8462 C 805.799 -3.28257 0.842635 0
M  V30 8463 C 804.972 -3.88521 2.00924 0
M  V30 8464 C 804.031 -5.00752 1.61661 0
M  V30 8465 O 803.057 -5.19201 2.33279 0
M  V30 8466 N 804.259 -5.78084 0.52911 0
M  V30 8467 H 807.024 -2.05931 2.17744 0
M  V30 8468 H 804.585 -1.00223 1.27149 0
M  V30 8469 H 806.577 -4.00781 0.561822 0
M  V30 8470 H 805.147 -3.12585 -0.0304029 0
M  V30 8471 H 804.367 -3.08425 2.45495 0
M  V30 8472 H 805.655 -4.25516 2.78951 0
M  V30 8473 H 805.053 -5.65661 -0.0663322 0
M  V30 8474 H 803.61 -6.51072 0.308017 0
M  V30 8475 N 807.043 -1.17915 -1.04565 0
M  V30 8476 C 807.975 -0.859359 -2.1248 0
M  V30 8477 C 808.988 0.140922 -1.62189 0
M  V30 8478 O 810.177 -0.0862361 -1.78292 0
M  V30 8479 C 807.277 -0.261811 -3.37887 0
M  V30 8480 C 806.45 -1.30651 -4.17431 0
M  V30 8481 C 805.509 -0.725575 -5.21174 0
M  V30 8482 O 804.535 -1.39901 -5.51739 0
M  V30 8483 N 805.737 0.479351 -5.78517 0
M  V30 8484 H 808.502 -1.78818 -2.40508 0
M  V30 8485 H 806.063 -1.07885 -1.20716 0
M  V30 8486 H 808.055 0.14028 -4.04457 0
M  V30 8487 H 806.625 0.570929 -3.07342 0
M  V30 8488 H 805.845 -1.88412 -3.46258 0
M  V30 8489 H 807.133 -2.01099 -4.67372 0
M  V30 8490 H 806.531 1.04431 -5.55977 0
M  V30 8491 H 805.088 0.823427 -6.46578 0
M  V30 8492 N 808.521 1.23394 -0.980386 0
M  V30 8493 C 809.453 2.24146 -0.478657 0
M  V30 8494 C 810.466 1.57303 0.419492 0
M  V30 8495 O 811.655 1.77094 0.223631 0
M  V30 8496 C 808.755 3.3732 0.326913 0
M  V30 8497 C 807.928 4.33744 -0.56436 0
M  V30 8498 C 806.987 5.25866 0.187358 0
M  V30 8499 O 806.013 5.67626 -0.423019 0
M  V30 8500 N 807.215 5.61492 1.47335 0
M  V30 8501 H 809.98 2.67826 -1.34496 0
M  V30 8502 H 807.541 1.37566 -0.853653 0
M  V30 8503 H 809.533 3.95926 0.838148 0
M  V30 8504 H 808.103 2.92823 1.09422 0
M  V30 8505 H 807.323 3.73641 -1.25642 0
M  V30 8506 H 808.611 4.95123 -1.17177 0
M  V30 8507 H 808.009 5.29514 1.99077 0
M  V30 8508 H 806.566 6.2257 1.93002 0
M  V30 8509 N 809.999 0.752036 1.385 0
M  V30 8510 C 810.932 0.0717411 2.28087 0
M  V30 8511 C 811.91 -0.729945 1.45295 0
M  V30 8512 O 813.094 -0.708902 1.74662 0
M  V30 8513 C 810.221 -0.905237 3.26379 0
M  V30 8514 C 809.267 -0.189973 4.26077 0
M  V30 8515 S 810.1 1.10815 5.23909 0
M  V30 8516 C 811.256 0.134202 6.25756 0
M  V30 8517 H 811.489 0.831438 2.85437 0
M  V30 8518 H 809.022 0.544552 1.44478 0
M  V30 8519 H 810.98 -1.46358 3.83523 0
M  V30 8520 H 809.641 -1.63789 2.68015 0
M  V30 8521 H 808.834 -0.92985 4.95348 0
M  V30 8522 H 808.436 0.296804 3.7282 0
M  V30 8523 H 810.728 -0.700345 6.7387 0
M  V30 8524 H 811.671 0.794532 7.03628 0
M  V30 8525 H 812.079 -0.245801 5.63965 0
M  V30 8526 N 811.477 -1.49425 0.500989 0
M  V30 8527 C 812.407 -2.31971 -0.266775 0
M  V30 8528 C 813.388 -1.40245 -0.962563 0
M  V30 8529 O 814.573 -1.69154 -0.953968 0
M  V30 8530 C 811.703 -3.20757 -1.33163 0
M  V30 8531 C 810.657 -4.21275 -0.75572 0
M  V30 8532 C 809.983 -4.98997 -1.92109 0
M  V30 8533 C 811.283 -5.21686 0.253213 0
M  V30 8534 H 812.977 -2.96408 0.422237 0
M  V30 8535 H 810.523 -1.4254 0.204505 0
M  V30 8536 H 812.476 -3.77315 -1.87646 0
M  V30 8537 H 811.2 -2.54263 -2.04983 0
M  V30 8538 H 809.859 -3.65861 -0.232637 0
M  V30 8539 H 809.507 -4.28951 -2.62698 0
M  V30 8540 H 809.207 -5.67011 -1.54182 0
M  V30 8541 H 810.731 -5.584 -2.47026 0
M  V30 8542 H 812.145 -5.72939 -0.203483 0
M  V30 8543 H 810.542 -5.9759 0.548322 0
M  V30 8544 H 811.612 -4.70596 1.16909 0
M  V30 8545 N 812.955 -0.234822 -1.55841 0
M  V30 8546 C 813.918 0.656378 -2.196 0
M  V30 8547 C 814.918 1.11179 -1.16171 0
M  V30 8548 O 816.108 1.01845 -1.41326 0
M  V30 8549 C 813.24 1.90072 -2.82993 0
M  V30 8550 H 814.433 0.100281 -2.99732 0
M  V30 8551 H 811.986 0.0147613 -1.56293 0
M  V30 8552 H 812.721 2.49836 -2.06767 0
M  V30 8553 H 812.506 1.5825 -3.58747 0
M  V30 8554 H 813.996 2.53538 -3.31826 0
M  V30 8555 N 814.433 1.57553 0.0384317 0
M  V30 8556 C 815.365 2.02726 1.06934 0
M  V30 8557 C 816.378 0.938502 1.33026 0
M  V30 8558 O 817.567 1.21595 1.30678 0
M  V30 8559 C 814.667 2.37958 2.41308 0
M  V30 8560 C 813.84 3.69098 2.34703 0
M  V30 8561 C 812.899 3.91623 3.51451 0
M  V30 8562 O 811.925 4.628 3.31368 0
M  V30 8563 N 813.127 3.36538 4.72993 0
M  V30 8564 H 815.892 2.91781 0.684381 0
M  V30 8565 H 813.453 1.60307 0.226542 0
M  V30 8566 H 815.445 2.50172 3.18113 0
M  V30 8567 H 814.015 1.54621 2.71682 0
M  V30 8568 H 813.235 3.67325 1.43059 0
M  V30 8569 H 814.523 4.55144 2.27424 0
M  V30 8570 H 813.921 2.78828 4.92211 0
M  V30 8571 H 812.478 3.54148 5.47195 0
M  V30 8572 N 815.911 -0.310526 1.54511 0
M  V30 8573 C 816.861 -1.38405 1.81185 0
M  V30 8574 C 817.845 -1.46355 0.668499 0
M  V30 8575 O 819.037 -1.50668 0.928873 0
M  V30 8576 C 816.166 -2.75059 2.0542 0
M  V30 8577 C 815.252 -2.7137 3.25913 0
M  V30 8578 N 815.643 -2.37298 4.4668 0
M  V30 8579 C 813.941 -3.02484 3.27749 0
M  V30 8580 C 814.642 -2.42669 5.28665 0
M  V30 8581 N 813.618 -2.79639 4.66158 0
M  V30 8582 H 817.42 -1.11012 2.72128 0
M  V30 8583 H 814.934 -0.519068 1.53881 0
M  V30 8584 H 816.931 -3.52451 2.22674 0
M  V30 8585 H 815.591 -3.03372 1.15739 0
M  V30 8586 H 816.602 -2.09917 4.73451 0
M  V30 8587 H 813.279 -3.35754 2.48144 0
M  V30 8588 H 814.669 -2.19206 6.35136 0
M  V30 8589 N 817.389 -1.46805 -0.573248 0
M  V30 8590 C 818.321 -1.54127 -1.6964 0
M  V30 8591 C 819.334 -0.428778 -1.57052 0
M  V30 8592 O 820.523 -0.697612 -1.64303 0
M  V30 8593 C 817.623 -1.41438 -3.07975 0
M  V30 8594 C 816.796 -2.66974 -3.46474 0
M  V30 8595 C 815.855 -2.48349 -4.63906 0
M  V30 8596 O 814.881 -3.22109 -4.69292 0
M  V30 8597 N 816.083 -1.55129 -5.59388 0
M  V30 8598 H 818.848 -2.50971 -1.6381 0
M  V30 8599 H 816.409 -1.42981 -0.759479 0
M  V30 8600 H 818.401 -1.26737 -3.84343 0
M  V30 8601 H 816.971 -0.527388 -3.08119 0
M  V30 8602 H 816.191 -2.9655 -2.59715 0
M  V30 8603 H 817.479 -3.50347 -3.68964 0
M  V30 8604 H 816.877 -0.94324 -5.57781 0
M  V30 8605 H 815.434 -1.46387 -6.35149 0
M  V30 8606 N 818.867 0.818669 -1.34668 0
M  V30 8607 C 820.278 1.39177 -1.24446 0
M  V30 8608 C 820.629 1.9578 0.128268 0
M  V30 8609 O 819.754 1.90382 1.02877 0
M  V30 8610 C 820.349 2.53012 -2.25323 0
M  V30 8611 C 818.908 3.06218 -2.18878 0
M  V30 8612 C 818.055 1.79112 -2.11694 0
M  V30 8613 H 821.006 0.622709 -1.45973 0
M  V30 8614 H 821.027 3.31226 -1.8727 0
M  V30 8615 H 820.539 2.11784 -3.25221 0
M  V30 8616 H 818.64 3.51939 -1.22351 0
M  V30 8617 H 818.753 3.65019 -3.10319 0
M  V30 8618 H 817.117 2.0018 -1.57481 0
M  V30 8619 H 817.9 1.40053 -3.13433 0
M  V30 8620 N 820.346 1.18468 1.03938 0
M  V30 8621 C 821.571 1.00638 1.81347 0
M  V30 8622 C 821.996 -0.440477 1.8287 0
M  V30 8623 O 821.354 -1.31609 1.24695 0
M  V30 8624 C 821.402 1.5673 3.24759 0
M  V30 8625 O 820.506 0.789517 4.04772 0
M  V30 8626 H 819.847 0.356432 0.560225 0
M  V30 8627 H 822.377 1.57253 1.30891 0
M  V30 8628 H 822.387 1.59496 3.75533 0
M  V30 8629 H 821.062 2.62043 3.22965 0
M  V30 8630 H 819.639 0.834267 3.63448 0
M  V30 8631 N 821.824 -1.22873 0.986916 0
M  V30 8632 C 822.756 -2.23889 0.490537 0
M  V30 8633 C 823.769 -1.57523 -0.411144 0
M  V30 8634 O 824.958 -1.7721 -0.214236 0
M  V30 8635 C 822.058 -3.37488 -0.30902 0
M  V30 8636 C 821.231 -4.33438 0.587354 0
M  V30 8637 C 820.29 -5.25958 -0.159467 0
M  V30 8638 O 819.316 -5.67394 0.453115 0
M  V30 8639 N 820.518 -5.62265 -1.44355 0
M  V30 8640 H 823.283 -2.67109 1.35914 0
M  V30 8641 H 820.844 -1.37111 0.860937 0
M  V30 8642 H 822.836 -3.96365 -0.817139 0
M  V30 8643 H 821.406 -2.934 -1.07868 0
M  V30 8644 H 820.626 -3.72969 1.27622 0
M  V30 8645 H 821.914 -4.94495 1.19801 0
M  V30 8646 H 821.312 -5.30562 -1.96266 0
M  V30 8647 H 819.869 -6.23585 -1.89698 0
M  V30 8648 N 823.302 -0.75937 -1.38099 0
M  V30 8649 C 824.234 -0.0956547 -2.29 0
M  V30 8650 C 825.247 0.677561 -1.4803 0
M  V30 8651 O 826.436 0.517696 -1.70828 0
M  V30 8652 C 823.536 0.88844 -3.27047 0
M  V30 8653 C 822.709 0.171652 -4.37063 0
M  V30 8654 C 821.768 1.06733 -5.15262 0
M  V30 8655 O 820.794 0.535698 -5.66674 0
M  V30 8656 N 821.996 2.39486 -5.28797 0
M  V30 8657 H 824.761 -0.876354 -2.86601 0
M  V30 8658 H 822.322 -0.61065 -1.49942 0
M  V30 8659 H 824.314 1.49079 -3.76241 0
M  V30 8660 H 822.884 1.57018 -2.70304 0
M  V30 8661 H 822.104 -0.611473 -3.89429 0
M  V30 8662 H 823.392 -0.324121 -5.07767 0
M  V30 8663 H 822.79 2.85127 -4.88589 0
M  V30 8664 H 821.347 2.94758 -5.81344 0
M  V30 8665 N 824.78 1.49157 -0.508906 0
M  V30 8666 C 825.712 2.272 0.302115 0
M  V30 8667 C 826.725 1.3407 0.923529 0
M  V30 8668 O 827.914 1.5929 0.805532 0
M  V30 8669 C 825.014 3.06736 1.44105 0
M  V30 8670 C 824.187 4.27497 0.925477 0
M  V30 8671 C 823.246 4.89014 1.94297 0
M  V30 8672 O 822.272 5.48851 1.50834 0
M  V30 8673 N 823.474 4.7937 3.2739 0
M  V30 8674 H 826.239 2.97443 -0.367115 0
M  V30 8675 H 823.8 1.58248 -0.341933 0
M  V30 8676 H 825.792 3.44763 2.11944 0
M  V30 8677 H 824.362 2.3905 2.0143 0
M  V30 8678 H 823.582 3.94135 0.0717301 0
M  V30 8679 H 824.87 5.05714 0.55955 0
M  V30 8680 H 824.268 4.31869 3.65384 0
M  V30 8681 H 822.825 5.21559 3.90922 0
M  V30 8682 N 826.258 0.243083 1.55714 0
M  V30 8683 C 827.221 -0.644723 2.19945 0
M  V30 8684 C 828.221 -1.10562 1.16759 0
M  V30 8685 O 829.411 -1.01095 1.41865 0
M  V30 8686 C 826.543 -1.88569 2.83997 0
M  V30 8687 H 827.736 -0.0843839 2.99781 0
M  V30 8688 H 825.289 -0.00647246 1.56299 0
M  V30 8689 H 826.024 -2.48736 2.08089 0
M  V30 8690 H 825.809 -1.56345 3.59581 0
M  V30 8691 H 827.299 -2.51774 3.33166 0
M  V30 8692 N 827.736 -1.57571 -0.0300757 0
M  V30 8693 C 828.961 -1.93879 -0.736601 0
M  V30 8694 C 829.386 -0.842998 -1.68152 0
M  V30 8695 O 828.744 0.20135 -1.80178 0
M  V30 8696 C 828.792 -3.29247 -1.47066 0
M  V30 8697 O 827.896 -3.21426 -2.58378 0
M  V30 8698 H 827.237 -0.633735 -0.198181 0
M  V30 8699 H 829.767 -2.04595 0.0141485 0
M  V30 8700 H 829.777 -3.64113 -1.84081 0
M  V30 8701 H 828.452 -4.08565 -0.77764 0
M  V30 8702 H 827.029 -2.98189 -2.23914 0
M  V30 8703 N 829.214 0.302327 -1.54673 0
M  V30 8704 C 830.625 0.875409 -1.64904 0
M  V30 8705 C 830.976 1.88132 -0.55684 0
M  V30 8706 O 830.101 2.14215 0.306754 0
M  V30 8707 C 830.696 1.59457 -2.9893 0
M  V30 8708 C 829.255 2.11607 -3.11287 0
M  V30 8709 C 828.402 0.948324 -2.6058 0
M  V30 8710 H 831.353 0.079362 -1.58501 0
M  V30 8711 H 831.374 2.46005 -2.90279 0
M  V30 8712 H 830.886 0.8622 -3.78402 0
M  V30 8713 H 828.987 2.87895 -2.36532 0
M  V30 8714 H 829.1 2.35151 -4.17422 0
M  V30 8715 H 827.464 1.33352 -2.17001 0
M  V30 8716 H 828.247 0.229936 -3.42529 0
M  V30 8717 N 830.692 1.47107 0.565454 0
M  V30 8718 C 831.602 1.61591 1.70075 0
M  V30 8719 C 832.618 0.498931 1.66693 0
M  V30 8720 O 833.794 0.765372 1.8629 0
M  V30 8721 C 830.859 1.61887 3.06583 0
M  V30 8722 C 829.92 2.84949 3.21096 0
M  V30 8723 C 829.153 2.85221 4.51093 0
M  V30 8724 O 829.376 1.94959 5.36048 0
M  V30 8725 O 828.31 3.76982 4.69221 0
M  V30 8726 H 832.136 2.57638 1.60799 0
M  V30 8727 H 829.721 1.30097 0.73451 0
M  V30 8728 H 831.603 1.64809 3.87835 0
M  V30 8729 H 830.278 0.69005 3.16259 0
M  V30 8730 H 829.185 2.87575 2.39273 0
M  V30 8731 H 830.518 3.77098 3.1632 0
M  V30 8732 N 832.17 -0.811516 1.35101 0
M  V30 8733 C 833.4 -1.59749 1.31011 0
M  V30 8734 C 833.808 -1.88847 -0.115566 0
M  V30 8735 O 833.151 -1.48854 -1.07649 0
M  V30 8736 C 833.213 -2.95714 2.04435 0
M  V30 8737 C 832.877 -2.89456 3.53645 0
M  V30 8738 C 833.874 -2.63237 4.48333 0
M  V30 8739 C 831.559 -3.08728 3.96222 0
M  V30 8740 C 833.553 -2.56361 5.83573 0
M  V30 8741 C 831.24 -3.01475 5.3156 0
M  V30 8742 C 832.238 -2.75326 6.25048 0
M  V30 8743 O 831.926 -2.68026 7.57903 0
M  V30 8744 H 831.658 -0.502889 0.45175 0
M  V30 8745 H 834.212 -1.01687 1.78462 0
M  V30 8746 H 832.442 -3.55739 1.51613 0
M  V30 8747 H 834.131 -3.56816 1.93487 0
M  V30 8748 H 834.897 -2.48072 4.16756 0
M  V30 8749 H 830.776 -3.28094 3.23845 0
M  V30 8750 H 834.32 -2.35871 6.56514 0
M  V30 8751 H 830.217 -3.16197 5.62752 0
M  V30 8752 H 830.985 -2.8367 7.67772 0
M  V30 8753 N 833.648 -1.19017 -1.03309 0
M  V30 8754 C 834.578 -0.94772 -2.13402 0
M  V30 8755 C 835.559 0.117383 -1.69694 0
M  V30 8756 O 836.744 -0.0367733 -1.94165 0
M  V30 8757 C 833.874 -0.480977 -3.43953 0
M  V30 8758 C 832.828 -1.48743 -4.01322 0
M  V30 8759 C 832.154 -0.877924 -5.27443 0
M  V30 8760 C 833.454 -2.86642 -4.36616 0
M  V30 8761 H 835.148 -1.86846 -2.33942 0
M  V30 8762 H 832.694 -0.899781 -1.12427 0
M  V30 8763 H 834.647 -0.298677 -4.2034 0
M  V30 8764 H 833.371 0.475348 -3.23122 0
M  V30 8765 H 832.03 -1.65681 -3.27025 0
M  V30 8766 H 831.678 0.0858232 -5.02927 0
M  V30 8767 H 831.378 -1.54996 -5.66789 0
M  V30 8768 H 832.902 -0.706326 -6.06501 0
M  V30 8769 H 834.316 -2.73312 -5.03958 0
M  V30 8770 H 832.713 -3.50599 -4.87032 0
M  V30 8771 H 833.783 -3.39617 -3.46105 0
M  V30 8772 N 835.127 1.22348 -0.993418 0
M  V30 8773 C 836.355 1.95125 -0.688021 0
M  V30 8774 C 836.77 1.73377 0.747388 0
M  V30 8775 O 836.127 1.03317 1.50439 0
M  V30 8776 C 836.178 3.47819 -0.985097 0
M  V30 8777 O 835.899 3.68838 -2.3641 0
M  V30 8778 C 837.4 4.37779 -0.697474 0
M  V30 8779 H 834.62 0.62087 -0.254481 0
M  V30 8780 H 837.164 1.55485 -1.32833 0
M  V30 8781 H 835.319 3.85426 -0.390583 0
M  V30 8782 H 835.733 4.63032 -2.46377 0
M  V30 8783 H 837.207 5.43666 -0.955604 0
M  V30 8784 H 837.684 4.37651 0.368524 0
M  V30 8785 H 838.29 4.05799 -1.27306 0
M  V30 8786 N 836.605 0.766683 1.37694 0
M  V30 8787 C 837.83 0.338715 2.04615 0
M  V30 8788 C 838.255 -1.02918 1.57447 0
M  V30 8789 O 837.613 -1.65849 0.732386 0
M  V30 8790 C 837.661 0.385284 3.58536 0
M  V30 8791 O 836.765 -0.616081 4.07772 0
M  V30 8792 H 836.106 0.147527 0.647404 0
M  V30 8793 H 838.636 1.04146 1.7611 0
M  V30 8794 H 838.646 0.240782 4.07289 0
M  V30 8795 H 837.321 1.38325 3.92223 0
M  V30 8796 H 835.898 -0.435115 3.70353 0
M  V30 8797 N 838.083 -1.48885 0.516809 0
M  V30 8798 C 839.494 -1.86557 0.0729921 0
M  V30 8799 C 839.845 -1.42767 -1.34581 0
M  V30 8800 O 838.97 -0.812514 -2.00567 0
M  V30 8801 C 839.565 -3.38567 0.125686 0
M  V30 8802 C 838.124 -3.75481 -0.262867 0
M  V30 8803 C 837.271 -2.72913 0.491281 0
M  V30 8804 H 840.222 -1.40978 0.728767 0
M  V30 8805 H 840.243 -3.74629 -0.665831 0
M  V30 8806 H 839.755 -3.70408 1.15842 0
M  V30 8807 H 837.856 -3.49251 -1.29824 0
M  V30 8808 H 837.969 -4.79052 0.067579 0
M  V30 8809 H 836.333 -2.54627 -0.0608525 0
M  V30 8810 H 837.116 -3.07599 1.5244 0
M  V30 8811 N 839.561 -0.251338 -1.55583 0
M  V30 8812 C 840.493 0.679167 -2.18906 0
M  V30 8813 C 841.506 1.13545 -1.16667 0
M  V30 8814 O 842.695 1.06146 -1.4351 0
M  V30 8815 C 839.795 1.93544 -2.78198 0
M  V30 8816 C 838.968 1.62987 -4.05899 0
M  V30 8817 C 838.027 2.73618 -4.49466 0
M  V30 8818 O 837.053 2.40815 -5.15749 0
M  V30 8819 N 838.255 4.03204 -4.1762 0
M  V30 8820 H 841.02 0.137328 -2.99385 0
M  V30 8821 H 838.581 -0.0714754 -1.61742 0
M  V30 8822 H 840.573 2.66804 -3.04299 0
M  V30 8823 H 839.143 2.38695 -2.0185 0
M  V30 8824 H 838.363 0.732237 -3.8734 0
M  V30 8825 H 839.651 1.40041 -4.89148 0
M  V30 8826 H 839.049 4.32686 -3.64416 0
M  V30 8827 H 837.606 4.72916 -4.48547 0
M  V30 8828 N 841.039 1.57585 0.0217189 0
M  V30 8829 C 841.949 2.10444 1.03684 0
M  V30 8830 C 842.965 1.04472 1.39146 0
M  V30 8831 O 844.141 1.36249 1.48317 0
M  V30 8832 C 841.206 2.5794 2.31664 0
M  V30 8833 C 840.267 3.78425 2.02714 0
M  V30 8834 C 839.5 4.23646 3.24592 0
M  V30 8835 O 839.723 3.6834 4.35525 0
M  V30 8836 O 838.657 5.16013 3.09862 0
M  V30 8837 H 842.483 2.97354 0.617584 0
M  V30 8838 H 840.068 1.47473 0.239174 0
M  V30 8839 H 841.95 2.88785 3.06889 0
M  V30 8840 H 840.625 1.74138 2.7287 0
M  V30 8841 H 839.532 3.52587 1.25033 0
M  V30 8842 H 840.865 4.63234 1.66359 0
M  V30 8843 N 842.517 -0.29412 1.54831 0
M  V30 8844 C 843.764 -1.02846 1.74439 0
M  V30 8845 C 844.092 -1.87029 0.533905 0
M  V30 8846 O 843.347 -1.8962 -0.484035 0
M  V30 8847 C 843.646 -1.95782 2.99006 0
M  V30 8848 C 843.312 -1.2752 4.32492 0
M  V30 8849 C 841.974 -1.08637 4.68777 0
M  V30 8850 C 844.326 -0.787761 5.15212 0
M  V30 8851 C 841.654 -0.39704 5.85355 0
M  V30 8852 C 844.006 -0.112123 6.32501 0
M  V30 8853 C 842.67 0.0886071 6.67441 0
M  V30 8854 H 841.94 -0.376341 0.638317 0
M  V30 8855 H 844.587 -0.302684 1.89093 0
M  V30 8856 H 842.892 -2.74911 2.79162 0
M  V30 8857 H 844.589 -2.52684 3.11371 0
M  V30 8858 H 841.179 -1.43226 4.03961 0
M  V30 8859 H 845.363 -0.921341 4.87673 0
M  V30 8860 H 840.619 -0.230597 6.10965 0
M  V30 8861 H 844.793 0.27344 6.95863 0
M  V30 8862 H 842.42 0.624748 7.57628 0
M  V30 8863 N 843.995 -1.47404 -0.557645 0
M  V30 8864 C 845.22 -1.57868 -1.34508 0
M  V30 8865 C 845.645 -0.229151 -1.86699 0
M  V30 8866 O 845.003 0.794908 -1.62944 0
M  V30 8867 C 845.051 -2.60712 -2.49122 0
M  V30 8868 O 844.155 -2.15952 -3.51338 0
M  V30 8869 H 843.496 -0.530335 -0.399551 0
M  V30 8870 H 846.026 -1.93181 -0.673954 0
M  V30 8871 H 846.036 -2.81118 -2.95697 0
M  V30 8872 H 844.711 -3.58701 -2.10491 0
M  V30 8873 H 843.288 -2.05644 -3.11071 0
M  V30 8874 N 845.473 0.80434 -1.35529 0
M  V30 8875 C 846.884 1.37849 -1.25915 0
M  V30 8876 C 847.235 1.95905 0.107495 0
M  V30 8877 O 846.36 1.91462 1.00852 0
M  V30 8878 C 846.955 2.50608 -2.27994 0
M  V30 8879 C 845.514 3.03879 -2.22114 0
M  V30 8880 C 844.661 1.76856 -2.13582 0
M  V30 8881 H 847.612 0.607192 -1.46625 0
M  V30 8882 H 847.633 3.29221 -1.90772 0
M  V30 8883 H 847.145 2.08323 -3.27449 0
M  V30 8884 H 845.246 3.50622 -1.26077 0
M  V30 8885 H 845.359 3.61707 -3.14173 0
M  V30 8886 H 843.723 1.98498 -1.59595 0
M  V30 8887 H 844.506 1.36721 -3.14901 0
M  V30 8888 N 846.951 1.19563 1.02676 0
M  V30 8889 C 847.914 0.937182 2.09164 0
M  V30 8890 C 848.914 -0.0831927 1.60585 0
M  V30 8891 O 850.104 0.15178 1.73538 0
M  V30 8892 C 847.236 0.408912 3.38439 0
M  V30 8893 H 848.429 1.88164 2.33526 0
M  V30 8894 H 845.982 1.00959 1.19319 0
M  V30 8895 H 846.717 -0.541497 3.19747 0
M  V30 8896 H 846.502 1.14464 3.7502 0
M  V30 8897 H 847.992 0.247242 4.16867 0
M  V30 8898 N 848.429 -1.21819 0.999893 0
M  V30 8899 C 849.359 -2.26282 0.576096 0
M  V30 8900 C 850.34 -1.65317 -0.400537 0
M  V30 8901 O 851.525 -1.92028 -0.28964 0
M  V30 8902 C 848.655 -3.47147 -0.103145 0
M  V30 8903 C 847.609 -4.20594 0.792745 0
M  V30 8904 C 846.935 -5.34696 -0.0198026 0
M  V30 8905 C 848.235 -4.78533 2.09293 0
M  V30 8906 H 849.929 -2.61984 1.4493 0
M  V30 8907 H 847.475 -1.25935 0.698316 0
M  V30 8908 H 849.428 -4.1939 -0.411068 0
M  V30 8909 H 848.152 -3.1056 -1.01094 0
M  V30 8910 H 846.811 -3.50194 1.08442 0
M  V30 8911 H 846.459 -4.94352 -0.928729 0
M  V30 8912 H 846.159 -5.84764 0.576661 0
M  V30 8913 H 847.683 -6.09752 -0.321659 0
M  V30 8914 H 849.097 -5.42682 1.8485 0
M  V30 8915 H 847.494 -5.38968 2.63881 0
M  V30 8916 H 848.564 -3.98197 2.76708 0
M  V30 8917 N 849.908 -0.773975 -1.37286 0
M  V30 8918 C 851.154 -0.339809 -1.99933 0
M  V30 8919 C 851.487 1.0815 -1.61299 0
M  V30 8920 O 850.762 1.74442 -0.860252 0
M  V30 8921 C 851.045 -0.485919 -3.56806 0
M  V30 8922 C 850.898 -1.9498 -4.05343 0
M  V30 8923 C 852.217 0.108461 -4.39966 0
M  V30 8924 H 849.336 -0.124944 -0.726332 0
M  V30 8925 H 851.978 -0.977433 -1.6293 0
M  V30 8926 H 850.128 0.0569023 -3.88458 0
M  V30 8927 H 851.8 -2.5525 -3.84246 0
M  V30 8928 H 850.043 -2.45784 -3.57453 0
M  V30 8929 H 850.714 -2.00308 -5.14374 0
M  V30 8930 H 853.19 -0.354722 -4.14585 0
M  V30 8931 H 852.066 -0.0238926 -5.48895 0
M  V30 8932 H 852.327 1.19901 -4.25531 0
M  V30 8933 N 851.386 1.48609 -0.524698 0
M  V30 8934 C 852.611 2.07398 0.00952139 0
M  V30 8935 C 853.036 1.37939 1.27884 0
M  V30 8936 O 852.394 0.443633 1.75788 0
M  V30 8937 C 852.442 3.59916 0.221956 0
M  V30 8938 O 851.546 3.91647 1.29175 0
M  V30 8939 H 850.887 0.662981 -0.0367729 0
M  V30 8940 H 853.417 1.91092 -0.7311 0
M  V30 8941 H 853.427 4.05552 0.446236 0
M  V30 8942 H 852.102 4.09876 -0.705306 0
M  V30 8943 H 850.679 3.57796 1.05055 0
M  V30 8944 N 852.864 0.259585 1.55447 0
M  V30 8945 C 854.094 -0.364863 2.03353 0
M  V30 8946 C 854.502 -1.5116 1.13786 0
M  V30 8947 O 853.845 -1.83109 0.147283 0
M  V30 8948 C 853.907 -0.922587 3.4746 0
M  V30 8949 C 853.571 0.0935207 4.56904 0
M  V30 8950 C 854.568 0.907571 5.11917 0
M  V30 8951 C 852.253 0.223276 5.01804 0
M  V30 8952 C 854.247 1.83771 6.10333 0
M  V30 8953 C 851.934 1.15691 6.00049 0
M  V30 8954 C 852.932 1.96264 6.54194 0
M  V30 8955 O 852.62 2.88052 7.50521 0
M  V30 8956 H 852.352 -0.0893313 0.670072 0
M  V30 8957 H 854.906 0.384821 2.01763 0
M  V30 8958 H 853.136 -1.72206 3.4624 0
M  V30 8959 H 854.825 -1.45846 3.78792 0
M  V30 8960 H 855.591 0.817979 4.78052 0
M  V30 8961 H 851.47 -0.393834 4.59315 0
M  V30 8962 H 855.014 2.46703 6.52521 0
M  V30 8963 H 850.911 1.24738 6.33333 0
M  V30 8964 H 851.679 2.82557 7.68182 0
M  V30 8965 N 854.342 -1.57594 -0.0133615 0
M  V30 8966 C 855.57 -1.94251 -0.712328 0
M  V30 8967 C 855.985 -0.86063 -1.68043 0
M  V30 8968 O 855.342 0.161632 -1.81783 0
M  V30 8969 C 855.393 -3.30891 -1.45581 0
M  V30 8970 O 855.114 -4.34924 -0.526539 0
M  V30 8971 C 856.615 -3.81926 -2.2505 0
M  V30 8972 H 853.835 -0.640737 -0.199241 0
M  V30 8973 H 856.379 -2.04472 0.0337855 0
M  V30 8974 H 854.534 -3.22019 -2.15366 0
M  V30 8975 H 854.948 -5.1389 -1.04962 0
M  V30 8976 H 856.422 -4.79999 -2.72589 0
M  V30 8977 H 856.899 -3.13934 -3.07152 0
M  V30 8978 H 857.505 -3.93931 -1.60308 0
M  V30 8979 N 855.82 0.285905 -1.54985 0
M  V30 8980 C 857.045 1.04207 -1.7932 0
M  V30 8981 C 857.47 1.79622 -0.558343 0
M  V30 8982 O 856.828 1.74506 0.491661 0
M  V30 8983 C 856.876 1.98648 -3.0095 0
M  V30 8984 O 855.98 3.07207 -2.75132 0
M  V30 8985 H 855.321 0.298596 -0.593074 0
M  V30 8986 H 857.851 0.318736 -2.02102 0
M  V30 8987 H 857.861 2.4084 -3.29333 0
M  V30 8988 H 856.536 1.43167 -3.90482 0
M  V30 8989 H 855.113 2.69423 -2.57809 0
M  V30 8990 N 857.298 1.47698 0.54982 0
M  V30 8991 C 858.523 1.58579 1.33669 0
M  V30 8992 C 858.948 0.239049 1.86575 0
M  V30 8993 O 858.306 -0.786256 1.63364 0
M  V30 8994 C 858.354 2.62029 2.47736 0
M  V30 8995 O 857.458 2.17813 3.50188 0
M  V30 8996 H 856.799 0.532447 0.396732 0
M  V30 8997 H 859.329 1.93536 0.6637 0
M  V30 8998 H 859.339 2.82682 2.94202 0
M  V30 8999 H 858.014 3.59812 2.08586 0
M  V30 9000 H 856.591 2.07291 3.09976 0
M  V30 9001 N 858.776 -0.797141 1.35954 0
M  V30 9002 C 859.706 -1.92387 1.32323 0
M  V30 9003 C 860.687 -1.68967 0.196007 0
M  V30 9004 O 861.872 -1.90193 0.39245 0
M  V30 9005 C 859.002 -3.29286 1.10398 0
M  V30 9006 C 857.956 -3.67212 2.19862 0
M  V30 9007 C 857.282 -5.02377 1.8309 0
M  V30 9008 C 858.582 -3.76602 3.61896 0
M  V30 9009 H 860.276 -1.95683 2.26602 0
M  V30 9010 H 857.822 -0.94007 1.09081 0
M  V30 9011 H 859.775 -4.07721 1.06495 0
M  V30 9012 H 858.499 -3.26358 0.125668 0
M  V30 9013 H 857.158 -2.91069 2.22878 0
M  V30 9014 H 856.806 -4.95961 0.838527 0
M  V30 9015 H 856.506 -5.28722 2.56372 0
M  V30 9016 H 858.03 -5.8324 1.80729 0
M  V30 9017 H 859.444 -4.45246 3.6115 0
M  V30 9018 H 857.841 -4.14425 4.34018 0
M  V30 9019 H 858.911 -2.77906 3.97361 0
M  V30 9020 N 860.254 -1.20106 -1.0204 0
M  V30 9021 C 861.665 -1.00992 -1.57027 0
M  V30 9022 C 862.016 0.434782 -1.91322 0
M  V30 9023 O 861.141 1.31557 -1.71819 0
M  V30 9024 C 861.736 -1.82697 -2.85319 0
M  V30 9025 C 860.295 -1.67959 -3.36848 0
M  V30 9026 C 859.442 -1.80868 -2.10195 0
M  V30 9027 H 862.393 -1.34354 -0.844676 0
M  V30 9028 H 862.414 -1.32809 -3.5657 0
M  V30 9029 H 861.926 -2.87839 -2.60328 0
M  V30 9030 H 860.027 -0.654389 -3.66809 0
M  V30 9031 H 860.14 -2.49006 -4.09308 0
M  V30 9032 H 858.504 -1.24015 -2.22469 0
M  V30 9033 H 859.287 -2.87486 -1.87635 0
M  V30 9034 N 861.732 1.21287 -1.00634 0
M  V30 9035 C 862.695 2.21927 -0.572821 0
M  V30 9036 C 863.695 1.5691 0.351541 0
M  V30 9037 O 864.885 1.73623 0.141643 0
M  V30 9038 C 862.017 3.40501 0.164932 0
M  V30 9039 H 863.21 2.61795 -1.463 0
M  V30 9040 H 860.763 1.34571 -0.794998 0
M  V30 9041 H 861.498 3.06123 1.07049 0
M  V30 9042 H 861.283 3.88912 -0.498962 0
M  V30 9043 H 862.773 4.15103 0.455945 0
M  V30 9044 N 863.21 0.781244 1.36873 0
M  V30 9045 C 864.142 0.132075 2.28819 0
M  V30 9046 C 865.155 -0.653925 1.49089 0
M  V30 9047 O 866.344 -0.490453 1.7163 0
M  V30 9048 C 863.444 -0.836297 3.28419 0
M  V30 9049 C 862.617 -0.102097 4.37281 0
M  V30 9050 C 861.676 -0.985217 5.16894 0
M  V30 9051 O 860.702 -0.445478 5.67454 0
M  V30 9052 N 861.904 -2.31043 5.3254 0
M  V30 9053 H 864.669 0.921838 2.85171 0
M  V30 9054 H 862.23 0.634427 1.48952 0
M  V30 9055 H 864.222 -1.43074 3.78566 0
M  V30 9056 H 862.792 -1.52698 2.72767 0
M  V30 9057 H 862.012 0.67335 3.88407 0
M  V30 9058 H 863.3 0.404862 5.07187 0
M  V30 9059 H 862.698 -2.77318 4.93063 0
M  V30 9060 H 861.255 -2.85472 5.8596 0
M  V30 9061 N 864.689 -1.48329 0.532571 0
M  V30 9062 C 865.935 -2.028 -0.000583219 0
M  V30 9063 C 866.268 -1.40858 -1.33688 0
M  V30 9064 O 865.543 -0.555261 -1.86406 0
M  V30 9065 C 865.826 -3.59901 -0.119846 0
M  V30 9066 C 865.679 -4.32318 1.2418 0
M  V30 9067 C 866.998 -4.31904 -0.845372 0
M  V30 9068 H 864.117 -0.736999 0.00126205 0
M  V30 9069 H 866.759 -1.77024 0.690102 0
M  V30 9070 H 864.909 -3.81993 -0.708092 0
M  V30 9071 H 866.581 -4.21637 1.87136 0
M  V30 9072 H 864.824 -3.93635 1.82301 0
M  V30 9073 H 865.495 -5.40697 1.11132 0
M  V30 9074 H 867.971 -4.14658 -0.346159 0
M  V30 9075 H 866.847 -5.41509 -0.897723 0
M  V30 9076 H 867.108 -3.99369 -1.89622 0
M  V30 9077 N 866.167 -0.267825 -1.55308 0
M  V30 9078 C 867.415 0.350343 -1.9904 0
M  V30 9079 C 867.736 1.56924 -1.15758 0
M  V30 9080 O 867.006 1.94358 -0.245336 0
M  V30 9081 H 865.586 0.132435 -0.735167 0
M  V30 9082 H 868.248 -0.371471 -1.91327 0
M  V30 9083 H 867.344 0.645203 -3.05358 0
M  V30 9084 N 867.645 1.57599 0.00500368 0
M  V30 9085 C 868.873 1.94626 0.702016 0
M  V30 9086 C 869.288 0.86953 1.67585 0
M  V30 9087 O 868.645 -0.15199 1.81866 0
M  V30 9088 C 868.696 3.31658 1.43824 0
M  V30 9089 O 868.417 4.35197 0.503467 0
M  V30 9090 C 869.918 3.83114 2.23021 0
M  V30 9091 H 867.138 0.641785 0.195841 0
M  V30 9092 H 869.682 2.04451 -0.0446287 0
M  V30 9093 H 867.837 3.23156 2.13655 0
M  V30 9094 H 868.251 5.1444 1.02235 0
M  V30 9095 H 869.725 4.81438 2.7004 0
M  V30 9096 H 870.202 3.15559 3.05482 0
M  V30 9097 H 870.808 3.94775 1.58216 0
M  V30 9098 N 869.123 -0.277682 1.55134 0
M  V30 9099 C 870.372 -1.00766 1.74726 0
M  V30 9100 C 870.685 -1.87617 0.553092 0
M  V30 9101 O 871.891 -2.64058 0.631318 0
M  V30 9102 C 870.347 -1.84147 3.09221 0
M  V30 9103 C 869.955 -1.02186 4.3619 0
M  V30 9104 C 871.699 -2.56604 3.38164 0
M  V30 9105 C 869.606 -1.84978 5.61727 0
M  V30 9106 H 868.536 -0.379948 0.651273 0
M  V30 9107 H 871.187 -0.263543 1.81598 0
M  V30 9108 H 869.569 -2.62637 2.96375 0
M  V30 9109 H 870.743 -0.281459 4.5994 0
M  V30 9110 H 869.058 -0.412054 4.14356 0
M  V30 9111 H 871.655 -3.18942 4.29162 0
M  V30 9112 H 871.998 -3.26647 2.58085 0
M  V30 9113 H 872.531 -1.85147 3.52087 0
M  V30 9114 H 869.27 -1.19365 6.4454 0
M  V30 9115 H 868.79 -2.56628 5.42128 0
M  V30 9116 H 870.469 -2.42458 5.99853 0
M  V30 9117 N 870.601 -1.47988 -0.541979 0
M  V30 9118 C 871.534 -1.56172 -1.66389 0
M  V30 9119 C 872.512 -0.412879 -1.57271 0
M  V30 9120 O 873.696 -0.622816 -1.77914 0
M  V30 9121 C 870.823 -1.47851 -3.04726 0
M  V30 9122 C 869.869 -2.67428 -3.32242 0
M  V30 9123 S 870.702 -4.29502 -3.19825 0
M  V30 9124 C 871.858 -4.2376 -4.60628 0
M  V30 9125 H 872.091 -2.51086 -1.59195 0
M  V30 9126 H 869.624 -1.36373 -0.724005 0
M  V30 9127 H 871.582 -1.43738 -3.84512 0
M  V30 9128 H 870.243 -0.542958 -3.09372 0
M  V30 9129 H 869.436 -2.57711 -4.33129 0
M  V30 9130 H 869.038 -2.68743 -2.60103 0
M  V30 9131 H 871.33 -3.92953 -5.51901 0
M  V30 9132 H 872.273 -5.24786 -4.75401 0
M  V30 9133 H 872.681 -3.54398 -4.39389 0
M  V30 9134 N 872.079 0.78992 -1.36375 0
M  V30 9135 C 873.356 1.53584 -1.21126 0
M  V30 9136 C 873.736 2.10124 0.202785 0
M  V30 9137 O 873.084 1.93936 1.20835 0
M  V30 9138 C 873.294 2.63117 -2.29282 0
M  V30 9139 C 874.642 3.31013 -2.65924 0
M  V30 9140 O 875.666 2.734 -2.28321 0
M  V30 9141 O 874.525 4.35129 -3.30643 0
M  V30 9142 H 871.619 0.679366 -0.471583 0
M  V30 9143 H 874.165 0.828446 -1.48104 0
M  V30 9144 H 872.937 2.19329 -3.24053 0
M  V30 9145 H 872.56 3.41476 -2.03666 0
M  V30 9146 N 873.557 1.20646 1.01402 0
M  V30 9147 C 874.782 1.04462 1.79172 0
M  V30 9148 C 875.207 -0.401588 1.83763 0
M  V30 9149 O 874.565 -1.28934 1.27459 0
M  V30 9150 C 874.613 1.63583 3.21361 0
M  V30 9151 O 873.717 0.875198 4.03006 0
M  V30 9152 H 873.058 0.368235 0.552539 0
M  V30 9153 H 875.588 1.59994 1.27526 0
M  V30 9154 H 875.598 1.67426 3.72065 0
M  V30 9155 H 874.273 2.68835 3.17334 0
M  V30 9156 H 872.85 0.911172 3.61597 0
M  V30 9157 N 875.035 -1.20752 1.01276 0
M  V30 9158 C 876.26 -1.94547 0.718769 0
M  V30 9159 C 876.685 -1.7404 -0.713563 0
M  V30 9160 O 876.043 -1.03221 -1.49047 0
M  V30 9161 C 876.091 -3.44823 1.05497 0
M  V30 9162 O 875.195 -4.12072 0.164516 0
M  V30 9163 H 874.536 -0.607931 0.267051 0
M  V30 9164 H 877.066 -1.53292 1.35509 0
M  V30 9165 H 877.076 -3.95427 1.00507 0
M  V30 9166 H 875.751 -3.59072 2.09858 0
M  V30 9167 H 874.328 -3.71909 0.271615 0
M  V30 9168 N 876.513 -0.788492 -1.36457 0
M  V30 9169 C 877.743 -0.371825 -2.03227 0
M  V30 9170 C 878.151 1.01627 -1.59589 0
M  V30 9171 O 877.494 1.663 -0.780382 0
M  V30 9172 C 877.556 -0.355179 -3.57741 0
M  V30 9173 C 877.22 -1.69069 -4.24576 0
M  V30 9174 C 878.217 -2.64601 -4.47529 0
M  V30 9175 C 875.902 -1.96973 -4.62068 0
M  V30 9176 C 877.896 -3.86232 -5.07054 0
M  V30 9177 C 875.583 -3.18872 -5.2131 0
M  V30 9178 C 876.581 -4.1332 -5.43742 0
M  V30 9179 O 876.269 -5.3307 -6.0174 0
M  V30 9180 H 876.001 -0.151452 -0.658816 0
M  V30 9181 H 878.555 -1.06827 -1.75434 0
M  V30 9182 H 876.785 0.397753 -3.84649 0
M  V30 9183 H 878.474 0.0366955 -4.05883 0
M  V30 9184 H 879.24 -2.44329 -4.18961 0
M  V30 9185 H 875.119 -1.24277 -4.43933 0
M  V30 9186 H 878.663 -4.59965 -5.24478 0
M  V30 9187 H 874.56 -3.39022 -5.49304 0
M  V30 9188 H 875.328 -5.34121 -6.20207 0
M  V30 9189 N 877.991 1.48044 -0.54043 0
M  V30 9190 C 879.216 2.07396 -0.0124765 0
M  V30 9191 C 879.641 1.39288 1.26414 0
M  V30 9192 O 878.999 0.462252 1.75308 0
M  V30 9193 C 879.047 3.60131 0.18377 0
M  V30 9194 O 878.151 3.92995 1.25014 0
M  V30 9195 H 877.492 0.662554 -0.0438026 0
M  V30 9196 H 880.022 1.90306 -0.751327 0
M  V30 9197 H 880.032 4.06003 0.403197 0
M  V30 9198 H 878.707 4.09105 -0.74874 0
M  V30 9199 H 877.284 3.5889 1.01254 0
M  V30 9200 N 879.47 0.276058 1.55163 0
M  V30 9201 C 880.433 -0.597924 2.21263 0
M  V30 9202 C 881.433 -1.0806 1.19078 0
M  V30 9203 O 882.623 -0.980626 1.43977 0
M  V30 9204 C 879.755 -1.82503 2.87933 0
M  V30 9205 H 880.948 -0.0207769 2.99893 0
M  V30 9206 H 878.501 0.0266823 1.56277 0
M  V30 9207 H 879.236 -2.44266 2.13318 0
M  V30 9208 H 879.021 -1.48683 3.62816 0
M  V30 9209 H 880.511 -2.44651 3.38431 0
M  V30 9210 N 880.948 -1.576 0.00335426 0
M  V30 9211 C 881.896 -2.09759 -1.00517 0
M  V30 9212 C 882.89 -1.01833 -1.35375 0
M  V30 9213 O 884.096 -1.20294 -1.339 0
M  V30 9214 H 880.471 -0.669821 -0.341825 0
M  V30 9215 H 882.442 -2.93478 -0.539718 0
M  V30 9216 C 881.191 -2.6189 -2.28711 0
M  V30 9217 H 880.514 -3.44571 -2.02758 0
M  V30 9218 H 881.954 -3.02061 -2.97548 0
M  V30 9219 C 880.413 -1.53455 -2.99922 0
M  V30 9220 O 880.943 -0.919402 -3.91037 0
M  V30 9221 N 879.149 -1.2612 -2.61806 0
M  V30 9222 H 878.696 -1.76329 -1.87792 0
M  V30 9223 H 878.654 -0.537872 -3.09765 0
M  V30 9224 N 882.426 0.269451 -1.5528 0
M  V30 9225 C 883.842 0.616827 -1.47199 0
M  V30 9226 C 884.042 1.89354 -0.68901 0
M  V30 9227 O 883.098 2.51631 -0.209287 0
M  V30 9228 C 884.411 0.740492 -2.9144 0
M  V30 9229 C 885.959 0.834312 -3.01676 0
M  V30 9230 C 886.434 0.989725 -4.47178 0
M  V30 9231 N 887.925 1.05516 -4.51022 0
M  V30 9232 C 888.66 1.19427 -5.60825 0
M  V30 9233 N 888.156 1.30035 -6.80487 0
M  V30 9234 N 889.949 1.22566 -5.48575 0
M  V30 9235 H 882.1 -0.568962 -2.04638 0
M  V30 9236 H 884.363 -0.193153 -0.928114 0
M  V30 9237 H 884.069 -0.127234 -3.5147 0
M  V30 9238 H 883.943 1.61965 -3.40657 0
M  V30 9239 H 886.33 1.6925 -2.4174 0
M  V30 9240 H 886.411 -0.0695298 -2.55705 0
M  V30 9241 H 886.055 0.136179 -5.07717 0
M  V30 9242 H 885.985 1.90827 -4.90808 0
M  V30 9243 H 888.476 0.985434 -3.64825 0
M  V30 9244 H 888.789 1.40494 -7.59922 0
M  V30 9245 H 887.134 1.27033 -6.83292 0
M  V30 9246 H 890.325 1.13911 -4.54029 0
M  V30 9247 H 890.498 1.33063 -6.34191 0
M  V30 9248 N 883.904 1.48273 0.534124 0
M  V30 9249 C 885.129 1.59988 1.31979 0
M  V30 9250 C 885.554 0.258824 1.86311 0
M  V30 9251 O 884.912 -0.768885 1.64188 0
M  V30 9252 C 884.96 2.64642 2.44943 0
M  V30 9253 O 884.064 2.21515 3.47858 0
M  V30 9254 H 883.405 0.536625 0.391063 0
M  V30 9255 H 885.935 1.94229 0.643135 0
M  V30 9256 H 885.945 2.85786 2.91187 0
M  V30 9257 H 884.62 3.62004 2.04758 0
M  V30 9258 H 883.197 2.10567 3.0776 0
M  V30 9259 N 885.382 -0.782676 1.36792 0
M  V30 9260 C 886.628 -1.54311 1.3159 0
M  V30 9261 C 886.961 -1.93928 -0.102696 0
M  V30 9262 O 886.236 -1.63233 -1.05761 0
M  V30 9263 C 886.519 -2.81561 2.24489 0
M  V30 9264 C 886.372 -2.48268 3.75078 0
M  V30 9265 C 887.691 -3.83428 2.16034 0
M  V30 9266 H 884.81 -0.559828 0.479335 0
M  V30 9267 H 887.452 -0.898717 1.67401 0
M  V30 9268 H 885.602 -3.36549 1.9408 0
M  V30 9269 H 887.274 -1.99279 4.16036 0
M  V30 9270 H 885.517 -1.81116 3.94182 0
M  V30 9271 H 886.188 -3.39183 4.35499 0
M  V30 9272 H 888.664 -3.37905 2.42815 0
M  V30 9273 H 887.54 -4.70204 2.83194 0
M  V30 9274 H 887.801 -4.26887 1.14976 0
M  V30 9275 N 886.86 -1.21182 -1.00761 0
M  V30 9276 C 887.823 -0.970339 -2.07646 0
M  V30 9277 C 888.823 0.0576345 -1.60697 0
M  V30 9278 O 890.013 -0.179369 -1.73274 0
M  V30 9279 C 887.145 -0.462703 -3.37745 0
M  V30 9280 H 888.338 -1.91856 -2.30502 0
M  V30 9281 H 885.891 -1.02844 -1.17698 0
M  V30 9282 H 886.626 0.490559 -3.20568 0
M  V30 9283 H 886.411 -1.20416 -3.73152 0
M  V30 9284 H 887.901 -0.313531 -4.16421 0
M  V30 9285 N 888.338 1.20213 -1.01915 0
M  V30 9286 C 889.615 1.85348 -0.62495 0
M  V30 9287 C 889.995 1.91101 0.896854 0
M  V30 9288 O 889.343 1.42075 1.78961 0
M  V30 9289 C 889.553 3.24849 -1.27571 0
M  V30 9290 C 890.901 4.01107 -1.39277 0
M  V30 9291 O 891.925 3.34211 -1.23212 0
M  V30 9292 O 890.784 5.20914 -1.6526 0
M  V30 9293 H 887.878 0.798303 -0.215965 0
M  V30 9294 H 890.424 1.27782 -1.11669 0
M  V30 9295 H 889.196 3.1544 -2.31545 0
M  V30 9296 H 888.819 3.90049 -0.77122 0
M  V30 9297 N 889.816 0.795718 1.36037 0
M  V30 9298 C 890.763 0.196548 2.29962 0
M  V30 9299 C 891.733 -0.663213 1.52285 0
M  V30 9300 O 892.918 -0.610574 1.80767 0
M  V30 9301 C 890.058 -0.657639 3.38776 0
M  V30 9302 C 889.171 0.221358 4.31433 0
M  V30 9303 C 888.306 -0.6398 5.27333 0
M  V30 9304 C 887.345 0.240265 6.11628 0
M  V30 9305 N 886.482 -0.580237 6.99698 0
M  V30 9306 H 891.322 1.00295 2.80615 0
M  V30 9307 H 888.859 0.506147 1.38118 0
M  V30 9308 H 890.817 -1.16793 4.00519 0
M  V30 9309 H 889.447 -1.42941 2.89426 0
M  V30 9310 H 888.499 0.84967 3.70789 0
M  V30 9311 H 889.811 0.899195 4.90628 0
M  V30 9312 H 888.965 -1.21566 5.94396 0
M  V30 9313 H 887.704 -1.35124 4.68607 0
M  V30 9314 H 886.709 0.828474 5.43522 0
M  V30 9315 H 887.934 0.949403 6.72431 0
M  V30 9316 H 885.88 -1.27585 6.43473 0
M  V30 9317 H 885.797 0.0397853 7.5599 0
M  V30 9318 H 887.065 -1.13972 7.71123 0
M  V30 9319 N 891.294 -1.47756 0.548274 0
M  V30 9320 C 892.204 -2.33678 -0.207773 0
M  V30 9321 C 893.22 -1.47636 -0.920843 0
M  V30 9322 O 894.396 -1.80583 -0.89173 0
M  V30 9323 C 891.461 -3.24147 -1.23003 0
M  V30 9324 C 890.522 -4.26073 -0.52535 0
M  V30 9325 C 889.755 -5.12219 -1.4989 0
M  V30 9326 O 889.978 -5.0066 -2.73305 0
M  V30 9327 O 888.912 -5.93051 -1.02828 0
M  V30 9328 H 892.738 -2.99609 0.496794 0
M  V30 9329 H 890.323 -1.4617 0.308982 0
M  V30 9330 H 892.205 -3.80055 -1.82034 0
M  V30 9331 H 890.88 -2.60855 -1.91668 0
M  V30 9332 H 889.787 -3.7395 0.105927 0
M  V30 9333 H 891.12 -4.92054 0.119686 0
M  V30 9334 N 892.772 -0.284283 -1.55015 0
M  V30 9335 C 893.735 0.586182 -2.21577 0
M  V30 9336 C 894.735 1.07427 -1.1965 0
M  V30 9337 O 895.925 0.972977 -1.44495 0
M  V30 9338 C 893.057 1.80973 -2.88897 0
M  V30 9339 H 894.25 0.00487253 -2.999 0
M  V30 9340 H 891.803 -0.0349696 -1.56261 0
M  V30 9341 H 892.538 2.43131 -2.14611 0
M  V30 9342 H 892.323 1.46757 -3.636 0
M  V30 9343 H 893.813 2.42853 -3.39724 0
M  V30 9344 N 894.251 1.57596 -0.0117121 0
M  V30 9345 C 895.5 1.9025 0.669921 0
M  V30 9346 C 895.813 0.887986 1.74282 0
M  V30 9347 O 897.019 1.10516 2.47989 0
M  V30 9348 C 895.475 3.37762 1.24277 0
M  V30 9349 C 895.083 4.47535 0.204076 0
M  V30 9350 C 896.827 3.79509 1.90192 0
M  V30 9351 C 894.734 5.86132 0.787577 0
M  V30 9352 H 893.664 0.709935 0.253984 0
M  V30 9353 H 896.315 1.8335 -0.0741718 0
M  V30 9354 H 894.697 3.39537 2.03791 0
M  V30 9355 H 895.871 4.57294 -0.56733 0
M  V30 9356 H 894.186 4.14881 -0.355305 0
M  V30 9357 H 896.783 4.80402 2.34773 0
M  V30 9358 H 897.126 3.13643 2.7374 0
M  V30 9359 H 897.659 3.80084 1.17394 0
M  V30 9360 H 894.398 6.55499 -0.00938418 0
M  V30 9361 H 893.918 5.80014 1.52787 0
M  V30 9362 H 895.597 6.34158 1.28265 0
M  V30 9363 N 895.729 -0.261212 1.5542 0
M  V30 9364 C 896.692 -1.30645 1.8832 0
M  V30 9365 C 897.692 -1.41782 0.758588 0
M  V30 9366 O 898.882 -1.40729 1.02669 0
M  V30 9367 C 896.014 -2.6862 2.09895 0
M  V30 9368 H 897.207 -1.02698 2.81768 0
M  V30 9369 H 894.76 -0.499838 1.48092 0
M  V30 9370 H 895.495 -3.0173 1.18868 0
M  V30 9371 H 895.28 -2.61921 2.91787 0
M  V30 9372 H 896.77 -3.44121 2.36581 0
M  V30 9373 N 897.207 -1.48554 -0.526253 0
M  V30 9374 C 898.155 -1.63804 -1.65139 0
M  V30 9375 C 899.149 -0.504398 -1.61716 0
M  V30 9376 O 900.355 -0.683241 -1.66529 0
M  V30 9377 H 896.73 -0.516071 -0.546969 0
M  V30 9378 H 898.701 -2.58294 -1.49421 0
M  V30 9379 C 897.45 -1.69843 -3.03395 0
M  V30 9380 H 896.773 -2.56438 -3.06724 0
M  V30 9381 H 898.213 -1.84555 -3.81727 0
M  V30 9382 C 896.672 -0.437875 -3.34042 0
M  V30 9383 O 897.202 0.447604 -3.99198 0
M  V30 9384 N 895.408 -0.308444 -2.88958 0
M  V30 9385 H 894.955 -1.02998 -2.36112 0
M  V30 9386 H 894.913 0.533952 -3.09833 0
M  V30 9387 N 898.685 0.775411 -1.37205 0
M  V30 9388 C 899.932 1.53384 -1.32211 0
M  V30 9389 C 900.26 1.9427 0.0944958 0
M  V30 9390 O 899.515 1.64059 1.06692 0
M  V30 9391 C 899.814 2.81377 -2.20367 0
M  V30 9392 C 899.48 2.59561 -3.68699 0
M  V30 9393 C 898.142 2.53319 -4.09124 0
M  V30 9394 C 900.494 2.39939 -4.62686 0
M  V30 9395 C 897.822 2.25442 -5.41658 0
M  V30 9396 C 900.174 2.13586 -5.95453 0
M  V30 9397 C 898.838 2.05786 -6.34987 0
M  V30 9398 H 898.108 0.561271 -0.483793 0
M  V30 9399 H 900.755 0.893466 -1.6938 0
M  V30 9400 H 899.06 3.49954 -1.76181 0
M  V30 9401 H 900.757 3.39238 -2.13819 0
M  V30 9402 H 897.347 2.6528 -3.36637 0
M  V30 9403 H 901.531 2.43753 -4.32317 0
M  V30 9404 H 896.787 2.17896 -5.71254 0
M  V30 9405 H 900.961 1.97401 -6.67837 0
M  V30 9406 H 898.588 1.83948 -7.37609 0
M  V30 9407 N 900.163 1.21714 1.00117 0
M  V30 9408 C 901.391 1.06278 1.77518 0
M  V30 9409 C 901.806 -0.387193 1.84787 0
M  V30 9410 O 901.163 -1.26854 1.31203 0
M  V30 9411 C 901.214 1.65795 3.21239 0
M  V30 9412 O 900.935 3.05119 3.14378 0
M  V30 9413 C 902.436 1.55521 4.15124 0
M  V30 9414 H 899.656 0.373013 0.557765 0
M  V30 9415 H 902.2 1.61133 1.25922 0
M  V30 9416 H 900.355 1.15022 3.69931 0
M  V30 9417 H 900.769 3.33643 4.04701 0
M  V30 9418 H 902.243 2.01902 5.13751 0
M  V30 9419 H 902.72 0.510307 4.36225 0
M  V30 9420 H 903.326 2.0556 3.72324 0
M  V30 9421 N 901.641 -1.19671 1.02551 0
M  V30 9422 C 902.589 -2.24812 0.596867 0
M  V30 9423 C 903.583 -1.65336 -0.368839 0
M  V30 9424 O 904.789 -1.78422 -0.237786 0
M  V30 9425 H 901.164 -0.731417 0.174739 0
M  V30 9426 H 903.135 -2.58286 1.49435 0
M  V30 9427 C 901.884 -3.47677 -0.0399514 0
M  V30 9428 H 901.207 -3.93728 0.694153 0
M  V30 9429 H 902.647 -4.22917 -0.302861 0
M  V30 9430 C 901.106 -3.11411 -1.2855 0
M  V30 9431 O 901.636 -3.23757 -2.37791 0
M  V30 9432 N 899.842 -2.65875 -1.17297 0
M  V30 9433 H 899.389 -2.56029 -0.284045 0
M  V30 9434 H 899.347 -2.41981 -2.00731 0
M  V30 9435 N 903.119 -0.802921 -1.35613 0
M  V30 9436 C 904.051 -0.168461 -2.2858 0
M  V30 9437 C 905.064 0.630123 -1.50111 0
M  V30 9438 O 906.253 0.463086 -1.72388 0
M  V30 9439 C 903.353 0.783943 -3.29708 0
M  V30 9440 C 902.526 0.0325165 -4.37388 0
M  V30 9441 C 901.585 0.902859 -5.18396 0
M  V30 9442 O 900.611 0.355144 -5.68091 0
M  V30 9443 N 901.813 2.22542 -5.36149 0
M  V30 9444 H 904.578 -0.96709 -2.83668 0
M  V30 9445 H 902.139 -0.658043 -1.47924 0
M  V30 9446 H 904.131 1.37034 -3.80794 0
M  V30 9447 H 902.701 1.48339 -2.75162 0
M  V30 9448 H 901.921 -0.735057 -3.87286 0
M  V30 9449 H 903.209 -0.485499 -5.06478 0
M  V30 9450 H 902.607 2.69439 -4.97412 0
M  V30 9451 H 901.164 2.76113 -5.90428 0
M  V30 9452 N 904.597 1.47463 -0.556102 0
M  V30 9453 C 905.544 2.29998 0.192213 0
M  V30 9454 C 906.514 1.38993 0.909403 0
M  V30 9455 O 907.699 1.67954 0.905316 0
M  V30 9456 C 904.839 3.22932 1.21692 0
M  V30 9457 C 903.952 4.29027 0.505908 0
M  V30 9458 C 903.087 5.09114 1.51581 0
M  V30 9459 C 902.126 6.06984 0.789714 0
M  V30 9460 N 901.263 6.80033 1.74639 0
M  V30 9461 H 906.103 2.93468 -0.517734 0
M  V30 9462 H 903.64 1.44654 -0.267147 0
M  V30 9463 H 905.598 3.75234 1.8236 0
M  V30 9464 H 904.228 2.61329 1.89491 0
M  V30 9465 H 903.28 3.7979 -0.215276 0
M  V30 9466 H 904.592 4.9876 -0.062958 0
M  V30 9467 H 903.746 5.6556 2.19606 0
M  V30 9468 H 902.485 4.3928 2.11859 0
M  V30 9469 H 901.49 5.49717 0.0955382 0
M  V30 9470 H 902.715 6.78827 0.192688 0
M  V30 9471 H 900.661 6.12931 2.33777 0
M  V30 9472 H 900.578 7.45933 1.22965 0
M  V30 9473 H 901.846 7.41054 2.41782 0
M  V30 9474 N 906.075 0.2925 1.54862 0
M  V30 9475 C 907.023 -0.603186 2.24643 0
M  V30 9476 C 908.017 -1.1439 1.24946 0
M  V30 9477 O 909.223 -1.09552 1.42823 0
M  V30 9478 H 905.598 -0.213105 0.721173 0
M  V30 9479 H 907.569 0.00799278 2.98399 0
M  V30 9480 C 906.318 -1.76769 2.99413 0
M  V30 9481 H 905.641 -1.36084 3.75927 0
M  V30 9482 H 907.081 -2.37066 3.51533 0
M  V30 9483 C 905.54 -2.66669 2.05886 0
M  V30 9484 O 906.07 -3.67525 1.62136 0
M  V30 9485 N 904.276 -2.34216 1.7202 0
M  V30 9486 H 903.823 -1.52246 2.07795 0
M  V30 9487 H 903.781 -2.94635 1.09717 0
M  V30 9488 N 907.553 -1.57587 0.0200696 0
M  V30 9489 C 908.802 -1.90602 -0.659822 0
M  V30 9490 C 909.115 -0.897216 -1.73808 0
M  V30 9491 O 910.321 -1.11829 -2.47399 0
M  V30 9492 C 908.777 -3.38416 -1.22484 0
M  V30 9493 C 908.385 -4.47637 -0.180339 0
M  V30 9494 C 910.129 -3.80513 -1.88176 0
M  V30 9495 C 908.036 -5.86542 -0.756482 0
M  V30 9496 H 906.966 -0.711272 -0.250216 0
M  V30 9497 H 909.617 -1.83308 0.0838942 0
M  V30 9498 H 907.999 -3.40613 -2.01987 0
M  V30 9499 H 909.173 -4.56987 0.591573 0
M  V30 9500 H 907.488 -4.14687 0.377302 0
M  V30 9501 H 910.085 -4.8164 -2.32222 0
M  V30 9502 H 910.428 -3.15091 -2.72073 0
M  V30 9503 H 910.961 -3.80701 -1.15377 0
M  V30 9504 H 907.7 -6.55485 0.0441468 0
M  V30 9505 H 907.22 -5.80816 -1.49709 0
M  V30 9506 H 908.899 -6.3483 -1.249 0
M  V30 9507 N 909.032 0.252966 -1.55557 0
M  V30 9508 C 910.257 1.0038 -1.8149 0
M  V30 9509 C 910.682 1.78397 -0.596318 0
M  V30 9510 O 910.04 1.7551 0.454535 0
M  V30 9511 C 910.088 1.9222 -3.05096 0
M  V30 9512 O 909.192 3.01302 -2.81587 0
M  V30 9513 H 908.533 0.285949 -0.599274 0
M  V30 9514 H 911.063 0.275795 -2.02733 0
M  V30 9515 H 911.073 2.338 -3.34368 0
M  V30 9516 H 909.748 1.34852 -3.93431 0
M  V30 9517 H 908.325 2.63894 -2.63466 0
M  V30 9518 N 910.51 1.48831 0.518367 0
M  V30 9519 C 911.458 1.64678 1.64268 0
M  V30 9520 C 912.452 0.512967 1.61447 0
M  V30 9521 O 913.658 0.692063 1.66164 0
M  V30 9522 H 910.033 0.518964 0.544224 0
M  V30 9523 H 912.004 2.59083 1.4805 0
M  V30 9524 C 910.753 1.71449 3.0249 0
M  V30 9525 H 910.076 2.58061 3.0536 0
M  V30 9526 H 911.516 1.86577 3.80743 0
M  V30 9527 C 909.975 0.455584 3.33805 0
M  V30 9528 O 910.505 -0.426428 3.9943 0
M  V30 9529 N 908.711 0.323763 2.88791 0
M  V30 9530 H 908.258 1.04249 2.35563 0
M  V30 9531 H 908.216 -0.517514 3.10112 0
M  V30 9532 N 911.988 -0.768124 1.37614 0
M  V30 9533 C 913.399 -1.34462 1.29525 0
M  V30 9534 C 913.75 -1.96121 -0.0555168 0
M  V30 9535 O 912.875 -1.94069 -0.957406 0
M  V30 9536 C 913.47 -2.44475 2.34558 0
M  V30 9537 C 912.029 -2.97883 2.30093 0
M  V30 9538 C 911.176 -1.71131 2.18196 0
M  V30 9539 H 914.127 -0.568103 1.48183 0
M  V30 9540 H 914.148 -3.24047 1.99434 0
M  V30 9541 H 913.66 -1.99568 3.32858 0
M  V30 9542 H 911.761 -3.47156 1.35328 0
M  V30 9543 H 911.874 -3.53251 3.23652 0
M  V30 9544 H 910.238 -1.94197 1.64802 0
M  V30 9545 H 911.021 -1.28323 3.18415 0
M  V30 9546 N 913.466 -1.22244 -0.994698 0
M  V30 9547 C 914.877 -1.043 -1.5485 0
M  V30 9548 C 915.228 0.394102 -1.92201 0
M  V30 9549 O 914.353 1.27883 -1.74571 0
M  V30 9550 C 914.948 -1.88708 -2.8138 0
M  V30 9551 C 913.507 -1.75067 -3.3321 0
M  V30 9552 C 912.654 -1.85286 -2.06312 0
M  V30 9553 H 915.605 -1.36115 -0.815988 0
M  V30 9554 H 915.626 -1.40342 -3.53673 0
M  V30 9555 H 915.138 -2.93296 -2.54164 0
M  V30 9556 H 913.239 -0.732047 -3.65338 0
M  V30 9557 H 913.352 -2.57632 -4.03934 0
M  V30 9558 H 911.716 -1.28706 -2.19788 0
M  V30 9559 H 912.499 -2.91401 -1.81494 0
M  V30 9560 N 914.944 1.19125 -1.03184 0
M  V30 9561 C 916.221 1.84674 -0.644574 0
M  V30 9562 C 916.601 1.92042 0.876534 0
M  V30 9563 O 915.949 1.43965 1.77444 0
M  V30 9564 C 916.159 3.23477 -1.3101 0
M  V30 9565 C 917.507 3.99608 -1.43524 0
M  V30 9566 O 918.531 3.32886 -1.2675 0
M  V30 9567 O 917.39 5.19132 -1.70776 0
M  V30 9568 H 914.484 0.795968 -0.22442 0
M  V30 9569 H 917.03 1.2659 -1.13018 0
M  V30 9570 H 915.802 3.12967 -2.34878 0
M  V30 9571 H 915.425 3.89209 -0.812547 0
M  V30 9572 N 916.422 0.810101 1.35185 0
M  V30 9573 C 917.355 0.168416 2.27578 0
M  V30 9574 C 918.333 -0.667664 1.4826 0
M  V30 9575 O 919.517 -0.634184 1.77512 0
M  V30 9576 C 916.644 -0.765994 3.29925 0
M  V30 9577 C 915.69 -0.00908802 4.26499 0
M  V30 9578 S 916.523 1.32936 5.18737 0
M  V30 9579 C 917.679 0.399485 6.24624 0
M  V30 9580 H 917.912 0.951753 2.81654 0
M  V30 9581 H 915.445 0.60534 1.42039 0
M  V30 9582 H 917.403 -1.2996 3.89385 0
M  V30 9583 H 916.064 -1.52275 2.7472 0
M  V30 9584 H 915.257 -0.718919 4.98846 0
M  V30 9585 H 914.859 0.454663 3.71226 0
M  V30 9586 H 917.151 -0.413904 6.76234 0
M  V30 9587 H 918.094 1.09225 6.99625 0
M  V30 9588 H 918.502 -0.00638358 5.645 0
M  V30 9589 N 917.9 -1.47166 0.563914 0
M  V30 9590 C 919.125 -2.0735 0.0454698 0
M  V30 9591 C 919.55 -1.41281 -1.24182 0
M  V30 9592 O 918.908 -0.490084 -1.7455 0
M  V30 9593 C 918.956 -3.60378 -0.126453 0
M  V30 9594 O 918.06 -3.94934 -1.18746 0
M  V30 9595 H 917.401 -0.661773 0.0543377 0
M  V30 9596 H 919.931 -1.89086 0.781508 0
M  V30 9597 H 919.941 -4.06593 -0.338554 0
M  V30 9598 H 918.616 -4.07862 0.81373 0
M  V30 9599 H 917.193 -3.60455 -0.955318 0
M  V30 9600 N 919.378 -0.300708 -1.54705 0
M  V30 9601 C 920.626 0.308044 -1.99739 0
M  V30 9602 C 920.947 1.54433 -1.19061 0
M  V30 9603 O 920.217 1.93794 -0.286507 0
M  V30 9604 H 918.797 0.116811 -0.73781 0
M  V30 9605 H 921.459 -0.41197 -1.90496 0
M  V30 9606 H 920.555 0.580287 -3.06658 0
M  V30 9607 N 920.856 1.57574 -0.0284266 0
M  V30 9608 C 922.102 1.92884 0.645544 0
M  V30 9609 C 922.457 0.905203 1.69776 0
M  V30 9610 O 921.75 -0.0788509 1.91438 0
M  V30 9611 C 921.944 3.32699 1.3056 0
M  V30 9612 C 921.773 4.48568 0.318848 0
M  V30 9613 C 920.543 5.05235 -0.0810373 0
M  V30 9614 C 922.741 5.12528 -0.426575 0
M  V30 9615 N 920.723 6.04626 -1.06303 0
M  V30 9616 C 922.094 6.07013 -1.26235 0
M  V30 9617 C 924.149 4.95509 -0.48735 0
M  V30 9618 C 922.852 6.8631 -2.15341 0
M  V30 9619 C 924.878 5.75414 -1.36575 0
M  V30 9620 C 924.24 6.69514 -2.1893 0
M  V30 9621 H 920.339 0.753677 0.208555 0
M  V30 9622 H 922.923 1.94466 -0.095439 0
M  V30 9623 H 921.094 3.31938 2.01673 0
M  V30 9624 H 922.826 3.55359 1.93655 0
M  V30 9625 H 919.581 4.72691 0.293264 0
M  V30 9626 H 920.005 6.59012 -1.55025 0
M  V30 9627 H 924.647 4.22584 0.135112 0
M  V30 9628 H 922.365 7.58541 -2.78642 0
M  V30 9629 H 925.951 5.64279 -1.41705 0
M  V30 9630 H 924.831 7.30266 -2.85799 0
M  V30 9631 N 922.334 -0.244713 1.55689 0
M  V30 9632 C 923.282 -1.32276 1.91326 0
M  V30 9633 C 924.276 -1.49714 0.792589 0
M  V30 9634 O 925.482 -1.51163 0.977227 0
M  V30 9635 H 921.857 -0.442979 0.607679 0
M  V30 9636 H 923.828 -0.99486 2.81327 0
M  V30 9637 C 922.577 -2.67077 2.22633 0
M  V30 9638 H 921.9 -2.54458 3.08368 0
M  V30 9639 H 923.34 -3.41378 2.5147 0
M  V30 9640 C 921.799 -3.20335 1.04342 0
M  V30 9641 O 922.329 -4.00633 0.292543 0
M  V30 9642 N 920.535 -2.78392 0.833457 0
M  V30 9643 H 920.082 -2.13202 1.44577 0
M  V30 9644 H 920.04 -3.1437 0.0436713 0
M  V30 9645 N 923.813 -1.49104 -0.510467 0
M  V30 9646 C 925.224 -1.51423 -1.09215 0
M  V30 9647 C 925.575 -0.295035 -1.93969 0
M  V30 9648 O 924.7 0.596064 -2.08029 0
M  V30 9649 C 925.295 -2.74387 -1.98739 0
M  V30 9650 C 923.854 -2.79515 -2.52088 0
M  V30 9651 C 923.001 -2.4521 -1.29488 0
M  V30 9652 H 925.952 -1.55938 -0.294807 0
M  V30 9653 H 925.973 -2.54012 -2.83298 0
M  V30 9654 H 925.485 -3.63105 -1.37026 0
M  V30 9655 H 923.586 -1.95054 -3.17466 0
M  V30 9656 H 923.699 -3.81447 -2.89887 0
M  V30 9657 H 922.063 -1.96785 -1.61703 0
M  V30 9658 H 922.846 -3.36192 -0.694978 0
M  V30 9659 N 925.291 0.760815 -1.38019 0
M  V30 9660 C 926.538 1.51973 -1.3383 0
M  V30 9661 C 926.866 1.9436 0.0738855 0
M  V30 9662 O 926.121 1.65181 1.04946 0
M  V30 9663 C 926.42 2.79024 -2.23339 0
M  V30 9664 C 926.086 2.55636 -3.71431 0
M  V30 9665 C 924.748 2.48966 -4.11788 0
M  V30 9666 C 927.1 2.35018 -4.65205 0
M  V30 9667 C 924.428 2.19684 -5.44018 0
M  V30 9668 C 926.78 2.07258 -5.97685 0
M  V30 9669 C 925.444 1.9904 -6.37134 0
M  V30 9670 H 924.714 0.556108 -0.489719 0
M  V30 9671 H 927.361 0.87545 -1.70318 0
M  V30 9672 H 925.666 3.48065 -1.79883 0
M  V30 9673 H 927.363 3.36951 -2.17405 0
M  V30 9674 H 923.953 2.61695 -3.39432 0
M  V30 9675 H 928.137 2.39154 -4.34878 0
M  V30 9676 H 923.393 2.11825 -5.73533 0
M  V30 9677 H 927.567 1.90307 -6.69893 0
M  V30 9678 H 925.194 1.76115 -7.39519 0
M  V30 9679 N 926.769 1.22769 0.988202 0
M  V30 9680 C 928.017 1.05301 1.725 0
M  V30 9681 C 928.338 -0.412103 1.90596 0
M  V30 9682 O 927.608 -1.29606 1.46898 0
M  V30 9683 H 926.188 0.386658 0.639144 0
M  V30 9684 H 928.85 1.54359 1.18993 0
M  V30 9685 H 927.946 1.53465 2.71763 0
M  V30 9686 N 928.247 -1.18576 1.03814 0
M  V30 9687 C 929.157 -2.25778 0.637311 0
M  V30 9688 C 930.173 -1.7074 -0.335248 0
M  V30 9689 O 931.349 -2.00494 -0.19081 0
M  V30 9690 C 928.414 -3.467 0.00386953 0
M  V30 9691 C 927.475 -4.16881 1.02511 0
M  V30 9692 C 926.708 -5.32031 0.421802 0
M  V30 9693 O 926.931 -5.65142 -0.772699 0
M  V30 9694 O 925.865 -5.90826 1.14925 0
M  V30 9695 H 929.691 -2.62323 1.53037 0
M  V30 9696 H 927.276 -1.25609 0.80887 0
M  V30 9697 H 929.158 -4.19953 -0.348873 0
M  V30 9698 H 927.833 -3.11983 -0.863047 0
M  V30 9699 H 926.74 -3.45707 1.4296 0
M  V30 9700 H 928.073 -4.55592 1.86271 0
M  V30 9701 N 929.725 -0.817259 -1.34754 0
M  V30 9702 C 931.002 -0.325468 -1.92873 0
M  V30 9703 C 931.382 1.18643 -1.74606 0
M  V30 9704 O 930.73 1.9909 -1.1214 0
M  V30 9705 C 930.94 -0.74858 -3.40877 0
M  V30 9706 C 932.288 -0.744165 -4.18028 0
M  V30 9707 O 933.312 -0.690799 -3.49437 0
M  V30 9708 O 932.171 -0.812207 -5.40431 0
M  V30 9709 H 929.265 -0.0876397 -0.822343 0
M  V30 9710 H 931.811 -0.901671 -1.43764 0
M  V30 9711 H 930.583 -1.79017 -3.47949 0
M  V30 9712 H 930.206 -0.147764 -3.97325 0
M  V30 9713 N 931.203 1.46865 -0.571711 0
M  V30 9714 C 932.151 2.31897 0.180714 0
M  V30 9715 C 933.145 1.43815 0.895191 0
M  V30 9716 O 934.351 1.60501 0.814828 0
M  V30 9717 H 930.726 0.748032 0.077148 0
M  V30 9718 H 932.697 2.93185 -0.555432 0
M  V30 9719 C 931.446 3.26766 1.18824 0
M  V30 9720 H 930.769 3.94515 0.64789 0
M  V30 9721 H 932.209 3.89067 1.68532 0
M  V30 9722 C 930.668 2.51325 2.2436 0
M  V30 9723 O 931.198 2.26825 3.31532 0
M  V30 9724 N 929.404 2.12079 1.98673 0
M  V30 9725 H 928.951 2.32204 1.1153 0
M  V30 9726 H 928.909 1.61921 2.69498 0
M  V30 9727 N 932.681 0.308908 1.54543 0
M  V30 9728 C 933.928 -0.298036 2.00295 0
M  V30 9729 C 934.256 -1.53285 1.19724 0
M  V30 9730 O 933.511 -1.93917 0.263551 0
M  V30 9731 C 933.81 -0.691522 3.50646 0
M  V30 9732 C 933.476 0.442454 4.48724 0
M  V30 9733 C 932.138 0.753739 4.7526 0
M  V30 9734 C 934.49 1.20488 5.07082 0
M  V30 9735 C 931.818 1.83044 5.57415 0
M  V30 9736 C 934.17 2.27156 5.90409 0
M  V30 9737 C 932.834 2.58882 6.15253 0
M  V30 9738 H 932.104 -0.109059 0.73293 0
M  V30 9739 H 934.751 0.429647 1.86618 0
M  V30 9740 H 933.056 -1.49941 3.61974 0
M  V30 9741 H 934.753 -1.17244 3.83477 0
M  V30 9742 H 931.343 0.189744 4.2818 0
M  V30 9743 H 935.527 0.977653 4.86575 0
M  V30 9744 H 930.783 2.08088 5.749 0
M  V30 9745 H 934.957 2.86687 6.34652 0
M  V30 9746 H 932.584 3.42443 6.78702 0
M  V30 9747 N 934.159 -1.57557 0.0367827 0
M  V30 9748 C 935.384 -1.96828 -0.653707 0
M  V30 9749 C 935.809 -0.913559 -1.64425 0
M  V30 9750 O 935.167 0.124749 -1.8087 0
M  V30 9751 C 935.215 -3.35189 -1.32969 0
M  V30 9752 O 934.319 -3.32095 -2.44513 0
M  V30 9753 H 933.66 -0.64157 -0.171124 0
M  V30 9754 H 936.19 -2.04351 0.100912 0
M  V30 9755 H 936.2 -3.71593 -1.68472 0
M  V30 9756 H 934.875 -4.11496 -0.603654 0
M  V30 9757 H 933.452 -3.07418 -2.11065 0
M  V30 9758 N 935.637 0.236453 -1.55816 0
M  V30 9759 C 936.584 1.29289 -1.91188 0
M  V30 9760 C 937.554 1.47315 -0.767301 0
M  V30 9761 O 938.739 1.61128 -1.02189 0
M  V30 9762 C 935.879 2.64126 -2.22107 0
M  V30 9763 C 934.992 2.54022 -3.49423 0
M  V30 9764 C 934.127 3.81282 -3.69861 0
M  V30 9765 C 933.166 3.65839 -4.90743 0
M  V30 9766 N 932.303 4.85014 -5.07647 0
M  V30 9767 H 937.143 0.98424 -2.81277 0
M  V30 9768 H 934.68 0.474722 -1.39229 0
M  V30 9769 H 936.638 3.42626 -2.3804 0
M  V30 9770 H 935.268 2.93118 -1.35209 0
M  V30 9771 H 934.32 1.67036 -3.41765 0
M  V30 9772 H 935.632 2.38525 -4.38072 0
M  V30 9773 H 934.786 4.68226 -3.8581 0
M  V30 9774 H 933.525 3.99688 -2.79465 0
M  V30 9775 H 932.53 2.77279 -4.74759 0
M  V30 9776 H 933.755 3.48918 -5.82609 0
M  V30 9777 H 931.701 5.03762 -4.20191 0
M  V30 9778 H 931.618 4.72188 -5.90402 0
M  V30 9779 H 932.886 5.73427 -5.28017 0
M  V30 9780 N 937.115 1.49373 0.502552 0
M  V30 9781 C 938.045 1.68839 1.61294 0
M  V30 9782 C 939.026 0.537096 1.61398 0
M  V30 9783 O 940.211 0.772764 1.78163 0
M  V30 9784 C 937.341 1.75347 2.99784 0
M  V30 9785 C 936.295 2.90251 3.14545 0
M  V30 9786 C 935.621 2.8187 4.54371 0
M  V30 9787 C 936.921 4.31207 2.94717 0
M  V30 9788 H 938.615 2.61803 1.45257 0
M  V30 9789 H 936.161 1.25987 0.697371 0
M  V30 9790 H 938.114 1.87552 3.77362 0
M  V30 9791 H 936.838 0.789814 3.16906 0
M  V30 9792 H 935.497 2.77646 2.39392 0
M  V30 9793 H 935.145 1.83416 4.68367 0
M  V30 9794 H 934.845 3.5899 4.65188 0
M  V30 9795 H 936.369 2.96081 5.34012 0
M  V30 9796 H 937.783 4.44501 3.62065 0
M  V30 9797 H 936.18 5.09536 3.17007 0
M  V30 9798 H 937.25 4.45759 1.90857 0
M  V30 9799 N 938.594 -0.753485 1.38421 0
M  V30 9800 C 939.822 -1.54272 1.37868 0
M  V30 9801 C 940.237 -1.88774 -0.0315155 0
M  V30 9802 O 939.594 -1.52785 -0.998148 0
M  V30 9803 C 939.645 -2.84179 2.23438 0
M  V30 9804 O 939.366 -2.51149 3.58965 0
M  V30 9805 C 940.867 -3.78316 2.31067 0
M  V30 9806 H 938.087 -0.47735 0.47157 0
M  V30 9807 H 940.631 -0.932509 1.82001 0
M  V30 9808 H 938.786 -3.41577 1.82767 0
M  V30 9809 H 939.2 -3.34466 4.04021 0
M  V30 9810 H 940.674 -4.66418 2.95226 0
M  V30 9811 H 941.151 -4.18757 1.32436 0
M  V30 9812 H 941.757 -3.26842 2.72129 0
M  V30 9813 N 940.072 -1.23292 -0.981677 0
M  V30 9814 C 940.982 -1.02964 -2.10798 0
M  V30 9815 C 941.998 0.0254674 -1.73981 0
M  V30 9816 O 943.174 -0.169706 -2.00684 0
M  V30 9817 C 940.239 -0.621934 -3.41076 0
M  V30 9818 C 939.3 -1.75194 -3.91926 0
M  V30 9819 C 938.533 -1.36359 -5.15986 0
M  V30 9820 O 938.756 -0.247265 -5.69864 0
M  V30 9821 O 937.69 -2.18421 -5.60871 0
M  V30 9822 H 941.516 -1.97354 -2.30836 0
M  V30 9823 H 939.101 -1.01986 -1.09175 0
M  V30 9824 H 940.983 -0.405446 -4.19445 0
M  V30 9825 H 939.658 0.29299 -3.22371 0
M  V30 9826 H 938.565 -2.02305 -3.1468 0
M  V30 9827 H 939.898 -2.64513 -4.15083 0
M  V30 9828 N 941.55 1.18024 -1.04442 0
M  V30 9829 C 942.46 2.25436 -0.649276 0
M  V30 9830 C 943.476 1.70915 0.326189 0
M  V30 9831 O 944.652 2.00592 0.180174 0
M  V30 9832 C 941.717 3.46693 -0.0222558 0
M  V30 9833 C 940.778 4.16332 -1.0472 0
M  V30 9834 C 940.011 5.31799 -0.450011 0
M  V30 9835 O 940.234 5.65544 0.742717 0
M  V30 9836 O 939.168 5.90209 -1.18056 0
M  V30 9837 H 942.994 2.61508 -1.54426 0
M  V30 9838 H 940.579 1.25178 -0.81552 0
M  V30 9839 H 942.461 4.20132 0.326597 0
M  V30 9840 H 941.136 3.12436 0.84649 0
M  V30 9841 H 940.043 3.44944 -1.44792 0
M  V30 9842 H 941.376 4.54598 -1.88684 0
M  V30 9843 N 943.028 0.824394 1.34319 0
M  V30 9844 C 943.938 0.24932 2.33271 0
M  V30 9845 C 944.954 -0.617066 1.62691 0
M  V30 9846 O 946.13 -0.524616 1.94447 0
M  V30 9847 C 943.195 -0.578094 3.41846 0
M  V30 9848 C 942.256 0.310866 4.28173 0
M  V30 9849 C 941.489 -0.477153 5.31563 0
M  V30 9850 O 941.712 -1.71028 5.44156 0
M  V30 9851 O 940.646 0.141287 6.01734 0
M  V30 9852 H 944.472 1.06837 2.84288 0
M  V30 9853 H 942.057 0.58657 1.37403 0
M  V30 9854 H 943.939 -1.04878 4.0814 0
M  V30 9855 H 942.614 -1.37444 2.93071 0
M  V30 9856 H 941.521 0.829081 3.64797 0
M  V30 9857 H 942.854 1.07161 4.80393 0
M  V30 9858 N 944.506 -1.46559 0.579492 0
M  V30 9859 C 945.436 -2.33059 -0.143437 0
M  V30 9860 C 946.417 -1.4515 -0.886868 0
M  V30 9861 O 947.602 -1.73973 -0.862961 0
M  V30 9862 C 944.732 -3.27364 -1.15973 0
M  V30 9863 C 943.686 -4.24689 -0.531348 0
M  V30 9864 C 943.012 -5.08479 -1.65388 0
M  V30 9865 C 944.312 -5.1961 0.529391 0
M  V30 9866 H 946.006 -2.93753 0.578762 0
M  V30 9867 H 943.552 -1.41256 0.279775 0
M  V30 9868 H 945.505 -3.86732 -1.67382 0
M  V30 9869 H 944.229 -2.64771 -1.91217 0
M  V30 9870 H 942.888 -3.6658 -0.0383749 0
M  V30 9871 H 942.536 -4.42273 -2.3959 0
M  V30 9872 H 942.236 -5.74387 -1.23909 0
M  V30 9873 H 943.76 -5.70709 -2.17079 0
M  V30 9874 H 945.174 -5.73212 0.100506 0
M  V30 9875 H 943.571 -5.93843 0.86432 0
M  V30 9876 H 944.641 -4.63737 1.4169 0
M  V30 9877 N 945.984 -0.3171 -1.54377 0
M  V30 9878 C 946.914 0.544623 -2.2706 0
M  V30 9879 C 947.895 1.12469 -1.27611 0
M  V30 9880 O 949.08 1.15103 -1.56413 0
M  V30 9881 C 946.21 1.70879 -3.02353 0
M  V30 9882 C 945.164 1.25833 -4.09084 0
M  V30 9883 C 944.49 2.50894 -4.72182 0
M  V30 9884 C 945.79 0.377876 -5.20931 0
M  V30 9885 H 947.484 -0.0616372 -2.99337 0
M  V30 9886 H 945.03 -0.0310848 -1.43966 0
M  V30 9887 H 946.983 2.31787 -3.51927 0
M  V30 9888 H 945.707 2.34155 -2.27682 0
M  V30 9889 H 944.366 0.672228 -3.60384 0
M  V30 9890 H 944.014 3.12518 -3.94134 0
M  V30 9891 H 943.714 2.21447 -5.44275 0
M  V30 9892 H 945.238 3.12575 -5.24528 0
M  V30 9893 H 946.652 0.893056 -5.66302 0
M  V30 9894 H 945.049 0.176474 -5.9984 0
M  V30 9895 H 946.119 -0.592943 -4.81261 0
M  V30 9896 N 947.462 1.57535 -0.0451378 0
M  V30 9897 C 948.739 1.83785 0.669523 0
M  V30 9898 C 949.119 0.932331 1.89396 0
M  V30 9899 O 948.467 -0.00813229 2.28499 0
M  V30 9900 C 948.677 3.33376 1.03255 0
M  V30 9901 C 950.025 4.00243 1.41741 0
M  V30 9902 O 951.049 3.37965 1.12507 0
M  V30 9903 O 949.908 5.10038 1.96275 0
M  V30 9904 H 947.002 0.758342 0.329919 0
M  V30 9905 H 949.548 1.69538 -0.0740415 0
M  V30 9906 H 948.32 3.90965 0.161777 0
M  V30 9907 H 947.943 3.52787 1.83376 0
M  V30 9908 N 948.94 -0.228186 1.55939 0
M  V30 9909 C 950.356 -0.577583 1.48782 0
M  V30 9910 C 950.556 -1.87461 0.738972 0
M  V30 9911 O 949.612 -2.50988 0.275929 0
M  V30 9912 C 950.925 -0.662961 2.93301 0
M  V30 9913 C 952.473 -0.754035 3.03782 0
M  V30 9914 C 952.948 -0.870815 4.49645 0
M  V30 9915 N 954.439 -0.935208 4.53661 0
M  V30 9916 C 955.174 -1.04516 5.63794 0
M  V30 9917 N 954.67 -1.11948 6.83696 0
M  V30 9918 N 956.463 -1.07978 5.51631 0
M  V30 9919 H 948.614 0.623018 2.03057 0
M  V30 9920 H 950.877 0.217692 0.922667 0
M  V30 9921 H 950.583 0.220375 3.51009 0
M  V30 9922 H 950.457 -1.52876 3.44831 0
M  V30 9923 H 952.844 -1.62782 2.46143 0
M  V30 9924 H 952.925 0.137301 2.55431 0
M  V30 9925 H 952.569 -0.0015186 5.079 0
M  V30 9926 H 952.499 -1.77747 4.95695 0
M  V30 9927 H 954.99 -0.88836 3.6731 0
M  V30 9928 H 955.303 -1.20297 7.6338 0
M  V30 9929 H 953.648 -1.08873 6.8642 0
M  V30 9930 H 956.839 -1.01833 4.56889 0
M  V30 9931 H 957.012 -1.16202 6.37496 0
M  V30 9932 N 950.418 -1.49637 -0.494624 0
M  V30 9933 C 951.328 -1.69522 -1.62172 0
M  V30 9934 C 952.344 -0.577894 -1.64123 0
M  V30 9935 O 953.52 -0.853382 -1.82426 0
M  V30 9936 C 950.585 -1.7633 -2.9851 0
M  V30 9937 C 949.646 -2.99944 -3.07135 0
M  V30 9938 C 948.879 -3.06419 -4.36971 0
M  V30 9939 O 949.102 -2.20312 -5.26136 0
M  V30 9940 O 948.036 -3.9894 -4.507 0
M  V30 9941 H 951.862 -2.65017 -1.48324 0
M  V30 9942 H 949.447 -1.33454 -0.671603 0
M  V30 9943 H 951.329 -1.83125 -3.7953 0
M  V30 9944 H 950.004 -0.840155 -3.12607 0
M  V30 9945 H 948.911 -2.98664 -2.2528 0
M  V30 9946 H 950.244 -3.9176 -2.97968 0
M  V30 9947 N 951.896 0.746133 -1.38819 0
M  V30 9948 C 953.143 1.50545 -1.35434 0
M  V30 9949 C 953.471 1.94427 0.0532669 0
M  V30 9950 O 952.726 1.66285 1.03188 0
M  V30 9951 C 953.025 2.76639 -2.26286 0
M  V30 9952 C 952.691 2.51682 -3.74122 0
M  V30 9953 C 951.353 2.44584 -4.14406 0
M  V30 9954 C 953.705 2.30071 -4.67672 0
M  V30 9955 C 951.033 2.13902 -5.46318 0
M  V30 9956 C 953.385 2.00907 -5.99849 0
M  V30 9957 C 952.049 1.92271 -6.39209 0
M  V30 9958 H 951.319 0.550883 -0.49559 0
M  V30 9959 H 953.966 0.857337 -1.71237 0
M  V30 9960 H 952.271 3.46138 -1.83564 0
M  V30 9961 H 953.968 3.34626 -2.20967 0
M  V30 9962 H 950.558 2.5808 -3.42188 0
M  V30 9963 H 954.742 2.34528 -4.3739 0
M  V30 9964 H 949.998 2.0573 -5.75748 0
M  V30 9965 H 954.172 1.83191 -6.71874 0
M  V30 9966 H 951.799 1.68261 -7.41345 0
M  V30 9967 N 953.375 1.23811 0.975125 0
M  V30 9968 C 954.652 0.9815 1.69192 0
M  V30 9969 C 955.032 -0.498373 2.05133 0
M  V30 9970 O 954.38 -1.47087 1.74864 0
M  V30 9971 C 954.59 1.89701 2.92941 0
M  V30 9972 C 955.938 2.16357 3.65342 0
M  V30 9973 O 956.962 1.87293 3.02985 0
M  V30 9974 O 955.821 2.65675 4.77576 0
M  V30 9975 H 952.915 0.370599 0.739314 0
M  V30 9976 H 955.461 1.34876 1.02988 0
M  V30 9977 H 954.233 2.89719 2.63018 0
M  V30 9978 H 953.856 1.53244 3.66881 0
M  V30 9979 N 954.853 -1.17469 1.05066 0
M  V30 9980 C 955.783 -2.23635 0.671552 0
M  V30 9981 C 956.764 -1.66867 -0.33006 0
M  V30 9982 O 957.949 -1.93084 -0.207933 0
M  V30 9983 C 955.079 -3.47272 0.0441845 0
M  V30 9984 C 954.033 -4.16854 0.97042 0
M  V30 9985 C 953.359 -5.34299 0.206998 0
M  V30 9986 C 954.659 -4.69225 2.29401 0
M  V30 9987 H 956.353 -2.55602 1.55911 0
M  V30 9988 H 953.899 -1.2286 0.751101 0
M  V30 9989 H 955.852 -4.20756 -0.23282 0
M  V30 9990 H 954.576 -3.14568 -0.878311 0
M  V30 9991 H 953.235 -3.4528 1.23197 0
M  V30 9992 H 952.883 -4.97846 -0.718222 0
M  V30 9993 H 952.583 -5.81792 0.82416 0
M  V30 9994 H 954.107 -6.10568 -0.0627525 0
M  V30 9995 H 955.521 -5.34353 2.077 0
M  V30 9996 H 953.918 -5.27291 2.86503 0
M  V30 9997 H 954.988 -3.86102 2.93348 0
M  V30 9998 N 956.331 -0.831506 -1.3388 0
M  V30 9999 C 957.261 -0.274378 -2.31882 0
M  V30 10000 C 958.242 0.613872 -1.58637 0
M  V30 10001 O 959.427 0.538961 -1.86571 0
M  V30 10002 C 956.557 0.557498 -3.42796 0
M  V30 10003 C 955.511 -0.234337 -4.27358 0
M  V30 10004 C 954.837 0.720825 -5.29819 0
M  V30 10005 C 956.137 -1.44732 -5.01847 0
M  V30 10006 H 957.831 -1.09322 -2.78728 0
M  V30 10007 H 955.377 -0.527136 -1.34005 0
M  V30 10008 H 957.33 0.957501 -4.10378 0
M  V30 10009 H 956.054 1.40947 -2.94621 0
M  V30 10010 H 954.713 -0.61581 -3.61391 0
M  V30 10011 H 954.361 1.569 -4.77903 0
M  V30 10012 H 954.061 0.195171 -5.87276 0
M  V30 10013 H 955.585 1.1185 -6.00268 0
M  V30 10014 H 956.999 -1.12087 -5.62236 0
M  V30 10015 H 955.396 -1.90923 -5.68919 0
M  V30 10016 H 956.466 -2.22099 -4.31045 0
M  V30 10017 N 957.809 1.4625 -0.587256 0
M  V30 10018 C 959.225 1.57641 -0.249284 0
M  V30 10019 C 959.425 1.58169 1.24839 0
M  V30 10020 O 958.481 1.50109 2.03036 0
M  V30 10021 C 959.794 2.86837 -0.902509 0
M  V30 10022 C 961.342 3.00476 -0.876524 0
M  V30 10023 C 961.817 4.32414 -1.50938 0
M  V30 10024 N 963.308 4.39124 -1.47392 0
M  V30 10025 C 964.043 5.39838 -1.93293 0
M  V30 10026 N 963.539 6.47202 -2.47188 0
M  V30 10027 N 965.332 5.31068 -1.84183 0
M  V30 10028 H 957.483 1.44151 -1.55994 0
M  V30 10029 H 959.746 0.687905 -0.652297 0
M  V30 10030 H 959.452 2.92274 -1.95624 0
M  V30 10031 H 959.326 3.74927 -0.413466 0
M  V30 10032 H 961.713 2.94618 0.168601 0
M  V30 10033 H 961.794 2.1385 -1.40363 0
M  V30 10034 H 961.438 4.3903 -2.55372 0
M  V30 10035 H 961.368 5.17823 -0.957455 0
M  V30 10036 H 963.859 3.62138 -1.08002 0
M  V30 10037 H 964.172 7.20269 -2.80058 0
M  V30 10038 H 962.517 6.48009 -2.51216 0
M  V30 10039 H 965.708 4.46095 -1.41833 0
M  V30 10040 H 965.881 6.09414 -2.2027 0
M  V30 10041 N 959.287 0.325282 1.54207 0
M  V30 10042 C 960.512 -0.281418 2.05482 0
M  V30 10043 C 960.937 -1.44869 1.19977 0
M  V30 10044 O 960.295 -1.80088 0.209275 0
M  V30 10045 C 960.343 -0.692029 3.53897 0
M  V30 10046 O 959.447 -1.7942 3.71325 0
M  V30 10047 H 958.788 -0.0504872 0.662078 0
M  V30 10048 H 961.318 0.474191 1.99029 0
M  V30 10049 H 961.328 -0.974219 3.96198 0
M  V30 10050 H 960.003 0.161709 4.15586 0
M  V30 10051 H 958.58 -1.51069 3.40929 0
M  V30 10052 N 960.765 -1.57509 0.0534917 0
M  V30 10053 C 961.713 -2.12851 -0.937931 0
M  V30 10054 C 962.707 -1.06088 -1.32067 0
M  V30 10055 O 963.913 -1.24494 -1.30005 0
M  V30 10056 H 960.288 -0.680357 -0.320342 0
M  V30 10057 H 962.259 -2.95047 -0.446077 0
M  V30 10058 C 961.008 -2.69034 -2.20264 0
M  V30 10059 H 960.331 -3.50848 -1.91693 0
M  V30 10060 H 961.771 -3.11375 -2.87788 0
M  V30 10061 C 960.23 -1.62919 -2.94888 0
M  V30 10062 O 960.76 -1.04334 -3.87914 0
M  V30 10063 N 958.966 -1.34385 -2.57661 0
M  V30 10064 H 958.513 -1.82214 -1.82088 0
M  V30 10065 H 958.471 -0.636149 -3.07897 0
M  V30 10066 N 962.243 0.219913 -1.56058 0
M  V30 10067 C 963.659 0.569685 -1.49086 0
M  V30 10068 C 963.859 1.87066 -0.748903 0
M  V30 10069 O 962.915 2.50838 -0.289235 0
M  V30 10070 C 964.228 0.647397 -2.93648 0
M  V30 10071 C 965.776 0.737914 -3.04177 0
M  V30 10072 C 966.251 0.846957 -4.50101 0
M  V30 10073 N 967.742 0.911136 -4.5415 0
M  V30 10074 C 968.477 1.01525 -5.64341 0
M  V30 10075 N 967.973 1.0832 -6.8428 0
M  V30 10076 N 969.766 1.05051 -5.52196 0
M  V30 10077 H 961.917 -0.633778 -2.02724 0
M  V30 10078 H 964.18 -0.222583 -0.921499 0
M  V30 10079 H 963.886 -0.238987 -3.50887 0
M  V30 10080 H 963.76 1.51046 -3.45637 0
M  V30 10081 H 966.147 1.61474 -2.47002 0
M  V30 10082 H 966.228 -0.150845 -2.55355 0
M  V30 10083 H 965.872 -0.0254166 -5.07894 0
M  V30 10084 H 965.802 1.75116 -4.96631 0
M  V30 10085 H 968.293 0.868869 -3.67776 0
M  V30 10086 H 968.606 1.16247 -7.64007 0
M  V30 10087 H 966.951 1.05231 -6.86987 0
M  V30 10088 H 970.142 0.994086 -4.57423 0
M  V30 10089 H 970.315 1.12819 -6.38103 0
M  V30 10090 N 963.721 1.49897 0.486681 0
M  V30 10091 C 964.651 1.7054 1.59494 0
M  V30 10092 C 965.632 0.554184 1.60819 0
M  V30 10093 O 966.817 0.791617 1.77333 0
M  V30 10094 C 963.947 1.78517 2.97908 0
M  V30 10095 C 962.901 2.93571 3.11449 0
M  V30 10096 C 962.227 2.86674 4.51356 0
M  V30 10097 C 963.527 4.34308 2.90127 0
M  V30 10098 H 965.221 2.63329 1.42472 0
M  V30 10099 H 962.767 1.2672 0.683969 0
M  V30 10100 H 964.72 1.91544 3.75352 0
M  V30 10101 H 963.444 0.823381 3.16051 0
M  V30 10102 H 962.103 2.80169 2.36433 0
M  V30 10103 H 961.751 1.88373 4.66395 0
M  V30 10104 H 961.451 3.63903 4.61355 0
M  V30 10105 H 962.975 3.01728 5.30841 0
M  V30 10106 H 964.389 4.48317 3.57331 0
M  V30 10107 H 962.786 5.12869 3.11585 0
M  V30 10108 H 963.856 4.47759 1.86119 0
M  V30 10109 N 965.199 -0.738761 1.39212 0
M  V30 10110 C 966.109 -1.88324 1.39897 0
M  V30 10111 C 967.125 -1.71494 0.294229 0
M  V30 10112 O 968.301 -1.94162 0.535087 0
M  V30 10113 C 965.366 -3.23871 1.23726 0
M  V30 10114 C 964.427 -3.53121 2.44139 0
M  V30 10115 C 963.66 -4.82202 2.2873 0
M  V30 10116 O 963.883 -5.55649 1.28879 0
M  V30 10117 O 962.817 -5.11265 3.17634 0
M  V30 10118 H 966.643 -1.90701 2.36362 0
M  V30 10119 H 964.228 -0.886067 1.20288 0
M  V30 10120 H 966.11 -4.04882 1.16826 0
M  V30 10121 H 964.785 -3.22274 0.303551 0
M  V30 10122 H 963.692 -2.72212 2.56615 0
M  V30 10123 H 965.025 -3.59495 3.36191 0
M  V30 10124 N 966.677 -1.24326 -0.968545 0
M  V30 10125 C 967.587 -1.05194 -2.09694 0
M  V30 10126 C 968.603 0.00701291 -1.73999 0
M  V30 10127 O 969.779 -0.190981 -2.00492 0
M  V30 10128 C 966.844 -0.658075 -3.40397 0
M  V30 10129 C 965.905 -1.79341 -3.90045 0
M  V30 10130 C 965.138 -1.41824 -5.14511 0
M  V30 10131 O 965.361 -0.307693 -5.69569 0
M  V30 10132 O 964.295 -2.24358 -5.58522 0
M  V30 10133 H 968.121 -1.99791 -2.2873 0
M  V30 10134 H 965.706 -1.03138 -1.08088 0
M  V30 10135 H 967.588 -0.449911 -4.18991 0
M  V30 10136 H 966.263 0.258782 -3.22664 0
M  V30 10137 H 965.17 -2.05632 -3.12516 0
M  V30 10138 H 966.503 -2.68901 -4.12254 0
M  V30 10139 N 968.156 1.1691 -1.05688 0
M  V30 10140 C 969.572 1.39288 -0.779167 0
M  V30 10141 C 969.772 1.91587 0.624231 0
M  V30 10142 O 968.828 2.11072 1.38582 0
M  V30 10143 C 970.141 2.37914 -1.83895 0
M  V30 10144 C 971.689 2.51611 -1.86175 0
M  V30 10145 C 972.164 3.53514 -2.9119 0
M  V30 10146 N 973.655 3.61036 -2.90184 0
M  V30 10147 C 974.39 4.39657 -3.68088 0
M  V30 10148 N 973.886 5.21752 -4.55793 0
M  V30 10149 N 975.679 4.3458 -3.56507 0
M  V30 10150 H 967.83 0.81296 -1.96226 0
M  V30 10151 H 970.093 0.419818 -0.849975 0
M  V30 10152 H 969.799 2.06568 -2.84645 0
M  V30 10153 H 969.673 3.37483 -1.68479 0
M  V30 10154 H 972.06 2.82264 -0.86087 0
M  V30 10155 H 972.141 1.52099 -2.05668 0
M  V30 10156 H 971.785 3.23599 -3.91467 0
M  V30 10157 H 971.715 4.52742 -2.68947 0
M  V30 10158 H 974.206 3.02428 -2.26596 0
M  V30 10159 H 974.519 5.78939 -5.11907 0
M  V30 10160 H 972.864 5.21116 -4.59851 0
M  V30 10161 H 976.055 3.69501 -2.87379 0
M  V30 10162 H 976.228 4.95607 -4.17466 0
M  V30 10163 N 969.634 0.838594 1.33437 0
M  V30 10164 C 970.597 0.276843 2.27522 0
M  V30 10165 C 971.597 -0.554275 1.50945 0
M  V30 10166 O 972.787 -0.368107 1.70266 0
M  V30 10167 C 969.919 -0.610036 3.35397 0
M  V30 10168 H 971.112 1.10705 2.78719 0
M  V30 10169 H 968.665 0.611657 1.43835 0
M  V30 10170 H 969.4 -1.46269 2.89441 0
M  V30 10171 H 969.185 -0.0153615 3.92097 0
M  V30 10172 H 970.675 -0.996368 4.05539 0
M  V30 10173 N 971.112 -1.45937 0.595003 0
M  V30 10174 C 972.337 -2.07207 0.0894416 0
M  V30 10175 C 972.762 -1.43884 -1.21157 0
M  V30 10176 O 972.12 -0.526998 -1.73472 0
M  V30 10177 C 972.168 -3.60565 -0.0499828 0
M  V30 10178 O 971.272 -3.97364 -1.10342 0
M  V30 10179 H 970.613 -0.660471 0.0683627 0
M  V30 10180 H 973.143 -1.87386 0.82144 0
M  V30 10181 H 973.153 -4.0722 -0.252234 0
M  V30 10182 H 971.828 -4.06044 0.90006 0
M  V30 10183 H 970.405 -3.62401 -0.878645 0
M  V30 10184 N 972.59 -0.333456 -1.54032 0
M  V30 10185 C 973.815 0.270517 -2.05628 0
M  V30 10186 C 974.24 1.44231 -1.20744 0
M  V30 10187 O 973.598 1.79975 -0.218822 0
M  V30 10188 C 973.646 0.673251 -3.54259 0
M  V30 10189 O 972.75 1.77448 -3.72271 0
M  V30 10190 H 972.091 0.0469753 -0.662336 0
M  V30 10191 H 974.621 -0.484739 -1.98775 0
M  V30 10192 H 974.631 0.953194 -3.96709 0
M  V30 10193 H 973.306 -0.183747 -4.15494 0
M  V30 10194 H 971.883 1.49259 -3.41725 0
M  V30 10195 N 974.068 1.57479 -0.061844 0
M  V30 10196 C 975.345 1.84484 0.649993 0
M  V30 10197 C 975.725 0.952366 1.88396 0
M  V30 10198 O 975.073 0.0161035 2.28494 0
M  V30 10199 C 975.283 3.34452 0.997133 0
M  V30 10200 C 976.631 4.01724 1.37488 0
M  V30 10201 O 977.655 3.3914 1.08916 0
M  V30 10202 O 976.514 5.12091 1.90854 0
M  V30 10203 H 973.608 0.761798 0.321858 0
M  V30 10204 H 976.154 1.6945 -0.0920192 0
M  V30 10205 H 974.926 3.91115 0.120301 0
M  V30 10206 H 974.549 3.54713 1.79624 0
M  V30 10207 N 975.546 -0.211634 1.56173 0
M  V30 10208 C 976.493 -1.26231 1.93221 0
M  V30 10209 C 977.463 -1.46076 0.790641 0
M  V30 10210 O 978.648 -1.59482 1.04739 0
M  V30 10211 C 975.788 -2.60559 2.26281 0
M  V30 10212 C 974.901 -2.48431 3.5342 0
M  V30 10213 C 974.036 -3.7535 3.7588 0
M  V30 10214 C 973.075 -3.57985 4.96501 0
M  V30 10215 N 972.212 -4.76877 5.15299 0
M  V30 10216 H 977.052 -0.939367 2.82807 0
M  V30 10217 H 974.589 -0.452511 1.39967 0
M  V30 10218 H 976.547 -3.38796 2.43461 0
M  V30 10219 H 975.177 -2.9093 1.39855 0
M  V30 10220 H 974.229 -1.61577 3.44379 0
M  V30 10221 H 975.541 -2.31526 4.41811 0
M  V30 10222 H 974.695 -4.62029 3.9321 0
M  V30 10223 H 973.434 -3.95191 2.85788 0
M  V30 10224 H 972.439 -2.69691 4.79111 0
M  V30 10225 H 973.664 -3.39605 5.88086 0
M  V30 10226 H 971.61 -4.97013 4.28152 0
M  V30 10227 H 971.527 -4.62735 5.9784 0
M  V30 10228 H 972.795 -5.64954 5.37073 0
M  V30 10229 N 977.024 -1.50153 -0.478725 0
M  V30 10230 C 977.972 -1.68975 -1.59844 0
M  V30 10231 C 978.966 -0.555591 -1.6003 0
M  V30 10232 O 980.172 -0.735875 -1.64271 0
M  V30 10233 H 976.547 -0.533211 -0.530274 0
M  V30 10234 H 978.518 -2.62917 -1.41128 0
M  V30 10235 C 977.267 -1.79409 -2.97838 0
M  V30 10236 H 976.59 -2.66066 -2.98411 0
M  V30 10237 H 978.03 -1.96606 -3.75662 0
M  V30 10238 C 976.489 -0.543927 -3.3248 0
M  V30 10239 O 977.019 0.320376 -4.0042 0
M  V30 10240 N 975.225 -0.400217 -2.87831 0
M  V30 10241 H 974.772 -1.10458 -2.32716 0
M  V30 10242 H 974.73 0.435111 -3.11375 0
M  V30 10243 N 978.502 0.731368 -1.39602 0
M  V30 10244 C 979.748 1.49321 -1.37227 0
M  V30 10245 C 980.081 1.94176 0.0306502 0
M  V30 10246 O 979.356 1.67046 0.996294 0
M  V30 10247 C 979.639 2.73035 -2.34784 0
M  V30 10248 C 979.492 2.34176 -3.84033 0
M  V30 10249 C 980.811 3.75146 -2.30116 0
M  V30 10250 H 977.93 0.541652 -0.499783 0
M  V30 10251 H 980.572 0.835968 -1.70621 0
M  V30 10252 H 978.722 3.29114 -2.06437 0
M  V30 10253 H 980.394 1.83701 -4.23145 0
M  V30 10254 H 978.637 1.66361 -4.00633 0
M  V30 10255 H 979.308 3.22786 -4.47787 0
M  V30 10256 H 981.784 3.28661 -2.55189 0
M  V30 10257 H 980.66 4.5937 -3.00451 0
M  V30 10258 H 980.921 4.22326 -1.30741 0
M  V30 10259 N 979.98 1.24838 0.961938 0
M  V30 10260 C 981.257 0.99939 1.68141 0
M  V30 10261 C 981.637 -0.476588 2.0565 0
M  V30 10262 O 980.985 -1.45224 1.76415 0
M  V30 10263 C 981.195 1.92797 2.90913 0
M  V30 10264 C 982.543 2.20219 3.63027 0
M  V30 10265 O 983.567 1.90496 3.00981 0
M  V30 10266 O 982.426 2.70725 4.74731 0
M  V30 10267 H 979.52 0.37842 0.735342 0
M  V30 10268 H 982.066 1.35961 1.01551 0
M  V30 10269 H 980.838 2.92492 2.59931 0
M  V30 10270 H 980.461 1.57127 3.65235 0
M  V30 10271 N 981.458 -1.16348 1.06306 0
M  V30 10272 C 982.683 -1.91323 0.800636 0
M  V30 10273 C 983.108 -1.7691 -0.639105 0
M  V30 10274 O 982.466 -1.0945 -1.44535 0
M  V30 10275 C 982.514 -3.40038 1.20027 0
M  V30 10276 O 981.618 -4.11003 0.339142 0
M  V30 10277 H 980.959 -0.596057 0.292595 0
M  V30 10278 H 983.489 -1.47406 1.41889 0
M  V30 10279 H 983.499 -3.90808 1.17188 0
M  V30 10280 H 982.174 -3.49848 2.24898 0
M  V30 10281 H 980.751 -3.70423 0.42911 0
M  V30 10282 N 982.937 -0.845659 -1.3299 0
M  V30 10283 C 983.867 -0.298957 -2.31578 0
M  V30 10284 C 984.848 0.597012 -1.59279 0
M  V30 10285 O 986.033 0.519142 -1.87132 0
M  V30 10286 C 983.163 0.521109 -3.43368 0
M  V30 10287 C 982.117 -0.279651 -4.27085 0
M  V30 10288 C 981.443 0.664591 -5.30554 0
M  V30 10289 C 982.743 -1.50046 -5.00283 0
M  V30 10290 H 984.437 -1.12272 -2.77552 0
M  V30 10291 H 981.983 -0.54132 -1.33438 0
M  V30 10292 H 983.936 0.913921 -4.1137 0
M  V30 10293 H 982.66 1.37815 -2.96099 0
M  V30 10294 H 981.319 -0.654106 -3.60717 0
M  V30 10295 H 980.967 1.51822 -4.79541 0
M  V30 10296 H 980.667 0.132871 -5.8745 0
M  V30 10297 H 982.191 1.05477 -6.01421 0
M  V30 10298 H 983.605 -1.18044 -5.61016 0
M  V30 10299 H 982.002 -1.96946 -5.66862 0
M  V30 10300 H 983.072 -2.26659 -4.28665 0
M  V30 10301 N 984.415 1.45619 -0.602734 0
M  V30 10302 C 985.64 2.07157 -0.100429 0
M  V30 10303 C 986.065 1.44524 1.20393 0
M  V30 10304 O 985.423 0.536191 1.7319 0
M  V30 10305 C 985.471 3.60587 0.0308604 0
M  V30 10306 O 984.575 3.97944 1.08234 0
M  V30 10307 H 983.916 0.6601 -0.0718643 0
M  V30 10308 H 986.446 1.86948 -0.831366 0
M  V30 10309 H 986.456 4.07348 0.230634 0
M  V30 10310 H 985.131 4.05561 -0.921581 0
M  V30 10311 H 983.708 3.62862 0.859414 0
M  V30 10312 N 985.893 0.34162 1.53853 0
M  V30 10313 C 986.856 -0.503541 2.236 0
M  V30 10314 C 987.856 -1.02912 1.23554 0
M  V30 10315 O 989.046 -0.918678 1.48007 0
M  V30 10316 C 986.178 -1.70126 2.95415 0
M  V30 10317 H 987.371 0.106437 2.99711 0
M  V30 10318 H 984.924 0.0929408 1.56023 0
M  V30 10319 H 985.659 -2.34999 2.23486 0
M  V30 10320 H 985.444 -1.33161 3.68796 0
M  V30 10321 H 986.934 -2.30077 3.48503 0
M  V30 10322 N 987.371 -1.57444 0.0701946 0
M  V30 10323 C 988.782 -1.80875 -0.462709 0
M  V30 10324 C 989.133 -0.983975 -1.69742 0
M  V30 10325 O 988.258 -0.206027 -2.15417 0
M  V30 10326 C 988.853 -3.28062 -0.84623 0
M  V30 10327 C 987.412 -3.52345 -1.32401 0
M  V30 10328 C 986.559 -2.7558 -0.308399 0
M  V30 10329 H 989.51 -1.55917 0.295907 0
M  V30 10330 H 989.531 -3.40023 -1.70776 0
M  V30 10331 H 989.043 -3.88064 0.0526033 0
M  V30 10332 H 987.144 -2.97645 -2.24139 0
M  V30 10333 H 987.257 -4.6104 -1.30304 0
M  V30 10334 H 985.621 -2.4229 -0.785337 0
M  V30 10335 H 986.404 -3.38319 0.582679 0
M  V30 10336 N 988.849 0.203349 -1.56283 0
M  V30 10337 C 989.799 1.25595 -1.90289 0
M  V30 10338 C 990.783 1.41403 -0.767732 0
M  V30 10339 O 991.975 1.43912 -1.03046 0
M  V30 10340 C 989.104 2.60255 -2.23881 0
M  V30 10341 C 988.19 2.48274 -3.43833 0
M  V30 10342 N 988.581 2.05963 -4.61966 0
M  V30 10343 C 986.879 2.79188 -3.47808 0
M  V30 10344 C 987.58 2.05674 -5.44126 0
M  V30 10345 N 986.556 2.46862 -4.84314 0
M  V30 10346 H 990.358 0.920016 -2.79129 0
M  V30 10347 H 987.872 0.411829 -1.57091 0
M  V30 10348 H 989.869 3.36274 -2.46425 0
M  V30 10349 H 988.529 2.94678 -1.36363 0
M  V30 10350 H 989.54 1.76803 -4.86787 0
M  V30 10351 H 986.217 3.17863 -2.70684 0
M  V30 10352 H 987.607 1.74932 -6.48728 0
M  V30 10353 N 990.327 1.50405 0.470755 0
M  V30 10354 C 991.275 1.6982 1.58946 0
M  V30 10355 C 992.269 0.56407 1.59733 0
M  V30 10356 O 993.475 0.744576 1.63878 0
M  V30 10357 H 989.85 0.536016 0.527438 0
M  V30 10358 H 991.821 2.63662 1.39732 0
M  V30 10359 C 990.57 1.80986 2.96883 0
M  V30 10360 H 989.893 2.67645 2.96996 0
M  V30 10361 H 991.333 1.98596 3.74614 0
M  V30 10362 C 989.792 0.561551 3.32187 0
M  V30 10363 O 990.322 -0.299136 4.00585 0
M  V30 10364 N 988.528 0.415476 2.87615 0
M  V30 10365 H 988.075 1.11691 2.32127 0
M  V30 10366 H 988.033 -0.418592 3.11601 0
M  V30 10367 N 991.805 -0.723954 1.39988 0
M  V30 10368 C 992.755 -1.82943 1.36073 0
M  V30 10369 C 993.739 -1.59105 0.239682 0
M  V30 10370 O 994.931 -1.7042 0.478116 0
M  V30 10371 C 992.06 -3.20988 1.21745 0
M  V30 10372 C 991.146 -3.50618 2.38596 0
M  V30 10373 N 991.537 -3.51115 3.64077 0
M  V30 10374 C 989.835 -3.81035 2.31794 0
M  V30 10375 C 990.536 -3.78852 4.41413 0
M  V30 10376 N 989.512 -3.97182 3.71143 0
M  V30 10377 H 993.314 -1.81649 2.31043 0
M  V30 10378 H 990.828 -0.922703 1.33641 0
M  V30 10379 H 992.825 -4.00139 1.17022 0
M  V30 10380 H 991.485 -3.23513 0.277344 0
M  V30 10381 H 992.496 -3.32163 3.97351 0
M  V30 10382 H 989.173 -3.911 1.46105 0
M  V30 10383 H 990.563 -3.85612 5.5023 0
M  V30 10384 N 993.283 -1.25346 -0.955304 0
M  V30 10385 C 994.694 -1.09173 -1.51453 0
M  V30 10386 C 995.045 0.332755 -1.93358 0
M  V30 10387 O 994.17 1.22264 -1.78551 0
M  V30 10388 C 994.765 -1.97564 -2.75234 0
M  V30 10389 C 993.324 -1.85579 -3.27471 0
M  V30 10390 C 992.471 -1.91755 -2.00313 0
M  V30 10391 H 995.422 -1.38642 -0.772271 0
M  V30 10392 H 995.443 -1.51523 -3.49029 0
M  V30 10393 H 994.955 -3.01233 -2.44704 0
M  V30 10394 H 993.056 -0.847906 -3.62824 0
M  V30 10395 H 993.169 -2.70353 -3.95533 0
M  V30 10396 H 991.533 -1.35633 -2.15582 0
M  V30 10397 H 992.316 -2.97028 -1.72132 0
M  V30 10398 N 994.761 1.15782 -1.06922 0
M  V30 10399 C 996.172 1.68062 -0.813144 0
M  V30 10400 C 996.523 1.84681 0.662374 0
M  V30 10401 O 995.648 1.54696 1.51321 0
M  V30 10402 C 996.243 3.05273 -1.46949 0
M  V30 10403 C 994.802 3.54647 -1.26104 0
M  V30 10404 C 993.949 2.30477 -1.54194 0
M  V30 10405 H 996.9 1.00056 -1.23185 0
M  V30 10406 H 996.921 3.69986 -0.888308 0
M  V30 10407 H 996.433 2.93145 -2.54337 0
M  V30 10408 H 994.534 3.72024 -0.20718 0
M  V30 10409 H 994.647 4.36354 -1.97819 0
M  V30 10410 H 993.011 2.35803 -0.96276 0
M  V30 10411 H 993.794 2.2094 -2.62755 0
M  V30 10412 N 996.239 0.8527 1.3254 0
M  V30 10413 C 997.149 0.298744 2.3269 0
M  V30 10414 C 998.165 -0.582418 1.63963 0
M  V30 10415 O 999.341 -0.483253 1.95516 0
M  V30 10416 C 996.406 -0.505453 3.42996 0
M  V30 10417 C 995.467 0.401618 4.27417 0
M  V30 10418 C 994.7 -0.364294 5.32455 0
M  V30 10419 O 994.923 -1.59448 5.47661 0
M  V30 10420 O 993.857 0.268892 6.01299 0
M  V30 10421 H 997.683 1.12843 2.81958 0
M  V30 10422 H 995.268 0.615584 1.36128 0
M  V30 10423 H 997.15 -0.961974 4.10273 0
M  V30 10424 H 995.825 -1.31197 2.95921 0
M  V30 10425 H 994.732 0.906274 3.62957 0
M  V30 10426 H 996.065 1.17327 4.78012 0
M  V30 10427 N 997.718 -1.45297 0.610449 0
M  V30 10428 C 998.995 -1.95562 0.0386189 0
M  V30 10429 C 999.375 -1.55284 -1.43004 0
M  V30 10430 O 998.723 -0.816785 -2.13403 0
M  V30 10431 C 998.933 -3.48176 0.239731 0
M  V30 10432 C 1000.28 -4.24425 0.122035 0
M  V30 10433 O 1001.3 -3.55794 0.170003 0
M  V30 10434 O 1000.16 -5.46499 0.00953695 0
M  V30 10435 H 997.258 -0.826296 -0.0341081 0
M  V30 10436 H 999.804 -1.55449 0.68071 0
M  V30 10437 H 998.576 -3.70471 1.25963 0
M  V30 10438 H 998.199 -3.95186 -0.437486 0
M  V30 10439 N 999.196 -0.349774 -1.5367 0
M  V30 10440 C 1000.61 0.132815 -1.86227 0
M  V30 10441 C 1000.96 1.49479 -1.27084 0
M  V30 10442 O 1000.08 2.08292 -0.58679 0
M  V30 10443 C 1000.68 0.247775 -3.37893 0
M  V30 10444 C 999.237 0.674603 -3.70305 0
M  V30 10445 C 998.384 -0.187869 -2.76663 0
M  V30 10446 H 1001.33 -0.569148 -1.48143 0
M  V30 10447 H 1001.36 1.07418 -3.65023 0
M  V30 10448 H 1000.87 -0.743635 -3.80909 0
M  V30 10449 H 998.969 1.67481 -3.32837 0
M  V30 10450 H 999.082 0.460177 -4.76885 0
M  V30 10451 H 997.446 0.340779 -2.5241 0
M  V30 10452 H 998.229 -1.17653 -3.2251 0
M  V30 10453 N 1000.67 1.57404 -0.0785433 0
M  V30 10454 C 1001.92 1.93744 0.589024 0
M  V30 10455 C 1002.25 0.959087 1.69209 0
M  V30 10456 O 1001.5 -0.0241604 1.95685 0
M  V30 10457 C 1001.8 3.36684 1.1991 0
M  V30 10458 C 1001.47 4.50356 0.221493 0
M  V30 10459 C 1000.13 4.81177 -0.0474347 0
M  V30 10460 C 1002.48 5.1928 -0.446941 0
M  V30 10461 C 999.811 5.78257 -0.99177 0
M  V30 10462 C 1002.16 6.17372 -1.37964 0
M  V30 10463 C 1000.83 6.46607 -1.65697 0
M  V30 10464 H 1000.1 0.70896 0.215539 0
M  V30 10465 H 1002.74 1.90905 -0.150856 0
M  V30 10466 H 1001.05 3.36022 2.01486 0
M  V30 10467 H 1002.75 3.62095 1.72303 0
M  V30 10468 H 999.336 4.26322 0.441284 0
M  V30 10469 H 1003.52 4.95658 -0.252298 0
M  V30 10470 H 998.776 5.9923 -1.21381 0
M  V30 10471 H 1002.95 6.6988 -1.9035 0
M  V30 10472 H 1000.58 7.21643 -2.39031 0
M  V30 10473 N 1002.15 -0.195058 1.56388 0
M  V30 10474 C 1003.4 -0.913636 1.8027 0
M  V30 10475 C 1003.72 -1.83791 0.651606 0
M  V30 10476 O 1002.99 -1.931 -0.330057 0
M  V30 10477 H 1001.57 -0.34036 0.664954 0
M  V30 10478 H 1004.23 -0.200559 1.93865 0
M  V30 10479 H 1003.33 -1.50473 2.7343 0
M  V30 10480 N 1003.63 -1.50653 -0.462772 0
M  V30 10481 C 1004.85 -1.66103 -1.24196 0
M  V30 10482 C 1005.28 -0.347421 -1.84864 0
M  V30 10483 O 1004.64 0.689673 -1.6767 0
M  V30 10484 C 1004.69 -2.76027 -2.32037 0
M  V30 10485 O 1003.79 -2.37859 -3.36893 0
M  V30 10486 H 1003.13 -0.554672 -0.365014 0
M  V30 10487 H 1005.66 -1.97076 -0.549734 0
M  V30 10488 H 1005.67 -2.99354 -2.77221 0
M  V30 10489 H 1004.35 -3.71361 -1.87253 0
M  V30 10490 H 1002.92 -2.2501 -2.97363 0
M  V30 10491 N 1005.11 0.71652 -1.4037 0
M  V30 10492 C 1006.35 1.47857 -1.38803 0
M  V30 10493 C 1006.69 1.94197 0.0100536 0
M  V30 10494 O 1005.96 1.68093 0.978521 0
M  V30 10495 C 1006.25 2.7053 -2.37667 0
M  V30 10496 C 1006.1 2.3009 -3.86496 0
M  V30 10497 C 1007.42 3.72684 -2.34082 0
M  V30 10498 H 1004.54 0.53632 -0.505499 0
M  V30 10499 H 1007.18 0.817824 -1.71498 0
M  V30 10500 H 1005.33 3.26906 -2.09916 0
M  V30 10501 H 1007 1.79202 -4.2507 0
M  V30 10502 H 1005.24 1.62102 -4.02375 0
M  V30 10503 H 1005.91 3.18018 -4.51186 0
M  V30 10504 H 1008.39 3.25935 -2.58661 0
M  V30 10505 H 1007.27 4.56157 -3.05306 0
M  V30 10506 H 1007.53 4.20916 -1.35213 0
M  V30 10507 N 1006.59 1.25851 0.948643 0
M  V30 10508 C 1008 1.09975 1.50872 0
M  V30 10509 C 1008.35 -0.322497 1.93531 0
M  V30 10510 O 1007.47 -1.21316 1.79197 0
M  V30 10511 C 1008.07 1.99021 2.74182 0
M  V30 10512 C 1006.63 1.87313 3.26483 0
M  V30 10513 C 1005.77 1.92815 1.99293 0
M  V30 10514 H 1008.73 1.3905 0.764908 0
M  V30 10515 H 1008.75 1.53372 3.4822 0
M  V30 10516 H 1008.26 3.02527 2.43103 0
M  V30 10517 H 1006.36 0.867136 3.62369 0
M  V30 10518 H 1006.47 2.72446 3.94094 0
M  V30 10519 H 1004.84 1.36774 2.1486 0
M  V30 10520 H 1005.62 2.97936 1.70554 0
M  V30 10521 N 1008.06 -1.15214 1.07534 0
M  V30 10522 C 1009.31 -1.86043 0.799629 0
M  V30 10523 C 1009.64 -1.82435 -0.674356 0
M  V30 10524 O 1008.89 -1.24379 -1.51091 0
M  V30 10525 C 1009.19 -3.34623 1.25547 0
M  V30 10526 C 1008.86 -3.58425 2.73573 0
M  V30 10527 C 1007.52 -3.6463 3.14004 0
M  V30 10528 C 1009.87 -3.67977 3.6911 0
M  V30 10529 C 1007.2 -3.779 4.48786 0
M  V30 10530 C 1009.55 -3.82771 5.03656 0
M  V30 10531 C 1008.22 -3.87222 5.43705 0
M  V30 10532 H 1007.49 -0.680781 0.292605 0
M  V30 10533 H 1010.13 -1.36149 1.34669 0
M  V30 10534 H 1008.44 -3.86737 0.627828 0
M  V30 10535 H 1010.14 -3.87836 1.01901 0
M  V30 10536 H 1006.73 -3.54238 2.41275 0
M  V30 10537 H 1010.91 -3.62482 3.39 0
M  V30 10538 H 1006.17 -3.79604 4.79281 0
M  V30 10539 H 1010.34 -3.89104 5.77556 0
M  V30 10540 H 1007.97 -3.97256 6.48145 0
M  V30 10541 N 1009.54 -0.859717 -1.32086 0
M  V30 10542 C 1010.79 -0.461779 -1.96343 0
M  V30 10543 C 1011.1 0.988837 -1.68764 0
M  V30 10544 O 1012.31 1.49244 -2.268 0
M  V30 10545 C 1010.77 -0.77484 -3.5146 0
M  V30 10546 C 1010.37 -2.24153 -3.87891 0
M  V30 10547 C 1012.12 -0.444873 -4.22162 0
M  V30 10548 C 1010.03 -2.49754 -5.36075 0
M  V30 10549 H 1008.96 -0.168951 -0.734828 0
M  V30 10550 H 1011.61 -1.0512 -1.50406 0
M  V30 10551 H 1009.99 -0.114792 -3.95834 0
M  V30 10552 H 1011.16 -2.94378 -3.54511 0
M  V30 10553 H 1009.48 -2.53651 -3.30227 0
M  V30 10554 H 1012.07 -0.613508 -5.31169 0
M  V30 10555 H 1012.42 0.61391 -4.11749 0
M  V30 10556 H 1012.95 -1.06103 -3.83389 0
M  V30 10557 H 1009.69 -3.54276 -5.51515 0
M  V30 10558 H 1009.21 -1.84112 -5.70844 0
M  V30 10559 H 1010.89 -2.3396 -6.03218 0
M  V30 10560 N 1011.02 1.44971 -0.618145 0
M  V30 10561 C 1012.25 2.07039 -0.122395 0
M  V30 10562 C 1012.67 1.45793 1.18853 0
M  V30 10563 O 1012.03 0.55453 1.72611 0
M  V30 10564 C 1012.08 3.60599 -0.0073864 0
M  V30 10565 O 1011.18 3.99069 1.04007 0
M  V30 10566 H 1010.52 0.6593 -0.0788615 0
M  V30 10567 H 1013.05 1.86055 -0.851147 0
M  V30 10568 H 1013.06 4.07569 0.187417 0
M  V30 10569 H 1011.74 4.04561 -0.964544 0
M  V30 10570 H 1010.31 3.63753 0.820879 0
M  V30 10571 N 1012.5 0.357919 1.53482 0
M  V30 10572 C 1013.45 -0.50845 2.22258 0
M  V30 10573 C 1014.43 -1.05476 1.21506 0
M  V30 10574 O 1015.62 -0.986075 1.46988 0
M  V30 10575 C 1012.75 -1.65157 3.00962 0
M  V30 10576 C 1011.84 -1.11851 4.09084 0
M  V30 10577 N 1012.23 -0.307818 5.04862 0
M  V30 10578 C 1010.53 -1.39405 4.23653 0
M  V30 10579 C 1011.23 -0.016842 5.81698 0
M  V30 10580 N 1010.21 -0.612396 5.40139 0
M  V30 10581 H 1014.01 0.117836 2.93664 0
M  V30 10582 H 1011.52 0.16553 1.61554 0
M  V30 10583 H 1013.52 -2.28435 3.48745 0
M  V30 10584 H 1012.18 -2.281 2.31086 0
M  V30 10585 H 1013.19 0.0523313 5.17874 0
M  V30 10586 H 1009.87 -2.02682 3.65002 0
M  V30 10587 H 1011.26 0.638046 6.68864 0
M  V30 10588 N 1013.98 -1.5736 0.0868897 0
M  V30 10589 C 1015.2 -1.98809 -0.590757 0
M  V30 10590 C 1015.63 -0.965407 -1.61436 0
M  V30 10591 O 1014.98 0.067143 -1.81176 0
M  V30 10592 C 1015.03 -3.39249 -1.22238 0
M  V30 10593 O 1014.14 -3.39706 -2.33824 0
M  V30 10594 H 1013.48 -0.64669 -0.150626 0
M  V30 10595 H 1016.01 -2.03927 0.165873 0
M  V30 10596 H 1016.02 -3.76765 -1.56564 0
M  V30 10597 H 1014.69 -4.13208 -0.472434 0
M  V30 10598 H 1013.27 -3.13977 -2.01178 0
M  V30 10599 N 1015.45 0.186762 -1.56489 0
M  V30 10600 C 1016.7 0.904063 -1.80752 0
M  V30 10601 C 1017.02 1.83443 -0.661343 0
M  V30 10602 O 1016.29 1.93272 0.319811 0
M  V30 10603 H 1014.87 0.336828 -0.66675 0
M  V30 10604 H 1017.54 0.190275 -1.93969 0
M  V30 10605 H 1016.63 1.49021 -2.74225 0
M  V30 10606 N 1016.93 1.50896 0.454776 0
M  V30 10607 C 1018.16 1.66759 1.23313 0
M  V30 10608 C 1018.58 0.35722 1.84677 0
M  V30 10609 O 1017.94 -0.680771 1.68033 0
M  V30 10610 C 1017.99 2.77254 2.3057 0
M  V30 10611 O 1017.09 2.39642 3.35627 0
M  V30 10612 H 1016.43 0.556599 0.362068 0
M  V30 10613 H 1018.96 1.97365 0.539274 0
M  V30 10614 H 1018.97 3.0082 2.75629 0
M  V30 10615 H 1017.65 3.72349 1.85281 0
M  V30 10616 H 1016.23 2.26584 2.96165 0
M  V30 10617 N 1018.41 -0.709066 1.40748 0
M  V30 10618 C 1019.82 -1.28847 1.35112 0
M  V30 10619 C 1020.17 -1.9618 0.0277149 0
M  V30 10620 O 1019.3 -1.97955 -0.874233 0
M  V30 10621 C 1019.89 -2.34306 2.44716 0
M  V30 10622 C 1018.45 -2.87856 2.4252 0
M  V30 10623 C 1017.6 -1.61723 2.25257 0
M  V30 10624 H 1020.55 -0.504742 1.50459 0
M  V30 10625 H 1020.57 -3.15297 2.12998 0
M  V30 10626 H 1020.08 -1.85271 3.41022 0
M  V30 10627 H 1018.18 -3.41103 1.49931 0
M  V30 10628 H 1018.3 -3.39205 3.38344 0
M  V30 10629 H 1016.66 -1.87032 1.7289 0
M  V30 10630 H 1017.44 -1.14703 3.23571 0
M  V30 10631 N 1019.89 -1.26353 -0.941956 0
M  V30 10632 C 1020.8 -1.09618 -2.07415 0
M  V30 10633 C 1021.82 -0.0298963 -1.73974 0
M  V30 10634 O 1022.99 -0.233466 -2.00042 0
M  V30 10635 C 1020.06 -0.73013 -3.38925 0
M  V30 10636 C 1019.12 -1.87574 -3.86153 0
M  V30 10637 C 1018.35 -1.52706 -5.11387 0
M  V30 10638 O 1018.57 -0.428438 -5.68789 0
M  V30 10639 O 1017.51 -2.36154 -5.53638 0
M  V30 10640 H 1021.33 -2.04598 -2.2444 0
M  V30 10641 H 1018.92 -1.05407 -1.05876 0
M  V30 10642 H 1020.8 -0.538684 -4.17943 0
M  V30 10643 H 1019.48 0.190282 -3.2314 0
M  V30 10644 H 1018.38 -2.12214 -3.08084 0
M  V30 10645 H 1019.72 -2.77585 -4.06457 0
M  V30 10646 N 1021.37 1.14642 -1.08144 0
M  V30 10647 C 1022.31 2.1964 -0.708995 0
M  V30 10648 C 1023.28 1.63303 0.303512 0
M  V30 10649 O 1024.47 1.8987 0.18813 0
M  V30 10650 C 1021.61 3.44886 -0.121585 0
M  V30 10651 C 1020.72 4.15386 -1.18654 0
M  V30 10652 C 1019.86 5.28205 -0.56328 0
M  V30 10653 C 1018.9 5.90534 -1.61046 0
M  V30 10654 N 1018.03 6.94809 -1.00919 0
M  V30 10655 H 1022.87 2.50848 -1.6087 0
M  V30 10656 H 1020.41 1.23185 -0.803975 0
M  V30 10657 H 1022.37 4.16528 0.23668 0
M  V30 10658 H 1021 3.14169 0.741445 0
M  V30 10659 H 1020.05 3.42159 -1.66227 0
M  V30 10660 H 1021.36 4.57809 -1.9802 0
M  V30 10661 H 1020.52 6.06507 -0.153109 0
M  V30 10662 H 1019.26 4.86995 0.262066 0
M  V30 10663 H 1018.26 5.10938 -2.03033 0
M  V30 10664 H 1019.49 6.33819 -2.43824 0
M  V30 10665 H 1017.43 6.5568 -0.204894 0
M  V30 10666 H 1017.35 7.35704 -1.73999 0
M  V30 10667 H 1018.62 7.76992 -0.624792 0
M  V30 10668 N 1022.85 0.866709 1.31628 0
M  V30 10669 C 1023.79 0.318169 2.28596 0
M  V30 10670 C 1024.76 -0.581558 1.55586 0
M  V30 10671 O 1025.95 -0.513895 1.83749 0
M  V30 10672 C 1023.09 -0.477137 3.41786 0
M  V30 10673 C 1022.2 0.449739 4.29653 0
M  V30 10674 C 1021.34 -0.359373 5.29983 0
M  V30 10675 C 1020.37 0.564138 6.09495 0
M  V30 10676 N 1019.51 -0.208526 7.0179 0
M  V30 10677 H 1024.35 1.15029 2.74904 0
M  V30 10678 H 1021.89 0.578649 1.35241 0
M  V30 10679 H 1023.85 -0.953985 4.06146 0
M  V30 10680 H 1022.48 -1.27398 2.96597 0
M  V30 10681 H 1021.53 1.04502 3.65764 0
M  V30 10682 H 1022.84 1.158 4.85172 0
M  V30 10683 H 1021.99 -0.89887 6.00004 0
M  V30 10684 H 1020.73 -1.10094 4.75111 0
M  V30 10685 H 1019.74 1.11542 5.38366 0
M  V30 10686 H 1020.96 1.30451 6.66453 0
M  V30 10687 H 1018.91 -0.932969 6.49332 0
M  V30 10688 H 1018.83 0.440463 7.54716 0
M  V30 10689 H 1020.09 -0.72936 7.7608 0
M  V30 10690 N 1024.32 -1.44642 0.625825 0
M  V30 10691 C 1025.29 -2.29085 -0.072526 0
M  V30 10692 C 1026.29 -1.40755 -0.777467 0
M  V30 10693 O 1027.48 -1.62684 -0.622861 0
M  V30 10694 C 1024.61 -3.22212 -1.1132 0
M  V30 10695 H 1025.8 -2.92317 0.670124 0
M  V30 10696 H 1023.35 -1.51466 0.38571 0
M  V30 10697 H 1024.09 -2.63819 -1.88601 0
M  V30 10698 H 1023.87 -3.87299 -0.611709 0
M  V30 10699 H 1025.36 -3.8566 -1.60175 0
M  V30 10700 N 1025.8 -0.366053 -1.5329 0
M  V30 10701 C 1026.71 0.488111 -2.29466 0
M  V30 10702 C 1027.73 1.09219 -1.35452 0
M  V30 10703 O 1028.9 1.10303 -1.68509 0
M  V30 10704 C 1025.97 1.61202 -3.06944 0
M  V30 10705 C 1025.03 1.03543 -4.16626 0
M  V30 10706 C 1024.26 2.10578 -4.904 0
M  V30 10707 O 1024.49 3.31697 -4.6404 0
M  V30 10708 O 1023.42 1.73609 -5.76319 0
M  V30 10709 H 1027.25 -0.131789 -3.03414 0
M  V30 10710 H 1024.83 -0.130421 -1.4883 0
M  V30 10711 H 1026.71 2.26546 -3.55324 0
M  V30 10712 H 1025.39 2.21732 -2.35832 0
M  V30 10713 H 1024.29 0.345892 -3.72498 0
M  V30 10714 H 1025.63 0.474687 -4.89906 0
M  V30 10715 N 1027.28 1.57312 -0.0952337 0
M  V30 10716 C 1028.23 2.10571 0.87428 0
M  V30 10717 C 1029.21 1.02079 1.24374 0
M  V30 10718 O 1030.41 1.28353 1.2188 0
M  V30 10719 C 1027.53 2.68972 2.13329 0
M  V30 10720 C 1026.62 3.84508 1.78926 0
M  V30 10721 N 1027.01 4.92534 1.15082 0
M  V30 10722 C 1025.31 3.94245 2.08535 0
M  V30 10723 C 1026.01 5.73163 0.992937 0
M  V30 10724 N 1024.99 5.22198 1.51029 0
M  V30 10725 H 1028.79 2.91476 0.376727 0
M  V30 10726 H 1026.3 1.62041 0.107974 0
M  V30 10727 H 1028.3 3.05457 2.83728 0
M  V30 10728 H 1026.96 1.89523 2.6365 0
M  V30 10729 H 1027.97 5.11405 0.817621 0
M  V30 10730 H 1024.65 3.25805 2.61069 0
M  V30 10731 H 1026.04 6.70084 0.493641 0
M  V30 10732 N 1028.76 -0.17846 1.56586 0
M  V30 10733 C 1029.98 -0.916061 1.86073 0
M  V30 10734 C 1030.41 -1.75349 0.680754 0
M  V30 10735 O 1029.77 -1.77479 -0.37028 0
M  V30 10736 C 1029.81 -1.77445 3.1392 0
M  V30 10737 O 1028.92 -2.87524 2.95641 0
M  V30 10738 H 1028.26 -0.257031 0.612234 0
M  V30 10739 H 1030.79 -0.178755 2.03818 0
M  V30 10740 H 1030.8 -2.1758 3.45142 0
M  V30 10741 H 1029.47 -1.15927 3.99417 0
M  V30 10742 H 1028.05 -2.51023 2.75757 0
M  V30 10743 N 1030.24 -1.51135 -0.446768 0
M  V30 10744 C 1031.46 -1.67411 -1.22427 0
M  V30 10745 C 1031.89 -0.367009 -1.84485 0
M  V30 10746 O 1031.24 0.67185 -1.68392 0
M  V30 10747 C 1031.29 -2.78473 -2.29096 0
M  V30 10748 O 1030.4 -2.41419 -3.34351 0
M  V30 10749 H 1029.74 -0.558512 -0.359111 0
M  V30 10750 H 1032.27 -1.97648 -0.5288 0
M  V30 10751 H 1032.28 -3.02277 -2.7403 0
M  V30 10752 H 1030.95 -3.73326 -1.83304 0
M  V30 10753 H 1029.53 -2.28152 -2.9496 0
M  V30 10754 N 1031.71 0.701592 -1.41122 0
M  V30 10755 C 1032.96 1.45722 -1.39456 0
M  V30 10756 C 1033.28 1.95599 -0.00475228 0
M  V30 10757 O 1034.48 2.71166 0.134529 0
M  V30 10758 C 1032.94 2.63475 -2.45172 0
M  V30 10759 C 1032.55 2.20409 -3.90031 0
M  V30 10760 C 1034.29 3.4114 -2.52633 0
M  V30 10761 C 1032.2 3.35084 -4.87312 0
M  V30 10762 H 1031.13 0.547341 -0.518588 0
M  V30 10763 H 1033.78 0.762233 -1.6692 0
M  V30 10764 H 1032.16 3.35212 -2.10829 0
M  V30 10765 H 1033.33 1.56 -4.3359 0
M  V30 10766 H 1031.65 1.55752 -3.86174 0
M  V30 10767 H 1034.25 4.26496 -3.22498 0
M  V30 10768 H 1034.59 3.85915 -1.56125 0
M  V30 10769 H 1035.12 2.76456 -2.86037 0
M  V30 10770 H 1031.86 2.95327 -5.85203 0
M  V30 10771 H 1031.38 3.98362 -4.48406 0
M  V30 10772 H 1033.06 4.00949 -5.07788 0
M  V30 10773 N 1033.19 1.2685 0.935242 0
M  V30 10774 C 1034.14 1.08746 2.05614 0
M  V30 10775 C 1035.13 0.012681 1.69395 0
M  V30 10776 O 1036.34 0.169822 1.79197 0
M  V30 10777 H 1032.71 0.33485 0.673335 0
M  V30 10778 H 1034.69 2.03725 2.18033 0
M  V30 10779 C 1033.43 0.74346 3.39659 0
M  V30 10780 H 1032.76 1.56236 3.68008 0
M  V30 10781 H 1034.2 0.656607 4.18885 0
M  V30 10782 C 1032.66 -0.551751 3.32351 0
M  V30 10783 O 1033.19 -1.58836 3.68963 0
M  V30 10784 N 1031.39 -0.544583 2.85452 0
M  V30 10785 H 1030.94 0.29939 2.55854 0
M  V30 10786 H 1030.9 -1.41129 2.80945 0
M  V30 10787 N 1034.67 -1.14067 1.0875 0
M  V30 10788 C 1035.6 -2.18926 0.67852 0
M  V30 10789 C 1036.62 -1.60441 -0.276163 0
M  V30 10790 O 1037.8 -1.78388 -0.0632788 0
M  V30 10791 C 1034.9 -3.38893 -0.0218852 0
M  V30 10792 C 1034.08 -4.26901 0.952582 0
M  V30 10793 C 1033.14 -5.25418 0.286859 0
M  V30 10794 O 1032.16 -5.61512 0.932354 0
M  V30 10795 N 1033.36 -5.72476 -0.961831 0
M  V30 10796 H 1036.13 -2.54629 1.58063 0
M  V30 10797 H 1033.69 -1.29321 0.974042 0
M  V30 10798 H 1035.68 -4.01864 -0.478278 0
M  V30 10799 H 1034.25 -3.01486 -0.826141 0
M  V30 10800 H 1033.47 -3.60812 1.58772 0
M  V30 10801 H 1034.76 -4.82563 1.61279 0
M  V30 10802 H 1034.16 -5.45287 -1.50594 0
M  V30 10803 H 1032.72 -6.37418 -1.36166 0
M  V30 10804 N 1036.15 -0.873678 -1.31166 0
M  V30 10805 C 1037.06 -0.335726 -2.32185 0
M  V30 10806 C 1038.07 0.556259 -1.64869 0
M  V30 10807 O 1039.25 0.452087 -1.9626 0
M  V30 10808 C 1036.32 0.450822 -3.43756 0
M  V30 10809 C 1035.38 -0.469565 -4.26724 0
M  V30 10810 C 1034.61 0.279538 -5.32967 0
M  V30 10811 O 1034.83 1.50715 -5.50128 0
M  V30 10812 O 1033.77 -0.36452 -6.00795 0
M  V30 10813 H 1037.59 -1.17314 -2.80127 0
M  V30 10814 H 1035.18 -0.637163 -1.35132 0
M  V30 10815 H 1037.06 0.896582 -4.11752 0
M  V30 10816 H 1035.73 1.26472 -2.9797 0
M  V30 10817 H 1034.64 -0.963902 -3.61469 0
M  V30 10818 H 1035.97 -1.24916 -4.76085 0
M  V30 10819 N 1037.63 1.44308 -0.633487 0
M  V30 10820 C 1038.57 2.32455 0.0821956 0
M  V30 10821 C 1039.57 1.47482 0.833388 0
M  V30 10822 O 1040.77 1.63812 0.746021 0
M  V30 10823 H 1037.15 0.750631 0.045352 0
M  V30 10824 H 1039.12 2.90566 -0.679282 0
M  V30 10825 C 1037.87 3.31512 1.04858 0
M  V30 10826 H 1037.19 3.96908 0.479979 0
M  V30 10827 H 1038.63 3.95865 1.51879 0
M  V30 10828 C 1037.09 2.60615 2.13498 0
M  V30 10829 O 1037.62 2.40682 3.21613 0
M  V30 10830 N 1035.83 2.20315 1.89499 0
M  V30 10831 H 1035.37 2.36726 1.01581 0
M  V30 10832 H 1035.33 1.73205 2.62388 0
M  V30 10833 N 1039.1 0.374177 1.53094 0
M  V30 10834 C 1040.35 -0.212396 2.00981 0
M  V30 10835 C 1040.67 -1.48576 1.26293 0
M  V30 10836 O 1039.94 -1.92206 0.378642 0
M  V30 10837 H 1038.52 -0.0814763 0.742543 0
M  V30 10838 H 1041.19 0.502389 1.88314 0
M  V30 10839 H 1040.28 -0.433316 3.09077 0
M  V30 10840 N 1040.58 -1.57259 0.103575 0
M  V30 10841 C 1041.81 -1.99 -0.566275 0
M  V30 10842 C 1042.23 -0.982909 -1.61197 0
M  V30 10843 O 1041.58 0.026345 -1.82481 0
M  V30 10844 C 1041.63 -3.40778 -1.20635 0
M  V30 10845 O 1041.35 -4.37632 -0.202472 0
M  V30 10846 C 1042.86 -3.97567 -1.961 0
M  V30 10847 H 1040.08 -0.653751 -0.151164 0
M  V30 10848 H 1042.62 -2.03658 0.185365 0
M  V30 10849 H 1040.77 -3.37107 -1.90886 0
M  V30 10850 H 1041.19 -5.2026 -0.665535 0
M  V30 10851 H 1042.66 -4.98897 -2.36233 0
M  V30 10852 H 1043.14 -3.35853 -2.83018 0
M  V30 10853 H 1043.75 -4.04737 -1.30645 0
M  V30 10854 N 1042.06 0.170153 -1.56679 0
M  V30 10855 C 1043.02 1.19443 -1.95617 0
M  V30 10856 C 1044.02 1.37118 -0.83996 0
M  V30 10857 O 1045.21 1.34504 -1.10699 0
M  V30 10858 C 1042.35 2.55926 -2.25199 0
M  V30 10859 H 1043.54 0.86095 -2.87276 0
M  V30 10860 H 1041.09 0.412646 -1.50755 0
M  V30 10861 H 1041.83 2.94286 -1.36257 0
M  V30 10862 H 1041.61 2.44464 -3.06562 0
M  V30 10863 H 1043.1 3.29742 -2.56242 0
M  V30 10864 N 1043.54 1.5137 0.438746 0
M  V30 10865 C 1044.49 1.73154 1.55308 0
M  V30 10866 C 1045.48 0.597825 1.58501 0
M  V30 10867 O 1046.69 0.77917 1.62262 0
M  V30 10868 H 1043.06 0.547083 0.51595 0
M  V30 10869 H 1045.03 2.66566 1.34108 0
M  V30 10870 C 1043.78 1.87242 2.92977 0
M  V30 10871 H 1043.1 2.73884 2.91252 0
M  V30 10872 H 1044.54 2.06497 3.70317 0
M  V30 10873 C 1043 0.631887 3.30921 0
M  V30 10874 O 1043.53 -0.214099 4.01129 0
M  V30 10875 N 1041.74 0.47639 2.86669 0
M  V30 10876 H 1041.29 1.16589 2.29706 0
M  V30 10877 H 1041.24 -0.352403 3.12419 0
M  V30 10878 N 1045.02 -0.694098 1.41492 0
M  V30 10879 C 1046.43 -1.27407 1.36471 0
M  V30 10880 C 1046.78 -1.9614 0.0485209 0
M  V30 10881 O 1045.9 -1.98871 -0.853188 0
M  V30 10882 C 1046.5 -2.31698 2.47188 0
M  V30 10883 C 1045.06 -2.85268 2.45559 0
M  V30 10884 C 1044.2 -1.59325 2.2696 0
M  V30 10885 H 1047.16 -0.488756 1.50986 0
M  V30 10886 H 1047.18 -3.1302 2.1633 0
M  V30 10887 H 1046.69 -1.81644 3.42968 0
M  V30 10888 H 1044.79 -3.39494 1.5354 0
M  V30 10889 H 1044.9 -3.35598 3.41922 0
M  V30 10890 H 1043.27 -1.85188 1.74864 0
M  V30 10891 H 1044.05 -1.11265 3.24769 0
M  V30 10892 N 1046.49 -1.27344 -0.928501 0
M  V30 10893 C 1047.74 -1.13019 -1.67061 0
M  V30 10894 C 1048.06 0.323614 -1.92904 0
M  V30 10895 O 1049.26 0.587752 -2.65062 0
M  V30 10896 C 1047.72 -1.97471 -3.00887 0
M  V30 10897 C 1047.33 -3.47504 -2.82746 0
M  V30 10898 C 1049.07 -1.91792 -3.78703 0
M  V30 10899 C 1046.98 -4.24158 -4.12122 0
M  V30 10900 H 1045.91 -0.419364 -0.626618 0
M  V30 10901 H 1048.56 -1.51759 -1.03158 0
M  V30 10902 H 1046.94 -1.51576 -3.65843 0
M  V30 10903 H 1048.11 -4.01256 -2.26562 0
M  V30 10904 H 1046.43 -3.54554 -2.18359 0
M  V30 10905 H 1049.03 -2.46339 -4.74575 0
M  V30 10906 H 1049.37 -0.891375 -4.06645 0
M  V30 10907 H 1049.9 -2.35578 -3.20543 0
M  V30 10908 H 1046.64 -5.27333 -3.89359 0
M  V30 10909 H 1046.16 -3.75183 -4.67972 0
M  V30 10910 H 1047.84 -4.33288 -4.80489 0
M  V30 10911 N 1047.97 1.13488 -1.09353 0
M  V30 10912 C 1048.92 2.18876 -0.732251 0
M  V30 10913 C 1049.89 1.63616 0.286175 0
M  V30 10914 O 1051.07 1.90059 0.167981 0
M  V30 10915 C 1048.21 3.44737 -0.158157 0
M  V30 10916 C 1047.33 4.14104 -1.23053 0
M  V30 10917 C 1046.46 5.27578 -0.619272 0
M  V30 10918 C 1045.5 5.88793 -1.67301 0
M  V30 10919 N 1044.64 6.937 -1.08283 0
M  V30 10920 H 1049.48 2.49128 -1.63522 0
M  V30 10921 H 1047.02 1.22326 -0.816995 0
M  V30 10922 H 1048.97 4.16756 0.192488 0
M  V30 10923 H 1047.6 3.14938 0.708082 0
M  V30 10924 H 1046.66 3.40376 -1.69847 0
M  V30 10925 H 1047.97 4.55683 -2.02865 0
M  V30 10926 H 1047.12 6.0631 -0.217428 0
M  V30 10927 H 1045.86 4.87246 0.210399 0
M  V30 10928 H 1044.87 5.08756 -2.0844 0
M  V30 10929 H 1046.09 6.31197 -2.50533 0
M  V30 10930 H 1044.04 6.55426 -0.274426 0
M  V30 10931 H 1043.95 7.33817 -1.81792 0
M  V30 10932 H 1045.22 7.76286 -0.707167 0
M  V30 10933 N 1049.45 0.880621 1.30701 0
M  V30 10934 C 1050.4 0.333562 2.30196 0
M  V30 10935 C 1051.39 -0.557092 1.59978 0
M  V30 10936 O 1052.6 -0.442009 1.74489 0
M  V30 10937 H 1048.97 0.0892036 0.746691 0
M  V30 10938 H 1050.95 1.18644 2.73799 0
M  V30 10939 C 1049.69 -0.440731 3.44895 0
M  V30 10940 H 1049.02 0.235353 3.99107 0
M  V30 10941 H 1050.46 -0.788676 4.166 0
M  V30 10942 C 1048.92 -1.63613 2.94504 0
M  V30 10943 O 1049.45 -2.73549 2.94166 0
M  V30 10944 N 1047.65 -1.47183 2.5057 0
M  V30 10945 H 1047.2 -0.577479 2.51044 0
M  V30 10946 H 1047.16 -2.27303 2.17211 0
M  V30 10947 N 1050.93 -1.4397 0.641131 0
M  V30 10948 C 1052.18 -2.01548 0.149333 0
M  V30 10949 C 1052.5 -1.50759 -1.23679 0
M  V30 10950 O 1051.77 -0.715257 -1.82376 0
M  V30 10951 H 1050.35 -0.745173 0.0522161 0
M  V30 10952 H 1053.01 -1.7634 0.830082 0
M  V30 10953 H 1052.11 -3.11851 0.124676 0
M  V30 10954 N 1052.41 -0.382291 -1.52893 0
M  V30 10955 C 1053.35 0.456234 -2.26246 0
M  V30 10956 C 1054.32 1.06366 -1.27575 0
M  V30 10957 O 1055.51 1.09301 -1.5639 0
M  V30 10958 C 1052.65 1.5813 -3.06739 0
M  V30 10959 C 1051.76 0.997416 -4.20328 0
M  V30 10960 C 1050.9 2.09296 -4.8823 0
M  V30 10961 C 1049.94 1.4846 -5.93823 0
M  V30 10962 N 1049.07 2.51916 -6.55349 0
M  V30 10963 H 1053.91 -0.175761 -2.97481 0
M  V30 10964 H 1051.45 -0.0985046 -1.4677 0
M  V30 10965 H 1053.41 2.24426 -3.51694 0
M  V30 10966 H 1052.04 2.18371 -2.37727 0
M  V30 10967 H 1051.09 0.224251 -3.79738 0
M  V30 10968 H 1052.4 0.512784 -4.96157 0
M  V30 10969 H 1051.56 2.83377 -5.36453 0
M  V30 10970 H 1050.3 2.61116 -4.1191 0
M  V30 10971 H 1049.3 0.729001 -5.44946 0
M  V30 10972 H 1050.53 0.97443 -6.72073 0
M  V30 10973 H 1048.47 3.02919 -5.81873 0
M  V30 10974 H 1048.39 2.08188 -7.26769 0
M  V30 10975 H 1049.66 3.25649 -7.08218 0
M  V30 10976 N 1053.89 1.57202 -0.111913 0
M  V30 10977 C 1055.11 1.99297 0.555713 0
M  V30 10978 C 1055.53 0.991444 1.60673 0
M  V30 10979 O 1054.89 -0.0166672 1.82492 0
M  V30 10980 C 1054.94 3.41413 1.18826 0
M  V30 10981 O 1054.66 4.37733 0.179261 0
M  V30 10982 C 1056.16 3.98602 1.93989 0
M  V30 10983 H 1053.38 0.654543 0.147695 0
M  V30 10984 H 1055.92 2.03557 -0.196163 0
M  V30 10985 H 1054.08 3.38115 1.89096 0
M  V30 10986 H 1054.49 5.20606 0.637935 0
M  V30 10987 H 1055.97 5.00143 2.33584 0
M  V30 10988 H 1056.44 3.37349 2.81233 0
M  V30 10989 H 1057.05 4.05424 1.28497 0
M  V30 10990 N 1055.36 -0.161842 1.56767 0
M  V30 10991 C 1056.59 -0.896274 1.87034 0
M  V30 10992 C 1057.01 -1.74617 0.699314 0
M  V30 10993 O 1056.37 -1.77861 -0.351435 0
M  V30 10994 C 1056.42 -1.74105 3.15784 0
M  V30 10995 O 1055.52 -2.84372 2.98674 0
M  V30 10996 H 1054.86 -0.250523 0.614926 0
M  V30 10997 H 1057.39 -0.157127 2.03996 0
M  V30 10998 H 1057.4 -2.13907 3.4743 0
M  V30 10999 H 1056.08 -1.11684 4.00624 0
M  V30 11000 H 1054.66 -2.48084 2.78404 0
M  V30 11001 N 1056.84 -1.516 -0.430713 0
M  V30 11002 C 1058.25 -1.57 -1.01035 0
M  V30 11003 C 1058.6 -0.397439 -1.92132 0
M  V30 11004 O 1057.73 0.484954 -2.10896 0
M  V30 11005 C 1058.32 -2.84536 -1.83915 0
M  V30 11006 C 1056.88 -2.92485 -2.36917 0
M  V30 11007 C 1056.03 -2.5173 -1.16308 0
M  V30 11008 H 1058.98 -1.57281 -0.211734 0
M  V30 11009 H 1059 -2.68672 -2.69435 0
M  V30 11010 H 1058.51 -3.69858 -1.17586 0
M  V30 11011 H 1056.61 -2.11608 -3.0668 0
M  V30 11012 H 1056.73 -3.96277 -2.6926 0
M  V30 11013 H 1055.09 -2.05079 -1.51045 0
M  V30 11014 H 1055.87 -3.39403 -0.515793 0
M  V30 11015 N 1058.32 0.686584 -1.41858 0
M  V30 11016 C 1059.28 1.78214 -1.44126 0
M  V30 11017 C 1060.28 1.57366 -0.330541 0
M  V30 11018 O 1061.47 1.63874 -0.590837 0
M  V30 11019 C 1058.6 3.16704 -1.26142 0
M  V30 11020 H 1059.8 1.77594 -2.41661 0
M  V30 11021 H 1057.35 0.895085 -1.28132 0
M  V30 11022 H 1058.09 3.22957 -0.294823 0
M  V30 11023 H 1057.87 3.33238 -2.06627 0
M  V30 11024 H 1059.36 3.96658 -1.30584 0
M  V30 11025 N 1059.8 1.27835 0.921735 0
M  V30 11026 C 1061.02 1.17465 1.70929 0
M  V30 11027 C 1061.45 -0.264171 1.86236 0
M  V30 11028 O 1060.81 -1.19124 1.36671 0
M  V30 11029 C 1060.85 1.8697 3.08342 0
M  V30 11030 O 1059.96 1.17173 3.95404 0
M  V30 11031 H 1059.3 0.408206 0.523702 0
M  V30 11032 H 1061.83 1.69013 1.15307 0
M  V30 11033 H 1061.84 1.94564 3.58621 0
M  V30 11034 H 1060.51 2.91633 2.96518 0
M  V30 11035 H 1059.09 1.17688 3.53842 0
M  V30 11036 N 1061.28 -1.12907 1.09954 0
M  V30 11037 C 1062.22 -2.18485 0.743848 0
M  V30 11038 C 1063.19 -1.63766 -0.277494 0
M  V30 11039 O 1064.38 -1.90146 -0.157899 0
M  V30 11040 C 1061.52 -3.44649 0.176437 0
M  V30 11041 C 1060.63 -4.13445 1.25248 0
M  V30 11042 C 1059.77 -5.27242 0.647242 0
M  V30 11043 C 1058.8 -5.87897 1.70421 0
M  V30 11044 N 1057.94 -6.93116 1.1196 0
M  V30 11045 H 1062.78 -2.48257 1.64841 0
M  V30 11046 H 1060.32 -1.21891 0.823471 0
M  V30 11047 H 1062.28 -4.16852 -0.170384 0
M  V30 11048 H 1060.91 -3.15309 -0.69137 0
M  V30 11049 H 1059.96 -3.39471 1.7165 0
M  V30 11050 H 1061.27 -4.54601 2.05279 0
M  V30 11051 H 1060.42 -6.06186 0.249579 0
M  V30 11052 H 1059.16 -4.87351 -0.184556 0
M  V30 11053 H 1058.17 -5.07643 2.11136 0
M  V30 11054 H 1059.39 -6.2986 2.53877 0
M  V30 11055 H 1057.34 -6.55271 0.309181 0
M  V30 11056 H 1057.26 -7.32843 1.85681 0
M  V30 11057 H 1058.52 -7.759 0.748326 0
M  V30 11058 N 1062.75 -0.88754 -1.30232 0
M  V30 11059 C 1064.03 -0.427249 -1.90877 0
M  V30 11060 C 1064.41 1.0922 -1.80649 0
M  V30 11061 O 1063.76 1.92866 -1.22536 0
M  V30 11062 C 1063.97 -0.928219 -3.3643 0
M  V30 11063 C 1065.32 -0.964706 -4.13496 0
M  V30 11064 O 1066.34 -0.875057 -3.45284 0
M  V30 11065 O 1065.2 -1.09754 -5.35366 0
M  V30 11066 H 1062.29 -0.131107 -0.816541 0
M  V30 11067 H 1064.84 -0.976609 -1.38782 0
M  V30 11068 H 1063.61 -1.97209 -3.37971 0
M  V30 11069 H 1063.23 -0.358169 -3.95983 0
M  V30 11070 N 1064.23 1.43628 -0.648757 0
M  V30 11071 C 1065.16 2.29045 0.0841858 0
M  V30 11072 C 1066.18 1.42262 0.791537 0
M  V30 11073 O 1067.37 1.66243 0.650039 0
M  V30 11074 C 1064.47 3.19075 1.14212 0
M  V30 11075 C 1063.64 4.34372 0.513799 0
M  V30 11076 C 1062.7 5.05307 1.46803 0
M  V30 11077 O 1061.72 5.60729 0.978346 0
M  V30 11078 N 1062.93 5.08393 2.80209 0
M  V30 11079 H 1065.69 2.9259 -0.648948 0
M  V30 11080 H 1063.25 1.54268 -0.491209 0
M  V30 11081 H 1065.24 3.63395 1.78119 0
M  V30 11082 H 1063.81 2.57161 1.77728 0
M  V30 11083 H 1063.03 3.93024 -0.304262 0
M  V30 11084 H 1064.32 5.08745 0.0749871 0
M  V30 11085 H 1063.72 4.64729 3.22557 0
M  V30 11086 H 1062.28 5.56445 3.3943 0
M  V30 11087 N 1065.71 0.390394 1.52688 0
M  V30 11088 C 1067.13 0.0404028 1.59549 0
M  V30 11089 C 1067.33 -1.44503 1.40432 0
M  V30 11090 O 1066.38 -2.20968 1.22187 0
M  V30 11091 C 1067.7 0.518561 2.96195 0
M  V30 11092 C 1069.24 0.474913 3.09376 0
M  V30 11093 C 1069.72 0.929278 4.48473 0
M  V30 11094 N 1071.21 0.885335 4.5466 0
M  V30 11095 C 1071.94 1.2083 5.60524 0
M  V30 11096 N 1071.44 1.6018 6.74028 0
M  V30 11097 N 1073.23 1.12949 5.50635 0
M  V30 11098 H 1065.38 1.35743 1.63363 0
M  V30 11099 H 1067.65 0.556453 0.767505 0
M  V30 11100 H 1067.35 1.55606 3.15404 0
M  V30 11101 H 1067.23 -0.081779 3.77111 0
M  V30 11102 H 1069.61 -0.553503 2.89863 0
M  V30 11103 H 1069.7 1.11107 2.3041 0
M  V30 11104 H 1069.34 1.95593 4.68728 0
M  V30 11105 H 1069.27 0.270121 5.25907 0
M  V30 11106 H 1071.76 0.595787 3.73174 0
M  V30 11107 H 1072.07 1.83184 7.50775 0
M  V30 11108 H 1070.42 1.64067 6.75357 0
M  V30 11109 H 1073.61 0.821074 4.60843 0
M  V30 11110 H 1073.78 1.3845 6.33037 0
M  V30 11111 N 1067.19 -1.57141 0.120249 0
M  V30 11112 C 1068.42 -1.99589 -0.545136 0
M  V30 11113 C 1068.83 -0.999951 -1.60145 0
M  V30 11114 O 1068.19 0.00698897 -1.82499 0
M  V30 11115 C 1068.24 -3.42038 -1.17014 0
M  V30 11116 O 1067.96 -4.37822 -0.156044 0
M  V30 11117 C 1069.46 -3.99625 -1.91872 0
M  V30 11118 H 1066.68 -0.655318 -0.144222 0
M  V30 11119 H 1069.23 -2.0345 0.206955 0
M  V30 11120 H 1067.38 -3.39113 -1.873 0
M  V30 11121 H 1067.79 -5.20937 -0.610317 0
M  V30 11122 H 1069.27 -5.01374 -2.30928 0
M  V30 11123 H 1069.75 -3.38836 -2.7944 0
M  V30 11124 H 1070.35 -4.061 -1.26345 0
M  V30 11125 N 1068.67 0.153526 -1.5685 0
M  V30 11126 C 1069.91 0.865519 -1.82629 0
M  V30 11127 C 1070.24 1.81999 -0.700105 0
M  V30 11128 O 1069.51 1.93907 0.278744 0
M  V30 11129 H 1068.09 0.32261 -0.673745 0
M  V30 11130 H 1070.75 0.149088 -1.94329 0
M  V30 11131 H 1069.84 1.43171 -2.77324 0
M  V30 11132 N 1070.14 1.51827 0.422667 0
M  V30 11133 C 1071.09 1.74198 1.51406 0
M  V30 11134 C 1072.06 0.584013 1.55494 0
M  V30 11135 O 1073.25 0.820079 1.72277 0
M  V30 11136 C 1070.39 1.88627 2.88988 0
M  V30 11137 C 1069.5 3.16233 2.94314 0
M  V30 11138 C 1068.63 3.21172 4.2311 0
M  V30 11139 C 1067.67 4.43033 4.2236 0
M  V30 11140 N 1066.81 4.4544 5.42704 0
M  V30 11141 H 1071.65 2.67352 1.31632 0
M  V30 11142 H 1069.19 1.32487 0.63919 0
M  V30 11143 H 1071.15 1.94976 3.68837 0
M  V30 11144 H 1069.78 0.988673 3.07287 0
M  V30 11145 H 1068.83 3.19123 2.07039 0
M  V30 11146 H 1070.14 4.06104 2.89623 0
M  V30 11147 H 1069.29 3.26517 5.11343 0
M  V30 11148 H 1068.03 2.29216 4.30478 0
M  V30 11149 H 1067.04 4.37849 3.32518 0
M  V30 11150 H 1068.26 5.3627 4.16643 0
M  V30 11151 H 1066.21 3.56361 5.50766 0
M  V30 11152 H 1066.13 5.29138 5.39953 0
M  V30 11153 H 1067.39 4.54997 6.32928 0
M  V30 11154 N 1071.62 -0.679052 1.4222 0
M  V30 11155 C 1072.57 -1.79269 1.45366 0
M  V30 11156 C 1073.54 -1.63255 0.306089 0
M  V30 11157 O 1074.72 -1.8387 0.509548 0
M  V30 11158 C 1071.86 -3.17272 1.35766 0
M  V30 11159 C 1070.98 -3.44603 2.60525 0
M  V30 11160 C 1070.11 -4.7231 2.43098 0
M  V30 11161 C 1069.15 -4.92661 3.63251 0
M  V30 11162 N 1068.29 -6.11606 3.44794 0
M  V30 11163 H 1073.13 -1.75916 2.40536 0
M  V30 11164 H 1070.67 -0.858836 1.19425 0
M  V30 11165 H 1072.62 -3.97015 1.282 0
M  V30 11166 H 1071.25 -3.1976 0.441939 0
M  V30 11167 H 1070.31 -2.59144 2.78475 0
M  V30 11168 H 1071.62 -3.55536 3.49851 0
M  V30 11169 H 1070.77 -5.60136 2.33093 0
M  V30 11170 H 1069.51 -4.63652 1.51255 0
M  V30 11171 H 1068.52 -4.03278 3.73693 0
M  V30 11172 H 1069.74 -5.03167 4.5607 0
M  V30 11173 H 1067.69 -6.04129 2.55663 0
M  V30 11174 H 1067.6 -6.23381 4.27705 0
M  V30 11175 H 1068.87 -7.02122 3.38592 0
M  V30 11176 N 1073.1 -1.28322 -0.914942 0
M  V30 11177 C 1074.33 -1.18254 -1.69775 0
M  V30 11178 C 1074.74 0.258978 -1.87015 0
M  V30 11179 O 1074.1 1.17514 -1.3963 0
M  V30 11180 C 1074.15 -1.8753 -3.09054 0
M  V30 11181 O 1073.87 -3.26051 -2.92613 0
M  V30 11182 C 1075.37 -1.83749 -4.03424 0
M  V30 11183 H 1072.59 -0.41055 -0.530744 0
M  V30 11184 H 1075.14 -1.69425 -1.14523 0
M  V30 11185 H 1073.29 -1.40233 -3.61128 0
M  V30 11186 H 1073.71 -3.60729 -3.80756 0
M  V30 11187 H 1075.18 -2.36813 -4.98622 0
M  V30 11188 H 1075.66 -0.809601 -4.31674 0
M  V30 11189 H 1076.26 -2.3072 -3.57279 0
M  V30 11190 N 1074.58 1.12322 -1.10551 0
M  V30 11191 C 1075.8 1.8822 -0.871093 0
M  V30 11192 C 1076.23 1.7916 0.573005 0
M  V30 11193 O 1075.59 1.14738 1.40374 0
M  V30 11194 C 1075.63 3.35349 -1.32565 0
M  V30 11195 O 1074.74 4.09461 -0.49145 0
M  V30 11196 H 1074.08 0.584787 -0.314516 0
M  V30 11197 H 1076.61 1.42039 -1.47262 0
M  V30 11198 H 1076.62 3.86189 -1.31612 0
M  V30 11199 H 1075.29 3.4126 -2.37728 0
M  V30 11200 H 1073.87 3.68575 -0.566294 0
M  V30 11201 N 1076.06 0.894434 1.2976 0
M  V30 11202 C 1077.3 0.518435 1.96061 0
M  V30 11203 C 1077.64 -0.931882 1.70381 0
M  V30 11204 O 1076.91 -1.65988 1.01381 0
M  V30 11205 C 1077.19 0.80519 3.50982 0
M  V30 11206 C 1077.05 2.30683 3.86142 0
M  V30 11207 C 1078.37 0.288096 4.39156 0
M  V30 11208 H 1075.48 0.18983 0.712133 0
M  V30 11209 H 1078.13 1.12016 1.53468 0
M  V30 11210 H 1076.28 0.293071 3.87393 0
M  V30 11211 H 1077.95 2.88808 3.59705 0
M  V30 11212 H 1076.19 2.76968 3.33873 0
M  V30 11213 H 1076.86 2.45805 4.94251 0
M  V30 11214 H 1079.34 0.726547 4.09708 0
M  V30 11215 H 1078.21 0.517985 5.4645 0
M  V30 11216 H 1078.48 -0.811018 4.34597 0
M  V30 11217 N 1077.53 -1.43282 0.656365 0
M  V30 11218 C 1078.47 -2.29087 -0.0720378 0
M  V30 11219 C 1079.48 -1.4268 -0.783982 0
M  V30 11220 O 1080.67 -1.66585 -0.641213 0
M  V30 11221 C 1077.77 -3.19676 -1.12519 0
M  V30 11222 C 1076.94 -4.34638 -0.490756 0
M  V30 11223 C 1076 -5.06079 -1.44121 0
M  V30 11224 O 1075.03 -5.6124 -0.948595 0
M  V30 11225 N 1076.23 -5.09872 -2.77509 0
M  V30 11226 H 1078.99 -2.92241 0.664456 0
M  V30 11227 H 1076.55 -1.54006 0.499383 0
M  V30 11228 H 1078.55 -3.64334 -1.76189 0
M  V30 11229 H 1077.12 -2.581 -1.76362 0
M  V30 11230 H 1076.34 -3.92857 0.3251 0
M  V30 11231 H 1077.62 -5.08777 -0.0480061 0
M  V30 11232 H 1077.02 -4.66433 -3.20088 0
M  V30 11233 H 1075.58 -5.58237 -3.36474 0
M  V30 11234 N 1079.01 -0.398486 -1.52479 0
M  V30 11235 C 1080.26 0.180394 -2.01293 0
M  V30 11236 C 1080.58 1.46548 -1.28641 0
M  V30 11237 O 1079.85 1.91579 -0.409173 0
M  V30 11238 H 1078.43 0.0696528 -0.743746 0
M  V30 11239 H 1081.09 -0.532285 -1.87491 0
M  V30 11240 H 1080.19 0.38409 -3.09728 0
M  V30 11241 N 1080.49 1.57075 -0.12858 0
M  V30 11242 C 1081.42 2.12907 0.848708 0
M  V30 11243 C 1082.44 1.07406 1.22343 0
M  V30 11244 O 1083.63 1.34746 1.17071 0
M  V30 11245 C 1080.73 2.62167 2.1476 0
M  V30 11246 C 1079.9 3.91871 1.94309 0
M  V30 11247 C 1078.96 4.26629 3.08016 0
M  V30 11248 O 1077.98 4.9528 2.80511 0
M  V30 11249 N 1079.19 3.84721 4.34706 0
M  V30 11250 H 1081.95 2.97387 0.371636 0
M  V30 11251 H 1079.51 1.61805 0.0555574 0
M  V30 11252 H 1081.5 2.82444 2.89841 0
M  V30 11253 H 1080.07 1.82514 2.53786 0
M  V30 11254 H 1079.29 3.80406 1.03367 0
M  V30 11255 H 1080.58 4.76662 1.77962 0
M  V30 11256 H 1079.98 3.2937 4.59926 0
M  V30 11257 H 1078.54 4.10087 5.06628 0
M  V30 11258 N 1081.97 -0.145205 1.5693 0
M  V30 11259 C 1083.22 -0.858786 1.83719 0
M  V30 11260 C 1083.55 -1.80738 0.710452 0
M  V30 11261 O 1082.82 -1.92389 -0.285791 0
M  V30 11262 C 1083.11 -1.6317 3.2101 0
M  V30 11263 C 1082.96 -0.704472 4.44249 0
M  V30 11264 C 1084.28 -2.59377 3.55544 0
M  V30 11265 H 1081.4 -0.310757 0.66828 0
M  V30 11266 H 1084.04 -0.123918 1.89595 0
M  V30 11267 H 1082.19 -2.25816 3.16132 0
M  V30 11268 H 1083.86 -0.08887 4.61214 0
M  V30 11269 H 1082.1 -0.0141693 4.33798 0
M  V30 11270 H 1082.78 -1.28135 5.36922 0
M  V30 11271 H 1085.25 -2.06848 3.61044 0
M  V30 11272 H 1084.13 -3.10506 4.52634 0
M  V30 11273 H 1084.39 -3.40819 2.81594 0
M  V30 11274 N 1083.45 -1.52049 -0.414609 0
M  V30 11275 C 1084.38 -1.7122 -1.52369 0
M  V30 11276 C 1085.39 -0.592634 -1.5163 0
M  V30 11277 O 1086.58 -0.867634 -1.55995 0
M  V30 11278 C 1083.68 -1.73247 -2.91271 0
M  V30 11279 C 1082.85 -3.02153 -3.16263 0
M  V30 11280 C 1081.91 -2.96066 -4.35007 0
M  V30 11281 O 1080.94 -3.69981 -4.32554 0
M  V30 11282 N 1082.14 -2.13478 -5.39822 0
M  V30 11283 H 1084.91 -2.66902 -1.3632 0
M  V30 11284 H 1082.47 -1.50218 -0.603842 0
M  V30 11285 H 1084.46 -1.66714 -3.68766 0
M  V30 11286 H 1083.03 -0.85062 -3.00804 0
M  V30 11287 H 1082.25 -3.22379 -2.2686 0
M  V30 11288 H 1083.54 -3.87439 -3.29801 0
M  V30 11289 H 1082.94 -1.52844 -5.44661 0
M  V30 11290 H 1081.49 -2.12805 -6.16082 0
M  V30 11291 N 1084.93 0.6715 -1.42579 0
M  V30 11292 C 1085.87 1.78496 -1.46314 0
M  V30 11293 C 1086.84 1.63091 -0.314743 0
M  V30 11294 O 1088.03 1.83597 -0.519292 0
M  V30 11295 C 1085.17 3.16548 -1.37447 0
M  V30 11296 C 1084.28 3.43216 -2.62348 0
M  V30 11297 C 1083.42 4.71014 -2.456 0
M  V30 11298 C 1082.45 4.90728 -3.65859 0
M  V30 11299 N 1081.59 6.09769 -3.48032 0
M  V30 11300 H 1086.43 1.74638 -2.41466 0
M  V30 11301 H 1083.97 0.852491 -1.19879 0
M  V30 11302 H 1085.93 3.96329 -1.30303 0
M  V30 11303 H 1084.56 3.19522 -0.458891 0
M  V30 11304 H 1083.61 2.57664 -2.79846 0
M  V30 11305 H 1084.92 3.53675 -3.51732 0
M  V30 11306 H 1084.07 5.58892 -2.3606 0
M  V30 11307 H 1082.81 4.62843 -1.53712 0
M  V30 11308 H 1081.82 4.01291 -3.75827 0
M  V30 11309 H 1083.04 5.00741 -4.58732 0
M  V30 11310 H 1080.99 6.02765 -2.58864 0
M  V30 11311 H 1080.91 6.21104 -4.31005 0
M  V30 11312 H 1082.17 7.00317 -3.42311 0
M  V30 11313 N 1086.4 1.28806 0.908124 0
M  V30 11314 C 1087.65 1.16058 1.65454 0
M  V30 11315 C 1087.97 -0.290057 1.92831 0
M  V30 11316 O 1087.24 -1.20001 1.54843 0
M  V30 11317 H 1085.82 0.426522 0.61326 0
M  V30 11318 H 1088.48 1.61614 1.08936 0
M  V30 11319 H 1087.58 1.70437 2.61453 0
M  V30 11320 N 1087.88 -1.11734 1.11145 0
M  V30 11321 C 1088.83 -2.19765 0.761982 0
M  V30 11322 C 1089.82 -1.67616 -0.24518 0
M  V30 11323 O 1091.03 -1.79695 -0.104781 0
M  V30 11324 H 1087.4 -0.71644 0.228513 0
M  V30 11325 H 1089.38 -2.4649 1.68183 0
M  V30 11326 C 1088.12 -3.47016 0.218057 0
M  V30 11327 H 1087.45 -3.87494 0.984299 0
M  V30 11328 H 1088.89 -4.23998 0.0116825 0
M  V30 11329 C 1087.35 -3.20088 -1.05096 0
M  V30 11330 O 1087.88 -3.40503 -2.1312 0
M  V30 11331 N 1086.08 -2.73844 -0.972523 0
M  V30 11332 H 1085.63 -2.57431 -0.0933459 0
M  V30 11333 H 1085.59 -2.56204 -1.82228 0
M  V30 11334 N 1089.36 -0.901303 -1.29284 0
M  V30 11335 C 1090.64 -0.44747 -1.90413 0
M  V30 11336 C 1091.02 1.07298 -1.81797 0
M  V30 11337 O 1090.36 1.91555 -1.24574 0
M  V30 11338 C 1090.57 -0.963849 -3.35427 0
M  V30 11339 C 1091.92 -1.00851 -4.12449 0
M  V30 11340 O 1092.95 -0.91163 -3.44337 0
M  V30 11341 O 1091.81 -1.15426 -5.34171 0
M  V30 11342 H 1088.9 -0.13976 -0.815105 0
M  V30 11343 H 1091.45 -0.991274 -1.37738 0
M  V30 11344 H 1090.22 -2.00782 -3.3586 0
M  V30 11345 H 1089.84 -0.400149 -3.95581 0
M  V30 11346 N 1090.84 1.42931 -0.663954 0
M  V30 11347 C 1091.75 2.3459 0.0214234 0
M  V30 11348 C 1092.76 1.54487 0.800611 0
M  V30 11349 O 1093.94 1.87098 0.74541 0
M  V30 11350 C 1091 3.32896 0.968556 0
M  V30 11351 C 1090.07 4.28901 0.185108 0
M  V30 11352 C 1089.3 5.2251 1.08713 0
M  V30 11353 O 1089.52 5.20795 2.32655 0
M  V30 11354 O 1088.46 5.99347 0.553758 0
M  V30 11355 H 1092.28 2.94714 -0.733308 0
M  V30 11356 H 1089.87 1.43252 -0.424159 0
M  V30 11357 H 1091.75 3.93318 1.51257 0
M  V30 11358 H 1090.42 2.75261 1.70333 0
M  V30 11359 H 1089.33 3.71926 -0.402752 0
M  V30 11360 H 1090.66 4.89547 -0.510319 0
M  V30 11361 N 1092.32 0.406567 1.52266 0
M  V30 11362 C 1093.54 -0.172101 2.06685 0
M  V30 11363 C 1093.97 -1.38306 1.27488 0
M  V30 11364 O 1093.32 -1.78726 0.304441 0
M  V30 11365 C 1093.37 -0.503463 3.57068 0
M  V30 11366 O 1092.48 -1.59485 3.80314 0
M  V30 11367 H 1091.82 -0.0153209 0.663823 0
M  V30 11368 H 1094.35 0.579025 1.96236 0
M  V30 11369 H 1094.36 -0.762833 4.00805 0
M  V30 11370 H 1093.03 0.381775 4.14144 0
M  V30 11371 H 1091.61 -1.32784 3.48458 0
M  V30 11372 N 1093.79 -1.57004 0.136909 0
M  V30 11373 C 1094.7 -2.19807 -0.819887 0
M  V30 11374 C 1095.72 -1.17939 -1.27932 0
M  V30 11375 O 1096.9 -1.50478 -1.3386 0
M  V30 11376 C 1093.96 -2.79935 -2.04542 0
M  V30 11377 C 1093.02 -3.96897 -1.6362 0
M  V30 11378 C 1092.26 -4.54148 -2.80331 0
M  V30 11379 O 1092.48 -4.10282 -3.96264 0
M  V30 11380 O 1091.41 -5.44565 -2.56384 0
M  V30 11381 H 1095.24 -3.02058 -0.315337 0
M  V30 11382 H 1092.82 -1.49131 -0.0896151 0
M  V30 11383 H 1094.71 -3.18191 -2.76283 0
M  V30 11384 H 1093.38 -2.00703 -2.53969 0
M  V30 11385 H 1092.29 -3.63376 -0.889316 0
M  V30 11386 H 1093.62 -4.77618 -1.18918 0
M  V30 11387 N 1095.27 0.136881 -1.57004 0
M  V30 11388 C 1096.5 0.866405 -1.88436 0
M  V30 11389 C 1096.92 1.73483 -0.727006 0
M  V30 11390 O 1096.28 1.78398 0.323094 0
M  V30 11391 C 1096.33 1.69059 -3.18514 0
M  V30 11392 O 1095.43 2.79584 -3.03161 0
M  V30 11393 H 1094.77 0.240709 -0.618834 0
M  V30 11394 H 1097.3 0.124653 -2.0422 0
M  V30 11395 H 1097.31 2.08353 -3.50789 0
M  V30 11396 H 1095.99 1.05296 -4.0235 0
M  V30 11397 H 1094.57 2.43623 -2.82315 0
M  V30 11398 N 1096.75 1.52266 0.40654 0
M  V30 11399 C 1098.03 1.57018 1.1664 0
M  V30 11400 C 1098.41 0.352752 2.08132 0
M  V30 11401 O 1097.76 -0.660208 2.18754 0
M  V30 11402 C 1097.97 2.90016 1.94143 0
M  V30 11403 C 1099.31 3.43112 2.50119 0
M  V30 11404 O 1100.34 2.91773 2.0432 0
M  V30 11405 O 1099.2 4.32765 3.33731 0
M  V30 11406 H 1096.29 0.632574 0.532709 0
M  V30 11407 H 1098.84 1.64595 0.413111 0
M  V30 11408 H 1097.61 3.70071 1.27134 0
M  V30 11409 H 1097.23 2.85744 2.76471 0
M  V30 11410 N 1098.23 -0.663929 1.42933 0
M  V30 11411 C 1099.48 -1.42393 1.43981 0
M  V30 11412 C 1099.8 -1.94407 0.0601802 0
M  V30 11413 O 1099.06 -1.72019 -0.933172 0
M  V30 11414 C 1099.36 -2.62976 2.4203 0
M  V30 11415 C 1099.02 -2.29441 3.88159 0
M  V30 11416 C 1097.69 -2.20007 4.27961 0
M  V30 11417 C 1100.04 -2.02413 4.8029 0
M  V30 11418 C 1097.37 -1.81686 5.57859 0
M  V30 11419 C 1099.72 -1.65592 6.10542 0
M  V30 11420 C 1098.38 -1.54676 6.49332 0
M  V30 11421 H 1097.65 -0.521051 0.526865 0
M  V30 11422 H 1100.3 -0.756042 1.75944 0
M  V30 11423 H 1098.6 -3.34847 2.03433 0
M  V30 11424 H 1100.3 -3.21174 2.40101 0
M  V30 11425 H 1096.89 -2.3769 3.56653 0
M  V30 11426 H 1101.07 -2.08628 4.5032 0
M  V30 11427 H 1096.33 -1.71812 5.86763 0
M  V30 11428 H 1100.5 -1.43707 6.81411 0
M  V30 11429 H 1098.13 -1.24752 7.49894 0
M  V30 11430 N 1099.71 -1.29285 -0.901281 0
M  V30 11431 C 1100.62 -1.16161 -2.03823 0
M  V30 11432 C 1101.63 -0.0852298 -1.73791 0
M  V30 11433 O 1102.81 -0.29699 -1.99198 0
M  V30 11434 C 1099.87 -0.837586 -3.3643 0
M  V30 11435 C 1098.93 -1.99764 -3.7999 0
M  V30 11436 C 1098.17 -1.68898 -5.0627 0
M  V30 11437 O 1098.39 -0.609177 -5.67138 0
M  V30 11438 O 1097.32 -2.53648 -5.45845 0
M  V30 11439 H 1101.15 -2.11635 -2.17817 0
M  V30 11440 H 1098.74 -1.08722 -1.02468 0
M  V30 11441 H 1100.62 -0.671376 -4.16017 0
M  V30 11442 H 1099.29 0.0873811 -3.23582 0
M  V30 11443 H 1098.2 -2.21908 -3.01177 0
M  V30 11444 H 1099.53 -2.90376 -3.9742 0
M  V30 11445 N 1101.18 1.11143 -1.11736 0
M  V30 11446 C 1102.41 1.87285 -0.891007 0
M  V30 11447 C 1102.83 1.79758 0.553971 0
M  V30 11448 O 1102.19 1.16221 1.39149 0
M  V30 11449 C 1102.24 3.33924 -1.36114 0
M  V30 11450 O 1101.34 4.08917 -0.534851 0
M  V30 11451 H 1100.69 0.581418 -0.320701 0
M  V30 11452 H 1103.22 1.40469 -1.4876 0
M  V30 11453 H 1103.23 3.84772 -1.35701 0
M  V30 11454 H 1101.9 3.38719 -2.41334 0
M  V30 11455 H 1100.48 3.67954 -0.605355 0
M  V30 11456 N 1102.66 0.908147 1.28804 0
M  V30 11457 C 1103.94 0.457561 1.90173 0
M  V30 11458 C 1104.32 -1.06333 1.82364 0
M  V30 11459 O 1103.67 -1.90892 1.25589 0
M  V30 11460 C 1103.88 0.981624 3.34911 0
M  V30 11461 C 1105.23 1.03037 4.11908 0
M  V30 11462 O 1106.25 0.929878 3.43848 0
M  V30 11463 O 1105.11 1.18257 5.33552 0
M  V30 11464 H 1102.2 0.144081 0.814352 0
M  V30 11465 H 1104.75 0.998565 1.37211 0
M  V30 11466 H 1103.52 2.02561 3.34791 0
M  V30 11467 H 1103.14 0.421122 3.95364 0
M  V30 11468 N 1104.14 -1.42577 0.671525 0
M  V30 11469 C 1105.55 -1.84736 0.270084 0
M  V30 11470 C 1105.9 -1.56212 -1.18711 0
M  V30 11471 O 1105.03 -1.02028 -1.90838 0
M  V30 11472 C 1105.62 -3.35334 0.483409 0
M  V30 11473 C 1104.18 -3.76154 0.136119 0
M  V30 11474 C 1103.33 -2.66179 0.777444 0
M  V30 11475 H 1106.28 -1.3247 0.873919 0
M  V30 11476 H 1106.3 -3.79573 -0.265483 0
M  V30 11477 H 1105.81 -3.56063 1.54405 0
M  V30 11478 H 1103.91 -3.61033 -0.921209 0
M  V30 11479 H 1104.03 -4.75645 0.574356 0
M  V30 11480 H 1102.39 -2.53841 0.209055 0
M  V30 11481 H 1103.17 -2.89732 1.84148 0
M  V30 11482 N 1105.62 -0.414636 -1.52048 0
M  V30 11483 C 1107.03 0.0537107 -1.86623 0
M  V30 11484 C 1107.38 1.43955 -1.3331 0
M  V30 11485 O 1106.51 2.05616 -0.674606 0
M  V30 11486 C 1107.1 0.104241 -3.3864 0
M  V30 11487 C 1105.66 0.516936 -3.72833 0
M  V30 11488 C 1104.81 -0.305042 -2.75617 0
M  V30 11489 H 1107.76 -0.631469 -1.45596 0
M  V30 11490 H 1107.78 0.918395 -3.6925 0
M  V30 11491 H 1107.29 -0.904523 -3.77412 0
M  V30 11492 H 1105.39 1.53214 -3.39641 0
M  V30 11493 H 1105.5 0.2575 -4.78408 0
M  V30 11494 H 1103.87 0.233416 -2.53628 0
M  V30 11495 H 1104.65 -1.31226 -3.1723 0
M  V30 11496 N 1107.1 1.56929 -0.145233 0
M  V30 11497 C 1108.32 2.00864 0.516564 0
M  V30 11498 C 1108.75 1.02466 1.57741 0
M  V30 11499 O 1108.1 0.000145439 1.813 0
M  V30 11500 C 1108.15 3.43552 1.09563 0
M  V30 11501 O 1107.26 3.4815 2.21055 0
M  V30 11502 H 1106.6 0.651835 0.126521 0
M  V30 11503 H 1109.13 2.0317 -0.241445 0
M  V30 11504 H 1109.14 3.82316 1.42473 0
M  V30 11505 H 1107.81 4.14677 0.318749 0
M  V30 11506 H 1106.39 3.21228 1.89387 0
M  V30 11507 N 1108.58 -0.128553 1.57075 0
M  V30 11508 C 1109.99 -0.686713 1.73612 0
M  V30 11509 C 1110.34 -1.80778 0.762478 0
M  V30 11510 O 1109.46 -2.16297 -0.0667779 0
M  V30 11511 C 1110.06 -1.25246 3.148 0
M  V30 11512 C 1108.62 -1.757 3.32876 0
M  V30 11513 C 1107.76 -0.652844 2.69506 0
M  V30 11514 H 1110.71 0.0972859 1.58402 0
M  V30 11515 H 1110.74 -2.1222 3.15821 0
M  V30 11516 H 1110.25 -0.436308 3.8564 0
M  V30 11517 H 1108.35 -2.59824 2.67063 0
M  V30 11518 H 1108.46 -1.87302 4.4097 0
M  V30 11519 H 1106.83 -1.08408 2.30477 0
M  V30 11520 H 1107.61 0.15217 3.42963 0
M  V30 11521 N 1110.05 -1.5248 -0.398459 0
M  V30 11522 C 1111 -1.76585 -1.48615 0
M  V30 11523 C 1111.97 -0.608677 -1.54546 0
M  V30 11524 O 1113.16 -0.847383 -1.7095 0
M  V30 11525 C 1110.3 -1.93201 -2.8595 0
M  V30 11526 C 1109.41 -3.20875 -2.89246 0
M  V30 11527 C 1108.54 -3.27862 -4.17947 0
M  V30 11528 C 1107.58 -4.49697 -4.15258 0
M  V30 11529 N 1106.72 -4.54017 -5.35549 0
M  V30 11530 H 1111.56 -2.69412 -1.27362 0
M  V30 11531 H 1109.1 -1.33487 -0.618031 0
M  V30 11532 H 1111.05 -2.00819 -3.65688 0
M  V30 11533 H 1109.68 -1.03743 -3.05675 0
M  V30 11534 H 1108.74 -3.22376 -2.01935 0
M  V30 11535 H 1110.05 -4.1066 -2.83125 0
M  V30 11536 H 1109.2 -3.34611 -5.06083 0
M  V30 11537 H 1107.94 -2.36035 -4.26777 0
M  V30 11538 H 1106.95 -4.43083 -3.25511 0
M  V30 11539 H 1108.17 -5.42831 -4.08059 0
M  V30 11540 H 1106.12 -3.65078 -5.45027 0
M  V30 11541 H 1106.03 -5.37661 -5.31466 0
M  V30 11542 H 1107.3 -4.65009 -6.25609 0
M  V30 11543 N 1111.53 0.65634 -1.43283 0
M  V30 11544 C 1112.76 1.44906 -1.48382 0
M  V30 11545 C 1113.18 1.87823 -0.101993 0
M  V30 11546 O 1112.54 1.57178 0.903597 0
M  V30 11547 C 1112.59 2.66231 -2.43215 0
M  V30 11548 O 1111.69 3.65176 -1.91625 0
M  V30 11549 H 1111.03 0.434601 -0.502014 0
M  V30 11550 H 1113.56 0.803429 -1.88165 0
M  V30 11551 H 1113.57 3.14083 -2.60414 0
M  V30 11552 H 1112.25 2.34336 -3.43598 0
M  V30 11553 H 1110.82 3.24302 -1.84072 0
M  V30 11554 N 1113.01 1.29761 0.894412 0
M  V30 11555 C 1114.23 1.21064 1.68399 0
M  V30 11556 C 1114.66 -0.224608 1.86754 0
M  V30 11557 O 1114.02 -1.16199 1.39167 0
M  V30 11558 C 1114.07 1.93468 3.04306 0
M  V30 11559 O 1113.17 1.25533 3.9283 0
M  V30 11560 H 1112.51 0.419223 0.514925 0
M  V30 11561 H 1115.04 1.71421 1.11696 0
M  V30 11562 H 1115.05 2.02127 3.54413 0
M  V30 11563 H 1113.73 2.97857 2.90265 0
M  V30 11564 H 1112.3 1.25168 3.51266 0
M  V30 11565 N 1114.49 -1.10549 1.12324 0
M  V30 11566 C 1115.4 -2.20428 0.803032 0
M  V30 11567 C 1116.41 -1.72756 -0.207674 0
M  V30 11568 O 1117.59 -2.01357 -0.0415623 0
M  V30 11569 C 1114.65 -3.45716 0.261032 0
M  V30 11570 C 1113.72 -4.08129 1.33152 0
M  V30 11571 C 1112.95 -5.27436 0.815288 0
M  V30 11572 O 1113.17 -5.69317 -0.351361 0
M  V30 11573 O 1112.11 -5.80674 1.58434 0
M  V30 11574 H 1115.93 -2.50249 1.72073 0
M  V30 11575 H 1113.52 -1.19263 0.899815 0
M  V30 11576 H 1115.4 -4.21384 -0.0364007 0
M  V30 11577 H 1114.07 -3.17525 -0.629249 0
M  V30 11578 H 1112.98 -3.3415 1.6821 0
M  V30 11579 H 1114.31 -4.4052 2.19552 0
M  V30 11580 N 1115.97 -0.914965 -1.28321 0
M  V30 11581 C 1116.88 -0.409424 -2.31 0
M  V30 11582 C 1117.89 0.503526 -1.66555 0
M  V30 11583 O 1119.07 0.38942 -1.97599 0
M  V30 11584 C 1116.13 0.34123 -3.45017 0
M  V30 11585 C 1115.19 -0.605087 -4.25014 0
M  V30 11586 C 1114.43 0.109837 -5.33587 0
M  V30 11587 O 1114.65 1.33136 -5.54645 0
M  V30 11588 O 1113.58 -0.555474 -5.99331 0
M  V30 11589 H 1117.41 -1.26167 -2.76253 0
M  V30 11590 H 1114.99 -0.679831 -1.33036 0
M  V30 11591 H 1116.88 0.765132 -4.14396 0
M  V30 11592 H 1115.55 1.16929 -3.01843 0
M  V30 11593 H 1114.46 -1.07841 -3.58219 0
M  V30 11594 H 1115.79 -1.39999 -4.7187 0
M  V30 11595 N 1117.44 1.42219 -0.679077 0
M  V30 11596 C 1118.35 2.346 -0.00345919 0
M  V30 11597 C 1119.37 1.55327 0.784181 0
M  V30 11598 O 1120.55 1.87878 0.725524 0
M  V30 11599 C 1117.61 3.33905 0.933194 0
M  V30 11600 C 1116.67 4.29073 0.139607 0
M  V30 11601 C 1115.9 5.23634 1.03165 0
M  V30 11602 O 1116.13 5.23234 2.27119 0
M  V30 11603 O 1115.06 5.99901 0.490159 0
M  V30 11604 H 1118.89 2.9392 -0.764525 0
M  V30 11605 H 1116.47 1.42794 -0.439329 0
M  V30 11606 H 1118.35 3.949 1.47077 0
M  V30 11607 H 1117.03 2.77052 1.67404 0
M  V30 11608 H 1115.94 3.71478 -0.442177 0
M  V30 11609 H 1117.27 4.88979 -0.562214 0
M  V30 11610 N 1118.92 0.422693 1.51826 0
M  V30 11611 C 1119.83 -0.40261 2.31119 0
M  V30 11612 C 1120.85 -1.04117 1.39412 0
M  V30 11613 O 1122.02 -1.03973 1.72486 0
M  V30 11614 C 1119.09 -1.49699 3.12716 0
M  V30 11615 C 1118.15 -0.880088 4.20182 0
M  V30 11616 C 1117.38 -1.92232 4.97878 0
M  V30 11617 O 1117.61 -3.14246 4.76031 0
M  V30 11618 O 1116.54 -1.521 5.82365 0
M  V30 11619 H 1120.37 0.244308 3.02716 0
M  V30 11620 H 1117.95 0.185569 1.48243 0
M  V30 11621 H 1119.83 -2.13202 3.63487 0
M  V30 11622 H 1118.51 -2.12826 2.43899 0
M  V30 11623 H 1117.41 -0.207404 3.73525 0
M  V30 11624 H 1118.75 -0.292535 4.9133 0
M  V30 11625 N 1120.4 -1.5685 0.153553 0
M  V30 11626 C 1121.33 -2.14231 -0.814729 0
M  V30 11627 C 1122.34 -1.09339 -1.20619 0
M  V30 11628 O 1123.53 -1.36592 -1.14913 0
M  V30 11629 C 1120.63 -2.6555 -2.10562 0
M  V30 11630 C 1119.81 -3.94912 -1.8805 0
M  V30 11631 C 1118.87 -4.31476 -3.0119 0
M  V30 11632 O 1117.89 -4.9968 -2.72596 0
M  V30 11633 N 1119.09 -3.91588 -4.28531 0
M  V30 11634 H 1121.86 -2.9794 -0.324277 0
M  V30 11635 H 1119.42 -1.61873 -0.0298087 0
M  V30 11636 H 1121.41 -2.87019 -2.85311 0
M  V30 11637 H 1119.98 -1.86529 -2.5085 0
M  V30 11638 H 1119.2 -3.82002 -0.973024 0
M  V30 11639 H 1120.49 -4.79433 -1.70356 0
M  V30 11640 H 1119.89 -3.36645 -4.54628 0
M  V30 11641 H 1118.44 -4.18095 -5.00039 0
M  V30 11642 N 1121.88 0.120221 -1.57141 0
M  V30 11643 C 1123.15 0.858458 -1.75755 0
M  V30 11644 C 1123.53 1.98124 -0.728693 0
M  V30 11645 O 1122.88 2.27155 0.247573 0
M  V30 11646 C 1123.09 1.37627 -3.20718 0
M  V30 11647 C 1124.44 1.82909 -3.83183 0
M  V30 11648 O 1125.46 1.47309 -3.24312 0
M  V30 11649 O 1124.32 2.4865 -4.86657 0
M  V30 11650 H 1121.42 0.407583 -0.719587 0
M  V30 11651 H 1123.96 0.104057 -1.69381 0
M  V30 11652 H 1122.74 0.570651 -3.87117 0
M  V30 11653 H 1122.36 2.19341 -3.31625 0
M  V30 11654 N 1123.36 1.52689 0.390367 0
M  V30 11655 C 1124.63 1.58246 1.14968 0
M  V30 11656 C 1125.01 0.374808 2.07746 0
M  V30 11657 O 1124.36 -0.636969 2.19442 0
M  V30 11658 C 1124.57 2.92059 1.91056 0
M  V30 11659 C 1125.92 3.45745 2.46466 0
M  V30 11660 O 1126.94 2.93924 2.01214 0
M  V30 11661 O 1125.8 4.3628 3.29122 0
M  V30 11662 H 1122.9 0.638189 0.52597 0
M  V30 11663 H 1125.44 1.65024 0.39563 0
M  V30 11664 H 1124.21 3.71399 1.23201 0
M  V30 11665 H 1123.84 2.8866 2.73425 0
M  V30 11666 N 1124.83 -0.648732 1.43629 0
M  V30 11667 C 1125.74 -1.79046 1.51591 0
M  V30 11668 C 1126.76 -1.69276 0.402697 0
M  V30 11669 O 1127.94 -1.90366 0.657484 0
M  V30 11670 C 1125 -3.15347 1.44073 0
M  V30 11671 C 1124.06 -3.3688 2.66102 0
M  V30 11672 C 1123.3 -4.66679 2.58933 0
M  V30 11673 O 1123.52 -5.46328 1.63956 0
M  V30 11674 O 1122.45 -4.9003 3.49506 0
M  V30 11675 H 1126.28 -1.75283 2.48011 0
M  V30 11676 H 1123.86 -0.807774 1.2568 0
M  V30 11677 H 1125.75 -3.96633 1.42339 0
M  V30 11678 H 1124.42 -3.19691 0.50789 0
M  V30 11679 H 1123.33 -2.55341 2.73407 0
M  V30 11680 H 1124.66 -3.37386 3.58373 0
M  V30 11681 N 1126.31 -1.30234 -0.887518 0
M  V30 11682 C 1127.22 -1.18316 -2.02579 0
M  V30 11683 C 1128.24 -0.103658 -1.73691 0
M  V30 11684 O 1129.41 -0.3181 -1.98872 0
M  V30 11685 C 1126.48 -0.873222 -3.35523 0
M  V30 11686 C 1125.54 -2.03783 -3.7785 0
M  V30 11687 C 1124.77 -1.74258 -5.0445 0
M  V30 11688 O 1125 -0.669295 -5.6646 0
M  V30 11689 O 1123.93 -2.59423 -5.43124 0
M  V30 11690 H 1127.76 -2.13933 -2.15561 0
M  V30 11691 H 1125.34 -1.09803 -1.0131 0
M  V30 11692 H 1127.22 -0.715463 -4.15282 0
M  V30 11693 H 1125.9 0.053056 -3.23657 0
M  V30 11694 H 1124.81 -2.2509 -2.98806 0
M  V30 11695 H 1126.14 -2.94574 -3.94318 0
M  V30 11696 N 1127.79 1.09952 -1.12909 0
M  V30 11697 C 1129.04 1.82286 -0.888797 0
M  V30 11698 C 1129.37 1.85218 0.58379 0
M  V30 11699 O 1128.64 1.31645 1.43177 0
M  V30 11700 C 1128.93 3.28706 -1.47053 0
M  V30 11701 C 1128.78 3.34078 -3.01184 0
M  V30 11702 C 1130.1 4.25233 -1.13424 0
M  V30 11703 H 1127.22 0.661803 -0.324324 0
M  V30 11704 H 1129.86 1.28833 -1.3965 0
M  V30 11705 H 1128.01 3.74356 -1.03874 0
M  V30 11706 H 1129.68 2.96871 -3.5308 0
M  V30 11707 H 1127.93 2.73825 -3.36455 0
M  V30 11708 H 1128.6 4.37202 -3.36984 0
M  V30 11709 H 1131.07 3.87841 -1.50726 0
M  V30 11710 H 1129.95 5.26033 -1.56783 0
M  V30 11711 H 1130.21 4.42075 -0.0471496 0
M  V30 11712 N 1129.27 0.921757 1.27833 0
M  V30 11713 C 1130.2 0.433466 2.29441 0
M  V30 11714 C 1131.18 -0.503133 1.62489 0
M  V30 11715 O 1132.36 -0.409156 1.89841 0
M  V30 11716 C 1129.49 -0.320029 3.45822 0
M  V30 11717 C 1128.45 0.528178 4.24728 0
M  V30 11718 C 1127.77 -0.354132 5.33526 0
M  V30 11719 C 1129.07 1.78959 4.90684 0
M  V30 11720 H 1130.77 1.28263 2.70535 0
M  V30 11721 H 1128.31 0.618197 1.30055 0
M  V30 11722 H 1130.27 -0.672526 4.15999 0
M  V30 11723 H 1128.99 -1.20317 3.0363 0
M  V30 11724 H 1127.65 0.863302 3.5629 0
M  V30 11725 H 1127.3 -1.23605 4.87576 0
M  V30 11726 H 1127 0.209855 5.87225 0
M  V30 11727 H 1128.52 -0.702333 6.06547 0
M  V30 11728 H 1129.94 1.50552 5.53179 0
M  V30 11729 H 1128.33 2.29661 5.54415 0
M  V30 11730 H 1129.4 2.51265 4.14721 0
M  V30 11731 N 1130.75 -1.41857 0.686609 0
M  V30 11732 C 1131.68 -2.29188 -0.0234289 0
M  V30 11733 C 1132.69 -1.44311 -0.753541 0
M  V30 11734 O 1133.88 -1.67908 -0.605734 0
M  V30 11735 C 1130.98 -3.21991 -1.05713 0
M  V30 11736 C 1130.15 -4.35581 -0.398453 0
M  V30 11737 C 1129.21 -5.09022 -1.33354 0
M  V30 11738 O 1128.24 -5.63126 -0.829334 0
M  V30 11739 N 1129.44 -5.15643 -2.66632 0
M  V30 11740 H 1132.21 -2.90766 0.726295 0
M  V30 11741 H 1129.77 -1.52912 0.531937 0
M  V30 11742 H 1131.76 -3.6799 -1.68421 0
M  V30 11743 H 1130.33 -2.61782 -1.70847 0
M  V30 11744 H 1129.55 -3.92079 0.408358 0
M  V30 11745 H 1130.84 -5.08765 0.0599239 0
M  V30 11746 H 1130.23 -4.73118 -3.10122 0
M  V30 11747 H 1128.79 -5.65248 -3.24558 0
M  V30 11748 N 1132.22 -0.430739 -1.51599 0
M  V30 11749 C 1133.47 0.137657 -2.01631 0
M  V30 11750 C 1133.79 1.43787 -1.31721 0
M  V30 11751 O 1133.06 1.90668 -0.449717 0
M  V30 11752 H 1131.64 0.0538611 -0.745056 0
M  V30 11753 H 1134.31 -0.571935 -1.86319 0
M  V30 11754 H 1133.4 0.318305 -3.10473 0
M  V30 11755 N 1133.7 1.56767 -0.161869 0
M  V30 11756 C 1134.61 2.21083 0.784814 0
M  V30 11757 C 1135.63 1.19959 1.26039 0
M  V30 11758 O 1136.8 1.52588 1.31449 0
M  V30 11759 C 1133.87 2.83153 2.00063 0
M  V30 11760 C 1132.93 3.9945 1.57285 0
M  V30 11761 C 1132.16 4.5855 2.7307 0
M  V30 11762 O 1132.39 4.16534 3.89686 0
M  V30 11763 O 1131.32 5.48575 2.47688 0
M  V30 11764 H 1135.15 3.02522 0.267243 0
M  V30 11765 H 1132.73 1.49255 0.0658783 0
M  V30 11766 H 1134.61 3.22546 2.71186 0
M  V30 11767 H 1133.29 2.04718 2.50744 0
M  V30 11768 H 1132.2 3.64745 0.831393 0
M  V30 11769 H 1133.53 4.7945 1.11304 0
M  V30 11770 N 1135.18 -0.111886 1.57202 0
M  V30 11771 C 1136.11 -1.16274 1.97517 0
M  V30 11772 C 1137.13 -1.37259 0.875425 0
M  V30 11773 O 1138.31 -1.36208 1.15367 0
M  V30 11774 C 1135.41 -2.52145 2.26442 0
M  V30 11775 C 1134.59 -2.51666 3.57747 0
M  V30 11776 C 1133.65 -3.69337 3.74802 0
M  V30 11777 O 1132.67 -3.52596 4.46839 0
M  V30 11778 N 1133.87 -4.88177 3.14108 0
M  V30 11779 H 1136.64 -0.819747 2.88271 0
M  V30 11780 H 1134.2 -0.301076 1.59076 0
M  V30 11781 H 1136.19 -3.29437 2.3506 0
M  V30 11782 H 1134.76 -2.78599 1.41779 0
M  V30 11783 H 1133.98 -1.60038 3.60252 0
M  V30 11784 H 1135.27 -2.48408 4.44039 0
M  V30 11785 H 1134.67 -5.04682 2.55564 0
M  V30 11786 H 1133.23 -5.6312 3.28237 0
M  V30 11787 N 1136.66 -1.52894 -0.382264 0
M  V30 11788 C 1137.91 -1.67933 -1.1244 0
M  V30 11789 C 1138.23 -0.425166 -1.90309 0
M  V30 11790 O 1137.5 0.560557 -1.87709 0
M  V30 11791 H 1136.08 -0.619047 -0.418079 0
M  V30 11792 H 1138.74 -1.90031 -0.432928 0
M  V30 11793 H 1137.84 -2.53285 -1.82355 0
M  V30 11794 N 1138.14 0.641106 -1.43971 0
M  V30 11795 C 1139.41 1.39897 -1.36704 0
M  V30 11796 C 1139.79 2.1109 -0.0208051 0
M  V30 11797 O 1139.14 2.05638 0.99625 0
M  V30 11798 C 1139.35 2.37366 -2.55849 0
M  V30 11799 C 1140.7 3.01 -2.99473 0
M  V30 11800 O 1141.72 2.47692 -2.55982 0
M  V30 11801 O 1140.58 3.9768 -3.74851 0
M  V30 11802 H 1137.68 0.625623 -0.540855 0
M  V30 11803 H 1140.22 0.666997 -1.56042 0
M  V30 11804 H 1139 1.8379 -3.45452 0
M  V30 11805 H 1138.62 3.17995 -2.38673 0
M  V30 11806 N 1139.62 1.30703 0.880598 0
M  V30 11807 C 1140.86 1.19778 1.63277 0
M  V30 11808 C 1141.19 -0.246521 1.92931 0
M  V30 11809 O 1140.45 -1.19226 1.55189 0
M  V30 11810 C 1140.74 1.97628 2.97789 0
M  V30 11811 C 1140.41 3.47213 2.87669 0
M  V30 11812 C 1139.07 3.88004 2.84617 0
M  V30 11813 C 1141.42 4.4245 2.75477 0
M  V30 11814 C 1138.75 5.22315 2.67216 0
M  V30 11815 C 1141.1 5.76874 2.59614 0
M  V30 11816 C 1139.77 6.16898 2.54939 0
M  V30 11817 H 1139.04 0.438298 0.597475 0
M  V30 11818 H 1141.69 1.61853 1.02352 0
M  V30 11819 H 1139.99 1.48201 3.6269 0
M  V30 11820 H 1141.69 1.86563 3.54958 0
M  V30 11821 H 1138.28 3.14802 2.90857 0
M  V30 11822 H 1142.46 4.11875 2.76899 0
M  V30 11823 H 1137.72 5.52412 2.62014 0
M  V30 11824 H 1141.89 6.50304 2.49155 0
M  V30 11825 H 1139.52 7.20916 2.41214 0
M  V30 11826 N 1141.09 -1.09351 1.1349 0
M  V30 11827 C 1142.04 -2.18099 0.808426 0
M  V30 11828 C 1143.04 -1.68099 -0.209571 0
M  V30 11829 O 1144.24 -1.79877 -0.0666417 0
M  V30 11830 H 1140.62 -0.711432 0.243658 0
M  V30 11831 H 1142.59 -2.42867 1.73373 0
M  V30 11832 C 1141.34 -3.46475 0.291615 0
M  V30 11833 H 1140.66 -3.85319 1.06627 0
M  V30 11834 H 1142.1 -4.23878 0.101616 0
M  V30 11835 C 1140.56 -3.22245 -0.982827 0
M  V30 11836 O 1141.09 -3.44947 -2.0585 0
M  V30 11837 N 1139.29 -2.75845 -0.914218 0
M  V30 11838 H 1138.84 -2.57571 -0.03872 0
M  V30 11839 H 1138.8 -2.60011 -1.76753 0
M  V30 11840 N 1142.57 -0.928524 -1.27343 0
M  V30 11841 C 1143.85 -0.487758 -1.89421 0
M  V30 11842 C 1144.23 1.03418 -1.84032 0
M  V30 11843 O 1143.58 1.8887 -1.2861 0
M  V30 11844 C 1143.79 -1.03478 -3.33307 0
M  V30 11845 C 1145.13 -1.09577 -4.10217 0
M  V30 11846 O 1146.16 -0.984463 -3.42326 0
M  V30 11847 O 1145.02 -1.2673 -5.31603 0
M  V30 11848 H 1142.11 -0.157018 -0.811957 0
M  V30 11849 H 1144.66 -1.02027 -1.35605 0
M  V30 11850 H 1143.43 -2.07861 -3.31526 0
M  V30 11851 H 1143.05 -0.483967 -3.94644 0
M  V30 11852 N 1144.05 1.41491 -0.694123 0
M  V30 11853 C 1145.33 1.95004 -0.152571 0
M  V30 11854 C 1145.71 1.63357 1.33707 0
M  V30 11855 O 1145.05 0.939815 2.08278 0
M  V30 11856 C 1145.26 3.46186 -0.44232 0
M  V30 11857 C 1146.61 4.22991 -0.369279 0
M  V30 11858 O 1147.64 3.54198 -0.377152 0
M  V30 11859 O 1146.5 5.45514 -0.328145 0
M  V30 11860 H 1143.59 0.826879 -0.0141253 0
M  V30 11861 H 1146.14 1.51216 -0.770183 0
M  V30 11862 H 1144.91 3.62497 -1.47348 0
M  V30 11863 H 1144.53 3.97064 0.206337 0
M  V30 11864 N 1145.53 0.438773 1.51369 0
M  V30 11865 C 1146.8 -0.18722 1.94702 0
M  V30 11866 C 1147.18 -1.59962 1.37752 0
M  V30 11867 O 1146.53 -2.214 0.565171 0
M  V30 11868 C 1146.74 -0.163491 3.48617 0
M  V30 11869 C 1148.09 -0.368355 4.22999 0
M  V30 11870 O 1149.11 -0.241541 3.5538 0
M  V30 11871 O 1147.97 -0.620916 5.42961 0
M  V30 11872 H 1145.07 -0.129194 0.816846 0
M  V30 11873 H 1147.61 0.496855 1.62263 0
M  V30 11874 H 1146.39 0.823882 3.82528 0
M  V30 11875 H 1146.01 -0.890414 3.87501 0
M  V30 11876 N 1147.01 -1.56678 0.170181 0
M  V30 11877 C 1148.23 -2.01223 -0.481362 0
M  V30 11878 C 1148.65 -1.05039 -1.56883 0
M  V30 11879 O 1148.01 -0.0510751 -1.82429 0
M  V30 11880 C 1148.06 -3.45588 -1.06073 0
M  V30 11881 O 1147.78 -4.38097 -0.0166754 0
M  V30 11882 C 1149.28 -4.05527 -1.79061 0
M  V30 11883 H 1146.5 -0.659574 -0.1233 0
M  V30 11884 H 1149.04 -2.02689 0.271576 0
M  V30 11885 H 1147.2 -3.449 -1.76417 0
M  V30 11886 H 1147.61 -5.22615 -0.444276 0
M  V30 11887 H 1149.09 -5.08467 -2.1486 0
M  V30 11888 H 1149.56 -3.47554 -2.68519 0
M  V30 11889 H 1150.17 -4.09914 -1.13361 0
M  V30 11890 N 1148.48 0.103547 -1.57259 0
M  V30 11891 C 1149.39 1.14475 -2.04774 0
M  V30 11892 C 1150.41 1.44385 -0.971025 0
M  V30 11893 O 1151.59 1.55195 -1.28361 0
M  V30 11894 C 1148.65 2.4475 -2.45558 0
M  V30 11895 C 1147.71 2.22098 -3.67384 0
M  V30 11896 C 1146.94 3.4616 -4.06213 0
M  V30 11897 O 1147.17 4.5407 -3.45219 0
M  V30 11898 O 1146.1 3.36248 -4.9922 0
M  V30 11899 H 1149.93 0.771211 -2.93745 0
M  V30 11900 H 1147.51 0.315456 -1.46032 0
M  V30 11901 H 1149.39 3.21476 -2.72454 0
M  V30 11902 H 1148.07 2.81547 -1.59728 0
M  V30 11903 H 1146.98 1.43179 -3.45616 0
M  V30 11904 H 1148.31 1.90197 -4.53967 0
M  V30 11905 N 1149.96 1.53094 0.37415 0
M  V30 11906 C 1151.37 1.60641 0.951381 0
M  V30 11907 C 1151.72 0.468474 1.90525 0
M  V30 11908 O 1150.85 -0.406347 2.12551 0
M  V30 11909 C 1151.44 2.91166 1.73228 0
M  V30 11910 C 1150 3.01077 2.25898 0
M  V30 11911 C 1149.15 2.55873 1.06885 0
M  V30 11912 H 1152.1 1.57959 0.153214 0
M  V30 11913 H 1152.12 2.78487 2.59278 0
M  V30 11914 H 1151.63 3.73968 1.03778 0
M  V30 11915 H 1149.73 2.22844 2.98615 0
M  V30 11916 H 1149.85 4.05998 2.54367 0
M  V30 11917 H 1148.21 2.10544 1.43329 0
M  V30 11918 H 1148.99 3.41084 0.38947 0
M  V30 11919 N 1151.44 -0.633461 1.44309 0
M  V30 11920 C 1152.35 -1.77428 1.53481 0
M  V30 11921 C 1153.37 -1.68839 0.420628 0
M  V30 11922 O 1154.54 -1.89658 0.677638 0
M  V30 11923 C 1151.61 -3.13801 1.47409 0
M  V30 11924 C 1150.67 -3.34039 2.6966 0
M  V30 11925 C 1149.9 -4.63907 2.63868 0
M  V30 11926 O 1150.12 -5.44559 1.69741 0
M  V30 11927 O 1149.06 -4.86295 3.54684 0
M  V30 11928 H 1152.88 -1.72642 2.49857 0
M  V30 11929 H 1150.47 -0.794399 1.26529 0
M  V30 11930 H 1152.35 -3.95101 1.46537 0
M  V30 11931 H 1151.03 -3.19134 0.541769 0
M  V30 11932 H 1149.93 -2.52427 2.761 0
M  V30 11933 H 1151.27 -3.33566 3.61931 0
M  V30 11934 N 1152.92 -1.31168 -0.873655 0
M  V30 11935 C 1153.87 -1.18432 -2.00191 0
M  V30 11936 C 1154.86 -0.0934873 -1.69142 0
M  V30 11937 O 1156.07 -0.255126 -1.78183 0
M  V30 11938 H 1152.44 -0.366594 -0.656592 0
M  V30 11939 H 1154.41 -2.13896 -2.08065 0
M  V30 11940 C 1153.16 -0.904668 -3.35725 0
M  V30 11941 H 1152.48 -1.73617 -3.60135 0
M  V30 11942 H 1153.92 -0.855715 -4.15275 0
M  V30 11943 C 1152.38 0.392554 -3.34605 0
M  V30 11944 O 1152.91 1.41052 -3.76121 0
M  V30 11945 N 1151.12 0.40777 -2.87725 0
M  V30 11946 H 1150.67 -0.42112 -2.54134 0
M  V30 11947 H 1150.62 1.27564 -2.87358 0
M  V30 11948 N 1154.4 1.08748 -1.14068 0
M  V30 11949 C 1155.33 2.17591 -0.84714 0
M  V30 11950 C 1156.31 1.68962 0.196415 0
M  V30 11951 O 1157.49 1.94125 0.0538415 0
M  V30 11952 C 1154.62 3.45823 -0.320005 0
M  V30 11953 C 1153.58 4.07824 -1.2986 0
M  V30 11954 C 1152.9 5.30965 -0.630925 0
M  V30 11955 C 1154.2 4.49512 -2.65963 0
M  V30 11956 H 1155.9 2.42404 -1.75729 0
M  V30 11957 H 1153.44 1.16502 -0.846356 0
M  V30 11958 H 1155.4 4.21276 -0.102271 0
M  V30 11959 H 1154.12 3.20553 0.625561 0
M  V30 11960 H 1152.78 3.34398 -1.50245 0
M  V30 11961 H 1152.43 5.01979 0.320337 0
M  V30 11962 H 1152.13 5.73402 -1.28388 0
M  V30 11963 H 1153.65 6.09136 -0.422635 0
M  V30 11964 H 1155.06 5.16159 -2.49506 0
M  V30 11965 H 1153.46 5.02857 -3.27498 0
M  V30 11966 H 1154.53 3.6157 -3.23102 0
M  V30 11967 N 1155.87 0.935264 1.26849 0
M  V30 11968 C 1157.12 0.578545 1.93642 0
M  V30 11969 C 1157.44 -0.884296 1.73796 0
M  V30 11970 O 1156.71 -1.62768 1.09011 0
M  V30 11971 H 1155.29 0.210976 0.716588 0
M  V30 11972 H 1157.96 1.1893 1.54407 0
M  V30 11973 H 1157.05 0.791268 3.01903 0
M  V30 11974 N 1157.35 -1.41121 0.701616 0
M  V30 11975 C 1158.3 -2.27994 0.0168361 0
M  V30 11976 C 1159.29 -1.42523 -0.746733 0
M  V30 11977 O 1160.48 -1.6574 -0.621232 0
M  V30 11978 C 1157.61 -3.30898 -0.914417 0
M  V30 11979 C 1156.69 -4.23846 -0.146776 0
M  V30 11980 N 1157.08 -4.9839 0.862624 0
M  V30 11981 C 1155.38 -4.44366 -0.38138 0
M  V30 11982 C 1156.08 -5.66463 1.32266 0
M  V30 11983 N 1155.06 -5.39731 0.647433 0
M  V30 11984 H 1158.86 -2.83065 0.790675 0
M  V30 11985 H 1156.38 -1.53405 0.532977 0
M  V30 11986 H 1158.37 -3.91964 -1.4202 0
M  V30 11987 H 1157.03 -2.77387 -1.68779 0
M  V30 11988 H 1158.04 -5.02761 1.24305 0
M  V30 11989 H 1154.72 -4.01856 -1.13216 0
M  V30 11990 H 1156.11 -6.36213 2.16061 0
M  V30 11991 N 1158.83 -0.446794 -1.51134 0
M  V30 11992 C 1160.25 -0.0995905 -1.59289 0
M  V30 11993 C 1160.45 1.39191 -1.45699 0
M  V30 11994 O 1159.5 2.1628 -1.30303 0
M  V30 11995 C 1160.82 -0.628135 -2.94066 0
M  V30 11996 C 1162.36 -0.589409 -3.074 0
M  V30 11997 C 1162.84 -1.09509 -4.44715 0
M  V30 11998 N 1164.33 -1.05347 -4.51061 0
M  V30 11999 C 1165.06 -1.41551 -5.55654 0
M  V30 12000 N 1164.56 -1.85086 -6.67619 0
M  V30 12001 N 1166.35 -1.33307 -5.46064 0
M  V30 12002 H 1158.5 -1.41713 -1.58213 0
M  V30 12003 H 1160.77 -0.584555 -0.746324 0
M  V30 12004 H 1160.47 -1.67205 -3.09411 0
M  V30 12005 H 1160.35 -0.0582398 -3.77155 0
M  V30 12006 H 1162.73 0.445541 -2.91717 0
M  V30 12007 H 1162.82 -1.19582 -2.26128 0
M  V30 12008 H 1162.46 -2.12855 -4.61146 0
M  V30 12009 H 1162.39 -0.465122 -5.24542 0
M  V30 12010 H 1164.88 -0.733877 -3.70706 0
M  V30 12011 H 1165.19 -2.10923 -7.43459 0
M  V30 12012 H 1163.54 -1.8902 -6.68802 0
M  V30 12013 H 1166.73 -0.991547 -4.57478 0
M  V30 12014 H 1166.9 -1.6185 -6.27462 0
M  V30 12015 N 1160.31 1.56586 -0.178487 0
M  V30 12016 C 1161.72 1.83633 0.337009 0
M  V30 12017 C 1162.07 1.09857 1.6256 0
M  V30 12018 O 1161.2 0.353933 2.13486 0
M  V30 12019 C 1161.79 3.33112 0.618225 0
M  V30 12020 C 1160.35 3.60629 1.07814 0
M  V30 12021 C 1159.5 2.7705 0.117825 0
M  V30 12022 H 1162.45 1.53508 -0.402612 0
M  V30 12023 H 1162.47 3.5098 1.46947 0
M  V30 12024 H 1161.98 3.8678 -0.319808 0
M  V30 12025 H 1160.08 3.12378 2.03103 0
M  V30 12026 H 1160.19 4.68921 0.982339 0
M  V30 12027 H 1158.56 2.47125 0.616563 0
M  V30 12028 H 1159.34 3.33501 -0.814356 0
M  V30 12029 N 1161.79 -0.095206 1.57312 0
M  V30 12030 C 1162.72 -1.11627 2.05089 0
M  V30 12031 C 1163.7 -1.41782 0.939787 0
M  V30 12032 O 1164.88 -1.51813 1.21105 0
M  V30 12033 C 1162.01 -2.43618 2.47523 0
M  V30 12034 C 1160.97 -2.27872 3.62296 0
M  V30 12035 C 1160.29 -3.65038 3.90706 0
M  V30 12036 C 1161.59 -1.71936 4.93189 0
M  V30 12037 H 1163.29 -0.718795 2.90644 0
M  V30 12038 H 1160.83 -0.344315 1.39823 0
M  V30 12039 H 1162.79 -3.1532 2.79556 0
M  V30 12040 H 1161.51 -2.85301 1.58968 0
M  V30 12041 H 1160.17 -1.58615 3.3051 0
M  V30 12042 H 1159.82 -4.04249 2.99319 0
M  V30 12043 H 1159.52 -3.55349 4.67976 0
M  V30 12044 H 1161.04 -4.38208 4.25213 0
M  V30 12045 H 1162.45 -2.33479 5.23603 0
M  V30 12046 H 1160.85 -1.73006 5.74621 0
M  V30 12047 H 1161.92 -0.678789 4.80125 0
M  V30 12048 N 1163.26 -1.53291 -0.366026 0
M  V30 12049 C 1164.19 -1.82675 -1.45437 0
M  V30 12050 C 1165.18 -0.680227 -1.55907 0
M  V30 12051 O 1166.36 -0.930032 -1.70482 0
M  V30 12052 C 1163.49 -2.01626 -2.8278 0
M  V30 12053 C 1162.44 -3.17391 -2.87135 0
M  V30 12054 C 1161.77 -3.21634 -4.27148 0
M  V30 12055 C 1163.07 -4.5599 -2.54697 0
M  V30 12056 H 1164.76 -2.73818 -1.21096 0
M  V30 12057 H 1162.31 -1.31754 -0.581108 0
M  V30 12058 H 1164.26 -2.20765 -3.58944 0
M  V30 12059 H 1162.99 -1.07193 -3.08508 0
M  V30 12060 H 1161.65 -2.98071 -2.13422 0
M  V30 12061 H 1161.29 -2.2484 -4.49951 0
M  V30 12062 H 1160.99 -3.99414 -4.30978 0
M  V30 12063 H 1162.52 -3.42957 -5.05186 0
M  V30 12064 H 1163.93 -4.75294 -3.20575 0
M  V30 12065 H 1162.33 -5.36008 -2.69844 0
M  V30 12066 H 1163.4 -4.61133 -1.49949 0
M  V30 12067 N 1164.74 0.6258 -1.44643 0
M  V30 12068 C 1165.68 1.75056 -1.46392 0
M  V30 12069 C 1166.65 1.59376 -0.322179 0
M  V30 12070 O 1167.84 1.81187 -0.519956 0
M  V30 12071 C 1164.96 3.12689 -1.30166 0
M  V30 12072 C 1164.01 3.47005 -2.47972 0
M  V30 12073 S 1164.84 3.43885 -4.10491 0
M  V30 12074 C 1166 4.84129 -3.96698 0
M  V30 12075 H 1166.23 1.73306 -2.41562 0
M  V30 12076 H 1163.77 0.800879 -1.32005 0
M  V30 12077 H 1165.72 3.9211 -1.21492 0
M  V30 12078 H 1164.38 3.11972 -0.364982 0
M  V30 12079 H 1163.58 4.47171 -2.32496 0
M  V30 12080 H 1163.18 2.75059 -2.53414 0
M  V30 12081 H 1165.47 5.73488 -3.60718 0
M  V30 12082 H 1166.41 5.0466 -4.96713 0
M  V30 12083 H 1166.82 4.58954 -3.28666 0
M  V30 12084 N 1166.22 1.31629 0.866686 0
M  V30 12085 C 1167.5 1.12136 1.60265 0
M  V30 12086 C 1167.88 -0.322729 2.08618 0
M  V30 12087 O 1167.23 -1.31738 1.86701 0
M  V30 12088 C 1167.44 2.13845 2.7581 0
M  V30 12089 C 1168.78 2.46541 3.45692 0
M  V30 12090 O 1169.81 2.12298 2.86021 0
M  V30 12091 O 1168.67 3.05194 4.53342 0
M  V30 12092 H 1165.76 0.431923 0.705246 0
M  V30 12093 H 1168.31 1.43119 0.911863 0
M  V30 12094 H 1167.08 3.10967 2.37518 0
M  V30 12095 H 1166.7 1.83786 3.52574 0
M  V30 12096 N 1167.7 -1.08142 1.14644 0
M  V30 12097 C 1168.92 -1.84857 0.940349 0
M  V30 12098 C 1169.35 -1.81163 -0.506117 0
M  V30 12099 O 1168.71 -1.19869 -1.36019 0
M  V30 12100 C 1168.76 -3.30198 1.4492 0
M  V30 12101 O 1167.86 -4.07355 0.64308 0
M  V30 12102 H 1167.2 -0.572711 0.336003 0
M  V30 12103 H 1169.73 -1.36475 1.52432 0
M  V30 12104 H 1169.74 -3.81039 1.45854 0
M  V30 12105 H 1168.42 -3.32202 2.50229 0
M  V30 12106 H 1166.99 -3.66219 0.702698 0
M  V30 12107 N 1169.18 -0.941978 -1.26351 0
M  V30 12108 C 1170.09 -0.45833 -2.30079 0
M  V30 12109 C 1171.1 0.468084 -1.67586 0
M  V30 12110 O 1172.28 0.347418 -1.98381 0
M  V30 12111 C 1169.34 0.26797 -3.45663 0
M  V30 12112 C 1168.41 -0.695102 -4.23635 0
M  V30 12113 C 1167.64 -0.003369 -5.337 0
M  V30 12114 O 1167.86 1.21342 -5.57344 0
M  V30 12115 O 1166.8 -0.682476 -5.98018 0
M  V30 12116 H 1170.62 -1.31998 -2.73514 0
M  V30 12117 H 1168.21 -0.707897 -1.31564 0
M  V30 12118 H 1170.09 0.677061 -4.15925 0
M  V30 12119 H 1168.76 1.105 -3.04256 0
M  V30 12120 H 1167.67 -1.15415 -3.55851 0
M  V30 12121 H 1169 -1.49977 -4.68794 0
M  V30 12122 N 1170.66 1.40747 -0.709091 0
M  V30 12123 C 1171.93 1.94831 -0.173246 0
M  V30 12124 C 1172.31 1.64766 1.31967 0
M  V30 12125 O 1171.66 0.961853 2.07269 0
M  V30 12126 C 1171.87 3.45697 -0.479013 0
M  V30 12127 C 1173.22 4.22576 -0.414122 0
M  V30 12128 O 1174.24 3.53778 -0.414699 0
M  V30 12129 O 1173.1 5.45135 -0.385986 0
M  V30 12130 H 1170.2 0.826683 -0.0228947 0
M  V30 12131 H 1172.74 1.50391 -0.786178 0
M  V30 12132 H 1171.51 3.60914 -1.51185 0
M  V30 12133 H 1171.14 3.97261 0.164211 0
M  V30 12134 N 1172.13 0.454803 1.50895 0
M  V30 12135 C 1173.04 -0.353495 2.31921 0
M  V30 12136 C 1174.06 -1.01136 1.41589 0
M  V30 12137 O 1175.24 -1.00291 1.74653 0
M  V30 12138 C 1172.3 -1.43032 3.15821 0
M  V30 12139 C 1171.36 -0.790763 4.21954 0
M  V30 12140 C 1170.59 -1.81628 5.01843 0
M  V30 12141 O 1170.82 -3.04078 4.8259 0
M  V30 12142 O 1169.75 -1.39713 5.8546 0
M  V30 12143 H 1173.58 0.308463 3.02129 0
M  V30 12144 H 1171.16 0.216971 1.47816 0
M  V30 12145 H 1173.04 -2.05444 3.67927 0
M  V30 12146 H 1171.72 -2.07605 2.48358 0
M  V30 12147 H 1170.63 -0.128127 3.73881 0
M  V30 12148 H 1171.96 -0.188251 4.9184 0
M  V30 12149 N 1173.61 -1.56489 0.186789 0
M  V30 12150 C 1174.52 -2.22304 -0.749543 0
M  V30 12151 C 1175.54 -1.21949 -1.24115 0
M  V30 12152 O 1176.71 -1.5466 -1.29005 0
M  V30 12153 C 1173.78 -2.863 -1.95533 0
M  V30 12154 C 1172.84 -4.01901 -1.5091 0
M  V30 12155 C 1172.07 -4.62837 -2.6574 0
M  V30 12156 O 1172.3 -4.22681 -3.8301 0
M  V30 12157 O 1171.23 -5.52446 -2.38929 0
M  V30 12158 H 1175.06 -3.02909 -0.21908 0
M  V30 12159 H 1172.64 -1.49341 -0.0421249 0
M  V30 12160 H 1174.52 -3.2682 -2.6602 0
M  V30 12161 H 1173.2 -2.08681 -2.47455 0
M  V30 12162 H 1172.1 -3.66021 -0.773261 0
M  V30 12163 H 1173.44 -4.8116 -1.03663 0
M  V30 12164 N 1175.09 0.086862 -1.5736 0
M  V30 12165 C 1176 1.12297 -2.05977 0
M  V30 12166 C 1177.02 1.43347 -0.986284 0
M  V30 12167 O 1178.19 1.53825 -1.3 0
M  V30 12168 C 1175.26 2.42131 -2.4814 0
M  V30 12169 C 1174.32 2.18189 -3.69719 0
M  V30 12170 C 1173.55 3.41833 -4.09861 0
M  V30 12171 O 1173.77 4.50383 -3.50016 0
M  V30 12172 O 1172.71 3.30934 -5.02759 0
M  V30 12173 H 1176.53 0.740012 -2.94546 0
M  V30 12174 H 1174.12 0.29995 -1.46358 0
M  V30 12175 H 1176 3.18568 -2.75848 0
M  V30 12176 H 1174.68 2.79837 -1.62705 0
M  V30 12177 H 1173.58 1.39506 -3.47115 0
M  V30 12178 H 1174.92 1.85372 -4.55959 0
M  V30 12179 N 1176.57 1.53483 0.357892 0
M  V30 12180 C 1177.48 1.83434 1.4625 0
M  V30 12181 C 1178.49 0.723313 1.58254 0
M  V30 12182 O 1179.67 1.01416 1.74002 0
M  V30 12183 C 1176.73 2.0249 2.81423 0
M  V30 12184 C 1175.8 3.26378 2.78883 0
M  V30 12185 C 1175.03 3.44516 4.07608 0
M  V30 12186 O 1175.25 2.66787 5.04163 0
M  V30 12187 O 1174.19 4.37898 4.12952 0
M  V30 12188 H 1178.01 2.77294 1.23861 0
M  V30 12189 H 1175.6 1.38958 0.548722 0
M  V30 12190 H 1177.48 2.16552 3.61501 0
M  V30 12191 H 1176.15 1.11819 3.03773 0
M  V30 12192 H 1175.06 3.17733 1.97475 0
M  V30 12193 H 1176.39 4.16996 2.61486 0
M  V30 12194 N 1178.05 -0.61812 1.44973 0
M  V30 12195 C 1178.96 -1.7579 1.55355 0
M  V30 12196 C 1179.97 -1.68384 0.438512 0
M  V30 12197 O 1181.15 -1.88928 0.697715 0
M  V30 12198 C 1178.21 -3.1222 1.50729 0
M  V30 12199 C 1177.27 -3.3116 2.73188 0
M  V30 12200 C 1176.51 -4.61082 2.68774 0
M  V30 12201 O 1176.73 -5.42728 1.75507 0
M  V30 12202 O 1175.66 -4.82506 3.59821 0
M  V30 12203 H 1179.49 -1.69983 2.51674 0
M  V30 12204 H 1177.07 -0.780934 1.27365 0
M  V30 12205 H 1178.96 -3.93524 1.5072 0
M  V30 12206 H 1177.63 -3.18541 0.575587 0
M  V30 12207 H 1176.54 -2.49485 2.78762 0
M  V30 12208 H 1177.87 -3.29709 3.65449 0
M  V30 12209 N 1179.52 -1.32087 -0.859693 0
M  V30 12210 C 1180.47 -1.20601 -1.96784 0
M  V30 12211 C 1181.44 -0.089355 -1.65859 0
M  V30 12212 O 1182.63 -0.264022 -1.88964 0
M  V30 12213 C 1179.77 -0.929872 -3.32336 0
M  V30 12214 C 1178.88 -2.13084 -3.75791 0
M  V30 12215 C 1178.01 -1.79061 -5.00111 0
M  V30 12216 C 1177.05 -2.95507 -5.36043 0
M  V30 12217 N 1176.19 -2.61611 -6.5154 0
M  V30 12218 H 1181.03 -2.1539 -2.0594 0
M  V30 12219 H 1178.57 -1.07131 -1.00803 0
M  V30 12220 H 1180.52 -0.750285 -4.10398 0
M  V30 12221 H 1179.15 -0.0187929 -3.22795 0
M  V30 12222 H 1178.21 -2.42086 -2.93425 0
M  V30 12223 H 1179.52 -3.00205 -3.98344 0
M  V30 12224 H 1178.67 -1.57625 -5.85866 0
M  V30 12225 H 1177.41 -0.891459 -4.79483 0
M  V30 12226 H 1176.42 -3.17581 -4.48801 0
M  V30 12227 H 1177.64 -3.86147 -5.5863 0
M  V30 12228 H 1175.59 -1.74231 -6.32439 0
M  V30 12229 H 1175.5 -3.42262 -6.74087 0
M  V30 12230 H 1176.77 -2.43592 -7.40461 0
M  V30 12231 N 1181 1.07532 -1.15215 0
M  V30 12232 C 1181.95 2.12909 -0.815714 0
M  V30 12233 C 1182.94 1.59662 0.1992 0
M  V30 12234 O 1184.13 1.77 0.000215597 0
M  V30 12235 C 1181.26 3.41945 -0.304717 0
M  V30 12236 C 1180.34 4.0205 -1.34968 0
M  V30 12237 N 1180.73 4.36439 -2.55646 0
M  V30 12238 C 1179.03 4.29498 -1.20199 0
M  V30 12239 C 1179.73 4.84044 -3.22609 0
M  V30 12240 N 1178.71 4.82702 -2.5 0
M  V30 12241 H 1182.51 2.37327 -1.73358 0
M  V30 12242 H 1180.02 1.24952 -1.03734 0
M  V30 12243 H 1182.02 4.16875 -0.0453503 0
M  V30 12244 H 1180.68 3.18971 0.607235 0
M  V30 12245 H 1181.69 4.27184 -2.92804 0
M  V30 12246 H 1178.37 4.16032 -0.349781 0
M  V30 12247 H 1179.76 5.19959 -4.2555 0
M  V30 12248 N 1182.48 0.948665 1.2585 0
M  V30 12249 C 1183.71 0.616741 1.98018 0
M  V30 12250 C 1184.13 -0.803005 1.70098 0
M  V30 12251 O 1183.49 -1.54208 0.953392 0
M  V30 12252 C 1183.54 0.874429 3.49837 0
M  V30 12253 O 1182.64 -0.0497568 4.1237 0
M  V30 12254 H 1181.98 0.235112 0.620982 0
M  V30 12255 H 1184.51 1.27364 1.60124 0
M  V30 12256 H 1184.52 0.798309 4.00114 0
M  V30 12257 H 1183.2 1.90922 3.69488 0
M  V30 12258 H 1181.77 0.0780591 3.72818 0
M  V30 12259 N 1183.96 -1.40369 0.716545 0
M  V30 12260 C 1185.18 -2.05704 0.264729 0
M  V30 12261 C 1185.61 -1.53634 -1.08527 0
M  V30 12262 O 1184.97 -0.67212 -1.68381 0
M  V30 12263 C 1185.01 -3.59692 0.255778 0
M  V30 12264 O 1184.12 -4.05286 -0.762686 0
M  V30 12265 H 1183.46 -0.652301 0.124092 0
M  V30 12266 H 1185.99 -1.7975 0.977295 0
M  V30 12267 H 1186 -4.07892 0.0937944 0
M  V30 12268 H 1184.67 -3.96955 1.24095 0
M  V30 12269 H 1183.25 -3.68543 -0.568347 0
M  V30 12270 N 1185.44 -0.462799 -1.50652 0
M  V30 12271 C 1186.71 0.156221 -1.94975 0
M  V30 12272 C 1187.09 1.5775 -1.40279 0
M  V30 12273 O 1186.44 2.20473 -0.600323 0
M  V30 12274 C 1186.65 0.108008 -3.48833 0
M  V30 12275 C 1188 0.301013 -4.23532 0
M  V30 12276 O 1189.02 0.184973 -3.55719 0
M  V30 12277 O 1187.88 0.534457 -5.4388 0
M  V30 12278 H 1184.98 0.116182 -0.818798 0
M  V30 12279 H 1187.52 -0.522607 -1.61453 0
M  V30 12280 H 1186.29 -0.884634 -3.81169 0
M  V30 12281 H 1185.92 0.828653 -3.88869 0
M  V30 12282 N 1186.91 1.56388 -0.195085 0
M  V30 12283 C 1188.14 2.02406 0.452399 0
M  V30 12284 C 1188.56 1.07432 1.54402 0
M  V30 12285 O 1187.92 0.0578246 1.81208 0
M  V30 12286 C 1187.97 3.46864 0.985778 0
M  V30 12287 O 1187.07 3.55007 2.09867 0
M  V30 12288 H 1186.42 0.65553 0.105719 0
M  V30 12289 H 1188.95 2.02299 -0.30596 0
M  V30 12290 H 1188.96 3.86655 1.30238 0
M  V30 12291 H 1187.63 4.15481 0.186662 0
M  V30 12292 H 1186.21 3.2709 1.79071 0
M  V30 12293 N 1188.39 -0.0785156 1.57404 0
M  V30 12294 C 1189.67 -0.811557 1.77969 0
M  V30 12295 C 1190.05 -1.96123 0.780966 0
M  V30 12296 O 1189.4 -2.27731 -0.18726 0
M  V30 12297 C 1189.61 -1.29075 3.24254 0
M  V30 12298 C 1190.96 -1.72685 3.87898 0
M  V30 12299 O 1191.98 -1.38658 3.28104 0
M  V30 12300 O 1190.84 -2.3566 4.93079 0
M  V30 12301 H 1187.93 -0.388361 0.73014 0
M  V30 12302 H 1190.48 -0.0591118 1.69597 0
M  V30 12303 H 1189.25 -0.467813 3.88494 0
M  V30 12304 H 1188.87 -2.10472 3.37324 0
M  V30 12305 N 1189.87 -1.5367 -0.349747 0
M  V30 12306 C 1191.1 -1.74294 -1.10928 0
M  V30 12307 C 1191.51 -0.479102 -1.83033 0
M  V30 12308 O 1190.85 0.558621 -1.75 0
M  V30 12309 C 1190.91 -2.86457 -2.17216 0
M  V30 12310 C 1190.58 -4.26274 -1.6474 0
M  V30 12311 C 1191.57 -5.08065 -1.10302 0
M  V30 12312 C 1189.26 -4.72739 -1.69774 0
M  V30 12313 C 1191.25 -6.34417 -0.615938 0
M  V30 12314 C 1188.94 -5.99066 -1.20678 0
M  V30 12315 C 1189.94 -6.79737 -0.6668 0
M  V30 12316 O 1189.63 -8.03691 -0.183143 0
M  V30 12317 H 1189.36 -0.586046 -0.336937 0
M  V30 12318 H 1191.91 -2.01274 -0.409645 0
M  V30 12319 H 1190.14 -2.54988 -2.9072 0
M  V30 12320 H 1191.83 -2.95109 -2.78686 0
M  V30 12321 H 1192.6 -4.73333 -1.05739 0
M  V30 12322 H 1188.48 -4.1001 -2.10744 0
M  V30 12323 H 1192.02 -6.97331 -0.193795 0
M  V30 12324 H 1187.92 -6.33293 -1.24939 0
M  V30 12325 H 1188.69 -8.17946 -0.301008 0
M  V30 12326 N 1191.35 0.610423 -1.45298 0
M  V30 12327 C 1192.26 1.74964 -1.56285 0
M  V30 12328 C 1193.27 1.68149 -0.447436 0
M  V30 12329 O 1194.45 1.88556 -0.707725 0
M  V30 12330 C 1191.52 3.11417 -1.52383 0
M  V30 12331 C 1190.58 3.29707 -2.7494 0
M  V30 12332 C 1189.81 4.5965 -2.71215 0
M  V30 12333 O 1190.03 5.41789 -1.78383 0
M  V30 12334 O 1188.97 4.80591 -3.62375 0
M  V30 12335 H 1192.79 1.68646 -2.52571 0
M  V30 12336 H 1190.38 0.774168 -1.27777 0
M  V30 12337 H 1192.26 3.9272 -1.52805 0
M  V30 12338 H 1190.93 3.18232 -0.592472 0
M  V30 12339 H 1189.84 2.48003 -2.80081 0
M  V30 12340 H 1191.17 3.27766 -3.67192 0
M  V30 12341 N 1192.83 1.32541 0.852676 0
M  V30 12342 C 1193.76 1.17471 1.96807 0
M  V30 12343 C 1194.77 0.109198 1.62433 0
M  V30 12344 O 1195.96 0.358342 1.74866 0
M  V30 12345 C 1193.06 0.776328 3.29888 0
M  V30 12346 C 1192.23 1.93055 3.9249 0
M  V30 12347 C 1191.29 1.51539 5.03907 0
M  V30 12348 O 1190.32 2.22771 5.23796 0
M  V30 12349 N 1191.52 0.412533 5.79032 0
M  V30 12350 H 1194.29 2.13551 2.10276 0
M  V30 12351 H 1191.85 1.25104 1.02764 0
M  V30 12352 H 1193.84 0.48096 4.01832 0
M  V30 12353 H 1192.41 -0.0933749 3.12461 0
M  V30 12354 H 1191.63 2.39231 3.13309 0
M  V30 12355 H 1192.92 2.70321 4.3105 0
M  V30 12356 H 1192.31 -0.180286 5.65413 0
M  V30 12357 H 1190.87 0.17678 6.5156 0
M  V30 12358 N 1194.3 -1.0692 1.15784 0
M  V30 12359 C 1195.27 -2.12407 0.861167 0
M  V30 12360 C 1196.27 -1.6018 -0.141031 0
M  V30 12361 O 1197.46 -1.73972 0.0891192 0
M  V30 12362 C 1194.59 -3.39693 0.286636 0
M  V30 12363 H 1195.78 -2.40157 1.79623 0
M  V30 12364 H 1193.34 -1.22881 0.965916 0
M  V30 12365 H 1194.07 -3.17587 -0.656417 0
M  V30 12366 H 1193.86 -3.78903 1.0087 0
M  V30 12367 H 1195.35 -4.17488 0.0967971 0
M  V30 12368 N 1195.78 -0.955326 -1.25345 0
M  V30 12369 C 1196.73 -0.474888 -2.25862 0
M  V30 12370 C 1197.7 0.472996 -1.59223 0
M  V30 12371 O 1198.88 0.386094 -1.86853 0
M  V30 12372 C 1196.02 0.240554 -3.44261 0
M  V30 12373 C 1195.14 -0.74465 -4.25534 0
M  V30 12374 C 1194.27 -0.00657513 -5.312 0
M  V30 12375 C 1193.31 -0.982666 -6.04161 0
M  V30 12376 N 1192.45 -0.275418 -7.0156 0
M  V30 12377 H 1197.29 -1.33693 -2.66327 0
M  V30 12378 H 1194.83 -0.670439 -1.30933 0
M  V30 12379 H 1196.78 0.671933 -4.11753 0
M  V30 12380 H 1195.41 1.06664 -3.04668 0
M  V30 12381 H 1194.47 -1.29451 -3.57696 0
M  V30 12382 H 1195.78 -1.48948 -4.76042 0
M  V30 12383 H 1194.93 0.483404 -6.04771 0
M  V30 12384 H 1193.67 0.771035 -4.81567 0
M  V30 12385 H 1192.68 -1.48364 -5.29404 0
M  V30 12386 H 1193.9 -1.76052 -6.55883 0
M  V30 12387 H 1191.85 0.483441 -6.54216 0
M  V30 12388 H 1191.76 -0.959324 -7.49889 0
M  V30 12389 H 1193.03 0.193002 -7.79261 0
M  V30 12390 N 1197.26 1.39987 -0.723979 0
M  V30 12391 C 1198.22 2.29041 -0.0854583 0
M  V30 12392 C 1199.22 1.45777 0.678657 0
M  V30 12393 O 1200.41 1.66588 0.509311 0
M  V30 12394 C 1197.55 3.29115 0.88859 0
M  V30 12395 H 1198.74 2.87006 -0.869903 0
M  V30 12396 H 1196.29 1.48449 -0.489136 0
M  V30 12397 H 1197.03 2.76184 1.69979 0
M  V30 12398 H 1196.81 3.90593 0.343454 0
M  V30 12399 H 1198.3 3.95778 1.33227 0
M  V30 12400 N 1198.74 0.470782 1.50404 0
M  V30 12401 C 1199.69 -0.32355 2.28521 0
M  V30 12402 C 1200.66 -0.987472 1.3356 0
M  V30 12403 O 1201.84 -0.999969 1.62497 0
M  V30 12404 C 1198.98 -1.39977 3.15437 0
M  V30 12405 C 1198.09 -0.750656 4.25428 0
M  V30 12406 C 1197.23 -1.80474 4.99602 0
M  V30 12407 C 1196.27 -1.13586 6.01469 0
M  V30 12408 N 1195.41 -2.13279 6.68922 0
M  V30 12409 H 1200.25 0.348902 2.9595 0
M  V30 12410 H 1197.78 0.183908 1.45946 0
M  V30 12411 H 1199.74 -2.0354 3.6418 0
M  V30 12412 H 1198.37 -2.04139 2.50054 0
M  V30 12413 H 1197.42 -0.00247092 3.804 0
M  V30 12414 H 1198.73 -0.222638 4.98303 0
M  V30 12415 H 1197.89 -2.51619 5.52062 0
M  V30 12416 H 1196.63 -2.36657 4.26433 0
M  V30 12417 H 1195.63 -0.410042 5.48269 0
M  V30 12418 H 1196.86 -0.580935 6.76611 0
M  V30 12419 H 1194.8 -2.68479 5.98544 0
M  V30 12420 H 1194.72 -1.65461 7.37671 0
M  V30 12421 H 1195.99 -2.83804 7.26 0
M  V30 12422 N 1200.22 -1.56282 0.203376 0
M  V30 12423 C 1201.45 -2.01905 -0.437936 0
M  V30 12424 C 1201.86 -1.08263 -1.55164 0
M  V30 12425 O 1201.2 -0.0811746 -1.83521 0
M  V30 12426 C 1201.26 -3.43908 -1.04725 0
M  V30 12427 C 1200.92 -4.56944 -0.0712582 0
M  V30 12428 C 1201.92 -5.14856 0.72243 0
M  V30 12429 C 1199.61 -5.02282 0.0422267 0
M  V30 12430 C 1201.6 -6.16562 1.61649 0
M  V30 12431 C 1199.29 -6.0383 0.939835 0
M  V30 12432 C 1200.29 -6.60844 1.72552 0
M  V30 12433 O 1199.97 -7.60417 2.60808 0
M  V30 12434 H 1199.71 -0.666416 -0.11343 0
M  V30 12435 H 1202.26 -2.03019 0.311833 0
M  V30 12436 H 1200.49 -3.39806 -1.84577 0
M  V30 12437 H 1202.18 -3.73288 -1.59407 0
M  V30 12438 H 1202.94 -4.80691 0.645105 0
M  V30 12439 H 1198.82 -4.57596 -0.559165 0
M  V30 12440 H 1202.37 -6.6099 2.23019 0
M  V30 12441 H 1198.26 -6.37418 1.01824 0
M  V30 12442 H 1199.03 -7.77869 2.54679 0
M  V30 12443 N 1201.7 0.070167 -1.57444 0
M  V30 12444 C 1202.92 0.785703 -1.91941 0
M  V30 12445 C 1203.35 1.70243 -0.799932 0
M  V30 12446 O 1202.7 1.79608 0.247139 0
M  V30 12447 C 1202.75 1.55398 -3.25398 0
M  V30 12448 O 1201.86 2.66475 -3.14746 0
M  V30 12449 H 1201.2 0.214245 -0.628486 0
M  V30 12450 H 1203.73 0.0379243 -2.04565 0
M  V30 12451 H 1203.74 1.93287 -3.5931 0
M  V30 12452 H 1202.41 0.881366 -4.06454 0
M  V30 12453 H 1200.99 2.3143 -2.92394 0
M  V30 12454 N 1203.17 1.53854 0.341593 0
M  V30 12455 C 1204.45 1.61823 1.09875 0
M  V30 12456 C 1204.83 0.440711 2.06448 0
M  V30 12457 O 1204.18 -0.566833 2.21358 0
M  V30 12458 C 1204.39 2.9799 1.81668 0
M  V30 12459 C 1205.74 3.53411 2.35341 0
M  V30 12460 O 1206.76 3.00177 1.91761 0
M  V30 12461 O 1205.62 4.4653 3.15076 0
M  V30 12462 H 1202.71 0.654599 0.5054 0
M  V30 12463 H 1205.26 1.66199 0.342929 0
M  V30 12464 H 1204.03 3.7513 1.11323 0
M  V30 12465 H 1203.65 2.97213 2.64103 0
M  V30 12466 N 1204.65 -0.602709 1.4562 0
M  V30 12467 C 1205.58 -1.72705 1.49159 0
M  V30 12468 C 1206.56 -1.58843 0.347494 0
M  V30 12469 O 1207.75 -1.80337 0.548716 0
M  V30 12470 C 1204.87 -3.10579 1.35125 0
M  V30 12471 C 1203.92 -3.43016 2.53461 0
M  V30 12472 S 1204.75 -3.37311 4.1591 0
M  V30 12473 C 1205.91 -4.77757 4.0435 0
M  V30 12474 H 1206.14 -1.69441 2.44289 0
M  V30 12475 H 1203.67 -0.779776 1.33262 0
M  V30 12476 H 1205.63 -3.90127 1.27715 0
M  V30 12477 H 1204.29 -3.11352 0.414568 0
M  V30 12478 H 1203.49 -4.43415 2.39581 0
M  V30 12479 H 1203.09 -2.70993 2.57757 0
M  V30 12480 H 1205.38 -5.67677 3.69796 0
M  V30 12481 H 1206.32 -4.96694 5.04679 0
M  V30 12482 H 1206.73 -4.53667 3.35926 0
M  V30 12483 N 1206.13 -1.32992 -0.845635 0
M  V30 12484 C 1207.35 -1.27231 -1.6379 0
M  V30 12485 C 1207.78 0.155141 -1.87459 0
M  V30 12486 O 1207.14 1.10953 -1.43384 0
M  V30 12487 C 1207.19 -2.04629 -2.96916 0
M  V30 12488 O 1206.29 -1.40027 -3.879 0
M  V30 12489 H 1205.63 -0.438045 -0.499011 0
M  V30 12490 H 1208.16 -1.75448 -1.05257 0
M  V30 12491 H 1208.17 -2.15141 -3.46667 0
M  V30 12492 H 1206.85 -3.08425 -2.79011 0
M  V30 12493 H 1205.42 -1.38118 -3.46378 0
M  V30 12494 N 1207.61 1.06304 -1.1635 0
M  V30 12495 C 1208.83 1.83338 -0.969639 0
M  V30 12496 C 1209.26 1.81945 0.477231 0
M  V30 12497 O 1208.62 1.22018 1.34094 0
M  V30 12498 C 1208.66 3.2785 -1.50155 0
M  V30 12499 O 1207.77 4.06281 -0.707805 0
M  V30 12500 H 1207.11 0.567293 -0.345072 0
M  V30 12501 H 1209.64 1.34033 -1.54584 0
M  V30 12502 H 1209.65 3.7867 -1.51898 0
M  V30 12503 H 1208.32 3.28179 -2.55483 0
M  V30 12504 H 1206.9 3.65055 -0.760872 0
M  V30 12505 N 1209.09 0.96196 1.24836 0
M  V30 12506 C 1210.33 0.621634 1.93038 0
M  V30 12507 C 1210.66 -0.840257 1.75081 0
M  V30 12508 O 1209.94 -1.60381 1.10038 0
M  V30 12509 C 1210.22 0.990107 3.46221 0
M  V30 12510 C 1210.08 2.50827 3.73371 0
M  V30 12511 C 1211.39 0.520478 4.37011 0
M  V30 12512 H 1208.51 0.227312 0.701069 0
M  V30 12513 H 1211.16 1.19993 1.47315 0
M  V30 12514 H 1209.31 0.498008 3.85295 0
M  V30 12515 H 1210.98 3.07469 3.4389 0
M  V30 12516 H 1209.22 2.94277 3.18722 0
M  V30 12517 H 1209.89 2.71659 4.80526 0
M  V30 12518 H 1212.37 0.942703 4.05281 0
M  V30 12519 H 1211.24 0.806918 5.42937 0
M  V30 12520 H 1211.5 -0.579507 4.38285 0
M  V30 12521 N 1210.56 -1.39601 0.731392 0
M  V30 12522 C 1211.79 -2.0459 0.287472 0
M  V30 12523 C 1212.2 -1.5525 -1.08139 0
M  V30 12524 O 1211.54 -0.710949 -1.69385 0
M  V30 12525 C 1211.61 -3.58904 0.206948 0
M  V30 12526 C 1211.27 -4.31204 1.51368 0
M  V30 12527 C 1212.27 -4.58088 2.45869 0
M  V30 12528 C 1209.95 -4.69818 1.77698 0
M  V30 12529 C 1211.95 -5.22591 3.64935 0
M  V30 12530 C 1209.63 -5.34049 2.97043 0
M  V30 12531 C 1210.63 -5.60368 3.90483 0
M  V30 12532 O 1210.32 -6.23268 5.07732 0
M  V30 12533 H 1210.05 -0.664515 0.12408 0
M  V30 12534 H 1212.61 -1.79701 0.994814 0
M  V30 12535 H 1210.84 -3.82675 -0.556466 0
M  V30 12536 H 1212.52 -4.05385 -0.204498 0
M  V30 12537 H 1213.29 -4.28706 2.26796 0
M  V30 12538 H 1209.17 -4.48692 1.05815 0
M  V30 12539 H 1212.71 -5.43049 4.37885 0
M  V30 12540 H 1208.61 -5.62852 3.16018 0
M  V30 12541 H 1209.38 -6.41763 5.08019 0
M  V30 12542 N 1212.04 -0.478751 -1.50152 0
M  V30 12543 C 1213.46 -0.133356 -1.59042 0
M  V30 12544 C 1213.66 1.36069 -1.48618 0
M  V30 12545 O 1212.71 2.13468 -1.34862 0
M  V30 12546 C 1214.03 -0.690369 -2.92668 0
M  V30 12547 C 1215.58 -0.654481 -3.06081 0
M  V30 12548 C 1216.05 -1.18917 -4.42293 0
M  V30 12549 N 1217.54 -1.14891 -4.48725 0
M  V30 12550 C 1218.28 -1.53305 -5.52526 0
M  V30 12551 N 1217.77 -1.99205 -6.63543 0
M  V30 12552 N 1219.57 -1.4486 -5.43113 0
M  V30 12553 H 1211.72 -1.45037 -1.55171 0
M  V30 12554 H 1213.98 -0.600254 -0.733757 0
M  V30 12555 H 1213.69 -1.7373 -3.05795 0
M  V30 12556 H 1213.56 -0.138227 -3.76947 0
M  V30 12557 H 1215.95 0.383564 -2.92597 0
M  V30 12558 H 1216.03 -1.24352 -2.2354 0
M  V30 12559 H 1215.67 -2.22588 -4.56527 0
M  V30 12560 H 1215.6 -0.57628 -5.23437 0
M  V30 12561 H 1218.09 -0.812344 -3.69066 0
M  V30 12562 H 1218.41 -2.26645 -7.38818 0
M  V30 12563 H 1216.75 -2.03164 -6.64642 0
M  V30 12564 H 1219.94 -1.08836 -4.55272 0
M  V30 12565 H 1220.11 -1.75123 -6.23888 0
M  V30 12566 N 1213.52 1.56172 -0.211661 0
M  V30 12567 C 1214.8 1.8984 0.471195 0
M  V30 12568 C 1215.18 1.1276 1.78461 0
M  V30 12569 O 1214.53 0.233817 2.27301 0
M  V30 12570 C 1214.74 3.42434 0.673814 0
M  V30 12571 C 1216.08 4.13 0.985719 0
M  V30 12572 O 1217.11 3.47977 0.760953 0
M  V30 12573 O 1215.97 5.2795 1.41176 0
M  V30 12574 H 1213.06 0.789008 0.247782 0
M  V30 12575 H 1215.61 1.67802 -0.25311 0
M  V30 12576 H 1214.38 3.90481 -0.253034 0
M  V30 12577 H 1214 3.70218 1.44997 0
M  V30 12578 N 1215 -0.0618163 1.57479 0
M  V30 12579 C 1216.41 -0.416827 1.54061 0
M  V30 12580 C 1216.61 -1.78584 0.933277 0
M  V30 12581 O 1215.67 -2.46656 0.54009 0
M  V30 12582 C 1216.98 -0.348728 2.98671 0
M  V30 12583 C 1218.53 -0.428194 3.10057 0
M  V30 12584 C 1219.01 -0.389898 4.56337 0
M  V30 12585 N 1220.5 -0.449677 4.61012 0
M  V30 12586 C 1221.23 -0.442418 5.71691 0
M  V30 12587 N 1220.73 -0.389381 6.91705 0
M  V30 12588 N 1222.52 -0.489719 5.59963 0
M  V30 12589 H 1214.67 0.834487 1.9532 0
M  V30 12590 H 1216.94 0.314149 0.894435 0
M  V30 12591 H 1216.64 0.590738 3.46703 0
M  V30 12592 H 1216.52 -1.15511 3.59078 0
M  V30 12593 H 1218.9 -1.35808 2.61992 0
M  V30 12594 H 1218.98 0.406946 2.52542 0
M  V30 12595 H 1218.63 0.536186 5.05062 0
M  V30 12596 H 1218.56 -1.24271 5.11727 0
M  V30 12597 H 1221.05 -0.49451 3.74651 0
M  V30 12598 H 1221.36 -0.388042 7.71825 0
M  V30 12599 H 1219.71 -0.355918 6.94088 0
M  V30 12600 H 1222.9 -0.528915 4.65102 0
M  V30 12601 H 1223.07 -0.480592 6.46215 0
M  V30 12602 N 1216.48 -1.54033 -0.333429 0
M  V30 12603 C 1217.7 -1.76031 -1.09672 0
M  V30 12604 C 1218.13 -0.502844 -1.81254 0
M  V30 12605 O 1217.48 0.54509 -1.72912 0
M  V30 12606 C 1217.53 -2.947 -2.07809 0
M  V30 12607 O 1216.64 -2.65555 -3.15522 0
M  V30 12608 H 1215.98 -0.583611 -0.316692 0
M  V30 12609 H 1218.51 -2.01026 -0.380732 0
M  V30 12610 H 1218.52 -3.21771 -2.50853 0
M  V30 12611 H 1217.19 -3.85895 -1.55106 0
M  V30 12612 H 1215.77 -2.49403 -2.77223 0
M  V30 12613 N 1217.95 0.594978 -1.45938 0
M  V30 12614 C 1219.2 1.35093 -1.50314 0
M  V30 12615 C 1219.52 1.94412 -0.151315 0
M  V30 12616 O 1218.79 1.77876 0.820787 0
M  V30 12617 H 1217.37 0.501549 -0.553586 0
M  V30 12618 H 1220.04 0.697735 -1.81983 0
M  V30 12619 H 1219.13 2.16393 -2.24901 0
M  V30 12620 N 1219.43 1.33438 0.838571 0
M  V30 12621 C 1220.66 1.28097 1.63113 0
M  V30 12622 C 1221.08 -0.145197 1.87539 0
M  V30 12623 O 1220.44 -1.10191 1.43971 0
M  V30 12624 C 1220.49 2.06201 2.95827 0
M  V30 12625 O 1219.59 1.42082 3.87152 0
M  V30 12626 H 1218.93 0.440685 0.496681 0
M  V30 12627 H 1221.46 1.76004 1.04325 0
M  V30 12628 H 1221.47 2.16977 3.45521 0
M  V30 12629 H 1220.15 3.099 2.77371 0
M  V30 12630 H 1218.73 1.39953 3.45641 0
M  V30 12631 N 1220.91 -1.05686 1.16912 0
M  V30 12632 C 1222.16 -1.78244 0.95254 0
M  V30 12633 C 1222.48 -1.87924 -0.520525 0
M  V30 12634 O 1221.75 -1.39239 -1.37802 0
M  V30 12635 H 1220.33 -0.660228 0.349439 0
M  V30 12636 H 1222.99 -1.27634 1.47294 0
M  V30 12637 H 1222.09 -2.80102 1.37657 0
M  V30 12638 N 1222.39 -0.968567 -1.24324 0
M  V30 12639 C 1223.8 -0.66964 -1.74278 0
M  V30 12640 C 1224.15 0.81461 -1.7849 0
M  V30 12641 O 1223.28 1.63736 -1.4149 0
M  V30 12642 C 1223.87 -1.20885 -3.165 0
M  V30 12643 C 1222.43 -0.959808 -3.63957 0
M  V30 12644 C 1221.58 -1.34365 -2.42573 0
M  V30 12645 H 1224.53 -1.14379 -1.10015 0
M  V30 12646 H 1224.55 -0.57555 -3.76122 0
M  V30 12647 H 1224.06 -2.28912 -3.13402 0
M  V30 12648 H 1222.16 0.104894 -3.72452 0
M  V30 12649 H 1222.27 -1.60606 -4.51378 0
M  V30 12650 H 1220.64 -0.762039 -2.43033 0
M  V30 12651 H 1221.42 -2.43343 -2.42155 0
M  V30 12652 N 1223.87 1.39211 -0.738786 0
M  V30 12653 C 1225.09 2.04732 -0.298751 0
M  V30 12654 C 1225.51 1.55706 1.06776 0
M  V30 12655 O 1224.87 0.723605 1.67542 0
M  V30 12656 C 1224.92 3.60288 -0.29574 0
M  V30 12657 O 1224.64 4.07511 -1.60831 0
M  V30 12658 C 1226.14 4.43011 0.159994 0
M  V30 12659 H 1223.36 0.658296 -0.129952 0
M  V30 12660 H 1225.9 1.78186 -1.0035 0
M  V30 12661 H 1224.06 3.85722 0.360146 0
M  V30 12662 H 1224.47 5.01858 -1.52443 0
M  V30 12663 H 1225.95 5.51889 0.110941 0
M  V30 12664 H 1226.42 4.22325 1.20573 0
M  V30 12665 H 1227.03 4.22734 -0.466467 0
M  V30 12666 N 1225.34 0.486708 1.49896 0
M  V30 12667 C 1226.28 -0.335809 2.26727 0
M  V30 12668 C 1227.29 -0.94333 1.32684 0
M  V30 12669 O 1228.48 -0.82909 1.58077 0
M  V30 12670 C 1225.58 -1.48642 3.04563 0
M  V30 12671 C 1224.75 -0.988837 4.26076 0
M  V30 12672 C 1223.81 -2.01535 4.86076 0
M  V30 12673 O 1222.84 -1.58966 5.46552 0
M  V30 12674 N 1224.04 -3.34471 4.74457 0
M  V30 12675 H 1226.8 0.322919 2.97955 0
M  V30 12676 H 1224.36 0.318403 1.58738 0
M  V30 12677 H 1226.36 -2.17039 3.41579 0
M  V30 12678 H 1224.93 -2.04956 2.36033 0
M  V30 12679 H 1224.15 -0.130232 3.93985 0
M  V30 12680 H 1225.43 -0.634562 5.04827 0
M  V30 12681 H 1224.83 -3.71755 4.26398 0
M  V30 12682 H 1223.39 -3.98621 5.15698 0
M  V30 12683 N 1226.82 -1.56058 0.219941 0
M  V30 12684 C 1228.1 -1.90087 -0.46112 0
M  V30 12685 C 1228.48 -1.13705 -1.77861 0
M  V30 12686 O 1227.83 -0.245868 -2.27173 0
M  V30 12687 C 1228.04 -3.42786 -0.655644 0
M  V30 12688 C 1229.39 -4.13517 -0.963803 0
M  V30 12689 O 1230.41 -3.48376 -0.742488 0
M  V30 12690 O 1229.27 -5.28692 -1.38374 0
M  V30 12691 H 1226.36 -0.790311 -0.243595 0
M  V30 12692 H 1228.91 -1.67665 0.262005 0
M  V30 12693 H 1227.68 -3.90341 0.273738 0
M  V30 12694 H 1227.3 -3.70982 -1.43032 0
M  V30 12695 N 1228.3 0.053464 -1.57509 0
M  V30 12696 C 1229.23 1.06151 -2.07977 0
M  V30 12697 C 1230.21 1.3924 -0.977047 0
M  V30 12698 O 1231.4 1.48549 -1.25087 0
M  V30 12699 C 1228.53 2.36969 -2.53895 0
M  V30 12700 C 1227.48 2.18186 -3.6821 0
M  V30 12701 C 1226.81 3.54551 -4.00247 0
M  V30 12702 C 1228.11 1.588 -4.97574 0
M  V30 12703 H 1229.8 0.641483 -2.92447 0
M  V30 12704 H 1227.35 0.307122 -1.40687 0
M  V30 12705 H 1229.3 3.07797 -2.87817 0
M  V30 12706 H 1228.02 2.80986 -1.66476 0
M  V30 12707 H 1226.68 1.49796 -3.34599 0
M  V30 12708 H 1226.33 3.96171 -3.09932 0
M  V30 12709 H 1226.03 3.42816 -4.77232 0
M  V30 12710 H 1227.56 4.2678 -4.36682 0
M  V30 12711 H 1228.97 2.19515 -5.29609 0
M  V30 12712 H 1227.37 1.57711 -5.79006 0
M  V30 12713 H 1228.44 0.551254 -4.81756 0
M  V30 12714 N 1229.78 1.54207 0.325255 0
M  V30 12715 C 1230.73 1.84197 1.42036 0
M  V30 12716 C 1231.72 0.71375 1.53629 0
M  V30 12717 O 1232.93 0.897385 1.56035 0
M  V30 12718 H 1229.3 0.583848 0.473947 0
M  V30 12719 H 1231.27 2.7578 1.13965 0
M  V30 12720 C 1230.02 2.08459 2.78281 0
M  V30 12721 H 1229.35 2.94734 2.70133 0
M  V30 12722 H 1230.79 2.33398 3.5398 0
M  V30 12723 C 1229.24 0.875615 3.25322 0
M  V30 12724 O 1229.77 0.0840387 4.01612 0
M  V30 12725 N 1227.98 0.687721 2.82345 0
M  V30 12726 H 1227.53 1.33307 2.20425 0
M  V30 12727 H 1227.49 -0.119687 3.14172 0
M  V30 12728 N 1231.26 -0.58723 1.46251 0
M  V30 12729 C 1232.49 -1.37174 1.5489 0
M  V30 12730 C 1232.9 -1.87857 0.188445 0
M  V30 12731 O 1232.26 -1.63365 -0.813509 0
M  V30 12732 C 1232.31 -2.56237 2.55 0
M  V30 12733 O 1232.03 -2.07655 3.8576 0
M  V30 12734 C 1233.53 -3.48846 2.73535 0
M  V30 12735 H 1230.75 -0.419211 0.523931 0
M  V30 12736 H 1233.29 -0.714307 1.91619 0
M  V30 12737 H 1231.45 -3.1798 2.21287 0
M  V30 12738 H 1231.86 -2.85161 4.40208 0
M  V30 12739 H 1233.34 -4.2888 3.47514 0
M  V30 12740 H 1233.81 -4.00493 1.80282 0
M  V30 12741 H 1234.42 -2.92942 3.08326 0
M  V30 12742 N 1232.74 -1.33881 -0.831482 0
M  V30 12743 C 1233.98 -1.251 -1.58218 0
M  V30 12744 C 1234.3 0.17963 -1.94773 0
M  V30 12745 O 1235.5 0.389516 -2.68691 0
M  V30 12746 C 1233.96 -2.19246 -2.8541 0
M  V30 12747 C 1233.57 -3.6752 -2.5619 0
M  V30 12748 C 1235.31 -2.19355 -3.63433 0
M  V30 12749 C 1233.22 -4.53559 -3.79523 0
M  V30 12750 H 1232.15 -0.46469 -0.593784 0
M  V30 12751 H 1234.8 -1.58992 -0.916169 0
M  V30 12752 H 1233.18 -1.78295 -3.53591 0
M  V30 12753 H 1234.36 -4.16956 -1.96173 0
M  V30 12754 H 1232.67 -3.69774 -1.91458 0
M  V30 12755 H 1235.27 -2.80863 -4.54995 0
M  V30 12756 H 1235.61 -1.19056 -3.98913 0
M  V30 12757 H 1236.14 -2.58706 -3.02185 0
M  V30 12758 H 1232.88 -5.54762 -3.4917 0
M  V30 12759 H 1232.4 -4.08862 -4.38853 0
M  V30 12760 H 1234.08 -4.67736 -4.47025 0
M  V30 12761 N 1234.21 1.05064 -1.1747 0
M  V30 12762 C 1235.14 2.14786 -0.915936 0
M  V30 12763 C 1236.12 1.69502 0.142561 0
M  V30 12764 O 1237.31 1.94198 -0.00794522 0
M  V30 12765 C 1234.44 3.44629 -0.429864 0
M  V30 12766 C 1233.39 4.03486 -1.42769 0
M  V30 12767 C 1232.72 5.28689 -0.799528 0
M  V30 12768 C 1234.02 4.40823 -2.80129 0
M  V30 12769 H 1235.71 2.3669 -1.83352 0
M  V30 12770 H 1233.26 1.13751 -0.882992 0
M  V30 12771 H 1235.21 4.20737 -0.236245 0
M  V30 12772 H 1233.94 3.22381 0.523263 0
M  V30 12773 H 1232.6 3.29449 -1.60808 0
M  V30 12774 H 1232.24 5.02744 0.160474 0
M  V30 12775 H 1231.94 5.69028 -1.46565 0
M  V30 12776 H 1233.47 6.07483 -0.616212 0
M  V30 12777 H 1234.88 5.07959 -2.65801 0
M  V30 12778 H 1233.28 4.92183 -3.43331 0
M  V30 12779 H 1234.35 3.51108 -3.34441 0
M  V30 12780 N 1235.69 0.975146 1.23809 0
M  V30 12781 C 1236.62 0.530389 2.27396 0
M  V30 12782 C 1237.6 -0.433763 1.64476 0
M  V30 12783 O 1238.79 -0.32827 1.91405 0
M  V30 12784 C 1235.92 -0.173066 3.46869 0
M  V30 12785 C 1234.87 0.707844 4.22106 0
M  V30 12786 C 1234.2 -0.127527 5.34548 0
M  V30 12787 C 1235.5 1.99609 4.82652 0
M  V30 12788 H 1237.19 1.39622 2.64851 0
M  V30 12789 H 1234.74 0.672802 1.27316 0
M  V30 12790 H 1236.69 -0.495481 4.18477 0
M  V30 12791 H 1235.41 -1.0733 3.0846 0
M  V30 12792 H 1234.07 1.01364 3.52308 0
M  V30 12793 H 1233.72 -1.02814 4.9238 0
M  V30 12794 H 1233.42 0.458728 5.85807 0
M  V30 12795 H 1234.95 -0.444443 6.0898 0
M  V30 12796 H 1236.36 1.73878 5.46296 0
M  V30 12797 H 1234.76 2.52969 5.44175 0
M  V30 12798 H 1235.83 2.68629 4.03691 0
M  V30 12799 N 1237.17 -1.38817 0.746158 0
M  V30 12800 C 1238.4 -2.0457 0.309605 0
M  V30 12801 C 1238.81 -1.5627 -1.05948 0
M  V30 12802 O 1238.17 -0.73248 -1.67156 0
M  V30 12803 C 1238.22 -3.60126 0.314843 0
M  V30 12804 O 1237.94 -4.06652 1.6299 0
M  V30 12805 C 1239.44 -4.4309 -0.136497 0
M  V30 12806 H 1236.66 -0.657597 0.133441 0
M  V30 12807 H 1239.21 -1.77651 1.01293 0
M  V30 12808 H 1237.36 -3.85908 -0.339685 0
M  V30 12809 H 1237.78 -5.01042 1.55103 0
M  V30 12810 H 1239.25 -5.5194 -0.0816714 0
M  V30 12811 H 1239.73 -4.22959 -1.18332 0
M  V30 12812 H 1240.33 -4.22481 0.488879 0
M  V30 12813 N 1238.65 -0.49465 -1.49636 0
M  V30 12814 C 1239.87 0.051305 -2.07337 0
M  V30 12815 C 1240.3 1.30637 -1.35335 0
M  V30 12816 O 1239.66 1.76647 -0.408126 0
M  V30 12817 C 1239.7 0.294425 -3.59396 0
M  V30 12818 O 1238.81 1.3704 -3.88965 0
M  V30 12819 H 1238.15 -0.023408 -0.663587 0
M  V30 12820 H 1240.68 -0.692451 -1.92526 0
M  V30 12821 H 1240.69 0.527854 -4.04571 0
M  V30 12822 H 1239.36 -0.622583 -4.11214 0
M  V30 12823 H 1237.94 1.12242 -3.55607 0
M  V30 12824 N 1240.13 1.55939 -0.228214 0
M  V30 12825 C 1241.09 2.1932 0.665681 0
M  V30 12826 C 1242.09 1.15699 1.11671 0
M  V30 12827 O 1243.28 1.40893 1.02444 0
M  V30 12828 C 1240.41 2.82185 1.9127 0
M  V30 12829 H 1241.6 2.99687 0.112986 0
M  V30 12830 H 1239.16 1.56285 0.0213865 0
M  V30 12831 H 1239.89 2.05706 2.5071 0
M  V30 12832 H 1239.68 3.58073 1.5977 0
M  V30 12833 H 1241.17 3.30748 2.54942 0
M  V30 12834 N 1241.6 -0.0451101 1.57535 0
M  V30 12835 C 1242.54 -1.07792 2.02271 0
M  V30 12836 C 1243.55 -1.33423 0.932854 0
M  V30 12837 O 1244.74 -1.31193 1.2104 0
M  V30 12838 C 1241.84 -2.42314 2.36933 0
M  V30 12839 C 1241.01 -2.36266 3.68099 0
M  V30 12840 C 1240.07 -3.53108 3.9013 0
M  V30 12841 O 1239.1 -3.33327 4.61391 0
M  V30 12842 N 1240.3 -4.74415 3.3453 0
M  V30 12843 H 1243.06 -0.696744 2.91489 0
M  V30 12844 H 1240.62 -0.233336 1.6021 0
M  V30 12845 H 1242.62 -3.19171 2.48821 0
M  V30 12846 H 1241.19 -2.72335 1.53468 0
M  V30 12847 H 1240.41 -1.44615 3.66715 0
M  V30 12848 H 1241.69 -2.29351 4.54175 0
M  V30 12849 H 1241.09 -4.93388 2.76739 0
M  V30 12850 H 1239.65 -5.48692 3.51825 0
M  V30 12851 N 1243.08 -1.54377 -0.317073 0
M  V30 12852 C 1244.01 -1.8721 -1.39552 0
M  V30 12853 C 1244.99 -0.729483 -1.53664 0
M  V30 12854 O 1246.18 -0.983799 -1.67437 0
M  V30 12855 C 1243.31 -2.1052 -2.76222 0
M  V30 12856 C 1242.26 -3.26366 -2.76892 0
M  V30 12857 C 1241.59 -3.35061 -4.16699 0
M  V30 12858 C 1242.89 -4.63862 -2.40061 0
M  V30 12859 H 1244.58 -2.77532 -1.12323 0
M  V30 12860 H 1242.13 -1.33536 -0.538897 0
M  V30 12861 H 1244.08 -2.32073 -3.51739 0
M  V30 12862 H 1242.81 -1.16953 -3.04942 0
M  V30 12863 H 1241.46 -3.0471 -2.03831 0
M  V30 12864 H 1241.11 -2.39041 -4.4257 0
M  V30 12865 H 1240.81 -4.12923 -4.18053 0
M  V30 12866 H 1242.34 -3.58856 -4.94019 0
M  V30 12867 H 1243.75 -4.85252 -3.05292 0
M  V30 12868 H 1242.15 -5.44321 -2.52655 0
M  V30 12869 H 1243.22 -4.6567 -1.35202 0
M  V30 12870 N 1244.56 0.579466 -1.4656 0
M  V30 12871 C 1245.79 1.36837 -1.55854 0
M  V30 12872 C 1246.21 1.87019 -0.20141 0
M  V30 12873 O 1245.57 1.61746 0.81901 0
M  V30 12874 C 1245.62 2.52965 -2.56985 0
M  V30 12875 O 1244.72 3.54505 -2.10713 0
M  V30 12876 H 1244.06 0.407379 -0.524345 0
M  V30 12877 H 1246.59 0.702558 -1.9216 0
M  V30 12878 H 1246.6 2.99838 -2.76697 0
M  V30 12879 H 1245.28 2.15793 -3.55536 0
M  V30 12880 H 1243.85 3.14089 -2.01003 0
M  V30 12881 N 1246.04 1.3432 0.824371 0
M  V30 12882 C 1247.26 1.2982 1.61745 0
M  V30 12883 C 1247.69 -0.125298 1.87682 0
M  V30 12884 O 1247.05 -1.08658 1.45131 0
M  V30 12885 C 1247.09 2.09327 2.93623 0
M  V30 12886 O 1246.2 1.4618 3.85623 0
M  V30 12887 H 1245.54 0.445929 0.491979 0
M  V30 12888 H 1248.07 1.77101 1.02452 0
M  V30 12889 H 1248.08 2.20629 3.43201 0
M  V30 12890 H 1246.75 3.12825 2.74069 0
M  V30 12891 H 1245.33 1.43611 3.44137 0
M  V30 12892 N 1247.52 -1.0444 1.18026 0
M  V30 12893 C 1248.79 -1.74533 0.883045 0
M  V30 12894 C 1249.17 -2.01944 -0.614975 0
M  V30 12895 O 1248.52 -1.66158 -1.56855 0
M  V30 12896 C 1248.73 -3.0332 1.72621 0
M  V30 12897 C 1250.08 -3.77128 1.9509 0
M  V30 12898 O 1251.1 -3.13209 1.69643 0
M  V30 12899 O 1249.96 -4.92001 2.37903 0
M  V30 12900 H 1247.06 -0.759315 0.327673 0
M  V30 12901 H 1249.6 -1.10539 1.2876 0
M  V30 12902 H 1248.37 -2.79171 2.74188 0
M  V30 12903 H 1248 -3.75052 1.31993 0
M  V30 12904 N 1248.99 -0.981699 -1.2329 0
M  V30 12905 C 1250.24 -0.652266 -1.92024 0
M  V30 12906 C 1250.57 0.812297 -1.76396 0
M  V30 12907 O 1249.85 1.5861 -1.12575 0
M  V30 12908 C 1250.13 -1.04506 -3.44602 0
M  V30 12909 C 1249.98 -2.56735 -3.69333 0
M  V30 12910 C 1251.3 -0.589937 -4.36128 0
M  V30 12911 H 1248.42 -0.238437 -0.697364 0
M  V30 12912 H 1251.06 -1.22322 -1.45387 0
M  V30 12913 H 1249.21 -0.559242 -3.84454 0
M  V30 12914 H 1250.89 -3.12901 -3.38955 0
M  V30 12915 H 1249.13 -2.9931 -3.14 0
M  V30 12916 H 1249.8 -2.79269 -4.76144 0
M  V30 12917 H 1252.28 -1.00706 -4.0373 0
M  V30 12918 H 1251.15 -0.893192 -5.41584 0
M  V30 12919 H 1251.41 0.509707 -4.39152 0
M  V30 12920 N 1250.47 1.3842 -0.753509 0
M  V30 12921 C 1251.44 2.28808 -0.134022 0
M  V30 12922 C 1252.44 1.47184 0.647583 0
M  V30 12923 O 1253.63 1.67631 0.473861 0
M  V30 12924 C 1250.76 3.30926 0.81858 0
M  V30 12925 H 1251.95 2.85097 -0.930586 0
M  V30 12926 H 1249.5 1.47378 -0.520514 0
M  V30 12927 H 1250.24 2.79728 1.64082 0
M  V30 12928 H 1250.02 3.91234 0.260526 0
M  V30 12929 H 1251.51 3.98515 1.24802 0
M  V30 12930 N 1251.95 0.502579 1.49372 0
M  V30 12931 C 1253.2 -0.0414423 2.02758 0
M  V30 12932 C 1253.53 -1.36499 1.38136 0
M  V30 12933 O 1252.8 -1.87487 0.517593 0
M  V30 12934 C 1253.09 -0.192333 3.59586 0
M  V30 12935 C 1252.94 1.15445 4.34733 0
M  V30 12936 C 1254.26 -0.932218 4.30114 0
M  V30 12937 H 1251.38 -0.0135869 0.736875 0
M  V30 12938 H 1254.02 0.654296 1.78379 0
M  V30 12939 H 1252.17 -0.78491 3.80488 0
M  V30 12940 H 1253.84 1.78603 4.25322 0
M  V30 12941 H 1252.09 1.74333 3.97228 0
M  V30 12942 H 1252.76 1.00216 5.42827 0
M  V30 12943 H 1255.23 -0.429632 4.13876 0
M  V30 12944 H 1254.11 -1.00664 5.39591 0
M  V30 12945 H 1254.37 -1.9763 3.95468 0
M  V30 12946 N 1253.43 -1.55816 0.23648 0
M  V30 12947 C 1254.34 -2.24576 -0.678439 0
M  V30 12948 C 1255.35 -1.25836 -1.20172 0
M  V30 12949 O 1256.53 -1.58686 -1.24019 0
M  V30 12950 C 1253.6 -2.92376 -1.86325 0
M  V30 12951 C 1252.66 -4.06499 -1.38047 0
M  V30 12952 C 1251.89 -4.71057 -2.50881 0
M  V30 12953 O 1252.11 -4.34652 -3.69369 0
M  V30 12954 O 1251.05 -5.59768 -2.21232 0
M  V30 12955 H 1254.87 -3.03452 -0.122601 0
M  V30 12956 H 1252.46 -1.49399 0.00540803 0
M  V30 12957 H 1254.34 -3.35117 -2.55488 0
M  V30 12958 H 1253.01 -2.16448 -2.40691 0
M  V30 12959 H 1251.92 -3.68296 -0.656422 0
M  V30 12960 H 1253.25 -4.84214 -0.883024 0
M  V30 12961 N 1254.91 0.036755 -1.57557 0
M  V30 12962 C 1256.13 0.741086 -1.93172 0
M  V30 12963 C 1256.55 1.69303 -0.835589 0
M  V30 12964 O 1255.91 1.81523 0.1886 0
M  V30 12965 C 1255.96 1.50477 -3.28693 0
M  V30 12966 O 1255.68 0.591046 -4.34095 0
M  V30 12967 C 1257.18 2.30695 -3.78543 0
M  V30 12968 H 1254.4 0.208731 -0.637709 0
M  V30 12969 H 1256.94 -0.00342776 -2.045 0
M  V30 12970 H 1255.1 2.20123 -3.18786 0
M  V30 12971 H 1255.51 1.12579 -5.12276 0
M  V30 12972 H 1256.99 2.79685 -4.759 0
M  V30 12973 H 1257.46 3.11778 -3.0934 0
M  V30 12974 H 1258.07 1.66138 -3.91508 0
M  V30 12975 N 1256.39 1.54543 0.308881 0
M  V30 12976 C 1257.8 1.64532 0.882392 0
M  V30 12977 C 1258.15 0.54886 1.88367 0
M  V30 12978 O 1257.27 -0.315832 2.14083 0
M  V30 12979 C 1257.87 2.98251 1.60722 0
M  V30 12980 C 1256.43 3.10387 2.12925 0
M  V30 12981 C 1255.57 2.60176 0.959362 0
M  V30 12982 H 1258.52 1.58466 0.0860803 0
M  V30 12983 H 1258.55 2.89233 2.47233 0
M  V30 12984 H 1258.06 3.78033 0.878233 0
M  V30 12985 H 1256.16 2.35309 2.88895 0
M  V30 12986 H 1256.27 4.16421 2.36918 0
M  V30 12987 H 1254.64 2.16434 1.3427 0
M  V30 12988 H 1255.42 3.42429 0.244454 0
M  V30 12989 N 1257.86 -0.571685 1.46866 0
M  V30 12990 C 1258.81 -1.67992 1.58263 0
M  V30 12991 C 1259.78 -1.60535 0.426345 0
M  V30 12992 O 1260.97 -1.79584 0.644534 0
M  V30 12993 C 1258.11 -3.06327 1.58927 0
M  V30 12994 C 1257.22 -3.24328 2.85369 0
M  V30 12995 C 1256.35 -4.52976 2.77464 0
M  V30 12996 C 1255.39 -4.64359 3.98795 0
M  V30 12997 N 1254.53 -5.84345 3.89211 0
M  V30 12998 H 1259.37 -1.57589 2.52922 0
M  V30 12999 H 1256.91 -0.767883 1.25467 0
M  V30 13000 H 1258.86 -3.86411 1.57296 0
M  V30 13001 H 1257.49 -3.15601 0.677912 0
M  V30 13002 H 1256.55 -2.37774 2.96931 0
M  V30 13003 H 1257.86 -3.28605 3.7526 0
M  V30 13004 H 1257.01 -5.41303 2.74001 0
M  V30 13005 H 1255.75 -4.51155 1.85231 0
M  V30 13006 H 1254.76 -3.74448 4.02578 0
M  V30 13007 H 1255.98 -4.6795 4.92137 0
M  V30 13008 H 1253.93 -5.835 2.99772 0
M  V30 13009 H 1253.84 -5.89938 4.72768 0
M  V30 13010 H 1255.11 -6.75072 3.89741 0
M  V30 13011 N 1259.34 -1.34755 -0.817236 0
M  V30 13012 C 1260.27 -1.22648 -1.93624 0
M  V30 13013 C 1261.29 -0.152226 -1.62087 0
M  V30 13014 O 1262.48 -0.404578 -1.73855 0
M  V30 13015 C 1259.58 -0.863519 -3.27714 0
M  V30 13016 C 1258.75 -2.03394 -3.87233 0
M  V30 13017 C 1257.81 -1.64846 -4.99712 0
M  V30 13018 O 1256.83 -2.3658 -5.17705 0
M  V30 13019 N 1258.04 -0.565909 -5.77735 0
M  V30 13020 H 1260.8 -2.19051 -2.0454 0
M  V30 13021 H 1258.36 -1.27785 -0.994113 0
M  V30 13022 H 1260.35 -0.58733 -4.00415 0
M  V30 13023 H 1258.92 0.0104987 -3.12598 0
M  V30 13024 H 1258.14 -2.47454 -3.06856 0
M  V30 13025 H 1259.43 -2.81655 -4.23731 0
M  V30 13026 H 1258.83 0.030313 -5.65692 0
M  V30 13027 H 1257.39 -0.349467 -6.50862 0
M  V30 13028 N 1260.82 1.03812 -1.18578 0
M  V30 13029 C 1261.73 2.15371 -0.930182 0
M  V30 13030 C 1262.75 1.73673 0.106599 0
M  V30 13031 O 1263.92 2.01257 -0.0759054 0
M  V30 13032 C 1260.99 3.43606 -0.462151 0
M  V30 13033 C 1260.05 3.99671 -1.5672 0
M  V30 13034 C 1259.28 5.21785 -1.12141 0
M  V30 13035 O 1259.5 5.70397 0.0188357 0
M  V30 13036 O 1258.44 5.70449 -1.9202 0
M  V30 13037 H 1262.26 2.39791 -1.86371 0
M  V30 13038 H 1259.85 1.13814 -0.967819 0
M  V30 13039 H 1261.73 4.2088 -0.20934 0
M  V30 13040 H 1260.41 3.20654 0.443052 0
M  V30 13041 H 1259.31 3.23774 -1.87406 0
M  V30 13042 H 1260.65 4.2697 -2.44862 0
M  V30 13043 N 1262.3 0.988223 1.22768 0
M  V30 13044 C 1263.54 0.661461 1.91392 0
M  V30 13045 C 1263.87 -0.805942 1.77016 0
M  V30 13046 O 1263.13 -1.5978 1.12999 0
M  V30 13047 C 1263.43 1.00744 3.42907 0
M  V30 13048 C 1263.09 2.46634 3.77469 0
M  V30 13049 C 1261.75 2.86503 3.86613 0
M  V30 13050 C 1264.11 3.41217 3.9398 0
M  V30 13051 C 1261.43 4.19954 4.09702 0
M  V30 13052 C 1263.79 4.74321 4.18572 0
M  V30 13053 C 1262.45 5.13938 4.25939 0
M  V30 13054 H 1261.72 0.242046 0.700353 0
M  V30 13055 H 1264.37 1.24354 1.45631 0
M  V30 13056 H 1262.67 0.34338 3.90292 0
M  V30 13057 H 1264.37 0.732714 3.94249 0
M  V30 13058 H 1260.96 2.14729 3.70931 0
M  V30 13059 H 1265.14 3.11589 3.86298 0
M  V30 13060 H 1260.4 4.50243 4.13631 0
M  V30 13061 H 1264.57 5.47561 4.30291 0
M  V30 13062 H 1262.2 6.17364 4.43583 0
M  V30 13063 N 1263.78 -1.38018 0.760839 0
M  V30 13064 C 1265.05 -1.94054 0.245437 0
M  V30 13065 C 1265.43 -1.6955 -1.25761 0
M  V30 13066 O 1264.78 -1.03812 -2.03557 0
M  V30 13067 C 1264.99 -3.43681 0.606986 0
M  V30 13068 C 1266.34 -4.20748 0.570673 0
M  V30 13069 O 1267.36 -3.51995 0.545715 0
M  V30 13070 O 1266.22 -5.43327 0.588043 0
M  V30 13071 H 1263.32 -0.825264 0.0535607 0
M  V30 13072 H 1265.86 -1.47369 0.841453 0
M  V30 13073 H 1264.63 -3.55054 1.64476 0
M  V30 13074 H 1264.26 -3.97597 -0.0166576 0
M  V30 13075 N 1265.25 -0.510493 -1.49103 0
M  V30 13076 C 1266.5 0.030689 -2.02777 0
M  V30 13077 C 1266.83 1.35765 -1.38858 0
M  V30 13078 O 1266.11 1.87209 -0.527528 0
M  V30 13079 C 1266.39 0.173261 -3.59683 0
M  V30 13080 C 1266.24 -1.17749 -4.34114 0
M  V30 13081 C 1267.56 0.909395 -4.30602 0
M  V30 13082 H 1264.68 0.0096789 -0.736936 0
M  V30 13083 H 1267.32 -0.663746 -1.78029 0
M  V30 13084 H 1265.47 0.764721 -3.80899 0
M  V30 13085 H 1267.15 -1.80856 -4.24369 0
M  V30 13086 H 1265.39 -1.76438 -3.96298 0
M  V30 13087 H 1266.06 -1.03094 -5.42287 0
M  V30 13088 H 1268.54 0.407677 -4.14098 0
M  V30 13089 H 1267.41 0.978012 -5.40117 0
M  V30 13090 H 1267.67 1.9553 -3.96511 0
M  V30 13091 N 1266.73 1.55688 -0.24474 0
M  V30 13092 C 1267.98 1.98891 0.380603 0
M  V30 13093 C 1268.31 1.13283 1.58105 0
M  V30 13094 O 1267.56 0.183141 1.94841 0
M  V30 13095 C 1267.86 3.47487 0.835923 0
M  V30 13096 C 1267.53 4.5017 -0.256528 0
M  V30 13097 C 1266.19 4.7797 -0.556573 0
M  V30 13098 C 1268.54 5.1163 -0.994174 0
M  V30 13099 C 1265.87 5.64508 -1.59838 0
M  V30 13100 C 1268.22 5.99297 -2.02548 0
M  V30 13101 C 1266.88 6.25432 -2.3322 0
M  V30 13102 H 1266.15 0.727794 0.139273 0
M  V30 13103 H 1268.8 1.88235 -0.352113 0
M  V30 13104 H 1267.11 3.55464 1.64781 0
M  V30 13105 H 1268.8 3.78301 1.33001 0
M  V30 13106 H 1265.39 4.28598 -0.0125284 0
M  V30 13107 H 1269.58 4.90202 -0.775617 0
M  V30 13108 H 1264.83 5.83012 -1.84138 0
M  V30 13109 H 1269.01 6.45964 -2.60198 0
M  V30 13110 H 1266.63 6.92282 -3.14085 0
M  V30 13111 N 1268.21 -0.0283989 1.57574 0
M  V30 13112 C 1269.46 -0.717656 1.88929 0
M  V30 13113 C 1269.78 -1.7586 0.842517 0
M  V30 13114 O 1269.05 -1.95509 -0.123774 0
M  V30 13115 H 1267.63 -0.268051 0.69725 0
M  V30 13116 H 1270.29 0.00580691 1.94899 0
M  V30 13117 H 1269.39 -1.2068 2.87824 0
M  V30 13118 N 1269.69 -1.54705 -0.300681 0
M  V30 13119 C 1270.65 -1.84934 -1.35395 0
M  V30 13120 C 1271.65 -0.72226 -1.43666 0
M  V30 13121 O 1272.84 -0.990543 -1.43296 0
M  V30 13122 C 1269.97 -2.02991 -2.73875 0
M  V30 13123 H 1271.17 -2.79063 -1.09835 0
M  V30 13124 H 1268.72 -1.46772 -0.537365 0
M  V30 13125 H 1269.45 -1.11151 -3.04657 0
M  V30 13126 H 1269.24 -2.85027 -2.69262 0
M  V30 13127 H 1270.73 -2.27747 -3.5003 0
M  V30 13128 N 1271.17 0.563888 -1.47167 0
M  V30 13129 C 1272.41 1.32331 -1.53676 0
M  V30 13130 C 1272.75 1.93213 -0.195593 0
M  V30 13131 O 1272.02 1.77508 0.795068 0
M  V30 13132 C 1272.3 2.43848 -2.64972 0
M  V30 13133 C 1272.16 1.8788 -4.08682 0
M  V30 13134 C 1273.48 3.45809 -2.72221 0
M  V30 13135 H 1270.59 0.479791 -0.559437 0
M  V30 13136 H 1273.24 0.631669 -1.79192 0
M  V30 13137 H 1271.39 3.02846 -2.43345 0
M  V30 13138 H 1273.06 1.33195 -4.41652 0
M  V30 13139 H 1271.3 1.18593 -4.17275 0
M  V30 13140 H 1271.97 2.68465 -4.82318 0
M  V30 13141 H 1274.45 2.9672 -2.91713 0
M  V30 13142 H 1273.32 4.21272 -3.51882 0
M  V30 13143 H 1273.59 4.04236 -1.79014 0
M  V30 13144 N 1272.64 1.35187 0.810078 0
M  V30 13145 C 1274.06 1.25329 1.38381 0
M  V30 13146 C 1274.41 -0.115799 1.95858 0
M  V30 13147 O 1273.53 -1.01663 1.91033 0
M  V30 13148 C 1274.13 2.2693 2.51572 0
M  V30 13149 C 1272.69 2.20824 3.04818 0
M  V30 13150 C 1271.83 2.1283 1.7776 0
M  V30 13151 H 1274.78 1.46366 0.613402 0
M  V30 13152 H 1274.8 1.89375 3.30026 0
M  V30 13153 H 1274.32 3.26563 2.09709 0
M  V30 13154 H 1272.42 1.24589 3.51153 0
M  V30 13155 H 1272.53 3.12637 3.63036 0
M  V30 13156 H 1270.89 1.58752 1.99173 0
M  V30 13157 H 1271.68 3.14318 1.38054 0
M  V30 13158 N 1274.12 -1.03182 1.19127 0
M  V30 13159 C 1275.37 -1.76533 0.992093 0
M  V30 13160 C 1275.7 -1.88549 -0.477429 0
M  V30 13161 O 1274.95 -1.39675 -1.37074 0
M  V30 13162 C 1275.25 -3.19452 1.60267 0
M  V30 13163 C 1274.92 -3.27449 3.09981 0
M  V30 13164 C 1273.58 -3.29338 3.50841 0
M  V30 13165 C 1275.93 -3.26833 4.05992 0
M  V30 13166 C 1273.26 -3.28265 4.86271 0
M  V30 13167 C 1275.61 -3.27299 5.41348 0
M  V30 13168 C 1274.28 -3.27485 5.81644 0
M  V30 13169 H 1273.55 -0.645979 0.363033 0
M  V30 13170 H 1276.19 -1.21127 1.48326 0
M  V30 13171 H 1274.5 -3.77917 1.03372 0
M  V30 13172 H 1276.19 -3.74869 1.42388 0
M  V30 13173 H 1272.78 -3.26704 2.77421 0
M  V30 13174 H 1276.97 -3.24556 3.75469 0
M  V30 13175 H 1272.22 -3.26731 5.16775 0
M  V30 13176 H 1276.4 -3.25773 6.15504 0
M  V30 13177 H 1274.03 -3.26407 6.86558 0
M  V30 13178 N 1275.6 -0.99472 -1.22242 0
M  V30 13179 C 1276.85 -0.671602 -1.91039 0
M  V30 13180 C 1277.18 0.796543 -1.77441 0
M  V30 13181 O 1276.43 1.59179 -1.13845 0
M  V30 13182 C 1276.73 -1.02561 -3.42368 0
M  V30 13183 C 1276.4 -2.48632 -3.76155 0
M  V30 13184 C 1275.06 -2.88549 -3.85088 0
M  V30 13185 C 1277.41 -3.43302 -3.92165 0
M  V30 13186 C 1274.74 -4.22121 -4.07469 0
M  V30 13187 C 1277.09 -4.76534 -4.1605 0
M  V30 13188 C 1275.75 -5.1619 -4.23207 0
M  V30 13189 H 1275.02 -0.245756 -0.69906 0
M  V30 13190 H 1277.67 -1.25125 -1.44969 0
M  V30 13191 H 1275.98 -0.364073 -3.90105 0
M  V30 13192 H 1277.67 -0.753612 -3.93855 0
M  V30 13193 H 1274.26 -2.16693 -3.69787 0
M  V30 13194 H 1278.45 -3.13633 -3.8464 0
M  V30 13195 H 1273.7 -4.52431 -4.11238 0
M  V30 13196 H 1277.88 -5.49835 -4.27381 0
M  V30 13197 H 1275.5 -6.19708 -4.40303 0
M  V30 13198 N 1277.08 1.37613 -0.768148 0
M  V30 13199 C 1278.04 2.28653 -0.158283 0
M  V30 13200 C 1279.04 1.47862 0.631936 0
M  V30 13201 O 1280.23 1.68124 0.456055 0
M  V30 13202 C 1277.36 3.31776 0.783435 0
M  V30 13203 H 1278.56 2.84094 -0.960772 0
M  V30 13204 H 1276.11 1.46818 -0.536116 0
M  V30 13205 H 1276.84 2.81452 1.61106 0
M  V30 13206 H 1276.63 3.91488 0.219016 0
M  V30 13207 H 1278.12 3.99816 1.20568 0
M  V30 13208 N 1278.56 0.518393 1.4883 0
M  V30 13209 C 1279.8 -0.0199348 2.0279 0
M  V30 13210 C 1280.14 -1.35026 1.39576 0
M  V30 13211 O 1279.41 -1.86927 0.537449 0
M  V30 13212 C 1279.69 -0.154184 3.5977 0
M  V30 13213 C 1279.55 1.2005 4.33484 0
M  V30 13214 C 1280.87 -0.886547 4.31078 0
M  V30 13215 H 1277.98 -0.00577061 0.736977 0
M  V30 13216 H 1280.63 0.673178 1.77675 0
M  V30 13217 H 1278.78 -0.74451 3.81299 0
M  V30 13218 H 1280.45 1.83104 4.23404 0
M  V30 13219 H 1278.69 1.78537 3.95357 0
M  V30 13220 H 1279.36 1.05968 5.41733 0
M  V30 13221 H 1281.84 -0.385711 4.14308 0
M  V30 13222 H 1280.71 -0.949355 5.40628 0
M  V30 13223 H 1280.98 -1.93424 3.97542 0
M  V30 13224 N 1280.03 -1.55556 0.252993 0
M  V30 13225 C 1281.45 -1.59276 -0.101714 0
M  V30 13226 C 1281.65 -1.27018 -1.56424 0
M  V30 13227 O 1280.71 -1.02042 -2.30963 0
M  V30 13228 C 1282.02 -2.99634 0.252969 0
M  V30 13229 C 1283.57 -3.12375 0.197767 0
M  V30 13230 C 1284.04 -4.54963 0.52657 0
M  V30 13231 N 1285.53 -4.60734 0.477296 0
M  V30 13232 C 1286.27 -5.69052 0.704793 0
M  V30 13233 N 1285.76 -6.85607 0.99574 0
M  V30 13234 N 1287.56 -5.58501 0.635086 0
M  V30 13235 H 1279.71 -1.74793 1.2067 0
M  V30 13236 H 1281.97 -0.813971 0.485958 0
M  V30 13237 H 1281.68 -3.27998 1.26926 0
M  V30 13238 H 1281.55 -3.74888 -0.416984 0
M  V30 13239 H 1283.94 -2.83788 -0.809209 0
M  V30 13240 H 1284.02 -2.39382 0.901659 0
M  V30 13241 H 1283.66 -4.84271 1.53113 0
M  V30 13242 H 1283.59 -5.26224 -0.198869 0
M  V30 13243 H 1286.08 -3.76995 0.261398 0
M  V30 13244 H 1286.4 -7.64096 1.15659 0
M  V30 13245 H 1284.74 -6.87276 1.03328 0
M  V30 13246 H 1287.93 -4.6632 0.407789 0
M  V30 13247 H 1288.11 -6.42845 0.815777 0
M  V30 13248 N 1281.51 0.0200419 -1.57587 0
M  V30 13249 C 1282.48 1.00255 -2.06111 0
M  V30 13250 C 1283.48 1.28488 -0.966829 0
M  V30 13251 O 1284.67 1.2334 -1.23015 0
M  V30 13252 C 1281.8 2.33296 -2.48567 0
M  V30 13253 H 1282.99 0.583216 -2.94174 0
M  V30 13254 H 1280.54 0.267077 -1.54001 0
M  V30 13255 H 1281.28 2.79959 -1.63687 0
M  V30 13256 H 1281.06 2.14131 -3.28467 0
M  V30 13257 H 1282.55 3.03817 -2.86505 0
M  V30 13258 N 1282.99 1.54862 0.292472 0
M  V30 13259 C 1283.92 1.82786 1.38282 0
M  V30 13260 C 1284.94 0.711253 1.46441 0
M  V30 13261 O 1286.12 0.988851 1.48607 0
M  V30 13262 C 1283.22 1.95845 2.76582 0
M  V30 13263 C 1282.4 3.2633 2.91252 0
M  V30 13264 C 1281.46 3.29697 4.10105 0
M  V30 13265 O 1280.48 4.03184 4.01785 0
M  V30 13266 N 1281.68 2.557 5.21151 0
M  V30 13267 H 1284.45 2.76891 1.1468 0
M  V30 13268 H 1282.01 1.54541 0.482561 0
M  V30 13269 H 1284 1.95491 3.54352 0
M  V30 13270 H 1282.57 1.08696 2.93094 0
M  V30 13271 H 1281.79 3.39387 2.00525 0
M  V30 13272 H 1283.08 4.12421 2.9797 0
M  V30 13273 H 1282.48 1.95642 5.30792 0
M  V30 13274 H 1281.04 2.61089 5.97223 0
M  V30 13275 N 1284.47 -0.556076 1.47464 0
M  V30 13276 C 1285.4 -1.67829 1.56096 0
M  V30 13277 C 1286.41 -1.56541 0.447077 0
M  V30 13278 O 1287.6 -1.63478 0.716739 0
M  V30 13279 C 1284.7 -3.06303 1.45023 0
M  V30 13280 C 1283.88 -3.43334 2.70999 0
M  V30 13281 C 1282.93 -4.60976 2.53746 0
M  V30 13282 O 1281.96 -4.65501 3.27564 0
M  V30 13283 N 1283.16 -5.5754 1.61647 0
M  V30 13284 H 1285.93 -1.6087 2.52865 0
M  V30 13285 H 1283.49 -0.74274 1.43857 0
M  V30 13286 H 1285.48 -3.82838 1.31214 0
M  V30 13287 H 1284.05 -3.07483 0.563311 0
M  V30 13288 H 1283.27 -2.56236 2.99561 0
M  V30 13289 H 1284.56 -3.64851 3.54629 0
M  V30 13290 H 1283.96 -5.56642 1.00827 0
M  V30 13291 H 1282.51 -6.33397 1.53789 0
M  V30 13292 N 1285.95 -1.35615 -0.802897 0
M  V30 13293 C 1287.36 -1.26062 -1.37715 0
M  V30 13294 C 1287.71 0.105411 -1.95917 0
M  V30 13295 O 1286.83 1.00648 -1.91569 0
M  V30 13296 C 1287.43 -2.28261 -2.50365 0
M  V30 13297 C 1285.99 -2.22437 -3.03642 0
M  V30 13298 C 1285.14 -2.1377 -1.76629 0
M  V30 13299 H 1288.09 -1.46689 -0.605631 0
M  V30 13300 H 1288.11 -1.91122 -3.29017 0
M  V30 13301 H 1287.62 -3.27671 -2.07975 0
M  V30 13302 H 1285.72 -1.2645 -3.50487 0
M  V30 13303 H 1285.83 -3.14558 -3.61373 0
M  V30 13304 H 1284.2 -1.59806 -1.98328 0
M  V30 13305 H 1284.98 -3.15046 -1.36385 0
M  V30 13306 N 1287.43 1.02549 -1.19673 0
M  V30 13307 C 1288.36 2.10991 -0.8953 0
M  V30 13308 C 1289.37 1.62405 0.113373 0
M  V30 13309 O 1290.56 1.7812 -0.116485 0
M  V30 13310 C 1287.66 3.37394 -0.319124 0
M  V30 13311 C 1286.83 4.15154 -1.37718 0
M  V30 13312 C 1285.89 5.19867 -0.81393 0
M  V30 13313 O 1284.92 5.49285 -1.49246 0
M  V30 13314 N 1286.12 5.79248 0.381089 0
M  V30 13315 H 1288.88 2.37438 -1.82875 0
M  V30 13316 H 1286.45 1.18867 -1.09919 0
M  V30 13317 H 1288.44 4.04637 0.0716106 0
M  V30 13318 H 1287.01 3.08267 0.518681 0
M  V30 13319 H 1286.23 3.4301 -1.94262 0
M  V30 13320 H 1287.52 4.63892 -2.09003 0
M  V30 13321 H 1286.91 5.5767 0.949791 0
M  V30 13322 H 1285.47 6.47882 0.713563 0
M  V30 13323 N 1288.9 1.00119 1.21713 0
M  V30 13324 C 1289.84 0.516633 2.23301 0
M  V30 13325 C 1290.85 -0.392732 1.57992 0
M  V30 13326 O 1292.04 -0.19354 1.77448 0
M  V30 13327 C 1289.14 -0.269612 3.37826 0
M  V30 13328 C 1288.31 0.637898 4.32723 0
M  V30 13329 C 1287.37 -0.0980745 5.26109 0
M  V30 13330 O 1286.4 0.519302 5.66826 0
M  V30 13331 N 1287.6 -1.37783 5.63911 0
M  V30 13332 H 1290.36 1.39022 2.65505 0
M  V30 13333 H 1287.92 0.87688 1.36097 0
M  V30 13334 H 1289.92 -0.770826 3.97291 0
M  V30 13335 H 1288.49 -1.04436 2.94638 0
M  V30 13336 H 1287.71 1.31966 3.71455 0
M  V30 13337 H 1288.99 1.25564 4.93063 0
M  V30 13338 H 1288.39 -1.90061 5.32817 0
M  V30 13339 H 1286.95 -1.82407 6.25756 0
M  V30 13340 N 1290.38 -1.37203 0.775435 0
M  V30 13341 C 1291.29 -2.34019 0.165062 0
M  V30 13342 C 1292.31 -1.6036 -0.675316 0
M  V30 13343 O 1293.48 -1.9243 -0.594375 0
M  V30 13344 C 1290.55 -3.3954 -0.700957 0
M  V30 13345 C 1289.61 -4.29015 0.156304 0
M  V30 13346 C 1288.84 -5.29497 -0.668476 0
M  V30 13347 O 1289.07 -5.37636 -1.90535 0
M  V30 13348 O 1288 -6.01852 -0.0757351 0
M  V30 13349 H 1291.83 -2.87955 0.965184 0
M  V30 13350 H 1289.41 -1.39429 0.536654 0
M  V30 13351 H 1291.29 -4.04094 -1.19524 0
M  V30 13352 H 1289.97 -2.87926 -1.4792 0
M  V30 13353 H 1288.87 -3.67549 0.69703 0
M  V30 13354 H 1290.21 -4.83944 0.897725 0
M  V30 13355 N 1291.86 -0.526279 -1.48553 0
M  V30 13356 C 1292.81 0.238513 -2.29564 0
M  V30 13357 C 1293.78 0.937222 -1.37133 0
M  V30 13358 O 1294.96 0.93897 -1.66096 0
M  V30 13359 C 1292.1 1.28173 -3.20415 0
M  V30 13360 C 1291.21 0.592244 -4.27921 0
M  V30 13361 C 1290.35 1.61808 -5.05956 0
M  V30 13362 C 1289.39 0.911846 -6.0527 0
M  V30 13363 N 1288.53 1.88305 -6.76377 0
M  V30 13364 H 1293.37 -0.458502 -2.94452 0
M  V30 13365 H 1290.9 -0.237948 -1.45163 0
M  V30 13366 H 1292.86 1.89883 -3.71484 0
M  V30 13367 H 1291.49 1.94718 -2.57458 0
M  V30 13368 H 1290.54 -0.138714 -3.80147 0
M  V30 13369 H 1291.85 0.0375427 -4.98786 0
M  V30 13370 H 1291.01 2.30956 -5.61021 0
M  V30 13371 H 1289.75 2.20667 -4.34922 0
M  V30 13372 H 1288.75 0.206273 -5.49413 0
M  V30 13373 H 1289.98 0.329415 -6.78301 0
M  V30 13374 H 1287.92 2.46079 -6.08096 0
M  V30 13375 H 1287.84 1.37969 -7.43304 0
M  V30 13376 H 1289.11 2.56663 -7.36033 0
M  V30 13377 N 1293.34 1.5542 -0.261239 0
M  V30 13378 C 1294.29 2.23382 0.648324 0
M  V30 13379 C 1295.28 1.22615 1.16884 0
M  V30 13380 O 1296.49 1.40587 1.12407 0
M  V30 13381 H 1292.86 0.716733 0.227592 0
M  V30 13382 H 1294.83 2.98354 0.0521289 0
M  V30 13383 C 1293.58 2.9579 1.82766 0
M  V30 13384 H 1292.9 3.73109 1.4363 0
M  V30 13385 H 1294.34 3.46686 2.441 0
M  V30 13386 C 1292.8 2.00472 2.70763 0
M  V30 13387 O 1293.33 1.54698 3.70717 0
M  V30 13388 N 1291.54 1.67267 2.37635 0
M  V30 13389 H 1291.09 2.04685 1.56402 0
M  V30 13390 H 1291.04 1.03759 2.96785 0
M  V30 13391 N 1294.82 -0.0116844 1.57596 0
M  V30 13392 C 1295.73 -1.02342 2.111 0
M  V30 13393 C 1296.74 -1.38478 1.05355 0
M  V30 13394 O 1297.92 -1.47447 1.37191 0
M  V30 13395 C 1294.98 -2.30016 2.5941 0
M  V30 13396 C 1294.04 -2.003 3.79708 0
M  V30 13397 C 1293.28 -3.21888 4.25704 0
M  V30 13398 O 1293.5 -4.33171 3.71106 0
M  V30 13399 O 1292.43 -3.0657 5.17975 0
M  V30 13400 H 1296.26 -0.598637 2.97742 0
M  V30 13401 H 1293.84 -0.229779 1.47622 0
M  V30 13402 H 1295.73 -3.05044 2.90733 0
M  V30 13403 H 1294.4 -2.71755 1.75871 0
M  V30 13404 H 1293.31 -1.22785 3.53376 0
M  V30 13405 H 1294.64 -1.63406 4.64284 0
M  V30 13406 N 1296.29 -1.55015 -0.284256 0
M  V30 13407 C 1297.24 -1.87122 -1.35107 0
M  V30 13408 C 1298.21 -0.721638 -1.49605 0
M  V30 13409 O 1299.4 -0.971855 -1.64194 0
M  V30 13410 C 1296.54 -2.1388 -2.70831 0
M  V30 13411 C 1295.65 -3.41447 -2.64647 0
M  V30 13412 C 1294.78 -3.57961 -3.92476 0
M  V30 13413 C 1293.82 -4.79261 -3.80757 0
M  V30 13414 N 1292.96 -4.92492 -5.00395 0
M  V30 13415 H 1297.8 -2.78117 -1.07027 0
M  V30 13416 H 1295.34 -1.37704 -0.517311 0
M  V30 13417 H 1297.29 -2.27391 -3.49784 0
M  V30 13418 H 1295.92 -1.26132 -2.97137 0
M  V30 13419 H 1294.98 -3.36467 -1.77466 0
M  V30 13420 H 1296.29 -4.3053 -2.51884 0
M  V30 13421 H 1295.44 -3.71229 -4.79868 0
M  V30 13422 H 1294.18 -2.67042 -4.08093 0
M  V30 13423 H 1293.19 -4.66008 -2.91747 0
M  V30 13424 H 1294.41 -5.71604 -3.66669 0
M  V30 13425 H 1292.36 -4.04501 -5.16445 0
M  V30 13426 H 1292.27 -5.75603 -4.9012 0
M  V30 13427 H 1293.54 -5.10134 -5.89392 0
M  V30 13428 N 1297.77 0.548248 -1.47757 0
M  V30 13429 C 1298.72 1.67553 -1.61335 0
M  V30 13430 C 1299.71 1.62447 -0.480335 0
M  V30 13431 O 1300.92 1.67525 -0.658445 0
M  V30 13432 H 1297.29 0.55457 -0.507894 0
M  V30 13433 H 1299.27 1.53239 -2.56047 0
M  V30 13434 C 1298.01 3.05883 -1.6532 0
M  V30 13435 H 1297.34 3.10497 -2.51856 0
M  V30 13436 H 1298.78 3.84424 -1.78868 0
M  V30 13437 C 1297.24 3.34656 -0.388238 0
M  V30 13438 O 1297.77 3.9849 0.506816 0
M  V30 13439 N 1295.97 2.89384 -0.265514 0
M  V30 13440 H 1295.52 2.37615 -0.994819 0
M  V30 13441 H 1295.48 3.09006 0.579889 0
M  V30 13442 N 1299.25 1.36039 0.795694 0
M  V30 13443 C 1300.18 1.32528 1.92246 0
M  V30 13444 C 1301.16 0.197805 1.68946 0
M  V30 13445 O 1302.35 0.394474 1.90151 0
M  V30 13446 C 1299.48 1.10748 3.29169 0
M  V30 13447 C 1298.43 2.20253 3.66978 0
M  V30 13448 C 1297.76 1.83624 5.02181 0
M  V30 13449 C 1299.06 3.62296 3.76216 0
M  V30 13450 H 1300.75 2.2681 1.95442 0
M  V30 13451 H 1298.3 1.09181 0.938908 0
M  V30 13452 H 1300.25 1.06929 4.07608 0
M  V30 13453 H 1298.97 0.129141 3.26345 0
M  V30 13454 H 1297.63 2.23187 2.90832 0
M  V30 13455 H 1297.28 0.843804 4.95872 0
M  V30 13456 H 1296.98 2.56935 5.28449 0
M  V30 13457 H 1298.5 1.81349 5.83048 0
M  V30 13458 H 1299.92 3.61623 4.44861 0
M  V30 13459 H 1298.31 4.34459 4.13963 0
M  V30 13460 H 1299.38 3.97657 2.77483 0
M  V30 13461 N 1300.73 -1.01913 1.20215 0
M  V30 13462 C 1302.14 -1.5692 1.01159 0
M  V30 13463 C 1302.49 -1.91368 -0.432746 0
M  V30 13464 O 1301.62 -1.71959 -1.31374 0
M  V30 13465 C 1302.21 -2.85125 1.83001 0
M  V30 13466 C 1300.77 -3.36669 1.68318 0
M  V30 13467 C 1299.92 -2.10003 1.81091 0
M  V30 13468 H 1302.87 -0.843246 1.34443 0
M  V30 13469 H 1302.89 -3.56428 1.33188 0
M  V30 13470 H 1302.4 -2.60021 2.88116 0
M  V30 13471 H 1300.5 -3.66739 0.658292 0
M  V30 13472 H 1300.61 -4.09042 2.49442 0
M  V30 13473 H 1298.98 -2.22337 1.24252 0
M  V30 13474 H 1299.76 -1.87329 2.87685 0
M  V30 13475 N 1302.21 -1.00763 -1.2118 0
M  V30 13476 C 1303.14 -0.528468 -2.23024 0
M  V30 13477 C 1304.15 0.384348 -1.58198 0
M  V30 13478 O 1305.34 0.184127 -1.77548 0
M  V30 13479 C 1302.44 0.251693 -3.37964 0
M  V30 13480 C 1301.61 -0.660838 -4.32379 0
M  V30 13481 C 1300.67 0.0701723 -5.26153 0
M  V30 13482 O 1299.7 -0.549355 -5.66543 0
M  V30 13483 N 1300.9 1.34791 -5.64634 0
M  V30 13484 H 1303.67 -1.40428 -2.64764 0
M  V30 13485 H 1301.23 -0.884085 -1.3563 0
M  V30 13486 H 1303.22 0.749746 -3.97694 0
M  V30 13487 H 1301.79 1.02872 -2.95188 0
M  V30 13488 H 1301.01 -1.33934 -3.7075 0
M  V30 13489 H 1302.3 -1.28177 -4.9239 0
M  V30 13490 H 1301.69 1.87232 -5.33817 0
M  V30 13491 H 1300.25 1.79086 -6.26715 0
M  V30 13492 N 1303.68 1.3679 -0.7827 0
M  V30 13493 C 1304.63 2.27508 -0.149734 0
M  V30 13494 C 1305.62 1.46634 0.662368 0
M  V30 13495 O 1306.81 1.6908 0.523544 0
M  V30 13496 C 1303.94 3.35666 0.719939 0
M  V30 13497 C 1303.03 4.23981 -0.100588 0
M  V30 13498 N 1303.42 4.92513 -1.15173 0
M  V30 13499 C 1301.71 4.45834 0.121653 0
M  V30 13500 C 1302.42 5.57788 -1.65067 0
M  V30 13501 N 1301.39 5.35038 -0.96101 0
M  V30 13502 H 1305.19 2.77973 -0.954365 0
M  V30 13503 H 1302.71 1.50037 -0.62151 0
M  V30 13504 H 1304.7 3.99578 1.18926 0
M  V30 13505 H 1303.36 2.86756 1.52319 0
M  V30 13506 H 1304.38 4.94658 -1.53406 0
M  V30 13507 H 1301.05 4.07773 0.895945 0
M  V30 13508 H 1302.44 6.22534 -2.52787 0
M  V30 13509 N 1305.16 0.53415 1.48272 0
M  V30 13510 C 1306.58 0.192291 1.58437 0
M  V30 13511 C 1306.78 -1.3046 1.53566 0
M  V30 13512 O 1305.83 -2.08316 1.42692 0
M  V30 13513 C 1307.15 0.798515 2.89904 0
M  V30 13514 C 1308.7 0.76763 3.03441 0
M  V30 13515 C 1309.17 1.3525 4.37574 0
M  V30 13516 N 1310.66 1.31466 4.44152 0
M  V30 13517 C 1311.4 1.73706 5.46456 0
M  V30 13518 N 1310.89 2.23695 6.55692 0
M  V30 13519 N 1312.69 1.64918 5.37363 0
M  V30 13520 H 1304.84 1.50696 1.49681 0
M  V30 13521 H 1307.1 0.627073 0.710973 0
M  V30 13522 H 1306.81 1.8496 2.99136 0
M  V30 13523 H 1306.68 0.278033 3.76174 0
M  V30 13524 H 1309.07 -0.274704 2.93819 0
M  V30 13525 H 1309.15 1.32562 2.18771 0
M  V30 13526 H 1308.79 2.39379 4.47951 0
M  V30 13527 H 1308.72 0.770153 5.20938 0
M  V30 13528 H 1311.21 0.948761 3.65796 0
M  V30 13529 H 1311.53 2.5391 7.29897 0
M  V30 13530 H 1309.87 2.27691 6.56644 0
M  V30 13531 H 1313.06 1.25658 4.50919 0
M  V30 13532 H 1313.23 1.98157 6.16958 0
M  V30 13533 N 1306.64 -1.55279 0.269478 0
M  V30 13534 C 1307.89 -1.99471 -0.348913 0
M  V30 13535 C 1308.22 -1.15784 -1.56283 0
M  V30 13536 O 1307.47 -0.214115 -1.94525 0
M  V30 13537 C 1307.77 -3.48773 -0.780535 0
M  V30 13538 C 1307.44 -4.49705 0.328113 0
M  V30 13539 C 1306.1 -4.77024 0.632544 0
M  V30 13540 C 1308.45 -5.09984 1.07544 0
M  V30 13541 C 1305.78 -5.61893 1.68798 0
M  V30 13542 C 1308.13 -5.95999 2.12057 0
M  V30 13543 C 1306.79 -6.21642 2.4314 0
M  V30 13544 H 1306.06 -0.729918 -0.127676 0
M  V30 13545 H 1308.71 -1.87651 0.382015 0
M  V30 13546 H 1307.02 -3.5804 -1.59105 0
M  V30 13547 H 1308.71 -3.80369 -1.26966 0
M  V30 13548 H 1305.3 -4.28524 0.0807131 0
M  V30 13549 H 1309.49 -4.88906 0.853506 0
M  V30 13550 H 1304.74 -5.80009 1.93389 0
M  V30 13551 H 1308.92 -6.41743 2.70442 0
M  V30 13552 H 1306.54 -6.87198 3.25059 0
M  V30 13553 N 1308.12 0.00332656 -1.576 0
M  V30 13554 C 1309.53 0.546581 -1.7852 0
M  V30 13555 C 1309.88 1.74147 -0.903722 0
M  V30 13556 O 1309.01 2.16144 -0.105314 0
M  V30 13557 C 1309.6 0.998344 -3.23757 0
M  V30 13558 C 1308.16 1.48693 -3.45785 0
M  V30 13559 C 1307.31 0.436617 -2.73841 0
M  V30 13560 H 1310.26 -0.222852 -1.57128 0
M  V30 13561 H 1310.28 1.86452 -3.31686 0
M  V30 13562 H 1309.79 0.128479 -3.87887 0
M  V30 13563 H 1307.89 2.3778 -2.86865 0
M  V30 13564 H 1308 1.51668 -4.5446 0
M  V30 13565 H 1306.37 0.897506 -2.38363 0
M  V30 13566 H 1307.15 -0.424225 -3.40669 0
M  V30 13567 N 1309.6 1.55164 0.276031 0
M  V30 13568 C 1310.56 1.87065 1.32436 0
M  V30 13569 C 1311.56 0.745024 1.42499 0
M  V30 13570 O 1312.75 1.01321 1.41702 0
M  V30 13571 C 1309.88 2.07322 2.70611 0
M  V30 13572 H 1311.07 2.80775 1.05382 0
M  V30 13573 H 1308.63 1.47609 0.513947 0
M  V30 13574 H 1309.36 1.15983 3.0285 0
M  V30 13575 H 1309.15 2.89275 2.64693 0
M  V30 13576 H 1310.64 2.33287 3.46362 0
M  V30 13577 N 1311.07 -0.540404 1.48045 0
M  V30 13578 C 1312.04 -1.62813 1.61322 0
M  V30 13579 C 1313.04 -1.53243 0.487161 0
M  V30 13580 O 1314.23 -1.571 0.752684 0
M  V30 13581 C 1311.36 -3.02408 1.5736 0
M  V30 13582 H 1312.55 -1.52385 2.583 0
M  V30 13583 H 1310.11 -0.761654 1.36486 0
M  V30 13584 H 1310.84 -3.18353 0.618195 0
M  V30 13585 H 1310.63 -3.10763 2.39099 0
M  V30 13586 H 1312.12 -3.8151 1.69822 0
M  V30 13587 N 1312.55 -1.36459 -0.788468 0
M  V30 13588 C 1313.8 -1.30483 -1.54333 0
M  V30 13589 C 1314.12 0.115266 -1.94659 0
M  V30 13590 O 1313.39 1.05573 -1.65019 0
M  V30 13591 H 1311.97 -0.480004 -0.572368 0
M  V30 13592 H 1314.63 -1.70765 -0.939428 0
M  V30 13593 H 1313.73 -1.93284 -2.45046 0
M  V30 13594 N 1314.03 1.01274 -1.20754 0
M  V30 13595 C 1314.96 2.11763 -0.983805 0
M  V30 13596 C 1315.94 1.69869 0.0885635 0
M  V30 13597 O 1317.13 1.94075 -0.0697239 0
M  V30 13598 C 1314.26 3.43087 -0.539287 0
M  V30 13599 C 1313.21 3.9874 -1.55534 0
M  V30 13600 C 1312.54 5.25877 -0.967322 0
M  V30 13601 C 1313.84 4.31688 -2.94012 0
M  V30 13602 H 1315.53 2.30737 -1.90789 0
M  V30 13603 H 1313.08 1.10884 -0.918734 0
M  V30 13604 H 1315.03 4.19773 -0.369979 0
M  V30 13605 H 1313.75 3.23883 0.420435 0
M  V30 13606 H 1312.41 3.24166 -1.71207 0
M  V30 13607 H 1312.06 5.03 0.000448307 0
M  V30 13608 H 1311.76 5.64077 -1.64594 0
M  V30 13609 H 1313.28 6.05215 -0.809167 0
M  V30 13610 H 1314.7 4.99246 -2.81827 0
M  V30 13611 H 1313.1 4.81011 -3.58815 0
M  V30 13612 H 1314.17 3.4029 -3.45442 0
M  V30 13613 N 1315.51 1.01404 1.20644 0
M  V30 13614 C 1316.42 0.591693 2.27016 0
M  V30 13615 C 1317.44 -0.36958 1.7003 0
M  V30 13616 O 1318.61 -0.231165 2.00069 0
M  V30 13617 C 1315.68 -0.0659827 3.46637 0
M  V30 13618 C 1314.74 0.940911 4.18862 0
M  V30 13619 C 1313.97 0.314526 5.32772 0
M  V30 13620 O 1314.19 -0.886404 5.63471 0
M  V30 13621 O 1313.13 1.02998 5.93022 0
M  V30 13622 H 1316.95 1.4772 2.65353 0
M  V30 13623 H 1314.54 0.783399 1.27213 0
M  V30 13624 H 1316.42 -0.433412 4.19165 0
M  V30 13625 H 1315.1 -0.925729 3.10181 0
M  V30 13626 H 1314 1.35966 3.48517 0
M  V30 13627 H 1315.34 1.77054 4.59252 0
M  V30 13628 N 1316.99 -1.36373 0.789944 0
M  V30 13629 C 1317.92 -2.2873 0.146642 0
M  V30 13630 C 1318.93 -1.49503 -0.644419 0
M  V30 13631 O 1320.12 -1.71939 -0.479515 0
M  V30 13632 C 1317.22 -3.28945 -0.815369 0
M  V30 13633 C 1316.39 -4.37337 -0.0742515 0
M  V30 13634 C 1315.45 -5.17511 -0.952284 0
M  V30 13635 O 1314.48 -5.67726 -0.409336 0
M  V30 13636 N 1315.68 -5.34001 -2.27648 0
M  V30 13637 H 1318.45 -2.84578 0.939978 0
M  V30 13638 H 1316.01 -1.48545 0.643898 0
M  V30 13639 H 1318 -3.79469 -1.40661 0
M  V30 13640 H 1316.57 -2.73734 -1.50958 0
M  V30 13641 H 1315.79 -3.8797 0.698068 0
M  V30 13642 H 1317.08 -5.06919 0.437148 0
M  V30 13643 H 1316.48 -4.94819 -2.74173 0
M  V30 13644 H 1315.03 -5.87766 -2.81735 0
M  V30 13645 N 1318.47 -0.542005 -1.47987 0
M  V30 13646 C 1319.38 0.217677 -2.33588 0
M  V30 13647 C 1320.39 0.927093 -1.47245 0
M  V30 13648 O 1321.57 0.899378 -1.80203 0
M  V30 13649 C 1318.63 1.24376 -3.23622 0
M  V30 13650 C 1317.69 0.543407 -4.25847 0
M  V30 13651 C 1316.93 1.5206 -5.11579 0
M  V30 13652 O 1317.15 2.75425 -4.99497 0
M  V30 13653 O 1316.08 1.05341 -5.9261 0
M  V30 13654 H 1319.91 -0.484089 -2.99817 0
M  V30 13655 H 1317.49 -0.302783 -1.463 0
M  V30 13656 H 1319.38 1.83644 -3.7928 0
M  V30 13657 H 1318.05 1.92772 -2.6004 0
M  V30 13658 H 1316.96 -0.090074 -3.73992 0
M  V30 13659 H 1318.29 -0.0988264 -4.92101 0
M  V30 13660 N 1319.94 1.55134 -0.277709 0
M  V30 13661 C 1320.85 2.26296 0.618658 0
M  V30 13662 C 1321.87 1.28978 1.16794 0
M  V30 13663 O 1323.05 1.61918 1.19768 0
M  V30 13664 C 1320.11 2.97214 1.78508 0
M  V30 13665 C 1319.17 4.10016 1.27221 0
M  V30 13666 C 1318.4 4.77543 2.38304 0
M  V30 13667 O 1318.63 4.44293 3.57715 0
M  V30 13668 O 1317.56 5.65437 2.06313 0
M  V30 13669 H 1321.39 3.03671 0.0421031 0
M  V30 13670 H 1318.97 1.49332 -0.0450166 0
M  V30 13671 H 1320.85 3.41773 2.46513 0
M  V30 13672 H 1319.53 2.22753 2.34867 0
M  V30 13673 H 1318.44 3.69907 0.558544 0
M  V30 13674 H 1319.77 4.86385 0.754333 0
M  V30 13675 N 1321.42 0.00503138 1.57599 0
M  V30 13676 C 1322.67 -0.678761 1.90785 0
M  V30 13677 C 1323 -1.73499 0.87911 0
M  V30 13678 O 1322.25 -1.95359 -0.115418 0
M  V30 13679 C 1322.55 -1.35485 3.30724 0
M  V30 13680 C 1322.22 -0.431335 4.48832 0
M  V30 13681 C 1320.88 -0.177078 4.80874 0
M  V30 13682 C 1323.23 0.204219 5.208 0
M  V30 13683 C 1320.56 0.720944 5.82254 0
M  V30 13684 C 1322.91 1.09015 6.23136 0
M  V30 13685 C 1321.57 1.35353 6.53633 0
M  V30 13686 H 1320.84 -0.248376 0.698133 0
M  V30 13687 H 1323.49 0.061638 1.91401 0
M  V30 13688 H 1321.8 -2.16942 3.26257 0
M  V30 13689 H 1323.49 -1.89007 3.53663 0
M  V30 13690 H 1320.08 -0.639676 4.238 0
M  V30 13691 H 1324.27 0.0208074 4.96296 0
M  V30 13692 H 1319.52 0.93296 6.0424 0
M  V30 13693 H 1323.7 1.58894 6.78031 0
M  V30 13694 H 1321.32 2.05107 7.32008 0
M  V30 13695 N 1322.9 -1.55308 -0.267798 0
M  V30 13696 C 1324.18 -1.66881 -1.02029 0
M  V30 13697 C 1324.56 -0.538708 -2.04111 0
M  V30 13698 O 1323.9 0.460575 -2.2381 0
M  V30 13699 C 1324.11 -3.06318 -1.67243 0
M  V30 13700 C 1325.46 -3.64237 -2.18212 0
M  V30 13701 O 1326.49 -3.08984 -1.77221 0
M  V30 13702 O 1325.35 -4.61055 -2.93413 0
M  V30 13703 H 1322.44 -0.677967 -0.473593 0
M  V30 13704 H 1324.99 -1.67646 -0.263242 0
M  V30 13705 H 1323.76 -3.80015 -0.932985 0
M  V30 13706 H 1323.38 -3.09475 -2.49622 0
M  V30 13707 N 1324.38 0.532545 -1.4833 0
M  V30 13708 C 1325.62 1.29042 -1.56448 0
M  V30 13709 C 1325.96 1.92754 -0.236532 0
M  V30 13710 O 1325.23 1.79154 0.757237 0
M  V30 13711 C 1325.51 2.38173 -2.70084 0
M  V30 13712 C 1325.37 1.79169 -4.12576 0
M  V30 13713 C 1326.69 3.39957 -2.79495 0
M  V30 13714 H 1323.81 0.467816 -0.569488 0
M  V30 13715 H 1326.45 0.593517 -1.80492 0
M  V30 13716 H 1324.6 2.97616 -2.49714 0
M  V30 13717 H 1326.27 1.23797 -4.44378 0
M  V30 13718 H 1324.51 1.09716 -4.19696 0
M  V30 13719 H 1325.18 2.58174 -4.87904 0
M  V30 13720 H 1327.66 2.90466 -2.97941 0
M  V30 13721 H 1326.54 4.13714 -3.60739 0
M  V30 13722 H 1326.8 4.00347 -1.87548 0
M  V30 13723 N 1325.86 1.36875 0.78122 0
M  V30 13724 C 1327.1 1.31559 1.53943 0
M  V30 13725 C 1327.43 -0.10273 1.94229 0
M  V30 13726 O 1326.69 -1.07386 1.63605 0
M  V30 13727 C 1326.98 2.19173 2.82309 0
M  V30 13728 C 1326.65 3.67595 2.61121 0
M  V30 13729 C 1325.31 4.08047 2.55051 0
M  V30 13730 C 1327.66 4.61665 2.41898 0
M  V30 13731 C 1324.99 5.40697 2.27736 0
M  V30 13732 C 1327.34 5.94542 2.16108 0
M  V30 13733 C 1326.01 6.34109 2.08476 0
M  V30 13734 H 1325.28 0.48141 0.563317 0
M  V30 13735 H 1327.93 1.68999 0.900638 0
M  V30 13736 H 1326.23 1.74696 3.50697 0
M  V30 13737 H 1327.93 2.12379 3.40141 0
M  V30 13738 H 1324.52 3.35509 2.66705 0
M  V30 13739 H 1328.7 4.3128 2.45584 0
M  V30 13740 H 1323.96 5.70325 2.20315 0
M  V30 13741 H 1328.13 6.66994 2.0023 0
M  V30 13742 H 1325.76 7.36823 1.87073 0
M  V30 13743 N 1327.33 -1.00632 1.21289 0
M  V30 13744 C 1328.56 -1.77967 1.05524 0
M  V30 13745 C 1328.98 -1.84621 -0.395023 0
M  V30 13746 O 1328.33 -1.30664 -1.27409 0
M  V30 13747 C 1328.38 -3.21939 1.64432 0
M  V30 13748 O 1328.11 -3.15669 3.03784 0
M  V30 13749 C 1329.61 -4.1578 1.5376 0
M  V30 13750 H 1326.83 -0.559341 0.370646 0
M  V30 13751 H 1329.37 -1.26604 1.60598 0
M  V30 13752 H 1327.53 -3.70415 1.13453 0
M  V30 13753 H 1327.94 -4.06112 3.31924 0
M  V30 13754 H 1329.41 -5.14602 1.99722 0
M  V30 13755 H 1329.89 -4.36438 0.491811 0
M  V30 13756 H 1330.5 -3.73192 2.0398 0
M  V30 13757 N 1328.81 -1.02043 -1.20104 0
M  V30 13758 C 1329.76 -0.593945 -2.23027 0
M  V30 13759 C 1330.73 0.387931 -1.61506 0
M  V30 13760 O 1331.91 0.286504 -1.88637 0
M  V30 13761 C 1329.05 0.0577309 -3.45052 0
M  V30 13762 C 1328.17 -0.969169 -4.20988 0
M  V30 13763 C 1327.3 -0.288143 -5.30418 0
M  V30 13764 C 1326.34 -1.30154 -5.98102 0
M  V30 13765 N 1325.48 -0.646912 -6.99113 0
M  V30 13766 H 1330.32 -1.47623 -2.58866 0
M  V30 13767 H 1327.85 -0.738901 -1.27195 0
M  V30 13768 H 1329.81 0.452726 -4.14736 0
M  V30 13769 H 1328.44 0.90364 -3.09894 0
M  V30 13770 H 1327.49 -1.48229 -3.50332 0
M  V30 13771 H 1328.81 -1.73972 -4.67477 0
M  V30 13772 H 1327.96 0.162149 -6.06483 0
M  V30 13773 H 1326.7 0.514683 -4.84977 0
M  V30 13774 H 1325.7 -1.76218 -5.20795 0
M  V30 13775 H 1326.93 -2.10571 -6.45629 0
M  V30 13776 H 1324.88 0.135976 -6.55859 0
M  V30 13777 H 1324.79 -1.35548 -7.43749 0
M  V30 13778 H 1326.06 -0.220339 -7.79189 0
M  V30 13779 N 1330.29 1.35952 -0.797165 0
M  V30 13780 C 1331.25 2.28266 -0.206748 0
M  V30 13781 C 1332.25 1.49169 0.60043 0
M  V30 13782 O 1333.44 1.69054 0.42029 0
M  V30 13783 C 1330.58 3.33363 0.712884 0
M  V30 13784 H 1331.77 2.81992 -1.02082 0
M  V30 13785 H 1329.32 1.45648 -0.567138 0
M  V30 13786 H 1330.06 2.84806 1.551 0
M  V30 13787 H 1329.84 3.91864 0.135926 0
M  V30 13788 H 1331.33 4.02284 1.1206 0
M  V30 13789 N 1331.77 0.549846 1.47697 0
M  V30 13790 C 1333.18 0.11453 1.86348 0
M  V30 13791 C 1333.53 -1.31368 1.45729 0
M  V30 13792 O 1332.66 -1.98707 0.856989 0
M  V30 13793 C 1333.25 0.201072 3.38203 0
M  V30 13794 C 1331.81 -0.179162 3.75973 0
M  V30 13795 C 1330.96 0.551951 2.71751 0
M  V30 13796 H 1333.91 0.759989 1.39319 0
M  V30 13797 H 1333.93 -0.582216 3.76019 0
M  V30 13798 H 1333.44 1.24065 3.67736 0
M  V30 13799 H 1331.54 -1.22013 3.52056 0
M  V30 13800 H 1331.65 0.174273 4.78783 0
M  V30 13801 H 1330.02 -0.00411819 2.547 0
M  V30 13802 H 1330.8 1.59254 3.04127 0
M  V30 13803 N 1333.25 -1.54984 0.285932 0
M  V30 13804 C 1334.49 -1.9983 -0.327737 0
M  V30 13805 C 1334.82 -1.17435 -1.55046 0
M  V30 13806 O 1334.08 -0.234735 -1.94287 0
M  V30 13807 C 1334.38 -3.49581 -0.7435 0
M  V30 13808 C 1334.04 -4.49331 0.375792 0
M  V30 13809 C 1332.7 -4.76327 0.683103 0
M  V30 13810 C 1335.06 -5.08815 1.12947 0
M  V30 13811 C 1332.38 -5.60071 1.74748 0
M  V30 13812 C 1334.74 -5.93716 2.18366 0
M  V30 13813 C 1333.4 -6.19028 2.4972 0
M  V30 13814 H 1332.67 -0.731231 -0.119928 0
M  V30 13815 H 1335.32 -1.87235 0.401896 0
M  V30 13816 H 1333.62 -3.59708 -1.55298 0
M  V30 13817 H 1335.32 -3.81694 -1.22924 0
M  V30 13818 H 1331.91 -4.28414 0.126159 0
M  V30 13819 H 1336.09 -4.87973 0.905313 0
M  V30 13820 H 1331.35 -5.77925 1.9953 0
M  V30 13821 H 1335.52 -6.38838 2.77233 0
M  V30 13822 H 1333.15 -6.83711 3.3233 0
M  V30 13823 N 1334.72 -0.0133892 -1.57594 0
M  V30 13824 C 1335.95 0.682855 -1.95836 0
M  V30 13825 C 1336.37 1.65763 -0.889049 0
M  V30 13826 O 1335.73 1.80665 0.151585 0
M  V30 13827 C 1335.78 1.37931 -3.33178 0
M  V30 13828 O 1334.88 2.49416 -3.28429 0
M  V30 13829 H 1334.23 0.180629 -0.638959 0
M  V30 13830 H 1336.76 -0.0705644 -2.04478 0
M  V30 13831 H 1336.77 1.73969 -3.69051 0
M  V30 13832 H 1335.44 0.664675 -4.10554 0
M  V30 13833 H 1334.02 2.15606 -3.04251 0
M  V30 13834 N 1336.2 1.55448 0.259558 0
M  V30 13835 C 1337.15 1.89248 1.32113 0
M  V30 13836 C 1338.12 0.745348 1.48438 0
M  V30 13837 O 1339.3 0.997854 1.62627 0
M  V30 13838 C 1336.44 2.18161 2.67394 0
M  V30 13839 C 1335.56 3.45614 2.59182 0
M  V30 13840 C 1334.69 3.6416 3.86731 0
M  V30 13841 C 1333.73 4.85258 3.73084 0
M  V30 13842 N 1332.87 5.00391 4.92497 0
M  V30 13843 H 1337.71 2.79785 1.02589 0
M  V30 13844 H 1335.25 1.38509 0.495338 0
M  V30 13845 H 1337.2 2.32927 3.46122 0
M  V30 13846 H 1335.83 1.30843 2.95093 0
M  V30 13847 H 1334.89 3.39248 1.72091 0
M  V30 13848 H 1336.2 4.34483 2.45002 0
M  V30 13849 H 1335.35 3.78817 4.73902 0
M  V30 13850 H 1334.09 2.73501 4.03793 0
M  V30 13851 H 1333.1 4.70591 2.84296 0
M  V30 13852 H 1334.32 5.77365 3.57528 0
M  V30 13853 H 1332.27 4.12666 5.09944 0
M  V30 13854 H 1332.18 5.83328 4.809 0
M  V30 13855 H 1333.45 5.19446 5.81202 0
M  V30 13856 N 1337.68 -0.524672 1.4861 0
M  V30 13857 C 1338.63 -1.62872 1.63527 0
M  V30 13858 C 1339.6 -1.59097 0.477202 0
M  V30 13859 O 1340.78 -1.77443 0.701341 0
M  V30 13860 C 1337.92 -3.01116 1.68592 0
M  V30 13861 C 1337.04 -3.15085 2.95542 0
M  V30 13862 C 1336.17 -4.4392 2.91734 0
M  V30 13863 C 1335.21 -4.51436 4.13366 0
M  V30 13864 N 1334.35 -5.71667 4.07605 0
M  V30 13865 H 1339.19 -1.49462 2.57808 0
M  V30 13866 H 1336.72 -0.727578 1.27846 0
M  V30 13867 H 1338.68 -3.81212 1.6951 0
M  V30 13868 H 1337.31 -3.13285 0.777975 0
M  V30 13869 H 1336.36 -2.28207 3.04345 0
M  V30 13870 H 1337.68 -3.165 3.85524 0
M  V30 13871 H 1336.83 -5.32312 2.91083 0
M  V30 13872 H 1335.57 -4.45034 1.9949 0
M  V30 13873 H 1334.57 -3.6145 4.14287 0
M  V30 13874 H 1335.8 -4.52057 5.06776 0
M  V30 13875 H 1333.74 -5.73668 3.18184 0
M  V30 13876 H 1333.66 -5.74599 4.91297 0
M  V30 13877 H 1334.93 -6.62331 4.1102 0
M  V30 13878 N 1339.16 -1.37287 -0.77395 0
M  V30 13879 C 1340.4 -1.3257 -1.5347 0
M  V30 13880 C 1340.74 0.090346 -1.9399 0
M  V30 13881 O 1340.01 1.04719 -1.63903 0
M  V30 13882 C 1340.3 -2.26277 -2.80126 0
M  V30 13883 C 1340.15 -3.76651 -2.45874 0
M  V30 13884 C 1341.47 -2.18471 -3.82045 0
M  V30 13885 H 1338.59 -0.48289 -0.556764 0
M  V30 13886 H 1341.23 -1.6797 -0.888039 0
M  V30 13887 H 1339.38 -1.96219 -3.35306 0
M  V30 13888 H 1341.05 -4.17296 -1.96626 0
M  V30 13889 H 1339.29 -3.95327 -1.78602 0
M  V30 13890 H 1339.96 -4.3765 -3.36403 0
M  V30 13891 H 1342.44 -2.44962 -3.36352 0
M  V30 13892 H 1341.32 -2.86183 -4.68392 0
M  V30 13893 H 1341.58 -1.17692 -4.26147 0
M  V30 13894 N 1340.64 0.999871 -1.21821 0
M  V30 13895 C 1341.58 2.10985 -0.979183 0
M  V30 13896 C 1342.58 1.69232 0.0753287 0
M  V30 13897 O 1343.78 1.79837 -0.0765083 0
M  V30 13898 H 1340.16 0.689819 -0.299421 0
M  V30 13899 H 1342.13 2.28322 -1.92124 0
M  V30 13900 C 1340.88 3.43062 -0.56602 0
M  V30 13901 H 1340.2 3.75627 -1.36909 0
M  V30 13902 H 1341.64 4.2173 -0.43813 0
M  V30 13903 C 1340.1 3.29036 0.723647 0
M  V30 13904 O 1340.63 3.60214 1.77788 0
M  V30 13905 N 1338.84 2.82237 0.692126 0
M  V30 13906 H 1338.38 2.57064 -0.166082 0
M  V30 13907 H 1338.34 2.73235 1.55532 0
M  V30 13908 N 1342.11 1.02678 1.19562 0
M  V30 13909 C 1343.36 0.723086 1.89471 0
M  V30 13910 C 1343.69 -0.746269 1.79289 0
M  V30 13911 O 1342.97 -1.54322 1.18384 0
M  V30 13912 C 1343.25 1.17224 3.40486 0
M  V30 13913 C 1343.1 2.70266 3.5955 0
M  V30 13914 C 1344.42 0.751397 4.33638 0
M  V30 13915 H 1341.54 0.264155 0.688034 0
M  V30 13916 H 1344.18 1.27633 1.40747 0
M  V30 13917 H 1342.33 0.701544 3.82113 0
M  V30 13918 H 1344.01 3.25266 3.27108 0
M  V30 13919 H 1342.25 3.10758 3.02675 0
M  V30 13920 H 1342.92 2.96748 4.65451 0
M  V30 13921 H 1345.4 1.15621 3.99714 0
M  V30 13922 H 1344.27 1.09358 5.37896 0
M  V30 13923 H 1344.53 -0.346367 4.40741 0
M  V30 13924 N 1343.59 -1.35528 0.804364 0
M  V30 13925 C 1344.52 -2.28562 0.170893 0
M  V30 13926 C 1345.54 -1.50178 -0.628526 0
M  V30 13927 O 1346.73 -1.72438 -0.461252 0
M  V30 13928 C 1343.83 -3.29792 -0.780434 0
M  V30 13929 C 1343 -4.37391 -0.0278619 0
M  V30 13930 C 1342.06 -5.18492 -0.897341 0
M  V30 13931 O 1341.08 -5.68128 -0.349098 0
M  V30 13932 N 1342.29 -5.36385 -2.21971 0
M  V30 13933 H 1345.05 -2.83565 0.970108 0
M  V30 13934 H 1342.61 -1.47854 0.659617 0
M  V30 13935 H 1344.6 -3.80939 -1.36628 0
M  V30 13936 H 1343.17 -2.7532 -1.48046 0
M  V30 13937 H 1342.39 -3.87208 0.739178 0
M  V30 13938 H 1343.68 -5.06426 0.490889 0
M  V30 13939 H 1343.08 -4.97699 -2.6891 0
M  V30 13940 H 1341.64 -5.90721 -2.75485 0
M  V30 13941 N 1345.07 -0.557671 -1.47404 0
M  V30 13942 C 1345.98 0.19289 -2.33806 0
M  V30 13943 C 1347 0.911424 -1.4822 0
M  V30 13944 O 1348.17 0.880214 -1.81147 0
M  V30 13945 C 1345.24 1.20937 -3.24923 0
M  V30 13946 C 1344.3 0.498209 -4.26399 0
M  V30 13947 C 1343.53 1.46626 -5.13163 0
M  V30 13948 O 1343.76 2.70111 -5.0239 0
M  V30 13949 O 1342.69 0.990497 -5.93694 0
M  V30 13950 H 1346.52 -0.515861 -2.99287 0
M  V30 13951 H 1344.1 -0.318283 -1.4597 0
M  V30 13952 H 1345.98 1.7961 -3.81206 0
M  V30 13953 H 1344.66 1.90003 -2.6207 0
M  V30 13954 H 1343.56 -0.129736 -3.73875 0
M  V30 13955 H 1344.9 -0.151015 -4.91968 0
M  V30 13956 N 1346.55 1.54831 -0.294147 0
M  V30 13957 C 1347.79 2.0191 0.318092 0
M  V30 13958 C 1348.15 1.178 1.51615 0
M  V30 13959 O 1349.35 1.54546 2.1993 0
M  V30 13960 C 1347.63 3.51018 0.672375 0
M  V30 13961 S 1349.18 4.20066 1.26845 0
M  V30 13962 H 1346 0.704215 0.0979881 0
M  V30 13963 H 1348.6 1.90926 -0.420422 0
M  V30 13964 H 1347.31 4.09872 -0.208159 0
M  V30 13965 H 1346.84 3.66025 1.44186 0
M  V30 13966 H 1348.85 4.25274 2.55649 0
M  V30 13967 N 1348.03 0.0217466 1.57585 0
M  V30 13968 C 1348.98 -0.971557 2.06264 0
M  V30 13969 C 1349.96 -1.29 0.961656 0
M  V30 13970 O 1351.15 -1.27734 1.22527 0
M  V30 13971 C 1348.28 -2.25643 2.58728 0
M  V30 13972 C 1347.37 -1.96668 3.75743 0
M  V30 13973 N 1347.76 -1.37933 4.86629 0
M  V30 13974 C 1346.06 -2.26698 3.84088 0
M  V30 13975 C 1346.76 -1.25923 5.67907 0
M  V30 13976 N 1345.73 -1.75224 5.14585 0
M  V30 13977 H 1349.54 -0.512285 2.89401 0
M  V30 13978 H 1347.05 -0.183446 1.61361 0
M  V30 13979 H 1349.05 -2.97668 2.91889 0
M  V30 13980 H 1347.71 -2.72204 1.77018 0
M  V30 13981 H 1348.72 -1.05529 5.07034 0
M  V30 13982 H 1345.4 -2.75983 3.13272 0
M  V30 13983 H 1346.79 -0.805687 6.67052 0
M  V30 13984 N 1349.51 -1.55583 -0.251311 0
M  V30 13985 C 1350.47 -1.89148 -1.29443 0
M  V30 13986 C 1351.47 -0.7676 -1.41296 0
M  V30 13987 O 1352.66 -1.03563 -1.40073 0
M  V30 13988 C 1349.79 -2.11601 -2.67279 0
M  V30 13989 H 1350.98 -2.82416 -1.00901 0
M  V30 13990 H 1348.54 -1.48407 -0.490398 0
M  V30 13991 H 1349.27 -1.20787 -3.00967 0
M  V30 13992 H 1349.06 -2.93449 -2.60058 0
M  V30 13993 H 1350.55 -2.38768 -3.42607 0
M  V30 13994 N 1350.98 0.516783 -1.48886 0
M  V30 13995 C 1352.23 1.27375 -1.57808 0
M  V30 13996 C 1352.56 1.92492 -0.256963 0
M  V30 13997 O 1351.84 1.79947 0.738193 0
M  V30 13998 C 1352.12 2.35295 -2.72595 0
M  V30 13999 C 1351.97 1.74783 -4.14453 0
M  V30 14000 C 1353.29 3.36973 -2.83085 0
M  V30 14001 H 1350.41 0.46175 -0.574418 0
M  V30 14002 H 1353.05 0.57434 -1.81111 0
M  V30 14003 H 1351.2 2.94951 -2.52857 0
M  V30 14004 H 1352.88 1.19076 -4.45666 0
M  V30 14005 H 1351.12 1.05258 -4.20836 0
M  V30 14006 H 1351.79 2.52985 -4.90615 0
M  V30 14007 H 1354.27 2.87289 -3.01005 0
M  V30 14008 H 1353.14 4.09864 -3.65106 0
M  V30 14009 H 1353.4 3.98336 -1.91784 0
M  V30 14010 N 1352.46 1.37696 0.766659 0
M  V30 14011 C 1353.71 1.32922 1.52237 0
M  V30 14012 C 1354.03 -0.0842833 1.94818 0
M  V30 14013 O 1353.3 -1.02934 1.66677 0
M  V30 14014 H 1351.88 0.489049 0.564659 0
M  V30 14015 H 1354.54 1.72238 0.912142 0
M  V30 14016 H 1353.64 1.97158 2.4194 0
M  V30 14017 N 1353.94 -0.993397 1.22349 0
M  V30 14018 C 1355.35 -1.54739 1.04465 0
M  V30 14019 C 1355.7 -1.92243 -0.392057 0
M  V30 14020 O 1354.83 -1.74707 -1.27697 0
M  V30 14021 C 1355.42 -2.81179 1.89007 0
M  V30 14022 C 1353.98 -3.33023 1.75421 0
M  V30 14023 C 1353.13 -2.06114 1.85505 0
M  V30 14024 H 1356.08 -0.814539 1.36202 0
M  V30 14025 H 1356.1 -3.53523 1.40718 0
M  V30 14026 H 1355.61 -2.53851 2.93566 0
M  V30 14027 H 1353.71 -3.6526 0.735935 0
M  V30 14028 H 1353.83 -4.03659 2.58062 0
M  V30 14029 H 1352.19 -2.19651 1.2894 0
M  V30 14030 H 1352.97 -1.81184 2.91594 0
M  V30 14031 N 1355.42 -1.03311 -1.19015 0
M  V30 14032 C 1356.33 -0.627735 -2.26046 0
M  V30 14033 C 1357.34 0.342483 -1.70596 0
M  V30 14034 O 1358.52 0.199307 -2.00411 0
M  V30 14035 C 1355.58 0.0108274 -3.46698 0
M  V30 14036 C 1354.65 -1.00743 -4.17312 0
M  V30 14037 C 1353.88 -0.399245 -5.32205 0
M  V30 14038 O 1354.1 0.796649 -5.64809 0
M  V30 14039 O 1353.04 -1.12419 -5.91308 0
M  V30 14040 H 1356.86 -1.51923 -2.6297 0
M  V30 14041 H 1354.45 -0.803538 -1.25951 0
M  V30 14042 H 1356.33 0.366672 -4.19802 0
M  V30 14043 H 1355 0.876265 -3.11614 0
M  V30 14044 H 1353.91 -1.41494 -3.4631 0
M  V30 14045 H 1355.24 -1.84338 -4.56377 0
M  V30 14046 N 1356.9 1.35099 -0.81154 0
M  V30 14047 C 1357.86 2.28033 -0.230947 0
M  V30 14048 C 1358.86 1.49798 0.584575 0
M  V30 14049 O 1360.05 1.6949 0.402336 0
M  V30 14050 C 1357.18 3.341 0.677486 0
M  V30 14051 H 1358.37 2.80893 -1.05067 0
M  V30 14052 H 1355.93 1.45038 -0.582554 0
M  V30 14053 H 1356.66 2.86435 1.5207 0
M  V30 14054 H 1356.45 3.91986 0.0943563 0
M  V30 14055 H 1357.94 4.0345 1.07787 0
M  V30 14056 N 1358.37 0.56548 1.47106 0
M  V30 14057 C 1359.32 -0.198133 2.27137 0
M  V30 14058 C 1360.31 -0.877743 1.3485 0
M  V30 14059 O 1361.5 -0.774683 1.59147 0
M  V30 14060 C 1358.63 -1.22223 3.20806 0
M  V30 14061 C 1357.71 -0.545616 4.20576 0
M  V30 14062 N 1358.11 0.389029 5.04302 0
M  V30 14063 C 1356.4 -0.798517 4.38793 0
M  V30 14064 C 1357.1 0.782852 5.76408 0
M  V30 14065 N 1356.08 0.13583 5.4343 0
M  V30 14066 H 1359.88 0.520354 2.89257 0
M  V30 14067 H 1357.4 0.386013 1.57746 0
M  V30 14068 H 1359.39 -1.78332 3.76833 0
M  V30 14069 H 1358.05 -1.94172 2.60244 0
M  V30 14070 H 1359.06 0.763644 5.12239 0
M  V30 14071 H 1355.74 -1.50589 3.89396 0
M  V30 14072 H 1357.13 1.55133 6.53746 0
M  V30 14073 N 1359.85 -1.54672 0.302354 0
M  V30 14074 C 1361.08 -2.04578 -0.309093 0
M  V30 14075 C 1361.5 -1.17957 -1.47416 0
M  V30 14076 O 1360.85 -0.2055 -1.81339 0
M  V30 14077 C 1360.9 -3.53334 -0.764023 0
M  V30 14078 O 1360.62 -4.36662 0.354674 0
M  V30 14079 C 1362.13 -4.19243 -1.44048 0
M  V30 14080 H 1359.35 -0.667651 -0.0669575 0
M  V30 14081 H 1361.89 -1.99658 0.442379 0
M  V30 14082 H 1360.04 -3.5861 -1.46552 0
M  V30 14083 H 1360.46 -5.245 0.000241188 0
M  V30 14084 H 1361.93 -5.24847 -1.70995 0
M  V30 14085 H 1362.41 -3.69061 -2.38098 0
M  V30 14086 H 1363.02 -4.18046 -0.782132 0
M  V30 14087 N 1361.33 -0.0301034 -1.57571 0
M  V30 14088 C 1362.58 0.647672 -1.91019 0
M  V30 14089 C 1362.89 1.73234 -0.908265 0
M  V30 14090 O 1364.1 2.46682 -1.13402 0
M  V30 14091 C 1362.55 1.20327 -3.3919 0
M  V30 14092 C 1362.16 0.151833 -4.47743 0
M  V30 14093 C 1363.91 1.8575 -3.81703 0
M  V30 14094 C 1361.81 0.719119 -5.87012 0
M  V30 14095 H 1360.74 0.245682 -0.712851 0
M  V30 14096 H 1363.39 -0.0955645 -1.83251 0
M  V30 14097 H 1361.78 1.99814 -3.41892 0
M  V30 14098 H 1362.95 -0.620659 -4.56601 0
M  V30 14099 H 1361.27 -0.403699 -4.14438 0
M  V30 14100 H 1363.86 2.29151 -4.83109 0
M  V30 14101 H 1364.21 2.70061 -3.16817 0
M  V30 14102 H 1364.74 1.1295 -3.81428 0
M  V30 14103 H 1361.48 -0.0858832 -6.55444 0
M  V30 14104 H 1361 1.46008 -5.81758 0
M  V30 14105 H 1362.68 1.20856 -6.35612 0
M  V30 14106 N 1362.81 1.55714 0.243056 0
M  V30 14107 C 1364.22 1.68126 0.811814 0
M  V30 14108 C 1364.57 0.628259 1.85869 0
M  V30 14109 O 1363.7 -0.224747 2.1523 0
M  V30 14110 C 1364.29 3.048 1.47928 0
M  V30 14111 C 1362.85 3.19138 1.99569 0
M  V30 14112 C 1362 2.64011 0.848149 0
M  V30 14113 H 1364.95 1.58689 0.0187918 0
M  V30 14114 H 1364.97 2.99459 2.34743 0
M  V30 14115 H 1364.48 3.81417 0.717106 0
M  V30 14116 H 1362.58 2.4735 2.78655 0
M  V30 14117 H 1362.69 4.26095 2.19043 0
M  V30 14118 H 1361.06 2.21934 1.2497 0
M  V30 14119 H 1361.84 3.43157 0.0989987 0
M  V30 14120 N 1364.29 -0.50888 1.49158 0
M  V30 14121 C 1365.53 -1.261 1.57934 0
M  V30 14122 C 1365.86 -1.93199 0.264405 0
M  V30 14123 O 1365.13 -1.82359 -0.715684 0
M  V30 14124 H 1363.71 -0.468421 0.581886 0
M  V30 14125 H 1366.37 -0.590447 1.85741 0
M  V30 14126 H 1365.46 -2.02913 2.37135 0
M  V30 14127 N 1365.76 -1.381 -0.759346 0
M  V30 14128 C 1366.99 -1.37014 -1.54631 0
M  V30 14129 C 1367.4 0.0433843 -1.8915 0
M  V30 14130 O 1366.75 1.01888 -1.52855 0
M  V30 14131 C 1366.81 -2.15575 -2.87693 0
M  V30 14132 C 1366.47 -3.64438 -2.75743 0
M  V30 14133 C 1367.47 -4.58055 -2.45929 0
M  V30 14134 C 1365.15 -4.0772 -2.93376 0
M  V30 14135 C 1367.15 -5.92935 -2.33894 0
M  V30 14136 C 1364.83 -5.42682 -2.80961 0
M  V30 14137 C 1365.83 -6.35103 -2.51262 0
M  V30 14138 O 1365.52 -7.67583 -2.38896 0
M  V30 14139 H 1365.25 -0.47062 -0.485276 0
M  V30 14140 H 1367.81 -1.82214 -0.948 0
M  V30 14141 H 1366.04 -1.65084 -3.49691 0
M  V30 14142 H 1367.73 -2.06968 -3.49169 0
M  V30 14143 H 1368.49 -4.25923 -2.3198 0
M  V30 14144 H 1364.37 -3.36135 -3.15491 0
M  V30 14145 H 1367.91 -6.65041 -2.10634 0
M  V30 14146 H 1363.81 -5.74413 -2.94482 0
M  V30 14147 H 1364.58 -7.78042 -2.54152 0
M  V30 14148 N 1367.24 0.986894 -1.22875 0
M  V30 14149 C 1368.65 1.54182 -1.05284 0
M  V30 14150 C 1369 1.92448 0.381856 0
M  V30 14151 O 1368.13 1.75381 1.26769 0
M  V30 14152 C 1368.72 2.80173 -1.90496 0
M  V30 14153 C 1367.28 3.32088 -1.77185 0
M  V30 14154 C 1366.43 2.05128 -1.86596 0
M  V30 14155 H 1369.38 0.807304 -1.36632 0
M  V30 14156 H 1369.4 3.52772 -1.42591 0
M  V30 14157 H 1368.91 2.52291 -2.94908 0
M  V30 14158 H 1367.02 3.64864 -0.755295 0
M  V30 14159 H 1367.13 4.02285 -2.60199 0
M  V30 14160 H 1365.49 2.18964 -1.30103 0
M  V30 14161 H 1366.28 1.79635 -2.92551 0
M  V30 14162 N 1368.72 1.0394 1.18466 0
M  V30 14163 C 1369.67 0.629352 2.22054 0
M  V30 14164 C 1370.64 -0.362187 1.62103 0
M  V30 14165 O 1371.82 -0.256457 1.89069 0
M  V30 14166 C 1368.96 -0.00282888 3.451 0
M  V30 14167 C 1368.08 1.03602 4.19393 0
M  V30 14168 C 1367.21 0.372492 5.29892 0
M  V30 14169 C 1366.25 1.39652 5.95956 0
M  V30 14170 N 1365.39 0.758053 6.97996 0
M  V30 14171 H 1370.23 1.51722 2.56485 0
M  V30 14172 H 1367.76 0.759043 1.26004 0
M  V30 14173 H 1369.72 -0.386688 4.15404 0
M  V30 14174 H 1368.35 -0.854224 3.11292 0
M  V30 14175 H 1367.4 1.53784 3.47929 0
M  V30 14176 H 1368.72 1.81387 4.64651 0
M  V30 14177 H 1367.87 -0.065642 6.06664 0
M  V30 14178 H 1366.61 -0.437462 4.85734 0
M  V30 14179 H 1365.61 1.84481 5.17926 0
M  V30 14180 H 1366.84 2.20816 6.42197 0
M  V30 14181 H 1364.78 -0.0316173 6.55992 0
M  V30 14182 H 1364.7 1.47363 7.41499 0
M  V30 14183 H 1365.97 0.344273 7.78739 0
M  V30 14184 N 1370.2 -1.34667 0.818693 0
M  V30 14185 C 1371.42 -2.03173 0.416585 0
M  V30 14186 C 1371.85 -1.61261 -0.968321 0
M  V30 14187 O 1371.21 -0.79517 -1.62932 0
M  V30 14188 C 1371.25 -3.56803 0.521884 0
M  V30 14189 O 1370.36 -4.09827 -0.459953 0
M  V30 14190 H 1369.7 -0.6413 0.172136 0
M  V30 14191 H 1372.23 -1.72006 1.10794 0
M  V30 14192 H 1372.24 -4.06073 0.3961 0
M  V30 14193 H 1370.91 -3.86656 1.53198 0
M  V30 14194 H 1369.49 -3.71744 -0.293405 0
M  V30 14195 N 1371.68 -0.573274 -1.46804 0
M  V30 14196 C 1372.92 -0.0553432 -2.02724 0
M  V30 14197 C 1373.26 1.29753 -1.44492 0
M  V30 14198 O 1372.53 1.84804 -0.606455 0
M  V30 14199 C 1372.81 0.0205511 -3.60094 0
M  V30 14200 C 1372.67 -1.36055 -4.2873 0
M  V30 14201 C 1373.99 0.725944 -4.34071 0
M  V30 14202 H 1371.1 -0.0215858 -0.736684 0
M  V30 14203 H 1373.75 -0.738657 -1.75054 0
M  V30 14204 H 1371.9 0.602481 -3.838 0
M  V30 14205 H 1373.57 -1.98692 -4.16316 0
M  V30 14206 H 1371.81 -1.93087 -3.88458 0
M  V30 14207 H 1372.48 -1.26001 -5.37427 0
M  V30 14208 H 1374.96 0.231677 -4.15455 0
M  V30 14209 H 1373.83 0.74805 -5.43779 0
M  V30 14210 H 1374.1 1.78536 -4.04447 0
M  V30 14211 N 1373.15 1.5451 -0.310553 0
M  V30 14212 C 1374.43 1.92452 0.34951 0
M  V30 14213 C 1374.81 1.23881 1.70929 0
M  V30 14214 O 1374.16 0.377898 2.25353 0
M  V30 14215 C 1374.37 3.46026 0.454675 0
M  V30 14216 C 1375.72 4.18432 0.721071 0
M  V30 14217 O 1376.74 3.52112 0.538112 0
M  V30 14218 O 1375.6 5.3586 1.07314 0
M  V30 14219 H 1372.69 0.803168 0.197103 0
M  V30 14220 H 1375.24 1.65852 -0.359313 0
M  V30 14221 H 1374.01 3.88081 -0.500853 0
M  V30 14222 H 1373.64 3.7869 1.21159 0
M  V30 14223 N 1374.63 0.0384594 1.57553 0
M  V30 14224 C 1375.88 -0.639085 1.92467 0
M  V30 14225 C 1376.21 -1.71239 0.916014 0
M  V30 14226 O 1375.49 -1.94408 -0.0598928 0
M  V30 14227 C 1375.77 -1.24693 3.37822 0
M  V30 14228 C 1375.62 -0.182544 4.49429 0
M  V30 14229 C 1376.94 -2.16226 3.8332 0
M  V30 14230 H 1374.06 -0.230852 0.699912 0
M  V30 14231 H 1376.7 0.0976276 1.89749 0
M  V30 14232 H 1374.85 -1.87481 3.40269 0
M  V30 14233 H 1376.53 0.448622 4.59113 0
M  V30 14234 H 1374.77 0.4909 4.31013 0
M  V30 14235 H 1375.44 -0.647626 5.48188 0
M  V30 14236 H 1377.92 -1.63413 3.82669 0
M  V30 14237 H 1376.79 -2.55705 4.85702 0
M  V30 14238 H 1377.05 -3.05722 3.19353 0
M  V30 14239 N 1376.11 -1.55841 -0.234795 0
M  V30 14240 C 1377.36 -1.78238 -0.961116 0
M  V30 14241 C 1377.69 -0.604919 -1.84854 0
M  V30 14242 O 1376.94 0.411289 -1.91329 0
M  V30 14243 C 1377.24 -3.06262 -1.84223 0
M  V30 14244 C 1376.91 -4.37045 -1.10916 0
M  V30 14245 C 1375.57 -4.72582 -0.906606 0
M  V30 14246 C 1377.92 -5.17844 -0.59049 0
M  V30 14247 C 1375.25 -5.86444 -0.173275 0
M  V30 14248 C 1377.6 -6.32468 0.129433 0
M  V30 14249 C 1376.26 -6.66616 0.343357 0
M  V30 14250 H 1375.53 -0.652219 -0.351697 0
M  V30 14251 H 1378.18 -1.9011 -0.230272 0
M  V30 14252 H 1376.49 -2.89454 -2.64052 0
M  V30 14253 H 1378.18 -3.20791 -2.40612 0
M  V30 14254 H 1374.77 -4.09134 -1.27699 0
M  V30 14255 H 1378.96 -4.90835 -0.734487 0
M  V30 14256 H 1374.21 -6.114 0.00282409 0
M  V30 14257 H 1378.39 -6.94312 0.538905 0
M  V30 14258 H 1376.01 -7.54691 0.913538 0
M  V30 14259 N 1377.59 0.500963 -1.49426 0
M  V30 14260 C 1378.84 1.25261 -1.58601 0
M  V30 14261 C 1379.16 1.93056 -0.274647 0
M  V30 14262 O 1378.43 1.82736 0.706003 0
M  V30 14263 H 1377.01 0.465328 -0.584362 0
M  V30 14264 H 1379.67 0.580588 -1.86052 0
M  V30 14265 H 1378.77 2.01652 -2.38208 0
M  V30 14266 N 1379.07 1.38501 0.752011 0
M  V30 14267 C 1380.29 1.38212 1.54636 0
M  V30 14268 C 1380.72 -0.0256356 1.88083 0
M  V30 14269 O 1380.08 -1.00812 1.50687 0
M  V30 14270 C 1380.12 2.24597 2.82114 0
M  V30 14271 O 1379.23 1.66415 3.77332 0
M  V30 14272 H 1378.57 0.47138 0.46765 0
M  V30 14273 H 1381.1 1.82283 0.929205 0
M  V30 14274 H 1381.11 2.38511 3.31023 0
M  V30 14275 H 1379.78 3.26913 2.57101 0
M  V30 14276 H 1378.36 1.61651 3.36041 0
M  V30 14277 N 1380.55 -0.980364 1.23396 0
M  V30 14278 C 1381.77 -1.75689 1.09275 0
M  V30 14279 C 1382.19 -1.85418 -0.355773 0
M  V30 14280 O 1381.55 -1.33337 -1.24609 0
M  V30 14281 C 1381.6 -3.18378 1.71223 0
M  V30 14282 O 1381.32 -3.09154 3.10411 0
M  V30 14283 C 1382.82 -4.12425 1.62545 0
M  V30 14284 H 1380.04 -0.551354 0.382427 0
M  V30 14285 H 1382.58 -1.23169 1.63247 0
M  V30 14286 H 1380.74 -3.67925 1.21285 0
M  V30 14287 H 1381.15 -3.9898 3.40464 0
M  V30 14288 H 1382.63 -5.1025 2.10592 0
M  V30 14289 H 1383.1 -4.35296 0.584275 0
M  V30 14290 H 1383.71 -3.68782 2.1185 0
M  V30 14291 N 1382.02 -1.04567 -1.17913 0
M  V30 14292 C 1383.43 -0.779118 -1.69666 0
M  V30 14293 C 1383.79 0.699448 -1.83309 0
M  V30 14294 O 1382.91 1.54407 -1.51616 0
M  V30 14295 C 1383.51 -1.40769 -3.08171 0
M  V30 14296 C 1382.06 -1.18933 -3.57116 0
M  V30 14297 C 1381.21 -1.49519 -2.33536 0
M  V30 14298 H 1384.16 -1.21144 -1.02518 0
M  V30 14299 H 1384.18 -0.813584 -3.717 0
M  V30 14300 H 1383.7 -2.4838 -2.9821 0
M  V30 14301 H 1381.8 -0.132184 -3.72365 0
M  V30 14302 H 1381.91 -1.88987 -4.40251 0
M  V30 14303 H 1380.27 -0.915056 -2.37695 0
M  V30 14304 H 1381.06 -2.5825 -2.26189 0
M  V30 14305 N 1383.5 1.34231 -0.825823 0
M  V30 14306 C 1384.75 1.98196 -0.415276 0
M  V30 14307 C 1385.08 1.65463 1.02236 0
M  V30 14308 O 1384.33 0.919868 1.72734 0
M  V30 14309 C 1384.63 3.52861 -0.56778 0
M  V30 14310 C 1384.3 4.05512 -1.97157 0
M  V30 14311 C 1382.96 4.19602 -2.35557 0
M  V30 14312 C 1385.31 4.33798 -2.88909 0
M  V30 14313 C 1382.64 4.59307 -3.6504 0
M  V30 14314 C 1384.99 4.74949 -4.17859 0
M  V30 14315 C 1383.65 4.87245 -4.56233 0
M  V30 14316 H 1382.92 0.725251 -0.15196 0
M  V30 14317 H 1385.57 1.60126 -1.05033 0
M  V30 14318 H 1383.88 3.9151 0.15065 0
M  V30 14319 H 1385.57 4.00336 -0.230608 0
M  V30 14320 H 1382.16 3.9501 -1.66328 0
M  V30 14321 H 1386.35 4.22448 -2.60483 0
M  V30 14322 H 1381.6 4.67017 -3.94594 0
M  V30 14323 H 1385.78 4.95795 -4.8904 0
M  V30 14324 H 1383.4 5.17768 -5.56615 0
M  V30 14325 N 1384.98 0.581051 1.46498 0
M  V30 14326 C 1385.91 -0.19094 2.28403 0
M  V30 14327 C 1386.92 -0.857039 1.38415 0
M  V30 14328 O 1388.11 -0.726881 1.6303 0
M  V30 14329 C 1385.21 -1.28972 3.134 0
M  V30 14330 C 1384.39 -0.715867 4.31502 0
M  V30 14331 C 1383.45 -1.70215 4.97909 0
M  V30 14332 O 1382.47 -1.23885 5.55555 0
M  V30 14333 N 1383.67 -3.0362 4.94768 0
M  V30 14334 H 1386.44 0.511754 2.95298 0
M  V30 14335 H 1384 0.41871 1.56392 0
M  V30 14336 H 1385.99 -1.94877 3.5469 0
M  V30 14337 H 1384.56 -1.8953 2.4859 0
M  V30 14338 H 1383.78 0.120591 3.94016 0
M  V30 14339 H 1385.07 -0.312226 5.07841 0
M  V30 14340 H 1384.47 -3.43885 4.49177 0
M  V30 14341 H 1383.02 -3.65018 5.40005 0
M  V30 14342 N 1386.46 -1.54343 0.318742 0
M  V30 14343 C 1387.87 -1.85922 -0.170309 0
M  V30 14344 C 1388.22 -1.24047 -1.52009 0
M  V30 14345 O 1387.34 -0.544705 -2.09432 0
M  V30 14346 C 1387.94 -3.37325 -0.315802 0
M  V30 14347 C 1386.5 -3.68871 -0.749073 0
M  V30 14348 C 1385.65 -2.76985 0.13209 0
M  V30 14349 H 1388.6 -1.4926 0.539185 0
M  V30 14350 H 1388.62 -3.62784 -1.14751 0
M  V30 14351 H 1388.13 -3.8233 0.66674 0
M  V30 14352 H 1386.23 -3.29396 -1.74153 0
M  V30 14353 H 1386.34 -4.75861 -0.556164 0
M  V30 14354 H 1384.71 -2.51672 -0.391564 0
M  V30 14355 H 1385.49 -3.24815 1.11131 0
M  V30 14356 N 1387.94 -0.0468143 -1.5753 0
M  V30 14357 C 1389.18 0.627939 -1.92518 0
M  V30 14358 C 1389.51 1.71107 -0.924801 0
M  V30 14359 O 1388.77 1.95597 0.0635812 0
M  V30 14360 C 1389.06 1.26669 -3.342 0
M  V30 14361 C 1388.73 0.312184 -4.49818 0
M  V30 14362 C 1387.39 0.0495202 -4.81175 0
M  V30 14363 C 1389.74 -0.342228 -5.20075 0
M  V30 14364 C 1387.07 -0.875064 -5.80137 0
M  V30 14365 C 1389.42 -1.25498 -6.20027 0
M  V30 14366 C 1388.09 -1.52636 -6.49814 0
M  V30 14367 H 1387.36 0.229779 -0.704473 0
M  V30 14368 H 1390.01 -0.112363 -1.9117 0
M  V30 14369 H 1388.31 2.08215 -3.31894 0
M  V30 14370 H 1390.01 1.79563 -3.5855 0
M  V30 14371 H 1386.6 0.527088 -4.25347 0
M  V30 14372 H 1390.78 -0.152384 -4.96066 0
M  V30 14373 H 1386.04 -1.09284 -6.01554 0
M  V30 14374 H 1390.21 -1.76815 -6.7358 0
M  V30 14375 H 1387.84 -2.24443 -7.26312 0
M  V30 14376 N 1389.41 1.55964 0.226527 0
M  V30 14377 C 1390.34 1.95028 1.284 0
M  V30 14378 C 1391.33 0.817833 1.49149 0
M  V30 14379 O 1392.51 1.07975 1.61416 0
M  V30 14380 C 1389.64 2.26266 2.63478 0
M  V30 14381 C 1388.59 3.41954 2.57393 0
M  V30 14382 C 1387.92 3.58786 3.96456 0
M  V30 14383 C 1389.22 4.77069 2.12608 0
M  V30 14384 H 1390.91 2.83608 0.959513 0
M  V30 14385 H 1388.46 1.36451 0.460125 0
M  V30 14386 H 1390.41 2.52186 3.3761 0
M  V30 14387 H 1389.14 1.34533 2.97604 0
M  V30 14388 H 1387.8 3.16076 1.85719 0
M  V30 14389 H 1387.44 2.64437 4.27881 0
M  V30 14390 H 1387.14 4.36595 3.93267 0
M  V30 14391 H 1388.67 3.87048 4.72256 0
M  V30 14392 H 1390.08 5.02226 2.76481 0
M  V30 14393 H 1388.48 5.58126 2.2049 0
M  V30 14394 H 1389.55 4.7276 1.07823 0
M  V30 14395 N 1390.89 -0.493031 1.4969 0
M  V30 14396 C 1392.12 -1.27046 1.633 0
M  V30 14397 C 1392.54 -1.86278 0.307534 0
M  V30 14398 O 1391.89 -1.68208 -0.707968 0
M  V30 14399 C 1391.94 -2.39501 2.70779 0
M  V30 14400 O 1391.66 -1.82702 3.98185 0
M  V30 14401 C 1393.17 -3.30744 2.95166 0
M  V30 14402 H 1390.39 -0.385042 0.54953 0
M  V30 14403 H 1392.93 -0.590998 1.95774 0
M  V30 14404 H 1391.08 -3.03263 2.41061 0
M  V30 14405 H 1391.5 -2.56588 4.57452 0
M  V30 14406 H 1392.97 -4.05912 3.74085 0
M  V30 14407 H 1393.45 -3.88217 2.05387 0
M  V30 14408 H 1394.06 -2.72741 3.26332 0
M  V30 14409 N 1392.37 -1.38898 -0.744656 0
M  V30 14410 C 1393.6 -1.3903 -1.53901 0
M  V30 14411 C 1394.02 0.0156607 -1.88093 0
M  V30 14412 O 1393.38 1.00012 -1.51219 0
M  V30 14413 C 1393.43 -2.2609 -2.80919 0
M  V30 14414 O 1392.53 -1.68414 -3.76444 0
M  V30 14415 H 1391.87 -0.473854 -0.465144 0
M  V30 14416 H 1394.4 -1.82773 -0.919525 0
M  V30 14417 H 1394.41 -2.40264 -3.29754 0
M  V30 14418 H 1393.09 -3.28271 -2.55364 0
M  V30 14419 H 1391.66 -1.63431 -3.35179 0
M  V30 14420 N 1393.85 0.973806 -1.23914 0
M  V30 14421 C 1395.08 1.75107 -1.10206 0
M  V30 14422 C 1395.49 1.85604 0.345935 0
M  V30 14423 O 1394.85 1.33996 1.239 0
M  V30 14424 C 1394.9 3.17466 -1.72909 0
M  V30 14425 O 1394.62 3.07504 -3.12047 0
M  V30 14426 C 1396.12 4.11557 -1.6473 0
M  V30 14427 H 1393.34 0.549318 -0.385345 0
M  V30 14428 H 1395.89 1.22301 -1.63898 0
M  V30 14429 H 1394.04 3.67277 -1.23234 0
M  V30 14430 H 1394.45 3.97169 -3.42575 0
M  V30 14431 H 1395.93 5.09126 -2.13295 0
M  V30 14432 H 1396.41 4.3498 -0.607352 0
M  V30 14433 H 1397.01 3.67653 -2.13802 0
M  V30 14434 N 1395.33 1.05191 1.17357 0
M  V30 14435 C 1396.55 0.782343 1.92079 0
M  V30 14436 C 1396.98 -0.655957 1.76292 0
M  V30 14437 O 1396.33 -1.45573 1.08065 0
M  V30 14438 C 1396.38 1.16777 3.41168 0
M  V30 14439 O 1395.49 0.299908 4.11308 0
M  V30 14440 H 1394.83 0.286894 0.598822 0
M  V30 14441 H 1397.36 1.40476 1.48754 0
M  V30 14442 H 1397.37 1.13454 3.91909 0
M  V30 14443 H 1396.04 2.2155 3.51978 0
M  V30 14444 H 1394.62 0.393744 3.70815 0
M  V30 14445 N 1396.8 -1.33791 0.83293 0
M  V30 14446 C 1397.75 -2.29332 0.25989 0
M  V30 14447 C 1398.72 -1.54056 -0.620965 0
M  V30 14448 O 1399.91 -1.82382 -0.560492 0
M  V30 14449 C 1397.05 -3.40461 -0.563964 0
M  V30 14450 C 1396.16 -4.30658 0.34025 0
M  V30 14451 C 1395.29 -5.28897 -0.494134 0
M  V30 14452 C 1394.33 -6.10733 0.408842 0
M  V30 14453 N 1393.47 -7.01032 -0.38706 0
M  V30 14454 H 1398.31 -2.77743 1.07996 0
M  V30 14455 H 1395.85 -1.3667 0.544043 0
M  V30 14456 H 1397.81 -4.03587 -1.05704 0
M  V30 14457 H 1396.44 -2.93258 -1.34905 0
M  V30 14458 H 1395.49 -3.68305 0.9516 0
M  V30 14459 H 1396.8 -4.87962 1.03415 0
M  V30 14460 H 1395.95 -5.97522 -1.05128 0
M  V30 14461 H 1394.69 -4.72155 -1.2215 0
M  V30 14462 H 1393.7 -5.41031 0.978046 0
M  V30 14463 H 1394.92 -6.69557 1.13448 0
M  V30 14464 H 1392.87 -6.46747 -1.09792 0
M  V30 14465 H 1392.79 -7.55592 0.248249 0
M  V30 14466 H 1394.05 -7.73973 -0.926631 0
M  V30 14467 N 1398.28 -0.588812 -1.46187 0
M  V30 14468 C 1399.51 -0.0806571 -2.07243 0
M  V30 14469 C 1399.93 1.21766 -1.43369 0
M  V30 14470 O 1399.29 1.73694 -0.51964 0
M  V30 14471 C 1399.34 0.065267 -3.60541 0
M  V30 14472 O 1398.44 1.12026 -3.96893 0
M  V30 14473 H 1397.78 -0.0655622 -0.660755 0
M  V30 14474 H 1400.31 -0.813489 -1.87733 0
M  V30 14475 H 1400.32 0.269494 -4.07109 0
M  V30 14476 H 1399 -0.88284 -4.06422 0
M  V30 14477 H 1397.58 0.894 -3.62025 0
M  V30 14478 N 1399.76 1.54172 -0.326923 0
M  V30 14479 C 1400.67 2.28149 0.546351 0
M  V30 14480 C 1401.69 1.32628 1.12631 0
M  V30 14481 O 1402.86 1.65647 1.14556 0
M  V30 14482 C 1399.93 3.02742 1.68962 0
M  V30 14483 C 1398.99 4.13856 1.14112 0
M  V30 14484 C 1398.22 4.84882 2.2299 0
M  V30 14485 O 1398.44 4.55448 3.43399 0
M  V30 14486 O 1397.38 5.71714 1.8822 0
M  V30 14487 H 1401.2 3.03651 -0.0545288 0
M  V30 14488 H 1398.79 1.49113 -0.0925027 0
M  V30 14489 H 1400.67 3.49443 2.35515 0
M  V30 14490 H 1399.35 2.30113 2.27662 0
M  V30 14491 H 1398.25 3.71497 0.440579 0
M  V30 14492 H 1399.59 4.88539 0.599211 0
M  V30 14493 N 1401.24 0.0551678 1.57503 0
M  V30 14494 C 1402.46 -0.630692 1.97578 0
M  V30 14495 C 1402.89 -1.63348 0.932686 0
M  V30 14496 O 1402.25 -1.81004 -0.103632 0
M  V30 14497 C 1402.29 -1.29049 3.36718 0
M  V30 14498 O 1401.4 -2.40621 3.34926 0
M  V30 14499 H 1400.74 -0.163625 0.643524 0
M  V30 14500 H 1403.27 0.124753 2.04219 0
M  V30 14501 H 1403.28 -1.64124 3.73534 0
M  V30 14502 H 1401.95 -0.55559 4.12172 0
M  V30 14503 H 1400.53 -2.07463 3.0986 0
M  V30 14504 N 1402.72 -1.56081 -0.218252 0
M  V30 14505 C 1403.66 -1.93544 -1.2901 0
M  V30 14506 C 1404.66 -0.817886 -1.48348 0
M  V30 14507 O 1405.86 -1.00274 -1.49483 0
M  V30 14508 H 1402.24 -0.61511 -0.432601 0
M  V30 14509 H 1404.21 -2.82975 -0.946966 0
M  V30 14510 C 1402.96 -2.27134 -2.63259 0
M  V30 14511 H 1402.28 -3.12643 -2.49188 0
M  V30 14512 H 1403.72 -2.57228 -3.3706 0
M  V30 14513 C 1402.18 -1.09764 -3.18518 0
M  V30 14514 O 1402.71 -0.360501 -4.00079 0
M  V30 14515 N 1400.92 -0.880589 -2.76937 0
M  V30 14516 H 1400.46 -1.48175 -2.10718 0
M  V30 14517 H 1400.42 -0.0970234 -3.1425 0
M  V30 14518 N 1404.2 0.485086 -1.49949 0
M  V30 14519 C 1405.11 1.61089 -1.70551 0
M  V30 14520 C 1406.12 1.63752 -0.588333 0
M  V30 14521 O 1407.3 1.81879 -0.86498 0
M  V30 14522 C 1404.36 2.97382 -1.78227 0
M  V30 14523 C 1403.42 3.05219 -3.01894 0
M  V30 14524 C 1402.66 4.35011 -3.09195 0
M  V30 14525 O 1402.88 5.24722 -2.23658 0
M  V30 14526 O 1401.81 4.48151 -4.01802 0
M  V30 14527 H 1405.64 1.46633 -2.65956 0
M  V30 14528 H 1403.22 0.663091 -1.33879 0
M  V30 14529 H 1405.11 3.78356 -1.85538 0
M  V30 14530 H 1403.78 3.12066 -0.860043 0
M  V30 14531 H 1402.69 2.23373 -3.00092 0
M  V30 14532 H 1404.02 2.95467 -3.93649 0
M  V30 14533 N 1405.67 1.39291 0.737279 0
M  V30 14534 C 1406.95 1.26901 1.48847 0
M  V30 14535 C 1407.33 -0.122417 2.10745 0
M  V30 14536 O 1406.68 -1.13343 1.98408 0
M  V30 14537 C 1406.89 2.3916 2.54172 0
M  V30 14538 C 1408.24 2.78368 3.20619 0
M  V30 14539 O 1409.26 2.38593 2.64484 0
M  V30 14540 O 1408.12 3.47014 4.22189 0
M  V30 14541 H 1405.21 0.497176 0.660867 0
M  V30 14542 H 1407.76 1.51159 0.771299 0
M  V30 14543 H 1406.53 3.3219 2.06797 0
M  V30 14544 H 1406.15 2.16555 3.33451 0
M  V30 14545 N 1407.15 -0.967221 1.24429 0
M  V30 14546 C 1408.08 -2.07966 1.06172 0
M  V30 14547 C 1409.06 -1.70081 -0.0254566 0
M  V30 14548 O 1410.25 -1.93682 0.141705 0
M  V30 14549 C 1407.38 -3.4085 0.666251 0
M  V30 14550 C 1406.33 -3.92692 1.70225 0
M  V30 14551 C 1405.66 -5.21925 1.16183 0
M  V30 14552 C 1406.96 -4.20478 3.09831 0
M  V30 14553 H 1408.65 -2.23497 1.99222 0
M  V30 14554 H 1406.2 -1.07398 0.959255 0
M  V30 14555 H 1408.15 -4.1811 0.52552 0
M  V30 14556 H 1406.87 -3.2522 -0.299939 0
M  V30 14557 H 1405.53 -3.17588 1.83121 0
M  V30 14558 H 1405.18 -5.02655 0.186237 0
M  V30 14559 H 1404.88 -5.57579 1.85416 0
M  V30 14560 H 1406.41 -6.01795 1.03323 0
M  V30 14561 H 1407.82 -4.88442 3.00162 0
M  V30 14562 H 1406.22 -4.67362 3.7642 0
M  V30 14563 H 1407.29 -3.27235 3.57834 0
M  V30 14564 N 1408.63 -1.05812 -1.16797 0
M  V30 14565 C 1409.88 -0.771923 -1.8721 0
M  V30 14566 C 1410.2 0.701365 -1.81414 0
M  V30 14567 O 1409.46 1.5292 -1.22122 0
M  V30 14568 C 1409.76 -1.20565 -3.3645 0
M  V30 14569 C 1409.42 -2.68222 -3.62447 0
M  V30 14570 C 1408.09 -3.08556 -3.69251 0
M  V30 14571 C 1410.44 -3.63607 -3.73416 0
M  V30 14572 C 1407.77 -4.43126 -3.84521 0
M  V30 14573 C 1410.12 -4.97918 -3.90205 0
M  V30 14574 C 1408.78 -5.37897 -3.9525 0
M  V30 14575 H 1408.05 -0.282467 -0.68505 0
M  V30 14576 H 1410.7 -1.32633 -1.38133 0
M  V30 14577 H 1409 -0.570347 -3.87626 0
M  V30 14578 H 1410.7 -0.961326 -3.89306 0
M  V30 14579 H 1407.29 -2.3599 -3.5778 0
M  V30 14580 H 1411.48 -3.33581 -3.67474 0
M  V30 14581 H 1406.73 -4.73593 -3.86677 0
M  V30 14582 H 1410.91 -5.71716 -3.97635 0
M  V30 14583 H 1408.53 -6.42176 -4.06834 0
M  V30 14584 N 1410.11 1.33347 -0.840014 0
M  V30 14585 C 1411.36 1.97354 -0.435412 0
M  V30 14586 C 1411.68 1.66866 1.009 0
M  V30 14587 O 1410.95 0.968186 1.70303 0
M  V30 14588 H 1409.53 0.730096 -0.158017 0
M  V30 14589 H 1412.19 1.6269 -1.07322 0
M  V30 14590 H 1411.28 3.0688 -0.56841 0
M  V30 14591 N 1411.59 0.596556 1.45873 0
M  V30 14592 C 1412.52 -0.116229 2.33211 0
M  V30 14593 C 1413.5 -0.869868 1.46176 0
M  V30 14594 O 1414.68 -0.842599 1.74968 0
M  V30 14595 C 1411.81 -1.12145 3.28696 0
M  V30 14596 C 1410.77 -0.481749 4.2528 0
M  V30 14597 C 1410.09 -1.59443 5.10374 0
M  V30 14598 C 1411.39 0.589996 5.18957 0
M  V30 14599 H 1413.09 0.613005 2.93057 0
M  V30 14600 H 1410.63 0.296242 1.4092 0
M  V30 14601 H 1412.58 -1.62857 3.88659 0
M  V30 14602 H 1411.31 -1.88114 2.66985 0
M  V30 14603 H 1409.97 0.0044092 3.666 0
M  V30 14604 H 1409.62 -2.34413 4.45039 0
M  V30 14605 H 1409.32 -1.17197 5.75794 0
M  V30 14606 H 1410.84 -2.10404 5.73204 0
M  V30 14607 H 1412.25 0.167395 5.73056 0
M  V30 14608 H 1410.65 0.933565 5.92794 0
M  V30 14609 H 1411.72 1.47093 4.62052 0
M  V30 14610 N 1413.06 -1.53996 0.335095 0
M  V30 14611 C 1414.31 -2.01069 -0.264388 0
M  V30 14612 C 1414.64 -1.22271 -1.50876 0
M  V30 14613 O 1413.92 -0.30806 -1.92045 0
M  V30 14614 C 1414.2 -3.55283 -0.587 0
M  V30 14615 C 1414.05 -4.44799 0.668877 0
M  V30 14616 C 1415.37 -4.17238 -1.40003 0
M  V30 14617 H 1412.49 -0.730901 -0.0946202 0
M  V30 14618 H 1415.13 -1.84497 0.453958 0
M  V30 14619 H 1413.28 -3.69536 -1.19899 0
M  V30 14620 H 1414.96 -4.42398 1.30698 0
M  V30 14621 H 1413.2 -4.14005 1.29547 0
M  V30 14622 H 1413.87 -5.5056 0.398523 0
M  V30 14623 H 1416.35 -4.06631 -0.88262 0
M  V30 14624 H 1415.22 -5.2523 -1.59451 0
M  V30 14625 H 1415.48 -3.71309 -2.39962 0
M  V30 14626 N 1414.54 -0.0635198 -1.57472 0
M  V30 14627 C 1415.95 0.470372 -1.80678 0
M  V30 14628 C 1416.3 1.70158 -0.976771 0
M  V30 14629 O 1415.43 2.15502 -0.196893 0
M  V30 14630 C 1416.02 0.860129 -3.277 0
M  V30 14631 C 1414.58 1.33893 -3.51781 0
M  V30 14632 C 1413.73 0.320078 -2.75447 0
M  V30 14633 H 1416.68 -0.289295 -1.56041 0
M  V30 14634 H 1416.7 1.72216 -3.39296 0
M  V30 14635 H 1416.21 -0.0361525 -3.88083 0
M  V30 14636 H 1414.31 2.25399 -2.96692 0
M  V30 14637 H 1414.43 1.32257 -4.60483 0
M  V30 14638 H 1412.79 0.795601 -2.41955 0
M  V30 14639 H 1413.57 -0.568332 -3.38563 0
M  V30 14640 N 1416.02 1.56195 0.209972 0
M  V30 14641 C 1417.27 1.79745 0.932638 0
M  V30 14642 C 1417.59 0.634252 1.83868 0
M  V30 14643 O 1416.85 -0.380798 1.91959 0
M  V30 14644 C 1417.15 3.09154 1.79328 0
M  V30 14645 C 1416.81 4.38754 1.03949 0
M  V30 14646 C 1415.48 4.73965 0.831308 0
M  V30 14647 C 1417.83 5.18718 0.508031 0
M  V30 14648 C 1415.16 5.86646 0.0799547 0
M  V30 14649 C 1417.51 6.32182 -0.230037 0
M  V30 14650 C 1416.17 6.65986 -0.449366 0
M  V30 14651 H 1415.44 0.657732 0.341276 0
M  V30 14652 H 1418.09 1.90453 0.199998 0
M  V30 14653 H 1416.39 2.93618 2.59414 0
M  V30 14654 H 1418.09 3.24578 2.35478 0
M  V30 14655 H 1414.68 4.11114 1.21174 0
M  V30 14656 H 1418.87 4.91941 0.656306 0
M  V30 14657 H 1414.12 6.11318 -0.100092 0
M  V30 14658 H 1418.3 6.93367 -0.649296 0
M  V30 14659 H 1415.92 7.53142 -1.03349 0
M  V30 14660 N 1417.5 -0.477127 1.50204 0
M  V30 14661 C 1418.77 -1.23837 1.51406 0
M  V30 14662 C 1419.15 -2.09551 0.255278 0
M  V30 14663 O 1418.5 -2.15437 -0.761535 0
M  V30 14664 C 1418.71 -2.0746 2.80644 0
M  V30 14665 C 1420.06 -2.65852 3.31071 0
M  V30 14666 O 1421.08 -2.17708 2.81925 0
M  V30 14667 O 1419.94 -3.53556 4.16726 0
M  V30 14668 H 1417.04 -0.561638 0.607036 0
M  V30 14669 H 1419.58 -0.489442 1.62489 0
M  V30 14670 H 1418.36 -1.44258 3.63738 0
M  V30 14671 H 1417.98 -2.895 2.72536 0
M  V30 14672 N 1418.98 -1.3968 -0.729882 0
M  V30 14673 C 1419.89 -1.41094 -1.87429 0
M  V30 14674 C 1420.9 -0.305142 -1.71303 0
M  V30 14675 O 1422.08 -0.54744 -1.93817 0
M  V30 14676 C 1419.14 -1.25786 -3.23077 0
M  V30 14677 C 1418.2 -2.46382 -3.5156 0
M  V30 14678 C 1417.44 -2.31795 -4.80735 0
M  V30 14679 O 1417.66 -1.32415 -5.54818 0
M  V30 14680 O 1416.59 -3.20883 -5.09232 0
M  V30 14681 H 1420.42 -2.37571 -1.89192 0
M  V30 14682 H 1418.01 -1.2085 -0.878389 0
M  V30 14683 H 1419.89 -1.19402 -4.0413 0
M  V30 14684 H 1418.56 -0.324065 -3.22074 0
M  V30 14685 H 1417.47 -2.58343 -2.70573 0
M  V30 14686 H 1418.8 -3.38473 -3.57347 0
M  V30 14687 N 1420.45 0.960609 -1.2494 0
M  V30 14688 C 1421.7 1.69884 -1.08731 0
M  V30 14689 C 1422.02 1.92018 0.372602 0
M  V30 14690 O 1423.22 2.6348 0.655018 0
M  V30 14691 C 1421.68 3.05815 -1.8975 0
M  V30 14692 C 1421.29 2.91498 -3.40196 0
M  V30 14693 C 1423.03 3.83462 -1.82092 0
M  V30 14694 C 1420.94 4.22783 -4.13532 0
M  V30 14695 H 1419.87 0.637087 -0.403281 0
M  V30 14696 H 1422.52 1.06987 -1.49084 0
M  V30 14697 H 1420.9 3.69582 -1.42216 0
M  V30 14698 H 1422.07 2.367 -3.9536 0
M  V30 14699 H 1420.39 2.27312 -3.48882 0
M  V30 14700 H 1422.99 4.8069 -2.34181 0
M  V30 14701 H 1423.33 4.08782 -0.787597 0
M  V30 14702 H 1423.86 3.26435 -2.27344 0
M  V30 14703 H 1420.6 4.02653 -5.17253 0
M  V30 14704 H 1420.12 4.77369 -3.63152 0
M  V30 14705 H 1421.8 4.91361 -4.2092 0
M  V30 14706 N 1421.93 1.0643 1.16234 0
M  V30 14707 C 1423.16 0.802644 1.90697 0
M  V30 14708 C 1423.58 -0.643145 1.77508 0
M  V30 14709 O 1422.93 -1.4404 1.12065 0
M  V30 14710 C 1422.98 1.18984 3.41358 0
M  V30 14711 O 1422.7 2.5789 3.54153 0
M  V30 14712 C 1424.21 0.956132 4.32866 0
M  V30 14713 H 1421.43 0.290891 0.604668 0
M  V30 14714 H 1423.97 1.41829 1.47325 0
M  V30 14715 H 1422.12 0.618703 3.82428 0
M  V30 14716 H 1422.54 2.73431 4.47589 0
M  V30 14717 H 1424.01 1.27667 5.37034 0
M  V30 14718 H 1424.49 -0.108062 4.39067 0
M  V30 14719 H 1425.1 1.51172 3.97526 0
M  V30 14720 N 1423.41 -1.329 0.847073 0
M  V30 14721 C 1424.66 -1.9712 0.445872 0
M  V30 14722 C 1424.98 -1.67398 -1.00014 0
M  V30 14723 O 1424.25 -0.977204 -1.69787 0
M  V30 14724 H 1422.83 -0.729247 0.161887 0
M  V30 14725 H 1425.49 -1.62118 1.08184 0
M  V30 14726 H 1424.59 -3.06575 0.584676 0
M  V30 14727 N 1424.89 -0.604284 -1.45555 0
M  V30 14728 C 1426.11 -0.102634 -2.07146 0
M  V30 14729 C 1426.54 1.20239 -1.44652 0
M  V30 14730 O 1425.9 1.73133 -0.538033 0
M  V30 14731 C 1425.94 0.0270231 -3.6059 0
M  V30 14732 O 1425.05 1.0781 -3.98059 0
M  V30 14733 H 1424.39 -0.0725667 -0.660023 0
M  V30 14734 H 1426.92 -0.833355 -1.86859 0
M  V30 14735 H 1426.93 0.226299 -4.07372 0
M  V30 14736 H 1425.6 -0.925896 -4.05463 0
M  V30 14737 H 1424.18 0.855552 -3.62953 0
M  V30 14738 N 1426.37 1.53816 -0.343257 0
M  V30 14739 C 1427.3 2.22552 0.548015 0
M  V30 14740 C 1428.31 1.23202 1.06419 0
M  V30 14741 O 1429.5 1.49559 0.974394 0
M  V30 14742 C 1426.6 2.89197 1.76687 0
M  V30 14743 C 1425.77 4.14859 1.38603 0
M  V30 14744 C 1424.83 4.64917 2.46453 0
M  V30 14745 O 1423.86 5.29135 2.09773 0
M  V30 14746 N 1425.06 4.4082 3.77701 0
M  V30 14747 H 1427.83 2.99672 -0.040645 0
M  V30 14748 H 1425.39 1.61033 -0.167368 0
M  V30 14749 H 1427.38 3.19601 2.48268 0
M  V30 14750 H 1425.95 2.15664 2.26291 0
M  V30 14751 H 1425.17 3.91003 0.501001 0
M  V30 14752 H 1426.46 4.96599 1.10756 0
M  V30 14753 H 1425.85 3.8946 4.1029 0
M  V30 14754 H 1424.41 4.7583 4.45453 0
M  V30 14755 N 1427.84 0.0718701 1.57436 0
M  V30 14756 C 1428.78 -0.924911 2.09709 0
M  V30 14757 C 1429.79 -1.26136 1.02925 0
M  V30 14758 O 1430.98 -1.21853 1.30438 0
M  V30 14759 C 1428.08 -2.24072 2.54254 0
M  V30 14760 C 1427.25 -2.0831 3.84611 0
M  V30 14761 C 1426.31 -3.23196 4.15248 0
M  V30 14762 O 1425.34 -2.98184 4.84846 0
M  V30 14763 N 1426.54 -4.48293 3.688 0
M  V30 14764 H 1429.3 -0.478605 2.95854 0
M  V30 14765 H 1426.86 -0.113853 1.61499 0
M  V30 14766 H 1428.86 -2.99835 2.71811 0
M  V30 14767 H 1427.43 -2.60201 1.73246 0
M  V30 14768 H 1426.65 -1.17014 3.76432 0
M  V30 14769 H 1427.93 -1.9503 4.69937 0
M  V30 14770 H 1427.33 -4.71501 3.12575 0
M  V30 14771 H 1425.89 -5.21082 3.91556 0
M  V30 14772 N 1429.32 -1.56304 -0.201686 0
M  V30 14773 C 1430.25 -1.90538 -1.27389 0
M  V30 14774 C 1431.27 -0.795422 -1.42045 0
M  V30 14775 O 1432.46 -1.07381 -1.42589 0
M  V30 14776 C 1429.56 -2.11638 -2.64694 0
M  V30 14777 C 1428.73 -3.42755 -2.71731 0
M  V30 14778 C 1427.79 -3.53047 -3.90185 0
M  V30 14779 O 1426.81 -4.25923 -3.77595 0
M  V30 14780 N 1428.02 -2.85649 -5.05356 0
M  V30 14781 H 1430.78 -2.83106 -0.983411 0
M  V30 14782 H 1428.34 -1.57092 -0.391638 0
M  V30 14783 H 1430.33 -2.15818 -3.42352 0
M  V30 14784 H 1428.9 -1.256 -2.86258 0
M  V30 14785 H 1428.12 -3.50501 -1.80397 0
M  V30 14786 H 1429.41 -4.29092 -2.73418 0
M  V30 14787 H 1428.81 -2.26256 -5.18483 0
M  V30 14788 H 1427.37 -2.95465 -5.80985 0
M  V30 14789 N 1430.8 0.469154 -1.50455 0
M  V30 14790 C 1431.75 1.56691 -1.6946 0
M  V30 14791 C 1432.72 1.57217 -0.535921 0
M  V30 14792 O 1433.9 1.74717 -0.766715 0
M  V30 14793 C 1431.04 2.94651 -1.79651 0
M  V30 14794 C 1430.16 3.03899 -3.07033 0
M  V30 14795 C 1429.29 4.32786 -3.08009 0
M  V30 14796 C 1428.33 4.35784 -4.29836 0
M  V30 14797 N 1427.47 5.56145 -4.28541 0
M  V30 14798 H 1432.31 1.39791 -2.63178 0
M  V30 14799 H 1429.84 0.679628 -1.30459 0
M  V30 14800 H 1431.8 3.74658 -1.83541 0
M  V30 14801 H 1430.43 3.10182 -0.893713 0
M  V30 14802 H 1429.48 2.16754 -3.12605 0
M  V30 14803 H 1430.8 3.01974 -3.97005 0
M  V30 14804 H 1429.95 5.21141 -3.10639 0
M  V30 14805 H 1428.69 4.37323 -2.1587 0
M  V30 14806 H 1427.69 3.45825 -4.27417 0
M  V30 14807 H 1428.92 4.32937 -5.23204 0
M  V30 14808 H 1426.86 5.61464 -3.39256 0
M  V30 14809 H 1426.78 5.55969 -5.12284 0
M  V30 14810 H 1428.05 6.4662 -4.35319 0
M  V30 14811 N 1432.28 1.40065 0.722464 0
M  V30 14812 C 1433.52 1.38175 1.48444 0
M  V30 14813 C 1433.86 -0.0182857 1.94191 0
M  V30 14814 O 1433.13 -0.985638 1.67677 0
M  V30 14815 C 1433.42 2.36518 2.71535 0
M  V30 14816 C 1433.27 3.85517 2.31726 0
M  V30 14817 C 1434.59 2.325 3.73673 0
M  V30 14818 H 1431.71 0.503221 0.538458 0
M  V30 14819 H 1434.35 1.7115 0.825087 0
M  V30 14820 H 1432.5 2.08529 3.27793 0
M  V30 14821 H 1434.17 4.24306 1.81003 0
M  V30 14822 H 1432.41 4.01684 1.63807 0
M  V30 14823 H 1433.08 4.49834 3.19928 0
M  V30 14824 H 1435.56 2.57277 3.27029 0
M  V30 14825 H 1434.44 3.03369 4.57447 0
M  V30 14826 H 1434.7 1.33427 4.21485 0
M  V30 14827 N 1433.76 -0.95397 1.25448 0
M  V30 14828 C 1434.7 -2.05075 1.0589 0
M  V30 14829 C 1435.67 -1.66069 -0.0321545 0
M  V30 14830 O 1436.86 -1.90389 0.125152 0
M  V30 14831 C 1434 -3.38246 0.684391 0
M  V30 14832 C 1433.11 -3.90366 1.85037 0
M  V30 14833 C 1432.25 -5.11864 1.42016 0
M  V30 14834 C 1431.29 -5.56214 2.55523 0
M  V30 14835 N 1430.42 -6.68924 2.13272 0
M  V30 14836 H 1435.26 -2.21137 1.99755 0
M  V30 14837 H 1432.8 -1.08366 0.994742 0
M  V30 14838 H 1434.76 -4.14785 0.448209 0
M  V30 14839 H 1433.39 -3.22068 -0.217273 0
M  V30 14840 H 1432.44 -3.1034 2.19984 0
M  V30 14841 H 1433.75 -4.19228 2.70276 0
M  V30 14842 H 1432.91 -5.95823 1.14366 0
M  V30 14843 H 1431.65 -4.84718 0.538492 0
M  V30 14844 H 1430.65 -4.7082 2.83916 0
M  V30 14845 H 1431.88 -5.85368 3.44268 0
M  V30 14846 H 1429.82 -6.43486 1.27523 0
M  V30 14847 H 1429.74 -6.97307 2.92059 0
M  V30 14848 H 1431.01 -7.5629 1.88801 0
M  V30 14849 N 1435.24 -1.07045 -1.15668 0
M  V30 14850 C 1436.17 -0.645945 -2.1991 0
M  V30 14851 C 1437.18 0.29995 -1.60013 0
M  V30 14852 O 1438.37 0.0897537 -1.78274 0
M  V30 14853 C 1435.47 0.0721917 -3.38823 0
M  V30 14854 C 1434.64 -0.889103 -4.28268 0
M  V30 14855 C 1433.7 -0.208829 -5.25785 0
M  V30 14856 O 1432.73 -0.848894 -5.62834 0
M  V30 14857 N 1433.93 1.04671 -5.70985 0
M  V30 14858 H 1436.69 -1.54266 -2.56948 0
M  V30 14859 H 1434.26 -0.954736 -1.30753 0
M  V30 14860 H 1436.25 0.537882 -4.0111 0
M  V30 14861 H 1434.82 0.870805 -3.00226 0
M  V30 14862 H 1434.04 -1.53399 -3.63129 0
M  V30 14863 H 1435.33 -1.54097 -4.84904 0
M  V30 14864 H 1434.72 1.58673 -5.42991 0
M  V30 14865 H 1433.28 1.45613 -6.35327 0
M  V30 14866 N 1436.71 1.32449 -0.85411 0
M  V30 14867 C 1438.13 1.50046 -0.543895 0
M  V30 14868 C 1438.33 1.78985 0.925561 0
M  V30 14869 O 1437.39 1.85909 1.70862 0
M  V30 14870 C 1438.7 2.64499 -1.43041 0
M  V30 14871 C 1440.25 2.78384 -1.43078 0
M  V30 14872 C 1440.72 3.95915 -2.3025 0
M  V30 14873 N 1442.21 4.03176 -2.28043 0
M  V30 14874 C 1442.95 4.9335 -2.92221 0
M  V30 14875 N 1442.44 5.88536 -3.6551 0
M  V30 14876 N 1444.24 4.86468 -2.81612 0
M  V30 14877 H 1436.39 1.11931 -1.80514 0
M  V30 14878 H 1438.65 0.551626 -0.770982 0
M  V30 14879 H 1438.36 2.49842 -2.47532 0
M  V30 14880 H 1438.23 3.60269 -1.11742 0
M  V30 14881 H 1440.62 2.92464 -0.393529 0
M  V30 14882 H 1440.7 1.83329 -1.78393 0
M  V30 14883 H 1440.34 3.82594 -3.34043 0
M  V30 14884 H 1440.27 4.90245 -1.92268 0
M  V30 14885 H 1442.76 3.35064 -1.74759 0
M  V30 14886 H 1443.08 6.54038 -4.11648 0
M  V30 14887 H 1441.42 5.88564 -3.69618 0
M  V30 14888 H 1444.61 4.11076 -2.23907 0
M  V30 14889 H 1444.79 5.56542 -3.3191 0
M  V30 14890 N 1438.19 0.611994 1.45232 0
M  V30 14891 C 1439.42 0.113618 2.07089 0
M  V30 14892 C 1439.84 -1.1947 1.45288 0
M  V30 14893 O 1439.2 -1.72845 0.547207 0
M  V30 14894 C 1439.25 -0.00789978 3.60599 0
M  V30 14895 O 1438.35 -1.05697 3.98625 0
M  V30 14896 H 1437.69 0.076066 0.659629 0
M  V30 14897 H 1440.22 0.843253 1.86415 0
M  V30 14898 H 1440.23 -0.204692 4.07486 0
M  V30 14899 H 1438.91 0.947386 4.04966 0
M  V30 14900 H 1437.48 -0.836291 3.63401 0
M  V30 14901 N 1439.67 -1.53632 0.351409 0
M  V30 14902 C 1440.6 -2.28217 -0.49391 0
M  V30 14903 C 1441.58 -1.30085 -1.09599 0
M  V30 14904 O 1442.77 -1.58938 -1.1159 0
M  V30 14905 C 1439.9 -3.06085 -1.64102 0
M  V30 14906 C 1438.85 -4.11786 -1.16689 0
M  V30 14907 C 1438.18 -4.77654 -2.40314 0
M  V30 14908 C 1439.48 -5.21644 -0.261742 0
M  V30 14909 H 1441.17 -2.99125 0.1283 0
M  V30 14910 H 1438.72 -1.43861 0.0631462 0
M  V30 14911 H 1440.67 -3.57003 -2.2389 0
M  V30 14912 H 1439.39 -2.32842 -2.29025 0
M  V30 14913 H 1438.05 -3.61792 -0.591784 0
M  V30 14914 H 1437.7 -4.00997 -3.03661 0
M  V30 14915 H 1437.4 -5.49072 -2.09268 0
M  V30 14916 H 1438.92 -5.3136 -3.00813 0
M  V30 14917 H 1440.34 -5.6815 -0.766689 0
M  V30 14918 H 1438.73 -6.00085 -0.0428132 0
M  V30 14919 H 1439.8 -4.79821 0.699999 0
M  V30 14920 N 1441.15 -0.0802183 -1.57396 0
M  V30 14921 C 1442.08 0.913777 -2.10197 0
M  V30 14922 C 1443.09 1.25588 -1.03593 0
M  V30 14923 O 1444.28 1.21159 -1.31083 0
M  V30 14924 C 1441.38 2.2272 -2.55439 0
M  V30 14925 C 1440.55 2.06268 -3.8571 0
M  V30 14926 C 1439.61 3.20989 -4.16956 0
M  V30 14927 O 1438.64 2.95608 -4.8642 0
M  V30 14928 N 1439.84 4.46331 -3.71172 0
M  V30 14929 H 1442.61 0.462908 -2.96103 0
M  V30 14930 H 1440.17 0.105287 -1.61557 0
M  V30 14931 H 1442.16 2.98389 -2.73397 0
M  V30 14932 H 1440.73 2.59278 -1.74624 0
M  V30 14933 H 1439.95 1.15016 -3.77048 0
M  V30 14934 H 1441.24 1.92535 -4.70965 0
M  V30 14935 H 1440.64 4.69837 -3.15071 0
M  V30 14936 H 1439.19 5.18999 -3.94314 0
M  V30 14937 N 1442.63 1.56409 0.193394 0
M  V30 14938 C 1443.57 1.94681 1.23968 0
M  V30 14939 C 1444.54 0.807634 1.45143 0
M  V30 14940 O 1445.73 1.06593 1.58248 0
M  V30 14941 C 1442.87 2.29306 2.57901 0
M  V30 14942 C 1441.98 3.56296 2.4429 0
M  V30 14943 C 1441.12 3.80235 3.70938 0
M  V30 14944 C 1440.15 5.00645 3.52167 0
M  V30 14945 N 1439.29 5.20829 4.70831 0
M  V30 14946 H 1444.13 2.83884 0.906298 0
M  V30 14947 H 1441.67 1.40486 0.436146 0
M  V30 14948 H 1443.63 2.47398 3.35932 0
M  V30 14949 H 1442.26 1.43241 2.89278 0
M  V30 14950 H 1441.31 3.46241 1.57547 0
M  V30 14951 H 1442.62 4.44483 2.26354 0
M  V30 14952 H 1441.77 3.98575 4.57408 0
M  V30 14953 H 1440.51 2.90381 3.91829 0
M  V30 14954 H 1439.52 4.82225 2.64081 0
M  V30 14955 H 1440.74 5.92009 3.32719 0
M  V30 14956 H 1438.69 4.33923 4.91983 0
M  V30 14957 H 1438.61 6.03199 4.55726 0
M  V30 14958 H 1439.87 5.4363 5.58648 0
M  V30 14959 N 1444.1 -0.461169 1.50702 0
M  V30 14960 C 1445.03 -1.56576 1.73223 0
M  V30 14961 C 1446.01 -1.59855 0.581401 0
M  V30 14962 O 1447.2 -1.75964 0.821602 0
M  V30 14963 C 1444.33 -2.94835 1.83548 0
M  V30 14964 C 1443.28 -3.06421 2.98815 0
M  V30 14965 C 1442.61 -4.46425 2.94293 0
M  V30 14966 C 1443.91 -2.82714 4.3917 0
M  V30 14967 H 1445.6 -1.37982 2.65709 0
M  V30 14968 H 1443.15 -0.662362 1.27862 0
M  V30 14969 H 1445.1 -3.72047 1.97887 0
M  V30 14970 H 1443.83 -3.14608 0.876906 0
M  V30 14971 H 1442.49 -2.31644 2.84142 0
M  V30 14972 H 1442.13 -4.63131 1.96262 0
M  V30 14973 H 1441.83 -4.55111 3.71682 0
M  V30 14974 H 1443.36 -5.25644 3.10695 0
M  V30 14975 H 1444.77 -3.4967 4.54317 0
M  V30 14976 H 1443.17 -3.02835 5.18084 0
M  V30 14977 H 1444.24 -1.78492 4.50853 0
M  V30 14978 N 1445.58 -1.40446 -0.715026 0
M  V30 14979 C 1446.81 -1.42263 -1.50917 0
M  V30 14980 C 1447.23 -0.0242402 -1.88084 0
M  V30 14981 O 1446.59 0.967817 -1.53307 0
M  V30 14982 C 1446.64 -2.31998 -2.7606 0
M  V30 14983 O 1445.74 -1.76361 -3.72787 0
M  V30 14984 H 1445.08 -0.483614 -0.454988 0
M  V30 14985 H 1447.61 -1.84682 -0.880549 0
M  V30 14986 H 1447.62 -2.47204 -3.24583 0
M  V30 14987 H 1446.3 -3.33614 -2.48343 0
M  V30 14988 H 1444.87 -1.70504 -3.31636 0
M  V30 14989 N 1447.06 0.947303 -1.25952 0
M  V30 14990 C 1448.28 1.73261 -1.13997 0
M  V30 14991 C 1448.71 1.85666 0.301639 0
M  V30 14992 O 1448.07 1.34244 1.21854 0
M  V30 14993 C 1448.12 3.12046 -1.8072 0
M  V30 14994 O 1447.22 3.97684 -1.09182 0
M  V30 14995 H 1446.56 0.53182 -0.397572 0
M  V30 14996 H 1449.09 1.18689 -1.66656 0
M  V30 14997 H 1449.1 3.62468 -1.87299 0
M  V30 14998 H 1447.78 3.02334 -2.856 0
M  V30 14999 H 1446.35 3.56141 -1.10536 0
M  V30 15000 N 1448.54 1.07657 1.15099 0
M  V30 15001 C 1449.95 0.802696 1.37945 0
M  V30 15002 C 1450.15 -0.591622 1.92619 0
M  V30 15003 O 1449.21 -1.34979 2.13394 0
M  V30 15004 C 1450.52 1.87907 2.34759 0
M  V30 15005 C 1452.07 1.90418 2.48415 0
M  V30 15006 C 1452.55 2.97148 3.48521 0
M  V30 15007 N 1454.04 2.96271 3.56059 0
M  V30 15008 C 1454.77 3.75498 4.33346 0
M  V30 15009 N 1454.27 4.64583 5.1394 0
M  V30 15010 N 1456.06 3.63831 4.28466 0
M  V30 15011 H 1448.21 1.97578 0.779537 0
M  V30 15012 H 1450.48 0.856978 0.405331 0
M  V30 15013 H 1450.18 2.8811 2.01707 0
M  V30 15014 H 1450.06 1.74183 3.34575 0
M  V30 15015 H 1452.44 0.908655 2.80762 0
M  V30 15016 H 1452.52 2.0822 1.48586 0
M  V30 15017 H 1452.17 3.96903 3.16908 0
M  V30 15018 H 1452.1 2.76593 4.48112 0
M  V30 15019 H 1454.59 2.31697 2.98538 0
M  V30 15020 H 1454.9 5.2166 5.70167 0
M  V30 15021 H 1453.25 4.6863 5.13236 0
M  V30 15022 H 1456.44 2.93609 3.6457 0
M  V30 15023 H 1456.61 4.25818 4.8845 0
M  V30 15024 N 1450.02 -1.31994 0.861122 0
M  V30 15025 C 1450.95 -2.27632 0.267681 0
M  V30 15026 C 1451.96 -1.52709 -0.564265 0
M  V30 15027 O 1453.15 -1.74239 -0.3877 0
M  V30 15028 C 1450.25 -3.32805 -0.639856 0
M  V30 15029 C 1449.42 -4.37116 0.157676 0
M  V30 15030 C 1448.48 -5.21832 -0.676624 0
M  V30 15031 O 1447.51 -5.69098 -0.107822 0
M  V30 15032 N 1448.71 -5.45317 -1.99022 0
M  V30 15033 H 1451.48 -2.79195 1.0895 0
M  V30 15034 H 1449.04 -1.44923 0.721733 0
M  V30 15035 H 1451.03 -3.86391 -1.20348 0
M  V30 15036 H 1449.6 -2.81351 -1.36236 0
M  V30 15037 H 1448.82 -3.83724 0.902741 0
M  V30 15038 H 1450.11 -5.03889 0.70524 0
M  V30 15039 H 1449.5 -5.08656 -2.47558 0
M  V30 15040 H 1448.06 -6.01874 -2.50182 0
M  V30 15041 N 1451.49 -0.619688 -1.44906 0
M  V30 15042 C 1452.91 -0.284338 -1.57047 0
M  V30 15043 C 1453.11 1.21284 -1.60911 0
M  V30 15044 O 1452.17 1.99642 -1.54594 0
M  V30 15045 C 1453.48 -0.966179 -2.84755 0
M  V30 15046 C 1455.03 -0.943239 -2.98449 0
M  V30 15047 C 1455.5 -1.60532 -4.28945 0
M  V30 15048 N 1456.99 -1.57138 -4.35732 0
M  V30 15049 C 1457.73 -2.05271 -5.35399 0
M  V30 15050 N 1457.22 -2.61543 -6.41535 0
M  V30 15051 N 1459.02 -1.95967 -5.26833 0
M  V30 15052 H 1451.17 -1.59167 -1.40641 0
M  V30 15053 H 1453.43 -0.667458 -0.673204 0
M  V30 15054 H 1453.14 -2.02086 -2.87844 0
M  V30 15055 H 1453.01 -0.49688 -3.73913 0
M  V30 15056 H 1455.4 0.102932 -2.9492 0
M  V30 15057 H 1455.48 -1.45092 -2.1067 0
M  V30 15058 H 1455.12 -2.65088 -4.33233 0
M  V30 15059 H 1455.05 -1.07256 -5.15561 0
M  V30 15060 H 1457.54 -1.16042 -3.59643 0
M  V30 15061 H 1457.86 -2.96033 -7.13852 0
M  V30 15062 H 1456.2 -2.65588 -6.42252 0
M  V30 15063 H 1459.39 -1.51734 -4.42825 0
M  V30 15064 H 1459.57 -2.33791 -6.04356 0
M  V30 15065 N 1452.97 1.53444 -0.359552 0
M  V30 15066 C 1454.39 1.59598 -0.00824946 0
M  V30 15067 C 1454.59 1.37492 1.47303 0
M  V30 15068 O 1453.64 1.1771 2.23385 0
M  V30 15069 C 1454.96 2.9718 -0.45878 0
M  V30 15070 C 1456.51 3.1027 -0.412485 0
M  V30 15071 C 1456.98 4.50255 -0.838733 0
M  V30 15072 N 1458.47 4.56352 -0.793552 0
M  V30 15073 C 1459.21 5.62845 -1.09513 0
M  V30 15074 N 1458.7 6.77119 -1.46567 0
M  V30 15075 N 1460.5 5.52799 -1.01832 0
M  V30 15076 H 1452.65 1.66065 -1.32424 0
M  V30 15077 H 1454.91 0.778561 -0.540876 0
M  V30 15078 H 1454.62 3.18475 -1.4922 0
M  V30 15079 H 1454.49 3.7687 0.157741 0
M  V30 15080 H 1456.88 2.88689 0.611791 0
M  V30 15081 H 1456.96 2.32602 -1.06442 0
M  V30 15082 H 1456.6 4.72573 -1.8611 0
M  V30 15083 H 1456.53 5.26344 -0.164109 0
M  V30 15084 H 1459.02 3.74299 -0.52048 0
M  V30 15085 H 1459.34 7.54313 -1.68021 0
M  V30 15086 H 1457.68 6.78525 -1.50427 0
M  V30 15087 H 1460.87 4.62403 -0.728059 0
M  V30 15088 H 1461.04 6.35698 -1.25668 0
M  V30 15089 N 1454.45 0.0885642 1.57351 0
M  V30 15090 C 1455.68 -0.585238 1.9845 0
M  V30 15091 C 1456.09 -1.62127 0.967483 0
M  V30 15092 O 1455.45 -1.82448 -0.0437565 0
M  V30 15093 C 1455.5 -1.23881 3.39611 0
M  V30 15094 O 1455.22 -0.244223 4.37419 0
M  V30 15095 C 1456.72 -1.99885 3.95678 0
M  V30 15096 H 1453.94 -0.157396 0.652279 0
M  V30 15097 H 1456.49 0.165923 2.03826 0
M  V30 15098 H 1454.64 -1.94094 3.3527 0
M  V30 15099 H 1455.06 -0.715149 5.19602 0
M  V30 15100 H 1456.53 -2.40983 4.9662 0
M  V30 15101 H 1457.01 -2.8621 3.33137 0
M  V30 15102 H 1457.61 -1.34501 4.03472 0
M  V30 15103 N 1455.93 -1.56509 -0.185096 0
M  V30 15104 C 1456.88 -1.95336 -1.22934 0
M  V30 15105 C 1457.85 -0.81532 -1.44713 0
M  V30 15106 O 1459.03 -1.07431 -1.57681 0
M  V30 15107 C 1456.17 -2.30671 -2.56681 0
M  V30 15108 C 1455.28 -3.57586 -2.42397 0
M  V30 15109 C 1454.42 -3.82197 -3.68916 0
M  V30 15110 C 1453.46 -5.02505 -3.49507 0
M  V30 15111 N 1452.59 -5.23319 -4.68062 0
M  V30 15112 H 1457.43 -2.84361 -0.89123 0
M  V30 15113 H 1454.97 -1.40715 -0.428689 0
M  V30 15114 H 1456.93 -2.49176 -3.34615 0
M  V30 15115 H 1455.56 -1.44773 -2.88514 0
M  V30 15116 H 1454.61 -3.47072 -1.55709 0
M  V30 15117 H 1455.92 -4.45677 -2.23994 0
M  V30 15118 H 1455.08 -4.00996 -4.55288 0
M  V30 15119 H 1453.82 -2.92455 -3.90284 0
M  V30 15120 H 1452.82 -4.83619 -2.6152 0
M  V30 15121 H 1454.05 -5.93765 -3.29574 0
M  V30 15122 H 1451.99 -4.36526 -4.89674 0
M  V30 15123 H 1451.91 -6.05608 -4.52521 0
M  V30 15124 H 1453.18 -5.46585 -5.55757 0
M  V30 15125 N 1457.41 0.45317 -1.50944 0
M  V30 15126 C 1458.34 1.56678 -1.67287 0
M  V30 15127 C 1459.35 1.53089 -0.553853 0
M  V30 15128 O 1460.54 1.58152 -0.827653 0
M  V30 15129 C 1457.64 2.95585 -1.65779 0
M  V30 15130 C 1456.81 3.2385 -2.94007 0
M  V30 15131 C 1455.87 4.42401 -2.84899 0
M  V30 15132 O 1454.9 4.4183 -3.58853 0
M  V30 15133 N 1456.1 5.4508 -1.99671 0
M  V30 15134 H 1458.87 1.43069 -2.63347 0
M  V30 15135 H 1456.43 0.641875 -1.48632 0
M  V30 15136 H 1458.42 3.7289 -1.57275 0
M  V30 15137 H 1456.99 3.02872 -0.773791 0
M  V30 15138 H 1456.21 2.34991 -3.16501 0
M  V30 15139 H 1457.5 3.39554 -3.7892 0
M  V30 15140 H 1456.89 5.48374 -1.38933 0
M  V30 15141 H 1455.45 6.21298 -1.97057 0
M  V30 15142 N 1458.88 1.40823 0.707568 0
M  V30 15143 C 1460.16 1.3003 1.46122 0
M  V30 15144 C 1460.54 -0.0776873 2.10957 0
M  V30 15145 O 1459.89 -1.09109 2.00767 0
M  V30 15146 C 1460.1 2.44498 2.49042 0
M  V30 15147 C 1461.45 2.85106 3.14642 0
M  V30 15148 O 1462.47 2.44149 2.59364 0
M  V30 15149 O 1461.33 3.55892 4.14733 0
M  V30 15150 H 1458.42 0.511082 0.650172 0
M  V30 15151 H 1460.97 1.52761 0.739062 0
M  V30 15152 H 1459.74 3.36502 1.99705 0
M  V30 15153 H 1459.37 2.23579 3.28783 0
M  V30 15154 N 1460.36 -0.94061 1.26453 0
M  V30 15155 C 1461.3 -2.03945 1.0238 0
M  V30 15156 C 1462.27 -1.62518 -0.051622 0
M  V30 15157 O 1463.46 -1.88281 0.09091 0
M  V30 15158 C 1460.58 -3.34197 0.550464 0
M  V30 15159 C 1459.63 -3.94596 1.61853 0
M  V30 15160 S 1460.46 -4.28803 3.20762 0
M  V30 15161 C 1461.62 -5.62154 2.75198 0
M  V30 15162 H 1461.85 -2.24051 1.95419 0
M  V30 15163 H 1459.39 -1.08207 1.10139 0
M  V30 15164 H 1461.34 -4.09516 0.284031 0
M  V30 15165 H 1460 -3.12034 -0.359649 0
M  V30 15166 H 1459.2 -4.8855 1.23835 0
M  V30 15167 H 1458.8 -3.25812 1.83637 0
M  V30 15168 H 1461.09 -6.40889 2.19697 0
M  V30 15169 H 1462.03 -6.05057 3.67847 0
M  V30 15170 H 1462.44 -5.22058 2.14745 0
M  V30 15171 N 1461.84 -1.08266 -1.14527 0
M  V30 15172 C 1463.07 -0.832994 -1.89937 0
M  V30 15173 C 1463.49 0.608985 -1.77969 0
M  V30 15174 O 1462.85 1.42657 -1.11887 0
M  V30 15175 C 1462.9 -1.25782 -3.37952 0
M  V30 15176 O 1462 -0.408853 -4.10368 0
M  V30 15177 H 1461.34 -0.30267 -0.591005 0
M  V30 15178 H 1463.87 -1.44371 -1.44977 0
M  V30 15179 H 1463.88 -1.23804 -3.88763 0
M  V30 15180 H 1462.56 -2.30804 -3.4598 0
M  V30 15181 H 1461.13 -0.49192 -3.69641 0
M  V30 15182 N 1463.32 1.31536 -0.86811 0
M  V30 15183 C 1464.27 2.28562 -0.320602 0
M  V30 15184 C 1465.24 1.55648 0.579902 0
M  V30 15185 O 1466.42 1.83804 0.51194 0
M  V30 15186 C 1463.56 3.41836 0.473499 0
M  V30 15187 C 1462.67 4.29604 -0.454311 0
M  V30 15188 C 1461.81 5.30021 0.353733 0
M  V30 15189 C 1460.85 6.09434 -0.570624 0
M  V30 15190 N 1459.99 7.01812 0.201058 0
M  V30 15191 H 1464.83 2.74782 -1.15322 0
M  V30 15192 H 1462.36 1.35179 -0.580088 0
M  V30 15193 H 1464.32 4.06248 0.949662 0
M  V30 15194 H 1462.95 2.96732 1.27083 0
M  V30 15195 H 1462 3.65653 -1.04892 0
M  V30 15196 H 1463.31 4.85048 -1.16316 0
M  V30 15197 H 1462.47 6.001 0.892484 0
M  V30 15198 H 1461.21 4.75228 1.09589 0
M  V30 15199 H 1460.21 5.38247 -1.12115 0
M  V30 15200 H 1461.44 6.66314 -1.3116 0
M  V30 15201 H 1459.38 6.49431 0.926058 0
M  V30 15202 H 1459.3 7.54668 -0.448494 0
M  V30 15203 H 1460.57 7.76157 0.7211 0
M  V30 15204 N 1464.8 0.627364 1.44575 0
M  V30 15205 C 1466.02 0.135576 2.06956 0
M  V30 15206 C 1466.45 -1.17922 1.46547 0
M  V30 15207 O 1465.81 -1.72255 0.565509 0
M  V30 15208 C 1465.85 0.030347 3.60587 0
M  V30 15209 O 1464.96 -1.01464 3.99724 0
M  V30 15210 H 1464.3 0.083058 0.658785 0
M  V30 15211 H 1466.83 0.862977 1.8551 0
M  V30 15212 H 1466.84 -0.161461 4.0768 0
M  V30 15213 H 1465.51 0.990285 4.03938 0
M  V30 15214 H 1464.09 -0.797701 3.64268 0
M  V30 15215 N 1466.28 -1.53251 0.367684 0
M  V30 15216 C 1467.22 -2.27318 -0.4929 0
M  V30 15217 C 1468.22 -1.30376 -1.08159 0
M  V30 15218 O 1469.42 -1.47996 -1.02455 0
M  V30 15219 H 1465.8 -0.730709 -0.177677 0
M  V30 15220 H 1467.77 -2.98005 0.153525 0
M  V30 15221 C 1466.52 -3.07678 -1.61955 0
M  V30 15222 H 1465.84 -3.82117 -1.17587 0
M  V30 15223 H 1467.28 -3.62678 -2.19638 0
M  V30 15224 C 1465.74 -2.18648 -2.5631 0
M  V30 15225 O 1466.27 -1.79869 -3.5918 0
M  V30 15226 N 1464.48 -1.83239 -2.25548 0
M  V30 15227 H 1464.02 -2.14973 -1.4193 0
M  V30 15228 H 1463.98 -1.23957 -2.88933 0
M  V30 15229 N 1467.75 -0.0969077 -1.57302 0
M  V30 15230 C 1469 0.565254 -1.94034 0
M  V30 15231 C 1469.32 1.68609 -0.9796 0
M  V30 15232 O 1468.59 1.95874 -0.0319788 0
M  V30 15233 H 1467.17 0.211796 -0.716346 0
M  V30 15234 H 1469.83 -0.160665 -1.94237 0
M  V30 15235 H 1468.93 0.974268 -2.96504 0
M  V30 15236 N 1469.23 1.56605 0.176793 0
M  V30 15237 C 1470.18 1.95985 1.21896 0
M  V30 15238 C 1471.15 0.822983 1.44278 0
M  V30 15239 O 1472.33 1.08266 1.57109 0
M  V30 15240 C 1469.47 2.32029 2.55454 0
M  V30 15241 C 1468.59 3.58867 2.40497 0
M  V30 15242 C 1467.72 3.84148 3.66884 0
M  V30 15243 C 1466.76 5.04352 3.46837 0
M  V30 15244 N 1465.9 5.25794 4.6528 0
M  V30 15245 H 1470.74 2.84829 0.876137 0
M  V30 15246 H 1468.27 1.4094 0.421221 0
M  V30 15247 H 1470.23 2.50947 3.33289 0
M  V30 15248 H 1468.86 1.46301 2.87743 0
M  V30 15249 H 1467.91 3.47893 1.53866 0
M  V30 15250 H 1469.23 4.46859 2.21627 0
M  V30 15251 H 1468.38 4.03404 4.53155 0
M  V30 15252 H 1467.12 2.9452 3.88727 0
M  V30 15253 H 1466.12 4.84999 2.58952 0
M  V30 15254 H 1467.35 5.95505 3.26421 0
M  V30 15255 H 1465.3 4.39117 4.87352 0
M  V30 15256 H 1465.21 6.07999 4.49303 0
M  V30 15257 H 1466.48 5.49524 5.5285 0
M  V30 15258 N 1470.71 -0.445159 1.51182 0
M  V30 15259 C 1472.13 -0.781023 1.39184 0
M  V30 15260 C 1472.33 -1.95988 0.468076 0
M  V30 15261 O 1471.38 -2.52374 -0.0796822 0
M  V30 15262 C 1472.69 -1.06874 2.81067 0
M  V30 15263 C 1474.24 -1.17364 2.90163 0
M  V30 15264 C 1474.72 -1.49433 4.32936 0
M  V30 15265 N 1476.21 -1.56373 4.36006 0
M  V30 15266 C 1476.94 -1.82743 5.435 0
M  V30 15267 N 1476.44 -2.06958 6.61166 0
M  V30 15268 N 1478.23 -1.84461 5.30971 0
M  V30 15269 H 1470.38 0.331347 2.098 0
M  V30 15270 H 1472.65 0.0858102 0.944108 0
M  V30 15271 H 1472.35 -0.275306 3.50621 0
M  V30 15272 H 1472.23 -1.99839 3.19913 0
M  V30 15273 H 1474.61 -1.95771 2.20812 0
M  V30 15274 H 1474.69 -0.22318 2.54825 0
M  V30 15275 H 1474.34 -0.715573 5.02834 0
M  V30 15276 H 1474.27 -2.45673 4.65782 0
M  V30 15277 H 1476.76 -1.39595 3.51172 0
M  V30 15278 H 1477.07 -2.26427 7.38885 0
M  V30 15279 H 1475.42 -2.04297 6.64295 0
M  V30 15280 H 1478.61 -1.65057 4.38034 0
M  V30 15281 H 1478.78 -2.04675 6.14827 0
M  V30 15282 N 1472.19 -1.41197 -0.700089 0
M  V30 15283 C 1473.14 -1.39158 -1.80607 0
M  V30 15284 C 1474.12 -0.266653 -1.58675 0
M  V30 15285 O 1475.31 -0.506973 -1.69584 0
M  V30 15286 C 1472.44 -1.27176 -3.18875 0
M  V30 15287 C 1471.53 -2.44513 -3.46517 0
M  V30 15288 N 1471.92 -3.69984 -3.44885 0
M  V30 15289 C 1470.22 -2.38228 -3.77046 0
M  V30 15290 C 1470.92 -4.4778 -3.71306 0
M  V30 15291 N 1469.89 -3.77831 -3.90826 0
M  V30 15292 H 1473.7 -2.34093 -1.77701 0
M  V30 15293 H 1471.21 -1.35188 -0.899887 0
M  V30 15294 H 1473.21 -1.23797 -3.98095 0
M  V30 15295 H 1471.87 -0.332215 -3.22996 0
M  V30 15296 H 1472.88 -4.02932 -3.25371 0
M  V30 15297 H 1469.56 -1.52722 -3.88564 0
M  V30 15298 H 1470.95 -5.56695 -3.76218 0
M  V30 15299 N 1473.67 0.933891 -1.2695 0
M  V30 15300 C 1474.62 2.01966 -1.05801 0
M  V30 15301 C 1475.6 1.60896 0.0119868 0
M  V30 15302 O 1476.79 1.75799 -0.205827 0
M  V30 15303 C 1473.92 3.36073 -0.700695 0
M  V30 15304 C 1473.01 3.83606 -1.80852 0
M  V30 15305 N 1473.4 4.03713 -3.04712 0
M  V30 15306 C 1471.7 4.12586 -1.69378 0
M  V30 15307 C 1472.4 4.43199 -3.76762 0
M  V30 15308 N 1471.37 4.50319 -3.0449 0
M  V30 15309 H 1475.17 2.15534 -1.99806 0
M  V30 15310 H 1472.69 1.12027 -1.17574 0
M  V30 15311 H 1474.69 4.13513 -0.530316 0
M  V30 15312 H 1473.35 3.23872 0.231801 0
M  V30 15313 H 1474.36 3.90196 -3.4054 0
M  V30 15314 H 1471.03 4.09132 -0.831695 0
M  V30 15315 H 1472.42 4.66887 -4.83184 0
M  V30 15316 N 1475.14 1.08871 1.13951 0
M  V30 15317 C 1476.39 0.819665 1.84732 0
M  V30 15318 C 1476.71 -0.656535 1.83615 0
M  V30 15319 O 1475.98 -1.47614 1.28791 0
M  V30 15320 H 1474.56 0.30023 0.684011 0
M  V30 15321 H 1477.22 1.37568 1.38062 0
M  V30 15322 H 1476.32 1.16809 2.89417 0
M  V30 15323 N 1476.62 -1.31073 0.875073 0
M  V30 15324 C 1477.85 -2.00688 0.503179 0
M  V30 15325 C 1478.26 -1.65657 -0.905714 0
M  V30 15326 O 1477.62 -0.888468 -1.59413 0
M  V30 15327 C 1477.67 -3.55486 0.65666 0
M  V30 15328 O 1477.39 -3.89265 2.01007 0
M  V30 15329 C 1478.89 -4.42374 0.28645 0
M  V30 15330 H 1476.11 -0.641885 0.195512 0
M  V30 15331 H 1478.66 -1.67188 1.17765 0
M  V30 15332 H 1476.81 -3.87389 0.0296852 0
M  V30 15333 H 1477.23 -4.83978 2.02153 0
M  V30 15334 H 1478.7 -5.50205 0.444776 0
M  V30 15335 H 1479.18 -4.32312 -0.774789 0
M  V30 15336 H 1479.78 -4.15898 0.889336 0
M  V30 15337 N 1478.1 -0.635022 -1.4424 0
M  V30 15338 C 1479.51 -0.222982 -1.85364 0
M  V30 15339 C 1479.86 1.22648 -1.5314 0
M  V30 15340 O 1478.99 1.93373 -0.971384 0
M  V30 15341 C 1479.58 -0.397912 -3.36455 0
M  V30 15342 C 1478.14 -0.0403458 -3.76378 0
M  V30 15343 C 1477.29 -0.709451 -2.68071 0
M  V30 15344 H 1480.24 -0.839923 -1.34651 0
M  V30 15345 H 1480.26 0.361996 -3.78774 0
M  V30 15346 H 1479.77 -1.45294 -3.59877 0
M  V30 15347 H 1477.87 1.01279 -3.58571 0
M  V30 15348 H 1477.99 -0.453121 -4.76952 0
M  V30 15349 H 1476.35 -0.144386 -2.5429 0
M  V30 15350 H 1477.13 -1.76715 -2.94324 0
M  V30 15351 N 1479.58 1.53054 -0.375806 0
M  V30 15352 C 1480.81 2.0582 0.211135 0
M  V30 15353 C 1481.22 1.24856 1.4162 0
M  V30 15354 O 1480.58 0.291786 1.80152 0
M  V30 15355 C 1480.63 3.56577 0.594573 0
M  V30 15356 O 1480.35 4.34472 -0.562607 0
M  V30 15357 C 1481.85 4.25639 1.23882 0
M  V30 15358 H 1479.07 0.670085 0.0350268 0
M  V30 15359 H 1481.62 1.9732 -0.537135 0
M  V30 15360 H 1479.77 3.65194 1.29275 0
M  V30 15361 H 1480.18 5.23902 -0.250487 0
M  V30 15362 H 1481.66 5.32408 1.45759 0
M  V30 15363 H 1482.14 3.80001 2.20218 0
M  V30 15364 H 1482.74 4.21302 0.581786 0
M  V30 15365 N 1481.06 0.105248 1.57248 0
M  V30 15366 C 1482.28 -0.567515 1.99484 0
M  V30 15367 C 1482.71 -1.60298 0.984182 0
M  V30 15368 O 1482.06 -1.81242 -0.0459944 0
M  V30 15369 C 1482.11 -1.18271 3.40653 0
M  V30 15370 O 1481.22 -2.29843 3.42412 0
M  V30 15371 H 1480.56 -0.143069 0.648404 0
M  V30 15372 H 1483.09 0.189661 2.03719 0
M  V30 15373 H 1483.1 -1.52157 3.78566 0
M  V30 15374 H 1481.77 -0.424179 4.13731 0
M  V30 15375 H 1480.35 -1.975 3.16304 0
M  V30 15376 N 1482.53 -1.56697 -0.168486 0
M  V30 15377 C 1483.76 -1.86292 -0.900152 0
M  V30 15378 C 1484.18 -0.690968 -1.75702 0
M  V30 15379 O 1483.53 0.339855 -1.79308 0
M  V30 15380 C 1483.59 -3.14946 -1.77457 0
M  V30 15381 O 1483.31 -4.27625 -0.952267 0
M  V30 15382 C 1484.81 -3.57908 -2.61566 0
M  V30 15383 H 1482.03 -0.618003 -0.261369 0
M  V30 15384 H 1484.57 -2.03811 -0.16773 0
M  V30 15385 H 1482.73 -2.99246 -2.4603 0
M  V30 15386 H 1483.14 -5.01057 -1.55056 0
M  V30 15387 H 1484.61 -4.50823 -3.18532 0
M  V30 15388 H 1485.09 -2.82162 -3.36573 0
M  V30 15389 H 1485.7 -3.7623 -1.98321 0
M  V30 15390 N 1484.01 0.437135 -1.51416 0
M  V30 15391 C 1484.96 1.53061 -1.72745 0
M  V30 15392 C 1485.93 1.56045 -0.569149 0
M  V30 15393 O 1487.11 1.73052 -0.803602 0
M  V30 15394 C 1484.25 2.90774 -1.85861 0
M  V30 15395 C 1483.37 2.97318 -3.1341 0
M  V30 15396 C 1482.5 4.26156 -3.1712 0
M  V30 15397 C 1481.54 4.26568 -4.38983 0
M  V30 15398 N 1480.68 5.4693 -4.40241 0
M  V30 15399 H 1485.52 1.34177 -2.66084 0
M  V30 15400 H 1483.06 0.651803 -1.31871 0
M  V30 15401 H 1485.01 3.7068 -1.91447 0
M  V30 15402 H 1483.64 3.08216 -0.959306 0
M  V30 15403 H 1482.7 2.10074 -3.17132 0
M  V30 15404 H 1484.01 2.93485 -4.03321 0
M  V30 15405 H 1483.16 5.14435 -3.21623 0
M  V30 15406 H 1481.9 4.32646 -2.25098 0
M  V30 15407 H 1480.91 3.36681 -4.34656 0
M  V30 15408 H 1482.13 4.21741 -5.3227 0
M  V30 15409 H 1480.08 5.54141 -3.51089 0
M  V30 15410 H 1479.99 5.44977 -5.23962 0
M  V30 15411 H 1481.26 6.37241 -4.48937 0
M  V30 15412 N 1485.49 1.41566 0.692592 0
M  V30 15413 C 1486.44 1.43648 1.80648 0
M  V30 15414 C 1487.41 0.290497 1.6354 0
M  V30 15415 O 1488.59 0.491979 1.84348 0
M  V30 15416 C 1485.73 1.32733 3.18553 0
M  V30 15417 C 1484.85 2.57224 3.47073 0
M  V30 15418 C 1483.98 2.38581 4.74608 0
M  V30 15419 C 1483.02 3.58534 4.96105 0
M  V30 15420 N 1482.16 3.38942 6.14868 0
M  V30 15421 H 1487 2.38847 1.78203 0
M  V30 15422 H 1484.53 1.186 0.870193 0
M  V30 15423 H 1486.49 1.24405 3.9822 0
M  V30 15424 H 1485.12 0.411407 3.20168 0
M  V30 15425 H 1484.17 2.7599 2.6179 0
M  V30 15426 H 1485.49 3.46443 3.58858 0
M  V30 15427 H 1484.64 2.27738 5.62335 0
M  V30 15428 H 1483.38 1.46824 4.65074 0
M  V30 15429 H 1482.38 3.69828 4.06826 0
M  V30 15430 H 1483.61 4.51248 5.07496 0
M  V30 15431 H 1481.55 2.49887 6.06541 0
M  V30 15432 H 1481.47 4.21737 6.27434 0
M  V30 15433 H 1482.74 3.31877 7.05321 0
M  V30 15434 N 1486.97 -0.927146 1.27443 0
M  V30 15435 C 1488.2 -1.70896 1.16629 0
M  V30 15436 C 1488.61 -1.8676 -0.276811 0
M  V30 15437 O 1487.97 -1.38503 -1.18842 0
M  V30 15438 C 1488.02 -3.1083 1.84573 0
M  V30 15439 O 1487.74 -2.9571 3.23244 0
M  V30 15440 C 1489.24 -4.05159 1.79891 0
M  V30 15441 H 1486.46 -0.534638 0.405467 0
M  V30 15442 H 1489.01 -1.16134 1.68325 0
M  V30 15443 H 1487.16 -3.6245 1.3678 0
M  V30 15444 H 1487.57 -3.84181 3.57079 0
M  V30 15445 H 1489.05 -5.00859 2.32044 0
M  V30 15446 H 1489.53 -4.32426 0.768373 0
M  V30 15447 H 1490.13 -3.59464 2.273 0
M  V30 15448 N 1488.45 -1.09474 -1.13372 0
M  V30 15449 C 1489.38 -0.756441 -2.20908 0
M  V30 15450 C 1490.36 0.266113 -1.68006 0
M  V30 15451 O 1491.54 0.134067 -1.93737 0
M  V30 15452 C 1488.67 -0.176733 -3.4685 0
M  V30 15453 C 1487.63 -1.12886 -4.12845 0
M  V30 15454 C 1486.95 -0.410831 -5.33119 0
M  V30 15455 C 1488.25 -2.47148 -4.60125 0
M  V30 15456 H 1489.95 -1.65555 -2.49463 0
M  V30 15457 H 1487.49 -0.797458 -1.19902 0
M  V30 15458 H 1489.45 0.0720151 -4.21338 0
M  V30 15459 H 1488.17 0.757576 -3.17692 0
M  V30 15460 H 1486.83 -1.36289 -3.40325 0
M  V30 15461 H 1486.48 0.527632 -5.00225 0
M  V30 15462 H 1486.18 -1.04567 -5.78221 0
M  V30 15463 H 1487.7 -0.170394 -6.10362 0
M  V30 15464 H 1489.11 -2.27949 -5.26034 0
M  V30 15465 H 1487.51 -3.06425 -5.15969 0
M  V30 15466 H 1488.58 -3.07874 -3.74622 0
M  V30 15467 N 1489.92 1.30607 -0.882012 0
M  V30 15468 C 1490.87 2.2821 -0.344826 0
M  V30 15469 C 1491.84 1.56254 0.563361 0
M  V30 15470 O 1493.03 1.84336 0.492416 0
M  V30 15471 C 1490.17 3.42319 0.437216 0
M  V30 15472 C 1489.28 4.29098 -0.499851 0
M  V30 15473 C 1488.41 5.30366 0.297497 0
M  V30 15474 C 1487.45 6.08795 -0.63523 0
M  V30 15475 N 1486.59 7.01986 0.12661 0
M  V30 15476 H 1491.43 2.73543 -1.18229 0
M  V30 15477 H 1488.97 1.34556 -0.594392 0
M  V30 15478 H 1490.93 4.07232 0.906521 0
M  V30 15479 H 1489.56 2.98063 1.23928 0
M  V30 15480 H 1488.61 3.6452 -1.08764 0
M  V30 15481 H 1489.92 4.83787 -1.21454 0
M  V30 15482 H 1489.07 6.01013 0.828786 0
M  V30 15483 H 1487.81 4.76364 1.04542 0
M  V30 15484 H 1486.82 5.37028 -1.17817 0
M  V30 15485 H 1488.04 6.64885 -1.3822 0
M  V30 15486 H 1485.99 6.50376 0.857125 0
M  V30 15487 H 1485.91 7.5415 -0.528512 0
M  V30 15488 H 1487.17 7.76879 0.638738 0
M  V30 15489 N 1491.4 0.642663 1.43901 0
M  V30 15490 C 1492.81 0.232809 1.85243 0
M  V30 15491 C 1493.16 -1.21834 1.53789 0
M  V30 15492 O 1492.29 -1.92855 0.981625 0
M  V30 15493 C 1492.88 0.415749 3.36239 0
M  V30 15494 C 1491.44 0.0603055 3.76352 0
M  V30 15495 C 1490.59 0.723658 2.67691 0
M  V30 15496 H 1493.54 0.847052 1.34204 0
M  V30 15497 H 1493.56 -0.341903 3.78961 0
M  V30 15498 H 1493.07 1.472 3.59101 0
M  V30 15499 H 1491.18 -0.993761 3.59103 0
M  V30 15500 H 1491.29 0.478408 4.76705 0
M  V30 15501 H 1489.65 0.15787 2.5421 0
M  V30 15502 H 1490.44 1.78273 2.93383 0
M  V30 15503 N 1492.88 -1.52852 0.383918 0
M  V30 15504 C 1494.11 -2.05929 -0.200216 0
M  V30 15505 C 1494.52 -1.25606 -1.40956 0
M  V30 15506 O 1493.88 -0.301336 -1.79995 0
M  V30 15507 C 1493.93 -3.56887 -0.575655 0
M  V30 15508 O 1493.65 -4.34168 0.58564 0
M  V30 15509 C 1495.15 -4.2629 -1.21623 0
M  V30 15510 H 1492.37 -0.670261 -0.0314727 0
M  V30 15511 H 1494.92 -1.97032 0.547591 0
M  V30 15512 H 1493.07 -3.65875 -1.27336 0
M  V30 15513 H 1493.49 -5.23761 0.278267 0
M  V30 15514 H 1494.96 -5.33174 -1.42933 0
M  V30 15515 H 1495.44 -3.81163 -2.182 0
M  V30 15516 H 1496.04 -4.21605 -0.559435 0
M  V30 15517 N 1494.36 -0.113586 -1.5719 0
M  V30 15518 C 1495.59 0.552789 -1.99067 0
M  V30 15519 C 1496 1.61106 -0.992038 0
M  V30 15520 O 1495.34 1.83684 0.0240065 0
M  V30 15521 C 1495.4 1.24239 -3.3735 0
M  V30 15522 C 1495.07 0.332699 -4.55787 0
M  V30 15523 C 1496.06 -0.42654 -5.18147 0
M  V30 15524 C 1493.75 0.245351 -5.017 0
M  V30 15525 C 1495.74 -1.26091 -6.24804 0
M  V30 15526 C 1493.43 -0.592659 -6.08219 0
M  V30 15527 C 1494.43 -1.34443 -6.69637 0
M  V30 15528 O 1494.12 -2.16853 -7.74099 0
M  V30 15529 H 1493.85 0.15139 -0.65883 0
M  V30 15530 H 1496.4 -0.195113 -2.04471 0
M  V30 15531 H 1494.63 2.03725 -3.28684 0
M  V30 15532 H 1496.32 1.80513 -3.63552 0
M  V30 15533 H 1497.09 -0.368898 -4.83595 0
M  V30 15534 H 1492.97 0.820178 -4.53645 0
M  V30 15535 H 1496.51 -1.84818 -6.72672 0
M  V30 15536 H 1492.41 -0.651714 -6.42202 0
M  V30 15537 H 1493.17 -2.09736 -7.91172 0
M  V30 15538 N 1495.84 1.56784 0.160173 0
M  V30 15539 C 1497.25 1.51153 0.512352 0
M  V30 15540 C 1497.45 0.819774 1.84071 0
M  V30 15541 O 1496.51 0.384789 2.49551 0
M  V30 15542 C 1497.82 2.95906 0.534817 0
M  V30 15543 C 1499.37 3.06773 0.621248 0
M  V30 15544 C 1499.85 4.53006 0.674501 0
M  V30 15545 N 1501.34 4.57298 0.737087 0
M  V30 15546 C 1502.07 5.67805 0.799054 0
M  V30 15547 N 1501.57 6.87916 0.821171 0
M  V30 15548 N 1503.36 5.55804 0.838928 0
M  V30 15549 H 1495.51 2.00157 -0.710712 0
M  V30 15550 H 1497.77 0.91233 -0.257601 0
M  V30 15551 H 1497.48 3.49719 -0.372773 0
M  V30 15552 H 1497.35 3.51152 1.3774 0
M  V30 15553 H 1499.74 2.52987 1.51926 0
M  V30 15554 H 1499.82 2.54593 -0.248224 0
M  V30 15555 H 1499.47 5.07426 -0.219301 0
M  V30 15556 H 1499.4 5.02954 1.56028 0
M  V30 15557 H 1501.89 3.70825 0.727827 0
M  V30 15558 H 1502.2 7.67888 0.869938 0
M  V30 15559 H 1500.55 6.90504 0.789264 0
M  V30 15560 H 1503.74 4.60884 0.818728 0
M  V30 15561 H 1503.91 6.41945 0.883757 0
M  V30 15562 N 1497.32 -0.429099 1.51646 0
M  V30 15563 C 1498.54 -1.20006 1.68541 0
M  V30 15564 C 1498.96 -1.84806 0.386264 0
M  V30 15565 O 1498.32 -1.7106 -0.635988 0
M  V30 15566 C 1498.37 -2.27801 2.80694 0
M  V30 15567 O 1498.09 -1.65649 4.05576 0
M  V30 15568 C 1499.59 -3.17927 3.08929 0
M  V30 15569 H 1496.81 -0.361388 0.565367 0
M  V30 15570 H 1499.35 -0.507432 1.98104 0
M  V30 15571 H 1497.51 -2.92766 2.53706 0
M  V30 15572 H 1497.92 -2.36955 4.67924 0
M  V30 15573 H 1499.4 -3.8968 3.90965 0
M  V30 15574 H 1499.87 -3.79157 2.21668 0
M  V30 15575 H 1500.48 -2.58654 3.37606 0
M  V30 15576 N 1498.79 -1.41931 -0.685074 0
M  V30 15577 C 1500.2 -1.37279 -1.26536 0
M  V30 15578 C 1500.56 -0.0610089 -1.96105 0
M  V30 15579 O 1499.68 0.840508 -1.9941 0
M  V30 15580 C 1500.28 -2.48658 -2.30119 0
M  V30 15581 C 1498.83 -2.47371 -2.83698 0
M  V30 15582 C 1497.98 -2.2797 -1.57876 0
M  V30 15583 H 1500.93 -1.51294 -0.479132 0
M  V30 15584 H 1500.95 -2.18319 -3.11636 0
M  V30 15585 H 1500.47 -3.44118 -1.79456 0
M  V30 15586 H 1498.57 -1.55699 -3.3851 0
M  V30 15587 H 1498.68 -3.44052 -3.33414 0
M  V30 15588 H 1497.04 -1.7604 -1.84071 0
M  V30 15589 H 1497.83 -3.25471 -1.09194 0
M  V30 15590 N 1500.27 0.920374 -1.27933 0
M  V30 15591 C 1501.18 2.05525 -1.13123 0
M  V30 15592 C 1502.2 1.73899 -0.059421 0
M  V30 15593 O 1503.37 1.99617 -0.267386 0
M  V30 15594 C 1500.44 3.37637 -0.787551 0
M  V30 15595 C 1499.5 3.82914 -1.94101 0
M  V30 15596 C 1498.73 5.08721 -1.61364 0
M  V30 15597 O 1498.96 5.6798 -0.524918 0
M  V30 15598 O 1497.89 5.4955 -2.45517 0
M  V30 15599 H 1501.72 2.20935 -2.08378 0
M  V30 15600 H 1499.3 1.04071 -1.07189 0
M  V30 15601 H 1501.18 4.16968 -0.609544 0
M  V30 15602 H 1499.86 3.23417 0.135407 0
M  V30 15603 H 1498.76 3.04438 -2.17413 0
M  V30 15604 H 1500.1 4.01687 -2.84444 0
M  V30 15605 N 1501.75 1.10074 1.1279 0
M  V30 15606 C 1503.17 0.831776 1.36212 0
M  V30 15607 C 1503.37 -0.550632 1.93831 0
M  V30 15608 O 1502.42 -1.30422 2.16209 0
M  V30 15609 C 1503.73 1.92844 2.3072 0
M  V30 15610 C 1505.28 1.95645 2.4432 0
M  V30 15611 C 1505.76 3.04474 3.4214 0
M  V30 15612 N 1507.25 3.03756 3.49695 0
M  V30 15613 C 1507.98 3.84605 4.25284 0
M  V30 15614 N 1507.48 4.7538 5.0397 0
M  V30 15615 N 1509.27 3.72838 4.20652 0
M  V30 15616 H 1501.42 1.99187 0.737452 0
M  V30 15617 H 1503.69 0.865383 0.387062 0
M  V30 15618 H 1503.39 2.92323 1.9555 0
M  V30 15619 H 1503.27 1.81241 3.30805 0
M  V30 15620 H 1505.65 0.968004 2.78772 0
M  V30 15621 H 1505.73 2.11325 1.44136 0
M  V30 15622 H 1505.38 4.03536 3.08418 0
M  V30 15623 H 1505.31 2.86036 4.42144 0
M  V30 15624 H 1507.8 2.37977 2.93556 0
M  V30 15625 H 1508.11 5.33637 5.58974 0
M  V30 15626 H 1506.46 4.79411 5.0318 0
M  V30 15627 H 1509.65 3.01276 3.5826 0
M  V30 15628 H 1509.82 4.36083 4.79308 0
M  V30 15629 N 1503.23 -1.30138 0.888926 0
M  V30 15630 C 1504.19 -2.26299 0.363504 0
M  V30 15631 C 1505.19 -1.52951 -0.496244 0
M  V30 15632 O 1506.38 -1.71548 -0.302834 0
M  V30 15633 C 1503.51 -3.37482 -0.481544 0
M  V30 15634 H 1504.71 -2.7429 1.21265 0
M  V30 15635 H 1502.26 -1.41395 0.666124 0
M  V30 15636 H 1502.99 -2.94814 -1.35112 0
M  V30 15637 H 1502.78 -3.9187 0.134344 0
M  V30 15638 H 1504.27 -4.09048 -0.840816 0
M  V30 15639 N 1504.71 -0.650285 -1.43559 0
M  V30 15640 C 1506.12 -0.317586 -1.56408 0
M  V30 15641 C 1506.32 1.17844 -1.63447 0
M  V30 15642 O 1505.38 1.96318 -1.58794 0
M  V30 15643 C 1506.69 -1.02636 -2.82642 0
M  V30 15644 C 1508.24 -1.00633 -2.96381 0
M  V30 15645 C 1508.71 -1.69595 -4.25443 0
M  V30 15646 N 1510.2 -1.66345 -4.323 0
M  V30 15647 C 1510.94 -2.16581 -5.30924 0
M  V30 15648 N 1510.44 -2.75092 -6.35843 0
M  V30 15649 N 1512.23 -2.07098 -5.22558 0
M  V30 15650 H 1504.38 -1.62114 -1.37233 0
M  V30 15651 H 1506.64 -0.681588 -0.658895 0
M  V30 15652 H 1506.35 -2.08146 -2.83493 0
M  V30 15653 H 1506.22 -0.576081 -3.72775 0
M  V30 15654 H 1508.61 0.0403519 -2.95072 0
M  V30 15655 H 1508.69 -1.49528 -2.07545 0
M  V30 15656 H 1508.33 -2.74218 -4.27512 0
M  V30 15657 H 1508.26 -1.18168 -5.1317 0
M  V30 15658 H 1510.76 -1.23644 -3.571 0
M  V30 15659 H 1511.07 -3.11108 -7.07412 0
M  V30 15660 H 1509.41 -2.79152 -6.36474 0
M  V30 15661 H 1512.6 -1.61093 -4.39507 0
M  V30 15662 H 1512.78 -2.46557 -5.99261 0
M  V30 15663 N 1506.18 1.52647 -0.392018 0
M  V30 15664 C 1507.6 1.59544 -0.0421007 0
M  V30 15665 C 1507.8 1.40586 1.44353 0
M  V30 15666 O 1506.86 1.22422 2.20837 0
M  V30 15667 C 1508.17 2.9614 -0.521713 0
M  V30 15668 C 1509.72 3.09325 -0.478205 0
M  V30 15669 C 1510.19 4.48374 -0.93405 0
M  V30 15670 N 1511.68 4.54566 -0.890173 0
M  V30 15671 C 1512.42 5.60395 -1.21427 0
M  V30 15672 N 1511.91 6.73858 -1.60897 0
M  V30 15673 N 1513.71 5.50515 -1.13534 0
M  V30 15674 H 1505.86 1.63219 -1.35917 0
M  V30 15675 H 1508.12 0.766913 -0.557269 0
M  V30 15676 H 1507.83 3.15238 -1.55942 0
M  V30 15677 H 1507.7 3.7712 0.0777658 0
M  V30 15678 H 1510.09 2.89921 0.550418 0
M  V30 15679 H 1510.17 2.30292 -1.11352 0
M  V30 15680 H 1509.81 4.68519 -1.96092 0
M  V30 15681 H 1509.74 5.25878 -0.275717 0
M  V30 15682 H 1512.23 3.7311 -0.599758 0
M  V30 15683 H 1512.55 7.5058 -1.83983 0
M  V30 15684 H 1510.89 6.75182 -1.64786 0
M  V30 15685 H 1514.08 4.60755 -0.825977 0
M  V30 15686 H 1514.26 6.32889 -1.39124 0
M  V30 15687 N 1507.66 0.121921 1.57128 0
M  V30 15688 C 1508.61 -0.838414 2.12025 0
M  V30 15689 C 1509.6 -1.22623 1.04175 0
M  V30 15690 O 1510.79 -1.19683 1.30403 0
M  V30 15691 C 1507.92 -2.08733 2.72554 0
M  V30 15692 C 1507 -1.72374 3.87489 0
M  V30 15693 N 1507.39 -1.06706 4.94416 0
M  V30 15694 C 1505.69 -2.01813 3.97728 0
M  V30 15695 C 1506.39 -0.89551 5.74766 0
M  V30 15696 N 1505.37 -1.42144 5.24687 0
M  V30 15697 H 1509.17 -0.3272 2.92073 0
M  V30 15698 H 1506.69 -0.0804553 1.62201 0
M  V30 15699 H 1508.68 -2.78503 3.10229 0
M  V30 15700 H 1507.34 -2.60395 1.9397 0
M  V30 15701 H 1508.35 -0.730702 5.12719 0
M  V30 15702 H 1505.03 -2.55502 3.3019 0
M  V30 15703 H 1506.42 -0.379836 6.70826 0
M  V30 15704 N 1509.14 -1.56867 -0.151857 0
M  V30 15705 C 1510.09 -1.97899 -1.18763 0
M  V30 15706 C 1511.06 -0.845833 -1.42951 0
M  V30 15707 O 1512.24 -1.10751 -1.55367 0
M  V30 15708 C 1509.38 -2.36063 -2.5173 0
M  V30 15709 C 1508.5 -3.62647 -2.34757 0
M  V30 15710 C 1507.63 -3.89936 -3.60726 0
M  V30 15711 C 1506.67 -5.09806 -3.38769 0
M  V30 15712 N 1505.81 -5.33129 -4.56856 0
M  V30 15713 H 1510.65 -2.86187 -0.830713 0
M  V30 15714 H 1508.18 -1.41592 -0.398745 0
M  V30 15715 H 1510.14 -2.56218 -3.29254 0
M  V30 15716 H 1508.77 -1.50861 -2.85379 0
M  V30 15717 H 1507.82 -3.50297 -1.48312 0
M  V30 15718 H 1509.14 -4.50328 -2.1449 0
M  V30 15719 H 1508.29 -4.10563 -4.4668 0
M  V30 15720 H 1507.03 -3.00668 -3.83993 0
M  V30 15721 H 1506.03 -4.89057 -2.51203 0
M  V30 15722 H 1507.26 -6.00623 -3.16906 0
M  V30 15723 H 1505.2 -4.46815 -4.80305 0
M  V30 15724 H 1505.12 -6.1507 -4.39574 0
M  V30 15725 H 1506.39 -5.5825 -5.44038 0
M  V30 15726 N 1510.62 0.421051 -1.51871 0
M  V30 15727 C 1511.57 1.5122 -1.74359 0
M  V30 15728 C 1512.54 1.55432 -0.585667 0
M  V30 15729 O 1513.72 1.7219 -0.821912 0
M  V30 15730 C 1510.86 2.88787 -1.88935 0
M  V30 15731 C 1509.97 2.93977 -3.16546 0
M  V30 15732 C 1509.11 4.22768 -3.21622 0
M  V30 15733 C 1508.15 4.21888 -4.43483 0
M  V30 15734 N 1507.28 5.4223 -4.46017 0
M  V30 15735 H 1512.12 1.31348 -2.67492 0
M  V30 15736 H 1509.66 0.637779 -1.32555 0
M  V30 15737 H 1511.62 3.68629 -1.95368 0
M  V30 15738 H 1510.25 3.07181 -0.991942 0
M  V30 15739 H 1509.3 2.06699 -3.19343 0
M  V30 15740 H 1510.61 2.8919 -4.06412 0
M  V30 15741 H 1509.77 5.10995 -3.27061 0
M  V30 15742 H 1508.51 4.30234 -2.29674 0
M  V30 15743 H 1507.51 3.32052 -4.38202 0
M  V30 15744 H 1508.74 4.16072 -5.36713 0
M  V30 15745 H 1506.68 5.50386 -3.56947 0
M  V30 15746 H 1506.6 5.39389 -5.29713 0
M  V30 15747 H 1507.87 6.32443 -4.55671 0
M  V30 15748 N 1512.1 1.42293 0.677538 0
M  V30 15749 C 1513.34 1.42827 1.43973 0
M  V30 15750 C 1513.68 0.0435041 1.94151 0
M  V30 15751 O 1512.95 -0.931794 1.70727 0
M  V30 15752 C 1513.23 2.45037 2.63873 0
M  V30 15753 C 1513.09 3.92694 2.19344 0
M  V30 15754 C 1514.41 2.4427 3.66087 0
M  V30 15755 H 1511.52 0.520097 0.522176 0
M  V30 15756 H 1514.17 1.73688 0.770219 0
M  V30 15757 H 1512.32 2.18851 3.20993 0
M  V30 15758 H 1513.99 4.2985 1.67412 0
M  V30 15759 H 1512.23 4.06692 1.50944 0
M  V30 15760 H 1512.9 4.59784 3.05455 0
M  V30 15761 H 1515.38 2.67551 3.18678 0
M  V30 15762 H 1514.25 3.17769 4.47564 0
M  V30 15763 H 1514.52 1.46769 4.17027 0
M  V30 15764 N 1513.57 -0.913576 1.28419 0
M  V30 15765 C 1514.82 -1.65944 1.15355 0
M  V30 15766 C 1515.14 -1.92706 -0.298228 0
M  V30 15767 O 1514.41 -1.54333 -1.20657 0
M  V30 15768 H 1512.99 -0.615063 0.423919 0
M  V30 15769 H 1515.66 -1.0962 1.6115 0
M  V30 15770 H 1514.75 -2.62173 1.69327 0
M  V30 15771 N 1515.05 -1.1067 -1.12204 0
M  V30 15772 C 1516.47 -0.838988 -1.35769 0
M  V30 15773 C 1516.67 0.540345 -1.9412 0
M  V30 15774 O 1515.72 1.29274 -2.16897 0
M  V30 15775 C 1517.04 -1.94065 -2.29694 0
M  V30 15776 C 1518.59 -1.96938 -2.43279 0
M  V30 15777 C 1519.06 -3.06284 -3.4052 0
M  V30 15778 N 1520.55 -3.05607 -3.48079 0
M  V30 15779 C 1521.29 -3.86855 -4.23238 0
M  V30 15780 N 1520.78 -4.78046 -5.01442 0
M  V30 15781 N 1522.58 -3.75064 -4.18669 0
M  V30 15782 H 1514.73 -1.99575 -0.726878 0
M  V30 15783 H 1516.99 -0.867423 -0.382467 0
M  V30 15784 H 1516.7 -2.93356 -1.93997 0
M  V30 15785 H 1516.57 -1.82992 -3.29839 0
M  V30 15786 H 1518.96 -0.982774 -2.78254 0
M  V30 15787 H 1519.04 -2.12087 -1.43014 0
M  V30 15788 H 1518.68 -4.05165 -3.06273 0
M  V30 15789 H 1518.61 -2.88376 -4.40621 0
M  V30 15790 H 1521.1 -2.39531 -2.9229 0
M  V30 15791 H 1521.42 -5.36594 -5.56136 0
M  V30 15792 H 1519.76 -4.82073 -5.0063 0
M  V30 15793 H 1522.95 -3.03172 -3.56657 0
M  V30 15794 H 1523.12 -4.38618 -4.76988 0
M  V30 15795 N 1516.53 1.29665 -0.895815 0
M  V30 15796 C 1517.95 1.4824 -0.591355 0
M  V30 15797 C 1518.15 1.81839 0.86815 0
M  V30 15798 O 1517.2 1.91251 1.64861 0
M  V30 15799 C 1518.52 2.59814 -1.51384 0
M  V30 15800 C 1520.06 2.73691 -1.51862 0
M  V30 15801 C 1520.54 3.8839 -2.42729 0
M  V30 15802 N 1522.03 3.95717 -2.40754 0
M  V30 15803 C 1522.76 4.83804 -3.07769 0
M  V30 15804 N 1522.26 5.7661 -3.84048 0
M  V30 15805 N 1524.05 4.77263 -2.96946 0
M  V30 15806 H 1516.2 1.06131 -1.83984 0
M  V30 15807 H 1518.47 0.526819 -0.788141 0
M  V30 15808 H 1518.17 2.4184 -2.55355 0
M  V30 15809 H 1518.05 3.56532 -1.23147 0
M  V30 15810 H 1520.43 2.91064 -0.486375 0
M  V30 15811 H 1520.52 1.77561 -1.84135 0
M  V30 15812 H 1520.16 3.71773 -3.46045 0
M  V30 15813 H 1520.09 4.8388 -2.07767 0
M  V30 15814 H 1522.58 3.29334 -1.8533 0
M  V30 15815 H 1522.89 6.40611 -4.32247 0
M  V30 15816 H 1521.24 5.76507 -3.88155 0
M  V30 15817 H 1524.43 4.03744 -2.36871 0
M  V30 15818 H 1524.6 5.45701 -3.49448 0
M  V30 15819 N 1518.01 0.657889 1.43212 0
M  V30 15820 C 1519.29 0.102895 1.95329 0
M  V30 15821 C 1519.67 -1.37821 1.59901 0
M  V30 15822 O 1519.01 -2.10602 0.886505 0
M  V30 15823 C 1519.22 0.354075 3.47199 0
M  V30 15824 C 1520.57 0.261511 4.23794 0
M  V30 15825 O 1521.6 0.286889 3.55043 0
M  V30 15826 O 1520.45 0.189209 5.46172 0
M  V30 15827 H 1517.55 -0.00692284 0.826971 0
M  V30 15828 H 1520.09 0.73145 1.53127 0
M  V30 15829 H 1518.87 1.38075 3.6613 0
M  V30 15830 H 1518.49 -0.307321 3.96411 0
M  V30 15831 N 1519.49 -1.52437 0.400108 0
M  V30 15832 C 1520.71 -2.0661 -0.180861 0
M  V30 15833 C 1521.14 -1.269 -1.38845 0
M  V30 15834 O 1520.49 -0.296862 -1.78853 0
M  V30 15835 C 1520.54 -3.56851 -0.518595 0
M  V30 15836 O 1519.65 -3.79634 -1.61095 0
M  V30 15837 H 1518.99 -0.663752 -0.0181348 0
M  V30 15838 H 1521.52 -1.96479 0.570702 0
M  V30 15839 H 1521.53 -4.00478 -0.779817 0
M  V30 15840 H 1520.2 -4.14302 0.364216 0
M  V30 15841 H 1518.78 -3.47892 -1.3426 0
M  V30 15842 N 1520.96 -0.130252 -1.57061 0
M  V30 15843 C 1521.9 0.846442 -2.12998 0
M  V30 15844 C 1522.91 1.22229 -1.07536 0
M  V30 15845 O 1524.1 1.16928 -1.34871 0
M  V30 15846 C 1521.2 2.14481 -2.62395 0
M  V30 15847 C 1520.37 1.93892 -3.92077 0
M  V30 15848 C 1519.43 3.07562 -4.26957 0
M  V30 15849 O 1518.46 2.79983 -4.95578 0
M  V30 15850 N 1519.66 4.34297 -3.85184 0
M  V30 15851 H 1522.42 0.368471 -2.97426 0
M  V30 15852 H 1519.98 0.0538355 -1.6181 0
M  V30 15853 H 1521.98 2.8954 -2.82752 0
M  V30 15854 H 1520.55 2.53592 -1.82784 0
M  V30 15855 H 1519.77 1.02962 -3.80516 0
M  V30 15856 H 1521.05 1.77454 -4.76852 0
M  V30 15857 H 1520.45 4.59575 -3.29859 0
M  V30 15858 H 1519.01 5.06191 -4.10626 0
M  V30 15859 N 1522.44 1.56945 0.143535 0
M  V30 15860 C 1523.67 1.88067 0.874385 0
M  V30 15861 C 1524.09 0.719645 1.73789 0
M  V30 15862 O 1523.45 -0.330654 1.78259 0
M  V30 15863 C 1523.5 3.17795 1.70408 0
M  V30 15864 O 1522.6 3.01973 2.80867 0
M  V30 15865 H 1521.94 0.617808 0.24333 0
M  V30 15866 H 1524.47 2.04165 0.133309 0
M  V30 15867 H 1524.48 3.49903 2.09838 0
M  V30 15868 H 1523.16 4.019 1.07001 0
M  V30 15869 H 1521.74 2.8128 2.44818 0
M  V30 15870 N 1523.92 -0.412991 1.52093 0
M  V30 15871 C 1525.15 -1.18667 1.70096 0
M  V30 15872 C 1525.57 -1.83622 0.408012 0
M  V30 15873 O 1524.93 -1.69847 -0.634174 0
M  V30 15874 C 1524.98 -2.22837 2.83507 0
M  V30 15875 O 1524.08 -3.2889 2.48807 0
M  V30 15876 H 1523.42 -0.346581 0.566373 0
M  V30 15877 H 1525.95 -0.484642 1.98777 0
M  V30 15878 H 1525.96 -2.67229 3.08306 0
M  V30 15879 H 1524.64 -1.74942 3.77317 0
M  V30 15880 H 1523.21 -2.89804 2.34665 0
M  V30 15881 N 1525.4 -1.4265 -0.669982 0
M  V30 15882 C 1526.35 -1.46746 -1.80467 0
M  V30 15883 C 1527.34 -0.342698 -1.65897 0
M  V30 15884 O 1528.55 -0.515933 -1.72447 0
M  V30 15885 H 1524.92 -0.4597 -0.59513 0
M  V30 15886 H 1526.89 -2.42325 -1.7413 0
M  V30 15887 C 1525.64 -1.39141 -3.18646 0
M  V30 15888 H 1524.97 -2.24987 -3.30486 0
M  V30 15889 H 1526.41 -1.46068 -3.98045 0
M  V30 15890 C 1524.86 -0.106802 -3.36731 0
M  V30 15891 O 1525.39 0.838535 -3.9285 0
M  V30 15892 N 1523.6 -0.0223958 -2.90591 0
M  V30 15893 H 1523.15 -0.792469 -2.45108 0
M  V30 15894 H 1523.11 0.836462 -3.03069 0
M  V30 15895 N 1526.88 0.906753 -1.28902 0
M  V30 15896 C 1527.79 2.04313 -1.15296 0
M  V30 15897 C 1528.8 1.73826 -0.0778619 0
M  V30 15898 O 1529.98 1.99322 -0.288543 0
M  V30 15899 C 1527.04 3.36782 -0.823317 0
M  V30 15900 C 1526.11 3.80834 -1.98152 0
M  V30 15901 C 1525.34 5.06981 -1.66751 0
M  V30 15902 O 1525.56 5.67391 -0.58513 0
M  V30 15903 O 1524.5 5.46915 -2.51332 0
M  V30 15904 H 1528.32 2.18713 -2.10709 0
M  V30 15905 H 1525.91 1.02928 -1.08287 0
M  V30 15906 H 1527.79 4.16298 -0.653735 0
M  V30 15907 H 1526.46 3.23542 0.101097 0
M  V30 15908 H 1525.37 3.02115 -2.2063 0
M  V30 15909 H 1526.7 3.98648 -2.88688 0
M  V30 15910 N 1528.36 1.11264 1.11616 0
M  V30 15911 C 1529.6 0.860364 1.83314 0
M  V30 15912 C 1529.93 -0.614011 1.84554 0
M  V30 15913 O 1529.19 -1.4692 1.29279 0
M  V30 15914 C 1529.48 1.36481 3.30315 0
M  V30 15915 C 1529.15 2.85209 3.49237 0
M  V30 15916 C 1527.81 3.25822 3.54109 0
M  V30 15917 C 1530.16 3.81009 3.55642 0
M  V30 15918 C 1527.49 4.60968 3.62941 0
M  V30 15919 C 1529.84 5.15968 3.66005 0
M  V30 15920 C 1528.51 5.56142 3.69137 0
M  V30 15921 H 1527.78 0.314829 0.670793 0
M  V30 15922 H 1530.43 1.39073 1.31647 0
M  V30 15923 H 1528.73 0.754639 3.84464 0
M  V30 15924 H 1530.43 1.14597 3.84276 0
M  V30 15925 H 1527.02 2.52791 3.46114 0
M  V30 15926 H 1531.2 3.50734 3.5114 0
M  V30 15927 H 1526.46 4.91503 3.63641 0
M  V30 15928 H 1530.63 5.90037 3.69904 0
M  V30 15929 H 1528.26 6.60855 3.75732 0
M  V30 15930 N 1529.83 -1.29188 0.902679 0
M  V30 15931 C 1530.76 -2.3006 0.399357 0
M  V30 15932 C 1531.74 -1.61724 -0.527199 0
M  V30 15933 O 1532.93 -1.89213 -0.437293 0
M  V30 15934 C 1530.06 -3.45309 -0.371331 0
M  V30 15935 C 1529.01 -4.25466 0.465068 0
M  V30 15936 C 1528.34 -5.32941 -0.433295 0
M  V30 15937 C 1529.64 -4.93287 1.71655 0
M  V30 15938 H 1531.33 -2.72409 1.24233 0
M  V30 15939 H 1528.88 -1.30958 0.598822 0
M  V30 15940 H 1530.83 -4.14955 -0.734207 0
M  V30 15941 H 1529.56 -3.01811 -1.24811 0
M  V30 15942 H 1528.22 -3.57532 0.810315 0
M  V30 15943 H 1527.86 -4.85688 -1.3083 0
M  V30 15944 H 1527.56 -5.87472 0.122657 0
M  V30 15945 H 1529.09 -6.05438 -0.792298 0
M  V30 15946 H 1530.5 -5.55353 1.42323 0
M  V30 15947 H 1528.9 -5.57763 2.21405 0
M  V30 15948 H 1529.97 -4.18406 2.45081 0
M  V30 15949 N 1531.31 -0.665475 -1.42861 0
M  V30 15950 C 1532.54 -0.192 -2.06007 0
M  V30 15951 C 1532.95 1.1472 -1.49949 0
M  V30 15952 O 1532.31 1.71074 -0.635599 0
M  V30 15953 C 1532.36 -0.108189 -3.61338 0
M  V30 15954 O 1532.08 -1.39446 -4.15315 0
M  V30 15955 C 1533.58 0.3899 -4.41582 0
M  V30 15956 H 1530.8 -0.0955812 -0.664158 0
M  V30 15957 H 1533.35 -0.909582 -1.83158 0
M  V30 15958 H 1531.5 0.560024 -3.83331 0
M  V30 15959 H 1531.92 -1.26168 -5.09099 0
M  V30 15960 H 1533.39 0.39747 -5.50567 0
M  V30 15961 H 1533.87 1.42348 -4.15492 0
M  V30 15962 H 1534.47 -0.246248 -4.24587 0
M  V30 15963 N 1532.79 1.52222 -0.408187 0
M  V30 15964 C 1534.04 2.00989 0.169252 0
M  V30 15965 C 1534.35 1.29824 1.46305 0
M  V30 15966 O 1535.56 1.69402 2.12168 0
M  V30 15967 C 1534.01 3.58173 0.352179 0
M  V30 15968 C 1533.62 4.38252 -0.929468 0
M  V30 15969 C 1535.37 4.15173 0.88496 0
M  V30 15970 C 1533.27 5.87077 -0.713781 0
M  V30 15971 H 1532.2 0.751015 0.0670261 0
M  V30 15972 H 1534.85 1.75574 -0.533487 0
M  V30 15973 H 1533.24 3.79913 1.11723 0
M  V30 15974 H 1534.41 4.28272 -1.70059 0
M  V30 15975 H 1532.72 3.92565 -1.38859 0
M  V30 15976 H 1535.32 5.2404 1.06235 0
M  V30 15977 H 1535.66 3.72468 1.85938 0
M  V30 15978 H 1536.2 3.97397 0.178995 0
M  V30 15979 H 1532.94 6.3414 -1.65974 0
M  V30 15980 H 1532.46 5.99797 0.0180631 0
M  V30 15981 H 1534.14 6.46022 -0.355596 0
M  V30 15982 N 1534.27 0.138579 1.5699 0
M  V30 15983 C 1535.49 -0.525074 2.00643 0
M  V30 15984 C 1535.92 -1.58174 1.01796 0
M  V30 15985 O 1535.28 -1.81298 -0.00754003 0
M  V30 15986 C 1535.32 -1.11019 3.43085 0
M  V30 15987 O 1534.43 -2.22529 3.4721 0
M  V30 15988 H 1533.77 -0.129283 0.651292 0
M  V30 15989 H 1536.3 0.23283 2.03271 0
M  V30 15990 H 1536.31 -1.44093 3.81708 0
M  V30 15991 H 1534.98 -0.336325 4.14538 0
M  V30 15992 H 1533.56 -1.90747 3.20422 0
M  V30 15993 N 1535.75 -1.57019 -0.13521 0
M  V30 15994 C 1537.02 -1.74928 -0.875189 0
M  V30 15995 C 1537.4 -0.709755 -1.98811 0
M  V30 15996 O 1536.75 0.269237 -2.26908 0
M  V30 15997 C 1536.96 -3.1939 -1.40681 0
M  V30 15998 C 1538.31 -3.8142 -1.86557 0
M  V30 15999 O 1539.33 -3.22892 -1.50397 0
M  V30 16000 O 1538.19 -4.84263 -2.53282 0
M  V30 16001 H 1535.29 -0.715665 -0.414431 0
M  V30 16002 H 1537.83 -1.69274 -0.120215 0
M  V30 16003 H 1536.6 -3.86554 -0.607564 0
M  V30 16004 H 1536.23 -3.29517 -2.22496 0
M  V30 16005 N 1537.22 0.404919 -1.52309 0
M  V30 16006 C 1538.45 1.17764 -1.70723 0
M  V30 16007 C 1538.87 1.83403 -0.417744 0
M  V30 16008 O 1538.23 1.70181 0.625157 0
M  V30 16009 C 1538.28 2.2133 -2.84685 0
M  V30 16010 O 1537.38 3.27566 -2.50548 0
M  V30 16011 H 1536.73 0.343572 -0.568203 0
M  V30 16012 H 1539.26 0.474093 -1.99031 0
M  V30 16013 H 1539.27 2.6559 -3.09719 0
M  V30 16014 H 1537.94 1.72939 -3.78239 0
M  V30 16015 H 1536.52 2.88556 -2.36199 0
M  V30 16016 N 1538.7 1.43003 0.662408 0
M  V30 16017 C 1539.65 1.47448 1.77561 0
M  V30 16018 C 1540.62 0.325121 1.62887 0
M  V30 16019 O 1541.8 0.530971 1.83263 0
M  V30 16020 C 1538.94 1.3946 3.15666 0
M  V30 16021 C 1538.06 2.64529 3.41539 0
M  V30 16022 C 1537.19 2.48594 4.69441 0
M  V30 16023 C 1536.23 3.68976 4.88388 0
M  V30 16024 N 1535.37 3.51908 6.0754 0
M  V30 16025 H 1540.21 2.42573 1.73097 0
M  V30 16026 H 1537.75 1.2042 0.84484 0
M  V30 16027 H 1539.7 1.32824 3.95492 0
M  V30 16028 H 1538.33 0.479227 3.19223 0
M  V30 16029 H 1537.39 2.81481 2.55877 0
M  V30 16030 H 1538.7 3.53977 3.51429 0
M  V30 16031 H 1537.85 2.39614 5.57378 0
M  V30 16032 H 1536.59 1.56656 4.61855 0
M  V30 16033 H 1535.6 3.78374 3.9889 0
M  V30 16034 H 1536.82 4.61911 4.9781 0
M  V30 16035 H 1534.77 2.62697 6.01104 0
M  V30 16036 H 1534.68 4.34951 6.18347 0
M  V30 16037 H 1535.95 3.46763 6.98123 0
M  V30 16038 N 1540.18 -0.899904 1.29381 0
M  V30 16039 C 1541.09 -2.03699 1.16378 0
M  V30 16040 C 1542.11 -1.73782 0.0870792 0
M  V30 16041 O 1543.28 -1.99167 0.299109 0
M  V30 16042 C 1540.35 -3.36341 0.841166 0
M  V30 16043 C 1539.41 -3.79778 2.00168 0
M  V30 16044 C 1538.64 -5.0609 1.69437 0
M  V30 16045 O 1538.86 -5.67073 0.615212 0
M  V30 16046 O 1537.8 -5.45574 2.54229 0
M  V30 16047 H 1541.62 -2.17592 2.11866 0
M  V30 16048 H 1539.21 -1.02353 1.08831 0
M  V30 16049 H 1541.09 -4.15946 0.675803 0
M  V30 16050 H 1539.77 -3.23591 -0.0839376 0
M  V30 16051 H 1538.67 -3.00941 2.22229 0
M  V30 16052 H 1540.01 -3.97111 2.90798 0
M  V30 16053 N 1541.66 -1.11854 -1.11024 0
M  V30 16054 C 1542.61 -0.77596 -2.19275 0
M  V30 16055 C 1543.6 0.234503 -1.67769 0
M  V30 16056 O 1544.81 0.0933372 -1.79758 0
M  V30 16057 H 1541.18 -0.23307 -0.71497 0
M  V30 16058 H 1543.15 -1.69749 -2.45414 0
M  V30 16059 C 1541.9 -0.240148 -3.4687 0
M  V30 16060 H 1541.22 -1.00895 -3.86859 0
M  V30 16061 H 1542.66 -0.0386799 -4.23982 0
M  V30 16062 C 1541.12 1.03056 -3.20751 0
M  V30 16063 O 1541.65 2.10948 -3.41854 0
M  V30 16064 N 1539.86 0.955066 -2.74457 0
M  V30 16065 H 1539.41 0.0769523 -2.57485 0
M  V30 16066 H 1539.36 1.80593 -2.57359 0
M  V30 16067 N 1543.14 1.28707 -0.909517 0
M  V30 16068 C 1544.39 1.94437 -0.536401 0
M  V30 16069 C 1544.7 1.72416 0.923685 0
M  V30 16070 O 1545.9 2.32333 1.40477 0
M  V30 16071 C 1544.36 3.48246 -0.908455 0
M  V30 16072 C 1543.97 3.79051 -2.38798 0
M  V30 16073 C 1545.71 4.20156 -0.605721 0
M  V30 16074 C 1543.62 5.2615 -2.70038 0
M  V30 16075 H 1542.55 0.727842 -0.196882 0
M  V30 16076 H 1545.2 1.46283 -1.10786 0
M  V30 16077 H 1543.58 3.95107 -0.265829 0
M  V30 16078 H 1544.76 3.43014 -3.07698 0
M  V30 16079 H 1543.07 3.20303 -2.66074 0
M  V30 16080 H 1545.67 5.28439 -0.815849 0
M  V30 16081 H 1546.01 4.13792 0.456266 0
M  V30 16082 H 1546.54 3.79059 -1.20662 0
M  V30 16083 H 1543.28 5.37587 -3.75073 0
M  V30 16084 H 1542.8 5.63399 -2.05771 0
M  V30 16085 H 1544.48 5.93846 -2.56819 0
M  V30 16086 N 1544.61 0.673042 1.42506 0
M  V30 16087 C 1545.84 0.201349 2.0642 0
M  V30 16088 C 1546.26 -1.132 1.50224 0
M  V30 16089 O 1545.62 -1.70368 0.620024 0
M  V30 16090 C 1545.67 0.14505 3.60308 0
M  V30 16091 O 1544.77 -0.886953 4.02749 0
M  V30 16092 H 1544.12 0.103975 0.655809 0
M  V30 16093 H 1546.65 0.921559 1.8267 0
M  V30 16094 H 1546.66 -0.0316792 4.07988 0
M  V30 16095 H 1545.33 1.11829 4.00583 0
M  V30 16096 H 1543.91 -0.681408 3.66621 0
M  V30 16097 N 1546.09 -1.52004 0.416254 0
M  V30 16098 C 1547.34 -2.02188 -0.157434 0
M  V30 16099 C 1547.67 -1.30097 -1.44182 0
M  V30 16100 O 1546.95 -0.409426 -1.90142 0
M  V30 16101 C 1547.23 -3.57896 -0.397847 0
M  V30 16102 C 1547.08 -4.40628 0.903715 0
M  V30 16103 C 1548.4 -4.24072 -1.17689 0
M  V30 16104 H 1545.52 -0.734889 -0.0557437 0
M  V30 16105 H 1548.16 -1.81831 0.551118 0
M  V30 16106 H 1546.31 -3.75372 -1.00142 0
M  V30 16107 H 1547.98 -4.34848 1.53964 0
M  V30 16108 H 1546.23 -4.06556 1.5131 0
M  V30 16109 H 1546.9 -5.47673 0.689802 0
M  V30 16110 H 1549.37 -4.10738 -0.665832 0
M  V30 16111 H 1548.25 -5.32944 -1.31386 0
M  V30 16112 H 1548.51 -3.83507 -2.19942 0
M  V30 16113 N 1547.57 -0.146903 -1.56914 0
M  V30 16114 C 1548.53 0.778709 -2.15566 0
M  V30 16115 C 1549.53 1.1753 -1.09742 0
M  V30 16116 O 1550.72 1.09624 -1.35382 0
M  V30 16117 C 1547.86 2.0567 -2.71869 0
M  V30 16118 H 1549.05 0.268506 -2.98696 0
M  V30 16119 H 1546.6 0.10254 -1.55963 0
M  V30 16120 H 1547.34 2.61057 -1.92405 0
M  V30 16121 H 1547.12 1.78154 -3.4929 0
M  V30 16122 H 1548.61 2.71779 -3.17059 0
M  V30 16123 N 1549.05 1.57088 0.126881 0
M  V30 16124 C 1549.98 2.02799 1.15737 0
M  V30 16125 C 1550.96 0.911031 1.43646 0
M  V30 16126 O 1552.14 1.18021 1.54223 0
M  V30 16127 C 1549.27 2.42565 2.48555 0
M  V30 16128 C 1548.23 3.57631 2.35125 0
M  V30 16129 C 1547.55 3.83272 3.72836 0
M  V30 16130 C 1548.85 4.89625 1.81838 0
M  V30 16131 H 1550.55 2.89136 0.777207 0
M  V30 16132 H 1548.09 1.39101 0.372416 0
M  V30 16133 H 1550.05 2.73146 3.20888 0
M  V30 16134 H 1548.77 1.53188 2.88446 0
M  V30 16135 H 1547.43 3.27247 1.65242 0
M  V30 16136 H 1547.08 2.91114 4.10197 0
M  V30 16137 H 1546.78 4.60721 3.64705 0
M  V30 16138 H 1548.3 4.16298 4.46686 0
M  V30 16139 H 1549.72 5.18793 2.43981 0
M  V30 16140 H 1548.11 5.71018 1.84548 0
M  V30 16141 H 1549.18 4.7866 0.775385 0
M  V30 16142 N 1550.53 -0.396836 1.52522 0
M  V30 16143 C 1551.75 -1.16404 1.71049 0
M  V30 16144 C 1552.17 -1.83946 0.425378 0
M  V30 16145 O 1551.53 -1.7237 -0.599561 0
M  V30 16146 C 1551.58 -2.21796 2.85463 0
M  V30 16147 O 1551.3 -1.57009 4.08998 0
M  V30 16148 C 1552.8 -3.11303 3.15603 0
M  V30 16149 H 1550.02 -0.349314 0.572905 0
M  V30 16150 H 1552.56 -0.465297 1.99136 0
M  V30 16151 H 1550.72 -2.87318 2.59859 0
M  V30 16152 H 1551.13 -2.26977 4.72844 0
M  V30 16153 H 1552.61 -3.81299 3.99143 0
M  V30 16154 H 1553.08 -3.7437 2.2966 0
M  V30 16155 H 1553.69 -2.51435 3.43017 0
M  V30 16156 N 1552.01 -1.43353 -0.654814 0
M  V30 16157 C 1553.28 -1.35363 -1.41195 0
M  V30 16158 C 1553.66 -0.000661523 -2.111 0
M  V30 16159 O 1553.01 1.01583 -2.04678 0
M  V30 16160 C 1553.22 -2.53572 -2.39796 0
M  V30 16161 C 1554.57 -2.96587 -3.03844 0
M  V30 16162 O 1555.59 -2.53607 -2.50124 0
M  V30 16163 O 1554.45 -3.71039 -4.01239 0
M  V30 16164 H 1551.55 -0.534861 -0.630756 0
M  V30 16165 H 1554.09 -1.55399 -0.681857 0
M  V30 16166 H 1552.86 -3.43682 -1.87078 0
M  V30 16167 H 1552.49 -2.35628 -3.20258 0
M  V30 16168 N 1553.48 0.89303 -1.29857 0
M  V30 16169 C 1554.73 1.64088 -1.17981 0
M  V30 16170 C 1555.05 1.93156 0.267533 0
M  V30 16171 O 1554.32 1.56233 1.18186 0
M  V30 16172 H 1552.9 0.608241 -0.43365 0
M  V30 16173 H 1555.56 1.07042 -1.62874 0
M  V30 16174 H 1554.66 2.59446 -1.73477 0
M  V30 16175 N 1554.96 1.12442 1.10429 0
M  V30 16176 C 1555.91 0.792332 2.16773 0
M  V30 16177 C 1556.88 -0.240945 1.64343 0
M  V30 16178 O 1558.06 -0.115504 1.9045 0
M  V30 16179 C 1555.2 0.253166 3.4417 0
M  V30 16180 C 1554.32 1.34426 4.10553 0
M  V30 16181 C 1553.45 0.764527 5.2567 0
M  V30 16182 C 1552.49 1.83474 5.83955 0
M  V30 16183 N 1551.63 1.27372 6.9045 0
M  V30 16184 H 1556.47 1.7033 2.44524 0
M  V30 16185 H 1554 0.850418 1.20026 0
M  V30 16186 H 1555.96 -0.0774862 4.17128 0
M  V30 16187 H 1554.59 -0.620962 3.16771 0
M  V30 16188 H 1553.64 1.79169 3.35563 0
M  V30 16189 H 1554.96 2.15354 4.49916 0
M  V30 16190 H 1554.11 0.384548 6.0548 0
M  V30 16191 H 1552.85 -0.0759512 4.87641 0
M  V30 16192 H 1551.85 2.22391 5.02814 0
M  V30 16193 H 1553.08 2.67844 6.24048 0
M  V30 16194 H 1551.03 0.455069 6.5442 0
M  V30 16195 H 1550.94 2.01959 7.28525 0
M  V30 16196 H 1552.21 0.920975 7.7404 0
M  V30 16197 N 1556.44 -1.28223 0.91633 0
M  V30 16198 C 1557.72 -1.89878 0.469661 0
M  V30 16199 C 1558.1 -1.83037 -1.05169 0
M  V30 16200 O 1557.44 -1.26801 -1.90088 0
M  V30 16201 C 1557.65 -3.34279 1.00293 0
M  V30 16202 C 1559 -4.11244 1.05657 0
M  V30 16203 O 1560.03 -3.43249 0.951753 0
M  V30 16204 O 1558.89 -5.32788 1.21652 0
M  V30 16205 H 1555.98 -0.813418 0.149263 0
M  V30 16206 H 1558.53 -1.36572 1.00728 0
M  V30 16207 H 1557.3 -3.33494 2.04688 0
M  V30 16208 H 1556.92 -3.95087 0.446287 0
M  V30 16209 N 1557.92 -0.68059 -1.42147 0
M  V30 16210 C 1559.33 -0.350691 -1.55699 0
M  V30 16211 C 1559.53 1.1435 -1.6591 0
M  V30 16212 O 1558.59 1.92905 -1.62923 0
M  V30 16213 C 1559.9 -1.08608 -2.80401 0
M  V30 16214 C 1561.45 -1.06897 -2.9418 0
M  V30 16215 C 1561.93 -1.78581 -4.2175 0
M  V30 16216 N 1563.42 -1.75477 -4.28675 0
M  V30 16217 C 1564.15 -2.27794 -5.26211 0
M  V30 16218 N 1563.65 -2.88518 -6.29865 0
M  V30 16219 N 1565.44 -2.18135 -5.18048 0
M  V30 16220 H 1557.59 -1.64988 -1.33763 0
M  V30 16221 H 1559.85 -0.695411 -0.644289 0
M  V30 16222 H 1559.56 -2.14113 -2.79014 0
M  V30 16223 H 1559.43 -0.655022 -3.71469 0
M  V30 16224 H 1561.82 -0.0222464 -2.95092 0
M  V30 16225 H 1561.9 -1.53897 -2.04327 0
M  V30 16226 H 1561.55 -2.83225 -4.21599 0
M  V30 16227 H 1561.48 -1.29027 -5.10548 0
M  V30 16228 H 1563.97 -1.31191 -3.54397 0
M  V30 16229 H 1564.28 -3.26043 -7.00654 0
M  V30 16230 H 1562.63 -2.92589 -6.3041 0
M  V30 16231 H 1565.82 -1.7038 -4.35991 0
M  V30 16232 H 1565.99 -2.59213 -5.93896 0
M  V30 16233 N 1559.4 1.51781 -0.424309 0
M  V30 16234 C 1560.64 2.0157 0.146203 0
M  V30 16235 C 1560.96 1.3111 1.44344 0
M  V30 16236 O 1560.23 0.441631 1.90857 0
M  V30 16237 H 1558.81 0.744821 0.057019 0
M  V30 16238 H 1561.48 1.8656 -0.564031 0
M  V30 16239 H 1560.57 3.10335 0.331464 0
M  V30 16240 N 1560.87 0.155222 1.56834 0
M  V30 16241 C 1561.82 -0.798342 2.1847 0
M  V30 16242 C 1562.82 -1.24931 1.14405 0
M  V30 16243 O 1564.02 -1.21684 1.32639 0
M  V30 16244 H 1560.4 -0.275681 0.699646 0
M  V30 16245 H 1562.37 -0.254371 2.97314 0
M  V30 16246 C 1561.12 -2.02407 2.82713 0
M  V30 16247 H 1560.44 -1.68606 3.62508 0
M  V30 16248 H 1561.88 -2.67053 3.29331 0
M  V30 16249 C 1560.34 -2.83737 1.81645 0
M  V30 16250 O 1560.87 -3.80356 1.29198 0
M  V30 16251 N 1559.07 -2.48433 1.50764 0
M  V30 16252 H 1558.62 -1.69925 1.93606 0
M  V30 16253 H 1558.58 -3.03139 0.833899 0
M  V30 16254 N 1562.35 -1.57153 -0.118549 0
M  V30 16255 C 1563.6 -1.8515 -0.82748 0
M  V30 16256 C 1563.93 -0.741026 -1.79506 0
M  V30 16257 O 1563.21 0.253095 -1.92846 0
M  V30 16258 C 1563.49 -3.23734 -1.57698 0
M  V30 16259 C 1563.34 -4.45381 -0.628967 0
M  V30 16260 C 1564.66 -3.59895 -2.53305 0
M  V30 16261 H 1561.78 -0.673459 -0.29937 0
M  V30 16262 H 1564.42 -1.89778 -0.0917198 0
M  V30 16263 H 1562.57 -3.19919 -2.20418 0
M  V30 16264 H 1564.24 -4.61299 -0.0105746 0
M  V30 16265 H 1562.49 -4.33759 0.059462 0
M  V30 16266 H 1563.16 -5.3902 -1.19004 0
M  V30 16267 H 1565.63 -3.64503 -2.0069 0
M  V30 16268 H 1564.51 -4.57839 -3.02778 0
M  V30 16269 H 1564.77 -2.87338 -3.3599 0
M  V30 16270 N 1563.83 0.388742 -1.5273 0
M  V30 16271 C 1564.76 1.48133 -1.80496 0
M  V30 16272 C 1565.74 1.56899 -0.657008 0
M  V30 16273 O 1566.93 1.71844 -0.904621 0
M  V30 16274 C 1564.06 2.85742 -1.97405 0
M  V30 16275 C 1563.01 2.91815 -3.13094 0
M  V30 16276 C 1562.34 4.31876 -3.15258 0
M  V30 16277 C 1563.64 2.61438 -4.52159 0
M  V30 16278 H 1565.33 1.25147 -2.7199 0
M  V30 16279 H 1562.88 0.600603 -1.30877 0
M  V30 16280 H 1564.83 3.62182 -2.15412 0
M  V30 16281 H 1563.55 3.10065 -1.02601 0
M  V30 16282 H 1562.21 2.17824 -2.9487 0
M  V30 16283 H 1561.86 4.53239 -2.18135 0
M  V30 16284 H 1561.56 4.3686 -3.92972 0
M  V30 16285 H 1563.08 5.10221 -3.3542 0
M  V30 16286 H 1564.5 3.27596 -4.70483 0
M  V30 16287 H 1562.89 2.77771 -5.31943 0
M  V30 16288 H 1563.96 1.56778 -4.58856 0
M  V30 16289 N 1565.31 1.43698 0.647203 0
M  V30 16290 C 1566.24 1.45295 1.77262 0
M  V30 16291 C 1567.25 0.34831 1.5903 0
M  V30 16292 O 1568.44 0.613106 1.6764 0
M  V30 16293 C 1565.54 1.25584 3.14773 0
M  V30 16294 C 1564.71 2.48998 3.59609 0
M  V30 16295 C 1563.77 2.24423 4.75942 0
M  V30 16296 O 1562.8 2.97813 4.85073 0
M  V30 16297 N 1564 1.26465 5.66557 0
M  V30 16298 H 1566.77 2.42311 1.76368 0
M  V30 16299 H 1564.33 1.38931 0.831247 0
M  V30 16300 H 1566.32 1.07016 3.90294 0
M  V30 16301 H 1564.89 0.369927 3.10403 0
M  V30 16302 H 1564.11 2.82951 2.74467 0
M  V30 16303 H 1565.4 3.31119 3.86313 0
M  V30 16304 H 1564.8 0.658206 5.61858 0
M  V30 16305 H 1563.35 1.13879 6.41775 0
M  V30 16306 N 1566.79 -0.886131 1.30328 0
M  V30 16307 C 1568.2 -1.45328 1.17203 0
M  V30 16308 C 1568.55 -1.94874 -0.227719 0
M  V30 16309 O 1567.67 -1.84901 -1.12431 0
M  V30 16310 C 1568.27 -2.64149 2.12157 0
M  V30 16311 C 1566.83 -3.16958 2.03014 0
M  V30 16312 C 1565.97 -1.89651 2.02306 0
M  V30 16313 H 1568.93 -0.696177 1.42615 0
M  V30 16314 H 1568.95 -3.40325 1.70173 0
M  V30 16315 H 1568.46 -2.28058 3.14024 0
M  V30 16316 H 1566.56 -3.57709 1.04285 0
M  V30 16317 H 1566.67 -3.80336 2.91344 0
M  V30 16318 H 1565.04 -2.07933 1.47091 0
M  V30 16319 H 1565.82 -1.5582 3.05901 0
M  V30 16320 N 1568.26 -1.13026 -1.09832 0
M  V30 16321 C 1569.17 -0.817051 -2.19912 0
M  V30 16322 C 1570.19 0.19667 -1.72885 0
M  V30 16323 O 1571.37 0.0287402 -2.01379 0
M  V30 16324 C 1568.43 -0.28304 -3.45543 0
M  V30 16325 C 1567.49 -1.35748 -4.07273 0
M  V30 16326 C 1566.73 -0.848855 -5.26906 0
M  V30 16327 O 1566.95 0.315104 -5.69529 0
M  V30 16328 O 1565.88 -1.62128 -5.79653 0
M  V30 16329 H 1569.71 -1.73663 -2.49148 0
M  V30 16330 H 1567.29 -0.907391 -1.18688 0
M  V30 16331 H 1569.18 0.00956876 -4.21399 0
M  V30 16332 H 1567.85 0.609018 -3.17919 0
M  V30 16333 H 1566.76 -1.70334 -3.33072 0
M  V30 16334 H 1568.09 -2.22353 -4.39113 0
M  V30 16335 N 1569.74 1.27735 -0.923117 0
M  V30 16336 C 1570.65 2.30734 -0.424124 0
M  V30 16337 C 1571.67 1.66872 0.49291 0
M  V30 16338 O 1572.84 1.97843 0.37683 0
M  V30 16339 C 1569.91 3.45227 0.319254 0
M  V30 16340 C 1568.97 4.2462 -0.632137 0
M  V30 16341 C 1568.2 5.33646 0.0758596 0
M  V30 16342 O 1568.43 5.55481 1.29602 0
M  V30 16343 O 1567.36 5.98966 -0.593624 0
M  V30 16344 H 1571.19 2.75444 -1.27923 0
M  V30 16345 H 1568.77 1.32601 -0.688288 0
M  V30 16346 H 1570.65 4.14874 0.73873 0
M  V30 16347 H 1569.33 3.02582 1.15004 0
M  V30 16348 H 1568.24 3.57525 -1.1012 0
M  V30 16349 H 1569.57 4.70969 -1.43001 0
M  V30 16350 N 1571.22 0.688118 1.41784 0
M  V30 16351 C 1572.45 0.223231 2.06195 0
M  V30 16352 C 1572.87 -1.11601 1.51416 0
M  V30 16353 O 1572.23 -1.69701 0.638059 0
M  V30 16354 C 1572.28 0.183257 3.60134 0
M  V30 16355 O 1571.38 -0.844186 4.03667 0
M  V30 16356 H 1570.72 0.110925 0.654669 0
M  V30 16357 H 1573.25 0.940882 1.81683 0
M  V30 16358 H 1573.26 0.0115951 4.07998 0
M  V30 16359 H 1571.94 1.16072 3.99375 0
M  V30 16360 H 1570.51 -0.642484 3.67323 0
M  V30 16361 N 1572.7 -1.51554 0.432352 0
M  V30 16362 C 1573.63 -2.30514 -0.372243 0
M  V30 16363 C 1574.61 -1.35712 -1.02549 0
M  V30 16364 O 1575.79 -1.6463 -1.03009 0
M  V30 16365 C 1572.92 -3.14353 -1.47646 0
M  V30 16366 C 1571.88 -4.17392 -0.946974 0
M  V30 16367 C 1571.2 -4.89721 -2.14656 0
M  V30 16368 C 1572.5 -5.22298 0.0151377 0
M  V30 16369 H 1574.2 -2.98024 0.28668 0
M  V30 16370 H 1571.74 -1.43325 0.139315 0
M  V30 16371 H 1573.7 -3.68369 -2.04651 0
M  V30 16372 H 1572.42 -2.44654 -2.1636 0
M  V30 16373 H 1571.08 -3.6442 -0.399174 0
M  V30 16374 H 1570.73 -4.1653 -2.81978 0
M  V30 16375 H 1570.43 -5.59393 -1.79869 0
M  V30 16376 H 1571.95 -5.46559 -2.72224 0
M  V30 16377 H 1573.37 -5.71416 -0.464447 0
M  V30 16378 H 1571.76 -5.99468 0.275339 0
M  V30 16379 H 1572.83 -4.75436 0.953357 0
M  V30 16380 N 1574.18 -0.163538 -1.56749 0
M  V30 16381 C 1575.11 0.765571 -2.20593 0
M  V30 16382 C 1576.09 1.24489 -1.15916 0
M  V30 16383 O 1577.27 1.29946 -1.44318 0
M  V30 16384 C 1574.4 1.99823 -2.84057 0
M  V30 16385 C 1573.36 1.65506 -3.94705 0
M  V30 16386 C 1572.68 2.96172 -4.45181 0
M  V30 16387 C 1573.98 0.88902 -5.14678 0
M  V30 16388 H 1575.68 0.233431 -2.98489 0
M  V30 16389 H 1573.22 0.110836 -1.43573 0
M  V30 16390 H 1575.18 2.65316 -3.27392 0
M  V30 16391 H 1573.9 2.55437 -2.03517 0
M  V30 16392 H 1572.56 1.02384 -3.52013 0
M  V30 16393 H 1572.21 3.49811 -3.61443 0
M  V30 16394 H 1571.91 2.73968 -5.19823 0
M  V30 16395 H 1573.43 3.62708 -4.91198 0
M  V30 16396 H 1574.84 1.44637 -5.54755 0
M  V30 16397 H 1573.24 0.766302 -5.95187 0
M  V30 16398 H 1574.31 -0.116145 -4.84761 0
M  V30 16399 N 1575.65 1.57214 0.110213 0
M  V30 16400 C 1576.93 1.76298 0.847249 0
M  V30 16401 C 1577.31 0.741294 1.97656 0
M  V30 16402 O 1576.66 -0.233104 2.27308 0
M  V30 16403 C 1576.87 3.21588 1.35582 0
M  V30 16404 C 1578.22 3.8434 1.80465 0
M  V30 16405 O 1579.24 3.25244 1.45241 0
M  V30 16406 O 1578.1 4.88231 2.45546 0
M  V30 16407 H 1575.19 0.722167 0.402993 0
M  V30 16408 H 1577.74 1.69443 0.0932694 0
M  V30 16409 H 1576.51 3.87472 0.54599 0
M  V30 16410 H 1576.14 3.33015 2.17225 0
M  V30 16411 N 1577.13 -0.380637 1.52934 0
M  V30 16412 C 1578.54 -0.958182 1.60237 0
M  V30 16413 C 1578.89 -1.90722 0.460393 0
M  V30 16414 O 1578.02 -2.12376 -0.415354 0
M  V30 16415 C 1578.61 -1.7446 2.90429 0
M  V30 16416 C 1577.17 -2.27172 3.00116 0
M  V30 16417 C 1576.32 -1.07969 2.55417 0
M  V30 16418 H 1579.27 -0.159908 1.57892 0
M  V30 16419 H 1579.29 -2.60456 2.77385 0
M  V30 16420 H 1578.8 -1.05362 3.73524 0
M  V30 16421 H 1576.91 -2.99557 2.21577 0
M  V30 16422 H 1577.02 -2.56086 4.04916 0
M  V30 16423 H 1575.38 -1.4422 2.09935 0
M  V30 16424 H 1576.17 -0.403925 3.40915 0
M  V30 16425 N 1578.61 -1.44039 -0.639573 0
M  V30 16426 C 1579.86 -1.46377 -1.39928 0
M  V30 16427 C 1580.19 -0.0931685 -1.94277 0
M  V30 16428 O 1579.44 0.903841 -1.73578 0
M  V30 16429 C 1579.74 -2.46459 -2.5883 0
M  V30 16430 C 1579.41 -3.91998 -2.2282 0
M  V30 16431 C 1578.07 -4.31633 -2.12712 0
M  V30 16432 C 1580.42 -4.83656 -1.94232 0
M  V30 16433 C 1577.75 -5.60863 -1.72191 0
M  V30 16434 C 1580.1 -6.13265 -1.55206 0
M  V30 16435 C 1578.76 -6.51863 -1.43633 0
M  V30 16436 H 1578.03 -0.535633 -0.512034 0
M  V30 16437 H 1580.68 -1.77202 -0.72607 0
M  V30 16438 H 1578.99 -2.09087 -3.31345 0
M  V30 16439 H 1580.68 -2.45518 -3.17052 0
M  V30 16440 H 1577.27 -3.60636 -2.31602 0
M  V30 16441 H 1581.46 -4.53796 -2.00955 0
M  V30 16442 H 1576.71 -5.89595 -1.61828 0
M  V30 16443 H 1580.89 -6.83752 -1.32121 0
M  V30 16444 H 1578.51 -7.51903 -1.12006 0
M  V30 16445 N 1580.09 0.879207 -1.30796 0
M  V30 16446 C 1581.34 1.62828 -1.19715 0
M  V30 16447 C 1581.66 1.93429 0.247031 0
M  V30 16448 O 1580.93 1.57478 1.16522 0
M  V30 16449 H 1579.51 0.603607 -0.440077 0
M  V30 16450 H 1582.17 1.05309 -1.64 0
M  V30 16451 H 1581.27 2.57591 -1.76219 0
M  V30 16452 N 1581.57 1.13606 1.09231 0
M  V30 16453 C 1582.53 0.818197 2.14099 0
M  V30 16454 C 1583.53 -0.173275 1.59864 0
M  V30 16455 O 1584.72 0.05405 1.74116 0
M  V30 16456 C 1581.85 0.218138 3.40201 0
M  V30 16457 H 1583.05 1.74748 2.43727 0
M  V30 16458 H 1580.6 0.940962 1.24802 0
M  V30 16459 H 1581.33 -0.720269 3.162 0
M  V30 16460 H 1581.12 0.932156 3.80859 0
M  V30 16461 H 1582.61 0.0126639 4.17598 0
M  V30 16462 N 1583.05 -1.27244 0.929878 0
M  V30 16463 C 1583.99 -2.26773 0.429287 0
M  V30 16464 C 1584.96 -1.58238 -0.50498 0
M  V30 16465 O 1586.15 -1.86037 -0.423661 0
M  V30 16466 C 1583.29 -3.43706 -0.309865 0
M  V30 16467 C 1582.4 -4.26948 0.658764 0
M  V30 16468 C 1581.54 -5.31105 -0.10045 0
M  V30 16469 C 1580.57 -6.06018 0.860743 0
M  V30 16470 N 1579.71 -7.01972 0.134015 0
M  V30 16471 H 1584.55 -2.68967 1.283 0
M  V30 16472 H 1582.09 -1.32257 0.643923 0
M  V30 16473 H 1584.05 -4.10316 -0.754754 0
M  V30 16474 H 1582.68 -3.02457 -1.1278 0
M  V30 16475 H 1581.73 -3.60232 1.22218 0
M  V30 16476 H 1583.04 -4.78946 1.39326 0
M  V30 16477 H 1582.19 -6.03674 -0.605153 0
M  V30 16478 H 1580.93 -4.79915 -0.867902 0
M  V30 16479 H 1579.94 -5.32285 1.37668 0
M  V30 16480 H 1581.16 -6.59297 1.62801 0
M  V30 16481 H 1579.11 -6.53109 -0.615152 0
M  V30 16482 H 1579.03 -7.51669 0.808045 0
M  V30 16483 H 1580.29 -7.78714 -0.349964 0
M  V30 16484 N 1584.52 -0.695628 -1.41417 0
M  V30 16485 C 1585.93 -0.3014 -1.84251 0
M  V30 16486 C 1586.29 1.16042 -1.58204 0
M  V30 16487 O 1585.41 1.89079 -1.05253 0
M  V30 16488 C 1586.01 -0.540256 -3.34465 0
M  V30 16489 C 1584.56 -0.199944 -3.75869 0
M  V30 16490 C 1583.71 -0.822511 -2.64821 0
M  V30 16491 H 1586.66 -0.896278 -1.30968 0
M  V30 16492 H 1586.68 0.201019 -3.79969 0
M  V30 16493 H 1586.2 -1.60427 -3.53391 0
M  V30 16494 H 1584.3 0.859798 -3.62544 0
M  V30 16495 H 1584.41 -0.655005 -4.74601 0
M  V30 16496 H 1582.77 -0.252109 -2.53449 0
M  V30 16497 H 1583.56 -1.89039 -2.86564 0
M  V30 16498 N 1586 1.51322 -0.440383 0
M  V30 16499 C 1587.25 2.02113 0.125062 0
M  V30 16500 C 1587.58 1.32436 1.42446 0
M  V30 16501 O 1586.83 0.428981 1.9094 0
M  V30 16502 C 1587.13 3.55287 0.388079 0
M  V30 16503 C 1586.8 4.43272 -0.825876 0
M  V30 16504 C 1585.46 4.67039 -1.15878 0
M  V30 16505 C 1587.81 4.94872 -1.63557 0
M  V30 16506 C 1585.14 5.39652 -2.30201 0
M  V30 16507 C 1587.49 5.68739 -2.76981 0
M  V30 16508 C 1586.15 5.90769 -3.10722 0
M  V30 16509 H 1585.42 0.739585 0.0457635 0
M  V30 16510 H 1588.07 1.82243 -0.588201 0
M  V30 16511 H 1586.38 3.73505 1.18327 0
M  V30 16512 H 1588.07 3.92124 0.839055 0
M  V30 16513 H 1584.66 4.24972 -0.556468 0
M  V30 16514 H 1588.85 4.76391 -1.39158 0
M  V30 16515 H 1584.1 5.54923 -2.56653 0
M  V30 16516 H 1588.28 6.07711 -3.40089 0
M  V30 16517 H 1585.9 6.46814 -3.9942 0
M  V30 16518 N 1587.48 0.171848 1.5666 0
M  V30 16519 C 1588.43 -0.770535 2.14585 0
M  V30 16520 C 1589.41 -1.19247 1.08023 0
M  V30 16521 O 1590.61 -1.15474 1.34144 0
M  V30 16522 C 1587.73 -1.99956 2.79057 0
M  V30 16523 C 1586.82 -1.59959 3.92777 0
M  V30 16524 N 1587.21 -0.909224 4.97561 0
M  V30 16525 C 1585.51 -1.89057 4.03947 0
M  V30 16526 C 1586.21 -0.7122 5.77324 0
M  V30 16527 N 1585.19 -1.25379 5.28943 0
M  V30 16528 H 1588.99 -0.234114 2.92966 0
M  V30 16529 H 1586.5 -0.0288117 1.62374 0
M  V30 16530 H 1588.5 -2.68492 3.18932 0
M  V30 16531 H 1587.16 -2.54092 2.02157 0
M  V30 16532 H 1588.17 -0.567214 5.14785 0
M  V30 16533 H 1584.85 -2.44868 3.38151 0
M  V30 16534 H 1586.24 -0.166225 6.71694 0
M  V30 16535 N 1588.96 -1.5727 -0.101874 0
M  V30 16536 C 1590.18 -1.90319 -0.824215 0
M  V30 16537 C 1590.61 -0.765469 -1.7182 0
M  V30 16538 O 1589.97 0.283275 -1.79073 0
M  V30 16539 C 1590.01 -3.22201 -1.61922 0
M  V30 16540 O 1589.12 -3.09313 -2.72762 0
M  V30 16541 H 1588.46 -0.624042 -0.226864 0
M  V30 16542 H 1590.99 -2.04447 -0.0791314 0
M  V30 16543 H 1591 -3.55343 -2.00487 0
M  V30 16544 H 1589.67 -4.04596 -0.963078 0
M  V30 16545 H 1588.25 -2.87672 -2.37274 0
M  V30 16546 N 1590.44 0.372521 -1.53134 0
M  V30 16547 C 1591.85 0.949671 -1.60742 0
M  V30 16548 C 1592.2 1.90475 -0.470501 0
M  V30 16549 O 1591.32 2.12594 0.404085 0
M  V30 16550 C 1591.92 1.72918 -2.9135 0
M  V30 16551 C 1590.48 2.25577 -3.01317 0
M  V30 16552 C 1589.62 1.06612 -2.55986 0
M  V30 16553 H 1592.57 0.151533 -1.57975 0
M  V30 16554 H 1592.6 2.58982 -2.78763 0
M  V30 16555 H 1592.11 1.0338 -3.74078 0
M  V30 16556 H 1590.21 2.98378 -2.23162 0
M  V30 16557 H 1590.32 2.53935 -4.06268 0
M  V30 16558 H 1588.69 1.43105 -2.10697 0
M  V30 16559 H 1589.47 0.38584 -3.41125 0
M  V30 16560 N 1591.91 1.44376 0.631925 0
M  V30 16561 C 1593.19 1.37592 1.39024 0
M  V30 16562 C 1593.57 0.0342456 2.11072 0
M  V30 16563 O 1592.92 -0.983136 2.06268 0
M  V30 16564 C 1593.13 2.57355 2.35732 0
M  V30 16565 C 1594.48 3.01384 2.99087 0
M  V30 16566 O 1595.5 2.57554 2.46057 0
M  V30 16567 O 1594.36 3.77375 3.95285 0
M  V30 16568 H 1591.45 0.544828 0.622167 0
M  V30 16569 H 1594 1.56464 0.657048 0
M  V30 16570 H 1592.77 3.46615 1.81587 0
M  V30 16571 H 1592.39 2.40693 3.16469 0
M  V30 16572 N 1593.39 -0.872258 1.31261 0
M  V30 16573 C 1594.32 -1.99517 1.21306 0
M  V30 16574 C 1595.3 -1.69801 0.100775 0
M  V30 16575 O 1596.49 -1.92098 0.284984 0
M  V30 16576 C 1593.62 -3.34968 0.917249 0
M  V30 16577 C 1592.57 -3.78984 1.98885 0
M  V30 16578 C 1591.9 -5.11869 1.54578 0
M  V30 16579 C 1593.2 -3.96338 3.40167 0
M  V30 16580 H 1594.89 -2.08104 2.15251 0
M  V30 16581 H 1592.44 -0.999865 1.03628 0
M  V30 16582 H 1594.39 -4.1306 0.834217 0
M  V30 16583 H 1593.11 -3.26549 -0.0578721 0
M  V30 16584 H 1591.77 -3.0313 2.06174 0
M  V30 16585 H 1591.42 -4.99889 0.558581 0
M  V30 16586 H 1591.12 -5.4229 2.26265 0
M  V30 16587 H 1592.65 -5.92472 1.47678 0
M  V30 16588 H 1594.06 -4.64831 3.35566 0
M  V30 16589 H 1592.46 -4.38153 4.10051 0
M  V30 16590 H 1593.53 -2.9979 3.81122 0
M  V30 16591 N 1594.87 -1.14184 -1.08627 0
M  V30 16592 C 1596.09 -0.932504 -1.85254 0
M  V30 16593 C 1596.52 0.513792 -1.80947 0
M  V30 16594 O 1595.88 1.36525 -1.19292 0
M  V30 16595 C 1595.93 -1.43519 -3.30809 0
M  V30 16596 O 1595.03 -0.625806 -4.07624 0
M  V30 16597 H 1594.37 -0.333573 -0.57413 0
M  V30 16598 H 1596.9 -1.51853 -1.3712 0
M  V30 16599 H 1596.91 -1.44238 -3.81654 0
M  V30 16600 H 1595.59 -2.48819 -3.3326 0
M  V30 16601 H 1594.16 -0.687168 -3.66514 0
M  V30 16602 N 1596.35 1.26749 -0.936613 0
M  V30 16603 C 1597.59 1.9459 -0.592128 0
M  V30 16604 C 1597.95 1.72177 0.858649 0
M  V30 16605 O 1597.24 1.0455 1.60561 0
M  V30 16606 C 1597.44 3.4678 -0.864789 0
M  V30 16607 C 1597.27 3.83992 -2.34052 0
M  V30 16608 C 1596.04 4.06985 -2.99485 0
M  V30 16609 C 1598.23 3.92897 -3.31868 0
M  V30 16610 N 1596.22 4.31046 -4.37118 0
M  V30 16611 C 1597.59 4.21437 -4.54743 0
M  V30 16612 C 1599.64 3.75506 -3.26955 0
M  V30 16613 C 1598.34 4.34396 -5.73317 0
M  V30 16614 C 1600.37 3.89695 -4.4485 0
M  V30 16615 C 1599.73 4.1863 -5.66505 0
M  V30 16616 H 1595.83 0.73502 -0.266965 0
M  V30 16617 H 1598.42 1.52925 -1.20508 0
M  V30 16618 H 1596.59 3.87383 -0.280926 0
M  V30 16619 H 1598.32 4.01819 -0.482033 0
M  V30 16620 H 1595.07 4.02165 -2.5012 0
M  V30 16621 H 1595.5 4.47118 -5.08345 0
M  V30 16622 H 1600.14 3.52168 -2.3396 0
M  V30 16623 H 1597.86 4.56557 -6.66769 0
M  V30 16624 H 1601.44 3.77648 -4.42576 0
M  V30 16625 H 1600.32 4.29369 -6.5621 0
M  V30 16626 N 1597.83 0.703118 1.41046 0
M  V30 16627 C 1598.78 0.0192623 2.27992 0
M  V30 16628 C 1599.76 -0.745216 1.42602 0
M  V30 16629 O 1600.95 -0.619468 1.65806 0
M  V30 16630 C 1598.08 -0.910896 3.30995 0
M  V30 16631 C 1597.17 -0.142265 4.23861 0
M  V30 16632 N 1597.56 0.867928 4.98298 0
M  V30 16633 C 1595.86 -0.376651 4.44407 0
M  V30 16634 C 1596.56 1.32869 5.66322 0
M  V30 16635 N 1595.53 0.653176 5.39662 0
M  V30 16636 H 1599.34 0.793687 2.8298 0
M  V30 16637 H 1596.85 0.534609 1.53348 0
M  V30 16638 H 1598.85 -1.41603 3.92115 0
M  V30 16639 H 1597.51 -1.68483 2.77567 0
M  V30 16640 H 1598.52 1.2484 5.02628 0
M  V30 16641 H 1595.19 -1.12789 4.01976 0
M  V30 16642 H 1596.58 2.16738 6.35983 0
M  V30 16643 N 1599.3 -1.51086 0.448402 0
M  V30 16644 C 1600.72 -1.86696 -0.0121264 0
M  V30 16645 C 1601.07 -1.36483 -1.40949 0
M  V30 16646 O 1600.19 -0.72024 -2.04062 0
M  V30 16647 C 1600.79 -3.38788 -0.0287814 0
M  V30 16648 C 1599.35 -3.73892 -0.433758 0
M  V30 16649 C 1598.49 -2.74869 0.366362 0
M  V30 16650 H 1601.44 -1.44153 0.663744 0
M  V30 16651 H 1601.46 -3.71204 -0.835915 0
M  V30 16652 H 1600.98 -3.75304 0.988368 0
M  V30 16653 H 1599.08 -3.4297 -1.4561 0
M  V30 16654 H 1599.19 -4.78862 -0.150869 0
M  V30 16655 H 1597.55 -2.54085 -0.176862 0
M  V30 16656 H 1598.34 -3.14228 1.3826 0
M  V30 16657 N 1600.78 -0.180154 -1.56567 0
M  V30 16658 C 1602.19 0.335054 -1.83669 0
M  V30 16659 C 1602.54 1.62443 -1.1003 0
M  V30 16660 O 1601.67 2.13448 -0.356205 0
M  V30 16661 C 1602.26 0.61468 -3.33177 0
M  V30 16662 C 1600.82 1.0743 -3.60743 0
M  V30 16663 C 1599.97 0.114877 -2.77062 0
M  V30 16664 H 1602.92 -0.404245 -1.53465 0
M  V30 16665 H 1602.94 1.46574 -3.51136 0
M  V30 16666 H 1602.45 -0.323923 -3.86746 0
M  V30 16667 H 1600.56 2.0277 -3.12594 0
M  V30 16668 H 1600.67 0.977349 -4.69025 0
M  V30 16669 H 1599.03 0.613933 -2.4719 0
M  V30 16670 H 1599.82 -0.817904 -3.33414 0
M  V30 16671 N 1602.26 1.57322 0.0935319 0
M  V30 16672 C 1603.21 1.98608 1.11977 0
M  V30 16673 C 1604.19 0.864762 1.35686 0
M  V30 16674 O 1605.39 1.1286 1.36351 0
M  V30 16675 C 1602.52 2.41537 2.43957 0
M  V30 16676 C 1601.6 3.60357 2.23615 0
M  V30 16677 N 1601.99 4.75242 1.73144 0
M  V30 16678 C 1600.29 3.66485 2.54175 0
M  V30 16679 C 1600.99 5.5718 1.67109 0
M  V30 16680 N 1599.97 5.00396 2.1238 0
M  V30 16681 H 1603.77 2.84881 0.722513 0
M  V30 16682 H 1601.28 1.59587 0.300936 0
M  V30 16683 H 1603.28 2.69343 3.18213 0
M  V30 16684 H 1601.94 1.56641 2.84418 0
M  V30 16685 H 1602.95 4.97961 1.42319 0
M  V30 16686 H 1599.63 2.92255 2.9815 0
M  V30 16687 H 1601.02 6.59376 1.29125 0
M  V30 16688 N 1603.74 -0.364395 1.53329 0
M  V30 16689 C 1604.67 -1.46658 1.76137 0
M  V30 16690 C 1605.68 -1.496 0.642166 0
M  V30 16691 O 1606.87 -1.53058 0.918452 0
M  V30 16692 C 1603.97 -2.85417 1.8273 0
M  V30 16693 C 1603.15 -3.06158 3.12388 0
M  V30 16694 C 1602.2 -4.25038 3.10208 0
M  V30 16695 O 1601.23 -4.20156 3.84002 0
M  V30 16696 N 1602.43 -5.32511 2.31111 0
M  V30 16697 H 1605.2 -1.27471 2.7124 0
M  V30 16698 H 1602.76 -0.554127 1.52122 0
M  V30 16699 H 1604.75 -3.63086 1.78748 0
M  V30 16700 H 1603.32 -2.97845 0.949058 0
M  V30 16701 H 1602.54 -2.16139 3.29663 0
M  V30 16702 H 1603.83 -3.16885 3.98072 0
M  V30 16703 H 1603.23 -5.39341 1.70669 0
M  V30 16704 H 1601.78 -6.08752 2.32946 0
M  V30 16705 N 1605.22 -1.44709 -0.62426 0
M  V30 16706 C 1606.46 -1.47561 -1.38094 0
M  V30 16707 C 1606.79 -0.112115 -1.94677 0
M  V30 16708 O 1606.06 0.856458 -1.76186 0
M  V30 16709 H 1604.64 -0.543368 -0.512601 0
M  V30 16710 H 1607.3 -1.8054 -0.734258 0
M  V30 16711 H 1606.39 -2.20496 -2.2088 0
M  V30 16712 N 1606.69 0.865285 -1.31722 0
M  V30 16713 C 1607.62 1.98871 -1.22362 0
M  V30 16714 C 1608.61 1.69745 -0.109779 0
M  V30 16715 O 1609.79 1.91944 -0.295167 0
M  V30 16716 C 1606.92 3.34477 -0.935 0
M  V30 16717 C 1605.87 3.77924 -2.00892 0
M  V30 16718 C 1605.2 5.11042 -1.57291 0
M  V30 16719 C 1606.5 3.94528 -3.42264 0
M  V30 16720 H 1608.19 2.06959 -2.16352 0
M  V30 16721 H 1605.74 0.994355 -1.04157 0
M  V30 16722 H 1607.69 4.12612 -0.856111 0
M  V30 16723 H 1606.42 3.26575 0.0405536 0
M  V30 16724 H 1605.08 3.02032 -2.07779 0
M  V30 16725 H 1604.72 4.99586 -0.585084 0
M  V30 16726 H 1604.42 5.41082 -2.29138 0
M  V30 16727 H 1605.95 5.91681 -1.50818 0
M  V30 16728 H 1607.36 4.63045 -3.38027 0
M  V30 16729 H 1605.76 4.35972 -4.12369 0
M  V30 16730 H 1606.83 2.97765 -3.82706 0
M  V30 16731 N 1608.17 1.14759 1.0802 0
M  V30 16732 C 1609.4 0.942316 1.84757 0
M  V30 16733 C 1609.82 -0.504188 1.81217 0
M  V30 16734 O 1609.18 -1.35891 1.20014 0
M  V30 16735 C 1609.23 1.45271 3.30043 0
M  V30 16736 O 1608.33 0.647414 4.07287 0
M  V30 16737 H 1607.67 0.336613 0.572353 0
M  V30 16738 H 1610.2 1.52578 1.36313 0
M  V30 16739 H 1610.21 1.4626 3.80883 0
M  V30 16740 H 1608.89 2.50583 3.31935 0
M  V30 16741 H 1607.47 0.706595 3.66144 0
M  V30 16742 N 1609.65 -1.26251 0.943322 0
M  V30 16743 C 1610.93 -1.88839 0.509831 0
M  V30 16744 C 1611.31 -1.85227 -1.01263 0
M  V30 16745 O 1610.66 -1.30805 -1.87356 0
M  V30 16746 C 1610.87 -3.32076 1.07361 0
M  V30 16747 C 1612.21 -4.0891 1.14357 0
M  V30 16748 O 1613.24 -3.41153 1.02435 0
M  V30 16749 O 1612.1 -5.30088 1.32926 0
M  V30 16750 H 1609.19 -0.810069 0.166484 0
M  V30 16751 H 1611.74 -1.34405 1.03602 0
M  V30 16752 H 1610.51 -3.29077 2.11716 0
M  V30 16753 H 1610.13 -3.94052 0.529991 0
M  V30 16754 N 1611.13 -0.710588 -1.40671 0
M  V30 16755 C 1612.38 -0.244967 -2.00207 0
M  V30 16756 C 1612.69 1.16693 -1.56978 0
M  V30 16757 O 1613.9 1.73081 -2.09177 0
M  V30 16758 C 1612.35 -0.387049 -3.57813 0
M  V30 16759 C 1611.96 -1.80527 -4.10017 0
M  V30 16760 C 1613.71 0.0180338 -4.24496 0
M  V30 16761 C 1611.61 -1.89821 -5.60109 0
M  V30 16762 H 1610.54 -0.087831 -0.748867 0
M  V30 16763 H 1613.19 -0.880956 -1.6097 0
M  V30 16764 H 1611.58 0.317442 -3.94726 0
M  V30 16765 H 1612.75 -2.53974 -3.84492 0
M  V30 16766 H 1611.06 -2.16137 -3.55913 0
M  V30 16767 H 1613.66 -0.0307544 -5.34691 0
M  V30 16768 H 1614 1.05915 -4.02601 0
M  V30 16769 H 1614.54 -0.63672 -3.92671 0
M  V30 16770 H 1611.28 -2.92036 -5.86852 0
M  V30 16771 H 1610.8 -1.20779 -5.87514 0
M  V30 16772 H 1612.48 -1.66801 -6.25129 0
M  V30 16773 N 1612.61 1.50847 -0.456408 0
M  V30 16774 C 1614.02 1.59222 -0.109731 0
M  V30 16775 C 1614.22 1.46582 1.3826 0
M  V30 16776 O 1613.28 1.31678 2.15446 0
M  V30 16777 C 1614.59 2.9366 -0.646846 0
M  V30 16778 C 1616.14 3.07019 -0.60897 0
M  V30 16779 C 1616.62 4.44009 -1.12338 0
M  V30 16780 N 1618.11 4.50381 -1.08217 0
M  V30 16781 C 1618.84 5.54741 -1.45086 0
M  V30 16782 N 1618.34 6.66427 -1.89333 0
M  V30 16783 N 1620.13 5.45204 -1.36782 0
M  V30 16784 H 1612.28 1.57307 -1.42717 0
M  V30 16785 H 1614.54 0.742587 -0.589295 0
M  V30 16786 H 1614.25 3.0834 -1.69172 0
M  V30 16787 H 1614.12 3.7711 -0.0822535 0
M  V30 16788 H 1616.51 2.91995 0.426958 0
M  V30 16789 H 1616.59 2.25362 -1.21019 0
M  V30 16790 H 1616.24 4.59781 -2.15787 0
M  V30 16791 H 1616.17 5.24235 -0.498512 0
M  V30 16792 H 1618.66 3.70231 -0.757467 0
M  V30 16793 H 1618.97 7.42101 -2.15652 0
M  V30 16794 H 1617.32 6.67585 -1.93275 0
M  V30 16795 H 1620.51 4.56837 -1.02066 0
M  V30 16796 H 1620.68 6.26419 -1.65842 0
M  V30 16797 N 1614.09 0.188454 1.56469 0
M  V30 16798 C 1615.05 -0.721282 2.17555 0
M  V30 16799 C 1616.05 -1.14579 1.1282 0
M  V30 16800 O 1617.24 -1.05996 1.38241 0
M  V30 16801 C 1614.37 -1.9839 2.77226 0
M  V30 16802 H 1615.56 -0.189218 2.99302 0
M  V30 16803 H 1613.12 -0.0611533 1.5618 0
M  V30 16804 H 1613.85 -2.55864 1.99259 0
M  V30 16805 H 1613.64 -1.68831 3.53891 0
M  V30 16806 H 1615.13 -2.63277 3.24153 0
M  V30 16807 N 1615.56 -1.5737 -0.0851874 0
M  V30 16808 C 1616.84 -1.77624 -0.819094 0
M  V30 16809 C 1617.22 -0.772645 -1.96452 0
M  V30 16810 O 1616.57 0.196912 -2.2765 0
M  V30 16811 C 1616.78 -3.23704 -1.30449 0
M  V30 16812 C 1618.13 -3.87163 -1.74328 0
M  V30 16813 O 1619.15 -3.27513 -1.40048 0
M  V30 16814 O 1618.01 -4.92075 -2.37748 0
M  V30 16815 H 1615.1 -0.728487 -0.391453 0
M  V30 16816 H 1617.65 -1.6957 -0.0663006 0
M  V30 16817 H 1616.42 -3.88292 -0.484277 0
M  V30 16818 H 1616.04 -3.36429 -2.119 0
M  V30 16819 N 1617.04 0.356258 -1.53521 0
M  V30 16820 C 1617.99 1.43723 -1.76996 0
M  V30 16821 C 1618.98 1.48275 -0.624756 0
M  V30 16822 O 1620.17 1.53359 -0.883734 0
M  V30 16823 C 1617.3 2.81036 -1.97164 0
M  V30 16824 C 1616.38 2.80925 -3.17713 0
M  V30 16825 N 1616.77 2.50454 -4.39439 0
M  V30 16826 C 1615.07 3.12081 -3.18625 0
M  V30 16827 C 1615.77 2.58257 -5.21228 0
M  V30 16828 N 1614.75 2.93354 -4.57651 0
M  V30 16829 H 1618.55 1.19041 -2.68712 0
M  V30 16830 H 1616.06 0.564522 -1.52272 0
M  V30 16831 H 1618.06 3.58906 -2.12113 0
M  V30 16832 H 1616.72 3.06674 -1.06682 0
M  V30 16833 H 1617.73 2.23879 -4.6701 0
M  V30 16834 H 1614.41 3.42973 -2.38067 0
M  V30 16835 H 1615.8 2.37965 -6.28349 0
M  V30 16836 N 1618.52 1.45038 0.616577 0
M  V30 16837 C 1619.47 1.53343 1.74896 0
M  V30 16838 C 1620.46 0.404033 1.64511 0
M  V30 16839 O 1621.67 0.57958 1.70414 0
M  V30 16840 H 1618.04 0.481471 0.577658 0
M  V30 16841 H 1620.01 2.4862 1.65017 0
M  V30 16842 C 1618.76 1.50871 3.13262 0
M  V30 16843 H 1618.09 2.37098 3.21908 0
M  V30 16844 H 1619.53 1.60741 3.9235 0
M  V30 16845 C 1617.98 0.231704 3.36102 0
M  V30 16846 O 1618.51 -0.692154 3.95692 0
M  V30 16847 N 1616.72 0.130232 2.90308 0
M  V30 16848 H 1616.27 0.882893 2.41997 0
M  V30 16849 H 1616.23 -0.723403 3.05964 0
M  V30 16850 N 1620 -0.858287 1.32179 0
M  V30 16851 C 1621.23 -1.64473 1.25523 0
M  V30 16852 C 1621.64 -1.87964 -0.177425 0
M  V30 16853 O 1621 -1.44607 -1.11333 0
M  V30 16854 C 1621.05 -3.00609 2.0079 0
M  V30 16855 O 1620.77 -2.7816 3.38465 0
M  V30 16856 C 1622.27 -3.95054 2.01115 0
M  V30 16857 H 1619.49 -0.512393 0.433237 0
M  V30 16858 H 1622.03 -1.07048 1.74244 0
M  V30 16859 H 1620.19 -3.5469 1.55801 0
M  V30 16860 H 1620.6 -3.64712 3.76942 0
M  V30 16861 H 1622.08 -4.87854 2.58268 0
M  V30 16862 H 1622.55 -4.27746 0.996513 0
M  V30 16863 H 1623.16 -3.4691 2.46035 0
M  V30 16864 N 1621.48 -1.1533 -1.07409 0
M  V30 16865 C 1622.72 -0.929181 -1.80261 0
M  V30 16866 C 1623.05 0.542387 -1.86472 0
M  V30 16867 O 1622.33 1.40209 -1.34802 0
M  V30 16868 C 1622.61 -1.54339 -3.25348 0
M  V30 16869 C 1622.47 -3.08551 -3.27286 0
M  V30 16870 C 1623.78 -1.22868 -4.22601 0
M  V30 16871 H 1620.9 -0.338985 -0.654414 0
M  V30 16872 H 1623.55 -1.42485 -1.2569 0
M  V30 16873 H 1621.7 -1.12187 -3.71949 0
M  V30 16874 H 1623.37 -3.59605 -2.88932 0
M  V30 16875 H 1621.61 -3.42471 -2.66263 0
M  V30 16876 H 1622.28 -3.4664 -4.29587 0
M  V30 16877 H 1624.76 -1.59328 -3.84388 0
M  V30 16878 H 1623.63 -1.68462 -5.2241 0
M  V30 16879 H 1623.89 -0.145612 -4.4186 0
M  V30 16880 N 1622.95 1.25748 -0.950004 0
M  V30 16881 C 1623.88 2.28419 -0.484467 0
M  V30 16882 C 1624.86 1.63569 0.466813 0
M  V30 16883 O 1626.05 1.90705 0.366766 0
M  V30 16884 C 1623.18 3.46449 0.242916 0
M  V30 16885 C 1622.13 4.23447 -0.622657 0
M  V30 16886 C 1621.46 5.34182 0.235199 0
M  V30 16887 C 1622.76 4.86576 -1.89845 0
M  V30 16888 H 1624.45 2.6761 -1.34257 0
M  V30 16889 H 1622 1.28646 -0.647014 0
M  V30 16890 H 1623.95 4.17394 0.579693 0
M  V30 16891 H 1622.68 3.06235 1.13523 0
M  V30 16892 H 1621.34 3.54279 -0.942453 0
M  V30 16893 H 1620.98 4.90209 1.12713 0
M  V30 16894 H 1620.68 5.86612 -0.340609 0
M  V30 16895 H 1622.21 6.07961 0.567048 0
M  V30 16896 H 1623.62 5.49688 -1.62837 0
M  V30 16897 H 1622.02 5.49162 -2.41954 0
M  V30 16898 H 1623.09 4.09021 -2.60441 0
M  V30 16899 N 1624.43 0.718038 1.40292 0
M  V30 16900 C 1625.84 0.330675 1.83748 0
M  V30 16901 C 1626.19 -1.13511 1.6003 0
M  V30 16902 O 1625.32 -1.87381 1.08247 0
M  V30 16903 C 1625.91 0.593398 3.33563 0
M  V30 16904 C 1624.47 0.259717 3.75503 0
M  V30 16905 C 1623.62 0.864537 2.63479 0
M  V30 16906 H 1626.57 0.917 1.29525 0
M  V30 16907 H 1626.59 -0.140544 3.8024 0
M  V30 16908 H 1626.1 1.66028 3.50794 0
M  V30 16909 H 1624.2 -0.802011 3.63866 0
M  V30 16910 H 1624.32 0.730427 4.73499 0
M  V30 16911 H 1622.68 0.292399 2.53016 0
M  V30 16912 H 1623.46 1.93574 2.83521 0
M  V30 16913 N 1625.91 -1.50602 0.464402 0
M  V30 16914 C 1627.16 -2.01887 -0.0927084 0
M  V30 16915 C 1627.48 -1.34891 -1.40817 0
M  V30 16916 O 1626.75 -0.492078 -1.89619 0
M  V30 16917 H 1625.33 -0.746071 -0.0372514 0
M  V30 16918 H 1627.99 -1.84999 0.613296 0
M  V30 16919 H 1627.09 -3.11105 -0.249067 0
M  V30 16920 N 1627.39 -0.19675 -1.56367 0
M  V30 16921 C 1628.8 0.159068 -1.58805 0
M  V30 16922 C 1629 1.60902 -1.21297 0
M  V30 16923 O 1628.06 2.34491 -0.93649 0
M  V30 16924 C 1629.37 -0.144784 -3.00351 0
M  V30 16925 C 1630.92 -0.0850243 -3.12884 0
M  V30 16926 C 1631.4 -0.362209 -4.56565 0
M  V30 16927 N 1632.89 -0.310887 -4.62156 0
M  V30 16928 C 1633.62 -0.499187 -5.71223 0
M  V30 16929 N 1633.12 -0.747925 -6.88751 0
M  V30 16930 N 1634.91 -0.433329 -5.60427 0
M  V30 16931 H 1627.06 -1.1429 -1.79029 0
M  V30 16932 H 1629.33 -0.456298 -0.830961 0
M  V30 16933 H 1629.03 -1.15019 -3.3236 0
M  V30 16934 H 1628.91 0.551864 -3.73141 0
M  V30 16935 H 1631.29 0.910992 -2.80687 0
M  V30 16936 H 1631.37 -0.814774 -2.42477 0
M  V30 16937 H 1631.02 -1.35555 -4.89477 0
M  V30 16938 H 1630.95 0.388448 -5.25165 0
M  V30 16939 H 1633.44 -0.125318 -3.77692 0
M  V30 16940 H 1633.75 -0.880372 -7.67769 0
M  V30 16941 H 1632.1 -0.784838 -6.90554 0
M  V30 16942 H 1635.29 -0.239411 -4.67487 0
M  V30 16943 H 1635.46 -0.583495 -6.45368 0
M  V30 16944 N 1628.87 1.57413 0.0768405 0
M  V30 16945 C 1630.28 1.75776 0.629262 0
M  V30 16946 C 1630.63 0.821502 1.78173 0
M  V30 16947 O 1629.75 0.00437198 2.164 0
M  V30 16948 C 1630.35 3.18747 1.14828 0
M  V30 16949 C 1628.91 3.38472 1.64661 0
M  V30 16950 C 1628.05 2.71506 0.563884 0
M  V30 16951 H 1631.01 1.57996 -0.149312 0
M  V30 16952 H 1631.03 3.22628 2.01722 0
M  V30 16953 H 1630.54 3.86866 0.309282 0
M  V30 16954 H 1628.64 2.75461 2.50903 0
M  V30 16955 H 1628.75 4.4689 1.72703 0
M  V30 16956 H 1627.12 2.33917 1.00772 0
M  V30 16957 H 1627.9 3.42277 -0.264847 0
M  V30 16958 N 1630.34 -0.348112 1.53707 0
M  V30 16959 C 1631.76 -0.690926 1.43869 0
M  V30 16960 C 1631.96 -1.92614 0.59177 0
M  V30 16961 O 1631.02 -2.5237 0.0809797 0
M  V30 16962 C 1632.33 -0.887824 2.87295 0
M  V30 16963 C 1633.88 -0.986731 2.9704 0
M  V30 16964 C 1634.35 -1.21598 4.41563 0
M  V30 16965 N 1635.84 -1.28328 4.45069 0
M  V30 16966 C 1636.58 -1.47809 5.54022 0
M  V30 16967 N 1636.07 -1.64492 6.72989 0
M  V30 16968 N 1637.87 -1.5032 5.41628 0
M  V30 16969 H 1630.02 0.464101 2.07268 0
M  V30 16970 H 1632.28 0.145678 0.93674 0
M  V30 16971 H 1631.99 -0.0517672 3.51662 0
M  V30 16972 H 1631.86 -1.79089 3.31974 0
M  V30 16973 H 1634.25 -1.81331 2.32815 0
M  V30 16974 H 1634.33 -0.0606692 2.55728 0
M  V30 16975 H 1633.97 -0.394341 5.06367 0
M  V30 16976 H 1633.9 -2.15553 4.80463 0
M  V30 16977 H 1636.39 -1.16979 3.59339 0
M  V30 16978 H 1636.71 -1.78979 7.51789 0
M  V30 16979 H 1635.05 -1.61636 6.75943 0
M  V30 16980 H 1638.24 -1.36865 4.47644 0
M  V30 16981 H 1638.42 -1.6516 6.26599 0
M  V30 16982 N 1631.82 -1.45363 -0.608876 0
M  V30 16983 C 1632.75 -1.49944 -1.73348 0
M  V30 16984 C 1633.77 -0.390352 -1.58051 0
M  V30 16985 O 1634.96 -0.657338 -1.65956 0
M  V30 16986 C 1632.06 -1.33886 -3.11332 0
M  V30 16987 C 1631.23 -2.58445 -3.52881 0
M  V30 16988 C 1630.29 -2.36963 -4.69825 0
M  V30 16989 O 1629.31 -3.10569 -4.77007 0
M  V30 16990 N 1630.52 -1.41442 -5.63005 0
M  V30 16991 H 1633.28 -2.46902 -1.69882 0
M  V30 16992 H 1630.84 -1.41086 -0.794119 0
M  V30 16993 H 1632.83 -1.17327 -3.8732 0
M  V30 16994 H 1631.4 -0.452095 -3.09314 0
M  V30 16995 H 1630.62 -2.90129 -2.66869 0
M  V30 16996 H 1631.91 -3.41245 -3.77398 0
M  V30 16997 H 1631.31 -0.806941 -5.59915 0
M  V30 16998 H 1629.87 -1.30855 -6.3853 0
M  V30 16999 N 1633.3 0.851265 -1.32632 0
M  V30 17000 C 1634.25 1.98152 -1.21813 0
M  V30 17001 C 1635.24 1.68959 -0.122182 0
M  V30 17002 O 1636.45 1.77724 -0.285332 0
M  V30 17003 H 1632.82 0.650275 -0.377686 0
M  V30 17004 H 1634.79 2.04405 -2.17397 0
M  V30 17005 C 1633.54 3.34141 -0.961521 0
M  V30 17006 H 1632.87 3.57136 -1.79704 0
M  V30 17007 H 1634.31 4.13763 -0.926077 0
M  V30 17008 C 1632.77 3.35223 0.335704 0
M  V30 17009 O 1633.3 3.78461 1.34647 0
M  V30 17010 N 1631.5 2.88376 0.358875 0
M  V30 17011 H 1631.05 2.53383 -0.464194 0
M  V30 17012 H 1631.01 2.89482 1.22668 0
M  V30 17013 N 1634.78 1.15898 1.06796 0
M  V30 17014 C 1636 0.961859 1.83747 0
M  V30 17015 C 1636.43 -0.48494 1.81741 0
M  V30 17016 O 1635.79 -1.3461 1.21449 0
M  V30 17017 C 1635.83 1.48764 3.28484 0
M  V30 17018 O 1634.94 0.690576 4.06577 0
M  V30 17019 H 1634.28 0.342664 0.568751 0
M  V30 17020 H 1636.81 1.54015 1.34687 0
M  V30 17021 H 1636.82 1.50291 3.79311 0
M  V30 17022 H 1635.49 2.54089 3.29259 0
M  V30 17023 H 1634.07 0.74539 3.65374 0
M  V30 17024 N 1636.26 -1.25243 0.956659 0
M  V30 17025 C 1637.19 -2.28159 0.496574 0
M  V30 17026 C 1638.17 -1.63814 -0.458132 0
M  V30 17027 O 1639.35 -1.90897 -0.356648 0
M  V30 17028 C 1636.48 -3.46573 -0.22454 0
M  V30 17029 C 1635.44 -4.2311 0.645104 0
M  V30 17030 C 1634.76 -5.343 -0.206867 0
M  V30 17031 C 1636.06 -4.85562 1.92422 0
M  V30 17032 H 1637.76 -2.66895 1.35675 0
M  V30 17033 H 1635.3 -1.28301 0.653827 0
M  V30 17034 H 1637.26 -4.17695 -0.55755 0
M  V30 17035 H 1635.98 -3.06833 -1.11898 0
M  V30 17036 H 1634.64 -3.53774 0.961228 0
M  V30 17037 H 1634.29 -4.908 -1.10112 0
M  V30 17038 H 1633.99 -5.86423 0.371714 0
M  V30 17039 H 1635.51 -6.08253 -0.534798 0
M  V30 17040 H 1636.92 -5.48817 1.65749 0
M  V30 17041 H 1635.32 -5.47871 2.44862 0
M  V30 17042 H 1636.39 -4.07634 2.62607 0
M  V30 17043 N 1637.73 -0.725468 -1.3991 0
M  V30 17044 C 1638.68 -0.0555314 -2.27932 0
M  V30 17045 C 1639.67 0.722435 -1.4377 0
M  V30 17046 O 1640.86 0.593011 -1.6677 0
M  V30 17047 C 1637.99 0.858122 -3.32402 0
M  V30 17048 C 1637.08 0.0748146 -4.24034 0
M  V30 17049 N 1637.47 -0.947093 -4.96854 0
M  V30 17050 C 1635.76 0.305902 -4.4495 0
M  V30 17051 C 1636.47 -1.41861 -5.64137 0
M  V30 17052 N 1635.44 -0.738949 -5.38554 0
M  V30 17053 H 1639.24 -0.838606 -2.81682 0
M  V30 17054 H 1636.76 -0.558938 -1.52478 0
M  V30 17055 H 1638.75 1.35347 -3.94318 0
M  V30 17056 H 1637.41 1.64046 -2.80212 0
M  V30 17057 H 1638.43 -1.32821 -5.00579 0
M  V30 17058 H 1635.1 1.06379 -4.0372 0
M  V30 17059 H 1636.49 -2.26829 -6.32454 0
M  V30 17060 N 1639.21 1.50354 -0.472382 0
M  V30 17061 C 1640.46 2.01934 0.0820006 0
M  V30 17062 C 1640.78 1.35636 1.401 0
M  V30 17063 O 1640.05 0.502127 1.89355 0
M  V30 17064 H 1638.63 0.746258 0.0332943 0
M  V30 17065 H 1641.29 1.84671 -0.623099 0
M  V30 17066 H 1640.39 3.11232 0.232565 0
M  V30 17067 N 1640.69 0.205039 1.56261 0
M  V30 17068 C 1641.92 -0.439502 2.0269 0
M  V30 17069 C 1642.34 -1.53715 1.08413 0
M  V30 17070 O 1641.7 -1.81167 0.0693616 0
M  V30 17071 C 1641.75 -0.963672 3.47485 0
M  V30 17072 O 1640.85 -2.07602 3.56336 0
M  V30 17073 H 1640.19 -0.101543 0.65619 0
M  V30 17074 H 1642.72 0.318835 2.021 0
M  V30 17075 H 1642.73 -1.27773 3.87476 0
M  V30 17076 H 1641.41 -0.160203 4.15591 0
M  V30 17077 H 1639.98 -1.76985 3.28224 0
M  V30 17078 N 1642.17 -1.57451 -0.0684915 0
M  V30 17079 C 1643.42 -1.87411 -0.76702 0
M  V30 17080 C 1643.74 -0.797219 -1.77411 0
M  V30 17081 O 1643 0.206424 -1.94608 0
M  V30 17082 C 1643.3 -3.24044 -1.50765 0
M  V30 17083 C 1642.96 -4.46331 -0.640238 0
M  V30 17084 C 1641.63 -4.79525 -0.401205 0
M  V30 17085 C 1643.98 -5.21185 -0.0389475 0
M  V30 17086 C 1641.31 -5.84983 0.448547 0
M  V30 17087 C 1643.66 -6.27543 0.798278 0
M  V30 17088 C 1642.32 -6.59235 1.04715 0
M  V30 17089 H 1641.59 -0.685787 -0.280673 0
M  V30 17090 H 1644.24 -1.9148 -0.0277143 0
M  V30 17091 H 1642.54 -3.15782 -2.31925 0
M  V30 17092 H 1644.24 -3.44461 -2.05299 0
M  V30 17093 H 1640.83 -4.20354 -0.836675 0
M  V30 17094 H 1645.02 -4.95852 -0.210729 0
M  V30 17095 H 1640.27 -6.07934 0.650077 0
M  V30 17096 H 1644.45 -6.84705 1.27092 0
M  V30 17097 H 1642.07 -7.40779 1.70737 0
M  V30 17098 N 1643.65 0.339955 -1.5389 0
M  V30 17099 C 1644.6 1.41838 -1.78511 0
M  V30 17100 C 1645.58 1.47604 -0.640447 0
M  V30 17101 O 1646.77 1.52414 -0.899951 0
M  V30 17102 C 1643.9 2.78929 -2.00134 0
M  V30 17103 C 1642.99 2.7754 -3.20675 0
M  V30 17104 N 1643.38 2.45779 -4.42071 0
M  V30 17105 C 1641.68 3.08684 -3.21917 0
M  V30 17106 C 1642.38 2.52714 -5.23938 0
M  V30 17107 N 1641.35 2.88484 -4.60736 0
M  V30 17108 H 1645.16 1.16185 -2.6996 0
M  V30 17109 H 1642.67 0.548339 -1.52863 0
M  V30 17110 H 1644.67 3.56637 -2.15907 0
M  V30 17111 H 1643.33 3.05525 -1.09929 0
M  V30 17112 H 1644.34 2.18913 -4.69358 0
M  V30 17113 H 1641.02 3.40429 -2.41691 0
M  V30 17114 H 1642.41 2.31287 -6.30838 0
M  V30 17115 N 1645.13 1.45684 0.601159 0
M  V30 17116 C 1646.35 1.53806 1.39135 0
M  V30 17117 C 1646.78 0.173625 1.87297 0
M  V30 17118 O 1646.13 -0.842931 1.60513 0
M  V30 17119 C 1646.18 2.53201 2.56752 0
M  V30 17120 O 1645.29 2.05427 3.57594 0
M  V30 17121 H 1644.63 0.51824 0.415118 0
M  V30 17122 H 1647.16 1.91095 0.731006 0
M  V30 17123 H 1647.17 2.72215 3.03912 0
M  V30 17124 H 1645.84 3.52294 2.21047 0
M  V30 17125 H 1644.42 1.96318 3.17039 0
M  V30 17126 N 1646.6 -0.84422 1.33082 0
M  V30 17127 C 1647.57 -1.93519 1.22813 0
M  V30 17128 C 1648.57 -1.60113 0.148516 0
M  V30 17129 O 1649.76 -1.69553 0.399668 0
M  V30 17130 C 1646.89 -3.29045 0.891179 0
M  V30 17131 H 1648.08 -2.04051 2.1978 0
M  V30 17132 H 1645.63 -1.03567 1.17063 0
M  V30 17133 H 1646.37 -3.2421 -0.0762276 0
M  V30 17134 H 1646.15 -3.54671 1.67186 0
M  V30 17135 H 1647.64 -4.08984 0.843932 0
M  V30 17136 N 1648.08 -1.16463 -1.0618 0
M  V30 17137 C 1649.36 -0.857038 -1.75824 0
M  V30 17138 C 1649.74 0.644886 -2.01009 0
M  V30 17139 O 1649.09 1.59305 -1.63812 0
M  V30 17140 C 1649.3 -1.681 -3.05849 0
M  V30 17141 C 1650.64 -1.8947 -3.79982 0
M  V30 17142 O 1651.67 -1.64975 -3.15692 0
M  V30 17143 O 1650.53 -2.30573 -4.95478 0
M  V30 17144 H 1647.62 -0.316364 -0.764096 0
M  V30 17145 H 1650.17 -1.27105 -1.12438 0
M  V30 17146 H 1648.94 -2.70014 -2.8321 0
M  V30 17147 H 1648.56 -1.2641 -3.7697 0
M  V30 17148 N 1649.56 1.24734 -0.963288 0
M  V30 17149 C 1650.81 1.92971 -0.623688 0
M  V30 17150 C 1651.14 1.7517 0.838393 0
M  V30 17151 O 1650.41 1.10208 1.60264 0
M  V30 17152 C 1650.7 3.46115 -0.99379 0
M  V30 17153 C 1650.55 3.73104 -2.51224 0
M  V30 17154 C 1651.87 4.36956 -0.525128 0
M  V30 17155 H 1648.99 0.700827 -0.228058 0
M  V30 17156 H 1651.63 1.47187 -1.2015 0
M  V30 17157 H 1649.78 3.85242 -0.502108 0
M  V30 17158 H 1651.45 3.43563 -3.07835 0
M  V30 17159 H 1649.69 3.18409 -2.94616 0
M  V30 17160 H 1650.37 4.80237 -2.7217 0
M  V30 17161 H 1652.84 4.0518 -0.947015 0
M  V30 17162 H 1651.72 5.4285 -0.812695 0
M  V30 17163 H 1651.98 4.38347 0.574843 0
M  V30 17164 N 1651.04 0.732878 1.39523 0
M  V30 17165 C 1651.97 0.106583 2.33257 0
M  V30 17166 C 1652.95 -0.726582 1.53801 0
M  V30 17167 O 1654.13 -0.671994 1.82203 0
M  V30 17168 C 1651.26 -0.803051 3.37888 0
M  V30 17169 C 1650.22 -0.0742048 4.27936 0
M  V30 17170 C 1649.54 -1.10071 5.23248 0
M  V30 17171 C 1650.84 1.08195 5.10971 0
M  V30 17172 H 1652.54 0.889539 2.8588 0
M  V30 17173 H 1650.08 0.429209 1.37455 0
M  V30 17174 H 1652.04 -1.25071 4.02412 0
M  V30 17175 H 1650.76 -1.6181 2.83699 0
M  V30 17176 H 1649.42 0.35381 3.64889 0
M  V30 17177 H 1649.07 -1.90927 4.65356 0
M  V30 17178 H 1648.77 -0.617825 5.84343 0
M  V30 17179 H 1650.29 -1.54812 5.90649 0
M  V30 17180 H 1651.71 0.712835 5.68851 0
M  V30 17181 H 1650.1 1.49433 5.81197 0
M  V30 17182 H 1651.17 1.90463 4.45928 0
M  V30 17183 N 1652.52 -1.50101 0.480349 0
M  V30 17184 C 1653.46 -2.28722 -0.308993 0
M  V30 17185 C 1654.43 -1.34186 -0.978948 0
M  V30 17186 O 1655.62 -1.6313 -0.989602 0
M  V30 17187 C 1652.76 -3.16322 -1.37966 0
M  V30 17188 C 1651.87 -4.25898 -0.723552 0
M  V30 17189 C 1651.01 -5.00741 -1.7729 0
M  V30 17190 C 1650.04 -6.0218 -1.09754 0
M  V30 17191 N 1649.18 -6.70266 -2.09015 0
M  V30 17192 H 1654.02 -2.95722 0.367739 0
M  V30 17193 H 1651.56 -1.45826 0.193197 0
M  V30 17194 H 1653.52 -3.65469 -2.01217 0
M  V30 17195 H 1652.15 -2.51349 -2.02543 0
M  V30 17196 H 1651.2 -3.80394 0.0217507 0
M  V30 17197 H 1652.51 -4.98435 -0.190905 0
M  V30 17198 H 1651.66 -5.53653 -2.48098 0
M  V30 17199 H 1650.4 -4.27931 -2.33937 0
M  V30 17200 H 1649.41 -5.48519 -0.375123 0
M  V30 17201 H 1650.63 -6.76967 -0.537841 0
M  V30 17202 H 1648.58 -6.00242 -2.64662 0
M  V30 17203 H 1648.5 -7.3871 -1.6076 0
M  V30 17204 H 1649.76 -7.27792 -2.79175 0
M  V30 17205 N 1653.99 -0.213323 -1.5615 0
M  V30 17206 C 1654.93 0.739954 -2.1587 0
M  V30 17207 C 1655.9 1.19683 -1.10067 0
M  V30 17208 O 1657.09 1.28106 -1.38279 0
M  V30 17209 C 1654.22 2.00152 -2.73234 0
M  V30 17210 C 1653.26 1.68529 -3.91791 0
M  V30 17211 S 1654.09 0.817317 -5.29226 0
M  V30 17212 C 1655.25 2.08863 -5.90023 0
M  V30 17213 H 1655.48 0.232328 -2.96391 0
M  V30 17214 H 1653.02 0.00189263 -1.544 0
M  V30 17215 H 1654.97 2.72594 -3.06925 0
M  V30 17216 H 1653.64 2.48027 -1.92722 0
M  V30 17217 H 1652.83 2.62241 -4.30402 0
M  V30 17218 H 1652.43 1.04157 -3.59204 0
M  V30 17219 H 1654.72 3.03943 -6.05495 0
M  V30 17220 H 1655.67 1.74656 -6.86222 0
M  V30 17221 H 1656.07 2.22541 -5.18783 0
M  V30 17222 N 1655.47 1.57485 0.0601405 0
M  V30 17223 C 1656.75 1.78904 0.790732 0
M  V30 17224 C 1657.13 0.803802 1.95198 0
M  V30 17225 O 1656.48 -0.16067 2.27934 0
M  V30 17226 C 1656.69 3.25738 1.25282 0
M  V30 17227 C 1658.04 3.89887 1.68147 0
M  V30 17228 O 1659.06 3.297 1.3482 0
M  V30 17229 O 1657.92 4.95796 2.29889 0
M  V30 17230 H 1655.01 0.734623 0.379814 0
M  V30 17231 H 1657.56 1.69654 0.0393151 0
M  V30 17232 H 1656.33 3.89013 0.422442 0
M  V30 17233 H 1655.95 3.39757 2.06521 0
M  V30 17234 N 1656.95 -0.331789 1.54068 0
M  V30 17235 C 1658.23 -1.08843 1.6252 0
M  V30 17236 C 1658.61 -2.06164 0.453847 0
M  V30 17237 O 1657.96 -2.21714 -0.552727 0
M  V30 17238 C 1658.17 -1.79767 2.9914 0
M  V30 17239 C 1659.51 -2.33086 3.54903 0
M  V30 17240 O 1660.54 -1.89846 3.01392 0
M  V30 17241 O 1659.4 -3.12226 4.48528 0
M  V30 17242 H 1656.49 -0.501222 0.657804 0
M  V30 17243 H 1659.04 -0.332339 1.66414 0
M  V30 17244 H 1657.81 -1.08932 3.75832 0
M  V30 17245 H 1657.43 -2.62205 2.98888 0
M  V30 17246 N 1658.43 -1.46001 -0.593424 0
M  V30 17247 C 1659.68 -1.50755 -1.352 0
M  V30 17248 C 1660 -0.154929 -1.93882 0
M  V30 17249 O 1659.26 0.848161 -1.76365 0
M  V30 17250 C 1659.56 -2.54568 -2.50858 0
M  V30 17251 C 1659.22 -3.98888 -2.10236 0
M  V30 17252 C 1657.89 -4.38182 -1.98872 0
M  V30 17253 C 1660.24 -4.89591 -1.78746 0
M  V30 17254 C 1657.57 -5.66057 -1.5426 0
M  V30 17255 C 1659.92 -6.17892 -1.35617 0
M  V30 17256 C 1658.58 -6.56103 -1.22822 0
M  V30 17257 H 1657.85 -0.551652 -0.494734 0
M  V30 17258 H 1660.5 -1.79422 -0.669327 0
M  V30 17259 H 1658.8 -2.19523 -3.24526 0
M  V30 17260 H 1660.5 -2.5548 -3.09081 0
M  V30 17261 H 1657.09 -3.67822 -2.20012 0
M  V30 17262 H 1661.27 -4.59959 -1.86416 0
M  V30 17263 H 1656.53 -5.94444 -1.42988 0
M  V30 17264 H 1660.7 -6.87609 -1.10301 0
M  V30 17265 H 1658.33 -7.55086 -0.880285 0
M  V30 17266 N 1659.91 0.83715 -1.33527 0
M  V30 17267 C 1661.15 1.58937 -1.24834 0
M  V30 17268 C 1661.48 1.94117 0.185368 0
M  V30 17269 O 1660.75 1.61105 1.11453 0
M  V30 17270 H 1659.33 0.589301 -0.459057 0
M  V30 17271 H 1661.99 1.00038 -1.67267 0
M  V30 17272 H 1661.08 2.51855 -1.84325 0
M  V30 17273 N 1661.38 1.17024 1.05561 0
M  V30 17274 C 1662.35 0.885897 2.11387 0
M  V30 17275 C 1663.35 -0.122327 1.60334 0
M  V30 17276 O 1664.54 0.109416 1.73856 0
M  V30 17277 C 1661.67 0.32626 3.39335 0
M  V30 17278 H 1662.86 1.82414 2.38045 0
M  V30 17279 H 1660.42 0.980191 1.21745 0
M  V30 17280 H 1661.15 -0.619308 3.18332 0
M  V30 17281 H 1660.94 1.05285 3.777 0
M  V30 17282 H 1662.43 0.145513 4.17346 0
M  V30 17283 N 1662.86 -1.24221 0.969889 0
M  V30 17284 C 1664.11 -1.92638 0.633913 0
M  V30 17285 C 1664.44 -1.75612 -0.829092 0
M  V30 17286 O 1663.72 -1.11057 -1.59677 0
M  V30 17287 C 1664 -3.45583 1.01213 0
M  V30 17288 C 1663.85 -3.71766 2.53199 0
M  V30 17289 C 1665.17 -4.36671 0.548294 0
M  V30 17290 H 1662.29 -0.699608 0.231772 0
M  V30 17291 H 1664.93 -1.46548 1.20929 0
M  V30 17292 H 1663.08 -3.8497 0.522531 0
M  V30 17293 H 1664.75 -3.41925 3.09653 0
M  V30 17294 H 1663 -3.16842 2.963 0
M  V30 17295 H 1663.67 -4.78787 2.74713 0
M  V30 17296 H 1666.14 -4.04672 0.968489 0
M  V30 17297 H 1665.02 -5.42412 0.841472 0
M  V30 17298 H 1665.28 -4.38646 -0.551588 0
M  V30 17299 N 1664.34 -0.740267 -1.39132 0
M  V30 17300 C 1665.75 -0.359866 -1.83199 0
M  V30 17301 C 1666.1 1.1095 -1.61816 0
M  V30 17302 O 1665.23 1.85635 -1.11215 0
M  V30 17303 C 1665.82 -0.64639 -3.32577 0
M  V30 17304 C 1664.38 -0.319423 -3.75042 0
M  V30 17305 C 1663.53 -0.906345 -2.6207 0
M  V30 17306 H 1666.48 -0.93749 -1.2805 0
M  V30 17307 H 1666.5 0.080033 -3.80416 0
M  V30 17308 H 1666.01 -1.71588 -3.48108 0
M  V30 17309 H 1664.11 0.744022 -3.65096 0
M  V30 17310 H 1664.23 -0.805664 -4.72277 0
M  V30 17311 H 1662.59 -0.332615 -2.52519 0
M  V30 17312 H 1663.37 -1.9806 -2.80405 0
M  V30 17313 N 1665.82 1.49844 -0.488302 0
M  V30 17314 C 1667.07 2.02409 0.0606981 0
M  V30 17315 C 1667.39 1.36901 1.38161 0
M  V30 17316 O 1666.65 0.48951 1.89479 0
M  V30 17317 C 1666.95 3.56342 0.274851 0
M  V30 17318 C 1666.61 4.4042 -0.966481 0
M  V30 17319 C 1665.28 4.63116 -1.30678 0
M  V30 17320 C 1667.63 4.89418 -1.79218 0
M  V30 17321 C 1664.96 5.32055 -2.47253 0
M  V30 17322 C 1667.31 5.59639 -2.94935 0
M  V30 17323 C 1665.97 5.80584 -3.2936 0
M  V30 17324 H 1665.24 0.740667 0.022211 0
M  V30 17325 H 1667.89 1.80279 -0.645882 0
M  V30 17326 H 1666.19 3.7708 1.06384 0
M  V30 17327 H 1667.89 3.94594 0.71388 0
M  V30 17328 H 1664.48 4.22987 -0.691388 0
M  V30 17329 H 1668.66 4.71723 -1.54244 0
M  V30 17330 H 1663.92 5.46477 -2.74177 0
M  V30 17331 H 1668.09 5.96583 -3.59251 0
M  V30 17332 H 1665.72 6.33779 -4.19795 0
M  V30 17333 N 1667.3 0.221601 1.56034 0
M  V30 17334 C 1668.52 -0.414945 2.02696 0
M  V30 17335 C 1668.94 -1.53344 1.10141 0
M  V30 17336 O 1668.3 -1.82162 0.111026 0
M  V30 17337 C 1668.35 -0.946532 3.48888 0
M  V30 17338 O 1668.07 0.12737 4.37915 0
M  V30 17339 C 1669.57 -1.65631 4.11195 0
M  V30 17340 H 1666.79 -0.101548 0.663271 0
M  V30 17341 H 1669.33 0.338069 2.01686 0
M  V30 17342 H 1667.49 -1.64982 3.50514 0
M  V30 17343 H 1667.9 -0.272211 5.23793 0
M  V30 17344 H 1669.38 -1.98027 5.15257 0
M  V30 17345 H 1669.85 -2.56947 3.56195 0
M  V30 17346 H 1670.46 -0.998231 4.13419 0
M  V30 17347 N 1668.77 -1.57515 -0.0517878 0
M  V30 17348 C 1669.68 -2.08427 -1.07681 0
M  V30 17349 C 1670.7 -1.01797 -1.41115 0
M  V30 17350 O 1671.88 -1.33394 -1.50891 0
M  V30 17351 C 1668.94 -2.53472 -2.36544 0
M  V30 17352 C 1668 -3.74488 -2.09899 0
M  V30 17353 C 1667.24 -4.17374 -3.32618 0
M  V30 17354 O 1667.46 -3.59962 -4.42475 0
M  V30 17355 O 1666.39 -5.10006 -3.19653 0
M  V30 17356 H 1670.22 -2.96122 -0.674217 0
M  V30 17357 H 1667.8 -1.4699 -0.267274 0
M  V30 17358 H 1669.69 -2.82876 -3.12345 0
M  V30 17359 H 1668.36 -1.68899 -2.76143 0
M  V30 17360 H 1667.27 -3.50137 -1.31739 0
M  V30 17361 H 1668.6 -4.59975 -1.75169 0
M  V30 17362 N 1670.25 0.323614 -1.54242 0
M  V30 17363 C 1671.18 1.40344 -1.86616 0
M  V30 17364 C 1672.16 1.53972 -0.722963 0
M  V30 17365 O 1673.35 1.67852 -0.976692 0
M  V30 17366 C 1670.48 2.77112 -2.09347 0
M  V30 17367 C 1669.43 2.78273 -3.25189 0
M  V30 17368 C 1668.76 4.18116 -3.33291 0
M  V30 17369 C 1670.06 2.42025 -4.6284 0
M  V30 17370 H 1671.75 1.13499 -2.77053 0
M  V30 17371 H 1669.3 0.544553 -1.33306 0
M  V30 17372 H 1671.25 3.52719 -2.3058 0
M  V30 17373 H 1669.98 3.05435 -1.1566 0
M  V30 17374 H 1668.64 2.05121 -3.03844 0
M  V30 17375 H 1668.28 4.4358 -2.37163 0
M  V30 17376 H 1667.98 4.19799 -4.11147 0
M  V30 17377 H 1669.51 4.95536 -3.56758 0
M  V30 17378 H 1670.92 3.07346 -4.83954 0
M  V30 17379 H 1669.32 2.5496 -5.43245 0
M  V30 17380 H 1670.39 1.37175 -4.65092 0
M  V30 17381 N 1671.73 1.46313 0.585673 0
M  V30 17382 C 1672.98 1.51694 1.34598 0
M  V30 17383 C 1673.31 0.166889 1.93482 0
M  V30 17384 O 1672.59 -0.821331 1.76308 0
M  V30 17385 C 1672.87 2.61322 2.47755 0
M  V30 17386 C 1672.72 4.05848 1.93926 0
M  V30 17387 C 1674.04 2.67058 3.49812 0
M  V30 17388 H 1671.16 0.552253 0.488043 0
M  V30 17389 H 1673.8 1.78235 0.658201 0
M  V30 17390 H 1671.95 2.38822 3.06425 0
M  V30 17391 H 1673.62 4.39626 1.39736 0
M  V30 17392 H 1671.87 4.15468 1.24775 0
M  V30 17393 H 1672.54 4.78279 2.75596 0
M  V30 17394 H 1675.01 2.87276 3.01018 0
M  V30 17395 H 1673.89 3.45589 4.2645 0
M  V30 17396 H 1674.15 1.72993 4.06849 0
M  V30 17397 N 1673.21 -0.830057 1.33969 0
M  V30 17398 C 1674.46 -1.58821 1.26111 0
M  V30 17399 C 1674.79 -1.9345 -0.170484 0
M  V30 17400 O 1674.06 -1.59433 -1.11407 0
M  V30 17401 C 1674.35 -2.89243 2.14501 0
M  V30 17402 C 1674.2 -2.61239 3.66162 0
M  V30 17403 C 1675.52 -3.90752 2.02487 0
M  V30 17404 H 1672.64 -0.576255 0.459455 0
M  V30 17405 H 1675.28 -0.956736 1.64154 0
M  V30 17406 H 1673.43 -3.43133 1.82186 0
M  V30 17407 H 1675.1 -2.13713 4.08809 0
M  V30 17408 H 1673.34 -1.94796 3.87604 0
M  V30 17409 H 1674.02 -3.54212 4.23365 0
M  V30 17410 H 1676.49 -3.46194 2.30844 0
M  V30 17411 H 1675.37 -4.79825 2.6657 0
M  V30 17412 H 1675.63 -4.30649 0.999704 0
M  V30 17413 N 1674.69 -1.17582 -1.04939 0
M  V30 17414 C 1675.62 -0.852608 -2.12752 0
M  V30 17415 C 1676.63 0.14607 -1.62143 0
M  V30 17416 O 1677.82 -0.0805751 -1.78318 0
M  V30 17417 C 1674.92 -0.251083 -3.37969 0
M  V30 17418 C 1674.09 -1.29325 -4.17844 0
M  V30 17419 C 1673.15 -0.709025 -5.21401 0
M  V30 17420 O 1672.18 -1.38149 -5.52181 0
M  V30 17421 N 1673.38 0.497716 -5.78362 0
M  V30 17422 H 1676.15 -1.78054 -2.41074 0
M  V30 17423 H 1673.71 -1.07502 -1.21058 0
M  V30 17424 H 1675.7 0.15312 -4.0441 0
M  V30 17425 H 1674.27 0.580684 -3.07159 0
M  V30 17426 H 1673.49 -1.87311 -3.46855 0
M  V30 17427 H 1674.78 -1.99614 -4.68008 0
M  V30 17428 H 1674.18 1.06196 -5.55643 0
M  V30 17429 H 1672.73 0.843951 -6.46313 0
M  V30 17430 N 1676.17 1.23705 -0.976463 0
M  V30 17431 C 1677.39 1.96595 -0.660697 0
M  V30 17432 C 1677.82 1.71845 0.764916 0
M  V30 17433 O 1677.17 0.987506 1.52046 0
M  V30 17434 C 1677.22 3.47803 -0.95214 0
M  V30 17435 O 1676.33 4.12378 -0.0421126 0
M  V30 17436 H 1675.67 0.615591 -0.248886 0
M  V30 17437 H 1678.2 1.57247 -1.30899 0
M  V30 17438 H 1678.21 3.98236 -0.887238 0
M  V30 17439 H 1676.88 3.65144 -1.99105 0
M  V30 17440 H 1675.46 3.72552 -0.161087 0
M  V30 17441 N 1677.64 0.747635 1.38738 0
M  V30 17442 C 1678.89 0.297962 1.99487 0
M  V30 17443 C 1679.21 -1.1249 1.60016 0
M  V30 17444 O 1680.41 -1.67474 2.13693 0
M  V30 17445 C 1678.87 0.48178 3.56661 0
M  V30 17446 C 1678.48 1.91335 4.05086 0
M  V30 17447 C 1680.22 0.0945202 4.24395 0
M  V30 17448 C 1678.13 2.04604 5.54879 0
M  V30 17449 H 1677.06 0.107655 0.746275 0
M  V30 17450 H 1679.71 0.923325 1.58578 0
M  V30 17451 H 1678.09 -0.212676 3.95428 0
M  V30 17452 H 1679.26 2.64079 3.77623 0
M  V30 17453 H 1677.58 2.25497 3.50057 0
M  V30 17454 H 1680.18 0.172508 5.34422 0
M  V30 17455 H 1680.52 -0.952037 4.05268 0
M  V30 17456 H 1681.05 0.740606 3.90845 0
M  V30 17457 H 1677.79 3.07493 5.78903 0
M  V30 17458 H 1677.31 1.36313 5.84105 0
M  V30 17459 H 1678.99 1.83317 6.20487 0
M  V30 17460 N 1679.12 -1.49583 0.496242 0
M  V30 17461 C 1680.35 -2.06847 -0.0469118 0
M  V30 17462 C 1680.76 -1.35715 -1.31251 0
M  V30 17463 O 1680.12 -0.434021 -1.77264 0
M  V30 17464 C 1680.17 -3.60174 -0.309338 0
M  V30 17465 O 1679.89 -4.28628 0.906082 0
M  V30 17466 C 1681.39 -4.34137 -0.896664 0
M  V30 17467 H 1678.61 -0.67075 0.0183324 0
M  V30 17468 H 1681.16 -1.92427 0.692237 0
M  V30 17469 H 1679.31 -3.74312 -0.998459 0
M  V30 17470 H 1679.73 -5.20254 0.666014 0
M  V30 17471 H 1681.2 -5.42307 -1.0299 0
M  V30 17472 H 1681.68 -3.96299 -1.89325 0
M  V30 17473 H 1682.28 -4.24593 -0.245158 0
M  V30 17474 N 1680.6 -0.229873 -1.55915 0
M  V30 17475 C 1682.01 0.276452 -1.84642 0
M  V30 17476 C 1682.36 1.58861 -1.15142 0
M  V30 17477 O 1681.49 2.12207 -0.423932 0
M  V30 17478 C 1682.08 0.508371 -3.34964 0
M  V30 17479 C 1680.64 0.958989 -3.63979 0
M  V30 17480 C 1679.79 0.0266738 -2.77287 0
M  V30 17481 H 1682.74 -0.452864 -1.52101 0
M  V30 17482 H 1682.76 1.35328 -3.55621 0
M  V30 17483 H 1682.27 -0.4468 -3.8552 0
M  V30 17484 H 1680.37 1.92722 -3.18887 0
M  V30 17485 H 1680.49 0.827637 -4.71897 0
M  V30 17486 H 1678.85 0.53498 -2.49018 0
M  V30 17487 H 1679.63 -0.923563 -3.30644 0
M  V30 17488 N 1682.08 1.5754 0.0434337 0
M  V30 17489 C 1683.03 2.0207 1.05602 0
M  V30 17490 C 1684.01 0.907491 1.32866 0
M  V30 17491 O 1685.2 1.17141 1.32692 0
M  V30 17492 C 1682.33 2.49176 2.36149 0
M  V30 17493 C 1681.42 3.67289 2.12037 0
M  V30 17494 N 1681.81 4.8051 1.57937 0
M  V30 17495 C 1680.11 3.74386 2.42387 0
M  V30 17496 C 1680.81 5.62214 1.49298 0
M  V30 17497 N 1679.78 5.06899 1.96353 0
M  V30 17498 H 1683.59 2.87035 0.631515 0
M  V30 17499 H 1681.1 1.60464 0.250012 0
M  V30 17500 H 1683.1 2.79331 3.09483 0
M  V30 17501 H 1681.76 1.65611 2.79291 0
M  V30 17502 H 1682.77 5.02237 1.26405 0
M  V30 17503 H 1679.45 3.01592 2.88701 0
M  V30 17504 H 1680.84 6.6315 1.08082 0
M  V30 17505 N 1683.56 -0.31543 1.54411 0
M  V30 17506 C 1684.49 -1.4098 1.80713 0
M  V30 17507 C 1685.5 -1.47481 0.689435 0
M  V30 17508 O 1686.69 -1.50058 0.966682 0
M  V30 17509 C 1683.79 -2.79459 1.91718 0
M  V30 17510 C 1682.96 -2.96064 3.2197 0
M  V30 17511 C 1682.02 -4.14954 3.23573 0
M  V30 17512 O 1681.05 -4.07726 3.97175 0
M  V30 17513 N 1682.25 -5.24889 2.47935 0
M  V30 17514 H 1685.01 -1.18778 2.75158 0
M  V30 17515 H 1682.58 -0.50545 1.53808 0
M  V30 17516 H 1684.57 -3.57215 1.90209 0
M  V30 17517 H 1683.14 -2.94675 1.04333 0
M  V30 17518 H 1682.36 -2.05541 3.36372 0
M  V30 17519 H 1683.65 -3.0406 4.07952 0
M  V30 17520 H 1683.04 -5.33638 1.87741 0
M  V30 17521 H 1681.6 -6.01033 2.52195 0
M  V30 17522 N 1685.03 -1.46622 -0.577906 0
M  V30 17523 C 1686.26 -1.56 -1.36671 0
M  V30 17524 C 1686.68 -0.2034 -1.86997 0
M  V30 17525 O 1686.04 0.817288 -1.61834 0
M  V30 17526 C 1686.09 -2.57254 -2.52691 0
M  V30 17527 O 1685.19 -2.1109 -3.54281 0
M  V30 17528 H 1684.54 -0.524779 -0.406821 0
M  V30 17529 H 1687.07 -1.92234 -0.700512 0
M  V30 17530 H 1687.08 -2.77016 -2.99543 0
M  V30 17531 H 1685.75 -3.55766 -2.15415 0
M  V30 17532 H 1684.33 -2.01337 -3.13875 0
M  V30 17533 N 1686.51 0.822941 -1.34408 0
M  V30 17534 C 1687.44 1.94142 -1.21826 0
M  V30 17535 C 1688.46 1.6215 -0.145353 0
M  V30 17536 O 1689.65 1.74025 -0.397205 0
M  V30 17537 C 1686.75 3.28077 -0.849619 0
M  V30 17538 C 1685.92 3.88092 -2.0175 0
M  V30 17539 C 1684.98 5.00406 -1.62726 0
M  V30 17540 O 1684 5.18703 -2.34383 0
M  V30 17541 N 1685.21 5.7797 -0.541413 0
M  V30 17542 H 1687.97 2.05467 -2.18182 0
M  V30 17543 H 1685.53 0.999521 -1.27362 0
M  V30 17544 H 1687.52 4.00661 -0.57035 0
M  V30 17545 H 1686.09 3.12591 0.0237499 0
M  V30 17546 H 1685.31 3.07902 -2.46151 0
M  V30 17547 H 1686.6 4.24921 -2.79856 0
M  V30 17548 H 1686 5.65674 0.0542929 0
M  V30 17549 H 1684.56 6.51005 -0.321874 0
M  V30 17550 N 1687.99 1.18137 1.04314 0
M  V30 17551 C 1688.92 0.863879 2.12296 0
M  V30 17552 C 1689.94 -0.137469 1.62219 0
M  V30 17553 O 1691.12 0.0900306 1.78273 0
M  V30 17554 C 1688.22 0.269002 3.37831 0
M  V30 17555 C 1687.4 1.3154 4.17152 0
M  V30 17556 C 1686.46 0.736666 5.21018 0
M  V30 17557 O 1685.48 1.41075 5.5144 0
M  V30 17558 N 1686.68 -0.467037 5.78618 0
M  V30 17559 H 1689.45 1.7933 2.40127 0
M  V30 17560 H 1687.01 1.08142 1.20486 0
M  V30 17561 H 1689 -0.131671 4.04486 0
M  V30 17562 H 1687.57 -0.564386 3.07463 0
M  V30 17563 H 1686.79 1.89148 3.45856 0
M  V30 17564 H 1688.08 2.02093 4.66943 0
M  V30 17565 H 1687.48 -1.03247 5.56198 0
M  V30 17566 H 1686.04 -0.809663 6.46752 0
M  V30 17567 N 1689.47 -1.23186 0.98301 0
M  V30 17568 C 1690.69 -1.96242 0.671114 0
M  V30 17569 C 1691.12 -1.72248 -0.755792 0
M  V30 17570 O 1690.48 -0.995555 -1.5152 0
M  V30 17571 C 1690.52 -3.47293 0.970571 0
M  V30 17572 O 1689.63 -4.1235 0.0639814 0
M  V30 17573 H 1688.97 -0.614262 0.252147 0
M  V30 17574 H 1691.5 -1.56551 1.31731 0
M  V30 17575 H 1691.51 -3.9776 0.908345 0
M  V30 17576 H 1690.18 -3.64083 2.01039 0
M  V30 17577 H 1688.76 -3.72461 0.180842 0
M  V30 17578 N 1690.95 -0.754982 -1.38339 0
M  V30 17579 C 1691.88 -0.0883836 -2.2903 0
M  V30 17580 C 1692.89 0.682258 -1.47814 0
M  V30 17581 O 1694.08 0.523117 -1.70663 0
M  V30 17582 C 1691.18 0.898819 -3.26764 0
M  V30 17583 C 1690.35 0.185527 -4.37006 0
M  V30 17584 C 1689.41 1.08368 -5.1492 0
M  V30 17585 O 1688.44 0.553687 -5.66501 0
M  V30 17586 N 1689.64 2.41164 -5.28034 0
M  V30 17587 H 1692.41 -0.86725 -2.86878 0
M  V30 17588 H 1689.97 -0.605886 -1.50135 0
M  V30 17589 H 1691.96 1.50273 -3.75766 0
M  V30 17590 H 1690.53 1.57876 -2.69804 0
M  V30 17591 H 1689.75 -0.599106 -3.89621 0
M  V30 17592 H 1691.04 -0.307999 -5.07867 0
M  V30 17593 H 1690.43 2.86677 -4.87681 0
M  V30 17594 H 1688.99 2.96602 -5.80406 0
M  V30 17595 N 1692.42 1.49318 -0.504168 0
M  V30 17596 C 1693.84 1.86612 -0.0571729 0
M  V30 17597 C 1694.19 1.4162 1.35787 0
M  V30 17598 O 1693.31 0.79548 2.01249 0
M  V30 17599 C 1693.91 3.38661 -0.0969773 0
M  V30 17600 C 1692.47 3.75245 0.294692 0
M  V30 17601 C 1691.61 2.7332 -0.468125 0
M  V30 17602 H 1694.56 1.4159 -0.716788 0
M  V30 17603 H 1694.58 3.74051 0.697569 0
M  V30 17604 H 1694.1 3.71377 -1.12698 0
M  V30 17605 H 1692.2 3.48138 1.32781 0
M  V30 17606 H 1692.31 4.79092 -0.0269621 0
M  V30 17607 H 1690.67 2.54567 0.0824379 0
M  V30 17608 H 1691.46 3.0888 -1.49827 0
M  V30 17609 N 1693.9 0.238138 1.5579 0
M  V30 17610 C 1695.15 -0.389608 1.99022 0
M  V30 17611 C 1695.48 -1.58226 1.12597 0
M  V30 17612 O 1694.76 -1.93595 0.187363 0
M  V30 17613 C 1695.04 -0.808025 3.50917 0
M  V30 17614 C 1694.89 0.389417 4.48111 0
M  V30 17615 C 1696.21 -1.6582 4.07666 0
M  V30 17616 H 1693.33 -0.140141 0.723553 0
M  V30 17617 H 1695.97 0.337696 1.86975 0
M  V30 17618 H 1694.12 -1.42772 3.61315 0
M  V30 17619 H 1695.79 1.02777 4.49705 0
M  V30 17620 H 1694.04 1.03404 4.21296 0
M  V30 17621 H 1694.71 0.0534549 5.51974 0
M  V30 17622 H 1697.18 -1.13518 4.00316 0
M  V30 17623 H 1696.06 -1.91984 5.14231 0
M  V30 17624 H 1696.32 -2.62712 3.55577 0
M  V30 17625 N 1695.38 -1.57561 -0.0350783 0
M  V30 17626 C 1696.29 -2.09558 -1.05464 0
M  V30 17627 C 1697.31 -1.03288 -1.40027 0
M  V30 17628 O 1698.48 -1.34987 -1.49467 0
M  V30 17629 C 1695.55 -2.55966 -2.33842 0
M  V30 17630 C 1694.61 -3.76693 -2.05915 0
M  V30 17631 C 1693.84 -4.20878 -3.28172 0
M  V30 17632 O 1694.06 -3.64634 -4.38632 0
M  V30 17633 O 1693 -5.13367 -3.14225 0
M  V30 17634 H 1696.82 -2.9682 -0.642771 0
M  V30 17635 H 1694.41 -1.47265 -0.251668 0
M  V30 17636 H 1696.29 -2.86173 -3.09327 0
M  V30 17637 H 1694.97 -1.71818 -2.74336 0
M  V30 17638 H 1693.87 -3.51514 -1.28018 0
M  V30 17639 H 1695.21 -4.61807 -1.70281 0
M  V30 17640 N 1696.86 0.307236 -1.54576 0
M  V30 17641 C 1697.79 1.38357 -1.88095 0
M  V30 17642 C 1698.77 1.53196 -0.739253 0
M  V30 17643 O 1699.95 1.66807 -0.99444 0
M  V30 17644 C 1697.08 2.74876 -2.12274 0
M  V30 17645 C 1696.04 2.74809 -3.28122 0
M  V30 17646 C 1695.36 4.14557 -3.37707 0
M  V30 17647 C 1696.66 2.37103 -4.65381 0
M  V30 17648 H 1698.36 1.10554 -2.78241 0
M  V30 17649 H 1695.9 0.530383 -1.33877 0
M  V30 17650 H 1697.86 3.50254 -2.34308 0
M  V30 17651 H 1696.58 3.04191 -1.18893 0
M  V30 17652 H 1695.24 2.01887 -3.06002 0
M  V30 17653 H 1694.89 4.41039 -2.41854 0
M  V30 17654 H 1694.59 4.15415 -4.15577 0
M  V30 17655 H 1696.11 4.91724 -3.61994 0
M  V30 17656 H 1697.53 3.02196 -4.87186 0
M  V30 17657 H 1695.92 2.49184 -5.45919 0
M  V30 17658 H 1696.99 1.32235 -4.66521 0
M  V30 17659 N 1698.34 1.46926 0.570122 0
M  V30 17660 C 1699.61 1.43365 1.33063 0
M  V30 17661 C 1699.99 0.123738 2.10737 0
M  V30 17662 O 1699.34 -0.894766 2.10253 0
M  V30 17663 C 1699.55 2.67122 2.24604 0
M  V30 17664 C 1700.9 3.13798 2.86035 0
M  V30 17665 O 1701.92 2.67759 2.34912 0
M  V30 17666 O 1700.78 3.93801 3.78923 0
M  V30 17667 H 1697.88 0.570726 0.598499 0
M  V30 17668 H 1700.42 1.5911 0.590095 0
M  V30 17669 H 1699.19 3.54005 1.66722 0
M  V30 17670 H 1698.82 2.53899 3.05976 0
M  V30 17671 N 1699.82 -0.815801 1.34842 0
M  V30 17672 C 1701.23 -1.38911 1.24742 0
M  V30 17673 C 1701.58 -1.95807 -0.124101 0
M  V30 17674 O 1700.7 -1.906 -1.02472 0
M  V30 17675 C 1701.3 -2.52532 2.25861 0
M  V30 17676 C 1699.86 -3.05751 2.1953 0
M  V30 17677 C 1699 -1.78661 2.12075 0
M  V30 17678 H 1701.95 -0.619601 1.46105 0
M  V30 17679 H 1701.98 -3.30826 1.87974 0
M  V30 17680 H 1701.49 -2.11092 3.25671 0
M  V30 17681 H 1699.59 -3.51678 1.23099 0
M  V30 17682 H 1699.7 -3.64358 3.11095 0
M  V30 17683 H 1698.07 -1.99844 1.57907 0
M  V30 17684 H 1698.85 -1.39385 3.1373 0
M  V30 17685 N 1701.29 -1.18689 -1.03686 0
M  V30 17686 C 1702.54 -0.984601 -1.76952 0
M  V30 17687 C 1702.87 0.485417 -1.88345 0
M  V30 17688 O 1702.12 1.37665 -1.39093 0
M  V30 17689 C 1702.42 -1.58911 -3.20128 0
M  V30 17690 C 1702.09 -3.0859 -3.2876 0
M  V30 17691 C 1700.75 -3.49442 -3.30823 0
M  V30 17692 C 1703.1 -4.04603 -3.28551 0
M  V30 17693 C 1700.43 -4.84875 -3.30323 0
M  V30 17694 C 1702.78 -5.39956 -3.29591 0
M  V30 17695 C 1701.45 -5.8025 -3.29948 0
M  V30 17696 H 1700.72 -0.360291 -0.647512 0
M  V30 17697 H 1703.36 -1.47811 -1.21754 0
M  V30 17698 H 1701.67 -1.0177 -3.78352 0
M  V30 17699 H 1703.37 -1.40797 -3.75469 0
M  V30 17700 H 1699.96 -2.76034 -3.27877 0
M  V30 17701 H 1704.14 -3.7409 -3.26145 0
M  V30 17702 H 1699.4 -5.15386 -3.28919 0
M  V30 17703 H 1703.57 -6.14117 -3.28379 0
M  V30 17704 H 1701.2 -6.85169 -3.29315 0
M  V30 17705 N 1702.77 1.22662 -0.989529 0
M  V30 17706 C 1704.02 1.90944 -0.662187 0
M  V30 17707 C 1704.34 1.77477 0.807899 0
M  V30 17708 O 1703.61 1.15985 1.57874 0
M  V30 17709 H 1702.19 0.706738 -0.241932 0
M  V30 17710 H 1704.85 1.49091 -1.25531 0
M  V30 17711 H 1703.95 2.98177 -0.921777 0
M  V30 17712 N 1704.25 0.762308 1.37937 0
M  V30 17713 C 1705.21 0.148588 2.28718 0
M  V30 17714 C 1706.21 -0.638198 1.47593 0
M  V30 17715 O 1707.4 -0.463178 1.67929 0
M  V30 17716 C 1704.53 -0.797492 3.31441 0
M  V30 17717 H 1705.73 0.94872 2.84498 0
M  V30 17718 H 1703.28 0.529888 1.47044 0
M  V30 17719 H 1704.02 -1.62298 2.80767 0
M  V30 17720 H 1703.8 -0.23561 3.91391 0
M  V30 17721 H 1705.29 -1.22262 3.99302 0
M  V30 17722 N 1705.73 -1.49049 0.51208 0
M  V30 17723 C 1706.69 -2.27838 -0.249491 0
M  V30 17724 C 1707.69 -1.34321 -0.884004 0
M  V30 17725 O 1708.88 -1.57379 -0.74682 0
M  V30 17726 C 1706.01 -3.12637 -1.35908 0
M  V30 17727 H 1707.21 -2.96625 0.442029 0
M  V30 17728 H 1704.76 -1.53996 0.267406 0
M  V30 17729 H 1705.49 -2.48441 -2.0844 0
M  V30 17730 H 1705.28 -3.81408 -0.909427 0
M  V30 17731 H 1706.77 -3.72117 -1.89523 0
M  V30 17732 N 1707.21 -0.246397 -1.55662 0
M  V30 17733 C 1708.62 0.256853 -1.84925 0
M  V30 17734 C 1708.97 1.5763 -1.16821 0
M  V30 17735 O 1708.09 2.11745 -0.446415 0
M  V30 17736 C 1708.69 0.472815 -3.35485 0
M  V30 17737 C 1707.25 0.92033 -3.64975 0
M  V30 17738 C 1706.39 -0.00273772 -2.773 0
M  V30 17739 H 1709.34 -0.468971 -1.51612 0
M  V30 17740 H 1709.37 1.31549 -3.57037 0
M  V30 17741 H 1708.88 -0.487664 -3.85024 0
M  V30 17742 H 1706.98 1.89329 -3.20913 0
M  V30 17743 H 1707.09 0.77754 -4.72748 0
M  V30 17744 H 1705.46 0.508539 -2.49572 0
M  V30 17745 H 1706.24 -0.958581 -3.29645 0
M  V30 17746 N 1708.68 1.57577 0.026722 0
M  V30 17747 C 1709.93 1.89379 0.717062 0
M  V30 17748 C 1710.26 0.843976 1.75235 0
M  V30 17749 O 1709.51 -0.154755 1.95087 0
M  V30 17750 C 1709.81 3.27927 1.42121 0
M  V30 17751 C 1709.48 4.47872 0.521676 0
M  V30 17752 C 1708.14 4.8042 0.273926 0
M  V30 17753 C 1710.49 5.21105 -0.0992493 0
M  V30 17754 C 1707.82 5.83588 -0.603488 0
M  V30 17755 C 1710.17 6.25206 -0.964379 0
M  V30 17756 C 1708.84 6.56227 -1.22157 0
M  V30 17757 H 1708.11 0.692988 0.262391 0
M  V30 17758 H 1710.75 1.91486 -0.0230629 0
M  V30 17759 H 1709.06 3.2182 2.23471 0
M  V30 17760 H 1710.76 3.49783 1.96094 0
M  V30 17761 H 1707.35 4.22425 0.724931 0
M  V30 17762 H 1711.53 4.96237 0.0791882 0
M  V30 17763 H 1706.79 6.05997 -0.811031 0
M  V30 17764 H 1710.96 6.81094 -1.45201 0
M  V30 17765 H 1708.59 7.35991 -1.90317 0
M  V30 17766 N 1710.16 -0.299034 1.54737 0
M  V30 17767 C 1711.57 -0.871897 1.6509 0
M  V30 17768 C 1711.92 -1.88013 0.560843 0
M  V30 17769 O 1711.05 -2.1428 -0.302194 0
M  V30 17770 C 1711.64 -1.5882 2.99269 0
M  V30 17771 C 1710.2 -2.10944 3.11736 0
M  V30 17772 C 1709.35 -0.942776 2.60782 0
M  V30 17773 H 1712.3 -0.0759883 1.58518 0
M  V30 17774 H 1712.32 -2.45387 2.90802 0
M  V30 17775 H 1711.83 -0.854144 3.78584 0
M  V30 17776 H 1709.93 -2.87391 2.37144 0
M  V30 17777 H 1710.05 -2.34262 4.17921 0
M  V30 17778 H 1708.41 -1.3289 2.17284 0
M  V30 17779 H 1709.19 -0.222646 3.42577 0
M  V30 17780 N 1711.64 -1.47227 -0.562322 0
M  V30 17781 C 1712.86 -1.5744 -1.35008 0
M  V30 17782 C 1713.29 -0.223223 -1.86771 0
M  V30 17783 O 1712.65 0.800078 -1.62691 0
M  V30 17784 C 1712.7 -2.5992 -2.49948 0
M  V30 17785 O 1711.8 -2.14836 -3.52022 0
M  V30 17786 H 1711.14 -0.529064 -0.401232 0
M  V30 17787 H 1713.67 -1.92966 -0.680084 0
M  V30 17788 H 1713.68 -2.80177 -2.96588 0
M  V30 17789 H 1712.36 -3.58031 -2.11629 0
M  V30 17790 H 1710.93 -2.04655 -3.11722 0
M  V30 17791 N 1713.12 0.808639 -1.35273 0
M  V30 17792 C 1714.06 1.92036 -1.28026 0
M  V30 17793 C 1715.03 1.65397 -0.152611 0
M  V30 17794 O 1716.22 1.87819 -0.335972 0
M  V30 17795 C 1713.36 3.28544 -1.05607 0
M  V30 17796 C 1712.47 3.67382 -2.27276 0
M  V30 17797 C 1711.61 4.9291 -1.98024 0
M  V30 17798 C 1710.65 5.2437 -3.15757 0
M  V30 17799 N 1709.78 6.41077 -2.86294 0
M  V30 17800 H 1714.62 1.97567 -2.23095 0
M  V30 17801 H 1712.16 0.966397 -1.10902 0
M  V30 17802 H 1714.12 4.07234 -0.906418 0
M  V30 17803 H 1712.75 3.22487 -0.142015 0
M  V30 17804 H 1711.8 2.83969 -2.53112 0
M  V30 17805 H 1713.11 3.86593 -3.15194 0
M  V30 17806 H 1712.27 5.79421 -1.79877 0
M  V30 17807 H 1711.01 4.7573 -1.07387 0
M  V30 17808 H 1710.01 4.36349 -3.34483 0
M  V30 17809 H 1711.24 5.4348 -4.07193 0
M  V30 17810 H 1709.18 6.25327 -1.98249 0
M  V30 17811 H 1709.1 6.60528 -3.67748 0
M  V30 17812 H 1710.37 7.30622 -2.71684 0
M  V30 17813 N 1714.6 1.19237 1.03055 0
M  V30 17814 C 1715.53 0.886348 2.11368 0
M  V30 17815 C 1716.54 -0.120256 1.62355 0
M  V30 17816 O 1717.73 0.108934 1.78167 0
M  V30 17817 C 1714.83 0.304819 3.37526 0
M  V30 17818 C 1714 1.35957 4.15734 0
M  V30 17819 C 1713.06 0.791885 5.20207 0
M  V30 17820 O 1712.09 1.46916 5.49913 0
M  V30 17821 N 1713.29 -0.40564 5.79081 0
M  V30 17822 H 1716.06 1.81867 2.38211 0
M  V30 17823 H 1713.62 1.09414 1.19332 0
M  V30 17824 H 1715.61 -0.0887629 4.04603 0
M  V30 17825 H 1714.18 -0.531744 3.08044 0
M  V30 17826 H 1713.4 1.92806 3.43831 0
M  V30 17827 H 1714.69 2.07034 4.64773 0
M  V30 17828 H 1714.08 -0.973423 5.57262 0
M  V30 17829 H 1712.64 -0.741021 6.47574 0
M  V30 17830 O 1716.11 -1.15958 1.1241 0
M  V30 17831 H 1716.8 -1.74764 0.835303 0
M  V30 END ATOM
M  V30 BEGIN BOND
M  V30 END BOND
M  V30 END CTAB
M  END
$$$$
