drugbank_target|Q9NS18 Glutaredoxin-2, mitochondrial (DB00143)
 OpenBabel12092120083D

  0  0  0     0  0            999 V3000
M  V30 BEGIN CTAB
M  V30 COUNTS 2533 2556 0 0 0
M  V30 BEGIN ATOM
M  V30 1 H -0.908 1.98254 -0.117106 0
M  V30 2 N 0 1.576 0 0
M  V30 3 C 0.933 2.03868 1.02534 0
M  V30 4 C 1.911 0.928543 1.3348 0
M  V30 5 O 3.095 1.19667 1.45644 0
M  V30 6 C 0.222 2.43627 2.35294 0
M  V30 7 C -0.732 3.65373 2.2001 0
M  V30 8 S 0.101 5.13292 1.52614 0
M  V30 9 C 1.257 5.56322 2.86805 0
M  V30 10 H 1.49 2.90518 0.631377 0
M  V30 11 H -0.977 1.52953 0.210867 0
M  V30 12 H 0.981 2.67203 3.11629 0
M  V30 13 H -0.358 1.57376 2.7183 0
M  V30 14 H -1.165 3.90944 3.18086 0
M  V30 15 H -1.563 3.418 1.51819 0
M  V30 16 H 0.729 5.58782 3.83104 0
M  V30 17 H 1.672 6.56266 2.65933 0
M  V30 18 H 2.08 4.83886 2.90714 0
M  V30 19 N 1.4781 -0.272755 1.55222 0
M  V30 20 C 2.7271 -1.00211 1.75045 0
M  V30 21 C 3.0401 -1.87441 0.559046 0
M  V30 22 O 4.2461 -2.63856 0.639698 0
M  V30 23 C 2.7021 -1.83165 3.09804 0
M  V30 24 C 2.3101 -1.008 4.36513 0
M  V30 25 C 4.0541 -2.55529 3.38977 0
M  V30 26 C 1.9611 -1.83194 5.62311 0
M  V30 27 H 0.8911 -0.377878 0.652476 0
M  V30 28 H 3.5421 -0.257776 1.8168 0
M  V30 29 H 1.9241 -2.61694 2.97207 0
M  V30 30 H 3.0981 -0.266855 4.60027 0
M  V30 31 H 1.4131 -0.398897 4.14485 0
M  V30 32 H 4.0101 -3.17578 4.30172 0
M  V30 33 H 4.3531 -3.25825 2.59121 0
M  V30 34 H 4.8861 -1.84029 3.52673 0
M  V30 35 H 1.6251 -1.17318 6.44916 0
M  V30 36 H 1.1451 -2.54905 5.4294 0
M  V30 37 H 2.8241 -2.40552 6.00619 0
M  V30 38 N 2.9562 -1.48159 -0.537278 0
M  V30 39 C 4.2022 -1.57015 -1.29297 0
M  V30 40 C 4.5572 -0.237791 -1.90925 0
M  V30 41 O 3.8502 0.758621 -1.75942 0
M  V30 42 C 4.0442 -2.63956 -2.40961 0
M  V30 43 C 3.8732 -4.07461 -1.90278 0
M  V30 44 C 2.6432 -4.74685 -1.73213 0
M  V30 45 C 4.8412 -4.93858 -1.43556 0
M  V30 46 N 2.8232 -6.02633 -1.17078 0
M  V30 47 C 4.1942 -6.11993 -0.993204 0
M  V30 48 C 6.2492 -4.80141 -1.31792 0
M  V30 49 C 4.9522 -7.17923 -0.444872 0
M  V30 50 C 6.9782 -5.86186 -0.783585 0
M  V30 51 C 6.3402 -7.03524 -0.351261 0
M  V30 52 H 2.4392 -0.629154 -0.464423 0
M  V30 53 H 5.0232 -1.85006 -0.606705 0
M  V30 54 H 3.1942 -2.378 -3.07093 0
M  V30 55 H 4.9262 -2.62539 -3.07986 0
M  V30 56 H 1.6812 -4.30902 -1.9652 0
M  V30 57 H 2.1052 -6.7085 -0.910421 0
M  V30 58 H 6.7472 -3.89772 -1.63823 0
M  V30 59 H 4.4652 -8.08022 -0.11222 0
M  V30 60 H 8.0512 -5.77624 -0.695835 0
M  V30 61 H 6.9312 -7.8418 0.055777 0
M  V30 62 N 4.4343 0.785586 -1.36625 0
M  V30 63 C 5.8503 1.08419 -1.17122 0
M  V30 64 C 6.0503 2.015 0.00208491 0
M  V30 65 O 5.1063 2.43551 0.666278 0
M  V30 66 C 6.4193 1.69498 -2.48377 0
M  V30 67 C 7.9673 1.81821 -2.54775 0
M  V30 68 C 8.4423 2.46315 -3.86126 0
M  V30 69 N 9.9333 2.53779 -3.87492 0
M  V30 70 C 10.6683 3.045 -4.85868 0
M  V30 71 N 10.1643 3.55499 -5.94637 0
M  V30 72 N 11.9573 3.03247 -4.73284 0
M  V30 73 H 4.1083 0.167264 -2.1174 0
M  V30 74 H 6.3713 0.13682 -0.938075 0
M  V30 75 H 6.0773 1.08571 -3.34522 0
M  V30 76 H 5.9513 2.6896 -2.64462 0
M  V30 77 H 8.3383 2.41884 -1.69045 0
M  V30 78 H 8.4193 0.811532 -2.42586 0
M  V30 79 H 8.0633 1.86895 -4.72263 0
M  V30 80 H 7.9933 3.47561 -3.95612 0
M  V30 81 H 10.4843 2.17672 -3.08913 0
M  V30 82 H 10.7973 3.92562 -6.65669 0
M  V30 83 H 9.1423 3.5364 -5.98301 0
M  V30 84 H 12.3333 2.62696 -3.87438 0
M  V30 85 H 12.5063 3.42467 -5.50109 0
M  V30 86 N 5.9124 1.20967 1.01018 0
M  V30 87 C 7.3284 0.965905 1.27053 0
M  V30 88 C 7.5284 -0.350785 1.98423 0
M  V30 89 O 6.5844 -1.07773 2.28344 0
M  V30 90 C 7.8974 2.15294 2.09926 0
M  V30 91 C 9.4454 2.19463 2.23171 0
M  V30 92 C 9.9204 3.3767 3.09424 0
M  V30 93 N 11.4114 3.37724 3.17012 0
M  V30 94 C 12.1464 4.25837 3.83993 0
M  V30 95 N 11.6424 5.24138 4.53047 0
M  V30 96 N 13.4354 4.1366 3.80581 0
M  V30 97 H 5.5864 2.0565 0.531194 0
M  V30 98 H 7.8494 0.90024 0.297106 0
M  V30 99 H 7.5554 3.10684 1.64828 0
M  V30 100 H 7.4294 2.13923 3.10672 0
M  V30 101 H 9.8164 1.24632 2.6749 0
M  V30 102 H 9.8974 2.2488 1.21912 0
M  V30 103 H 9.5414 4.32791 2.65808 0
M  V30 104 H 9.4714 3.29491 4.10784 0
M  V30 105 H 11.9624 2.6658 2.6785 0
M  V30 106 H 12.2754 5.87684 5.01844 0
M  V30 107 H 10.6204 5.28068 4.5185 0
M  V30 108 H 13.8114 3.36127 3.25785 0
M  V30 109 H 13.9844 4.82538 4.32505 0
M  V30 110 N 7.3905 -1.2043 1.01659 0
M  V30 111 C 8.3535 -2.21433 0.591616 0
M  V30 112 C 9.3535 -1.57203 -0.338226 0
M  V30 113 O 10.5435 -1.73737 -0.126918 0
M  V30 114 C 7.6755 -3.40628 -0.136058 0
M  V30 115 H 8.8685 -2.60545 1.48514 0
M  V30 116 H 6.4215 -1.33893 0.806379 0
M  V30 117 H 7.1565 -3.07019 -1.04449 0
M  V30 118 H 6.9415 -3.88475 0.531917 0
M  V30 119 H 8.4315 -4.15475 -0.420735 0
M  V30 120 N 8.8686 -0.792821 -1.36206 0
M  V30 121 C 9.8316 -0.199459 -2.2833 0
M  V30 122 C 10.8316 0.605189 -1.48977 0
M  V30 123 O 12.0216 0.425685 -1.68919 0
M  V30 124 C 9.1536 0.723523 -3.33134 0
M  V30 125 H 10.3466 -1.01181 -2.82316 0
M  V30 126 H 7.8996 -0.562485 -1.45828 0
M  V30 127 H 8.6346 1.56008 -2.84309 0
M  V30 128 H 8.4196 0.148436 -3.91819 0
M  V30 129 H 9.9096 1.13344 -4.01924 0
M  V30 130 N 10.3467 1.47872 -0.545128 0
M  V30 131 C 11.2767 2.32661 0.197793 0
M  V30 132 C 12.2577 1.43041 0.920504 0
M  V30 133 O 13.4427 1.71912 0.90333 0
M  V30 134 C 10.5727 3.24569 1.23582 0
M  V30 135 C 9.5267 4.23333 0.630323 0
M  V30 136 C 8.8527 5.0448 1.77211 0
M  V30 137 C 10.1527 5.20704 -0.407974 0
M  V30 138 H 11.8467 2.95024 -0.510045 0
M  V30 139 H 9.3927 1.4187 -0.246731 0
M  V30 140 H 11.3457 3.8272 1.76362 0
M  V30 141 H 10.0697 2.60236 1.97344 0
M  V30 142 H 8.7287 3.6639 0.123922 0
M  V30 143 H 8.3767 4.36561 2.49847 0
M  V30 144 H 8.0767 5.71339 1.37281 0
M  V30 145 H 9.6007 5.65487 2.3034 0
M  V30 146 H 11.0147 5.7329 0.033305 0
M  V30 147 H 9.4117 5.95699 -0.725486 0
M  V30 148 H 10.4817 4.66917 -1.30828 0
M  V30 149 N 11.8248 0.280983 1.55075 0
M  V30 150 C 12.7878 -0.590896 2.21452 0
M  V30 151 C 13.7878 -1.07682 1.19421 0
M  V30 152 O 14.9778 -0.97605 1.44288 0
M  V30 153 C 12.1098 -1.81587 2.88511 0
M  V30 154 H 13.3028 -0.0112554 2.99898 0
M  V30 155 H 10.8558 0.0316438 1.56268 0
M  V30 156 H 11.5908 -2.43587 2.14093 0
M  V30 157 H 11.3758 -1.4753 3.63287 0
M  V30 158 H 12.8658 -2.43575 3.39206 0
M  V30 159 N 13.3029 -1.57598 0.00835791 0
M  V30 160 C 14.5509 -1.90551 -0.6734 0
M  V30 161 C 14.8719 -0.883301 -1.73847 0
M  V30 162 O 14.1419 0.0781442 -1.95744 0
M  V30 163 H 12.7219 -0.703312 -0.251717 0
M  V30 164 H 15.3839 -1.94833 0.0512592 0
M  V30 165 H 14.4799 -2.9056 -1.13935 0
M  V30 166 N 14.781 0.264519 -1.55364 0
M  V30 167 C 16.009 1.013 -1.80405 0
M  V30 168 C 16.424 1.79618 -0.581622 0
M  V30 169 O 15.781 1.76879 0.449468 0
M  V30 170 C 15.832 1.96487 -3.03439 0
M  V30 171 O 15.553 1.21341 -4.20961 0
M  V30 172 C 17.054 2.83079 -3.41147 0
M  V30 173 H 14.274 0.298875 -0.600762 0
M  V30 174 H 16.818 0.292736 -2.02394 0
M  V30 175 H 14.973 2.63965 -2.83551 0
M  V30 176 H 15.387 1.85573 -4.90574 0
M  V30 177 H 16.861 3.4565 -4.30384 0
M  V30 178 H 17.338 3.53286 -2.60932 0
M  V30 179 H 17.944 2.2108 -3.63323 0
M  V30 180 N 16.2591 1.48442 0.529413 0
M  V30 181 C 17.6751 1.34575 0.858004 0
M  V30 182 C 17.8751 0.3572 1.98309 0
M  V30 183 O 16.9311 -0.221379 2.51528 0
M  V30 184 C 18.2441 2.74617 1.22499 0
M  V30 185 C 19.7921 2.83109 1.33484 0
M  V30 186 C 20.2671 4.23854 1.73526 0
M  V30 187 N 21.7581 4.2653 1.80628 0
M  V30 188 C 22.4931 5.32372 2.12997 0
M  V30 189 N 21.9891 6.48491 2.43786 0
M  V30 190 N 23.7821 5.19766 2.14008 0
M  V30 191 H 15.9331 2.1133 -0.212925 0
M  V30 192 H 18.1961 0.947439 -0.0326199 0
M  V30 193 H 17.9021 3.4852 0.471905 0
M  V30 194 H 17.7761 3.08177 2.17501 0
M  V30 195 H 20.1631 2.09462 2.0787 0
M  V30 196 H 20.2441 2.53168 0.366027 0
M  V30 197 H 19.8881 4.98018 0.997013 0
M  V30 198 H 19.8181 4.5124 2.71459 0
M  V30 199 H 22.3091 3.42772 1.59108 0
M  V30 200 H 22.6221 7.24993 2.67592 0
M  V30 201 H 20.9671 6.51765 2.41304 0
M  V30 202 H 24.1581 4.28066 1.89412 0
M  V30 203 H 24.3311 6.02354 2.38902 0
M  V30 204 N 17.7372 -0.778329 1.37039 0
M  V30 205 C 18.6672 -1.90546 1.34962 0
M  V30 206 C 19.6482 -1.68681 0.219274 0
M  V30 207 O 20.8332 -1.89634 0.418624 0
M  V30 208 C 17.9632 -3.27734 1.14925 0
M  V30 209 C 16.9172 -3.64147 2.24902 0
M  V30 210 C 16.2432 -4.99806 1.89996 0
M  V30 211 C 17.5432 -3.71579 3.67051 0
M  V30 212 H 19.2372 -1.92541 2.29277 0
M  V30 213 H 16.7832 -0.924948 1.10366 0
M  V30 214 H 18.7362 -4.06215 1.12104 0
M  V30 215 H 17.4602 -3.26154 0.170631 0
M  V30 216 H 16.1192 -2.8797 2.26868 0
M  V30 217 H 15.7672 -4.94759 0.906796 0
M  V30 218 H 15.4672 -5.25139 2.63634 0
M  V30 219 H 16.9912 -5.80694 1.88749 0
M  V30 220 H 18.4052 -4.40227 3.67251 0
M  V30 221 H 16.8022 -4.08405 4.39688 0
M  V30 222 H 17.8722 -2.72404 4.01154 0
M  V30 223 N 19.2153 -1.21501 -1.00376 0
M  V30 224 C 20.4613 -1.03452 -1.74429 0
M  V30 225 C 20.7943 0.430764 -1.89362 0
M  V30 226 O 20.0693 1.31962 -1.42886 0
M  V30 227 C 20.3523 -1.73375 -3.15615 0
M  V30 228 C 20.2053 -3.27431 -3.08397 0
M  V30 229 C 21.5243 -1.47732 -4.14564 0
M  V30 230 H 18.6433 -0.377226 -0.633143 0
M  V30 231 H 21.2853 -1.49693 -1.17013 0
M  V30 232 H 19.4353 -1.34064 -3.64636 0
M  V30 233 H 21.1073 -3.76119 -2.67081 0
M  V30 234 H 19.3503 -3.5767 -2.45468 0
M  V30 235 H 20.0213 -3.71524 -4.08258 0
M  V30 236 H 22.4973 -1.8186 -3.74254 0
M  V30 237 H 21.3733 -1.99169 -5.11491 0
M  V30 238 H 21.6343 -0.407589 -4.40217 0
M  V30 239 N 20.6934 1.19889 -1.02296 0
M  V30 240 C 21.9394 1.89973 -0.726759 0
M  V30 241 C 22.2944 1.7776 0.73614 0
M  V30 242 O 21.5874 1.15523 1.52856 0
M  V30 243 C 21.7814 3.39883 -1.10518 0
M  V30 244 C 21.6104 3.66684 -2.60332 0
M  V30 245 C 20.3804 3.85045 -3.27213 0
M  V30 246 C 22.5784 3.68727 -3.58532 0
M  V30 247 N 20.5604 3.99422 -4.66192 0
M  V30 248 C 21.9314 3.88604 -4.83101 0
M  V30 249 C 23.9864 3.51722 -3.52414 0
M  V30 250 C 22.6894 3.9324 -6.02292 0
M  V30 251 C 24.7154 3.57632 -4.71013 0
M  V30 252 C 24.0774 3.77988 -5.94394 0
M  V30 253 H 20.1764 0.714551 -0.317712 0
M  V30 254 H 22.7604 1.44123 -1.30907 0
M  V30 255 H 20.9314 3.8447 -0.551142 0
M  V30 256 H 22.6634 3.97464 -0.761853 0
M  V30 257 H 19.4184 3.83689 -2.77632 0
M  V30 258 H 19.8424 4.10473 -5.38368 0
M  V30 259 H 24.4844 3.34945 -2.58015 0
M  V30 260 H 22.2024 4.08811 -6.97065 0
M  V30 261 H 25.7884 3.45773 -4.67902 0
M  V30 262 H 24.6684 3.82428 -6.8463 0
M  V30 263 N 22.1715 0.800033 1.35784 0
M  V30 264 C 23.3965 0.388511 2.03729 0
M  V30 265 C 23.8215 -0.990481 1.5991 0
M  V30 266 O 23.1795 -1.64013 0.772612 0
M  V30 267 C 23.2275 0.4726 3.5749 0
M  V30 268 O 22.3315 -0.51646 4.09153 0
M  V30 269 H 21.6725 0.163271 0.643614 0
M  V30 270 H 24.2025 1.0841 1.73518 0
M  V30 271 H 24.2125 0.34003 4.06581 0
M  V30 272 H 22.8875 1.47848 3.88734 0
M  V30 273 H 21.4645 -0.344673 3.71304 0
M  V30 274 N 23.6496 -1.47581 0.552962 0
M  V30 275 C 25.0656 -1.5818 0.212424 0
M  V30 276 C 25.2656 -1.55213 -1.28496 0
M  V30 277 O 24.3216 -1.45329 -2.06484 0
M  V30 278 C 25.6346 -2.88865 0.835318 0
M  V30 279 C 27.1826 -3.0244 0.806156 0
M  V30 280 C 27.6576 -4.35819 1.40804 0
M  V30 281 N 29.1486 -4.42444 1.37103 0
M  V30 282 C 29.8836 -5.44202 1.80641 0
M  V30 283 N 29.3796 -6.52795 2.32015 0
M  V30 284 N 31.1726 -5.35222 1.71738 0
M  V30 285 H 23.3236 -1.47753 1.52587 0
M  V30 286 H 25.5866 -0.702941 0.636064 0
M  V30 287 H 25.2926 -2.9676 1.88749 0
M  V30 288 H 25.1666 -3.7579 0.325848 0
M  V30 289 H 27.5536 -2.94144 -0.237317 0
M  V30 290 H 27.6346 -2.17068 1.35334 0
M  V30 291 H 27.2786 -4.44871 2.45056 0
M  V30 292 H 27.2086 -5.19916 0.836338 0
M  V30 293 H 29.6996 -3.6456 0.995202 0
M  V30 294 H 30.0126 -7.26609 2.63171 0
M  V30 295 H 28.3576 -6.53696 2.36023 0
M  V30 296 H 31.5486 -4.49284 1.31382 0
M  V30 297 H 31.7216 -6.14389 2.05987 0
M  V30 298 N 25.1277 -0.289203 -1.54924 0
M  V30 299 C 26.3527 0.329299 -2.04769 0
M  V30 300 C 26.7777 1.4763 -1.16564 0
M  V30 301 O 26.1357 1.80527 -0.167186 0
M  V30 302 C 26.1837 0.774438 -3.52186 0
M  V30 303 O 25.2877 1.88038 -3.67036 0
M  V30 304 H 24.6287 0.0659259 -0.660719 0
M  V30 305 H 27.1587 -0.42761 -2.00082 0
M  V30 306 H 27.1687 1.06642 -3.93816 0
M  V30 307 H 25.8437 -0.0646707 -4.1585 0
M  V30 308 H 24.4207 1.58985 -3.3731 0
M  V30 309 N 26.6058 1.57591 -0.0167156 0
M  V30 310 C 27.8538 1.90906 0.663285 0
M  V30 311 C 28.1748 0.892509 1.73376 0
M  V30 312 O 27.4448 -0.0677623 1.95783 0
M  V30 313 H 26.0248 0.704637 0.247983 0
M  V30 314 H 28.6868 1.94803 -0.0615909 0
M  V30 315 H 27.7828 2.9116 1.12393 0
M  V30 316 N 28.0839 -0.256276 1.55502 0
M  V30 317 C 29.3089 -1.00766 1.81276 0
M  V30 318 C 29.7339 -1.78524 0.59252 0
M  V30 319 O 29.0919 -1.75413 -0.45827 0
M  V30 320 C 29.1399 -1.92869 3.04687 0
M  V30 321 O 28.2439 -3.019 2.80945 0
M  V30 322 H 27.5849 -0.287224 0.598664 0
M  V30 323 H 30.1149 -0.280109 2.02674 0
M  V30 324 H 30.1249 -2.34511 3.33869 0
M  V30 325 H 28.7999 -1.35689 3.93143 0
M  V30 326 H 27.3769 -2.64454 2.62904 0
M  V30 327 N 29.562 -1.4872 -0.521534 0
M  V30 328 C 30.525 -1.63379 -1.60748 0
M  V30 329 C 31.525 -0.50661 -1.52611 0
M  V30 330 O 32.715 -0.772601 -1.5613 0
M  V30 331 C 29.847 -1.61192 -3.00383 0
M  V30 332 H 31.04 -2.60217 -1.49087 0
M  V30 333 H 28.593 -1.37444 -0.744235 0
M  V30 334 H 29.328 -0.65863 -3.17541 0
M  V30 335 H 29.113 -2.43032 -3.07698 0
M  V30 336 H 30.603 -1.7466 -3.7932 0
M  V30 337 N 31.0401 0.771051 -1.3745 0
M  V30 338 C 32.2881 1.52661 -1.32435 0
M  V30 339 C 32.6091 1.9479 0.0905024 0
M  V30 340 O 31.8791 1.66348 1.03466 0
M  V30 341 H 30.4591 0.566218 -0.487244 0
M  V30 342 H 33.1211 0.917636 -1.71946 0
M  V30 343 H 32.2171 2.42568 -1.96385 0
M  V30 344 N 32.5182 1.22032 0.997298 0
M  V30 345 C 33.7642 1.05382 1.73972 0
M  V30 346 C 34.1192 -0.407419 1.88037 0
M  V30 347 O 33.4122 -1.29811 1.40924 0
M  V30 348 C 33.6062 1.69345 3.14733 0
M  V30 349 C 33.4352 3.21537 3.14395 0
M  V30 350 C 32.2052 3.9062 3.20537 0
M  V30 351 C 34.4032 4.18527 2.98897 0
M  V30 352 N 32.3852 5.29935 3.09906 0
M  V30 353 C 33.7562 5.44645 2.96247 0
M  V30 354 C 35.8112 4.09476 2.83255 0
M  V30 355 C 34.5142 6.62752 2.79557 0
M  V30 356 C 36.5402 5.27228 2.67926 0
M  V30 357 C 35.9022 6.52262 2.65959 0
M  V30 358 H 32.0012 0.440018 0.646458 0
M  V30 359 H 34.5852 1.54505 1.18475 0
M  V30 360 H 32.7562 1.22778 3.68484 0
M  V30 361 H 34.4882 1.45828 3.77513 0
M  V30 362 H 31.2432 3.41592 3.28043 0
M  V30 363 H 31.6672 6.02926 3.07912 0
M  V30 364 H 36.3092 3.13598 2.83577 0
M  V30 365 H 34.0272 7.58783 2.77982 0
M  V30 366 H 37.6132 5.22053 2.56812 0
M  V30 367 H 36.4932 7.41844 2.54239 0
M  V30 368 N 33.9963 -1.19345 1.0293 0
M  V30 369 C 34.9263 -2.2481 0.631105 0
M  V30 370 C 35.9073 -1.66245 -0.360104 0
M  V30 371 O 37.0923 -1.92677 -0.242726 0
M  V30 372 C 34.2223 -3.47295 -0.0184607 0
M  V30 373 C 33.1763 -4.18536 0.895073 0
M  V30 374 C 32.5023 -5.34586 0.110592 0
M  V30 375 C 33.8023 -4.73287 2.209 0
M  V30 376 H 35.4963 -2.58372 1.51275 0
M  V30 377 H 33.0423 -1.24194 0.728818 0
M  V30 378 H 34.9953 -4.20268 -0.308675 0
M  V30 379 H 33.7193 -3.12933 -0.934907 0
M  V30 380 H 32.3783 -3.47446 1.16949 0
M  V30 381 H 32.0263 -4.96469 -0.807902 0
M  V30 382 H 31.7263 -5.83183 0.719087 0
M  V30 383 H 33.2503 -6.10355 -0.172871 0
M  V30 384 H 34.6643 -5.38013 1.98028 0
M  V30 385 H 33.0613 -5.32373 2.76946 0
M  V30 386 H 34.1313 -3.91331 2.86336 0
M  V30 387 N 35.4744 -0.807222 -1.35358 0
M  V30 388 C 36.7514 -0.311126 -1.9311 0
M  V30 389 C 37.1314 1.19937 -1.73719 0
M  V30 390 O 36.4794 1.99918 -1.10657 0
M  V30 391 C 36.6894 -0.723226 -3.41424 0
M  V30 392 C 38.0374 -0.713078 -4.18569 0
M  V30 393 O 39.0614 -0.664811 -3.49941 0
M  V30 394 O 37.9204 -0.772022 -5.41019 0
M  V30 395 H 35.0144 -0.081526 -0.822972 0
M  V30 396 H 37.5604 -0.890962 -1.4443 0
M  V30 397 H 36.3324 -1.76426 -3.4927 0
M  V30 398 H 35.9554 -0.118232 -3.97424 0
M  V30 399 N 36.9525 1.47285 -0.560781 0
M  V30 400 C 38.3685 1.58065 -0.22081 0
M  V30 401 C 38.5685 1.55892 1.27671 0
M  V30 402 O 37.6245 1.46422 2.0571 0
M  V30 403 C 38.9375 2.88418 -0.850625 0
M  V30 404 C 40.4855 3.02009 -0.822184 0
M  V30 405 C 40.9605 4.35066 -1.43113 0
M  V30 406 N 42.4515 4.41711 -1.39448 0
M  V30 407 C 43.1865 5.43237 -1.83525 0
M  V30 408 N 42.6825 6.51555 -2.35474 0
M  V30 409 N 44.4755 5.34304 -1.74574 0
M  V30 410 H 36.6265 1.46941 -1.53369 0
M  V30 411 H 38.8895 0.699558 -0.639783 0
M  V30 412 H 38.5955 2.95755 -1.9032 0
M  V30 413 H 38.4695 3.75612 -0.345773 0
M  V30 414 H 40.8565 2.94266 0.221714 0
M  V30 415 H 40.9375 2.16347 -1.36483 0
M  V30 416 H 40.5815 4.43565 -2.47412 0
M  V30 417 H 40.5115 5.19465 -0.863899 0
M  V30 418 H 43.0025 3.64027 -1.01452 0
M  V30 419 H 43.3155 7.25203 -2.67021 0
M  V30 420 H 41.6605 6.52435 -2.39487 0
M  V30 421 H 44.8515 4.48581 -1.33763 0
M  V30 422 H 45.0245 6.13288 -2.09242 0
M  V30 423 N 38.4306 0.297415 1.54768 0
M  V30 424 C 39.3936 -0.567375 2.22066 0
M  V30 425 C 40.3936 -1.06409 1.20556 0
M  V30 426 O 41.5836 -0.960691 1.45315 0
M  V30 427 C 38.7156 -1.78517 2.90421 0
M  V30 428 H 39.9086 0.0205534 2.99893 0
M  V30 429 H 37.4616 0.0482163 1.56226 0
M  V30 430 H 38.1966 -2.41303 2.16664 0
M  V30 431 H 37.9816 -1.43669 3.64831 0
M  V30 432 H 39.4716 -2.39964 3.41771 0
M  V30 433 N 39.9087 -1.5758 0.0250728 0
M  V30 434 C 40.8717 -2.08896 -0.943139 0
M  V30 435 C 41.8717 -1.00321 -1.25668 0
M  V30 436 O 43.0617 -1.26495 -1.19769 0
M  V30 437 C 40.1937 -2.55143 -2.26086 0
M  V30 438 H 41.3867 -2.95723 -0.498775 0
M  V30 439 H 38.9397 -1.54703 -0.222888 0
M  V30 440 H 39.6747 -1.71633 -2.75159 0
M  V30 441 H 39.4597 -3.34461 -2.04641 0
M  V30 442 H 40.9497 -2.95083 -2.95492 0
M  V30 443 N 41.3868 0.248026 -1.55636 0
M  V30 444 C 42.6348 0.974295 -1.77065 0
M  V30 445 C 42.9558 1.85897 -0.588849 0
M  V30 446 O 42.2258 1.91868 0.395407 0
M  V30 447 H 40.8058 0.362733 -0.653019 0
M  V30 448 H 43.4678 0.266244 -1.93073 0
M  V30 449 H 42.5638 1.59667 -2.68166 0
M  V30 450 N 42.8649 1.48995 0.513639 0
M  V30 451 C 43.8279 1.64229 1.59879 0
M  V30 452 C 44.8279 0.514696 1.5234 0
M  V30 453 O 46.0179 0.78087 1.55718 0
M  V30 454 C 43.1499 1.62783 2.99524 0
M  V30 455 H 44.3429 2.61004 1.47705 0
M  V30 456 H 41.8959 1.37837 0.736936 0
M  V30 457 H 42.6309 0.675461 3.17188 0
M  V30 458 H 42.4159 2.4466 3.06404 0
M  V30 459 H 43.9059 1.76669 3.78388 0
M  V30 460 N 44.343 -0.763751 1.37857 0
M  V30 461 C 45.306 -1.85889 1.34081 0
M  V30 462 C 46.306 -1.58949 0.243277 0
M  V30 463 O 47.496 -1.66882 0.499589 0
M  V30 464 C 44.628 -3.23176 1.08489 0
M  V30 465 H 45.821 -1.90648 2.31502 0
M  V30 466 H 43.374 -0.964367 1.23003 0
M  V30 467 H 44.109 -3.24091 0.116318 0
M  V30 468 H 43.894 -3.44124 1.8794 0
M  V30 469 H 45.384 -4.03254 1.08517 0
M  V30 470 N 45.8211 -1.22559 -0.990812 0
M  V30 471 C 47.0691 -1.04933 -1.72724 0
M  V30 472 C 47.3901 0.416158 -1.90508 0
M  V30 473 O 46.6601 1.29918 -1.46622 0
M  V30 474 H 45.2401 -0.385296 -0.639965 0
M  V30 475 H 47.9021 -1.54105 -1.19322 0
M  V30 476 H 46.9981 -1.52886 -2.72089 0
M  V30 477 N 47.2992 1.18797 -1.03562 0
M  V30 478 C 48.2622 2.20464 -0.626769 0
M  V30 479 C 49.2622 1.57721 0.313173 0
M  V30 480 O 50.4522 1.73917 0.0992615 0
M  V30 481 C 47.5842 3.40802 0.0818498 0
M  V30 482 H 48.7772 2.58149 -1.5264 0
M  V30 483 H 46.3302 1.32593 -0.827578 0
M  V30 484 H 47.0652 3.08642 0.995518 0
M  V30 485 H 46.8502 3.8758 -0.593652 0
M  V30 486 H 48.3402 4.16092 0.354584 0
M  V30 487 N 48.7773 0.814389 1.34928 0
M  V30 488 C 49.7403 0.235759 2.27984 0
M  V30 489 C 50.7403 -0.581412 1.49921 0
M  V30 490 O 51.9303 -0.398758 1.69575 0
M  V30 491 C 49.0623 -0.670433 3.34242 0
M  V30 492 H 50.2553 1.05659 2.80671 0
M  V30 493 H 47.8083 0.585614 1.44915 0
M  V30 494 H 48.5433 -1.51466 2.86755 0
M  V30 495 H 48.3283 -0.0860822 3.92005 0
M  V30 496 H 49.8183 -1.06935 4.03676 0
M  V30 497 N 50.2554 -1.46986 0.568584 0
M  V30 498 C 51.2184 -2.28624 -0.162366 0
M  V30 499 C 52.2184 -1.37596 -0.832103 0
M  V30 500 O 53.4084 -1.60115 -0.68622 0
M  V30 501 C 50.5404 -3.17596 -1.23878 0
M  V30 502 H 51.7334 -2.94722 0.554899 0
M  V30 503 H 49.2864 -1.52863 0.325976 0
M  V30 504 H 50.0214 -2.56214 -1.98808 0
M  V30 505 H 49.8064 -3.846 -0.763219 0
M  V30 506 H 51.2964 -3.79078 -1.75185 0
M  V30 507 N 51.7335 -0.305618 -1.54608 0
M  V30 508 C 52.6965 0.555591 -2.22364 0
M  V30 509 C 53.6965 1.05768 -1.21119 0
M  V30 510 O 54.8865 0.952972 -1.45822 0
M  V30 511 C 52.0185 1.76974 -2.91364 0
M  V30 512 H 53.2115 -0.0364572 -2.99878 0
M  V30 513 H 50.7645 -0.0565007 -1.56198 0
M  V30 514 H 51.4995 2.40151 -2.17941 0
M  V30 515 H 51.2845 1.41732 -3.65588 0
M  V30 516 H 52.7745 2.38148 -3.43038 0
M  V30 517 N 53.2116 1.57565 -0.0334293 0
M  V30 518 C 54.1746 2.09393 0.932048 0
M  V30 519 C 55.1746 1.00986 1.25134 0
M  V30 520 O 56.3646 1.27129 1.19096 0
M  V30 521 C 53.4966 2.56338 2.2473 0
M  V30 522 H 54.6896 2.95984 0.483085 0
M  V30 523 H 52.2426 1.54819 0.21468 0
M  V30 524 H 52.9776 1.7309 2.74245 0
M  V30 525 H 52.7626 3.35542 2.02865 0
M  V30 526 H 54.2526 2.96646 2.93923 0
M  V30 527 N 54.6897 -0.239769 1.55765 0
M  V30 528 C 55.6527 -1.28038 1.90103 0
M  V30 529 C 56.6527 -1.40723 0.778055 0
M  V30 530 O 57.8427 -1.39301 1.04599 0
M  V30 531 C 54.9747 -2.65702 2.13577 0
M  V30 532 H 56.1677 -0.988048 2.83157 0
M  V30 533 H 53.7207 -0.479382 1.48767 0
M  V30 534 H 54.4557 -3.00063 1.23015 0
M  V30 535 H 54.2407 -2.57875 2.95369 0
M  V30 536 H 55.7307 -3.40828 2.41301 0
M  V30 537 N 56.1678 -1.49265 -0.50573 0
M  V30 538 C 57.3928 -1.62478 -1.28902 0
M  V30 539 C 57.8178 -0.294332 -1.85783 0
M  V30 540 O 57.1758 0.737412 -1.65626 0
M  V30 541 C 57.2238 -2.69268 -2.39848 0
M  V30 542 O 56.3278 -2.28113 -3.43567 0
M  V30 543 H 55.6688 -0.54399 -0.380751 0
M  V30 544 H 58.1988 -1.95421 -0.605952 0
M  V30 545 H 58.2088 -2.91291 -2.85681 0
M  V30 546 H 56.8838 -3.65846 -1.97812 0
M  V30 547 H 55.4608 -2.16401 -3.03685 0
M  V30 548 N 57.6459 0.756429 -1.3826 0
M  V30 549 C 58.8939 1.51248 -1.34047 0
M  V30 550 C 59.2149 1.94875 0.0698372 0
M  V30 551 O 58.4849 1.67436 1.01696 0
M  V30 552 H 57.0649 0.561018 -0.493222 0
M  V30 553 H 59.7269 0.899347 -1.7291 0
M  V30 554 H 58.8229 2.40472 -1.98947 0
M  V30 555 N 59.124 1.23083 0.984299 0
M  V30 556 C 60.057 0.951786 2.07404 0
M  V30 557 C 61.035 -0.10848 1.62238 0
M  V30 558 O 62.219 0.0249467 1.88483 0
M  V30 559 C 59.346 0.433142 3.35919 0
M  V30 560 C 58.392 1.47941 4.0002 0
M  V30 561 S 59.225 3.05556 4.39768 0
M  V30 562 C 60.381 2.55351 5.71442 0
M  V30 563 H 60.614 1.87456 2.30754 0
M  V30 564 H 58.147 1.06284 1.11996 0
M  V30 565 H 60.105 0.140506 4.10259 0
M  V30 566 H 58.766 -0.468656 3.10584 0
M  V30 567 H 57.959 1.06658 4.92585 0
M  V30 568 H 57.561 1.7212 3.3204 0
M  V30 569 H 59.853 1.97128 6.48187 0
M  V30 570 H 60.796 3.46441 6.17563 0
M  V30 571 H 61.204 1.96339 5.29255 0
M  V30 572 N 60.6021 -1.18246 1.0419 0
M  V30 573 C 61.5121 -2.25574 0.644476 0
M  V30 574 C 62.5281 -1.70845 -0.329826 0
M  V30 575 O 63.7041 -2.00554 -0.184443 0
M  V30 576 C 60.7691 -3.46697 0.014877 0
M  V30 577 C 59.8301 -4.16554 1.03834 0
M  V30 578 C 59.0631 -5.31894 0.438692 0
M  V30 579 O 59.2861 -5.65385 -0.754752 0
M  V30 580 O 58.2201 -5.90459 1.168 0
M  V30 581 H 62.0461 -2.61836 1.53869 0
M  V30 582 H 59.6311 -1.25352 0.812854 0
M  V30 583 H 61.5131 -4.20062 -0.335538 0
M  V30 584 H 60.1881 -3.12255 -0.853138 0
M  V30 585 H 59.0951 -3.45251 1.44057 0
M  V30 586 H 60.4281 -4.54998 1.87716 0
M  V30 587 N 62.0802 -0.821533 -1.34494 0
M  V30 588 C 63.3052 -0.420873 -2.03085 0
M  V30 589 C 63.7302 0.964915 -1.61465 0
M  V30 590 O 63.0882 1.62763 -0.798607 0
M  V30 591 C 63.1362 -0.529414 -3.56693 0
M  V30 592 O 62.2402 0.451302 -4.09923 0
M  V30 593 H 61.5812 -0.173489 -0.640935 0
M  V30 594 H 64.1112 -1.11157 -1.71771 0
M  V30 595 H 64.1212 -0.404671 -4.05988 0
M  V30 596 H 62.7962 -1.54014 -3.86332 0
M  V30 597 H 61.3732 0.285558 -3.71805 0
M  V30 598 N 63.5583 1.46682 -0.576371 0
M  V30 599 C 64.5063 2.31953 0.17335 0
M  V30 600 C 65.5003 1.44098 0.89062 0
M  V30 601 O 66.7063 1.60759 0.809728 0
M  V30 602 H 63.0813 0.748273 0.0747727 0
M  V30 603 H 65.0523 2.93007 -0.564738 0
M  V30 604 C 63.8013 3.27142 1.17786 0
M  V30 605 H 63.1243 3.94719 0.635361 0
M  V30 606 H 64.5643 3.896 1.67296 0
M  V30 607 C 63.0233 2.52036 2.23561 0
M  V30 608 O 63.5533 2.27877 3.3081 0
M  V30 609 N 61.7593 2.12709 1.97998 0
M  V30 610 H 61.3063 2.32557 1.10792 0
M  V30 611 H 61.2643 1.62776 2.68982 0
M  V30 612 N 65.0364 0.313813 1.54444 0
M  V30 613 C 66.2644 -0.293918 2.04802 0
M  V30 614 C 66.6794 -1.46537 1.19047 0
M  V30 615 O 66.0364 -1.81182 0.218939 0
M  V30 616 C 66.0874 -0.737806 3.53891 0
M  V30 617 O 65.8084 0.387038 4.36387 0
M  V30 618 C 67.3094 -1.40936 4.203 0
M  V30 619 H 64.5294 -0.0620057 0.668129 0
M  V30 620 H 67.0734 0.457169 1.99324 0
M  V30 621 H 65.2284 -1.43889 3.59687 0
M  V30 622 H 65.6424 0.0391274 5.24485 0
M  V30 623 H 67.1164 -1.67099 5.26101 0
M  V30 624 H 67.5934 -2.35355 3.70816 0
M  V30 625 H 68.1994 -0.751117 4.18615 0
M  V30 626 N 66.5145 -1.57545 0.0417849 0
M  V30 627 C 67.7395 -1.97035 -0.647455 0
M  V30 628 C 68.1645 -0.918775 -1.64135 0
M  V30 629 O 67.5225 0.119006 -1.80909 0
M  V30 630 C 67.5705 -3.35609 -1.31905 0
M  V30 631 O 66.6745 -3.3287 -2.43457 0
M  V30 632 H 66.0155 -0.64211 -0.169086 0
M  V30 633 H 68.5455 -2.04318 0.107399 0
M  V30 634 H 68.5555 -3.72126 -1.67291 0
M  V30 635 H 67.2305 -4.11685 -0.590586 0
M  V30 636 H 65.8075 -3.08087 -2.10088 0
M  V30 637 N 67.9926 0.231505 -1.5589 0
M  V30 638 C 69.2176 0.978689 -1.82856 0
M  V30 639 C 69.6426 1.77559 -0.620846 0
M  V30 640 O 69.0006 1.76119 0.430305 0
M  V30 641 C 69.0486 1.87997 -3.07716 0
M  V30 642 O 68.1526 2.97393 -2.85712 0
M  V30 643 H 67.4936 0.277663 -0.603158 0
M  V30 644 H 70.0236 0.24783 -2.03093 0
M  V30 645 H 70.0336 2.2917 -3.37558 0
M  V30 646 H 68.7086 1.29417 -3.95252 0
M  V30 647 H 67.2856 2.60238 -2.67078 0
M  V30 648 N 69.4707 1.49531 0.497807 0
M  V30 649 C 70.6957 1.63159 1.28039 0
M  V30 650 C 71.1207 0.30418 1.85624 0
M  V30 651 O 70.4787 -0.728618 1.66015 0
M  V30 652 C 70.5267 2.70537 2.38416 0
M  V30 653 O 69.6307 2.29931 3.42353 0
M  V30 654 H 68.9717 0.546001 0.377861 0
M  V30 655 H 71.5017 1.9574 0.59558 0
M  V30 656 H 71.5117 2.92802 2.84132 0
M  V30 657 H 70.1867 3.6689 1.95869 0
M  V30 658 H 68.7637 2.18009 3.02533 0
M  V30 659 N 70.9488 -0.749086 1.3866 0
M  V30 660 C 71.8788 -1.8764 1.38973 0
M  V30 661 C 72.8598 -1.68178 0.255004 0
M  V30 662 O 74.0448 -1.88704 0.458754 0
M  V30 663 C 71.1748 -3.25222 1.21851 0
M  V30 664 C 70.1288 -3.59295 2.32575 0
M  V30 665 C 69.4548 -4.95663 2.00555 0
M  V30 666 C 70.7548 -3.63709 3.7485 0
M  V30 667 H 72.4488 -1.87635 2.3331 0
M  V30 668 H 69.9948 -0.901329 1.12303 0
M  V30 669 H 71.9478 -4.03746 1.20695 0
M  V30 670 H 70.6718 -3.25719 0.239775 0
M  V30 671 H 69.3308 -2.83093 2.32925 0
M  V30 672 H 68.9788 -4.92724 1.01154 0
M  V30 673 H 68.6788 -5.19429 2.74714 0
M  V30 674 H 70.2028 -5.7656 2.01024 0
M  V30 675 H 71.6168 -4.32338 3.76506 0
M  V30 676 H 70.0138 -3.98986 4.48252 0
M  V30 677 H 71.0838 -2.63834 4.06841 0
M  V30 678 N 72.4269 -1.23603 -0.977757 0
M  V30 679 C 73.3369 -1.03632 -2.1047 0
M  V30 680 C 74.3529 0.0199435 -1.73989 0
M  V30 681 O 75.5289 -0.176076 -2.00629 0
M  V30 682 C 72.5939 -0.63276 -3.40877 0
M  V30 683 C 71.6549 -1.76437 -3.91367 0
M  V30 684 C 70.8879 -1.37997 -5.15551 0
M  V30 685 O 71.1109 -0.265357 -5.69782 0
M  V30 686 O 70.0449 -2.20201 -5.60174 0
M  V30 687 H 73.8709 -1.98086 -2.30208 0
M  V30 688 H 71.4559 -1.02332 -1.08851 0
M  V30 689 H 73.3379 -0.418761 -4.19314 0
M  V30 690 H 72.0129 0.282754 -3.22463 0
M  V30 691 H 70.9199 -2.03304 -3.14036 0
M  V30 692 H 72.2529 -2.6583 -4.14241 0
M  V30 693 N 73.905 1.17692 -1.04816 0
M  V30 694 C 74.853 2.23632 -0.63966 0
M  V30 695 C 75.847 1.6601 0.337219 0
M  V30 696 O 77.053 1.78844 0.203693 0
M  V30 697 H 73.428 0.727949 -0.188665 0
M  V30 698 H 75.399 2.55387 -1.54337 0
M  V30 699 C 74.148 3.4769 -0.0264051 0
M  V30 700 H 73.471 3.92331 -0.769164 0
M  V30 701 H 74.911 4.23418 0.222098 0
M  V30 702 C 73.37 3.13807 1.22584 0
M  V30 703 O 73.9 3.28236 2.31569 0
M  V30 704 N 72.106 2.68065 1.12202 0
M  V30 705 H 71.653 2.56525 0.235133 0
M  V30 706 H 71.611 2.45767 1.96076 0
M  V30 707 N 75.3831 0.828654 1.34056 0
M  V30 708 C 76.3131 0.269443 2.3194 0
M  V30 709 C 77.2941 -0.617247 1.58506 0
M  V30 710 O 78.4791 -0.542931 1.86456 0
M  V30 711 C 75.6091 -0.564793 3.42677 0
M  V30 712 C 74.5631 0.225241 4.27407 0
M  V30 713 C 73.8891 -0.7321 5.29664 0
M  V30 714 C 75.1891 1.43663 5.02154 0
M  V30 715 H 76.8831 1.08728 2.7896 0
M  V30 716 H 74.4291 0.524283 1.34117 0
M  V30 717 H 76.3821 -0.966233 4.10173 0
M  V30 718 H 75.1061 -1.41574 2.9432 0
M  V30 719 H 73.7651 0.608117 3.61521 0
M  V30 720 H 73.4131 -1.57916 4.77568 0
M  V30 721 H 73.1131 -0.20767 5.87233 0
M  V30 722 H 74.6371 -1.13128 6.00029 0
M  V30 723 H 76.0511 1.1089 5.62473 0
M  V30 724 H 74.4481 1.89711 5.69324 0
M  V30 725 H 75.5181 2.21181 4.31517 0
M  V30 726 N 76.8612 -1.46375 0.584142 0
M  V30 727 C 77.8242 -2.28784 -0.138108 0
M  V30 728 C 78.8242 -1.38471 -0.817462 0
M  V30 729 O 80.0142 -1.60833 -0.669199 0
M  V30 730 C 77.1462 -3.18892 -1.20503 0
M  V30 731 H 78.3392 -2.94117 0.586127 0
M  V30 732 H 75.8922 -1.52509 0.342171 0
M  V30 733 H 76.6272 -2.58309 -1.96079 0
M  V30 734 H 76.4122 -3.85388 -0.722384 0
M  V30 735 H 77.9022 -3.80914 -1.71155 0
M  V30 736 N 78.3393 -0.321999 -1.54275 0
M  V30 737 C 79.5673 0.283052 -2.04955 0
M  V30 738 C 79.9823 1.45904 -1.19823 0
M  V30 739 O 79.3393 1.81063 -0.228545 0
M  V30 740 C 79.3903 0.719028 -3.54277 0
M  V30 741 O 79.1113 -0.410175 -4.36176 0
M  V30 742 C 80.6123 1.38705 -4.21041 0
M  V30 743 H 77.8323 0.0584616 -0.668448 0
M  V30 744 H 80.3763 -0.467734 -1.99079 0
M  V30 745 H 78.5313 1.41979 -3.60445 0
M  V30 746 H 78.9453 -0.0669416 -5.24457 0
M  V30 747 H 80.4193 1.64306 -5.2698 0
M  V30 748 H 80.8963 2.33385 -3.72059 0
M  V30 749 H 81.5023 0.728906 -4.19007 0
M  V30 750 N 79.8174 1.5752 -0.0501392 0
M  V30 751 C 80.7804 2.1037 0.909786 0
M  V30 752 C 81.7804 1.02308 1.24056 0
M  V30 753 O 82.9704 1.28385 1.17741 0
M  V30 754 C 80.1024 2.58708 2.21998 0
M  V30 755 H 81.2954 2.96479 0.451665 0
M  V30 756 H 78.8484 1.55038 0.198248 0
M  V30 757 H 79.5834 1.75989 2.72394 0
M  V30 758 H 79.3684 3.37675 1.99295 0
M  V30 759 H 80.8584 2.99747 2.9076 0
M  V30 760 N 81.2955 -0.223234 1.56011 0
M  V30 761 C 82.7065 -0.790368 1.69145 0
M  V30 762 C 83.0575 -1.85055 0.651845 0
M  V30 763 O 82.1825 -2.15498 -0.197359 0
M  V30 764 C 82.7775 -1.4404 3.06656 0
M  V30 765 C 81.3365 -1.95494 3.2165 0
M  V30 766 C 80.4835 -0.814506 2.65068 0
M  V30 767 H 83.4345 0.00139011 1.587 0
M  V30 768 H 83.4555 -2.30916 3.0242 0
M  V30 769 H 82.9675 -0.668543 3.82298 0
M  V30 770 H 81.0685 -2.75487 2.50874 0
M  V30 771 H 81.1815 -2.13607 4.28846 0
M  V30 772 H 79.5455 -1.22137 2.23505 0
M  V30 773 H 80.3285 -0.0553515 3.43255 0
M  V30 774 N 82.7736 -1.49793 -0.48987 0
M  V30 775 C 84.0196 -1.60078 -1.24511 0
M  V30 776 C 84.3526 -0.291608 -1.91998 0
M  V30 777 O 83.6276 0.705647 -1.81248 0
M  V30 778 C 83.9106 -2.76791 -2.30345 0
M  V30 779 C 83.7636 -4.17535 -1.67286 0
M  V30 780 C 85.0826 -2.89111 -3.31817 0
M  V30 781 H 82.2016 -0.582645 -0.451324 0
M  V30 782 H 84.8436 -1.82117 -0.541612 0
M  V30 783 H 82.9936 -2.5813 -2.90346 0
M  V30 784 H 84.6656 -4.4774 -1.11026 0
M  V30 785 H 82.9086 -4.22665 -0.976577 0
M  V30 786 H 83.5796 -4.95094 -2.44103 0
M  V30 787 H 86.0556 -3.06133 -2.81819 0
M  V30 788 H 84.9316 -3.72433 -4.03219 0
M  V30 789 H 85.1926 -1.9893 -3.94815 0
M  V30 790 N 84.2517 0.741722 -1.39055 0
M  V30 791 C 85.1997 1.87702 -1.3737 0
M  V30 792 C 86.1937 1.67427 -0.257812 0
M  V30 793 O 87.3997 1.7485 -0.427489 0
M  V30 794 H 83.7747 0.617757 -0.428812 0
M  V30 795 H 85.7457 1.86239 -2.33147 0
M  V30 796 C 84.4947 3.25315 -1.22741 0
M  V30 797 H 83.8177 3.41509 -2.07873 0
M  V30 798 H 85.2577 4.04964 -1.25618 0
M  V30 799 C 83.7167 3.36838 0.0647316 0
M  V30 800 O 84.2467 3.88073 1.03741 0
M  V30 801 N 82.4527 2.90329 0.125544 0
M  V30 802 H 81.9997 2.48823 -0.666682 0
M  V30 803 H 81.9577 2.98418 0.989639 0
M  V30 804 N 85.7298 1.2412 0.971189 0
M  V30 805 C 86.6618 0.988349 2.06795 0
M  V30 806 C 87.6748 -0.0409541 1.62748 0
M  V30 807 O 88.8638 0.195673 1.77424 0
M  V30 808 C 85.9638 0.469023 3.35639 0
M  V30 809 C 85.1368 1.56065 4.08611 0
M  V30 810 C 84.1958 1.04458 5.15728 0
M  V30 811 O 83.2218 1.73553 5.42096 0
M  V30 812 N 84.4238 -0.122817 5.8037 0
M  V30 813 H 87.1888 1.93265 2.29061 0
M  V30 814 H 84.7498 1.15102 1.13856 0
M  V30 815 H 86.7418 0.108613 4.04554 0
M  V30 816 H 85.3118 -0.380919 3.1027 0
M  V30 817 H 84.5318 2.09341 3.34021 0
M  V30 818 H 85.8198 2.29449 4.54126 0
M  V30 819 H 85.2178 -0.700563 5.61345 0
M  V30 820 H 83.7748 -0.424404 6.50417 0
M  V30 821 N 87.2079 -1.17134 1.05439 0
M  V30 822 C 88.4569 -1.86791 0.761049 0
M  V30 823 C 88.7699 -1.82072 -0.714795 0
M  V30 824 O 89.9759 -2.47223 -1.12218 0
M  V30 825 C 88.4319 -3.35166 1.31117 0
M  V30 826 C 88.0399 -3.48381 2.81664 0
M  V30 827 C 89.7839 -4.10134 1.09499 0
M  V30 828 C 87.6909 -4.90793 3.29964 0
M  V30 829 H 86.6209 -0.699681 0.281002 0
M  V30 830 H 89.2719 -1.3226 1.27199 0
M  V30 831 H 87.6539 -3.8925 0.72803 0
M  V30 832 H 88.8279 -3.04502 3.45855 0
M  V30 833 H 87.1429 -2.86836 3.01851 0
M  V30 834 H 89.7399 -5.152 1.43084 0
M  V30 835 H 90.0829 -4.16287 0.0328772 0
M  V30 836 H 90.6159 -3.62264 1.64346 0
M  V30 837 H 87.3549 -4.89816 4.35616 0
M  V30 838 H 86.8749 -5.35333 2.70516 0
M  V30 839 H 88.5539 -5.59573 3.24787 0
M  V30 840 N 88.686 -0.835752 -1.33615 0
M  V30 841 C 89.618 -0.224151 -2.28101 0
M  V30 842 C 90.631 0.593331 -1.51603 0
M  V30 843 O 91.82 0.420911 -1.73466 0
M  V30 844 C 88.92 0.703309 -3.31522 0
M  V30 845 C 88.093 -0.0741528 -4.37337 0
M  V30 846 C 87.152 0.776176 -5.20444 0
M  V30 847 O 86.178 0.216506 -5.68788 0
M  V30 848 N 87.38 2.09401 -5.41416 0
M  V30 849 H 90.145 -1.03598 -2.81225 0
M  V30 850 H 87.706 -0.69392 -1.46275 0
M  V30 851 H 89.698 1.27707 -3.84022 0
M  V30 852 H 88.268 1.41585 -2.78698 0
M  V30 853 H 87.488 -0.82928 -3.85378 0
M  V30 854 H 88.776 -0.608863 -5.05144 0
M  V30 855 H 88.174 2.57229 -5.03835 0
M  V30 856 H 86.731 2.61633 -5.96985 0
M  V30 857 N 90.1641 1.46063 -0.591896 0
M  V30 858 C 91.0741 2.34192 0.13831 0
M  V30 859 C 92.0901 1.50305 0.876608 0
M  V30 860 O 93.2661 1.8315 0.837728 0
M  V30 861 C 90.3311 3.27656 1.13326 0
M  V30 862 C 89.3921 4.27445 0.39863 0
M  V30 863 C 88.6251 5.16443 1.34618 0
M  V30 864 O 88.8481 5.08553 2.58321 0
M  V30 865 O 87.7821 5.95843 0.851768 0
M  V30 866 H 91.6081 2.98002 -0.58552 0
M  V30 867 H 89.1931 1.45188 -0.352239 0
M  V30 868 H 91.0751 3.85291 1.70671 0
M  V30 869 H 89.7501 2.6643 1.83839 0
M  V30 870 H 88.6571 3.73471 -0.216895 0
M  V30 871 H 89.9901 4.91482 -0.265709 0
M  V30 872 N 91.6422 0.330177 1.54103 0
M  V30 873 C 92.8702 -0.272179 2.05102 0
M  V30 874 C 93.2852 -1.45267 1.20595 0
M  V30 875 O 92.6422 -1.8094 0.238144 0
M  V30 876 C 92.6932 -0.70023 3.54653 0
M  V30 877 O 92.4142 0.433301 4.35952 0
M  V30 878 C 93.9152 -1.3647 4.21771 0
M  V30 879 H 91.1352 -0.0549159 0.668749 0
M  V30 880 H 93.6792 0.478285 1.98828 0
M  V30 881 H 91.8342 -1.40066 3.61193 0
M  V30 882 H 92.2482 0.0947539 5.24414 0
M  V30 883 H 93.7222 -1.61509 5.27843 0
M  V30 884 H 94.1992 -2.31409 3.73292 0
M  V30 885 H 94.8052 -0.706675 4.19388 0
M  V30 886 N 93.1203 -1.57491 0.0584922 0
M  V30 887 C 94.3693 -1.92155 -0.613146 0
M  V30 888 C 94.6823 -0.939334 -1.71569 0
M  V30 889 O 95.8883 -1.17829 -2.44599 0
M  V30 890 C 94.3443 -3.41303 -1.14195 0
M  V30 891 C 93.9523 -4.47944 -0.0711265 0
M  V30 892 C 95.6963 -3.84988 -1.78841 0
M  V30 893 C 93.6033 -5.88212 -0.613225 0
M  V30 894 H 92.5333 -0.717162 -0.232796 0
M  V30 895 H 95.1843 -1.83049 0.12857 0
M  V30 896 H 93.5663 -3.45437 -1.93621 0
M  V30 897 H 94.7403 -4.55408 0.702836 0
M  V30 898 H 93.0553 -4.13644 0.478313 0
M  V30 899 H 95.6523 -4.87159 -2.20408 0
M  V30 900 H 95.9953 -3.21632 -2.64308 0
M  V30 901 H 96.5283 -3.83401 -1.06059 0
M  V30 902 H 93.2673 -6.55183 0.203978 0
M  V30 903 H 92.7873 -5.84294 -1.35501 0
M  V30 904 H 94.4663 -6.37687 -1.09383 0
M  V30 905 N 94.5984 0.214957 -1.56127 0
M  V30 906 C 95.8234 0.95924 -1.83884 0
M  V30 907 C 96.2484 1.7689 -0.639644 0
M  V30 908 O 95.6064 1.76566 0.411601 0
M  V30 909 C 95.6544 1.84723 -3.09693 0
M  V30 910 O 94.7584 2.94346 -2.8885 0
M  V30 911 H 94.0994 0.27125 -0.606069 0
M  V30 912 H 96.6294 0.226276 -2.03345 0
M  V30 913 H 96.6394 2.25576 -3.39969 0
M  V30 914 H 95.3144 1.25218 -3.96602 0
M  V30 915 H 93.8914 2.57391 -2.69823 0
M  V30 916 N 96.0765 1.50051 0.48192 0
M  V30 917 C 97.3535 1.51009 1.2432 0
M  V30 918 C 97.7335 0.248587 2.09631 0
M  V30 919 O 97.0815 -0.768409 2.15192 0
M  V30 920 C 97.2915 2.79981 2.08355 0
M  V30 921 C 98.6395 3.3022 2.66908 0
M  V30 922 O 99.6635 2.81228 2.18607 0
M  V30 923 O 98.5225 4.15595 3.54884 0
M  V30 924 H 95.6165 0.605239 0.563573 0
M  V30 925 H 98.1625 1.62332 0.494627 0
M  V30 926 H 96.9345 3.63275 1.45419 0
M  V30 927 H 96.5575 2.7161 2.90368 0
M  V30 928 N 97.5546 -0.734337 1.39446 0
M  V30 929 C 98.5026 -1.86971 1.38364 0
M  V30 930 C 99.4966 -1.67288 0.266687 0
M  V30 931 O 100.703 -1.74621 0.436755 0
M  V30 932 H 97.0776 -0.615474 0.432082 0
M  V30 933 H 99.0486 -1.85 2.34132 0
M  V30 934 C 97.7976 -3.2466 1.24465 0
M  V30 935 H 97.1206 -3.40402 2.09682 0
M  V30 936 H 98.5606 -4.04292 1.27764 0
M  V30 937 C 97.0196 -3.36867 -0.0468674 0
M  V30 938 O 97.5496 -3.88618 -1.01681 0
M  V30 939 N 95.7556 -2.90391 -0.110145 0
M  V30 940 H 95.3026 -2.48466 0.679868 0
M  V30 941 H 95.2606 -2.98939 -0.973799 0
M  V30 942 N 99.0327 -1.24633 -0.964593 0
M  V30 943 C 100.273 -1.09981 -1.72289 0
M  V30 944 C 100.637 0.354792 -1.88693 0
M  V30 945 O 101.838 0.62289 -2.61483 0
M  V30 946 C 100.109 -1.82262 -3.07434 0
M  V30 947 S 101.668 -1.83379 -3.98645 0
M  V30 948 H 98.4857 -0.393292 -0.59232 0
M  V30 949 H 101.088 -1.58009 -1.15123 0
M  V30 950 H 99.7917 -2.87206 -2.93157 0
M  V30 951 H 99.3227 -1.3458 -3.69664 0
M  V30 952 H 101.338 -0.903691 -4.87901 0
M  V30 953 N 100.511 1.16574 -1.06058 0
M  V30 954 C 101.757 1.87324 -0.777022 0
M  V30 955 C 102.09 1.81351 0.694645 0
M  V30 956 O 101.365 1.22753 1.50871 0
M  V30 957 C 101.648 3.36991 -1.26922 0
M  V30 958 C 101.501 3.51667 -2.80447 0
M  V30 959 C 102.82 4.3131 -0.87521 0
M  V30 960 H 99.9388 0.680191 -0.28374 0
M  V30 961 H 102.581 1.37036 -1.3161 0
M  V30 962 H 100.731 3.79949 -0.81063 0
M  V30 963 H 102.403 3.17664 -3.34495 0
M  V30 964 H 100.646 2.93656 -3.19294 0
M  V30 965 H 101.317 4.56766 -3.0995 0
M  V30 966 H 103.793 3.9624 -1.27014 0
M  V30 967 H 102.669 5.34545 -1.2471 0
M  V30 968 H 102.93 4.41552 0.220071 0
M  V30 969 N 101.989 0.842826 1.3317 0
M  V30 970 C 103.235 0.441099 1.97945 0
M  V30 971 C 103.568 -0.998024 1.66593 0
M  V30 972 O 102.843 -1.69839 0.947898 0
M  V30 973 C 103.126 0.666841 3.53872 0
M  V30 974 C 102.979 2.15352 3.94897 0
M  V30 975 C 104.298 0.115544 4.39948 0
M  V30 976 H 101.417 0.161739 0.719034 0
M  V30 977 H 104.059 1.05907 1.57746 0
M  V30 978 H 102.209 0.140828 3.88245 0
M  V30 979 H 103.881 2.7447 3.70761 0
M  V30 980 H 102.124 2.63653 3.44484 0
M  V30 981 H 102.795 2.26221 5.03516 0
M  V30 982 H 105.271 0.565213 4.12243 0
M  V30 983 H 104.147 0.303152 5.48062 0
M  V30 984 H 104.408 -0.980935 4.3108 0
M  V30 985 N 103.467 -1.45747 0.599634 0
M  V30 986 C 104.716 -2.01502 0.0893511 0
M  V30 987 C 105.029 -1.4748 -1.28488 0
M  V30 988 O 106.235 -1.95161 -1.88745 0
M  V30 989 C 104.691 -3.59735 0.109082 0
M  V30 990 C 104.299 -4.22754 1.48267 0
M  V30 991 C 106.043 -4.23085 -0.346374 0
M  V30 992 C 103.95 -5.73115 1.45921 0
M  V30 993 H 102.88 -0.753417 0.0296347 0
M  V30 994 H 105.531 -1.67303 0.753788 0
M  V30 995 H 103.913 -3.91087 -0.621854 0
M  V30 996 H 105.087 -4.02987 2.23468 0
M  V30 997 H 103.402 -3.71567 1.87955 0
M  V30 998 H 105.999 -5.33327 -0.38298 0
M  V30 999 H 106.342 -3.93201 -1.36743 0
M  V30 1000 H 106.875 -3.9642 0.331038 0
M  V30 1001 H 103.614 -6.07685 2.45762 0
M  V30 1002 H 103.134 -5.95097 0.749665 0
M  V30 1003 H 104.813 -6.3616 1.17941 0
M  V30 1004 N 104.945 -0.338344 -1.53925 0
M  V30 1005 C 106.192 0.259758 -2.00827 0
M  V30 1006 C 106.52 1.50973 -1.22628 0
M  V30 1007 O 105.775 1.93379 -0.300509 0
M  V30 1008 C 106.074 0.62448 -3.51902 0
M  V30 1009 C 105.74 -0.528006 -4.47798 0
M  V30 1010 C 104.402 -0.844298 -4.73735 0
M  V30 1011 C 106.754 -1.30143 -5.0469 0
M  V30 1012 C 104.082 -1.93648 -5.53821 0
M  V30 1013 C 106.434 -2.38382 -5.85967 0
M  V30 1014 C 105.098 -2.70576 -6.10201 0
M  V30 1015 H 104.368 0.0950523 -0.734878 0
M  V30 1016 H 107.015 -0.465182 -1.85764 0
M  V30 1017 H 105.32 1.43006 -3.64769 0
M  V30 1018 H 107.017 1.09905 -3.85645 0
M  V30 1019 H 103.607 -0.271421 -4.2774 0
M  V30 1020 H 107.791 -1.07033 -4.84621 0
M  V30 1021 H 103.047 -2.19021 -5.70824 0
M  V30 1022 H 107.221 -2.98746 -6.29066 0
M  V30 1023 H 104.848 -3.55333 -6.72044 0
M  V30 1024 N 106.423 1.57458 -0.0668435 0
M  V30 1025 C 107.648 1.9804 0.616027 0
M  V30 1026 C 108.073 0.944771 1.62652 0
M  V30 1027 O 107.431 -0.0902094 1.81075 0
M  V30 1028 C 107.479 3.37665 1.26549 0
M  V30 1029 O 106.583 3.36701 2.38131 0
M  V30 1030 H 105.924 0.644719 0.158849 0
M  V30 1031 H 108.454 2.04121 -0.139891 0
M  V30 1032 H 108.464 3.7474 1.6135 0
M  V30 1033 H 107.139 4.12573 0.525016 0
M  V30 1034 H 105.716 3.1139 2.0516 0
M  V30 1035 N 107.901 -0.206675 1.56239 0
M  V30 1036 C 108.848 -1.25617 1.93621 0
M  V30 1037 C 109.818 -1.45824 0.795274 0
M  V30 1038 O 111.003 -1.59148 1.05245 0
M  V30 1039 C 108.143 -2.59839 2.27107 0
M  V30 1040 C 107.256 -2.47308 3.54207 0
M  V30 1041 C 106.391 -3.74155 3.7707 0
M  V30 1042 C 105.43 -3.56407 4.97635 0
M  V30 1043 N 104.567 -4.75238 5.1681 0
M  V30 1044 H 109.407 -0.930383 2.83104 0
M  V30 1045 H 106.944 -0.448065 1.4011 0
M  V30 1046 H 108.902 -3.38021 2.44535 0
M  V30 1047 H 107.532 -2.90485 1.40778 0
M  V30 1048 H 106.584 -1.60483 3.4489 0
M  V30 1049 H 107.896 -2.30122 4.42544 0
M  V30 1050 H 107.05 -4.60778 3.94675 0
M  V30 1051 H 105.789 -3.94282 2.87042 0
M  V30 1052 H 104.794 -2.68168 4.79964 0
M  V30 1053 H 106.019 -3.37736 5.89161 0
M  V30 1054 H 103.965 -4.95651 4.29728 0
M  V30 1055 H 103.882 -4.60835 5.99306 0
M  V30 1056 H 105.15 -5.63246 5.38864 0
M  V30 1057 N 109.379 -1.50304 -0.473955 0
M  V30 1058 C 110.607 -1.64902 -1.24959 0
M  V30 1059 C 111.022 -0.331198 -1.85872 0
M  V30 1060 O 110.379 0.68652 -1.69095 0
M  V30 1061 C 110.43 -2.73803 -2.36038 0
M  V30 1062 O 110.151 -4.00477 -1.77624 0
M  V30 1063 C 111.652 -2.99349 -3.26964 0
M  V30 1064 H 108.872 -0.554383 -0.378022 0
M  V30 1065 H 111.416 -1.9651 -0.566054 0
M  V30 1066 H 109.571 -2.44898 -3.00173 0
M  V30 1067 H 109.985 -4.60678 -2.5075 0
M  V30 1068 H 111.459 -3.79217 -4.01121 0
M  V30 1069 H 111.936 -2.10307 -3.85574 0
M  V30 1070 H 112.542 -3.29774 -2.68569 0
M  V30 1071 N 110.857 0.726932 -1.39834 0
M  V30 1072 C 112.082 1.52121 -1.40976 0
M  V30 1073 C 112.507 1.88098 -0.00826029 0
M  V30 1074 O 111.865 1.52479 0.980807 0
M  V30 1075 C 111.913 2.78021 -2.29644 0
M  V30 1076 O 111.017 3.74272 -1.73188 0
M  V30 1077 H 110.358 0.45908 -0.479731 0
M  V30 1078 H 112.888 0.896207 -1.83927 0
M  V30 1079 H 112.898 3.26671 -2.44438 0
M  V30 1080 H 111.573 2.51169 -3.31492 0
M  V30 1081 H 110.15 3.33073 -1.6768 0
M  V30 1082 N 112.336 1.25143 0.95797 0
M  V30 1083 C 113.576 1.10893 1.71703 0
M  V30 1084 C 113.94 -0.34478 1.88879 0
M  V30 1085 O 115.141 -0.609014 2.6181 0
M  V30 1086 C 113.412 1.83889 3.06463 0
M  V30 1087 S 114.971 1.85491 3.97666 0
M  V30 1088 H 111.789 0.396428 0.590226 0
M  V30 1089 H 114.391 1.58618 1.14283 0
M  V30 1090 H 113.095 2.88756 2.9163 0
M  V30 1091 H 112.626 1.36538 3.68946 0
M  V30 1092 H 114.641 0.929553 4.87415 0
M  V30 1093 N 113.814 -1.1601 1.06675 0
M  V30 1094 C 115.039 -1.91068 0.806706 0
M  V30 1095 C 115.464 -1.77112 -0.633485 0
M  V30 1096 O 114.822 -1.09908 -1.44187 0
M  V30 1097 C 114.87 -3.39655 1.21106 0
M  V30 1098 O 113.974 -4.10893 0.352189 0
M  V30 1099 H 113.315 -0.595125 0.294486 0
M  V30 1100 H 115.845 -1.46955 1.42356 0
M  V30 1101 H 115.855 -3.90434 1.18428 0
M  V30 1102 H 114.53 -3.49132 2.26008 0
M  V30 1103 H 113.107 -3.70285 0.440868 0
M  V30 1104 N 115.292 -0.849877 -1.32721 0
M  V30 1105 C 116.522 -0.46408 -2.0132 0
M  V30 1106 C 116.93 0.94246 -1.64056 0
M  V30 1107 O 116.273 1.6257 -0.855379 0
M  V30 1108 C 116.335 -0.517887 -3.5575 0
M  V30 1109 C 115.999 -1.88248 -4.16427 0
M  V30 1110 C 116.996 -2.84726 -4.35002 0
M  V30 1111 C 114.681 -2.17832 -4.52609 0
M  V30 1112 C 116.675 -4.08945 -4.8892 0
M  V30 1113 C 114.362 -3.42304 -5.06232 0
M  V30 1114 C 115.36 -4.37677 -5.24335 0
M  V30 1115 O 115.048 -5.59946 -5.76815 0
M  V30 1116 H 114.78 -0.181327 -0.651227 0
M  V30 1117 H 117.334 -1.14713 -1.70382 0
M  V30 1118 H 115.564 0.221997 -3.86062 0
M  V30 1119 H 117.253 -0.148366 -4.05629 0
M  V30 1120 H 118.019 -2.63174 -4.07388 0
M  V30 1121 H 113.898 -1.44385 -4.37806 0
M  V30 1122 H 117.442 -4.83396 -5.02966 0
M  V30 1123 H 113.339 -3.63709 -5.33278 0
M  V30 1124 H 114.107 -5.61838 -5.95214 0
M  V30 1125 N 116.77 1.45427 -0.607355 0
M  V30 1126 C 118.01 2.04128 -0.105458 0
M  V30 1127 C 118.374 1.46555 1.24039 0
M  V30 1128 O 119.575 1.96608 1.833 0
M  V30 1129 C 117.846 3.57338 -0.0665324 0
M  V30 1130 S 119.405 4.37201 0.374207 0
M  V30 1131 H 116.223 0.709278 -0.0494575 0
M  V30 1132 H 118.825 1.78139 -0.805404 0
M  V30 1133 H 117.529 3.96752 -1.04957 0
M  V30 1134 H 117.06 3.87902 0.655415 0
M  V30 1135 H 119.075 4.6888 1.62377 0
M  V30 1136 N 118.248 0.346503 1.53744 0
M  V30 1137 C 119.476 -0.25041 2.05379 0
M  V30 1138 C 119.891 -1.43979 1.22129 0
M  V30 1139 O 119.248 -1.80677 0.257321 0
M  V30 1140 C 119.299 -0.662575 3.55376 0
M  V30 1141 O 119.02 0.479515 4.35468 0
M  V30 1142 C 120.521 -1.31989 4.23195 0
M  V30 1143 H 117.741 -0.0478198 0.669294 0
M  V30 1144 H 120.285 0.499346 1.9831 0
M  V30 1145 H 118.44 -1.36227 3.62658 0
M  V30 1146 H 118.854 0.15037 5.24284 0
M  V30 1147 H 120.328 -1.55902 5.29527 0
M  V30 1148 H 120.805 -2.27436 3.75725 0
M  V30 1149 H 121.411 -0.662154 4.20114 0
M  V30 1150 N 119.726 -1.57421 0.075193 0
M  V30 1151 C 120.659 -2.08528 -0.926904 0
M  V30 1152 C 121.637 -0.991171 -1.28898 0
M  V30 1153 O 122.821 -1.26479 -1.39769 0
M  V30 1154 C 119.948 -2.54576 -2.23402 0
M  V30 1155 C 118.994 -3.75454 -2.02327 0
M  V30 1156 S 119.827 -5.19989 -1.27951 0
M  V30 1157 C 120.983 -5.69372 -2.59935 0
M  V30 1158 H 121.216 -2.932 -0.492048 0
M  V30 1159 H 118.749 -1.53785 -0.137651 0
M  V30 1160 H 120.707 -2.81767 -2.98526 0
M  V30 1161 H 119.368 -1.70166 -2.64012 0
M  V30 1162 H 118.561 -4.05675 -2.99071 0
M  V30 1163 H 118.163 -3.48654 -1.35339 0
M  V30 1164 H 120.455 -5.76424 -3.56008 0
M  V30 1165 H 121.398 -6.68207 -2.34319 0
M  V30 1166 H 121.806 -4.97205 -2.67296 0
M  V30 1167 N 121.204 0.198386 -1.56346 0
M  V30 1168 C 122.167 1.22952 -1.93431 0
M  V30 1169 C 123.167 1.38611 -0.815092 0
M  V30 1170 O 124.357 1.36479 -1.08255 0
M  V30 1171 C 121.489 2.59946 -2.20546 0
M  V30 1172 H 122.682 0.912626 -2.85677 0
M  V30 1173 H 120.235 0.43977 -1.49986 0
M  V30 1174 H 120.97 2.96696 -1.30927 0
M  V30 1175 H 120.755 2.49953 -3.02102 0
M  V30 1176 H 122.245 3.3431 -2.50253 0
M  V30 1177 N 122.682 1.50554 0.465978 0
M  V30 1178 C 123.629 1.6979 1.56333 0
M  V30 1179 C 124.599 0.539239 1.57103 0
M  V30 1180 O 125.784 0.770401 1.74555 0
M  V30 1181 C 122.924 1.80273 2.94271 0
M  V30 1182 C 122.037 3.07674 3.0325 0
M  V30 1183 C 121.172 3.08922 4.32135 0
M  V30 1184 C 120.211 4.30755 4.34875 0
M  V30 1185 N 119.348 4.29714 5.55239 0
M  V30 1186 H 124.188 2.63472 1.39235 0
M  V30 1187 H 121.725 1.30602 0.676873 0
M  V30 1188 H 123.683 1.84332 3.74269 0
M  V30 1189 H 122.313 0.900258 3.09992 0
M  V30 1190 H 121.365 3.13062 2.16094 0
M  V30 1191 H 122.677 3.97642 3.01135 0
M  V30 1192 H 121.831 3.11738 5.20485 0
M  V30 1193 H 120.57 2.16792 4.36866 0
M  V30 1194 H 119.575 4.28146 3.44922 0
M  V30 1195 H 120.8 5.24117 4.31831 0
M  V30 1196 H 118.746 3.4044 5.60746 0
M  V30 1197 H 118.663 5.13456 5.54886 0
M  V30 1198 H 119.931 4.36683 6.457 0
M  V30 1199 N 124.16 -0.719506 1.40217 0
M  V30 1200 C 125.107 -1.83359 1.40172 0
M  V30 1201 C 126.077 -1.64065 0.259206 0
M  V30 1202 O 127.262 -1.85254 0.456677 0
M  V30 1203 C 124.402 -3.2103 1.26624 0
M  V30 1204 C 123.515 -3.51923 2.50548 0
M  V30 1205 C 122.65 -4.79079 2.29471 0
M  V30 1206 C 121.689 -5.02863 3.48992 0
M  V30 1207 N 120.826 -6.2123 3.27135 0
M  V30 1208 H 125.666 -1.82733 2.35399 0
M  V30 1209 H 123.203 -0.892688 1.16917 0
M  V30 1210 H 125.161 -4.00524 1.16776 0
M  V30 1211 H 123.791 -3.20895 0.350176 0
M  V30 1212 H 122.843 -2.67014 2.70939 0
M  V30 1213 H 124.155 -3.6541 3.39525 0
M  V30 1214 H 123.309 -5.66582 2.16955 0
M  V30 1215 H 122.048 -4.67794 1.37913 0
M  V30 1216 H 121.053 -4.13816 3.6199 0
M  V30 1217 H 122.278 -5.16023 4.41472 0
M  V30 1218 H 120.224 -6.11204 2.38256 0
M  V30 1219 H 120.141 -6.35375 4.09675 0
M  V30 1220 H 121.409 -7.11532 3.18344 0
M  V30 1221 N 125.638 -1.25649 -0.95132 0
M  V30 1222 C 126.568 -1.08808 -2.06599 0
M  V30 1223 C 127.549 0.00382547 -1.701 0
M  V30 1224 O 128.734 -0.166325 -1.93486 0
M  V30 1225 C 125.864 -0.709542 -3.39975 0
M  V30 1226 C 124.818 -1.75206 -3.90496 0
M  V30 1227 C 124.144 -1.22811 -5.20405 0
M  V30 1228 C 125.444 -3.15153 -4.16504 0
M  V30 1229 H 127.138 -2.02048 -2.20946 0
M  V30 1230 H 124.684 -0.972835 -1.06169 0
M  V30 1231 H 126.637 -0.578649 -4.17408 0
M  V30 1232 H 125.361 0.258556 -3.25575 0
M  V30 1233 H 124.02 -1.87145 -3.15234 0
M  V30 1234 H 123.668 -0.250145 -5.02378 0
M  V30 1235 H 123.368 -1.92492 -5.55176 0
M  V30 1236 H 124.892 -1.10968 -6.00432 0
M  V30 1237 H 126.306 -3.06349 -4.84586 0
M  V30 1238 H 124.703 -3.82333 -4.62538 0
M  V30 1239 H 125.773 -3.61966 -3.22658 0
M  V30 1240 N 127.117 1.15442 -1.07289 0
M  V30 1241 C 128.364 1.86213 -0.795668 0
M  V30 1242 C 128.692 1.82291 0.678238 0
M  V30 1243 O 127.947 1.24057 1.51355 0
M  V30 1244 C 128.246 3.3489 -1.24834 0
M  V30 1245 C 127.912 3.59007 -2.72809 0
M  V30 1246 C 126.574 3.65298 -3.13227 0
M  V30 1247 C 128.926 3.68762 -3.68326 0
M  V30 1248 C 126.254 3.78854 -4.4798 0
M  V30 1249 C 128.606 3.83842 -5.0284 0
M  V30 1250 C 127.27 3.88378 -5.4288 0
M  V30 1251 H 126.54 0.681403 -0.291155 0
M  V30 1252 H 129.187 1.36435 -1.34379 0
M  V30 1253 H 127.492 3.8687 -0.619595 0
M  V30 1254 H 129.189 3.88052 -1.01076 0
M  V30 1255 H 125.779 3.5475 -2.40521 0
M  V30 1256 H 129.963 3.63202 -3.38227 0
M  V30 1257 H 125.219 3.80623 -4.78472 0
M  V30 1258 H 129.393 3.90332 -5.76727 0
M  V30 1259 H 127.02 3.98635 -6.47298 0
M  V30 1260 N 128.595 0.856903 1.32268 0
M  V30 1261 C 129.545 0.274899 2.26337 0
M  V30 1262 C 130.529 -0.580543 1.50062 0
M  V30 1263 O 131.721 -0.429559 1.71708 0
M  V30 1264 C 128.85 -0.533841 3.39124 0
M  V30 1265 C 127.936 0.334114 4.22782 0
M  V30 1266 N 128.327 1.42143 4.85416 0
M  V30 1267 C 126.625 0.124256 4.45827 0
M  V30 1268 C 127.326 1.95559 5.47843 0
M  V30 1269 N 126.302 1.25444 5.28928 0
M  V30 1270 H 130.104 1.10612 2.72291 0
M  V30 1271 H 127.618 0.703258 1.46383 0
M  V30 1272 H 129.615 -0.96722 4.05525 0
M  V30 1273 H 128.275 -1.36283 2.94715 0
M  V30 1274 H 129.286 1.80436 4.85451 0
M  V30 1275 H 125.963 -0.669837 4.12092 0
M  V30 1276 H 127.353 2.86714 6.07655 0
M  V30 1277 N 130.073 -1.45103 0.615059 0
M  V30 1278 C 131.35 -1.95549 0.0448276 0
M  V30 1279 C 131.73 -1.55737 -1.4251 0
M  V30 1280 O 131.078 -0.823556 -2.13143 0
M  V30 1281 C 131.288 -3.48098 0.250785 0
M  V30 1282 C 132.636 -4.24384 0.135509 0
M  V30 1283 O 133.66 -3.55738 0.181299 0
M  V30 1284 O 132.519 -5.46493 0.0268878 0
M  V30 1285 H 129.613 -0.8264 -0.0314845 0
M  V30 1286 H 132.159 -1.55232 0.685642 0
M  V30 1287 H 130.931 -3.7007 1.27139 0
M  V30 1288 H 130.554 -3.95323 -0.424937 0
M  V30 1289 N 131.551 -0.354651 -1.53558 0
M  V30 1290 C 132.484 0.540273 -2.21712 0
M  V30 1291 C 133.462 1.09161 -1.2051 0
M  V30 1292 O 134.646 1.14979 -1.49372 0
M  V30 1293 C 131.773 1.74435 -2.90328 0
M  V30 1294 C 130.819 1.32146 -4.05512 0
M  V30 1295 S 131.652 0.331924 -5.3447 0
M  V30 1296 C 132.808 1.54258 -6.06593 0
M  V30 1297 H 133.041 -0.0385776 -2.97275 0
M  V30 1298 H 130.574 -0.138736 -1.53775 0
M  V30 1299 H 132.532 2.43507 -3.30476 0
M  V30 1300 H 131.193 2.29444 -2.1451 0
M  V30 1301 H 130.386 2.21952 -4.52497 0
M  V30 1302 H 129.988 0.710091 -3.67197 0
M  V30 1303 H 132.28 2.47534 -6.30661 0
M  V30 1304 H 133.223 1.11431 -6.99277 0
M  V30 1305 H 133.631 1.74367 -5.36895 0
M  V30 1306 N 133.029 1.57378 -0.0835403 0
M  V30 1307 C 133.977 2.14602 0.89714 0
M  V30 1308 C 134.971 1.08589 1.30018 0
M  V30 1309 O 136.177 1.26952 1.27606 0
M  V30 1310 H 132.552 0.686346 0.3073 0
M  V30 1311 H 134.523 2.95845 0.38969 0
M  V30 1312 C 133.272 2.73188 2.15089 0
M  V30 1313 H 132.595 3.54442 1.84962 0
M  V30 1314 H 134.035 3.1681 2.81793 0
M  V30 1315 C 132.494 1.68517 2.91725 0
M  V30 1316 O 133.024 1.11718 3.85852 0
M  V30 1317 N 131.23 1.39277 2.55049 0
M  V30 1318 H 130.777 1.85655 1.78577 0
M  V30 1319 H 130.735 0.694791 3.06627 0
M  V30 1320 N 134.507 -0.190092 1.56449 0
M  V30 1321 C 135.753 -0.911052 1.81184 0
M  V30 1322 C 136.086 -1.82699 0.658396 0
M  V30 1323 O 135.361 -1.91491 -0.340775 0
M  V30 1324 C 135.644 -1.72297 3.16205 0
M  V30 1325 C 135.497 -0.831419 4.42049 0
M  V30 1326 C 136.816 -2.69454 3.47969 0
M  V30 1327 H 133.935 -0.32977 0.659106 0
M  V30 1328 H 136.577 -0.178169 1.89163 0
M  V30 1329 H 134.727 -2.34778 3.09534 0
M  V30 1330 H 136.399 -0.220929 4.60771 0
M  V30 1331 H 134.642 -0.138406 4.33579 0
M  V30 1332 H 135.313 -1.43461 5.33032 0
M  V30 1333 H 137.789 -2.17104 3.54972 0
M  V30 1334 H 136.665 -3.23342 4.43555 0
M  V30 1335 H 136.926 -3.48744 2.71717 0
M  V30 1336 N 135.985 -1.50799 -0.457987 0
M  V30 1337 C 136.933 -1.71162 -1.575 0
M  V30 1338 C 137.927 -0.577592 -1.59249 0
M  V30 1339 O 139.133 -0.758443 -1.63241 0
M  V30 1340 H 135.508 -0.540468 -0.522875 0
M  V30 1341 H 137.479 -2.64837 -1.37492 0
M  V30 1342 C 136.228 -1.83496 -2.95338 0
M  V30 1343 H 135.551 -2.70153 -2.94716 0
M  V30 1344 H 136.991 -2.01765 -3.72917 0
M  V30 1345 C 135.45 -0.589694 -3.31699 0
M  V30 1346 O 135.98 0.265163 -4.00824 0
M  V30 1347 N 134.186 -0.439845 -2.87252 0
M  V30 1348 H 133.733 -1.13655 -2.31172 0
M  V30 1349 H 133.691 0.392159 -3.11945 0
M  V30 1350 N 137.463 0.71206 -1.40597 0
M  V30 1351 C 138.693 1.49894 -1.42181 0
M  V30 1352 C 139.101 1.89189 -0.0208078 0
M  V30 1353 O 138.444 1.56223 0.966436 0
M  V30 1354 C 138.506 2.80215 -2.25211 0
M  V30 1355 C 138.17 2.63221 -3.73582 0
M  V30 1356 C 139.167 2.30249 -4.66135 0
M  V30 1357 C 136.852 2.79376 -4.17438 0
M  V30 1358 C 138.846 2.13645 -6.00529 0
M  V30 1359 C 136.533 2.6239 -5.51901 0
M  V30 1360 C 137.531 2.29573 -6.43262 0
M  V30 1361 O 137.219 2.12719 -7.75246 0
M  V30 1362 H 136.951 0.469031 -0.486812 0
M  V30 1363 H 139.505 0.88564 -1.85326 0
M  V30 1364 H 137.735 3.4389 -1.76852 0
M  V30 1365 H 139.424 3.41947 -2.18694 0
M  V30 1366 H 140.19 2.17398 -4.33547 0
M  V30 1367 H 136.069 3.03906 -3.46644 0
M  V30 1368 H 139.613 1.87953 -6.71803 0
M  V30 1369 H 135.51 2.74826 -5.84073 0
M  V30 1370 H 136.278 2.27611 -7.86216 0
M  V30 1371 N 138.941 1.26152 0.944643 0
M  V30 1372 C 139.888 1.07408 2.04285 0
M  V30 1373 C 140.858 -0.0198413 1.66088 0
M  V30 1374 O 142.043 0.139264 1.90291 0
M  V30 1375 C 139.183 0.70945 3.37729 0
M  V30 1376 C 138.296 1.87926 3.88983 0
M  V30 1377 C 137.431 1.45807 5.10797 0
M  V30 1378 C 136.47 2.5964 5.54305 0
M  V30 1379 N 135.607 2.18226 6.67324 0
M  V30 1380 H 140.447 2.01389 2.1965 0
M  V30 1381 H 137.984 1.00275 1.07626 0
M  V30 1382 H 139.942 0.478948 4.14442 0
M  V30 1383 H 138.572 -0.193389 3.2222 0
M  V30 1384 H 137.624 2.22279 3.08701 0
M  V30 1385 H 138.936 2.73377 4.17213 0
M  V30 1386 H 138.09 1.18781 5.94959 0
M  V30 1387 H 136.829 0.574414 4.84305 0
M  V30 1388 H 135.834 2.87399 4.68702 0
M  V30 1389 H 137.059 3.48599 5.828 0
M  V30 1390 H 135.005 1.3229 6.42523 0
M  V30 1391 H 134.922 2.97221 6.95123 0
M  V30 1392 H 136.19 1.94403 7.54869 0
M  V30 1393 N 140.419 -1.14872 1.07899 0
M  V30 1394 C 141.665 -1.86064 0.806725 0
M  V30 1395 C 141.998 -1.82434 -0.665706 0
M  V30 1396 O 141.273 -1.25138 -1.48899 0
M  V30 1397 C 141.556 -3.34929 1.32267 0
M  V30 1398 C 141.409 -3.47161 2.86006 0
M  V30 1399 C 142.728 -4.29863 0.943717 0
M  V30 1400 H 139.847 -0.675591 0.294526 0
M  V30 1401 H 142.489 -1.34925 1.33773 0
M  V30 1402 H 140.639 -3.78611 0.870974 0
M  V30 1403 H 142.311 -3.12302 3.39507 0
M  V30 1404 H 140.554 -2.88539 3.23925 0
M  V30 1405 H 141.225 -4.51777 3.17177 0
M  V30 1406 H 143.701 -3.9417 1.33302 0
M  V30 1407 H 142.577 -5.32494 1.33198 0
M  V30 1408 H 142.838 -4.41846 -0.149796 0
M  V30 1409 N 141.898 -0.863906 -1.31812 0
M  V30 1410 C 143.144 -0.472535 -1.97218 0
M  V30 1411 C 143.477 0.971394 -1.68159 0
M  V30 1412 O 142.752 1.68309 -0.974798 0
M  V30 1413 C 143.035 -0.723054 -3.52766 0
M  V30 1414 C 142.888 -2.21608 -3.91421 0
M  V30 1415 C 144.207 -0.185522 -4.39709 0
M  V30 1416 H 141.326 -0.173158 -0.71637 0
M  V30 1417 H 143.968 -1.08403 -1.56041 0
M  V30 1418 H 142.118 -0.202577 -3.87971 0
M  V30 1419 H 143.79 -2.80334 -3.66347 0
M  V30 1420 H 142.033 -2.691 -3.40246 0
M  V30 1421 H 142.704 -2.34203 -4.99853 0
M  V30 1422 H 145.18 -0.630726 -4.11292 0
M  V30 1423 H 144.056 -0.390306 -5.47511 0
M  V30 1424 H 144.317 0.912229 -4.32586 0
M  V30 1425 N 143.376 1.44774 -0.622745 0
M  V30 1426 C 144.286 2.34433 0.0886031 0
M  V30 1427 C 145.302 1.52131 0.844529 0
M  V30 1428 O 146.478 1.84886 0.798691 0
M  V30 1429 C 143.543 3.29986 1.0635 0
M  V30 1430 C 142.604 4.28195 0.307873 0
M  V30 1431 C 141.837 5.19183 1.23633 0
M  V30 1432 O 142.06 5.13918 2.47476 0
M  V30 1433 O 140.994 5.97515 0.725189 0
M  V30 1434 H 144.82 2.96693 -0.648599 0
M  V30 1435 H 142.405 1.44408 -0.382957 0
M  V30 1436 H 144.287 3.88825 1.6246 0
M  V30 1437 H 142.962 2.70269 1.78146 0
M  V30 1438 H 141.869 3.72927 -0.296064 0
M  V30 1439 H 143.202 4.90808 -0.3699 0
M  V30 1440 N 144.854 0.36279 1.53368 0
M  V30 1441 C 145.784 -0.476976 2.28576 0
M  V30 1442 C 146.765 -1.08631 1.30894 0
M  V30 1443 O 147.95 -1.10409 1.59761 0
M  V30 1444 C 145.08 -1.61828 3.07293 0
M  V30 1445 C 144.034 -1.13633 4.1264 0
M  V30 1446 C 143.36 -2.36766 4.79423 0
M  V30 1447 C 144.66 -0.223061 5.21823 0
M  V30 1448 H 146.354 0.150474 2.99022 0
M  V30 1449 H 143.9 0.0738103 1.43811 0
M  V30 1450 H 145.853 -2.21237 3.58653 0
M  V30 1451 H 144.577 -2.27292 2.34533 0
M  V30 1452 H 143.236 -0.564945 3.62221 0
M  V30 1453 H 142.884 -3.0068 4.03238 0
M  V30 1454 H 142.584 -2.05192 5.50609 0
M  V30 1455 H 144.108 -2.96865 5.33576 0
M  V30 1456 H 145.522 -0.724545 5.68703 0
M  V30 1457 H 143.919 0.001678 6.001 0
M  V30 1458 H 144.989 0.735553 4.79289 0
M  V30 1459 N 146.332 -1.57332 0.0918853 0
M  V30 1460 C 147.609 -1.85691 -0.614668 0
M  V30 1461 C 147.989 -0.988146 -1.86545 0
M  V30 1462 O 147.337 -0.0597055 -2.28422 0
M  V30 1463 C 147.547 -3.36294 -0.933126 0
M  V30 1464 C 148.895 -4.04275 -1.29796 0
M  V30 1465 O 149.919 -3.41157 -1.02424 0
M  V30 1466 O 148.778 -5.1564 -1.81047 0
M  V30 1467 H 145.872 -0.767802 -0.307261 0
M  V30 1468 H 148.418 -1.69244 0.12434 0
M  V30 1469 H 147.19 -3.91273 -0.0456404 0
M  V30 1470 H 146.813 -3.58076 -1.72822 0
M  V30 1471 N 147.81 0.181792 -1.56548 0
M  V30 1472 C 148.74 1.22765 -1.98623 0
M  V30 1473 C 149.721 1.46747 -0.860189 0
M  V30 1474 O 150.906 1.58259 -1.12551 0
M  V30 1475 C 148.036 2.56894 -2.33715 0
M  V30 1476 C 146.99 2.475 -3.49182 0
M  V30 1477 C 146.316 3.86023 -3.69986 0
M  V30 1478 C 147.616 1.98866 -4.82959 0
M  V30 1479 H 149.31 0.877942 -2.86239 0
M  V30 1480 H 146.856 0.42088 -1.37712 0
M  V30 1481 H 148.809 3.30253 -2.61746 0
M  V30 1482 H 147.533 2.93632 -1.42997 0
M  V30 1483 H 146.192 1.76596 -3.21262 0
M  V30 1484 H 145.84 4.20136 -2.76576 0
M  V30 1485 H 145.54 3.80609 -4.47672 0
M  V30 1486 H 147.064 4.60984 -4.00407 0
M  V30 1487 H 148.478 2.61992 -5.09934 0
M  V30 1488 H 146.875 2.04424 -5.64208 0
M  V30 1489 H 147.945 0.942465 -4.75653 0
M  V30 1490 N 149.288 1.51039 0.449983 0
M  V30 1491 C 150.218 1.74379 1.55288 0
M  V30 1492 C 151.199 0.593236 1.5942 0
M  V30 1493 O 152.384 0.834625 1.7535 0
M  V30 1494 C 149.514 1.85728 2.93466 0
M  V30 1495 C 148.468 3.01078 3.04197 0
M  V30 1496 C 147.794 2.97595 4.44231 0
M  V30 1497 C 149.094 4.41254 2.7945 0
M  V30 1498 H 150.788 2.66725 1.36008 0
M  V30 1499 H 148.334 1.2835 0.652864 0
M  V30 1500 H 150.287 2.0064 3.70569 0
M  V30 1501 H 149.011 0.900207 3.13949 0
M  V30 1502 H 147.67 2.85851 2.29531 0
M  V30 1503 H 147.318 1.99691 4.61663 0
M  V30 1504 H 147.018 3.75046 4.52343 0
M  V30 1505 H 148.542 3.14583 5.23326 0
M  V30 1506 H 149.956 4.56897 3.46292 0
M  V30 1507 H 148.353 5.20315 2.98985 0
M  V30 1508 H 149.423 4.52164 1.75144 0
M  V30 1509 N 150.766 -0.704594 1.40972 0
M  V30 1510 C 151.676 -1.84856 1.44448 0
M  V30 1511 C 152.692 -1.70726 0.335961 0
M  V30 1512 O 153.868 -1.92799 0.582276 0
M  V30 1513 C 150.933 -3.20758 1.31587 0
M  V30 1514 C 149.994 -3.47063 2.52677 0
M  V30 1515 C 149.227 -4.76481 2.4042 0
M  V30 1516 O 149.45 -5.52341 1.42391 0
M  V30 1517 O 148.384 -5.03367 3.30007 0
M  V30 1518 H 152.21 -1.8488 2.40942 0
M  V30 1519 H 149.795 -0.85647 1.22413 0
M  V30 1520 H 151.677 -4.01913 1.26665 0
M  V30 1521 H 150.352 -3.21438 0.382049 0
M  V30 1522 H 149.259 -2.65873 2.63177 0
M  V30 1523 H 150.592 -3.5119 3.44858 0
M  V30 1524 N 152.244 -1.26651 -0.937939 0
M  V30 1525 C 153.474 -1.15006 -1.71631 0
M  V30 1526 C 153.882 0.297026 -1.86854 0
M  V30 1527 O 153.225 1.21493 -1.37786 0
M  V30 1528 C 153.287 -1.74984 -3.14039 0
M  V30 1529 C 152.951 -3.24103 -3.2219 0
M  V30 1530 C 153.948 -4.20877 -3.05219 0
M  V30 1531 C 151.633 -3.64625 -3.45476 0
M  V30 1532 C 153.627 -5.56151 -3.11408 0
M  V30 1533 C 151.314 -5.00032 -3.513 0
M  V30 1534 C 152.312 -5.95604 -3.34282 0
M  V30 1535 O 152 -7.28545 -3.3982 0
M  V30 1536 H 151.732 -0.401183 -0.544085 0
M  V30 1537 H 154.286 -1.67832 -1.18413 0
M  V30 1538 H 152.516 -1.16624 -3.68695 0
M  V30 1539 H 154.205 -1.58199 -3.73802 0
M  V30 1540 H 154.971 -3.90908 -2.87081 0
M  V30 1541 H 150.85 -2.90718 -3.57777 0
M  V30 1542 H 154.394 -6.30727 -2.98043 0
M  V30 1543 H 150.291 -5.29659 -3.68959 0
M  V30 1544 H 151.059 -7.3686 -3.56343 0
M  V30 1545 N 153.722 1.14298 -1.08507 0
M  V30 1546 C 154.97 1.84993 -0.813763 0
M  V30 1547 C 155.291 1.83405 0.662393 0
M  V30 1548 O 154.561 1.28319 1.48024 0
M  V30 1549 H 153.141 0.684966 -0.298045 0
M  V30 1550 H 155.803 1.385 -1.37126 0
M  V30 1551 H 154.899 2.89788 -1.15884 0
M  V30 1552 N 155.201 0.870884 1.31352 0
M  V30 1553 C 156.149 0.316445 2.30437 0
M  V30 1554 C 157.143 -0.568965 1.59559 0
M  V30 1555 O 158.349 -0.454964 1.74155 0
M  V30 1556 H 154.724 0.0836521 0.747333 0
M  V30 1557 H 156.695 1.16606 2.74673 0
M  V30 1558 C 155.444 -0.46635 3.44558 0
M  V30 1559 H 154.767 0.205687 3.99271 0
M  V30 1560 H 156.207 -0.819614 4.16003 0
M  V30 1561 C 154.666 -1.65797 2.9328 0
M  V30 1562 O 155.196 -2.75728 2.92125 0
M  V30 1563 N 153.402 -1.49041 2.4947 0
M  V30 1564 H 152.949 -0.59612 2.50608 0
M  V30 1565 H 152.907 -2.28911 2.15516 0
M  V30 1566 N 156.679 -1.44442 0.630414 0
M  V30 1567 C 157.611 -2.2892 -0.113347 0
M  V30 1568 C 158.624 -1.41243 -0.80959 0
M  V30 1569 O 159.813 -1.65402 -0.671156 0
M  V30 1570 C 156.913 -3.17594 -1.18266 0
M  V30 1571 C 156.086 -4.33682 -0.569073 0
M  V30 1572 C 155.145 -5.03397 -1.53226 0
M  V30 1573 O 154.171 -5.59438 -1.04967 0
M  V30 1574 N 155.373 -5.04783 -2.86661 0
M  V30 1575 H 158.138 -2.93392 0.611636 0
M  V30 1576 H 155.699 -1.54881 0.471523 0
M  V30 1577 H 157.691 -3.61097 -1.82732 0
M  V30 1578 H 156.261 -2.54876 -1.80988 0
M  V30 1579 H 155.481 -3.9338 0.254187 0
M  V30 1580 H 156.769 -5.08608 -0.139767 0
M  V30 1581 H 156.167 -4.60584 -3.28449 0
M  V30 1582 H 154.724 -5.52077 -3.46489 0
M  V30 1583 N 158.157 -0.370918 -1.53173 0
M  V30 1584 C 159.404 0.217102 -2.01333 0
M  V30 1585 C 159.732 1.48338 -1.25802 0
M  V30 1586 O 158.987 1.92698 -0.34146 0
M  V30 1587 C 159.286 0.549696 -3.53147 0
M  V30 1588 C 158.952 -0.622872 -4.46577 0
M  V30 1589 C 157.614 -0.944595 -4.71838 0
M  V30 1590 C 159.966 -1.40819 -5.01816 0
M  V30 1591 C 157.294 -2.05351 -5.49589 0
M  V30 1592 C 159.646 -2.50757 -5.80778 0
M  V30 1593 C 158.31 -2.83458 -6.04324 0
M  V30 1594 H 157.58 0.0794431 -0.736729 0
M  V30 1595 H 160.227 -0.504481 -1.84736 0
M  V30 1596 H 158.532 1.35237 -3.6772 0
M  V30 1597 H 160.229 1.017 -3.87889 0
M  V30 1598 H 156.819 -0.36209 -4.27068 0
M  V30 1599 H 161.003 -1.17289 -4.82242 0
M  V30 1600 H 156.259 -2.3108 -5.6605 0
M  V30 1601 H 160.433 -3.12022 -6.22588 0
M  V30 1602 H 158.06 -3.69508 -6.64355 0
M  V30 1603 N 159.635 1.57281 -0.100228 0
M  V30 1604 C 160.567 2.11342 0.886972 0
M  V30 1605 C 161.58 1.05182 1.24261 0
M  V30 1606 O 162.769 1.32613 1.19483 0
M  V30 1607 C 159.869 2.5825 2.19454 0
M  V30 1608 C 159.042 3.88302 2.01346 0
M  V30 1609 C 158.101 4.21004 3.15661 0
M  V30 1610 O 157.127 4.9014 2.89398 0
M  V30 1611 N 158.329 3.76818 4.41575 0
M  V30 1612 H 161.094 2.96668 0.425216 0
M  V30 1613 H 158.655 1.61678 0.0847334 0
M  V30 1614 H 160.647 2.7717 2.94888 0
M  V30 1615 H 159.217 1.77907 2.57037 0
M  V30 1616 H 158.437 3.7848 1.10212 0
M  V30 1617 H 159.725 4.73375 1.8653 0
M  V30 1618 H 159.123 3.2102 4.65792 0
M  V30 1619 H 157.68 4.00882 5.13942 0
M  V30 1620 N 161.113 -0.173488 1.56642 0
M  V30 1621 C 162.39 -0.917617 1.7274 0
M  V30 1622 C 162.77 -2.00484 0.661027 0
M  V30 1623 O 162.118 -2.26184 -0.32453 0
M  V30 1624 C 162.328 -1.48433 3.15862 0
M  V30 1625 C 163.676 -1.95809 3.76754 0
M  V30 1626 O 164.7 -1.58231 3.19126 0
M  V30 1627 O 163.559 -2.65024 4.77938 0
M  V30 1628 H 160.653 -0.431772 0.705338 0
M  V30 1629 H 163.199 -0.161487 1.6893 0
M  V30 1630 H 161.971 -0.701715 3.84957 0
M  V30 1631 H 161.594 -2.30471 3.23989 0
M  V30 1632 N 162.591 -1.51276 -0.441967 0
M  V30 1633 C 163.554 -1.7167 -1.51862 0
M  V30 1634 C 164.554 -0.586793 -1.49711 0
M  V30 1635 O 165.744 -0.854276 -1.51815 0
M  V30 1636 C 162.876 -1.76889 -2.91416 0
M  V30 1637 H 164.069 -2.67754 -1.35084 0
M  V30 1638 H 161.622 -1.41196 -0.670333 0
M  V30 1639 H 162.357 -0.826026 -3.13604 0
M  V30 1640 H 162.142 -2.59001 -2.94382 0
M  V30 1641 H 163.632 -1.94522 -3.69528 0
M  V30 1642 N 164.069 0.697108 -1.41344 0
M  V30 1643 C 164.999 1.82353 -1.45841 0
M  V30 1644 C 165.98 1.67115 -0.317247 0
M  V30 1645 O 167.165 1.86871 -0.528474 0
M  V30 1646 C 164.295 3.20476 -1.33838 0
M  V30 1647 C 163.249 3.50415 -2.4575 0
M  V30 1648 C 162.575 4.87878 -2.18813 0
M  V30 1649 C 163.875 3.49546 -3.88091 0
M  V30 1650 H 165.569 1.78846 -2.40113 0
M  V30 1651 H 163.115 0.859028 -1.15571 0
M  V30 1652 H 165.068 3.98988 -1.35596 0
M  V30 1653 H 163.792 3.24604 -0.360498 0
M  V30 1654 H 162.451 2.74253 -2.43271 0
M  V30 1655 H 162.099 4.8863 -1.19371 0
M  V30 1656 H 161.799 5.08875 -2.93803 0
M  V30 1657 H 163.323 5.68702 -2.22284 0
M  V30 1658 H 164.737 4.18066 -3.92293 0
M  V30 1659 H 163.134 3.82075 -4.62751 0
M  V30 1660 H 164.204 2.48552 -4.16353 0
M  V30 1661 N 165.547 1.27147 0.931209 0
M  V30 1662 C 166.777 1.15914 1.71019 0
M  V30 1663 C 167.185 -0.287112 1.87009 0
M  V30 1664 O 166.528 -1.20761 1.38429 0
M  V30 1665 C 166.59 1.76647 3.13107 0
M  V30 1666 C 166.254 3.25807 3.20467 0
M  V30 1667 C 167.251 4.22489 3.02983 0
M  V30 1668 C 164.936 3.66452 3.43538 0
M  V30 1669 C 166.93 5.57794 3.08454 0
M  V30 1670 C 164.617 5.01888 3.48643 0
M  V30 1671 C 165.615 5.97369 3.31119 0
M  V30 1672 O 165.303 7.30337 3.35952 0
M  V30 1673 H 165.035 0.404062 0.54195 0
M  V30 1674 H 167.589 1.68457 1.17521 0
M  V30 1675 H 165.819 1.18578 3.68071 0
M  V30 1676 H 167.508 1.60179 3.72958 0
M  V30 1677 H 168.274 3.92425 2.85004 0
M  V30 1678 H 164.153 2.92611 3.5623 0
M  V30 1679 H 167.697 6.32298 2.94694 0
M  V30 1680 H 163.594 5.31609 3.66145 0
M  V30 1681 H 164.362 7.38739 3.5243 0
M  V30 1682 N 167.025 -1.13721 1.09112 0
M  V30 1683 C 167.972 -2.19031 0.727591 0
M  V30 1684 C 168.942 -1.63555 -0.289656 0
M  V30 1685 O 170.127 -1.90023 -0.172026 0
M  V30 1686 C 167.267 -3.4477 0.15082 0
M  V30 1687 C 166.38 -4.14365 1.22172 0
M  V30 1688 C 165.515 -5.27709 0.608042 0
M  V30 1689 C 164.554 -5.89147 1.66047 0
M  V30 1690 N 163.691 -6.93929 1.06806 0
M  V30 1691 H 168.531 -2.49475 1.62991 0
M  V30 1692 H 166.068 -1.22499 0.81439 0
M  V30 1693 H 168.026 -4.16714 -0.201358 0
M  V30 1694 H 166.656 -3.14787 -0.714783 0
M  V30 1695 H 165.708 -3.40737 1.69122 0
M  V30 1696 H 167.02 -4.56114 2.01895 0
M  V30 1697 H 166.174 -6.06355 0.204523 0
M  V30 1698 H 164.913 -4.872 -0.220769 0
M  V30 1699 H 163.918 -5.09198 2.07357 0
M  V30 1700 H 165.143 -6.31729 2.49189 0
M  V30 1701 H 163.089 -6.55483 0.260476 0
M  V30 1702 H 163.006 -7.34202 1.8023 0
M  V30 1703 H 164.274 -7.76434 0.690644 0
M  V30 1704 N 168.503 -0.877838 -1.30888 0
M  V30 1705 C 169.436 -0.283995 -2.26426 0
M  V30 1706 C 170.414 0.591361 -1.51465 0
M  V30 1707 O 171.598 0.54304 -1.80509 0
M  V30 1708 C 168.725 0.597129 -3.33395 0
M  V30 1709 C 167.771 -0.207937 -4.25993 0
M  V30 1710 S 168.604 -1.59158 -5.11301 0
M  V30 1711 C 169.76 -0.716791 -6.21782 0
M  V30 1712 H 169.993 -1.09383 -2.76446 0
M  V30 1713 H 167.526 -0.676828 -1.38775 0
M  V30 1714 H 169.484 1.09978 -3.95493 0
M  V30 1715 H 168.145 1.38099 -2.82113 0
M  V30 1716 H 167.338 0.464163 -5.01858 0
M  V30 1717 H 166.94 -0.642963 -3.68432 0
M  V30 1718 H 169.232 0.0692833 -6.77465 0
M  V30 1719 H 170.175 -1.44682 -6.93161 0
M  V30 1720 H 170.583 -0.280855 -5.63801 0
M  V30 1721 N 169.982 1.44106 -0.638065 0
M  V30 1722 C 171.21 2.06336 -0.152615 0
M  V30 1723 C 171.625 1.47731 1.17563 0
M  V30 1724 O 170.982 0.602806 1.72257 0
M  V30 1725 C 171.033 3.61479 -0.0391491 0
M  V30 1726 O 170.754 4.17903 -1.31487 0
M  V30 1727 C 172.255 4.40757 0.474176 0
M  V30 1728 H 169.475 0.665862 -0.0828776 0
M  V30 1729 H 172.019 1.84862 -0.87443 0
M  V30 1730 H 170.174 3.82191 0.633142 0
M  V30 1731 H 170.588 5.11416 -1.16421 0
M  V30 1732 H 172.062 5.49707 0.502562 0
M  V30 1733 H 172.539 4.12697 1.50258 0
M  V30 1734 H 173.145 4.24979 -0.165102 0
M  V30 1735 N 171.46 0.379036 1.52974 0
M  V30 1736 C 172.708 -0.206014 2.01047 0
M  V30 1737 C 173.029 -1.48175 1.26765 0
M  V30 1738 O 172.299 -1.92085 0.384743 0
M  V30 1739 H 170.879 -0.0791184 0.742798 0
M  V30 1740 H 173.541 0.508366 1.88153 0
M  V30 1741 H 172.637 -0.423501 3.09213 0
M  V30 1742 N 172.938 -1.57226 0.108567 0
M  V30 1743 C 173.848 -2.18292 -0.859401 0
M  V30 1744 C 174.864 -1.15612 -1.30038 0
M  V30 1745 O 176.04 -1.48039 -1.36552 0
M  V30 1746 C 173.105 -2.762 -2.09558 0
M  V30 1747 C 172.166 -3.93881 -1.70752 0
M  V30 1748 C 171.399 -4.49018 -2.88477 0
M  V30 1749 O 171.622 -4.03068 -4.036 0
M  V30 1750 O 170.556 -5.39852 -2.66164 0
M  V30 1751 H 174.382 -3.01441 -0.369769 0
M  V30 1752 H 171.967 -1.48945 -0.1165 0
M  V30 1753 H 173.849 -3.13156 -2.81978 0
M  V30 1754 H 172.524 -1.96089 -2.57548 0
M  V30 1755 H 171.431 -3.61713 -0.954714 0
M  V30 1756 H 172.764 -4.75396 -1.27513 0
M  V30 1757 N 174.416 0.165178 -1.56732 0
M  V30 1758 C 175.832 0.517174 -1.50988 0
M  V30 1759 C 176.032 1.84331 -0.813894 0
M  V30 1760 O 175.088 2.49672 -0.37682 0
M  V30 1761 C 176.401 0.544261 -2.95733 0
M  V30 1762 C 177.949 0.631039 -3.06573 0
M  V30 1763 C 178.424 0.68896 -4.52788 0
M  V30 1764 N 179.915 0.751683 -4.5706 0
M  V30 1765 C 180.65 0.817177 -5.67547 0
M  V30 1766 N 180.146 0.843129 -6.8765 0
M  V30 1767 N 181.939 0.856668 -5.55534 0
M  V30 1768 H 174.09 -0.704318 -2.00382 0
M  V30 1769 H 176.353 -0.254687 -0.913148 0
M  V30 1770 H 176.059 -0.361607 -3.49836 0
M  V30 1771 H 175.933 1.3886 -3.5071 0
M  V30 1772 H 178.32 1.52733 -2.52501 0
M  V30 1773 H 178.401 -0.240095 -2.54671 0
M  V30 1774 H 178.045 -0.2031 -5.07494 0
M  V30 1775 H 177.975 1.57633 -5.02454 0
M  V30 1776 H 180.466 0.739661 -3.70591 0
M  V30 1777 H 180.779 0.894448 -7.67606 0
M  V30 1778 H 179.124 0.811304 -6.90248 0
M  V30 1779 H 182.315 0.833437 -4.60621 0
M  V30 1780 H 182.488 0.904247 -6.4166 0
M  V30 1781 N 175.894 1.51508 0.433938 0
M  V30 1782 C 177.122 1.68157 1.20543 0
M  V30 1783 C 177.537 0.380362 1.84929 0
M  V30 1784 O 176.894 -0.641446 1.70856 0
M  V30 1785 C 176.945 2.79965 2.28696 0
M  V30 1786 O 176.666 4.05045 1.66943 0
M  V30 1787 C 178.167 3.07912 3.18912 0
M  V30 1788 H 175.387 0.56421 0.363191 0
M  V30 1789 H 177.931 1.97941 0.513754 0
M  V30 1790 H 176.086 2.5277 2.93574 0
M  V30 1791 H 176.5 4.67165 2.38448 0
M  V30 1792 H 177.974 3.89719 3.90926 0
M  V30 1793 H 178.451 2.20456 3.79863 0
M  V30 1794 H 179.057 3.36779 2.59731 0
M  V30 1795 N 177.372 -0.689602 1.41712 0
M  V30 1796 C 178.618 -1.45181 1.41599 0
M  V30 1797 C 178.951 -1.94181 0.0270081 0
M  V30 1798 O 178.226 -1.6993 -0.946265 0
M  V30 1799 C 178.509 -2.65945 2.42787 0
M  V30 1800 C 178.362 -2.22672 3.90816 0
M  V30 1801 C 179.681 -3.68149 2.41151 0
M  V30 1802 H 176.8 -0.526576 0.515642 0
M  V30 1803 H 179.442 -0.784947 1.73028 0
M  V30 1804 H 177.592 -3.2284 2.16116 0
M  V30 1805 H 179.264 -1.71058 4.28412 0
M  V30 1806 H 177.507 -1.54394 4.05395 0
M  V30 1807 H 178.178 -3.0935 4.57172 0
M  V30 1808 H 180.654 -3.2094 2.64834 0
M  V30 1809 H 179.53 -4.50248 3.13955 0
M  V30 1810 H 179.791 -4.18259 1.43221 0
M  V30 1811 N 178.85 -1.27639 -0.924453 0
M  V30 1812 C 180.261 -1.12834 -1.48746 0
M  V30 1813 C 180.612 0.285505 -1.94112 0
M  V30 1814 O 179.737 1.17874 -1.81479 0
M  V30 1815 C 180.332 -2.04217 -2.70334 0
M  V30 1816 C 178.891 -1.93509 -3.22848 0
M  V30 1817 C 178.038 -1.96583 -1.95577 0
M  V30 1818 H 180.989 -1.40484 -0.738233 0
M  V30 1819 H 181.01 -1.59989 -3.4523 0
M  V30 1820 H 180.522 -3.07111 -2.37285 0
M  V30 1821 H 178.623 -0.936131 -3.60649 0
M  V30 1822 H 178.736 -2.79917 -3.88823 0
M  V30 1823 H 177.1 -1.4085 -2.12211 0
M  V30 1824 H 177.883 -3.01137 -1.64837 0
M  V30 1825 N 180.328 1.1314 -1.09713 0
M  V30 1826 C 181.744 1.36477 -0.827423 0
M  V30 1827 C 181.944 1.93654 0.556817 0
M  V30 1828 O 181 2.15791 1.31112 0
M  V30 1829 C 182.313 2.31334 -1.92106 0
M  V30 1830 C 183.861 2.44943 -1.94864 0
M  V30 1831 C 184.336 3.4311 -3.0338 0
M  V30 1832 N 185.827 3.50662 -3.02639 0
M  V30 1833 C 186.562 4.2651 -3.83246 0
M  V30 1834 N 186.058 5.05485 -4.73768 0
M  V30 1835 N 187.851 4.2184 -3.71493 0
M  V30 1836 H 180.002 0.743807 -1.9895 0
M  V30 1837 H 182.265 0.389823 -0.864143 0
M  V30 1838 H 181.971 1.96483 -2.91698 0
M  V30 1839 H 181.845 3.31381 -1.80184 0
M  V30 1840 H 184.232 2.79079 -0.959099 0
M  V30 1841 H 184.313 1.4481 -2.10864 0
M  V30 1842 H 183.957 3.09704 -4.02549 0
M  V30 1843 H 183.887 4.43055 -2.84622 0
M  V30 1844 H 186.378 2.94315 -2.37039 0
M  V30 1845 H 186.691 5.60675 -5.3185 0
M  V30 1846 H 185.036 5.04708 -4.77802 0
M  V30 1847 H 188.227 3.5922 -3.00131 0
M  V30 1848 H 188.4 4.80697 -4.3455 0
M  V30 1849 N 181.806 0.884767 1.30421 0
M  V30 1850 C 183.055 0.499164 1.95426 0
M  V30 1851 C 183.368 -0.95645 1.70621 0
M  V30 1852 O 184.574 -1.44889 2.29607 0
M  V30 1853 C 183.03 0.84177 3.49917 0
M  V30 1854 C 182.638 2.31514 3.83543 0
M  V30 1855 C 184.382 0.525355 4.21237 0
M  V30 1856 C 182.289 2.59939 5.31212 0
M  V30 1857 H 181.219 0.182944 0.73147 0
M  V30 1858 H 183.87 1.07971 1.48373 0
M  V30 1859 H 182.252 0.190311 3.95542 0
M  V30 1860 H 183.426 3.0109 3.48829 0
M  V30 1861 H 181.741 2.59907 3.25326 0
M  V30 1862 H 184.338 0.714762 5.29901 0
M  V30 1863 H 184.681 -0.535222 4.12845 0
M  V30 1864 H 185.214 1.134 3.81294 0
M  V30 1865 H 181.953 3.64736 5.44654 0
M  V30 1866 H 181.473 1.94972 5.67227 0
M  V30 1867 H 183.152 2.45429 5.98643 0
M  V30 1868 N 183.284 -1.43765 0.645699 0
M  V30 1869 C 184.531 -2.01898 0.15604 0
M  V30 1870 C 184.859 -1.50887 -1.22733 0
M  V30 1871 O 184.114 -0.689271 -1.8316 0
M  V30 1872 C 184.413 -3.57238 0.107679 0
M  V30 1873 C 184.079 -4.27564 1.43178 0
M  V30 1874 C 182.741 -4.46492 1.7944 0
M  V30 1875 C 185.093 -4.67454 2.30513 0
M  V30 1876 C 182.421 -5.02573 3.02716 0
M  V30 1877 C 184.773 -5.24901 3.53074 0
M  V30 1878 C 183.437 -5.42046 3.89541 0
M  V30 1879 H 182.707 -0.738797 0.057099 0
M  V30 1880 H 185.354 -1.72341 0.834912 0
M  V30 1881 H 183.659 -3.86293 -0.654618 0
M  V30 1882 H 185.356 -3.99965 -0.287938 0
M  V30 1883 H 181.946 -4.13171 1.13963 0
M  V30 1884 H 186.13 -4.5253 2.0379 0
M  V30 1885 H 181.386 -5.14033 3.31028 0
M  V30 1886 H 185.56 -5.54758 4.20971 0
M  V30 1887 H 183.187 -5.85268 4.85145 0
M  V30 1888 N 184.763 -0.387143 -1.52771 0
M  V30 1889 C 186.009 0.196025 -2.0185 0
M  V30 1890 C 186.342 1.46641 -1.27319 0
M  V30 1891 O 185.617 1.90889 -0.373032 0
M  V30 1892 C 185.9 0.466136 -3.5707 0
M  V30 1893 C 185.753 -0.819385 -4.42274 0
M  V30 1894 C 187.072 1.25768 -4.21747 0
M  V30 1895 H 184.191 0.0697708 -0.73369 0
M  V30 1896 H 186.833 -0.516286 -1.82851 0
M  V30 1897 H 184.983 1.07293 -3.7339 0
M  V30 1898 H 186.655 -1.4563 -4.37709 0
M  V30 1899 H 184.898 -1.43517 -4.09372 0
M  V30 1900 H 185.569 -0.585065 -5.48891 0
M  V30 1901 H 188.045 0.744167 -4.09391 0
M  V30 1902 H 186.921 1.41541 -5.30337 0
M  V30 1903 H 187.182 2.27228 -3.79236 0
M  V30 1904 N 186.241 1.57166 -0.116904 0
M  V30 1905 C 187.189 2.16457 0.851418 0
M  V30 1906 C 188.183 1.11323 1.27686 0
M  V30 1907 O 189.389 1.2963 1.24884 0
M  V30 1908 H 185.764 0.69271 0.292672 0
M  V30 1909 H 187.735 2.96605 0.32685 0
M  V30 1910 C 186.484 2.77689 2.09246 0
M  V30 1911 H 185.807 3.58285 1.77402 0
M  V30 1912 H 187.247 3.22716 2.7501 0
M  V30 1913 C 185.706 1.74667 2.88085 0
M  V30 1914 O 186.236 1.19877 3.83396 0
M  V30 1915 N 184.442 1.44656 2.52038 0
M  V30 1916 H 183.989 1.89402 1.74599 0
M  V30 1917 H 183.947 0.759675 3.05084 0
M  V30 1918 N 187.719 -0.156864 1.56817 0
M  V30 1919 C 188.967 -0.869404 1.82444 0
M  V30 1920 C 189.288 -1.82147 0.69623 0
M  V30 1921 O 188.558 -1.93847 -0.28287 0
M  V30 1922 H 187.138 -0.324043 0.673056 0
M  V30 1923 H 189.8 -0.153224 1.94297 0
M  V30 1924 H 188.896 -1.43761 2.77019 0
M  V30 1925 N 189.197 -1.51736 -0.425897 0
M  V30 1926 C 190.425 -1.68794 -1.1965 0
M  V30 1927 C 190.84 -0.390164 -1.84725 0
M  V30 1928 O 190.197 0.632376 -1.71194 0
M  V30 1929 C 190.248 -2.81174 -2.27208 0
M  V30 1930 O 189.969 -4.05925 -1.64793 0
M  V30 1931 C 191.47 -3.09599 -3.17275 0
M  V30 1932 H 188.69 -0.566128 -0.360194 0
M  V30 1933 H 191.234 -1.98211 -0.503249 0
M  V30 1934 H 189.389 -2.54324 -2.9223 0
M  V30 1935 H 189.803 -4.68423 -2.35967 0
M  V30 1936 H 191.277 -3.91786 -3.88854 0
M  V30 1937 H 191.754 -2.22468 -3.78688 0
M  V30 1938 H 192.36 -3.38151 -2.57941 0
M  V30 1939 N 190.675 0.682077 -1.42076 0
M  V30 1940 C 191.922 1.44215 -1.42156 0
M  V30 1941 C 192.25 1.94468 -0.0354186 0
M  V30 1942 O 191.505 1.70816 0.955002 0
M  V30 1943 C 191.804 2.66036 -2.38662 0
M  V30 1944 C 191.47 2.34366 -3.85206 0
M  V30 1945 C 190.132 2.25439 -4.25124 0
M  V30 1946 C 192.484 2.08513 -4.77673 0
M  V30 1947 C 189.812 1.88775 -5.55501 0
M  V30 1948 C 192.164 1.73354 -6.08384 0
M  V30 1949 C 190.828 1.62933 -6.47309 0
M  V30 1950 H 190.098 0.527718 -0.520187 0
M  V30 1951 H 192.745 0.778387 -1.74967 0
M  V30 1952 H 191.05 3.3741 -1.99152 0
M  V30 1953 H 192.747 3.24205 -2.35991 0
M  V30 1954 H 189.337 2.42213 -3.53597 0
M  V30 1955 H 193.521 2.14346 -4.47626 0
M  V30 1956 H 188.777 1.7927 -5.84527 0
M  V30 1957 H 192.951 1.52373 -6.79526 0
M  V30 1958 H 190.578 1.34292 -7.48244 0
M  V30 1959 N 192.153 1.28127 0.917671 0
M  V30 1960 C 193.402 1.14432 1.66097 0
M  V30 1961 C 193.715 -0.307247 1.93172 0
M  V30 1962 O 194.921 -0.565259 2.65551 0
M  V30 1963 C 193.377 2.00015 2.99202 0
M  V30 1964 C 192.985 3.49889 2.79789 0
M  V30 1965 C 194.729 1.94996 3.77064 0
M  V30 1966 C 192.636 4.27636 4.08511 0
M  V30 1967 H 191.566 0.424662 0.62304 0
M  V30 1968 H 194.217 1.52628 1.01868 0
M  V30 1969 H 192.599 1.54672 3.64544 0
M  V30 1970 H 193.773 4.03162 2.23152 0
M  V30 1971 H 192.088 3.56392 2.15345 0
M  V30 1972 H 194.685 2.50354 4.72469 0
M  V30 1973 H 195.028 0.925819 4.05875 0
M  V30 1974 H 195.561 2.38287 3.18534 0
M  V30 1975 H 192.3 5.30615 3.84874 0
M  V30 1976 H 191.82 3.79137 4.64774 0
M  V30 1977 H 193.499 4.37346 4.76799 0
M  V30 1978 N 193.631 -1.12557 1.10312 0
M  V30 1979 C 194.879 -1.83675 0.843091 0
M  V30 1980 C 195.2 -1.84435 -0.633131 0
M  V30 1981 O 194.47 -1.30657 -1.45964 0
M  V30 1982 H 193.05 -0.680138 0.308904 0
M  V30 1983 H 195.712 -1.36301 1.39313 0
M  V30 1984 H 194.808 -2.87908 1.2048 0
M  V30 1985 N 195.109 -0.891671 -1.2995 0
M  V30 1986 C 196.357 -0.512486 -1.95494 0
M  V30 1987 C 196.678 0.942776 -1.70695 0
M  V30 1988 O 195.948 1.66374 -1.03424 0
M  V30 1989 H 194.528 -0.186533 -0.723336 0
M  V30 1990 H 197.19 -1.13621 -1.58355 0
M  V30 1991 H 196.286 -0.688342 -3.04415 0
M  V30 1992 N 196.587 1.43421 -0.653314 0
M  V30 1993 C 197.55 2.29182 0.0287951 0
M  V30 1994 C 198.55 1.42213 0.750465 0
M  V30 1995 O 199.74 1.63843 0.591701 0
M  V30 1996 C 196.872 3.24278 1.05151 0
M  V30 1997 H 198.065 2.90985 -0.725786 0
M  V30 1998 H 195.618 1.50702 -0.414545 0
M  V30 1999 H 196.353 2.6737 1.83532 0
M  V30 2000 H 196.138 3.88396 0.537687 0
M  V30 2001 H 197.628 3.88647 1.52786 0
M  V30 2002 N 198.065 0.39524 1.52563 0
M  V30 2003 C 199.293 -0.184943 2.06072 0
M  V30 2004 C 199.708 -1.40021 1.26647 0
M  V30 2005 O 199.065 -1.79767 0.314672 0
M  V30 2006 C 199.116 -0.549179 3.57304 0
M  V30 2007 O 198.837 0.617813 4.33722 0
M  V30 2008 C 200.338 -1.18459 4.2718 0
M  V30 2009 H 197.558 -0.0265025 0.670476 0
M  V30 2010 H 200.102 0.562184 1.96621 0
M  V30 2011 H 198.257 -1.2462 3.66809 0
M  V30 2012 H 198.671 0.317091 5.23541 0
M  V30 2013 H 200.145 -1.38976 5.34219 0
M  V30 2014 H 200.622 -2.15368 3.82771 0
M  V30 2015 H 201.228 -0.528163 4.22008 0
M  V30 2016 N 199.544 -1.57102 0.125237 0
M  V30 2017 C 200.821 -1.86953 -0.575142 0
M  V30 2018 C 201.201 -1.02749 -1.84407 0
M  V30 2019 O 200.549 -0.108144 -2.28244 0
M  V30 2020 C 200.759 -3.38198 -0.861583 0
M  V30 2021 C 202.107 -4.06937 -1.21192 0
M  V30 2022 O 203.131 -3.43252 -0.951645 0
M  V30 2023 O 201.99 -5.19364 -1.70068 0
M  V30 2024 H 199.084 -0.774147 -0.290906 0
M  V30 2025 H 201.63 -1.68942 0.160211 0
M  V30 2026 H 200.402 -3.91282 0.0373647 0
M  V30 2027 H 200.025 -3.61661 -1.65188 0
M  V30 2028 N 201.022 0.148545 -1.56898 0
M  V30 2029 C 202.25 0.876389 -1.87422 0
M  V30 2030 C 202.665 1.74809 -0.713256 0
M  V30 2031 O 202.022 1.79725 0.317025 0
M  V30 2032 C 202.073 1.73438 -3.17178 0
M  V30 2033 O 201.794 0.897809 -4.28802 0
M  V30 2034 C 203.295 2.56993 -3.61205 0
M  V30 2035 H 200.515 0.253489 -0.621277 0
M  V30 2036 H 203.059 0.141798 -2.04008 0
M  V30 2037 H 201.214 2.42205 -3.0235 0
M  V30 2038 H 201.628 1.48672 -5.02988 0
M  V30 2039 H 203.102 3.12773 -4.54838 0
M  V30 2040 H 203.579 3.32958 -2.86419 0
M  V30 2041 H 204.185 1.9352 -3.78722 0
M  V30 2042 N 202.5 1.5196 0.417844 0
M  V30 2043 C 203.45 1.7106 1.5074 0
M  V30 2044 C 204.434 0.564487 1.50673 0
M  V30 2045 O 205.626 0.821206 1.56797 0
M  V30 2046 C 202.755 1.85677 2.88754 0
M  V30 2047 C 201.841 3.06133 2.93502 0
M  V30 2048 N 202.232 4.28987 2.67962 0
M  V30 2049 C 200.53 3.05787 3.24669 0
M  V30 2050 C 201.231 5.10395 2.79055 0
M  V30 2051 N 200.207 4.45455 3.11561 0
M  V30 2052 H 204.009 2.63696 1.29775 0
M  V30 2053 H 201.523 1.49873 0.625436 0
M  V30 2054 H 203.52 1.97475 3.67164 0
M  V30 2055 H 202.18 0.942348 3.10725 0
M  V30 2056 H 203.191 4.57607 2.4252 0
M  V30 2057 H 199.868 2.2405 3.52289 0
M  V30 2058 H 201.258 6.18247 2.63097 0
M  V30 2059 N 203.978 -0.674533 1.42435 0
M  V30 2060 C 205.394 -0.98769 1.25367 0
M  V30 2061 C 205.594 -2.00879 0.158044 0
M  V30 2062 O 204.65 -2.48075 -0.470633 0
M  V30 2063 C 205.963 -1.49224 2.6106 0
M  V30 2064 C 207.511 -1.61 2.68417 0
M  V30 2065 C 207.986 -2.14852 4.04478 0
M  V30 2066 N 209.477 -2.22185 4.06434 0
M  V30 2067 C 210.212 -2.64928 5.08528 0
M  V30 2068 N 209.708 -3.07121 6.21006 0
M  V30 2069 N 211.501 -2.64679 4.95885 0
M  V30 2070 H 203.652 0.00152503 2.124 0
M  V30 2071 H 205.915 -0.0618434 0.945981 0
M  V30 2072 H 205.621 -0.816453 3.42092 0
M  V30 2073 H 205.495 -2.47094 2.84999 0
M  V30 2074 H 207.882 -2.27686 1.87732 0
M  V30 2075 H 207.963 -0.616195 2.48267 0
M  V30 2076 H 207.607 -1.48775 4.85622 0
M  V30 2077 H 207.537 -3.15024 4.2198 0
M  V30 2078 H 210.028 -1.92435 3.25234 0
M  V30 2079 H 210.341 -3.38423 6.94759 0
M  V30 2080 H 208.686 -3.04978 6.24511 0
M  V30 2081 H 211.877 -2.31078 4.07088 0
M  V30 2082 H 212.05 -2.9767 5.75584 0
M  V30 2083 N 205.456 -1.28612 -0.910864 0
M  V30 2084 C 206.386 -1.15326 -2.03032 0
M  V30 2085 C 207.367 -0.0502924 -1.70026 0
M  V30 2086 O 208.552 -0.227797 -1.92859 0
M  V30 2087 C 205.682 -0.817343 -3.37545 0
M  V30 2088 C 204.636 -1.8754 -3.84724 0
M  V30 2089 C 203.962 -1.39305 -5.16235 0
M  V30 2090 C 205.262 -3.28244 -4.06267 0
M  V30 2091 H 206.956 -2.08975 -2.14406 0
M  V30 2092 H 204.502 -1.00612 -1.03021 0
M  V30 2093 H 206.455 -0.711151 -4.15356 0
M  V30 2094 H 205.179 0.154846 -3.26233 0
M  V30 2095 H 203.838 -1.97079 -3.09121 0
M  V30 2096 H 203.486 -0.409846 -5.01328 0
M  V30 2097 H 203.186 -2.10057 -5.48771 0
M  V30 2098 H 204.71 -1.30014 -5.96598 0
M  V30 2099 H 206.124 -3.21611 -4.74594 0
M  V30 2100 H 204.521 -3.96855 -4.5014 0
M  V30 2101 H 205.591 -3.72048 -3.10979 0
M  V30 2102 N 206.934 1.1197 -1.10907 0
M  V30 2103 C 207.884 2.15946 -0.731538 0
M  V30 2104 C 208.868 1.58758 0.261699 0
M  V30 2105 O 210.06 1.76863 0.0696722 0
M  V30 2106 C 207.189 3.42877 -0.170299 0
M  V30 2107 C 206.275 4.07037 -1.19087 0
M  V30 2108 N 206.666 4.46135 -2.38322 0
M  V30 2109 C 204.964 4.33884 -1.03252 0
M  V30 2110 C 205.665 4.96331 -3.03366 0
M  V30 2111 N 204.641 4.9214 -2.30865 0
M  V30 2112 H 208.443 2.43947 -1.63912 0
M  V30 2113 H 205.957 1.28927 -0.987505 0
M  V30 2114 H 207.954 4.16732 0.118271 0
M  V30 2115 H 206.614 3.16343 0.731935 0
M  V30 2116 H 207.625 4.38345 -2.75815 0
M  V30 2117 H 204.302 4.17084 -0.186256 0
M  V30 2118 H 205.692 5.36257 -4.04818 0
M  V30 2119 N 208.412 0.89855 1.29475 0
M  V30 2120 C 209.359 0.373819 2.27753 0
M  V30 2121 C 210.329 -0.543444 1.56958 0
M  V30 2122 O 211.514 -0.468934 1.84948 0
M  V30 2123 C 208.654 -0.393648 3.42848 0
M  V30 2124 C 207.767 0.554379 4.28428 0
M  V30 2125 C 206.902 -0.230026 5.30702 0
M  V30 2126 C 205.941 0.712599 6.07938 0
M  V30 2127 N 205.078 -0.0373283 7.0209 0
M  V30 2128 H 209.918 1.21699 2.72017 0
M  V30 2129 H 207.455 0.611456 1.33789 0
M  V30 2130 H 209.413 -0.85466 4.08352 0
M  V30 2131 H 208.043 -1.20128 2.99615 0
M  V30 2132 H 207.095 1.13391 3.63107 0
M  V30 2133 H 208.407 1.27597 4.82204 0
M  V30 2134 H 207.561 -0.752288 6.02018 0
M  V30 2135 H 206.3 -0.984758 4.77654 0
M  V30 2136 H 205.305 1.24637 5.35486 0
M  V30 2137 H 206.53 1.46664 6.63074 0
M  V30 2138 H 204.476 -0.774348 6.51414 0
M  V30 2139 H 204.393 0.624374 7.53417 0
M  V30 2140 H 205.661 -0.539891 7.77628 0
M  V30 2141 N 209.89 -1.43072 0.660911 0
M  V30 2142 C 210.8 -2.34585 -0.0264163 0
M  V30 2143 C 211.816 -1.54316 -0.803898 0
M  V30 2144 O 212.992 -1.86939 -0.749391 0
M  V30 2145 C 210.057 -3.32689 -0.975639 0
M  V30 2146 C 209.118 -4.2886 -0.194236 0
M  V30 2147 C 208.351 -5.22278 -1.09825 0
M  V30 2148 O 208.574 -5.20299 -2.33763 0
M  V30 2149 O 207.508 -5.99228 -0.566513 0
M  V30 2150 H 211.334 -2.94869 0.727034 0
M  V30 2151 H 208.919 -1.43342 0.42111 0
M  V30 2152 H 210.801 -3.92995 -1.52094 0
M  V30 2153 H 209.476 -2.74898 -1.70918 0
M  V30 2154 H 208.383 -3.72011 0.394835 0
M  V30 2155 H 209.716 -4.89655 0.499899 0
M  V30 2156 N 211.368 -0.403325 -1.52352 0
M  V30 2157 C 212.616 0.174003 -2.0135 0
M  V30 2158 C 212.937 1.46139 -1.29106 0
M  V30 2159 O 212.207 1.91448 -0.415253 0
M  V30 2160 H 210.787 0.0672911 -0.743963 0
M  V30 2161 H 213.449 -0.538235 -1.87321 0
M  V30 2162 H 212.545 0.374254 -3.09848 0
M  V30 2163 N 212.846 1.57033 -0.133567 0
M  V30 2164 C 213.793 2.16074 0.811208 0
M  V30 2165 C 214.763 1.08979 1.2535 0
M  V30 2166 O 215.948 1.36958 1.32843 0
M  V30 2167 C 213.088 2.77595 2.05024 0
M  V30 2168 C 212.201 3.99042 1.65498 0
M  V30 2169 C 211.336 4.48603 2.84479 0
M  V30 2170 C 210.375 5.62547 2.41262 0
M  V30 2171 N 209.512 6.06787 3.53206 0
M  V30 2172 H 214.352 2.96477 0.300906 0
M  V30 2173 H 211.889 1.46462 0.136822 0
M  V30 2174 H 213.847 3.11402 2.77642 0
M  V30 2175 H 212.477 1.99859 2.53488 0
M  V30 2176 H 211.529 3.71302 0.826981 0
M  V30 2177 H 212.841 4.81629 1.29748 0
M  V30 2178 H 211.995 4.84395 3.65303 0
M  V30 2179 H 210.734 3.64995 3.23465 0
M  V30 2180 H 209.739 5.26345 1.58874 0
M  V30 2181 H 210.964 6.47931 2.03377 0
M  V30 2182 H 208.91 5.26117 3.91838 0
M  V30 2183 H 208.827 6.84266 3.21427 0
M  V30 2184 H 210.095 6.4722 4.34427 0
M  V30 2185 N 214.325 -0.140222 1.56975 0
M  V30 2186 C 215.255 -1.17456 2.01808 0
M  V30 2187 C 216.236 -1.44415 0.898794 0
M  V30 2188 O 217.421 -1.5522 1.16707 0
M  V30 2189 C 214.551 -2.50607 2.40444 0
M  V30 2190 C 213.505 -2.38155 3.55621 0
M  V30 2191 C 212.831 -3.76078 3.80091 0
M  V30 2192 C 214.131 -1.85991 4.88062 0
M  V30 2193 H 215.825 -0.801743 2.88466 0
M  V30 2194 H 213.371 -0.38422 1.38779 0
M  V30 2195 H 215.324 -3.23197 2.7041 0
M  V30 2196 H 214.048 -2.89737 1.50732 0
M  V30 2197 H 212.707 -1.68016 3.25832 0
M  V30 2198 H 212.355 -4.12656 2.87618 0
M  V30 2199 H 212.055 -3.68606 4.57606 0
M  V30 2200 H 213.579 -4.50206 4.12488 0
M  V30 2201 H 214.993 -2.4838 5.16701 0
M  V30 2202 H 213.39 -1.89393 5.6943 0
M  V30 2203 H 214.46 -0.816023 4.77984 0
M  V30 2204 N 215.803 -1.52179 -0.40978 0
M  V30 2205 C 216.733 -1.78435 -1.5061 0
M  V30 2206 C 217.714 -0.635295 -1.57791 0
M  V30 2207 O 218.899 -0.880823 -1.73076 0
M  V30 2208 C 216.029 -1.93444 -2.88439 0
M  V30 2209 C 214.983 -3.09038 -2.96108 0
M  V30 2210 C 214.309 -3.09268 -4.36185 0
M  V30 2211 C 215.609 -4.48508 -2.67652 0
M  V30 2212 H 217.303 -2.70237 -1.28889 0
M  V30 2213 H 214.849 -1.30036 -0.618605 0
M  V30 2214 H 216.802 -2.10394 -3.65119 0
M  V30 2215 H 215.526 -0.983129 -3.11452 0
M  V30 2216 H 214.185 -2.91837 -2.21872 0
M  V30 2217 H 213.833 -2.11861 -4.56206 0
M  V30 2218 H 213.533 -3.86907 -4.42241 0
M  V30 2219 H 215.057 -3.28348 -5.14801 0
M  V30 2220 H 216.471 -4.65918 -3.34056 0
M  V30 2221 H 214.868 -5.28059 -2.85085 0
M  V30 2222 H 215.938 -4.56649 -1.63095 0
M  V30 2223 N 217.281 0.66697 -1.42791 0
M  V30 2224 C 218.692 1.2478 -1.38877 0
M  V30 2225 C 219.043 1.96012 -0.0859426 0
M  V30 2226 O 218.168 2.00463 0.815081 0
M  V30 2227 C 218.763 2.26938 -2.51564 0
M  V30 2228 C 217.322 2.80529 -2.50959 0
M  V30 2229 C 216.469 1.54965 -2.29959 0
M  V30 2230 H 219.42 0.459853 -1.51892 0
M  V30 2231 H 219.441 3.08834 -2.22265 0
M  V30 2232 H 218.953 1.75065 -3.46372 0
M  V30 2233 H 217.054 3.36502 -1.59991 0
M  V30 2234 H 217.167 3.29012 -3.48265 0
M  V30 2235 H 215.531 1.81817 -1.78366 0
M  V30 2236 H 216.314 1.05047 -3.26833 0
M  V30 2237 N 218.759 1.29093 0.90403 0
M  V30 2238 C 219.689 1.16401 2.02418 0
M  V30 2239 C 220.67 0.0593085 1.69997 0
M  V30 2240 O 221.855 0.238021 1.92736 0
M  V30 2241 C 218.985 0.835233 3.37107 0
M  V30 2242 C 217.939 1.89578 3.83724 0
M  V30 2243 C 217.265 1.42041 5.15489 0
M  V30 2244 C 218.565 3.30394 4.04521 0
M  V30 2245 H 220.259 2.10109 2.13295 0
M  V30 2246 H 217.805 1.01157 1.02486 0
M  V30 2247 H 219.758 0.733169 4.14973 0
M  V30 2248 H 218.482 -0.137543 3.2631 0
M  V30 2249 H 217.141 1.98715 3.08071 0
M  V30 2250 H 216.789 0.436426 5.01103 0
M  V30 2251 H 216.489 2.12964 5.4765 0
M  V30 2252 H 218.013 1.33176 5.959 0
M  V30 2253 H 219.427 3.24123 4.72882 0
M  V30 2254 H 217.824 3.99237 4.48029 0
M  V30 2255 H 218.894 3.73692 3.09002 0
M  V30 2256 N 220.237 -1.11381 1.11499 0
M  V30 2257 C 221.483 -1.83403 0.865512 0
M  V30 2258 C 221.816 -1.84459 -0.607329 0
M  V30 2259 O 221.091 -1.29811 -1.44842 0
M  V30 2260 C 221.374 -3.30552 1.42855 0
M  V30 2261 C 221.227 -3.37886 2.96906 0
M  V30 2262 C 222.546 -4.26643 1.08 0
M  V30 2263 H 219.665 -0.665879 0.31587 0
M  V30 2264 H 222.307 -1.30601 1.37998 0
M  V30 2265 H 220.457 -3.75648 0.990985 0
M  V30 2266 H 222.129 -3.01343 3.49271 0
M  V30 2267 H 220.372 -2.78088 3.32941 0
M  V30 2268 H 221.043 -4.41458 3.31389 0
M  V30 2269 H 223.519 -3.89729 1.45775 0
M  V30 2270 H 222.395 -5.27986 1.50072 0
M  V30 2271 H 222.656 -4.42099 -0.00915037 0
M  V30 2272 N 221.715 -0.905404 -1.28997 0
M  V30 2273 C 222.665 -0.358713 -2.25161 0
M  V30 2274 C 223.649 0.524449 -1.52113 0
M  V30 2275 O 224.841 0.365534 -1.73184 0
M  V30 2276 C 221.97 0.407609 -3.40872 0
M  V30 2277 C 221.056 -0.490797 -4.21251 0
M  V30 2278 N 221.447 -1.60061 -4.79806 0
M  V30 2279 C 219.745 -0.289636 -4.45059 0
M  V30 2280 C 220.446 -2.15757 -5.40207 0
M  V30 2281 N 219.422 -1.44988 -5.23908 0
M  V30 2282 H 223.224 -1.20642 -2.67998 0
M  V30 2283 H 220.738 -0.757103 -1.43672 0
M  V30 2284 H 222.735 0.816046 -4.08835 0
M  V30 2285 H 221.395 1.25251 -2.9957 0
M  V30 2286 H 222.406 -1.98329 -4.7842 0
M  V30 2287 H 219.083 0.51643 -4.14294 0
M  V30 2288 H 220.473 -3.09069 -5.96595 0
M  V30 2289 N 223.193 1.4272 -0.668489 0
M  V30 2290 C 224.125 2.2914 0.052613 0
M  V30 2291 C 225.138 1.43339 0.771857 0
M  V30 2292 O 226.327 1.67123 0.627067 0
M  V30 2293 C 223.427 3.20618 1.09804 0
M  V30 2294 C 222.6 4.35039 0.45389 0
M  V30 2295 C 221.659 5.07282 1.39825 0
M  V30 2296 O 220.685 5.62024 0.900978 0
M  V30 2297 N 221.887 5.12206 2.73176 0
M  V30 2298 H 224.652 2.91668 -0.689209 0
M  V30 2299 H 222.213 1.53577 -0.512422 0
M  V30 2300 H 224.205 3.65815 1.73094 0
M  V30 2301 H 222.775 2.59585 1.74167 0
M  V30 2302 H 221.995 3.92567 -0.358396 0
M  V30 2303 H 223.283 5.088 0.00486972 0
M  V30 2304 H 222.681 4.6913 3.16122 0
M  V30 2305 H 221.238 5.61069 3.31729 0
M  V30 2306 N 224.671 0.411399 1.52136 0
M  V30 2307 C 225.911 -0.163143 2.03748 0
M  V30 2308 C 226.275 -1.42187 1.29022 0
M  V30 2309 O 227.476 -2.075 1.70872 0
M  V30 2310 C 225.747 -0.402651 3.55125 0
M  V30 2311 S 227.306 -0.944315 4.28519 0
M  V30 2312 H 224.124 -0.0439833 0.709638 0
M  V30 2313 H 226.726 0.56484 1.87163 0
M  V30 2314 H 225.43 0.520212 4.0709 0
M  V30 2315 H 224.961 -1.15844 3.75957 0
M  V30 2316 H 226.976 -2.22463 4.43536 0
M  V30 2317 N 226.149 -1.5696 0.141893 0
M  V30 2318 C 227.379 -2.00031 -0.516828 0
M  V30 2319 C 227.787 -1.02091 -1.59293 0
M  V30 2320 O 227.13 -0.00909657 -1.83698 0
M  V30 2321 C 227.192 -3.39534 -1.1814 0
M  V30 2322 C 226.856 -4.56313 -0.250513 0
M  V30 2323 C 227.853 -5.17295 0.519839 0
M  V30 2324 C 225.538 -5.02061 -0.154907 0
M  V30 2325 C 227.532 -6.2243 1.3733 0
M  V30 2326 C 225.219 -6.07053 0.702161 0
M  V30 2327 C 226.217 -6.67106 1.46487 0
M  V30 2328 O 225.905 -7.70066 2.30767 0
M  V30 2329 H 225.637 -0.661451 -0.139493 0
M  V30 2330 H 228.191 -2.04086 0.231926 0
M  V30 2331 H 226.421 -3.32302 -1.97769 0
M  V30 2332 H 228.11 -3.66745 -1.73933 0
M  V30 2333 H 228.876 -4.82852 0.45598 0
M  V30 2334 H 224.755 -4.5505 -0.7383 0
M  V30 2335 H 228.299 -6.69233 1.96909 0
M  V30 2336 H 224.196 -6.40923 0.76733 0
M  V30 2337 H 224.964 -7.87264 2.23959 0
M  V30 2338 N 227.627 0.131896 -1.57047 0
M  V30 2339 C 228.557 1.16384 -2.02428 0
M  V30 2340 C 229.538 1.43936 -0.90644 0
M  V30 2341 O 230.723 1.54599 -1.17528 0
M  V30 2342 C 227.853 2.49328 -2.4177 0
M  V30 2343 C 226.807 2.36266 -3.56879 0
M  V30 2344 C 226.133 3.74057 -3.8208 0
M  V30 2345 C 227.433 1.834 -4.89042 0
M  V30 2346 H 229.127 0.786433 -2.88887 0
M  V30 2347 H 226.673 0.376855 -1.38981 0
M  V30 2348 H 228.626 3.21759 -2.7212 0
M  V30 2349 H 227.35 2.88934 -1.52266 0
M  V30 2350 H 226.009 1.66286 -3.26718 0
M  V30 2351 H 225.657 4.11125 -2.89803 0
M  V30 2352 H 225.357 3.66174 -4.59554 0
M  V30 2353 H 226.881 4.48012 -4.1487 0
M  V30 2354 H 228.295 2.45636 -5.18011 0
M  V30 2355 H 226.692 1.8637 -5.70426 0
M  V30 2356 H 227.762 0.790662 -4.7841 0
M  V30 2357 N 229.106 1.52395 0.401703 0
M  V30 2358 C 230.053 1.76268 1.48991 0
M  V30 2359 C 231.023 0.605386 1.54675 0
M  V30 2360 O 232.208 0.843742 1.7113 0
M  V30 2361 C 229.348 1.92592 2.86361 0
M  V30 2362 C 228.461 3.20259 2.89928 0
M  V30 2363 C 227.596 3.26972 4.18644 0
M  V30 2364 C 226.635 4.48812 4.16214 0
M  V30 2365 N 225.772 4.52877 5.36514 0
M  V30 2366 H 230.612 2.6914 1.27935 0
M  V30 2367 H 228.149 1.33355 0.620871 0
M  V30 2368 H 230.107 2.0004 3.66115 0
M  V30 2369 H 228.737 1.03093 3.05895 0
M  V30 2370 H 227.789 3.21945 2.02621 0
M  V30 2371 H 229.101 4.10056 2.83999 0
M  V30 2372 H 228.255 3.33533 5.06794 0
M  V30 2373 H 226.994 2.35126 4.27278 0
M  V30 2374 H 225.999 4.4239 3.26453 0
M  V30 2375 H 227.224 5.41961 4.09213 0
M  V30 2376 H 225.17 3.63917 5.45802 0
M  V30 2377 H 225.087 5.36529 5.32609 0
M  V30 2378 H 226.355 4.63676 6.26597 0
M  V30 2379 N 230.584 -0.659388 1.43143 0
M  V30 2380 C 231.531 -1.77249 1.47822 0
M  V30 2381 C 232.501 -1.62818 0.328558 0
M  V30 2382 O 233.686 -1.83151 0.534838 0
M  V30 2383 C 230.826 -3.15371 1.40126 0
M  V30 2384 C 229.939 -3.4098 2.65249 0
M  V30 2385 C 229.074 -4.68915 2.49584 0
M  V30 2386 C 228.113 -4.87608 3.70006 0
M  V30 2387 N 227.25 -6.06796 3.53189 0
M  V30 2388 H 232.09 -1.72584 2.42938 0
M  V30 2389 H 229.627 -0.842297 1.20598 0
M  V30 2390 H 231.585 -3.9521 1.33659 0
M  V30 2391 H 230.215 -3.19121 0.485964 0
M  V30 2392 H 229.267 -2.55282 2.8202 0
M  V30 2393 H 230.579 -3.50681 3.54717 0
M  V30 2394 H 229.733 -5.56871 2.4079 0
M  V30 2395 H 228.472 -4.61524 1.5763 0
M  V30 2396 H 227.477 -3.9809 3.79215 0
M  V30 2397 H 228.702 -4.96834 4.62961 0
M  V30 2398 H 226.648 -6.00549 2.63965 0
M  V30 2399 H 226.565 -6.17428 4.36255 0
M  V30 2400 H 227.833 -6.9739 3.48236 0
M  V30 2401 N 232.062 -1.29571 -0.897171 0
M  V30 2402 C 233.287 -1.20705 -1.68656 0
M  V30 2403 C 233.712 0.228582 -1.86706 0
M  V30 2404 O 233.07 1.16494 -1.3892 0
M  V30 2405 C 233.118 -1.9282 -3.04717 0
M  V30 2406 O 232.222 -1.24697 -3.93096 0
M  V30 2407 H 231.563 -0.418126 -0.515816 0
M  V30 2408 H 234.093 -1.71183 -1.12061 0
M  V30 2409 H 234.103 -2.01372 -3.54843 0
M  V30 2410 H 232.778 -2.97239 -2.90899 0
M  V30 2411 H 231.355 -1.2442 -3.51531 0
M  V30 2412 N 233.54 1.10788 -1.12088 0
M  V30 2413 C 234.487 2.17025 -0.785407 0
M  V30 2414 C 235.457 1.64265 0.246191 0
M  V30 2415 O 236.642 1.90412 0.121584 0
M  V30 2416 C 233.782 3.44249 -0.242177 0
M  V30 2417 C 232.895 4.1098 -1.33115 0
M  V30 2418 C 232.03 5.25911 -0.747741 0
M  V30 2419 C 231.069 5.84538 -1.81609 0
M  V30 2420 N 230.206 6.90853 -1.25167 0
M  V30 2421 H 235.046 2.45066 -1.69548 0
M  V30 2422 H 232.583 1.20297 -0.846582 0
M  V30 2423 H 234.541 4.17101 0.0908026 0
M  V30 2424 H 233.171 3.16571 0.631072 0
M  V30 2425 H 232.223 3.36133 -1.78097 0
M  V30 2426 H 233.535 4.50601 -2.13917 0
M  V30 2427 H 232.689 6.056 -0.365216 0
M  V30 2428 H 231.428 4.87614 0.0915188 0
M  V30 2429 H 230.433 5.03522 -2.20785 0
M  V30 2430 H 231.658 6.249 -2.6585 0
M  V30 2431 H 229.604 6.54562 -0.434174 0
M  V30 2432 H 229.521 7.29166 -1.99633 0
M  V30 2433 H 230.789 7.7433 -0.896259 0
M  V30 2434 N 235.018 0.912232 1.28515 0
M  V30 2435 C 236.434 0.610159 1.47476 0
M  V30 2436 C 236.634 -0.844955 1.82928 0
M  V30 2437 O 235.69 -1.62416 1.93332 0
M  V30 2438 C 237.003 1.54675 2.57868 0
M  V30 2439 C 238.551 1.55331 2.71738 0
M  V30 2440 C 239.026 2.47649 3.85272 0
M  V30 2441 N 240.517 2.45767 3.92623 0
M  V30 2442 C 241.252 3.13896 4.79851 0
M  V30 2443 N 240.748 3.9135 5.71679 0
M  V30 2444 N 242.541 3.02991 4.73448 0
M  V30 2445 H 234.692 1.85318 1.03783 0
M  V30 2446 H 236.955 0.794777 0.516753 0
M  V30 2447 H 236.661 2.5841 2.38574 0
M  V30 2448 H 236.535 1.27671 3.54937 0
M  V30 2449 H 238.922 0.52335 2.90422 0
M  V30 2450 H 239.003 1.86378 1.75205 0
M  V30 2451 H 238.647 3.50745 3.67342 0
M  V30 2452 H 238.577 2.13904 4.81199 0
M  V30 2453 H 241.068 1.89503 3.26951 0
M  V30 2454 H 241.381 4.40359 6.35062 0
M  V30 2455 H 239.726 3.95455 5.71524 0
M  V30 2456 H 242.917 2.41987 4.007 0
M  V30 2457 H 243.09 3.5636 5.41213 0
M  V30 2458 N 236.496 -1.42363 0.676048 0
M  V30 2459 C 237.443 -2.308 -0.00150904 0
M  V30 2460 C 238.413 -1.46032 -0.791444 0
M  V30 2461 O 239.598 -1.74861 -0.76344 0
M  V30 2462 C 236.738 -3.31883 -0.945919 0
M  V30 2463 C 235.851 -4.31741 -0.149675 0
M  V30 2464 C 234.986 -5.19898 -1.08995 0
M  V30 2465 C 234.025 -6.11434 -0.285465 0
M  V30 2466 N 233.162 -6.92138 -1.17851 0
M  V30 2467 H 238.002 -2.88187 0.758455 0
M  V30 2468 H 235.539 -1.41952 0.38576 0
M  V30 2469 H 237.497 -3.89019 -1.50731 0
M  V30 2470 H 236.127 -2.76093 -1.6725 0
M  V30 2471 H 235.179 -3.76713 0.528359 0
M  V30 2472 H 236.491 -4.96534 0.474866 0
M  V30 2473 H 235.645 -5.81772 -1.72123 0
M  V30 2474 H 234.384 -4.55284 -1.74837 0
M  V30 2475 H 233.389 -5.48627 0.359018 0
M  V30 2476 H 234.614 -6.78097 0.368883 0
M  V30 2477 H 232.56 -6.30152 -1.82332 0
M  V30 2478 H 232.477 -7.53542 -0.609082 0
M  V30 2479 H 233.745 -7.58499 -1.79722 0
M  V30 2480 N 237.974 -0.419461 -1.51915 0
M  V30 2481 C 238.884 0.407528 -2.31033 0
M  V30 2482 C 239.9 1.04413 -1.3919 0
M  V30 2483 O 241.076 1.0434 -1.72265 0
M  V30 2484 C 238.141 1.50365 -3.12396 0
M  V30 2485 C 237.202 0.889029 -4.19994 0
M  V30 2486 C 236.435 1.93291 -4.97468 0
M  V30 2487 O 236.658 3.15259 -4.75361 0
M  V30 2488 O 235.592 1.53339 -5.8204 0
M  V30 2489 H 239.418 -0.237865 -3.02767 0
M  V30 2490 H 237.003 -0.182413 -1.48282 0
M  V30 2491 H 238.885 2.13975 -3.63032 0
M  V30 2492 H 237.56 2.13345 -2.43445 0
M  V30 2493 H 236.467 0.215353 -3.7348 0
M  V30 2494 H 237.8 0.302991 -4.91267 0
M  V30 2495 N 239.452 1.56882 -0.150215 0
M  V30 2496 C 240.699 1.96228 0.500093 0
M  V30 2497 C 241.027 1.03522 1.64661 0
M  V30 2498 O 240.282 0.0650683 1.95592 0
M  V30 2499 C 240.581 3.41801 1.04437 0
M  V30 2500 C 240.247 4.50897 0.0159671 0
M  V30 2501 C 238.909 4.8046 -0.266731 0
M  V30 2502 C 241.261 5.16703 -0.683192 0
M  V30 2503 C 238.589 5.73135 -1.25434 0
M  V30 2504 C 240.941 6.10441 -1.65964 0
M  V30 2505 C 239.605 6.38382 -1.95 0
M  V30 2506 H 238.875 0.718048 0.182997 0
M  V30 2507 H 241.522 1.90019 -0.237724 0
M  V30 2508 H 239.827 3.44857 1.85959 0
M  V30 2509 H 241.524 3.69573 1.55618 0
M  V30 2510 H 238.114 4.27891 0.246485 0
M  V30 2511 H 242.298 4.93993 -0.477983 0
M  V30 2512 H 237.554 5.93074 -1.48571 0
M  V30 2513 H 241.728 6.60507 -2.20689 0
M  V30 2514 H 239.355 7.09996 -2.71679 0
M  V30 2515 N 240.93 -0.123565 1.57115 0
M  V30 2516 C 241.862 -1.17739 1.96648 0
M  V30 2517 C 242.875 -1.37906 0.865201 0
M  V30 2518 O 244.064 -1.37062 1.14351 0
M  V30 2519 C 241.164 -2.53821 2.24562 0
M  V30 2520 C 240.337 -2.54317 3.55867 0
M  V30 2521 C 239.396 -3.72112 3.72047 0
M  V30 2522 O 238.422 -3.55907 4.44206 0
M  V30 2523 N 239.624 -4.90498 3.10471 0
M  V30 2524 H 242.389 -0.841147 2.87654 0
M  V30 2525 H 239.95 -0.31289 1.58848 0
M  V30 2526 H 241.942 -3.31175 2.32606 0
M  V30 2527 H 240.512 -2.79645 1.39705 0
M  V30 2528 H 239.732 -1.62711 3.59053 0
M  V30 2529 H 241.02 -2.51701 4.42181 0
M  V30 2530 H 240.418 -5.06567 2.51806 0
M  V30 2531 H 238.975 -5.65544 3.24043 0
M  V30 2532 O 242.447 -1.59262 -0.267957 0
M  V30 2533 H 243.138 -1.70845 -0.912779 0
M  V30 END ATOM
M  V30 BEGIN BOND
M  V30 END BOND
M  V30 END CTAB
M  END
$$$$
