drugbank_target|Q9NS75 Cysteinyl leukotriene receptor 2 (DB00716; DB08855; DB11858)
 OpenBabel12092119243D

  0  0  0     0  0            999 V3000
M  V30 BEGIN CTAB
M  V30 COUNTS 5707 5776 0 0 0
M  V30 BEGIN ATOM
M  V30 1 H -0.908 1.98254 -0.117106 0
M  V30 2 N 0 1.576 0 0
M  V30 3 C 0.933 2.03868 1.02534 0
M  V30 4 C 1.911 0.928543 1.3348 0
M  V30 5 O 3.095 1.19667 1.45644 0
M  V30 6 C 0.222 2.43627 2.35294 0
M  V30 7 C -0.732 3.65373 2.2001 0
M  V30 8 S 0.101 5.13292 1.52614 0
M  V30 9 C 1.257 5.56322 2.86805 0
M  V30 10 H 1.49 2.90518 0.631377 0
M  V30 11 H -0.977 1.52953 0.210867 0
M  V30 12 H 0.981 2.67203 3.11629 0
M  V30 13 H -0.358 1.57376 2.7183 0
M  V30 14 H -1.165 3.90944 3.18086 0
M  V30 15 H -1.563 3.418 1.51819 0
M  V30 16 H 0.729 5.58782 3.83104 0
M  V30 17 H 1.672 6.56266 2.65933 0
M  V30 18 H 2.08 4.83886 2.90714 0
M  V30 19 N 1.4781 -0.272755 1.55222 0
M  V30 20 C 2.3881 -1.35918 1.91216 0
M  V30 21 C 3.4041 -1.54026 0.809436 0
M  V30 22 O 4.5801 -1.68148 1.10852 0
M  V30 23 C 1.6451 -2.69834 2.17693 0
M  V30 24 C 0.7061 -2.6047 3.41253 0
M  V30 25 C -0.0609 -3.88 3.66458 0
M  V30 26 O 0.1621 -4.88693 2.94169 0
M  V30 27 O -0.9039 -3.88189 4.59992 0
M  V30 28 H 2.9221 -1.0839 2.83699 0
M  V30 29 H 0.5071 -0.471301 1.41771 0
M  V30 30 H 2.3891 -3.49017 2.36147 0
M  V30 31 H 1.0641 -2.97148 1.28392 0
M  V30 32 H -0.0289 -1.79663 3.28134 0
M  V30 33 H 1.3041 -2.38106 4.30774 0
M  V30 34 N 2.9562 -1.48159 -0.537278 0
M  V30 35 C 4.3722 -1.34118 -0.865129 0
M  V30 36 C 4.5722 -0.346678 -1.98495 0
M  V30 37 O 3.6282 0.234715 -2.51407 0
M  V30 38 C 4.9412 -2.73963 -1.23954 0
M  V30 39 C 6.4892 -2.82397 -1.34984 0
M  V30 40 C 6.9642 -4.22928 -1.75772 0
M  V30 41 N 8.4552 -4.25566 -1.82887 0
M  V30 42 C 9.1902 -5.31235 -2.15817 0
M  V30 43 N 8.6862 -6.47189 -2.47222 0
M  V30 44 N 10.4792 -5.18624 -2.16761 0
M  V30 45 H 2.6302 -2.1144 0.201715 0
M  V30 46 H 4.8932 -0.947598 0.0275949 0
M  V30 47 H 4.5992 -3.48264 -0.490381 0
M  V30 48 H 4.4732 -3.0702 -2.19132 0
M  V30 49 H 6.8602 -2.08356 -2.08978 0
M  V30 50 H 6.9412 -2.5297 -0.379448 0
M  V30 51 H 6.5852 -4.97482 -1.02341 0
M  V30 52 H 6.5152 -4.49794 -2.73848 0
M  V30 53 H 9.0062 -3.41924 -1.60924 0
M  V30 54 H 9.3192 -7.23564 -2.71433 0
M  V30 55 H 7.6642 -6.50476 -2.44757 0
M  V30 56 H 10.8552 -4.27056 -1.91679 0
M  V30 57 H 11.0282 -6.01078 -2.42093 0
M  V30 58 N 4.4343 0.785586 -1.36625 0
M  V30 59 C 5.3813 1.89838 -1.31264 0
M  V30 60 C 6.3513 1.65115 -0.180633 0
M  V30 61 O 7.5363 1.87222 -0.36777 0
M  V30 62 C 4.6763 3.26706 -1.11163 0
M  V30 63 C 3.7893 3.63476 -2.33472 0
M  V30 64 C 2.9243 4.89481 -2.06353 0
M  V30 65 C 1.9633 5.18941 -3.24602 0
M  V30 66 N 1.1003 6.36131 -2.97123 0
M  V30 67 H 5.9403 1.93756 -2.26413 0
M  V30 68 H 3.4773 0.947454 -1.12524 0
M  V30 69 H 5.4353 4.05639 -0.975337 0
M  V30 70 H 4.0653 3.222 -0.196674 0
M  V30 71 H 3.1173 2.79636 -2.57891 0
M  V30 72 H 4.4293 3.81193 -3.21704 0
M  V30 73 H 3.5833 5.76288 -1.89675 0
M  V30 74 H 2.3223 4.73841 -1.15437 0
M  V30 75 H 1.3273 4.30615 -3.41834 0
M  V30 76 H 2.5523 5.36498 -4.16349 0
M  V30 77 H 0.4983 6.21875 -2.08823 0
M  V30 78 H 0.4153 6.54198 -3.78894 0
M  V30 79 H 1.6833 7.2591 -2.84033 0
M  V30 80 N 5.9124 1.20967 1.01018 0
M  V30 81 C 7.1594 1.02374 1.74716 0
M  V30 82 C 7.4874 -0.443375 1.89379 0
M  V30 83 O 6.7424 -1.34535 1.42123 0
M  V30 84 C 7.0414 1.65997 3.16512 0
M  V30 85 C 6.7074 3.15831 3.2181 0
M  V30 86 C 5.3694 3.56719 3.22963 0
M  V30 87 C 7.7214 4.11816 3.19464 0
M  V30 88 C 5.0494 4.92107 3.19449 0
M  V30 89 C 7.4014 5.47158 3.17491 0
M  V30 90 C 6.0654 5.87451 3.16951 0
M  V30 91 H 5.3354 0.374614 0.639332 0
M  V30 92 H 7.9824 1.50485 1.18434 0
M  V30 93 H 6.2874 1.10166 3.75993 0
M  V30 94 H 7.9844 1.49119 3.72242 0
M  V30 95 H 4.5744 2.83263 3.21652 0
M  V30 96 H 8.7584 3.81257 3.17737 0
M  V30 97 H 4.0144 5.22579 3.17366 0
M  V30 98 H 8.1884 6.21274 3.14629 0
M  V30 99 H 5.8154 6.92329 3.13983 0
M  V30 100 N 7.3905 -1.2043 1.01659 0
M  V30 101 C 8.3235 -2.21924 0.531521 0
M  V30 102 C 9.3015 -1.57054 -0.421032 0
M  V30 103 O 10.4855 -1.85389 -0.341035 0
M  V30 104 C 7.6125 -3.37942 -0.226496 0
M  V30 105 C 6.6585 -4.21115 0.67561 0
M  V30 106 S 7.4915 -4.90674 2.14475 0
M  V30 107 C 8.6475 -6.10113 1.3969 0
M  V30 108 H 8.8805 -2.62725 1.3915 0
M  V30 109 H 6.4135 -1.30481 0.825479 0
M  V30 110 H 8.3715 -4.05196 -0.657738 0
M  V30 111 H 7.0325 -2.956 -1.06205 0
M  V30 112 H 6.2255 -5.03918 0.091108 0
M  V30 113 H 5.8275 -3.59115 1.04463 0
M  V30 114 H 8.1195 -6.7411 0.676897 0
M  V30 115 H 9.0625 -6.73022 2.20107 0
M  V30 116 H 9.4705 -5.57283 0.899786 0
M  V30 117 N 8.8686 -0.792821 -1.36206 0
M  V30 118 C 10.0936 -0.377701 -2.03932 0
M  V30 119 C 10.5186 0.998947 -1.59382 0
M  V30 120 O 9.8766 1.64421 -0.763903 0
M  V30 121 C 9.9246 -0.453635 -3.57735 0
M  V30 122 O 9.0286 0.538151 -4.08874 0
M  V30 123 H 8.3696 -0.159855 -0.644471 0
M  V30 124 H 10.8996 -1.07488 -1.7409 0
M  V30 125 H 10.9096 -0.318464 -4.06755 0
M  V30 126 H 9.5846 -1.45784 -3.89512 0
M  V30 127 H 8.1616 0.364359 -3.71116 0
M  V30 128 N 10.3467 1.47872 -0.545128 0
M  V30 129 C 11.2767 2.32661 0.197793 0
M  V30 130 C 12.2577 1.43041 0.920504 0
M  V30 131 O 13.4427 1.71912 0.90333 0
M  V30 132 C 10.5727 3.24569 1.23582 0
M  V30 133 C 9.5267 4.23333 0.630323 0
M  V30 134 C 8.8527 5.0448 1.77211 0
M  V30 135 C 10.1527 5.20704 -0.407974 0
M  V30 136 H 11.8467 2.95024 -0.510045 0
M  V30 137 H 9.3927 1.4187 -0.246731 0
M  V30 138 H 11.3457 3.8272 1.76362 0
M  V30 139 H 10.0697 2.60236 1.97344 0
M  V30 140 H 8.7287 3.6639 0.123922 0
M  V30 141 H 8.3767 4.36561 2.49847 0
M  V30 142 H 8.0767 5.71339 1.37281 0
M  V30 143 H 9.6007 5.65487 2.3034 0
M  V30 144 H 11.0147 5.7329 0.033305 0
M  V30 145 H 9.4117 5.95699 -0.725486 0
M  V30 146 H 10.4817 4.66917 -1.30828 0
M  V30 147 N 11.8248 0.280983 1.55075 0
M  V30 148 C 12.7568 -0.637268 2.20163 0
M  V30 149 C 13.7698 -1.11298 1.18813 0
M  V30 150 O 14.9588 -1.03388 1.4551 0
M  V30 151 C 12.0588 -1.88199 2.81841 0
M  V30 152 C 11.2318 -1.55211 4.08936 0
M  V30 153 C 10.2908 -2.64991 4.54606 0
M  V30 154 O 9.3168 -2.30929 5.2025 0
M  V30 155 N 10.5188 -3.95161 4.25238 0
M  V30 156 H 13.2838 -0.0801694 2.99593 0
M  V30 157 H 10.8448 0.102329 1.61576 0
M  V30 158 H 12.8368 -2.60948 3.09335 0
M  V30 159 H 11.4068 -2.34799 2.06369 0
M  V30 160 H 10.6268 -0.658185 3.88666 0
M  V30 161 H 11.9148 -1.30681 4.91732 0
M  V30 162 H 11.3128 -4.25653 3.72607 0
M  V30 163 H 9.8698 -4.6427 4.5749 0
M  V30 164 N 13.3029 -1.57598 0.00835791 0
M  V30 165 C 14.7139 -1.7892 -0.53333 0
M  V30 166 C 15.0649 -0.916609 -1.73473 0
M  V30 167 O 14.1899 -0.121336 -2.1606 0
M  V30 168 C 14.7849 -3.24488 -0.974313 0
M  V30 169 C 13.3439 -3.46878 -1.46125 0
M  V30 170 C 12.4909 -2.74157 -0.416302 0
M  V30 171 H 15.4419 -1.56958 0.234495 0
M  V30 172 H 15.4629 -3.3306 -1.83988 0
M  V30 173 H 14.9749 -3.87972 -0.099718 0
M  V30 174 H 13.0759 -2.8862 -2.35646 0
M  V30 175 H 13.1889 -4.55572 -1.48295 0
M  V30 176 H 11.5529 -2.39022 -0.87981 0
M  V30 177 H 12.3359 -3.40345 0.44947 0
M  V30 178 N 14.781 0.264519 -1.55364 0
M  V30 179 C 16.006 1.01726 -1.80739 0
M  V30 180 C 16.431 1.78836 -0.583044 0
M  V30 181 O 15.789 1.75167 0.467566 0
M  V30 182 C 15.837 1.94482 -3.03659 0
M  V30 183 O 14.941 3.03386 -2.7934 0
M  V30 184 H 14.282 0.290395 -0.597132 0
M  V30 185 H 16.812 0.290854 -2.02522 0
M  V30 186 H 16.822 2.36278 -3.32621 0
M  V30 187 H 15.497 1.37772 -3.92418 0
M  V30 188 H 14.074 2.65844 -2.61498 0
M  V30 189 N 16.2591 1.48442 0.529413 0
M  V30 190 C 17.5081 1.55742 1.28169 0
M  V30 191 C 17.8211 0.236511 1.94165 0
M  V30 192 O 19.0271 0.187761 2.7085 0
M  V30 193 C 17.4831 2.74667 2.32564 0
M  V30 194 C 17.0911 4.13402 1.72636 0
M  V30 195 C 18.8351 2.9128 3.08798 0
M  V30 196 C 16.7421 5.23587 2.74975 0
M  V30 197 H 15.6721 0.579796 0.48203 0
M  V30 198 H 18.3231 1.74776 0.559056 0
M  V30 199 H 16.7051 2.49067 3.07866 0
M  V30 200 H 17.8791 4.49022 1.03519 0
M  V30 201 H 16.1941 4.0191 1.08892 0
M  V30 202 H 18.7911 3.70767 3.85274 0
M  V30 203 H 19.1341 2.00757 3.64695 0
M  V30 204 H 19.6671 3.16782 2.40611 0
M  V30 205 H 16.4061 6.16076 2.23897 0
M  V30 206 H 15.9261 4.92454 3.42417 0
M  V30 207 H 17.6051 5.51724 3.37949 0
M  V30 208 N 17.7372 -0.778329 1.37039 0
M  V30 209 C 18.9622 -1.57248 1.35233 0
M  V30 210 C 19.3872 -1.87999 -0.0615568 0
M  V30 211 O 18.7452 -1.48734 -1.03672 0
M  V30 212 C 18.7932 -2.86353 2.19167 0
M  V30 213 O 17.8972 -3.80442 1.59178 0
M  V30 214 H 17.2382 -0.476569 0.462362 0
M  V30 215 H 19.7682 -0.963853 1.80474 0
M  V30 216 H 19.7782 -3.35519 2.32145 0
M  V30 217 H 18.4532 -2.63299 3.21942 0
M  V30 218 H 17.0302 -3.39067 1.55203 0
M  V30 219 N 19.2153 -1.21501 -1.00376 0
M  V30 220 C 20.4613 -1.03452 -1.74429 0
M  V30 221 C 20.7943 0.430764 -1.89362 0
M  V30 222 O 20.0693 1.31962 -1.42886 0
M  V30 223 C 20.3523 -1.73375 -3.15615 0
M  V30 224 C 20.2053 -3.27431 -3.08397 0
M  V30 225 C 21.5243 -1.47732 -4.14564 0
M  V30 226 H 18.6433 -0.377226 -0.633143 0
M  V30 227 H 21.2853 -1.49693 -1.17013 0
M  V30 228 H 19.4353 -1.34064 -3.64636 0
M  V30 229 H 21.1073 -3.76119 -2.67081 0
M  V30 230 H 19.3503 -3.5767 -2.45468 0
M  V30 231 H 20.0213 -3.71524 -4.08258 0
M  V30 232 H 22.4973 -1.8186 -3.74254 0
M  V30 233 H 21.3733 -1.99169 -5.11491 0
M  V30 234 H 21.6343 -0.407589 -4.40217 0
M  V30 235 N 20.6934 1.19889 -1.02296 0
M  V30 236 C 21.9184 1.9393 -0.735237 0
M  V30 237 C 22.3434 1.74639 0.698782 0
M  V30 238 O 21.7014 1.04481 1.48167 0
M  V30 239 C 21.7494 3.43916 -1.08417 0
M  V30 240 O 20.8534 4.11917 -0.199446 0
M  V30 241 H 20.1944 0.605645 -0.272196 0
M  V30 242 H 22.7244 1.52137 -1.36804 0
M  V30 243 H 22.7344 3.9456 -1.03856 0
M  V30 244 H 21.4094 3.5728 -2.12894 0
M  V30 245 H 19.9864 3.71666 -0.303136 0
M  V30 246 N 22.1715 0.800033 1.35784 0
M  V30 247 C 23.0815 0.207204 2.33683 0
M  V30 248 C 24.0975 -0.64631 1.61551 0
M  V30 249 O 25.2735 -0.559604 1.93469 0
M  V30 250 C 22.3385 -0.639659 3.40748 0
M  V30 251 C 21.3995 0.233585 4.28664 0
M  V30 252 C 20.6325 -0.572954 5.30616 0
M  V30 253 O 20.8555 -1.80816 5.40982 0
M  V30 254 O 19.7895 0.0327285 6.01891 0
M  V30 255 H 23.6155 1.01692 2.86169 0
M  V30 256 H 21.2005 0.561691 1.38439 0
M  V30 257 H 23.0825 -1.12223 4.06182 0
M  V30 258 H 21.7575 -1.42708 2.90544 0
M  V30 259 H 20.6645 0.763147 3.66233 0
M  V30 260 H 21.9975 0.984784 4.82248 0
M  V30 261 N 23.6496 -1.47581 0.552962 0
M  V30 262 C 24.5826 -2.26883 -0.244857 0
M  V30 263 C 25.5606 -1.33784 -0.924147 0
M  V30 264 O 26.7446 -1.6316 -0.943981 0
M  V30 265 C 23.8716 -3.10695 -1.34856 0
M  V30 266 C 22.9176 -4.19339 -0.778268 0
M  V30 267 S 23.7506 -5.34207 0.37184 0
M  V30 268 C 24.9066 -6.21584 -0.733779 0
M  V30 269 H 25.1396 -2.94202 0.428087 0
M  V30 270 H 22.6726 -1.50628 0.339197 0
M  V30 271 H 24.6306 -3.59555 -1.98066 0
M  V30 272 H 23.2916 -2.42746 -1.99332 0
M  V30 273 H 22.4846 -4.77695 -1.60696 0
M  V30 274 H 22.0866 -3.73338 -0.222422 0
M  V30 275 H 24.3786 -6.57676 -1.62692 0
M  V30 276 H 25.3216 -7.07851 -0.187668 0
M  V30 277 H 25.7296 -5.55125 -1.02454 0
M  V30 278 N 25.1277 -0.289203 -1.54924 0
M  V30 279 C 26.0377 0.601863 -2.26748 0
M  V30 280 C 27.0537 1.15834 -1.2984 0
M  V30 281 O 28.2297 1.18564 -1.62802 0
M  V30 282 C 25.2947 1.76299 -2.98529 0
M  V30 283 C 24.3557 1.24178 -4.10948 0
M  V30 284 C 23.5887 2.34757 -4.79296 0
M  V30 285 O 23.8117 3.54411 -4.46933 0
M  V30 286 O 22.7457 2.02115 -5.66951 0
M  V30 287 H 26.5717 0.0195879 -3.03694 0
M  V30 288 H 24.1567 -0.0560868 -1.49295 0
M  V30 289 H 26.0387 2.43973 -3.43592 0
M  V30 290 H 24.7137 2.33209 -2.24488 0
M  V30 291 H 23.6207 0.531104 -3.70311 0
M  V30 292 H 24.9537 0.718252 -4.86931 0
M  V30 293 N 26.6058 1.57591 -0.0167156 0
M  V30 294 C 28.0168 1.79201 0.523834 0
M  V30 295 C 28.3678 0.925796 1.72984 0
M  V30 296 O 27.4928 0.132792 2.15992 0
M  V30 297 C 28.0878 3.25 0.957091 0
M  V30 298 C 26.6468 3.47648 1.44283 0
M  V30 299 C 25.7938 2.74374 0.401757 0
M  V30 300 H 28.7448 1.56831 -0.242816 0
M  V30 301 H 28.7658 3.34031 1.82219 0
M  V30 302 H 28.2778 3.88019 0.0791415 0
M  V30 303 H 26.3788 2.89866 2.34113 0
M  V30 304 H 26.4918 4.56352 1.45877 0
M  V30 305 H 24.8558 2.39485 0.867121 0
M  V30 306 H 25.6388 3.40102 -0.467513 0
M  V30 307 N 28.0839 -0.256276 1.55502 0
M  V30 308 C 29.0319 -1.33694 1.90338 0
M  V30 309 C 30.0259 -1.50299 0.781441 0
M  V30 310 O 31.2319 -1.51885 0.965966 0
M  V30 311 H 27.6069 -0.447483 0.60437 0
M  V30 312 H 29.5779 -1.01574 2.8058 0
M  V30 313 C 28.3269 -2.68724 2.20642 0
M  V30 314 H 27.6499 -2.56743 3.06469 0
M  V30 315 H 29.0899 -3.43237 2.48926 0
M  V30 316 C 27.5489 -3.21101 1.01959 0
M  V30 317 O 28.0789 -4.0084 0.262762 0
M  V30 318 N 26.2849 -2.79003 0.812746 0
M  V30 319 H 25.8319 -2.14271 1.42989 0
M  V30 320 H 25.7899 -3.14393 0.0203076 0
M  V30 321 N 29.562 -1.4872 -0.521534 0
M  V30 322 C 30.81 -1.56857 -1.27437 0
M  V30 323 C 31.131 -0.247982 -1.93417 0
M  V30 324 O 30.401 0.731151 -1.81744 0
M  V30 325 H 28.981 -0.577885 -0.473347 0
M  V30 326 H 31.643 -1.85233 -0.606205 0
M  V30 327 H 30.739 -2.35402 -2.0492 0
M  V30 328 N 31.0401 0.771051 -1.3745 0
M  V30 329 C 32.2681 1.56015 -1.35893 0
M  V30 330 C 32.6831 1.88718 0.0555523 0
M  V30 331 O 32.0401 1.51502 1.01752 0
M  V30 332 C 32.0911 2.87001 -2.19801 0
M  V30 333 O 31.8121 2.557 -3.55738 0
M  V30 334 C 33.3131 3.81228 -2.26231 0
M  V30 335 H 30.5331 0.483317 -0.465453 0
M  V30 336 H 33.0771 0.955611 -1.80799 0
M  V30 337 H 31.2321 3.43877 -1.78402 0
M  V30 338 H 31.6461 3.39584 -3.99729 0
M  V30 339 H 33.1201 4.70139 -2.89263 0
M  V30 340 H 33.5971 4.20409 -1.27093 0
M  V30 341 H 34.2031 3.30281 -2.67945 0
M  V30 342 N 32.5182 1.22032 0.997298 0
M  V30 343 C 33.7652 1.04222 1.73621 0
M  V30 344 C 34.0932 -0.423264 1.89839 0
M  V30 345 O 33.3482 -1.3302 1.43542 0
M  V30 346 C 33.6472 1.69345 3.14733 0
M  V30 347 C 33.3132 3.19226 3.18442 0
M  V30 348 C 31.9752 3.60124 3.19161 0
M  V30 349 C 34.3272 4.15181 3.15078 0
M  V30 350 C 31.6552 4.95467 3.14212 0
M  V30 351 C 34.0072 5.50495 3.1167 0
M  V30 352 C 32.6712 5.90779 3.10703 0
M  V30 353 H 31.9412 0.381374 0.635323 0
M  V30 354 H 34.5882 1.51732 1.16831 0
M  V30 355 H 32.8932 1.14147 3.74803 0
M  V30 356 H 34.5902 1.53059 3.7064 0
M  V30 357 H 31.1802 2.86659 3.18629 0
M  V30 358 H 35.3642 3.84605 3.13676 0
M  V30 359 H 30.6202 5.25916 3.11805 0
M  V30 360 H 34.7942 6.24576 3.08022 0
M  V30 361 H 32.4212 6.9562 3.06622 0
M  V30 362 N 33.9963 -1.19345 1.0293 0
M  V30 363 C 35.2213 -1.93538 0.745511 0
M  V30 364 C 35.6463 -1.75007 -0.689511 0
M  V30 365 O 35.0043 -1.05265 -1.47611 0
M  V30 366 C 35.0523 -3.43336 1.10239 0
M  V30 367 O 34.1563 -4.11806 0.221289 0
M  V30 368 H 33.4973 -0.604193 0.275404 0
M  V30 369 H 36.0273 -1.5141 1.37609 0
M  V30 370 H 36.0373 -3.94004 1.05947 0
M  V30 371 H 34.7123 -3.56146 2.14786 0
M  V30 372 H 33.2893 -3.715 0.322842 0
M  V30 373 N 35.4744 -0.807222 -1.35358 0
M  V30 374 C 36.4224 -0.20614 -2.31685 0
M  V30 375 C 37.4164 0.644445 -1.56663 0
M  V30 376 O 38.6224 0.537538 -1.71786 0
M  V30 377 H 34.9974 -0.0479006 -0.750473 0
M  V30 378 H 36.9684 -1.03369 -2.79924 0
M  V30 379 C 35.7174 0.630212 -3.41941 0
M  V30 380 H 35.0404 -0.0149558 -3.99797 0
M  V30 381 H 36.4804 1.01716 -4.11619 0
M  V30 382 C 34.9394 1.79601 -2.85035 0
M  V30 383 O 35.4694 2.89351 -2.78637 0
M  V30 384 N 33.6754 1.60774 -2.42074 0
M  V30 385 H 33.2224 0.715009 -2.47478 0
M  V30 386 H 33.1804 2.38933 -2.04349 0
M  V30 387 N 36.9525 1.47285 -0.560781 0
M  V30 388 C 37.9005 2.31756 0.197942 0
M  V30 389 C 38.8945 1.43146 0.905854 0
M  V30 390 O 40.1005 1.59891 0.826733 0
M  V30 391 H 36.4755 0.747438 0.0827049 0
M  V30 392 H 38.4465 2.9359 -0.533629 0
M  V30 393 C 37.1955 3.25874 1.21249 0
M  V30 394 H 36.5185 3.94023 0.67719 0
M  V30 395 H 37.9585 3.87803 1.71419 0
M  V30 396 C 36.4175 2.49651 2.26221 0
M  V30 397 O 36.9475 2.24355 3.33208 0
M  V30 398 N 35.1535 2.10597 2.00243 0
M  V30 399 H 34.7005 2.31369 1.13252 0
M  V30 400 H 34.6585 1.59913 2.70694 0
M  V30 401 N 38.4306 0.297415 1.54768 0
M  V30 402 C 39.3786 -0.596051 2.24833 0
M  V30 403 C 40.3726 -1.13992 1.25308 0
M  V30 404 O 41.5786 -1.09098 1.4317 0
M  V30 405 H 37.9536 -0.210814 0.721846 0
M  V30 406 H 39.9246 0.0174667 2.98395 0
M  V30 407 C 38.6736 -1.75818 2.99972 0
M  V30 408 H 37.9966 -1.3489 3.76357 0
M  V30 409 H 39.4366 -2.35949 3.52284 0
M  V30 410 C 37.8956 -2.66014 2.06732 0
M  V30 411 O 38.4256 -3.67009 1.63302 0
M  V30 412 N 36.6316 -2.33669 1.72763 0
M  V30 413 H 36.1786 -1.51586 2.08277 0
M  V30 414 H 36.1366 -2.94285 1.10652 0
M  V30 415 N 39.9087 -1.5758 0.0250728 0
M  V30 416 C 41.1337 -1.96337 -0.668317 0
M  V30 417 C 41.5587 -0.901314 -1.651 0
M  V30 418 O 40.9167 0.138187 -1.80773 0
M  V30 419 C 40.9647 -3.34191 -1.35457 0
M  V30 420 O 40.0687 -3.30269 -2.46974 0
M  V30 421 H 39.4097 -0.640281 -0.175887 0
M  V30 422 H 41.9397 -2.0442 0.0857224 0
M  V30 423 H 41.9497 -3.70331 -1.71228 0
M  V30 424 H 40.6247 -4.11036 -0.634218 0
M  V30 425 H 39.2017 -3.05841 -2.13344 0
M  V30 426 N 41.3868 0.248026 -1.55636 0
M  V30 427 C 42.8028 0.596483 -1.48035 0
M  V30 428 C 43.0028 1.88386 -0.715039 0
M  V30 429 O 42.0588 2.51319 -0.243944 0
M  V30 430 C 43.3718 0.700258 -2.92433 0
M  V30 431 C 44.9198 0.792659 -3.02797 0
M  V30 432 C 45.3948 0.928005 -4.485 0
M  V30 433 N 46.8858 0.992903 -4.52433 0
M  V30 434 C 47.6208 1.11687 -5.62418 0
M  V30 435 N 47.1168 1.20645 -6.82214 0
M  V30 436 N 48.9098 1.14994 -5.50212 0
M  V30 437 H 41.0608 -0.597109 -2.03834 0
M  V30 438 H 43.3238 -0.205925 -0.925364 0
M  V30 439 H 43.0298 -0.175658 -3.51261 0
M  V30 440 H 42.9038 1.57255 -3.42857 0
M  V30 441 H 45.2908 1.65903 -2.4405 0
M  V30 442 H 45.3718 -0.104762 -2.55585 0
M  V30 443 H 45.0158 0.0661971 -5.07857 0
M  V30 444 H 44.9458 1.84045 -4.93391 0
M  V30 445 H 47.4368 0.935064 -3.66149 0
M  V30 446 H 47.7498 1.30008 -7.61786 0
M  V30 447 H 46.0948 1.17605 -6.84977 0
M  V30 448 H 49.2858 1.07643 -4.55555 0
M  V30 449 H 49.4588 1.24311 -6.35965 0
M  V30 450 N 42.8649 1.48995 0.513639 0
M  V30 451 C 43.8129 1.65199 1.63744 0
M  V30 452 C 44.8069 0.51809 1.61283 0
M  V30 453 O 46.0129 0.697335 1.65943 0
M  V30 454 H 42.3879 0.52069 0.542574 0
M  V30 455 H 44.3589 2.59552 1.47226 0
M  V30 456 C 43.1079 1.72409 3.01945 0
M  V30 457 H 42.4309 2.59029 3.04539 0
M  V30 458 H 43.8709 1.87785 3.80148 0
M  V30 459 C 42.3299 0.46618 3.33659 0
M  V30 460 O 42.8599 -0.413744 3.99564 0
M  V30 461 N 41.0659 0.332931 2.88687 0
M  V30 462 H 40.6129 1.04996 2.35231 0
M  V30 463 H 40.5709 -0.507665 3.10274 0
M  V30 464 N 44.343 -0.763751 1.37857 0
M  V30 465 C 45.583 -1.53551 1.34913 0
M  V30 466 C 45.947 -1.91895 -0.0635882 0
M  V30 467 O 47.148 -2.67916 -0.217825 0
M  V30 468 C 45.419 -2.76126 2.26912 0
M  V30 469 S 46.978 -3.66105 2.41893 0
M  V30 470 H 43.796 -0.52559 0.478828 0
M  V30 471 H 46.398 -0.897435 1.73685 0
M  V30 472 H 45.102 -2.4605 3.28463 0
M  V30 473 H 44.633 -3.44887 1.89253 0
M  V30 474 H 46.648 -4.68473 1.63545 0
M  V30 475 N 45.8211 -1.22559 -0.990812 0
M  V30 476 C 47.0491 -1.07779 -1.76611 0
M  V30 477 C 47.4641 0.371513 -1.85109 0
M  V30 478 O 46.8211 1.25737 -1.32274 0
M  V30 479 C 46.8721 -1.68512 -3.19822 0
M  V30 480 O 46.5931 -3.07774 -3.1178 0
M  V30 481 C 48.0941 -1.59035 -4.13791 0
M  V30 482 H 45.3141 -0.377729 -0.554583 0
M  V30 483 H 47.8581 -1.62195 -1.24551 0
M  V30 484 H 46.0131 -1.18154 -3.68942 0
M  V30 485 H 46.4271 -3.37062 -4.01858 0
M  V30 486 H 47.9011 -2.0625 -5.1202 0
M  V30 487 H 48.3781 -0.547273 -4.35777 0
M  V30 488 H 48.9841 -2.08709 -3.70568 0
M  V30 489 N 47.2992 1.18797 -1.03562 0
M  V30 490 C 48.5482 1.87978 -0.731235 0
M  V30 491 C 48.8612 1.80911 0.743671 0
M  V30 492 O 50.0672 2.45407 1.16137 0
M  V30 493 C 48.5232 3.3721 -1.25768 0
M  V30 494 C 48.1312 3.52818 -2.76085 0
M  V30 495 C 49.8752 4.11825 -1.0296 0
M  V30 496 C 47.7822 4.9598 -3.22114 0
M  V30 497 H 46.7122 0.704063 -0.269835 0
M  V30 498 H 49.3632 1.34266 -1.25079 0
M  V30 499 H 47.7452 3.90359 -0.666011 0
M  V30 500 H 48.9192 3.09965 -3.40966 0
M  V30 501 H 47.2342 2.91602 -2.97249 0
M  V30 502 H 49.8312 5.17411 -1.34869 0
M  V30 503 H 50.1742 4.16287 0.0333546 0
M  V30 504 H 50.7072 3.64833 -1.58562 0
M  V30 505 H 47.4462 4.96684 -4.27768 0
M  V30 506 H 46.9662 5.39569 -2.61965 0
M  V30 507 H 48.6452 5.6467 -3.15844 0
M  V30 508 N 48.7773 0.814389 1.34928 0
M  V30 509 C 49.6873 0.231978 2.3345 0
M  V30 510 C 50.7033 -0.629139 1.62228 0
M  V30 511 O 51.8793 -0.539052 1.94052 0
M  V30 512 C 48.9443 -0.603482 3.41407 0
M  V30 513 C 48.0053 0.279037 4.28392 0
M  V30 514 C 47.2383 -0.516643 5.31193 0
M  V30 515 O 47.4613 -1.75068 5.4287 0
M  V30 516 O 46.3953 0.0965652 6.01823 0
M  V30 517 H 50.2213 1.04721 2.85074 0
M  V30 518 H 47.8063 0.576343 1.37836 0
M  V30 519 H 49.6883 -1.07908 4.0735 0
M  V30 520 H 48.3633 -1.39618 2.92042 0
M  V30 521 H 47.2703 0.801948 3.65403 0
M  V30 522 H 48.6033 1.03588 4.81176 0
M  V30 523 N 50.2554 -1.46986 0.568584 0
M  V30 524 C 51.2034 -2.31858 -0.185649 0
M  V30 525 C 52.1974 -1.43624 -0.898249 0
M  V30 526 O 53.4034 -1.60327 -0.818242 0
M  V30 527 H 49.7784 -0.747866 -0.0787399 0
M  V30 528 H 51.7494 -2.93303 0.549191 0
M  V30 529 C 50.4984 -3.26513 -1.19519 0
M  V30 530 H 49.8214 -3.94377 -0.656285 0
M  V30 531 H 51.2614 -3.88707 -1.6936 0
M  V30 532 C 49.7204 -2.50847 -2.24894 0
M  V30 533 O 50.2504 -2.26119 -3.32014 0
M  V30 534 N 48.4564 -2.11656 -1.99124 0
M  V30 535 H 48.0034 -2.31966 -1.12024 0
M  V30 536 H 47.9614 -1.61347 -2.69842 0
M  V30 537 N 51.7335 -0.305618 -1.54608 0
M  V30 538 C 52.9805 0.302298 -2.00231 0
M  V30 539 C 53.3085 1.5354 -1.19398 0
M  V30 540 O 52.5635 1.93973 -0.259423 0
M  V30 541 C 52.8625 0.698983 -3.50498 0
M  V30 542 C 52.5285 -0.432903 -4.48817 0
M  V30 543 C 51.1905 -0.743622 -4.75419 0
M  V30 544 C 53.5425 -1.19409 -5.07337 0
M  V30 545 C 50.8705 -1.81857 -5.57804 0
M  V30 546 C 53.2225 -2.25899 -5.90891 0
M  V30 547 C 51.8865 -2.57572 -6.15803 0
M  V30 548 H 51.1565 0.110619 -0.732697 0
M  V30 549 H 53.8035 -0.425674 -1.86709 0
M  V30 550 H 52.1085 1.50711 -3.61654 0
M  V30 551 H 53.8055 1.1806 -3.83227 0
M  V30 552 H 50.3955 -0.18063 -4.28219 0
M  V30 553 H 54.5795 -0.967295 -4.86782 0
M  V30 554 H 49.8355 -2.06864 -5.75341 0
M  V30 555 H 54.0095 -2.85335 -6.35261 0
M  V30 556 H 51.6365 -3.40998 -6.7943 0
M  V30 557 N 53.2116 1.57565 -0.0334293 0
M  V30 558 C 54.1586 2.10478 0.946981 0
M  V30 559 C 55.1286 1.00787 1.32027 0
M  V30 560 O 56.3136 1.28232 1.41284 0
M  V30 561 C 53.4536 2.63994 2.22263 0
M  V30 562 C 52.5666 3.87709 1.90541 0
M  V30 563 C 51.7016 4.29604 3.12433 0
M  V30 564 C 50.7406 5.46065 2.76549 0
M  V30 565 N 49.8776 5.83096 3.9108 0
M  V30 566 H 54.7176 2.93963 0.488846 0
M  V30 567 H 52.2546 1.45296 0.22969 0
M  V30 568 H 54.2126 2.93114 2.96884 0
M  V30 569 H 52.8426 1.83333 2.65685 0
M  V30 570 H 51.8946 3.65291 1.06144 0
M  V30 571 H 53.2066 4.72403 1.60116 0
M  V30 572 H 52.3606 4.60182 3.9537 0
M  V30 573 H 51.0996 3.43685 3.46023 0
M  V30 574 H 50.1046 5.15176 1.92026 0
M  V30 575 H 51.3296 6.33685 2.44171 0
M  V30 576 H 49.2756 5.00132 4.24504 0
M  V30 577 H 49.1926 6.6244 3.64293 0
M  V30 578 H 50.4606 6.18282 4.74708 0
M  V30 579 N 54.6897 -0.239769 1.55765 0
M  V30 580 C 56.1057 -0.588624 1.48349 0
M  V30 581 C 56.3057 -1.88005 0.72502 0
M  V30 582 O 55.3617 -2.51186 0.257269 0
M  V30 583 C 56.6747 -0.68474 2.928 0
M  V30 584 C 58.2227 -0.77659 3.03213 0
M  V30 585 C 58.6977 -0.904207 4.48986 0
M  V30 586 N 60.1887 -0.968896 4.52953 0
M  V30 587 C 60.9237 -1.08703 5.63002 0
M  V30 588 N 60.4197 -1.17026 6.82845 0
M  V30 589 N 62.2127 -1.12074 5.50814 0
M  V30 590 H 54.3637 0.607911 2.03515 0
M  V30 591 H 56.6267 0.21083 0.924259 0
M  V30 592 H 56.3327 0.194284 3.51163 0
M  V30 593 H 56.2067 -1.55435 3.43686 0
M  V30 594 H 58.5937 -1.64606 2.44926 0
M  V30 595 H 58.6747 0.118315 2.55526 0
M  V30 596 H 58.3187 -0.0392633 5.07885 0
M  V30 597 H 58.2487 -1.81426 4.9436 0
M  V30 598 H 60.7397 -0.915633 3.6664 0
M  V30 599 H 61.0527 -1.25966 7.62465 0
M  V30 600 H 59.3977 -1.13971 6.85591 0
M  V30 601 H 62.5887 -1.05226 4.5612 0
M  V30 602 H 62.7617 -1.20936 6.36615 0
M  V30 603 N 56.1678 -1.49265 -0.50573 0
M  V30 604 C 57.0778 -1.68312 -1.63427 0
M  V30 605 C 58.0938 -0.565682 -1.64548 0
M  V30 606 O 59.2698 -0.839801 -1.83055 0
M  V30 607 C 56.3348 -1.74107 -2.99813 0
M  V30 608 C 55.3958 -2.97653 -3.09356 0
M  V30 609 C 54.6288 -3.03163 -4.39236 0
M  V30 610 O 54.8518 -2.16396 -5.27758 0
M  V30 611 O 53.7858 -3.9558 -4.53652 0
M  V30 612 H 57.6118 -2.63907 -1.50289 0
M  V30 613 H 55.1968 -1.32951 -0.681502 0
M  V30 614 H 57.0788 -1.803 -3.80881 0
M  V30 615 H 55.7538 -0.816901 -3.13223 0
M  V30 616 H 54.6608 -2.96981 -2.27493 0
M  V30 617 H 55.9938 -3.89535 -3.00871 0
M  V30 618 N 57.6459 0.756429 -1.3826 0
M  V30 619 C 58.8929 1.51547 -1.34312 0
M  V30 620 C 59.2209 1.94382 0.0677144 0
M  V30 621 O 58.4759 1.65514 1.04421 0
M  V30 622 C 58.7749 2.78313 -2.24224 0
M  V30 623 C 58.4409 2.54455 -3.72241 0
M  V30 624 C 57.1029 2.47657 -4.12576 0
M  V30 625 C 59.4549 2.3354 -4.65949 0
M  V30 626 C 56.7829 2.17956 -5.44713 0
M  V30 627 C 59.1349 2.05359 -5.9834 0
M  V30 628 C 57.7989 1.97016 -6.37762 0
M  V30 629 H 57.0689 0.55455 -0.491482 0
M  V30 630 H 59.7159 0.870039 -1.70595 0
M  V30 631 H 58.0209 3.47492 -1.80987 0
M  V30 632 H 59.7179 3.36259 -2.18474 0
M  V30 633 H 56.3079 2.60616 -3.40261 0
M  V30 634 H 60.4919 2.37772 -4.35635 0
M  V30 635 H 55.7479 2.10003 -5.74203 0
M  V30 636 H 59.9219 1.88179 -6.70494 0
M  V30 637 H 57.5489 1.73766 -7.40074 0
M  V30 638 N 59.124 1.23083 0.984299 0
M  V30 639 C 60.371 1.06057 1.72505 0
M  V30 640 C 60.699 -0.403105 1.90277 0
M  V30 641 O 59.954 -1.3149 1.44944 0
M  V30 642 C 60.253 1.72673 3.1292 0
M  V30 643 C 59.919 3.22586 3.15038 0
M  V30 644 C 58.581 3.63489 3.15324 0
M  V30 645 C 60.933 4.185 3.10657 0
M  V30 646 C 58.261 4.98772 3.08939 0
M  V30 647 C 60.613 5.53769 3.05814 0
M  V30 648 C 59.277 5.94041 3.04419 0
M  V30 649 H 58.547 0.388091 0.631242 0
M  V30 650 H 61.194 1.52963 1.15215 0
M  V30 651 H 59.499 1.18116 3.73572 0
M  V30 652 H 61.196 1.56982 3.68996 0
M  V30 653 H 57.786 2.90022 3.15571 0
M  V30 654 H 61.97 3.87911 3.09579 0
M  V30 655 H 57.226 5.29193 3.0621 0
M  V30 656 H 61.4 6.27808 3.0138 0
M  V30 657 H 59.027 6.98833 2.99227 0
M  V30 658 N 60.6021 -1.18246 1.0419 0
M  V30 659 C 62.0131 -1.69914 0.773698 0
M  V30 660 C 62.3641 -1.83085 -0.705297 0
M  V30 661 O 61.4891 -1.51123 -1.5489 0
M  V30 662 C 62.0841 -3.08619 1.39784 0
M  V30 663 C 60.6431 -3.57494 1.17792 0
M  V30 664 C 59.7901 -2.34013 1.48773 0
M  V30 665 H 62.7411 -1.02904 1.20816 0
M  V30 666 H 62.7621 -3.71958 0.801714 0
M  V30 667 H 62.2741 -2.99001 2.47426 0
M  V30 668 H 60.3751 -3.72406 0.120295 0
M  V30 669 H 60.4881 -4.40852 1.87581 0
M  V30 670 H 58.8521 -2.37986 0.907463 0
M  V30 671 H 59.6351 -2.27013 2.57527 0
M  V30 672 N 62.0802 -0.821533 -1.34494 0
M  V30 673 C 63.3292 -0.405355 -1.97585 0
M  V30 674 C 63.6422 1.03677 -1.65863 0
M  V30 675 O 64.8482 1.55679 -2.22433 0
M  V30 676 C 63.3042 -0.673861 -3.53535 0
M  V30 677 C 62.9122 -2.12951 -3.94152 0
M  V30 678 C 64.6562 -0.32378 -4.23263 0
M  V30 679 C 62.5632 -2.34298 -5.43009 0
M  V30 680 H 61.4932 -0.147836 -0.739365 0
M  V30 681 H 64.1442 -1.00769 -1.53355 0
M  V30 682 H 62.5262 -0.00137554 -3.96 0
M  V30 683 H 63.7002 -2.84104 -3.62797 0
M  V30 684 H 62.0152 -2.44089 -3.37356 0
M  V30 685 H 64.6122 -0.461126 -5.32708 0
M  V30 686 H 64.9552 0.731586 -4.09821 0
M  V30 687 H 65.4882 -0.950786 -3.8627 0
M  V30 688 H 62.2272 -3.38335 -5.61435 0
M  V30 689 H 61.7472 -1.67687 -5.75883 0
M  V30 690 H 63.4262 -2.16588 -6.09671 0
M  V30 691 N 63.5583 1.46682 -0.576371 0
M  V30 692 C 64.8043 2.02712 -0.0596221 0
M  V30 693 C 65.1373 1.44765 1.29448 0
M  V30 694 O 64.4123 0.610355 1.84675 0
M  V30 695 C 64.6953 3.60098 0.0129503 0
M  V30 696 C 64.5483 4.28441 -1.3696 0
M  V30 697 C 65.8673 4.34224 0.71678 0
M  V30 698 H 62.9863 0.736637 -0.0231407 0
M  V30 699 H 65.6283 1.74898 -0.742351 0
M  V30 700 H 63.7783 3.83926 0.594378 0
M  V30 701 H 65.4503 4.15896 -1.9957 0
M  V30 702 H 63.6933 3.8805 -1.93907 0
M  V30 703 H 64.3643 5.3716 -1.27135 0
M  V30 704 H 66.8403 4.15503 0.222908 0
M  V30 705 H 65.7163 5.43936 0.73657 0
M  V30 706 H 65.9773 4.04823 1.77682 0
M  V30 707 N 65.0364 0.313813 1.54444 0
M  V30 708 C 66.2664 -0.293491 2.04505 0
M  V30 709 C 66.6744 -1.47086 1.19005 0
M  V30 710 O 66.0174 -1.82481 0.211257 0
M  V30 711 C 66.0794 -0.800455 3.50475 0
M  V30 712 C 65.7434 0.253322 4.56297 0
M  V30 713 C 66.7404 1.08612 5.08428 0
M  V30 714 C 64.4254 0.398708 5.00715 0
M  V30 715 C 66.4194 2.05013 6.0353 0
M  V30 716 C 64.1064 1.36614 5.95634 0
M  V30 717 C 65.1044 2.19033 6.46926 0
M  V30 718 O 64.7924 3.14134 7.39983 0
M  V30 719 H 64.5244 -0.0658325 0.672787 0
M  V30 720 H 67.0784 0.455177 2.00293 0
M  V30 721 H 65.3084 -1.59987 3.52053 0
M  V30 722 H 66.9974 -1.32504 3.83663 0
M  V30 723 H 67.7634 0.984736 4.74898 0
M  V30 724 H 63.6424 -0.23289 4.60411 0
M  V30 725 H 67.1864 2.69382 6.4349 0
M  V30 726 H 63.0834 1.4682 6.28581 0
M  V30 727 H 63.8514 3.0926 7.57826 0
M  V30 728 N 66.5145 -1.57545 0.0417849 0
M  V30 729 C 67.4445 -2.14009 -0.933929 0
M  V30 730 C 68.4255 -1.05938 -1.33083 0
M  V30 731 O 69.6105 -1.33833 -1.40721 0
M  V30 732 C 66.7405 -2.67747 -2.21199 0
M  V30 733 C 65.6945 -3.80718 -1.95544 0
M  V30 734 C 65.0205 -4.20935 -3.29724 0
M  V30 735 C 66.3205 -5.06258 -1.28452 0
M  V30 736 H 68.0145 -2.95788 -0.463645 0
M  V30 737 H 65.5605 -1.42285 -0.221573 0
M  V30 738 H 67.5135 -3.05886 -2.89848 0
M  V30 739 H 66.2375 -1.83147 -2.70416 0
M  V30 740 H 64.8965 -3.43037 -1.2931 0
M  V30 741 H 64.5445 -3.33298 -3.76724 0
M  V30 742 H 64.2445 -4.9707 -3.13361 0
M  V30 743 H 65.7685 -4.61666 -3.9962 0
M  V30 744 H 67.1825 -5.41903 -1.8712 0
M  V30 745 H 65.5795 -5.87475 -1.22445 0
M  V30 746 H 66.6495 -4.84207 -0.259219 0
M  V30 747 N 67.9926 0.231505 -1.5589 0
M  V30 748 C 69.2416 0.955346 -1.7764 0
M  V30 749 C 69.5546 1.85893 -0.608546 0
M  V30 750 O 70.7606 2.62067 -0.70943 0
M  V30 751 C 69.2166 1.74886 -3.14552 0
M  V30 752 C 68.8246 0.891915 -4.39032 0
M  V30 753 C 70.5686 2.46452 -3.45633 0
M  V30 754 C 68.4756 1.68221 -5.66971 0
M  V30 755 H 67.4056 0.360446 -0.662265 0
M  V30 756 H 70.0566 0.209516 -1.823 0
M  V30 757 H 68.4386 2.53723 -3.04041 0
M  V30 758 H 69.6126 0.144793 -4.60572 0
M  V30 759 H 67.9276 0.288863 -4.15397 0
M  V30 760 H 70.5246 3.06061 -4.38441 0
M  V30 761 H 70.8676 3.18841 -2.67668 0
M  V30 762 H 71.4006 1.74613 -3.57428 0
M  V30 763 H 68.1396 1.00178 -6.478 0
M  V30 764 H 67.6596 2.4042 -5.49507 0
M  V30 765 H 69.3386 2.24544 -6.06786 0
M  V30 766 N 69.4707 1.49531 0.497807 0
M  V30 767 C 70.7197 1.58426 1.24837 0
M  V30 768 C 71.0327 0.277643 1.93619 0
M  V30 769 O 72.2387 0.24517 2.70391 0
M  V30 770 C 70.6947 2.79538 2.26686 0
M  V30 771 C 70.3027 4.16971 1.63828 0
M  V30 772 C 72.0467 2.97764 3.0255 0
M  V30 773 C 69.9537 5.29301 2.63807 0
M  V30 774 H 68.8837 0.58989 0.469623 0
M  V30 775 H 71.5347 1.75923 0.521857 0
M  V30 776 H 69.9167 2.55542 3.02514 0
M  V30 777 H 71.0907 4.51116 0.939711 0
M  V30 778 H 69.4057 4.04129 1.00342 0
M  V30 779 H 72.0027 3.78856 3.77323 0
M  V30 780 H 72.3457 2.08448 3.60354 0
M  V30 781 H 72.8787 3.21815 2.33838 0
M  V30 782 H 69.6177 6.20687 2.10779 0
M  V30 783 H 69.1377 4.99606 3.31894 0
M  V30 784 H 70.8167 5.58768 3.2617 0
M  V30 785 N 70.9488 -0.749086 1.3866 0
M  V30 786 C 72.1958 -1.50833 1.35114 0
M  V30 787 C 72.5238 -1.94415 -0.0574049 0
M  V30 788 O 71.7788 -1.66065 -1.03541 0
M  V30 789 C 72.0778 -2.7712 2.25697 0
M  V30 790 C 71.7438 -2.52477 3.73585 0
M  V30 791 C 70.4058 -2.45466 4.13884 0
M  V30 792 C 72.7578 -2.31066 4.67181 0
M  V30 793 C 70.0858 -2.15064 5.45861 0
M  V30 794 C 72.4378 -2.02183 5.9942 0
M  V30 795 C 71.1018 -1.93631 6.38798 0
M  V30 796 H 70.3718 -0.551936 0.494416 0
M  V30 797 H 73.0188 -0.860979 1.71054 0
M  V30 798 H 71.3238 -3.46528 1.82827 0
M  V30 799 H 73.0208 -3.35096 2.20254 0
M  V30 800 H 69.6108 -2.58807 3.41638 0
M  V30 801 H 73.7948 -2.35459 4.3689 0
M  V30 802 H 69.0508 -2.06954 5.75308 0
M  V30 803 H 73.2248 -1.8462 6.71482 0
M  V30 804 H 70.8518 -1.69839 7.40985 0
M  V30 805 N 72.4269 -1.23603 -0.977757 0
M  V30 806 C 73.6739 -1.06971 -1.71941 0
M  V30 807 C 74.0019 0.393009 -1.90488 0
M  V30 808 O 73.2569 1.30719 -1.4564 0
M  V30 809 C 73.5559 -1.7433 -3.11999 0
M  V30 810 C 73.2219 -3.24252 -3.13323 0
M  V30 811 C 71.8839 -3.65156 -3.13392 0
M  V30 812 C 74.2359 -4.20141 -3.08433 0
M  V30 813 C 71.5639 -5.00403 -3.0629 0
M  V30 814 C 73.9159 -5.55384 -3.02873 0
M  V30 815 C 72.5799 -5.95647 -3.01265 0
M  V30 816 H 71.8499 -0.391433 -0.629175 0
M  V30 817 H 74.4969 -1.53572 -1.14403 0
M  V30 818 H 72.8019 -1.20096 -3.7294 0
M  V30 819 H 74.4989 -1.58936 -3.68158 0
M  V30 820 H 71.0889 -2.91692 -3.14029 0
M  V30 821 H 75.2729 -3.89547 -3.07517 0
M  V30 822 H 70.5289 -5.3081 -3.03399 0
M  V30 823 H 74.7029 -6.29398 -2.98046 0
M  V30 824 H 72.3299 -7.0041 -2.95516 0
M  V30 825 N 73.905 1.17692 -1.04816 0
M  V30 826 C 75.151 1.88389 -0.766892 0
M  V30 827 C 75.506 1.79282 0.698269 0
M  V30 828 O 74.799 1.18739 1.50372 0
M  V30 829 C 74.993 3.37462 -1.17703 0
M  V30 830 C 74.822 3.6108 -2.68051 0
M  V30 831 C 73.592 3.78018 -3.35307 0
M  V30 832 C 75.79 3.61039 -3.66273 0
M  V30 833 N 73.772 3.89444 -4.74559 0
M  V30 834 C 75.143 3.78269 -4.91235 0
M  V30 835 C 77.198 3.44168 -3.59796 0
M  V30 836 C 75.901 3.80376 -6.10497 0
M  V30 837 C 77.927 3.4756 -4.78493 0
M  V30 838 C 77.289 3.65295 -6.02278 0
M  V30 839 H 73.388 0.707651 -0.332798 0
M  V30 840 H 75.972 1.41314 -1.33934 0
M  V30 841 H 74.143 3.83214 -0.63257 0
M  V30 842 H 75.875 3.95759 -0.845989 0
M  V30 843 H 72.63 3.77714 -2.85708 0
M  V30 844 H 73.054 3.98962 -5.46954 0
M  V30 845 H 77.696 3.29396 -2.65062 0
M  V30 846 H 75.414 3.93933 -7.05579 0
M  V30 847 H 79 3.3577 -4.75131 0
M  V30 848 H 77.88 3.6782 -6.92588 0
M  V30 849 N 75.3831 0.828654 1.34056 0
M  V30 850 C 76.6311 0.41863 1.97717 0
M  V30 851 C 76.9521 -1.02314 1.66002 0
M  V30 852 O 76.2221 -1.71119 0.953683 0
M  V30 853 H 74.8021 0.151809 0.731412 0
M  V30 854 H 77.4641 1.05936 1.63596 0
M  V30 855 H 76.5601 0.542318 3.07352 0
M  V30 856 N 76.8612 -1.46375 0.584142 0
M  V30 857 C 78.1072 -2.02678 0.0703716 0
M  V30 858 C 78.4402 -1.4545 -1.28678 0
M  V30 859 O 77.7152 -0.62014 -1.84349 0
M  V30 860 C 77.9982 -3.60099 0.00614674 0
M  V30 861 C 77.8512 -4.27709 1.3923 0
M  V30 862 C 79.1702 -4.34598 -0.693742 0
M  V30 863 H 76.2892 -0.736504 0.027047 0
M  V30 864 H 78.9312 -1.74501 0.751615 0
M  V30 865 H 77.0812 -3.84236 -0.574009 0
M  V30 866 H 78.7532 -4.14832 2.01773 0
M  V30 867 H 76.9962 -3.87016 1.95962 0
M  V30 868 H 77.6672 -5.36478 1.29982 0
M  V30 869 H 80.1432 -4.15615 -0.200869 0
M  V30 870 H 79.0192 -5.44318 -0.707714 0
M  V30 871 H 79.2802 -4.05759 -1.75533 0
M  V30 872 N 78.3393 -0.321999 -1.54275 0
M  V30 873 C 79.2693 0.537411 -2.27231 0
M  V30 874 C 80.2503 1.12064 -1.27968 0
M  V30 875 O 81.4353 1.14606 -1.56777 0
M  V30 876 C 78.5653 1.69919 -3.02894 0
M  V30 877 C 77.5193 1.24534 -4.09482 0
M  V30 878 C 76.8453 2.49394 -4.72977 0
M  V30 879 C 78.1453 0.361335 -5.21049 0
M  V30 880 H 79.8393 -0.0711406 -2.99315 0
M  V30 881 H 77.3853 -0.0356555 -1.43956 0
M  V30 882 H 79.3383 2.30668 -3.52662 0
M  V30 883 H 78.0623 2.33431 -2.28424 0
M  V30 884 H 76.7213 0.660782 -3.60596 0
M  V30 885 H 76.3693 3.11265 -3.95124 0
M  V30 886 H 76.0693 2.19718 -5.44975 0
M  V30 887 H 77.5933 3.10908 -5.25517 0
M  V30 888 H 79.0073 0.875072 -5.66582 0
M  V30 889 H 77.4043 0.157428 -5.99893 0
M  V30 890 H 78.4743 -0.60822 -4.8107 0
M  V30 891 N 79.8174 1.5752 -0.0501392 0
M  V30 892 C 81.0654 1.9227 0.622642 0
M  V30 893 C 81.3864 0.929083 1.71444 0
M  V30 894 O 80.6564 -0.0262186 1.95882 0
M  V30 895 H 79.2364 0.709739 0.232981 0
M  V30 896 H 81.8984 1.94628 -0.102898 0
M  V30 897 H 80.9944 2.93479 1.06191 0
M  V30 898 N 81.2955 -0.223234 1.56011 0
M  V30 899 C 82.2435 -1.29627 1.93131 0
M  V30 900 C 83.2375 -1.48608 0.813146 0
M  V30 901 O 84.4435 -1.49802 0.997966 0
M  V30 902 H 80.8185 -0.434563 0.613726 0
M  V30 903 H 82.7895 -0.955995 2.82672 0
M  V30 904 C 81.5385 -2.63983 2.26292 0
M  V30 905 H 80.8615 -2.50185 3.11846 0
M  V30 906 H 82.3015 -3.3788 2.56151 0
M  V30 907 C 80.7605 -3.18866 1.08747 0
M  V30 908 O 81.2905 -4.00192 0.347727 0
M  V30 909 N 79.4965 -2.77217 0.871743 0
M  V30 910 H 79.0435 -2.1119 1.47501 0
M  V30 911 H 79.0015 -3.1428 0.0869905 0
M  V30 912 N 82.7736 -1.49793 -0.48987 0
M  V30 913 C 84.0216 -1.59525 -1.24081 0
M  V30 914 C 84.3426 -0.288953 -1.92847 0
M  V30 915 O 83.6126 0.692436 -1.83254 0
M  V30 916 H 82.1926 -0.587796 -0.460983 0
M  V30 917 H 84.8546 -1.86477 -0.566778 0
M  V30 918 H 83.9506 -2.39696 -1.99881 0
M  V30 919 N 84.2517 0.741722 -1.39055 0
M  V30 920 C 85.1817 1.869 -1.39966 0
M  V30 921 C 86.1627 1.6804 -0.26392 0
M  V30 922 O 87.3477 1.88458 -0.468755 0
M  V30 923 C 84.4777 3.24572 -1.23574 0
M  V30 924 C 83.4317 3.58056 -2.34477 0
M  V30 925 C 82.7577 4.94593 -2.0318 0
M  V30 926 C 84.0577 3.61716 -3.76774 0
M  V30 927 H 85.7517 1.86395 -2.34302 0
M  V30 928 H 83.2977 0.895361 -1.1278 0
M  V30 929 H 85.2507 4.031 -1.22834 0
M  V30 930 H 83.9747 3.25587 -0.257045 0
M  V30 931 H 82.6337 2.81854 -2.34423 0
M  V30 932 H 82.2817 4.92181 -1.03765 0
M  V30 933 H 81.9817 5.17964 -2.77465 0
M  V30 934 H 83.5057 5.75486 -2.04079 0
M  V30 935 H 84.9197 4.30335 -3.78794 0
M  V30 936 H 83.3167 3.96603 -4.50362 0
M  V30 937 H 84.3867 2.61672 -4.08235 0
M  V30 938 N 85.7298 1.2412 0.971189 0
M  V30 939 C 86.9548 1.10667 1.75407 0
M  V30 940 C 87.3798 -0.337048 1.85056 0
M  V30 941 O 86.7378 -1.24396 1.31892 0
M  V30 942 C 86.7858 1.74726 3.15441 0
M  V30 943 O 85.8898 1.01566 3.99697 0
M  V30 944 H 85.2308 0.387341 0.539317 0
M  V30 945 H 87.7608 1.64358 1.2185 0
M  V30 946 H 87.7708 1.80341 3.6598 0
M  V30 947 H 86.4458 2.79773 3.07734 0
M  V30 948 H 85.0228 1.03713 3.58187 0
M  V30 949 N 87.2079 -1.17134 1.05439 0
M  V30 950 C 88.4569 -1.86791 0.761049 0
M  V30 951 C 88.7699 -1.82072 -0.714795 0
M  V30 952 O 89.9759 -2.47223 -1.12218 0
M  V30 953 C 88.4319 -3.35166 1.31117 0
M  V30 954 C 88.0399 -3.48381 2.81664 0
M  V30 955 C 89.7839 -4.10134 1.09499 0
M  V30 956 C 87.6909 -4.90793 3.29964 0
M  V30 957 H 86.6209 -0.699681 0.281002 0
M  V30 958 H 89.2719 -1.3226 1.27199 0
M  V30 959 H 87.6539 -3.8925 0.72803 0
M  V30 960 H 88.8279 -3.04502 3.45855 0
M  V30 961 H 87.1429 -2.86836 3.01851 0
M  V30 962 H 89.7399 -5.152 1.43084 0
M  V30 963 H 90.0829 -4.16287 0.0328772 0
M  V30 964 H 90.6159 -3.62264 1.64346 0
M  V30 965 H 87.3549 -4.89816 4.35616 0
M  V30 966 H 86.8749 -5.35333 2.70516 0
M  V30 967 H 88.5539 -5.59573 3.24787 0
M  V30 968 N 88.686 -0.835752 -1.33615 0
M  V30 969 C 89.916 -0.442701 -2.01801 0
M  V30 970 C 90.324 0.959807 -1.63047 0
M  V30 971 O 89.667 1.63468 -0.838088 0
M  V30 972 C 89.729 -0.480125 -3.56279 0
M  V30 973 C 89.393 -1.8382 -4.18401 0
M  V30 974 C 90.39 -2.80097 -4.37998 0
M  V30 975 C 88.075 -2.13019 -4.54894 0
M  V30 976 C 90.069 -4.03736 -4.9323 0
M  V30 977 C 87.756 -3.36916 -5.09834 0
M  V30 978 C 88.754 -4.32091 -5.28948 0
M  V30 979 O 88.442 -5.53797 -5.82721 0
M  V30 980 H 88.174 -0.17441 -0.653114 0
M  V30 981 H 90.728 -1.129 -1.71589 0
M  V30 982 H 88.958 0.262931 -3.85805 0
M  V30 983 H 90.647 -0.105335 -4.05763 0
M  V30 984 H 91.413 -2.58838 -4.10156 0
M  V30 985 H 87.292 -1.39733 -4.39313 0
M  V30 986 H 90.836 -4.78034 -5.08064 0
M  V30 987 H 86.733 -3.58033 -5.37106 0
M  V30 988 H 87.501 -5.55494 -6.0114 0
M  V30 989 N 90.1641 1.46063 -0.591896 0
M  V30 990 C 91.4101 2.02638 -0.0811191 0
M  V30 991 C 91.7431 1.4613 1.27905 0
M  V30 992 O 91.0181 0.629908 1.84017 0
M  V30 993 C 91.3011 3.60091 -0.0252436 0
M  V30 994 C 91.1541 4.26965 -1.41496 0
M  V30 995 C 92.4731 4.3496 0.670685 0
M  V30 996 H 89.5921 0.73635 -0.0309524 0
M  V30 997 H 92.2341 1.741 -0.760859 0
M  V30 998 H 90.3841 3.84535 0.553624 0
M  V30 999 H 92.0561 4.13756 -2.0397 0
M  V30 1000 H 90.2991 3.85971 -1.98011 0
M  V30 1001 H 90.9701 5.35781 -1.32825 0
M  V30 1002 H 93.4461 4.15716 0.178825 0
M  V30 1003 H 92.3221 5.44686 0.678837 0
M  V30 1004 H 92.5831 4.06685 1.73379 0
M  V30 1005 N 91.6422 0.330177 1.54103 0
M  V30 1006 C 92.8892 -0.270405 2.00686 0
M  V30 1007 C 93.2172 -1.51621 1.21825 0
M  V30 1008 O 92.4722 -1.93536 0.29025 0
M  V30 1009 C 92.7712 -0.643134 3.51566 0
M  V30 1010 C 92.4372 0.504251 4.48072 0
M  V30 1011 C 91.0992 0.819163 4.74176 0
M  V30 1012 C 93.4512 1.27465 5.05373 0
M  V30 1013 C 90.7792 1.90708 5.5484 0
M  V30 1014 C 93.1312 2.35271 5.87223 0
M  V30 1015 C 91.7952 2.67336 6.11627 0
M  V30 1016 H 91.0652 -0.0989482 0.734364 0
M  V30 1017 H 93.7122 0.455324 1.86008 0
M  V30 1018 H 92.0172 -1.44938 3.64006 0
M  V30 1019 H 93.7142 -1.11949 3.85056 0
M  V30 1020 H 90.3042 0.248733 4.27878 0
M  V30 1021 H 94.4882 1.04462 4.85182 0
M  V30 1022 H 89.7442 2.15991 5.71977 0
M  V30 1023 H 93.9182 2.95405 6.30641 0
M  V30 1024 H 91.5452 3.51763 6.73919 0
M  V30 1025 N 93.1203 -1.57491 0.0584922 0
M  V30 1026 C 94.0503 -2.14988 -0.911178 0
M  V30 1027 C 95.0313 -1.07343 -1.31952 0
M  V30 1028 O 96.2163 -1.35318 -1.39294 0
M  V30 1029 C 93.3463 -2.70078 -2.18347 0
M  V30 1030 C 92.3003 -3.82771 -1.91495 0
M  V30 1031 C 91.6263 -4.24408 -3.25241 0
M  V30 1032 C 92.9263 -5.07592 -1.23075 0
M  V30 1033 H 94.6203 -2.96263 -0.432246 0
M  V30 1034 H 92.1663 -1.42512 -0.206469 0
M  V30 1035 H 94.1193 -3.08943 -2.86587 0
M  V30 1036 H 92.8433 -1.86005 -2.68458 0
M  V30 1037 H 91.5023 -3.44389 -1.25664 0
M  V30 1038 H 91.1503 -3.37275 -3.73168 0
M  V30 1039 H 90.8503 -5.00366 -3.08071 0
M  V30 1040 H 92.3743 -4.65879 -3.94701 0
M  V30 1041 H 93.7883 -5.43857 -1.81362 0
M  V30 1042 H 92.1853 -5.88741 -1.16207 0
M  V30 1043 H 93.2553 -4.84454 -0.207847 0
M  V30 1044 N 94.5984 0.214957 -1.56127 0
M  V30 1045 C 95.5304 1.29004 -1.89448 0
M  V30 1046 C 96.5434 1.42716 -0.783326 0
M  V30 1047 O 97.7324 1.43496 -1.06166 0
M  V30 1048 C 94.8324 2.66482 -2.09381 0
M  V30 1049 C 94.0054 2.74633 -3.40434 0
M  V30 1050 C 93.0644 3.9317 -3.49719 0
M  V30 1051 O 92.0904 3.812 -4.227 0
M  V30 1052 N 93.2924 5.07765 -2.81346 0
M  V30 1053 H 96.0574 1.00743 -2.82261 0
M  V30 1054 H 93.6184 0.40497 -1.56753 0
M  V30 1055 H 95.6104 3.44173 -2.12901 0
M  V30 1056 H 94.1804 2.87314 -1.23163 0
M  V30 1057 H 93.4004 1.83368 -3.48955 0
M  V30 1058 H 94.6884 2.77054 -4.26754 0
M  V30 1059 H 94.0864 5.20386 -2.21843 0
M  V30 1060 H 92.6434 5.83474 -2.90519 0
M  V30 1061 N 96.0765 1.50051 0.48192 0
M  V30 1062 C 97.4875 1.5348 1.06305 0
M  V30 1063 C 97.8385 0.331997 1.93371 0
M  V30 1064 O 96.9635 -0.556256 2.09129 0
M  V30 1065 C 97.5585 2.7813 1.93466 0
M  V30 1066 C 96.1175 2.84275 2.46707 0
M  V30 1067 C 95.2645 2.47637 1.24785 0
M  V30 1068 H 98.2155 1.56472 0.264995 0
M  V30 1069 H 98.2365 2.59372 2.78399 0
M  V30 1070 H 97.7485 3.65654 1.30072 0
M  V30 1071 H 95.8495 2.01077 3.13686 0
M  V30 1072 H 95.9625 3.8691 2.82555 0
M  V30 1073 H 94.3265 1.99835 1.57918 0
M  V30 1074 H 95.1095 3.37457 0.630694 0
M  V30 1075 N 97.5546 -0.734337 1.39446 0
M  V30 1076 C 98.7846 -1.52137 1.39778 0
M  V30 1077 C 99.1926 -1.89198 -0.00929312 0
M  V30 1078 O 98.5356 -1.54666 -0.991168 0
M  V30 1079 C 98.5976 -2.83762 2.20724 0
M  V30 1080 C 98.2616 -2.69131 3.69347 0
M  V30 1081 C 99.2586 -2.37635 4.62413 0
M  V30 1082 C 96.9436 -2.85982 4.1294 0
M  V30 1083 C 98.9376 -2.23172 5.97054 0
M  V30 1084 C 96.6246 -2.71137 5.47657 0
M  V30 1085 C 97.6226 -2.39777 6.39528 0
M  V30 1086 O 97.3106 -2.25026 7.71763 0
M  V30 1087 H 97.0426 -0.476717 0.479288 0
M  V30 1088 H 99.5966 -0.915012 1.83893 0
M  V30 1089 H 97.8266 -3.4666 1.71359 0
M  V30 1090 H 99.5156 -3.45383 2.13226 0
M  V30 1091 H 100.282 -2.24267 4.30034 0
M  V30 1092 H 96.1606 -3.09383 3.41765 0
M  V30 1093 H 99.7046 -1.98617 6.68728 0
M  V30 1094 H 95.6016 -2.84083 5.79626 0
M  V30 1095 H 96.3696 -2.40091 7.82495 0
M  V30 1096 N 99.0327 -1.24633 -0.964593 0
M  V30 1097 C 99.9797 -1.04144 -2.05968 0
M  V30 1098 C 100.95 0.046262 -1.66036 0
M  V30 1099 O 102.135 -0.108972 -1.90489 0
M  V30 1100 C 99.2747 -0.65563 -3.38815 0
M  V30 1101 C 98.3877 -1.81714 -3.91923 0
M  V30 1102 C 97.5227 -1.37662 -5.13052 0
M  V30 1103 C 96.5617 -2.50788 -5.58365 0
M  V30 1104 N 95.6987 -2.07582 -6.70712 0
M  V30 1105 H 100.539 -1.9787 -2.22827 0
M  V30 1106 H 98.0757 -0.9855 -1.09208 0
M  V30 1107 H 100.034 -0.412954 -4.15151 0
M  V30 1108 H 98.6637 0.244627 -3.21872 0
M  V30 1109 H 97.7157 -2.1734 -3.12198 0
M  V30 1110 H 99.0277 -2.66705 -4.21509 0
M  V30 1111 H 98.1817 -1.093 -5.96773 0
M  V30 1112 H 96.9207 -0.497293 -4.85158 0
M  V30 1113 H 95.9257 -2.79906 -4.73215 0
M  V30 1114 H 97.1507 -3.39283 -5.88272 0
M  V30 1115 H 95.0967 -1.22051 -6.44546 0
M  V30 1116 H 95.0137 -2.86125 -6.99763 0
M  V30 1117 H 96.2817 -1.82369 -7.57867 0
M  V30 1118 N 100.511 1.16574 -1.06058 0
M  V30 1119 C 101.458 2.20883 -0.669263 0
M  V30 1120 C 102.428 1.62729 0.332918 0
M  V30 1121 O 103.613 1.895 0.222346 0
M  V30 1122 C 100.753 3.45049 -0.0593572 0
M  V30 1123 C 99.8658 4.17458 -1.11143 0
M  V30 1124 C 99.0008 5.29135 -0.467916 0
M  V30 1125 C 98.0398 5.93343 -1.50369 0
M  V30 1126 N 97.1768 6.96516 -0.883706 0
M  V30 1127 H 102.017 2.53709 -1.5632 0
M  V30 1128 H 99.5538 1.24616 -0.781625 0
M  V30 1129 H 101.512 4.16033 0.311771 0
M  V30 1130 H 100.142 3.12781 0.797992 0
M  V30 1131 H 99.1938 3.45101 -1.60029 0
M  V30 1132 H 100.506 4.61307 -1.89731 0
M  V30 1133 H 99.6598 6.06684 -0.0436871 0
M  V30 1134 H 98.3988 4.86443 0.349864 0
M  V30 1135 H 97.4038 5.14517 -1.93784 0
M  V30 1136 H 98.6288 6.38114 -2.32352 0
M  V30 1137 H 96.5748 6.55943 -0.086595 0
M  V30 1138 H 96.4918 7.38723 -1.607 0
M  V30 1139 H 97.7598 7.77993 -0.484543 0
M  V30 1140 N 101.989 0.842826 1.3317 0
M  V30 1141 C 103.214 0.453129 2.02389 0
M  V30 1142 C 103.639 -0.939105 1.6298 0
M  V30 1143 O 102.997 -1.61472 0.8244 0
M  V30 1144 C 103.045 0.586094 3.55805 0
M  V30 1145 O 102.149 -0.386029 4.10589 0
M  V30 1146 H 101.49 0.183664 0.638094 0
M  V30 1147 H 104.02 1.13875 1.69981 0
M  V30 1148 H 104.03 0.469209 4.05293 0
M  V30 1149 H 102.705 1.6014 3.83833 0
M  V30 1150 H 101.282 -0.226371 3.72212 0
M  V30 1151 N 103.467 -1.45747 0.599634 0
M  V30 1152 C 104.695 -2.06668 0.0978551 0
M  V30 1153 C 105.11 -1.44562 -1.21439 0
M  V30 1154 O 104.467 -0.556923 -1.73795 0
M  V30 1155 C 104.518 -3.61456 -0.0567044 0
M  V30 1156 O 104.239 -4.21242 1.20361 0
M  V30 1157 C 105.74 -4.39345 -0.590869 0
M  V30 1158 H 102.96 -0.667825 0.0651943 0
M  V30 1159 H 105.504 -1.87115 0.82511 0
M  V30 1160 H 103.659 -3.80378 -0.734251 0
M  V30 1161 H 104.073 -5.14323 1.02821 0
M  V30 1162 H 105.547 -5.48182 -0.648131 0
M  V30 1163 H 106.024 -4.08568 -1.61147 0
M  V30 1164 H 106.63 -4.25268 0.0523679 0
M  V30 1165 N 104.945 -0.338344 -1.53925 0
M  V30 1166 C 106.17 0.263987 -2.05713 0
M  V30 1167 C 106.595 1.43847 -1.21201 0
M  V30 1168 O 105.953 1.79904 -0.224535 0
M  V30 1169 C 106.001 0.662 -3.54471 0
M  V30 1170 O 105.105 1.76265 -3.72833 0
M  V30 1171 H 104.446 0.0448722 -0.662482 0
M  V30 1172 H 106.976 -0.491048 -1.9862 0
M  V30 1173 H 106.986 0.940594 -3.9701 0
M  V30 1174 H 105.661 -0.196937 -4.15433 0
M  V30 1175 H 104.238 1.48173 -3.42198 0
M  V30 1176 N 106.423 1.57458 -0.0668435 0
M  V30 1177 C 107.669 1.93587 0.6043 0
M  V30 1178 C 108.002 0.946722 1.69561 0
M  V30 1179 O 107.277 -0.0248516 1.94484 0
M  V30 1180 C 107.56 3.40014 1.18585 0
M  V30 1181 C 107.413 4.49685 0.101529 0
M  V30 1182 C 108.732 3.87154 2.09284 0
M  V30 1183 H 105.851 0.703958 0.218202 0
M  V30 1184 H 108.493 1.89542 -0.131804 0
M  V30 1185 H 106.643 3.43592 1.81319 0
M  V30 1186 H 108.315 4.5823 -0.531279 0
M  V30 1187 H 106.558 4.30059 -0.568487 0
M  V30 1188 H 107.229 5.49266 0.54874 0
M  V30 1189 H 109.705 3.85551 1.56491 0
M  V30 1190 H 108.581 4.90231 2.46911 0
M  V30 1191 H 108.842 3.2481 2.99918 0
M  V30 1192 N 107.901 -0.206675 1.56239 0
M  V30 1193 C 108.849 -1.27571 1.94495 0
M  V30 1194 C 109.843 -1.47737 0.828862 0
M  V30 1195 O 111.049 -1.48735 1.0138 0
M  V30 1196 H 107.424 -0.428029 0.6183 0
M  V30 1197 H 109.395 -0.925961 2.8367 0
M  V30 1198 C 108.144 -2.61568 2.29079 0
M  V30 1199 H 107.467 -2.46863 3.14482 0
M  V30 1200 H 108.907 -3.35144 2.5972 0
M  V30 1201 C 107.366 -3.17695 1.12123 0
M  V30 1202 O 107.896 -3.99801 0.390153 0
M  V30 1203 N 106.102 -2.76276 0.901097 0
M  V30 1204 H 105.649 -2.09613 1.49733 0
M  V30 1205 H 105.607 -3.1417 0.120319 0
M  V30 1206 N 109.379 -1.50304 -0.473955 0
M  V30 1207 C 110.625 -1.61389 -1.22806 0
M  V30 1208 C 110.958 -0.311955 -1.91678 0
M  V30 1209 O 110.233 0.686384 -1.81986 0
M  V30 1210 C 110.516 -2.79219 -2.27396 0
M  V30 1211 C 110.369 -4.19286 -1.62848 0
M  V30 1212 C 111.688 -2.92614 -3.28732 0
M  V30 1213 H 108.807 -0.587399 -0.445119 0
M  V30 1214 H 111.449 -1.82681 -0.522265 0
M  V30 1215 H 109.599 -2.61195 -2.87592 0
M  V30 1216 H 111.271 -4.48892 -1.06271 0
M  V30 1217 H 109.514 -4.23677 -0.931693 0
M  V30 1218 H 110.185 -4.97655 -2.38838 0
M  V30 1219 H 112.661 -3.09105 -2.78556 0
M  V30 1220 H 111.537 -3.76688 -3.99246 0
M  V30 1221 H 111.798 -2.03107 -3.92683 0
M  V30 1222 N 110.857 0.726932 -1.39834 0
M  V30 1223 C 112.104 1.48664 -1.37496 0
M  V30 1224 C 112.432 1.94482 0.0264678 0
M  V30 1225 O 111.687 1.67692 1.00886 0
M  V30 1226 C 111.986 2.73495 -2.30077 0
M  V30 1227 C 111.652 2.46502 -3.77555 0
M  V30 1228 C 110.314 2.3885 -4.17737 0
M  V30 1229 C 112.666 2.23604 -4.70798 0
M  V30 1230 C 109.994 2.06352 -5.49214 0
M  V30 1231 C 112.346 1.92622 -6.02561 0
M  V30 1232 C 111.01 1.83444 -6.41798 0
M  V30 1233 H 110.28 0.544001 -0.503135 0
M  V30 1234 H 112.927 0.833657 -1.72402 0
M  V30 1235 H 111.232 3.43575 -1.88317 0
M  V30 1236 H 112.929 3.31549 -2.25558 0
M  V30 1237 H 109.519 2.5334 -3.45712 0
M  V30 1238 H 113.703 2.28479 -4.40581 0
M  V30 1239 H 108.959 1.97776 -5.78528 0
M  V30 1240 H 113.133 1.73914 -6.74334 0
M  V30 1241 H 110.76 1.58029 -7.43593 0
M  V30 1242 N 112.336 1.25143 0.95797 0
M  V30 1243 C 113.269 0.995565 2.05338 0
M  V30 1244 C 114.247 -0.0740423 1.62431 0
M  V30 1245 O 115.431 0.0649212 1.88388 0
M  V30 1246 C 112.558 0.504298 3.34925 0
M  V30 1247 C 111.604 1.56393 3.96792 0
M  V30 1248 S 112.437 3.14815 4.33188 0
M  V30 1249 C 113.593 2.67415 5.65898 0
M  V30 1250 H 113.826 1.92309 2.26726 0
M  V30 1251 H 111.359 1.08635 1.09716 0
M  V30 1252 H 113.317 0.227497 4.09869 0
M  V30 1253 H 111.978 -0.402671 3.11508 0
M  V30 1254 H 111.171 1.17082 4.90212 0
M  V30 1255 H 110.773 1.79124 3.28315 0
M  V30 1256 H 113.065 2.10833 6.4386 0
M  V30 1257 H 114.008 3.59463 6.10076 0
M  V30 1258 H 114.416 2.07521 5.24972 0
M  V30 1259 N 113.814 -1.1601 1.06675 0
M  V30 1260 C 114.744 -2.22688 0.702307 0
M  V30 1261 C 115.725 -1.67306 -0.307032 0
M  V30 1262 O 116.91 -1.93352 -0.181305 0
M  V30 1263 C 114.04 -3.47178 0.092038 0
M  V30 1264 C 112.994 -4.15477 1.02777 0
M  V30 1265 C 112.32 -5.33963 0.28061 0
M  V30 1266 C 113.62 -4.66019 2.35846 0
M  V30 1267 H 115.314 -2.53429 1.59419 0
M  V30 1268 H 112.86 -1.21813 0.767961 0
M  V30 1269 H 114.813 -4.21037 -0.174814 0
M  V30 1270 H 113.537 -3.15749 -0.834877 0
M  V30 1271 H 112.196 -3.43549 1.27944 0
M  V30 1272 H 111.844 -4.98788 -0.649545 0
M  V30 1273 H 111.544 -5.806 0.904258 0
M  V30 1274 H 113.068 -6.10596 0.021396 0
M  V30 1275 H 114.482 -5.3144 2.15045 0
M  V30 1276 H 112.879 -5.23293 2.93743 0
M  V30 1277 H 113.949 -3.82023 2.98641 0
M  V30 1278 N 115.292 -0.849877 -1.32721 0
M  V30 1279 C 116.24 -0.279745 -2.30912 0
M  V30 1280 C 117.234 0.594278 -1.58634 0
M  V30 1281 O 118.44 0.482613 -1.73409 0
M  V30 1282 H 114.815 -0.0717521 -0.748569 0
M  V30 1283 H 116.786 -1.12222 -2.76494 0
M  V30 1284 C 115.535 0.521108 -3.43773 0
M  V30 1285 H 114.858 -0.142141 -3.99547 0
M  V30 1286 H 116.298 0.885693 -4.14646 0
M  V30 1287 C 114.757 1.70442 -2.90605 0
M  V30 1288 O 115.287 2.8034 -2.87702 0
M  V30 1289 N 113.493 1.52991 -2.47067 0
M  V30 1290 H 113.04 0.635914 -2.49628 0
M  V30 1291 H 112.998 2.32311 -2.11847 0
M  V30 1292 N 116.77 1.45427 -0.607355 0
M  V30 1293 C 117.7 2.3329 0.0989352 0
M  V30 1294 C 118.681 1.46816 0.859007 0
M  V30 1295 O 119.866 1.75588 0.829604 0
M  V30 1296 C 116.996 3.29518 1.09705 0
M  V30 1297 C 115.95 4.25626 0.450206 0
M  V30 1298 C 115.276 5.11542 1.55655 0
M  V30 1299 C 116.576 5.18505 -0.628455 0
M  V30 1300 H 118.27 2.92595 -0.634716 0
M  V30 1301 H 115.816 1.40696 -0.306681 0
M  V30 1302 H 117.769 3.89855 1.59971 0
M  V30 1303 H 116.493 2.68372 1.86129 0
M  V30 1304 H 115.152 3.66586 -0.0315886 0
M  V30 1305 H 114.8 4.46765 2.31107 0
M  V30 1306 H 114.5 5.76647 1.12925 0
M  V30 1307 H 116.024 5.74748 2.06148 0
M  V30 1308 H 117.438 5.72916 -0.209877 0
M  V30 1309 H 115.835 5.92085 -0.977489 0
M  V30 1310 H 116.905 4.60948 -1.50514 0
M  V30 1311 N 118.248 0.346503 1.53744 0
M  V30 1312 C 119.211 -0.496439 2.23759 0
M  V30 1313 C 120.211 -1.0252 1.2388 0
M  V30 1314 O 121.401 -0.913974 1.48297 0
M  V30 1315 C 118.533 -1.69187 2.95954 0
M  V30 1316 H 119.726 0.115952 2.99676 0
M  V30 1317 H 117.279 0.0978939 1.55993 0
M  V30 1318 H 118.014 -2.34288 2.24231 0
M  V30 1319 H 117.799 -1.31989 3.69217 0
M  V30 1320 H 119.289 -2.28969 3.49232 0
M  V30 1321 N 119.726 -1.57421 0.075193 0
M  V30 1322 C 120.975 -1.92794 -0.592731 0
M  V30 1323 C 121.288 -0.957478 -1.70563 0
M  V30 1324 O 122.494 -1.20417 -2.43335 0
M  V30 1325 C 120.95 -3.42495 -1.10569 0
M  V30 1326 C 120.558 -4.47994 -0.0236121 0
M  V30 1327 C 122.302 -3.86864 -1.74748 0
M  V30 1328 C 120.209 -5.88829 -0.550803 0
M  V30 1329 H 119.139 -0.719591 -0.225177 0
M  V30 1330 H 121.79 -1.82902 0.147978 0
M  V30 1331 H 120.172 -3.47471 -1.89947 0
M  V30 1332 H 121.346 -4.54637 0.751099 0
M  V30 1333 H 119.661 -4.13113 0.522159 0
M  V30 1334 H 122.258 -4.8947 -2.15229 0
M  V30 1335 H 122.601 -3.24417 -2.60882 0
M  V30 1336 H 123.134 -3.84504 -1.01986 0
M  V30 1337 H 119.873 -6.54929 0.273457 0
M  V30 1338 H 119.393 -5.85698 -1.29296 0
M  V30 1339 H 121.072 -6.38811 -1.02613 0
M  V30 1340 N 121.204 0.198386 -1.56346 0
M  V30 1341 C 122.429 0.939682 -1.84891 0
M  V30 1342 C 122.854 1.76202 -0.658369 0
M  V30 1343 O 122.212 1.76993 0.392851 0
M  V30 1344 C 122.26 1.81428 -3.11635 0
M  V30 1345 O 121.364 2.91265 -2.91956 0
M  V30 1346 H 120.705 0.264807 -0.608912 0
M  V30 1347 H 123.235 0.204695 -2.03573 0
M  V30 1348 H 123.245 2.21958 -3.42343 0
M  V30 1349 H 121.92 1.21004 -3.97908 0
M  V30 1350 H 120.497 2.54514 -2.72538 0
M  V30 1351 N 122.682 1.50554 0.465978 0
M  V30 1352 C 123.959 1.5232 1.22712 0
M  V30 1353 C 124.339 0.270807 2.09356 0
M  V30 1354 O 123.687 -0.745541 2.15995 0
M  V30 1355 C 123.897 2.82175 2.05374 0
M  V30 1356 C 125.245 3.33033 2.6339 0
M  V30 1357 O 126.269 2.83531 2.15612 0
M  V30 1358 O 125.128 4.19336 3.50456 0
M  V30 1359 H 122.222 0.611183 0.557122 0
M  V30 1360 H 124.768 1.62847 0.477381 0
M  V30 1361 H 123.54 3.64797 1.41558 0
M  V30 1362 H 123.163 2.74675 2.87471 0
M  V30 1363 N 124.16 -0.719506 1.40217 0
M  V30 1364 C 125.09 -1.8465 1.42922 0
M  V30 1365 C 126.071 -1.67599 0.29062 0
M  V30 1366 O 127.256 -1.87688 0.498677 0
M  V30 1367 C 124.386 -3.22565 1.28722 0
M  V30 1368 C 123.34 -3.54281 2.40144 0
M  V30 1369 C 122.666 -4.91298 2.11023 0
M  V30 1370 C 123.966 -3.55676 3.82481 0
M  V30 1371 H 125.66 -1.82644 2.37237 0
M  V30 1372 H 123.206 -0.877305 1.1419 0
M  V30 1373 H 125.159 -4.01095 1.29232 0
M  V30 1374 H 123.883 -3.25137 0.308811 0
M  V30 1375 H 122.542 -2.78088 2.38877 0
M  V30 1376 H 122.19 -4.90468 1.11582 0
M  V30 1377 H 121.89 -5.13485 2.8567 0
M  V30 1378 H 123.414 -5.72166 2.13209 0
M  V30 1379 H 124.828 -4.24254 3.85592 0
M  V30 1380 H 123.225 -3.89388 4.56614 0
M  V30 1381 H 124.295 -2.55144 4.12346 0
M  V30 1382 N 125.638 -1.25649 -0.95132 0
M  V30 1383 C 126.568 -1.08808 -2.06599 0
M  V30 1384 C 127.549 0.00382547 -1.701 0
M  V30 1385 O 128.734 -0.166325 -1.93486 0
M  V30 1386 C 125.864 -0.709542 -3.39975 0
M  V30 1387 C 124.818 -1.75206 -3.90496 0
M  V30 1388 C 124.144 -1.22811 -5.20405 0
M  V30 1389 C 125.444 -3.15153 -4.16504 0
M  V30 1390 H 127.138 -2.02048 -2.20946 0
M  V30 1391 H 124.684 -0.972835 -1.06169 0
M  V30 1392 H 126.637 -0.578649 -4.17408 0
M  V30 1393 H 125.361 0.258556 -3.25575 0
M  V30 1394 H 124.02 -1.87145 -3.15234 0
M  V30 1395 H 123.668 -0.250145 -5.02378 0
M  V30 1396 H 123.368 -1.92492 -5.55176 0
M  V30 1397 H 124.892 -1.10968 -6.00432 0
M  V30 1398 H 126.306 -3.06349 -4.84586 0
M  V30 1399 H 124.703 -3.82333 -4.62538 0
M  V30 1400 H 125.773 -3.61966 -3.22658 0
M  V30 1401 N 127.117 1.15442 -1.07289 0
M  V30 1402 C 128.364 1.86213 -0.795668 0
M  V30 1403 C 128.692 1.82291 0.678238 0
M  V30 1404 O 127.947 1.24057 1.51355 0
M  V30 1405 C 128.246 3.3489 -1.24834 0
M  V30 1406 C 127.912 3.59007 -2.72809 0
M  V30 1407 C 126.574 3.65298 -3.13227 0
M  V30 1408 C 128.926 3.68762 -3.68326 0
M  V30 1409 C 126.254 3.78854 -4.4798 0
M  V30 1410 C 128.606 3.83842 -5.0284 0
M  V30 1411 C 127.27 3.88378 -5.4288 0
M  V30 1412 H 126.54 0.681403 -0.291155 0
M  V30 1413 H 129.187 1.36435 -1.34379 0
M  V30 1414 H 127.492 3.8687 -0.619595 0
M  V30 1415 H 129.189 3.88052 -1.01076 0
M  V30 1416 H 125.779 3.5475 -2.40521 0
M  V30 1417 H 129.963 3.63202 -3.38227 0
M  V30 1418 H 125.219 3.80623 -4.78472 0
M  V30 1419 H 129.393 3.90332 -5.76727 0
M  V30 1420 H 127.02 3.98635 -6.47298 0
M  V30 1421 N 128.595 0.856903 1.32268 0
M  V30 1422 C 129.844 0.457599 1.96441 0
M  V30 1423 C 130.157 -0.992426 1.68553 0
M  V30 1424 O 131.363 -1.49727 2.26482 0
M  V30 1425 C 129.819 0.767358 3.51624 0
M  V30 1426 C 129.427 2.23326 3.88367 0
M  V30 1427 C 131.171 0.435887 4.22256 0
M  V30 1428 C 129.078 2.48613 5.36606 0
M  V30 1429 H 128.008 0.167387 0.735185 0
M  V30 1430 H 130.659 1.048 1.5063 0
M  V30 1431 H 129.041 0.106367 3.95857 0
M  V30 1432 H 130.215 2.93623 3.55137 0
M  V30 1433 H 128.53 2.52948 3.30766 0
M  V30 1434 H 131.127 0.602202 5.31298 0
M  V30 1435 H 131.47 -0.622672 4.11617 0
M  V30 1436 H 132.003 1.05286 3.83614 0
M  V30 1437 H 128.742 3.53101 5.52268 0
M  V30 1438 H 128.262 1.82896 5.71235 0
M  V30 1439 H 129.941 2.32676 6.03714 0
M  V30 1440 N 130.073 -1.45103 0.615059 0
M  V30 1441 C 131.298 -2.07064 0.117988 0
M  V30 1442 C 131.723 -1.4554 -1.19163 0
M  V30 1443 O 131.081 -0.550855 -1.72729 0
M  V30 1444 C 131.129 -3.606 -0.000288387 0
M  V30 1445 O 130.233 -3.98847 -1.04856 0
M  V30 1446 H 129.574 -0.659467 0.0774581 0
M  V30 1447 H 132.104 -1.86236 0.847186 0
M  V30 1448 H 132.114 -4.07529 -0.196091 0
M  V30 1449 H 130.789 -4.04765 0.955932 0
M  V30 1450 H 129.366 -3.63577 -0.828619 0
M  V30 1451 N 131.551 -0.354651 -1.53558 0
M  V30 1452 C 132.779 0.239515 -2.05509 0
M  V30 1453 C 133.194 1.4333 -1.2289 0
M  V30 1454 O 132.551 1.80538 -0.266899 0
M  V30 1455 C 132.602 0.643719 -3.55723 0
M  V30 1456 O 132.323 -0.502602 -4.35207 0
M  V30 1457 C 133.824 1.29743 -4.23889 0
M  V30 1458 H 131.044 0.0442697 -0.669538 0
M  V30 1459 H 133.588 -0.509856 -1.98042 0
M  V30 1460 H 131.743 1.34302 -3.63376 0
M  V30 1461 H 132.157 -0.178172 -5.24197 0
M  V30 1462 H 133.631 1.53091 -5.30346 0
M  V30 1463 H 134.108 2.25441 -3.76926 0
M  V30 1464 H 134.714 0.639865 -4.20459 0
M  V30 1465 N 133.029 1.57378 -0.0835403 0
M  V30 1466 C 133.959 2.1641 0.87686 0
M  V30 1467 C 134.94 1.09429 1.30228 0
M  V30 1468 O 136.125 1.37516 1.37124 0
M  V30 1469 C 133.255 2.73517 2.14022 0
M  V30 1470 C 132.209 3.85769 1.85381 0
M  V30 1471 C 131.535 4.29529 3.18448 0
M  V30 1472 C 132.835 5.09486 1.14984 0
M  V30 1473 H 134.529 2.96914 0.385059 0
M  V30 1474 H 132.075 1.42823 0.18377 0
M  V30 1475 H 134.028 3.13463 2.81636 0
M  V30 1476 H 132.752 1.90252 2.65465 0
M  V30 1477 H 131.411 3.46345 1.20169 0
M  V30 1478 H 131.059 3.43169 3.67755 0
M  V30 1479 H 130.759 5.05204 3.00071 0
M  V30 1480 H 132.283 4.72099 3.8724 0
M  V30 1481 H 133.697 5.46674 1.72687 0
M  V30 1482 H 132.094 5.90515 1.06826 0
M  V30 1483 H 133.164 4.84724 0.130749 0
M  V30 1484 N 134.507 -0.190092 1.56449 0
M  V30 1485 C 135.918 -0.754312 1.70784 0
M  V30 1486 C 136.269 -1.83631 0.690951 0
M  V30 1487 O 135.394 -2.15868 -0.151604 0
M  V30 1488 C 135.989 -1.37503 3.09642 0
M  V30 1489 C 134.548 -1.88628 3.25725 0
M  V30 1490 C 133.695 -0.758098 2.66736 0
M  V30 1491 H 136.646 0.0350524 1.58661 0
M  V30 1492 H 136.667 -2.2445 3.0725 0
M  V30 1493 H 136.179 -0.587302 3.83631 0
M  V30 1494 H 134.28 -2.70103 2.56661 0
M  V30 1495 H 134.393 -2.04462 4.3328 0
M  V30 1496 H 132.757 -1.17369 2.26046 0
M  V30 1497 H 133.54 0.0174705 3.43296 0
M  V30 1498 N 135.985 -1.50799 -0.457987 0
M  V30 1499 C 137.232 -1.62442 -1.20908 0
M  V30 1500 C 137.56 -0.330865 -1.91665 0
M  V30 1501 O 136.815 0.68401 -1.83357 0
M  V30 1502 C 137.114 -2.76358 -2.2663 0
M  V30 1503 C 136.78 -4.16378 -1.73033 0
M  V30 1504 C 135.442 -4.54473 -1.58138 0
M  V30 1505 C 137.794 -5.03836 -1.33413 0
M  V30 1506 C 135.122 -5.77754 -1.02065 0
M  V30 1507 C 137.474 -6.27676 -0.78778 0
M  V30 1508 C 136.138 -6.64562 -0.625561 0
M  V30 1509 H 135.408 -0.594417 -0.442435 0
M  V30 1510 H 138.055 -1.84772 -0.503136 0
M  V30 1511 H 136.36 -2.48167 -3.03184 0
M  V30 1512 H 138.057 -2.82568 -2.84528 0
M  V30 1513 H 134.647 -3.86331 -1.85598 0
M  V30 1514 H 138.831 -4.75026 -1.4375 0
M  V30 1515 H 134.087 -6.04997 -0.882547 0
M  V30 1516 H 138.261 -6.94797 -0.472177 0
M  V30 1517 H 135.888 -7.59965 -0.188926 0
M  V30 1518 N 137.463 0.71206 -1.40597 0
M  V30 1519 C 138.879 1.02058 -1.22704 0
M  V30 1520 C 139.079 2.01228 -0.104729 0
M  V30 1521 O 138.135 2.4674 0.53624 0
M  V30 1522 C 139.448 1.56094 -2.57012 0
M  V30 1523 C 140.996 1.6806 -2.64054 0
M  V30 1524 C 141.471 2.25501 -3.9864 0
M  V30 1525 N 142.962 2.32882 -4.004 0
M  V30 1526 C 143.697 2.78317 -5.01325 0
M  V30 1527 N 143.193 3.23478 -6.12645 0
M  V30 1528 N 144.986 2.77733 -4.88693 0
M  V30 1529 H 137.137 0.0547896 -2.12329 0
M  V30 1530 H 139.4 0.0869027 -0.944008 0
M  V30 1531 H 139.106 0.906865 -3.39807 0
M  V30 1532 H 138.98 2.54564 -2.78347 0
M  V30 1533 H 141.367 2.32583 -1.81629 0
M  V30 1534 H 141.448 0.681802 -2.46546 0
M  V30 1535 H 141.092 1.61598 -4.81506 0
M  V30 1536 H 141.022 3.26102 -4.13479 0
M  V30 1537 H 143.513 2.00991 -3.20017 0
M  V30 1538 H 143.826 3.56725 -6.85542 0
M  V30 1539 H 142.171 3.21429 -6.16205 0
M  V30 1540 H 145.362 2.4179 -4.00818 0
M  V30 1541 H 145.535 3.12826 -5.67489 0
M  V30 1542 N 138.941 1.26152 0.944643 0
M  V30 1543 C 139.904 1.07474 2.0244 0
M  V30 1544 C 140.904 0.0242064 1.60782 0
M  V30 1545 O 142.094 0.267302 1.72137 0
M  V30 1546 C 139.226 0.633956 3.34953 0
M  V30 1547 H 140.419 2.03336 2.20442 0
M  V30 1548 H 137.972 1.087 1.12312 0
M  V30 1549 H 138.707 -0.326811 3.22649 0
M  V30 1550 H 138.492 1.39247 3.66542 0
M  V30 1551 H 139.982 0.52501 4.14287 0
M  V30 1552 N 140.419 -1.14872 1.07899 0
M  V30 1553 C 141.696 -1.81928 0.71845 0
M  V30 1554 C 142.076 -1.95417 -0.798455 0
M  V30 1555 O 141.424 -1.50997 -1.715 0
M  V30 1556 C 141.634 -3.17937 1.43935 0
M  V30 1557 C 142.982 -3.93501 1.59506 0
M  V30 1558 O 144.006 -3.27509 1.40058 0
M  V30 1559 O 142.865 -5.1183 1.91551 0
M  V30 1560 H 139.959 -0.78628 0.256305 0
M  V30 1561 H 142.505 -1.21934 1.18026 0
M  V30 1562 H 141.277 -3.0325 2.47295 0
M  V30 1563 H 140.9 -3.85619 0.968687 0
M  V30 1564 N 141.898 -0.863906 -1.31812 0
M  V30 1565 C 143.128 -0.485406 -2.00817 0
M  V30 1566 C 143.536 0.925007 -1.65046 0
M  V30 1567 O 142.879 1.61653 -0.872574 0
M  V30 1568 C 142.941 -0.555589 -3.55181 0
M  V30 1569 C 142.605 -1.92654 -4.14407 0
M  V30 1570 C 143.602 -2.89324 -4.31958 0
M  V30 1571 C 141.287 -2.2262 -4.50273 0
M  V30 1572 C 143.281 -4.14108 -4.84555 0
M  V30 1573 C 140.968 -3.47654 -5.02573 0
M  V30 1574 C 141.966 -4.43214 -5.19664 0
M  V30 1575 O 141.654 -5.66033 -5.70843 0
M  V30 1576 H 141.386 -0.188224 -0.649267 0
M  V30 1577 H 143.94 -1.16514 -1.69156 0
M  V30 1578 H 142.17 0.181037 -3.86276 0
M  V30 1579 H 143.859 -0.19138 -4.05449 0
M  V30 1580 H 144.625 -2.6748 -4.04573 0
M  V30 1581 H 140.504 -1.4902 -4.3625 0
M  V30 1582 H 144.048 -4.88703 -4.9781 0
M  V30 1583 H 139.945 -3.69345 -5.29391 0
M  V30 1584 H 140.713 -5.6812 -5.89222 0
M  V30 1585 N 143.376 1.44774 -0.622745 0
M  V30 1586 C 144.606 2.06187 -0.130532 0
M  V30 1587 C 145.014 1.46547 1.19669 0
M  V30 1588 O 144.357 0.579636 1.74316 0
M  V30 1589 C 144.419 3.59437 0.0674983 0
M  V30 1590 C 144.083 4.41496 -1.18026 0
M  V30 1591 C 145.08 4.75512 -2.102 0
M  V30 1592 C 142.765 4.82007 -1.41333 0
M  V30 1593 C 144.759 5.48912 -3.23998 0
M  V30 1594 C 142.446 5.55157 -2.55429 0
M  V30 1595 C 143.444 5.88528 -3.46589 0
M  V30 1596 O 143.132 6.60191 -4.58697 0
M  V30 1597 H 142.864 0.672045 -0.0730162 0
M  V30 1598 H 145.418 1.86768 -0.854802 0
M  V30 1599 H 143.648 3.77314 0.846825 0
M  V30 1600 H 145.337 4.02642 0.513209 0
M  V30 1601 H 146.103 4.4476 -1.93425 0
M  V30 1602 H 141.982 4.55457 -0.712709 0
M  V30 1603 H 145.526 5.74877 -3.95174 0
M  V30 1604 H 141.423 5.85324 -2.72151 0
M  V30 1605 H 142.191 6.78654 -4.57571 0
M  V30 1606 N 144.854 0.36279 1.53368 0
M  V30 1607 C 145.784 -0.476976 2.28576 0
M  V30 1608 C 146.765 -1.08631 1.30894 0
M  V30 1609 O 147.95 -1.10409 1.59761 0
M  V30 1610 C 145.08 -1.61828 3.07293 0
M  V30 1611 C 144.034 -1.13633 4.1264 0
M  V30 1612 C 143.36 -2.36766 4.79423 0
M  V30 1613 C 144.66 -0.223061 5.21823 0
M  V30 1614 H 146.354 0.150474 2.99022 0
M  V30 1615 H 143.9 0.0738103 1.43811 0
M  V30 1616 H 145.853 -2.21237 3.58653 0
M  V30 1617 H 144.577 -2.27292 2.34533 0
M  V30 1618 H 143.236 -0.564945 3.62221 0
M  V30 1619 H 142.884 -3.0068 4.03238 0
M  V30 1620 H 142.584 -2.05192 5.50609 0
M  V30 1621 H 144.108 -2.96865 5.33576 0
M  V30 1622 H 145.522 -0.724545 5.68703 0
M  V30 1623 H 143.919 0.001678 6.001 0
M  V30 1624 H 144.989 0.735553 4.79289 0
M  V30 1625 N 146.332 -1.57332 0.0918853 0
M  V30 1626 C 147.748 -1.57389 -0.264766 0
M  V30 1627 C 147.948 -1.10281 -1.68643 0
M  V30 1628 O 147.004 -0.777801 -2.40222 0
M  V30 1629 C 148.317 -3.00648 -0.0561195 0
M  V30 1630 C 149.865 -3.12754 -0.124116 0
M  V30 1631 C 150.34 -4.57965 0.0564972 0
M  V30 1632 N 151.831 -4.632 0.00155611 0
M  V30 1633 C 152.566 -5.73281 0.116598 0
M  V30 1634 N 152.062 -6.92208 0.286294 0
M  V30 1635 N 153.855 -5.6207 0.0580973 0
M  V30 1636 H 146.006 -1.86262 1.02079 0
M  V30 1637 H 148.269 -0.859579 0.399786 0
M  V30 1638 H 147.975 -3.393 0.925669 0
M  V30 1639 H 147.849 -3.68623 -0.799823 0
M  V30 1640 H 150.236 -2.73976 -1.09641 0
M  V30 1641 H 150.317 -2.47377 0.651024 0
M  V30 1642 H 149.961 -4.97436 1.02564 0
M  V30 1643 H 149.891 -5.21399 -0.738297 0
M  V30 1644 H 152.382 -3.77686 -0.127192 0
M  V30 1645 H 152.695 -7.71934 0.365676 0
M  V30 1646 H 151.04 -6.94254 0.32192 0
M  V30 1647 H 154.231 -4.68043 -0.0733204 0
M  V30 1648 H 154.404 -6.47824 0.151203 0
M  V30 1649 N 147.81 0.181792 -1.56548 0
M  V30 1650 C 149.058 0.89832 -1.81038 0
M  V30 1651 C 149.379 1.83232 -0.667164 0
M  V30 1652 O 148.649 1.93372 0.313673 0
M  V30 1653 H 147.229 0.33471 -0.667816 0
M  V30 1654 H 149.891 0.184116 -1.94028 0
M  V30 1655 H 148.987 1.4815 -2.74696 0
M  V30 1656 N 149.288 1.51039 0.449983 0
M  V30 1657 C 150.513 1.6715 1.22783 0
M  V30 1658 C 150.938 0.363081 1.84563 0
M  V30 1659 O 150.296 -0.675433 1.68249 0
M  V30 1660 C 150.344 2.77985 2.29689 0
M  V30 1661 O 149.448 2.40707 3.34864 0
M  V30 1662 H 148.789 0.557746 0.360299 0
M  V30 1663 H 151.319 1.97535 0.533005 0
M  V30 1664 H 151.329 3.01693 2.74673 0
M  V30 1665 H 150.004 3.72935 1.84098 0
M  V30 1666 H 148.581 2.27523 2.95445 0
M  V30 1667 N 150.766 -0.704594 1.40972 0
M  V30 1668 C 151.714 -1.83994 1.42299 0
M  V30 1669 C 152.708 -1.66684 0.302111 0
M  V30 1670 O 153.914 -1.73655 0.473697 0
M  V30 1671 H 150.289 -0.606171 0.44504 0
M  V30 1672 H 152.26 -1.79992 2.38003 0
M  V30 1673 C 151.009 -3.21946 1.31323 0
M  V30 1674 H 150.332 -3.35878 2.16855 0
M  V30 1675 H 151.772 -4.01491 1.36311 0
M  V30 1676 C 150.231 -3.36891 0.0245977 0
M  V30 1677 O 150.761 -3.90687 -0.934153 0
M  V30 1678 N 148.967 -2.90559 -0.0485243 0
M  V30 1679 H 148.514 -2.46968 0.732419 0
M  V30 1680 H 148.472 -3.00937 -0.910171 0
M  V30 1681 N 152.244 -1.26651 -0.937939 0
M  V30 1682 C 153.49 -1.13562 -1.68746 0
M  V30 1683 C 153.845 0.317241 -1.89767 0
M  V30 1684 O 153.138 1.22939 -1.46957 0
M  V30 1685 C 153.332 -1.84168 -3.06295 0
M  V30 1686 C 153.161 -3.36171 -2.98696 0
M  V30 1687 C 151.931 -4.05468 -3.01535 0
M  V30 1688 C 154.129 -4.32312 -2.78588 0
M  V30 1689 N 152.111 -5.44118 -2.84269 0
M  V30 1690 C 153.482 -5.58159 -2.69924 0
M  V30 1691 C 155.537 -4.22524 -2.63396 0
M  V30 1692 C 154.24 -6.75335 -2.47618 0
M  V30 1693 C 156.266 -5.39411 -2.42466 0
M  V30 1694 C 155.628 -6.64208 -2.34536 0
M  V30 1695 H 151.727 -0.470361 -0.624728 0
M  V30 1696 H 154.311 -1.59982 -1.10968 0
M  V30 1697 H 152.482 -1.40219 -3.62206 0
M  V30 1698 H 154.214 -1.63674 -3.70126 0
M  V30 1699 H 150.969 -3.56854 -3.11372 0
M  V30 1700 H 151.393 -6.1693 -2.78795 0
M  V30 1701 H 156.035 -3.26771 -2.68292 0
M  V30 1702 H 153.753 -7.71182 -2.41463 0
M  V30 1703 H 157.339 -5.33711 -2.31611 0
M  V30 1704 H 156.219 -7.53129 -2.18555 0
M  V30 1705 N 153.722 1.14298 -1.08507 0
M  V30 1706 C 154.971 1.84708 -0.810305 0
M  V30 1707 C 155.284 1.83903 0.666271 0
M  V30 1708 O 156.49 2.50112 1.05624 0
M  V30 1709 C 154.946 3.31572 -1.39957 0
M  V30 1710 C 154.554 3.40791 -2.90801 0
M  V30 1711 C 156.298 4.07087 -1.20334 0
M  V30 1712 C 154.205 4.81872 -3.4286 0
M  V30 1713 H 153.135 0.691985 -0.299454 0
M  V30 1714 H 155.786 1.28841 -1.30661 0
M  V30 1715 H 154.168 3.87183 -0.830976 0
M  V30 1716 H 155.342 2.95225 -3.53806 0
M  V30 1717 H 153.657 2.78732 -3.0935 0
M  V30 1718 H 156.254 5.11225 -1.56693 0
M  V30 1719 H 156.597 4.16054 -0.143237 0
M  V30 1720 H 157.13 3.57779 -1.73893 0
M  V30 1721 H 153.869 4.78094 -4.48449 0
M  V30 1722 H 153.389 5.27972 -2.84615 0
M  V30 1723 H 155.068 5.50765 -3.39509 0
M  V30 1724 N 155.201 0.870884 1.31352 0
M  V30 1725 C 156.448 0.482273 1.96673 0
M  V30 1726 C 156.776 -0.965638 1.68836 0
M  V30 1727 O 156.031 -1.69514 0.977937 0
M  V30 1728 C 156.33 0.687157 3.50732 0
M  V30 1729 C 155.996 2.108 3.9859 0
M  V30 1730 C 154.658 2.49656 4.1137 0
M  V30 1731 C 157.01 3.03459 4.23748 0
M  V30 1732 C 154.338 3.80412 4.46659 0
M  V30 1733 C 156.69 4.3373 4.60501 0
M  V30 1734 C 155.354 4.725 4.71487 0
M  V30 1735 H 154.624 0.176476 0.719679 0
M  V30 1736 H 157.271 1.10405 1.56471 0
M  V30 1737 H 155.576 -0.0177476 3.91796 0
M  V30 1738 H 157.273 0.366284 3.99324 0
M  V30 1739 H 153.863 1.79633 3.8914 0
M  V30 1740 H 158.047 2.74665 4.13368 0
M  V30 1741 H 153.303 4.1021 4.53362 0
M  V30 1742 H 157.477 5.05578 4.78919 0
M  V30 1743 H 155.104 5.73859 4.98588 0
M  V30 1744 N 156.679 -1.44442 0.630414 0
M  V30 1745 C 157.927 -2.01653 0.134351 0
M  V30 1746 C 158.248 -1.49836 -1.24796 0
M  V30 1747 O 157.518 -0.701684 -1.82902 0
M  V30 1748 H 156.098 -0.74554 0.0466769 0
M  V30 1749 H 158.76 -1.76952 0.816955 0
M  V30 1750 H 157.856 -3.11935 0.101498 0
M  V30 1751 N 158.157 -0.370918 -1.53173 0
M  V30 1752 C 159.434 0.273754 -1.93675 0
M  V30 1753 C 159.814 1.65938 -1.3049 0
M  V30 1754 O 159.162 2.23698 -0.465999 0
M  V30 1755 C 159.372 0.318602 -3.47543 0
M  V30 1756 C 160.72 0.556392 -4.20939 0
M  V30 1757 O 161.744 0.399587 -3.53952 0
M  V30 1758 O 160.603 0.862133 -5.39657 0
M  V30 1759 H 157.697 0.165448 -0.810281 0
M  V30 1760 H 160.243 -0.42409 -1.64315 0
M  V30 1761 H 159.015 -0.652687 -3.85818 0
M  V30 1762 H 158.638 1.06212 -3.83151 0
M  V30 1763 N 159.635 1.57281 -0.100228 0
M  V30 1764 C 160.565 2.17328 0.853857 0
M  V30 1765 C 161.546 1.10804 1.2906 0
M  V30 1766 O 162.731 1.38963 1.35657 0
M  V30 1767 C 159.861 2.75772 2.11109 0
M  V30 1768 C 158.815 3.87713 1.81279 0
M  V30 1769 C 158.141 4.32882 3.13874 0
M  V30 1770 C 159.441 5.10677 1.09574 0
M  V30 1771 H 161.135 2.97305 0.353545 0
M  V30 1772 H 158.681 1.43009 0.168612 0
M  V30 1773 H 160.634 3.16433 2.78296 0
M  V30 1774 H 159.358 1.93057 2.63432 0
M  V30 1775 H 158.017 3.476 1.16489 0
M  V30 1776 H 157.665 3.47051 3.64095 0
M  V30 1777 H 157.365 5.08358 2.94696 0
M  V30 1778 H 158.889 4.7618 3.82211 0
M  V30 1779 H 160.303 5.48474 1.66879 0
M  V30 1780 H 158.7 5.91615 1.00557 0
M  V30 1781 H 159.77 4.84835 0.0793299 0
M  V30 1782 N 161.113 -0.173488 1.56642 0
M  V30 1783 C 162.076 -1.19859 1.95362 0
M  V30 1784 C 163.076 -1.37296 0.83704 0
M  V30 1785 O 164.266 -1.34739 1.10413 0
M  V30 1786 C 161.398 -2.56405 2.24654 0
M  V30 1787 H 162.591 -0.867062 2.87092 0
M  V30 1788 H 160.144 -0.415853 1.50666 0
M  V30 1789 H 160.879 -2.94576 1.35631 0
M  V30 1790 H 160.664 -2.45115 3.06041 0
M  V30 1791 H 162.154 -3.30287 2.5554 0
M  V30 1792 N 162.591 -1.51276 -0.441967 0
M  V30 1793 C 163.831 -1.65372 -1.20132 0
M  V30 1794 C 164.195 -0.359871 -1.88597 0
M  V30 1795 O 165.396 -0.376551 -2.66149 0
M  V30 1796 C 163.667 -2.8207 -2.1948 0
M  V30 1797 S 165.226 -3.16467 -3.03964 0
M  V30 1798 H 162.044 -0.582669 -0.407453 0
M  V30 1799 H 164.646 -1.89166 -0.493609 0
M  V30 1800 H 163.35 -3.74523 -1.67812 0
M  V30 1801 H 162.881 -2.6045 -2.94838 0
M  V30 1802 H 164.896 -2.62543 -4.21053 0
M  V30 1803 N 164.069 0.697108 -1.41344 0
M  V30 1804 C 165.485 1.00751 -1.2378 0
M  V30 1805 C 165.685 2.01105 -0.126066 0
M  V30 1806 O 164.741 2.47295 0.51004 0
M  V30 1807 C 166.054 1.53359 -2.58653 0
M  V30 1808 C 167.602 1.6525 -2.65822 0
M  V30 1809 C 168.077 2.2126 -4.01009 0
M  V30 1810 N 169.568 2.28622 -4.02847 0
M  V30 1811 C 170.303 2.72984 -5.04249 0
M  V30 1812 N 169.799 3.16962 -6.16041 0
M  V30 1813 N 171.592 2.72534 -4.91611 0
M  V30 1814 H 163.743 0.0322662 -2.12375 0
M  V30 1815 H 166.006 0.0768853 -0.944877 0
M  V30 1816 H 165.712 0.870773 -3.4075 0
M  V30 1817 H 165.586 2.51597 -2.81032 0
M  V30 1818 H 167.973 2.30644 -1.84086 0
M  V30 1819 H 168.054 0.655614 -2.47256 0
M  V30 1820 H 167.698 1.56482 -4.83193 0
M  V30 1821 H 167.628 3.21698 -4.16915 0
M  V30 1822 H 170.119 1.97585 -3.22131 0
M  V30 1823 H 170.432 3.49434 -6.89287 0
M  V30 1824 H 168.777 3.14875 -6.1958 0
M  V30 1825 H 171.968 2.37525 -4.0336 0
M  V30 1826 H 172.141 3.06789 -5.70775 0
M  V30 1827 N 165.547 1.27147 0.931209 0
M  V30 1828 C 166.796 1.12664 1.67302 0
M  V30 1829 C 167.109 -0.327718 1.92835 0
M  V30 1830 O 168.315 -0.593392 2.64936 0
M  V30 1831 C 166.771 1.9683 3.01307 0
M  V30 1832 C 166.379 3.46901 2.83485 0
M  V30 1833 C 168.123 1.90985 3.79111 0
M  V30 1834 C 166.03 4.23279 4.13024 0
M  V30 1835 H 164.96 0.41803 0.627509 0
M  V30 1836 H 167.611 1.51539 1.03481 0
M  V30 1837 H 165.993 1.50797 3.66164 0
M  V30 1838 H 167.167 4.00773 2.27415 0
M  V30 1839 H 165.482 3.54088 2.19113 0
M  V30 1840 H 168.079 2.45328 4.75098 0
M  V30 1841 H 168.422 0.882718 4.06834 0
M  V30 1842 H 168.955 2.34895 3.21044 0
M  V30 1843 H 165.694 5.26503 3.90481 0
M  V30 1844 H 165.214 3.74186 4.6877 0
M  V30 1845 H 166.893 4.32265 4.81411 0
M  V30 1846 N 167.025 -1.13721 1.09112 0
M  V30 1847 C 167.958 -2.18094 0.67158 0
M  V30 1848 C 168.936 -1.59414 -0.320299 0
M  V30 1849 O 170.12 -1.87183 -0.222444 0
M  V30 1850 C 167.247 -3.38698 -0.0111189 0
M  V30 1851 C 166.293 -4.15966 0.942055 0
M  V30 1852 S 167.126 -4.7604 2.45246 0
M  V30 1853 C 168.282 -5.99994 1.78208 0
M  V30 1854 H 168.515 -2.53344 1.55577 0
M  V30 1855 H 166.048 -1.24967 0.906789 0
M  V30 1856 H 168.006 -4.08559 -0.398716 0
M  V30 1857 H 166.667 -3.01756 -0.871905 0
M  V30 1858 H 165.86 -5.02318 0.411396 0
M  V30 1859 H 165.462 -3.51745 1.2709 0
M  V30 1860 H 167.754 -6.68441 1.10424 0
M  V30 1861 H 168.697 -6.57662 2.62463 0
M  V30 1862 H 169.105 -5.50432 1.25238 0
M  V30 1863 N 168.503 -0.877838 -1.30888 0
M  V30 1864 C 169.728 -0.506629 -2.01117 0
M  V30 1865 C 170.153 0.895564 -1.65412 0
M  V30 1866 O 169.511 1.5923 -0.866922 0
M  V30 1867 C 169.559 -0.680223 -3.54126 0
M  V30 1868 O 168.663 0.277033 -4.11468 0
M  V30 1869 H 168.004 -0.200518 -0.633 0
M  V30 1870 H 170.534 -1.18342 -1.66902 0
M  V30 1871 H 170.544 -0.5765 -4.03907 0
M  V30 1872 H 169.219 -1.70261 -3.79452 0
M  V30 1873 H 167.796 0.127606 -3.72682 0
M  V30 1874 N 169.982 1.44106 -0.638065 0
M  V30 1875 C 171.212 2.06037 -0.152394 0
M  V30 1876 C 171.62 1.47808 1.18108 0
M  V30 1877 O 170.963 0.598092 1.73691 0
M  V30 1878 C 171.025 3.59488 0.0293714 0
M  V30 1879 C 170.689 4.4022 -1.22702 0
M  V30 1880 C 171.686 4.73256 -2.15232 0
M  V30 1881 C 169.371 4.8048 -1.46437 0
M  V30 1882 C 171.365 5.45444 -3.29802 0
M  V30 1883 C 169.052 5.52417 -2.61303 0
M  V30 1884 C 170.05 5.84819 -3.52811 0
M  V30 1885 O 169.738 6.55289 -4.65673 0
M  V30 1886 H 169.47 0.671233 -0.0801401 0
M  V30 1887 H 172.024 1.85851 -0.874563 0
M  V30 1888 H 170.254 3.78191 0.806758 0
M  V30 1889 H 171.943 4.03164 0.470475 0
M  V30 1890 H 172.709 4.42684 -1.98131 0
M  V30 1891 H 168.588 4.54676 -0.760977 0
M  V30 1892 H 172.132 5.70653 -4.01249 0
M  V30 1893 H 168.029 5.82404 -2.78344 0
M  V30 1894 H 168.797 6.73762 -4.64744 0
M  V30 1895 N 171.46 0.379036 1.52974 0
M  V30 1896 C 172.685 -0.209353 2.06341 0
M  V30 1897 C 173.11 -1.40583 1.24972 0
M  V30 1898 O 172.468 -1.79246 0.272155 0
M  V30 1899 C 172.516 -0.567786 3.56102 0
M  V30 1900 O 171.62 -1.66318 3.77375 0
M  V30 1901 H 170.961 -0.0272919 0.663439 0
M  V30 1902 H 173.491 0.543536 1.97248 0
M  V30 1903 H 173.501 -0.835003 3.99364 0
M  V30 1904 H 172.176 0.307013 4.14765 0
M  V30 1905 H 170.753 -1.39048 3.46006 0
M  V30 1906 N 172.938 -1.57226 0.108567 0
M  V30 1907 C 173.868 -2.17778 -0.84232 0
M  V30 1908 C 174.849 -1.11487 -1.2847 0
M  V30 1909 O 176.034 -1.39681 -1.34918 0
M  V30 1910 C 173.164 -2.76888 -2.09644 0
M  V30 1911 C 172.118 -3.88669 -1.79221 0
M  V30 1912 C 171.444 -4.34541 -3.11574 0
M  V30 1913 C 172.744 -5.11251 -1.06864 0
M  V30 1914 H 174.438 -2.97489 -0.337774 0
M  V30 1915 H 171.984 -1.43097 -0.161025 0
M  V30 1916 H 173.937 -3.17904 -2.76614 0
M  V30 1917 H 172.661 -1.94451 -2.62405 0
M  V30 1918 H 171.32 -3.48213 -1.14644 0
M  V30 1919 H 170.968 -3.48977 -3.62249 0
M  V30 1920 H 170.668 -5.09914 -2.91996 0
M  V30 1921 H 172.192 -4.782 -3.7968 0
M  V30 1922 H 173.606 -5.49352 -1.63968 0
M  V30 1923 H 172.003 -5.9214 -0.974178 0
M  V30 1924 H 173.073 -4.8487 -0.0536168 0
M  V30 1925 N 174.416 0.165178 -1.56732 0
M  V30 1926 C 175.646 0.894919 -1.86212 0
M  V30 1927 C 176.054 1.76066 -0.692627 0
M  V30 1928 O 175.397 1.80387 0.347303 0
M  V30 1929 C 175.459 1.8174 -3.10179 0
M  V30 1930 C 175.123 1.13064 -4.42793 0
M  V30 1931 C 176.12 0.493169 -5.17556 0
M  V30 1932 C 173.805 1.12556 -4.89527 0
M  V30 1933 C 175.799 -0.140209 -6.37246 0
M  V30 1934 C 173.486 0.488366 -6.09145 0
M  V30 1935 C 174.484 -0.143411 -6.82849 0
M  V30 1936 O 174.172 -0.77055 -8.00199 0
M  V30 1937 H 173.904 0.265114 -0.621844 0
M  V30 1938 H 176.458 0.168242 -2.0471 0
M  V30 1939 H 174.688 2.58455 -2.87642 0
M  V30 1940 H 176.377 2.4175 -3.26055 0
M  V30 1941 H 177.143 0.489023 -4.82528 0
M  V30 1942 H 173.022 1.60672 -4.32094 0
M  V30 1943 H 176.566 -0.633932 -6.94714 0
M  V30 1944 H 172.463 0.490116 -6.43637 0
M  V30 1945 H 173.231 -0.670408 -8.1575 0
M  V30 1946 N 175.894 1.51508 0.433938 0
M  V30 1947 C 177.14 1.64588 1.18484 0
M  V30 1948 C 177.473 0.362666 1.90784 0
M  V30 1949 O 176.748 -0.637892 1.83742 0
M  V30 1950 C 177.031 2.85149 2.19913 0
M  V30 1951 C 176.884 4.23456 1.51674 0
M  V30 1952 C 178.203 3.01227 3.20858 0
M  V30 1953 H 175.322 0.598994 0.429389 0
M  V30 1954 H 177.964 1.84002 0.473647 0
M  V30 1955 H 176.114 2.68729 2.80566 0
M  V30 1956 H 177.786 4.51552 0.943322 0
M  V30 1957 H 176.029 4.25998 0.819035 0
M  V30 1958 H 176.7 5.03812 2.2556 0
M  V30 1959 H 179.176 3.16382 2.70263 0
M  V30 1960 H 178.052 3.87141 3.89118 0
M  V30 1961 H 178.313 2.13447 3.8716 0
M  V30 1962 N 177.372 -0.689602 1.41712 0
M  V30 1963 C 178.32 -1.82475 1.44242 0
M  V30 1964 C 179.314 -1.66354 0.319774 0
M  V30 1965 O 180.52 -1.73143 0.492089 0
M  V30 1966 H 176.895 -0.601416 0.451445 0
M  V30 1967 H 178.866 -1.77458 2.39899 0
M  V30 1968 C 177.615 -3.20535 1.3473 0
M  V30 1969 H 176.938 -3.33559 2.20405 0
M  V30 1970 H 178.378 -4.00023 1.40562 0
M  V30 1971 C 176.837 -3.36846 0.0603281 0
M  V30 1972 O 177.367 -3.91656 -0.892663 0
M  V30 1973 N 175.573 -2.90595 -0.0177039 0
M  V30 1974 H 175.12 -2.46178 0.758572 0
M  V30 1975 H 175.078 -3.01886 -0.878201 0
M  V30 1976 N 178.85 -1.27639 -0.924453 0
M  V30 1977 C 179.783 -1.04966 -2.02626 0
M  V30 1978 C 180.761 0.0309505 -1.62571 0
M  V30 1979 O 181.945 -0.114846 -1.8815 0
M  V30 1980 C 179.072 -0.59292 -3.3347 0
M  V30 1981 C 178.118 -1.66858 -3.92506 0
M  V30 1982 S 178.951 -3.2619 -4.24689 0
M  V30 1983 C 180.107 -2.82325 -5.58609 0
M  V30 1984 H 180.34 -1.98252 -2.21547 0
M  V30 1985 H 177.873 -1.11506 -1.06798 0
M  V30 1986 H 179.831 -0.336086 -4.09122 0
M  V30 1987 H 178.492 0.319939 -3.12466 0
M  V30 1988 H 177.685 -1.30038 -4.86935 0
M  V30 1989 H 177.287 -1.87766 -3.2345 0
M  V30 1990 H 179.579 -2.2783 -6.38044 0
M  V30 1991 H 180.522 -3.75511 -6.00331 0
M  V30 1992 H 180.93 -2.21367 -5.19285 0
M  V30 1993 N 180.328 1.1314 -1.09713 0
M  V30 1994 C 181.558 1.88048 -0.855656 0
M  V30 1995 C 181.966 1.79537 0.596919 0
M  V30 1996 O 181.309 1.16196 1.42282 0
M  V30 1997 C 181.371 3.38314 -1.21589 0
M  V30 1998 C 181.035 3.70605 -2.67397 0
M  V30 1999 C 182.032 3.69596 -3.65643 0
M  V30 2000 C 179.717 4.0017 -3.03593 0
M  V30 2001 C 181.711 3.977 -4.9811 0
M  V30 2002 C 179.398 4.27935 -4.36251 0
M  V30 2003 C 180.396 4.26685 -5.33318 0
M  V30 2004 O 180.084 4.53767 -6.63589 0
M  V30 2005 H 179.816 0.60208 -0.307368 0
M  V30 2006 H 182.37 1.44128 -1.46343 0
M  V30 2007 H 180.6 3.82752 -0.551177 0
M  V30 2008 H 182.289 3.94552 -0.953083 0
M  V30 2009 H 183.055 3.46826 -3.39023 0
M  V30 2010 H 178.934 4.00289 -2.2867 0
M  V30 2011 H 182.478 3.9664 -5.73866 0
M  V30 2012 H 178.375 4.50178 -4.62613 0
M  V30 2013 H 179.143 4.71422 -6.69107 0
M  V30 2014 N 181.806 0.884767 1.30421 0
M  V30 2015 C 183.031 0.517288 2.00845 0
M  V30 2016 C 183.456 -0.886779 1.65885 0
M  V30 2017 O 182.814 -1.58768 0.875354 0
M  V30 2018 C 182.862 0.698994 3.5376 0
M  V30 2019 O 181.966 -0.255208 4.1161 0
M  V30 2020 H 181.307 0.203872 0.631927 0
M  V30 2021 H 183.837 1.19225 1.66272 0
M  V30 2022 H 183.847 0.597912 4.03595 0
M  V30 2023 H 182.522 1.72271 3.78544 0
M  V30 2024 H 181.099 -0.10784 3.72744 0
M  V30 2025 N 183.284 -1.43765 0.645699 0
M  V30 2026 C 184.509 -2.06767 0.161883 0
M  V30 2027 C 184.934 -1.48034 -1.16049 0
M  V30 2028 O 184.292 -0.587369 -1.71522 0
M  V30 2029 C 184.34 -3.60519 0.0762003 0
M  V30 2030 O 183.444 -4.00982 -0.963721 0
M  V30 2031 H 182.785 -0.657675 0.091429 0
M  V30 2032 H 185.315 -1.84397 0.886499 0
M  V30 2033 H 185.325 -4.07853 -0.109604 0
M  V30 2034 H 184 -4.02646 1.04157 0
M  V30 2035 H 182.577 -3.65253 -0.751312 0
M  V30 2036 N 184.763 -0.387143 -1.52771 0
M  V30 2037 C 186.012 0.19697 -2.00736 0
M  V30 2038 C 186.325 1.48082 -1.27793 0
M  V30 2039 O 187.531 2.14485 -1.66458 0
M  V30 2040 C 185.987 0.401568 -3.57653 0
M  V30 2041 C 185.595 -0.868907 -4.39493 0
M  V30 2042 C 187.339 0.942164 -4.13912 0
M  V30 2043 C 185.246 -0.632705 -5.88006 0
M  V30 2044 H 184.176 0.0773827 -0.750019 0
M  V30 2045 H 186.827 -0.50921 -1.76293 0
M  V30 2046 H 185.209 1.16954 -3.78335 0
M  V30 2047 H 186.383 -1.64133 -4.30577 0
M  V30 2048 H 184.698 -1.33429 -3.94443 0
M  V30 2049 H 187.295 1.13455 -5.22525 0
M  V30 2050 H 187.638 1.9106 -3.69867 0
M  V30 2051 H 188.171 0.233814 -3.97112 0
M  V30 2052 H 184.91 -1.57208 -6.36369 0
M  V30 2053 H 184.43 0.100825 -5.99715 0
M  V30 2054 H 186.109 -0.26642 -6.46451 0
M  V30 2055 N 186.241 1.57166 -0.116904 0
M  V30 2056 C 187.471 1.99184 0.548586 0
M  V30 2057 C 187.879 0.995436 1.60897 0
M  V30 2058 O 187.222 -0.0201293 1.83689 0
M  V30 2059 C 187.284 3.37611 1.23526 0
M  V30 2060 C 186.948 4.55857 0.323077 0
M  V30 2061 C 187.945 5.18056 -0.437476 0
M  V30 2062 C 185.63 5.01751 0.234761 0
M  V30 2063 C 187.624 6.24536 -1.2741 0
M  V30 2064 C 185.311 6.08093 -0.605496 0
M  V30 2065 C 186.309 6.69352 -1.35856 0
M  V30 2066 O 185.997 7.7364 -2.18487 0
M  V30 2067 H 185.729 0.659148 0.149999 0
M  V30 2068 H 188.283 2.0443 -0.199428 0
M  V30 2069 H 186.513 3.29113 2.0303 0
M  V30 2070 H 188.202 3.63932 1.79745 0
M  V30 2071 H 188.968 4.83516 -0.379105 0
M  V30 2072 H 184.847 4.53817 0.810601 0
M  V30 2073 H 188.391 6.72281 -1.86237 0
M  V30 2074 H 184.288 6.42063 -0.665268 0
M  V30 2075 H 185.056 7.90727 -2.11406 0
M  V30 2076 N 187.719 -0.156864 1.56817 0
M  V30 2077 C 188.966 -0.871125 1.82805 0
M  V30 2078 C 189.294 -1.81611 0.696262 0
M  V30 2079 O 188.549 -1.93141 -0.315459 0
M  V30 2080 C 188.848 -1.68737 3.1506 0
M  V30 2081 C 188.514 -0.890045 4.42028 0
M  V30 2082 C 187.176 -0.670042 4.76512 0
M  V30 2083 C 189.528 -0.331769 5.20143 0
M  V30 2084 C 186.856 0.119104 5.86579 0
M  V30 2085 C 189.208 0.444365 6.31037 0
M  V30 2086 C 187.872 0.675035 6.64078 0
M  V30 2087 H 187.142 -0.318767 0.668931 0
M  V30 2088 H 189.789 -0.135274 1.91022 0
M  V30 2089 H 188.094 -2.49304 3.0225 0
M  V30 2090 H 189.791 -2.24331 3.3238 0
M  V30 2091 H 186.381 -1.07157 4.14988 0
M  V30 2092 H 190.565 -0.489043 4.93885 0
M  V30 2093 H 185.821 0.307417 6.10627 0
M  V30 2094 H 189.995 0.884139 6.90765 0
M  V30 2095 H 187.622 1.28839 7.49203 0
M  V30 2096 N 189.197 -1.51736 -0.425897 0
M  V30 2097 C 190.127 -1.76827 -1.52494 0
M  V30 2098 C 191.108 -0.618524 -1.58456 0
M  V30 2099 O 192.293 -0.862416 -1.74 0
M  V30 2100 C 189.423 -1.90374 -2.90474 0
M  V30 2101 C 188.377 -3.0588 -2.99369 0
M  V30 2102 C 187.703 -3.04625 -4.3944 0
M  V30 2103 C 189.003 -4.45644 -2.72394 0
M  V30 2104 H 190.697 -2.68855 -1.31748 0
M  V30 2105 H 188.243 -1.29372 -0.632362 0
M  V30 2106 H 190.196 -2.0651 -3.6733 0
M  V30 2107 H 188.92 -0.95004 -3.12477 0
M  V30 2108 H 187.579 -2.89467 -2.24954 0
M  V30 2109 H 187.227 -2.0701 -4.58428 0
M  V30 2110 H 186.927 -3.82195 -4.46319 0
M  V30 2111 H 188.451 -3.22869 -5.18255 0
M  V30 2112 H 189.865 -4.62348 -3.38979 0
M  V30 2113 H 188.262 -5.25006 -2.9067 0
M  V30 2114 H 189.332 -4.54893 -1.67929 0
M  V30 2115 N 190.675 0.682077 -1.42076 0
M  V30 2116 C 191.903 1.47057 -1.4554 0
M  V30 2117 C 192.318 1.8869 -0.0645779 0
M  V30 2118 O 191.675 1.57666 0.919115 0
M  V30 2119 C 191.726 2.72442 -2.37609 0
M  V30 2120 O 191.447 2.32559 -3.71279 0
M  V30 2121 C 192.948 3.66069 -2.50017 0
M  V30 2122 H 190.168 0.452737 -0.495248 0
M  V30 2123 H 192.712 0.838695 -1.8651 0
M  V30 2124 H 190.867 3.31835 -1.9991 0
M  V30 2125 H 191.281 3.13475 -4.20516 0
M  V30 2126 H 192.755 4.50792 -3.18576 0
M  V30 2127 H 193.232 4.11476 -1.53572 0
M  V30 2128 H 193.838 3.12572 -2.88407 0
M  V30 2129 N 192.153 1.28127 0.917671 0
M  V30 2130 C 193.399 1.15223 1.66888 0
M  V30 2131 C 193.732 -0.299293 1.9188 0
M  V30 2132 O 193.007 -1.21805 1.51637 0
M  V30 2133 C 193.29 1.94706 3.02922 0
M  V30 2134 C 193.143 3.47898 2.85109 0
M  V30 2135 C 194.462 1.75939 4.03402 0
M  V30 2136 H 191.581 0.419946 0.605652 0
M  V30 2137 H 194.223 1.57398 1.06423 0
M  V30 2138 H 192.373 1.58864 3.54534 0
M  V30 2139 H 194.045 3.93624 2.40537 0
M  V30 2140 H 192.288 3.7373 2.20246 0
M  V30 2141 H 192.959 3.98765 3.81694 0
M  V30 2142 H 195.435 2.07209 3.60837 0
M  V30 2143 H 194.311 2.33931 4.96556 0
M  V30 2144 H 194.572 0.709877 4.36364 0
M  V30 2145 N 193.631 -1.12557 1.10312 0
M  V30 2146 C 194.561 -2.20341 0.772798 0
M  V30 2147 C 195.542 -1.68198 -0.25365 0
M  V30 2148 O 196.727 -1.93831 -0.119699 0
M  V30 2149 C 193.857 -3.46709 0.202443 0
M  V30 2150 C 192.811 -4.11996 1.15943 0
M  V30 2151 C 192.137 -5.328 0.450345 0
M  V30 2152 C 193.437 -4.5828 2.50552 0
M  V30 2153 H 195.131 -2.48229 1.674 0
M  V30 2154 H 192.677 -1.19308 0.806326 0
M  V30 2155 H 194.63 -4.2138 -0.0407752 0
M  V30 2156 H 193.354 -3.18245 -0.734001 0
M  V30 2157 H 192.013 -3.39305 1.38808 0
M  V30 2158 H 191.661 -5.00602 -0.490531 0
M  V30 2159 H 191.361 -5.7743 1.08851 0
M  V30 2160 H 192.885 -6.10219 0.215642 0
M  V30 2161 H 194.299 -5.2433 2.31843 0
M  V30 2162 H 192.696 -5.13683 3.10242 0
M  V30 2163 H 193.766 -3.72329 3.10643 0
M  V30 2164 N 195.109 -0.891671 -1.2995 0
M  V30 2165 C 196.334 -0.527932 -2.00568 0
M  V30 2166 C 196.759 0.877969 -1.66353 0
M  V30 2167 O 196.117 1.58301 -0.883762 0
M  V30 2168 C 196.165 -0.717745 -3.53385 0
M  V30 2169 O 195.269 0.233376 -4.11739 0
M  V30 2170 H 194.61 -0.20722 -0.630837 0
M  V30 2171 H 197.14 -1.20105 -1.65638 0
M  V30 2172 H 197.15 -0.619307 -4.03272 0
M  V30 2173 H 195.825 -1.74276 -3.77625 0
M  V30 2174 H 194.402 0.0880706 -3.72796 0
M  V30 2175 N 196.587 1.43421 -0.653314 0
M  V30 2176 C 197.833 2.02111 -0.166992 0
M  V30 2177 C 198.166 1.51423 1.21592 0
M  V30 2178 O 197.441 0.707389 1.8118 0
M  V30 2179 C 197.724 3.5966 -0.177948 0
M  V30 2180 C 197.577 4.20579 -1.59478 0
M  V30 2181 C 198.896 4.37413 0.4856 0
M  V30 2182 H 196.015 0.734374 -0.0621557 0
M  V30 2183 H 198.657 1.70717 -0.834016 0
M  V30 2184 H 196.807 3.86537 0.390032 0
M  V30 2185 H 198.479 4.04732 -2.21336 0
M  V30 2186 H 196.722 3.77226 -2.14204 0
M  V30 2187 H 197.393 5.29665 -1.5543 0
M  V30 2188 H 199.869 4.161 0.00234528 0
M  V30 2189 H 198.745 5.47075 0.447207 0
M  V30 2190 H 199.006 4.13672 1.55974 0
M  V30 2191 N 198.065 0.39524 1.52563 0
M  V30 2192 C 199.311 -0.185318 2.01952 0
M  V30 2193 C 199.644 -1.45964 1.28095 0
M  V30 2194 O 198.919 -1.90689 0.38315 0
M  V30 2195 C 199.202 -0.447193 3.57312 0
M  V30 2196 C 199.055 0.842828 4.41833 0
M  V30 2197 C 200.374 -1.23529 4.22408 0
M  V30 2198 H 197.493 -0.0658788 0.73405 0
M  V30 2199 H 200.135 0.525975 1.82575 0
M  V30 2200 H 198.285 -1.05312 3.73954 0
M  V30 2201 H 199.957 1.4795 4.36931 0
M  V30 2202 H 198.2 1.45686 4.08605 0
M  V30 2203 H 198.871 0.614165 5.48573 0
M  V30 2204 H 201.347 -0.722445 4.0978 0
M  V30 2205 H 200.223 -1.38727 5.3108 0
M  V30 2206 H 200.484 -2.25213 3.80436 0
M  V30 2207 N 199.544 -1.57102 0.125237 0
M  V30 2208 C 200.96 -1.57915 -0.231322 0
M  V30 2209 C 201.16 -1.13833 -1.66266 0
M  V30 2210 O 200.216 -0.828581 -2.38518 0
M  V30 2211 C 201.529 -3.00699 0.00766489 0
M  V30 2212 C 203.077 -3.12947 -0.0577483 0
M  V30 2213 C 203.552 -4.57742 0.153626 0
M  V30 2214 N 205.043 -4.63092 0.0998073 0
M  V30 2215 C 205.778 -5.72905 0.238174 0
M  V30 2216 N 205.274 -6.91445 0.433057 0
M  V30 2217 N 207.067 -5.6182 0.177308 0
M  V30 2218 H 199.218 -1.84055 1.06007 0
M  V30 2219 H 201.481 -0.850905 0.417929 0
M  V30 2220 H 201.187 -3.3726 0.997431 0
M  V30 2221 H 201.061 -3.70236 -0.721452 0
M  V30 2222 H 203.448 -2.7624 -1.03804 0
M  V30 2223 H 203.529 -2.4594 0.70335 0
M  V30 2224 H 203.173 -4.95149 1.13092 0
M  V30 2225 H 203.103 -5.22848 -0.627534 0
M  V30 2226 H 205.594 -3.77871 -0.047051 0
M  V30 2227 H 205.907 -7.70985 0.529332 0
M  V30 2228 H 204.252 -6.93415 0.469109 0
M  V30 2229 H 207.443 -4.68093 0.0259748 0
M  V30 2230 H 207.616 -6.47357 0.288582 0
M  V30 2231 N 201.022 0.148545 -1.56898 0
M  V30 2232 C 202.269 0.861418 -1.83264 0
M  V30 2233 C 202.597 1.81239 -0.705883 0
M  V30 2234 O 201.852 1.93305 0.305212 0
M  V30 2235 C 202.151 1.67064 -3.1595 0
M  V30 2236 C 201.817 0.866591 -4.42494 0
M  V30 2237 C 200.479 0.644762 -4.76861 0
M  V30 2238 C 202.831 0.30418 -5.20312 0
M  V30 2239 C 200.159 -0.15021 -5.86508 0
M  V30 2240 C 202.511 -0.477824 -6.30793 0
M  V30 2241 C 201.175 -0.710244 -6.63711 0
M  V30 2242 H 200.445 0.315215 -0.670612 0
M  V30 2243 H 203.092 0.125142 -1.91091 0
M  V30 2244 H 201.397 2.47698 -3.03567 0
M  V30 2245 H 203.094 2.22566 -3.33565 0
M  V30 2246 H 199.684 1.04955 -4.15551 0
M  V30 2247 H 203.868 0.462844 -4.94137 0
M  V30 2248 H 199.124 -0.339796 -6.10455 0
M  V30 2249 H 203.298 -0.92076 -6.90286 0
M  V30 2250 H 200.925 -1.3281 -7.48509 0
M  V30 2251 N 202.5 1.5196 0.417844 0
M  V30 2252 C 203.43 1.77634 1.51554 0
M  V30 2253 C 204.411 0.626918 1.58126 0
M  V30 2254 O 205.596 0.871632 1.7354 0
M  V30 2255 C 202.726 1.91911 2.8946 0
M  V30 2256 C 201.68 3.07463 2.97743 0
M  V30 2257 C 201.006 3.06951 4.37819 0
M  V30 2258 C 202.306 4.47082 2.70027 0
M  V30 2259 H 204 2.6955 1.3032 0
M  V30 2260 H 201.546 1.29706 0.625492 0
M  V30 2261 H 203.499 2.08455 3.6623 0
M  V30 2262 H 202.223 0.966598 3.11969 0
M  V30 2263 H 200.882 2.90656 2.23416 0
M  V30 2264 H 200.53 2.09438 4.57323 0
M  V30 2265 H 200.23 3.84556 4.44286 0
M  V30 2266 H 201.754 3.25613 5.16535 0
M  V30 2267 H 203.168 4.6414 3.36522 0
M  V30 2268 H 201.565 5.2654 2.87881 0
M  V30 2269 H 202.635 4.55777 1.65514 0
M  V30 2270 N 203.978 -0.674533 1.42435 0
M  V30 2271 C 204.941 -1.76986 1.45632 0
M  V30 2272 C 205.941 -1.5708 0.343871 0
M  V30 2273 O 207.131 -1.63367 0.604709 0
M  V30 2274 C 204.263 -3.15623 1.28822 0
M  V30 2275 H 205.456 -1.75539 2.43158 0
M  V30 2276 H 203.009 -0.884189 1.28887 0
M  V30 2277 H 203.744 -3.22696 0.322193 0
M  V30 2278 H 203.529 -3.31475 2.09444 0
M  V30 2279 H 205.019 -3.95537 1.33942 0
M  V30 2280 N 205.456 -1.28612 -0.910864 0
M  V30 2281 C 206.389 -1.07109 -2.01502 0
M  V30 2282 C 207.367 0.013706 -1.62594 0
M  V30 2283 O 208.551 -0.134796 -1.88017 0
M  V30 2284 C 205.678 -0.628255 -3.32822 0
M  V30 2285 C 204.724 -1.71012 -3.90714 0
M  V30 2286 S 205.557 -3.30676 -4.21205 0
M  V30 2287 C 206.713 -2.88234 -5.55583 0
M  V30 2288 H 206.946 -2.00591 -2.19432 0
M  V30 2289 H 204.479 -1.12633 -1.05609 0
M  V30 2290 H 206.437 -0.37946 -4.08742 0
M  V30 2291 H 205.098 0.28678 -3.12788 0
M  V30 2292 H 204.291 -1.35195 -4.85529 0
M  V30 2293 H 203.893 -1.91186 -3.21441 0
M  V30 2294 H 206.185 -2.34584 -6.35591 0
M  V30 2295 H 207.128 -3.81857 -5.96314 0
M  V30 2296 H 207.536 -2.26862 -5.16908 0
M  V30 2297 N 206.934 1.1197 -1.10907 0
M  V30 2298 C 208.18 1.8386 -0.855773 0
M  V30 2299 C 208.513 1.84134 0.617103 0
M  V30 2300 O 207.788 1.29041 1.45529 0
M  V30 2301 C 208.071 3.31305 -1.411 0
M  V30 2302 C 207.924 3.39456 -2.9511 0
M  V30 2303 C 209.243 4.2721 -1.05736 0
M  V30 2304 H 206.362 0.667545 -0.312334 0
M  V30 2305 H 209.004 1.31331 -1.37303 0
M  V30 2306 H 207.154 3.76169 -0.97105 0
M  V30 2307 H 208.826 3.03191 -3.47668 0
M  V30 2308 H 207.069 2.79849 -3.31462 0
M  V30 2309 H 207.74 4.43209 -3.29044 0
M  V30 2310 H 210.216 3.90497 -1.43706 0
M  V30 2311 H 209.092 5.28775 -1.47269 0
M  V30 2312 H 209.353 4.42088 0.0325958 0
M  V30 2313 N 208.412 0.89855 1.29475 0
M  V30 2314 C 209.362 0.346767 2.25348 0
M  V30 2315 C 210.346 -0.532509 1.51833 0
M  V30 2316 O 211.538 -0.374714 1.72988 0
M  V30 2317 C 208.667 -0.425681 3.40651 0
M  V30 2318 C 207.753 0.46845 4.21505 0
M  V30 2319 N 208.144 1.57514 4.80648 0
M  V30 2320 C 206.442 0.26603 4.45206 0
M  V30 2321 C 207.143 2.12889 5.41344 0
M  V30 2322 N 206.119 1.42208 5.24669 0
M  V30 2323 H 209.921 1.19219 2.68634 0
M  V30 2324 H 207.435 0.749473 1.44072 0
M  V30 2325 H 209.432 -0.837716 4.08397 0
M  V30 2326 H 208.092 -1.26838 2.98902 0
M  V30 2327 H 209.103 1.95789 4.79465 0
M  V30 2328 H 205.78 -0.538394 4.14014 0
M  V30 2329 H 207.17 3.05901 5.98226 0
M  V30 2330 N 209.89 -1.43072 0.660911 0
M  V30 2331 C 211.301 -1.84932 0.256348 0
M  V30 2332 C 211.652 -1.55325 -1.19868 0
M  V30 2333 O 210.777 -1.00607 -1.91591 0
M  V30 2334 C 211.372 -3.35684 0.458475 0
M  V30 2335 C 209.931 -3.76245 0.108161 0
M  V30 2336 C 209.078 -2.66749 0.757641 0
M  V30 2337 H 212.029 -1.33116 0.864051 0
M  V30 2338 H 212.05 -3.79365 -0.293683 0
M  V30 2339 H 211.562 -3.572 1.51755 0
M  V30 2340 H 209.663 -3.60338 -0.948014 0
M  V30 2341 H 209.776 -4.76058 0.538992 0
M  V30 2342 H 208.14 -2.53989 0.190185 0
M  V30 2343 H 208.923 -2.91092 1.81989 0
M  V30 2344 N 211.368 -0.403325 -1.52352 0
M  V30 2345 C 212.615 0.174347 -2.01748 0
M  V30 2346 C 212.943 1.45636 -1.2892 0
M  V30 2347 O 212.198 1.9193 -0.382258 0
M  V30 2348 C 212.497 0.474665 -3.54234 0
M  V30 2349 C 212.163 -0.717458 -4.45155 0
M  V30 2350 C 210.825 -1.04447 -4.69728 0
M  V30 2351 C 213.177 -1.51432 -4.98716 0
M  V30 2352 C 210.505 -2.16963 -5.45109 0
M  V30 2353 C 212.857 -2.6302 -5.75329 0
M  V30 2354 C 211.521 -2.96213 -5.98175 0
M  V30 2355 H 210.791 0.0637981 -0.738248 0
M  V30 2356 H 213.438 -0.543553 -1.83624 0
M  V30 2357 H 211.743 1.27406 -3.70506 0
M  V30 2358 H 213.44 0.934496 -3.89959 0
M  V30 2359 H 210.03 -0.452596 -4.26204 0
M  V30 2360 H 214.214 -1.27491 -4.79645 0
M  V30 2361 H 209.47 -2.43034 -5.61021 0
M  V30 2362 H 213.644 -3.25158 -6.15829 0
M  V30 2363 H 211.271 -3.83516 -6.56368 0
M  V30 2364 N 212.846 1.57033 -0.133567 0
M  V30 2365 C 214.262 1.58035 0.222944 0
M  V30 2366 C 214.462 1.14713 1.6566 0
M  V30 2367 O 213.518 0.841218 2.38075 0
M  V30 2368 C 214.831 3.00691 -0.0236116 0
M  V30 2369 C 216.379 3.12973 0.0411512 0
M  V30 2370 C 216.854 4.57654 -0.177899 0
M  V30 2371 N 218.345 4.63033 -0.124365 0
M  V30 2372 C 219.08 5.72771 -0.268553 0
M  V30 2373 N 218.576 6.91206 -0.46972 0
M  V30 2374 N 220.369 5.61718 -0.2071 0
M  V30 2375 H 212.52 1.8349 -1.06981 0
M  V30 2376 H 214.783 0.848677 -0.422436 0
M  V30 2377 H 214.489 3.36726 -1.0153 0
M  V30 2378 H 214.363 3.70614 0.701808 0
M  V30 2379 H 216.75 2.76787 1.02338 0
M  V30 2380 H 216.831 2.45564 -0.716383 0
M  V30 2381 H 216.475 4.94542 -1.15717 0
M  V30 2382 H 216.405 5.23173 0.599797 0
M  V30 2383 H 218.896 3.7789 0.027011 0
M  V30 2384 H 219.209 7.70693 -0.570212 0
M  V30 2385 H 217.554 6.93156 -0.505876 0
M  V30 2386 H 220.745 4.68072 -0.0507986 0
M  V30 2387 H 220.918 6.47195 -0.322909 0
M  V30 2388 N 214.325 -0.140222 1.56975 0
M  V30 2389 C 215.255 -1.17456 2.01808 0
M  V30 2390 C 216.236 -1.44415 0.898794 0
M  V30 2391 O 217.421 -1.5522 1.16707 0
M  V30 2392 C 214.551 -2.50607 2.40444 0
M  V30 2393 C 213.505 -2.38155 3.55621 0
M  V30 2394 C 212.831 -3.76078 3.80091 0
M  V30 2395 C 214.131 -1.85991 4.88062 0
M  V30 2396 H 215.825 -0.801743 2.88466 0
M  V30 2397 H 213.371 -0.38422 1.38779 0
M  V30 2398 H 215.324 -3.23197 2.7041 0
M  V30 2399 H 214.048 -2.89737 1.50732 0
M  V30 2400 H 212.707 -1.68016 3.25832 0
M  V30 2401 H 212.355 -4.12656 2.87618 0
M  V30 2402 H 212.055 -3.68606 4.57606 0
M  V30 2403 H 213.579 -4.50206 4.12488 0
M  V30 2404 H 214.993 -2.4838 5.16701 0
M  V30 2405 H 213.39 -1.89393 5.6943 0
M  V30 2406 H 214.46 -0.816023 4.77984 0
M  V30 2407 N 215.803 -1.52179 -0.40978 0
M  V30 2408 C 216.733 -1.78435 -1.5061 0
M  V30 2409 C 217.714 -0.635295 -1.57791 0
M  V30 2410 O 218.899 -0.880823 -1.73076 0
M  V30 2411 C 216.029 -1.93444 -2.88439 0
M  V30 2412 C 214.983 -3.09038 -2.96108 0
M  V30 2413 C 214.309 -3.09268 -4.36185 0
M  V30 2414 C 215.609 -4.48508 -2.67652 0
M  V30 2415 H 217.303 -2.70237 -1.28889 0
M  V30 2416 H 214.849 -1.30036 -0.618605 0
M  V30 2417 H 216.802 -2.10394 -3.65119 0
M  V30 2418 H 215.526 -0.983129 -3.11452 0
M  V30 2419 H 214.185 -2.91837 -2.21872 0
M  V30 2420 H 213.833 -2.11861 -4.56206 0
M  V30 2421 H 213.533 -3.86907 -4.42241 0
M  V30 2422 H 215.057 -3.28348 -5.14801 0
M  V30 2423 H 216.471 -4.65918 -3.34056 0
M  V30 2424 H 214.868 -5.28059 -2.85085 0
M  V30 2425 H 215.938 -4.56649 -1.63095 0
M  V30 2426 N 217.281 0.66697 -1.42791 0
M  V30 2427 C 218.231 1.77313 -1.43332 0
M  V30 2428 C 219.215 1.5801 -0.303586 0
M  V30 2429 O 220.407 1.68356 -0.546385 0
M  V30 2430 C 217.536 3.15822 -1.34578 0
M  V30 2431 C 216.622 3.40721 -2.52528 0
M  V30 2432 N 217.013 3.36162 -3.77927 0
M  V30 2433 C 215.311 3.71387 -2.46956 0
M  V30 2434 C 216.012 3.60762 -4.56318 0
M  V30 2435 N 214.988 3.81908 -3.86843 0
M  V30 2436 H 218.79 1.72193 -2.38174 0
M  V30 2437 H 216.304 0.868114 -1.3725 0
M  V30 2438 H 218.301 3.951 -1.33048 0
M  V30 2439 H 216.961 3.22133 -0.407453 0
M  V30 2440 H 217.972 3.15885 -4.10411 0
M  V30 2441 H 214.649 3.84897 -1.61743 0
M  V30 2442 H 216.039 3.63132 -5.65318 0
M  V30 2443 N 218.759 1.29093 0.90403 0
M  V30 2444 C 220.005 1.16986 1.65656 0
M  V30 2445 C 220.338 -0.278925 1.92186 0
M  V30 2446 O 219.613 -1.2019 1.5292 0
M  V30 2447 C 219.896 1.97908 3.0084 0
M  V30 2448 C 219.749 3.50903 2.81403 0
M  V30 2449 C 221.068 1.80208 4.01513 0
M  V30 2450 H 218.187 0.426346 0.601164 0
M  V30 2451 H 220.829 1.58518 1.04747 0
M  V30 2452 H 218.979 1.62616 3.52829 0
M  V30 2453 H 220.651 3.96153 2.36348 0
M  V30 2454 H 218.894 3.76045 2.1627 0
M  V30 2455 H 219.565 4.02791 3.77443 0
M  V30 2456 H 222.041 2.11025 3.58619 0
M  V30 2457 H 220.917 2.39184 4.94047 0
M  V30 2458 H 221.178 0.756119 4.35586 0
M  V30 2459 N 220.237 -1.11381 1.11499 0
M  V30 2460 C 221.465 -1.86934 0.88675 0
M  V30 2461 C 221.88 -1.80195 -0.563476 0
M  V30 2462 O 221.237 -1.18367 -1.38908 0
M  V30 2463 C 221.288 -3.35722 1.34064 0
M  V30 2464 O 221.009 -3.4232 2.73401 0
M  V30 2465 C 222.51 -4.2818 1.14791 0
M  V30 2466 H 219.73 -0.591117 0.317523 0
M  V30 2467 H 222.274 -1.40865 1.48248 0
M  V30 2468 H 220.429 -3.79294 0.788355 0
M  V30 2469 H 220.843 -4.34971 2.93087 0
M  V30 2470 H 222.317 -5.30817 1.5145 0
M  V30 2471 H 222.794 -4.39113 0.0875279 0
M  V30 2472 H 223.4 -3.90402 1.68721 0
M  V30 2473 N 221.715 -0.905404 -1.28997 0
M  V30 2474 C 222.94 -0.549175 -1.99997 0
M  V30 2475 C 223.365 0.860276 -1.67275 0
M  V30 2476 O 222.723 1.57355 -0.900502 0
M  V30 2477 C 222.771 -0.755185 -3.52604 0
M  V30 2478 O 221.875 0.189692 -4.11964 0
M  V30 2479 H 221.216 -0.213899 -0.628604 0
M  V30 2480 H 223.746 -1.21856 -1.64354 0
M  V30 2481 H 223.756 -0.662045 -4.02593 0
M  V30 2482 H 222.431 -1.78271 -3.75755 0
M  V30 2483 H 221.008 0.0485257 -3.72868 0
M  V30 2484 N 223.193 1.4272 -0.668489 0
M  V30 2485 C 224.442 2.00846 -0.185389 0
M  V30 2486 C 224.755 1.53442 1.21305 0
M  V30 2487 O 225.961 2.03944 1.79218 0
M  V30 2488 C 224.417 3.58805 -0.280591 0
M  V30 2489 C 224.025 4.15198 -1.68268 0
M  V30 2490 C 225.769 4.24255 0.14412 0
M  V30 2491 C 223.676 5.655 -1.73099 0
M  V30 2492 H 222.606 0.751145 -0.0655475 0
M  V30 2493 H 225.257 1.63516 -0.832752 0
M  V30 2494 H 223.639 3.93608 0.434553 0
M  V30 2495 H 224.813 3.91866 -2.42441 0
M  V30 2496 H 223.128 3.62176 -2.05469 0
M  V30 2497 H 225.725 5.34547 0.128086 0
M  V30 2498 H 226.068 3.99277 1.17827 0
M  V30 2499 H 226.601 3.94389 -0.519798 0
M  V30 2500 H 223.34 5.95268 -2.74475 0
M  V30 2501 H 222.86 5.90842 -1.03274 0
M  V30 2502 H 224.539 6.29808 -1.48158 0
M  V30 2503 N 224.671 0.411399 1.52136 0
M  V30 2504 C 226.087 0.0623865 1.59478 0
M  V30 2505 C 226.287 -1.42554 1.4241 0
M  V30 2506 O 225.343 -2.19263 1.2522 0
M  V30 2507 C 226.656 0.559331 2.95452 0
M  V30 2508 C 228.204 0.517503 3.08692 0
M  V30 2509 C 228.679 0.990994 4.4715 0
M  V30 2510 N 230.17 0.947908 4.53397 0
M  V30 2511 C 230.905 1.28544 5.58806 0
M  V30 2512 N 230.401 1.69454 6.71757 0
M  V30 2513 N 232.194 1.20526 5.49026 0
M  V30 2514 H 224.345 1.37982 1.61477 0
M  V30 2515 H 226.608 0.566977 0.759764 0
M  V30 2516 H 226.314 1.59938 3.1323 0
M  V30 2517 H 226.188 -0.0298014 3.77188 0
M  V30 2518 H 228.575 -0.513505 2.90598 0
M  V30 2519 H 228.656 1.14272 2.28857 0
M  V30 2520 H 228.3 2.02034 4.65988 0
M  V30 2521 H 228.23 0.34257 5.25485 0
M  V30 2522 H 230.721 0.647157 3.72317 0
M  V30 2523 H 231.034 1.93513 7.48179 0
M  V30 2524 H 229.379 1.73359 6.73032 0
M  V30 2525 H 232.57 0.884505 4.59667 0
M  V30 2526 H 232.743 1.47161 6.31069 0
M  V30 2527 N 226.149 -1.5696 0.141893 0
M  V30 2528 C 227.374 -2.00754 -0.520838 0
M  V30 2529 C 227.799 -1.0213 -1.57959 0
M  V30 2530 O 227.157 0.00371324 -1.813 0
M  V30 2531 C 227.205 -3.43318 -1.10294 0
M  V30 2532 O 226.309 -3.47679 -2.21795 0
M  V30 2533 H 225.65 -0.651564 -0.127908 0
M  V30 2534 H 228.18 -2.03221 0.23712 0
M  V30 2535 H 228.19 -3.82012 -1.43287 0
M  V30 2536 H 226.865 -4.14608 -0.327574 0
M  V30 2537 H 225.442 -3.20824 -1.9007 0
M  V30 2538 N 227.627 0.131896 -1.57047 0
M  V30 2539 C 228.59 1.14638 -1.98471 0
M  V30 2540 C 229.59 1.35029 -0.873148 0
M  V30 2541 O 230.78 1.31764 -1.13946 0
M  V30 2542 C 227.912 2.50358 -2.31373 0
M  V30 2543 H 229.105 0.79064 -2.8929 0
M  V30 2544 H 226.658 0.375761 -1.51716 0
M  V30 2545 H 227.393 2.90876 -1.43393 0
M  V30 2546 H 227.178 2.36915 -3.12432 0
M  V30 2547 H 228.668 3.23395 -2.64207 0
M  V30 2548 N 229.106 1.52395 0.401703 0
M  V30 2549 C 230.352 1.68019 1.14635 0
M  V30 2550 C 230.707 0.408722 1.88009 0
M  V30 2551 O 230 -0.597133 1.82057 0
M  V30 2552 C 230.194 2.84578 2.16217 0
M  V30 2553 C 230.023 4.22938 1.5282 0
M  V30 2554 C 228.793 4.88352 1.29772 0
M  V30 2555 C 230.991 5.04778 0.985094 0
M  V30 2556 N 228.973 6.10726 0.623455 0
M  V30 2557 C 230.344 6.1845 0.438172 0
M  V30 2558 C 232.399 4.90057 0.880275 0
M  V30 2559 C 231.102 7.19013 -0.203306 0
M  V30 2560 C 233.128 5.9086 0.252639 0
M  V30 2561 C 232.49 7.03829 -0.283573 0
M  V30 2562 H 228.589 0.668413 0.405892 0
M  V30 2563 H 231.173 1.89717 0.437674 0
M  V30 2564 H 229.344 2.64483 2.84435 0
M  V30 2565 H 231.076 2.89202 2.83098 0
M  V30 2566 H 227.831 4.46846 1.56926 0
M  V30 2567 H 228.255 6.76323 0.302733 0
M  V30 2568 H 232.897 4.02938 1.28065 0
M  V30 2569 H 230.615 8.05751 -0.615726 0
M  V30 2570 H 234.201 5.81543 0.172954 0
M  V30 2571 H 233.081 7.80493 -0.761575 0
M  V30 2572 N 230.584 -0.659388 1.43143 0
M  V30 2573 C 231.833 -1.41518 1.43721 0
M  V30 2574 C 232.146 -1.95499 0.0628176 0
M  V30 2575 O 233.352 -2.71446 -0.0539683 0
M  V30 2576 C 231.808 -2.5608 2.52885 0
M  V30 2577 C 231.416 -2.08733 3.96402 0
M  V30 2578 C 233.16 -3.3349 2.62649 0
M  V30 2579 C 231.067 -3.20469 4.97045 0
M  V30 2580 H 229.997 -0.531705 0.534608 0
M  V30 2581 H 232.648 -0.712343 1.69109 0
M  V30 2582 H 231.03 -3.28805 2.20688 0
M  V30 2583 H 232.204 -1.43059 4.3803 0
M  V30 2584 H 230.519 -1.44219 3.90627 0
M  V30 2585 H 233.116 -4.16734 3.35017 0
M  V30 2586 H 233.459 -3.8111 1.67513 0
M  V30 2587 H 233.992 -2.67842 2.94118 0
M  V30 2588 H 230.731 -2.77824 5.93712 0
M  V30 2589 H 230.251 -3.84874 4.60034 0
M  V30 2590 H 231.93 -3.85698 5.19467 0
M  V30 2591 N 232.062 -1.29571 -0.897171 0
M  V30 2592 C 232.992 -1.17473 -2.01798 0
M  V30 2593 C 233.973 -0.068323 -1.69963 0
M  V30 2594 O 235.158 -0.248239 -1.92607 0
M  V30 2595 C 232.288 -0.853099 -3.36659 0
M  V30 2596 C 231.242 -1.9161 -3.82713 0
M  V30 2597 C 230.568 -1.44773 -5.14728 0
M  V30 2598 C 231.868 -3.32535 -4.02763 0
M  V30 2599 H 233.562 -2.11237 -2.12177 0
M  V30 2600 H 231.108 -1.01699 -1.01948 0
M  V30 2601 H 233.061 -0.755165 -4.14578 0
M  V30 2602 H 231.785 0.120236 -3.26379 0
M  V30 2603 H 230.444 -2.00346 -3.07013 0
M  V30 2604 H 230.092 -0.462995 -5.00865 0
M  V30 2605 H 229.792 -2.15865 -5.46513 0
M  V30 2606 H 231.316 -1.36334 -5.95185 0
M  V30 2607 H 232.73 -3.26626 -4.71156 0
M  V30 2608 H 231.127 -4.01607 -4.45905 0
M  V30 2609 H 232.197 -3.75326 -3.07016 0
M  V30 2610 N 233.54 1.10788 -1.12088 0
M  V30 2611 C 234.78 1.84297 -0.883974 0
M  V30 2612 C 235.144 1.83036 0.579797 0
M  V30 2613 O 236.345 2.52061 0.933734 0
M  V30 2614 C 234.616 3.27173 -1.43849 0
M  V30 2615 S 236.175 4.17853 -1.33957 0
M  V30 2616 H 232.993 0.635433 -0.318977 0
M  V30 2617 H 235.595 1.33341 -1.4297 0
M  V30 2618 H 234.299 3.25658 -2.49749 0
M  V30 2619 H 233.83 3.83198 -0.890096 0
M  V30 2620 H 235.845 4.95239 -0.308603 0
M  V30 2621 N 235.018 0.912232 1.28515 0
M  V30 2622 C 236.266 0.543523 1.94654 0
M  V30 2623 C 236.587 -0.9155 1.72173 0
M  V30 2624 O 235.857 -1.64708 1.06058 0
M  V30 2625 H 234.437 0.198017 0.720277 0
M  V30 2626 H 237.099 1.16126 1.56527 0
M  V30 2627 H 236.195 0.736684 3.03281 0
M  V30 2628 N 236.496 -1.42363 0.676048 0
M  V30 2629 C 237.745 -2.00745 0.196037 0
M  V30 2630 C 238.058 -1.54083 -1.20489 0
M  V30 2631 O 239.264 -2.04891 -1.78134 0
M  V30 2632 C 237.72 -3.58651 0.299616 0
M  V30 2633 C 237.328 -4.143 1.70468 0
M  V30 2634 C 239.072 -4.24326 -0.121619 0
M  V30 2635 C 236.979 -5.64574 1.76096 0
M  V30 2636 H 235.909 -0.750787 0.0695301 0
M  V30 2637 H 238.56 -1.63072 0.841412 0
M  V30 2638 H 236.942 -3.93833 -0.413673 0
M  V30 2639 H 238.116 -3.90575 2.44515 0
M  V30 2640 H 236.431 -3.61081 2.07387 0
M  V30 2641 H 239.028 -5.34607 -0.0997362 0
M  V30 2642 H 239.371 -3.99897 -1.15708 0
M  V30 2643 H 239.904 -3.94108 0.540706 0
M  V30 2644 H 236.643 -5.93804 2.77628 0
M  V30 2645 H 236.163 -5.90286 1.06406 0
M  V30 2646 H 237.842 -6.29013 1.51496 0
M  V30 2647 N 237.974 -0.419461 -1.51915 0
M  V30 2648 C 239.223 0.154346 -2.01109 0
M  V30 2649 C 239.536 1.45338 -1.30905 0
M  V30 2650 O 240.742 2.10906 -1.7097 0
M  V30 2651 C 239.198 0.325615 -3.58424 0
M  V30 2652 C 238.806 -0.961934 -4.37551 0
M  V30 2653 C 240.55 0.854155 -4.15818 0
M  V30 2654 C 238.457 -0.757287 -5.86531 0
M  V30 2655 H 237.387 0.0614563 -0.751491 0
M  V30 2656 H 240.038 -0.54649 -1.75173 0
M  V30 2657 H 238.42 1.08903 -3.80731 0
M  V30 2658 H 239.594 -1.7323 -4.26999 0
M  V30 2659 H 237.909 -1.41766 -3.91524 0
M  V30 2660 H 240.506 1.02346 -5.24814 0
M  V30 2661 H 240.849 1.83172 -3.73837 0
M  V30 2662 H 241.382 0.149528 -3.97519 0
M  V30 2663 H 238.121 -1.70671 -6.32892 0
M  V30 2664 H 237.641 -0.0264061 -5.99794 0
M  V30 2665 H 239.32 -0.403482 -6.45741 0
M  V30 2666 N 239.452 1.56882 -0.150215 0
M  V30 2667 C 240.698 1.97299 0.494427 0
M  V30 2668 C 241.053 1.0338 1.62266 0
M  V30 2669 O 240.346 0.0694497 1.91474 0
M  V30 2670 C 240.54 3.41801 1.04437 0
M  V30 2671 C 240.369 4.49691 -0.0290451 0
M  V30 2672 C 239.139 5.03095 -0.47156 0
M  V30 2673 C 241.337 5.07693 -0.821703 0
M  V30 2674 N 239.319 5.94593 -1.52749 0
M  V30 2675 C 240.69 5.95431 -1.72805 0
M  V30 2676 C 242.745 4.90256 -0.869134 0
M  V30 2677 C 241.448 6.67599 -2.67777 0
M  V30 2678 C 243.474 5.63127 -1.8067 0
M  V30 2679 C 242.836 6.50576 -2.70057 0
M  V30 2680 H 238.935 0.76755 0.149639 0
M  V30 2681 H 241.519 1.93145 -0.24556 0
M  V30 2682 H 239.69 3.46541 1.75396 0
M  V30 2683 H 241.422 3.69272 1.6559 0
M  V30 2684 H 238.177 4.73543 -0.0732101 0
M  V30 2685 H 238.601 6.45047 -2.05531 0
M  V30 2686 H 243.243 4.22363 -0.192134 0
M  V30 2687 H 240.961 7.34717 -3.36476 0
M  V30 2688 H 244.547 5.51629 -1.84924 0
M  V30 2689 H 243.427 7.05974 -3.41424 0
M  V30 2690 N 240.93 -0.123565 1.57115 0
M  V30 2691 C 242.179 -0.830704 1.83799 0
M  V30 2692 C 242.492 -1.81259 0.735158 0
M  V30 2693 O 243.698 -2.56558 0.888278 0
M  V30 2694 C 242.154 -1.52802 3.25852 0
M  V30 2695 C 241.762 -0.587356 4.44133 0
M  V30 2696 C 243.506 -2.22056 3.61789 0
M  V30 2697 C 241.413 -1.28764 5.77212 0
M  V30 2698 H 240.343 -0.313967 0.685522 0
M  V30 2699 H 242.994 -0.0834359 1.8331 0
M  V30 2700 H 241.376 -2.32175 3.20797 0
M  V30 2701 H 242.55 0.172829 4.60476 0
M  V30 2702 H 240.865 -0.00201892 4.164 0
M  V30 2703 H 243.462 -2.75131 4.58483 0
M  V30 2704 H 243.805 -2.99644 2.88997 0
M  V30 2705 H 244.338 -1.49576 3.68608 0
M  V30 2706 H 241.077 -0.55314 6.53162 0
M  V30 2707 H 240.597 -2.01995 5.64764 0
M  V30 2708 H 242.276 -1.8221 6.20813 0
M  V30 2709 N 242.408 -1.52605 -0.393616 0
M  V30 2710 C 243.338 -1.80022 -1.48709 0
M  V30 2711 C 244.319 -0.651995 -1.57108 0
M  V30 2712 O 245.504 -0.89913 -1.72132 0
M  V30 2713 C 242.634 -1.96492 -2.86371 0
M  V30 2714 C 241.588 -3.12161 -2.92813 0
M  V30 2715 C 240.914 -3.13877 -4.3288 0
M  V30 2716 C 242.214 -4.51322 -2.6288 0
M  V30 2717 H 243.908 -2.71589 -1.26015 0
M  V30 2718 H 241.454 -1.30684 -0.604778 0
M  V30 2719 H 243.407 -2.14255 -3.62867 0
M  V30 2720 H 242.131 -1.01611 -3.10391 0
M  V30 2721 H 240.79 -2.94173 -2.18764 0
M  V30 2722 H 240.438 -2.16687 -4.53933 0
M  V30 2723 H 240.138 -3.91576 -4.38112 0
M  V30 2724 H 241.662 -3.33789 -5.1129 0
M  V30 2725 H 243.076 -4.69435 -3.29096 0
M  V30 2726 H 241.473 -5.31053 -2.79468 0
M  V30 2727 H 242.543 -4.58353 -1.58242 0
M  V30 2728 N 243.887 0.651787 -1.4349 0
M  V30 2729 C 245.136 1.40754 -1.44469 0
M  V30 2730 C 245.449 1.95463 -0.0731845 0
M  V30 2731 O 246.655 2.71471 0.0395721 0
M  V30 2732 C 245.111 2.54735 -2.5424 0
M  V30 2733 C 244.719 2.06628 -3.97504 0
M  V30 2734 C 246.463 3.32092 -2.64414 0
M  V30 2735 C 244.37 3.17829 -4.98737 0
M  V30 2736 H 243.3 0.528862 -0.53742 0
M  V30 2737 H 245.951 0.703365 -1.69485 0
M  V30 2738 H 244.333 3.2763 -2.22428 0
M  V30 2739 H 245.507 1.40734 -4.38783 0
M  V30 2740 H 243.822 1.42146 -3.91387 0
M  V30 2741 H 246.419 4.14952 -3.37223 0
M  V30 2742 H 246.762 3.80217 -1.69532 0
M  V30 2743 H 247.295 2.66279 -2.95534 0
M  V30 2744 H 244.034 2.74671 -5.95177 0
M  V30 2745 H 243.554 3.82429 -4.62069 0
M  V30 2746 H 245.233 3.82937 -5.21505 0
M  V30 2747 N 245.365 1.30045 0.890287 0
M  V30 2748 C 246.298 1.10301 1.99772 0
M  V30 2749 C 247.276 0.0121631 1.62595 0
M  V30 2750 O 248.46 0.16469 1.87779 0
M  V30 2751 C 245.587 0.681125 3.31781 0
M  V30 2752 C 244.633 1.77206 3.87944 0
M  V30 2753 S 245.466 3.37335 4.15891 0
M  V30 2754 C 246.622 2.97036 5.50927 0
M  V30 2755 H 246.855 2.04057 2.16213 0
M  V30 2756 H 244.388 1.14299 1.03804 0
M  V30 2757 H 246.346 0.444439 4.08087 0
M  V30 2758 H 245.007 -0.236981 3.13205 0
M  V30 2759 H 244.2 1.42903 4.83316 0
M  V30 2760 H 243.802 1.96275 3.18358 0
M  V30 2761 H 246.094 2.44666 6.31779 0
M  V30 2762 H 247.037 3.91296 5.90164 0
M  V30 2763 H 247.445 2.35057 5.13233 0
M  V30 2764 N 246.843 -1.10192 1.12674 0
M  V30 2765 C 247.806 -2.14786 0.799979 0
M  V30 2766 C 248.806 -1.59711 -0.18685 0
M  V30 2767 O 249.996 -1.74156 0.0392558 0
M  V30 2768 C 247.128 -3.40374 0.189228 0
M  V30 2769 H 248.321 -2.45203 1.72671 0
M  V30 2770 H 245.874 -1.25597 0.930326 0
M  V30 2771 H 246.609 -3.15577 -0.747107 0
M  V30 2772 H 246.394 -3.81637 0.899766 0
M  V30 2773 H 247.884 -4.17594 -0.0228143 0
M  V30 2774 N 248.321 -0.919034 -1.28029 0
M  V30 2775 C 249.546 -0.570357 -1.99403 0
M  V30 2776 C 249.971 0.842486 -1.68178 0
M  V30 2777 O 249.329 1.56391 -0.917141 0
M  V30 2778 C 249.377 -0.792541 -3.51783 0
M  V30 2779 O 248.481 0.145988 -4.12142 0
M  V30 2780 H 247.822 -0.220555 -0.6263 0
M  V30 2781 H 250.352 -1.23592 -1.63053 0
M  V30 2782 H 250.362 -0.704708 -4.01868 0
M  V30 2783 H 249.037 -1.82247 -3.73844 0
M  V30 2784 H 247.614 0.00897528 -3.72899 0
M  V30 2785 N 249.799 1.42003 -0.683588 0
M  V30 2786 C 251.024 2.06265 -0.216647 0
M  V30 2787 C 251.449 1.51059 1.12083 0
M  V30 2788 O 250.807 0.632638 1.69904 0
M  V30 2789 C 250.855 3.60191 -0.171759 0
M  V30 2790 O 249.959 4.03396 0.857069 0
M  V30 2791 H 249.3 0.65502 -0.108834 0
M  V30 2792 H 251.83 1.81982 -0.935077 0
M  V30 2793 H 251.84 4.08 0.0014303 0
M  V30 2794 H 250.515 3.99743 -1.14796 0
M  V30 2795 H 249.092 3.67117 0.654208 0
M  V30 2796 N 251.277 0.427512 1.51691 0
M  V30 2797 C 252.526 -0.143679 2.01188 0
M  V30 2798 C 252.839 -1.44642 1.31674 0
M  V30 2799 O 254.045 -2.09997 1.72086 0
M  V30 2800 C 252.501 -0.306602 3.58592 0
M  V30 2801 C 252.109 0.985125 4.37035 0
M  V30 2802 C 253.853 -0.832091 4.16265 0
M  V30 2803 C 251.76 0.788382 5.86122 0
M  V30 2804 H 250.69 -0.0574701 0.751807 0
M  V30 2805 H 253.341 0.555772 1.74881 0
M  V30 2806 H 251.723 -1.06882 3.81303 0
M  V30 2807 H 252.897 1.75492 4.26074 0
M  V30 2808 H 251.212 1.4384 3.90767 0
M  V30 2809 H 253.809 -0.995617 5.25349 0
M  V30 2810 H 254.152 -1.81186 3.74803 0
M  V30 2811 H 254.685 -0.128444 3.97593 0
M  V30 2812 H 251.424 1.74025 6.31978 0
M  V30 2813 H 250.944 0.0582143 5.99772 0
M  V30 2814 H 252.623 0.437722 6.45518 0
M  V30 2815 N 252.755 -1.56801 0.158532 0
M  V30 2816 C 253.688 -2.13148 -0.815065 0
M  V30 2817 C 254.666 -1.0581 -1.23462 0
M  V30 2818 O 255.85 -1.3371 -1.32868 0
M  V30 2819 C 252.977 -2.6606 -2.09594 0
M  V30 2820 C 252.023 -3.85651 -1.82141 0
M  V30 2821 S 252.856 -5.26041 -1.00207 0
M  V30 2822 C 254.012 -5.8235 -2.29389 0
M  V30 2823 H 254.245 -2.95396 -0.335937 0
M  V30 2824 H 251.778 -1.54299 -0.0559391 0
M  V30 2825 H 253.736 -2.97195 -2.8317 0
M  V30 2826 H 252.397 -1.83921 -2.54621 0
M  V30 2827 H 251.59 -4.20958 -2.77147 0
M  V30 2828 H 251.192 -3.55338 -1.16667 0
M  V30 2829 H 253.484 -5.94485 -3.24952 0
M  V30 2830 H 254.427 -6.79688 -1.9857 0
M  V30 2831 H 254.835 -5.10675 -2.40564 0
M  V30 2832 N 254.233 0.115231 -1.57178 0
M  V30 2833 C 255.163 1.1423 -2.03651 0
M  V30 2834 C 256.144 1.42967 -0.921655 0
M  V30 2835 O 257.329 1.53343 -1.19162 0
M  V30 2836 C 254.459 2.4675 -2.44401 0
M  V30 2837 C 253.413 2.32467 -3.59365 0
M  V30 2838 C 252.739 3.69984 -3.86026 0
M  V30 2839 C 254.039 1.78203 -4.90959 0
M  V30 2840 H 255.733 0.755749 -2.89705 0
M  V30 2841 H 253.279 0.362093 -1.39373 0
M  V30 2842 H 255.232 3.18854 -2.75517 0
M  V30 2843 H 253.956 2.87302 -1.55322 0
M  V30 2844 H 252.615 1.62811 -3.28463 0
M  V30 2845 H 252.263 4.08028 -2.94147 0
M  V30 2846 H 251.963 3.61279 -4.63412 0
M  V30 2847 H 253.487 4.43587 -4.19599 0
M  V30 2848 H 254.901 2.40128 -5.20587 0
M  V30 2849 H 253.298 1.8031 -5.72371 0
M  V30 2850 H 254.368 0.739876 -4.79222 0
M  V30 2851 N 255.711 1.52812 0.385517 0
M  V30 2852 C 256.641 1.80808 1.47752 0
M  V30 2853 C 257.622 0.660318 1.5676 0
M  V30 2854 O 258.807 0.908246 1.71652 0
M  V30 2855 C 255.937 1.98008 2.85324 0
M  V30 2856 C 254.891 3.13709 2.91154 0
M  V30 2857 C 254.217 3.16169 4.31209 0
M  V30 2858 C 255.517 4.52709 2.60483 0
M  V30 2859 H 257.211 2.72253 1.24573 0
M  V30 2860 H 254.757 1.31003 0.597839 0
M  V30 2861 H 256.71 2.16176 3.61726 0
M  V30 2862 H 255.434 1.03255 3.09848 0
M  V30 2863 H 254.093 2.95329 2.17201 0
M  V30 2864 H 253.741 2.19092 4.52778 0
M  V30 2865 H 253.441 3.93894 4.36029 0
M  V30 2866 H 254.965 3.36496 5.09512 0
M  V30 2867 H 256.379 4.71173 3.26602 0
M  V30 2868 H 254.776 5.32528 2.76648 0
M  V30 2869 H 255.846 4.59186 1.55809 0
M  V30 2870 N 257.189 -0.644168 1.43834 0
M  V30 2871 C 258.466 -1.40188 1.36406 0
M  V30 2872 C 258.846 -2.11094 0.0163124 0
M  V30 2873 O 258.194 -2.05426 -1.00062 0
M  V30 2874 C 258.404 -2.3791 2.55343 0
M  V30 2875 C 259.752 -3.01637 2.98832 0
M  V30 2876 O 260.776 -2.48237 2.55455 0
M  V30 2877 O 259.635 -3.98477 3.74003 0
M  V30 2878 H 256.729 -0.626773 0.539523 0
M  V30 2879 H 259.275 -0.670317 1.559 0
M  V30 2880 H 258.047 -1.84525 3.4506 0
M  V30 2881 H 257.67 -3.18503 2.37995 0
M  V30 2882 N 258.668 -1.30515 -0.883378 0
M  V30 2883 C 259.893 -1.22487 -1.67367 0
M  V30 2884 C 260.318 0.208767 -1.86938 0
M  V30 2885 O 259.676 1.15015 -1.40148 0
M  V30 2886 C 259.724 -1.96041 -3.02655 0
M  V30 2887 O 258.828 -1.28859 -3.91751 0
M  V30 2888 H 258.169 -0.423573 -0.511353 0
M  V30 2889 H 260.699 -1.72362 -1.10239 0
M  V30 2890 H 260.709 -2.05124 -3.52687 0
M  V30 2891 H 259.384 -3.00307 -2.8773 0
M  V30 2892 H 257.961 -1.28141 -3.50192 0
M  V30 2893 N 260.146 1.09593 -1.13257 0
M  V30 2894 C 261.394 1.81375 -0.891492 0
M  V30 2895 C 261.715 1.86049 0.584009 0
M  V30 2896 O 260.985 1.34481 1.42449 0
M  V30 2897 H 259.565 0.671708 -0.326828 0
M  V30 2898 H 262.227 1.3256 -1.42877 0
M  V30 2899 H 261.323 2.84612 -1.28071 0
M  V30 2900 N 261.624 0.925811 1.2754 0
M  V30 2901 C 262.849 0.580924 1.99098 0
M  V30 2902 C 263.274 -0.833555 1.68622 0
M  V30 2903 O 262.632 -1.55903 0.925422 0
M  V30 2904 C 262.68 0.811186 3.51358 0
M  V30 2905 O 261.784 -0.124129 4.12213 0
M  V30 2906 H 261.125 0.223873 0.625122 0
M  V30 2907 H 263.655 1.24455 1.62395 0
M  V30 2908 H 263.665 0.72601 4.01489 0
M  V30 2909 H 262.34 1.84227 3.72872 0
M  V30 2910 H 260.917 0.0108006 3.72898 0
M  V30 2911 N 263.102 -1.41638 0.69111 0
M  V30 2912 C 264.012 -2.34588 0.0233487 0
M  V30 2913 C 265.028 -1.55987 -0.770984 0
M  V30 2914 O 266.204 -1.88486 -0.709569 0
M  V30 2915 C 263.269 -3.34684 -0.904851 0
M  V30 2916 C 262.33 -4.29176 -0.103225 0
M  V30 2917 C 261.563 -5.2449 -0.987216 0
M  V30 2918 O 261.786 -5.2514 -2.22674 0
M  V30 2919 O 260.72 -6.00295 -0.439281 0
M  V30 2920 H 264.546 -2.93261 0.789416 0
M  V30 2921 H 262.131 -1.42417 0.45142 0
M  V30 2922 H 264.013 -3.96133 -1.43724 0
M  V30 2923 H 262.688 -2.78461 -1.65049 0
M  V30 2924 H 261.595 -3.71089 0.473655 0
M  V30 2925 H 262.928 -4.88484 0.60365 0
M  V30 2926 N 264.58 -0.43555 -1.51462 0
M  V30 2927 C 265.512 0.41257 -2.25456 0
M  V30 2928 C 266.525 0.987822 -1.29406 0
M  V30 2929 O 267.714 0.882266 -1.55172 0
M  V30 2930 C 264.814 1.58894 -2.99342 0
M  V30 2931 C 263.987 1.13288 -4.22474 0
M  V30 2932 C 263.046 2.17917 -4.78956 0
M  V30 2933 O 262.072 1.77425 -5.40841 0
M  V30 2934 N 263.274 3.50382 -4.62832 0
M  V30 2935 H 266.039 -0.221603 -2.9888 0
M  V30 2936 H 263.6 -0.264342 -1.59727 0
M  V30 2937 H 265.592 2.28508 -3.34015 0
M  V30 2938 H 264.162 2.12849 -2.28941 0
M  V30 2939 H 263.382 0.263881 -3.93316 0
M  V30 2940 H 264.67 0.805542 -5.02383 0
M  V30 2941 H 264.068 3.86013 -4.13534 0
M  V30 2942 H 262.625 4.15895 -5.01871 0
M  V30 2943 N 266.058 1.56714 -0.166846 0
M  V30 2944 C 267.006 2.19056 0.782123 0
M  V30 2945 C 268 1.15328 1.24079 0
M  V30 2946 O 269.206 1.33537 1.20697 0
M  V30 2947 H 265.581 0.70167 0.270486 0
M  V30 2948 H 267.552 2.97494 0.232322 0
M  V30 2949 C 266.301 2.84206 2.00306 0
M  V30 2950 H 265.624 3.63748 1.65914 0
M  V30 2951 H 267.064 3.31302 2.64604 0
M  V30 2952 C 265.523 1.83744 2.82382 0
M  V30 2953 O 266.053 1.32014 3.79388 0
M  V30 2954 N 264.259 1.52601 2.47308 0
M  V30 2955 H 263.806 1.9486 1.68485 0
M  V30 2956 H 263.764 0.856351 3.02513 0
M  V30 2957 N 267.536 -0.106894 1.57237 0
M  V30 2958 C 268.784 -0.810921 1.85117 0
M  V30 2959 C 269.105 -1.7984 0.753827 0
M  V30 2960 O 268.375 -1.94649 -0.221056 0
M  V30 2961 H 266.955 -0.302466 0.683025 0
M  V30 2962 H 269.617 -0.0913324 1.94686 0
M  V30 2963 H 268.713 -1.34875 2.81452 0
M  V30 2964 N 269.014 -1.53014 -0.377408 0
M  V30 2965 C 270.239 -1.72818 -1.14668 0
M  V30 2966 C 270.664 -0.450725 -1.8262 0
M  V30 2967 O 270.022 0.59439 -1.7128 0
M  V30 2968 C 270.07 -2.88627 -2.16164 0
M  V30 2969 O 269.174 -2.56409 -3.22998 0
M  V30 2970 H 268.515 -0.574301 -0.333278 0
M  V30 2971 H 271.045 -1.99853 -0.438152 0
M  V30 2972 H 271.055 -3.14455 -2.59966 0
M  V30 2973 H 269.73 -3.81294 -1.66095 0
M  V30 2974 H 268.307 -2.4136 -2.84253 0
M  V30 2975 N 270.492 0.636531 -1.44174 0
M  V30 2976 C 271.738 1.39826 -1.4689 0
M  V30 2977 C 272.071 1.93947 -0.0990585 0
M  V30 2978 O 271.346 1.73325 0.882544 0
M  V30 2979 C 271.629 2.56751 -2.5249 0
M  V30 2980 C 271.482 2.08014 -3.98811 0
M  V30 2981 C 272.801 3.58946 -2.54649 0
M  V30 2982 H 269.92 0.507075 -0.53483 0
M  V30 2983 H 272.562 0.720188 -1.75822 0
M  V30 2984 H 270.712 3.14597 -2.2795 0
M  V30 2985 H 272.384 1.5504 -4.34466 0
M  V30 2986 H 270.627 1.39242 -4.10846 0
M  V30 2987 H 271.298 2.92169 -4.68339 0
M  V30 2988 H 273.774 3.1089 -2.76563 0
M  V30 2989 H 272.65 4.38286 -3.3045 0
M  V30 2990 H 272.911 4.12655 -1.58646 0
M  V30 2991 N 271.97 1.30982 0.876444 0
M  V30 2992 C 273.198 1.23242 1.6619 0
M  V30 2993 C 273.613 -0.203345 1.87702 0
M  V30 2994 O 272.97 -1.13317 1.43057 0
M  V30 2995 C 273.021 1.96623 3.03351 0
M  V30 2996 O 272.742 3.34594 2.82804 0
M  V30 2997 C 274.243 1.95644 3.97792 0
M  V30 2998 H 271.463 0.426126 0.518322 0
M  V30 2999 H 274.007 1.7275 1.09442 0
M  V30 3000 H 272.162 1.50892 3.56806 0
M  V30 3001 H 272.576 3.71873 3.69879 0
M  V30 3002 H 274.05 2.51511 4.91372 0
M  V30 3003 H 274.527 0.937395 4.2908 0
M  V30 3004 H 275.133 2.41225 3.50272 0
M  V30 3005 N 273.449 -1.08991 1.13837 0
M  V30 3006 C 274.674 -1.85551 0.926585 0
M  V30 3007 C 275.099 -1.80782 -0.519566 0
M  V30 3008 O 274.457 -1.18855 -1.36906 0
M  V30 3009 C 274.505 -3.31266 1.42462 0
M  V30 3010 O 273.609 -4.07822 0.612789 0
M  V30 3011 H 272.95 -0.575192 0.331738 0
M  V30 3012 H 275.48 -1.37604 1.51414 0
M  V30 3013 H 275.49 -3.82112 1.43019 0
M  V30 3014 H 274.165 -3.34052 2.47754 0
M  V30 3015 H 272.742 -3.66731 0.675463 0
M  V30 3016 N 274.927 -0.932562 -1.27047 0
M  V30 3017 C 276.167 -0.582919 -1.95912 0
M  V30 3018 C 276.531 0.860629 -1.71631 0
M  V30 3019 O 277.732 1.31878 -2.34225 0
M  V30 3020 C 276.003 -0.905673 -3.45734 0
M  V30 3021 S 277.562 -0.665277 -4.33727 0
M  V30 3022 H 274.38 -0.215 -0.677714 0
M  V30 3023 H 276.982 -1.20204 -1.54179 0
M  V30 3024 H 275.686 -1.95386 -3.60905 0
M  V30 3025 H 275.217 -0.275939 -3.92431 0
M  V30 3026 H 277.232 0.474635 -4.93925 0
M  V30 3027 N 276.405 1.4127 -0.698611 0
M  V30 3028 C 277.335 2.33447 -0.049629 0
M  V30 3029 C 278.316 1.51982 0.763898 0
M  V30 3030 O 279.501 1.80509 0.716257 0
M  V30 3031 C 276.631 3.35828 0.885267 0
M  V30 3032 C 275.585 4.27627 0.178613 0
M  V30 3033 C 274.911 5.20406 1.22807 0
M  V30 3034 C 276.211 5.13459 -0.956933 0
M  V30 3035 H 277.905 2.87966 -0.81951 0
M  V30 3036 H 275.451 1.38461 -0.395538 0
M  V30 3037 H 277.404 3.9924 1.34854 0
M  V30 3038 H 276.128 2.79666 1.68685 0
M  V30 3039 H 274.787 3.65643 -0.26466 0
M  V30 3040 H 274.435 4.60558 2.02226 0
M  V30 3041 H 274.135 5.82661 0.760239 0
M  V30 3042 H 275.659 5.86695 1.69179 0
M  V30 3043 H 277.073 5.70421 -0.573805 0
M  V30 3044 H 275.47 5.8467 -1.35205 0
M  V30 3045 H 276.54 4.50443 -1.79524 0
M  V30 3046 N 277.883 0.443576 1.51229 0
M  V30 3047 C 278.793 -0.370721 2.31652 0
M  V30 3048 C 279.809 -1.02186 1.40833 0
M  V30 3049 O 280.985 -1.01586 1.73903 0
M  V30 3050 C 278.05 -1.45376 3.14749 0
M  V30 3051 C 277.111 -0.822099 4.21355 0
M  V30 3052 C 276.344 -1.85353 5.0048 0
M  V30 3053 O 276.567 -3.07656 4.80316 0
M  V30 3054 O 275.501 -1.4406 5.84406 0
M  V30 3055 H 279.327 0.286002 3.0235 0
M  V30 3056 H 276.912 0.20598 1.47973 0
M  V30 3057 H 278.794 -2.08173 3.66391 0
M  V30 3058 H 277.469 -2.09445 2.46809 0
M  V30 3059 H 276.376 -0.155909 3.73775 0
M  V30 3060 H 277.709 -0.224797 4.91686 0
M  V30 3061 N 279.361 -1.56624 0.175154 0
M  V30 3062 C 280.291 -2.21155 -0.749195 0
M  V30 3063 C 281.272 -1.16836 -1.23626 0
M  V30 3064 O 282.457 -1.45277 -1.28873 0
M  V30 3065 C 279.587 -2.8553 -1.97711 0
M  V30 3066 C 278.541 -3.95921 -1.62575 0
M  V30 3067 C 277.867 -4.47365 -2.92864 0
M  V30 3068 C 279.167 -5.15323 -0.850838 0
M  V30 3069 H 280.861 -2.98653 -0.211295 0
M  V30 3070 H 278.407 -1.43651 -0.100188 0
M  V30 3071 H 280.36 -3.2935 -2.62881 0
M  V30 3072 H 279.084 -2.05406 -2.53921 0
M  V30 3073 H 277.743 -3.52762 -0.997719 0
M  V30 3074 H 277.391 -3.64027 -3.47122 0
M  V30 3075 H 277.091 -5.21839 -2.70106 0
M  V30 3076 H 278.615 -4.93873 -3.59056 0
M  V30 3077 H 280.029 -5.55812 -1.40521 0
M  V30 3078 H 278.426 -5.95739 -0.722154 0
M  V30 3079 H 279.496 -4.84661 0.152082 0
M  V30 3080 N 280.839 0.0985539 -1.57292 0
M  V30 3081 C 281.787 1.1387 -2.02821 0
M  V30 3082 C 282.781 1.41676 -0.928666 0
M  V30 3083 O 283.987 1.41398 -1.11385 0
M  V30 3084 H 280.362 0.384419 -0.646317 0
M  V30 3085 H 282.333 0.728347 -2.89375 0
M  V30 3086 C 281.082 2.45166 -2.46554 0
M  V30 3087 H 280.405 2.24613 -3.3074 0
M  V30 3088 H 281.845 3.16456 -2.8219 0
M  V30 3089 C 280.304 3.09216 -1.33742 0
M  V30 3090 O 280.834 3.96163 -0.66464 0
M  V30 3091 N 279.04 2.69413 -1.08928 0
M  V30 3092 H 278.587 1.98801 -1.63817 0
M  V30 3093 H 278.545 3.12594 -0.336458 0
M  V30 3094 N 282.317 1.53212 0.369288 0
M  V30 3095 C 283.247 1.82365 1.45826 0
M  V30 3096 C 284.228 0.676907 1.56051 0
M  V30 3097 O 285.413 0.926401 1.70679 0
M  V30 3098 C 282.543 2.01023 2.83208 0
M  V30 3099 C 281.497 3.1678 2.8781 0
M  V30 3100 C 280.823 3.20724 4.27832 0
M  V30 3101 C 282.123 4.55447 2.55667 0
M  V30 3102 H 283.817 2.73559 1.21678 0
M  V30 3103 H 281.363 1.3163 0.583911 0
M  V30 3104 H 283.316 2.20001 3.59413 0
M  V30 3105 H 282.04 1.06536 3.08736 0
M  V30 3106 H 280.699 2.97616 2.14056 0
M  V30 3107 H 280.347 2.23882 4.50429 0
M  V30 3108 H 280.047 3.98496 4.31827 0
M  V30 3109 H 281.571 3.41881 5.05915 0
M  V30 3110 H 282.985 4.74611 3.21586 0
M  V30 3111 H 281.382 5.35432 2.70984 0
M  V30 3112 H 282.452 4.60812 1.5093 0
M  V30 3113 N 283.795 -0.628877 1.44509 0
M  V30 3114 C 285.025 -1.41349 1.50678 0
M  V30 3115 C 285.433 -1.88745 0.131075 0
M  V30 3116 O 284.776 -1.61592 -0.87371 0
M  V30 3117 C 284.838 -2.66608 2.41165 0
M  V30 3118 C 284.502 -2.40993 3.88293 0
M  V30 3119 C 285.499 -2.0268 4.78766 0
M  V30 3120 C 283.184 -2.54563 4.33016 0
M  V30 3121 C 285.178 -1.78269 6.11963 0
M  V30 3122 C 282.865 -2.29766 5.6626 0
M  V30 3123 C 283.863 -1.91678 6.55552 0
M  V30 3124 O 283.551 -1.67158 7.86329 0
M  V30 3125 H 283.283 -0.439851 0.51333 0
M  V30 3126 H 285.837 -0.776084 1.90174 0
M  V30 3127 H 284.067 -3.32994 1.96601 0
M  V30 3128 H 285.756 -3.28615 2.38259 0
M  V30 3129 H 286.522 -1.91751 4.45485 0
M  V30 3130 H 282.401 -2.83179 3.63773 0
M  V30 3131 H 285.945 -1.48465 6.81619 0
M  V30 3132 H 281.842 -2.40306 5.99102 0
M  V30 3133 H 282.61 -1.81386 7.98149 0
M  V30 3134 N 285.273 -1.31445 -0.869486 0
M  V30 3135 C 286.22 -1.19135 -1.97675 0
M  V30 3136 C 287.19 -0.0770266 -1.65921 0
M  V30 3137 O 288.375 -0.249972 -1.89155 0
M  V30 3138 C 285.515 -0.905149 -3.33018 0
M  V30 3139 C 284.628 -2.10285 -3.77365 0
M  V30 3140 C 283.763 -1.75339 -5.01427 0
M  V30 3141 C 282.802 -2.91515 -5.38224 0
M  V30 3142 N 281.939 -2.56762 -6.53466 0
M  V30 3143 H 286.779 -2.13853 -2.07535 0
M  V30 3144 H 284.316 -1.06379 -1.01597 0
M  V30 3145 H 286.274 -0.719765 -4.10944 0
M  V30 3146 H 284.904 0.00519624 -3.228 0
M  V30 3147 H 283.956 -2.39899 -2.95216 0
M  V30 3148 H 285.268 -2.97237 -4.00564 0
M  V30 3149 H 284.422 -1.53266 -5.87022 0
M  V30 3150 H 283.161 -0.855801 -4.80133 0
M  V30 3151 H 282.166 -3.14237 -4.51149 0
M  V30 3152 H 283.391 -3.81985 -5.61484 0
M  V30 3153 H 281.337 -1.69526 -6.33717 0
M  V30 3154 H 281.254 -3.37243 -6.76612 0
M  V30 3155 H 282.522 -2.38083 -7.42251 0
M  V30 3156 N 286.751 1.08385 -1.14413 0
M  V30 3157 C 288 1.80153 -0.907076 0
M  V30 3158 C 288.313 1.87176 0.567851 0
M  V30 3159 O 289.519 2.55359 0.922172 0
M  V30 3160 C 287.975 3.23687 -1.57336 0
M  V30 3161 C 287.583 3.24897 -3.08457 0
M  V30 3162 C 289.327 4.00136 -1.41744 0
M  V30 3163 C 287.234 4.6302 -3.67921 0
M  V30 3164 H 286.164 0.675139 -0.335714 0
M  V30 3165 H 288.815 1.21733 -1.37307 0
M  V30 3166 H 287.197 3.82234 -1.03505 0
M  V30 3167 H 288.371 2.76055 -3.68958 0
M  V30 3168 H 286.686 2.61943 -3.2369 0
M  V30 3169 H 289.283 5.02201 -1.83572 0
M  V30 3170 H 289.626 4.14709 -0.363576 0
M  V30 3171 H 290.159 3.48058 -1.92614 0
M  V30 3172 H 286.898 4.5365 -4.73161 0
M  V30 3173 H 286.418 5.12143 -3.12201 0
M  V30 3174 H 288.097 5.31994 -3.68227 0
M  V30 3175 N 288.23 0.939286 1.26551 0
M  V30 3176 C 289.193 0.451987 2.24699 0
M  V30 3177 C 290.193 -0.435869 1.5478 0
M  V30 3178 O 291.383 -0.235314 1.72603 0
M  V30 3179 C 288.515 -0.348801 3.39111 0
M  V30 3180 H 289.708 1.3193 2.69322 0
M  V30 3181 H 287.261 0.721072 1.38673 0
M  V30 3182 H 287.996 -1.23444 2.99887 0
M  V30 3183 H 287.781 0.287945 3.91041 0
M  V30 3184 H 289.271 -0.679726 4.12031 0
M  V30 3185 N 289.708 -1.40897 0.706093 0
M  V30 3186 C 290.655 -2.30751 0.0474474 0
M  V30 3187 C 291.625 -1.47678 -0.76029 0
M  V30 3188 O 292.81 -1.76441 -0.726177 0
M  V30 3189 C 289.95 -3.33815 -0.875309 0
M  V30 3190 C 289.063 -4.31961 -0.0580623 0
M  V30 3191 C 288.198 -5.22093 -0.979425 0
M  V30 3192 C 287.237 -6.11902 -0.155706 0
M  V30 3193 N 286.374 -6.94482 -1.03144 0
M  V30 3194 H 291.214 -2.86513 0.819413 0
M  V30 3195 H 288.751 -1.41102 0.415783 0
M  V30 3196 H 290.709 -3.92129 -1.42446 0
M  V30 3197 H 289.339 -2.79579 -1.61356 0
M  V30 3198 H 288.391 -3.75507 0.608147 0
M  V30 3199 H 289.703 -4.95415 0.580082 0
M  V30 3200 H 288.857 -5.85292 -1.59744 0
M  V30 3201 H 287.596 -4.5889 -1.65141 0
M  V30 3202 H 286.601 -5.47742 0.475309 0
M  V30 3203 H 287.826 -6.77162 0.512635 0
M  V30 3204 H 285.772 -6.33877 -1.68924 0
M  V30 3205 H 285.689 -7.54665 -0.449108 0
M  V30 3206 H 286.957 -7.6214 -1.63593 0
M  V30 3207 N 291.186 -0.45159 -1.50991 0
M  V30 3208 C 292.116 0.342898 -2.30969 0
M  V30 3209 C 293.097 1.00815 -1.37005 0
M  V30 3210 O 294.282 1.00907 -1.65926 0
M  V30 3211 C 291.412 1.43637 -3.16205 0
M  V30 3212 C 290.366 0.893818 -4.18563 0
M  V30 3213 C 289.692 2.08411 -4.92411 0
M  V30 3214 C 290.992 -0.0815568 -5.22236 0
M  V30 3215 H 292.686 -0.324556 -2.97636 0
M  V30 3216 H 290.232 -0.157531 -1.43136 0
M  V30 3217 H 292.185 1.9995 -3.70942 0
M  V30 3218 H 290.909 2.13232 -2.47386 0
M  V30 3219 H 289.568 0.352798 -3.64898 0
M  V30 3220 H 289.216 2.76658 -4.20082 0
M  V30 3221 H 288.916 1.72741 -5.61636 0
M  V30 3222 H 290.44 2.65251 -5.49976 0
M  V30 3223 H 291.854 0.391742 -5.7196 0
M  V30 3224 H 290.251 -0.351551 -5.99069 0
M  V30 3225 H 291.321 -1.01374 -4.74185 0
M  V30 3226 N 292.664 1.56529 -0.183458 0
M  V30 3227 C 293.596 2.15747 0.773697 0
M  V30 3228 C 294.609 1.1162 1.1851 0
M  V30 3229 O 295.798 1.3876 1.12285 0
M  V30 3230 C 292.898 2.6952 2.05456 0
M  V30 3231 C 292.071 3.98429 1.8048 0
M  V30 3232 C 291.13 4.37145 2.92901 0
M  V30 3233 O 290.156 5.04791 2.6301 0
M  V30 3234 N 291.358 3.99695 4.2098 0
M  V30 3235 H 294.123 2.98505 0.26736 0
M  V30 3236 H 291.684 1.619 -0.0010878 0
M  V30 3237 H 293.676 2.92412 2.79781 0
M  V30 3238 H 292.246 1.91282 2.47245 0
M  V30 3239 H 291.466 3.8379 0.899947 0
M  V30 3240 H 292.754 4.82597 1.61175 0
M  V30 3241 H 292.152 3.4526 4.48121 0
M  V30 3242 H 290.709 4.27562 4.9197 0
M  V30 3243 N 294.142 -0.090211 1.57342 0
M  V30 3244 C 295.37 -0.806224 1.90546 0
M  V30 3245 C 295.785 -1.72041 0.777644 0
M  V30 3246 O 295.142 -1.80778 -0.250103 0
M  V30 3247 C 295.193 -1.61546 3.23396 0
M  V30 3248 O 294.914 -0.738043 4.31839 0
M  V30 3249 C 296.415 -2.4341 3.70495 0
M  V30 3250 H 293.635 -0.230256 0.630257 0
M  V30 3251 H 296.179 -0.0659843 2.04394 0
M  V30 3252 H 294.334 -2.30816 3.11131 0
M  V30 3253 H 294.748 -1.29901 5.08159 0
M  V30 3254 H 296.222 -2.95676 4.66133 0
M  V30 3255 H 296.699 -3.22098 2.98579 0
M  V30 3256 H 297.305 -1.79331 3.85643 0
M  V30 3257 N 295.62 -1.53406 -0.361157 0
M  V30 3258 C 296.553 -1.74946 -1.46524 0
M  V30 3259 C 297.531 -0.59795 -1.51206 0
M  V30 3260 O 298.715 -0.831062 -1.69191 0
M  V30 3261 C 295.842 -1.83224 -2.84863 0
M  V30 3262 C 294.888 -3.05233 -2.97885 0
M  V30 3263 S 295.721 -4.6466 -2.66179 0
M  V30 3264 C 296.877 -4.75793 -4.06659 0
M  V30 3265 H 297.11 -2.68319 -1.28033 0
M  V30 3266 H 294.643 -1.44051 -0.555764 0
M  V30 3267 H 296.601 -1.88679 -3.64569 0
M  V30 3268 H 295.262 -0.908948 -3.00661 0
M  V30 3269 H 294.455 -3.07648 -3.9921 0
M  V30 3270 H 294.057 -2.97913 -2.26106 0
M  V30 3271 H 296.349 -4.5612 -5.0096 0
M  V30 3272 H 297.292 -5.7786 -4.09247 0
M  V30 3273 H 297.7 -4.04389 -3.93865 0
M  V30 3274 N 297.098 0.621204 -1.44841 0
M  V30 3275 C 298.046 1.75385 -1.52784 0
M  V30 3276 C 299.04 1.64639 -0.398779 0
M  V30 3277 O 300.246 1.70598 -0.574137 0
M  V30 3278 H 296.621 0.579193 -0.479625 0
M  V30 3279 H 298.592 1.6581 -2.48092 0
M  V30 3280 C 297.341 3.13742 -1.4987 0
M  V30 3281 H 296.664 3.22663 -2.36069 0
M  V30 3282 H 298.104 3.92861 -1.59487 0
M  V30 3283 C 296.563 3.36175 -0.220973 0
M  V30 3284 O 297.093 3.95469 0.704782 0
M  V30 3285 N 295.299 2.90348 -0.120963 0
M  V30 3286 H 294.846 2.42278 -0.875162 0
M  V30 3287 H 294.804 3.05732 0.733168 0
M  V30 3288 N 298.576 1.31904 0.862503 0
M  V30 3289 C 299.806 1.24817 1.64634 0
M  V30 3290 C 300.214 -0.187579 1.88268 0
M  V30 3291 O 299.557 -1.13253 1.44635 0
M  V30 3292 C 299.619 1.92996 3.03303 0
M  V30 3293 C 299.283 3.42336 3.02746 0
M  V30 3294 C 300.28 4.37956 2.80162 0
M  V30 3295 C 297.965 3.84147 3.2363 0
M  V30 3296 C 299.959 5.73361 2.78453 0
M  V30 3297 C 297.646 5.19663 3.21549 0
M  V30 3298 C 298.644 6.14081 2.98988 0
M  V30 3299 O 298.332 7.47118 2.96766 0
M  V30 3300 H 298.064 0.432222 0.519769 0
M  V30 3301 H 300.618 1.7445 1.08427 0
M  V30 3302 H 298.848 1.37922 3.61268 0
M  V30 3303 H 300.537 1.79723 3.63943 0
M  V30 3304 H 301.303 4.06981 2.63802 0
M  V30 3305 H 297.182 3.11083 3.40218 0
M  V30 3306 H 300.726 6.4703 2.60763 0
M  V30 3307 H 296.623 5.5027 3.37451 0
M  V30 3308 H 297.391 7.56382 3.12775 0
M  V30 3309 N 300.054 -1.07777 1.14986 0
M  V30 3310 C 301.303 -1.79669 0.916617 0
M  V30 3311 C 301.616 -1.87474 -0.557917 0
M  V30 3312 O 302.822 -2.55845 -0.908617 0
M  V30 3313 C 301.278 -3.22848 1.59051 0
M  V30 3314 C 300.886 -3.23257 3.10176 0
M  V30 3315 C 302.63 -3.99379 1.43864 0
M  V30 3316 C 300.537 -4.61063 3.70372 0
M  V30 3317 H 299.467 -0.673349 0.33929 0
M  V30 3318 H 302.118 -1.21003 1.37951 0
M  V30 3319 H 300.5 -3.8168 1.0553 0
M  V30 3320 H 301.674 -2.74095 3.70417 0
M  V30 3321 H 299.989 -2.60222 3.25074 0
M  V30 3322 H 302.586 -5.0122 1.86232 0
M  V30 3323 H 302.929 -4.14511 0.385564 0
M  V30 3324 H 303.462 -3.47032 1.94457 0
M  V30 3325 H 300.201 -4.51135 4.7556 0
M  V30 3326 H 299.721 -5.1048 3.14913 0
M  V30 3327 H 301.4 -5.30034 3.71043 0
M  V30 3328 N 301.532 -0.945985 -1.26051 0
M  V30 3329 C 302.495 -0.463897 -2.24456 0
M  V30 3330 C 303.495 0.427655 -1.55009 0
M  V30 3331 O 304.685 0.226157 -1.72726 0
M  V30 3332 C 301.817 0.330812 -3.39291 0
M  V30 3333 H 303.01 -1.33357 -2.68619 0
M  V30 3334 H 300.563 -0.728416 -1.38289 0
M  V30 3335 H 301.298 1.21852 -3.00537 0
M  V30 3336 H 301.083 -0.308679 -3.90883 0
M  V30 3337 H 302.573 0.657865 -4.12386 0
M  V30 3338 N 303.011 1.40521 -0.713556 0
M  V30 3339 C 303.941 2.33381 -0.0743864 0
M  V30 3340 C 304.922 1.52784 0.747735 0
M  V30 3341 O 306.107 1.81258 0.697071 0
M  V30 3342 C 303.237 3.36748 0.849598 0
M  V30 3343 C 302.191 4.27793 0.133247 0
M  V30 3344 C 301.517 5.21679 1.17281 0
M  V30 3345 C 302.817 5.12415 -1.01134 0
M  V30 3346 H 304.511 2.87081 -0.850007 0
M  V30 3347 H 302.057 1.38034 -0.410201 0
M  V30 3348 H 304.01 4.00648 1.30612 0
M  V30 3349 H 302.734 2.81439 1.65709 0
M  V30 3350 H 301.393 3.65342 -0.303426 0
M  V30 3351 H 301.041 4.62677 1.9733 0
M  V30 3352 H 300.741 5.83435 0.698397 0
M  V30 3353 H 302.265 5.88456 1.62947 0
M  V30 3354 H 303.679 5.69781 -0.634274 0
M  V30 3355 H 302.076 5.83203 -1.41399 0
M  V30 3356 H 303.146 4.48514 -1.84292 0
M  V30 3357 N 304.489 0.459591 1.5075 0
M  V30 3358 C 305.735 -0.0994966 2.02556 0
M  V30 3359 C 306.068 -1.40399 1.3417 0
M  V30 3360 O 305.343 -1.88892 0.463683 0
M  V30 3361 C 305.626 -0.295242 3.58888 0
M  V30 3362 C 305.479 1.02947 4.37861 0
M  V30 3363 C 306.798 -1.05502 4.27267 0
M  V30 3364 H 303.917 -0.034686 0.736183 0
M  V30 3365 H 306.559 0.602938 1.8018 0
M  V30 3366 H 304.709 -0.893563 3.78084 0
M  V30 3367 H 306.381 1.66348 4.30263 0
M  V30 3368 H 304.624 1.62885 4.02058 0
M  V30 3369 H 305.295 0.846281 5.45474 0
M  V30 3370 H 307.771 -0.547993 4.12476 0
M  V30 3371 H 306.647 -1.16077 5.36486 0
M  V30 3372 H 306.908 -2.08875 3.89645 0
M  V30 3373 N 305.967 -1.56429 0.191757 0
M  V30 3374 C 307.213 -1.97777 -0.448554 0
M  V30 3375 C 307.546 -1.07847 -1.61501 0
M  V30 3376 O 306.821 -0.129774 -1.94067 0
M  V30 3377 C 307.104 -3.48362 -0.911906 0
M  V30 3378 C 306.957 -4.4907 0.256136 0
M  V30 3379 C 308.276 -4.02561 -1.77857 0
M  V30 3380 H 305.395 -0.719071 -0.161572 0
M  V30 3381 H 308.037 -1.87896 0.282007 0
M  V30 3382 H 306.187 -3.56914 -1.53442 0
M  V30 3383 H 307.859 -4.5256 0.893733 0
M  V30 3384 H 306.102 -4.24181 0.908436 0
M  V30 3385 H 306.773 -5.51889 -0.11053 0
M  V30 3386 H 309.249 -3.96767 -1.25359 0
M  V30 3387 H 308.125 -5.08301 -2.07174 0
M  V30 3388 H 308.386 -3.47616 -2.73158 0
M  V30 3389 N 307.445 0.0818655 -1.57387 0
M  V30 3390 C 308.693 0.781368 -1.86384 0
M  V30 3391 C 309.014 1.78618 -0.782342 0
M  V30 3392 O 308.284 1.94976 0.190061 0
M  V30 3393 H 306.864 0.291562 -0.687751 0
M  V30 3394 H 309.526 0.060348 -1.94807 0
M  V30 3395 H 308.622 1.3038 -2.83562 0
M  V30 3396 N 308.923 1.53595 0.353017 0
M  V30 3397 C 310.163 1.72094 1.10286 0
M  V30 3398 C 310.527 0.469217 1.86178 0
M  V30 3399 O 311.728 0.531083 2.63501 0
M  V30 3400 C 309.999 2.94386 2.02661 0
M  V30 3401 S 311.558 3.33651 2.84996 0
M  V30 3402 H 308.376 0.605433 0.372789 0
M  V30 3403 H 310.978 1.91722 0.38248 0
M  V30 3404 H 309.682 3.83669 1.45691 0
M  V30 3405 H 309.213 2.77197 2.79152 0
M  V30 3406 H 311.228 2.86645 4.0503 0
M  V30 3407 N 310.401 -0.613514 1.45168 0
M  V30 3408 C 311.331 -1.7354 1.56225 0
M  V30 3409 C 312.312 -1.64981 0.41414 0
M  V30 3410 O 313.497 -1.83472 0.636526 0
M  V30 3411 C 310.627 -3.12128 1.52295 0
M  V30 3412 C 309.581 -3.35491 2.65762 0
M  V30 3413 C 308.907 -4.74291 2.46885 0
M  V30 3414 C 310.207 -3.26325 4.0781 0
M  V30 3415 H 311.901 -1.64543 2.50132 0
M  V30 3416 H 309.447 -0.790185 1.20383 0
M  V30 3417 H 311.4 -3.90404 1.58628 0
M  V30 3418 H 310.124 -3.2195 0.549139 0
M  V30 3419 H 308.783 -2.59603 2.58847 0
M  V30 3420 H 308.431 -4.80839 1.47657 0
M  V30 3421 H 308.131 -4.9088 3.22972 0
M  V30 3422 H 309.655 -5.54775 2.55063 0
M  V30 3423 H 311.069 -3.94483 4.16 0
M  V30 3424 H 309.466 -3.54445 4.8424 0
M  V30 3425 H 310.536 -2.23855 4.30136 0
M  V30 3426 N 311.879 -1.3236 -0.855495 0
M  V30 3427 C 312.809 -1.23833 -1.97958 0
M  V30 3428 C 313.79 -0.122361 -1.69659 0
M  V30 3429 O 314.975 -0.30939 -1.9172 0
M  V30 3430 C 312.105 -0.959772 -3.33775 0
M  V30 3431 C 311.059 -2.03689 -3.76424 0
M  V30 3432 C 310.385 -1.61075 -5.09862 0
M  V30 3433 C 311.685 -3.4518 -3.9198 0
M  V30 3434 H 313.379 -2.1788 -2.0535 0
M  V30 3435 H 310.925 -1.04891 -0.986605 0
M  V30 3436 H 312.878 -0.886678 -4.11966 0
M  V30 3437 H 311.602 0.0163404 -3.26596 0
M  V30 3438 H 310.261 -2.10012 -3.00484 0
M  V30 3439 H 309.909 -0.622107 -4.99138 0
M  V30 3440 H 309.609 -2.33143 -5.39368 0
M  V30 3441 H 311.133 -1.55201 -5.90546 0
M  V30 3442 H 312.547 -3.4145 -4.60526 0
M  V30 3443 H 310.944 -4.1559 -4.32903 0
M  V30 3444 H 312.014 -3.84903 -2.94919 0
M  V30 3445 N 313.357 1.07166 -1.15556 0
M  V30 3446 C 314.768 1.6127 -0.940693 0
M  V30 3447 C 315.119 1.89251 0.517551 0
M  V30 3448 O 314.244 1.65937 1.38903 0
M  V30 3449 C 314.839 2.92993 -1.7012 0
M  V30 3450 C 313.398 3.43832 -1.53156 0
M  V30 3451 C 312.545 2.1786 -1.71558 0
M  V30 3452 H 315.496 0.90229 -1.30554 0
M  V30 3453 H 315.517 3.62007 -1.17181 0
M  V30 3454 H 315.029 2.72596 -2.76248 0
M  V30 3455 H 313.13 3.69307 -0.494294 0
M  V30 3456 H 313.243 4.19747 -2.30975 0
M  V30 3457 H 311.607 2.2765 -1.14225 0
M  V30 3458 H 312.39 1.99956 -2.79056 0
M  V30 3459 N 314.835 0.952656 1.25548 0
M  V30 3460 C 316.082 0.606373 1.93208 0
M  V30 3461 C 316.41 -0.85631 1.74636 0
M  V30 3462 O 315.665 -1.62951 1.08376 0
M  V30 3463 C 315.964 0.908818 3.45652 0
M  V30 3464 C 315.63 2.35722 3.84378 0
M  V30 3465 C 314.292 2.75312 3.9466 0
M  V30 3466 C 316.644 3.29793 4.03591 0
M  V30 3467 C 313.972 4.08047 4.21562 0
M  V30 3468 C 316.324 4.62138 4.31985 0
M  V30 3469 C 314.988 5.01528 4.40484 0
M  V30 3470 H 314.258 0.221888 0.706998 0
M  V30 3471 H 316.905 1.20132 1.49133 0
M  V30 3472 H 315.21 0.231456 3.91116 0
M  V30 3473 H 316.907 0.619498 3.96186 0
M  V30 3474 H 313.497 2.04017 3.76928 0
M  V30 3475 H 317.681 3.00397 3.95064 0
M  V30 3476 H 312.937 4.38212 4.26357 0
M  V30 3477 H 317.111 5.35012 4.45797 0
M  V30 3478 H 314.738 6.04406 4.61083 0
M  V30 3479 N 316.313 -1.40141 0.720998 0
M  V30 3480 C 317.56 -2.00787 0.262842 0
M  V30 3481 C 317.888 -1.5718 -1.14563 0
M  V30 3482 O 317.143 -0.785391 -1.79249 0
M  V30 3483 C 317.442 -3.56165 0.296892 0
M  V30 3484 C 317.108 -4.19373 1.65641 0
M  V30 3485 C 315.77 -4.36352 2.02855 0
M  V30 3486 C 318.122 -4.54578 2.54968 0
M  V30 3487 C 315.45 -4.8582 3.28931 0
M  V30 3488 C 317.802 -5.05447 3.80402 0
M  V30 3489 C 316.466 -5.20635 4.17726 0
M  V30 3490 H 315.736 -0.734731 0.0961807 0
M  V30 3491 H 318.383 -1.67673 0.925093 0
M  V30 3492 H 316.688 -3.8922 -0.448932 0
M  V30 3493 H 318.385 -4.00929 -0.0755208 0
M  V30 3494 H 314.975 -4.06549 1.35704 0
M  V30 3495 H 319.159 -4.41091 2.27491 0
M  V30 3496 H 314.415 -4.95764 3.57811 0
M  V30 3497 H 318.589 -5.31663 4.49786 0
M  V30 3498 H 316.216 -5.58728 5.15487 0
M  V30 3499 N 317.792 -0.46758 -1.50504 0
M  V30 3500 C 319.02 0.0864133 -2.06719 0
M  V30 3501 C 319.435 1.33819 -1.33184 0
M  V30 3502 O 318.792 1.78061 -0.400083 0
M  V30 3503 C 318.843 0.378079 -3.59517 0
M  V30 3504 O 318.564 -0.824044 -4.3028 0
M  V30 3505 C 320.065 0.979426 -4.32345 0
M  V30 3506 H 317.285 -0.00551697 -0.670977 0
M  V30 3507 H 319.829 -0.655354 -1.93715 0
M  V30 3508 H 317.984 1.06977 -3.72337 0
M  V30 3509 H 318.398 -0.566518 -5.21432 0
M  V30 3510 H 319.872 1.1333 -5.40241 0
M  V30 3511 H 320.349 1.9686 -3.9261 0
M  V30 3512 H 320.955 0.326216 -4.24047 0
M  V30 3513 N 319.27 1.56325 -0.20005 0
M  V30 3514 C 320.2 2.22318 0.713916 0
M  V30 3515 C 321.181 1.18788 1.21752 0
M  V30 3516 O 322.366 1.47309 1.26545 0
M  V30 3517 C 319.496 2.88639 1.93144 0
M  V30 3518 C 318.45 3.98457 1.56255 0
M  V30 3519 C 317.776 4.51967 2.85709 0
M  V30 3520 C 319.076 5.16612 0.768747 0
M  V30 3521 H 320.77 2.98952 0.163755 0
M  V30 3522 H 318.316 1.43792 0.0773219 0
M  V30 3523 H 320.269 3.33491 2.57608 0
M  V30 3524 H 318.993 2.09419 2.50621 0
M  V30 3525 H 317.652 3.54305 0.941471 0
M  V30 3526 H 317.3 3.69503 3.41287 0
M  V30 3527 H 317 5.26071 2.6177 0
M  V30 3528 H 318.524 4.99523 3.51154 0
M  V30 3529 H 319.938 5.57977 1.3166 0
M  V30 3530 H 318.335 5.96812 0.627286 0
M  V30 3531 H 319.405 4.84358 -0.229168 0
M  V30 3532 N 320.748 -0.0735177 1.57428 0
M  V30 3533 C 321.973 -0.789787 1.91774 0
M  V30 3534 C 322.398 -1.70413 0.796306 0
M  V30 3535 O 321.756 -1.79555 -0.250961 0
M  V30 3536 C 321.804 -1.5609 3.25067 0
M  V30 3537 O 320.908 -2.67144 3.14178 0
M  V30 3538 H 320.249 -0.215582 0.628029 0
M  V30 3539 H 322.779 -0.0422781 2.04556 0
M  V30 3540 H 322.789 -1.94052 3.58898 0
M  V30 3541 H 321.464 -0.890015 4.06265 0
M  V30 3542 H 320.041 -2.32052 2.91901 0
M  V30 3543 N 322.226 -1.5378 -0.344866 0
M  V30 3544 C 323.475 -1.7018 -1.08267 0
M  V30 3545 C 323.788 -0.471 -1.89845 0
M  V30 3546 O 324.994 -0.515917 -2.66553 0
M  V30 3547 C 323.45 -3.00923 -1.97417 0
M  V30 3548 C 323.058 -4.31335 -1.21053 0
M  V30 3549 C 324.802 -3.26688 -2.71063 0
M  V30 3550 C 322.709 -5.53153 -2.09225 0
M  V30 3551 H 321.639 -0.634138 -0.407903 0
M  V30 3552 H 324.29 -1.8028 -0.342246 0
M  V30 3553 H 322.672 -2.84676 -2.75274 0
M  V30 3554 H 323.846 -4.58281 -0.481159 0
M  V30 3555 H 322.161 -4.12173 -0.591813 0
M  V30 3556 H 324.758 -4.1489 -3.37299 0
M  V30 3557 H 325.101 -2.43639 -3.37558 0
M  V30 3558 H 325.634 -3.43705 -2.0028 0
M  V30 3559 H 322.373 -6.38741 -1.47274 0
M  V30 3560 H 321.893 -5.30458 -2.79955 0
M  V30 3561 H 323.572 -5.88744 -2.68308 0
M  V30 3562 N 323.704 0.605807 -1.45491 0
M  V30 3563 C 324.944 1.37606 -1.51142 0
M  V30 3564 C 325.308 1.91413 -0.150075 0
M  V30 3565 O 326.509 2.68677 -0.0812828 0
M  V30 3566 C 324.78 2.49197 -2.56195 0
M  V30 3567 S 326.339 3.36953 -2.81083 0
M  V30 3568 H 323.157 0.469118 -0.534275 0
M  V30 3569 H 325.759 0.698845 -1.82583 0
M  V30 3570 H 324.463 2.0802 -3.53773 0
M  V30 3571 H 323.994 3.21717 -2.26411 0
M  V30 3572 H 326.009 4.47395 -2.14598 0
M  V30 3573 N 325.182 1.32811 0.848464 0
M  V30 3574 C 326.412 1.26556 1.63301 0
M  V30 3575 C 326.82 -0.1676 1.88456 0
M  V30 3576 O 326.163 -1.11713 1.45828 0
M  V30 3577 C 326.225 1.96202 3.01239 0
M  V30 3578 C 325.889 3.45528 2.99098 0
M  V30 3579 C 326.886 4.40903 2.75501 0
M  V30 3580 C 324.571 3.87558 3.19537 0
M  V30 3581 C 326.565 5.76282 2.72356 0
M  V30 3582 C 324.252 5.23044 3.16019 0
M  V30 3583 C 325.25 6.17217 2.92458 0
M  V30 3584 O 324.938 7.50223 2.88825 0
M  V30 3585 H 324.67 0.43771 0.515156 0
M  V30 3586 H 327.224 1.7559 1.0657 0
M  V30 3587 H 325.454 1.41746 3.59785 0
M  V30 3588 H 327.143 1.83573 3.62016 0
M  V30 3589 H 327.909 4.09756 2.5947 0
M  V30 3590 H 323.788 3.14674 3.369 0
M  V30 3591 H 327.332 6.4976 2.53886 0
M  V30 3592 H 323.229 5.53818 3.31596 0
M  V30 3593 H 323.997 7.59657 3.04735 0
M  V30 3594 N 326.66 -1.06551 1.16123 0
M  V30 3595 C 327.59 -2.15935 0.88851 0
M  V30 3596 C 328.571 -1.69306 -0.164135 0
M  V30 3597 O 329.756 -1.94193 -0.0167857 0
M  V30 3598 C 326.886 -3.45149 0.385942 0
M  V30 3599 C 325.84 -4.05271 1.3762 0
M  V30 3600 C 325.166 -5.29664 0.732137 0
M  V30 3601 C 326.466 -4.44355 2.74493 0
M  V30 3602 H 328.16 -2.39006 1.80323 0
M  V30 3603 H 325.706 -1.14866 0.868435 0
M  V30 3604 H 327.659 -4.21004 0.182647 0
M  V30 3605 H 326.383 -3.21689 -0.564274 0
M  V30 3606 H 325.042 -3.3147 1.56599 0
M  V30 3607 H 324.69 -5.02499 -0.224483 0
M  V30 3608 H 324.39 -5.70848 1.39307 0
M  V30 3609 H 325.914 -6.08218 0.538802 0
M  V30 3610 H 327.328 -5.11303 2.59311 0
M  V30 3611 H 325.725 -4.96515 3.37035 0
M  V30 3612 H 326.795 -3.55339 3.29943 0
M  V30 3613 N 328.138 -0.959301 -1.25041 0
M  V30 3614 C 329.068 -0.501388 -2.28053 0
M  V30 3615 C 330.049 0.454673 -1.63911 0
M  V30 3616 O 331.234 0.352618 -1.90972 0
M  V30 3617 C 328.364 0.217224 -3.4662 0
M  V30 3618 C 327.318 -0.654034 -4.22973 0
M  V30 3619 C 326.644 0.195589 -5.34342 0
M  V30 3620 C 327.944 -1.93447 -4.85155 0
M  V30 3621 H 329.638 -1.36238 -2.66608 0
M  V30 3622 H 327.184 -0.656534 -1.28163 0
M  V30 3623 H 329.137 0.548732 -4.17812 0
M  V30 3624 H 327.861 1.1125 -3.07068 0
M  V30 3625 H 326.52 -0.968693 -3.5357 0
M  V30 3626 H 326.168 1.09076 -4.91031 0
M  V30 3627 H 325.868 -0.384091 -5.86343 0
M  V30 3628 H 327.392 0.521958 -6.08365 0
M  V30 3629 H 328.806 -1.66908 -5.48466 0
M  V30 3630 H 327.203 -2.46018 -5.47353 0
M  V30 3631 H 328.273 -2.63466 -4.07079 0
M  V30 3632 N 329.616 1.39756 -0.72842 0
M  V30 3633 C 330.865 1.99879 -0.270407 0
M  V30 3634 C 331.178 1.58449 1.14688 0
M  V30 3635 O 332.384 2.11362 1.70407 0
M  V30 3636 C 330.84 3.57292 -0.43252 0
M  V30 3637 C 330.448 4.07688 -1.85727 0
M  V30 3638 C 332.192 4.24485 -0.0359507 0
M  V30 3639 C 330.099 5.5765 -1.96928 0
M  V30 3640 H 329.029 0.747689 -0.0973472 0
M  V30 3641 H 331.68 1.59837 -0.901355 0
M  V30 3642 H 330.062 3.95097 0.267219 0
M  V30 3643 H 331.236 3.81231 -2.58843 0
M  V30 3644 H 329.551 3.53135 -2.20646 0
M  V30 3645 H 332.148 5.34609 -0.0987484 0
M  V30 3646 H 332.491 4.03915 1.00787 0
M  V30 3647 H 333.024 3.9183 -0.686604 0
M  V30 3648 H 329.763 5.8309 -2.99476 0
M  V30 3649 H 329.283 5.8593 -1.28241 0
M  V30 3650 H 330.962 6.22957 -1.74737 0
M  V30 3651 N 331.094 0.475555 1.50254 0
M  V30 3652 C 332.343 -0.0795996 2.01543 0
M  V30 3653 C 332.656 -1.4038 1.36209 0
M  V30 3654 O 333.862 -2.04415 1.7868 0
M  V30 3655 C 332.318 -0.192363 3.59386 0
M  V30 3656 C 331.926 1.12367 4.33679 0
M  V30 3657 C 333.67 -0.699238 4.18701 0
M  V30 3658 C 331.577 0.974453 5.83317 0
M  V30 3659 H 330.507 -0.0335228 0.753254 0
M  V30 3660 H 333.158 0.611128 1.73025 0
M  V30 3661 H 331.54 -0.946974 3.84511 0
M  V30 3662 H 332.714 1.88958 4.20276 0
M  V30 3663 H 331.029 1.562 3.85993 0
M  V30 3664 H 333.626 -0.827978 5.28251 0
M  V30 3665 H 333.969 -1.69171 3.80377 0
M  V30 3666 H 334.502 -0.00188807 3.978 0
M  V30 3667 H 331.241 1.94042 6.26121 0
M  V30 3668 H 330.761 0.248998 5.99283 0
M  V30 3669 H 332.44 0.642867 6.43798 0
M  V30 3670 N 332.573 -1.56217 0.208337 0
M  V30 3671 C 333.989 -1.58919 -0.14729 0
M  V30 3672 C 334.189 -1.22486 -1.59998 0
M  V30 3673 O 333.245 -0.953849 -2.3379 0
M  V30 3674 C 334.558 -3.00236 0.167048 0
M  V30 3675 C 336.106 -3.12813 0.108219 0
M  V30 3676 C 336.581 -4.56284 0.396049 0
M  V30 3677 N 338.072 -4.61912 0.345142 0
M  V30 3678 C 338.807 -5.70837 0.541523 0
M  V30 3679 N 338.303 -6.88178 0.798968 0
M  V30 3680 N 340.096 -5.60091 0.474867 0
M  V30 3681 H 332.247 -1.78177 1.15614 0
M  V30 3682 H 334.51 -0.827555 0.462446 0
M  V30 3683 H 334.216 -3.31499 1.1748 0
M  V30 3684 H 334.09 -3.7354 -0.524184 0
M  V30 3685 H 336.477 -2.81354 -0.890157 0
M  V30 3686 H 336.558 -2.41866 0.832729 0
M  V30 3687 H 336.202 -4.88458 1.3918 0
M  V30 3688 H 336.132 -5.25439 -0.349502 0
M  V30 3689 H 338.623 -3.77589 0.153316 0
M  V30 3690 H 338.936 -7.67095 0.93727 0
M  V30 3691 H 337.281 -6.89953 0.836013 0
M  V30 3692 H 340.472 -4.67297 0.274064 0
M  V30 3693 H 340.645 -6.44917 0.631326 0
M  V30 3694 N 334.051 0.0651679 -1.57465 0
M  V30 3695 C 335.297 0.764193 -1.87851 0
M  V30 3696 C 335.63 1.76889 -0.801495 0
M  V30 3697 O 334.905 1.93594 0.187528 0
M  V30 3698 C 335.188 1.46625 -3.28897 0
M  V30 3699 C 335.041 0.477515 -4.47258 0
M  V30 3700 C 336.36 2.4095 -3.68281 0
M  V30 3701 H 333.479 0.276351 -0.683227 0
M  V30 3702 H 336.121 0.0272868 -1.8998 0
M  V30 3703 H 334.271 2.09438 -3.27212 0
M  V30 3704 H 335.943 -0.145922 -4.61069 0
M  V30 3705 H 334.186 -0.206576 -4.33308 0
M  V30 3706 H 334.857 1.0065 -5.42746 0
M  V30 3707 H 337.333 1.88209 -3.71102 0
M  V30 3708 H 336.209 2.87072 -4.67847 0
M  V30 3709 H 336.47 3.26049 -2.98571 0
M  V30 3710 N 335.529 1.53961 0.336706 0
M  V30 3711 C 336.459 1.85417 1.41925 0
M  V30 3712 C 337.44 0.709856 1.5458 0
M  V30 3713 O 338.625 0.962396 1.68676 0
M  V30 3714 C 335.755 2.06985 2.78881 0
M  V30 3715 C 334.709 3.22813 2.81026 0
M  V30 3716 C 334.035 3.29727 4.20932 0
M  V30 3717 C 335.335 4.60767 2.45949 0
M  V30 3718 H 337.029 2.76079 1.15848 0
M  V30 3719 H 334.575 1.32839 0.555859 0
M  V30 3720 H 336.528 2.27575 3.54665 0
M  V30 3721 H 335.252 1.13061 3.06406 0
M  V30 3722 H 333.911 3.0209 2.07695 0
M  V30 3723 H 333.559 2.33385 4.45579 0
M  V30 3724 H 333.259 4.07566 4.23277 0
M  V30 3725 H 334.783 3.52536 4.98549 0
M  V30 3726 H 336.197 4.81325 3.11446 0
M  V30 3727 H 334.594 5.4106 2.59566 0
M  V30 3728 H 335.664 4.6391 1.41122 0
M  V30 3729 N 337.007 -0.598083 1.45811 0
M  V30 3730 C 337.937 -1.71873 1.58057 0
M  V30 3731 C 338.918 -1.64533 0.431615 0
M  V30 3732 O 340.103 -1.82787 0.65595 0
M  V30 3733 C 337.233 -3.10495 1.55597 0
M  V30 3734 C 336.187 -3.32654 2.69305 0
M  V30 3735 C 335.513 -4.71646 2.51902 0
M  V30 3736 C 336.813 -3.21981 4.11248 0
M  V30 3737 H 338.507 -1.61881 2.51863 0
M  V30 3738 H 336.053 -0.777372 1.21214 0
M  V30 3739 H 338.006 -3.88699 1.6276 0
M  V30 3740 H 336.73 -3.2135 0.583255 0
M  V30 3741 H 335.389 -2.56843 2.61586 0
M  V30 3742 H 335.037 -4.79246 1.52748 0
M  V30 3743 H 334.737 -4.87426 3.2816 0
M  V30 3744 H 336.261 -5.52038 2.60933 0
M  V30 3745 H 337.675 -3.90049 4.20161 0
M  V30 3746 H 336.072 -3.49289 4.87972 0
M  V30 3747 H 337.142 -2.1928 4.32486 0
M  V30 3748 N 338.485 -1.33259 -0.841409 0
M  V30 3749 C 339.432 -1.23302 -1.95103 0
M  V30 3750 C 340.402 -0.112204 -1.65721 0
M  V30 3751 O 341.587 -0.290038 -1.88583 0
M  V30 3752 C 338.727 -0.975583 -3.31023 0
M  V30 3753 C 337.84 -2.18243 -3.72819 0
M  V30 3754 C 336.975 -1.85936 -4.97595 0
M  V30 3755 C 336.014 -3.02866 -5.3192 0
M  V30 3756 N 335.151 -2.70565 -6.47873 0
M  V30 3757 H 339.991 -2.18207 -2.02952 0
M  V30 3758 H 337.528 -1.0851 -0.993173 0
M  V30 3759 H 339.486 -0.80677 -4.09325 0
M  V30 3760 H 338.116 -0.0632755 -3.22738 0
M  V30 3761 H 337.168 -2.46107 -2.90061 0
M  V30 3762 H 338.48 -3.05666 -3.94169 0
M  V30 3763 H 337.634 -1.65684 -5.83638 0
M  V30 3764 H 336.373 -0.957452 -4.78209 0
M  V30 3765 H 335.378 -3.23736 -4.44382 0
M  V30 3766 H 336.603 -3.93809 -5.53255 0
M  V30 3767 H 334.549 -1.8293 -6.29978 0
M  V30 3768 H 334.466 -3.51519 -6.69306 0
M  V30 3769 H 335.734 -2.53774 -7.37034 0
M  V30 3770 N 339.963 1.05934 -1.16686 0
M  V30 3771 C 341.209 1.79065 -0.95203 0
M  V30 3772 C 341.542 1.87147 0.518629 0
M  V30 3773 O 340.817 1.36574 1.38484 0
M  V30 3774 C 341.1 3.23359 -1.58464 0
M  V30 3775 C 340.953 3.23336 -3.12689 0
M  V30 3776 C 342.272 4.21004 -1.28232 0
M  V30 3777 H 339.391 0.65005 -0.34728 0
M  V30 3778 H 342.033 1.23868 -1.44072 0
M  V30 3779 H 340.183 3.70493 -1.16908 0
M  V30 3780 H 341.855 2.84336 -3.6325 0
M  V30 3781 H 340.098 2.61886 -3.4583 0
M  V30 3782 H 340.769 4.25144 -3.52075 0
M  V30 3783 H 343.245 3.8233 -1.64203 0
M  V30 3784 H 342.121 5.20225 -1.75092 0
M  V30 3785 H 342.382 4.41639 -0.201791 0
M  V30 3786 N 341.441 0.965919 1.2453 0
M  V30 3787 C 342.351 0.502154 2.29163 0
M  V30 3788 C 343.367 -0.436017 1.68448 0
M  V30 3789 O 344.543 -0.309497 1.99008 0
M  V30 3790 C 341.608 -0.201956 3.46111 0
M  V30 3791 C 340.669 0.775821 4.22232 0
M  V30 3792 C 339.902 0.105217 5.33596 0
M  V30 3793 O 340.125 -1.10683 5.59558 0
M  V30 3794 O 339.059 0.796475 5.96607 0
M  V30 3795 H 342.885 1.37194 2.70946 0
M  V30 3796 H 340.47 0.732875 1.30189 0
M  V30 3797 H 342.352 -0.597564 4.17142 0
M  V30 3798 H 341.027 -1.04673 3.06309 0
M  V30 3799 H 339.934 1.22185 3.53584 0
M  V30 3800 H 341.267 1.58896 4.65846 0
M  V30 3801 N 342.919 -1.39368 0.735821 0
M  V30 3802 C 344.165 -2.00794 0.284544 0
M  V30 3803 C 344.498 -1.58255 -1.12557 0
M  V30 3804 O 343.773 -0.811819 -1.76748 0
M  V30 3805 C 344.056 -3.58011 0.387337 0
M  V30 3806 C 343.909 -4.10566 1.83728 0
M  V30 3807 C 345.228 -4.395 -0.22975 0
M  V30 3808 H 342.347 -0.729501 0.104866 0
M  V30 3809 H 344.989 -1.65564 0.93213 0
M  V30 3810 H 343.139 -3.88154 -0.164006 0
M  V30 3811 H 344.811 -3.91139 2.44556 0
M  V30 3812 H 343.054 -3.64095 2.35833 0
M  V30 3813 H 343.725 -5.19702 1.86047 0
M  V30 3814 H 346.201 -4.15406 0.240257 0
M  V30 3815 H 345.077 -5.48752 -0.127485 0
M  V30 3816 H 345.338 -4.22062 -1.3159 0
M  V30 3817 N 344.397 -0.483516 -1.5 0
M  V30 3818 C 345.808 -0.0314176 -1.86674 0
M  V30 3819 C 346.159 1.37728 -1.39733 0
M  V30 3820 O 345.284 2.02327 -0.767635 0
M  V30 3821 C 345.879 -0.0502376 -3.38763 0
M  V30 3822 C 344.438 0.346442 -3.74802 0
M  V30 3823 C 343.585 -0.430366 -2.7394 0
M  V30 3824 H 346.536 -0.697182 -1.42566 0
M  V30 3825 H 346.557 0.749116 -3.73053 0
M  V30 3826 H 346.069 -1.07563 -3.72897 0
M  V30 3827 H 344.17 1.37572 -3.46273 0
M  V30 3828 H 344.283 0.0391486 -4.79084 0
M  V30 3829 H 342.647 0.117557 -2.54429 0
M  V30 3830 H 343.43 -1.4555 -3.10918 0
M  V30 3831 N 345.875 1.56104 -0.216619 0
M  V30 3832 C 346.785 2.23694 0.706982 0
M  V30 3833 C 347.801 1.24295 1.21765 0
M  V30 3834 O 348.977 1.57094 1.2603 0
M  V30 3835 C 346.042 2.8998 1.90033 0
M  V30 3836 C 345.103 4.04708 1.43213 0
M  V30 3837 C 344.336 4.67824 2.56859 0
M  V30 3838 O 344.559 4.29913 3.74874 0
M  V30 3839 O 343.493 5.56905 2.28343 0
M  V30 3840 H 347.319 3.03272 0.161235 0
M  V30 3841 H 344.904 1.49394 0.0136177 0
M  V30 3842 H 346.786 3.31837 2.59735 0
M  V30 3843 H 345.461 2.13365 2.43428 0
M  V30 3844 H 344.368 3.6743 0.70327 0
M  V30 3845 H 345.701 4.83051 0.944615 0
M  V30 3846 N 347.353 -0.0568162 1.57498 0
M  V30 3847 C 348.578 -0.769402 1.92601 0
M  V30 3848 C 349.003 -1.69559 0.814336 0
M  V30 3849 O 348.361 -1.79811 -0.231903 0
M  V30 3850 C 348.409 -1.52634 3.26704 0
M  V30 3851 O 347.513 -2.63797 3.16994 0
M  V30 3852 H 346.854 -0.208909 0.63028 0
M  V30 3853 H 349.384 -0.0205798 2.0459 0
M  V30 3854 H 349.394 -1.90234 3.60936 0
M  V30 3855 H 348.069 -0.846875 4.07186 0
M  V30 3856 H 346.646 -2.28943 2.94346 0
M  V30 3857 N 348.832 -1.54138 -0.328536 0
M  V30 3858 C 350.08 -1.71765 -1.06496 0
M  V30 3859 C 350.401 -0.49149 -1.88704 0
M  V30 3860 O 349.671 0.494539 -1.89555 0
M  V30 3861 H 348.251 -0.633295 -0.396164 0
M  V30 3862 H 350.913 -1.91429 -0.366176 0
M  V30 3863 H 350.009 -2.5951 -1.73381 0
M  V30 3864 N 350.31 0.590341 -1.46126 0
M  V30 3865 C 351.24 1.71032 -1.58966 0
M  V30 3866 C 352.221 1.64302 -0.440335 0
M  V30 3867 O 353.406 1.82436 -0.665634 0
M  V30 3868 C 350.536 3.09665 -1.57241 0
M  V30 3869 C 349.49 3.31221 -2.71066 0
M  V30 3870 C 348.816 4.70303 -2.54399 0
M  V30 3871 C 350.116 3.19796 -4.1295 0
M  V30 3872 H 351.81 1.60543 -2.52718 0
M  V30 3873 H 349.356 0.770933 -1.21625 0
M  V30 3874 H 351.309 3.87831 -1.64819 0
M  V30 3875 H 350.033 3.21036 -0.600289 0
M  V30 3876 H 348.692 2.55452 -2.62944 0
M  V30 3877 H 348.34 4.78429 -1.55288 0
M  V30 3878 H 348.04 4.85679 -3.30741 0
M  V30 3879 H 349.564 5.50647 -2.63857 0
M  V30 3880 H 350.978 3.87815 -4.22223 0
M  V30 3881 H 349.375 3.46696 -4.89818 0
M  V30 3882 H 350.445 2.16983 -4.33643 0
M  V30 3883 N 351.788 1.33704 0.83433 0
M  V30 3884 C 353.204 1.13137 1.12571 0
M  V30 3885 C 353.404 -0.0747261 2.01361 0
M  V30 3886 O 352.46 -0.753647 2.4099 0
M  V30 3887 C 353.773 2.42105 1.78342 0
M  V30 3888 C 355.321 2.48054 1.90888 0
M  V30 3889 C 355.796 3.76995 2.60075 0
M  V30 3890 N 357.287 3.78092 2.67584 0
M  V30 3891 C 358.022 4.74574 3.21818 0
M  V30 3892 N 357.518 5.81434 3.76705 0
M  V30 3893 N 359.311 4.62044 3.20112 0
M  V30 3894 H 351.462 2.11 0.243489 0
M  V30 3895 H 353.725 0.932532 0.17055 0
M  V30 3896 H 353.431 3.30391 1.20561 0
M  V30 3897 H 353.305 2.54594 2.7832 0
M  V30 3898 H 355.692 1.60215 2.47821 0
M  V30 3899 H 355.773 2.39502 0.898459 0
M  V30 3900 H 355.417 4.65219 2.03799 0
M  V30 3901 H 355.347 3.82825 3.61597 0
M  V30 3902 H 357.838 3.00865 2.28667 0
M  V30 3903 H 358.151 6.51084 4.16305 0
M  V30 3904 H 356.496 5.85163 3.7498 0
M  V30 3905 H 359.687 3.77716 2.76493 0
M  V30 3906 H 359.86 5.37406 3.62076 0
M  V30 3907 N 353.266 -1.05314 1.17247 0
M  V30 3908 C 354.512 -1.78557 0.961513 0
M  V30 3909 C 354.845 -1.87419 -0.508697 0
M  V30 3910 O 354.12 -1.37307 -1.37757 0
M  V30 3911 C 354.403 -3.22514 1.60176 0
M  V30 3912 C 354.256 -3.21673 3.14399 0
M  V30 3913 C 355.575 -4.20318 1.30463 0
M  V30 3914 H 352.694 -0.6482 0.350723 0
M  V30 3915 H 355.336 -1.23102 1.44727 0
M  V30 3916 H 353.486 -3.69867 1.18871 0
M  V30 3917 H 355.158 -2.82405 3.64753 0
M  V30 3918 H 353.401 -2.60048 3.47214 0
M  V30 3919 H 354.072 -4.23271 3.54324 0
M  V30 3920 H 356.548 -3.81454 1.66229 0
M  V30 3921 H 355.424 -5.19289 1.77848 0
M  V30 3922 H 355.685 -4.41526 0.22521 0
M  V30 3923 N 354.744 -0.972509 -1.24016 0
M  V30 3924 C 355.969 -0.654417 -1.96805 0
M  V30 3925 C 356.394 0.770398 -1.716 0
M  V30 3926 O 355.752 1.52361 -0.982647 0
M  V30 3927 C 355.8 -0.941031 -3.48105 0
M  V30 3928 O 354.904 -0.0289472 -4.1239 0
M  V30 3929 H 354.245 -0.24692 -0.616382 0
M  V30 3930 H 356.775 -1.30396 -1.57664 0
M  V30 3931 H 356.785 -0.87452 -3.98517 0
M  V30 3932 H 355.46 -1.97939 -3.65777 0
M  V30 3933 H 354.037 -0.149192 -3.72601 0
M  V30 3934 N 356.222 1.38976 -0.743202 0
M  V30 3935 C 357.172 2.27843 -0.084513 0
M  V30 3936 C 358.156 1.44677 0.704094 0
M  V30 3937 O 359.348 1.67511 0.571755 0
M  V30 3938 C 356.477 3.33466 0.815781 0
M  V30 3939 C 355.563 4.24095 0.0208844 0
M  V30 3940 N 355.954 4.95609 -1.0102 0
M  V30 3941 C 354.252 4.45303 0.249293 0
M  V30 3942 C 354.953 5.62287 -1.49024 0
M  V30 3943 N 353.929 5.37571 -0.807377 0
M  V30 3944 H 357.731 2.80593 -0.87436 0
M  V30 3945 H 355.245 1.51755 -0.578283 0
M  V30 3946 H 357.242 3.96008 1.30321 0
M  V30 3947 H 355.902 2.82276 1.6047 0
M  V30 3948 H 356.913 4.98849 -1.39176 0
M  V30 3949 H 353.59 4.0504 1.01237 0
M  V30 3950 H 354.98 6.29519 -2.34853 0
M  V30 3951 N 357.7 0.491464 1.49741 0
M  V30 3952 C 359.116 0.146835 1.58923 0
M  V30 3953 C 359.316 -1.34804 1.49767 0
M  V30 3954 O 358.372 -2.12317 1.36667 0
M  V30 3955 C 359.685 0.715157 2.92072 0
M  V30 3956 C 361.233 0.680407 3.05515 0
M  V30 3957 C 361.708 1.22663 4.41269 0
M  V30 3958 N 363.199 1.18691 4.47735 0
M  V30 3959 C 363.934 1.57984 5.51207 0
M  V30 3960 N 363.43 2.04824 6.6183 0
M  V30 3961 N 365.223 1.49459 5.41866 0
M  V30 3962 H 357.374 1.46347 1.53936 0
M  V30 3963 H 359.637 0.606453 0.728642 0
M  V30 3964 H 359.343 1.76317 3.04311 0
M  V30 3965 H 359.217 0.17018 3.76816 0
M  V30 3966 H 361.604 -0.358743 2.92911 0
M  V30 3967 H 361.685 1.26242 2.22478 0
M  V30 3968 H 361.329 2.26451 4.54623 0
M  V30 3969 H 361.259 0.620637 5.2293 0
M  V30 3970 H 363.75 0.843605 3.68364 0
M  V30 3971 H 364.063 2.32901 7.3687 0
M  V30 3972 H 362.408 2.08791 6.62896 0
M  V30 3973 H 365.599 1.12692 4.54333 0
M  V30 3974 H 365.772 1.80406 6.22381 0
M  V30 3975 N 359.178 -1.55987 0.224894 0
M  V30 3976 C 360.125 -2.20436 -0.68385 0
M  V30 3977 C 361.095 -1.16102 -1.18783 0
M  V30 3978 O 362.28 -1.4447 -1.24632 0
M  V30 3979 C 359.42 -2.89076 -1.88491 0
M  V30 3980 C 358.533 -4.08012 -1.41951 0
M  V30 3981 C 357.668 -4.64426 -2.5784 0
M  V30 3982 C 356.707 -5.75656 -2.08053 0
M  V30 3983 N 355.844 -6.26347 -3.17227 0
M  V30 3984 H 360.684 -2.97727 -0.12754 0
M  V30 3985 H 358.221 -1.47011 -0.0511978 0
M  V30 3986 H 360.179 -3.27059 -2.59014 0
M  V30 3987 H 358.809 -2.14298 -2.41405 0
M  V30 3988 H 357.861 -3.75492 -0.609095 0
M  V30 3989 H 359.173 -4.88375 -1.01447 0
M  V30 3990 H 358.327 -5.04869 -3.3644 0
M  V30 3991 H 357.066 -3.83233 -3.01635 0
M  V30 3992 H 356.071 -5.34712 -1.27916 0
M  V30 3993 H 357.296 -6.58686 -1.65255 0
M  V30 3994 H 355.242 -5.48067 -3.60497 0
M  V30 3995 H 355.159 -7.01843 -2.80986 0
M  V30 3996 H 356.427 -6.71447 -3.95953 0
M  V30 3997 N 360.656 0.0484629 -1.57525 0
M  V30 3998 C 361.619 1.03956 -2.04269 0
M  V30 3999 C 362.619 1.30211 -0.943496 0
M  V30 4000 O 363.809 1.25539 -1.20771 0
M  V30 4001 C 360.941 2.37742 -2.44319 0
M  V30 4002 H 362.134 0.636182 -2.93075 0
M  V30 4003 H 359.687 0.294811 -1.53494 0
M  V30 4004 H 360.422 2.82866 -1.5861 0
M  V30 4005 H 360.207 2.20021 -3.24551 0
M  V30 4006 H 361.697 3.08936 -2.80978 0
M  V30 4007 N 362.134 1.5431 0.320358 0
M  V30 4008 C 363.064 1.86912 1.3995 0
M  V30 4009 C 364.045 0.726211 1.53819 0
M  V30 4010 O 365.23 0.980233 1.67646 0
M  V30 4011 C 362.36 2.09932 2.7667 0
M  V30 4012 C 361.314 3.25776 2.77586 0
M  V30 4013 C 360.64 3.34173 4.17412 0
M  V30 4014 C 361.94 4.6335 2.41048 0
M  V30 4015 H 363.634 2.77292 1.12914 0
M  V30 4016 H 361.18 1.33421 0.541738 0
M  V30 4017 H 363.133 2.31324 3.52232 0
M  V30 4018 H 361.857 1.16304 3.0519 0
M  V30 4019 H 360.516 3.04276 2.04479 0
M  V30 4020 H 360.164 2.38098 4.43078 0
M  V30 4021 H 359.864 4.12033 4.18931 0
M  V30 4022 H 361.388 3.57803 4.94782 0
M  V30 4023 H 362.802 4.84602 3.06324 0
M  V30 4024 H 361.199 5.43782 2.53813 0
M  V30 4025 H 362.269 4.65381 1.36193 0
M  V30 4026 N 363.613 -0.582584 1.46437 0
M  V30 4027 C 364.841 -1.36682 1.55324 0
M  V30 4028 C 365.256 -1.87796 0.194409 0
M  V30 4029 O 364.613 -1.63623 -0.808318 0
M  V30 4030 C 364.664 -2.55426 2.55812 0
M  V30 4031 O 364.385 -2.0643 3.86417 0
M  V30 4032 C 365.886 -3.47976 2.74641 0
M  V30 4033 H 363.106 -0.417545 0.525259 0
M  V30 4034 H 365.65 -0.708219 1.91845 0
M  V30 4035 H 363.805 -3.17275 2.22295 0
M  V30 4036 H 364.219 -2.83762 4.41111 0
M  V30 4037 H 365.693 -4.27775 3.48874 0
M  V30 4038 H 366.17 -3.99919 1.81553 0
M  V30 4039 H 366.776 -2.91962 3.09255 0
M  V30 4040 N 365.091 -1.34144 -0.827227 0
M  V30 4041 C 366.319 -1.29325 -1.61501 0
M  V30 4042 C 366.734 0.13354 -1.88327 0
M  V30 4043 O 366.091 1.0793 -1.47164 0
M  V30 4044 C 366.142 -2.07746 -2.95844 0
M  V30 4045 O 365.863 -3.4486 -2.70191 0
M  V30 4046 C 367.364 -2.10273 -3.90256 0
M  V30 4047 H 364.584 -0.445069 -0.50215 0
M  V30 4048 H 367.128 -1.76693 -1.02955 0
M  V30 4049 H 365.283 -1.6403 -3.5096 0
M  V30 4050 H 365.697 -3.85345 -3.55822 0
M  V30 4051 H 367.171 -2.69575 -4.81698 0
M  V30 4052 H 367.648 -1.096 -4.25305 0
M  V30 4053 H 368.254 -2.54059 -3.41078 0
M  V30 4054 N 366.569 1.04691 -1.17803 0
M  V30 4055 C 367.818 1.77176 -0.963931 0
M  V30 4056 C 368.131 1.88888 0.508015 0
M  V30 4057 O 369.337 2.58164 0.840465 0
M  V30 4058 C 367.793 3.18518 -1.67555 0
M  V30 4059 C 367.401 3.14919 -3.18637 0
M  V30 4060 C 369.145 3.95424 -1.54402 0
M  V30 4061 C 367.052 4.51081 -3.82466 0
M  V30 4062 H 365.982 0.664116 -0.357023 0
M  V30 4063 H 368.633 1.17303 -1.4111 0
M  V30 4064 H 367.015 3.78748 -1.15613 0
M  V30 4065 H 368.189 2.64178 -3.77554 0
M  V30 4066 H 366.504 2.51512 -3.31859 0
M  V30 4067 H 369.101 4.96106 -1.99456 0
M  V30 4068 H 369.444 4.13343 -0.495329 0
M  V30 4069 H 369.977 3.41754 -2.0359 0
M  V30 4070 H 366.716 4.38368 -4.87354 0
M  V30 4071 H 366.236 5.01951 -3.28337 0
M  V30 4072 H 367.915 5.2001 -3.84965 0
M  V30 4073 N 368.047 0.979072 1.23499 0
M  V30 4074 C 369.296 0.642751 1.91185 0
M  V30 4075 C 369.609 -0.827253 1.77245 0
M  V30 4076 O 370.815 -1.27458 2.39722 0
M  V30 4077 C 369.271 1.09901 3.42709 0
M  V30 4078 C 368.879 2.59327 3.65313 0
M  V30 4079 C 370.623 0.836371 4.16179 0
M  V30 4080 C 368.53 2.98627 5.10467 0
M  V30 4081 H 367.46 0.236698 0.715884 0
M  V30 4082 H 370.111 1.1868 1.39955 0
M  V30 4083 H 368.493 0.48319 3.93041 0
M  V30 4084 H 369.667 3.26136 3.25533 0
M  V30 4085 H 367.982 2.83323 3.05151 0
M  V30 4086 H 370.579 1.10586 5.23139 0
M  V30 4087 H 370.922 -0.227509 4.15678 0
M  V30 4088 H 371.455 1.41371 3.71832 0
M  V30 4089 H 368.194 4.04133 5.16098 0
M  V30 4090 H 367.714 2.3651 5.51201 0
M  V30 4091 H 369.393 2.89159 5.78788 0
M  V30 4092 N 369.525 -1.3858 0.750561 0
M  V30 4093 C 370.774 -1.99424 0.302172 0
M  V30 4094 C 371.087 -1.60254 -1.12152 0
M  V30 4095 O 372.293 -2.14046 -1.67023 0
M  V30 4096 C 370.749 -3.56558 0.489307 0
M  V30 4097 C 370.357 -4.04682 1.92189 0
M  V30 4098 C 372.101 -4.24374 0.103478 0
M  V30 4099 C 370.008 -5.54446 2.05775 0
M  V30 4100 H 368.938 -0.746046 0.10923 0
M  V30 4101 H 371.589 -1.58383 0.92667 0
M  V30 4102 H 369.971 -3.95472 -0.204329 0
M  V30 4103 H 371.145 -3.77065 2.64875 0
M  V30 4104 H 369.46 -3.4958 2.26236 0
M  V30 4105 H 372.057 -5.34384 0.183787 0
M  V30 4106 H 372.4 -4.05468 -0.943481 0
M  V30 4107 H 372.933 -3.90688 0.748854 0
M  V30 4108 H 369.672 -5.78252 3.08714 0
M  V30 4109 H 369.192 -5.83816 1.37546 0
M  V30 4110 H 370.871 -6.20099 1.84626 0
M  V30 4111 N 371.003 -0.499398 -1.49478 0
M  V30 4112 C 372.231 0.0425456 -2.06856 0
M  V30 4113 C 372.646 1.30964 -1.35992 0
M  V30 4114 O 372.003 1.77172 -0.437762 0
M  V30 4115 C 372.054 0.301735 -3.60239 0
M  V30 4116 O 371.775 -0.915127 -4.28436 0
M  V30 4117 C 373.276 0.887499 -4.34325 0
M  V30 4118 H 370.496 -0.0197482 -0.670709 0
M  V30 4119 H 373.04 -0.696297 -1.92281 0
M  V30 4120 H 371.195 0.990556 -3.74522 0
M  V30 4121 H 371.609 -0.676993 -5.20113 0
M  V30 4122 H 373.083 1.01845 -5.42523 0
M  V30 4123 H 373.56 1.88488 -3.96698 0
M  V30 4124 H 374.166 0.236196 -4.24644 0
M  V30 4125 N 372.481 1.55866 -0.233164 0
M  V30 4126 C 373.411 2.23783 0.666599 0
M  V30 4127 C 374.392 1.21343 1.19205 0
M  V30 4128 O 375.577 1.4996 1.23392 0
M  V30 4129 C 372.707 2.92671 1.86978 0
M  V30 4130 C 371.661 4.01682 1.47768 0
M  V30 4131 C 370.987 4.57926 2.76058 0
M  V30 4132 C 372.287 5.18126 0.658993 0
M  V30 4133 H 373.981 2.99232 0.100306 0
M  V30 4134 H 371.527 1.43924 0.046804 0
M  V30 4135 H 373.48 3.3888 2.50476 0
M  V30 4136 H 372.204 2.14688 2.46123 0
M  V30 4137 H 370.863 3.56222 0.866106 0
M  V30 4138 H 370.511 3.76659 3.33372 0
M  V30 4139 H 370.211 5.31505 2.50552 0
M  V30 4140 H 371.735 5.06859 3.40479 0
M  V30 4141 H 373.149 5.60644 1.19795 0
M  V30 4142 H 371.546 5.98009 0.500552 0
M  V30 4143 H 372.616 4.83763 -0.331856 0
M  V30 4144 N 373.959 -0.0401083 1.57549 0
M  V30 4145 C 375.208 -0.732108 1.87944 0
M  V30 4146 C 375.521 -1.77107 0.830206 0
M  V30 4147 O 376.727 -2.51488 1.02302 0
M  V30 4148 C 375.183 -1.35315 3.33494 0
M  V30 4149 C 374.791 -0.351105 4.46622 0
M  V30 4150 C 376.535 -2.02566 3.73051 0
M  V30 4151 C 374.442 -0.979859 5.83226 0
M  V30 4152 H 373.372 -0.277188 0.701201 0
M  V30 4153 H 376.023 0.0138501 1.83495 0
M  V30 4154 H 374.405 -2.14844 3.32653 0
M  V30 4155 H 375.579 0.416674 4.58912 0
M  V30 4156 H 373.894 0.218708 4.15825 0
M  V30 4157 H 376.491 -2.50441 4.72423 0
M  V30 4158 H 376.834 -2.83904 3.04474 0
M  V30 4159 H 377.367 -1.29827 3.76018 0
M  V30 4160 H 374.106 -0.206135 6.55176 0
M  V30 4161 H 373.626 -1.71774 5.74677 0
M  V30 4162 H 375.305 -1.49046 6.29599 0
M  V30 4163 N 375.437 -1.54477 -0.31217 0
M  V30 4164 C 376.686 -1.72438 -1.04633 0
M  V30 4165 C 376.999 -0.511163 -1.88803 0
M  V30 4166 O 378.205 -0.572341 -2.65399 0
M  V30 4167 C 376.661 -3.05043 -1.9099 0
M  V30 4168 C 376.269 -4.33806 -1.11877 0
M  V30 4169 C 378.013 -3.32364 -2.64073 0
M  V30 4170 C 375.92 -5.57467 -1.97445 0
M  V30 4171 H 374.85 -0.642647 -0.394361 0
M  V30 4172 H 377.501 -1.80966 -0.303929 0
M  V30 4173 H 375.883 -2.90451 -2.69173 0
M  V30 4174 H 377.057 -4.59199 -0.383843 0
M  V30 4175 H 375.372 -4.13336 -0.504252 0
M  V30 4176 H 377.969 -4.21951 -3.28423 0
M  V30 4177 H 378.312 -2.50745 -3.32314 0
M  V30 4178 H 378.845 -3.47875 -1.92944 0
M  V30 4179 H 375.584 -6.41722 -1.33692 0
M  V30 4180 H 375.104 -5.36277 -2.6864 0
M  V30 4181 H 376.783 -5.94303 -2.5576 0
M  V30 4182 N 376.915 0.57481 -1.46744 0
M  V30 4183 C 378.162 1.33272 -1.52462 0
M  V30 4184 C 378.49 1.93669 -0.179572 0
M  V30 4185 O 377.745 1.7743 0.825664 0
M  V30 4186 C 378.044 2.476 -2.57738 0
M  V30 4187 C 377.71 2.05146 -4.01529 0
M  V30 4188 C 376.372 1.93284 -4.40676 0
M  V30 4189 C 378.724 1.72506 -4.91824 0
M  V30 4190 C 376.052 1.47049 -5.67973 0
M  V30 4191 C 378.404 1.27748 -6.19567 0
M  V30 4192 C 377.068 1.14468 -6.57612 0
M  V30 4193 H 376.338 0.487678 -0.557899 0
M  V30 4194 H 378.985 0.646456 -1.80259 0
M  V30 4195 H 377.29 3.21708 -2.23632 0
M  V30 4196 H 378.987 3.05807 -2.5939 0
M  V30 4197 H 375.577 2.15316 -3.7059 0
M  V30 4198 H 379.761 1.80552 -4.62293 0
M  V30 4199 H 375.017 1.35417 -5.96215 0
M  V30 4200 H 379.191 1.01547 -6.88957 0
M  V30 4201 H 376.818 0.78419 -7.56145 0
M  V30 4202 N 378.394 1.34581 0.820102 0
M  V30 4203 C 379.641 1.27096 1.57648 0
M  V30 4204 C 379.969 -0.158317 1.93855 0
M  V30 4205 O 379.224 -1.12028 1.60463 0
M  V30 4206 C 379.523 2.10997 2.8847 0
M  V30 4207 C 379.189 3.59966 2.71543 0
M  V30 4208 C 377.851 4.00575 2.66634 0
M  V30 4209 C 380.203 4.54548 2.55021 0
M  V30 4210 C 377.531 5.33953 2.43128 0
M  V30 4211 C 379.883 5.88109 2.33047 0
M  V30 4212 C 378.547 6.27878 2.26552 0
M  V30 4213 H 377.817 0.465078 0.576874 0
M  V30 4214 H 380.464 1.6635 0.948671 0
M  V30 4215 H 378.769 1.6458 3.55557 0
M  V30 4216 H 380.466 2.0255 3.46084 0
M  V30 4217 H 377.056 3.27733 2.76205 0
M  V30 4218 H 381.24 4.24069 2.57835 0
M  V30 4219 H 376.496 5.63781 2.3656 0
M  V30 4220 H 380.67 6.60985 2.19251 0
M  V30 4221 H 378.297 7.31162 2.081 0
M  V30 4222 N 379.872 -1.04064 1.18357 0
M  V30 4223 C 380.802 -2.14001 0.934113 0
M  V30 4224 C 381.783 -1.69616 -0.128186 0
M  V30 4225 O 382.968 -1.94185 0.0244093 0
M  V30 4226 C 380.098 -3.44253 0.459066 0
M  V30 4227 C 379.052 -4.02261 1.46185 0
M  V30 4228 C 378.378 -5.27992 0.844322 0
M  V30 4229 C 379.678 -4.38432 2.83856 0
M  V30 4230 H 381.372 -2.35127 1.85352 0
M  V30 4231 H 378.918 -1.12998 0.892604 0
M  V30 4232 H 380.871 -4.20522 0.271907 0
M  V30 4233 H 379.595 -3.22813 -0.495912 0
M  V30 4234 H 378.254 -3.28074 1.63595 0
M  V30 4235 H 377.902 -5.02862 -0.117845 0
M  V30 4236 H 377.602 -5.67765 1.51384 0
M  V30 4237 H 379.126 -6.06938 0.667693 0
M  V30 4238 H 380.54 -5.05688 2.70098 0
M  V30 4239 H 378.937 -4.89254 3.47491 0
M  V30 4240 H 380.007 -3.4826 3.37406 0
M  V30 4241 N 381.35 -0.985608 -1.22978 0
M  V30 4242 C 382.59 -0.665487 -1.93263 0
M  V30 4243 C 382.954 0.78706 -1.75127 0
M  V30 4244 O 384.155 1.21826 -2.39608 0
M  V30 4245 C 382.426 -1.0515 -3.41582 0
M  V30 4246 S 383.985 -0.848637 -4.30516 0
M  V30 4247 H 380.803 -0.24355 -0.667985 0
M  V30 4248 H 383.405 -1.26635 -1.48942 0
M  V30 4249 H 382.109 -2.10517 -3.52293 0
M  V30 4250 H 381.64 -0.442134 -3.90908 0
M  V30 4251 H 383.655 0.264717 -4.95493 0
M  V30 4252 N 382.828 1.3818 -0.7579 0
M  V30 4253 C 384.075 2.00019 -0.315985 0
M  V30 4254 C 384.403 1.60163 1.10355 0
M  V30 4255 O 383.658 0.83264 1.77103 0
M  V30 4256 C 383.957 3.55252 -0.391218 0
M  V30 4257 C 383.623 4.14834 -1.76702 0
M  V30 4258 C 382.285 4.30821 -2.14353 0
M  V30 4259 C 384.637 4.47658 -2.66931 0
M  V30 4260 C 381.965 4.76928 -3.41696 0
M  V30 4261 C 384.317 4.95184 -3.93669 0
M  V30 4262 C 382.981 5.09377 -4.31383 0
M  V30 4263 H 382.251 0.731923 -0.115627 0
M  V30 4264 H 384.898 1.65161 -0.969223 0
M  V30 4265 H 383.203 3.90273 0.34558 0
M  V30 4266 H 384.9 4.00988 -0.030805 0
M  V30 4267 H 381.49 4.02808 -1.46435 0
M  V30 4268 H 385.674 4.34904 -2.39106 0
M  V30 4269 H 380.93 4.86103 -3.70829 0
M  V30 4270 H 385.104 5.19551 -4.63724 0
M  V30 4271 H 382.731 5.44865 -5.30119 0
M  V30 4272 N 384.306 0.507319 1.49211 0
M  V30 4273 C 385.236 -0.256939 2.32082 0
M  V30 4274 C 386.217 -0.956609 1.40652 0
M  V30 4275 O 387.402 -0.946788 1.69557 0
M  V30 4276 C 384.532 -1.31802 3.21318 0
M  V30 4277 C 383.486 -0.737855 4.21592 0
M  V30 4278 C 382.812 -1.89992 4.99807 0
M  V30 4279 C 384.112 0.275325 5.21574 0
M  V30 4280 H 385.806 0.434798 2.96226 0
M  V30 4281 H 383.352 0.210546 1.42452 0
M  V30 4282 H 385.305 -1.86045 3.78107 0
M  V30 4283 H 384.029 -2.03903 2.5513 0
M  V30 4284 H 382.688 -0.217126 3.65956 0
M  V30 4285 H 382.336 -2.60877 4.30061 0
M  V30 4286 H 382.036 -1.51777 5.6766 0
M  V30 4287 H 383.56 -2.44657 5.59442 0
M  V30 4288 H 384.974 -0.179193 5.7302 0
M  V30 4289 H 383.371 0.573649 5.97352 0
M  V30 4290 H 384.441 1.18903 4.70096 0
M  V30 4291 N 385.784 -1.5574 0.241426 0
M  V30 4292 C 387.195 -1.84842 -0.262755 0
M  V30 4293 C 387.546 -1.16317 -1.58003 0
M  V30 4294 O 386.671 -0.439653 -2.11887 0
M  V30 4295 C 387.266 -3.35332 -0.483523 0
M  V30 4296 C 385.825 -3.6468 -0.931977 0
M  V30 4297 C 384.972 -2.77299 -0.0061151 0
M  V30 4298 H 387.923 -1.51761 0.464129 0
M  V30 4299 H 387.944 -3.56615 -1.32688 0
M  V30 4300 H 387.456 -3.85178 0.47537 0
M  V30 4301 H 385.557 -3.20307 -1.90353 0
M  V30 4302 H 385.67 -4.72498 -0.792628 0
M  V30 4303 H 384.034 -2.49408 -0.516503 0
M  V30 4304 H 384.817 -3.2995 0.948052 0
M  V30 4305 N 387.262 0.0317525 -1.57568 0
M  V30 4306 C 388.492 0.733884 -1.93126 0
M  V30 4307 C 388.9 1.69563 -0.839352 0
M  V30 4308 O 388.243 1.82681 0.193175 0
M  V30 4309 C 388.305 1.54798 -3.24465 0
M  V30 4310 C 387.969 0.751304 -4.50782 0
M  V30 4311 C 388.966 0.0527632 -5.19873 0
M  V30 4312 C 386.651 0.706639 -4.97305 0
M  V30 4313 C 388.645 -0.679774 -6.33765 0
M  V30 4314 C 386.332 -0.0296449 -6.11093 0
M  V30 4315 C 387.33 -0.721614 -6.79177 0
M  V30 4316 O 387.018 -1.44595 -7.90789 0
M  V30 4317 H 386.75 0.211459 -0.642076 0
M  V30 4318 H 389.304 -0.00585615 -2.05399 0
M  V30 4319 H 387.534 2.33147 -3.08512 0
M  V30 4320 H 389.223 2.13247 -3.4537 0
M  V30 4321 H 389.989 0.0783188 -4.84937 0
M  V30 4322 H 385.868 1.23474 -4.44157 0
M  V30 4323 H 389.412 -1.22042 -6.86842 0
M  V30 4324 H 385.309 -0.0571331 -6.45475 0
M  V30 4325 H 386.077 -1.35935 -8.07133 0
M  V30 4326 N 388.74 1.54641 0.303973 0
M  V30 4327 C 389.69 1.8177 1.37636 0
M  V30 4328 C 390.674 0.674697 1.46071 0
M  V30 4329 O 391.866 0.935251 1.50273 0
M  V30 4330 C 388.995 2.06584 2.74186 0
M  V30 4331 C 388.081 3.2706 2.69986 0
M  V30 4332 N 388.472 4.47682 2.35402 0
M  V30 4333 C 386.77 3.29028 3.01092 0
M  V30 4334 C 387.471 5.29689 2.40426 0
M  V30 4335 N 386.447 4.67339 2.7766 0
M  V30 4336 H 390.249 2.72596 1.09857 0
M  V30 4337 H 387.763 1.541 0.51254 0
M  V30 4338 H 389.76 2.24166 3.51504 0
M  V30 4339 H 388.42 1.17024 3.02879 0
M  V30 4340 H 389.431 4.74336 2.07908 0
M  V30 4341 H 386.108 2.49565 3.34699 0
M  V30 4342 H 387.498 6.3606 2.16512 0
M  V30 4343 N 390.218 -0.567019 1.47046 0
M  V30 4344 C 391.446 -1.35027 1.56765 0
M  V30 4345 C 391.861 -1.8758 0.214316 0
M  V30 4346 O 391.218 -1.64471 -0.790919 0
M  V30 4347 C 391.269 -2.52698 2.58507 0
M  V30 4348 O 390.99 -2.0232 3.88585 0
M  V30 4349 C 392.491 -3.45043 2.78316 0
M  V30 4350 H 389.711 -0.41195 0.529658 0
M  V30 4351 H 392.255 -0.687832 1.92585 0
M  V30 4352 H 390.41 -3.149 2.25648 0
M  V30 4353 H 390.824 -2.79068 4.44096 0
M  V30 4354 H 392.298 -4.2405 3.53391 0
M  V30 4355 H 392.775 -3.97971 1.85784 0
M  V30 4356 H 393.381 -2.88665 3.12334 0
M  V30 4357 N 391.696 -1.35014 -0.812953 0
M  V30 4358 C 392.626 -1.30069 -1.93919 0
M  V30 4359 C 393.607 -0.176275 -1.69184 0
M  V30 4360 O 394.792 -0.370227 -1.90638 0
M  V30 4361 C 391.922 -1.06547 -3.30552 0
M  V30 4362 C 390.876 -2.15561 -3.69753 0
M  V30 4363 C 390.202 -1.77214 -5.04479 0
M  V30 4364 C 391.502 -3.57476 -3.808 0
M  V30 4365 H 393.196 -2.24303 -1.98314 0
M  V30 4366 H 390.742 -1.07977 -0.952736 0
M  V30 4367 H 392.695 -1.01729 -4.08937 0
M  V30 4368 H 391.419 -0.0875719 -3.26483 0
M  V30 4369 H 390.078 -2.19466 -2.9365 0
M  V30 4370 H 389.726 -0.780589 -4.96906 0
M  V30 4371 H 389.426 -2.50184 -5.31678 0
M  V30 4372 H 390.95 -1.7391 -5.8531 0
M  V30 4373 H 392.364 -3.55929 -4.4943 0
M  V30 4374 H 390.761 -4.29152 -4.19462 0
M  V30 4375 H 391.831 -3.94091 -2.82525 0
M  V30 4376 N 393.175 1.03435 -1.18907 0
M  V30 4377 C 394.591 1.28973 -0.940111 0
M  V30 4378 C 394.791 1.97676 0.390691 0
M  V30 4379 O 393.847 2.26127 1.12352 0
M  V30 4380 C 395.16 2.14221 -2.11021 0
M  V30 4381 C 396.708 2.27547 -2.14922 0
M  V30 4382 C 397.183 3.16164 -3.31367 0
M  V30 4383 N 398.674 3.23752 -3.31269 0
M  V30 4384 C 399.409 3.92495 -4.18014 0
M  V30 4385 N 398.905 4.63515 -5.14904 0
M  V30 4386 N 400.698 3.88838 -4.05908 0
M  V30 4387 H 392.849 0.57252 -2.04538 0
M  V30 4388 H 395.112 0.315184 -0.894071 0
M  V30 4389 H 394.818 1.71054 -3.073 0
M  V30 4390 H 394.692 3.14919 -2.0762 0
M  V30 4391 H 397.079 2.69947 -1.19217 0
M  V30 4392 H 397.16 1.26418 -2.22378 0
M  V30 4393 H 396.804 2.74474 -4.27348 0
M  V30 4394 H 396.734 4.17339 -3.21148 0
M  V30 4395 H 399.225 2.73167 -2.61129 0
M  V30 4396 H 399.538 5.13583 -5.77453 0
M  V30 4397 H 397.883 4.62398 -5.18857 0
M  V30 4398 H 401.074 3.32491 -3.29495 0
M  V30 4399 H 401.247 4.4214 -4.73726 0
M  V30 4400 N 394.653 0.992116 1.22453 0
M  V30 4401 C 395.881 0.685944 1.95198 0
M  V30 4402 C 396.296 -0.749233 1.73297 0
M  V30 4403 O 395.653 -1.50549 1.03156 0
M  V30 4404 C 395.704 0.981395 3.47924 0
M  V30 4405 O 395.425 2.36018 3.6909 0
M  V30 4406 C 396.926 0.692815 4.37853 0
M  V30 4407 H 394.146 0.253821 0.621141 0
M  V30 4408 H 396.69 1.32668 1.55626 0
M  V30 4409 H 394.845 0.386481 3.85467 0
M  V30 4410 H 395.259 2.45884 4.63294 0
M  V30 4411 H 396.733 0.949818 5.43767 0
M  V30 4412 H 397.21 -0.373181 4.37612 0
M  V30 4413 H 397.816 1.26874 4.05935 0
M  V30 4414 N 396.131 -1.37776 0.765217 0
M  V30 4415 C 397.377 -2.00145 0.327072 0
M  V30 4416 C 397.71 -1.60607 -1.09175 0
M  V30 4417 O 396.985 -0.849127 -1.74986 0
M  V30 4418 C 397.268 -3.57109 0.46319 0
M  V30 4419 C 397.121 -4.06576 1.92395 0
M  V30 4420 C 398.44 -4.39888 -0.136473 0
M  V30 4421 H 395.559 -0.727113 0.120316 0
M  V30 4422 H 398.201 -1.63549 0.967039 0
M  V30 4423 H 396.351 -3.88414 -0.0816358 0
M  V30 4424 H 398.023 -3.85864 2.52798 0
M  V30 4425 H 396.266 -3.59011 2.43503 0
M  V30 4426 H 396.937 -5.15639 1.97028 0
M  V30 4427 H 399.413 -4.14803 0.328317 0
M  V30 4428 H 398.289 -5.48899 -0.0110582 0
M  V30 4429 H 398.55 -4.24758 -1.22608 0
M  V30 4430 N 397.609 -0.515225 -1.4894 0
M  V30 4431 C 398.559 0.275113 -2.26334 0
M  V30 4432 C 399.543 0.923007 -1.31793 0
M  V30 4433 O 400.735 0.828254 -1.56426 0
M  V30 4434 C 397.864 1.33041 -3.16473 0
M  V30 4435 C 396.95 0.688051 -4.18481 0
M  V30 4436 N 397.341 -0.217638 -5.05332 0
M  V30 4437 C 395.639 0.94699 -4.3583 0
M  V30 4438 C 396.34 -0.58676 -5.78733 0
M  V30 4439 N 395.316 0.0486966 -5.43578 0
M  V30 4440 H 399.118 -0.421876 -2.90856 0
M  V30 4441 H 396.632 -0.332249 -1.58965 0
M  V30 4442 H 398.629 1.9102 -3.70563 0
M  V30 4443 H 397.289 2.02894 -2.53504 0
M  V30 4444 H 398.3 -0.589343 -5.14536 0
M  V30 4445 H 394.977 1.63719 -3.8406 0
M  V30 4446 H 396.367 -1.32855 -6.58634 0
M  V30 4447 N 399.087 1.5561 -0.249682 0
M  V30 4448 C 400.017 2.24477 0.642826 0
M  V30 4449 C 400.998 1.22601 1.17911 0
M  V30 4450 O 402.183 1.5126 1.21795 0
M  V30 4451 C 399.313 2.94638 1.83863 0
M  V30 4452 C 398.267 4.03227 1.435 0
M  V30 4453 C 397.593 4.60828 2.71186 0
M  V30 4454 C 398.893 5.18796 0.604002 0
M  V30 4455 H 400.587 2.99321 0.0685625 0
M  V30 4456 H 398.133 1.43965 0.0315363 0
M  V30 4457 H 400.086 3.41517 2.46868 0
M  V30 4458 H 398.81 2.17287 2.43832 0
M  V30 4459 H 397.469 3.57121 0.828275 0
M  V30 4460 H 397.117 3.80174 3.29358 0
M  V30 4461 H 396.817 5.34132 2.44901 0
M  V30 4462 H 398.341 5.10442 3.35084 0
M  V30 4463 H 399.755 5.61883 1.13842 0
M  V30 4464 H 398.152 5.98506 0.437097 0
M  V30 4465 H 399.222 4.83384 -0.383147 0
M  V30 4466 N 400.565 -0.0233959 1.57583 0
M  V30 4467 C 401.793 -0.724682 1.93794 0
M  V30 4468 C 402.208 -1.68588 0.849912 0
M  V30 4469 O 401.565 -1.81676 -0.173204 0
M  V30 4470 C 401.616 -1.47684 3.29957 0
M  V30 4471 O 401.337 -0.554222 4.3458 0
M  V30 4472 C 402.838 -2.27477 3.80485 0
M  V30 4473 H 400.058 -0.203317 0.639455 0
M  V30 4474 H 402.602 0.0207653 2.04489 0
M  V30 4475 H 400.757 -2.17412 3.20641 0
M  V30 4476 H 401.171 -1.08232 5.13212 0
M  V30 4477 H 402.645 -2.7564 4.78254 0
M  V30 4478 H 403.122 -3.09144 3.11972 0
M  V30 4479 H 403.728 -1.62813 3.92902 0
M  V30 4480 N 402.043 -1.548 -0.295768 0
M  V30 4481 C 403.271 -1.78327 -1.04914 0
M  V30 4482 C 403.686 -0.545316 -1.80753 0
M  V30 4483 O 403.043 0.485013 -1.75937 0
M  V30 4484 C 403.094 -2.99418 -2.02561 0
M  V30 4485 O 402.815 -4.18431 -1.29798 0
M  V30 4486 C 404.316 -3.35375 -2.89895 0
M  V30 4487 H 401.536 -0.594618 -0.310918 0
M  V30 4488 H 404.08 -2.01763 -0.333454 0
M  V30 4489 H 402.235 -2.78175 -2.69624 0
M  V30 4490 H 402.649 -4.86736 -1.95419 0
M  V30 4491 H 404.123 -4.23332 -3.54251 0
M  V30 4492 H 404.6 -2.53761 -3.58472 0
M  V30 4493 H 405.206 -3.58796 -2.28355 0
M  V30 4494 N 403.521 0.559213 -1.47345 0
M  V30 4495 C 404.767 1.31614 -1.55079 0
M  V30 4496 C 405.122 1.91257 -0.209422 0
M  V30 4497 O 404.415 1.74796 0.784656 0
M  V30 4498 C 404.609 2.44853 -2.6035 0
M  V30 4499 C 404.438 1.96305 -4.04591 0
M  V30 4500 C 403.208 1.8024 -4.72061 0
M  V30 4501 C 405.406 1.50872 -4.91673 0
M  V30 4502 N 403.388 1.26011 -6.00828 0
M  V30 4503 C 404.759 1.08395 -6.10451 0
M  V30 4504 C 406.814 1.38905 -4.78132 0
M  V30 4505 C 405.517 0.551399 -7.17183 0
M  V30 4506 C 407.543 0.870518 -5.84958 0
M  V30 4507 C 406.905 0.455661 -7.02925 0
M  V30 4508 H 403.004 0.473712 -0.62219 0
M  V30 4509 H 405.588 0.634103 -1.84085 0
M  V30 4510 H 403.759 3.10589 -2.33215 0
M  V30 4511 H 405.491 3.11849 -2.57938 0
M  V30 4512 H 402.246 2.02895 -4.27937 0
M  V30 4513 H 402.67 1.00991 -6.69425 0
M  V30 4514 H 407.312 1.69591 -3.87297 0
M  V30 4515 H 405.03 0.232159 -8.07766 0
M  V30 4516 H 408.616 0.781507 -5.76527 0
M  V30 4517 H 407.496 0.0606414 -7.84177 0
M  V30 4518 N 404.999 1.35443 0.805782 0
M  V30 4519 C 405.946 1.28431 1.91766 0
M  V30 4520 C 406.916 0.156102 1.65365 0
M  V30 4521 O 408.101 0.339936 1.87747 0
M  V30 4522 C 405.241 1.06301 3.2832 0
M  V30 4523 C 404.354 2.2805 3.66902 0
M  V30 4524 C 403.489 1.99064 4.92491 0
M  V30 4525 C 402.528 3.16863 5.23703 0
M  V30 4526 N 401.665 2.87647 6.40471 0
M  V30 4527 H 406.505 2.23511 1.97096 0
M  V30 4528 H 404.042 1.11105 0.964054 0
M  V30 4529 H 406 0.915012 4.07042 0
M  V30 4530 H 404.63 0.148822 3.22457 0
M  V30 4531 H 403.682 2.53711 2.83434 0
M  V30 4532 H 404.994 3.1601 3.85927 0
M  V30 4533 H 404.148 1.81099 5.7904 0
M  V30 4534 H 402.887 1.0839 4.75503 0
M  V30 4535 H 401.892 3.35404 4.35642 0
M  V30 4536 H 403.117 4.08339 5.4262 0
M  V30 4537 H 401.063 1.99568 6.24907 0
M  V30 4538 H 400.98 3.69141 6.59751 0
M  V30 4539 H 402.248 2.73226 7.30047 0
M  V30 4540 N 406.477 -1.02803 1.19454 0
M  V30 4541 C 407.723 -1.76478 0.999171 0
M  V30 4542 C 408.056 -1.88456 -0.468828 0
M  V30 4543 O 407.331 -1.40198 -1.34814 0
M  V30 4544 C 407.614 -3.19044 1.66981 0
M  V30 4545 C 407.467 -3.14932 3.21151 0
M  V30 4546 C 408.786 -4.17456 1.39349 0
M  V30 4547 H 405.905 -0.640614 0.364393 0
M  V30 4548 H 408.547 -1.20005 1.47305 0
M  V30 4549 H 406.697 -3.67263 1.2669 0
M  V30 4550 H 408.369 -2.74605 3.70661 0
M  V30 4551 H 406.612 -2.52625 3.52652 0
M  V30 4552 H 407.283 -4.1566 3.63223 0
M  V30 4553 H 409.759 -3.77842 1.74283 0
M  V30 4554 H 408.635 -5.154 1.88823 0
M  V30 4555 H 408.896 -4.40949 0.318813 0
M  V30 4556 N 407.956 -0.998596 -1.21925 0
M  V30 4557 C 409.204 -0.676325 -1.90448 0
M  V30 4558 C 409.525 0.794719 -1.78071 0
M  V30 4559 O 408.795 1.5701 -1.17152 0
M  V30 4560 H 407.375 -0.247165 -0.704925 0
M  V30 4561 H 410.037 -1.26633 -1.48156 0
M  V30 4562 H 409.133 -0.943858 -2.97486 0
M  V30 4563 N 409.434 1.37368 -0.772513 0
M  V30 4564 C 410.364 2.32856 -0.173304 0
M  V30 4565 C 411.345 1.55818 0.682262 0
M  V30 4566 O 412.53 1.84052 0.619566 0
M  V30 4567 C 409.66 3.40048 0.706007 0
M  V30 4568 C 408.614 4.27973 -0.0483144 0
M  V30 4569 C 407.94 5.26184 0.950491 0
M  V30 4570 C 409.24 5.07665 -1.22776 0
M  V30 4571 H 410.934 2.83217 -0.971002 0
M  V30 4572 H 408.48 1.3617 -0.468377 0
M  V30 4573 H 410.433 4.05827 1.13501 0
M  V30 4574 H 409.157 2.88214 1.53623 0
M  V30 4575 H 407.816 3.63726 -0.458107 0
M  V30 4576 H 407.464 4.7063 1.77529 0
M  V30 4577 H 407.164 5.85872 0.450314 0
M  V30 4578 H 408.688 5.94838 1.37842 0
M  V30 4579 H 410.102 5.66578 -0.875366 0
M  V30 4580 H 408.499 5.76681 -1.66007 0
M  V30 4581 H 409.569 4.40294 -2.03149 0
M  V30 4582 N 410.912 0.523116 1.48665 0
M  V30 4583 C 412.152 -0.0115588 2.04397 0
M  V30 4584 C 412.516 -1.32225 1.39214 0
M  V30 4585 O 413.717 -1.94253 1.85793 0
M  V30 4586 C 411.988 -0.138119 3.57133 0
M  V30 4587 S 413.547 -0.623849 4.34343 0
M  V30 4588 H 410.365 0.00877706 0.710946 0
M  V30 4589 H 412.967 0.702116 1.82457 0
M  V30 4590 H 411.671 0.820748 4.02109 0
M  V30 4591 H 411.202 -0.876377 3.83514 0
M  V30 4592 H 413.217 -1.8895 4.58816 0
M  V30 4593 N 412.39 -1.55475 0.257931 0
M  V30 4594 C 413.337 -2.21837 -0.636939 0
M  V30 4595 C 414.307 -1.18596 -1.16294 0
M  V30 4596 O 415.492 -1.47081 -1.21539 0
M  V30 4597 C 412.632 -2.9301 -1.82317 0
M  V30 4598 C 411.745 -4.10931 -1.33265 0
M  V30 4599 C 410.88 -4.69791 -2.47931 0
M  V30 4600 C 409.919 -5.7994 -1.95796 0
M  V30 4601 N 409.056 -6.32935 -3.0387 0
M  V30 4602 H 413.896 -2.9793 -0.0643591 0
M  V30 4603 H 411.433 -1.47086 -0.0200031 0
M  V30 4604 H 413.391 -3.3248 -2.52018 0
M  V30 4605 H 412.021 -2.1937 -2.36805 0
M  V30 4606 H 411.073 -3.76699 -0.52931 0
M  V30 4607 H 412.385 -4.90417 -0.910654 0
M  V30 4608 H 411.539 -5.11892 -3.25656 0
M  V30 4609 H 410.278 -3.89545 -2.93438 0
M  V30 4610 H 409.283 -5.37305 -1.16546 0
M  V30 4611 H 410.508 -6.62043 -1.51246 0
M  V30 4612 H 408.454 -5.55591 -3.48791 0
M  V30 4613 H 408.371 -7.07645 -2.66035 0
M  V30 4614 H 409.639 -6.79695 -3.81621 0
M  V30 4615 N 413.868 0.0150385 -1.57593 0
M  V30 4616 C 415.145 0.7392 -1.81094 0
M  V30 4617 C 415.525 1.92817 -0.859344 0
M  V30 4618 O 414.873 2.28301 0.095362 0
M  V30 4619 C 415.083 1.15907 -3.29191 0
M  V30 4620 C 416.431 1.56918 -3.9454 0
M  V30 4621 O 417.455 1.25328 -3.33424 0
M  V30 4622 O 416.314 2.15604 -5.02173 0
M  V30 4623 H 413.408 0.358631 -0.745193 0
M  V30 4624 H 415.954 -0.00926156 -1.69697 0
M  V30 4625 H 414.726 0.310921 -3.90063 0
M  V30 4626 H 414.349 1.96711 -3.45529 0
M  V30 4627 N 415.346 1.54954 0.287554 0
M  V30 4628 C 416.762 1.46469 0.633964 0
M  V30 4629 C 416.962 0.666865 1.90145 0
M  V30 4630 O 416.018 0.179906 2.51858 0
M  V30 4631 C 417.331 2.90556 0.774454 0
M  V30 4632 C 418.879 3.00681 0.869462 0
M  V30 4633 C 419.354 4.45993 1.04184 0
M  V30 4634 N 420.845 4.4976 1.10772 0
M  V30 4635 C 421.58 5.59393 1.25964 0
M  V30 4636 N 421.076 6.78923 1.37968 0
M  V30 4637 N 422.869 5.47107 1.28959 0
M  V30 4638 H 415.02 2.05288 -0.545041 0
M  V30 4639 H 417.283 0.930305 -0.182308 0
M  V30 4640 H 416.989 3.51594 -0.086207 0
M  V30 4641 H 416.863 3.38743 1.6593 0
M  V30 4642 H 419.25 2.39749 1.7206 0
M  V30 4643 H 419.331 2.55769 -0.0396831 0
M  V30 4644 H 418.975 5.07524 0.195422 0
M  V30 4645 H 418.905 4.88548 1.96542 0
M  V30 4646 H 421.396 3.63651 1.02794 0
M  V30 4647 H 421.709 7.58231 1.49353 0
M  V30 4648 H 420.054 6.81763 1.34999 0
M  V30 4649 H 423.245 4.52668 1.19202 0
M  V30 4650 H 423.418 6.32595 1.40455 0
M  V30 4651 N 416.824 -0.551391 1.4764 0
M  V30 4652 C 417.754 -1.66757 1.63445 0
M  V30 4653 C 418.735 -1.63077 0.483742 0
M  V30 4654 O 419.92 -1.80607 0.71377 0
M  V30 4655 C 417.05 -3.05387 1.65396 0
M  V30 4656 C 416.004 -3.23918 2.79752 0
M  V30 4657 C 415.33 -4.63393 2.66779 0
M  V30 4658 C 416.63 -3.08735 4.21284 0
M  V30 4659 H 418.324 -1.53786 2.56886 0
M  V30 4660 H 415.87 -0.738415 1.23626 0
M  V30 4661 H 417.823 -3.83325 1.75043 0
M  V30 4662 H 416.547 -3.19332 0.685195 0
M  V30 4663 H 415.206 -2.48391 2.69625 0
M  V30 4664 H 414.854 -4.74144 1.67918 0
M  V30 4665 H 414.554 -4.7674 3.43501 0
M  V30 4666 H 416.078 -5.43458 2.78364 0
M  V30 4667 H 417.492 -3.76484 4.32357 0
M  V30 4668 H 415.889 -3.33588 4.98838 0
M  V30 4669 H 416.959 -2.0541 4.39243 0
M  V30 4670 N 418.302 -1.35869 -0.798587 0
M  V30 4671 C 419.252 -1.25982 -1.90033 0
M  V30 4672 C 420.236 -0.153303 -1.60168 0
M  V30 4673 O 421.428 -0.38527 -1.72756 0
M  V30 4674 C 418.557 -1.04211 -3.27101 0
M  V30 4675 C 417.643 -2.19289 -3.63006 0
M  V30 4676 N 418.034 -3.44559 -3.70287 0
M  V30 4677 C 416.332 -2.10852 -3.93011 0
M  V30 4678 C 417.033 -4.20283 -4.02166 0
M  V30 4679 N 416.009 -3.49124 -4.16669 0
M  V30 4680 H 419.811 -2.20883 -1.93876 0
M  V30 4681 H 417.325 -1.28457 -0.993614 0
M  V30 4682 H 419.322 -0.952155 -4.05881 0
M  V30 4683 H 417.982 -0.102013 -3.2454 0
M  V30 4684 H 418.993 -3.7881 -3.53162 0
M  V30 4685 H 415.67 -1.24744 -3.98428 0
M  V30 4686 H 417.06 -5.28575 -4.14799 0
M  V30 4687 N 419.78 1.02168 -1.19998 0
M  V30 4688 C 420.727 2.10601 -0.944228 0
M  V30 4689 C 421.697 1.65639 0.123664 0
M  V30 4690 O 422.882 1.9079 -0.0199941 0
M  V30 4691 C 420.022 3.41504 -0.496865 0
M  V30 4692 C 419.135 3.99973 -1.63234 0
M  V30 4693 C 418.27 5.18915 -1.13579 0
M  V30 4694 C 417.309 5.69456 -2.24468 0
M  V30 4695 N 416.446 6.79665 -1.76068 0
M  V30 4696 H 421.286 2.31814 -1.8726 0
M  V30 4697 H 418.823 1.13686 -0.933483 0
M  V30 4698 H 420.781 4.16626 -0.218843 0
M  V30 4699 H 419.411 3.2038 0.394508 0
M  V30 4700 H 418.463 3.21997 -2.0254 0
M  V30 4701 H 419.775 4.33492 -2.46752 0
M  V30 4702 H 418.929 6.01222 -0.813429 0
M  V30 4703 H 417.668 4.8695 -0.270434 0
M  V30 4704 H 416.673 4.85757 -2.57526 0
M  V30 4705 H 417.898 6.03459 -3.11472 0
M  V30 4706 H 415.844 6.49538 -0.918516 0
M  V30 4707 H 415.761 7.12349 -2.5317 0
M  V30 4708 H 417.029 7.65549 -1.46817 0
M  V30 4709 N 421.258 1.00505 1.21394 0
M  V30 4710 C 422.221 0.570459 2.21987 0
M  V30 4711 C 423.221 -0.353211 1.56873 0
M  V30 4712 O 424.411 -0.14349 1.73608 0
M  V30 4713 C 421.543 -0.168555 3.40483 0
M  V30 4714 H 422.736 1.46021 2.6195 0
M  V30 4715 H 420.289 0.793565 1.34656 0
M  V30 4716 H 421.024 -1.07374 3.06009 0
M  V30 4717 H 420.809 0.494823 3.88965 0
M  V30 4718 H 422.299 -0.460362 4.15055 0
M  V30 4719 N 422.737 -1.36956 0.779787 0
M  V30 4720 C 423.667 -2.32761 0.185651 0
M  V30 4721 C 424.648 -1.56177 -0.673989 0
M  V30 4722 O 425.833 -1.84378 -0.609797 0
M  V30 4723 C 422.963 -3.40418 -0.687964 0
M  V30 4724 C 421.917 -4.27941 0.0710102 0
M  V30 4725 C 421.243 -5.26681 -0.922573 0
M  V30 4726 C 422.543 -5.07006 1.25467 0
M  V30 4727 H 424.237 -2.82698 0.986008 0
M  V30 4728 H 421.783 -1.3592 0.475592 0
M  V30 4729 H 423.736 -4.06423 -1.11348 0
M  V30 4730 H 422.46 -2.89025 -1.52093 0
M  V30 4731 H 421.119 -3.63478 0.47739 0
M  V30 4732 H 420.767 -4.71565 -1.7503 0
M  V30 4733 H 420.467 -5.86103 -0.419237 0
M  V30 4734 H 421.991 -5.9556 -1.34686 0
M  V30 4735 H 423.405 -5.66105 0.905401 0
M  V30 4736 H 421.802 -5.75793 1.69063 0
M  V30 4737 H 422.872 -4.3921 2.05481 0
M  V30 4738 N 424.215 -0.530993 -1.48385 0
M  V30 4739 C 425.461 0.00274135 -2.028 0
M  V30 4740 C 425.794 1.33838 -1.40716 0
M  V30 4741 O 425.069 1.86465 -0.553277 0
M  V30 4742 C 425.352 0.123676 -3.59888 0
M  V30 4743 C 425.205 -1.2372 -4.3245 0
M  V30 4744 C 426.524 0.849967 -4.31814 0
M  V30 4745 H 423.643 -0.000477758 -0.737 0
M  V30 4746 H 426.285 -0.688217 -1.77098 0
M  V30 4747 H 424.435 0.712157 -3.81917 0
M  V30 4748 H 426.107 -1.86687 -4.21836 0
M  V30 4749 H 424.35 -1.81882 -3.93829 0
M  V30 4750 H 425.021 -1.10557 -5.40815 0
M  V30 4751 H 427.497 0.350572 -4.14621 0
M  V30 4752 H 426.373 0.903486 -5.41413 0
M  V30 4753 H 426.634 1.90047 -3.99167 0
M  V30 4754 N 425.693 1.55336 -0.266172 0
M  V30 4755 C 426.942 1.98574 0.353749 0
M  V30 4756 C 427.255 1.15789 1.57646 0
M  V30 4757 O 428.461 1.49129 2.26876 0
M  V30 4758 C 426.917 3.53403 0.680747 0
M  V30 4759 C 426.525 4.44953 -0.52165 0
M  V30 4760 C 428.269 4.05251 1.26379 0
M  V30 4761 C 426.176 5.91156 -0.169736 0
M  V30 4762 H 425.106 0.741643 0.135949 0
M  V30 4763 H 427.757 1.79743 -0.369421 0
M  V30 4764 H 426.139 3.68001 1.46257 0
M  V30 4765 H 427.313 4.42121 -1.29869 0
M  V30 4766 H 425.628 4.03691 -1.02093 0
M  V30 4767 H 428.225 5.12021 1.54074 0
M  V30 4768 H 428.568 3.53749 2.19471 0
M  V30 4769 H 429.101 3.94057 0.544447 0
M  V30 4770 H 425.84 6.46736 -1.0683 0
M  V30 4771 H 425.36 5.97079 0.570717 0
M  V30 4772 H 427.039 6.4655 0.241245 0
M  V30 4773 N 427.171 -0.0066808 1.57599 0
M  V30 4774 C 428.399 -0.704087 1.94551 0
M  V30 4775 C 428.814 -1.67677 0.867746 0
M  V30 4776 O 428.171 -1.8185 -0.153925 0
M  V30 4777 C 428.222 -1.44177 3.31505 0
M  V30 4778 O 427.943 -0.508097 4.35144 0
M  V30 4779 C 429.444 -2.23429 3.82876 0
M  V30 4780 H 426.664 -0.196523 0.641576 0
M  V30 4781 H 429.208 0.042453 2.04456 0
M  V30 4782 H 427.363 -2.13999 3.22929 0
M  V30 4783 H 427.777 -1.02782 5.14331 0
M  V30 4784 H 429.251 -2.70552 4.8115 0
M  V30 4785 H 429.728 -3.05818 3.15233 0
M  V30 4786 H 430.334 -1.58636 3.94607 0
M  V30 4787 N 428.649 -1.55105 -0.279332 0
M  V30 4788 C 429.579 -1.90557 -1.34945 0
M  V30 4789 C 430.56 -0.766738 -1.51839 0
M  V30 4790 O 431.745 -1.02434 -1.64988 0
M  V30 4791 C 428.875 -2.17193 -2.71006 0
M  V30 4792 C 427.829 -3.33021 -2.68851 0
M  V30 4793 C 427.155 -3.45123 -4.08405 0
M  V30 4794 C 428.455 -4.69578 -2.28678 0
M  V30 4795 H 430.149 -2.80188 -1.05522 0
M  V30 4796 H 427.695 -1.34811 -0.506173 0
M  V30 4797 H 429.648 -2.40581 -3.45975 0
M  V30 4798 H 428.372 -1.24355 -3.01999 0
M  V30 4799 H 427.031 -3.0959 -1.9634 0
M  V30 4800 H 426.679 -2.49762 -4.3661 0
M  V30 4801 H 426.379 -4.22995 -4.07859 0
M  V30 4802 H 427.903 -3.70796 -4.85121 0
M  V30 4803 H 429.317 -4.92553 -2.93368 0
M  V30 4804 H 427.714 -5.5032 -2.39306 0
M  V30 4805 H 428.784 -4.68828 -1.23807 0
M  V30 4806 N 430.127 0.543554 -1.4793 0
M  V30 4807 C 431.09 1.63156 -1.60975 0
M  V30 4808 C 432.09 1.53346 -0.483899 0
M  V30 4809 O 433.28 1.5726 -0.749339 0
M  V30 4810 C 430.412 3.02743 -1.56716 0
M  V30 4811 H 431.605 1.52934 -2.57975 0
M  V30 4812 H 429.158 0.764557 -1.36324 0
M  V30 4813 H 429.893 3.18484 -0.611418 0
M  V30 4814 H 429.678 3.11272 -2.38438 0
M  V30 4815 H 431.168 3.81871 -1.6901 0
M  V30 4816 N 431.605 1.3629 0.791371 0
M  V30 4817 C 432.535 1.33137 1.91825 0
M  V30 4818 C 433.516 0.203168 1.68882 0
M  V30 4819 O 434.701 0.400509 1.90025 0
M  V30 4820 C 431.831 1.11793 3.28816 0
M  V30 4821 C 430.785 2.21417 3.66277 0
M  V30 4822 C 430.111 1.85218 5.01596 0
M  V30 4823 C 431.411 3.63489 3.75064 0
M  V30 4824 H 433.105 2.2743 1.9472 0
M  V30 4825 H 430.651 1.09479 0.935437 0
M  V30 4826 H 432.604 1.08222 4.07266 0
M  V30 4827 H 431.328 0.139501 3.26302 0
M  V30 4828 H 429.987 2.2411 2.90121 0
M  V30 4829 H 429.635 0.859544 4.95602 0
M  V30 4830 H 429.335 2.58611 5.27631 0
M  V30 4831 H 430.859 1.832 5.82469 0
M  V30 4832 H 432.273 3.63034 4.43711 0
M  V30 4833 H 430.67 4.35771 4.12582 0
M  V30 4834 H 431.74 3.98536 2.76219 0
M  V30 4835 N 433.083 -1.0153 1.20538 0
M  V30 4836 C 434.046 -2.0826 0.957098 0
M  V30 4837 C 435.046 -1.60657 -0.0678655 0
M  V30 4838 O 436.236 -1.73385 0.168332 0
M  V30 4839 C 433.368 -3.38033 0.441188 0
M  V30 4840 H 434.561 -2.31719 1.90384 0
M  V30 4841 H 432.114 -1.1835 1.02093 0
M  V30 4842 H 432.849 -3.20249 -0.510961 0
M  V30 4843 H 432.634 -3.73911 1.18038 0
M  V30 4844 H 434.124 -4.16613 0.287009 0
M  V30 4845 N 434.561 -1.01147 -1.20859 0
M  V30 4846 C 435.524 -0.582224 -2.21682 0
M  V30 4847 C 436.524 0.344887 -1.57058 0
M  V30 4848 O 437.714 0.134281 -1.73682 0
M  V30 4849 C 434.846 0.150496 -3.40568 0
M  V30 4850 H 436.039 -1.47408 -2.61172 0
M  V30 4851 H 433.592 -0.800695 -1.34233 0
M  V30 4852 H 434.327 1.0575 -3.06574 0
M  V30 4853 H 434.112 -0.515444 -3.88697 0
M  V30 4854 H 435.602 0.438344 -4.15293 0
M  V30 4855 N 436.039 1.36541 -0.78704 0
M  V30 4856 C 437.002 2.28413 -0.189778 0
M  V30 4857 C 438.002 1.48719 0.611499 0
M  V30 4858 O 439.192 1.68737 0.432842 0
M  V30 4859 C 436.324 3.32824 0.737638 0
M  V30 4860 H 437.517 2.82743 -0.999831 0
M  V30 4861 H 435.07 1.46065 -0.556298 0
M  V30 4862 H 435.805 2.83646 1.57212 0
M  V30 4863 H 435.59 3.91752 0.165044 0
M  V30 4864 H 437.08 4.0144 1.15047 0
M  V30 4865 N 437.518 0.538854 1.48102 0
M  V30 4866 C 438.466 -0.232325 2.31437 0
M  V30 4867 C 439.46 -0.927004 1.41785 0
M  V30 4868 O 440.666 -0.850378 1.58646 0
M  V30 4869 H 437.041 -0.0937916 0.746128 0
M  V30 4870 H 439.012 0.489986 2.9435 0
M  V30 4871 C 437.761 -1.26074 3.24038 0
M  V30 4872 H 437.084 -0.735609 3.92974 0
M  V30 4873 H 438.524 -1.77157 3.85216 0
M  V30 4874 C 436.983 -2.29902 2.46265 0
M  V30 4875 O 437.513 -3.36502 2.19384 0
M  V30 4876 N 435.719 -2.03348 2.07601 0
M  V30 4877 H 435.266 -1.16675 2.29662 0
M  V30 4878 H 435.224 -2.73038 1.55877 0
M  V30 4879 N 438.996 -1.55193 0.274407 0
M  V30 4880 C 439.959 -2.212 -0.600279 0
M  V30 4881 C 440.959 -1.18963 -1.08187 0
M  V30 4882 O 442.149 -1.43873 -0.982158 0
M  V30 4883 C 439.281 -2.87739 -1.82809 0
M  V30 4884 H 440.474 -2.9989 -0.0239682 0
M  V30 4885 H 438.027 -1.5628 0.0250192 0
M  V30 4886 H 438.762 -2.13058 -2.44493 0
M  V30 4887 H 438.547 -3.62658 -1.49069 0
M  V30 4888 H 440.037 -3.38171 -2.45011 0
M  V30 4889 N 440.474 -0.00167713 -1.576 0
M  V30 4890 C 441.714 0.687302 -1.92498 0
M  V30 4891 C 442.078 1.70844 -0.876144 0
M  V30 4892 O 443.279 2.44792 -1.11043 0
M  V30 4893 C 441.55 1.31217 -3.32441 0
M  V30 4894 S 443.109 2.02604 -3.89226 0
M  V30 4895 H 439.927 0.226985 -0.673794 0
M  V30 4896 H 442.529 -0.0587666 -1.95412 0
M  V30 4897 H 441.233 0.556164 -4.06614 0
M  V30 4898 H 440.764 2.09613 -3.32905 0
M  V30 4899 H 442.779 3.30137 -3.70438 0
M  V30 4900 N 441.952 1.55251 0.271103 0
M  V30 4901 C 443.199 1.75946 1.00245 0
M  V30 4902 C 443.527 0.561611 1.86215 0
M  V30 4903 O 442.782 -0.455832 1.90317 0
M  V30 4904 C 443.081 3.01879 1.91321 0
M  V30 4905 C 442.747 4.34337 1.21086 0
M  V30 4906 C 441.409 4.70338 1.01666 0
M  V30 4907 C 443.761 5.16325 0.71119 0
M  V30 4908 C 441.089 5.8588 0.310099 0
M  V30 4909 C 443.441 6.32597 0.0182157 0
M  V30 4910 C 442.105 6.67236 -0.18768 0
M  V30 4911 H 441.375 0.643833 0.366824 0
M  V30 4912 H 444.022 1.89521 0.27458 0
M  V30 4913 H 442.327 2.83212 2.70736 0
M  V30 4914 H 444.024 3.15088 2.48033 0
M  V30 4915 H 440.614 4.06043 1.37213 0
M  V30 4916 H 444.798 4.88987 0.848844 0
M  V30 4917 H 440.054 6.1124 0.139873 0
M  V30 4918 H 444.228 6.9538 -0.376711 0
M  V30 4919 H 441.855 7.56618 -0.73715 0
M  V30 4920 N 443.43 -0.535701 1.48216 0
M  V30 4921 C 444.378 -1.66179 1.62749 0
M  V30 4922 C 445.372 -1.62034 0.49409 0
M  V30 4923 O 446.578 -1.6696 0.672624 0
M  V30 4924 H 442.953 -0.550244 0.512578 0
M  V30 4925 H 444.924 -1.51063 2.57337 0
M  V30 4926 C 443.673 -3.04471 1.67907 0
M  V30 4927 H 442.996 -3.08351 2.54479 0
M  V30 4928 H 444.436 -3.82894 1.82121 0
M  V30 4929 C 442.895 -3.34314 0.416596 0
M  V30 4930 O 443.425 -3.98905 -0.473014 0
M  V30 4931 N 441.631 -2.89149 0.290038 0
M  V30 4932 H 441.178 -2.36764 1.01493 0
M  V30 4933 H 441.136 -3.09486 -0.55367 0
M  V30 4934 N 444.908 -1.36708 -0.784132 0
M  V30 4935 C 446.319 -1.27947 -1.35965 0
M  V30 4936 C 446.67 0.0784013 -1.96043 0
M  V30 4937 O 445.795 0.979989 -1.92938 0
M  V30 4938 C 446.39 -2.31689 -2.47195 0
M  V30 4939 C 444.949 -2.26601 -3.00548 0
M  V30 4940 C 444.096 -2.16184 -1.73666 0
M  V30 4941 H 447.047 -1.4751 -0.585358 0
M  V30 4942 H 447.068 -1.95638 -3.26352 0
M  V30 4943 H 446.58 -3.30506 -2.03439 0
M  V30 4944 H 444.681 -1.31268 -3.48711 0
M  V30 4945 H 444.794 -3.19508 -3.57004 0
M  V30 4946 H 443.158 -1.62524 -1.96107 0
M  V30 4947 H 443.941 -3.16896 -1.32031 0
M  V30 4948 N 446.386 1.0089 -1.21074 0
M  V30 4949 C 447.316 2.1145 -0.990523 0
M  V30 4950 C 448.297 1.69897 0.0831699 0
M  V30 4951 O 449.482 1.94052 -0.0758853 0
M  V30 4952 C 446.612 3.42914 -0.550177 0
M  V30 4953 C 445.566 3.98244 -1.56799 0
M  V30 4954 C 444.892 5.25568 -0.984013 0
M  V30 4955 C 446.192 4.30752 -2.95381 0
M  V30 4956 H 447.886 2.3013 -1.91521 0
M  V30 4957 H 445.432 1.10592 -0.92225 0
M  V30 4958 H 447.385 4.19653 -0.383305 0
M  V30 4959 H 446.109 3.24014 0.41015 0
M  V30 4960 H 444.768 3.23621 -1.72236 0
M  V30 4961 H 444.416 5.02998 -0.0155216 0
M  V30 4962 H 444.116 5.63551 -1.66384 0
M  V30 4963 H 445.64 6.04955 -0.828378 0
M  V30 4964 H 447.054 4.98349 -2.8341 0
M  V30 4965 H 445.451 4.79869 -3.60341 0
M  V30 4966 H 446.521 3.39192 -3.46521 0
M  V30 4967 N 447.864 1.01787 1.20321 0
M  V30 4968 C 448.794 0.609625 2.25401 0
M  V30 4969 C 449.775 -0.375951 1.65893 0
M  V30 4970 O 450.96 -0.261101 1.92437 0
M  V30 4971 C 448.09 -0.0515995 3.47262 0
M  V30 4972 C 447.044 0.855095 4.19371 0
M  V30 4973 C 446.37 0.0595757 5.34667 0
M  V30 4974 C 447.67 2.16374 4.75373 0
M  V30 4975 H 449.364 1.48803 2.59804 0
M  V30 4976 H 446.91 0.716934 1.24884 0
M  V30 4977 H 448.863 -0.348764 4.19954 0
M  V30 4978 H 447.587 -0.964726 3.12027 0
M  V30 4979 H 446.246 1.13628 3.48546 0
M  V30 4980 H 445.894 -0.85524 4.95676 0
M  V30 4981 H 445.594 0.663406 5.83843 0
M  V30 4982 H 447.118 -0.231105 6.10162 0
M  V30 4983 H 448.532 1.92885 5.39878 0
M  V30 4984 H 446.929 2.71853 5.34991 0
M  V30 4985 H 447.999 2.82589 3.94045 0
M  V30 4986 N 449.342 -1.36122 0.79427 0
M  V30 4987 C 450.572 -2.03067 0.380437 0
M  V30 4988 C 450.98 -1.60018 -1.00949 0
M  V30 4989 O 450.323 -0.787425 -1.65968 0
M  V30 4990 C 450.385 -3.57587 0.37034 0
M  V30 4991 C 450.049 -4.23855 1.70867 0
M  V30 4992 C 451.046 -4.46404 2.66496 0
M  V30 4993 C 448.731 -4.61229 1.9893 0
M  V30 4994 C 450.725 -5.05412 3.88378 0
M  V30 4995 C 448.412 -5.19953 3.21079 0
M  V30 4996 C 449.41 -5.41985 4.15621 0
M  V30 4997 O 449.098 -5.99475 5.35616 0
M  V30 4998 H 448.83 -0.658168 0.154243 0
M  V30 4999 H 451.384 -1.7498 1.0757 0
M  V30 5000 H 449.614 -3.84814 -0.381444 0
M  V30 5001 H 451.303 -4.05895 -0.0194894 0
M  V30 5002 H 452.069 -4.17921 2.46103 0
M  V30 5003 H 447.948 -4.43402 1.26158 0
M  V30 5004 H 451.492 -5.22524 4.62185 0
M  V30 5005 H 447.389 -5.47862 3.41347 0
M  V30 5006 H 448.157 -6.17937 5.36745 0
M  V30 5007 N 450.82 -0.546701 -1.47814 0
M  V30 5008 C 452.05 -0.0232519 -2.06587 0
M  V30 5009 C 452.458 1.2712 -1.40133 0
M  V30 5010 O 451.801 1.77091 -0.488305 0
M  V30 5011 C 451.863 0.254117 -3.58601 0
M  V30 5012 C 451.527 -0.949331 -4.47031 0
M  V30 5013 C 452.524 -1.85216 -4.85789 0
M  V30 5014 C 450.209 -1.16104 -4.88697 0
M  V30 5015 C 452.203 -2.95047 -5.65001 0
M  V30 5016 C 449.89 -2.26247 -5.67676 0
M  V30 5017 C 450.888 -3.1555 -6.05737 0
M  V30 5018 O 450.576 -4.23784 -6.83127 0
M  V30 5019 H 450.308 -0.0380082 -0.674931 0
M  V30 5020 H 452.862 -0.756631 -1.90956 0
M  V30 5021 H 451.092 1.04168 -3.72406 0
M  V30 5022 H 452.781 0.72167 -3.99433 0
M  V30 5023 H 453.547 -1.70061 -4.54207 0
M  V30 5024 H 449.426 -0.475159 -4.58545 0
M  V30 5025 H 452.97 -3.64778 -5.94628 0
M  V30 5026 H 448.867 -2.41379 -5.98671 0
M  V30 5027 H 449.635 -4.21701 -7.01506 0
M  V30 5028 N 452.299 1.55045 -0.282633 0
M  V30 5029 C 453.546 1.9976 0.33199 0
M  V30 5030 C 453.874 1.17105 1.55295 0
M  V30 5031 O 453.129 0.230599 1.94337 0
M  V30 5032 C 453.428 3.49422 0.750938 0
M  V30 5033 C 453.094 4.4941 -0.366228 0
M  V30 5034 C 451.756 4.76471 -0.672964 0
M  V30 5035 C 454.108 5.09054 -1.11864 0
M  V30 5036 C 451.436 5.60442 -1.73556 0
M  V30 5037 C 453.788 5.9418 -2.17102 0
M  V30 5038 C 452.452 6.19558 -2.48402 0
M  V30 5039 H 451.722 0.730974 0.121484 0
M  V30 5040 H 454.369 1.8732 -0.39791 0
M  V30 5041 H 452.674 3.59377 1.56063 0
M  V30 5042 H 454.371 3.81432 1.23736 0
M  V30 5043 H 450.961 4.2844 -0.117041 0
M  V30 5044 H 455.145 4.88165 -0.894925 0
M  V30 5045 H 450.401 5.78349 -1.983 0
M  V30 5046 H 454.575 6.39427 -2.75873 0
M  V30 5047 H 452.202 6.84417 -3.30874 0
M  V30 5048 N 453.777 0.010035 1.57597 0
M  V30 5049 C 454.74 -0.963029 2.07986 0
M  V30 5050 C 455.74 -1.26619 0.991173 0
M  V30 5051 O 456.93 -1.2097 1.25347 0
M  V30 5052 C 454.062 -2.2851 2.52974 0
M  V30 5053 H 455.255 -0.526971 2.95234 0
M  V30 5054 H 452.808 -0.237639 1.54483 0
M  V30 5055 H 453.543 -2.76784 1.69 0
M  V30 5056 H 453.328 -2.07824 3.32493 0
M  V30 5057 H 454.818 -2.98294 2.9225 0
M  V30 5058 N 455.255 -1.55392 -0.262866 0
M  V30 5059 C 456.503 -1.76127 -0.991147 0
M  V30 5060 C 456.824 -0.571083 -1.8645 0
M  V30 5061 O 456.094 0.413698 -1.91482 0
M  V30 5062 H 454.674 -0.649528 -0.368948 0
M  V30 5063 H 457.336 -1.9281 -0.284655 0
M  V30 5064 H 456.432 -2.6663 -1.62219 0
M  V30 5065 N 456.733 0.527833 -1.48498 0
M  V30 5066 C 457.643 1.65907 -1.65867 0
M  V30 5067 C 458.659 1.6537 -0.541192 0
M  V30 5068 O 459.835 1.84282 -0.812534 0
M  V30 5069 C 456.9 3.02364 -1.69637 0
M  V30 5070 C 455.961 3.1374 -2.93028 0
M  V30 5071 C 455.194 4.43688 -2.96609 0
M  V30 5072 O 455.417 5.30913 -2.08538 0
M  V30 5073 O 454.351 4.59475 -3.88802 0
M  V30 5074 H 458.177 1.5419 -2.61647 0
M  V30 5075 H 455.762 0.701163 -1.31924 0
M  V30 5076 H 457.644 3.83515 -1.74625 0
M  V30 5077 H 456.319 3.14401 -0.770312 0
M  V30 5078 H 455.226 2.31877 -2.93571 0
M  V30 5079 H 456.559 3.06621 -3.85026 0
M  V30 5080 N 458.211 1.37122 0.776871 0
M  V30 5081 C 459.159 1.32549 1.91138 0
M  V30 5082 C 460.153 0.215119 1.68029 0
M  V30 5083 O 461.359 0.382852 1.75881 0
M  V30 5084 H 457.734 0.412952 0.62847 0
M  V30 5085 H 459.705 2.28332 1.92112 0
M  V30 5086 C 458.454 1.14422 3.28333 0
M  V30 5087 H 457.777 1.99115 3.46689 0
M  V30 5088 H 459.217 1.15272 4.0803 0
M  V30 5089 C 457.676 -0.150434 3.36564 0
M  V30 5090 O 458.206 -1.13584 3.85307 0
M  V30 5091 N 456.412 -0.19939 2.89915 0
M  V30 5092 H 455.959 0.603142 2.5044 0
M  V30 5093 H 455.917 -1.06526 2.95803 0
M  V30 5094 N 459.689 -1.00246 1.21608 0
M  V30 5095 C 460.936 -1.74061 1.03485 0
M  V30 5096 C 461.264 -1.89658 -0.431308 0
M  V30 5097 O 460.519 -1.42976 -1.33627 0
M  V30 5098 C 460.818 -3.15448 1.68009 0
M  V30 5099 C 460.484 -3.19792 3.17874 0
M  V30 5100 C 459.146 -3.20685 3.58768 0
M  V30 5101 C 461.498 -3.16835 4.13842 0
M  V30 5102 C 458.826 -3.16309 4.94131 0
M  V30 5103 C 461.178 -3.14001 5.49169 0
M  V30 5104 C 459.842 -3.13204 5.89457 0
M  V30 5105 H 459.112 -0.636934 0.378677 0
M  V30 5106 H 461.759 -1.17473 1.51236 0
M  V30 5107 H 460.064 -3.75284 1.12557 0
M  V30 5108 H 461.761 -3.71285 1.51487 0
M  V30 5109 H 458.351 -3.19842 2.85305 0
M  V30 5110 H 462.535 -3.15303 3.83272 0
M  V30 5111 H 457.791 -3.14032 5.24589 0
M  V30 5112 H 461.965 -3.10667 6.23265 0
M  V30 5113 H 459.592 -3.09568 6.94314 0
M  V30 5114 N 461.167 -1.02423 -1.1978 0
M  V30 5115 C 462.114 -0.601023 -2.22837 0
M  V30 5116 C 463.084 0.382801 -1.61629 0
M  V30 5117 O 464.269 0.280514 -1.88727 0
M  V30 5118 C 461.409 0.0467755 -3.45068 0
M  V30 5119 C 460.522 -0.98253 -4.20678 0
M  V30 5120 C 459.657 -0.304982 -5.30324 0
M  V30 5121 C 458.696 -1.32052 -5.97686 0
M  V30 5122 N 457.833 -0.669105 -6.98904 0
M  V30 5123 H 462.673 -1.48444 -2.58396 0
M  V30 5124 H 460.21 -0.742936 -1.2696 0
M  V30 5125 H 462.168 0.439556 -4.14878 0
M  V30 5126 H 460.798 0.893796 -3.10179 0
M  V30 5127 H 459.85 -1.49341 -3.49859 0
M  V30 5128 H 461.162 -1.75455 -4.66923 0
M  V30 5129 H 460.316 0.142893 -6.06532 0
M  V30 5130 H 459.055 0.499283 -4.85138 0
M  V30 5131 H 458.06 -1.7787 -5.20233 0
M  V30 5132 H 459.285 -2.1262 -6.44957 0
M  V30 5133 H 457.231 0.115152 -6.55899 0
M  V30 5134 H 457.148 -1.37908 -7.43315 0
M  V30 5135 H 458.416 -0.245076 -7.79115 0
M  V30 5136 N 462.645 1.35699 -0.801477 0
M  V30 5137 C 463.922 1.9324 -0.302937 0
M  V30 5138 C 464.302 1.73209 1.20672 0
M  V30 5139 O 463.65 1.09809 2.00385 0
M  V30 5140 C 463.86 3.41728 -0.708747 0
M  V30 5141 C 465.208 4.18868 -0.695328 0
M  V30 5142 O 466.232 3.5022 -0.649971 0
M  V30 5143 O 465.091 5.41342 -0.749081 0
M  V30 5144 H 462.185 0.82331 -0.0780367 0
M  V30 5145 H 464.731 1.44806 -0.884832 0
M  V30 5146 H 463.503 3.50015 -1.74944 0
M  V30 5147 H 463.126 3.97471 -0.101384 0
M  V30 5148 N 464.123 0.554532 1.47522 0
M  V30 5149 C 465.539 0.214107 1.58157 0
M  V30 5150 C 465.739 -1.28331 1.55349 0
M  V30 5151 O 464.795 -2.06329 1.45549 0
M  V30 5152 C 466.108 0.838391 2.88776 0
M  V30 5153 C 467.656 0.809374 3.02354 0
M  V30 5154 C 468.131 1.41268 4.35669 0
M  V30 5155 N 469.622 1.37574 4.42298 0
M  V30 5156 C 470.357 1.8122 5.4401 0
M  V30 5157 N 469.853 2.3271 6.52547 0
M  V30 5158 N 471.646 1.72307 5.35039 0
M  V30 5159 H 463.797 1.52744 1.4759 0
M  V30 5160 H 466.06 0.636812 0.702264 0
M  V30 5161 H 465.766 1.89065 2.96559 0
M  V30 5162 H 465.64 0.329847 3.75755 0
M  V30 5163 H 468.027 -0.234187 2.94169 0
M  V30 5164 H 468.108 1.35565 2.16924 0
M  V30 5165 H 467.752 2.45529 4.4461 0
M  V30 5166 H 467.682 0.841871 5.19827 0
M  V30 5167 H 470.173 0.999081 3.64454 0
M  V30 5168 H 470.486 2.63944 7.26329 0
M  V30 5169 H 468.831 2.36719 6.53444 0
M  V30 5170 H 472.022 1.3186 4.49144 0
M  V30 5171 H 472.195 2.06641 6.14169 0
M  V30 5172 N 465.601 -1.54893 0.290851 0
M  V30 5173 C 466.531 -2.26103 -0.583084 0
M  V30 5174 C 467.512 -1.25684 -1.14619 0
M  V30 5175 O 468.697 -1.54436 -1.17741 0
M  V30 5176 C 465.827 -2.99409 -1.75987 0
M  V30 5177 C 464.781 -4.0689 -1.32758 0
M  V30 5178 C 464.107 -4.67856 -2.58872 0
M  V30 5179 C 465.407 -5.20215 -0.46624 0
M  V30 5180 H 467.101 -2.99398 0.0108214 0
M  V30 5181 H 464.647 -1.43998 0.00664468 0
M  V30 5182 H 466.6 -3.47943 -2.37727 0
M  V30 5183 H 465.324 -2.23675 -2.37985 0
M  V30 5184 H 463.983 -3.59191 -0.733299 0
M  V30 5185 H 463.631 -3.88772 -3.19163 0
M  V30 5186 H 463.331 -5.40438 -2.30653 0
M  V30 5187 H 464.855 -5.19147 -3.21433 0
M  V30 5188 H 466.269 -5.64704 -0.989047 0
M  V30 5189 H 464.666 -5.99455 -0.27826 0
M  V30 5190 H 465.736 -4.82198 0.511173 0
M  V30 5191 N 467.08 -0.0183926 -1.57589 0
M  V30 5192 C 468.027 0.967022 -2.09565 0
M  V30 5193 C 468.997 1.32983 -0.995225 0
M  V30 5194 O 470.182 1.42501 -1.26878 0
M  V30 5195 C 467.322 2.24772 -2.61861 0
M  V30 5196 C 466.435 1.94232 -3.85873 0
M  V30 5197 C 465.57 3.16518 -4.26603 0
M  V30 5198 C 464.609 2.81748 -5.43401 0
M  V30 5199 N 463.746 3.96626 -5.79338 0
M  V30 5200 H 468.586 0.516874 -2.93483 0
M  V30 5201 H 466.123 0.243544 -1.4507 0
M  V30 5202 H 468.081 2.99667 -2.90268 0
M  V30 5203 H 466.711 2.67423 -1.8079 0
M  V30 5204 H 465.763 1.09625 -3.64262 0
M  V30 5205 H 467.075 1.64616 -4.70853 0
M  V30 5206 H 466.229 3.99743 -4.56389 0
M  V30 5207 H 464.968 3.49286 -3.40368 0
M  V30 5208 H 463.973 1.96933 -5.1332 0
M  V30 5209 H 465.198 2.50207 -6.31327 0
M  V30 5210 H 463.144 4.29257 -4.96059 0
M  V30 5211 H 463.061 3.70598 -6.58933 0
M  V30 5212 H 464.329 4.80586 -6.13724 0
M  V30 5213 N 468.558 1.5553 0.254621 0
M  V30 5214 C 469.783 1.81383 1.00573 0
M  V30 5215 C 470.208 0.594419 1.78461 0
M  V30 5216 O 469.566 -0.456403 1.75461 0
M  V30 5217 C 469.614 3.04892 1.92545 0
M  V30 5218 O 468.718 2.81266 3.01601 0
M  V30 5219 H 468.059 0.598969 0.286587 0
M  V30 5220 H 470.589 2.02703 0.277952 0
M  V30 5221 H 470.599 3.34119 2.34155 0
M  V30 5222 H 469.274 3.93287 1.3527 0
M  V30 5223 H 467.851 2.63185 2.64174 0
M  V30 5224 N 470.036 -0.519951 1.48776 0
M  V30 5225 C 470.999 -1.60574 1.6355 0
M  V30 5226 C 471.999 -1.52557 0.508234 0
M  V30 5227 O 473.189 -1.56047 0.774262 0
M  V30 5228 C 470.321 -3.00211 1.61512 0
M  V30 5229 H 471.514 -1.4881 2.60376 0
M  V30 5230 H 469.067 -0.742772 1.37523 0
M  V30 5231 H 469.802 -3.17471 0.662009 0
M  V30 5232 H 469.587 -3.07439 2.43359 0
M  V30 5233 H 471.077 -3.79134 1.75064 0
M  V30 5234 N 471.514 -1.37532 -0.769588 0
M  V30 5235 C 472.444 -1.36172 -1.89682 0
M  V30 5236 C 473.425 -0.23001 -1.68538 0
M  V30 5237 O 474.61 -0.43069 -1.89364 0
M  V30 5238 C 471.74 -1.1701 -3.26995 0
M  V30 5239 C 470.694 -2.27216 -3.62708 0
M  V30 5240 C 470.02 -1.93174 -4.98586 0
M  V30 5241 C 471.32 -3.6941 -3.69234 0
M  V30 5242 H 473.014 -2.30499 -1.91078 0
M  V30 5243 H 470.56 -1.10953 -0.917902 0
M  V30 5244 H 472.513 -1.14688 -4.05493 0
M  V30 5245 H 471.237 -0.191395 -3.26039 0
M  V30 5246 H 469.896 -2.28697 -2.86519 0
M  V30 5247 H 469.544 -0.938281 -4.94171 0
M  V30 5248 H 469.244 -2.66973 -5.23449 0
M  V30 5249 H 470.768 -1.92443 -5.79481 0
M  V30 5250 H 472.182 -3.70047 -4.37879 0
M  V30 5251 H 470.579 -4.4228 -4.05597 0
M  V30 5252 H 471.649 -4.0288 -2.69844 0
M  V30 5253 N 472.992 0.995999 -1.22138 0
M  V30 5254 C 474.408 1.25917 -0.980667 0
M  V30 5255 C 474.608 1.98819 0.327604 0
M  V30 5256 O 473.664 2.29587 1.05101 0
M  V30 5257 C 474.977 2.07399 -2.17729 0
M  V30 5258 C 476.525 2.20594 -2.22052 0
M  V30 5259 C 477 3.05462 -3.41258 0
M  V30 5260 N 478.491 3.13049 -3.41401 0
M  V30 5261 C 479.226 3.78997 -4.30289 0
M  V30 5262 N 478.722 4.46899 -5.2939 0
M  V30 5263 N 480.515 3.75728 -4.18073 0
M  V30 5264 H 472.666 0.507158 -2.06256 0
M  V30 5265 H 474.929 0.28658 -0.903646 0
M  V30 5266 H 474.635 1.61191 -3.12586 0
M  V30 5267 H 474.509 3.08154 -2.17534 0
M  V30 5268 H 476.896 2.66017 -1.27745 0
M  V30 5269 H 476.977 1.1928 -2.26287 0
M  V30 5270 H 476.621 2.60739 -4.35864 0
M  V30 5271 H 476.551 4.06911 -3.34262 0
M  V30 5272 H 479.042 2.64721 -2.69688 0
M  V30 5273 H 479.355 4.94952 -5.935 0
M  V30 5274 H 477.7 4.45657 -5.33306 0
M  V30 5275 H 480.891 3.2184 -3.39907 0
M  V30 5276 H 481.064 4.26845 -4.87553 0
M  V30 5277 N 474.47 1.03057 1.19235 0
M  V30 5278 C 475.417 0.612832 2.22515 0
M  V30 5279 C 476.387 -0.374224 1.61829 0
M  V30 5280 O 477.572 -0.270501 1.88873 0
M  V30 5281 C 474.712 -0.028475 3.45088 0
M  V30 5282 C 473.825 1.00483 4.20151 0
M  V30 5283 C 472.96 0.333102 5.30155 0
M  V30 5284 C 471.999 1.3522 5.96977 0
M  V30 5285 N 471.136 0.70616 6.9854 0
M  V30 5286 H 475.976 1.49812 2.57605 0
M  V30 5287 H 473.513 0.749658 1.26564 0
M  V30 5288 H 475.471 -0.417548 4.15105 0
M  V30 5289 H 474.101 -0.877334 3.10649 0
M  V30 5290 H 473.153 1.51194 3.49062 0
M  V30 5291 H 474.465 1.77929 4.65986 0
M  V30 5292 H 473.619 -0.110725 6.06599 0
M  V30 5293 H 472.358 -0.473547 4.85396 0
M  V30 5294 H 471.363 1.80627 5.19282 0
M  V30 5295 H 472.588 2.16037 6.4382 0
M  V30 5296 H 470.534 -0.0803667 6.55951 0
M  V30 5297 H 470.451 1.41848 7.42573 0
M  V30 5298 H 471.719 0.286391 7.78974 0
M  V30 5299 N 475.948 -1.35272 0.808662 0
M  V30 5300 C 477.196 -1.98316 0.389233 0
M  V30 5301 C 477.517 -1.64465 -1.04767 0
M  V30 5302 O 476.787 -0.928175 -1.72516 0
M  V30 5303 H 475.367 -0.733585 0.140935 0
M  V30 5304 H 478.029 -1.6515 1.03496 0
M  V30 5305 H 477.125 -3.08123 0.496631 0
M  V30 5306 N 477.426 -0.562348 -1.47226 0
M  V30 5307 C 478.376 0.202967 -2.27095 0
M  V30 5308 C 479.36 0.880611 -1.34663 0
M  V30 5309 O 480.552 0.778069 -1.58981 0
M  V30 5310 C 477.681 1.22906 -3.20545 0
M  V30 5311 C 476.767 0.554566 -4.20459 0
M  V30 5312 N 477.158 -0.378295 -5.04383 0
M  V30 5313 C 475.456 0.807854 -4.38623 0
M  V30 5314 C 476.157 -0.770583 -5.76573 0
M  V30 5315 N 475.133 -0.124263 -5.43458 0
M  V30 5316 H 478.935 -0.514196 -2.89367 0
M  V30 5317 H 476.449 -0.382655 -1.57827 0
M  V30 5318 H 478.446 1.79134 -3.76453 0
M  V30 5319 H 477.106 1.94726 -2.59831 0
M  V30 5320 H 478.117 -0.75274 -5.124 0
M  V30 5321 H 474.794 1.51418 -3.89075 0
M  V30 5322 H 476.184 -1.53742 -6.54074 0
M  V30 5323 N 478.904 1.54736 -0.299062 0
M  V30 5324 C 480.315 1.8569 0.193971 0
M  V30 5325 C 480.666 1.22101 1.53577 0
M  V30 5326 O 479.791 0.51799 2.10109 0
M  V30 5327 C 480.386 3.36895 0.358733 0
M  V30 5328 C 478.945 3.67887 0.795986 0
M  V30 5329 C 478.092 2.77131 -0.096807 0
M  V30 5330 H 481.043 1.49934 -0.520134 0
M  V30 5331 H 481.064 3.61294 1.19361 0
M  V30 5332 H 480.576 3.83148 -0.617998 0
M  V30 5333 H 478.677 3.27151 1.78334 0
M  V30 5334 H 478.79 4.75114 0.616718 0
M  V30 5335 H 477.154 2.51153 0.423581 0
M  V30 5336 H 477.937 3.26204 -1.06986 0
M  V30 5337 N 480.382 0.0267497 1.57577 0
M  V30 5338 C 481.314 -0.984594 2.06974 0
M  V30 5339 C 482.327 -1.29032 0.992705 0
M  V30 5340 O 483.516 -1.25539 1.26895 0
M  V30 5341 C 480.616 -2.31262 2.47732 0
M  V30 5342 C 479.789 -2.1924 3.78487 0
M  V30 5343 C 478.848 -3.34956 4.05821 0
M  V30 5344 O 477.874 -3.11948 4.76106 0
M  V30 5345 N 479.076 -4.58672 3.55809 0
M  V30 5346 H 481.841 -0.563143 2.94362 0
M  V30 5347 H 479.402 -0.160061 1.61107 0
M  V30 5348 H 481.394 -3.07496 2.63112 0
M  V30 5349 H 479.964 -2.65056 1.65723 0
M  V30 5350 H 479.184 -1.27747 3.72927 0
M  V30 5351 H 480.472 -2.08409 4.64158 0
M  V30 5352 H 479.87 -4.8026 2.98942 0
M  V30 5353 H 478.427 -5.32083 3.76472 0
M  V30 5354 N 481.861 -1.55662 -0.24637 0
M  V30 5355 C 482.808 -1.90361 -1.30504 0
M  V30 5356 C 483.778 -0.757905 -1.47801 0
M  V30 5357 O 484.963 -1.01161 -1.61775 0
M  V30 5358 C 482.103 -2.2042 -2.65535 0
M  V30 5359 C 481.216 -3.47799 -2.56242 0
M  V30 5360 C 480.351 -3.67426 -3.8363 0
M  V30 5361 C 479.39 -4.88403 -3.68956 0
M  V30 5362 N 478.527 -5.04548 -4.88237 0
M  V30 5363 H 483.367 -2.80645 -1.00213 0
M  V30 5364 H 480.904 -1.38924 -0.483577 0
M  V30 5365 H 482.862 -2.35853 -3.44135 0
M  V30 5366 H 481.492 -1.3334 -2.93973 0
M  V30 5367 H 480.544 -3.40694 -1.69208 0
M  V30 5368 H 481.856 -4.36544 -2.4131 0
M  V30 5369 H 481.01 -3.82821 -4.70673 0
M  V30 5370 H 479.749 -2.76914 -4.01459 0
M  V30 5371 H 478.754 -4.72984 -2.80296 0
M  V30 5372 H 479.979 -5.80375 -3.52621 0
M  V30 5373 H 477.925 -4.16974 -5.06427 0
M  V30 5374 H 477.842 -5.87384 -4.75937 0
M  V30 5375 H 479.11 -5.24355 -5.76777 0
M  V30 5376 N 483.339 0.512053 -1.4905 0
M  V30 5377 C 484.302 1.59704 -1.64399 0
M  V30 5378 C 485.302 1.52285 -0.516317 0
M  V30 5379 O 486.492 1.55635 -0.782527 0
M  V30 5380 C 483.624 2.9935 -1.63102 0
M  V30 5381 H 484.817 1.47428 -2.61161 0
M  V30 5382 H 482.37 0.735469 -1.37915 0
M  V30 5383 H 483.105 3.17116 -0.678836 0
M  V30 5384 H 482.89 3.06144 -2.44986 0
M  V30 5385 H 484.38 3.782 -1.77072 0
M  V30 5386 N 484.817 1.37938 0.762283 0
M  V30 5387 C 485.764 1.34467 1.87583 0
M  V30 5388 C 486.734 0.208633 1.64785 0
M  V30 5389 O 487.919 0.399494 1.86571 0
M  V30 5390 C 485.059 1.16692 3.24772 0
M  V30 5391 C 484.172 2.39608 3.59461 0
M  V30 5392 C 483.307 2.14631 4.85908 0
M  V30 5393 C 482.346 3.33364 5.13357 0
M  V30 5394 N 481.483 3.07877 6.30996 0
M  V30 5395 H 486.323 2.29669 1.89885 0
M  V30 5396 H 483.86 1.14116 0.928219 0
M  V30 5397 H 485.818 1.04405 4.03925 0
M  V30 5398 H 484.448 0.251333 3.2182 0
M  V30 5399 H 483.5 2.626 2.75219 0
M  V30 5400 H 484.812 3.28128 3.75678 0
M  V30 5401 H 483.966 1.99429 5.72986 0
M  V30 5402 H 482.705 1.23463 4.71814 0
M  V30 5403 H 481.71 3.49094 4.24751 0
M  V30 5404 H 482.935 4.25395 5.29354 0
M  V30 5405 H 480.881 2.19348 6.18241 0
M  V30 5406 H 480.798 3.89944 6.47673 0
M  V30 5407 H 482.066 2.96313 7.20985 0
M  V30 5408 N 486.295 -0.989507 1.22664 0
M  V30 5409 C 487.523 -1.76496 1.07967 0
M  V30 5410 C 487.938 -1.85148 -0.369543 0
M  V30 5411 O 487.295 -1.32408 -1.25596 0
M  V30 5412 C 487.346 -3.19642 1.68853 0
M  V30 5413 O 487.067 -3.11453 3.08105 0
M  V30 5414 C 488.568 -4.13621 1.59475 0
M  V30 5415 H 485.788 -0.55418 0.378319 0
M  V30 5416 H 488.332 -1.24378 1.62328 0
M  V30 5417 H 486.487 -3.68816 1.18547 0
M  V30 5418 H 486.901 -4.01499 3.37489 0
M  V30 5419 H 488.375 -5.11801 2.06795 0
M  V30 5420 H 488.852 -4.35718 0.55191 0
M  V30 5421 H 489.458 -3.70346 2.09103 0
M  V30 5422 N 487.773 -1.03688 -1.18687 0
M  V30 5423 C 488.72 -0.624624 -2.22187 0
M  V30 5424 C 489.69 0.365636 -1.62026 0
M  V30 5425 O 490.875 0.260481 -1.89014 0
M  V30 5426 C 488.015 0.0101738 -3.45099 0
M  V30 5427 C 487.128 -1.02709 -4.19613 0
M  V30 5428 C 486.263 -0.361213 -5.2997 0
M  V30 5429 C 485.302 -1.38384 -5.96252 0
M  V30 5430 N 484.439 -0.743196 -6.98155 0
M  V30 5431 H 489.279 -1.51176 -2.56807 0
M  V30 5432 H 486.816 -0.75636 -1.26165 0
M  V30 5433 H 488.774 0.395528 -4.15321 0
M  V30 5434 H 487.404 0.860848 -3.1111 0
M  V30 5435 H 486.456 -1.53043 -3.48256 0
M  V30 5436 H 487.768 -1.80398 -4.65036 0
M  V30 5437 H 486.922 0.0785537 -6.06649 0
M  V30 5438 H 485.661 0.447799 -4.8564 0
M  V30 5439 H 484.666 -1.83378 -5.18317 0
M  V30 5440 H 485.891 -2.19448 -6.42666 0
M  V30 5441 H 483.837 0.0455789 -6.55984 0
M  V30 5442 H 483.754 -1.45784 -7.41811 0
M  V30 5443 H 485.022 -0.327698 -7.78811 0
M  V30 5444 N 489.251 1.34841 -0.815825 0
M  V30 5445 C 490.491 2.00321 -0.406297 0
M  V30 5446 C 490.855 1.63293 1.00992 0
M  V30 5447 O 492.056 2.21563 1.52195 0
M  V30 5448 C 490.327 3.52421 -0.594469 0
M  V30 5449 S 491.886 4.37926 -0.276735 0
M  V30 5450 H 488.704 0.694155 -0.153848 0
M  V30 5451 H 491.306 1.64263 -1.06009 0
M  V30 5452 H 490.01 3.76858 -1.625 0
M  V30 5453 H 489.541 3.9333 0.0743157 0
M  V30 5454 H 491.556 4.87743 0.912215 0
M  V30 5455 N 490.729 0.570148 1.46925 0
M  V30 5456 C 491.975 0.0510284 2.02736 0
M  V30 5457 C 492.308 -1.3006 1.44215 0
M  V30 5458 O 491.583 -1.84932 0.602521 0
M  V30 5459 C 491.866 -0.028215 3.60089 0
M  V30 5460 C 491.719 1.35142 4.29018 0
M  V30 5461 C 493.038 -0.735181 4.33916 0
M  V30 5462 H 490.157 0.0200178 0.736728 0
M  V30 5463 H 492.799 0.73493 1.75211 0
M  V30 5464 H 490.949 -0.610648 3.83671 0
M  V30 5465 H 492.621 1.97806 4.16738 0
M  V30 5466 H 490.864 1.9226 3.88868 0
M  V30 5467 H 491.535 1.24857 5.37694 0
M  V30 5468 H 494.011 -0.240519 4.15404 0
M  V30 5469 H 492.887 -0.759622 5.43618 0
M  V30 5470 H 493.148 -1.79397 4.04066 0
M  V30 5471 N 492.207 -1.54576 0.307264 0
M  V30 5472 C 493.454 -2.00263 -0.300167 0
M  V30 5473 C 493.782 -1.19561 -1.53413 0
M  V30 5474 O 493.037 -0.261487 -1.93945 0
M  V30 5475 C 493.336 -3.50572 -0.695253 0
M  V30 5476 C 493.002 -4.48771 0.437679 0
M  V30 5477 C 491.664 -4.7534 0.748681 0
M  V30 5478 C 494.016 -5.0721 1.19949 0
M  V30 5479 C 491.344 -5.5761 1.8245 0
M  V30 5480 C 493.696 -5.90651 2.26527 0
M  V30 5481 C 492.36 -6.15528 2.58227 0
M  V30 5482 H 491.63 -0.732814 -0.109839 0
M  V30 5483 H 494.277 -1.86664 0.427661 0
M  V30 5484 H 492.582 -3.61814 -1.50326 0
M  V30 5485 H 494.279 -3.83352 -1.17653 0
M  V30 5486 H 490.869 -4.282 0.185187 0
M  V30 5487 H 495.053 -4.86679 0.972474 0
M  V30 5488 H 490.309 -5.75121 2.07476 0
M  V30 5489 H 494.483 -6.34957 2.86011 0
M  V30 5490 H 492.11 -6.79066 3.4172 0
M  V30 5491 N 493.685 -0.035106 -1.57561 0
M  V30 5492 C 495.096 0.502885 -1.798 0
M  V30 5493 C 495.447 1.71892 -0.945921 0
M  V30 5494 O 494.572 2.15822 -0.157991 0
M  V30 5495 C 495.167 0.919097 -3.26095 0
M  V30 5496 C 493.726 1.40216 -3.49308 0
M  V30 5497 C 492.873 0.369709 -2.74824 0
M  V30 5498 H 495.824 -0.261102 -1.56537 0
M  V30 5499 H 495.845 1.78308 -3.36135 0
M  V30 5500 H 495.357 0.0338526 -3.88085 0
M  V30 5501 H 493.458 2.30714 -2.92578 0
M  V30 5502 H 493.571 1.40541 -4.58023 0
M  V30 5503 H 491.935 0.839113 -2.40481 0
M  V30 5504 H 492.718 -0.507173 -3.39533 0
M  V30 5505 N 495.163 1.55791 0.238111 0
M  V30 5506 C 496.409 1.78297 0.966337 0
M  V30 5507 C 496.742 0.601903 1.84637 0
M  V30 5508 O 496.017 -0.399499 1.90353 0
M  V30 5509 C 496.3 3.10758 1.81939 0
M  V30 5510 C 496.153 4.39283 0.966958 0
M  V30 5511 C 497.472 3.39519 2.80027 0
M  V30 5512 H 494.591 0.648654 0.349882 0
M  V30 5513 H 497.233 1.88525 0.236253 0
M  V30 5514 H 495.383 3.02168 2.44185 0
M  V30 5515 H 497.055 4.59873 0.362514 0
M  V30 5516 H 495.298 4.32948 0.271669 0
M  V30 5517 H 495.969 5.28368 1.59784 0
M  V30 5518 H 498.445 3.48128 2.27917 0
M  V30 5519 H 497.321 4.33402 3.36829 0
M  V30 5520 H 497.582 2.60864 3.56934 0
M  V30 5521 N 496.642 -0.504142 1.49319 0
M  V30 5522 C 497.867 -1.28729 1.62615 0
M  V30 5523 C 498.292 -1.85752 0.296309 0
M  V30 5524 O 497.65 -1.65704 -0.735649 0
M  V30 5525 C 497.698 -2.39561 2.69524 0
M  V30 5526 O 496.802 -3.43324 2.28478 0
M  V30 5527 H 496.143 -0.380172 0.544395 0
M  V30 5528 H 498.673 -0.603872 1.95485 0
M  V30 5529 H 498.683 -2.8537 2.91595 0
M  V30 5530 H 497.358 -1.97423 3.66056 0
M  V30 5531 H 495.935 -3.03455 2.16725 0
M  V30 5532 N 498.12 -1.38341 -0.754957 0
M  V30 5533 C 499.366 -1.34672 -1.51628 0
M  V30 5534 C 499.699 0.0636036 -1.94096 0
M  V30 5535 O 498.974 1.0245 -1.6533 0
M  V30 5536 C 499.257 -2.30116 -2.76981 0
M  V30 5537 C 499.11 -3.80003 -2.4066 0
M  V30 5538 C 500.429 -2.23715 -3.78998 0
M  V30 5539 H 497.548 -0.490517 -0.550056 0
M  V30 5540 H 500.19 -1.69178 -0.864807 0
M  V30 5541 H 498.34 -2.00821 -3.3257 0
M  V30 5542 H 500.012 -4.19966 -1.90856 0
M  V30 5543 H 498.255 -3.97751 -1.73137 0
M  V30 5544 H 498.926 -4.42244 -3.30339 0
M  V30 5545 H 501.402 -2.49574 -3.32945 0
M  V30 5546 H 500.278 -2.9261 -4.64403 0
M  V30 5547 H 500.539 -1.23554 -4.24484 0
M  V30 5548 N 499.598 0.982988 -1.23187 0
M  V30 5549 C 500.844 1.7273 -1.07405 0
M  V30 5550 C 501.199 1.885 0.385447 0
M  V30 5551 O 500.492 1.4243 1.28157 0
M  V30 5552 C 500.686 3.12736 -1.73006 0
M  V30 5553 C 500.515 3.10621 -3.25184 0
M  V30 5554 C 499.285 3.15957 -3.94334 0
M  V30 5555 C 501.483 2.93992 -4.21987 0
M  V30 5556 N 499.465 3.03701 -5.33516 0
M  V30 5557 C 500.836 2.8987 -5.48065 0
M  V30 5558 C 502.891 2.78457 -4.12754 0
M  V30 5559 C 501.594 2.71804 -6.65969 0
M  V30 5560 C 503.62 2.61754 -5.30319 0
M  V30 5561 C 502.982 2.58328 -6.55321 0
M  V30 5562 H 499.081 0.641279 -0.447533 0
M  V30 5563 H 501.665 1.16664 -1.55877 0
M  V30 5564 H 499.836 3.67026 -1.2707 0
M  V30 5565 H 501.568 3.75786 -1.50224 0
M  V30 5566 H 498.323 3.24034 -3.45397 0
M  V30 5567 H 498.747 3.00855 -6.06478 0
M  V30 5568 H 503.389 2.79898 -3.16886 0
M  V30 5569 H 501.107 2.69108 -7.61975 0
M  V30 5570 H 504.693 2.50702 -5.25014 0
M  V30 5571 H 503.573 2.45564 -7.4476 0
M  V30 5572 N 501.076 1.04316 1.18135 0
M  V30 5573 C 502.006 0.657299 2.24058 0
M  V30 5574 C 502.987 -0.340678 1.66654 0
M  V30 5575 O 504.172 -0.220223 1.92947 0
M  V30 5576 C 501.302 0.0220715 3.47293 0
M  V30 5577 C 500.256 0.943857 4.17463 0
M  V30 5578 C 499.582 0.172973 5.3442 0
M  V30 5579 C 500.882 2.26409 4.70677 0
M  V30 5580 H 502.576 1.5428 2.56589 0
M  V30 5581 H 500.122 0.743263 1.23335 0
M  V30 5582 H 502.075 -0.259607 4.206 0
M  V30 5583 H 500.799 -0.898323 3.14003 0
M  V30 5584 H 499.458 1.20996 3.46057 0
M  V30 5585 H 499.106 -0.749907 4.97379 0
M  V30 5586 H 498.806 0.787098 5.82304 0
M  V30 5587 H 500.33 -0.101628 6.10515 0
M  V30 5588 H 501.744 2.04294 5.35665 0
M  V30 5589 H 500.141 2.8314 5.29105 0
M  V30 5590 H 501.211 2.90883 3.87962 0
M  V30 5591 N 502.554 -1.34406 0.822964 0
M  V30 5592 C 503.97 -1.51275 0.508727 0
M  V30 5593 C 504.17 -1.76776 -0.967083 0
M  V30 5594 O 503.226 -1.81871 -1.75155 0
M  V30 5595 C 504.539 -2.67765 1.36829 0
M  V30 5596 C 506.087 -2.81647 1.36542 0
M  V30 5597 C 506.562 -4.01181 2.20947 0
M  V30 5598 N 508.053 -4.08388 2.18571 0
M  V30 5599 C 508.788 -5.00036 2.80627 0
M  V30 5600 N 508.284 -5.96906 3.51674 0
M  V30 5601 N 510.077 -4.92908 2.70181 0
M  V30 5602 H 502.228 -1.16113 1.77852 0
M  V30 5603 H 504.491 -0.56947 0.757897 0
M  V30 5604 H 504.197 -2.55551 2.41633 0
M  V30 5605 H 504.071 -3.62779 1.03303 0
M  V30 5606 H 506.458 -2.93303 0.325163 0
M  V30 5607 H 506.539 -1.87443 1.74066 0
M  V30 5608 H 506.183 -3.90286 3.25022 0
M  V30 5609 H 506.113 -4.94599 1.80774 0
M  V30 5610 H 508.604 -3.39051 1.66891 0
M  V30 5611 H 508.917 -6.63468 3.96271 0
M  V30 5612 H 507.262 -5.9703 3.5578 0
M  V30 5613 H 510.453 -4.1619 2.14251 0
M  V30 5614 H 510.626 -5.64137 3.18831 0
M  V30 5615 N 504.032 -0.577932 -1.46621 0
M  V30 5616 C 504.979 0.158048 -2.30258 0
M  V30 5617 C 505.949 0.888669 -1.40328 0
M  V30 5618 O 507.134 0.880283 -1.6928 0
M  V30 5619 C 504.274 1.16884 -3.24703 0
M  V30 5620 C 503.387 0.442163 -4.29731 0
M  V30 5621 C 502.522 1.44007 -5.11308 0
M  V30 5622 C 501.561 0.69952 -6.0809 0
M  V30 5623 N 500.698 1.64525 -6.82551 0
M  V30 5624 H 505.538 -0.561242 -2.92667 0
M  V30 5625 H 503.075 -0.288591 -1.44241 0
M  V30 5626 H 505.033 1.7677 -3.779 0
M  V30 5627 H 503.663 1.85591 -2.64113 0
M  V30 5628 H 502.715 -0.271632 -3.79429 0
M  V30 5629 H 504.027 -0.136992 -4.98612 0
M  V30 5630 H 503.181 2.11186 -5.68758 0
M  V30 5631 H 501.92 2.05315 -4.42377 0
M  V30 5632 H 500.925 0.0139217 -5.49798 0
M  V30 5633 H 502.15 0.091894 -6.79038 0
M  V30 5634 H 500.096 2.24653 -6.16334 0
M  V30 5635 H 500.013 1.11878 -7.47676 0
M  V30 5636 H 501.281 2.30754 -7.44562 0
M  V30 5637 N 505.51 1.54411 -0.315457 0
M  V30 5638 C 506.42 2.27737 0.56329 0
M  V30 5639 C 507.436 1.31787 1.13614 0
M  V30 5640 O 508.612 1.64791 1.15784 0
M  V30 5641 C 505.677 3.01478 1.71207 0
M  V30 5642 C 504.738 4.12997 1.17185 0
M  V30 5643 C 503.971 4.83212 2.26588 0
M  V30 5644 O 504.194 4.52884 3.46775 0
M  V30 5645 O 503.128 5.70299 1.92463 0
M  V30 5646 H 506.954 3.03683 -0.0319614 0
M  V30 5647 H 504.539 1.49178 -0.0814188 0
M  V30 5648 H 506.421 3.47683 2.38106 0
M  V30 5649 H 505.096 2.28414 2.29366 0
M  V30 5650 H 504.003 3.71159 0.468174 0
M  V30 5651 H 505.336 4.8808 0.635501 0
M  V30 5652 N 506.988 0.0434614 1.5754 0
M  V30 5653 C 508.216 -0.641835 1.96693 0
M  V30 5654 C 508.631 -1.64832 0.920652 0
M  V30 5655 O 507.988 -1.82247 -0.095993 0
M  V30 5656 C 508.039 -1.33557 3.35924 0
M  V30 5657 O 507.76 -0.369403 4.3654 0
M  V30 5658 C 509.261 -2.11135 3.89791 0
M  V30 5659 H 506.481 -0.176013 0.647503 0
M  V30 5660 H 509.025 0.107478 2.04217 0
M  V30 5661 H 507.18 -2.03617 3.29574 0
M  V30 5662 H 507.594 -0.863674 5.1734 0
M  V30 5663 H 509.068 -2.55107 4.89514 0
M  V30 5664 H 509.545 -2.95634 3.24803 0
M  V30 5665 H 510.151 -1.46002 3.99454 0
M  V30 5666 N 508.466 -1.55915 -0.229846 0
M  V30 5667 C 509.882 -1.48721 -0.579166 0
M  V30 5668 C 510.082 -0.736976 -1.87539 0
M  V30 5669 O 509.138 -0.273258 -2.51017 0
M  V30 5670 C 510.451 -2.9323 -0.666082 0
M  V30 5671 C 511.999 -3.03701 -0.757267 0
M  V30 5672 C 512.474 -4.49552 -0.8756 0
M  V30 5673 N 513.965 -4.53561 -0.940035 0
M  V30 5674 C 514.7 -5.63683 -1.05116 0
M  V30 5675 N 514.196 -6.83576 -1.12675 0
M  V30 5676 N 515.989 -5.51516 -1.08565 0
M  V30 5677 H 508.14 -2.03123 0.620857 0
M  V30 5678 H 510.403 -0.922898 0.21671 0
M  V30 5679 H 510.109 -3.51032 0.21664 0
M  V30 5680 H 509.983 -3.44668 -1.53243 0
M  V30 5681 H 512.37 -2.45969 -1.63043 0
M  V30 5682 H 512.451 -2.55446 0.134583 0
M  V30 5683 H 512.095 -5.079 -0.00692351 0
M  V30 5684 H 512.025 -4.95506 -1.78274 0
M  V30 5685 H 514.516 -3.67215 -0.892269 0
M  V30 5686 H 514.829 -7.63251 -1.21109 0
M  V30 5687 H 513.174 -6.86303 -1.09603 0
M  V30 5688 H 516.365 -4.5678 -1.02319 0
M  V30 5689 H 516.538 -6.37372 -1.1688 0
M  V30 5690 N 509.944 0.496216 -1.49584 0
M  V30 5691 C 511.19 1.25189 -1.59548 0
M  V30 5692 C 511.523 1.9212 -0.283466 0
M  V30 5693 O 510.798 1.80947 0.713324 0
M  V30 5694 C 511.081 2.31516 -2.75812 0
M  V30 5695 C 510.934 1.69054 -4.16822 0
M  V30 5696 C 512.253 3.3304 -2.87702 0
M  V30 5697 H 509.372 0.45379 -0.580727 0
M  V30 5698 H 512.014 0.549327 -1.81886 0
M  V30 5699 H 510.164 2.91438 -2.56897 0
M  V30 5700 H 511.836 1.12923 -4.47265 0
M  V30 5701 H 510.079 0.994485 -4.22247 0
M  V30 5702 H 510.75 2.462 -4.94054 0
M  V30 5703 H 513.226 2.83114 -3.04936 0
M  V30 5704 H 512.102 4.04794 -3.7072 0
M  V30 5705 H 512.363 3.95655 -1.97255 0
M  V30 5706 O 511.461 1.48211 0.641547 0
M  V30 5707 H 512.152 1.44016 1.29535 0
M  V30 END ATOM
M  V30 BEGIN BOND
M  V30 END BOND
M  V30 END CTAB
M  END
$$$$
