drugbank_target|Q9NSE4 Isoleucine--tRNA ligase, mitochondrial (DB00167)
 OpenBabel12092120093D

  0  0  0     0  0            999 V3000
M  V30 BEGIN CTAB
M  V30 COUNTS 22064 23482 0 0 0
M  V30 BEGIN ATOM
M  V30 1 H -2.588 8.49073 -0.0679273 0
M  V30 2 O -1.492 9.37262 0.0843559 0
M  V30 3 P 0 8.791 0 0
M  V30 4 O 1.422 9.31096 0.027933 0
M  V30 5 O -0.36 7.77869 -1.04071 0
M  V30 6 O -0.323 8.09533 1.41463 0
M  V30 7 C -0.483 9.0349 2.53943 0
M  V30 8 C 0.057 8.35226 3.79016 0
M  V30 9 O -0.999 7.57992 4.15078 0
M  V30 10 C 1.275 7.45087 3.67298 0
M  V30 11 O 2.013 7.27796 4.85194 0
M  V30 12 C 0.606 6.17323 3.12027 0
M  V30 13 O 1.405 5.04231 3.47188 0
M  V30 14 C -0.731 6.19961 3.81809 0
M  V30 15 H -0.699 5.58218 4.73051 0
M  V30 16 H 0.484 6.21726 2.02589 0
M  V30 17 H 1.968 7.86112 2.9231 0
M  V30 18 H 0.274 9.11627 4.55076 0
M  V30 19 H 0.084 9.9573 2.34194 0
M  V30 20 H -1.546 9.2792 2.67832 0
M  V30 21 H 1.093 4.67702 4.28772 0
M  V30 22 P 2.95057 7.39546 4.75277 0
M  V30 23 O 4.37157 7.81861 5.05793 0
M  V30 24 O 2.59057 7.1065 3.32998 0
M  V30 25 O 2.62757 6.04542 5.56673 0
M  V30 26 C 2.46657 6.22839 7.02169 0
M  V30 27 C 3.00757 4.97725 7.70406 0
M  V30 28 O 1.95257 4.13208 7.58899 0
M  V30 29 C 4.22557 4.28231 7.11815 0
M  V30 30 O 4.96357 3.49945 8.01648 0
M  V30 31 C 3.55757 3.5063 5.96244 0
M  V30 32 O 4.35557 2.37008 5.64352 0
M  V30 33 C 2.21957 3.15122 6.56374 0
M  V30 34 N 1.17657 3.22311 5.55692 0
M  V30 35 C 1.34557 3.99655 4.46046 0
M  V30 36 N 0.31857 3.97599 3.63918 0
M  V30 37 C -0.56643 3.11159 4.25334 0
M  V30 38 C -1.83343 2.64972 3.85157 0
M  V30 39 N -2.39843 1.78482 4.74759 0
M  V30 40 C -1.79643 1.37463 5.90819 0
M  V30 41 N -0.61943 1.7733 6.31889 0
M  V30 42 C -0.04443 2.64393 5.43725 0
M  V30 43 H 3.43457 4.12931 5.06895 0
M  V30 44 H 4.91757 5.03285 6.70911 0
M  V30 45 H 3.22357 5.20001 8.76217 0
M  V30 46 H 3.03357 7.11046 7.35349 0
M  V30 47 H 1.40357 6.35815 7.26986 0
M  V30 48 H 2.24557 4.58037 4.27732 0
M  V30 49 H 4.04357 1.61619 6.13468 0
M  V30 50 P 5.90114 3.65191 7.99657 0
M  V30 51 O 7.32314 3.8425 8.48115 0
M  V30 52 O 5.54114 4.17805 6.64342 0
M  V30 53 O 5.57814 2.07613 7.95143 0
M  V30 54 C 5.41814 1.44328 9.27336 0
M  V30 55 C 5.95814 0.0220036 9.17197 0
M  V30 56 O 4.90214 -0.626867 8.61923 0
M  V30 57 C 7.17614 -0.24586 8.30336 0
M  V30 58 O 7.91414 -1.39011 8.63583 0
M  V30 59 C 6.50714 -0.273849 6.91158 0
M  V30 60 O 7.30614 -1.06348 6.02892 0
M  V30 61 C 5.17014 -0.897649 7.22545 0
M  V30 62 H 5.20214 -1.9841 7.04286 0
M  V30 63 H 6.38514 0.739928 6.497 0
M  V30 64 H 7.86914 0.60668 8.36503 0
M  V30 65 H 6.17514 -0.352479 10.1829 0
M  V30 66 H 5.98514 2.00611 10.0304 0
M  V30 67 H 4.35514 1.41843 9.55327 0
M  V30 68 H 6.99414 -1.95734 6.03555 0
M  V30 69 P 8.85171 -1.25109 8.70152 0
M  V30 70 O 10.2737 -1.35303 9.21419 0
M  V30 71 O 8.49171 -0.0769065 7.84762 0
M  V30 72 O 8.52871 -2.55232 7.81161 0
M  V30 73 C 8.36871 -3.79939 8.58154 0
M  V30 74 C 8.90871 -4.93969 7.72701 0
M  V30 75 O 7.85371 -5.18726 6.91205 0
M  V30 76 C 10.1267 -4.69597 6.85231 0
M  V30 77 O 10.8647 -5.83832 6.51337 0
M  V30 78 C 9.45871 -3.96706 5.66633 0
M  V30 79 O 10.2567 -4.15346 4.49615 0
M  V30 80 C 8.12071 -4.66153 5.59313 0
M  V30 81 N 7.07771 -3.71582 5.24027 0
M  V30 82 C 7.13971 -2.46018 5.67902 0
M  V30 83 N 6.09471 -1.74868 5.24518 0
M  V30 84 C 5.36071 -2.61333 4.54528 0
M  V30 85 C 4.05471 -2.46162 3.95441 0
M  V30 86 O 3.32171 -1.46013 3.94122 0
M  V30 87 N 3.62471 -3.59334 3.34752 0
M  V30 88 C 4.37371 -4.79605 3.3023 0
M  V30 89 N 3.77671 -5.82109 2.6065 0
M  V30 90 N 5.52671 -4.97402 3.8843 0
M  V30 91 C 5.98371 -3.86258 4.50476 0
M  V30 92 H 8.15271 -5.47679 4.85214 0
M  V30 93 H 9.33571 -2.88964 5.86476 0
M  V30 94 H 10.8207 -4.01947 7.36109 0
M  V30 95 H 9.12571 -5.80182 8.37584 0
M  V30 96 H 8.93571 -3.73517 9.52265 0
M  V30 97 H 7.30471 -3.97163 8.80359 0
M  V30 98 H 2.72871 -3.5825 2.90294 0
M  V30 99 H 7.93571 -2.06161 6.30974 0
M  V30 100 H 2.86571 -5.66979 2.15354 0
M  V30 101 H 4.24171 -6.73686 2.54344 0
M  V30 102 H 9.94571 -4.90891 4.01857 0
M  V30 103 P 11.8023 -5.75688 6.64379 0
M  V30 104 O 13.2243 -6.11849 7.01846 0
M  V30 105 O 11.4423 -4.30744 6.56026 0
M  V30 106 O 11.4793 -6.37042 5.19165 0
M  V30 107 C 11.3193 -7.83578 5.16515 0
M  V30 108 C 11.8593 -8.33398 3.83019 0
M  V30 109 O 10.8033 -8.10074 3.01034 0
M  V30 110 C 13.0773 -7.65514 3.2257 0
M  V30 111 O 13.8153 -8.4329 2.32297 0
M  V30 112 C 12.4083 -6.40075 2.62207 0
M  V30 113 O 13.2073 -5.92589 1.53712 0
M  V30 114 C 11.0713 -6.9454 2.18503 0
M  V30 115 H 11.1033 -7.23063 1.12091 0
M  V30 116 H 12.2863 -5.6025 3.37201 0
M  V30 117 H 13.7703 -7.35707 4.02681 0
M  V30 118 H 12.0763 -9.40912 3.9095 0
M  V30 119 H 11.8863 -8.29056 5.99158 0
M  V30 120 H 10.2563 -8.10073 5.25882 0
M  V30 121 H 12.8953 -6.30324 0.726794 0
M  V30 122 P 14.7528 -8.4349 2.47671 0
M  V30 123 O 16.1738 -8.94263 2.59668 0
M  V30 124 O 14.3928 -7.1704 3.19006 0
M  V30 125 O 14.4298 -8.16596 0.923387 0
M  V30 126 C 14.2688 -9.38537 0.108869 0
M  V30 127 C 14.8098 -9.08175 -1.28353 0
M  V30 128 O 13.7548 -8.44131 -1.84692 0
M  V30 129 C 16.0278 -8.18386 -1.42505 0
M  V30 130 O 16.7659 -8.3501 -2.60497 0
M  V30 131 C 15.3598 -6.80225 -1.25468 0
M  V30 132 O 16.1578 -5.81716 -1.90454 0
M  V30 133 C 14.0218 -7.02416 -1.9168 0
M  V30 134 N 12.9788 -6.31033 -1.20314 0
M  V30 135 C 13.1478 -5.98817 0.0994088 0
M  V30 136 N 12.1208 -5.35403 0.621694 0
M  V30 137 C 11.2358 -5.25212 -0.43376 0
M  V30 138 C 9.96885 -4.64602 -0.519722 0
M  V30 139 N 9.40385 -4.7568 -1.76013 0
M  V30 140 C 10.0058 -5.3653 -2.83017 0
M  V30 141 N 11.1828 -5.93676 -2.79782 0
M  V30 142 C 11.7578 -5.84061 -1.56249 0
M  V30 143 H 15.2368 -6.53498 -0.198729 0
M  V30 144 H 16.7198 -8.36622 -0.589963 0
M  V30 145 H 15.0258 -10.0273 -1.8081 0
M  V30 146 H 14.8358 -10.2138 0.558219 0
M  V30 147 H 13.2058 -9.6579 0.0444202 0
M  V30 148 H 14.0478 -6.23209 0.660562 0
M  V30 149 H 15.8458 -5.69466 -2.79593 0
M  V30 150 P 17.7034 -8.4349 -2.47671 0
M  V30 151 O 19.1254 -8.92593 -2.65 0
M  V30 152 O 17.3434 -7.7568 -1.19296 0
M  V30 153 O 17.3804 -7.36886 -3.63805 0
M  V30 154 C 17.2204 -7.95349 -4.982 0
M  V30 155 C 17.7604 -6.94612 -5.98974 0
M  V30 156 O 16.7044 -6.10347 -6.11815 0
M  V30 157 C 18.9784 -6.11426 -5.62335 0
M  V30 158 O 19.7164 -5.6162 -6.70584 0
M  V30 159 C 18.3094 -5.04409 -4.73308 0
M  V30 160 O 19.1084 -3.85992 -4.75183 0
M  V30 161 C 16.9724 -4.8728 -5.41006 0
M  V30 162 H 17.0044 -4.02333 -6.11157 0
M  V30 163 H 18.1874 -5.39466 -3.69543 0
M  V30 164 H 19.6714 -6.71916 -5.01943 0
M  V30 165 H 17.9774 -7.4649 -6.93477 0
M  V30 166 H 17.7874 -8.89416 -5.05237 0
M  V30 167 H 16.1574 -8.14876 -5.18409 0
M  V30 168 H 18.7964 -3.27957 -5.4317 0
M  V30 169 P 20.654 -5.75688 -6.64379 0
M  V30 170 O 22.075 -6.07692 -7.0558 0
M  V30 171 O 20.294 -5.88047 -5.19722 0
M  V30 172 O 20.331 -4.2322 -7.04443 0
M  V30 173 C 20.17 -3.99785 -8.49201 0
M  V30 174 C 20.711 -2.60516 -8.79425 0
M  V30 175 O 19.656 -1.82663 -8.44573 0
M  V30 176 C 21.929 -2.10343 -8.03628 0
M  V30 177 O 22.667 -1.09919 -8.67766 0
M  V30 178 C 21.261 -1.68446 -6.70876 0
M  V30 179 O 22.059 -0.684109 -6.08265 0
M  V30 180 C 19.923 -1.17436 -7.18567 0
M  V30 181 N 18.88 -1.52699 -6.23988 0
M  V30 182 C 19.049 -2.578 -5.40574 0
M  V30 183 N 18.022 -2.78966 -4.61193 0
M  V30 184 C 17.137 -1.78725 -4.95769 0
M  V30 185 C 15.87 -1.45727 -4.44207 0
M  V30 186 N 15.305 -0.374977 -5.05812 0
M  V30 187 C 15.907 0.345585 -6.05615 0
M  V30 188 N 17.084 0.0787651 -6.56253 0
M  V30 189 C 17.659 -1.00499 -5.96189 0
M  V30 190 H 21.138 -2.53396 -6.02698 0
M  V30 191 H 22.621 -2.93881 -7.85526 0
M  V30 192 H 20.927 -2.52078 -9.87225 0
M  V30 193 H 20.737 -4.75072 -9.05887 0
M  V30 194 H 19.107 -4.05244 -8.76668 0
M  V30 195 H 19.949 -3.18977 -5.3945 0
M  V30 196 H 21.747 0.177619 -6.34151 0
M  V30 197 P 23.6046 -1.25109 -8.70152 0
M  V30 198 O 25.0266 -1.29772 -9.22214 0
M  V30 199 O 23.2446 -2.13714 -7.55141 0
M  V30 200 O 23.2816 0.248149 -8.21425 0
M  V30 201 C 23.1216 1.22779 -9.30434 0
M  V30 202 C 23.6616 2.56265 -8.80568 0
M  V30 203 O 22.6066 3.02979 -8.09349 0
M  V30 204 C 24.8796 2.57523 -7.89775 0
M  V30 205 O 25.6176 3.7668 -7.89438 0
M  V30 206 C 24.2116 2.20997 -6.55446 0
M  V30 207 O 25.0096 2.71851 -5.48419 0
M  V30 208 C 22.8736 2.89693 -6.67988 0
M  V30 209 N 21.8306 2.08895 -6.07487 0
M  V30 210 C 21.8926 0.760559 -6.14209 0
M  V30 211 N 20.8476 0.200108 -5.52538 0
M  V30 212 C 20.1136 1.22692 -5.09742 0
M  V30 213 C 18.8076 1.24782 -4.48775 0
M  V30 214 O 18.0746 0.290617 -4.19294 0
M  V30 215 N 18.3776 2.50468 -4.22428 0
M  V30 216 C 19.1266 3.67142 -4.51974 0
M  V30 217 N 18.5296 4.85096 -4.14091 0
M  V30 218 N 20.2796 3.67821 -5.12831 0
M  V30 219 C 20.7366 2.43698 -5.4105 0
M  V30 220 H 22.9056 3.88793 -6.19859 0
M  V30 221 H 24.0886 1.12029 -6.4413 0
M  V30 222 H 25.5736 1.78279 -8.19533 0
M  V30 223 H 23.8786 3.20706 -9.67112 0
M  V30 224 H 23.6886 0.901032 -10.1892 0
M  V30 225 H 22.0576 1.33049 -9.56592 0
M  V30 226 H 17.4816 2.61953 -3.79465 0
M  V30 227 H 22.6886 0.200439 -6.63497 0
M  V30 228 H 17.6186 4.8334 -3.66367 0
M  V30 229 H 18.9946 5.7474 -4.33841 0
M  V30 230 H 24.6986 3.5779 -5.23879 0
M  V30 231 P 26.5551 3.65191 -7.99657 0
M  V30 232 O 27.9771 3.89332 -8.45794 0
M  V30 233 O 26.1951 2.28472 -7.50807 0
M  V30 234 O 26.2321 4.64972 -6.77611 0
M  V30 235 C 26.0721 6.06319 -7.16352 0
M  V30 236 C 26.6121 6.91731 -6.02299 0
M  V30 237 O 25.5561 6.92449 -5.17064 0
M  V30 238 C 27.8301 6.43627 -5.25174 0
M  V30 239 O 28.5681 7.43686 -4.60469 0
M  V30 240 C 27.1611 5.40275 -4.31916 0
M  V30 241 O 27.9601 5.25279 -3.14438 0
M  V30 242 C 25.8241 6.04847 -4.05327 0
M  V30 243 H 25.8561 6.62195 -3.11261 0
M  V30 244 H 27.0391 4.42556 -4.81383 0
M  V30 245 H 28.5231 5.92458 -5.93643 0
M  V30 246 H 26.8291 7.92655 -6.402 0
M  V30 247 H 26.6391 6.26671 -8.0846 0
M  V30 248 H 25.0091 6.29101 -7.32804 0
M  V30 249 H 27.6481 5.84315 -2.47318 0
M  V30 250 P 29.5057 7.39546 -4.75277 0
M  V30 251 O 30.9277 7.84966 -5.01146 0
M  V30 252 O 29.1457 5.9812 -5.08098 0
M  V30 253 O 29.1827 7.57503 -3.1866 0
M  V30 254 C 29.0227 8.97357 -2.74833 0
M  V30 255 C 29.5627 9.0745 -1.32694 0
M  V30 256 O 28.5077 8.62072 -0.606159 0
M  V30 257 C 30.7807 8.25383 -0.938334 0
M  V30 258 O 31.5187 8.74577 0.146954 0
M  V30 259 C 30.1127 6.8802 -0.712559 0
M  V30 260 O 30.9107 6.11791 0.194623 0
M  V30 261 C 28.7747 7.27966 -0.139777 0
M  V30 262 N 27.7317 6.39368 -0.623421 0
M  V30 263 C 27.7937 5.90299 -1.85969 0
M  V30 264 N 26.7487 5.10919 -2.1133 0
M  V30 265 C 26.0147 5.14646 -1.0015 0
M  V30 266 C 24.7087 4.60057 -0.729219 0
M  V30 267 O 23.9757 3.93476 -1.47746 0
M  V30 268 N 24.2787 4.88302 0.523505 0
M  V30 269 C 25.0277 5.63646 1.46207 0
M  V30 270 N 24.4307 5.78186 2.69239 0
M  V30 271 N 26.1807 6.19285 1.21544 0
M  V30 272 C 26.6377 5.93392 -0.0308487 0
M  V30 273 H 28.8067 7.25354 0.961601 0
M  V30 274 H 29.9897 6.3246 -1.65676 0
M  V30 275 H 31.4747 8.19533 -1.78278 0
M  V30 276 H 29.7797 10.1294 -1.10029 0
M  V30 277 H 29.5897 9.64276 -3.41316 0
M  V30 278 H 27.9587 9.25417 -2.76357 0
M  V30 279 H 23.3827 4.53993 0.806451 0
M  V30 280 H 28.5897 6.11865 -2.57394 0
M  V30 281 H 23.5197 5.34046 2.87467 0
M  V30 282 H 24.8957 6.33391 3.42578 0
M  V30 283 H 30.5997 6.25169 1.0783 0
M  V30 284 P 32.4563 8.791 -9.96115e-15 0
M  V30 285 O 33.8773 9.31196 0.027936 0
M  V30 286 O 32.0963 7.77869 -1.04071 0
M  V30 287 O 32.1333 8.09533 1.41463 0
M  V30 288 C 31.9723 9.03587 2.5397 0
M  V30 289 C 32.5133 8.35226 3.79016 0
M  V30 290 O 31.4583 7.57904 4.1503 0
M  V30 291 C 33.7313 7.45087 3.67298 0
M  V30 292 O 34.4693 7.27796 4.85194 0
M  V30 293 C 33.0633 6.17323 3.12027 0
M  V30 294 O 33.8613 5.04496 3.46627 0
M  V30 295 C 31.7253 6.19961 3.81809 0
M  V30 296 N 30.6823 5.71575 2.93223 0
M  V30 297 C 30.8513 5.77362 1.59168 0
M  V30 298 N 29.8243 5.3123 0.911893 0
M  V30 299 C 28.9393 4.91717 1.89588 0
M  V30 300 C 27.6723 4.3114 1.8076 0
M  V30 301 N 27.0733 3.99821 0.632928 0
M  V30 302 N 27.1073 4.06823 3.02898 0
M  V30 303 C 27.7093 4.35062 4.22711 0
M  V30 304 N 28.8863 4.90805 4.35707 0
M  V30 305 C 29.4613 5.16382 3.14469 0
M  V30 306 H 31.7573 5.58142 4.72986 0
M  V30 307 H 32.9403 6.21428 2.0318 0
M  V30 308 H 34.4233 7.86112 2.9231 0
M  V30 309 H 32.7293 9.11171 4.55987 0
M  V30 310 H 32.5393 9.9573 2.34194 0
M  V30 311 H 30.9093 9.2792 2.67832 0
M  V30 312 H 27.1733 4.09052 5.13359 0
M  V30 313 H 31.7513 6.16575 1.12198 0
M  V30 314 H 26.1433 3.55423 0.632085 0
M  V30 315 H 27.5473 4.20317 -0.256712 0
M  V30 316 H 33.5493 4.67628 4.28704 0
M  V30 317 P 35.4068 7.39546 4.75277 0
M  V30 318 O 36.8278 7.81861 5.05793 0
M  V30 319 O 35.0468 7.1065 3.32998 0
M  V30 320 O 35.0838 6.04542 5.56673 0
M  V30 321 C 34.9228 6.22839 7.02169 0
M  V30 322 C 35.4638 4.97725 7.70406 0
M  V30 323 O 34.4088 4.13208 7.58899 0
M  V30 324 C 36.6818 4.28231 7.11815 0
M  V30 325 O 37.4198 3.49945 8.01648 0
M  V30 326 C 36.0138 3.5063 5.96244 0
M  V30 327 O 36.8118 2.37008 5.64352 0
M  V30 328 C 34.6758 3.15122 6.56374 0
M  V30 329 N 33.6328 3.22311 5.55692 0
M  V30 330 C 33.8018 3.99655 4.46046 0
M  V30 331 N 32.7748 3.97599 3.63918 0
M  V30 332 C 31.8898 3.11159 4.25334 0
M  V30 333 C 30.6228 2.64972 3.85157 0
M  V30 334 N 30.0238 3.02132 2.69405 0
M  V30 335 N 30.0578 1.78482 4.74759 0
M  V30 336 C 30.6598 1.37463 5.90819 0
M  V30 337 N 31.8368 1.7733 6.31889 0
M  V30 338 C 32.4118 2.64393 5.43725 0
M  V30 339 H 34.7078 2.13823 6.99656 0
M  V30 340 H 35.8908 4.12931 5.06895 0
M  V30 341 H 37.3738 5.03285 6.70911 0
M  V30 342 H 35.6798 5.20001 8.76217 0
M  V30 343 H 35.4898 7.11046 7.35349 0
M  V30 344 H 33.8598 6.35815 7.26986 0
M  V30 345 H 30.1238 0.66574 6.53015 0
M  V30 346 H 34.7018 4.58037 4.27732 0
M  V30 347 H 29.0938 2.64828 2.45331 0
M  V30 348 H 30.4978 3.67472 2.05644 0
M  V30 349 H 36.4998 1.61619 6.13468 0
M  V30 350 P 38.3574 3.65191 7.99657 0
M  V30 351 O 39.7784 3.84292 8.48206 0
M  V30 352 O 37.9974 4.17805 6.64342 0
M  V30 353 O 38.0344 2.07613 7.95143 0
M  V30 354 C 37.8734 1.44344 9.27435 0
M  V30 355 C 38.4144 0.0220036 9.17197 0
M  V30 356 O 37.3594 -0.626794 8.61824 0
M  V30 357 C 39.6324 -0.24586 8.30336 0
M  V30 358 O 40.3704 -1.39011 8.63583 0
M  V30 359 C 38.9644 -0.273849 6.91158 0
M  V30 360 O 39.7624 -1.05728 6.029 0
M  V30 361 C 37.6264 -0.897649 7.22545 0
M  V30 362 N 36.5834 -0.292839 6.41732 0
M  V30 363 C 36.7524 0.950603 5.91308 0
M  V30 364 N 35.7254 1.37732 5.21105 0
M  V30 365 C 34.8404 0.318109 5.26039 0
M  V30 366 C 33.5734 0.146766 4.6727 0
M  V30 367 N 32.9744 1.08519 3.89983 0
M  V30 368 N 33.0084 -1.06525 4.95887 0
M  V30 369 C 33.6104 -2.0378 5.71347 0
M  V30 370 N 34.7874 -1.92445 6.27451 0
M  V30 371 C 35.3624 -0.715382 6.00353 0
M  V30 372 H 37.6584 -1.98383 7.04189 0
M  V30 373 H 38.8414 0.733318 6.49674 0
M  V30 374 H 40.3244 0.60668 8.36503 0
M  V30 375 H 38.6304 -0.362662 10.1825 0
M  V30 376 H 38.4404 2.00611 10.0304 0
M  V30 377 H 36.8104 1.41843 9.55327 0
M  V30 378 H 33.0744 -2.97041 5.85344 0
M  V30 379 H 37.6524 1.54076 6.07465 0
M  V30 380 H 32.0444 0.901517 3.49562 0
M  V30 381 H 33.4484 1.97957 3.71669 0
M  V30 382 H 39.4504 -1.95704 6.0346 0
M  V30 383 P 41.308 -1.25109 8.70152 0
M  V30 384 O 42.73 -1.35274 9.21221 0
M  V30 385 O 40.948 -0.0769065 7.84762 0
M  V30 386 O 40.985 -2.55232 7.81161 0
M  V30 387 C 40.825 -3.79939 8.58154 0
M  V30 388 C 41.365 -4.94023 7.72785 0
M  V30 389 O 40.309 -5.18726 6.91205 0
M  V30 390 C 42.583 -4.69597 6.85231 0
M  V30 391 O 43.321 -5.83832 6.51337 0
M  V30 392 C 41.914 -3.96706 5.66633 0
M  V30 393 O 42.713 -4.15414 4.49689 0
M  V30 394 C 40.577 -4.66153 5.59313 0
M  V30 395 H 40.609 -5.47679 4.85214 0
M  V30 396 H 41.792 -2.89008 5.86566 0
M  V30 397 H 43.276 -4.0121 7.36511 0
M  V30 398 H 41.582 -5.80182 8.37584 0
M  V30 399 H 41.392 -3.73517 9.52265 0
M  V30 400 H 39.762 -3.97163 8.80359 0
M  V30 401 H 42.401 -4.90969 4.01921 0
M  V30 402 P 44.2585 -5.75688 6.64379 0
M  V30 403 O 45.6795 -6.11915 7.01921 0
M  V30 404 O 43.8985 -4.30744 6.56026 0
M  V30 405 O 43.9355 -6.37042 5.19165 0
M  V30 406 C 43.7745 -7.83662 5.1657 0
M  V30 407 C 44.3155 -8.33398 3.83019 0
M  V30 408 O 43.2605 -8.0998 3.00999 0
M  V30 409 C 45.5335 -7.65514 3.2257 0
M  V30 410 O 46.2715 -8.4329 2.32297 0
M  V30 411 C 44.8655 -6.40075 2.62207 0
M  V30 412 O 45.6635 -5.92338 1.5428 0
M  V30 413 C 43.5275 -6.9454 2.18503 0
M  V30 414 N 42.4845 -5.95905 2.39948 0
M  V30 415 C 42.6535 -4.98383 3.32108 0
M  V30 416 N 41.6265 -4.16798 3.41761 0
M  V30 417 C 40.7415 -4.65287 2.47461 0
M  V30 418 C 39.4745 -4.18946 2.07461 0
M  V30 419 N 38.8755 -3.09661 2.60717 0
M  V30 420 N 38.9095 -4.95327 1.09101 0
M  V30 421 C 39.5115 -6.04369 0.519812 0
M  V30 422 N 40.6885 -6.50694 0.855982 0
M  V30 423 C 41.2635 -5.75818 1.84322 0
M  V30 424 H 43.5595 -7.22964 1.12076 0
M  V30 425 H 44.7425 -5.60502 3.36589 0
M  V30 426 H 46.2255 -7.35707 4.02681 0
M  V30 427 H 44.5315 -9.41302 3.90009 0
M  V30 428 H 44.3415 -8.29056 5.99158 0
M  V30 429 H 42.7115 -8.10073 5.25882 0
M  V30 430 H 38.9755 -6.55843 -0.270373 0
M  V30 431 H 43.5535 -4.88564 3.92502 0
M  V30 432 H 37.9455 -2.80523 2.27218 0
M  V30 433 H 39.3495 -2.55848 3.34465 0
M  V30 434 H 45.3515 -6.30224 0.72668 0
M  V30 435 P 47.2091 -8.4349 2.47671 0
M  V30 436 O 48.6311 -8.94167 2.5964 0
M  V30 437 O 46.8491 -7.1704 3.19006 0
M  V30 438 O 46.8861 -8.16596 0.923387 0
M  V30 439 C 46.7261 -9.38437 0.108857 0
M  V30 440 C 47.2661 -9.08175 -1.28353 0
M  V30 441 O 46.2101 -8.44229 -1.84713 0
M  V30 442 C 48.4841 -8.18386 -1.42505 0
M  V30 443 O 49.2221 -8.3501 -2.60497 0
M  V30 444 C 47.8151 -6.80225 -1.25468 0
M  V30 445 O 48.6141 -5.81621 -1.91066 0
M  V30 446 C 46.4781 -7.02416 -1.9168 0
M  V30 447 H 46.5101 -6.6888 -2.96621 0
M  V30 448 H 47.6931 -6.53617 -0.192223 0
M  V30 449 H 49.1771 -8.36622 -0.589963 0
M  V30 450 H 47.4831 -10.0291 -1.79807 0
M  V30 451 H 47.2931 -10.2138 0.558219 0
M  V30 452 H 45.6631 -9.6579 0.0444202 0
M  V30 453 H 48.3021 -5.69556 -2.79637 0
M  V30 454 P 50.1597 -8.4349 -2.47671 0
M  V30 455 O 51.5807 -8.92689 -2.65029 0
M  V30 456 O 49.7997 -7.7568 -1.19296 0
M  V30 457 O 49.8367 -7.36886 -3.63805 0
M  V30 458 C 49.6757 -7.95433 -4.98253 0
M  V30 459 C 50.2167 -6.94612 -5.98974 0
M  V30 460 O 49.1617 -6.10277 -6.11744 0
M  V30 461 C 51.4347 -6.11426 -5.62335 0
M  V30 462 O 52.1727 -5.6162 -6.70584 0
M  V30 463 C 50.7667 -5.04409 -4.73308 0
M  V30 464 O 51.5647 -3.86404 -4.74719 0
M  V30 465 C 49.4287 -4.8728 -5.41006 0
M  V30 466 N 48.3857 -4.65812 -4.42377 0
M  V30 467 C 48.5547 -5.09132 -3.15382 0
M  V30 468 N 47.5277 -4.84021 -2.3716 0
M  V30 469 C 46.6427 -4.18386 -3.20441 0
M  V30 470 C 45.3757 -3.6275 -2.94905 0
M  V30 471 N 44.7767 -3.65794 -1.73372 0
M  V30 472 N 44.8107 -3.05008 -4.05243 0
M  V30 473 C 45.4127 -2.98348 -5.28159 0
M  V30 474 N 46.5897 -3.48171 -5.56333 0
M  V30 475 C 47.1647 -4.06869 -4.47212 0
M  V30 476 H 49.4607 -4.02278 -6.11074 0
M  V30 477 H 50.6437 -5.39013 -3.70026 0
M  V30 478 H 52.1267 -6.71916 -5.01943 0
M  V30 479 H 50.4327 -7.45796 -6.94223 0
M  V30 480 H 50.2427 -8.89416 -5.05237 0
M  V30 481 H 48.6127 -8.14876 -5.18409 0
M  V30 482 H 44.8767 -2.47853 -6.07807 0
M  V30 483 H 49.4547 -5.59989 -2.81362 0
M  V30 484 H 43.8467 -3.23218 -1.60782 0
M  V30 485 H 45.2507 -4.10523 -0.937856 0
M  V30 486 H 51.2527 -3.27906 -5.43085 0
M  V30 487 P 53.1103 -5.75688 -6.64379 0
M  V30 488 O 54.5313 -6.07692 -7.0558 0
M  V30 489 O 52.7503 -5.88047 -5.19722 0
M  V30 490 O 52.7873 -4.2322 -7.04443 0
M  V30 491 C 52.6263 -3.99785 -8.49201 0
M  V30 492 C 53.1673 -2.60516 -8.79425 0
M  V30 493 O 52.1123 -1.82663 -8.44573 0
M  V30 494 C 54.3853 -2.10343 -8.03628 0
M  V30 495 O 55.1233 -1.09919 -8.67766 0
M  V30 496 C 53.7173 -1.68446 -6.70876 0
M  V30 497 O 54.5153 -0.684109 -6.08265 0
M  V30 498 C 52.3793 -1.17436 -7.18567 0
M  V30 499 N 51.3363 -1.52699 -6.23988 0
M  V30 500 C 51.5053 -2.578 -5.40574 0
M  V30 501 N 50.4783 -2.78966 -4.61193 0
M  V30 502 C 49.5933 -1.78725 -4.95769 0
M  V30 503 C 48.3263 -1.45727 -4.44207 0
M  V30 504 N 47.7613 -0.374977 -5.05812 0
M  V30 505 C 48.3633 0.345585 -6.05615 0
M  V30 506 N 49.5403 0.0787651 -6.56253 0
M  V30 507 C 50.1153 -1.00499 -5.96189 0
M  V30 508 H 53.5943 -2.53396 -6.02698 0
M  V30 509 H 55.0773 -2.93881 -7.85526 0
M  V30 510 H 53.3833 -2.52078 -9.87225 0
M  V30 511 H 53.1933 -4.75072 -9.05887 0
M  V30 512 H 51.5633 -4.05244 -8.76668 0
M  V30 513 H 52.4053 -3.18977 -5.3945 0
M  V30 514 H 54.2033 0.177619 -6.34151 0
M  V30 515 P 56.0608 -1.25109 -8.70152 0
M  V30 516 O 57.4828 -1.29744 -9.22016 0
M  V30 517 O 55.7008 -2.13714 -7.55141 0
M  V30 518 O 55.7378 0.248149 -8.21425 0
M  V30 519 C 55.5778 1.22779 -9.30434 0
M  V30 520 C 56.1178 2.56293 -8.80664 0
M  V30 521 O 55.0618 3.02979 -8.09349 0
M  V30 522 C 57.3358 2.57523 -7.89775 0
M  V30 523 O 58.0738 3.7668 -7.89438 0
M  V30 524 C 56.6668 2.20997 -6.55446 0
M  V30 525 O 57.4658 2.71895 -5.48509 0
M  V30 526 C 55.3298 2.89693 -6.67988 0
M  V30 527 H 55.3618 3.88793 -6.19859 0
M  V30 528 H 56.5448 1.12046 -6.44229 0
M  V30 529 H 58.0288 1.7746 -8.19711 0
M  V30 530 H 56.3348 3.20706 -9.67112 0
M  V30 531 H 56.1448 0.901032 -10.1892 0
M  V30 532 H 54.5148 1.33049 -9.56592 0
M  V30 533 H 57.1538 3.57847 -5.23962 0
M  V30 534 P 59.0114 3.65191 -7.99657 0
M  V30 535 O 60.4334 3.89332 -8.45794 0
M  V30 536 O 58.6514 2.28472 -7.50807 0
M  V30 537 O 58.6884 4.64972 -6.77611 0
M  V30 538 C 58.5284 6.06319 -7.16352 0
M  V30 539 C 59.0684 6.91731 -6.02299 0
M  V30 540 O 58.0124 6.92449 -5.17064 0
M  V30 541 C 60.2864 6.43627 -5.25174 0
M  V30 542 O 61.0244 7.43686 -4.60469 0
M  V30 543 C 59.6174 5.40275 -4.31916 0
M  V30 544 O 60.4164 5.25279 -3.14438 0
M  V30 545 C 58.2804 6.04847 -4.05327 0
M  V30 546 H 58.3124 6.62195 -3.11261 0
M  V30 547 H 59.4954 4.42556 -4.81383 0
M  V30 548 H 60.9794 5.92458 -5.93643 0
M  V30 549 H 59.2854 7.92655 -6.402 0
M  V30 550 H 59.0954 6.26671 -8.0846 0
M  V30 551 H 57.4654 6.29101 -7.32804 0
M  V30 552 H 60.1044 5.84315 -2.47318 0
M  V30 553 P 61.962 7.39546 -4.75277 0
M  V30 554 O 63.384 7.84798 -5.01039 0
M  V30 555 O 61.602 5.9812 -5.08098 0
M  V30 556 O 61.639 7.57503 -3.1866 0
M  V30 557 C 61.479 8.97357 -2.74833 0
M  V30 558 C 62.019 9.07548 -1.32709 0
M  V30 559 O 60.963 8.62072 -0.606159 0
M  V30 560 C 63.237 8.25383 -0.938334 0
M  V30 561 O 63.975 8.74577 0.146954 0
M  V30 562 C 62.568 6.8802 -0.712559 0
M  V30 563 O 63.367 6.1189 0.194655 0
M  V30 564 C 61.231 7.27966 -0.139777 0
M  V30 565 H 61.263 7.25354 0.961601 0
M  V30 566 H 62.446 6.32557 -1.65702 0
M  V30 567 H 63.93 8.19355 -1.79097 0
M  V30 568 H 62.236 10.1294 -1.10029 0
M  V30 569 H 62.046 9.64276 -3.41316 0
M  V30 570 H 60.416 9.25417 -2.76357 0
M  V30 571 H 63.055 6.25267 1.07847 0
M  V30 572 P 64.9125 8.791 -3.55383e-14 0
M  V30 573 O 66.3345 9.31296 0.027939 0
M  V30 574 O 64.5525 7.77869 -1.04071 0
M  V30 575 O 64.5895 8.09533 1.41463 0
M  V30 576 C 64.4295 9.0349 2.53943 0
M  V30 577 C 64.9695 8.35135 3.78975 0
M  V30 578 O 63.9145 7.57992 4.15078 0
M  V30 579 C 66.1875 7.45087 3.67298 0
M  V30 580 O 66.9255 7.27796 4.85194 0
M  V30 581 C 65.5195 6.17323 3.12027 0
M  V30 582 O 66.3175 5.04149 3.47132 0
M  V30 583 C 64.1815 6.19961 3.81809 0
M  V30 584 N 63.1385 5.71575 2.93223 0
M  V30 585 C 63.2005 5.97133 1.62693 0
M  V30 586 N 62.1555 5.44066 0.984414 0
M  V30 587 C 61.4215 4.87093 1.93987 0
M  V30 588 C 60.1155 4.26449 1.8738 0
M  V30 589 O 59.3825 4.1089 0.884377 0
M  V30 590 N 59.6855 3.82483 3.08036 0
M  V30 591 C 60.4345 3.95124 4.27727 0
M  V30 592 N 59.8375 3.4084 5.39089 0
M  V30 593 N 61.5875 4.55264 4.3706 0
M  V30 594 C 62.0445 5.00861 3.18217 0
M  V30 595 H 64.2135 5.58218 4.73051 0
M  V30 596 H 65.3965 6.21631 2.02558 0
M  V30 597 H 66.8815 7.85819 2.93096 0
M  V30 598 H 65.1865 9.11627 4.55076 0
M  V30 599 H 64.9965 9.9573 2.34194 0
M  V30 600 H 63.3655 9.2792 2.67832 0
M  V30 601 H 58.7895 3.38323 3.1329 0
M  V30 602 H 63.9965 6.53891 1.14265 0
M  V30 603 H 58.9265 2.93852 5.30559 0
M  V30 604 H 60.3025 3.47631 6.30632 0
M  V30 605 H 66.0065 4.67628 4.28704 0
M  V30 606 P 67.8631 7.39546 4.75277 0
M  V30 607 O 69.2851 7.81777 5.05738 0
M  V30 608 O 67.5031 7.1065 3.32998 0
M  V30 609 O 67.5401 6.04542 5.56673 0
M  V30 610 C 67.3801 6.22772 7.02095 0
M  V30 611 C 67.9201 4.97725 7.70406 0
M  V30 612 O 66.8641 4.13256 7.58987 0
M  V30 613 C 69.1381 4.28231 7.11815 0
M  V30 614 O 69.8761 3.49945 8.01648 0
M  V30 615 C 68.4691 3.5063 5.96244 0
M  V30 616 O 69.2681 2.36482 5.64681 0
M  V30 617 C 67.1321 3.15122 6.56374 0
M  V30 618 H 67.1641 2.13853 6.99751 0
M  V30 619 H 68.3471 4.13501 5.06559 0
M  V30 620 H 69.8311 5.03285 6.70911 0
M  V30 621 H 68.1371 5.20877 8.75697 0
M  V30 622 H 67.9471 7.11046 7.35349 0
M  V30 623 H 66.3171 6.35815 7.26986 0
M  V30 624 H 68.9561 1.61644 6.13565 0
M  V30 625 P 70.8137 3.65191 7.99657 0
M  V30 626 O 72.2357 3.8425 8.48115 0
M  V30 627 O 70.4537 4.17805 6.64342 0
M  V30 628 O 70.4907 2.07613 7.95143 0
M  V30 629 C 70.3307 1.44328 9.27336 0
M  V30 630 C 70.8707 0.0220036 9.17197 0
M  V30 631 O 69.8147 -0.626867 8.61923 0
M  V30 632 C 72.0887 -0.24586 8.30336 0
M  V30 633 O 72.8267 -1.39011 8.63583 0
M  V30 634 C 71.4197 -0.273849 6.91158 0
M  V30 635 O 72.2187 -1.06348 6.02892 0
M  V30 636 C 70.0827 -0.897649 7.22545 0
M  V30 637 H 70.1147 -1.9841 7.04286 0
M  V30 638 H 71.2977 0.739928 6.497 0
M  V30 639 H 72.7817 0.60668 8.36503 0
M  V30 640 H 71.0877 -0.352479 10.1829 0
M  V30 641 H 70.8977 2.00611 10.0304 0
M  V30 642 H 69.2677 1.41843 9.55327 0
M  V30 643 H 71.9067 -1.95734 6.03555 0
M  V30 644 P 73.7642 -1.25109 8.70152 0
M  V30 645 O 75.1852 -1.35288 9.2132 0
M  V30 646 O 73.4042 -0.0769065 7.84762 0
M  V30 647 O 73.4412 -2.55232 7.81161 0
M  V30 648 C 73.2802 -3.79979 8.58246 0
M  V30 649 C 73.8212 -4.94023 7.72785 0
M  V30 650 O 72.7662 -5.18666 6.91125 0
M  V30 651 C 75.0392 -4.69597 6.85231 0
M  V30 652 O 75.7772 -5.83832 6.51337 0
M  V30 653 C 74.3712 -3.96706 5.66633 0
M  V30 654 O 75.1692 -4.14896 4.5003 0
M  V30 655 C 73.0332 -4.66153 5.59313 0
M  V30 656 N 71.9902 -3.71582 5.24027 0
M  V30 657 C 72.1592 -2.39715 5.48833 0
M  V30 658 N 71.1322 -1.65863 5.12845 0
M  V30 659 C 70.2472 -2.57637 4.5973 0
M  V30 660 C 68.9802 -2.40278 4.01027 0
M  V30 661 N 68.4152 -3.57711 3.59575 0
M  V30 662 C 69.0172 -4.80324 3.70476 0
M  V30 663 N 70.1942 -5.01121 4.23801 0
M  V30 664 C 70.7692 -3.84757 4.66372 0
M  V30 665 H 74.2482 -2.8955 5.86187 0
M  V30 666 H 75.7312 -4.0121 7.36511 0
M  V30 667 H 74.0372 -5.81019 8.37003 0
M  V30 668 H 73.8472 -3.73517 9.52265 0
M  V30 669 H 72.2172 -3.97163 8.80359 0
M  V30 670 H 73.0592 -1.98804 5.94332 0
M  V30 671 H 74.8572 -4.90891 4.01857 0
M  V30 672 P 76.7148 -5.75688 6.64379 0
M  V30 673 O 78.1368 -6.11849 7.01846 0
M  V30 674 O 76.3548 -4.30744 6.56026 0
M  V30 675 O 76.3918 -6.37042 5.19165 0
M  V30 676 C 76.2318 -7.83578 5.16515 0
M  V30 677 C 76.7718 -8.33398 3.83019 0
M  V30 678 O 75.7158 -8.10074 3.01034 0
M  V30 679 C 77.9898 -7.65514 3.2257 0
M  V30 680 O 78.7278 -8.4329 2.32297 0
M  V30 681 C 77.3208 -6.40075 2.62207 0
M  V30 682 O 78.1198 -5.92589 1.53712 0
M  V30 683 C 75.9838 -6.9454 2.18503 0
M  V30 684 H 76.0158 -7.23063 1.12091 0
M  V30 685 H 77.1988 -5.6025 3.37201 0
M  V30 686 H 78.6828 -7.35707 4.02681 0
M  V30 687 H 76.9888 -9.40912 3.9095 0
M  V30 688 H 76.7988 -8.29056 5.99158 0
M  V30 689 H 75.1688 -8.10073 5.25882 0
M  V30 690 H 77.8078 -6.30324 0.726794 0
M  V30 691 P 79.6654 -8.4349 2.47671 0
M  V30 692 O 81.0874 -8.94167 2.5964 0
M  V30 693 O 79.3054 -7.1704 3.19006 0
M  V30 694 O 79.3424 -8.16596 0.923387 0
M  V30 695 C 79.1824 -9.38437 0.108857 0
M  V30 696 C 79.7224 -9.08175 -1.28353 0
M  V30 697 O 78.6664 -8.44229 -1.84713 0
M  V30 698 C 80.9404 -8.18386 -1.42505 0
M  V30 699 O 81.6784 -8.3501 -2.60497 0
M  V30 700 C 80.2714 -6.80225 -1.25468 0
M  V30 701 O 81.0704 -5.81621 -1.91066 0
M  V30 702 C 78.9344 -7.02416 -1.9168 0
M  V30 703 H 78.9664 -6.6888 -2.96621 0
M  V30 704 H 80.1494 -6.53617 -0.192223 0
M  V30 705 H 81.6334 -8.36622 -0.589963 0
M  V30 706 H 79.9394 -10.0291 -1.79807 0
M  V30 707 H 79.7494 -10.2138 0.558219 0
M  V30 708 H 78.1194 -9.6579 0.0444202 0
M  V30 709 H 80.7584 -5.69556 -2.79637 0
M  V30 710 P 82.616 -8.4349 -2.47671 0
M  V30 711 O 84.017 -8.99283 -2.62101 0
M  V30 712 O 82.238 -7.81195 -1.16947 0
M  V30 713 O 82.293 -7.36797 -3.63761 0
M  V30 714 C 82.133 -7.95349 -4.982 0
M  V30 715 C 82.673 -6.94537 -5.98908 0
M  V30 716 O 81.617 -6.10277 -6.11744 0
M  V30 717 C 83.89 -6.11426 -5.62335 0
M  V30 718 O 84.629 -5.6162 -6.70584 0
M  V30 719 C 83.223 -5.04409 -4.73308 0
M  V30 720 O 84.021 -3.85929 -4.75106 0
M  V30 721 C 81.885 -4.8728 -5.41006 0
M  V30 722 N 80.842 -4.65812 -4.42377 0
M  V30 723 C 79.807 -3.81293 -4.74224 0
M  V30 724 O 79.846 -3.20533 -5.83679 0
M  V30 725 N 78.795 -3.6442 -3.86349 0
M  V30 726 C 78.843 -4.2728 -2.6824 0
M  V30 727 N 77.833 -4.09866 -1.83822 0
M  V30 728 C 79.939 -5.10813 -2.3217 0
M  V30 729 C 80.905 -5.27909 -3.22647 0
M  V30 730 H 81.917 -4.02278 -6.11074 0
M  V30 731 H 83.1 -5.39013 -3.70026 0
M  V30 732 H 84.584 -6.71494 -5.02675 0
M  V30 733 H 82.89 -7.45796 -6.94223 0
M  V30 734 H 82.699 -8.89416 -5.05237 0
M  V30 735 H 81.069 -8.14791 -5.18355 0
M  V30 736 H 79.987 -5.58884 -1.34755 0
M  V30 737 H 81.751 -5.92811 -2.9934 0
M  V30 738 H 77.043 -3.49095 -2.10018 0
M  V30 739 H 77.838 -4.56846 -0.924167 0
M  V30 740 H 83.805 -3.3454 -5.51577 0
M  V30 741 P 85.5665 -5.75688 -6.64379 0
M  V30 742 O 86.9885 -6.07627 -7.05504 0
M  V30 743 O 85.2065 -5.88047 -5.19722 0
M  V30 744 O 85.2435 -4.2322 -7.04443 0
M  V30 745 C 85.0835 -3.99743 -8.4911 0
M  V30 746 C 85.6235 -2.60516 -8.79425 0
M  V30 747 O 84.5675 -1.82684 -8.4467 0
M  V30 748 C 86.8415 -2.10343 -8.03628 0
M  V30 749 O 87.5795 -1.09919 -8.67766 0
M  V30 750 C 86.1725 -1.68446 -6.70876 0
M  V30 751 O 86.9715 -0.678137 -6.08433 0
M  V30 752 C 84.8355 -1.17436 -7.18567 0
M  V30 753 H 84.8675 -0.0804732 -7.31656 0
M  V30 754 H 86.0505 -2.54037 -6.02537 0
M  V30 755 H 87.5345 -2.93881 -7.85526 0
M  V30 756 H 85.8405 -2.53065 -9.86973 0
M  V30 757 H 85.6505 -4.75072 -9.05887 0
M  V30 758 H 84.0205 -4.05244 -8.76668 0
M  V30 759 H 86.6595 0.177647 -6.34251 0
M  V30 760 P 88.5171 -1.25109 -8.70152 0
M  V30 761 O 89.9391 -1.29744 -9.22016 0
M  V30 762 O 88.1571 -2.13714 -7.55141 0
M  V30 763 O 88.1941 0.248149 -8.21425 0
M  V30 764 C 88.0341 1.22779 -9.30434 0
M  V30 765 C 88.5741 2.56293 -8.80664 0
M  V30 766 O 87.5181 3.02979 -8.09349 0
M  V30 767 C 89.7921 2.57523 -7.89775 0
M  V30 768 O 90.5301 3.7668 -7.89438 0
M  V30 769 C 89.1231 2.20997 -6.55446 0
M  V30 770 O 89.9221 2.71895 -5.48509 0
M  V30 771 C 87.7861 2.89693 -6.67988 0
M  V30 772 H 87.8181 3.88793 -6.19859 0
M  V30 773 H 89.0011 1.12046 -6.44229 0
M  V30 774 H 90.4851 1.7746 -8.19711 0
M  V30 775 H 88.7911 3.20706 -9.67112 0
M  V30 776 H 88.6011 0.901032 -10.1892 0
M  V30 777 H 86.9711 1.33049 -9.56592 0
M  V30 778 H 89.6101 3.57847 -5.23962 0
M  V30 779 P 91.4677 3.65191 -7.99657 0
M  V30 780 O 92.8897 3.89416 -8.45976 0
M  V30 781 O 91.1077 2.28472 -7.50807 0
M  V30 782 O 91.1447 4.64972 -6.77611 0
M  V30 783 C 90.9847 6.06319 -7.16352 0
M  V30 784 C 91.5247 6.91655 -6.02234 0
M  V30 785 O 90.4697 6.92449 -5.17064 0
M  V30 786 C 92.7427 6.43627 -5.25174 0
M  V30 787 O 93.4807 7.43686 -4.60469 0
M  V30 788 C 92.0747 5.40275 -4.31916 0
M  V30 789 O 92.8727 5.25193 -3.14386 0
M  V30 790 C 90.7367 6.04847 -4.05327 0
M  V30 791 N 89.6937 5.04166 -3.98114 0
M  V30 792 C 89.7557 3.96049 -4.75587 0
M  V30 793 N 88.7107 3.15559 -4.54006 0
M  V30 794 C 87.9767 3.78802 -3.62491 0
M  V30 795 C 86.6707 3.476 -3.10071 0
M  V30 796 O 85.9377 2.51136 -3.37021 0
M  V30 797 N 86.2407 4.39088 -2.19956 0
M  V30 798 C 86.9897 5.53215 -1.81733 0
M  V30 799 N 86.3927 6.31963 -0.860928 0
M  V30 800 N 88.1427 5.86688 -2.32562 0
M  V30 801 C 88.5997 4.97525 -3.23407 0
M  V30 802 H 90.7687 6.62195 -3.11261 0
M  V30 803 H 91.9517 4.42488 -4.8131 0
M  V30 804 H 93.4367 5.93051 -5.9305 0
M  V30 805 H 91.7417 7.92655 -6.402 0
M  V30 806 H 91.5517 6.26671 -8.0846 0
M  V30 807 H 89.9207 6.29101 -7.32804 0
M  V30 808 H 85.3447 4.25523 -1.77604 0
M  V30 809 H 90.5517 3.75576 -5.47333 0
M  V30 810 H 85.4817 6.04684 -0.468946 0
M  V30 811 H 86.8577 7.18054 -0.542422 0
M  V30 812 H 92.5617 5.84223 -2.47279 0
M  V30 813 P 94.4182 7.39546 -4.75277 0
M  V30 814 O 95.8402 7.84798 -5.01039 0
M  V30 815 O 94.0582 5.9812 -5.08098 0
M  V30 816 O 94.0952 7.57503 -3.1866 0
M  V30 817 C 93.9352 8.97357 -2.74833 0
M  V30 818 C 94.4752 9.07548 -1.32709 0
M  V30 819 O 93.4192 8.62072 -0.606159 0
M  V30 820 C 95.6932 8.25383 -0.938334 0
M  V30 821 O 96.4312 8.74577 0.146954 0
M  V30 822 C 95.0242 6.8802 -0.712559 0
M  V30 823 O 95.8232 6.1189 0.194655 0
M  V30 824 C 93.6872 7.27966 -0.139777 0
M  V30 825 H 93.7192 7.25354 0.961601 0
M  V30 826 H 94.9022 6.32557 -1.65702 0
M  V30 827 H 96.3862 8.19355 -1.79097 0
M  V30 828 H 94.6922 10.1294 -1.10029 0
M  V30 829 H 94.5022 9.64276 -3.41316 0
M  V30 830 H 92.8722 9.25417 -2.76357 0
M  V30 831 H 95.5112 6.25267 1.07847 0
M  V30 832 P 97.3688 8.791 -6.89233e-14 0
M  V30 833 O 98.7908 9.31096 0.027933 0
M  V30 834 O 97.0088 7.77869 -1.04071 0
M  V30 835 O 97.0458 8.09533 1.41463 0
M  V30 836 C 96.8858 9.0349 2.53943 0
M  V30 837 C 97.4258 8.35226 3.79016 0
M  V30 838 O 96.3698 7.57992 4.15078 0
M  V30 839 C 98.6438 7.45087 3.67298 0
M  V30 840 O 99.3818 7.27796 4.85194 0
M  V30 841 C 97.9748 6.17323 3.12027 0
M  V30 842 O 98.7738 5.04231 3.47188 0
M  V30 843 C 96.6378 6.19961 3.81809 0
M  V30 844 H 96.6698 5.58218 4.73051 0
M  V30 845 H 97.8528 6.21726 2.02589 0
M  V30 846 H 99.3368 7.86112 2.9231 0
M  V30 847 H 97.6428 9.11627 4.55076 0
M  V30 848 H 97.4528 9.9573 2.34194 0
M  V30 849 H 95.8228 9.2792 2.67832 0
M  V30 850 H 98.4618 4.67702 4.28772 0
M  V30 851 P 100.319 7.39546 4.75277 0
M  V30 852 O 101.741 7.81945 5.05847 0
M  V30 853 O 99.9594 7.1065 3.32998 0
M  V30 854 O 99.9964 6.04542 5.56673 0
M  V30 855 C 99.8364 6.22772 7.02095 0
M  V30 856 C 100.376 4.97671 7.70322 0
M  V30 857 O 99.3214 4.13256 7.58987 0
M  V30 858 C 101.594 4.28231 7.11815 0
M  V30 859 O 102.332 3.49945 8.01648 0
M  V30 860 C 100.926 3.5063 5.96244 0
M  V30 861 O 101.724 2.36443 5.64589 0
M  V30 862 C 99.5884 3.15122 6.56374 0
M  V30 863 N 98.5454 3.22311 5.55692 0
M  V30 864 C 98.6074 4.14382 4.59701 0
M  V30 865 N 97.5624 4.04476 3.76958 0
M  V30 866 C 96.8284 3.04892 4.26534 0
M  V30 867 C 95.5224 2.57447 3.88189 0
M  V30 868 O 94.7894 2.9785 2.96543 0
M  V30 869 N 95.0924 1.55228 4.65922 0
M  V30 870 C 95.8414 1.01152 5.73447 0
M  V30 871 N 95.2444 -0.0472117 6.37783 0
M  V30 872 N 96.9944 1.467 6.13813 0
M  V30 873 C 97.4514 2.4931 5.38487 0
M  V30 874 H 99.6204 2.13853 6.99751 0
M  V30 875 H 100.803 4.13438 5.06482 0
M  V30 876 H 102.288 5.02614 6.71414 0
M  V30 877 H 100.593 5.20877 8.75697 0
M  V30 878 H 100.403 7.11046 7.35349 0
M  V30 879 H 98.7724 6.35815 7.26986 0
M  V30 880 H 94.1964 1.15238 4.46468 0
M  V30 881 H 99.4034 4.88312 4.49647 0
M  V30 882 H 94.3334 -0.396382 6.05203 0
M  V30 883 H 95.7094 -0.484997 7.18465 0
M  V30 884 H 101.413 1.61619 6.13468 0
M  V30 885 P 103.27 3.65191 7.99657 0
M  V30 886 O 104.691 3.84292 8.48206 0
M  V30 887 O 102.91 4.17805 6.64342 0
M  V30 888 O 102.947 2.07613 7.95143 0
M  V30 889 C 102.786 1.44344 9.27435 0
M  V30 890 C 103.327 0.0220036 9.17197 0
M  V30 891 O 102.272 -0.626794 8.61824 0
M  V30 892 C 104.545 -0.24586 8.30336 0
M  V30 893 O 105.283 -1.39011 8.63583 0
M  V30 894 C 103.877 -0.273849 6.91158 0
M  V30 895 O 104.675 -1.05728 6.029 0
M  V30 896 C 102.539 -0.897649 7.22545 0
M  V30 897 N 101.496 -0.292839 6.41732 0
M  V30 898 C 101.665 0.950603 5.91308 0
M  V30 899 N 100.638 1.37732 5.21105 0
M  V30 900 C 99.7529 0.318109 5.26039 0
M  V30 901 C 98.4859 0.146766 4.6727 0
M  V30 902 N 97.8869 1.08519 3.89983 0
M  V30 903 N 97.9209 -1.06525 4.95887 0
M  V30 904 C 98.5229 -2.0378 5.71347 0
M  V30 905 N 99.6999 -1.92445 6.27451 0
M  V30 906 C 100.275 -0.715382 6.00353 0
M  V30 907 H 102.571 -1.98383 7.04189 0
M  V30 908 H 103.754 0.733318 6.49674 0
M  V30 909 H 105.237 0.60668 8.36503 0
M  V30 910 H 103.543 -0.362662 10.1825 0
M  V30 911 H 103.353 2.00611 10.0304 0
M  V30 912 H 101.723 1.41843 9.55327 0
M  V30 913 H 97.9869 -2.97041 5.85344 0
M  V30 914 H 102.565 1.54076 6.07465 0
M  V30 915 H 96.9569 0.901517 3.49562 0
M  V30 916 H 98.3609 1.97957 3.71669 0
M  V30 917 H 104.363 -1.95704 6.0346 0
M  V30 918 P 106.221 -1.25109 8.70152 0
M  V30 919 O 107.643 -1.35274 9.21221 0
M  V30 920 O 105.861 -0.0769065 7.84762 0
M  V30 921 O 105.898 -2.55232 7.81161 0
M  V30 922 C 105.738 -3.79939 8.58154 0
M  V30 923 C 106.278 -4.94023 7.72785 0
M  V30 924 O 105.222 -5.18726 6.91205 0
M  V30 925 C 107.496 -4.69597 6.85231 0
M  V30 926 O 108.234 -5.83832 6.51337 0
M  V30 927 C 106.827 -3.96706 5.66633 0
M  V30 928 O 107.626 -4.15414 4.49689 0
M  V30 929 C 105.49 -4.66153 5.59313 0
M  V30 930 H 105.522 -5.47679 4.85214 0
M  V30 931 H 106.705 -2.89008 5.86566 0
M  V30 932 H 108.189 -4.0121 7.36511 0
M  V30 933 H 106.495 -5.80182 8.37584 0
M  V30 934 H 106.305 -3.73517 9.52265 0
M  V30 935 H 104.675 -3.97163 8.80359 0
M  V30 936 H 107.314 -4.90969 4.01921 0
M  V30 937 P 109.171 -5.75688 6.64379 0
M  V30 938 O 110.593 -6.11849 7.01846 0
M  V30 939 O 108.811 -4.30744 6.56026 0
M  V30 940 O 108.848 -6.37042 5.19165 0
M  V30 941 C 108.688 -7.83578 5.16515 0
M  V30 942 C 109.228 -8.33398 3.83019 0
M  V30 943 O 108.172 -8.10074 3.01034 0
M  V30 944 C 110.446 -7.65514 3.2257 0
M  V30 945 O 111.184 -8.4329 2.32297 0
M  V30 946 C 109.777 -6.40075 2.62207 0
M  V30 947 O 110.576 -5.92589 1.53712 0
M  V30 948 C 108.44 -6.9454 2.18503 0
M  V30 949 H 108.472 -7.23063 1.12091 0
M  V30 950 H 109.655 -5.6025 3.37201 0
M  V30 951 H 111.139 -7.35707 4.02681 0
M  V30 952 H 109.445 -9.40912 3.9095 0
M  V30 953 H 109.255 -8.29056 5.99158 0
M  V30 954 H 107.625 -8.10073 5.25882 0
M  V30 955 H 110.264 -6.30324 0.726794 0
M  V30 956 P 112.122 -8.4349 2.47671 0
M  V30 957 O 113.543 -8.94263 2.59668 0
M  V30 958 O 111.762 -7.1704 3.19006 0
M  V30 959 O 111.799 -8.16596 0.923387 0
M  V30 960 C 111.638 -9.38537 0.108869 0
M  V30 961 C 112.179 -9.08175 -1.28353 0
M  V30 962 O 111.124 -8.44131 -1.84692 0
M  V30 963 C 113.397 -8.18386 -1.42505 0
M  V30 964 O 114.135 -8.3501 -2.60497 0
M  V30 965 C 112.729 -6.80225 -1.25468 0
M  V30 966 O 113.527 -5.81716 -1.90454 0
M  V30 967 C 111.391 -7.02416 -1.9168 0
M  V30 968 N 110.348 -6.31033 -1.20314 0
M  V30 969 C 110.517 -5.98817 0.0994088 0
M  V30 970 N 109.49 -5.35403 0.621694 0
M  V30 971 C 108.605 -5.25212 -0.43376 0
M  V30 972 C 107.338 -4.64602 -0.519722 0
M  V30 973 N 106.773 -4.7568 -1.76013 0
M  V30 974 C 107.375 -5.3653 -2.83017 0
M  V30 975 N 108.552 -5.93676 -2.79782 0
M  V30 976 C 109.127 -5.84061 -1.56249 0
M  V30 977 H 112.606 -6.53498 -0.198729 0
M  V30 978 H 114.089 -8.36622 -0.589963 0
M  V30 979 H 112.395 -10.0273 -1.8081 0
M  V30 980 H 112.205 -10.2138 0.558219 0
M  V30 981 H 110.575 -9.6579 0.0444202 0
M  V30 982 H 111.417 -6.23209 0.660562 0
M  V30 983 H 113.215 -5.69466 -2.79593 0
M  V30 984 P 115.072 -8.4349 -2.47671 0
M  V30 985 O 116.494 -8.92593 -2.65 0
M  V30 986 O 114.712 -7.7568 -1.19296 0
M  V30 987 O 114.749 -7.36886 -3.63805 0
M  V30 988 C 114.589 -7.95349 -4.982 0
M  V30 989 C 115.129 -6.94612 -5.98974 0
M  V30 990 O 114.073 -6.10347 -6.11815 0
M  V30 991 C 116.347 -6.11426 -5.62335 0
M  V30 992 O 117.085 -5.6162 -6.70584 0
M  V30 993 C 115.678 -5.04409 -4.73308 0
M  V30 994 O 116.477 -3.85992 -4.75183 0
M  V30 995 C 114.341 -4.8728 -5.41006 0
M  V30 996 H 114.373 -4.02333 -6.11157 0
M  V30 997 H 115.556 -5.39466 -3.69543 0
M  V30 998 H 117.04 -6.71916 -5.01943 0
M  V30 999 H 115.346 -7.4649 -6.93477 0
M  V30 1000 H 115.156 -8.89416 -5.05237 0
M  V30 1001 H 113.526 -8.14876 -5.18409 0
M  V30 1002 H 116.165 -3.27957 -5.4317 0
M  V30 1003 P 118.023 -5.75688 -6.64379 0
M  V30 1004 O 119.445 -6.07627 -7.05504 0
M  V30 1005 O 117.663 -5.88047 -5.19722 0
M  V30 1006 O 117.7 -4.2322 -7.04443 0
M  V30 1007 C 117.54 -3.99743 -8.4911 0
M  V30 1008 C 118.08 -2.60516 -8.79425 0
M  V30 1009 O 117.024 -1.82684 -8.4467 0
M  V30 1010 C 119.298 -2.10343 -8.03628 0
M  V30 1011 O 120.036 -1.09919 -8.67766 0
M  V30 1012 C 118.629 -1.68446 -6.70876 0
M  V30 1013 O 119.428 -0.678137 -6.08433 0
M  V30 1014 C 117.292 -1.17436 -7.18567 0
M  V30 1015 H 117.324 -0.0804732 -7.31656 0
M  V30 1016 H 118.507 -2.54037 -6.02537 0
M  V30 1017 H 119.991 -2.93881 -7.85526 0
M  V30 1018 H 118.297 -2.53065 -9.86973 0
M  V30 1019 H 118.107 -4.75072 -9.05887 0
M  V30 1020 H 116.477 -4.05244 -8.76668 0
M  V30 1021 H 119.116 0.177647 -6.34251 0
M  V30 1022 P 120.973 -1.25109 -8.70152 0
M  V30 1023 O 122.395 -1.29744 -9.22016 0
M  V30 1024 O 120.613 -2.13714 -7.55141 0
M  V30 1025 O 120.65 0.248149 -8.21425 0
M  V30 1026 C 120.49 1.22779 -9.30434 0
M  V30 1027 C 121.03 2.56293 -8.80664 0
M  V30 1028 O 119.974 3.02979 -8.09349 0
M  V30 1029 C 122.248 2.57523 -7.89775 0
M  V30 1030 O 122.986 3.7668 -7.89438 0
M  V30 1031 C 121.579 2.20997 -6.55446 0
M  V30 1032 O 122.378 2.71895 -5.48509 0
M  V30 1033 C 120.242 2.89693 -6.67988 0
M  V30 1034 H 120.274 3.88793 -6.19859 0
M  V30 1035 H 121.457 1.12046 -6.44229 0
M  V30 1036 H 122.941 1.7746 -8.19711 0
M  V30 1037 H 121.247 3.20706 -9.67112 0
M  V30 1038 H 121.057 0.901032 -10.1892 0
M  V30 1039 H 119.427 1.33049 -9.56592 0
M  V30 1040 H 122.066 3.57847 -5.23962 0
M  V30 1041 P 123.924 3.65191 -7.99657 0
M  V30 1042 O 125.345 3.89374 -8.45885 0
M  V30 1043 O 123.564 2.28472 -7.50807 0
M  V30 1044 O 123.601 4.64972 -6.77611 0
M  V30 1045 C 123.44 6.06383 -7.16428 0
M  V30 1046 C 123.981 6.91731 -6.02299 0
M  V30 1047 O 122.926 6.92369 -5.17005 0
M  V30 1048 C 125.199 6.43627 -5.25174 0
M  V30 1049 O 125.937 7.43686 -4.60469 0
M  V30 1050 C 124.531 5.40275 -4.31916 0
M  V30 1051 O 125.329 5.24878 -3.14911 0
M  V30 1052 C 123.193 6.04847 -4.05327 0
M  V30 1053 N 122.15 5.04166 -3.98114 0
M  V30 1054 C 122.319 3.84629 -4.59066 0
M  V30 1055 N 121.292 3.0363 -4.45343 0
M  V30 1056 C 120.407 3.76722 -3.68523 0
M  V30 1057 C 119.14 3.43528 -3.17088 0
M  V30 1058 N 118.575 4.44526 -2.44231 0
M  V30 1059 C 119.177 5.65243 -2.20146 0
M  V30 1060 N 120.354 6.00221 -2.65453 0
M  V30 1061 C 120.929 5.00564 -3.39083 0
M  V30 1062 H 124.408 4.42969 -4.80867 0
M  V30 1063 H 125.891 5.92458 -5.93643 0
M  V30 1064 H 124.197 7.93295 -6.39407 0
M  V30 1065 H 124.007 6.26671 -8.0846 0
M  V30 1066 H 122.377 6.29101 -7.32804 0
M  V30 1067 H 123.219 3.58193 -5.14248 0
M  V30 1068 H 125.017 5.84223 -2.47279 0
M  V30 1069 P 126.875 7.39546 -4.75277 0
M  V30 1070 O 128.297 7.84798 -5.01039 0
M  V30 1071 O 126.515 5.9812 -5.08098 0
M  V30 1072 O 126.552 7.57503 -3.1866 0
M  V30 1073 C 126.392 8.97357 -2.74833 0
M  V30 1074 C 126.932 9.07548 -1.32709 0
M  V30 1075 O 125.876 8.62072 -0.606159 0
M  V30 1076 C 128.15 8.25383 -0.938334 0
M  V30 1077 O 128.888 8.74577 0.146954 0
M  V30 1078 C 127.481 6.8802 -0.712559 0
M  V30 1079 O 128.28 6.1189 0.194655 0
M  V30 1080 C 126.144 7.27966 -0.139777 0
M  V30 1081 H 126.176 7.25354 0.961601 0
M  V30 1082 H 127.359 6.32557 -1.65702 0
M  V30 1083 H 128.843 8.19355 -1.79097 0
M  V30 1084 H 127.149 10.1294 -1.10029 0
M  V30 1085 H 126.959 9.64276 -3.41316 0
M  V30 1086 H 125.329 9.25417 -2.76357 0
M  V30 1087 H 127.968 6.25267 1.07847 0
M  V30 1088 P 129.825 8.791 -1.02308e-13 0
M  V30 1089 O 131.247 9.31096 0.027933 0
M  V30 1090 O 129.465 7.77869 -1.04071 0
M  V30 1091 O 129.502 8.09533 1.41463 0
M  V30 1092 C 129.342 9.0349 2.53943 0
M  V30 1093 C 129.882 8.35226 3.79016 0
M  V30 1094 O 128.826 7.57992 4.15078 0
M  V30 1095 C 131.1 7.45087 3.67298 0
M  V30 1096 O 131.838 7.27796 4.85194 0
M  V30 1097 C 130.431 6.17323 3.12027 0
M  V30 1098 O 131.23 5.04231 3.47188 0
M  V30 1099 C 129.094 6.19961 3.81809 0
M  V30 1100 H 129.126 5.58218 4.73051 0
M  V30 1101 H 130.309 6.21726 2.02589 0
M  V30 1102 H 131.793 7.86112 2.9231 0
M  V30 1103 H 130.099 9.11627 4.55076 0
M  V30 1104 H 129.909 9.9573 2.34194 0
M  V30 1105 H 128.279 9.2792 2.67832 0
M  V30 1106 H 130.918 4.67702 4.28772 0
M  V30 1107 P 132.776 7.39546 4.75277 0
M  V30 1108 O 134.198 7.81777 5.05738 0
M  V30 1109 O 132.416 7.1065 3.32998 0
M  V30 1110 O 132.453 6.04542 5.56673 0
M  V30 1111 C 132.293 6.22772 7.02095 0
M  V30 1112 C 132.833 4.97725 7.70406 0
M  V30 1113 O 131.777 4.13256 7.58987 0
M  V30 1114 C 134.051 4.28231 7.11815 0
M  V30 1115 O 134.789 3.49945 8.01648 0
M  V30 1116 C 133.382 3.5063 5.96244 0
M  V30 1117 O 134.181 2.36482 5.64681 0
M  V30 1118 C 132.045 3.15122 6.56374 0
M  V30 1119 H 132.077 2.13853 6.99751 0
M  V30 1120 H 133.26 4.13501 5.06559 0
M  V30 1121 H 134.744 5.03285 6.70911 0
M  V30 1122 H 133.05 5.20877 8.75697 0
M  V30 1123 H 132.86 7.11046 7.35349 0
M  V30 1124 H 131.23 6.35815 7.26986 0
M  V30 1125 H 133.869 1.61644 6.13565 0
M  V30 1126 P 135.726 3.65191 7.99657 0
M  V30 1127 O 137.148 3.84333 8.48297 0
M  V30 1128 O 135.366 4.17805 6.64342 0
M  V30 1129 O 135.403 2.07613 7.95143 0
M  V30 1130 C 135.243 1.44328 9.27336 0
M  V30 1131 C 135.783 0.0220012 9.17097 0
M  V30 1132 O 134.728 -0.626867 8.61923 0
M  V30 1133 C 137.001 -0.24586 8.30336 0
M  V30 1134 O 137.739 -1.39011 8.63583 0
M  V30 1135 C 136.333 -0.273849 6.91158 0
M  V30 1136 O 137.131 -1.06331 6.02794 0
M  V30 1137 C 134.995 -0.897649 7.22545 0
M  V30 1138 N 133.952 -0.292839 6.41732 0
M  V30 1139 C 134.014 1.00068 6.10757 0
M  V30 1140 N 132.969 1.36468 5.35794 0
M  V30 1141 C 132.235 0.258894 5.2366 0
M  V30 1142 C 130.929 0.0670682 4.65752 0
M  V30 1143 O 130.196 0.902443 4.10497 0
M  V30 1144 N 130.499 -1.2131 4.75881 0
M  V30 1145 C 131.248 -2.24934 5.37101 0
M  V30 1146 N 130.651 -3.48783 5.33984 0
M  V30 1147 N 132.401 -2.0844 5.95684 0
M  V30 1148 C 132.858 -0.81395 5.87791 0
M  V30 1149 H 135.027 -1.9841 7.04286 0
M  V30 1150 H 136.21 0.739815 6.49601 0
M  V30 1151 H 137.695 0.598315 8.36563 0
M  V30 1152 H 136 -0.352479 10.1829 0
M  V30 1153 H 135.81 2.00611 10.0304 0
M  V30 1154 H 134.179 1.41843 9.55327 0
M  V30 1155 H 129.603 -1.44434 4.37895 0
M  V30 1156 H 134.81 1.67697 6.42268 0
M  V30 1157 H 129.74 -3.60543 4.87699 0
M  V30 1158 H 131.116 -4.29232 5.7819 0
M  V30 1159 H 136.82 -1.95704 6.0346 0
M  V30 1160 P 138.677 -1.25109 8.70152 0
M  V30 1161 O 140.098 -1.35288 9.2132 0
M  V30 1162 O 138.317 -0.0769065 7.84762 0
M  V30 1163 O 138.354 -2.55232 7.81161 0
M  V30 1164 C 138.193 -3.79979 8.58246 0
M  V30 1165 C 138.734 -4.94023 7.72785 0
M  V30 1166 O 137.679 -5.18666 6.91125 0
M  V30 1167 C 139.952 -4.69597 6.85231 0
M  V30 1168 O 140.69 -5.83832 6.51337 0
M  V30 1169 C 139.284 -3.96706 5.66633 0
M  V30 1170 O 140.082 -4.14896 4.5003 0
M  V30 1171 C 137.946 -4.66153 5.59313 0
M  V30 1172 N 136.903 -3.71582 5.24027 0
M  V30 1173 C 137.072 -2.39715 5.48833 0
M  V30 1174 N 136.045 -1.65863 5.12845 0
M  V30 1175 C 135.16 -2.57637 4.5973 0
M  V30 1176 C 133.893 -2.40278 4.01027 0
M  V30 1177 N 133.294 -1.19549 3.86744 0
M  V30 1178 N 133.328 -3.57711 3.59575 0
M  V30 1179 C 133.93 -4.80324 3.70476 0
M  V30 1180 N 135.107 -5.01121 4.23801 0
M  V30 1181 C 135.682 -3.84757 4.66372 0
M  V30 1182 H 137.978 -5.47604 4.85148 0
M  V30 1183 H 139.161 -2.8955 5.86187 0
M  V30 1184 H 140.644 -4.0121 7.36511 0
M  V30 1185 H 138.95 -5.81019 8.37003 0
M  V30 1186 H 138.76 -3.73517 9.52265 0
M  V30 1187 H 137.13 -3.97163 8.80359 0
M  V30 1188 H 133.394 -5.66348 3.3183 0
M  V30 1189 H 137.972 -1.98804 5.94332 0
M  V30 1190 H 132.364 -1.13147 3.4281 0
M  V30 1191 H 133.768 -0.344074 4.19692 0
M  V30 1192 H 139.77 -4.90891 4.01857 0
M  V30 1193 P 141.627 -5.75688 6.64379 0
M  V30 1194 O 143.049 -6.11849 7.01846 0
M  V30 1195 O 141.267 -4.30744 6.56026 0
M  V30 1196 O 141.304 -6.37042 5.19165 0
M  V30 1197 C 141.144 -7.83578 5.16515 0
M  V30 1198 C 141.684 -8.33398 3.83019 0
M  V30 1199 O 140.628 -8.10074 3.01034 0
M  V30 1200 C 142.902 -7.65514 3.2257 0
M  V30 1201 O 143.64 -8.4329 2.32297 0
M  V30 1202 C 142.233 -6.40075 2.62207 0
M  V30 1203 O 143.032 -5.92589 1.53712 0
M  V30 1204 C 140.896 -6.9454 2.18503 0
M  V30 1205 H 140.928 -7.23063 1.12091 0
M  V30 1206 H 142.111 -5.6025 3.37201 0
M  V30 1207 H 143.595 -7.35707 4.02681 0
M  V30 1208 H 141.901 -9.40912 3.9095 0
M  V30 1209 H 141.711 -8.29056 5.99158 0
M  V30 1210 H 140.081 -8.10073 5.25882 0
M  V30 1211 H 142.72 -6.30324 0.726794 0
M  V30 1212 P 144.578 -8.4349 2.47671 0
M  V30 1213 O 146 -8.94167 2.5964 0
M  V30 1214 O 144.218 -7.1704 3.19006 0
M  V30 1215 O 144.255 -8.16596 0.923387 0
M  V30 1216 C 144.095 -9.38437 0.108857 0
M  V30 1217 C 144.635 -9.08175 -1.28353 0
M  V30 1218 O 143.579 -8.44229 -1.84713 0
M  V30 1219 C 145.853 -8.18386 -1.42505 0
M  V30 1220 O 146.591 -8.3501 -2.60497 0
M  V30 1221 C 145.184 -6.80225 -1.25468 0
M  V30 1222 O 145.983 -5.81621 -1.91066 0
M  V30 1223 C 143.847 -7.02416 -1.9168 0
M  V30 1224 H 143.879 -6.6888 -2.96621 0
M  V30 1225 H 145.062 -6.53617 -0.192223 0
M  V30 1226 H 146.546 -8.36622 -0.589963 0
M  V30 1227 H 144.852 -10.0291 -1.79807 0
M  V30 1228 H 144.662 -10.2138 0.558219 0
M  V30 1229 H 143.032 -9.6579 0.0444202 0
M  V30 1230 H 145.671 -5.69556 -2.79637 0
M  V30 1231 P 147.528 -8.4349 -2.47671 0
M  V30 1232 O 148.95 -8.92593 -2.65 0
M  V30 1233 O 147.168 -7.7568 -1.19296 0
M  V30 1234 O 147.205 -7.36886 -3.63805 0
M  V30 1235 C 147.045 -7.95349 -4.982 0
M  V30 1236 C 147.585 -6.94612 -5.98974 0
M  V30 1237 O 146.529 -6.10347 -6.11815 0
M  V30 1238 C 148.803 -6.11426 -5.62335 0
M  V30 1239 O 149.541 -5.6162 -6.70584 0
M  V30 1240 C 148.134 -5.04409 -4.73308 0
M  V30 1241 O 148.933 -3.85992 -4.75183 0
M  V30 1242 C 146.797 -4.8728 -5.41006 0
M  V30 1243 H 146.829 -4.02333 -6.11157 0
M  V30 1244 H 148.012 -5.39466 -3.69543 0
M  V30 1245 H 149.496 -6.71916 -5.01943 0
M  V30 1246 H 147.802 -7.4649 -6.93477 0
M  V30 1247 H 147.612 -8.89416 -5.05237 0
M  V30 1248 H 145.982 -8.14876 -5.18409 0
M  V30 1249 H 148.621 -3.27957 -5.4317 0
M  V30 1250 P 150.479 -5.75688 -6.64379 0
M  V30 1251 O 151.901 -6.07627 -7.05504 0
M  V30 1252 O 150.119 -5.88047 -5.19722 0
M  V30 1253 O 150.156 -4.2322 -7.04443 0
M  V30 1254 C 149.996 -3.99743 -8.4911 0
M  V30 1255 C 150.536 -2.60516 -8.79425 0
M  V30 1256 O 149.48 -1.82684 -8.4467 0
M  V30 1257 C 151.754 -2.10343 -8.03628 0
M  V30 1258 O 152.492 -1.09919 -8.67766 0
M  V30 1259 C 151.085 -1.68446 -6.70876 0
M  V30 1260 O 151.884 -0.678137 -6.08433 0
M  V30 1261 C 149.748 -1.17436 -7.18567 0
M  V30 1262 H 149.78 -0.0804732 -7.31656 0
M  V30 1263 H 150.963 -2.54037 -6.02537 0
M  V30 1264 H 152.447 -2.93881 -7.85526 0
M  V30 1265 H 150.753 -2.53065 -9.86973 0
M  V30 1266 H 150.563 -4.75072 -9.05887 0
M  V30 1267 H 148.933 -4.05244 -8.76668 0
M  V30 1268 H 151.572 0.177647 -6.34251 0
M  V30 1269 P 153.43 -1.25109 -8.70152 0
M  V30 1270 O 154.852 -1.29744 -9.22016 0
M  V30 1271 O 153.07 -2.13714 -7.55141 0
M  V30 1272 O 153.107 0.248149 -8.21425 0
M  V30 1273 C 152.947 1.22779 -9.30434 0
M  V30 1274 C 153.487 2.56293 -8.80664 0
M  V30 1275 O 152.431 3.02979 -8.09349 0
M  V30 1276 C 154.705 2.57523 -7.89775 0
M  V30 1277 O 155.443 3.7668 -7.89438 0
M  V30 1278 C 154.036 2.20997 -6.55446 0
M  V30 1279 O 154.835 2.71895 -5.48509 0
M  V30 1280 C 152.699 2.89693 -6.67988 0
M  V30 1281 H 152.731 3.88793 -6.19859 0
M  V30 1282 H 153.914 1.12046 -6.44229 0
M  V30 1283 H 155.398 1.7746 -8.19711 0
M  V30 1284 H 153.704 3.20706 -9.67112 0
M  V30 1285 H 153.514 0.901032 -10.1892 0
M  V30 1286 H 151.884 1.33049 -9.56592 0
M  V30 1287 H 154.523 3.57847 -5.23962 0
M  V30 1288 P 156.38 3.65191 -7.99657 0
M  V30 1289 O 157.802 3.89332 -8.45794 0
M  V30 1290 O 156.02 2.28472 -7.50807 0
M  V30 1291 O 156.057 4.64972 -6.77611 0
M  V30 1292 C 155.897 6.06319 -7.16352 0
M  V30 1293 C 156.437 6.91731 -6.02299 0
M  V30 1294 O 155.381 6.92449 -5.17064 0
M  V30 1295 C 157.655 6.43627 -5.25174 0
M  V30 1296 O 158.393 7.43686 -4.60469 0
M  V30 1297 C 156.986 5.40275 -4.31916 0
M  V30 1298 O 157.785 5.25279 -3.14438 0
M  V30 1299 C 155.649 6.04847 -4.05327 0
M  V30 1300 H 155.681 6.62195 -3.11261 0
M  V30 1301 H 156.864 4.42556 -4.81383 0
M  V30 1302 H 158.348 5.92458 -5.93643 0
M  V30 1303 H 156.654 7.92655 -6.402 0
M  V30 1304 H 156.464 6.26671 -8.0846 0
M  V30 1305 H 154.834 6.29101 -7.32804 0
M  V30 1306 H 157.473 5.84315 -2.47318 0
M  V30 1307 P 159.331 7.39546 -4.75277 0
M  V30 1308 O 160.753 7.84798 -5.01039 0
M  V30 1309 O 158.971 5.9812 -5.08098 0
M  V30 1310 O 159.008 7.57503 -3.1866 0
M  V30 1311 C 158.848 8.97357 -2.74833 0
M  V30 1312 C 159.388 9.07548 -1.32709 0
M  V30 1313 O 158.332 8.62072 -0.606159 0
M  V30 1314 C 160.606 8.25383 -0.938334 0
M  V30 1315 O 161.344 8.74577 0.146954 0
M  V30 1316 C 159.937 6.8802 -0.712559 0
M  V30 1317 O 160.736 6.1189 0.194655 0
M  V30 1318 C 158.6 7.27966 -0.139777 0
M  V30 1319 H 158.632 7.25354 0.961601 0
M  V30 1320 H 159.815 6.32557 -1.65702 0
M  V30 1321 H 161.299 8.19355 -1.79097 0
M  V30 1322 H 159.605 10.1294 -1.10029 0
M  V30 1323 H 159.415 9.64276 -3.41316 0
M  V30 1324 H 157.785 9.25417 -2.76357 0
M  V30 1325 H 160.424 6.25267 1.07847 0
M  V30 1326 P 162.281 8.791 -1.35693e-13 0
M  V30 1327 O 163.703 9.31096 0.027933 0
M  V30 1328 O 161.921 7.77869 -1.04071 0
M  V30 1329 O 161.958 8.09533 1.41463 0
M  V30 1330 C 161.798 9.0349 2.53943 0
M  V30 1331 C 162.338 8.35226 3.79016 0
M  V30 1332 O 161.282 7.57992 4.15078 0
M  V30 1333 C 163.556 7.45087 3.67298 0
M  V30 1334 O 164.294 7.27796 4.85194 0
M  V30 1335 C 162.887 6.17323 3.12027 0
M  V30 1336 O 163.686 5.04231 3.47188 0
M  V30 1337 C 161.55 6.19961 3.81809 0
M  V30 1338 H 161.582 5.58218 4.73051 0
M  V30 1339 H 162.765 6.21726 2.02589 0
M  V30 1340 H 164.249 7.86112 2.9231 0
M  V30 1341 H 162.555 9.11627 4.55076 0
M  V30 1342 H 162.365 9.9573 2.34194 0
M  V30 1343 H 160.735 9.2792 2.67832 0
M  V30 1344 H 163.374 4.67702 4.28772 0
M  V30 1345 P 165.232 7.39546 4.75277 0
M  V30 1346 O 166.654 7.81777 5.05738 0
M  V30 1347 O 164.872 7.1065 3.32998 0
M  V30 1348 O 164.909 6.04542 5.56673 0
M  V30 1349 C 164.749 6.22772 7.02095 0
M  V30 1350 C 165.289 4.97725 7.70406 0
M  V30 1351 O 164.233 4.13256 7.58987 0
M  V30 1352 C 166.507 4.28231 7.11815 0
M  V30 1353 O 167.245 3.49945 8.01648 0
M  V30 1354 C 165.838 3.5063 5.96244 0
M  V30 1355 O 166.637 2.36482 5.64681 0
M  V30 1356 C 164.501 3.15122 6.56374 0
M  V30 1357 H 164.533 2.13853 6.99751 0
M  V30 1358 H 165.716 4.13501 5.06559 0
M  V30 1359 H 167.2 5.03285 6.70911 0
M  V30 1360 H 165.506 5.20877 8.75697 0
M  V30 1361 H 165.316 7.11046 7.35349 0
M  V30 1362 H 163.686 6.35815 7.26986 0
M  V30 1363 H 166.325 1.61644 6.13565 0
M  V30 1364 P 168.182 3.65191 7.99657 0
M  V30 1365 O 169.604 3.84333 8.48297 0
M  V30 1366 O 167.822 4.17805 6.64342 0
M  V30 1367 O 167.859 2.07613 7.95143 0
M  V30 1368 C 167.699 1.44328 9.27336 0
M  V30 1369 C 168.239 0.0220012 9.17097 0
M  V30 1370 O 167.184 -0.626867 8.61923 0
M  V30 1371 C 169.457 -0.24586 8.30336 0
M  V30 1372 O 170.195 -1.39011 8.63583 0
M  V30 1373 C 168.789 -0.273849 6.91158 0
M  V30 1374 O 169.587 -1.06331 6.02794 0
M  V30 1375 C 167.451 -0.897649 7.22545 0
M  V30 1376 N 166.408 -0.292839 6.41732 0
M  V30 1377 C 166.47 1.00068 6.10757 0
M  V30 1378 N 165.425 1.36468 5.35794 0
M  V30 1379 C 164.691 0.258894 5.2366 0
M  V30 1380 C 163.385 0.0670682 4.65752 0
M  V30 1381 O 162.652 0.902443 4.10497 0
M  V30 1382 N 162.955 -1.2131 4.75881 0
M  V30 1383 C 163.704 -2.24934 5.37101 0
M  V30 1384 N 163.107 -3.48783 5.33984 0
M  V30 1385 N 164.857 -2.0844 5.95684 0
M  V30 1386 C 165.314 -0.81395 5.87791 0
M  V30 1387 H 167.483 -1.9841 7.04286 0
M  V30 1388 H 168.666 0.739815 6.49601 0
M  V30 1389 H 170.151 0.598315 8.36563 0
M  V30 1390 H 168.456 -0.352479 10.1829 0
M  V30 1391 H 168.266 2.00611 10.0304 0
M  V30 1392 H 166.635 1.41843 9.55327 0
M  V30 1393 H 162.059 -1.44434 4.37895 0
M  V30 1394 H 167.266 1.67697 6.42268 0
M  V30 1395 H 162.196 -3.60543 4.87699 0
M  V30 1396 H 163.572 -4.29232 5.7819 0
M  V30 1397 H 169.276 -1.95704 6.0346 0
M  V30 1398 P 171.133 -1.25109 8.70152 0
M  V30 1399 O 172.554 -1.35288 9.2132 0
M  V30 1400 O 170.773 -0.0769065 7.84762 0
M  V30 1401 O 170.81 -2.55232 7.81161 0
M  V30 1402 C 170.649 -3.79979 8.58246 0
M  V30 1403 C 171.19 -4.94023 7.72785 0
M  V30 1404 O 170.135 -5.18666 6.91125 0
M  V30 1405 C 172.408 -4.69597 6.85231 0
M  V30 1406 O 173.146 -5.83832 6.51337 0
M  V30 1407 C 171.74 -3.96706 5.66633 0
M  V30 1408 O 172.538 -4.14896 4.5003 0
M  V30 1409 C 170.402 -4.66153 5.59313 0
M  V30 1410 N 169.359 -3.71582 5.24027 0
M  V30 1411 C 169.528 -2.39715 5.48833 0
M  V30 1412 N 168.501 -1.65863 5.12845 0
M  V30 1413 C 167.616 -2.57637 4.5973 0
M  V30 1414 C 166.349 -2.40278 4.01027 0
M  V30 1415 N 165.784 -3.57711 3.59575 0
M  V30 1416 C 166.386 -4.80324 3.70476 0
M  V30 1417 N 167.563 -5.01121 4.23801 0
M  V30 1418 C 168.138 -3.84757 4.66372 0
M  V30 1419 H 171.617 -2.8955 5.86187 0
M  V30 1420 H 173.1 -4.0121 7.36511 0
M  V30 1421 H 171.406 -5.81019 8.37003 0
M  V30 1422 H 171.216 -3.73517 9.52265 0
M  V30 1423 H 169.586 -3.97163 8.80359 0
M  V30 1424 H 170.428 -1.98804 5.94332 0
M  V30 1425 H 172.226 -4.90891 4.01857 0
M  V30 1426 P 174.084 -5.75688 6.64379 0
M  V30 1427 O 175.485 -6.11991 7.09136 0
M  V30 1428 O 173.706 -4.30899 6.62018 0
M  V30 1429 O 173.761 -6.36965 5.19102 0
M  V30 1430 C 173.601 -7.83578 5.16515 0
M  V30 1431 C 174.141 -8.33307 3.82977 0
M  V30 1432 O 173.085 -8.0998 3.00999 0
M  V30 1433 C 175.358 -7.65514 3.2257 0
M  V30 1434 O 176.097 -8.4329 2.32297 0
M  V30 1435 C 174.691 -6.40075 2.62207 0
M  V30 1436 O 175.489 -5.92492 1.53687 0
M  V30 1437 C 173.353 -6.9454 2.18503 0
M  V30 1438 N 172.31 -5.95905 2.39948 0
M  V30 1439 C 171.275 -5.89764 1.49837 0
M  V30 1440 O 171.314 -6.64088 0.490975 0
M  V30 1441 N 170.263 -5.02821 1.70992 0
M  V30 1442 C 170.311 -4.21498 2.77236 0
M  V30 1443 C 171.407 -4.23389 3.68205 0
M  V30 1444 C 172.373 -5.12792 3.46171 0
M  V30 1445 H 173.385 -7.22964 1.12076 0
M  V30 1446 H 174.568 -5.60502 3.36589 0
M  V30 1447 H 176.052 -7.36197 4.01993 0
M  V30 1448 H 174.358 -9.41302 3.90009 0
M  V30 1449 H 174.167 -8.29056 5.99158 0
M  V30 1450 H 172.537 -8.09989 5.25828 0
M  V30 1451 H 171.455 -3.54747 4.52399 0
M  V30 1452 H 173.219 -5.18551 4.1489 0
M  V30 1453 H 175.273 -6.40705 0.751752 0
M  V30 1454 P 177.034 -8.4349 2.47671 0
M  V30 1455 O 178.455 -8.94263 2.59668 0
M  V30 1456 O 176.674 -7.1704 3.19006 0
M  V30 1457 O 176.711 -8.16596 0.923387 0
M  V30 1458 C 176.55 -9.38537 0.108869 0
M  V30 1459 C 177.091 -9.08175 -1.28353 0
M  V30 1460 O 176.036 -8.44131 -1.84692 0
M  V30 1461 C 178.309 -8.18386 -1.42505 0
M  V30 1462 O 179.047 -8.3501 -2.60497 0
M  V30 1463 C 177.641 -6.80225 -1.25468 0
M  V30 1464 O 178.439 -5.81716 -1.90454 0
M  V30 1465 C 176.303 -7.02416 -1.9168 0
M  V30 1466 N 175.26 -6.31033 -1.20314 0
M  V30 1467 C 175.429 -5.98817 0.0994088 0
M  V30 1468 N 174.402 -5.35403 0.621694 0
M  V30 1469 C 173.517 -5.25212 -0.43376 0
M  V30 1470 C 172.25 -4.64602 -0.519722 0
M  V30 1471 N 171.685 -4.7568 -1.76013 0
M  V30 1472 C 172.287 -5.3653 -2.83017 0
M  V30 1473 N 173.464 -5.93676 -2.79782 0
M  V30 1474 C 174.039 -5.84061 -1.56249 0
M  V30 1475 H 177.518 -6.53498 -0.198729 0
M  V30 1476 H 179.001 -8.36622 -0.589963 0
M  V30 1477 H 177.307 -10.0273 -1.8081 0
M  V30 1478 H 177.117 -10.2138 0.558219 0
M  V30 1479 H 175.487 -9.6579 0.0444202 0
M  V30 1480 H 176.329 -6.23209 0.660562 0
M  V30 1481 H 178.127 -5.69466 -2.79593 0
M  V30 1482 P 179.985 -8.4349 -2.47671 0
M  V30 1483 O 181.407 -8.92593 -2.65 0
M  V30 1484 O 179.625 -7.7568 -1.19296 0
M  V30 1485 O 179.662 -7.36886 -3.63805 0
M  V30 1486 C 179.502 -7.95349 -4.982 0
M  V30 1487 C 180.042 -6.94612 -5.98974 0
M  V30 1488 O 178.986 -6.10347 -6.11815 0
M  V30 1489 C 181.26 -6.11426 -5.62335 0
M  V30 1490 O 181.998 -5.6162 -6.70584 0
M  V30 1491 C 180.591 -5.04409 -4.73308 0
M  V30 1492 O 181.39 -3.85992 -4.75183 0
M  V30 1493 C 179.254 -4.8728 -5.41006 0
M  V30 1494 H 179.286 -4.02333 -6.11157 0
M  V30 1495 H 180.469 -5.39466 -3.69543 0
M  V30 1496 H 181.953 -6.71916 -5.01943 0
M  V30 1497 H 180.259 -7.4649 -6.93477 0
M  V30 1498 H 180.069 -8.89416 -5.05237 0
M  V30 1499 H 178.439 -8.14876 -5.18409 0
M  V30 1500 H 181.078 -3.27957 -5.4317 0
M  V30 1501 P 182.935 -5.75688 -6.64379 0
M  V30 1502 O 184.357 -6.07627 -7.05504 0
M  V30 1503 O 182.575 -5.88047 -5.19722 0
M  V30 1504 O 182.612 -4.2322 -7.04443 0
M  V30 1505 C 182.452 -3.99743 -8.4911 0
M  V30 1506 C 182.992 -2.60516 -8.79425 0
M  V30 1507 O 181.936 -1.82684 -8.4467 0
M  V30 1508 C 184.21 -2.10343 -8.03628 0
M  V30 1509 O 184.948 -1.09919 -8.67766 0
M  V30 1510 C 183.541 -1.68446 -6.70876 0
M  V30 1511 O 184.34 -0.678137 -6.08433 0
M  V30 1512 C 182.204 -1.17436 -7.18567 0
M  V30 1513 H 182.236 -0.0804732 -7.31656 0
M  V30 1514 H 183.419 -2.54037 -6.02537 0
M  V30 1515 H 184.903 -2.93881 -7.85526 0
M  V30 1516 H 183.209 -2.53065 -9.86973 0
M  V30 1517 H 183.019 -4.75072 -9.05887 0
M  V30 1518 H 181.389 -4.05244 -8.76668 0
M  V30 1519 H 184.028 0.177647 -6.34251 0
M  V30 1520 P 185.886 -1.25109 -8.70152 0
M  V30 1521 O 187.308 -1.29744 -9.22016 0
M  V30 1522 O 185.526 -2.13714 -7.55141 0
M  V30 1523 O 185.563 0.248149 -8.21425 0
M  V30 1524 C 185.403 1.22779 -9.30434 0
M  V30 1525 C 185.943 2.56293 -8.80664 0
M  V30 1526 O 184.887 3.02979 -8.09349 0
M  V30 1527 C 187.161 2.57523 -7.89775 0
M  V30 1528 O 187.899 3.7668 -7.89438 0
M  V30 1529 C 186.492 2.20997 -6.55446 0
M  V30 1530 O 187.291 2.71895 -5.48509 0
M  V30 1531 C 185.155 2.89693 -6.67988 0
M  V30 1532 H 185.187 3.88793 -6.19859 0
M  V30 1533 H 186.37 1.12046 -6.44229 0
M  V30 1534 H 187.854 1.7746 -8.19711 0
M  V30 1535 H 186.16 3.20706 -9.67112 0
M  V30 1536 H 185.97 0.901032 -10.1892 0
M  V30 1537 H 184.34 1.33049 -9.56592 0
M  V30 1538 H 186.979 3.57847 -5.23962 0
M  V30 1539 P 188.836 3.65191 -7.99657 0
M  V30 1540 O 190.258 3.89332 -8.45794 0
M  V30 1541 O 188.476 2.28472 -7.50807 0
M  V30 1542 O 188.513 4.64972 -6.77611 0
M  V30 1543 C 188.353 6.06319 -7.16352 0
M  V30 1544 C 188.893 6.91731 -6.02299 0
M  V30 1545 O 187.837 6.92449 -5.17064 0
M  V30 1546 C 190.111 6.43627 -5.25174 0
M  V30 1547 O 190.849 7.43686 -4.60469 0
M  V30 1548 C 189.442 5.40275 -4.31916 0
M  V30 1549 O 190.241 5.25279 -3.14438 0
M  V30 1550 C 188.105 6.04847 -4.05327 0
M  V30 1551 H 188.137 6.62195 -3.11261 0
M  V30 1552 H 189.32 4.42556 -4.81383 0
M  V30 1553 H 190.804 5.92458 -5.93643 0
M  V30 1554 H 189.11 7.92655 -6.402 0
M  V30 1555 H 188.92 6.26671 -8.0846 0
M  V30 1556 H 187.29 6.29101 -7.32804 0
M  V30 1557 H 189.929 5.84315 -2.47318 0
M  V30 1558 P 191.787 7.39546 -4.75277 0
M  V30 1559 O 193.209 7.84798 -5.01039 0
M  V30 1560 O 191.427 5.9812 -5.08098 0
M  V30 1561 O 191.464 7.57503 -3.1866 0
M  V30 1562 C 191.304 8.97357 -2.74833 0
M  V30 1563 C 191.844 9.07548 -1.32709 0
M  V30 1564 O 190.788 8.62072 -0.606159 0
M  V30 1565 C 193.062 8.25383 -0.938334 0
M  V30 1566 O 193.8 8.74577 0.146954 0
M  V30 1567 C 192.393 6.8802 -0.712559 0
M  V30 1568 O 193.192 6.1189 0.194655 0
M  V30 1569 C 191.056 7.27966 -0.139777 0
M  V30 1570 H 191.088 7.25354 0.961601 0
M  V30 1571 H 192.271 6.32557 -1.65702 0
M  V30 1572 H 193.755 8.19355 -1.79097 0
M  V30 1573 H 192.061 10.1294 -1.10029 0
M  V30 1574 H 191.871 9.64276 -3.41316 0
M  V30 1575 H 190.241 9.25417 -2.76357 0
M  V30 1576 H 192.88 6.25267 1.07847 0
M  V30 1577 P 194.738 8.791 1.12009e-13 0
M  V30 1578 O 196.16 9.31096 0.027933 0
M  V30 1579 O 194.378 7.77869 -1.04071 0
M  V30 1580 O 194.415 8.09533 1.41463 0
M  V30 1581 C 194.255 9.0349 2.53943 0
M  V30 1582 C 194.795 8.35226 3.79016 0
M  V30 1583 O 193.739 7.57992 4.15078 0
M  V30 1584 C 196.013 7.45087 3.67298 0
M  V30 1585 O 196.751 7.27796 4.85194 0
M  V30 1586 C 195.344 6.17323 3.12027 0
M  V30 1587 O 196.143 5.04231 3.47188 0
M  V30 1588 C 194.007 6.19961 3.81809 0
M  V30 1589 H 194.039 5.58218 4.73051 0
M  V30 1590 H 195.222 6.21726 2.02589 0
M  V30 1591 H 196.706 7.86112 2.9231 0
M  V30 1592 H 195.012 9.11627 4.55076 0
M  V30 1593 H 194.822 9.9573 2.34194 0
M  V30 1594 H 193.192 9.2792 2.67832 0
M  V30 1595 H 195.831 4.67702 4.28772 0
M  V30 1596 P 197.688 7.39546 4.75277 0
M  V30 1597 O 199.11 7.81777 5.05738 0
M  V30 1598 O 197.328 7.1065 3.32998 0
M  V30 1599 O 197.365 6.04542 5.56673 0
M  V30 1600 C 197.205 6.22772 7.02095 0
M  V30 1601 C 197.745 4.97725 7.70406 0
M  V30 1602 O 196.689 4.13256 7.58987 0
M  V30 1603 C 198.963 4.28231 7.11815 0
M  V30 1604 O 199.701 3.49945 8.01648 0
M  V30 1605 C 198.294 3.5063 5.96244 0
M  V30 1606 O 199.093 2.36482 5.64681 0
M  V30 1607 C 196.957 3.15122 6.56374 0
M  V30 1608 H 196.989 2.13853 6.99751 0
M  V30 1609 H 198.172 4.13501 5.06559 0
M  V30 1610 H 199.656 5.03285 6.70911 0
M  V30 1611 H 197.962 5.20877 8.75697 0
M  V30 1612 H 197.772 7.11046 7.35349 0
M  V30 1613 H 196.142 6.35815 7.26986 0
M  V30 1614 H 198.781 1.61644 6.13565 0
M  V30 1615 P 200.639 3.65191 7.99657 0
M  V30 1616 O 202.061 3.8425 8.48115 0
M  V30 1617 O 200.279 4.17805 6.64342 0
M  V30 1618 O 200.316 2.07613 7.95143 0
M  V30 1619 C 200.156 1.44328 9.27336 0
M  V30 1620 C 200.696 0.0220036 9.17197 0
M  V30 1621 O 199.64 -0.626867 8.61923 0
M  V30 1622 C 201.914 -0.24586 8.30336 0
M  V30 1623 O 202.652 -1.39011 8.63583 0
M  V30 1624 C 201.245 -0.273849 6.91158 0
M  V30 1625 O 202.044 -1.06348 6.02892 0
M  V30 1626 C 199.908 -0.897649 7.22545 0
M  V30 1627 H 199.94 -1.9841 7.04286 0
M  V30 1628 H 201.123 0.739928 6.497 0
M  V30 1629 H 202.607 0.60668 8.36503 0
M  V30 1630 H 200.913 -0.352479 10.1829 0
M  V30 1631 H 200.723 2.00611 10.0304 0
M  V30 1632 H 199.093 1.41843 9.55327 0
M  V30 1633 H 201.732 -1.95734 6.03555 0
M  V30 1634 P 203.589 -1.25109 8.70152 0
M  V30 1635 O 205.011 -1.35274 9.21221 0
M  V30 1636 O 203.229 -0.0769065 7.84762 0
M  V30 1637 O 203.266 -2.55232 7.81161 0
M  V30 1638 C 203.106 -3.79939 8.58154 0
M  V30 1639 C 203.646 -4.94023 7.72785 0
M  V30 1640 O 202.59 -5.18726 6.91205 0
M  V30 1641 C 204.864 -4.69597 6.85231 0
M  V30 1642 O 205.602 -5.83832 6.51337 0
M  V30 1643 C 204.195 -3.96706 5.66633 0
M  V30 1644 O 204.994 -4.15414 4.49689 0
M  V30 1645 C 202.858 -4.66153 5.59313 0
M  V30 1646 H 202.89 -5.47679 4.85214 0
M  V30 1647 H 204.073 -2.89008 5.86566 0
M  V30 1648 H 205.557 -4.0121 7.36511 0
M  V30 1649 H 203.863 -5.80182 8.37584 0
M  V30 1650 H 203.673 -3.73517 9.52265 0
M  V30 1651 H 202.043 -3.97163 8.80359 0
M  V30 1652 H 204.682 -4.90969 4.01921 0
M  V30 1653 P 206.54 -5.75688 6.64379 0
M  V30 1654 O 207.962 -6.11849 7.01846 0
M  V30 1655 O 206.18 -4.30744 6.56026 0
M  V30 1656 O 206.217 -6.37042 5.19165 0
M  V30 1657 C 206.057 -7.83578 5.16515 0
M  V30 1658 C 206.597 -8.33398 3.83019 0
M  V30 1659 O 205.541 -8.10074 3.01034 0
M  V30 1660 C 207.815 -7.65514 3.2257 0
M  V30 1661 O 208.553 -8.4329 2.32297 0
M  V30 1662 C 207.146 -6.40075 2.62207 0
M  V30 1663 O 207.945 -5.92589 1.53712 0
M  V30 1664 C 205.809 -6.9454 2.18503 0
M  V30 1665 H 205.841 -7.23063 1.12091 0
M  V30 1666 H 207.024 -5.6025 3.37201 0
M  V30 1667 H 208.508 -7.35707 4.02681 0
M  V30 1668 H 206.814 -9.40912 3.9095 0
M  V30 1669 H 206.624 -8.29056 5.99158 0
M  V30 1670 H 204.994 -8.10073 5.25882 0
M  V30 1671 H 207.633 -6.30324 0.726794 0
M  V30 1672 P 209.49 -8.4349 2.47671 0
M  V30 1673 O 210.912 -8.94167 2.5964 0
M  V30 1674 O 209.13 -7.1704 3.19006 0
M  V30 1675 O 209.167 -8.16596 0.923387 0
M  V30 1676 C 209.007 -9.38437 0.108857 0
M  V30 1677 C 209.547 -9.08175 -1.28353 0
M  V30 1678 O 208.491 -8.44229 -1.84713 0
M  V30 1679 C 210.765 -8.18386 -1.42505 0
M  V30 1680 O 211.503 -8.3501 -2.60497 0
M  V30 1681 C 210.096 -6.80225 -1.25468 0
M  V30 1682 O 210.895 -5.81621 -1.91066 0
M  V30 1683 C 208.759 -7.02416 -1.9168 0
M  V30 1684 H 208.791 -6.6888 -2.96621 0
M  V30 1685 H 209.974 -6.53617 -0.192223 0
M  V30 1686 H 211.458 -8.36622 -0.589963 0
M  V30 1687 H 209.764 -10.0291 -1.79807 0
M  V30 1688 H 209.574 -10.2138 0.558219 0
M  V30 1689 H 207.944 -9.6579 0.0444202 0
M  V30 1690 H 210.583 -5.69556 -2.79637 0
M  V30 1691 P 212.441 -8.4349 -2.47671 0
M  V30 1692 O 213.863 -8.92593 -2.65 0
M  V30 1693 O 212.081 -7.7568 -1.19296 0
M  V30 1694 O 212.118 -7.36886 -3.63805 0
M  V30 1695 C 211.958 -7.95349 -4.982 0
M  V30 1696 C 212.498 -6.94612 -5.98974 0
M  V30 1697 O 211.442 -6.10347 -6.11815 0
M  V30 1698 C 213.716 -6.11426 -5.62335 0
M  V30 1699 O 214.454 -5.6162 -6.70584 0
M  V30 1700 C 213.047 -5.04409 -4.73308 0
M  V30 1701 O 213.846 -3.85992 -4.75183 0
M  V30 1702 C 211.71 -4.8728 -5.41006 0
M  V30 1703 H 211.742 -4.02333 -6.11157 0
M  V30 1704 H 212.925 -5.39466 -3.69543 0
M  V30 1705 H 214.409 -6.71916 -5.01943 0
M  V30 1706 H 212.715 -7.4649 -6.93477 0
M  V30 1707 H 212.525 -8.89416 -5.05237 0
M  V30 1708 H 210.895 -8.14876 -5.18409 0
M  V30 1709 H 213.534 -3.27957 -5.4317 0
M  V30 1710 P 215.392 -5.75688 -6.64379 0
M  V30 1711 O 216.814 -6.07627 -7.05504 0
M  V30 1712 O 215.032 -5.88047 -5.19722 0
M  V30 1713 O 215.069 -4.2322 -7.04443 0
M  V30 1714 C 214.909 -3.99743 -8.4911 0
M  V30 1715 C 215.449 -2.60516 -8.79425 0
M  V30 1716 O 214.393 -1.82684 -8.4467 0
M  V30 1717 C 216.667 -2.10343 -8.03628 0
M  V30 1718 O 217.405 -1.09919 -8.67766 0
M  V30 1719 C 215.998 -1.68446 -6.70876 0
M  V30 1720 O 216.797 -0.678137 -6.08433 0
M  V30 1721 C 214.661 -1.17436 -7.18567 0
M  V30 1722 H 214.693 -0.0804732 -7.31656 0
M  V30 1723 H 215.876 -2.54037 -6.02537 0
M  V30 1724 H 217.36 -2.93881 -7.85526 0
M  V30 1725 H 215.666 -2.53065 -9.86973 0
M  V30 1726 H 215.476 -4.75072 -9.05887 0
M  V30 1727 H 213.846 -4.05244 -8.76668 0
M  V30 1728 H 216.485 0.177647 -6.34251 0
M  V30 1729 P 218.342 -1.25109 -8.70152 0
M  V30 1730 O 219.764 -1.29744 -9.22016 0
M  V30 1731 O 217.982 -2.13714 -7.55141 0
M  V30 1732 O 218.019 0.248149 -8.21425 0
M  V30 1733 C 217.859 1.22779 -9.30434 0
M  V30 1734 C 218.399 2.56293 -8.80664 0
M  V30 1735 O 217.343 3.02979 -8.09349 0
M  V30 1736 C 219.617 2.57523 -7.89775 0
M  V30 1737 O 220.355 3.7668 -7.89438 0
M  V30 1738 C 218.948 2.20997 -6.55446 0
M  V30 1739 O 219.747 2.71895 -5.48509 0
M  V30 1740 C 217.611 2.89693 -6.67988 0
M  V30 1741 H 217.643 3.88793 -6.19859 0
M  V30 1742 H 218.826 1.12046 -6.44229 0
M  V30 1743 H 220.31 1.7746 -8.19711 0
M  V30 1744 H 218.616 3.20706 -9.67112 0
M  V30 1745 H 218.426 0.901032 -10.1892 0
M  V30 1746 H 216.796 1.33049 -9.56592 0
M  V30 1747 H 219.435 3.57847 -5.23962 0
M  V30 1748 P 221.293 3.65191 -7.99657 0
M  V30 1749 O 222.715 3.89332 -8.45794 0
M  V30 1750 O 220.933 2.28472 -7.50807 0
M  V30 1751 O 220.97 4.64972 -6.77611 0
M  V30 1752 C 220.81 6.06319 -7.16352 0
M  V30 1753 C 221.35 6.91731 -6.02299 0
M  V30 1754 O 220.294 6.92449 -5.17064 0
M  V30 1755 C 222.568 6.43627 -5.25174 0
M  V30 1756 O 223.306 7.43686 -4.60469 0
M  V30 1757 C 221.899 5.40275 -4.31916 0
M  V30 1758 O 222.698 5.25279 -3.14438 0
M  V30 1759 C 220.562 6.04847 -4.05327 0
M  V30 1760 H 220.594 6.62195 -3.11261 0
M  V30 1761 H 221.777 4.42556 -4.81383 0
M  V30 1762 H 223.261 5.92458 -5.93643 0
M  V30 1763 H 221.567 7.92655 -6.402 0
M  V30 1764 H 221.377 6.26671 -8.0846 0
M  V30 1765 H 219.747 6.29101 -7.32804 0
M  V30 1766 H 222.386 5.84315 -2.47318 0
M  V30 1767 P 224.243 7.39546 -4.75277 0
M  V30 1768 O 225.665 7.84966 -5.01146 0
M  V30 1769 O 223.883 5.9812 -5.08098 0
M  V30 1770 O 223.92 7.57503 -3.1866 0
M  V30 1771 C 223.76 8.97357 -2.74833 0
M  V30 1772 C 224.3 9.0745 -1.32694 0
M  V30 1773 O 223.245 8.62072 -0.606159 0
M  V30 1774 C 225.518 8.25383 -0.938334 0
M  V30 1775 O 226.256 8.74577 0.146954 0
M  V30 1776 C 224.85 6.8802 -0.712559 0
M  V30 1777 O 225.648 6.11791 0.194623 0
M  V30 1778 C 223.512 7.27966 -0.139777 0
M  V30 1779 N 222.469 6.39368 -0.623421 0
M  V30 1780 C 222.531 5.90299 -1.85969 0
M  V30 1781 N 221.486 5.10919 -2.1133 0
M  V30 1782 C 220.752 5.14646 -1.0015 0
M  V30 1783 C 219.446 4.60057 -0.729219 0
M  V30 1784 O 218.713 3.93476 -1.47746 0
M  V30 1785 N 219.016 4.88302 0.523505 0
M  V30 1786 C 219.765 5.63646 1.46207 0
M  V30 1787 N 219.168 5.78186 2.69239 0
M  V30 1788 N 220.918 6.19285 1.21544 0
M  V30 1789 C 221.375 5.93392 -0.0308487 0
M  V30 1790 H 223.544 7.25354 0.961601 0
M  V30 1791 H 224.727 6.3246 -1.65676 0
M  V30 1792 H 226.212 8.19533 -1.78278 0
M  V30 1793 H 224.517 10.1294 -1.10029 0
M  V30 1794 H 224.327 9.64276 -3.41316 0
M  V30 1795 H 222.696 9.25417 -2.76357 0
M  V30 1796 H 218.12 4.53993 0.806451 0
M  V30 1797 H 223.327 6.11865 -2.57394 0
M  V30 1798 H 218.257 5.34046 2.87467 0
M  V30 1799 H 219.633 6.33391 3.42578 0
M  V30 1800 H 225.337 6.25169 1.0783 0
M  V30 1801 P 227.194 8.791 4.22174e-13 0
M  V30 1802 O 228.615 9.31196 0.027936 0
M  V30 1803 O 226.834 7.77869 -1.04071 0
M  V30 1804 O 226.871 8.09533 1.41463 0
M  V30 1805 C 226.71 9.03587 2.5397 0
M  V30 1806 C 227.251 8.35226 3.79016 0
M  V30 1807 O 226.196 7.57904 4.1503 0
M  V30 1808 C 228.469 7.45087 3.67298 0
M  V30 1809 O 229.207 7.27796 4.85194 0
M  V30 1810 C 227.801 6.17323 3.12027 0
M  V30 1811 O 228.599 5.04496 3.46627 0
M  V30 1812 C 226.463 6.19961 3.81809 0
M  V30 1813 N 225.42 5.71575 2.93223 0
M  V30 1814 C 225.589 5.77362 1.59168 0
M  V30 1815 N 224.562 5.3123 0.911893 0
M  V30 1816 C 223.677 4.91717 1.89588 0
M  V30 1817 C 222.41 4.3114 1.8076 0
M  V30 1818 N 221.845 4.06823 3.02898 0
M  V30 1819 C 222.447 4.35062 4.22711 0
M  V30 1820 N 223.624 4.90805 4.35707 0
M  V30 1821 C 224.199 5.16382 3.14469 0
M  V30 1822 H 227.678 6.21428 2.0318 0
M  V30 1823 H 229.161 7.86112 2.9231 0
M  V30 1824 H 227.467 9.11171 4.55987 0
M  V30 1825 H 227.277 9.9573 2.34194 0
M  V30 1826 H 225.647 9.2792 2.67832 0
M  V30 1827 H 226.489 6.16575 1.12198 0
M  V30 1828 H 228.287 4.67628 4.28704 0
M  V30 1829 P 230.144 7.39546 4.75277 0
M  V30 1830 O 231.566 7.81777 5.05738 0
M  V30 1831 O 229.784 7.1065 3.32998 0
M  V30 1832 O 229.821 6.04542 5.56673 0
M  V30 1833 C 229.661 6.22772 7.02095 0
M  V30 1834 C 230.201 4.97725 7.70406 0
M  V30 1835 O 229.145 4.13256 7.58987 0
M  V30 1836 C 231.419 4.28231 7.11815 0
M  V30 1837 O 232.157 3.49945 8.01648 0
M  V30 1838 C 230.75 3.5063 5.96244 0
M  V30 1839 O 231.549 2.36482 5.64681 0
M  V30 1840 C 229.413 3.15122 6.56374 0
M  V30 1841 H 229.445 2.13853 6.99751 0
M  V30 1842 H 230.628 4.13501 5.06559 0
M  V30 1843 H 232.112 5.03285 6.70911 0
M  V30 1844 H 230.418 5.20877 8.75697 0
M  V30 1845 H 230.228 7.11046 7.35349 0
M  V30 1846 H 228.598 6.35815 7.26986 0
M  V30 1847 H 231.237 1.61644 6.13565 0
M  V30 1848 P 233.095 3.65191 7.99657 0
M  V30 1849 O 234.517 3.8425 8.48115 0
M  V30 1850 O 232.735 4.17805 6.64342 0
M  V30 1851 O 232.772 2.07613 7.95143 0
M  V30 1852 C 232.612 1.44328 9.27336 0
M  V30 1853 C 233.152 0.0220036 9.17197 0
M  V30 1854 O 232.096 -0.626867 8.61923 0
M  V30 1855 C 234.37 -0.24586 8.30336 0
M  V30 1856 O 235.108 -1.39011 8.63583 0
M  V30 1857 C 233.701 -0.273849 6.91158 0
M  V30 1858 O 234.5 -1.06348 6.02892 0
M  V30 1859 C 232.364 -0.897649 7.22545 0
M  V30 1860 H 232.396 -1.9841 7.04286 0
M  V30 1861 H 233.579 0.739928 6.497 0
M  V30 1862 H 235.063 0.60668 8.36503 0
M  V30 1863 H 233.369 -0.352479 10.1829 0
M  V30 1864 H 233.179 2.00611 10.0304 0
M  V30 1865 H 231.549 1.41843 9.55327 0
M  V30 1866 H 234.188 -1.95734 6.03555 0
M  V30 1867 P 236.046 -1.25109 8.70152 0
M  V30 1868 O 237.468 -1.35274 9.21221 0
M  V30 1869 O 235.686 -0.0769065 7.84762 0
M  V30 1870 O 235.723 -2.55232 7.81161 0
M  V30 1871 C 235.563 -3.79939 8.58154 0
M  V30 1872 C 236.103 -4.94023 7.72785 0
M  V30 1873 O 235.047 -5.18726 6.91205 0
M  V30 1874 C 237.321 -4.69597 6.85231 0
M  V30 1875 O 238.059 -5.83832 6.51337 0
M  V30 1876 C 236.652 -3.96706 5.66633 0
M  V30 1877 O 237.451 -4.15414 4.49689 0
M  V30 1878 C 235.315 -4.66153 5.59313 0
M  V30 1879 H 235.347 -5.47679 4.85214 0
M  V30 1880 H 236.53 -2.89008 5.86566 0
M  V30 1881 H 238.014 -4.0121 7.36511 0
M  V30 1882 H 236.32 -5.80182 8.37584 0
M  V30 1883 H 236.13 -3.73517 9.52265 0
M  V30 1884 H 234.5 -3.97163 8.80359 0
M  V30 1885 H 237.139 -4.90969 4.01921 0
M  V30 1886 P 238.996 -5.75688 6.64379 0
M  V30 1887 O 240.418 -6.11849 7.01846 0
M  V30 1888 O 238.636 -4.30744 6.56026 0
M  V30 1889 O 238.673 -6.37042 5.19165 0
M  V30 1890 C 238.513 -7.83578 5.16515 0
M  V30 1891 C 239.053 -8.33398 3.83019 0
M  V30 1892 O 237.997 -8.10074 3.01034 0
M  V30 1893 C 240.271 -7.65514 3.2257 0
M  V30 1894 O 241.009 -8.4329 2.32297 0
M  V30 1895 C 239.602 -6.40075 2.62207 0
M  V30 1896 O 240.401 -5.92589 1.53712 0
M  V30 1897 C 238.265 -6.9454 2.18503 0
M  V30 1898 H 238.297 -7.23063 1.12091 0
M  V30 1899 H 239.48 -5.6025 3.37201 0
M  V30 1900 H 240.964 -7.35707 4.02681 0
M  V30 1901 H 239.27 -9.40912 3.9095 0
M  V30 1902 H 239.08 -8.29056 5.99158 0
M  V30 1903 H 237.45 -8.10073 5.25882 0
M  V30 1904 H 240.089 -6.30324 0.726794 0
M  V30 1905 P 241.947 -8.4349 2.47671 0
M  V30 1906 O 243.369 -8.94167 2.5964 0
M  V30 1907 O 241.587 -7.1704 3.19006 0
M  V30 1908 O 241.624 -8.16596 0.923387 0
M  V30 1909 C 241.464 -9.38437 0.108857 0
M  V30 1910 C 242.004 -9.08175 -1.28353 0
M  V30 1911 O 240.948 -8.44229 -1.84713 0
M  V30 1912 C 243.222 -8.18386 -1.42505 0
M  V30 1913 O 243.96 -8.3501 -2.60497 0
M  V30 1914 C 242.553 -6.80225 -1.25468 0
M  V30 1915 O 243.352 -5.81621 -1.91066 0
M  V30 1916 C 241.216 -7.02416 -1.9168 0
M  V30 1917 H 241.248 -6.6888 -2.96621 0
M  V30 1918 H 242.431 -6.53617 -0.192223 0
M  V30 1919 H 243.915 -8.36622 -0.589963 0
M  V30 1920 H 242.221 -10.0291 -1.79807 0
M  V30 1921 H 242.031 -10.2138 0.558219 0
M  V30 1922 H 240.401 -9.6579 0.0444202 0
M  V30 1923 H 243.04 -5.69556 -2.79637 0
M  V30 1924 P 244.897 -8.4349 -2.47671 0
M  V30 1925 O 246.319 -8.92593 -2.65 0
M  V30 1926 O 244.537 -7.7568 -1.19296 0
M  V30 1927 O 244.574 -7.36886 -3.63805 0
M  V30 1928 C 244.414 -7.95349 -4.982 0
M  V30 1929 C 244.954 -6.94612 -5.98974 0
M  V30 1930 O 243.898 -6.10347 -6.11815 0
M  V30 1931 C 246.172 -6.11426 -5.62335 0
M  V30 1932 O 246.91 -5.6162 -6.70584 0
M  V30 1933 C 245.503 -5.04409 -4.73308 0
M  V30 1934 O 246.302 -3.85992 -4.75183 0
M  V30 1935 C 244.166 -4.8728 -5.41006 0
M  V30 1936 H 244.198 -4.02333 -6.11157 0
M  V30 1937 H 245.381 -5.39466 -3.69543 0
M  V30 1938 H 246.865 -6.71916 -5.01943 0
M  V30 1939 H 245.171 -7.4649 -6.93477 0
M  V30 1940 H 244.981 -8.89416 -5.05237 0
M  V30 1941 H 243.351 -8.14876 -5.18409 0
M  V30 1942 H 245.99 -3.27957 -5.4317 0
M  V30 1943 P 247.848 -5.75688 -6.64379 0
M  V30 1944 O 249.27 -6.07627 -7.05504 0
M  V30 1945 O 247.488 -5.88047 -5.19722 0
M  V30 1946 O 247.525 -4.2322 -7.04443 0
M  V30 1947 C 247.365 -3.99743 -8.4911 0
M  V30 1948 C 247.905 -2.60516 -8.79425 0
M  V30 1949 O 246.849 -1.82684 -8.4467 0
M  V30 1950 C 249.123 -2.10343 -8.03628 0
M  V30 1951 O 249.861 -1.09919 -8.67766 0
M  V30 1952 C 248.454 -1.68446 -6.70876 0
M  V30 1953 O 249.253 -0.678137 -6.08433 0
M  V30 1954 C 247.117 -1.17436 -7.18567 0
M  V30 1955 H 247.149 -0.0804732 -7.31656 0
M  V30 1956 H 248.332 -2.54037 -6.02537 0
M  V30 1957 H 249.816 -2.93881 -7.85526 0
M  V30 1958 H 248.122 -2.53065 -9.86973 0
M  V30 1959 H 247.932 -4.75072 -9.05887 0
M  V30 1960 H 246.302 -4.05244 -8.76668 0
M  V30 1961 H 248.941 0.177647 -6.34251 0
M  V30 1962 P 250.798 -1.25109 -8.70152 0
M  V30 1963 O 252.22 -1.29744 -9.22016 0
M  V30 1964 O 250.438 -2.13714 -7.55141 0
M  V30 1965 O 250.475 0.248149 -8.21425 0
M  V30 1966 C 250.315 1.22779 -9.30434 0
M  V30 1967 C 250.855 2.56293 -8.80664 0
M  V30 1968 O 249.799 3.02979 -8.09349 0
M  V30 1969 C 252.073 2.57523 -7.89775 0
M  V30 1970 O 252.811 3.7668 -7.89438 0
M  V30 1971 C 251.404 2.20997 -6.55446 0
M  V30 1972 O 252.203 2.71895 -5.48509 0
M  V30 1973 C 250.067 2.89693 -6.67988 0
M  V30 1974 H 250.099 3.88793 -6.19859 0
M  V30 1975 H 251.282 1.12046 -6.44229 0
M  V30 1976 H 252.766 1.7746 -8.19711 0
M  V30 1977 H 251.072 3.20706 -9.67112 0
M  V30 1978 H 250.882 0.901032 -10.1892 0
M  V30 1979 H 249.252 1.33049 -9.56592 0
M  V30 1980 H 251.891 3.57847 -5.23962 0
M  V30 1981 P 253.749 3.65191 -7.99657 0
M  V30 1982 O 255.171 3.89332 -8.45794 0
M  V30 1983 O 253.389 2.28472 -7.50807 0
M  V30 1984 O 253.426 4.64972 -6.77611 0
M  V30 1985 C 253.266 6.06319 -7.16352 0
M  V30 1986 C 253.806 6.91731 -6.02299 0
M  V30 1987 O 252.75 6.92449 -5.17064 0
M  V30 1988 C 255.024 6.43627 -5.25174 0
M  V30 1989 O 255.762 7.43686 -4.60469 0
M  V30 1990 C 254.355 5.40275 -4.31916 0
M  V30 1991 O 255.154 5.25279 -3.14438 0
M  V30 1992 C 253.018 6.04847 -4.05327 0
M  V30 1993 H 253.05 6.62195 -3.11261 0
M  V30 1994 H 254.233 4.42556 -4.81383 0
M  V30 1995 H 255.717 5.92458 -5.93643 0
M  V30 1996 H 254.023 7.92655 -6.402 0
M  V30 1997 H 253.833 6.26671 -8.0846 0
M  V30 1998 H 252.203 6.29101 -7.32804 0
M  V30 1999 H 254.842 5.84315 -2.47318 0
M  V30 2000 P 256.7 7.39546 -4.75277 0
M  V30 2001 O 258.122 7.84798 -5.01039 0
M  V30 2002 O 256.34 5.9812 -5.08098 0
M  V30 2003 O 256.377 7.57503 -3.1866 0
M  V30 2004 C 256.217 8.97357 -2.74833 0
M  V30 2005 C 256.757 9.07548 -1.32709 0
M  V30 2006 O 255.701 8.62072 -0.606159 0
M  V30 2007 C 257.975 8.25383 -0.938334 0
M  V30 2008 O 258.713 8.74577 0.146954 0
M  V30 2009 C 257.306 6.8802 -0.712559 0
M  V30 2010 O 258.105 6.1189 0.194655 0
M  V30 2011 C 255.969 7.27966 -0.139777 0
M  V30 2012 H 256.001 7.25354 0.961601 0
M  V30 2013 H 257.184 6.32557 -1.65702 0
M  V30 2014 H 258.668 8.19355 -1.79097 0
M  V30 2015 H 256.974 10.1294 -1.10029 0
M  V30 2016 H 256.784 9.64276 -3.41316 0
M  V30 2017 H 255.154 9.25417 -2.76357 0
M  V30 2018 H 257.793 6.25267 1.07847 0
M  V30 2019 P 259.65 8.791 7.3234e-13 0
M  V30 2020 O 261.072 9.31096 0.027933 0
M  V30 2021 O 259.29 7.77869 -1.04071 0
M  V30 2022 O 259.327 8.09533 1.41463 0
M  V30 2023 C 259.167 9.0349 2.53943 0
M  V30 2024 C 259.707 8.35226 3.79016 0
M  V30 2025 O 258.651 7.57992 4.15078 0
M  V30 2026 C 260.925 7.45087 3.67298 0
M  V30 2027 O 261.663 7.27796 4.85194 0
M  V30 2028 C 260.256 6.17323 3.12027 0
M  V30 2029 O 261.055 5.04231 3.47188 0
M  V30 2030 C 258.919 6.19961 3.81809 0
M  V30 2031 H 258.951 5.58218 4.73051 0
M  V30 2032 H 260.134 6.21726 2.02589 0
M  V30 2033 H 261.618 7.86112 2.9231 0
M  V30 2034 H 259.924 9.11627 4.55076 0
M  V30 2035 H 259.734 9.9573 2.34194 0
M  V30 2036 H 258.104 9.2792 2.67832 0
M  V30 2037 H 260.743 4.67702 4.28772 0
M  V30 2038 P 262.601 7.39546 4.75277 0
M  V30 2039 O 264.023 7.81777 5.05738 0
M  V30 2040 O 262.241 7.1065 3.32998 0
M  V30 2041 O 262.278 6.04542 5.56673 0
M  V30 2042 C 262.118 6.22772 7.02095 0
M  V30 2043 C 262.658 4.97725 7.70406 0
M  V30 2044 O 261.602 4.13256 7.58987 0
M  V30 2045 C 263.876 4.28231 7.11815 0
M  V30 2046 O 264.614 3.49945 8.01648 0
M  V30 2047 C 263.207 3.5063 5.96244 0
M  V30 2048 O 264.006 2.36482 5.64681 0
M  V30 2049 C 261.87 3.15122 6.56374 0
M  V30 2050 H 261.902 2.13853 6.99751 0
M  V30 2051 H 263.085 4.13501 5.06559 0
M  V30 2052 H 264.569 5.03285 6.70911 0
M  V30 2053 H 262.875 5.20877 8.75697 0
M  V30 2054 H 262.685 7.11046 7.35349 0
M  V30 2055 H 261.055 6.35815 7.26986 0
M  V30 2056 H 263.694 1.61644 6.13565 0
M  V30 2057 P 265.551 3.65191 7.99657 0
M  V30 2058 O 266.952 3.90823 8.51272 0
M  V30 2059 O 265.173 4.23191 6.66972 0
M  V30 2060 O 265.228 2.07587 7.95046 0
M  V30 2061 C 265.068 1.44328 9.27336 0
M  V30 2062 C 265.608 0.0220012 9.17097 0
M  V30 2063 O 264.552 -0.626794 8.61824 0
M  V30 2064 C 266.825 -0.24586 8.30336 0
M  V30 2065 O 267.564 -1.39011 8.63583 0
M  V30 2066 C 266.158 -0.273849 6.91158 0
M  V30 2067 O 266.956 -1.06331 6.02794 0
M  V30 2068 C 264.82 -0.897649 7.22545 0
M  V30 2069 N 263.777 -0.292839 6.41732 0
M  V30 2070 C 262.742 -1.08701 5.98712 0
M  V30 2071 O 262.781 -2.31211 6.24471 0
M  V30 2072 N 261.73 -0.533391 5.28415 0
M  V30 2073 C 261.778 0.770866 4.98576 0
M  V30 2074 N 260.768 1.29482 4.30134 0
M  V30 2075 C 262.874 1.59049 5.38086 0
M  V30 2076 C 263.84 1.01866 6.10256 0
M  V30 2077 H 264.852 -1.98383 7.04189 0
M  V30 2078 H 266.035 0.733318 6.49674 0
M  V30 2079 H 267.519 0.598386 8.36663 0
M  V30 2080 H 265.825 -0.362662 10.1825 0
M  V30 2081 H 265.634 2.00611 10.0304 0
M  V30 2082 H 264.004 1.41828 9.55228 0
M  V30 2083 H 262.922 2.6415 5.10622 0
M  V30 2084 H 264.686 1.61983 6.44042 0
M  V30 2085 H 259.978 0.69888 4.01361 0
M  V30 2086 H 260.773 2.29327 4.05781 0
M  V30 2087 H 266.74 -1.97777 6.14035 0
M  V30 2088 P 268.502 -1.25109 8.70152 0
M  V30 2089 O 269.924 -1.35303 9.21419 0
M  V30 2090 O 268.142 -0.0769065 7.84762 0
M  V30 2091 O 268.179 -2.55232 7.81161 0
M  V30 2092 C 268.019 -3.79939 8.58154 0
M  V30 2093 C 268.559 -4.93969 7.72701 0
M  V30 2094 O 267.504 -5.18726 6.91205 0
M  V30 2095 C 269.777 -4.69597 6.85231 0
M  V30 2096 O 270.515 -5.83832 6.51337 0
M  V30 2097 C 269.109 -3.96706 5.66633 0
M  V30 2098 O 269.907 -4.15346 4.49615 0
M  V30 2099 C 267.771 -4.66153 5.59313 0
M  V30 2100 N 266.728 -3.71582 5.24027 0
M  V30 2101 C 266.79 -2.46018 5.67902 0
M  V30 2102 N 265.745 -1.74868 5.24518 0
M  V30 2103 C 265.011 -2.61333 4.54528 0
M  V30 2104 C 263.705 -2.46162 3.95441 0
M  V30 2105 O 262.972 -1.46013 3.94122 0
M  V30 2106 N 263.275 -3.59334 3.34752 0
M  V30 2107 C 264.024 -4.79605 3.3023 0
M  V30 2108 N 263.427 -5.82109 2.6065 0
M  V30 2109 N 265.177 -4.97402 3.8843 0
M  V30 2110 C 265.634 -3.86258 4.50476 0
M  V30 2111 H 267.803 -5.47679 4.85214 0
M  V30 2112 H 268.986 -2.88964 5.86476 0
M  V30 2113 H 270.471 -4.01947 7.36109 0
M  V30 2114 H 268.776 -5.80182 8.37584 0
M  V30 2115 H 268.586 -3.73517 9.52265 0
M  V30 2116 H 266.955 -3.97163 8.80359 0
M  V30 2117 H 262.379 -3.5825 2.90294 0
M  V30 2118 H 267.586 -2.06161 6.30974 0
M  V30 2119 H 262.516 -5.66979 2.15354 0
M  V30 2120 H 263.892 -6.73686 2.54344 0
M  V30 2121 H 269.596 -4.90891 4.01857 0
M  V30 2122 P 271.452 -5.75688 6.64379 0
M  V30 2123 O 272.874 -6.11849 7.01846 0
M  V30 2124 O 271.092 -4.30744 6.56026 0
M  V30 2125 O 271.129 -6.37042 5.19165 0
M  V30 2126 C 270.969 -7.83578 5.16515 0
M  V30 2127 C 271.509 -8.33398 3.83019 0
M  V30 2128 O 270.453 -8.10074 3.01034 0
M  V30 2129 C 272.727 -7.65514 3.2257 0
M  V30 2130 O 273.465 -8.4329 2.32297 0
M  V30 2131 C 272.058 -6.40075 2.62207 0
M  V30 2132 O 272.857 -5.92589 1.53712 0
M  V30 2133 C 270.721 -6.9454 2.18503 0
M  V30 2134 H 270.753 -7.23063 1.12091 0
M  V30 2135 H 271.936 -5.6025 3.37201 0
M  V30 2136 H 273.42 -7.35707 4.02681 0
M  V30 2137 H 271.726 -9.40912 3.9095 0
M  V30 2138 H 271.536 -8.29056 5.99158 0
M  V30 2139 H 269.906 -8.10073 5.25882 0
M  V30 2140 H 272.545 -6.30324 0.726794 0
M  V30 2141 P 274.403 -8.4349 2.47671 0
M  V30 2142 O 275.825 -8.94167 2.5964 0
M  V30 2143 O 274.043 -7.1704 3.19006 0
M  V30 2144 O 274.08 -8.16596 0.923387 0
M  V30 2145 C 273.92 -9.38437 0.108857 0
M  V30 2146 C 274.46 -9.08175 -1.28353 0
M  V30 2147 O 273.404 -8.44229 -1.84713 0
M  V30 2148 C 275.678 -8.18386 -1.42505 0
M  V30 2149 O 276.416 -8.3501 -2.60497 0
M  V30 2150 C 275.009 -6.80225 -1.25468 0
M  V30 2151 O 275.808 -5.81621 -1.91066 0
M  V30 2152 C 273.672 -7.02416 -1.9168 0
M  V30 2153 H 273.704 -6.6888 -2.96621 0
M  V30 2154 H 274.887 -6.53617 -0.192223 0
M  V30 2155 H 276.371 -8.36622 -0.589963 0
M  V30 2156 H 274.677 -10.0291 -1.79807 0
M  V30 2157 H 274.487 -10.2138 0.558219 0
M  V30 2158 H 272.857 -9.6579 0.0444202 0
M  V30 2159 H 275.496 -5.69556 -2.79637 0
M  V30 2160 P 277.354 -8.4349 -2.47671 0
M  V30 2161 O 278.776 -8.92593 -2.65 0
M  V30 2162 O 276.994 -7.7568 -1.19296 0
M  V30 2163 O 277.031 -7.36886 -3.63805 0
M  V30 2164 C 276.871 -7.95349 -4.982 0
M  V30 2165 C 277.411 -6.94612 -5.98974 0
M  V30 2166 O 276.355 -6.10347 -6.11815 0
M  V30 2167 C 278.629 -6.11426 -5.62335 0
M  V30 2168 O 279.367 -5.6162 -6.70584 0
M  V30 2169 C 277.96 -5.04409 -4.73308 0
M  V30 2170 O 278.759 -3.85992 -4.75183 0
M  V30 2171 C 276.623 -4.8728 -5.41006 0
M  V30 2172 H 276.655 -4.02333 -6.11157 0
M  V30 2173 H 277.838 -5.39466 -3.69543 0
M  V30 2174 H 279.322 -6.71916 -5.01943 0
M  V30 2175 H 277.628 -7.4649 -6.93477 0
M  V30 2176 H 277.438 -8.89416 -5.05237 0
M  V30 2177 H 275.808 -8.14876 -5.18409 0
M  V30 2178 H 278.447 -3.27957 -5.4317 0
M  V30 2179 P 280.304 -5.75688 -6.64379 0
M  V30 2180 O 281.726 -6.07627 -7.05504 0
M  V30 2181 O 279.944 -5.88047 -5.19722 0
M  V30 2182 O 279.981 -4.2322 -7.04443 0
M  V30 2183 C 279.821 -3.99743 -8.4911 0
M  V30 2184 C 280.361 -2.60516 -8.79425 0
M  V30 2185 O 279.305 -1.82684 -8.4467 0
M  V30 2186 C 281.579 -2.10343 -8.03628 0
M  V30 2187 O 282.317 -1.09919 -8.67766 0
M  V30 2188 C 280.91 -1.68446 -6.70876 0
M  V30 2189 O 281.709 -0.678137 -6.08433 0
M  V30 2190 C 279.573 -1.17436 -7.18567 0
M  V30 2191 H 279.605 -0.0804732 -7.31656 0
M  V30 2192 H 280.788 -2.54037 -6.02537 0
M  V30 2193 H 282.272 -2.93881 -7.85526 0
M  V30 2194 H 280.578 -2.53065 -9.86973 0
M  V30 2195 H 280.388 -4.75072 -9.05887 0
M  V30 2196 H 278.758 -4.05244 -8.76668 0
M  V30 2197 H 281.397 0.177647 -6.34251 0
M  V30 2198 P 283.255 -1.25109 -8.70152 0
M  V30 2199 O 284.656 -1.3516 -9.26897 0
M  V30 2200 O 282.877 -2.18141 -7.59181 0
M  V30 2201 O 282.932 0.248118 -8.21325 0
M  V30 2202 C 282.772 1.22779 -9.30434 0
M  V30 2203 C 283.312 2.56265 -8.80568 0
M  V30 2204 O 282.256 3.02944 -8.09255 0
M  V30 2205 C 284.529 2.57523 -7.89775 0
M  V30 2206 O 285.268 3.7668 -7.89438 0
M  V30 2207 C 283.862 2.20997 -6.55446 0
M  V30 2208 O 284.66 2.71851 -5.48419 0
M  V30 2209 C 282.524 2.89693 -6.67988 0
M  V30 2210 N 281.481 2.08895 -6.07487 0
M  V30 2211 C 280.446 2.72974 -5.43836 0
M  V30 2212 O 280.485 3.97779 -5.34036 0
M  V30 2213 N 279.434 2.0005 -4.91983 0
M  V30 2214 C 279.482 0.66501 -5.00098 0
M  V30 2215 C 280.578 -0.0100979 -5.61099 0
M  V30 2216 C 281.544 0.74189 -6.14236 0
M  V30 2217 H 282.556 3.8874 -6.19774 0
M  V30 2218 H 283.739 1.12673 -6.44018 0
M  V30 2219 H 285.223 1.783 -8.19631 0
M  V30 2220 H 283.529 3.21673 -9.66791 0
M  V30 2221 H 283.338 0.901032 -10.1892 0
M  V30 2222 H 281.708 1.33036 -9.56493 0
M  V30 2223 H 280.626 -1.09591 -5.64358 0
M  V30 2224 H 282.39 0.260263 -6.6359 0
M  V30 2225 H 284.444 3.62759 -5.33442 0
M  V30 2226 P 286.205 3.65191 -7.99657 0
M  V30 2227 O 287.627 3.89332 -8.45794 0
M  V30 2228 O 285.845 2.28472 -7.50807 0
M  V30 2229 O 285.882 4.64972 -6.77611 0
M  V30 2230 C 285.722 6.06319 -7.16352 0
M  V30 2231 C 286.262 6.91731 -6.02299 0
M  V30 2232 O 285.206 6.92449 -5.17064 0
M  V30 2233 C 287.48 6.43627 -5.25174 0
M  V30 2234 O 288.218 7.43686 -4.60469 0
M  V30 2235 C 286.811 5.40275 -4.31916 0
M  V30 2236 O 287.61 5.25279 -3.14438 0
M  V30 2237 C 285.474 6.04847 -4.05327 0
M  V30 2238 H 285.506 6.62195 -3.11261 0
M  V30 2239 H 286.689 4.42556 -4.81383 0
M  V30 2240 H 288.173 5.92458 -5.93643 0
M  V30 2241 H 286.479 7.92655 -6.402 0
M  V30 2242 H 286.289 6.26671 -8.0846 0
M  V30 2243 H 284.659 6.29101 -7.32804 0
M  V30 2244 H 287.298 5.84315 -2.47318 0
M  V30 2245 P 289.156 7.39546 -4.75277 0
M  V30 2246 O 290.578 7.84798 -5.01039 0
M  V30 2247 O 288.796 5.9812 -5.08098 0
M  V30 2248 O 288.833 7.57503 -3.1866 0
M  V30 2249 C 288.673 8.97357 -2.74833 0
M  V30 2250 C 289.213 9.07548 -1.32709 0
M  V30 2251 O 288.157 8.62072 -0.606159 0
M  V30 2252 C 290.431 8.25383 -0.938334 0
M  V30 2253 O 291.169 8.74577 0.146954 0
M  V30 2254 C 289.762 6.8802 -0.712559 0
M  V30 2255 O 290.561 6.1189 0.194655 0
M  V30 2256 C 288.425 7.27966 -0.139777 0
M  V30 2257 H 288.457 7.25354 0.961601 0
M  V30 2258 H 289.64 6.32557 -1.65702 0
M  V30 2259 H 291.124 8.19355 -1.79097 0
M  V30 2260 H 289.43 10.1294 -1.10029 0
M  V30 2261 H 289.24 9.64276 -3.41316 0
M  V30 2262 H 287.61 9.25417 -2.76357 0
M  V30 2263 H 290.249 6.25267 1.07847 0
M  V30 2264 P 292.106 8.791 1.04251e-12 0
M  V30 2265 O 293.528 9.31096 0.027933 0
M  V30 2266 O 291.746 7.77869 -1.04071 0
M  V30 2267 O 291.783 8.09533 1.41463 0
M  V30 2268 C 291.623 9.0349 2.53943 0
M  V30 2269 C 292.163 8.35226 3.79016 0
M  V30 2270 O 291.107 7.57992 4.15078 0
M  V30 2271 C 293.381 7.45087 3.67298 0
M  V30 2272 O 294.119 7.27796 4.85194 0
M  V30 2273 C 292.712 6.17323 3.12027 0
M  V30 2274 O 293.511 5.04231 3.47188 0
M  V30 2275 C 291.375 6.19961 3.81809 0
M  V30 2276 H 291.407 5.58218 4.73051 0
M  V30 2277 H 292.59 6.21726 2.02589 0
M  V30 2278 H 294.074 7.86112 2.9231 0
M  V30 2279 H 292.38 9.11627 4.55076 0
M  V30 2280 H 292.19 9.9573 2.34194 0
M  V30 2281 H 290.56 9.2792 2.67832 0
M  V30 2282 H 293.199 4.67702 4.28772 0
M  V30 2283 P 295.057 7.39546 4.75277 0
M  V30 2284 O 296.478 7.81861 5.05793 0
M  V30 2285 O 294.697 7.1065 3.32998 0
M  V30 2286 O 294.734 6.04542 5.56673 0
M  V30 2287 C 294.573 6.22839 7.02169 0
M  V30 2288 C 295.114 4.97725 7.70406 0
M  V30 2289 O 294.059 4.13208 7.58899 0
M  V30 2290 C 296.332 4.28231 7.11815 0
M  V30 2291 O 297.07 3.49945 8.01648 0
M  V30 2292 C 295.664 3.5063 5.96244 0
M  V30 2293 O 296.462 2.37008 5.64352 0
M  V30 2294 C 294.326 3.15122 6.56374 0
M  V30 2295 N 293.283 3.22311 5.55692 0
M  V30 2296 C 293.452 3.99655 4.46046 0
M  V30 2297 N 292.425 3.97599 3.63918 0
M  V30 2298 C 291.54 3.11159 4.25334 0
M  V30 2299 C 290.273 2.64972 3.85157 0
M  V30 2300 N 289.708 1.78482 4.74759 0
M  V30 2301 C 290.31 1.37463 5.90819 0
M  V30 2302 N 291.487 1.7733 6.31889 0
M  V30 2303 C 292.062 2.64393 5.43725 0
M  V30 2304 H 295.541 4.12931 5.06895 0
M  V30 2305 H 297.024 5.03285 6.70911 0
M  V30 2306 H 295.33 5.20001 8.76217 0
M  V30 2307 H 295.14 7.11046 7.35349 0
M  V30 2308 H 293.51 6.35815 7.26986 0
M  V30 2309 H 294.352 4.58037 4.27732 0
M  V30 2310 H 296.15 1.61619 6.13468 0
M  V30 2311 P 298.008 3.65191 7.99657 0
M  V30 2312 O 299.43 3.8425 8.48115 0
M  V30 2313 O 297.648 4.17805 6.64342 0
M  V30 2314 O 297.685 2.07613 7.95143 0
M  V30 2315 C 297.525 1.44328 9.27336 0
M  V30 2316 C 298.065 0.0220036 9.17197 0
M  V30 2317 O 297.009 -0.626867 8.61923 0
M  V30 2318 C 299.283 -0.24586 8.30336 0
M  V30 2319 O 300.021 -1.39011 8.63583 0
M  V30 2320 C 298.614 -0.273849 6.91158 0
M  V30 2321 O 299.413 -1.06348 6.02892 0
M  V30 2322 C 297.277 -0.897649 7.22545 0
M  V30 2323 H 297.309 -1.9841 7.04286 0
M  V30 2324 H 298.492 0.739928 6.497 0
M  V30 2325 H 299.976 0.60668 8.36503 0
M  V30 2326 H 298.282 -0.352479 10.1829 0
M  V30 2327 H 298.092 2.00611 10.0304 0
M  V30 2328 H 296.462 1.41843 9.55327 0
M  V30 2329 H 299.101 -1.95734 6.03555 0
M  V30 2330 P 300.958 -1.25109 8.70152 0
M  V30 2331 O 302.379 -1.35288 9.2132 0
M  V30 2332 O 300.598 -0.0769065 7.84762 0
M  V30 2333 O 300.635 -2.55232 7.81161 0
M  V30 2334 C 300.474 -3.79979 8.58246 0
M  V30 2335 C 301.015 -4.94023 7.72785 0
M  V30 2336 O 299.96 -5.18666 6.91125 0
M  V30 2337 C 302.233 -4.69597 6.85231 0
M  V30 2338 O 302.971 -5.83832 6.51337 0
M  V30 2339 C 301.565 -3.96706 5.66633 0
M  V30 2340 O 302.363 -4.14896 4.5003 0
M  V30 2341 C 300.227 -4.66153 5.59313 0
M  V30 2342 N 299.184 -3.71582 5.24027 0
M  V30 2343 C 299.353 -2.39715 5.48833 0
M  V30 2344 N 298.326 -1.65863 5.12845 0
M  V30 2345 C 297.441 -2.57637 4.5973 0
M  V30 2346 C 296.174 -2.40278 4.01027 0
M  V30 2347 N 295.609 -3.57711 3.59575 0
M  V30 2348 C 296.211 -4.80324 3.70476 0
M  V30 2349 N 297.388 -5.01121 4.23801 0
M  V30 2350 C 297.963 -3.84757 4.66372 0
M  V30 2351 H 301.442 -2.8955 5.86187 0
M  V30 2352 H 302.925 -4.0121 7.36511 0
M  V30 2353 H 301.231 -5.81019 8.37003 0
M  V30 2354 H 301.041 -3.73517 9.52265 0
M  V30 2355 H 299.411 -3.97163 8.80359 0
M  V30 2356 H 300.253 -1.98804 5.94332 0
M  V30 2357 H 302.051 -4.90891 4.01857 0
M  V30 2358 P 303.909 -5.75688 6.64379 0
M  V30 2359 O 305.331 -6.11849 7.01846 0
M  V30 2360 O 303.549 -4.30744 6.56026 0
M  V30 2361 O 303.586 -6.37042 5.19165 0
M  V30 2362 C 303.426 -7.83578 5.16515 0
M  V30 2363 C 303.966 -8.33398 3.83019 0
M  V30 2364 O 302.91 -8.10074 3.01034 0
M  V30 2365 C 305.184 -7.65514 3.2257 0
M  V30 2366 O 305.922 -8.4329 2.32297 0
M  V30 2367 C 304.515 -6.40075 2.62207 0
M  V30 2368 O 305.314 -5.92589 1.53712 0
M  V30 2369 C 303.178 -6.9454 2.18503 0
M  V30 2370 H 303.21 -7.23063 1.12091 0
M  V30 2371 H 304.393 -5.6025 3.37201 0
M  V30 2372 H 305.877 -7.35707 4.02681 0
M  V30 2373 H 304.183 -9.40912 3.9095 0
M  V30 2374 H 303.993 -8.29056 5.99158 0
M  V30 2375 H 302.363 -8.10073 5.25882 0
M  V30 2376 H 305.002 -6.30324 0.726794 0
M  V30 2377 P 306.859 -8.4349 2.47671 0
M  V30 2378 O 308.281 -8.94167 2.5964 0
M  V30 2379 O 306.499 -7.1704 3.19006 0
M  V30 2380 O 306.536 -8.16596 0.923387 0
M  V30 2381 C 306.376 -9.38437 0.108857 0
M  V30 2382 C 306.916 -9.08175 -1.28353 0
M  V30 2383 O 305.86 -8.44229 -1.84713 0
M  V30 2384 C 308.134 -8.18386 -1.42505 0
M  V30 2385 O 308.872 -8.3501 -2.60497 0
M  V30 2386 C 307.465 -6.80225 -1.25468 0
M  V30 2387 O 308.264 -5.81621 -1.91066 0
M  V30 2388 C 306.128 -7.02416 -1.9168 0
M  V30 2389 H 306.16 -6.6888 -2.96621 0
M  V30 2390 H 307.343 -6.53617 -0.192223 0
M  V30 2391 H 308.827 -8.36622 -0.589963 0
M  V30 2392 H 307.133 -10.0291 -1.79807 0
M  V30 2393 H 306.943 -10.2138 0.558219 0
M  V30 2394 H 305.313 -9.6579 0.0444202 0
M  V30 2395 H 307.952 -5.69556 -2.79637 0
M  V30 2396 P 309.81 -8.4349 -2.47671 0
M  V30 2397 O 311.232 -8.92593 -2.65 0
M  V30 2398 O 309.45 -7.7568 -1.19296 0
M  V30 2399 O 309.487 -7.36886 -3.63805 0
M  V30 2400 C 309.327 -7.95349 -4.982 0
M  V30 2401 C 309.867 -6.94612 -5.98974 0
M  V30 2402 O 308.811 -6.10347 -6.11815 0
M  V30 2403 C 311.085 -6.11426 -5.62335 0
M  V30 2404 O 311.823 -5.6162 -6.70584 0
M  V30 2405 C 310.416 -5.04409 -4.73308 0
M  V30 2406 O 311.215 -3.85992 -4.75183 0
M  V30 2407 C 309.079 -4.8728 -5.41006 0
M  V30 2408 H 309.111 -4.02333 -6.11157 0
M  V30 2409 H 310.294 -5.39466 -3.69543 0
M  V30 2410 H 311.778 -6.71916 -5.01943 0
M  V30 2411 H 310.084 -7.4649 -6.93477 0
M  V30 2412 H 309.894 -8.89416 -5.05237 0
M  V30 2413 H 308.264 -8.14876 -5.18409 0
M  V30 2414 H 310.903 -3.27957 -5.4317 0
M  V30 2415 P 312.76 -5.75688 -6.64379 0
M  V30 2416 O 314.182 -6.07627 -7.05504 0
M  V30 2417 O 312.4 -5.88047 -5.19722 0
M  V30 2418 O 312.437 -4.2322 -7.04443 0
M  V30 2419 C 312.277 -3.99743 -8.4911 0
M  V30 2420 C 312.817 -2.60516 -8.79425 0
M  V30 2421 O 311.761 -1.82684 -8.4467 0
M  V30 2422 C 314.035 -2.10343 -8.03628 0
M  V30 2423 O 314.773 -1.09919 -8.67766 0
M  V30 2424 C 313.366 -1.68446 -6.70876 0
M  V30 2425 O 314.165 -0.678137 -6.08433 0
M  V30 2426 C 312.029 -1.17436 -7.18567 0
M  V30 2427 H 312.061 -0.0804732 -7.31656 0
M  V30 2428 H 313.244 -2.54037 -6.02537 0
M  V30 2429 H 314.728 -2.93881 -7.85526 0
M  V30 2430 H 313.034 -2.53065 -9.86973 0
M  V30 2431 H 312.844 -4.75072 -9.05887 0
M  V30 2432 H 311.214 -4.05244 -8.76668 0
M  V30 2433 H 313.853 0.177647 -6.34251 0
M  V30 2434 P 315.711 -1.25109 -8.70152 0
M  V30 2435 O 317.133 -1.29744 -9.22016 0
M  V30 2436 O 315.351 -2.13714 -7.55141 0
M  V30 2437 O 315.388 0.248149 -8.21425 0
M  V30 2438 C 315.228 1.22779 -9.30434 0
M  V30 2439 C 315.768 2.56293 -8.80664 0
M  V30 2440 O 314.712 3.02979 -8.09349 0
M  V30 2441 C 316.986 2.57523 -7.89775 0
M  V30 2442 O 317.724 3.7668 -7.89438 0
M  V30 2443 C 316.317 2.20997 -6.55446 0
M  V30 2444 O 317.116 2.71895 -5.48509 0
M  V30 2445 C 314.98 2.89693 -6.67988 0
M  V30 2446 H 315.012 3.88793 -6.19859 0
M  V30 2447 H 316.195 1.12046 -6.44229 0
M  V30 2448 H 317.679 1.7746 -8.19711 0
M  V30 2449 H 315.985 3.20706 -9.67112 0
M  V30 2450 H 315.795 0.901032 -10.1892 0
M  V30 2451 H 314.165 1.33049 -9.56592 0
M  V30 2452 H 316.804 3.57847 -5.23962 0
M  V30 2453 P 318.662 3.65191 -7.99657 0
M  V30 2454 O 320.084 3.89332 -8.45794 0
M  V30 2455 O 318.302 2.28472 -7.50807 0
M  V30 2456 O 318.339 4.64972 -6.77611 0
M  V30 2457 C 318.179 6.06319 -7.16352 0
M  V30 2458 C 318.719 6.91731 -6.02299 0
M  V30 2459 O 317.663 6.92449 -5.17064 0
M  V30 2460 C 319.937 6.43627 -5.25174 0
M  V30 2461 O 320.675 7.43686 -4.60469 0
M  V30 2462 C 319.268 5.40275 -4.31916 0
M  V30 2463 O 320.067 5.25279 -3.14438 0
M  V30 2464 C 317.931 6.04847 -4.05327 0
M  V30 2465 H 317.963 6.62195 -3.11261 0
M  V30 2466 H 319.146 4.42556 -4.81383 0
M  V30 2467 H 320.63 5.92458 -5.93643 0
M  V30 2468 H 318.936 7.92655 -6.402 0
M  V30 2469 H 318.746 6.26671 -8.0846 0
M  V30 2470 H 317.116 6.29101 -7.32804 0
M  V30 2471 H 319.755 5.84315 -2.47318 0
M  V30 2472 P 321.612 7.39546 -4.75277 0
M  V30 2473 O 323.013 7.86988 -5.07993 0
M  V30 2474 O 321.234 5.99957 -5.13804 0
M  V30 2475 O 321.289 7.57411 -3.18621 0
M  V30 2476 C 321.129 8.97357 -2.74833 0
M  V30 2477 C 321.669 9.0745 -1.32694 0
M  V30 2478 O 320.613 8.61972 -0.606089 0
M  V30 2479 C 322.886 8.25383 -0.938334 0
M  V30 2480 O 323.625 8.74577 0.146954 0
M  V30 2481 C 322.219 6.8802 -0.712559 0
M  V30 2482 O 323.017 6.11791 0.194623 0
M  V30 2483 C 320.881 7.27966 -0.139777 0
M  V30 2484 N 319.838 6.39368 -0.623421 0
M  V30 2485 C 318.803 6.08088 0.223886 0
M  V30 2486 O 318.842 6.5102 1.39986 0
M  V30 2487 N 317.791 5.30627 -0.224051 0
M  V30 2488 C 317.839 4.82531 -1.47257 0
M  V30 2489 N 316.829 4.07328 -1.89378 0
M  V30 2490 C 318.935 5.09974 -2.34008 0
M  V30 2491 C 319.901 5.89548 -1.87678 0
M  V30 2492 H 320.913 7.25255 0.961469 0
M  V30 2493 H 322.096 6.32625 -1.65044 0
M  V30 2494 H 323.58 8.19631 -1.78299 0
M  V30 2495 H 321.886 10.1305 -1.09016 0
M  V30 2496 H 321.695 9.64276 -3.41316 0
M  V30 2497 H 320.065 9.25321 -2.76328 0
M  V30 2498 H 318.983 4.67832 -3.3413 0
M  V30 2499 H 320.747 6.14434 -2.51991 0
M  V30 2500 H 316.039 3.87329 -1.26296 0
M  V30 2501 H 316.834 3.69014 -2.84741 0
M  V30 2502 H 322.801 6.35931 1.08377 0
M  V30 2503 P 324.563 8.791 1.35267e-12 0
M  V30 2504 O 325.985 9.31096 0.027933 0
M  V30 2505 O 324.203 7.77869 -1.04071 0
M  V30 2506 O 324.24 8.09533 1.41463 0
M  V30 2507 C 324.08 9.0349 2.53943 0
M  V30 2508 C 324.62 8.35226 3.79016 0
M  V30 2509 O 323.564 7.57992 4.15078 0
M  V30 2510 C 325.838 7.45087 3.67298 0
M  V30 2511 O 326.576 7.27796 4.85194 0
M  V30 2512 C 325.169 6.17323 3.12027 0
M  V30 2513 O 325.968 5.04231 3.47188 0
M  V30 2514 C 323.832 6.19961 3.81809 0
M  V30 2515 H 323.864 5.58218 4.73051 0
M  V30 2516 H 325.047 6.21726 2.02589 0
M  V30 2517 H 326.531 7.86112 2.9231 0
M  V30 2518 H 324.837 9.11627 4.55076 0
M  V30 2519 H 324.647 9.9573 2.34194 0
M  V30 2520 H 323.017 9.2792 2.67832 0
M  V30 2521 H 325.656 4.67702 4.28772 0
M  V30 2522 P 327.513 7.39546 4.75277 0
M  V30 2523 O 328.935 7.81777 5.05738 0
M  V30 2524 O 327.153 7.1065 3.32998 0
M  V30 2525 O 327.19 6.04542 5.56673 0
M  V30 2526 C 327.03 6.22772 7.02095 0
M  V30 2527 C 327.57 4.97725 7.70406 0
M  V30 2528 O 326.514 4.13256 7.58987 0
M  V30 2529 C 328.788 4.28231 7.11815 0
M  V30 2530 O 329.526 3.49945 8.01648 0
M  V30 2531 C 328.119 3.5063 5.96244 0
M  V30 2532 O 328.918 2.36482 5.64681 0
M  V30 2533 C 326.782 3.15122 6.56374 0
M  V30 2534 H 326.814 2.13853 6.99751 0
M  V30 2535 H 327.997 4.13501 5.06559 0
M  V30 2536 H 329.481 5.03285 6.70911 0
M  V30 2537 H 327.787 5.20877 8.75697 0
M  V30 2538 H 327.597 7.11046 7.35349 0
M  V30 2539 H 325.967 6.35815 7.26986 0
M  V30 2540 H 328.606 1.61644 6.13565 0
M  V30 2541 P 330.464 3.65191 7.99657 0
M  V30 2542 O 331.886 3.8425 8.48115 0
M  V30 2543 O 330.104 4.17805 6.64342 0
M  V30 2544 O 330.141 2.07613 7.95143 0
M  V30 2545 C 329.981 1.44328 9.27336 0
M  V30 2546 C 330.521 0.0220036 9.17197 0
M  V30 2547 O 329.465 -0.626867 8.61923 0
M  V30 2548 C 331.739 -0.24586 8.30336 0
M  V30 2549 O 332.477 -1.39011 8.63583 0
M  V30 2550 C 331.07 -0.273849 6.91158 0
M  V30 2551 O 331.869 -1.06348 6.02892 0
M  V30 2552 C 329.733 -0.897649 7.22545 0
M  V30 2553 H 329.765 -1.9841 7.04286 0
M  V30 2554 H 330.948 0.739928 6.497 0
M  V30 2555 H 332.432 0.60668 8.36503 0
M  V30 2556 H 330.738 -0.352479 10.1829 0
M  V30 2557 H 330.548 2.00611 10.0304 0
M  V30 2558 H 328.918 1.41843 9.55327 0
M  V30 2559 H 331.557 -1.95734 6.03555 0
M  V30 2560 P 333.414 -1.25109 8.70152 0
M  V30 2561 O 334.836 -1.35303 9.21419 0
M  V30 2562 O 333.054 -0.0769065 7.84762 0
M  V30 2563 O 333.091 -2.55232 7.81161 0
M  V30 2564 C 332.931 -3.79939 8.58154 0
M  V30 2565 C 333.471 -4.93969 7.72701 0
M  V30 2566 O 332.416 -5.18726 6.91205 0
M  V30 2567 C 334.689 -4.69597 6.85231 0
M  V30 2568 O 335.427 -5.83832 6.51337 0
M  V30 2569 C 334.021 -3.96706 5.66633 0
M  V30 2570 O 334.819 -4.15346 4.49615 0
M  V30 2571 C 332.683 -4.66153 5.59313 0
M  V30 2572 N 331.64 -3.71582 5.24027 0
M  V30 2573 C 331.702 -2.46018 5.67902 0
M  V30 2574 N 330.657 -1.74868 5.24518 0
M  V30 2575 C 329.923 -2.61333 4.54528 0
M  V30 2576 C 328.617 -2.46162 3.95441 0
M  V30 2577 O 327.884 -1.46013 3.94122 0
M  V30 2578 N 328.187 -3.59334 3.34752 0
M  V30 2579 C 328.936 -4.79605 3.3023 0
M  V30 2580 N 328.339 -5.82109 2.6065 0
M  V30 2581 N 330.089 -4.97402 3.8843 0
M  V30 2582 C 330.546 -3.86258 4.50476 0
M  V30 2583 H 332.715 -5.47679 4.85214 0
M  V30 2584 H 333.898 -2.88964 5.86476 0
M  V30 2585 H 335.383 -4.01947 7.36109 0
M  V30 2586 H 333.688 -5.80182 8.37584 0
M  V30 2587 H 333.498 -3.73517 9.52265 0
M  V30 2588 H 331.867 -3.97163 8.80359 0
M  V30 2589 H 327.291 -3.5825 2.90294 0
M  V30 2590 H 332.498 -2.06161 6.30974 0
M  V30 2591 H 327.428 -5.66979 2.15354 0
M  V30 2592 H 328.804 -6.73686 2.54344 0
M  V30 2593 H 334.508 -4.90891 4.01857 0
M  V30 2594 P 336.365 -5.75688 6.64379 0
M  V30 2595 O 337.787 -6.11849 7.01846 0
M  V30 2596 O 336.005 -4.30744 6.56026 0
M  V30 2597 O 336.042 -6.37042 5.19165 0
M  V30 2598 C 335.882 -7.83578 5.16515 0
M  V30 2599 C 336.422 -8.33398 3.83019 0
M  V30 2600 O 335.366 -8.10074 3.01034 0
M  V30 2601 C 337.64 -7.65514 3.2257 0
M  V30 2602 O 338.378 -8.4329 2.32297 0
M  V30 2603 C 336.971 -6.40075 2.62207 0
M  V30 2604 O 337.77 -5.92589 1.53712 0
M  V30 2605 C 335.634 -6.9454 2.18503 0
M  V30 2606 H 335.666 -7.23063 1.12091 0
M  V30 2607 H 336.849 -5.6025 3.37201 0
M  V30 2608 H 338.333 -7.35707 4.02681 0
M  V30 2609 H 336.639 -9.40912 3.9095 0
M  V30 2610 H 336.449 -8.29056 5.99158 0
M  V30 2611 H 334.819 -8.10073 5.25882 0
M  V30 2612 H 337.458 -6.30324 0.726794 0
M  V30 2613 P 339.316 -8.4349 2.47671 0
M  V30 2614 O 340.738 -8.94167 2.5964 0
M  V30 2615 O 338.956 -7.1704 3.19006 0
M  V30 2616 O 338.993 -8.16596 0.923387 0
M  V30 2617 C 338.833 -9.38437 0.108857 0
M  V30 2618 C 339.373 -9.08175 -1.28353 0
M  V30 2619 O 338.317 -8.44229 -1.84713 0
M  V30 2620 C 340.591 -8.18386 -1.42505 0
M  V30 2621 O 341.329 -8.3501 -2.60497 0
M  V30 2622 C 339.922 -6.80225 -1.25468 0
M  V30 2623 O 340.721 -5.81621 -1.91066 0
M  V30 2624 C 338.585 -7.02416 -1.9168 0
M  V30 2625 H 338.617 -6.6888 -2.96621 0
M  V30 2626 H 339.8 -6.53617 -0.192223 0
M  V30 2627 H 341.284 -8.36622 -0.589963 0
M  V30 2628 H 339.59 -10.0291 -1.79807 0
M  V30 2629 H 339.4 -10.2138 0.558219 0
M  V30 2630 H 337.77 -9.6579 0.0444202 0
M  V30 2631 H 340.409 -5.69556 -2.79637 0
M  V30 2632 P 342.266 -8.4349 -2.47671 0
M  V30 2633 O 343.667 -8.99283 -2.62101 0
M  V30 2634 O 341.888 -7.81195 -1.16947 0
M  V30 2635 O 341.943 -7.36797 -3.63761 0
M  V30 2636 C 341.783 -7.95349 -4.982 0
M  V30 2637 C 342.323 -6.94537 -5.98908 0
M  V30 2638 O 341.267 -6.10277 -6.11744 0
M  V30 2639 C 343.54 -6.11426 -5.62335 0
M  V30 2640 O 344.279 -5.6162 -6.70584 0
M  V30 2641 C 342.873 -5.04409 -4.73308 0
M  V30 2642 O 343.671 -3.85929 -4.75106 0
M  V30 2643 C 341.535 -4.8728 -5.41006 0
M  V30 2644 N 340.492 -4.65812 -4.42377 0
M  V30 2645 C 339.457 -3.81293 -4.74224 0
M  V30 2646 O 339.496 -3.20533 -5.83679 0
M  V30 2647 N 338.445 -3.6442 -3.86349 0
M  V30 2648 C 338.493 -4.2728 -2.6824 0
M  V30 2649 C 339.589 -5.10813 -2.3217 0
M  V30 2650 C 340.555 -5.27909 -3.22647 0
M  V30 2651 H 341.567 -4.02278 -6.11074 0
M  V30 2652 H 342.75 -5.39013 -3.70026 0
M  V30 2653 H 344.234 -6.71494 -5.02675 0
M  V30 2654 H 342.54 -7.45796 -6.94223 0
M  V30 2655 H 342.349 -8.89416 -5.05237 0
M  V30 2656 H 340.719 -8.14791 -5.18355 0
M  V30 2657 H 339.637 -5.58884 -1.34755 0
M  V30 2658 H 341.401 -5.92811 -2.9934 0
M  V30 2659 H 343.455 -3.3454 -5.51577 0
M  V30 2660 P 345.217 -5.75688 -6.64379 0
M  V30 2661 O 346.638 -6.07692 -7.0558 0
M  V30 2662 O 344.857 -5.88047 -5.19722 0
M  V30 2663 O 344.894 -4.2322 -7.04443 0
M  V30 2664 C 344.733 -3.99785 -8.49201 0
M  V30 2665 C 345.274 -2.60516 -8.79425 0
M  V30 2666 O 344.219 -1.82663 -8.44573 0
M  V30 2667 C 346.492 -2.10343 -8.03628 0
M  V30 2668 O 347.23 -1.09919 -8.67766 0
M  V30 2669 C 345.824 -1.68446 -6.70876 0
M  V30 2670 O 346.622 -0.684109 -6.08265 0
M  V30 2671 C 344.486 -1.17436 -7.18567 0
M  V30 2672 N 343.443 -1.52699 -6.23988 0
M  V30 2673 C 343.612 -2.578 -5.40574 0
M  V30 2674 N 342.585 -2.78966 -4.61193 0
M  V30 2675 C 341.7 -1.78725 -4.95769 0
M  V30 2676 C 340.433 -1.45727 -4.44207 0
M  V30 2677 N 339.834 -2.13994 -3.43613 0
M  V30 2678 N 339.868 -0.374977 -5.05812 0
M  V30 2679 C 340.47 0.345585 -6.05615 0
M  V30 2680 N 341.647 0.0787651 -6.56253 0
M  V30 2681 C 342.222 -1.00499 -5.96189 0
M  V30 2682 H 344.518 -0.0804622 -7.31556 0
M  V30 2683 H 345.701 -2.53396 -6.02698 0
M  V30 2684 H 347.184 -2.93881 -7.85526 0
M  V30 2685 H 345.49 -2.52078 -9.87225 0
M  V30 2686 H 345.3 -4.75072 -9.05887 0
M  V30 2687 H 343.67 -4.05244 -8.76668 0
M  V30 2688 H 339.934 1.20098 -6.4532 0
M  V30 2689 H 344.512 -3.18977 -5.3945 0
M  V30 2690 H 338.904 -1.84983 -3.10004 0
M  V30 2691 H 340.308 -2.9465 -3.00843 0
M  V30 2692 H 346.31 0.177619 -6.34151 0
M  V30 2693 P 348.167 -1.25109 -8.70152 0
M  V30 2694 O 349.589 -1.29744 -9.22016 0
M  V30 2695 O 347.807 -2.13714 -7.55141 0
M  V30 2696 O 347.844 0.248149 -8.21425 0
M  V30 2697 C 347.684 1.22779 -9.30434 0
M  V30 2698 C 348.224 2.56293 -8.80664 0
M  V30 2699 O 347.168 3.02979 -8.09349 0
M  V30 2700 C 349.442 2.57523 -7.89775 0
M  V30 2701 O 350.18 3.7668 -7.89438 0
M  V30 2702 C 348.773 2.20997 -6.55446 0
M  V30 2703 O 349.572 2.71895 -5.48509 0
M  V30 2704 C 347.436 2.89693 -6.67988 0
M  V30 2705 H 347.468 3.88793 -6.19859 0
M  V30 2706 H 348.651 1.12046 -6.44229 0
M  V30 2707 H 350.135 1.7746 -8.19711 0
M  V30 2708 H 348.441 3.20706 -9.67112 0
M  V30 2709 H 348.251 0.901032 -10.1892 0
M  V30 2710 H 346.621 1.33049 -9.56592 0
M  V30 2711 H 349.26 3.57847 -5.23962 0
M  V30 2712 P 351.118 3.65191 -7.99657 0
M  V30 2713 O 352.54 3.89416 -8.45976 0
M  V30 2714 O 350.758 2.28472 -7.50807 0
M  V30 2715 O 350.795 4.64972 -6.77611 0
M  V30 2716 C 350.635 6.06319 -7.16352 0
M  V30 2717 C 351.175 6.91655 -6.02234 0
M  V30 2718 O 350.12 6.92449 -5.17064 0
M  V30 2719 C 352.393 6.43627 -5.25174 0
M  V30 2720 O 353.131 7.43686 -4.60469 0
M  V30 2721 C 351.725 5.40275 -4.31916 0
M  V30 2722 O 352.523 5.25193 -3.14386 0
M  V30 2723 C 350.387 6.04847 -4.05327 0
M  V30 2724 N 349.344 5.04166 -3.98114 0
M  V30 2725 C 349.406 3.96049 -4.75587 0
M  V30 2726 N 348.361 3.15559 -4.54006 0
M  V30 2727 C 347.627 3.78802 -3.62491 0
M  V30 2728 C 346.321 3.476 -3.10071 0
M  V30 2729 O 345.588 2.51136 -3.37021 0
M  V30 2730 N 345.891 4.39088 -2.19956 0
M  V30 2731 C 346.64 5.53215 -1.81733 0
M  V30 2732 N 346.043 6.31963 -0.860928 0
M  V30 2733 N 347.793 5.86688 -2.32562 0
M  V30 2734 C 348.25 4.97525 -3.23407 0
M  V30 2735 H 350.419 6.62195 -3.11261 0
M  V30 2736 H 351.602 4.42488 -4.8131 0
M  V30 2737 H 353.087 5.93051 -5.9305 0
M  V30 2738 H 351.392 7.92655 -6.402 0
M  V30 2739 H 351.202 6.26671 -8.0846 0
M  V30 2740 H 349.571 6.29101 -7.32804 0
M  V30 2741 H 344.995 4.25523 -1.77604 0
M  V30 2742 H 350.202 3.75576 -5.47333 0
M  V30 2743 H 345.132 6.04684 -0.468946 0
M  V30 2744 H 346.508 7.18054 -0.542422 0
M  V30 2745 H 352.212 5.84223 -2.47279 0
M  V30 2746 P 354.068 7.39546 -4.75277 0
M  V30 2747 O 355.49 7.84798 -5.01039 0
M  V30 2748 O 353.708 5.9812 -5.08098 0
M  V30 2749 O 353.745 7.57503 -3.1866 0
M  V30 2750 C 353.585 8.97357 -2.74833 0
M  V30 2751 C 354.125 9.07548 -1.32709 0
M  V30 2752 O 353.069 8.62072 -0.606159 0
M  V30 2753 C 355.343 8.25383 -0.938334 0
M  V30 2754 O 356.081 8.74577 0.146954 0
M  V30 2755 C 354.674 6.8802 -0.712559 0
M  V30 2756 O 355.473 6.1189 0.194655 0
M  V30 2757 C 353.337 7.27966 -0.139777 0
M  V30 2758 H 353.369 7.25354 0.961601 0
M  V30 2759 H 354.552 6.32557 -1.65702 0
M  V30 2760 H 356.036 8.19355 -1.79097 0
M  V30 2761 H 354.342 10.1294 -1.10029 0
M  V30 2762 H 354.152 9.64276 -3.41316 0
M  V30 2763 H 352.522 9.25417 -2.76357 0
M  V30 2764 H 355.161 6.25267 1.07847 0
M  V30 2765 P 357.019 8.791 1.66284e-12 0
M  V30 2766 O 358.441 9.31096 0.027933 0
M  V30 2767 O 356.659 7.77869 -1.04071 0
M  V30 2768 O 356.696 8.09533 1.41463 0
M  V30 2769 C 356.536 9.0349 2.53943 0
M  V30 2770 C 357.076 8.35226 3.79016 0
M  V30 2771 O 356.02 7.57992 4.15078 0
M  V30 2772 C 358.294 7.45087 3.67298 0
M  V30 2773 O 359.032 7.27796 4.85194 0
M  V30 2774 C 357.625 6.17323 3.12027 0
M  V30 2775 O 358.424 5.04231 3.47188 0
M  V30 2776 C 356.288 6.19961 3.81809 0
M  V30 2777 H 356.32 5.58218 4.73051 0
M  V30 2778 H 357.503 6.21726 2.02589 0
M  V30 2779 H 358.987 7.86112 2.9231 0
M  V30 2780 H 357.293 9.11627 4.55076 0
M  V30 2781 H 357.103 9.9573 2.34194 0
M  V30 2782 H 355.473 9.2792 2.67832 0
M  V30 2783 H 358.112 4.67702 4.28772 0
M  V30 2784 P 359.97 7.39546 4.75277 0
M  V30 2785 O 361.392 7.81777 5.05738 0
M  V30 2786 O 359.61 7.1065 3.32998 0
M  V30 2787 O 359.647 6.04542 5.56673 0
M  V30 2788 C 359.487 6.22772 7.02095 0
M  V30 2789 C 360.027 4.97725 7.70406 0
M  V30 2790 O 358.971 4.13256 7.58987 0
M  V30 2791 C 361.245 4.28231 7.11815 0
M  V30 2792 O 361.983 3.49945 8.01648 0
M  V30 2793 C 360.576 3.5063 5.96244 0
M  V30 2794 O 361.375 2.36482 5.64681 0
M  V30 2795 C 359.239 3.15122 6.56374 0
M  V30 2796 H 359.271 2.13853 6.99751 0
M  V30 2797 H 360.454 4.13501 5.06559 0
M  V30 2798 H 361.938 5.03285 6.70911 0
M  V30 2799 H 360.244 5.20877 8.75697 0
M  V30 2800 H 360.054 7.11046 7.35349 0
M  V30 2801 H 358.424 6.35815 7.26986 0
M  V30 2802 H 361.063 1.61644 6.13565 0
M  V30 2803 P 362.92 3.65191 7.99657 0
M  V30 2804 O 364.342 3.8425 8.48115 0
M  V30 2805 O 362.56 4.17805 6.64342 0
M  V30 2806 O 362.597 2.07613 7.95143 0
M  V30 2807 C 362.437 1.44328 9.27336 0
M  V30 2808 C 362.977 0.0220036 9.17197 0
M  V30 2809 O 361.921 -0.626867 8.61923 0
M  V30 2810 C 364.195 -0.24586 8.30336 0
M  V30 2811 O 364.933 -1.39011 8.63583 0
M  V30 2812 C 363.526 -0.273849 6.91158 0
M  V30 2813 O 364.325 -1.06348 6.02892 0
M  V30 2814 C 362.189 -0.897649 7.22545 0
M  V30 2815 H 362.221 -1.9841 7.04286 0
M  V30 2816 H 363.404 0.739928 6.497 0
M  V30 2817 H 364.888 0.60668 8.36503 0
M  V30 2818 H 363.194 -0.352479 10.1829 0
M  V30 2819 H 363.004 2.00611 10.0304 0
M  V30 2820 H 361.374 1.41843 9.55327 0
M  V30 2821 H 364.013 -1.95734 6.03555 0
M  V30 2822 P 365.871 -1.25109 8.70152 0
M  V30 2823 O 367.293 -1.35303 9.21419 0
M  V30 2824 O 365.511 -0.0769065 7.84762 0
M  V30 2825 O 365.548 -2.55232 7.81161 0
M  V30 2826 C 365.388 -3.79939 8.58154 0
M  V30 2827 C 365.928 -4.93969 7.72701 0
M  V30 2828 O 364.873 -5.18726 6.91205 0
M  V30 2829 C 367.146 -4.69597 6.85231 0
M  V30 2830 O 367.884 -5.83832 6.51337 0
M  V30 2831 C 366.478 -3.96706 5.66633 0
M  V30 2832 O 367.276 -4.15346 4.49615 0
M  V30 2833 C 365.14 -4.66153 5.59313 0
M  V30 2834 N 364.097 -3.71582 5.24027 0
M  V30 2835 C 364.159 -2.46018 5.67902 0
M  V30 2836 N 363.114 -1.74868 5.24518 0
M  V30 2837 C 362.38 -2.61333 4.54528 0
M  V30 2838 C 361.074 -2.46162 3.95441 0
M  V30 2839 O 360.341 -1.46013 3.94122 0
M  V30 2840 N 360.644 -3.59334 3.34752 0
M  V30 2841 C 361.393 -4.79605 3.3023 0
M  V30 2842 N 360.796 -5.82109 2.6065 0
M  V30 2843 N 362.546 -4.97402 3.8843 0
M  V30 2844 C 363.003 -3.86258 4.50476 0
M  V30 2845 H 365.172 -5.47679 4.85214 0
M  V30 2846 H 366.355 -2.88964 5.86476 0
M  V30 2847 H 367.84 -4.01947 7.36109 0
M  V30 2848 H 366.145 -5.80182 8.37584 0
M  V30 2849 H 365.955 -3.73517 9.52265 0
M  V30 2850 H 364.324 -3.97163 8.80359 0
M  V30 2851 H 359.748 -3.5825 2.90294 0
M  V30 2852 H 364.955 -2.06161 6.30974 0
M  V30 2853 H 359.885 -5.66979 2.15354 0
M  V30 2854 H 361.261 -6.73686 2.54344 0
M  V30 2855 H 366.965 -4.90891 4.01857 0
M  V30 2856 P 368.821 -5.75688 6.64379 0
M  V30 2857 O 370.243 -6.11849 7.01846 0
M  V30 2858 O 368.461 -4.30744 6.56026 0
M  V30 2859 O 368.498 -6.37042 5.19165 0
M  V30 2860 C 368.338 -7.83578 5.16515 0
M  V30 2861 C 368.878 -8.33398 3.83019 0
M  V30 2862 O 367.822 -8.10074 3.01034 0
M  V30 2863 C 370.096 -7.65514 3.2257 0
M  V30 2864 O 370.834 -8.4329 2.32297 0
M  V30 2865 C 369.427 -6.40075 2.62207 0
M  V30 2866 O 370.226 -5.92589 1.53712 0
M  V30 2867 C 368.09 -6.9454 2.18503 0
M  V30 2868 H 368.122 -7.23063 1.12091 0
M  V30 2869 H 369.305 -5.6025 3.37201 0
M  V30 2870 H 370.789 -7.35707 4.02681 0
M  V30 2871 H 369.095 -9.40912 3.9095 0
M  V30 2872 H 368.905 -8.29056 5.99158 0
M  V30 2873 H 367.275 -8.10073 5.25882 0
M  V30 2874 H 369.914 -6.30324 0.726794 0
M  V30 2875 P 371.772 -8.4349 2.47671 0
M  V30 2876 O 373.193 -8.94263 2.59668 0
M  V30 2877 O 371.412 -7.1704 3.19006 0
M  V30 2878 O 371.449 -8.16596 0.923387 0
M  V30 2879 C 371.288 -9.38537 0.108869 0
M  V30 2880 C 371.829 -9.08175 -1.28353 0
M  V30 2881 O 370.774 -8.44131 -1.84692 0
M  V30 2882 C 373.047 -8.18386 -1.42505 0
M  V30 2883 O 373.785 -8.3501 -2.60497 0
M  V30 2884 C 372.379 -6.80225 -1.25468 0
M  V30 2885 O 373.177 -5.81716 -1.90454 0
M  V30 2886 C 371.041 -7.02416 -1.9168 0
M  V30 2887 N 369.998 -6.31033 -1.20314 0
M  V30 2888 C 370.167 -5.98817 0.0994088 0
M  V30 2889 N 369.14 -5.35403 0.621694 0
M  V30 2890 C 368.255 -5.25212 -0.43376 0
M  V30 2891 C 366.988 -4.64602 -0.519722 0
M  V30 2892 N 366.389 -4.01457 0.519136 0
M  V30 2893 N 366.423 -4.7568 -1.76013 0
M  V30 2894 C 367.025 -5.3653 -2.83017 0
M  V30 2895 N 368.202 -5.93676 -2.79782 0
M  V30 2896 C 368.777 -5.84061 -1.56249 0
M  V30 2897 H 371.073 -6.68789 -2.9658 0
M  V30 2898 H 372.256 -6.53498 -0.198729 0
M  V30 2899 H 373.739 -8.36622 -0.589963 0
M  V30 2900 H 372.045 -10.0273 -1.8081 0
M  V30 2901 H 371.855 -10.2138 0.558219 0
M  V30 2902 H 370.225 -9.6579 0.0444202 0
M  V30 2903 H 366.489 -5.37113 -3.77321 0
M  V30 2904 H 371.067 -6.23209 0.660562 0
M  V30 2905 H 365.459 -3.58834 0.394862 0
M  V30 2906 H 366.863 -3.96059 1.43048 0
M  V30 2907 H 372.865 -5.69466 -2.79593 0
M  V30 2908 P 374.722 -8.4349 -2.47671 0
M  V30 2909 O 376.144 -8.92593 -2.65 0
M  V30 2910 O 374.362 -7.7568 -1.19296 0
M  V30 2911 O 374.399 -7.36886 -3.63805 0
M  V30 2912 C 374.239 -7.95349 -4.982 0
M  V30 2913 C 374.779 -6.94612 -5.98974 0
M  V30 2914 O 373.723 -6.10347 -6.11815 0
M  V30 2915 C 375.997 -6.11426 -5.62335 0
M  V30 2916 O 376.735 -5.6162 -6.70584 0
M  V30 2917 C 375.328 -5.04409 -4.73308 0
M  V30 2918 O 376.127 -3.85992 -4.75183 0
M  V30 2919 C 373.991 -4.8728 -5.41006 0
M  V30 2920 H 374.023 -4.02333 -6.11157 0
M  V30 2921 H 375.206 -5.39466 -3.69543 0
M  V30 2922 H 376.69 -6.71916 -5.01943 0
M  V30 2923 H 374.996 -7.4649 -6.93477 0
M  V30 2924 H 374.806 -8.89416 -5.05237 0
M  V30 2925 H 373.176 -8.14876 -5.18409 0
M  V30 2926 H 375.815 -3.27957 -5.4317 0
M  V30 2927 P 377.673 -5.75688 -6.64379 0
M  V30 2928 O 379.095 -6.07627 -7.05504 0
M  V30 2929 O 377.313 -5.88047 -5.19722 0
M  V30 2930 O 377.35 -4.2322 -7.04443 0
M  V30 2931 C 377.19 -3.99743 -8.4911 0
M  V30 2932 C 377.73 -2.60516 -8.79425 0
M  V30 2933 O 376.674 -1.82684 -8.4467 0
M  V30 2934 C 378.948 -2.10343 -8.03628 0
M  V30 2935 O 379.686 -1.09919 -8.67766 0
M  V30 2936 C 378.279 -1.68446 -6.70876 0
M  V30 2937 O 379.078 -0.678137 -6.08433 0
M  V30 2938 C 376.942 -1.17436 -7.18567 0
M  V30 2939 H 376.974 -0.0804732 -7.31656 0
M  V30 2940 H 378.157 -2.54037 -6.02537 0
M  V30 2941 H 379.641 -2.93881 -7.85526 0
M  V30 2942 H 377.947 -2.53065 -9.86973 0
M  V30 2943 H 377.757 -4.75072 -9.05887 0
M  V30 2944 H 376.127 -4.05244 -8.76668 0
M  V30 2945 H 378.766 0.177647 -6.34251 0
M  V30 2946 P 380.624 -1.25109 -8.70152 0
M  V30 2947 O 382.046 -1.29744 -9.22016 0
M  V30 2948 O 380.264 -2.13714 -7.55141 0
M  V30 2949 O 380.301 0.248149 -8.21425 0
M  V30 2950 C 380.141 1.22779 -9.30434 0
M  V30 2951 C 380.681 2.56293 -8.80664 0
M  V30 2952 O 379.625 3.02979 -8.09349 0
M  V30 2953 C 381.899 2.57523 -7.89775 0
M  V30 2954 O 382.637 3.7668 -7.89438 0
M  V30 2955 C 381.23 2.20997 -6.55446 0
M  V30 2956 O 382.029 2.71895 -5.48509 0
M  V30 2957 C 379.893 2.89693 -6.67988 0
M  V30 2958 H 379.925 3.88793 -6.19859 0
M  V30 2959 H 381.108 1.12046 -6.44229 0
M  V30 2960 H 382.592 1.7746 -8.19711 0
M  V30 2961 H 380.898 3.20706 -9.67112 0
M  V30 2962 H 380.708 0.901032 -10.1892 0
M  V30 2963 H 379.078 1.33049 -9.56592 0
M  V30 2964 H 381.717 3.57847 -5.23962 0
M  V30 2965 P 383.574 3.65191 -7.99657 0
M  V30 2966 O 384.996 3.89332 -8.45794 0
M  V30 2967 O 383.214 2.28472 -7.50807 0
M  V30 2968 O 383.251 4.64972 -6.77611 0
M  V30 2969 C 383.091 6.06319 -7.16352 0
M  V30 2970 C 383.631 6.91731 -6.02299 0
M  V30 2971 O 382.575 6.92449 -5.17064 0
M  V30 2972 C 384.849 6.43627 -5.25174 0
M  V30 2973 O 385.587 7.43686 -4.60469 0
M  V30 2974 C 384.18 5.40275 -4.31916 0
M  V30 2975 O 384.979 5.25279 -3.14438 0
M  V30 2976 C 382.843 6.04847 -4.05327 0
M  V30 2977 H 382.875 6.62195 -3.11261 0
M  V30 2978 H 384.058 4.42556 -4.81383 0
M  V30 2979 H 385.542 5.92458 -5.93643 0
M  V30 2980 H 383.848 7.92655 -6.402 0
M  V30 2981 H 383.658 6.26671 -8.0846 0
M  V30 2982 H 382.028 6.29101 -7.32804 0
M  V30 2983 H 384.667 5.84315 -2.47318 0
M  V30 2984 P 386.525 7.39546 -4.75277 0
M  V30 2985 O 387.947 7.84798 -5.01039 0
M  V30 2986 O 386.165 5.9812 -5.08098 0
M  V30 2987 O 386.202 7.57503 -3.1866 0
M  V30 2988 C 386.042 8.97357 -2.74833 0
M  V30 2989 C 386.582 9.07548 -1.32709 0
M  V30 2990 O 385.526 8.62072 -0.606159 0
M  V30 2991 C 387.8 8.25383 -0.938334 0
M  V30 2992 O 388.538 8.74577 0.146954 0
M  V30 2993 C 387.131 6.8802 -0.712559 0
M  V30 2994 O 387.93 6.1189 0.194655 0
M  V30 2995 C 385.794 7.27966 -0.139777 0
M  V30 2996 H 385.826 7.25354 0.961601 0
M  V30 2997 H 387.009 6.32557 -1.65702 0
M  V30 2998 H 388.493 8.19355 -1.79097 0
M  V30 2999 H 386.799 10.1294 -1.10029 0
M  V30 3000 H 386.609 9.64276 -3.41316 0
M  V30 3001 H 384.979 9.25417 -2.76357 0
M  V30 3002 H 387.618 6.25267 1.07847 0
M  V30 3003 P 389.475 8.791 1.973e-12 0
M  V30 3004 O 390.897 9.31096 0.027933 0
M  V30 3005 O 389.115 7.77869 -1.04071 0
M  V30 3006 O 389.152 8.09533 1.41463 0
M  V30 3007 C 388.992 9.0349 2.53943 0
M  V30 3008 C 389.532 8.35226 3.79016 0
M  V30 3009 O 388.476 7.57992 4.15078 0
M  V30 3010 C 390.75 7.45087 3.67298 0
M  V30 3011 O 391.488 7.27796 4.85194 0
M  V30 3012 C 390.081 6.17323 3.12027 0
M  V30 3013 O 390.88 5.04231 3.47188 0
M  V30 3014 C 388.744 6.19961 3.81809 0
M  V30 3015 H 388.776 5.58218 4.73051 0
M  V30 3016 H 389.959 6.21726 2.02589 0
M  V30 3017 H 391.443 7.86112 2.9231 0
M  V30 3018 H 389.749 9.11627 4.55076 0
M  V30 3019 H 389.559 9.9573 2.34194 0
M  V30 3020 H 387.929 9.2792 2.67832 0
M  V30 3021 H 390.568 4.67702 4.28772 0
M  V30 3022 P 392.426 7.39546 4.75277 0
M  V30 3023 O 393.848 7.81777 5.05738 0
M  V30 3024 O 392.066 7.1065 3.32998 0
M  V30 3025 O 392.103 6.04542 5.56673 0
M  V30 3026 C 391.943 6.22772 7.02095 0
M  V30 3027 C 392.483 4.97725 7.70406 0
M  V30 3028 O 391.427 4.13256 7.58987 0
M  V30 3029 C 393.701 4.28231 7.11815 0
M  V30 3030 O 394.439 3.49945 8.01648 0
M  V30 3031 C 393.032 3.5063 5.96244 0
M  V30 3032 O 393.831 2.36482 5.64681 0
M  V30 3033 C 391.695 3.15122 6.56374 0
M  V30 3034 H 391.727 2.13853 6.99751 0
M  V30 3035 H 392.91 4.13501 5.06559 0
M  V30 3036 H 394.394 5.03285 6.70911 0
M  V30 3037 H 392.7 5.20877 8.75697 0
M  V30 3038 H 392.51 7.11046 7.35349 0
M  V30 3039 H 390.88 6.35815 7.26986 0
M  V30 3040 H 393.519 1.61644 6.13565 0
M  V30 3041 P 395.376 3.65191 7.99657 0
M  V30 3042 O 396.798 3.8425 8.48115 0
M  V30 3043 O 395.016 4.17805 6.64342 0
M  V30 3044 O 395.053 2.07613 7.95143 0
M  V30 3045 C 394.893 1.44328 9.27336 0
M  V30 3046 C 395.433 0.0220036 9.17197 0
M  V30 3047 O 394.377 -0.626867 8.61923 0
M  V30 3048 C 396.651 -0.24586 8.30336 0
M  V30 3049 O 397.389 -1.39011 8.63583 0
M  V30 3050 C 395.982 -0.273849 6.91158 0
M  V30 3051 O 396.781 -1.06348 6.02892 0
M  V30 3052 C 394.645 -0.897649 7.22545 0
M  V30 3053 H 394.677 -1.9841 7.04286 0
M  V30 3054 H 395.86 0.739928 6.497 0
M  V30 3055 H 397.344 0.60668 8.36503 0
M  V30 3056 H 395.65 -0.352479 10.1829 0
M  V30 3057 H 395.46 2.00611 10.0304 0
M  V30 3058 H 393.83 1.41843 9.55327 0
M  V30 3059 H 396.469 -1.95734 6.03555 0
M  V30 3060 P 398.327 -1.25109 8.70152 0
M  V30 3061 O 399.748 -1.35288 9.2132 0
M  V30 3062 O 397.967 -0.0769065 7.84762 0
M  V30 3063 O 398.004 -2.55232 7.81161 0
M  V30 3064 C 397.843 -3.79979 8.58246 0
M  V30 3065 C 398.384 -4.94023 7.72785 0
M  V30 3066 O 397.329 -5.18666 6.91125 0
M  V30 3067 C 399.602 -4.69597 6.85231 0
M  V30 3068 O 400.34 -5.83832 6.51337 0
M  V30 3069 C 398.934 -3.96706 5.66633 0
M  V30 3070 O 399.732 -4.14896 4.5003 0
M  V30 3071 C 397.596 -4.66153 5.59313 0
M  V30 3072 N 396.553 -3.71582 5.24027 0
M  V30 3073 C 396.722 -2.39715 5.48833 0
M  V30 3074 N 395.695 -1.65863 5.12845 0
M  V30 3075 C 394.81 -2.57637 4.5973 0
M  V30 3076 C 393.543 -2.40278 4.01027 0
M  V30 3077 N 392.944 -1.19549 3.86744 0
M  V30 3078 N 392.978 -3.57711 3.59575 0
M  V30 3079 C 393.58 -4.80324 3.70476 0
M  V30 3080 N 394.757 -5.01121 4.23801 0
M  V30 3081 C 395.332 -3.84757 4.66372 0
M  V30 3082 H 397.628 -5.47604 4.85148 0
M  V30 3083 H 398.811 -2.8955 5.86187 0
M  V30 3084 H 400.294 -4.0121 7.36511 0
M  V30 3085 H 398.6 -5.81019 8.37003 0
M  V30 3086 H 398.41 -3.73517 9.52265 0
M  V30 3087 H 396.78 -3.97163 8.80359 0
M  V30 3088 H 393.044 -5.66348 3.3183 0
M  V30 3089 H 397.622 -1.98804 5.94332 0
M  V30 3090 H 392.014 -1.13147 3.4281 0
M  V30 3091 H 393.418 -0.344074 4.19692 0
M  V30 3092 H 399.42 -4.90891 4.01857 0
M  V30 3093 P 401.278 -5.75688 6.64379 0
M  V30 3094 O 402.7 -6.11849 7.01846 0
M  V30 3095 O 400.918 -4.30744 6.56026 0
M  V30 3096 O 400.955 -6.37042 5.19165 0
M  V30 3097 C 400.795 -7.83578 5.16515 0
M  V30 3098 C 401.335 -8.33398 3.83019 0
M  V30 3099 O 400.279 -8.10074 3.01034 0
M  V30 3100 C 402.553 -7.65514 3.2257 0
M  V30 3101 O 403.291 -8.4329 2.32297 0
M  V30 3102 C 401.884 -6.40075 2.62207 0
M  V30 3103 O 402.683 -5.92589 1.53712 0
M  V30 3104 C 400.547 -6.9454 2.18503 0
M  V30 3105 H 400.579 -7.23063 1.12091 0
M  V30 3106 H 401.762 -5.6025 3.37201 0
M  V30 3107 H 403.246 -7.35707 4.02681 0
M  V30 3108 H 401.552 -9.40912 3.9095 0
M  V30 3109 H 401.362 -8.29056 5.99158 0
M  V30 3110 H 399.732 -8.10073 5.25882 0
M  V30 3111 H 402.371 -6.30324 0.726794 0
M  V30 3112 P 404.228 -8.4349 2.47671 0
M  V30 3113 O 405.649 -8.94263 2.59668 0
M  V30 3114 O 403.868 -7.1704 3.19006 0
M  V30 3115 O 403.905 -8.16596 0.923387 0
M  V30 3116 C 403.744 -9.38537 0.108869 0
M  V30 3117 C 404.285 -9.08175 -1.28353 0
M  V30 3118 O 403.23 -8.44131 -1.84692 0
M  V30 3119 C 405.503 -8.18386 -1.42505 0
M  V30 3120 O 406.241 -8.3501 -2.60497 0
M  V30 3121 C 404.835 -6.80225 -1.25468 0
M  V30 3122 O 405.633 -5.81716 -1.90454 0
M  V30 3123 C 403.497 -7.02416 -1.9168 0
M  V30 3124 N 402.454 -6.31033 -1.20314 0
M  V30 3125 C 402.623 -5.98817 0.0994088 0
M  V30 3126 N 401.596 -5.35403 0.621694 0
M  V30 3127 C 400.711 -5.25212 -0.43376 0
M  V30 3128 C 399.444 -4.64602 -0.519722 0
M  V30 3129 N 398.879 -4.7568 -1.76013 0
M  V30 3130 C 399.481 -5.3653 -2.83017 0
M  V30 3131 N 400.658 -5.93676 -2.79782 0
M  V30 3132 C 401.233 -5.84061 -1.56249 0
M  V30 3133 H 404.712 -6.53498 -0.198729 0
M  V30 3134 H 406.195 -8.36622 -0.589963 0
M  V30 3135 H 404.501 -10.0273 -1.8081 0
M  V30 3136 H 404.311 -10.2138 0.558219 0
M  V30 3137 H 402.681 -9.6579 0.0444202 0
M  V30 3138 H 403.523 -6.23209 0.660562 0
M  V30 3139 H 405.321 -5.69466 -2.79593 0
M  V30 3140 P 407.179 -8.4349 -2.47671 0
M  V30 3141 O 408.601 -8.92593 -2.65 0
M  V30 3142 O 406.819 -7.7568 -1.19296 0
M  V30 3143 O 406.856 -7.36886 -3.63805 0
M  V30 3144 C 406.696 -7.95349 -4.982 0
M  V30 3145 C 407.236 -6.94612 -5.98974 0
M  V30 3146 O 406.18 -6.10347 -6.11815 0
M  V30 3147 C 408.454 -6.11426 -5.62335 0
M  V30 3148 O 409.192 -5.6162 -6.70584 0
M  V30 3149 C 407.785 -5.04409 -4.73308 0
M  V30 3150 O 408.584 -3.85992 -4.75183 0
M  V30 3151 C 406.448 -4.8728 -5.41006 0
M  V30 3152 H 406.48 -4.02333 -6.11157 0
M  V30 3153 H 407.663 -5.39466 -3.69543 0
M  V30 3154 H 409.147 -6.71916 -5.01943 0
M  V30 3155 H 407.453 -7.4649 -6.93477 0
M  V30 3156 H 407.263 -8.89416 -5.05237 0
M  V30 3157 H 405.633 -8.14876 -5.18409 0
M  V30 3158 H 408.272 -3.27957 -5.4317 0
M  V30 3159 P 410.129 -5.75688 -6.64379 0
M  V30 3160 O 411.551 -6.07627 -7.05504 0
M  V30 3161 O 409.769 -5.88047 -5.19722 0
M  V30 3162 O 409.806 -4.2322 -7.04443 0
M  V30 3163 C 409.646 -3.99743 -8.4911 0
M  V30 3164 C 410.186 -2.60516 -8.79425 0
M  V30 3165 O 409.13 -1.82684 -8.4467 0
M  V30 3166 C 411.404 -2.10343 -8.03628 0
M  V30 3167 O 412.142 -1.09919 -8.67766 0
M  V30 3168 C 410.735 -1.68446 -6.70876 0
M  V30 3169 O 411.534 -0.678137 -6.08433 0
M  V30 3170 C 409.398 -1.17436 -7.18567 0
M  V30 3171 H 409.43 -0.0804732 -7.31656 0
M  V30 3172 H 410.613 -2.54037 -6.02537 0
M  V30 3173 H 412.097 -2.93881 -7.85526 0
M  V30 3174 H 410.403 -2.53065 -9.86973 0
M  V30 3175 H 410.213 -4.75072 -9.05887 0
M  V30 3176 H 408.583 -4.05244 -8.76668 0
M  V30 3177 H 411.222 0.177647 -6.34251 0
M  V30 3178 P 413.08 -1.25109 -8.70152 0
M  V30 3179 O 414.502 -1.29744 -9.22016 0
M  V30 3180 O 412.72 -2.13714 -7.55141 0
M  V30 3181 O 412.757 0.248149 -8.21425 0
M  V30 3182 C 412.597 1.22779 -9.30434 0
M  V30 3183 C 413.137 2.56293 -8.80664 0
M  V30 3184 O 412.081 3.02979 -8.09349 0
M  V30 3185 C 414.355 2.57523 -7.89775 0
M  V30 3186 O 415.093 3.7668 -7.89438 0
M  V30 3187 C 413.686 2.20997 -6.55446 0
M  V30 3188 O 414.485 2.71895 -5.48509 0
M  V30 3189 C 412.349 2.89693 -6.67988 0
M  V30 3190 H 412.381 3.88793 -6.19859 0
M  V30 3191 H 413.564 1.12046 -6.44229 0
M  V30 3192 H 415.048 1.7746 -8.19711 0
M  V30 3193 H 413.354 3.20706 -9.67112 0
M  V30 3194 H 413.164 0.901032 -10.1892 0
M  V30 3195 H 411.534 1.33049 -9.56592 0
M  V30 3196 H 414.173 3.57847 -5.23962 0
M  V30 3197 P 416.03 3.65191 -7.99657 0
M  V30 3198 O 417.452 3.89332 -8.45794 0
M  V30 3199 O 415.67 2.28472 -7.50807 0
M  V30 3200 O 415.707 4.64972 -6.77611 0
M  V30 3201 C 415.547 6.06319 -7.16352 0
M  V30 3202 C 416.087 6.91731 -6.02299 0
M  V30 3203 O 415.031 6.92449 -5.17064 0
M  V30 3204 C 417.305 6.43627 -5.25174 0
M  V30 3205 O 418.043 7.43686 -4.60469 0
M  V30 3206 C 416.636 5.40275 -4.31916 0
M  V30 3207 O 417.435 5.25279 -3.14438 0
M  V30 3208 C 415.299 6.04847 -4.05327 0
M  V30 3209 H 415.331 6.62195 -3.11261 0
M  V30 3210 H 416.514 4.42556 -4.81383 0
M  V30 3211 H 417.998 5.92458 -5.93643 0
M  V30 3212 H 416.304 7.92655 -6.402 0
M  V30 3213 H 416.114 6.26671 -8.0846 0
M  V30 3214 H 414.484 6.29101 -7.32804 0
M  V30 3215 H 417.123 5.84315 -2.47318 0
M  V30 3216 P 418.981 7.39546 -4.75277 0
M  V30 3217 O 420.403 7.84798 -5.01039 0
M  V30 3218 O 418.621 5.9812 -5.08098 0
M  V30 3219 O 418.658 7.57503 -3.1866 0
M  V30 3220 C 418.498 8.97357 -2.74833 0
M  V30 3221 C 419.038 9.07548 -1.32709 0
M  V30 3222 O 417.982 8.62072 -0.606159 0
M  V30 3223 C 420.256 8.25383 -0.938334 0
M  V30 3224 O 420.994 8.74577 0.146954 0
M  V30 3225 C 419.587 6.8802 -0.712559 0
M  V30 3226 O 420.386 6.1189 0.194655 0
M  V30 3227 C 418.25 7.27966 -0.139777 0
M  V30 3228 H 418.282 7.25354 0.961601 0
M  V30 3229 H 419.465 6.32557 -1.65702 0
M  V30 3230 H 420.949 8.19355 -1.79097 0
M  V30 3231 H 419.255 10.1294 -1.10029 0
M  V30 3232 H 419.065 9.64276 -3.41316 0
M  V30 3233 H 417.435 9.25417 -2.76357 0
M  V30 3234 H 420.074 6.25267 1.07847 0
M  V30 3235 P 421.932 8.791 2.28317e-12 0
M  V30 3236 O 423.354 9.31296 0.027939 0
M  V30 3237 O 421.572 7.77869 -1.04071 0
M  V30 3238 O 421.609 8.09533 1.41463 0
M  V30 3239 C 421.449 9.0349 2.53943 0
M  V30 3240 C 421.989 8.35135 3.78975 0
M  V30 3241 O 420.934 7.57992 4.15078 0
M  V30 3242 C 423.207 7.45087 3.67298 0
M  V30 3243 O 423.945 7.27796 4.85194 0
M  V30 3244 C 422.539 6.17323 3.12027 0
M  V30 3245 O 423.337 5.04149 3.47132 0
M  V30 3246 C 421.201 6.19961 3.81809 0
M  V30 3247 N 420.158 5.71575 2.93223 0
M  V30 3248 C 420.22 5.97133 1.62693 0
M  V30 3249 N 419.175 5.44066 0.984414 0
M  V30 3250 C 418.441 4.87093 1.93987 0
M  V30 3251 C 417.135 4.26449 1.8738 0
M  V30 3252 O 416.402 4.1089 0.884377 0
M  V30 3253 N 416.705 3.82483 3.08036 0
M  V30 3254 C 417.454 3.95124 4.27727 0
M  V30 3255 N 416.857 3.4084 5.39089 0
M  V30 3256 N 418.607 4.55264 4.3706 0
M  V30 3257 C 419.064 5.00861 3.18217 0
M  V30 3258 H 421.233 5.58218 4.73051 0
M  V30 3259 H 422.416 6.21631 2.02558 0
M  V30 3260 H 423.901 7.85819 2.93096 0
M  V30 3261 H 422.206 9.11627 4.55076 0
M  V30 3262 H 422.016 9.9573 2.34194 0
M  V30 3263 H 420.385 9.2792 2.67832 0
M  V30 3264 H 415.809 3.38323 3.1329 0
M  V30 3265 H 421.016 6.53891 1.14265 0
M  V30 3266 H 415.946 2.93852 5.30559 0
M  V30 3267 H 417.322 3.47631 6.30632 0
M  V30 3268 H 423.026 4.67628 4.28704 0
M  V30 3269 P 424.882 7.39546 4.75277 0
M  V30 3270 O 426.304 7.81777 5.05738 0
M  V30 3271 O 424.522 7.1065 3.32998 0
M  V30 3272 O 424.559 6.04542 5.56673 0
M  V30 3273 C 424.399 6.22772 7.02095 0
M  V30 3274 C 424.939 4.97725 7.70406 0
M  V30 3275 O 423.883 4.13256 7.58987 0
M  V30 3276 C 426.157 4.28231 7.11815 0
M  V30 3277 O 426.895 3.49945 8.01648 0
M  V30 3278 C 425.488 3.5063 5.96244 0
M  V30 3279 O 426.287 2.36482 5.64681 0
M  V30 3280 C 424.151 3.15122 6.56374 0
M  V30 3281 H 424.183 2.13853 6.99751 0
M  V30 3282 H 425.366 4.13501 5.06559 0
M  V30 3283 H 426.85 5.03285 6.70911 0
M  V30 3284 H 425.156 5.20877 8.75697 0
M  V30 3285 H 424.966 7.11046 7.35349 0
M  V30 3286 H 423.336 6.35815 7.26986 0
M  V30 3287 H 425.975 1.61644 6.13565 0
M  V30 3288 P 427.833 3.65191 7.99657 0
M  V30 3289 O 429.255 3.8425 8.48115 0
M  V30 3290 O 427.473 4.17805 6.64342 0
M  V30 3291 O 427.51 2.07613 7.95143 0
M  V30 3292 C 427.35 1.44328 9.27336 0
M  V30 3293 C 427.89 0.0220036 9.17197 0
M  V30 3294 O 426.834 -0.626867 8.61923 0
M  V30 3295 C 429.108 -0.24586 8.30336 0
M  V30 3296 O 429.846 -1.39011 8.63583 0
M  V30 3297 C 428.439 -0.273849 6.91158 0
M  V30 3298 O 429.238 -1.06348 6.02892 0
M  V30 3299 C 427.102 -0.897649 7.22545 0
M  V30 3300 H 427.134 -1.9841 7.04286 0
M  V30 3301 H 428.317 0.739928 6.497 0
M  V30 3302 H 429.801 0.60668 8.36503 0
M  V30 3303 H 428.107 -0.352479 10.1829 0
M  V30 3304 H 427.917 2.00611 10.0304 0
M  V30 3305 H 426.287 1.41843 9.55327 0
M  V30 3306 H 428.926 -1.95734 6.03555 0
M  V30 3307 P 430.783 -1.25109 8.70152 0
M  V30 3308 O 432.205 -1.35274 9.21221 0
M  V30 3309 O 430.423 -0.0769065 7.84762 0
M  V30 3310 O 430.46 -2.55232 7.81161 0
M  V30 3311 C 430.3 -3.79939 8.58154 0
M  V30 3312 C 430.84 -4.94023 7.72785 0
M  V30 3313 O 429.784 -5.18726 6.91205 0
M  V30 3314 C 432.058 -4.69597 6.85231 0
M  V30 3315 O 432.796 -5.83832 6.51337 0
M  V30 3316 C 431.389 -3.96706 5.66633 0
M  V30 3317 O 432.188 -4.15414 4.49689 0
M  V30 3318 C 430.052 -4.66153 5.59313 0
M  V30 3319 H 430.084 -5.47679 4.85214 0
M  V30 3320 H 431.267 -2.89008 5.86566 0
M  V30 3321 H 432.751 -4.0121 7.36511 0
M  V30 3322 H 431.057 -5.80182 8.37584 0
M  V30 3323 H 430.867 -3.73517 9.52265 0
M  V30 3324 H 429.237 -3.97163 8.80359 0
M  V30 3325 H 431.876 -4.90969 4.01921 0
M  V30 3326 P 433.734 -5.75688 6.64379 0
M  V30 3327 O 435.156 -6.11849 7.01846 0
M  V30 3328 O 433.374 -4.30744 6.56026 0
M  V30 3329 O 433.411 -6.37042 5.19165 0
M  V30 3330 C 433.251 -7.83578 5.16515 0
M  V30 3331 C 433.791 -8.33398 3.83019 0
M  V30 3332 O 432.735 -8.10074 3.01034 0
M  V30 3333 C 435.009 -7.65514 3.2257 0
M  V30 3334 O 435.747 -8.4329 2.32297 0
M  V30 3335 C 434.34 -6.40075 2.62207 0
M  V30 3336 O 435.139 -5.92589 1.53712 0
M  V30 3337 C 433.003 -6.9454 2.18503 0
M  V30 3338 H 433.035 -7.23063 1.12091 0
M  V30 3339 H 434.218 -5.6025 3.37201 0
M  V30 3340 H 435.702 -7.35707 4.02681 0
M  V30 3341 H 434.008 -9.40912 3.9095 0
M  V30 3342 H 433.818 -8.29056 5.99158 0
M  V30 3343 H 432.188 -8.10073 5.25882 0
M  V30 3344 H 434.827 -6.30324 0.726794 0
M  V30 3345 P 436.684 -8.4349 2.47671 0
M  V30 3346 O 438.106 -8.94167 2.5964 0
M  V30 3347 O 436.324 -7.1704 3.19006 0
M  V30 3348 O 436.361 -8.16596 0.923387 0
M  V30 3349 C 436.201 -9.38437 0.108857 0
M  V30 3350 C 436.741 -9.08175 -1.28353 0
M  V30 3351 O 435.685 -8.44229 -1.84713 0
M  V30 3352 C 437.959 -8.18386 -1.42505 0
M  V30 3353 O 438.697 -8.3501 -2.60497 0
M  V30 3354 C 437.29 -6.80225 -1.25468 0
M  V30 3355 O 438.089 -5.81621 -1.91066 0
M  V30 3356 C 435.953 -7.02416 -1.9168 0
M  V30 3357 H 435.985 -6.6888 -2.96621 0
M  V30 3358 H 437.168 -6.53617 -0.192223 0
M  V30 3359 H 438.652 -8.36622 -0.589963 0
M  V30 3360 H 436.958 -10.0291 -1.79807 0
M  V30 3361 H 436.768 -10.2138 0.558219 0
M  V30 3362 H 435.138 -9.6579 0.0444202 0
M  V30 3363 H 437.777 -5.69556 -2.79637 0
M  V30 3364 P 439.635 -8.4349 -2.47671 0
M  V30 3365 O 441.057 -8.92593 -2.65 0
M  V30 3366 O 439.275 -7.7568 -1.19296 0
M  V30 3367 O 439.312 -7.36886 -3.63805 0
M  V30 3368 C 439.152 -7.95349 -4.982 0
M  V30 3369 C 439.692 -6.94612 -5.98974 0
M  V30 3370 O 438.636 -6.10347 -6.11815 0
M  V30 3371 C 440.91 -6.11426 -5.62335 0
M  V30 3372 O 441.648 -5.6162 -6.70584 0
M  V30 3373 C 440.241 -5.04409 -4.73308 0
M  V30 3374 O 441.04 -3.85992 -4.75183 0
M  V30 3375 C 438.904 -4.8728 -5.41006 0
M  V30 3376 H 438.936 -4.02333 -6.11157 0
M  V30 3377 H 440.119 -5.39466 -3.69543 0
M  V30 3378 H 441.603 -6.71916 -5.01943 0
M  V30 3379 H 439.909 -7.4649 -6.93477 0
M  V30 3380 H 439.719 -8.89416 -5.05237 0
M  V30 3381 H 438.089 -8.14876 -5.18409 0
M  V30 3382 H 440.728 -3.27957 -5.4317 0
M  V30 3383 P 442.586 -5.75688 -6.64379 0
M  V30 3384 O 444.008 -6.07627 -7.05504 0
M  V30 3385 O 442.226 -5.88047 -5.19722 0
M  V30 3386 O 442.263 -4.2322 -7.04443 0
M  V30 3387 C 442.103 -3.99743 -8.4911 0
M  V30 3388 C 442.643 -2.60516 -8.79425 0
M  V30 3389 O 441.587 -1.82684 -8.4467 0
M  V30 3390 C 443.861 -2.10343 -8.03628 0
M  V30 3391 O 444.599 -1.09919 -8.67766 0
M  V30 3392 C 443.192 -1.68446 -6.70876 0
M  V30 3393 O 443.991 -0.678137 -6.08433 0
M  V30 3394 C 441.855 -1.17436 -7.18567 0
M  V30 3395 H 441.887 -0.0804732 -7.31656 0
M  V30 3396 H 443.07 -2.54037 -6.02537 0
M  V30 3397 H 444.554 -2.93881 -7.85526 0
M  V30 3398 H 442.86 -2.53065 -9.86973 0
M  V30 3399 H 442.67 -4.75072 -9.05887 0
M  V30 3400 H 441.04 -4.05244 -8.76668 0
M  V30 3401 H 443.679 0.177647 -6.34251 0
M  V30 3402 P 445.536 -1.25109 -8.70152 0
M  V30 3403 O 446.958 -1.29772 -9.22214 0
M  V30 3404 O 445.176 -2.13714 -7.55141 0
M  V30 3405 O 445.213 0.248149 -8.21425 0
M  V30 3406 C 445.053 1.22779 -9.30434 0
M  V30 3407 C 445.593 2.56265 -8.80568 0
M  V30 3408 O 444.538 3.02979 -8.09349 0
M  V30 3409 C 446.811 2.57523 -7.89775 0
M  V30 3410 O 447.549 3.7668 -7.89438 0
M  V30 3411 C 446.143 2.20997 -6.55446 0
M  V30 3412 O 446.941 2.71851 -5.48419 0
M  V30 3413 C 444.805 2.89693 -6.67988 0
M  V30 3414 N 443.762 2.08895 -6.07487 0
M  V30 3415 C 443.824 0.760559 -6.14209 0
M  V30 3416 N 442.779 0.200108 -5.52538 0
M  V30 3417 C 442.045 1.22692 -5.09742 0
M  V30 3418 C 440.739 1.24782 -4.48775 0
M  V30 3419 O 440.006 0.290617 -4.19294 0
M  V30 3420 N 440.309 2.50468 -4.22428 0
M  V30 3421 C 441.058 3.67142 -4.51974 0
M  V30 3422 N 440.461 4.85096 -4.14091 0
M  V30 3423 N 442.211 3.67821 -5.12831 0
M  V30 3424 C 442.668 2.43698 -5.4105 0
M  V30 3425 H 444.837 3.88793 -6.19859 0
M  V30 3426 H 446.02 1.12029 -6.4413 0
M  V30 3427 H 447.505 1.78279 -8.19533 0
M  V30 3428 H 445.81 3.20706 -9.67112 0
M  V30 3429 H 445.62 0.901032 -10.1892 0
M  V30 3430 H 443.989 1.33049 -9.56592 0
M  V30 3431 H 439.413 2.61953 -3.79465 0
M  V30 3432 H 444.62 0.200439 -6.63497 0
M  V30 3433 H 439.55 4.8334 -3.66367 0
M  V30 3434 H 440.926 5.7474 -4.33841 0
M  V30 3435 H 446.63 3.5779 -5.23879 0
M  V30 3436 P 448.487 3.65191 -7.99657 0
M  V30 3437 O 449.909 3.89332 -8.45794 0
M  V30 3438 O 448.127 2.28472 -7.50807 0
M  V30 3439 O 448.164 4.64972 -6.77611 0
M  V30 3440 C 448.004 6.06319 -7.16352 0
M  V30 3441 C 448.544 6.91731 -6.02299 0
M  V30 3442 O 447.488 6.92449 -5.17064 0
M  V30 3443 C 449.762 6.43627 -5.25174 0
M  V30 3444 O 450.5 7.43686 -4.60469 0
M  V30 3445 C 449.093 5.40275 -4.31916 0
M  V30 3446 O 449.892 5.25279 -3.14438 0
M  V30 3447 C 447.756 6.04847 -4.05327 0
M  V30 3448 H 447.788 6.62195 -3.11261 0
M  V30 3449 H 448.971 4.42556 -4.81383 0
M  V30 3450 H 450.455 5.92458 -5.93643 0
M  V30 3451 H 448.761 7.92655 -6.402 0
M  V30 3452 H 448.571 6.26671 -8.0846 0
M  V30 3453 H 446.941 6.29101 -7.32804 0
M  V30 3454 H 449.58 5.84315 -2.47318 0
M  V30 3455 P 451.437 7.39546 -4.75277 0
M  V30 3456 O 452.859 7.84798 -5.01039 0
M  V30 3457 O 451.077 5.9812 -5.08098 0
M  V30 3458 O 451.114 7.57503 -3.1866 0
M  V30 3459 C 450.954 8.97357 -2.74833 0
M  V30 3460 C 451.494 9.07548 -1.32709 0
M  V30 3461 O 450.438 8.62072 -0.606159 0
M  V30 3462 C 452.712 8.25383 -0.938334 0
M  V30 3463 O 453.45 8.74577 0.146954 0
M  V30 3464 C 452.043 6.8802 -0.712559 0
M  V30 3465 O 452.842 6.1189 0.194655 0
M  V30 3466 C 450.706 7.27966 -0.139777 0
M  V30 3467 H 450.738 7.25354 0.961601 0
M  V30 3468 H 451.921 6.32557 -1.65702 0
M  V30 3469 H 453.405 8.19355 -1.79097 0
M  V30 3470 H 451.711 10.1294 -1.10029 0
M  V30 3471 H 451.521 9.64276 -3.41316 0
M  V30 3472 H 449.891 9.25417 -2.76357 0
M  V30 3473 H 452.53 6.25267 1.07847 0
M  V30 3474 P 454.388 8.791 2.59334e-12 0
M  V30 3475 O 455.789 9.36698 -0.018734 0
M  V30 3476 O 454.01 7.82499 -1.07878 0
M  V30 3477 O 454.065 8.09434 1.41446 0
M  V30 3478 C 453.905 9.0349 2.53943 0
M  V30 3479 C 454.445 8.35135 3.78975 0
M  V30 3480 O 453.389 7.57904 4.1503 0
M  V30 3481 C 455.662 7.45087 3.67298 0
M  V30 3482 O 456.401 7.27796 4.85194 0
M  V30 3483 C 454.995 6.17323 3.12027 0
M  V30 3484 O 455.793 5.04149 3.47132 0
M  V30 3485 C 453.657 6.19961 3.81809 0
M  V30 3486 N 452.614 5.71575 2.93223 0
M  V30 3487 C 451.579 4.99452 3.47592 0
M  V30 3488 O 451.618 4.7199 4.69732 0
M  V30 3489 N 450.567 4.58505 2.6803 0
M  V30 3490 C 450.615 4.85544 1.36995 0
M  V30 3491 N 449.605 4.45052 0.609031 0
M  V30 3492 C 451.711 5.55532 0.788532 0
M  V30 3493 C 452.677 5.97426 1.60849 0
M  V30 3494 H 453.689 5.58142 4.72986 0
M  V30 3495 H 454.872 6.21428 2.0318 0
M  V30 3496 H 456.356 7.85913 2.93131 0
M  V30 3497 H 454.662 9.11171 4.55987 0
M  V30 3498 H 454.471 9.9573 2.34194 0
M  V30 3499 H 452.841 9.27824 2.67805 0
M  V30 3500 H 451.759 5.7421 -0.281588 0
M  V30 3501 H 453.523 6.53132 1.202 0
M  V30 3502 H 448.815 3.94123 1.03159 0
M  V30 3503 H 449.61 4.64377 -0.400352 0
M  V30 3504 H 455.577 4.76386 4.34983 0
M  V30 3505 P 457.338 7.39546 4.75277 0
M  V30 3506 O 458.76 7.81777 5.05738 0
M  V30 3507 O 456.978 7.1065 3.32998 0
M  V30 3508 O 457.015 6.04542 5.56673 0
M  V30 3509 C 456.855 6.22772 7.02095 0
M  V30 3510 C 457.395 4.97725 7.70406 0
M  V30 3511 O 456.339 4.13256 7.58987 0
M  V30 3512 C 458.613 4.28231 7.11815 0
M  V30 3513 O 459.351 3.49945 8.01648 0
M  V30 3514 C 457.944 3.5063 5.96244 0
M  V30 3515 O 458.743 2.36482 5.64681 0
M  V30 3516 C 456.607 3.15122 6.56374 0
M  V30 3517 H 456.639 2.13853 6.99751 0
M  V30 3518 H 457.822 4.13501 5.06559 0
M  V30 3519 H 459.306 5.03285 6.70911 0
M  V30 3520 H 457.612 5.20877 8.75697 0
M  V30 3521 H 457.422 7.11046 7.35349 0
M  V30 3522 H 455.792 6.35815 7.26986 0
M  V30 3523 H 458.431 1.61644 6.13565 0
M  V30 3524 P 460.289 3.65191 7.99657 0
M  V30 3525 O 461.711 3.84333 8.48297 0
M  V30 3526 O 459.929 4.17805 6.64342 0
M  V30 3527 O 459.966 2.07613 7.95143 0
M  V30 3528 C 459.806 1.44328 9.27336 0
M  V30 3529 C 460.346 0.0220012 9.17097 0
M  V30 3530 O 459.291 -0.626867 8.61923 0
M  V30 3531 C 461.564 -0.24586 8.30336 0
M  V30 3532 O 462.302 -1.39011 8.63583 0
M  V30 3533 C 460.896 -0.273849 6.91158 0
M  V30 3534 O 461.694 -1.06331 6.02794 0
M  V30 3535 C 459.558 -0.897649 7.22545 0
M  V30 3536 N 458.515 -0.292839 6.41732 0
M  V30 3537 C 458.577 1.00068 6.10757 0
M  V30 3538 N 457.532 1.36468 5.35794 0
M  V30 3539 C 456.798 0.258894 5.2366 0
M  V30 3540 C 455.492 0.0670682 4.65752 0
M  V30 3541 O 454.759 0.902443 4.10497 0
M  V30 3542 N 455.062 -1.2131 4.75881 0
M  V30 3543 C 455.811 -2.24934 5.37101 0
M  V30 3544 N 455.214 -3.48783 5.33984 0
M  V30 3545 N 456.964 -2.0844 5.95684 0
M  V30 3546 C 457.421 -0.81395 5.87791 0
M  V30 3547 H 459.59 -1.9841 7.04286 0
M  V30 3548 H 460.773 0.739815 6.49601 0
M  V30 3549 H 462.258 0.598315 8.36563 0
M  V30 3550 H 460.563 -0.352479 10.1829 0
M  V30 3551 H 460.373 2.00611 10.0304 0
M  V30 3552 H 458.742 1.41843 9.55327 0
M  V30 3553 H 454.166 -1.44434 4.37895 0
M  V30 3554 H 459.373 1.67697 6.42268 0
M  V30 3555 H 454.303 -3.60543 4.87699 0
M  V30 3556 H 455.679 -4.29232 5.7819 0
M  V30 3557 H 461.383 -1.95704 6.0346 0
M  V30 3558 P 463.239 -1.25109 8.70152 0
M  V30 3559 O 464.661 -1.35274 9.21221 0
M  V30 3560 O 462.879 -0.0769065 7.84762 0
M  V30 3561 O 462.916 -2.55232 7.81161 0
M  V30 3562 C 462.756 -3.79939 8.58154 0
M  V30 3563 C 463.296 -4.94023 7.72785 0
M  V30 3564 O 462.24 -5.18726 6.91205 0
M  V30 3565 C 464.514 -4.69597 6.85231 0
M  V30 3566 O 465.252 -5.83832 6.51337 0
M  V30 3567 C 463.845 -3.96706 5.66633 0
M  V30 3568 O 464.644 -4.15414 4.49689 0
M  V30 3569 C 462.508 -4.66153 5.59313 0
M  V30 3570 H 462.54 -5.47679 4.85214 0
M  V30 3571 H 463.723 -2.89008 5.86566 0
M  V30 3572 H 465.207 -4.0121 7.36511 0
M  V30 3573 H 463.513 -5.80182 8.37584 0
M  V30 3574 H 463.323 -3.73517 9.52265 0
M  V30 3575 H 461.693 -3.97163 8.80359 0
M  V30 3576 H 464.332 -4.90969 4.01921 0
M  V30 3577 P 466.19 -5.75688 6.64379 0
M  V30 3578 O 467.612 -6.11849 7.01846 0
M  V30 3579 O 465.83 -4.30744 6.56026 0
M  V30 3580 O 465.867 -6.37042 5.19165 0
M  V30 3581 C 465.707 -7.83578 5.16515 0
M  V30 3582 C 466.247 -8.33398 3.83019 0
M  V30 3583 O 465.191 -8.10074 3.01034 0
M  V30 3584 C 467.465 -7.65514 3.2257 0
M  V30 3585 O 468.203 -8.4329 2.32297 0
M  V30 3586 C 466.796 -6.40075 2.62207 0
M  V30 3587 O 467.595 -5.92589 1.53712 0
M  V30 3588 C 465.459 -6.9454 2.18503 0
M  V30 3589 H 465.491 -7.23063 1.12091 0
M  V30 3590 H 466.674 -5.6025 3.37201 0
M  V30 3591 H 468.158 -7.35707 4.02681 0
M  V30 3592 H 466.464 -9.40912 3.9095 0
M  V30 3593 H 466.274 -8.29056 5.99158 0
M  V30 3594 H 464.644 -8.10073 5.25882 0
M  V30 3595 H 467.283 -6.30324 0.726794 0
M  V30 3596 P 469.141 -8.4349 2.47671 0
M  V30 3597 O 470.563 -8.94167 2.5964 0
M  V30 3598 O 468.781 -7.1704 3.19006 0
M  V30 3599 O 468.818 -8.16596 0.923387 0
M  V30 3600 C 468.658 -9.38437 0.108857 0
M  V30 3601 C 469.198 -9.08175 -1.28353 0
M  V30 3602 O 468.142 -8.44229 -1.84713 0
M  V30 3603 C 470.416 -8.18386 -1.42505 0
M  V30 3604 O 471.154 -8.3501 -2.60497 0
M  V30 3605 C 469.747 -6.80225 -1.25468 0
M  V30 3606 O 470.546 -5.81621 -1.91066 0
M  V30 3607 C 468.41 -7.02416 -1.9168 0
M  V30 3608 H 468.442 -6.6888 -2.96621 0
M  V30 3609 H 469.625 -6.53617 -0.192223 0
M  V30 3610 H 471.109 -8.36622 -0.589963 0
M  V30 3611 H 469.415 -10.0291 -1.79807 0
M  V30 3612 H 469.225 -10.2138 0.558219 0
M  V30 3613 H 467.595 -9.6579 0.0444202 0
M  V30 3614 H 470.234 -5.69556 -2.79637 0
M  V30 3615 P 472.091 -8.4349 -2.47671 0
M  V30 3616 O 473.513 -8.92593 -2.65 0
M  V30 3617 O 471.731 -7.7568 -1.19296 0
M  V30 3618 O 471.768 -7.36886 -3.63805 0
M  V30 3619 C 471.608 -7.95349 -4.982 0
M  V30 3620 C 472.148 -6.94612 -5.98974 0
M  V30 3621 O 471.092 -6.10347 -6.11815 0
M  V30 3622 C 473.366 -6.11426 -5.62335 0
M  V30 3623 O 474.104 -5.6162 -6.70584 0
M  V30 3624 C 472.697 -5.04409 -4.73308 0
M  V30 3625 O 473.496 -3.85992 -4.75183 0
M  V30 3626 C 471.36 -4.8728 -5.41006 0
M  V30 3627 H 471.392 -4.02333 -6.11157 0
M  V30 3628 H 472.575 -5.39466 -3.69543 0
M  V30 3629 H 474.059 -6.71916 -5.01943 0
M  V30 3630 H 472.365 -7.4649 -6.93477 0
M  V30 3631 H 472.175 -8.89416 -5.05237 0
M  V30 3632 H 470.545 -8.14876 -5.18409 0
M  V30 3633 H 473.184 -3.27957 -5.4317 0
M  V30 3634 P 475.042 -5.75688 -6.64379 0
M  V30 3635 O 476.464 -6.07627 -7.05504 0
M  V30 3636 O 474.682 -5.88047 -5.19722 0
M  V30 3637 O 474.719 -4.2322 -7.04443 0
M  V30 3638 C 474.559 -3.99743 -8.4911 0
M  V30 3639 C 475.099 -2.60516 -8.79425 0
M  V30 3640 O 474.043 -1.82684 -8.4467 0
M  V30 3641 C 476.317 -2.10343 -8.03628 0
M  V30 3642 O 477.055 -1.09919 -8.67766 0
M  V30 3643 C 475.648 -1.68446 -6.70876 0
M  V30 3644 O 476.447 -0.678137 -6.08433 0
M  V30 3645 C 474.311 -1.17436 -7.18567 0
M  V30 3646 H 474.343 -0.0804732 -7.31656 0
M  V30 3647 H 475.526 -2.54037 -6.02537 0
M  V30 3648 H 477.01 -2.93881 -7.85526 0
M  V30 3649 H 475.316 -2.53065 -9.86973 0
M  V30 3650 H 475.126 -4.75072 -9.05887 0
M  V30 3651 H 473.496 -4.05244 -8.76668 0
M  V30 3652 H 476.135 0.177647 -6.34251 0
M  V30 3653 P 477.992 -1.25109 -8.70152 0
M  V30 3654 O 479.414 -1.29744 -9.22016 0
M  V30 3655 O 477.632 -2.13714 -7.55141 0
M  V30 3656 O 477.669 0.248149 -8.21425 0
M  V30 3657 C 477.509 1.22779 -9.30434 0
M  V30 3658 C 478.049 2.56293 -8.80664 0
M  V30 3659 O 476.993 3.02979 -8.09349 0
M  V30 3660 C 479.267 2.57523 -7.89775 0
M  V30 3661 O 480.005 3.7668 -7.89438 0
M  V30 3662 C 478.598 2.20997 -6.55446 0
M  V30 3663 O 479.397 2.71895 -5.48509 0
M  V30 3664 C 477.261 2.89693 -6.67988 0
M  V30 3665 H 477.293 3.88793 -6.19859 0
M  V30 3666 H 478.476 1.12046 -6.44229 0
M  V30 3667 H 479.96 1.7746 -8.19711 0
M  V30 3668 H 478.266 3.20706 -9.67112 0
M  V30 3669 H 478.076 0.901032 -10.1892 0
M  V30 3670 H 476.446 1.33049 -9.56592 0
M  V30 3671 H 479.085 3.57847 -5.23962 0
M  V30 3672 P 480.943 3.65191 -7.99657 0
M  V30 3673 O 482.365 3.89332 -8.45794 0
M  V30 3674 O 480.583 2.28472 -7.50807 0
M  V30 3675 O 480.62 4.64972 -6.77611 0
M  V30 3676 C 480.46 6.06319 -7.16352 0
M  V30 3677 C 481 6.91731 -6.02299 0
M  V30 3678 O 479.944 6.92449 -5.17064 0
M  V30 3679 C 482.218 6.43627 -5.25174 0
M  V30 3680 O 482.956 7.43686 -4.60469 0
M  V30 3681 C 481.549 5.40275 -4.31916 0
M  V30 3682 O 482.348 5.25279 -3.14438 0
M  V30 3683 C 480.212 6.04847 -4.05327 0
M  V30 3684 H 480.244 6.62195 -3.11261 0
M  V30 3685 H 481.427 4.42556 -4.81383 0
M  V30 3686 H 482.911 5.92458 -5.93643 0
M  V30 3687 H 481.217 7.92655 -6.402 0
M  V30 3688 H 481.027 6.26671 -8.0846 0
M  V30 3689 H 479.397 6.29101 -7.32804 0
M  V30 3690 H 482.036 5.84315 -2.47318 0
M  V30 3691 P 483.893 7.39546 -4.75277 0
M  V30 3692 O 485.315 7.84798 -5.01039 0
M  V30 3693 O 483.533 5.9812 -5.08098 0
M  V30 3694 O 483.57 7.57503 -3.1866 0
M  V30 3695 C 483.41 8.97357 -2.74833 0
M  V30 3696 C 483.95 9.07548 -1.32709 0
M  V30 3697 O 482.894 8.62072 -0.606159 0
M  V30 3698 C 485.168 8.25383 -0.938334 0
M  V30 3699 O 485.906 8.74577 0.146954 0
M  V30 3700 C 484.499 6.8802 -0.712559 0
M  V30 3701 O 485.298 6.1189 0.194655 0
M  V30 3702 C 483.162 7.27966 -0.139777 0
M  V30 3703 H 483.194 7.25354 0.961601 0
M  V30 3704 H 484.377 6.32557 -1.65702 0
M  V30 3705 H 485.861 8.19355 -1.79097 0
M  V30 3706 H 484.167 10.1294 -1.10029 0
M  V30 3707 H 483.977 9.64276 -3.41316 0
M  V30 3708 H 482.347 9.25417 -2.76357 0
M  V30 3709 H 484.986 6.25267 1.07847 0
M  V30 3710 P 486.844 8.791 2.9035e-12 0
M  V30 3711 O 488.266 9.31096 0.027933 0
M  V30 3712 O 486.484 7.77869 -1.04071 0
M  V30 3713 O 486.521 8.09533 1.41463 0
M  V30 3714 C 486.361 9.0349 2.53943 0
M  V30 3715 C 486.901 8.35226 3.79016 0
M  V30 3716 O 485.845 7.57992 4.15078 0
M  V30 3717 C 488.119 7.45087 3.67298 0
M  V30 3718 O 488.857 7.27796 4.85194 0
M  V30 3719 C 487.45 6.17323 3.12027 0
M  V30 3720 O 488.249 5.04231 3.47188 0
M  V30 3721 C 486.113 6.19961 3.81809 0
M  V30 3722 H 486.145 5.58218 4.73051 0
M  V30 3723 H 487.328 6.21726 2.02589 0
M  V30 3724 H 488.812 7.86112 2.9231 0
M  V30 3725 H 487.118 9.11627 4.55076 0
M  V30 3726 H 486.928 9.9573 2.34194 0
M  V30 3727 H 485.298 9.2792 2.67832 0
M  V30 3728 H 487.937 4.67702 4.28772 0
M  V30 3729 P 489.795 7.39546 4.75277 0
M  V30 3730 O 491.217 7.81777 5.05738 0
M  V30 3731 O 489.435 7.1065 3.32998 0
M  V30 3732 O 489.472 6.04542 5.56673 0
M  V30 3733 C 489.312 6.22772 7.02095 0
M  V30 3734 C 489.852 4.97725 7.70406 0
M  V30 3735 O 488.796 4.13256 7.58987 0
M  V30 3736 C 491.07 4.28231 7.11815 0
M  V30 3737 O 491.808 3.49945 8.01648 0
M  V30 3738 C 490.401 3.5063 5.96244 0
M  V30 3739 O 491.2 2.36482 5.64681 0
M  V30 3740 C 489.064 3.15122 6.56374 0
M  V30 3741 H 489.096 2.13853 6.99751 0
M  V30 3742 H 490.279 4.13501 5.06559 0
M  V30 3743 H 491.763 5.03285 6.70911 0
M  V30 3744 H 490.069 5.20877 8.75697 0
M  V30 3745 H 489.879 7.11046 7.35349 0
M  V30 3746 H 488.249 6.35815 7.26986 0
M  V30 3747 H 490.888 1.61644 6.13565 0
M  V30 3748 P 492.745 3.65191 7.99657 0
M  V30 3749 O 494.167 3.8425 8.48115 0
M  V30 3750 O 492.385 4.17805 6.64342 0
M  V30 3751 O 492.422 2.07613 7.95143 0
M  V30 3752 C 492.262 1.44328 9.27336 0
M  V30 3753 C 492.802 0.0220036 9.17197 0
M  V30 3754 O 491.746 -0.626867 8.61923 0
M  V30 3755 C 494.02 -0.24586 8.30336 0
M  V30 3756 O 494.758 -1.39011 8.63583 0
M  V30 3757 C 493.351 -0.273849 6.91158 0
M  V30 3758 O 494.15 -1.06348 6.02892 0
M  V30 3759 C 492.014 -0.897649 7.22545 0
M  V30 3760 H 492.046 -1.9841 7.04286 0
M  V30 3761 H 493.229 0.739928 6.497 0
M  V30 3762 H 494.713 0.60668 8.36503 0
M  V30 3763 H 493.019 -0.352479 10.1829 0
M  V30 3764 H 492.829 2.00611 10.0304 0
M  V30 3765 H 491.199 1.41843 9.55327 0
M  V30 3766 H 493.838 -1.95734 6.03555 0
M  V30 3767 P 495.696 -1.25109 8.70152 0
M  V30 3768 O 497.118 -1.35303 9.21419 0
M  V30 3769 O 495.336 -0.0769065 7.84762 0
M  V30 3770 O 495.373 -2.55232 7.81161 0
M  V30 3771 C 495.213 -3.79939 8.58154 0
M  V30 3772 C 495.753 -4.93969 7.72701 0
M  V30 3773 O 494.698 -5.18726 6.91205 0
M  V30 3774 C 496.971 -4.69597 6.85231 0
M  V30 3775 O 497.709 -5.83832 6.51337 0
M  V30 3776 C 496.303 -3.96706 5.66633 0
M  V30 3777 O 497.101 -4.15346 4.49615 0
M  V30 3778 C 494.965 -4.66153 5.59313 0
M  V30 3779 N 493.922 -3.71582 5.24027 0
M  V30 3780 C 493.984 -2.46018 5.67902 0
M  V30 3781 N 492.939 -1.74868 5.24518 0
M  V30 3782 C 492.205 -2.61333 4.54528 0
M  V30 3783 C 490.899 -2.46162 3.95441 0
M  V30 3784 O 490.166 -1.46013 3.94122 0
M  V30 3785 N 490.469 -3.59334 3.34752 0
M  V30 3786 C 491.218 -4.79605 3.3023 0
M  V30 3787 N 490.621 -5.82109 2.6065 0
M  V30 3788 N 492.371 -4.97402 3.8843 0
M  V30 3789 C 492.828 -3.86258 4.50476 0
M  V30 3790 H 494.997 -5.47679 4.85214 0
M  V30 3791 H 496.18 -2.88964 5.86476 0
M  V30 3792 H 497.665 -4.01947 7.36109 0
M  V30 3793 H 495.97 -5.80182 8.37584 0
M  V30 3794 H 495.78 -3.73517 9.52265 0
M  V30 3795 H 494.149 -3.97163 8.80359 0
M  V30 3796 H 489.573 -3.5825 2.90294 0
M  V30 3797 H 494.78 -2.06161 6.30974 0
M  V30 3798 H 489.71 -5.66979 2.15354 0
M  V30 3799 H 491.086 -6.73686 2.54344 0
M  V30 3800 H 496.79 -4.90891 4.01857 0
M  V30 3801 P 498.646 -5.75688 6.64379 0
M  V30 3802 O 500.067 -6.11915 7.01921 0
M  V30 3803 O 498.286 -4.30744 6.56026 0
M  V30 3804 O 498.323 -6.37042 5.19165 0
M  V30 3805 C 498.162 -7.83662 5.1657 0
M  V30 3806 C 498.703 -8.33398 3.83019 0
M  V30 3807 O 497.648 -8.0998 3.00999 0
M  V30 3808 C 499.921 -7.65514 3.2257 0
M  V30 3809 O 500.659 -8.4329 2.32297 0
M  V30 3810 C 499.253 -6.40075 2.62207 0
M  V30 3811 O 500.051 -5.92338 1.5428 0
M  V30 3812 C 497.915 -6.9454 2.18503 0
M  V30 3813 N 496.872 -5.95905 2.39948 0
M  V30 3814 C 497.041 -4.98383 3.32108 0
M  V30 3815 N 496.014 -4.16798 3.41761 0
M  V30 3816 C 495.129 -4.65287 2.47461 0
M  V30 3817 C 493.862 -4.18946 2.07461 0
M  V30 3818 N 493.297 -4.95327 1.09101 0
M  V30 3819 C 493.899 -6.04369 0.519812 0
M  V30 3820 N 495.076 -6.50694 0.855982 0
M  V30 3821 C 495.651 -5.75818 1.84322 0
M  V30 3822 H 499.13 -5.60502 3.36589 0
M  V30 3823 H 500.613 -7.35707 4.02681 0
M  V30 3824 H 498.919 -9.41302 3.90009 0
M  V30 3825 H 498.729 -8.29056 5.99158 0
M  V30 3826 H 497.099 -8.10073 5.25882 0
M  V30 3827 H 497.941 -4.88564 3.92502 0
M  V30 3828 H 499.739 -6.30224 0.72668 0
M  V30 3829 P 501.597 -8.4349 2.47671 0
M  V30 3830 O 503.019 -8.94167 2.5964 0
M  V30 3831 O 501.237 -7.1704 3.19006 0
M  V30 3832 O 501.274 -8.16596 0.923387 0
M  V30 3833 C 501.114 -9.38437 0.108857 0
M  V30 3834 C 501.654 -9.08175 -1.28353 0
M  V30 3835 O 500.598 -8.44229 -1.84713 0
M  V30 3836 C 502.872 -8.18386 -1.42505 0
M  V30 3837 O 503.61 -8.3501 -2.60497 0
M  V30 3838 C 502.203 -6.80225 -1.25468 0
M  V30 3839 O 503.002 -5.81621 -1.91066 0
M  V30 3840 C 500.866 -7.02416 -1.9168 0
M  V30 3841 H 500.898 -6.6888 -2.96621 0
M  V30 3842 H 502.081 -6.53617 -0.192223 0
M  V30 3843 H 503.565 -8.36622 -0.589963 0
M  V30 3844 H 501.871 -10.0291 -1.79807 0
M  V30 3845 H 501.681 -10.2138 0.558219 0
M  V30 3846 H 500.051 -9.6579 0.0444202 0
M  V30 3847 H 502.69 -5.69556 -2.79637 0
M  V30 3848 P 504.547 -8.4349 -2.47671 0
M  V30 3849 O 505.968 -8.92689 -2.65029 0
M  V30 3850 O 504.187 -7.7568 -1.19296 0
M  V30 3851 O 504.224 -7.36886 -3.63805 0
M  V30 3852 C 504.063 -7.95433 -4.98253 0
M  V30 3853 C 504.604 -6.94612 -5.98974 0
M  V30 3854 O 503.549 -6.10277 -6.11744 0
M  V30 3855 C 505.822 -6.11426 -5.62335 0
M  V30 3856 O 506.56 -5.6162 -6.70584 0
M  V30 3857 C 505.154 -5.04409 -4.73308 0
M  V30 3858 O 505.952 -3.86404 -4.74719 0
M  V30 3859 C 503.816 -4.8728 -5.41006 0
M  V30 3860 N 502.773 -4.65812 -4.42377 0
M  V30 3861 C 502.942 -5.09132 -3.15382 0
M  V30 3862 N 501.915 -4.84021 -2.3716 0
M  V30 3863 C 501.03 -4.18386 -3.20441 0
M  V30 3864 C 499.763 -3.6275 -2.94905 0
M  V30 3865 N 499.164 -3.65794 -1.73372 0
M  V30 3866 N 499.198 -3.05008 -4.05243 0
M  V30 3867 C 499.8 -2.98348 -5.28159 0
M  V30 3868 N 500.977 -3.48171 -5.56333 0
M  V30 3869 C 501.552 -4.06869 -4.47212 0
M  V30 3870 H 503.848 -4.02278 -6.11074 0
M  V30 3871 H 505.031 -5.39013 -3.70026 0
M  V30 3872 H 506.514 -6.71916 -5.01943 0
M  V30 3873 H 504.82 -7.45796 -6.94223 0
M  V30 3874 H 504.63 -8.89416 -5.05237 0
M  V30 3875 H 503 -8.14876 -5.18409 0
M  V30 3876 H 499.264 -2.47853 -6.07807 0
M  V30 3877 H 503.842 -5.59989 -2.81362 0
M  V30 3878 H 498.234 -3.23218 -1.60782 0
M  V30 3879 H 499.638 -4.10523 -0.937856 0
M  V30 3880 H 505.64 -3.27906 -5.43085 0
M  V30 3881 P 507.498 -5.75688 -6.64379 0
M  V30 3882 O 508.92 -6.07627 -7.05504 0
M  V30 3883 O 507.138 -5.88047 -5.19722 0
M  V30 3884 O 507.175 -4.2322 -7.04443 0
M  V30 3885 C 507.015 -3.99743 -8.4911 0
M  V30 3886 C 507.555 -2.60516 -8.79425 0
M  V30 3887 O 506.499 -1.82684 -8.4467 0
M  V30 3888 C 508.773 -2.10343 -8.03628 0
M  V30 3889 O 509.511 -1.09919 -8.67766 0
M  V30 3890 C 508.104 -1.68446 -6.70876 0
M  V30 3891 O 508.903 -0.678137 -6.08433 0
M  V30 3892 C 506.767 -1.17436 -7.18567 0
M  V30 3893 H 506.799 -0.0804732 -7.31656 0
M  V30 3894 H 507.982 -2.54037 -6.02537 0
M  V30 3895 H 509.466 -2.93881 -7.85526 0
M  V30 3896 H 507.772 -2.53065 -9.86973 0
M  V30 3897 H 507.582 -4.75072 -9.05887 0
M  V30 3898 H 505.952 -4.05244 -8.76668 0
M  V30 3899 H 508.591 0.177647 -6.34251 0
M  V30 3900 P 510.449 -1.25109 -8.70152 0
M  V30 3901 O 511.871 -1.29744 -9.22016 0
M  V30 3902 O 510.089 -2.13714 -7.55141 0
M  V30 3903 O 510.126 0.248149 -8.21425 0
M  V30 3904 C 509.966 1.22779 -9.30434 0
M  V30 3905 C 510.506 2.56293 -8.80664 0
M  V30 3906 O 509.45 3.02979 -8.09349 0
M  V30 3907 C 511.724 2.57523 -7.89775 0
M  V30 3908 O 512.462 3.7668 -7.89438 0
M  V30 3909 C 511.055 2.20997 -6.55446 0
M  V30 3910 O 511.854 2.71895 -5.48509 0
M  V30 3911 C 509.718 2.89693 -6.67988 0
M  V30 3912 H 509.75 3.88793 -6.19859 0
M  V30 3913 H 510.933 1.12046 -6.44229 0
M  V30 3914 H 512.417 1.7746 -8.19711 0
M  V30 3915 H 510.723 3.20706 -9.67112 0
M  V30 3916 H 510.533 0.901032 -10.1892 0
M  V30 3917 H 508.903 1.33049 -9.56592 0
M  V30 3918 H 511.542 3.57847 -5.23962 0
M  V30 3919 P 513.399 3.65191 -7.99657 0
M  V30 3920 O 514.821 3.89332 -8.45794 0
M  V30 3921 O 513.039 2.28472 -7.50807 0
M  V30 3922 O 513.076 4.64972 -6.77611 0
M  V30 3923 C 512.916 6.06319 -7.16352 0
M  V30 3924 C 513.456 6.91731 -6.02299 0
M  V30 3925 O 512.4 6.92449 -5.17064 0
M  V30 3926 C 514.674 6.43627 -5.25174 0
M  V30 3927 O 515.412 7.43686 -4.60469 0
M  V30 3928 C 514.005 5.40275 -4.31916 0
M  V30 3929 O 514.804 5.25279 -3.14438 0
M  V30 3930 C 512.668 6.04847 -4.05327 0
M  V30 3931 H 512.7 6.62195 -3.11261 0
M  V30 3932 H 513.883 4.42556 -4.81383 0
M  V30 3933 H 515.367 5.92458 -5.93643 0
M  V30 3934 H 513.673 7.92655 -6.402 0
M  V30 3935 H 513.483 6.26671 -8.0846 0
M  V30 3936 H 511.853 6.29101 -7.32804 0
M  V30 3937 H 514.492 5.84315 -2.47318 0
M  V30 3938 P 516.35 7.39546 -4.75277 0
M  V30 3939 O 517.772 7.84798 -5.01039 0
M  V30 3940 O 515.99 5.9812 -5.08098 0
M  V30 3941 O 516.027 7.57503 -3.1866 0
M  V30 3942 C 515.867 8.97357 -2.74833 0
M  V30 3943 C 516.407 9.07548 -1.32709 0
M  V30 3944 O 515.351 8.62072 -0.606159 0
M  V30 3945 C 517.625 8.25383 -0.938334 0
M  V30 3946 O 518.363 8.74577 0.146954 0
M  V30 3947 C 516.956 6.8802 -0.712559 0
M  V30 3948 O 517.755 6.1189 0.194655 0
M  V30 3949 C 515.619 7.27966 -0.139777 0
M  V30 3950 H 515.651 7.25354 0.961601 0
M  V30 3951 H 516.834 6.32557 -1.65702 0
M  V30 3952 H 518.318 8.19355 -1.79097 0
M  V30 3953 H 516.624 10.1294 -1.10029 0
M  V30 3954 H 516.434 9.64276 -3.41316 0
M  V30 3955 H 514.804 9.25417 -2.76357 0
M  V30 3956 H 517.443 6.25267 1.07847 0
M  V30 3957 P 519.3 8.791 3.21367e-12 0
M  V30 3958 O 520.721 9.31196 0.027936 0
M  V30 3959 O 518.94 7.77869 -1.04071 0
M  V30 3960 O 518.977 8.09533 1.41463 0
M  V30 3961 C 518.816 9.03587 2.5397 0
M  V30 3962 C 519.357 8.35226 3.79016 0
M  V30 3963 O 518.302 7.57904 4.1503 0
M  V30 3964 C 520.575 7.45087 3.67298 0
M  V30 3965 O 521.313 7.27796 4.85194 0
M  V30 3966 C 519.907 6.17323 3.12027 0
M  V30 3967 O 520.705 5.04496 3.46627 0
M  V30 3968 C 518.569 6.19961 3.81809 0
M  V30 3969 N 517.526 5.71575 2.93223 0
M  V30 3970 C 517.695 5.77362 1.59168 0
M  V30 3971 N 516.668 5.3123 0.911893 0
M  V30 3972 C 515.783 4.91717 1.89588 0
M  V30 3973 C 514.516 4.3114 1.8076 0
M  V30 3974 N 513.917 3.99821 0.632928 0
M  V30 3975 N 513.951 4.06823 3.02898 0
M  V30 3976 C 514.553 4.35062 4.22711 0
M  V30 3977 N 515.73 4.90805 4.35707 0
M  V30 3978 C 516.305 5.16382 3.14469 0
M  V30 3979 H 518.601 5.58142 4.72986 0
M  V30 3980 H 519.784 6.21428 2.0318 0
M  V30 3981 H 521.267 7.86112 2.9231 0
M  V30 3982 H 519.573 9.11171 4.55987 0
M  V30 3983 H 519.383 9.9573 2.34194 0
M  V30 3984 H 517.753 9.2792 2.67832 0
M  V30 3985 H 514.017 4.09052 5.13359 0
M  V30 3986 H 518.595 6.16575 1.12198 0
M  V30 3987 H 512.987 3.55423 0.632085 0
M  V30 3988 H 514.391 4.20317 -0.256712 0
M  V30 3989 H 520.393 4.67628 4.28704 0
M  V30 3990 P 522.251 7.39546 4.75277 0
M  V30 3991 O 523.673 7.81777 5.05738 0
M  V30 3992 O 521.891 7.1065 3.32998 0
M  V30 3993 O 521.928 6.04542 5.56673 0
M  V30 3994 C 521.768 6.22772 7.02095 0
M  V30 3995 C 522.308 4.97725 7.70406 0
M  V30 3996 O 521.252 4.13256 7.58987 0
M  V30 3997 C 523.526 4.28231 7.11815 0
M  V30 3998 O 524.264 3.49945 8.01648 0
M  V30 3999 C 522.857 3.5063 5.96244 0
M  V30 4000 O 523.656 2.36482 5.64681 0
M  V30 4001 C 521.52 3.15122 6.56374 0
M  V30 4002 H 521.552 2.13853 6.99751 0
M  V30 4003 H 522.735 4.13501 5.06559 0
M  V30 4004 H 524.219 5.03285 6.70911 0
M  V30 4005 H 522.525 5.20877 8.75697 0
M  V30 4006 H 522.335 7.11046 7.35349 0
M  V30 4007 H 520.705 6.35815 7.26986 0
M  V30 4008 H 523.344 1.61644 6.13565 0
M  V30 4009 P 525.201 3.65191 7.99657 0
M  V30 4010 O 526.623 3.8425 8.48115 0
M  V30 4011 O 524.841 4.17805 6.64342 0
M  V30 4012 O 524.878 2.07613 7.95143 0
M  V30 4013 C 524.718 1.44328 9.27336 0
M  V30 4014 C 525.258 0.0220036 9.17197 0
M  V30 4015 O 524.202 -0.626867 8.61923 0
M  V30 4016 C 526.476 -0.24586 8.30336 0
M  V30 4017 O 527.214 -1.39011 8.63583 0
M  V30 4018 C 525.807 -0.273849 6.91158 0
M  V30 4019 O 526.606 -1.06348 6.02892 0
M  V30 4020 C 524.47 -0.897649 7.22545 0
M  V30 4021 H 524.502 -1.9841 7.04286 0
M  V30 4022 H 525.685 0.739928 6.497 0
M  V30 4023 H 527.169 0.60668 8.36503 0
M  V30 4024 H 525.475 -0.352479 10.1829 0
M  V30 4025 H 525.285 2.00611 10.0304 0
M  V30 4026 H 523.655 1.41843 9.55327 0
M  V30 4027 H 526.294 -1.95734 6.03555 0
M  V30 4028 P 528.152 -1.25109 8.70152 0
M  V30 4029 O 529.574 -1.35274 9.21221 0
M  V30 4030 O 527.792 -0.0769065 7.84762 0
M  V30 4031 O 527.829 -2.55232 7.81161 0
M  V30 4032 C 527.669 -3.79939 8.58154 0
M  V30 4033 C 528.209 -4.94023 7.72785 0
M  V30 4034 O 527.153 -5.18726 6.91205 0
M  V30 4035 C 529.427 -4.69597 6.85231 0
M  V30 4036 O 530.165 -5.83832 6.51337 0
M  V30 4037 C 528.758 -3.96706 5.66633 0
M  V30 4038 O 529.557 -4.15414 4.49689 0
M  V30 4039 C 527.421 -4.66153 5.59313 0
M  V30 4040 H 527.453 -5.47679 4.85214 0
M  V30 4041 H 528.636 -2.89008 5.86566 0
M  V30 4042 H 530.12 -4.0121 7.36511 0
M  V30 4043 H 528.426 -5.80182 8.37584 0
M  V30 4044 H 528.236 -3.73517 9.52265 0
M  V30 4045 H 526.606 -3.97163 8.80359 0
M  V30 4046 H 529.245 -4.90969 4.01921 0
M  V30 4047 P 531.103 -5.75688 6.64379 0
M  V30 4048 O 532.524 -6.11915 7.01921 0
M  V30 4049 O 530.743 -4.30744 6.56026 0
M  V30 4050 O 530.78 -6.37042 5.19165 0
M  V30 4051 C 530.619 -7.83662 5.1657 0
M  V30 4052 C 531.16 -8.33398 3.83019 0
M  V30 4053 O 530.105 -8.0998 3.00999 0
M  V30 4054 C 532.378 -7.65514 3.2257 0
M  V30 4055 O 533.116 -8.4329 2.32297 0
M  V30 4056 C 531.71 -6.40075 2.62207 0
M  V30 4057 O 532.508 -5.92338 1.5428 0
M  V30 4058 C 530.372 -6.9454 2.18503 0
M  V30 4059 N 529.329 -5.95905 2.39948 0
M  V30 4060 C 529.498 -4.98383 3.32108 0
M  V30 4061 N 528.471 -4.16798 3.41761 0
M  V30 4062 C 527.586 -4.65287 2.47461 0
M  V30 4063 C 526.319 -4.18946 2.07461 0
M  V30 4064 N 525.754 -4.95327 1.09101 0
M  V30 4065 C 526.356 -6.04369 0.519812 0
M  V30 4066 N 527.533 -6.50694 0.855982 0
M  V30 4067 C 528.108 -5.75818 1.84322 0
M  V30 4068 H 531.587 -5.60502 3.36589 0
M  V30 4069 H 533.07 -7.35707 4.02681 0
M  V30 4070 H 531.376 -9.41302 3.90009 0
M  V30 4071 H 531.186 -8.29056 5.99158 0
M  V30 4072 H 529.556 -8.10073 5.25882 0
M  V30 4073 H 530.398 -4.88564 3.92502 0
M  V30 4074 H 532.196 -6.30224 0.72668 0
M  V30 4075 P 534.053 -8.4349 2.47671 0
M  V30 4076 O 535.475 -8.94167 2.5964 0
M  V30 4077 O 533.693 -7.1704 3.19006 0
M  V30 4078 O 533.73 -8.16596 0.923387 0
M  V30 4079 C 533.57 -9.38437 0.108857 0
M  V30 4080 C 534.11 -9.08175 -1.28353 0
M  V30 4081 O 533.054 -8.44229 -1.84713 0
M  V30 4082 C 535.328 -8.18386 -1.42505 0
M  V30 4083 O 536.066 -8.3501 -2.60497 0
M  V30 4084 C 534.659 -6.80225 -1.25468 0
M  V30 4085 O 535.458 -5.81621 -1.91066 0
M  V30 4086 C 533.322 -7.02416 -1.9168 0
M  V30 4087 H 533.354 -6.6888 -2.96621 0
M  V30 4088 H 534.537 -6.53617 -0.192223 0
M  V30 4089 H 536.021 -8.36622 -0.589963 0
M  V30 4090 H 534.327 -10.0291 -1.79807 0
M  V30 4091 H 534.137 -10.2138 0.558219 0
M  V30 4092 H 532.507 -9.6579 0.0444202 0
M  V30 4093 H 535.146 -5.69556 -2.79637 0
M  V30 4094 P 537.004 -8.4349 -2.47671 0
M  V30 4095 O 538.426 -8.92593 -2.65 0
M  V30 4096 O 536.644 -7.7568 -1.19296 0
M  V30 4097 O 536.681 -7.36886 -3.63805 0
M  V30 4098 C 536.521 -7.95349 -4.982 0
M  V30 4099 C 537.061 -6.94612 -5.98974 0
M  V30 4100 O 536.005 -6.10347 -6.11815 0
M  V30 4101 C 538.279 -6.11426 -5.62335 0
M  V30 4102 O 539.017 -5.6162 -6.70584 0
M  V30 4103 C 537.61 -5.04409 -4.73308 0
M  V30 4104 O 538.409 -3.85992 -4.75183 0
M  V30 4105 C 536.273 -4.8728 -5.41006 0
M  V30 4106 H 536.305 -4.02333 -6.11157 0
M  V30 4107 H 537.488 -5.39466 -3.69543 0
M  V30 4108 H 538.972 -6.71916 -5.01943 0
M  V30 4109 H 537.278 -7.4649 -6.93477 0
M  V30 4110 H 537.088 -8.89416 -5.05237 0
M  V30 4111 H 535.458 -8.14876 -5.18409 0
M  V30 4112 H 538.097 -3.27957 -5.4317 0
M  V30 4113 P 539.954 -5.75688 -6.64379 0
M  V30 4114 O 541.375 -6.07692 -7.0558 0
M  V30 4115 O 539.594 -5.88047 -5.19722 0
M  V30 4116 O 539.631 -4.2322 -7.04443 0
M  V30 4117 C 539.47 -3.99785 -8.49201 0
M  V30 4118 C 540.011 -2.60516 -8.79425 0
M  V30 4119 O 538.956 -1.82663 -8.44573 0
M  V30 4120 C 541.229 -2.10343 -8.03628 0
M  V30 4121 O 541.967 -1.09919 -8.67766 0
M  V30 4122 C 540.561 -1.68446 -6.70876 0
M  V30 4123 O 541.359 -0.684109 -6.08265 0
M  V30 4124 C 539.223 -1.17436 -7.18567 0
M  V30 4125 N 538.18 -1.52699 -6.23988 0
M  V30 4126 C 538.349 -2.578 -5.40574 0
M  V30 4127 N 537.322 -2.78966 -4.61193 0
M  V30 4128 C 536.437 -1.78725 -4.95769 0
M  V30 4129 C 535.17 -1.45727 -4.44207 0
M  V30 4130 N 534.571 -2.13994 -3.43613 0
M  V30 4131 N 534.605 -0.374977 -5.05812 0
M  V30 4132 C 535.207 0.345585 -6.05615 0
M  V30 4133 N 536.384 0.0787651 -6.56253 0
M  V30 4134 C 536.959 -1.00499 -5.96189 0
M  V30 4135 H 539.255 -0.0804622 -7.31556 0
M  V30 4136 H 540.438 -2.53396 -6.02698 0
M  V30 4137 H 541.921 -2.93881 -7.85526 0
M  V30 4138 H 540.227 -2.52078 -9.87225 0
M  V30 4139 H 540.037 -4.75072 -9.05887 0
M  V30 4140 H 538.407 -4.05244 -8.76668 0
M  V30 4141 H 534.671 1.20098 -6.4532 0
M  V30 4142 H 539.249 -3.18977 -5.3945 0
M  V30 4143 H 533.641 -1.84983 -3.10004 0
M  V30 4144 H 535.045 -2.9465 -3.00843 0
M  V30 4145 H 541.047 0.177619 -6.34151 0
M  V30 4146 P 542.905 -1.25109 -8.70152 0
M  V30 4147 O 544.326 -1.29758 -9.22115 0
M  V30 4148 O 542.545 -2.13714 -7.55141 0
M  V30 4149 O 542.582 0.248149 -8.21425 0
M  V30 4150 C 542.421 1.22792 -9.30533 0
M  V30 4151 C 542.962 2.56293 -8.80664 0
M  V30 4152 O 541.907 3.02944 -8.09255 0
M  V30 4153 C 544.18 2.57523 -7.89775 0
M  V30 4154 O 544.918 3.7668 -7.89438 0
M  V30 4155 C 543.512 2.20997 -6.55446 0
M  V30 4156 O 544.31 2.71302 -5.48691 0
M  V30 4157 C 542.174 2.89693 -6.67988 0
M  V30 4158 N 541.131 2.08895 -6.07487 0
M  V30 4159 C 541.3 0.753809 -5.94137 0
M  V30 4160 N 540.273 0.146592 -5.38801 0
M  V30 4161 C 539.388 1.1768 -5.13693 0
M  V30 4162 C 538.121 1.17563 -4.52477 0
M  V30 4163 N 537.556 2.41918 -4.45789 0
M  V30 4164 C 538.158 3.56493 -4.90792 0
M  V30 4165 N 539.335 3.61423 -5.47817 0
M  V30 4166 C 539.91 2.37779 -5.5588 0
M  V30 4167 H 543.389 1.12673 -6.44018 0
M  V30 4168 H 544.872 1.7746 -8.19711 0
M  V30 4169 H 543.178 3.21673 -9.66791 0
M  V30 4170 H 542.988 0.901032 -10.1892 0
M  V30 4171 H 541.358 1.33049 -9.56592 0
M  V30 4172 H 542.2 0.233081 -6.26266 0
M  V30 4173 H 543.998 3.5779 -5.23879 0
M  V30 4174 P 545.855 3.65191 -7.99657 0
M  V30 4175 O 547.277 3.89332 -8.45794 0
M  V30 4176 O 545.495 2.28472 -7.50807 0
M  V30 4177 O 545.532 4.64972 -6.77611 0
M  V30 4178 C 545.372 6.06319 -7.16352 0
M  V30 4179 C 545.912 6.91731 -6.02299 0
M  V30 4180 O 544.856 6.92449 -5.17064 0
M  V30 4181 C 547.13 6.43627 -5.25174 0
M  V30 4182 O 547.868 7.43686 -4.60469 0
M  V30 4183 C 546.461 5.40275 -4.31916 0
M  V30 4184 O 547.26 5.25279 -3.14438 0
M  V30 4185 C 545.124 6.04847 -4.05327 0
M  V30 4186 H 545.156 6.62195 -3.11261 0
M  V30 4187 H 546.339 4.42556 -4.81383 0
M  V30 4188 H 547.823 5.92458 -5.93643 0
M  V30 4189 H 546.129 7.92655 -6.402 0
M  V30 4190 H 545.939 6.26671 -8.0846 0
M  V30 4191 H 544.309 6.29101 -7.32804 0
M  V30 4192 H 546.948 5.84315 -2.47318 0
M  V30 4193 P 548.806 7.39546 -4.75277 0
M  V30 4194 O 550.228 7.84798 -5.01039 0
M  V30 4195 O 548.446 5.9812 -5.08098 0
M  V30 4196 O 548.483 7.57503 -3.1866 0
M  V30 4197 C 548.323 8.97357 -2.74833 0
M  V30 4198 C 548.863 9.07548 -1.32709 0
M  V30 4199 O 547.807 8.62072 -0.606159 0
M  V30 4200 C 550.081 8.25383 -0.938334 0
M  V30 4201 O 550.819 8.74577 0.146954 0
M  V30 4202 C 549.412 6.8802 -0.712559 0
M  V30 4203 O 550.211 6.1189 0.194655 0
M  V30 4204 C 548.075 7.27966 -0.139777 0
M  V30 4205 H 548.107 7.25354 0.961601 0
M  V30 4206 H 549.29 6.32557 -1.65702 0
M  V30 4207 H 550.774 8.19355 -1.79097 0
M  V30 4208 H 549.08 10.1294 -1.10029 0
M  V30 4209 H 548.89 9.64276 -3.41316 0
M  V30 4210 H 547.26 9.25417 -2.76357 0
M  V30 4211 H 549.899 6.25267 1.07847 0
M  V30 4212 P 551.757 8.791 3.52383e-12 0
M  V30 4213 O 553.178 9.31196 0.027936 0
M  V30 4214 O 551.397 7.77869 -1.04071 0
M  V30 4215 O 551.434 8.09533 1.41463 0
M  V30 4216 C 551.273 9.03587 2.5397 0
M  V30 4217 C 551.814 8.35226 3.79016 0
M  V30 4218 O 550.759 7.57904 4.1503 0
M  V30 4219 C 553.032 7.45087 3.67298 0
M  V30 4220 O 553.77 7.27796 4.85194 0
M  V30 4221 C 552.364 6.17323 3.12027 0
M  V30 4222 O 553.162 5.04496 3.46627 0
M  V30 4223 C 551.026 6.19961 3.81809 0
M  V30 4224 N 549.983 5.71575 2.93223 0
M  V30 4225 C 550.152 5.77362 1.59168 0
M  V30 4226 N 549.125 5.3123 0.911893 0
M  V30 4227 C 548.24 4.91717 1.89588 0
M  V30 4228 C 546.973 4.3114 1.8076 0
M  V30 4229 N 546.374 3.99821 0.632928 0
M  V30 4230 N 546.408 4.06823 3.02898 0
M  V30 4231 C 547.01 4.35062 4.22711 0
M  V30 4232 N 548.187 4.90805 4.35707 0
M  V30 4233 C 548.762 5.16382 3.14469 0
M  V30 4234 H 551.058 5.58142 4.72986 0
M  V30 4235 H 552.241 6.21428 2.0318 0
M  V30 4236 H 553.724 7.86112 2.9231 0
M  V30 4237 H 552.03 9.11171 4.55987 0
M  V30 4238 H 551.84 9.9573 2.34194 0
M  V30 4239 H 550.21 9.2792 2.67832 0
M  V30 4240 H 546.474 4.09052 5.13359 0
M  V30 4241 H 551.052 6.16575 1.12198 0
M  V30 4242 H 545.444 3.55423 0.632085 0
M  V30 4243 H 546.848 4.20317 -0.256712 0
M  V30 4244 H 552.85 4.67628 4.28704 0
M  V30 4245 P 554.707 7.39546 4.75277 0
M  V30 4246 O 556.129 7.81777 5.05738 0
M  V30 4247 O 554.347 7.1065 3.32998 0
M  V30 4248 O 554.384 6.04542 5.56673 0
M  V30 4249 C 554.224 6.22772 7.02095 0
M  V30 4250 C 554.764 4.97725 7.70406 0
M  V30 4251 O 553.708 4.13256 7.58987 0
M  V30 4252 C 555.982 4.28231 7.11815 0
M  V30 4253 O 556.72 3.49945 8.01648 0
M  V30 4254 C 555.313 3.5063 5.96244 0
M  V30 4255 O 556.112 2.36482 5.64681 0
M  V30 4256 C 553.976 3.15122 6.56374 0
M  V30 4257 H 554.008 2.13853 6.99751 0
M  V30 4258 H 555.191 4.13501 5.06559 0
M  V30 4259 H 556.675 5.03285 6.70911 0
M  V30 4260 H 554.981 5.20877 8.75697 0
M  V30 4261 H 554.791 7.11046 7.35349 0
M  V30 4262 H 553.161 6.35815 7.26986 0
M  V30 4263 H 555.8 1.61644 6.13565 0
M  V30 4264 P 557.658 3.65191 7.99657 0
M  V30 4265 O 559.079 3.84292 8.48206 0
M  V30 4266 O 557.298 4.17805 6.64342 0
M  V30 4267 O 557.335 2.07613 7.95143 0
M  V30 4268 C 557.174 1.44344 9.27435 0
M  V30 4269 C 557.715 0.0220036 9.17197 0
M  V30 4270 O 556.66 -0.626794 8.61824 0
M  V30 4271 C 558.933 -0.24586 8.30336 0
M  V30 4272 O 559.671 -1.39011 8.63583 0
M  V30 4273 C 558.265 -0.273849 6.91158 0
M  V30 4274 O 559.063 -1.05728 6.029 0
M  V30 4275 C 556.927 -0.897649 7.22545 0
M  V30 4276 N 555.884 -0.292839 6.41732 0
M  V30 4277 C 556.053 0.950603 5.91308 0
M  V30 4278 N 555.026 1.37732 5.21105 0
M  V30 4279 C 554.141 0.318109 5.26039 0
M  V30 4280 C 552.874 0.146766 4.6727 0
M  V30 4281 N 552.275 1.08519 3.89983 0
M  V30 4282 N 552.309 -1.06525 4.95887 0
M  V30 4283 C 552.911 -2.0378 5.71347 0
M  V30 4284 N 554.088 -1.92445 6.27451 0
M  V30 4285 C 554.663 -0.715382 6.00353 0
M  V30 4286 H 556.959 -1.98383 7.04189 0
M  V30 4287 H 558.142 0.733318 6.49674 0
M  V30 4288 H 559.625 0.60668 8.36503 0
M  V30 4289 H 557.931 -0.362662 10.1825 0
M  V30 4290 H 557.741 2.00611 10.0304 0
M  V30 4291 H 556.111 1.41843 9.55327 0
M  V30 4292 H 552.375 -2.97041 5.85344 0
M  V30 4293 H 556.953 1.54076 6.07465 0
M  V30 4294 H 551.345 0.901517 3.49562 0
M  V30 4295 H 552.749 1.97957 3.71669 0
M  V30 4296 H 558.751 -1.95704 6.0346 0
M  V30 4297 P 560.608 -1.25109 8.70152 0
M  V30 4298 O 562.029 -1.35288 9.2132 0
M  V30 4299 O 560.248 -0.0769065 7.84762 0
M  V30 4300 O 560.285 -2.55232 7.81161 0
M  V30 4301 C 560.124 -3.79979 8.58246 0
M  V30 4302 C 560.665 -4.94023 7.72785 0
M  V30 4303 O 559.61 -5.18666 6.91125 0
M  V30 4304 C 561.883 -4.69597 6.85231 0
M  V30 4305 O 562.621 -5.83832 6.51337 0
M  V30 4306 C 561.215 -3.96706 5.66633 0
M  V30 4307 O 562.013 -4.14896 4.5003 0
M  V30 4308 C 559.877 -4.66153 5.59313 0
M  V30 4309 N 558.834 -3.71582 5.24027 0
M  V30 4310 C 559.003 -2.39715 5.48833 0
M  V30 4311 N 557.976 -1.65863 5.12845 0
M  V30 4312 C 557.091 -2.57637 4.5973 0
M  V30 4313 C 555.824 -2.40278 4.01027 0
M  V30 4314 N 555.225 -1.19549 3.86744 0
M  V30 4315 N 555.259 -3.57711 3.59575 0
M  V30 4316 C 555.861 -4.80324 3.70476 0
M  V30 4317 N 557.038 -5.01121 4.23801 0
M  V30 4318 C 557.613 -3.84757 4.66372 0
M  V30 4319 H 559.909 -5.47604 4.85148 0
M  V30 4320 H 561.092 -2.8955 5.86187 0
M  V30 4321 H 562.575 -4.0121 7.36511 0
M  V30 4322 H 560.881 -5.81019 8.37003 0
M  V30 4323 H 560.691 -3.73517 9.52265 0
M  V30 4324 H 559.061 -3.97163 8.80359 0
M  V30 4325 H 555.325 -5.66348 3.3183 0
M  V30 4326 H 559.903 -1.98804 5.94332 0
M  V30 4327 H 554.295 -1.13147 3.4281 0
M  V30 4328 H 555.699 -0.344074 4.19692 0
M  V30 4329 H 561.701 -4.90891 4.01857 0
M  V30 4330 P 563.559 -5.75688 6.64379 0
M  V30 4331 O 564.981 -6.11849 7.01846 0
M  V30 4332 O 563.199 -4.30744 6.56026 0
M  V30 4333 O 563.236 -6.37042 5.19165 0
M  V30 4334 C 563.076 -7.83578 5.16515 0
M  V30 4335 C 563.616 -8.33398 3.83019 0
M  V30 4336 O 562.56 -8.10074 3.01034 0
M  V30 4337 C 564.834 -7.65514 3.2257 0
M  V30 4338 O 565.572 -8.4329 2.32297 0
M  V30 4339 C 564.165 -6.40075 2.62207 0
M  V30 4340 O 564.964 -5.92589 1.53712 0
M  V30 4341 C 562.828 -6.9454 2.18503 0
M  V30 4342 H 562.86 -7.23063 1.12091 0
M  V30 4343 H 564.043 -5.6025 3.37201 0
M  V30 4344 H 565.527 -7.35707 4.02681 0
M  V30 4345 H 563.833 -9.40912 3.9095 0
M  V30 4346 H 563.643 -8.29056 5.99158 0
M  V30 4347 H 562.013 -8.10073 5.25882 0
M  V30 4348 H 564.652 -6.30324 0.726794 0
M  V30 4349 P 566.509 -8.4349 2.47671 0
M  V30 4350 O 567.931 -8.94167 2.5964 0
M  V30 4351 O 566.149 -7.1704 3.19006 0
M  V30 4352 O 566.186 -8.16596 0.923387 0
M  V30 4353 C 566.026 -9.38437 0.108857 0
M  V30 4354 C 566.566 -9.08175 -1.28353 0
M  V30 4355 O 565.51 -8.44229 -1.84713 0
M  V30 4356 C 567.784 -8.18386 -1.42505 0
M  V30 4357 O 568.522 -8.3501 -2.60497 0
M  V30 4358 C 567.115 -6.80225 -1.25468 0
M  V30 4359 O 567.914 -5.81621 -1.91066 0
M  V30 4360 C 565.778 -7.02416 -1.9168 0
M  V30 4361 H 565.81 -6.6888 -2.96621 0
M  V30 4362 H 566.993 -6.53617 -0.192223 0
M  V30 4363 H 568.477 -8.36622 -0.589963 0
M  V30 4364 H 566.783 -10.0291 -1.79807 0
M  V30 4365 H 566.593 -10.2138 0.558219 0
M  V30 4366 H 564.963 -9.6579 0.0444202 0
M  V30 4367 H 567.602 -5.69556 -2.79637 0
M  V30 4368 P 569.46 -8.4349 -2.47671 0
M  V30 4369 O 570.882 -8.92593 -2.65 0
M  V30 4370 O 569.1 -7.7568 -1.19296 0
M  V30 4371 O 569.137 -7.36886 -3.63805 0
M  V30 4372 C 568.977 -7.95349 -4.982 0
M  V30 4373 C 569.517 -6.94612 -5.98974 0
M  V30 4374 O 568.461 -6.10347 -6.11815 0
M  V30 4375 C 570.735 -6.11426 -5.62335 0
M  V30 4376 O 571.473 -5.6162 -6.70584 0
M  V30 4377 C 570.066 -5.04409 -4.73308 0
M  V30 4378 O 570.865 -3.85992 -4.75183 0
M  V30 4379 C 568.729 -4.8728 -5.41006 0
M  V30 4380 H 568.761 -4.02333 -6.11157 0
M  V30 4381 H 569.944 -5.39466 -3.69543 0
M  V30 4382 H 571.428 -6.71916 -5.01943 0
M  V30 4383 H 569.734 -7.4649 -6.93477 0
M  V30 4384 H 569.544 -8.89416 -5.05237 0
M  V30 4385 H 567.914 -8.14876 -5.18409 0
M  V30 4386 H 570.553 -3.27957 -5.4317 0
M  V30 4387 P 572.411 -5.75688 -6.64379 0
M  V30 4388 O 573.833 -6.07627 -7.05504 0
M  V30 4389 O 572.051 -5.88047 -5.19722 0
M  V30 4390 O 572.088 -4.2322 -7.04443 0
M  V30 4391 C 571.928 -3.99743 -8.4911 0
M  V30 4392 C 572.468 -2.60516 -8.79425 0
M  V30 4393 O 571.412 -1.82684 -8.4467 0
M  V30 4394 C 573.686 -2.10343 -8.03628 0
M  V30 4395 O 574.424 -1.09919 -8.67766 0
M  V30 4396 C 573.017 -1.68446 -6.70876 0
M  V30 4397 O 573.816 -0.678137 -6.08433 0
M  V30 4398 C 571.68 -1.17436 -7.18567 0
M  V30 4399 H 571.712 -0.0804732 -7.31656 0
M  V30 4400 H 572.895 -2.54037 -6.02537 0
M  V30 4401 H 574.379 -2.93881 -7.85526 0
M  V30 4402 H 572.685 -2.53065 -9.86973 0
M  V30 4403 H 572.495 -4.75072 -9.05887 0
M  V30 4404 H 570.865 -4.05244 -8.76668 0
M  V30 4405 H 573.504 0.177647 -6.34251 0
M  V30 4406 P 575.361 -1.25109 -8.70152 0
M  V30 4407 O 576.783 -1.29744 -9.22016 0
M  V30 4408 O 575.001 -2.13714 -7.55141 0
M  V30 4409 O 575.038 0.248149 -8.21425 0
M  V30 4410 C 574.878 1.22779 -9.30434 0
M  V30 4411 C 575.418 2.56293 -8.80664 0
M  V30 4412 O 574.362 3.02979 -8.09349 0
M  V30 4413 C 576.636 2.57523 -7.89775 0
M  V30 4414 O 577.374 3.7668 -7.89438 0
M  V30 4415 C 575.967 2.20997 -6.55446 0
M  V30 4416 O 576.766 2.71895 -5.48509 0
M  V30 4417 C 574.63 2.89693 -6.67988 0
M  V30 4418 H 574.662 3.88793 -6.19859 0
M  V30 4419 H 575.845 1.12046 -6.44229 0
M  V30 4420 H 577.329 1.7746 -8.19711 0
M  V30 4421 H 575.635 3.20706 -9.67112 0
M  V30 4422 H 575.445 0.901032 -10.1892 0
M  V30 4423 H 573.815 1.33049 -9.56592 0
M  V30 4424 H 576.454 3.57847 -5.23962 0
M  V30 4425 P 578.312 3.65191 -7.99657 0
M  V30 4426 O 579.734 3.89332 -8.45794 0
M  V30 4427 O 577.952 2.28472 -7.50807 0
M  V30 4428 O 577.989 4.64972 -6.77611 0
M  V30 4429 C 577.829 6.06319 -7.16352 0
M  V30 4430 C 578.369 6.91731 -6.02299 0
M  V30 4431 O 577.313 6.92449 -5.17064 0
M  V30 4432 C 579.587 6.43627 -5.25174 0
M  V30 4433 O 580.325 7.43686 -4.60469 0
M  V30 4434 C 578.918 5.40275 -4.31916 0
M  V30 4435 O 579.717 5.25279 -3.14438 0
M  V30 4436 C 577.581 6.04847 -4.05327 0
M  V30 4437 H 577.613 6.62195 -3.11261 0
M  V30 4438 H 578.796 4.42556 -4.81383 0
M  V30 4439 H 580.28 5.92458 -5.93643 0
M  V30 4440 H 578.586 7.92655 -6.402 0
M  V30 4441 H 578.396 6.26671 -8.0846 0
M  V30 4442 H 576.766 6.29101 -7.32804 0
M  V30 4443 H 579.405 5.84315 -2.47318 0
M  V30 4444 P 581.262 7.39546 -4.75277 0
M  V30 4445 O 582.683 7.84882 -5.01092 0
M  V30 4446 O 580.902 5.9812 -5.08098 0
M  V30 4447 O 580.939 7.57503 -3.1866 0
M  V30 4448 C 580.778 8.97452 -2.74862 0
M  V30 4449 C 581.319 9.07548 -1.32709 0
M  V30 4450 O 580.264 8.61972 -0.606089 0
M  V30 4451 C 582.537 8.25383 -0.938334 0
M  V30 4452 O 583.275 8.74577 0.146954 0
M  V30 4453 C 581.869 6.8802 -0.712559 0
M  V30 4454 O 582.667 6.1181 0.188505 0
M  V30 4455 C 580.531 7.27966 -0.139777 0
M  V30 4456 N 579.488 6.39368 -0.623421 0
M  V30 4457 C 579.657 5.71761 -1.78245 0
M  V30 4458 N 578.63 4.962 -2.10491 0
M  V30 4459 C 577.745 5.16158 -1.0635 0
M  V30 4460 C 576.478 4.60425 -0.810266 0
M  V30 4461 N 575.879 3.7057 -1.62914 0
M  V30 4462 N 575.913 5.06 0.348685 0
M  V30 4463 C 576.515 5.94532 1.20395 0
M  V30 4464 N 577.692 6.48452 1.01191 0
M  V30 4465 C 578.267 6.04423 -0.146291 0
M  V30 4466 H 580.563 7.25255 0.961469 0
M  V30 4467 H 581.746 6.32625 -1.65044 0
M  V30 4468 H 583.229 8.19355 -1.79097 0
M  V30 4469 H 581.535 10.1305 -1.09016 0
M  V30 4470 H 581.345 9.64276 -3.41316 0
M  V30 4471 H 579.715 9.25417 -2.76357 0
M  V30 4472 H 575.979 6.21659 2.10714 0
M  V30 4473 H 580.557 5.79354 -2.38959 0
M  V30 4474 H 574.949 3.33174 -1.38982 0
M  V30 4475 H 576.353 3.39714 -2.48836 0
M  V30 4476 H 582.355 6.25169 1.0783 0
M  V30 4477 P 584.213 8.791 3.834e-12 0
M  V30 4478 O 585.635 9.31096 0.027933 0
M  V30 4479 O 583.853 7.77869 -1.04071 0
M  V30 4480 O 583.89 8.09533 1.41463 0
M  V30 4481 C 583.73 9.0349 2.53943 0
M  V30 4482 C 584.27 8.35226 3.79016 0
M  V30 4483 O 583.214 7.57992 4.15078 0
M  V30 4484 C 585.488 7.45087 3.67298 0
M  V30 4485 O 586.226 7.27796 4.85194 0
M  V30 4486 C 584.819 6.17323 3.12027 0
M  V30 4487 O 585.618 5.04231 3.47188 0
M  V30 4488 C 583.482 6.19961 3.81809 0
M  V30 4489 H 583.514 5.58218 4.73051 0
M  V30 4490 H 584.697 6.21726 2.02589 0
M  V30 4491 H 586.181 7.86112 2.9231 0
M  V30 4492 H 584.487 9.11627 4.55076 0
M  V30 4493 H 584.297 9.9573 2.34194 0
M  V30 4494 H 582.667 9.2792 2.67832 0
M  V30 4495 H 585.306 4.67702 4.28772 0
M  V30 4496 P 587.163 7.39546 4.75277 0
M  V30 4497 O 588.585 7.81777 5.05738 0
M  V30 4498 O 586.803 7.1065 3.32998 0
M  V30 4499 O 586.84 6.04542 5.56673 0
M  V30 4500 C 586.68 6.22772 7.02095 0
M  V30 4501 C 587.22 4.97725 7.70406 0
M  V30 4502 O 586.164 4.13256 7.58987 0
M  V30 4503 C 588.438 4.28231 7.11815 0
M  V30 4504 O 589.176 3.49945 8.01648 0
M  V30 4505 C 587.769 3.5063 5.96244 0
M  V30 4506 O 588.568 2.36482 5.64681 0
M  V30 4507 C 586.432 3.15122 6.56374 0
M  V30 4508 H 586.464 2.13853 6.99751 0
M  V30 4509 H 587.647 4.13501 5.06559 0
M  V30 4510 H 589.131 5.03285 6.70911 0
M  V30 4511 H 587.437 5.20877 8.75697 0
M  V30 4512 H 587.247 7.11046 7.35349 0
M  V30 4513 H 585.617 6.35815 7.26986 0
M  V30 4514 H 588.256 1.61644 6.13565 0
M  V30 4515 P 590.114 3.65191 7.99657 0
M  V30 4516 O 591.535 3.84292 8.48206 0
M  V30 4517 O 589.754 4.17805 6.64342 0
M  V30 4518 O 589.791 2.07613 7.95143 0
M  V30 4519 C 589.63 1.44344 9.27435 0
M  V30 4520 C 590.171 0.0220036 9.17197 0
M  V30 4521 O 589.116 -0.626794 8.61824 0
M  V30 4522 C 591.389 -0.24586 8.30336 0
M  V30 4523 O 592.127 -1.39011 8.63583 0
M  V30 4524 C 590.721 -0.273849 6.91158 0
M  V30 4525 O 591.519 -1.05728 6.029 0
M  V30 4526 C 589.383 -0.897649 7.22545 0
M  V30 4527 N 588.34 -0.292839 6.41732 0
M  V30 4528 C 588.509 0.950603 5.91308 0
M  V30 4529 N 587.482 1.37732 5.21105 0
M  V30 4530 C 586.597 0.318109 5.26039 0
M  V30 4531 C 585.33 0.146766 4.6727 0
M  V30 4532 N 584.765 -1.06525 4.95887 0
M  V30 4533 C 585.367 -2.0378 5.71347 0
M  V30 4534 N 586.544 -1.92445 6.27451 0
M  V30 4535 C 587.119 -0.715382 6.00353 0
M  V30 4536 H 590.598 0.733318 6.49674 0
M  V30 4537 H 592.081 0.60668 8.36503 0
M  V30 4538 H 590.387 -0.362662 10.1825 0
M  V30 4539 H 590.197 2.00611 10.0304 0
M  V30 4540 H 588.567 1.41843 9.55327 0
M  V30 4541 H 589.409 1.54076 6.07465 0
M  V30 4542 H 591.207 -1.95704 6.0346 0
M  V30 4543 P 593.065 -1.25109 8.70152 0
M  V30 4544 O 594.487 -1.35274 9.21221 0
M  V30 4545 O 592.705 -0.0769065 7.84762 0
M  V30 4546 O 592.742 -2.55232 7.81161 0
M  V30 4547 C 592.582 -3.79939 8.58154 0
M  V30 4548 C 593.122 -4.94023 7.72785 0
M  V30 4549 O 592.066 -5.18726 6.91205 0
M  V30 4550 C 594.34 -4.69597 6.85231 0
M  V30 4551 O 595.078 -5.83832 6.51337 0
M  V30 4552 C 593.671 -3.96706 5.66633 0
M  V30 4553 O 594.47 -4.15414 4.49689 0
M  V30 4554 C 592.334 -4.66153 5.59313 0
M  V30 4555 H 592.366 -5.47679 4.85214 0
M  V30 4556 H 593.549 -2.89008 5.86566 0
M  V30 4557 H 595.033 -4.0121 7.36511 0
M  V30 4558 H 593.339 -5.80182 8.37584 0
M  V30 4559 H 593.149 -3.73517 9.52265 0
M  V30 4560 H 591.519 -3.97163 8.80359 0
M  V30 4561 H 594.158 -4.90969 4.01921 0
M  V30 4562 P 596.015 -5.75688 6.64379 0
M  V30 4563 O 597.437 -6.11981 7.01997 0
M  V30 4564 O 595.655 -4.30744 6.56026 0
M  V30 4565 O 595.692 -6.37042 5.19165 0
M  V30 4566 C 595.532 -7.83578 5.16515 0
M  V30 4567 C 596.072 -8.33307 3.82977 0
M  V30 4568 O 595.017 -8.10074 3.01034 0
M  V30 4569 C 597.29 -7.65514 3.2257 0
M  V30 4570 O 598.028 -8.4329 2.32297 0
M  V30 4571 C 596.622 -6.40075 2.62207 0
M  V30 4572 O 597.42 -5.92492 1.53687 0
M  V30 4573 C 595.284 -6.9454 2.18503 0
M  V30 4574 N 594.241 -5.95905 2.39948 0
M  V30 4575 C 594.303 -5.13994 3.44742 0
M  V30 4576 N 593.258 -4.30684 3.46712 0
M  V30 4577 C 592.524 -4.65583 2.41086 0
M  V30 4578 C 591.218 -4.20877 1.99581 0
M  V30 4579 O 590.485 -3.35913 2.52616 0
M  V30 4580 N 590.788 -4.83271 0.873406 0
M  V30 4581 C 591.537 -5.82006 0.185129 0
M  V30 4582 N 590.94 -6.30619 -0.95439 0
M  V30 4583 N 592.69 -6.28443 0.578524 0
M  V30 4584 C 593.147 -5.68486 1.70138 0
M  V30 4585 H 595.316 -7.23063 1.12091 0
M  V30 4586 H 596.499 -5.60165 3.3715 0
M  V30 4587 H 597.984 -7.3611 4.01946 0
M  V30 4588 H 596.289 -9.40912 3.9095 0
M  V30 4589 H 596.099 -8.29056 5.99158 0
M  V30 4590 H 594.468 -8.10073 5.25882 0
M  V30 4591 H 589.892 -4.58323 0.505262 0
M  V30 4592 H 595.099 -5.14564 4.1935 0
M  V30 4593 H 590.029 -5.93402 -1.25364 0
M  V30 4594 H 591.405 -7.0425 -1.50254 0
M  V30 4595 H 597.109 -6.30224 0.72668 0
M  V30 4596 P 598.966 -8.4349 2.47671 0
M  V30 4597 O 600.388 -8.94167 2.5964 0
M  V30 4598 O 598.606 -7.1704 3.19006 0
M  V30 4599 O 598.643 -8.16596 0.923387 0
M  V30 4600 C 598.483 -9.38437 0.108857 0
M  V30 4601 C 599.023 -9.08175 -1.28353 0
M  V30 4602 O 597.967 -8.44229 -1.84713 0
M  V30 4603 C 600.241 -8.18386 -1.42505 0
M  V30 4604 O 600.979 -8.3501 -2.60497 0
M  V30 4605 C 599.572 -6.80225 -1.25468 0
M  V30 4606 O 600.371 -5.81621 -1.91066 0
M  V30 4607 C 598.235 -7.02416 -1.9168 0
M  V30 4608 H 598.267 -6.6888 -2.96621 0
M  V30 4609 H 599.45 -6.53617 -0.192223 0
M  V30 4610 H 600.934 -8.36622 -0.589963 0
M  V30 4611 H 599.24 -10.0291 -1.79807 0
M  V30 4612 H 599.05 -10.2138 0.558219 0
M  V30 4613 H 597.42 -9.6579 0.0444202 0
M  V30 4614 H 600.059 -5.69556 -2.79637 0
M  V30 4615 P 601.916 -8.4349 -2.47671 0
M  V30 4616 O 603.338 -8.92593 -2.65 0
M  V30 4617 O 601.556 -7.7568 -1.19296 0
M  V30 4618 O 601.593 -7.36886 -3.63805 0
M  V30 4619 C 601.433 -7.95349 -4.982 0
M  V30 4620 C 601.973 -6.94612 -5.98974 0
M  V30 4621 O 600.917 -6.10347 -6.11815 0
M  V30 4622 C 603.191 -6.11426 -5.62335 0
M  V30 4623 O 603.929 -5.6162 -6.70584 0
M  V30 4624 C 602.522 -5.04409 -4.73308 0
M  V30 4625 O 603.321 -3.85992 -4.75183 0
M  V30 4626 C 601.185 -4.8728 -5.41006 0
M  V30 4627 H 601.217 -4.02333 -6.11157 0
M  V30 4628 H 602.4 -5.39466 -3.69543 0
M  V30 4629 H 603.884 -6.71916 -5.01943 0
M  V30 4630 H 602.19 -7.4649 -6.93477 0
M  V30 4631 H 602 -8.89416 -5.05237 0
M  V30 4632 H 600.37 -8.14876 -5.18409 0
M  V30 4633 H 603.009 -3.27957 -5.4317 0
M  V30 4634 P 604.867 -5.75688 -6.64379 0
M  V30 4635 O 606.288 -6.07692 -7.0558 0
M  V30 4636 O 604.507 -5.88047 -5.19722 0
M  V30 4637 O 604.544 -4.2322 -7.04443 0
M  V30 4638 C 604.383 -3.99785 -8.49201 0
M  V30 4639 C 604.924 -2.60516 -8.79425 0
M  V30 4640 O 603.869 -1.82663 -8.44573 0
M  V30 4641 C 606.142 -2.10343 -8.03628 0
M  V30 4642 O 606.88 -1.09919 -8.67766 0
M  V30 4643 C 605.474 -1.68446 -6.70876 0
M  V30 4644 O 606.272 -0.684109 -6.08265 0
M  V30 4645 C 604.136 -1.17436 -7.18567 0
M  V30 4646 N 603.093 -1.52699 -6.23988 0
M  V30 4647 C 603.262 -2.578 -5.40574 0
M  V30 4648 N 602.235 -2.78966 -4.61193 0
M  V30 4649 C 601.35 -1.78725 -4.95769 0
M  V30 4650 C 600.083 -1.45727 -4.44207 0
M  V30 4651 N 599.484 -2.13994 -3.43613 0
M  V30 4652 N 599.518 -0.374977 -5.05812 0
M  V30 4653 C 600.12 0.345585 -6.05615 0
M  V30 4654 N 601.297 0.0787651 -6.56253 0
M  V30 4655 C 601.872 -1.00499 -5.96189 0
M  V30 4656 H 604.168 -0.0804622 -7.31556 0
M  V30 4657 H 605.351 -2.53396 -6.02698 0
M  V30 4658 H 606.834 -2.93881 -7.85526 0
M  V30 4659 H 605.14 -2.52078 -9.87225 0
M  V30 4660 H 604.95 -4.75072 -9.05887 0
M  V30 4661 H 603.32 -4.05244 -8.76668 0
M  V30 4662 H 599.584 1.20098 -6.4532 0
M  V30 4663 H 604.162 -3.18977 -5.3945 0
M  V30 4664 H 598.554 -1.84983 -3.10004 0
M  V30 4665 H 599.958 -2.9465 -3.00843 0
M  V30 4666 H 605.96 0.177619 -6.34151 0
M  V30 4667 P 607.817 -1.25109 -8.70152 0
M  V30 4668 O 609.239 -1.29744 -9.22016 0
M  V30 4669 O 607.457 -2.13714 -7.55141 0
M  V30 4670 O 607.494 0.248149 -8.21425 0
M  V30 4671 C 607.334 1.22779 -9.30434 0
M  V30 4672 C 607.874 2.56293 -8.80664 0
M  V30 4673 O 606.818 3.02979 -8.09349 0
M  V30 4674 C 609.092 2.57523 -7.89775 0
M  V30 4675 O 609.83 3.7668 -7.89438 0
M  V30 4676 C 608.423 2.20997 -6.55446 0
M  V30 4677 O 609.222 2.71895 -5.48509 0
M  V30 4678 C 607.086 2.89693 -6.67988 0
M  V30 4679 H 607.118 3.88793 -6.19859 0
M  V30 4680 H 608.301 1.12046 -6.44229 0
M  V30 4681 H 609.785 1.7746 -8.19711 0
M  V30 4682 H 608.091 3.20706 -9.67112 0
M  V30 4683 H 607.901 0.901032 -10.1892 0
M  V30 4684 H 606.271 1.33049 -9.56592 0
M  V30 4685 H 608.91 3.57847 -5.23962 0
M  V30 4686 P 610.768 3.65191 -7.99657 0
M  V30 4687 O 612.19 3.89332 -8.45794 0
M  V30 4688 O 610.408 2.28472 -7.50807 0
M  V30 4689 O 610.445 4.64972 -6.77611 0
M  V30 4690 C 610.285 6.06319 -7.16352 0
M  V30 4691 C 610.825 6.91731 -6.02299 0
M  V30 4692 O 609.769 6.92449 -5.17064 0
M  V30 4693 C 612.043 6.43627 -5.25174 0
M  V30 4694 O 612.781 7.43686 -4.60469 0
M  V30 4695 C 611.374 5.40275 -4.31916 0
M  V30 4696 O 612.173 5.25279 -3.14438 0
M  V30 4697 C 610.037 6.04847 -4.05327 0
M  V30 4698 H 610.069 6.62195 -3.11261 0
M  V30 4699 H 611.252 4.42556 -4.81383 0
M  V30 4700 H 612.736 5.92458 -5.93643 0
M  V30 4701 H 611.042 7.92655 -6.402 0
M  V30 4702 H 610.852 6.26671 -8.0846 0
M  V30 4703 H 609.222 6.29101 -7.32804 0
M  V30 4704 H 611.861 5.84315 -2.47318 0
M  V30 4705 P 613.719 7.39546 -4.75277 0
M  V30 4706 O 615.141 7.84798 -5.01039 0
M  V30 4707 O 613.359 5.9812 -5.08098 0
M  V30 4708 O 613.396 7.57503 -3.1866 0
M  V30 4709 C 613.236 8.97357 -2.74833 0
M  V30 4710 C 613.776 9.07548 -1.32709 0
M  V30 4711 O 612.72 8.62072 -0.606159 0
M  V30 4712 C 614.994 8.25383 -0.938334 0
M  V30 4713 O 615.732 8.74577 0.146954 0
M  V30 4714 C 614.325 6.8802 -0.712559 0
M  V30 4715 O 615.124 6.1189 0.194655 0
M  V30 4716 C 612.988 7.27966 -0.139777 0
M  V30 4717 H 613.02 7.25354 0.961601 0
M  V30 4718 H 614.203 6.32557 -1.65702 0
M  V30 4719 H 615.687 8.19355 -1.79097 0
M  V30 4720 H 613.993 10.1294 -1.10029 0
M  V30 4721 H 613.803 9.64276 -3.41316 0
M  V30 4722 H 612.173 9.25417 -2.76357 0
M  V30 4723 H 614.812 6.25267 1.07847 0
M  V30 4724 P 616.669 8.791 4.14417e-12 0
M  V30 4725 O 618.091 9.31096 0.027933 0
M  V30 4726 O 616.309 7.77869 -1.04071 0
M  V30 4727 O 616.346 8.09533 1.41463 0
M  V30 4728 C 616.186 9.0349 2.53943 0
M  V30 4729 C 616.726 8.35226 3.79016 0
M  V30 4730 O 615.67 7.57992 4.15078 0
M  V30 4731 C 617.944 7.45087 3.67298 0
M  V30 4732 O 618.682 7.27796 4.85194 0
M  V30 4733 C 617.275 6.17323 3.12027 0
M  V30 4734 O 618.074 5.04231 3.47188 0
M  V30 4735 C 615.938 6.19961 3.81809 0
M  V30 4736 H 615.97 5.58218 4.73051 0
M  V30 4737 H 617.153 6.21726 2.02589 0
M  V30 4738 H 618.637 7.86112 2.9231 0
M  V30 4739 H 616.943 9.11627 4.55076 0
M  V30 4740 H 616.753 9.9573 2.34194 0
M  V30 4741 H 615.123 9.2792 2.67832 0
M  V30 4742 H 617.762 4.67702 4.28772 0
M  V30 4743 P 619.62 7.39546 4.75277 0
M  V30 4744 O 621.021 7.89013 5.04841 0
M  V30 4745 O 619.242 7.16603 3.32298 0
M  V30 4746 O 619.297 6.04468 5.56605 0
M  V30 4747 C 619.137 6.22772 7.02095 0
M  V30 4748 C 619.677 4.97671 7.70322 0
M  V30 4749 O 618.621 4.13208 7.58899 0
M  V30 4750 C 620.894 4.28231 7.11815 0
M  V30 4751 O 621.633 3.49945 8.01648 0
M  V30 4752 C 620.227 3.5063 5.96244 0
M  V30 4753 O 621.025 2.36443 5.64589 0
M  V30 4754 C 618.889 3.15122 6.56374 0
M  V30 4755 N 617.846 3.22311 5.55692 0
M  V30 4756 C 616.811 2.32244 5.62437 0
M  V30 4757 O 616.85 1.43107 6.50341 0
M  V30 4758 N 615.799 2.40811 4.73368 0
M  V30 4759 C 615.847 3.344 3.77753 0
M  V30 4760 N 614.837 3.41475 2.91848 0
M  V30 4761 C 616.943 4.24712 3.66679 0
M  V30 4762 C 617.909 4.15625 4.58307 0
M  V30 4763 H 618.921 2.13823 6.99656 0
M  V30 4764 H 620.104 4.12931 5.06895 0
M  V30 4765 H 621.588 5.02674 6.71494 0
M  V30 4766 H 619.894 5.20001 8.76217 0
M  V30 4767 H 619.703 7.11046 7.35349 0
M  V30 4768 H 618.073 6.35749 7.26911 0
M  V30 4769 H 616.991 4.9828 2.86753 0
M  V30 4770 H 618.755 4.84464 4.54228 0
M  V30 4771 H 614.047 2.75785 2.99862 0
M  V30 4772 H 614.842 4.12304 2.17382 0
M  V30 4773 H 620.809 1.65592 6.23485 0
M  V30 4774 P 622.57 3.65191 7.99657 0
M  V30 4775 O 623.971 3.90823 8.51272 0
M  V30 4776 O 622.192 4.23191 6.66972 0
M  V30 4777 O 622.247 2.07587 7.95046 0
M  V30 4778 C 622.087 1.44328 9.27336 0
M  V30 4779 C 622.627 0.0220012 9.17097 0
M  V30 4780 O 621.571 -0.626794 8.61824 0
M  V30 4781 C 623.844 -0.24586 8.30336 0
M  V30 4782 O 624.583 -1.39011 8.63583 0
M  V30 4783 C 623.177 -0.273849 6.91158 0
M  V30 4784 O 623.975 -1.06331 6.02794 0
M  V30 4785 C 621.839 -0.897649 7.22545 0
M  V30 4786 N 620.796 -0.292839 6.41732 0
M  V30 4787 C 619.761 -1.08701 5.98712 0
M  V30 4788 O 619.8 -2.31211 6.24471 0
M  V30 4789 N 618.749 -0.533391 5.28415 0
M  V30 4790 C 618.797 0.770866 4.98576 0
M  V30 4791 C 619.893 1.59049 5.38086 0
M  V30 4792 C 620.859 1.01866 6.10256 0
M  V30 4793 H 621.871 -1.98383 7.04189 0
M  V30 4794 H 623.054 0.733318 6.49674 0
M  V30 4795 H 624.538 0.598386 8.36663 0
M  V30 4796 H 622.844 -0.362662 10.1825 0
M  V30 4797 H 622.653 2.00611 10.0304 0
M  V30 4798 H 621.023 1.41828 9.55228 0
M  V30 4799 H 619.941 2.6415 5.10622 0
M  V30 4800 H 621.705 1.61983 6.44042 0
M  V30 4801 H 623.759 -1.97777 6.14035 0
M  V30 4802 P 625.521 -1.25109 8.70152 0
M  V30 4803 O 626.922 -1.31452 9.27431 0
M  V30 4804 O 625.143 -0.0458113 7.89887 0
M  V30 4805 O 625.198 -2.55201 7.81066 0
M  V30 4806 C 625.038 -3.79939 8.58154 0
M  V30 4807 C 625.578 -4.93969 7.72701 0
M  V30 4808 O 624.522 -5.18666 6.91125 0
M  V30 4809 C 626.795 -4.69597 6.85231 0
M  V30 4810 O 627.534 -5.83832 6.51337 0
M  V30 4811 C 626.128 -3.96706 5.66633 0
M  V30 4812 O 626.926 -4.15346 4.49615 0
M  V30 4813 C 624.79 -4.66153 5.59313 0
M  V30 4814 N 623.747 -3.71582 5.24027 0
M  V30 4815 C 622.712 -4.15133 4.44901 0
M  V30 4816 O 622.751 -5.32122 4.00336 0
M  V30 4817 N 621.7 -3.30554 4.15693 0
M  V30 4818 C 621.748 -2.04701 4.61105 0
M  V30 4819 C 622.844 -1.57111 5.38655 0
M  V30 4820 C 623.81 -2.44234 5.68454 0
M  V30 4821 H 624.822 -5.47604 4.85148 0
M  V30 4822 H 626.005 -2.8955 5.86187 0
M  V30 4823 H 627.489 -4.01995 7.36197 0
M  V30 4824 H 625.795 -5.81019 8.37003 0
M  V30 4825 H 625.604 -3.73517 9.52265 0
M  V30 4826 H 623.974 -3.97122 8.80267 0
M  V30 4827 H 622.892 -0.538464 5.72373 0
M  V30 4828 H 624.656 -2.11927 6.29377 0
M  V30 4829 H 626.71 -4.98352 4.09633 0
M  V30 4830 P 628.471 -5.75688 6.64379 0
M  V30 4831 O 629.893 -6.11849 7.01846 0
M  V30 4832 O 628.111 -4.30744 6.56026 0
M  V30 4833 O 628.148 -6.37042 5.19165 0
M  V30 4834 C 627.988 -7.83578 5.16515 0
M  V30 4835 C 628.528 -8.33398 3.83019 0
M  V30 4836 O 627.472 -8.10074 3.01034 0
M  V30 4837 C 629.746 -7.65514 3.2257 0
M  V30 4838 O 630.484 -8.4329 2.32297 0
M  V30 4839 C 629.077 -6.40075 2.62207 0
M  V30 4840 O 629.876 -5.92589 1.53712 0
M  V30 4841 C 627.74 -6.9454 2.18503 0
M  V30 4842 H 627.772 -7.23063 1.12091 0
M  V30 4843 H 628.955 -5.6025 3.37201 0
M  V30 4844 H 630.439 -7.35707 4.02681 0
M  V30 4845 H 628.745 -9.40912 3.9095 0
M  V30 4846 H 628.555 -8.29056 5.99158 0
M  V30 4847 H 626.925 -8.10073 5.25882 0
M  V30 4848 H 629.564 -6.30324 0.726794 0
M  V30 4849 P 631.422 -8.4349 2.47671 0
M  V30 4850 O 632.844 -8.94167 2.5964 0
M  V30 4851 O 631.062 -7.1704 3.19006 0
M  V30 4852 O 631.099 -8.16596 0.923387 0
M  V30 4853 C 630.939 -9.38437 0.108857 0
M  V30 4854 C 631.479 -9.08175 -1.28353 0
M  V30 4855 O 630.423 -8.44229 -1.84713 0
M  V30 4856 C 632.697 -8.18386 -1.42505 0
M  V30 4857 O 633.435 -8.3501 -2.60497 0
M  V30 4858 C 632.028 -6.80225 -1.25468 0
M  V30 4859 O 632.827 -5.81621 -1.91066 0
M  V30 4860 C 630.691 -7.02416 -1.9168 0
M  V30 4861 H 630.723 -6.6888 -2.96621 0
M  V30 4862 H 631.906 -6.53617 -0.192223 0
M  V30 4863 H 633.39 -8.36622 -0.589963 0
M  V30 4864 H 631.696 -10.0291 -1.79807 0
M  V30 4865 H 631.506 -10.2138 0.558219 0
M  V30 4866 H 629.876 -9.6579 0.0444202 0
M  V30 4867 H 632.515 -5.69556 -2.79637 0
M  V30 4868 P 634.373 -8.4349 -2.47671 0
M  V30 4869 O 635.795 -8.92593 -2.65 0
M  V30 4870 O 634.013 -7.7568 -1.19296 0
M  V30 4871 O 634.05 -7.36886 -3.63805 0
M  V30 4872 C 633.89 -7.95349 -4.982 0
M  V30 4873 C 634.43 -6.94612 -5.98974 0
M  V30 4874 O 633.374 -6.10347 -6.11815 0
M  V30 4875 C 635.648 -6.11426 -5.62335 0
M  V30 4876 O 636.386 -5.6162 -6.70584 0
M  V30 4877 C 634.979 -5.04409 -4.73308 0
M  V30 4878 O 635.778 -3.85992 -4.75183 0
M  V30 4879 C 633.642 -4.8728 -5.41006 0
M  V30 4880 H 633.674 -4.02333 -6.11157 0
M  V30 4881 H 634.857 -5.39466 -3.69543 0
M  V30 4882 H 636.341 -6.71916 -5.01943 0
M  V30 4883 H 634.647 -7.4649 -6.93477 0
M  V30 4884 H 634.457 -8.89416 -5.05237 0
M  V30 4885 H 632.827 -8.14876 -5.18409 0
M  V30 4886 H 635.466 -3.27957 -5.4317 0
M  V30 4887 P 637.323 -5.75688 -6.64379 0
M  V30 4888 O 638.745 -6.07758 -7.05656 0
M  V30 4889 O 636.963 -5.88047 -5.19722 0
M  V30 4890 O 637 -4.2322 -7.04443 0
M  V30 4891 C 636.84 -3.99743 -8.4911 0
M  V30 4892 C 637.38 -2.60487 -8.79329 0
M  V30 4893 O 636.325 -1.82684 -8.4467 0
M  V30 4894 C 638.598 -2.10343 -8.03628 0
M  V30 4895 O 639.336 -1.09919 -8.67766 0
M  V30 4896 C 637.93 -1.68446 -6.70876 0
M  V30 4897 O 638.728 -0.678026 -6.08333 0
M  V30 4898 C 636.592 -1.17436 -7.18567 0
M  V30 4899 N 635.549 -1.52699 -6.23988 0
M  V30 4900 C 635.611 -2.68084 -5.57824 0
M  V30 4901 N 634.566 -2.8189 -4.75643 0
M  V30 4902 C 633.832 -1.72373 -4.95155 0
M  V30 4903 C 632.526 -1.37653 -4.44996 0
M  V30 4904 O 631.793 -2.02239 -3.68445 0
M  V30 4905 N 632.096 -0.17675 -4.90782 0
M  V30 4906 C 632.845 0.645036 -5.78716 0
M  V30 4907 N 632.248 1.84214 -6.10618 0
M  V30 4908 N 633.998 0.321732 -6.30279 0
M  V30 4909 C 634.455 -0.87502 -5.86913 0
M  V30 4910 H 636.624 -0.0804732 -7.31656 0
M  V30 4911 H 637.807 -2.53998 -6.02444 0
M  V30 4912 H 639.292 -2.93095 -7.8582 0
M  V30 4913 H 637.597 -2.53065 -9.86973 0
M  V30 4914 H 637.407 -4.75072 -9.05887 0
M  V30 4915 H 635.776 -4.05244 -8.76668 0
M  V30 4916 H 631.2 0.152143 -4.60849 0
M  V30 4917 H 636.407 -3.41852 -5.69006 0
M  V30 4918 H 631.337 2.08538 -5.69521 0
M  V30 4919 H 632.713 2.4895 -6.75698 0
M  V30 4920 H 638.417 0.177619 -6.34151 0
M  V30 4921 P 640.274 -1.25109 -8.70152 0
M  V30 4922 O 641.696 -1.29744 -9.22016 0
M  V30 4923 O 639.914 -2.13714 -7.55141 0
M  V30 4924 O 639.951 0.248149 -8.21425 0
M  V30 4925 C 639.791 1.22779 -9.30434 0
M  V30 4926 C 640.331 2.56293 -8.80664 0
M  V30 4927 O 639.275 3.02979 -8.09349 0
M  V30 4928 C 641.549 2.57523 -7.89775 0
M  V30 4929 O 642.287 3.7668 -7.89438 0
M  V30 4930 C 640.88 2.20997 -6.55446 0
M  V30 4931 O 641.679 2.71895 -5.48509 0
M  V30 4932 C 639.543 2.89693 -6.67988 0
M  V30 4933 H 639.575 3.88793 -6.19859 0
M  V30 4934 H 640.758 1.12046 -6.44229 0
M  V30 4935 H 642.242 1.7746 -8.19711 0
M  V30 4936 H 640.548 3.20706 -9.67112 0
M  V30 4937 H 640.358 0.901032 -10.1892 0
M  V30 4938 H 638.728 1.33049 -9.56592 0
M  V30 4939 H 641.367 3.57847 -5.23962 0
M  V30 4940 P 643.224 3.65191 -7.99657 0
M  V30 4941 O 644.625 3.87414 -8.52829 0
M  V30 4942 O 642.846 2.26932 -7.566 0
M  V30 4943 O 642.901 4.64915 -6.77529 0
M  V30 4944 C 642.741 6.06319 -7.16352 0
M  V30 4945 C 643.281 6.91655 -6.02234 0
M  V30 4946 O 642.225 6.92369 -5.17005 0
M  V30 4947 C 644.498 6.43627 -5.25174 0
M  V30 4948 O 645.237 7.43686 -4.60469 0
M  V30 4949 C 643.831 5.40275 -4.31916 0
M  V30 4950 O 644.629 5.25193 -3.14386 0
M  V30 4951 C 642.493 6.04847 -4.05327 0
M  V30 4952 N 641.45 5.04166 -3.98114 0
M  V30 4953 C 640.415 5.2366 -3.09923 0
M  V30 4954 O 640.454 6.23355 -2.34204 0
M  V30 4955 N 639.403 4.34279 -3.05727 0
M  V30 4956 C 639.451 3.26317 -3.84756 0
M  V30 4957 C 640.547 3.02504 -4.72573 0
M  V30 4958 C 641.513 3.94493 -4.76618 0
M  V30 4959 H 642.525 6.62104 -3.11218 0
M  V30 4960 H 643.708 4.42969 -4.80867 0
M  V30 4961 H 645.192 5.93122 -5.93121 0
M  V30 4962 H 643.498 7.93295 -6.39407 0
M  V30 4963 H 643.307 6.26671 -8.0846 0
M  V30 4964 H 641.677 6.29036 -7.32728 0
M  V30 4965 H 640.595 2.12921 -5.34017 0
M  V30 4966 H 642.359 3.80658 -5.44176 0
M  V30 4967 H 644.413 5.93572 -2.52637 0
M  V30 4968 P 646.175 7.39546 -4.75277 0
M  V30 4969 O 647.597 7.84798 -5.01039 0
M  V30 4970 O 645.815 5.9812 -5.08098 0
M  V30 4971 O 645.852 7.57503 -3.1866 0
M  V30 4972 C 645.692 8.97357 -2.74833 0
M  V30 4973 C 646.232 9.07548 -1.32709 0
M  V30 4974 O 645.176 8.62072 -0.606159 0
M  V30 4975 C 647.45 8.25383 -0.938334 0
M  V30 4976 O 648.188 8.74577 0.146954 0
M  V30 4977 C 646.781 6.8802 -0.712559 0
M  V30 4978 O 647.58 6.1189 0.194655 0
M  V30 4979 C 645.444 7.27966 -0.139777 0
M  V30 4980 H 645.476 7.25354 0.961601 0
M  V30 4981 H 646.659 6.32557 -1.65702 0
M  V30 4982 H 648.143 8.19355 -1.79097 0
M  V30 4983 H 646.449 10.1294 -1.10029 0
M  V30 4984 H 646.259 9.64276 -3.41316 0
M  V30 4985 H 644.629 9.25417 -2.76357 0
M  V30 4986 H 647.268 6.25267 1.07847 0
M  V30 4987 P 649.125 8.791 4.45433e-12 0
M  V30 4988 O 650.546 9.31196 0.027936 0
M  V30 4989 O 648.765 7.77869 -1.04071 0
M  V30 4990 O 648.802 8.09533 1.41463 0
M  V30 4991 C 648.641 9.03587 2.5397 0
M  V30 4992 C 649.182 8.35226 3.79016 0
M  V30 4993 O 648.127 7.57904 4.1503 0
M  V30 4994 C 650.4 7.45087 3.67298 0
M  V30 4995 O 651.138 7.27796 4.85194 0
M  V30 4996 C 649.732 6.17323 3.12027 0
M  V30 4997 O 650.53 5.04496 3.46627 0
M  V30 4998 C 648.394 6.19961 3.81809 0
M  V30 4999 N 647.351 5.71575 2.93223 0
M  V30 5000 C 647.52 5.77362 1.59168 0
M  V30 5001 N 646.493 5.3123 0.911893 0
M  V30 5002 C 645.608 4.91717 1.89588 0
M  V30 5003 C 644.341 4.3114 1.8076 0
M  V30 5004 N 643.742 3.99821 0.632928 0
M  V30 5005 N 643.776 4.06823 3.02898 0
M  V30 5006 C 644.378 4.35062 4.22711 0
M  V30 5007 N 645.555 4.90805 4.35707 0
M  V30 5008 C 646.13 5.16382 3.14469 0
M  V30 5009 H 648.426 5.58142 4.72986 0
M  V30 5010 H 649.609 6.21428 2.0318 0
M  V30 5011 H 651.092 7.86112 2.9231 0
M  V30 5012 H 649.398 9.11171 4.55987 0
M  V30 5013 H 649.208 9.9573 2.34194 0
M  V30 5014 H 647.578 9.2792 2.67832 0
M  V30 5015 H 643.842 4.09052 5.13359 0
M  V30 5016 H 648.42 6.16575 1.12198 0
M  V30 5017 H 642.812 3.55423 0.632085 0
M  V30 5018 H 644.216 4.20317 -0.256712 0
M  V30 5019 H 650.218 4.67628 4.28704 0
M  V30 5020 P 652.076 7.39546 4.75277 0
M  V30 5021 O 653.498 7.81777 5.05738 0
M  V30 5022 O 651.716 7.1065 3.32998 0
M  V30 5023 O 651.753 6.04542 5.56673 0
M  V30 5024 C 651.593 6.22772 7.02095 0
M  V30 5025 C 652.133 4.97725 7.70406 0
M  V30 5026 O 651.077 4.13256 7.58987 0
M  V30 5027 C 653.351 4.28231 7.11815 0
M  V30 5028 O 654.089 3.49945 8.01648 0
M  V30 5029 C 652.682 3.5063 5.96244 0
M  V30 5030 O 653.481 2.36482 5.64681 0
M  V30 5031 C 651.345 3.15122 6.56374 0
M  V30 5032 H 651.377 2.13853 6.99751 0
M  V30 5033 H 652.56 4.13501 5.06559 0
M  V30 5034 H 654.044 5.03285 6.70911 0
M  V30 5035 H 652.35 5.20877 8.75697 0
M  V30 5036 H 652.16 7.11046 7.35349 0
M  V30 5037 H 650.53 6.35815 7.26986 0
M  V30 5038 H 653.169 1.61644 6.13565 0
M  V30 5039 P 655.027 3.65191 7.99657 0
M  V30 5040 O 656.449 3.8425 8.48115 0
M  V30 5041 O 654.667 4.17805 6.64342 0
M  V30 5042 O 654.704 2.07613 7.95143 0
M  V30 5043 C 654.544 1.44328 9.27336 0
M  V30 5044 C 655.084 0.0220036 9.17197 0
M  V30 5045 O 654.028 -0.626867 8.61923 0
M  V30 5046 C 656.302 -0.24586 8.30336 0
M  V30 5047 O 657.04 -1.39011 8.63583 0
M  V30 5048 C 655.633 -0.273849 6.91158 0
M  V30 5049 O 656.432 -1.06348 6.02892 0
M  V30 5050 C 654.296 -0.897649 7.22545 0
M  V30 5051 H 654.328 -1.9841 7.04286 0
M  V30 5052 H 655.511 0.739928 6.497 0
M  V30 5053 H 656.995 0.60668 8.36503 0
M  V30 5054 H 655.301 -0.352479 10.1829 0
M  V30 5055 H 655.111 2.00611 10.0304 0
M  V30 5056 H 653.481 1.41843 9.55327 0
M  V30 5057 H 656.12 -1.95734 6.03555 0
M  V30 5058 P 657.977 -1.25109 8.70152 0
M  V30 5059 O 659.399 -1.35274 9.21221 0
M  V30 5060 O 657.617 -0.0769065 7.84762 0
M  V30 5061 O 657.654 -2.55232 7.81161 0
M  V30 5062 C 657.494 -3.79939 8.58154 0
M  V30 5063 C 658.034 -4.94023 7.72785 0
M  V30 5064 O 656.978 -5.18726 6.91205 0
M  V30 5065 C 659.252 -4.69597 6.85231 0
M  V30 5066 O 659.99 -5.83832 6.51337 0
M  V30 5067 C 658.583 -3.96706 5.66633 0
M  V30 5068 O 659.382 -4.15414 4.49689 0
M  V30 5069 C 657.246 -4.66153 5.59313 0
M  V30 5070 H 657.278 -5.47679 4.85214 0
M  V30 5071 H 658.461 -2.89008 5.86566 0
M  V30 5072 H 659.945 -4.0121 7.36511 0
M  V30 5073 H 658.251 -5.80182 8.37584 0
M  V30 5074 H 658.061 -3.73517 9.52265 0
M  V30 5075 H 656.431 -3.97163 8.80359 0
M  V30 5076 H 659.07 -4.90969 4.01921 0
M  V30 5077 P 660.928 -5.75688 6.64379 0
M  V30 5078 O 662.349 -6.11915 7.01921 0
M  V30 5079 O 660.568 -4.30744 6.56026 0
M  V30 5080 O 660.605 -6.37042 5.19165 0
M  V30 5081 C 660.444 -7.83662 5.1657 0
M  V30 5082 C 660.985 -8.33398 3.83019 0
M  V30 5083 O 659.93 -8.0998 3.00999 0
M  V30 5084 C 662.203 -7.65514 3.2257 0
M  V30 5085 O 662.941 -8.4329 2.32297 0
M  V30 5086 C 661.535 -6.40075 2.62207 0
M  V30 5087 O 662.333 -5.92338 1.5428 0
M  V30 5088 C 660.197 -6.9454 2.18503 0
M  V30 5089 N 659.154 -5.95905 2.39948 0
M  V30 5090 C 659.323 -4.98383 3.32108 0
M  V30 5091 N 658.296 -4.16798 3.41761 0
M  V30 5092 C 657.411 -4.65287 2.47461 0
M  V30 5093 C 656.144 -4.18946 2.07461 0
M  V30 5094 N 655.579 -4.95327 1.09101 0
M  V30 5095 C 656.181 -6.04369 0.519812 0
M  V30 5096 N 657.358 -6.50694 0.855982 0
M  V30 5097 C 657.933 -5.75818 1.84322 0
M  V30 5098 H 661.412 -5.60502 3.36589 0
M  V30 5099 H 662.895 -7.35707 4.02681 0
M  V30 5100 H 661.201 -9.41302 3.90009 0
M  V30 5101 H 661.011 -8.29056 5.99158 0
M  V30 5102 H 659.381 -8.10073 5.25882 0
M  V30 5103 H 660.223 -4.88564 3.92502 0
M  V30 5104 H 662.021 -6.30224 0.72668 0
M  V30 5105 P 663.878 -8.4349 2.47671 0
M  V30 5106 O 665.3 -8.94167 2.5964 0
M  V30 5107 O 663.518 -7.1704 3.19006 0
M  V30 5108 O 663.555 -8.16596 0.923387 0
M  V30 5109 C 663.395 -9.38437 0.108857 0
M  V30 5110 C 663.935 -9.08175 -1.28353 0
M  V30 5111 O 662.879 -8.44229 -1.84713 0
M  V30 5112 C 665.153 -8.18386 -1.42505 0
M  V30 5113 O 665.891 -8.3501 -2.60497 0
M  V30 5114 C 664.484 -6.80225 -1.25468 0
M  V30 5115 O 665.283 -5.81621 -1.91066 0
M  V30 5116 C 663.147 -7.02416 -1.9168 0
M  V30 5117 H 663.179 -6.6888 -2.96621 0
M  V30 5118 H 664.362 -6.53617 -0.192223 0
M  V30 5119 H 665.846 -8.36622 -0.589963 0
M  V30 5120 H 664.152 -10.0291 -1.79807 0
M  V30 5121 H 663.962 -10.2138 0.558219 0
M  V30 5122 H 662.332 -9.6579 0.0444202 0
M  V30 5123 H 664.971 -5.69556 -2.79637 0
M  V30 5124 P 666.829 -8.4349 -2.47671 0
M  V30 5125 O 668.251 -8.92593 -2.65 0
M  V30 5126 O 666.469 -7.7568 -1.19296 0
M  V30 5127 O 666.506 -7.36886 -3.63805 0
M  V30 5128 C 666.346 -7.95349 -4.982 0
M  V30 5129 C 666.886 -6.94612 -5.98974 0
M  V30 5130 O 665.83 -6.10347 -6.11815 0
M  V30 5131 C 668.104 -6.11426 -5.62335 0
M  V30 5132 O 668.842 -5.6162 -6.70584 0
M  V30 5133 C 667.435 -5.04409 -4.73308 0
M  V30 5134 O 668.234 -3.85992 -4.75183 0
M  V30 5135 C 666.098 -4.8728 -5.41006 0
M  V30 5136 H 666.13 -4.02333 -6.11157 0
M  V30 5137 H 667.313 -5.39466 -3.69543 0
M  V30 5138 H 668.797 -6.71916 -5.01943 0
M  V30 5139 H 667.103 -7.4649 -6.93477 0
M  V30 5140 H 666.913 -8.89416 -5.05237 0
M  V30 5141 H 665.283 -8.14876 -5.18409 0
M  V30 5142 H 667.922 -3.27957 -5.4317 0
M  V30 5143 P 669.779 -5.75688 -6.64379 0
M  V30 5144 O 671.18 -6.14823 -7.06682 0
M  V30 5145 O 669.401 -5.93957 -5.20728 0
M  V30 5146 O 669.456 -4.23169 -7.04357 0
M  V30 5147 C 669.296 -3.99743 -8.4911 0
M  V30 5148 C 669.836 -2.60487 -8.79329 0
M  V30 5149 O 668.78 -1.82663 -8.44573 0
M  V30 5150 C 671.053 -2.10343 -8.03628 0
M  V30 5151 O 671.792 -1.09919 -8.67766 0
M  V30 5152 C 670.386 -1.68446 -6.70876 0
M  V30 5153 O 671.184 -0.678026 -6.08333 0
M  V30 5154 C 669.048 -1.17436 -7.18567 0
M  V30 5155 N 668.005 -1.52699 -6.23988 0
M  V30 5156 C 666.97 -0.643793 -6.05085 0
M  V30 5157 O 667.009 0.459118 -6.64315 0
M  V30 5158 N 665.958 -0.976931 -5.22038 0
M  V30 5159 C 666.006 -2.14429 -4.56662 0
M  V30 5160 C 667.102 -3.04203 -4.71481 0
M  V30 5161 C 668.068 -2.69669 -5.56838 0
M  V30 5162 H 669.08 -0.0804622 -7.31556 0
M  V30 5163 H 670.263 -2.53396 -6.02698 0
M  V30 5164 H 671.747 -2.9313 -7.85914 0
M  V30 5165 H 670.053 -2.52078 -9.87225 0
M  V30 5166 H 669.862 -4.75072 -9.05887 0
M  V30 5167 H 668.232 -4.05202 -8.76577 0
M  V30 5168 H 667.15 -3.97309 -4.15519 0
M  V30 5169 H 668.914 -3.36869 -5.72318 0
M  V30 5170 H 670.968 0.167718 -6.44882 0
M  V30 5171 P 672.73 -1.25109 -8.70152 0
M  V30 5172 O 674.152 -1.29744 -9.22016 0
M  V30 5173 O 672.37 -2.13714 -7.55141 0
M  V30 5174 O 672.407 0.248149 -8.21425 0
M  V30 5175 C 672.247 1.22779 -9.30434 0
M  V30 5176 C 672.787 2.56293 -8.80664 0
M  V30 5177 O 671.731 3.02979 -8.09349 0
M  V30 5178 C 674.005 2.57523 -7.89775 0
M  V30 5179 O 674.743 3.7668 -7.89438 0
M  V30 5180 C 673.336 2.20997 -6.55446 0
M  V30 5181 O 674.135 2.71895 -5.48509 0
M  V30 5182 C 671.999 2.89693 -6.67988 0
M  V30 5183 H 672.031 3.88793 -6.19859 0
M  V30 5184 H 673.214 1.12046 -6.44229 0
M  V30 5185 H 674.698 1.7746 -8.19711 0
M  V30 5186 H 673.004 3.20706 -9.67112 0
M  V30 5187 H 672.814 0.901032 -10.1892 0
M  V30 5188 H 671.184 1.33049 -9.56592 0
M  V30 5189 H 673.823 3.57847 -5.23962 0
M  V30 5190 P 675.681 3.65191 -7.99657 0
M  V30 5191 O 677.103 3.89332 -8.45794 0
M  V30 5192 O 675.321 2.28472 -7.50807 0
M  V30 5193 O 675.358 4.64972 -6.77611 0
M  V30 5194 C 675.198 6.06319 -7.16352 0
M  V30 5195 C 675.738 6.91731 -6.02299 0
M  V30 5196 O 674.682 6.92449 -5.17064 0
M  V30 5197 C 676.956 6.43627 -5.25174 0
M  V30 5198 O 677.694 7.43686 -4.60469 0
M  V30 5199 C 676.287 5.40275 -4.31916 0
M  V30 5200 O 677.086 5.25279 -3.14438 0
M  V30 5201 C 674.95 6.04847 -4.05327 0
M  V30 5202 H 674.982 6.62195 -3.11261 0
M  V30 5203 H 676.165 4.42556 -4.81383 0
M  V30 5204 H 677.649 5.92458 -5.93643 0
M  V30 5205 H 675.955 7.92655 -6.402 0
M  V30 5206 H 675.765 6.26671 -8.0846 0
M  V30 5207 H 674.135 6.29101 -7.32804 0
M  V30 5208 H 676.774 5.84315 -2.47318 0
M  V30 5209 P 678.631 7.39546 -4.75277 0
M  V30 5210 O 680.032 7.86988 -5.07993 0
M  V30 5211 O 678.253 5.99957 -5.13804 0
M  V30 5212 O 678.308 7.57411 -3.18621 0
M  V30 5213 C 678.148 8.97357 -2.74833 0
M  V30 5214 C 678.688 9.0745 -1.32694 0
M  V30 5215 O 677.632 8.61972 -0.606089 0
M  V30 5216 C 679.905 8.25383 -0.938334 0
M  V30 5217 O 680.644 8.74577 0.146954 0
M  V30 5218 C 679.238 6.8802 -0.712559 0
M  V30 5219 O 680.036 6.11791 0.194623 0
M  V30 5220 C 677.9 7.27966 -0.139777 0
M  V30 5221 N 676.857 6.39368 -0.623421 0
M  V30 5222 C 675.822 6.08088 0.223886 0
M  V30 5223 O 675.861 6.5102 1.39986 0
M  V30 5224 N 674.81 5.30627 -0.224051 0
M  V30 5225 C 674.858 4.82531 -1.47257 0
M  V30 5226 C 675.954 5.09974 -2.34008 0
M  V30 5227 C 676.92 5.89548 -1.87678 0
M  V30 5228 H 677.932 7.25255 0.961469 0
M  V30 5229 H 679.115 6.32625 -1.65044 0
M  V30 5230 H 680.599 8.19631 -1.78299 0
M  V30 5231 H 678.905 10.1305 -1.09016 0
M  V30 5232 H 678.714 9.64276 -3.41316 0
M  V30 5233 H 677.084 9.25321 -2.76328 0
M  V30 5234 H 676.002 4.67832 -3.3413 0
M  V30 5235 H 677.766 6.14434 -2.51991 0
M  V30 5236 H 679.82 6.35931 1.08377 0
M  V30 5237 P 681.582 8.791 4.7645e-12 0
M  V30 5238 O 683.004 9.31096 0.027933 0
M  V30 5239 O 681.222 7.77869 -1.04071 0
M  V30 5240 O 681.259 8.09533 1.41463 0
M  V30 5241 C 681.099 9.0349 2.53943 0
M  V30 5242 C 681.639 8.35226 3.79016 0
M  V30 5243 O 680.583 7.57992 4.15078 0
M  V30 5244 C 682.857 7.45087 3.67298 0
M  V30 5245 O 683.595 7.27796 4.85194 0
M  V30 5246 C 682.188 6.17323 3.12027 0
M  V30 5247 O 682.987 5.04231 3.47188 0
M  V30 5248 C 680.851 6.19961 3.81809 0
M  V30 5249 H 680.883 5.58218 4.73051 0
M  V30 5250 H 682.066 6.21726 2.02589 0
M  V30 5251 H 683.55 7.86112 2.9231 0
M  V30 5252 H 681.856 9.11627 4.55076 0
M  V30 5253 H 681.666 9.9573 2.34194 0
M  V30 5254 H 680.036 9.2792 2.67832 0
M  V30 5255 H 682.675 4.67702 4.28772 0
M  V30 5256 P 684.532 7.39546 4.75277 0
M  V30 5257 O 685.954 7.81777 5.05738 0
M  V30 5258 O 684.172 7.1065 3.32998 0
M  V30 5259 O 684.209 6.04542 5.56673 0
M  V30 5260 C 684.049 6.22772 7.02095 0
M  V30 5261 C 684.589 4.97725 7.70406 0
M  V30 5262 O 683.533 4.13256 7.58987 0
M  V30 5263 C 685.807 4.28231 7.11815 0
M  V30 5264 O 686.545 3.49945 8.01648 0
M  V30 5265 C 685.138 3.5063 5.96244 0
M  V30 5266 O 685.937 2.36482 5.64681 0
M  V30 5267 C 683.801 3.15122 6.56374 0
M  V30 5268 H 683.833 2.13853 6.99751 0
M  V30 5269 H 685.016 4.13501 5.06559 0
M  V30 5270 H 686.5 5.03285 6.70911 0
M  V30 5271 H 684.806 5.20877 8.75697 0
M  V30 5272 H 684.616 7.11046 7.35349 0
M  V30 5273 H 682.986 6.35815 7.26986 0
M  V30 5274 H 685.625 1.61644 6.13565 0
M  V30 5275 P 687.483 3.65191 7.99657 0
M  V30 5276 O 688.905 3.84333 8.48297 0
M  V30 5277 O 687.123 4.17805 6.64342 0
M  V30 5278 O 687.16 2.07613 7.95143 0
M  V30 5279 C 687 1.44328 9.27336 0
M  V30 5280 C 687.54 0.0220012 9.17097 0
M  V30 5281 O 686.485 -0.626867 8.61923 0
M  V30 5282 C 688.758 -0.24586 8.30336 0
M  V30 5283 O 689.496 -1.39011 8.63583 0
M  V30 5284 C 688.09 -0.273849 6.91158 0
M  V30 5285 O 688.888 -1.06331 6.02794 0
M  V30 5286 C 686.752 -0.897649 7.22545 0
M  V30 5287 N 685.709 -0.292839 6.41732 0
M  V30 5288 C 685.771 1.00068 6.10757 0
M  V30 5289 N 684.726 1.36468 5.35794 0
M  V30 5290 C 683.992 0.258894 5.2366 0
M  V30 5291 C 682.686 0.0670682 4.65752 0
M  V30 5292 O 681.953 0.902443 4.10497 0
M  V30 5293 N 682.256 -1.2131 4.75881 0
M  V30 5294 C 683.005 -2.24934 5.37101 0
M  V30 5295 N 682.408 -3.48783 5.33984 0
M  V30 5296 N 684.158 -2.0844 5.95684 0
M  V30 5297 C 684.615 -0.81395 5.87791 0
M  V30 5298 H 686.784 -1.9841 7.04286 0
M  V30 5299 H 687.967 0.739815 6.49601 0
M  V30 5300 H 689.452 0.598315 8.36563 0
M  V30 5301 H 687.757 -0.352479 10.1829 0
M  V30 5302 H 687.567 2.00611 10.0304 0
M  V30 5303 H 685.936 1.41843 9.55327 0
M  V30 5304 H 681.36 -1.44434 4.37895 0
M  V30 5305 H 686.567 1.67697 6.42268 0
M  V30 5306 H 681.497 -3.60543 4.87699 0
M  V30 5307 H 682.873 -4.29232 5.7819 0
M  V30 5308 H 688.577 -1.95704 6.0346 0
M  V30 5309 P 690.433 -1.25109 8.70152 0
M  V30 5310 O 691.855 -1.35274 9.21221 0
M  V30 5311 O 690.073 -0.0769065 7.84762 0
M  V30 5312 O 690.11 -2.55232 7.81161 0
M  V30 5313 C 689.95 -3.79939 8.58154 0
M  V30 5314 C 690.49 -4.94023 7.72785 0
M  V30 5315 O 689.434 -5.18726 6.91205 0
M  V30 5316 C 691.708 -4.69597 6.85231 0
M  V30 5317 O 692.446 -5.83832 6.51337 0
M  V30 5318 C 691.039 -3.96706 5.66633 0
M  V30 5319 O 691.838 -4.15414 4.49689 0
M  V30 5320 C 689.702 -4.66153 5.59313 0
M  V30 5321 H 689.734 -5.47679 4.85214 0
M  V30 5322 H 690.917 -2.89008 5.86566 0
M  V30 5323 H 692.401 -4.0121 7.36511 0
M  V30 5324 H 690.707 -5.80182 8.37584 0
M  V30 5325 H 690.517 -3.73517 9.52265 0
M  V30 5326 H 688.887 -3.97163 8.80359 0
M  V30 5327 H 691.526 -4.90969 4.01921 0
M  V30 5328 P 693.384 -5.75688 6.64379 0
M  V30 5329 O 694.806 -6.11849 7.01846 0
M  V30 5330 O 693.024 -4.30744 6.56026 0
M  V30 5331 O 693.061 -6.37042 5.19165 0
M  V30 5332 C 692.901 -7.83578 5.16515 0
M  V30 5333 C 693.441 -8.33398 3.83019 0
M  V30 5334 O 692.385 -8.10074 3.01034 0
M  V30 5335 C 694.659 -7.65514 3.2257 0
M  V30 5336 O 695.397 -8.4329 2.32297 0
M  V30 5337 C 693.99 -6.40075 2.62207 0
M  V30 5338 O 694.789 -5.92589 1.53712 0
M  V30 5339 C 692.653 -6.9454 2.18503 0
M  V30 5340 H 692.685 -7.23063 1.12091 0
M  V30 5341 H 693.868 -5.6025 3.37201 0
M  V30 5342 H 695.352 -7.35707 4.02681 0
M  V30 5343 H 693.658 -9.40912 3.9095 0
M  V30 5344 H 693.468 -8.29056 5.99158 0
M  V30 5345 H 691.838 -8.10073 5.25882 0
M  V30 5346 H 694.477 -6.30324 0.726794 0
M  V30 5347 P 696.335 -8.4349 2.47671 0
M  V30 5348 O 697.736 -8.98227 2.65696 0
M  V30 5349 O 695.957 -7.20409 3.23964 0
M  V30 5350 O 696.012 -8.16496 0.923275 0
M  V30 5351 C 695.852 -9.38437 0.108857 0
M  V30 5352 C 696.392 -9.08076 -1.28339 0
M  V30 5353 O 695.336 -8.44131 -1.84692 0
M  V30 5354 C 697.609 -8.18386 -1.42505 0
M  V30 5355 O 698.348 -8.3501 -2.60497 0
M  V30 5356 C 696.942 -6.80225 -1.25468 0
M  V30 5357 O 697.74 -5.81526 -1.91035 0
M  V30 5358 C 695.604 -7.02416 -1.9168 0
M  V30 5359 N 694.561 -6.31033 -1.20314 0
M  V30 5360 C 693.526 -5.77149 -1.928 0
M  V30 5361 O 693.565 -5.8521 -3.17729 0
M  V30 5362 N 692.514 -5.15445 -1.27997 0
M  V30 5363 C 692.562 -5.04472 0.0534726 0
M  V30 5364 C 693.658 -5.55244 0.808522 0
M  V30 5365 C 694.624 -6.18542 0.13981 0
M  V30 5366 H 695.636 -6.68789 -2.9658 0
M  V30 5367 H 696.819 -6.53498 -0.198729 0
M  V30 5368 H 698.303 -8.36663 -0.5984 0
M  V30 5369 H 696.609 -10.0273 -1.8081 0
M  V30 5370 H 696.418 -10.2138 0.558219 0
M  V30 5371 H 694.788 -9.6569 0.0444156 0
M  V30 5372 H 693.706 -5.43017 1.88792 0
M  V30 5373 H 695.47 -6.60539 0.686773 0
M  V30 5374 H 697.524 -5.79638 -2.8315 0
M  V30 5375 P 699.285 -8.4349 -2.47671 0
M  V30 5376 O 700.706 -8.92689 -2.65029 0
M  V30 5377 O 698.925 -7.7568 -1.19296 0
M  V30 5378 O 698.962 -7.36886 -3.63805 0
M  V30 5379 C 698.801 -7.95433 -4.98253 0
M  V30 5380 C 699.342 -6.94612 -5.98974 0
M  V30 5381 O 698.287 -6.10277 -6.11744 0
M  V30 5382 C 700.56 -6.11426 -5.62335 0
M  V30 5383 O 701.298 -5.6162 -6.70584 0
M  V30 5384 C 699.892 -5.04409 -4.73308 0
M  V30 5385 O 700.69 -3.86404 -4.74719 0
M  V30 5386 C 698.554 -4.8728 -5.41006 0
M  V30 5387 N 697.511 -4.65812 -4.42377 0
M  V30 5388 C 697.68 -5.09132 -3.15382 0
M  V30 5389 N 696.653 -4.84021 -2.3716 0
M  V30 5390 C 695.768 -4.18386 -3.20441 0
M  V30 5391 C 694.501 -3.6275 -2.94905 0
M  V30 5392 N 693.936 -3.05008 -4.05243 0
M  V30 5393 C 694.538 -2.98348 -5.28159 0
M  V30 5394 N 695.715 -3.48171 -5.56333 0
M  V30 5395 C 696.29 -4.06869 -4.47212 0
M  V30 5396 H 699.769 -5.39013 -3.70026 0
M  V30 5397 H 701.252 -6.71916 -5.01943 0
M  V30 5398 H 699.558 -7.45796 -6.94223 0
M  V30 5399 H 699.368 -8.89416 -5.05237 0
M  V30 5400 H 697.738 -8.14876 -5.18409 0
M  V30 5401 H 698.58 -5.59989 -2.81362 0
M  V30 5402 H 700.378 -3.27906 -5.43085 0
M  V30 5403 P 702.236 -5.75688 -6.64379 0
M  V30 5404 O 703.658 -6.07627 -7.05504 0
M  V30 5405 O 701.876 -5.88047 -5.19722 0
M  V30 5406 O 701.913 -4.2322 -7.04443 0
M  V30 5407 C 701.753 -3.99743 -8.4911 0
M  V30 5408 C 702.293 -2.60516 -8.79425 0
M  V30 5409 O 701.237 -1.82684 -8.4467 0
M  V30 5410 C 703.511 -2.10343 -8.03628 0
M  V30 5411 O 704.249 -1.09919 -8.67766 0
M  V30 5412 C 702.842 -1.68446 -6.70876 0
M  V30 5413 O 703.641 -0.678137 -6.08433 0
M  V30 5414 C 701.505 -1.17436 -7.18567 0
M  V30 5415 H 701.537 -0.0804732 -7.31656 0
M  V30 5416 H 702.72 -2.54037 -6.02537 0
M  V30 5417 H 704.204 -2.93881 -7.85526 0
M  V30 5418 H 702.51 -2.53065 -9.86973 0
M  V30 5419 H 702.32 -4.75072 -9.05887 0
M  V30 5420 H 700.69 -4.05244 -8.76668 0
M  V30 5421 H 703.329 0.177647 -6.34251 0
M  V30 5422 P 705.186 -1.25109 -8.70152 0
M  V30 5423 O 706.587 -1.3516 -9.26897 0
M  V30 5424 O 704.808 -2.18141 -7.59181 0
M  V30 5425 O 704.863 0.248118 -8.21325 0
M  V30 5426 C 704.703 1.22779 -9.30434 0
M  V30 5427 C 705.243 2.56265 -8.80568 0
M  V30 5428 O 704.187 3.02944 -8.09255 0
M  V30 5429 C 706.46 2.57523 -7.89775 0
M  V30 5430 O 707.199 3.7668 -7.89438 0
M  V30 5431 C 705.793 2.20997 -6.55446 0
M  V30 5432 O 706.591 2.71851 -5.48419 0
M  V30 5433 C 704.455 2.89693 -6.67988 0
M  V30 5434 N 703.412 2.08895 -6.07487 0
M  V30 5435 C 702.377 2.72974 -5.43836 0
M  V30 5436 O 702.416 3.97779 -5.34036 0
M  V30 5437 N 701.365 2.0005 -4.91983 0
M  V30 5438 C 701.413 0.66501 -5.00098 0
M  V30 5439 C 702.509 -0.0100979 -5.61099 0
M  V30 5440 C 703.475 0.74189 -6.14236 0
M  V30 5441 H 704.487 3.8874 -6.19774 0
M  V30 5442 H 705.67 1.12673 -6.44018 0
M  V30 5443 H 707.154 1.783 -8.19631 0
M  V30 5444 H 705.46 3.21673 -9.66791 0
M  V30 5445 H 705.269 0.901032 -10.1892 0
M  V30 5446 H 703.639 1.33036 -9.56493 0
M  V30 5447 H 702.557 -1.09591 -5.64358 0
M  V30 5448 H 704.321 0.260263 -6.6359 0
M  V30 5449 H 706.375 3.62759 -5.33442 0
M  V30 5450 P 708.137 3.65191 -7.99657 0
M  V30 5451 O 709.559 3.89332 -8.45794 0
M  V30 5452 O 707.777 2.28472 -7.50807 0
M  V30 5453 O 707.814 4.64972 -6.77611 0
M  V30 5454 C 707.654 6.06319 -7.16352 0
M  V30 5455 C 708.194 6.91731 -6.02299 0
M  V30 5456 O 707.138 6.92449 -5.17064 0
M  V30 5457 C 709.412 6.43627 -5.25174 0
M  V30 5458 O 710.15 7.43686 -4.60469 0
M  V30 5459 C 708.743 5.40275 -4.31916 0
M  V30 5460 O 709.542 5.25279 -3.14438 0
M  V30 5461 C 707.406 6.04847 -4.05327 0
M  V30 5462 H 707.438 6.62195 -3.11261 0
M  V30 5463 H 708.621 4.42556 -4.81383 0
M  V30 5464 H 710.105 5.92458 -5.93643 0
M  V30 5465 H 708.411 7.92655 -6.402 0
M  V30 5466 H 708.221 6.26671 -8.0846 0
M  V30 5467 H 706.591 6.29101 -7.32804 0
M  V30 5468 H 709.23 5.84315 -2.47318 0
M  V30 5469 P 711.087 7.39546 -4.75277 0
M  V30 5470 O 712.509 7.84798 -5.01039 0
M  V30 5471 O 710.727 5.9812 -5.08098 0
M  V30 5472 O 710.764 7.57503 -3.1866 0
M  V30 5473 C 710.604 8.97357 -2.74833 0
M  V30 5474 C 711.144 9.07548 -1.32709 0
M  V30 5475 O 710.088 8.62072 -0.606159 0
M  V30 5476 C 712.362 8.25383 -0.938334 0
M  V30 5477 O 713.1 8.74577 0.146954 0
M  V30 5478 C 711.693 6.8802 -0.712559 0
M  V30 5479 O 712.492 6.1189 0.194655 0
M  V30 5480 C 710.356 7.27966 -0.139777 0
M  V30 5481 H 710.388 7.25354 0.961601 0
M  V30 5482 H 711.571 6.32557 -1.65702 0
M  V30 5483 H 713.055 8.19355 -1.79097 0
M  V30 5484 H 711.361 10.1294 -1.10029 0
M  V30 5485 H 711.171 9.64276 -3.41316 0
M  V30 5486 H 709.541 9.25417 -2.76357 0
M  V30 5487 H 712.18 6.25267 1.07847 0
M  V30 5488 P 714.038 8.791 5.07466e-12 0
M  V30 5489 O 715.46 9.31096 0.027933 0
M  V30 5490 O 713.678 7.77869 -1.04071 0
M  V30 5491 O 713.715 8.09533 1.41463 0
M  V30 5492 C 713.555 9.0349 2.53943 0
M  V30 5493 C 714.095 8.35226 3.79016 0
M  V30 5494 O 713.039 7.57992 4.15078 0
M  V30 5495 C 715.313 7.45087 3.67298 0
M  V30 5496 O 716.051 7.27796 4.85194 0
M  V30 5497 C 714.644 6.17323 3.12027 0
M  V30 5498 O 715.443 5.04231 3.47188 0
M  V30 5499 C 713.307 6.19961 3.81809 0
M  V30 5500 H 713.339 5.58218 4.73051 0
M  V30 5501 H 714.522 6.21726 2.02589 0
M  V30 5502 H 716.006 7.86112 2.9231 0
M  V30 5503 H 714.312 9.11627 4.55076 0
M  V30 5504 H 714.122 9.9573 2.34194 0
M  V30 5505 H 712.492 9.2792 2.67832 0
M  V30 5506 H 715.131 4.67702 4.28772 0
M  V30 5507 P 716.989 7.39546 4.75277 0
M  V30 5508 O 718.411 7.81777 5.05738 0
M  V30 5509 O 716.629 7.1065 3.32998 0
M  V30 5510 O 716.666 6.04542 5.56673 0
M  V30 5511 C 716.506 6.22772 7.02095 0
M  V30 5512 C 717.046 4.97725 7.70406 0
M  V30 5513 O 715.99 4.13256 7.58987 0
M  V30 5514 C 718.264 4.28231 7.11815 0
M  V30 5515 O 719.002 3.49945 8.01648 0
M  V30 5516 C 717.595 3.5063 5.96244 0
M  V30 5517 O 718.394 2.36482 5.64681 0
M  V30 5518 C 716.258 3.15122 6.56374 0
M  V30 5519 H 716.29 2.13853 6.99751 0
M  V30 5520 H 717.473 4.13501 5.06559 0
M  V30 5521 H 718.957 5.03285 6.70911 0
M  V30 5522 H 717.263 5.20877 8.75697 0
M  V30 5523 H 717.073 7.11046 7.35349 0
M  V30 5524 H 715.443 6.35815 7.26986 0
M  V30 5525 H 718.082 1.61644 6.13565 0
M  V30 5526 P 719.939 3.65191 7.99657 0
M  V30 5527 O 721.361 3.8425 8.48115 0
M  V30 5528 O 719.579 4.17805 6.64342 0
M  V30 5529 O 719.616 2.07613 7.95143 0
M  V30 5530 C 719.456 1.44328 9.27336 0
M  V30 5531 C 719.996 0.0220036 9.17197 0
M  V30 5532 O 718.94 -0.626867 8.61923 0
M  V30 5533 C 721.214 -0.24586 8.30336 0
M  V30 5534 O 721.952 -1.39011 8.63583 0
M  V30 5535 C 720.545 -0.273849 6.91158 0
M  V30 5536 O 721.344 -1.06348 6.02892 0
M  V30 5537 C 719.208 -0.897649 7.22545 0
M  V30 5538 H 719.24 -1.9841 7.04286 0
M  V30 5539 H 720.423 0.739928 6.497 0
M  V30 5540 H 721.907 0.60668 8.36503 0
M  V30 5541 H 720.213 -0.352479 10.1829 0
M  V30 5542 H 720.023 2.00611 10.0304 0
M  V30 5543 H 718.393 1.41843 9.55327 0
M  V30 5544 H 721.032 -1.95734 6.03555 0
M  V30 5545 P 722.89 -1.25109 8.70152 0
M  V30 5546 O 724.312 -1.35274 9.21221 0
M  V30 5547 O 722.53 -0.0769065 7.84762 0
M  V30 5548 O 722.567 -2.55232 7.81161 0
M  V30 5549 C 722.407 -3.79939 8.58154 0
M  V30 5550 C 722.947 -4.94023 7.72785 0
M  V30 5551 O 721.891 -5.18726 6.91205 0
M  V30 5552 C 724.165 -4.69597 6.85231 0
M  V30 5553 O 724.903 -5.83832 6.51337 0
M  V30 5554 C 723.496 -3.96706 5.66633 0
M  V30 5555 O 724.295 -4.15414 4.49689 0
M  V30 5556 C 722.159 -4.66153 5.59313 0
M  V30 5557 H 722.191 -5.47679 4.85214 0
M  V30 5558 H 723.374 -2.89008 5.86566 0
M  V30 5559 H 724.858 -4.0121 7.36511 0
M  V30 5560 H 723.164 -5.80182 8.37584 0
M  V30 5561 H 722.974 -3.73517 9.52265 0
M  V30 5562 H 721.344 -3.97163 8.80359 0
M  V30 5563 H 723.983 -4.90969 4.01921 0
M  V30 5564 P 725.84 -5.75688 6.64379 0
M  V30 5565 O 727.262 -6.11849 7.01846 0
M  V30 5566 O 725.48 -4.30744 6.56026 0
M  V30 5567 O 725.517 -6.37042 5.19165 0
M  V30 5568 C 725.357 -7.83578 5.16515 0
M  V30 5569 C 725.897 -8.33398 3.83019 0
M  V30 5570 O 724.841 -8.10074 3.01034 0
M  V30 5571 C 727.115 -7.65514 3.2257 0
M  V30 5572 O 727.853 -8.4329 2.32297 0
M  V30 5573 C 726.446 -6.40075 2.62207 0
M  V30 5574 O 727.245 -5.92589 1.53712 0
M  V30 5575 C 725.109 -6.9454 2.18503 0
M  V30 5576 H 725.141 -7.23063 1.12091 0
M  V30 5577 H 726.324 -5.6025 3.37201 0
M  V30 5578 H 727.808 -7.35707 4.02681 0
M  V30 5579 H 726.114 -9.40912 3.9095 0
M  V30 5580 H 725.924 -8.29056 5.99158 0
M  V30 5581 H 724.294 -8.10073 5.25882 0
M  V30 5582 H 726.933 -6.30324 0.726794 0
M  V30 5583 P 728.791 -8.4349 2.47671 0
M  V30 5584 O 730.213 -8.94167 2.5964 0
M  V30 5585 O 728.431 -7.1704 3.19006 0
M  V30 5586 O 728.468 -8.16596 0.923387 0
M  V30 5587 C 728.308 -9.38437 0.108857 0
M  V30 5588 C 728.848 -9.08175 -1.28353 0
M  V30 5589 O 727.792 -8.44229 -1.84713 0
M  V30 5590 C 730.066 -8.18386 -1.42505 0
M  V30 5591 O 730.804 -8.3501 -2.60497 0
M  V30 5592 C 729.397 -6.80225 -1.25468 0
M  V30 5593 O 730.196 -5.81621 -1.91066 0
M  V30 5594 C 728.06 -7.02416 -1.9168 0
M  V30 5595 H 728.092 -6.6888 -2.96621 0
M  V30 5596 H 729.275 -6.53617 -0.192223 0
M  V30 5597 H 730.759 -8.36622 -0.589963 0
M  V30 5598 H 729.065 -10.0291 -1.79807 0
M  V30 5599 H 728.875 -10.2138 0.558219 0
M  V30 5600 H 727.245 -9.6579 0.0444202 0
M  V30 5601 H 729.884 -5.69556 -2.79637 0
M  V30 5602 P 731.741 -8.4349 -2.47671 0
M  V30 5603 O 733.163 -8.92593 -2.65 0
M  V30 5604 O 731.381 -7.7568 -1.19296 0
M  V30 5605 O 731.418 -7.36886 -3.63805 0
M  V30 5606 C 731.258 -7.95349 -4.982 0
M  V30 5607 C 731.798 -6.94612 -5.98974 0
M  V30 5608 O 730.742 -6.10347 -6.11815 0
M  V30 5609 C 733.016 -6.11426 -5.62335 0
M  V30 5610 O 733.754 -5.6162 -6.70584 0
M  V30 5611 C 732.347 -5.04409 -4.73308 0
M  V30 5612 O 733.146 -3.85992 -4.75183 0
M  V30 5613 C 731.01 -4.8728 -5.41006 0
M  V30 5614 H 731.042 -4.02333 -6.11157 0
M  V30 5615 H 732.225 -5.39466 -3.69543 0
M  V30 5616 H 733.709 -6.71916 -5.01943 0
M  V30 5617 H 732.015 -7.4649 -6.93477 0
M  V30 5618 H 731.825 -8.89416 -5.05237 0
M  V30 5619 H 730.195 -8.14876 -5.18409 0
M  V30 5620 H 732.834 -3.27957 -5.4317 0
M  V30 5621 P 734.692 -5.75688 -6.64379 0
M  V30 5622 O 736.113 -6.07692 -7.0558 0
M  V30 5623 O 734.332 -5.88047 -5.19722 0
M  V30 5624 O 734.369 -4.2322 -7.04443 0
M  V30 5625 C 734.208 -3.99785 -8.49201 0
M  V30 5626 C 734.749 -2.60516 -8.79425 0
M  V30 5627 O 733.694 -1.82663 -8.44573 0
M  V30 5628 C 735.967 -2.10343 -8.03628 0
M  V30 5629 O 736.705 -1.09919 -8.67766 0
M  V30 5630 C 735.299 -1.68446 -6.70876 0
M  V30 5631 O 736.097 -0.684109 -6.08265 0
M  V30 5632 C 733.961 -1.17436 -7.18567 0
M  V30 5633 N 732.918 -1.52699 -6.23988 0
M  V30 5634 C 733.087 -2.578 -5.40574 0
M  V30 5635 N 732.06 -2.78966 -4.61193 0
M  V30 5636 C 731.175 -1.78725 -4.95769 0
M  V30 5637 C 729.908 -1.45727 -4.44207 0
M  V30 5638 N 729.343 -0.374977 -5.05812 0
M  V30 5639 C 729.945 0.345585 -6.05615 0
M  V30 5640 N 731.122 0.0787651 -6.56253 0
M  V30 5641 C 731.697 -1.00499 -5.96189 0
M  V30 5642 H 735.176 -2.53396 -6.02698 0
M  V30 5643 H 736.659 -2.93881 -7.85526 0
M  V30 5644 H 734.965 -2.52078 -9.87225 0
M  V30 5645 H 734.775 -4.75072 -9.05887 0
M  V30 5646 H 733.145 -4.05244 -8.76668 0
M  V30 5647 H 733.987 -3.18977 -5.3945 0
M  V30 5648 H 735.785 0.177619 -6.34151 0
M  V30 5649 P 737.643 -1.25109 -8.70152 0
M  V30 5650 O 739.065 -1.29744 -9.22016 0
M  V30 5651 O 737.283 -2.13714 -7.55141 0
M  V30 5652 O 737.32 0.248149 -8.21425 0
M  V30 5653 C 737.16 1.22779 -9.30434 0
M  V30 5654 C 737.7 2.56293 -8.80664 0
M  V30 5655 O 736.644 3.02979 -8.09349 0
M  V30 5656 C 738.918 2.57523 -7.89775 0
M  V30 5657 O 739.656 3.7668 -7.89438 0
M  V30 5658 C 738.249 2.20997 -6.55446 0
M  V30 5659 O 739.048 2.71895 -5.48509 0
M  V30 5660 C 736.912 2.89693 -6.67988 0
M  V30 5661 H 736.944 3.88793 -6.19859 0
M  V30 5662 H 738.127 1.12046 -6.44229 0
M  V30 5663 H 739.611 1.7746 -8.19711 0
M  V30 5664 H 737.917 3.20706 -9.67112 0
M  V30 5665 H 737.726 0.901032 -10.1892 0
M  V30 5666 H 736.096 1.33049 -9.56592 0
M  V30 5667 H 738.736 3.57847 -5.23962 0
M  V30 5668 P 740.593 3.65191 -7.99657 0
M  V30 5669 O 742.014 3.89374 -8.45885 0
M  V30 5670 O 740.233 2.28472 -7.50807 0
M  V30 5671 O 740.27 4.64972 -6.77611 0
M  V30 5672 C 740.109 6.06383 -7.16428 0
M  V30 5673 C 740.65 6.91731 -6.02299 0
M  V30 5674 O 739.595 6.92369 -5.17005 0
M  V30 5675 C 741.868 6.43627 -5.25174 0
M  V30 5676 O 742.606 7.43686 -4.60469 0
M  V30 5677 C 741.2 5.40275 -4.31916 0
M  V30 5678 O 741.998 5.24878 -3.14911 0
M  V30 5679 C 739.862 6.04847 -4.05327 0
M  V30 5680 N 738.819 5.04166 -3.98114 0
M  V30 5681 C 738.988 3.84629 -4.59066 0
M  V30 5682 N 737.961 3.0363 -4.45343 0
M  V30 5683 C 737.076 3.76722 -3.68523 0
M  V30 5684 C 735.809 3.43528 -3.17088 0
M  V30 5685 N 735.21 2.23665 -3.37397 0
M  V30 5686 N 735.244 4.44526 -2.44231 0
M  V30 5687 C 735.846 5.65243 -2.20146 0
M  V30 5688 N 737.023 6.00221 -2.65453 0
M  V30 5689 C 737.598 5.00564 -3.39083 0
M  V30 5690 H 739.894 6.62104 -3.11218 0
M  V30 5691 H 741.077 4.42969 -4.80867 0
M  V30 5692 H 742.56 5.92458 -5.93643 0
M  V30 5693 H 740.866 7.93295 -6.39407 0
M  V30 5694 H 740.676 6.26671 -8.0846 0
M  V30 5695 H 739.046 6.29101 -7.32804 0
M  V30 5696 H 735.31 6.36894 -1.5883 0
M  V30 5697 H 739.888 3.58193 -5.14248 0
M  V30 5698 H 734.28 2.05145 -2.97047 0
M  V30 5699 H 735.684 1.51255 -3.92998 0
M  V30 5700 H 741.686 5.84223 -2.47279 0
M  V30 5701 P 743.544 7.39546 -4.75277 0
M  V30 5702 O 744.966 7.84798 -5.01039 0
M  V30 5703 O 743.184 5.9812 -5.08098 0
M  V30 5704 O 743.221 7.57503 -3.1866 0
M  V30 5705 C 743.061 8.97357 -2.74833 0
M  V30 5706 C 743.601 9.07548 -1.32709 0
M  V30 5707 O 742.545 8.62072 -0.606159 0
M  V30 5708 C 744.819 8.25383 -0.938334 0
M  V30 5709 O 745.557 8.74577 0.146954 0
M  V30 5710 C 744.15 6.8802 -0.712559 0
M  V30 5711 O 744.949 6.1189 0.194655 0
M  V30 5712 C 742.813 7.27966 -0.139777 0
M  V30 5713 H 742.845 7.25354 0.961601 0
M  V30 5714 H 744.028 6.32557 -1.65702 0
M  V30 5715 H 745.512 8.19355 -1.79097 0
M  V30 5716 H 743.818 10.1294 -1.10029 0
M  V30 5717 H 743.628 9.64276 -3.41316 0
M  V30 5718 H 741.998 9.25417 -2.76357 0
M  V30 5719 H 744.637 6.25267 1.07847 0
M  V30 5720 P 746.494 8.791 5.38483e-12 0
M  V30 5721 O 747.915 9.31196 0.027936 0
M  V30 5722 O 746.134 7.77869 -1.04071 0
M  V30 5723 O 746.171 8.09533 1.41463 0
M  V30 5724 C 746.01 9.03587 2.5397 0
M  V30 5725 C 746.551 8.35226 3.79016 0
M  V30 5726 O 745.496 7.57904 4.1503 0
M  V30 5727 C 747.769 7.45087 3.67298 0
M  V30 5728 O 748.507 7.27796 4.85194 0
M  V30 5729 C 747.101 6.17323 3.12027 0
M  V30 5730 O 747.899 5.04496 3.46627 0
M  V30 5731 C 745.763 6.19961 3.81809 0
M  V30 5732 N 744.72 5.71575 2.93223 0
M  V30 5733 C 744.889 5.77362 1.59168 0
M  V30 5734 N 743.862 5.3123 0.911893 0
M  V30 5735 C 742.977 4.91717 1.89588 0
M  V30 5736 C 741.71 4.3114 1.8076 0
M  V30 5737 N 741.111 3.99821 0.632928 0
M  V30 5738 N 741.145 4.06823 3.02898 0
M  V30 5739 C 741.747 4.35062 4.22711 0
M  V30 5740 N 742.924 4.90805 4.35707 0
M  V30 5741 C 743.499 5.16382 3.14469 0
M  V30 5742 H 745.795 5.58142 4.72986 0
M  V30 5743 H 746.978 6.21428 2.0318 0
M  V30 5744 H 748.461 7.86112 2.9231 0
M  V30 5745 H 746.767 9.11171 4.55987 0
M  V30 5746 H 746.577 9.9573 2.34194 0
M  V30 5747 H 744.947 9.2792 2.67832 0
M  V30 5748 H 741.211 4.09052 5.13359 0
M  V30 5749 H 745.789 6.16575 1.12198 0
M  V30 5750 H 740.181 3.55423 0.632085 0
M  V30 5751 H 741.585 4.20317 -0.256712 0
M  V30 5752 H 747.587 4.67628 4.28704 0
M  V30 5753 P 749.445 7.39546 4.75277 0
M  V30 5754 O 750.867 7.81777 5.05738 0
M  V30 5755 O 749.085 7.1065 3.32998 0
M  V30 5756 O 749.122 6.04542 5.56673 0
M  V30 5757 C 748.962 6.22772 7.02095 0
M  V30 5758 C 749.502 4.97725 7.70406 0
M  V30 5759 O 748.446 4.13256 7.58987 0
M  V30 5760 C 750.72 4.28231 7.11815 0
M  V30 5761 O 751.458 3.49945 8.01648 0
M  V30 5762 C 750.051 3.5063 5.96244 0
M  V30 5763 O 750.85 2.36482 5.64681 0
M  V30 5764 C 748.714 3.15122 6.56374 0
M  V30 5765 H 748.746 2.13853 6.99751 0
M  V30 5766 H 749.929 4.13501 5.06559 0
M  V30 5767 H 751.413 5.03285 6.70911 0
M  V30 5768 H 749.719 5.20877 8.75697 0
M  V30 5769 H 749.529 7.11046 7.35349 0
M  V30 5770 H 747.899 6.35815 7.26986 0
M  V30 5771 H 750.538 1.61644 6.13565 0
M  V30 5772 P 752.395 3.65191 7.99657 0
M  V30 5773 O 753.816 3.84292 8.48206 0
M  V30 5774 O 752.035 4.17805 6.64342 0
M  V30 5775 O 752.072 2.07613 7.95143 0
M  V30 5776 C 751.911 1.44344 9.27435 0
M  V30 5777 C 752.452 0.0220036 9.17197 0
M  V30 5778 O 751.397 -0.626794 8.61824 0
M  V30 5779 C 753.67 -0.24586 8.30336 0
M  V30 5780 O 754.408 -1.39011 8.63583 0
M  V30 5781 C 753.002 -0.273849 6.91158 0
M  V30 5782 O 753.8 -1.05728 6.029 0
M  V30 5783 C 751.664 -0.897649 7.22545 0
M  V30 5784 N 750.621 -0.292839 6.41732 0
M  V30 5785 C 750.79 0.950603 5.91308 0
M  V30 5786 N 749.763 1.37732 5.21105 0
M  V30 5787 C 748.878 0.318109 5.26039 0
M  V30 5788 C 747.611 0.146766 4.6727 0
M  V30 5789 N 747.012 1.08519 3.89983 0
M  V30 5790 N 747.046 -1.06525 4.95887 0
M  V30 5791 C 747.648 -2.0378 5.71347 0
M  V30 5792 N 748.825 -1.92445 6.27451 0
M  V30 5793 C 749.4 -0.715382 6.00353 0
M  V30 5794 H 751.696 -1.98383 7.04189 0
M  V30 5795 H 752.879 0.733318 6.49674 0
M  V30 5796 H 754.362 0.60668 8.36503 0
M  V30 5797 H 752.668 -0.362662 10.1825 0
M  V30 5798 H 752.478 2.00611 10.0304 0
M  V30 5799 H 750.848 1.41843 9.55327 0
M  V30 5800 H 747.112 -2.97041 5.85344 0
M  V30 5801 H 751.69 1.54076 6.07465 0
M  V30 5802 H 746.082 0.901517 3.49562 0
M  V30 5803 H 747.486 1.97957 3.71669 0
M  V30 5804 H 753.488 -1.95704 6.0346 0
M  V30 5805 P 755.346 -1.25109 8.70152 0
M  V30 5806 O 756.768 -1.35274 9.21221 0
M  V30 5807 O 754.986 -0.0769065 7.84762 0
M  V30 5808 O 755.023 -2.55232 7.81161 0
M  V30 5809 C 754.863 -3.79939 8.58154 0
M  V30 5810 C 755.403 -4.94023 7.72785 0
M  V30 5811 O 754.347 -5.18726 6.91205 0
M  V30 5812 C 756.621 -4.69597 6.85231 0
M  V30 5813 O 757.359 -5.83832 6.51337 0
M  V30 5814 C 755.952 -3.96706 5.66633 0
M  V30 5815 O 756.751 -4.15414 4.49689 0
M  V30 5816 C 754.615 -4.66153 5.59313 0
M  V30 5817 H 754.647 -5.47679 4.85214 0
M  V30 5818 H 755.83 -2.89008 5.86566 0
M  V30 5819 H 757.314 -4.0121 7.36511 0
M  V30 5820 H 755.62 -5.80182 8.37584 0
M  V30 5821 H 755.43 -3.73517 9.52265 0
M  V30 5822 H 753.8 -3.97163 8.80359 0
M  V30 5823 H 756.439 -4.90969 4.01921 0
M  V30 5824 P 758.296 -5.75688 6.64379 0
M  V30 5825 O 759.718 -6.11849 7.01846 0
M  V30 5826 O 757.936 -4.30744 6.56026 0
M  V30 5827 O 757.973 -6.37042 5.19165 0
M  V30 5828 C 757.813 -7.83578 5.16515 0
M  V30 5829 C 758.353 -8.33398 3.83019 0
M  V30 5830 O 757.297 -8.10074 3.01034 0
M  V30 5831 C 759.571 -7.65514 3.2257 0
M  V30 5832 O 760.309 -8.4329 2.32297 0
M  V30 5833 C 758.902 -6.40075 2.62207 0
M  V30 5834 O 759.701 -5.92589 1.53712 0
M  V30 5835 C 757.565 -6.9454 2.18503 0
M  V30 5836 H 757.597 -7.23063 1.12091 0
M  V30 5837 H 758.78 -5.6025 3.37201 0
M  V30 5838 H 760.264 -7.35707 4.02681 0
M  V30 5839 H 758.57 -9.40912 3.9095 0
M  V30 5840 H 758.38 -8.29056 5.99158 0
M  V30 5841 H 756.75 -8.10073 5.25882 0
M  V30 5842 H 759.389 -6.30324 0.726794 0
M  V30 5843 P 761.247 -8.4349 2.47671 0
M  V30 5844 O 762.669 -8.94167 2.5964 0
M  V30 5845 O 760.887 -7.1704 3.19006 0
M  V30 5846 O 760.924 -8.16596 0.923387 0
M  V30 5847 C 760.764 -9.38437 0.108857 0
M  V30 5848 C 761.304 -9.08175 -1.28353 0
M  V30 5849 O 760.248 -8.44229 -1.84713 0
M  V30 5850 C 762.522 -8.18386 -1.42505 0
M  V30 5851 O 763.26 -8.3501 -2.60497 0
M  V30 5852 C 761.853 -6.80225 -1.25468 0
M  V30 5853 O 762.652 -5.81621 -1.91066 0
M  V30 5854 C 760.516 -7.02416 -1.9168 0
M  V30 5855 H 760.548 -6.6888 -2.96621 0
M  V30 5856 H 761.731 -6.53617 -0.192223 0
M  V30 5857 H 763.215 -8.36622 -0.589963 0
M  V30 5858 H 761.521 -10.0291 -1.79807 0
M  V30 5859 H 761.331 -10.2138 0.558219 0
M  V30 5860 H 759.701 -9.6579 0.0444202 0
M  V30 5861 H 762.34 -5.69556 -2.79637 0
M  V30 5862 P 764.198 -8.4349 -2.47671 0
M  V30 5863 O 765.599 -8.99283 -2.62101 0
M  V30 5864 O 763.82 -7.81195 -1.16947 0
M  V30 5865 O 763.875 -7.36797 -3.63761 0
M  V30 5866 C 763.715 -7.95349 -4.982 0
M  V30 5867 C 764.255 -6.94537 -5.98908 0
M  V30 5868 O 763.199 -6.10277 -6.11744 0
M  V30 5869 C 765.472 -6.11426 -5.62335 0
M  V30 5870 O 766.211 -5.6162 -6.70584 0
M  V30 5871 C 764.805 -5.04409 -4.73308 0
M  V30 5872 O 765.603 -3.85929 -4.75106 0
M  V30 5873 C 763.467 -4.8728 -5.41006 0
M  V30 5874 N 762.424 -4.65812 -4.42377 0
M  V30 5875 C 761.389 -3.81293 -4.74224 0
M  V30 5876 O 761.428 -3.20533 -5.83679 0
M  V30 5877 N 760.377 -3.6442 -3.86349 0
M  V30 5878 C 760.425 -4.2728 -2.6824 0
M  V30 5879 C 761.521 -5.10813 -2.3217 0
M  V30 5880 C 762.487 -5.27909 -3.22647 0
M  V30 5881 H 763.499 -4.02278 -6.11074 0
M  V30 5882 H 764.682 -5.39013 -3.70026 0
M  V30 5883 H 766.166 -6.71494 -5.02675 0
M  V30 5884 H 764.472 -7.45796 -6.94223 0
M  V30 5885 H 764.281 -8.89416 -5.05237 0
M  V30 5886 H 762.651 -8.14791 -5.18355 0
M  V30 5887 H 761.569 -5.58884 -1.34755 0
M  V30 5888 H 763.333 -5.92811 -2.9934 0
M  V30 5889 H 765.387 -3.3454 -5.51577 0
M  V30 5890 P 767.148 -5.75688 -6.64379 0
M  V30 5891 O 768.57 -6.07627 -7.05504 0
M  V30 5892 O 766.788 -5.88047 -5.19722 0
M  V30 5893 O 766.825 -4.2322 -7.04443 0
M  V30 5894 C 766.665 -3.99743 -8.4911 0
M  V30 5895 C 767.205 -2.60516 -8.79425 0
M  V30 5896 O 766.149 -1.82684 -8.4467 0
M  V30 5897 C 768.423 -2.10343 -8.03628 0
M  V30 5898 O 769.161 -1.09919 -8.67766 0
M  V30 5899 C 767.754 -1.68446 -6.70876 0
M  V30 5900 O 768.553 -0.678137 -6.08433 0
M  V30 5901 C 766.417 -1.17436 -7.18567 0
M  V30 5902 H 766.449 -0.0804732 -7.31656 0
M  V30 5903 H 767.632 -2.54037 -6.02537 0
M  V30 5904 H 769.116 -2.93881 -7.85526 0
M  V30 5905 H 767.422 -2.53065 -9.86973 0
M  V30 5906 H 767.232 -4.75072 -9.05887 0
M  V30 5907 H 765.602 -4.05244 -8.76668 0
M  V30 5908 H 768.241 0.177647 -6.34251 0
M  V30 5909 P 770.099 -1.25109 -8.70152 0
M  V30 5910 O 771.521 -1.29744 -9.22016 0
M  V30 5911 O 769.739 -2.13714 -7.55141 0
M  V30 5912 O 769.776 0.248149 -8.21425 0
M  V30 5913 C 769.616 1.22779 -9.30434 0
M  V30 5914 C 770.156 2.56293 -8.80664 0
M  V30 5915 O 769.1 3.02979 -8.09349 0
M  V30 5916 C 771.374 2.57523 -7.89775 0
M  V30 5917 O 772.112 3.7668 -7.89438 0
M  V30 5918 C 770.705 2.20997 -6.55446 0
M  V30 5919 O 771.504 2.71895 -5.48509 0
M  V30 5920 C 769.368 2.89693 -6.67988 0
M  V30 5921 H 769.4 3.88793 -6.19859 0
M  V30 5922 H 770.583 1.12046 -6.44229 0
M  V30 5923 H 772.067 1.7746 -8.19711 0
M  V30 5924 H 770.373 3.20706 -9.67112 0
M  V30 5925 H 770.183 0.901032 -10.1892 0
M  V30 5926 H 768.553 1.33049 -9.56592 0
M  V30 5927 H 771.192 3.57847 -5.23962 0
M  V30 5928 P 773.049 3.65191 -7.99657 0
M  V30 5929 O 774.471 3.89332 -8.45794 0
M  V30 5930 O 772.689 2.28472 -7.50807 0
M  V30 5931 O 772.726 4.64972 -6.77611 0
M  V30 5932 C 772.566 6.06319 -7.16352 0
M  V30 5933 C 773.106 6.91731 -6.02299 0
M  V30 5934 O 772.05 6.92449 -5.17064 0
M  V30 5935 C 774.324 6.43627 -5.25174 0
M  V30 5936 O 775.062 7.43686 -4.60469 0
M  V30 5937 C 773.655 5.40275 -4.31916 0
M  V30 5938 O 774.454 5.25279 -3.14438 0
M  V30 5939 C 772.318 6.04847 -4.05327 0
M  V30 5940 H 772.35 6.62195 -3.11261 0
M  V30 5941 H 773.533 4.42556 -4.81383 0
M  V30 5942 H 775.017 5.92458 -5.93643 0
M  V30 5943 H 773.323 7.92655 -6.402 0
M  V30 5944 H 773.133 6.26671 -8.0846 0
M  V30 5945 H 771.503 6.29101 -7.32804 0
M  V30 5946 H 774.142 5.84315 -2.47318 0
M  V30 5947 P 776 7.39546 -4.75277 0
M  V30 5948 O 777.422 7.84798 -5.01039 0
M  V30 5949 O 775.64 5.9812 -5.08098 0
M  V30 5950 O 775.677 7.57503 -3.1866 0
M  V30 5951 C 775.517 8.97357 -2.74833 0
M  V30 5952 C 776.057 9.07548 -1.32709 0
M  V30 5953 O 775.001 8.62072 -0.606159 0
M  V30 5954 C 777.275 8.25383 -0.938334 0
M  V30 5955 O 778.013 8.74577 0.146954 0
M  V30 5956 C 776.606 6.8802 -0.712559 0
M  V30 5957 O 777.405 6.1189 0.194655 0
M  V30 5958 C 775.269 7.27966 -0.139777 0
M  V30 5959 H 775.301 7.25354 0.961601 0
M  V30 5960 H 776.484 6.32557 -1.65702 0
M  V30 5961 H 777.968 8.19355 -1.79097 0
M  V30 5962 H 776.274 10.1294 -1.10029 0
M  V30 5963 H 776.084 9.64276 -3.41316 0
M  V30 5964 H 774.454 9.25417 -2.76357 0
M  V30 5965 H 777.093 6.25267 1.07847 0
M  V30 5966 P 778.95 8.791 5.69499e-12 0
M  V30 5967 O 780.372 9.31096 0.027933 0
M  V30 5968 O 778.59 7.77869 -1.04071 0
M  V30 5969 O 778.627 8.09533 1.41463 0
M  V30 5970 C 778.467 9.0349 2.53943 0
M  V30 5971 C 779.007 8.35226 3.79016 0
M  V30 5972 O 777.951 7.57992 4.15078 0
M  V30 5973 C 780.225 7.45087 3.67298 0
M  V30 5974 O 780.963 7.27796 4.85194 0
M  V30 5975 C 779.556 6.17323 3.12027 0
M  V30 5976 O 780.355 5.04231 3.47188 0
M  V30 5977 C 778.219 6.19961 3.81809 0
M  V30 5978 H 778.251 5.58218 4.73051 0
M  V30 5979 H 779.434 6.21726 2.02589 0
M  V30 5980 H 780.918 7.86112 2.9231 0
M  V30 5981 H 779.224 9.11627 4.55076 0
M  V30 5982 H 779.034 9.9573 2.34194 0
M  V30 5983 H 777.404 9.2792 2.67832 0
M  V30 5984 H 780.043 4.67702 4.28772 0
M  V30 5985 P 781.901 7.39546 4.75277 0
M  V30 5986 O 783.323 7.81777 5.05738 0
M  V30 5987 O 781.541 7.1065 3.32998 0
M  V30 5988 O 781.578 6.04542 5.56673 0
M  V30 5989 C 781.418 6.22772 7.02095 0
M  V30 5990 C 781.958 4.97725 7.70406 0
M  V30 5991 O 780.902 4.13256 7.58987 0
M  V30 5992 C 783.176 4.28231 7.11815 0
M  V30 5993 O 783.914 3.49945 8.01648 0
M  V30 5994 C 782.507 3.5063 5.96244 0
M  V30 5995 O 783.306 2.36482 5.64681 0
M  V30 5996 C 781.17 3.15122 6.56374 0
M  V30 5997 H 781.202 2.13853 6.99751 0
M  V30 5998 H 782.385 4.13501 5.06559 0
M  V30 5999 H 783.869 5.03285 6.70911 0
M  V30 6000 H 782.175 5.20877 8.75697 0
M  V30 6001 H 781.985 7.11046 7.35349 0
M  V30 6002 H 780.355 6.35815 7.26986 0
M  V30 6003 H 782.994 1.61644 6.13565 0
M  V30 6004 P 784.852 3.65191 7.99657 0
M  V30 6005 O 786.273 3.84292 8.48206 0
M  V30 6006 O 784.492 4.17805 6.64342 0
M  V30 6007 O 784.529 2.07613 7.95143 0
M  V30 6008 C 784.368 1.44344 9.27435 0
M  V30 6009 C 784.909 0.0220036 9.17197 0
M  V30 6010 O 783.854 -0.626794 8.61824 0
M  V30 6011 C 786.127 -0.24586 8.30336 0
M  V30 6012 O 786.865 -1.39011 8.63583 0
M  V30 6013 C 785.459 -0.273849 6.91158 0
M  V30 6014 O 786.257 -1.05728 6.029 0
M  V30 6015 C 784.121 -0.897649 7.22545 0
M  V30 6016 N 783.078 -0.292839 6.41732 0
M  V30 6017 C 783.247 0.950603 5.91308 0
M  V30 6018 N 782.22 1.37732 5.21105 0
M  V30 6019 C 781.335 0.318109 5.26039 0
M  V30 6020 C 780.068 0.146766 4.6727 0
M  V30 6021 N 779.503 -1.06525 4.95887 0
M  V30 6022 C 780.105 -2.0378 5.71347 0
M  V30 6023 N 781.282 -1.92445 6.27451 0
M  V30 6024 C 781.857 -0.715382 6.00353 0
M  V30 6025 H 785.336 0.733318 6.49674 0
M  V30 6026 H 786.819 0.60668 8.36503 0
M  V30 6027 H 785.125 -0.362662 10.1825 0
M  V30 6028 H 784.935 2.00611 10.0304 0
M  V30 6029 H 783.305 1.41843 9.55327 0
M  V30 6030 H 784.147 1.54076 6.07465 0
M  V30 6031 H 785.945 -1.95704 6.0346 0
M  V30 6032 P 787.802 -1.25109 8.70152 0
M  V30 6033 O 789.224 -1.35274 9.21221 0
M  V30 6034 O 787.442 -0.0769065 7.84762 0
M  V30 6035 O 787.479 -2.55232 7.81161 0
M  V30 6036 C 787.319 -3.79939 8.58154 0
M  V30 6037 C 787.859 -4.94023 7.72785 0
M  V30 6038 O 786.803 -5.18726 6.91205 0
M  V30 6039 C 789.077 -4.69597 6.85231 0
M  V30 6040 O 789.815 -5.83832 6.51337 0
M  V30 6041 C 788.408 -3.96706 5.66633 0
M  V30 6042 O 789.207 -4.15414 4.49689 0
M  V30 6043 C 787.071 -4.66153 5.59313 0
M  V30 6044 H 787.103 -5.47679 4.85214 0
M  V30 6045 H 788.286 -2.89008 5.86566 0
M  V30 6046 H 789.77 -4.0121 7.36511 0
M  V30 6047 H 788.076 -5.80182 8.37584 0
M  V30 6048 H 787.886 -3.73517 9.52265 0
M  V30 6049 H 786.256 -3.97163 8.80359 0
M  V30 6050 H 788.895 -4.90969 4.01921 0
M  V30 6051 P 790.753 -5.75688 6.64379 0
M  V30 6052 O 792.175 -6.11849 7.01846 0
M  V30 6053 O 790.393 -4.30744 6.56026 0
M  V30 6054 O 790.43 -6.37042 5.19165 0
M  V30 6055 C 790.27 -7.83578 5.16515 0
M  V30 6056 C 790.81 -8.33398 3.83019 0
M  V30 6057 O 789.754 -8.10074 3.01034 0
M  V30 6058 C 792.028 -7.65514 3.2257 0
M  V30 6059 O 792.766 -8.4329 2.32297 0
M  V30 6060 C 791.359 -6.40075 2.62207 0
M  V30 6061 O 792.158 -5.92589 1.53712 0
M  V30 6062 C 790.022 -6.9454 2.18503 0
M  V30 6063 H 790.054 -7.23063 1.12091 0
M  V30 6064 H 791.237 -5.6025 3.37201 0
M  V30 6065 H 792.721 -7.35707 4.02681 0
M  V30 6066 H 791.027 -9.40912 3.9095 0
M  V30 6067 H 790.837 -8.29056 5.99158 0
M  V30 6068 H 789.207 -8.10073 5.25882 0
M  V30 6069 H 791.846 -6.30324 0.726794 0
M  V30 6070 P 793.703 -8.4349 2.47671 0
M  V30 6071 O 795.104 -8.98227 2.65696 0
M  V30 6072 O 793.325 -7.20409 3.23964 0
M  V30 6073 O 793.38 -8.16496 0.923275 0
M  V30 6074 C 793.22 -9.38437 0.108857 0
M  V30 6075 C 793.76 -9.08076 -1.28339 0
M  V30 6076 O 792.704 -8.44131 -1.84692 0
M  V30 6077 C 794.977 -8.18386 -1.42505 0
M  V30 6078 O 795.716 -8.3501 -2.60497 0
M  V30 6079 C 794.31 -6.80225 -1.25468 0
M  V30 6080 O 795.108 -5.81526 -1.91035 0
M  V30 6081 C 792.972 -7.02416 -1.9168 0
M  V30 6082 N 791.929 -6.31033 -1.20314 0
M  V30 6083 C 790.894 -5.77149 -1.928 0
M  V30 6084 O 790.933 -5.8521 -3.17729 0
M  V30 6085 N 789.882 -5.15445 -1.27997 0
M  V30 6086 C 789.93 -5.04472 0.0534726 0
M  V30 6087 C 791.026 -5.55244 0.808522 0
M  V30 6088 C 791.992 -6.18542 0.13981 0
M  V30 6089 H 793.004 -6.68789 -2.9658 0
M  V30 6090 H 794.187 -6.53498 -0.198729 0
M  V30 6091 H 795.671 -8.36663 -0.5984 0
M  V30 6092 H 793.977 -10.0273 -1.8081 0
M  V30 6093 H 793.786 -10.2138 0.558219 0
M  V30 6094 H 792.156 -9.6569 0.0444156 0
M  V30 6095 H 791.074 -5.43017 1.88792 0
M  V30 6096 H 792.838 -6.60539 0.686773 0
M  V30 6097 H 794.892 -5.79638 -2.8315 0
M  V30 6098 P 796.654 -8.4349 -2.47671 0
M  V30 6099 O 798.076 -8.92593 -2.65 0
M  V30 6100 O 796.294 -7.7568 -1.19296 0
M  V30 6101 O 796.331 -7.36886 -3.63805 0
M  V30 6102 C 796.171 -7.95349 -4.982 0
M  V30 6103 C 796.711 -6.94612 -5.98974 0
M  V30 6104 O 795.655 -6.10347 -6.11815 0
M  V30 6105 C 797.929 -6.11426 -5.62335 0
M  V30 6106 O 798.667 -5.6162 -6.70584 0
M  V30 6107 C 797.26 -5.04409 -4.73308 0
M  V30 6108 O 798.059 -3.85992 -4.75183 0
M  V30 6109 C 795.923 -4.8728 -5.41006 0
M  V30 6110 H 795.955 -4.02333 -6.11157 0
M  V30 6111 H 797.138 -5.39466 -3.69543 0
M  V30 6112 H 798.622 -6.71916 -5.01943 0
M  V30 6113 H 796.928 -7.4649 -6.93477 0
M  V30 6114 H 796.738 -8.89416 -5.05237 0
M  V30 6115 H 795.108 -8.14876 -5.18409 0
M  V30 6116 H 797.747 -3.27957 -5.4317 0
M  V30 6117 P 799.604 -5.75688 -6.64379 0
M  V30 6118 O 801.026 -6.07627 -7.05504 0
M  V30 6119 O 799.244 -5.88047 -5.19722 0
M  V30 6120 O 799.281 -4.2322 -7.04443 0
M  V30 6121 C 799.121 -3.99743 -8.4911 0
M  V30 6122 C 799.661 -2.60516 -8.79425 0
M  V30 6123 O 798.605 -1.82684 -8.4467 0
M  V30 6124 C 800.879 -2.10343 -8.03628 0
M  V30 6125 O 801.617 -1.09919 -8.67766 0
M  V30 6126 C 800.21 -1.68446 -6.70876 0
M  V30 6127 O 801.009 -0.678137 -6.08433 0
M  V30 6128 C 798.873 -1.17436 -7.18567 0
M  V30 6129 H 798.905 -0.0804732 -7.31656 0
M  V30 6130 H 800.088 -2.54037 -6.02537 0
M  V30 6131 H 801.572 -2.93881 -7.85526 0
M  V30 6132 H 799.878 -2.53065 -9.86973 0
M  V30 6133 H 799.688 -4.75072 -9.05887 0
M  V30 6134 H 798.058 -4.05244 -8.76668 0
M  V30 6135 H 800.697 0.177647 -6.34251 0
M  V30 6136 P 802.555 -1.25109 -8.70152 0
M  V30 6137 O 803.977 -1.29744 -9.22016 0
M  V30 6138 O 802.195 -2.13714 -7.55141 0
M  V30 6139 O 802.232 0.248149 -8.21425 0
M  V30 6140 C 802.072 1.22779 -9.30434 0
M  V30 6141 C 802.612 2.56293 -8.80664 0
M  V30 6142 O 801.556 3.02979 -8.09349 0
M  V30 6143 C 803.83 2.57523 -7.89775 0
M  V30 6144 O 804.568 3.7668 -7.89438 0
M  V30 6145 C 803.161 2.20997 -6.55446 0
M  V30 6146 O 803.96 2.71895 -5.48509 0
M  V30 6147 C 801.824 2.89693 -6.67988 0
M  V30 6148 H 801.856 3.88793 -6.19859 0
M  V30 6149 H 803.039 1.12046 -6.44229 0
M  V30 6150 H 804.523 1.7746 -8.19711 0
M  V30 6151 H 802.829 3.20706 -9.67112 0
M  V30 6152 H 802.639 0.901032 -10.1892 0
M  V30 6153 H 801.009 1.33049 -9.56592 0
M  V30 6154 H 803.648 3.57847 -5.23962 0
M  V30 6155 P 805.506 3.65191 -7.99657 0
M  V30 6156 O 806.928 3.89332 -8.45794 0
M  V30 6157 O 805.146 2.28472 -7.50807 0
M  V30 6158 O 805.183 4.64972 -6.77611 0
M  V30 6159 C 805.023 6.06319 -7.16352 0
M  V30 6160 C 805.563 6.91731 -6.02299 0
M  V30 6161 O 804.507 6.92449 -5.17064 0
M  V30 6162 C 806.781 6.43627 -5.25174 0
M  V30 6163 O 807.519 7.43686 -4.60469 0
M  V30 6164 C 806.112 5.40275 -4.31916 0
M  V30 6165 O 806.911 5.25279 -3.14438 0
M  V30 6166 C 804.775 6.04847 -4.05327 0
M  V30 6167 H 804.807 6.62195 -3.11261 0
M  V30 6168 H 805.99 4.42556 -4.81383 0
M  V30 6169 H 807.474 5.92458 -5.93643 0
M  V30 6170 H 805.78 7.92655 -6.402 0
M  V30 6171 H 805.59 6.26671 -8.0846 0
M  V30 6172 H 803.96 6.29101 -7.32804 0
M  V30 6173 H 806.599 5.84315 -2.47318 0
M  V30 6174 P 808.456 7.39546 -4.75277 0
M  V30 6175 O 809.878 7.84798 -5.01039 0
M  V30 6176 O 808.096 5.9812 -5.08098 0
M  V30 6177 O 808.133 7.57503 -3.1866 0
M  V30 6178 C 807.973 8.97357 -2.74833 0
M  V30 6179 C 808.513 9.07548 -1.32709 0
M  V30 6180 O 807.457 8.62072 -0.606159 0
M  V30 6181 C 809.731 8.25383 -0.938334 0
M  V30 6182 O 810.469 8.74577 0.146954 0
M  V30 6183 C 809.062 6.8802 -0.712559 0
M  V30 6184 O 809.861 6.1189 0.194655 0
M  V30 6185 C 807.725 7.27966 -0.139777 0
M  V30 6186 H 807.757 7.25354 0.961601 0
M  V30 6187 H 808.94 6.32557 -1.65702 0
M  V30 6188 H 810.424 8.19355 -1.79097 0
M  V30 6189 H 808.73 10.1294 -1.10029 0
M  V30 6190 H 808.54 9.64276 -3.41316 0
M  V30 6191 H 806.91 9.25417 -2.76357 0
M  V30 6192 H 809.549 6.25267 1.07847 0
M  V30 6193 P 811.407 8.791 6.00516e-12 0
M  V30 6194 O 812.829 9.31096 0.027933 0
M  V30 6195 O 811.047 7.77869 -1.04071 0
M  V30 6196 O 811.084 8.09533 1.41463 0
M  V30 6197 C 810.924 9.0349 2.53943 0
M  V30 6198 C 811.464 8.35226 3.79016 0
M  V30 6199 O 810.408 7.57992 4.15078 0
M  V30 6200 C 812.682 7.45087 3.67298 0
M  V30 6201 O 813.42 7.27796 4.85194 0
M  V30 6202 C 812.013 6.17323 3.12027 0
M  V30 6203 O 812.812 5.04231 3.47188 0
M  V30 6204 C 810.676 6.19961 3.81809 0
M  V30 6205 H 810.708 5.58218 4.73051 0
M  V30 6206 H 811.891 6.21726 2.02589 0
M  V30 6207 H 813.375 7.86112 2.9231 0
M  V30 6208 H 811.681 9.11627 4.55076 0
M  V30 6209 H 811.491 9.9573 2.34194 0
M  V30 6210 H 809.861 9.2792 2.67832 0
M  V30 6211 H 812.5 4.67702 4.28772 0
M  V30 6212 P 814.357 7.39546 4.75277 0
M  V30 6213 O 815.779 7.81777 5.05738 0
M  V30 6214 O 813.997 7.1065 3.32998 0
M  V30 6215 O 814.034 6.04542 5.56673 0
M  V30 6216 C 813.874 6.22772 7.02095 0
M  V30 6217 C 814.414 4.97725 7.70406 0
M  V30 6218 O 813.358 4.13256 7.58987 0
M  V30 6219 C 815.632 4.28231 7.11815 0
M  V30 6220 O 816.37 3.49945 8.01648 0
M  V30 6221 C 814.963 3.5063 5.96244 0
M  V30 6222 O 815.762 2.36482 5.64681 0
M  V30 6223 C 813.626 3.15122 6.56374 0
M  V30 6224 H 813.658 2.13853 6.99751 0
M  V30 6225 H 814.841 4.13501 5.06559 0
M  V30 6226 H 816.325 5.03285 6.70911 0
M  V30 6227 H 814.631 5.20877 8.75697 0
M  V30 6228 H 814.441 7.11046 7.35349 0
M  V30 6229 H 812.811 6.35815 7.26986 0
M  V30 6230 H 815.45 1.61644 6.13565 0
M  V30 6231 P 817.308 3.65191 7.99657 0
M  V30 6232 O 818.73 3.8425 8.48115 0
M  V30 6233 O 816.948 4.17805 6.64342 0
M  V30 6234 O 816.985 2.07613 7.95143 0
M  V30 6235 C 816.825 1.44328 9.27336 0
M  V30 6236 C 817.365 0.0220036 9.17197 0
M  V30 6237 O 816.309 -0.626867 8.61923 0
M  V30 6238 C 818.583 -0.24586 8.30336 0
M  V30 6239 O 819.321 -1.39011 8.63583 0
M  V30 6240 C 817.914 -0.273849 6.91158 0
M  V30 6241 O 818.713 -1.06348 6.02892 0
M  V30 6242 C 816.577 -0.897649 7.22545 0
M  V30 6243 H 816.609 -1.9841 7.04286 0
M  V30 6244 H 817.792 0.739928 6.497 0
M  V30 6245 H 819.276 0.60668 8.36503 0
M  V30 6246 H 817.582 -0.352479 10.1829 0
M  V30 6247 H 817.392 2.00611 10.0304 0
M  V30 6248 H 815.762 1.41843 9.55327 0
M  V30 6249 H 818.401 -1.95734 6.03555 0
M  V30 6250 P 820.258 -1.25109 8.70152 0
M  V30 6251 O 821.68 -1.35274 9.21221 0
M  V30 6252 O 819.898 -0.0769065 7.84762 0
M  V30 6253 O 819.935 -2.55232 7.81161 0
M  V30 6254 C 819.775 -3.79939 8.58154 0
M  V30 6255 C 820.315 -4.94023 7.72785 0
M  V30 6256 O 819.259 -5.18726 6.91205 0
M  V30 6257 C 821.533 -4.69597 6.85231 0
M  V30 6258 O 822.271 -5.83832 6.51337 0
M  V30 6259 C 820.864 -3.96706 5.66633 0
M  V30 6260 O 821.663 -4.15414 4.49689 0
M  V30 6261 C 819.527 -4.66153 5.59313 0
M  V30 6262 H 819.559 -5.47679 4.85214 0
M  V30 6263 H 820.742 -2.89008 5.86566 0
M  V30 6264 H 822.226 -4.0121 7.36511 0
M  V30 6265 H 820.532 -5.80182 8.37584 0
M  V30 6266 H 820.342 -3.73517 9.52265 0
M  V30 6267 H 818.712 -3.97163 8.80359 0
M  V30 6268 H 821.351 -4.90969 4.01921 0
M  V30 6269 P 823.209 -5.75688 6.64379 0
M  V30 6270 O 824.631 -6.11849 7.01846 0
M  V30 6271 O 822.849 -4.30744 6.56026 0
M  V30 6272 O 822.886 -6.37042 5.19165 0
M  V30 6273 C 822.726 -7.83578 5.16515 0
M  V30 6274 C 823.266 -8.33398 3.83019 0
M  V30 6275 O 822.21 -8.10074 3.01034 0
M  V30 6276 C 824.484 -7.65514 3.2257 0
M  V30 6277 O 825.222 -8.4329 2.32297 0
M  V30 6278 C 823.815 -6.40075 2.62207 0
M  V30 6279 O 824.614 -5.92589 1.53712 0
M  V30 6280 C 822.478 -6.9454 2.18503 0
M  V30 6281 H 822.51 -7.23063 1.12091 0
M  V30 6282 H 823.693 -5.6025 3.37201 0
M  V30 6283 H 825.177 -7.35707 4.02681 0
M  V30 6284 H 823.483 -9.40912 3.9095 0
M  V30 6285 H 823.293 -8.29056 5.99158 0
M  V30 6286 H 821.663 -8.10073 5.25882 0
M  V30 6287 H 824.302 -6.30324 0.726794 0
M  V30 6288 P 826.16 -8.4349 2.47671 0
M  V30 6289 O 827.582 -8.94167 2.5964 0
M  V30 6290 O 825.8 -7.1704 3.19006 0
M  V30 6291 O 825.837 -8.16596 0.923387 0
M  V30 6292 C 825.677 -9.38437 0.108857 0
M  V30 6293 C 826.217 -9.08175 -1.28353 0
M  V30 6294 O 825.161 -8.44229 -1.84713 0
M  V30 6295 C 827.435 -8.18386 -1.42505 0
M  V30 6296 O 828.173 -8.3501 -2.60497 0
M  V30 6297 C 826.766 -6.80225 -1.25468 0
M  V30 6298 O 827.565 -5.81621 -1.91066 0
M  V30 6299 C 825.429 -7.02416 -1.9168 0
M  V30 6300 H 825.461 -6.6888 -2.96621 0
M  V30 6301 H 826.644 -6.53617 -0.192223 0
M  V30 6302 H 828.128 -8.36622 -0.589963 0
M  V30 6303 H 826.434 -10.0291 -1.79807 0
M  V30 6304 H 826.244 -10.2138 0.558219 0
M  V30 6305 H 824.614 -9.6579 0.0444202 0
M  V30 6306 H 827.253 -5.69556 -2.79637 0
M  V30 6307 P 829.11 -8.4349 -2.47671 0
M  V30 6308 O 830.532 -8.92593 -2.65 0
M  V30 6309 O 828.75 -7.7568 -1.19296 0
M  V30 6310 O 828.787 -7.36886 -3.63805 0
M  V30 6311 C 828.627 -7.95349 -4.982 0
M  V30 6312 C 829.167 -6.94612 -5.98974 0
M  V30 6313 O 828.111 -6.10347 -6.11815 0
M  V30 6314 C 830.385 -6.11426 -5.62335 0
M  V30 6315 O 831.123 -5.6162 -6.70584 0
M  V30 6316 C 829.716 -5.04409 -4.73308 0
M  V30 6317 O 830.515 -3.85992 -4.75183 0
M  V30 6318 C 828.379 -4.8728 -5.41006 0
M  V30 6319 H 828.411 -4.02333 -6.11157 0
M  V30 6320 H 829.594 -5.39466 -3.69543 0
M  V30 6321 H 831.078 -6.71916 -5.01943 0
M  V30 6322 H 829.384 -7.4649 -6.93477 0
M  V30 6323 H 829.194 -8.89416 -5.05237 0
M  V30 6324 H 827.564 -8.14876 -5.18409 0
M  V30 6325 H 830.203 -3.27957 -5.4317 0
M  V30 6326 P 832.061 -5.75688 -6.64379 0
M  V30 6327 O 833.482 -6.07692 -7.0558 0
M  V30 6328 O 831.701 -5.88047 -5.19722 0
M  V30 6329 O 831.738 -4.2322 -7.04443 0
M  V30 6330 C 831.577 -3.99785 -8.49201 0
M  V30 6331 C 832.118 -2.60516 -8.79425 0
M  V30 6332 O 831.063 -1.82663 -8.44573 0
M  V30 6333 C 833.336 -2.10343 -8.03628 0
M  V30 6334 O 834.074 -1.09919 -8.67766 0
M  V30 6335 C 832.668 -1.68446 -6.70876 0
M  V30 6336 O 833.466 -0.684109 -6.08265 0
M  V30 6337 C 831.33 -1.17436 -7.18567 0
M  V30 6338 N 830.287 -1.52699 -6.23988 0
M  V30 6339 C 830.456 -2.578 -5.40574 0
M  V30 6340 N 829.429 -2.78966 -4.61193 0
M  V30 6341 C 828.544 -1.78725 -4.95769 0
M  V30 6342 C 827.277 -1.45727 -4.44207 0
M  V30 6343 N 826.678 -2.13994 -3.43613 0
M  V30 6344 N 826.712 -0.374977 -5.05812 0
M  V30 6345 C 827.314 0.345585 -6.05615 0
M  V30 6346 N 828.491 0.0787651 -6.56253 0
M  V30 6347 C 829.066 -1.00499 -5.96189 0
M  V30 6348 H 831.362 -0.0804622 -7.31556 0
M  V30 6349 H 832.545 -2.53396 -6.02698 0
M  V30 6350 H 834.028 -2.93881 -7.85526 0
M  V30 6351 H 832.334 -2.52078 -9.87225 0
M  V30 6352 H 832.144 -4.75072 -9.05887 0
M  V30 6353 H 830.514 -4.05244 -8.76668 0
M  V30 6354 H 826.778 1.20098 -6.4532 0
M  V30 6355 H 831.356 -3.18977 -5.3945 0
M  V30 6356 H 825.748 -1.84983 -3.10004 0
M  V30 6357 H 827.152 -2.9465 -3.00843 0
M  V30 6358 H 833.154 0.177619 -6.34151 0
M  V30 6359 P 835.011 -1.25109 -8.70152 0
M  V30 6360 O 836.433 -1.29744 -9.22016 0
M  V30 6361 O 834.651 -2.13714 -7.55141 0
M  V30 6362 O 834.688 0.248149 -8.21425 0
M  V30 6363 C 834.528 1.22779 -9.30434 0
M  V30 6364 C 835.068 2.56293 -8.80664 0
M  V30 6365 O 834.012 3.02979 -8.09349 0
M  V30 6366 C 836.286 2.57523 -7.89775 0
M  V30 6367 O 837.024 3.7668 -7.89438 0
M  V30 6368 C 835.617 2.20997 -6.55446 0
M  V30 6369 O 836.416 2.71895 -5.48509 0
M  V30 6370 C 834.28 2.89693 -6.67988 0
M  V30 6371 H 834.312 3.88793 -6.19859 0
M  V30 6372 H 835.495 1.12046 -6.44229 0
M  V30 6373 H 836.979 1.7746 -8.19711 0
M  V30 6374 H 835.285 3.20706 -9.67112 0
M  V30 6375 H 835.095 0.901032 -10.1892 0
M  V30 6376 H 833.465 1.33049 -9.56592 0
M  V30 6377 H 836.104 3.57847 -5.23962 0
M  V30 6378 P 837.962 3.65191 -7.99657 0
M  V30 6379 O 839.384 3.89332 -8.45794 0
M  V30 6380 O 837.602 2.28472 -7.50807 0
M  V30 6381 O 837.639 4.64972 -6.77611 0
M  V30 6382 C 837.479 6.06319 -7.16352 0
M  V30 6383 C 838.019 6.91731 -6.02299 0
M  V30 6384 O 836.963 6.92449 -5.17064 0
M  V30 6385 C 839.237 6.43627 -5.25174 0
M  V30 6386 O 839.975 7.43686 -4.60469 0
M  V30 6387 C 838.568 5.40275 -4.31916 0
M  V30 6388 O 839.367 5.25279 -3.14438 0
M  V30 6389 C 837.231 6.04847 -4.05327 0
M  V30 6390 H 837.263 6.62195 -3.11261 0
M  V30 6391 H 838.446 4.42556 -4.81383 0
M  V30 6392 H 839.93 5.92458 -5.93643 0
M  V30 6393 H 838.236 7.92655 -6.402 0
M  V30 6394 H 838.046 6.26671 -8.0846 0
M  V30 6395 H 836.416 6.29101 -7.32804 0
M  V30 6396 H 839.055 5.84315 -2.47318 0
M  V30 6397 P 840.912 7.39546 -4.75277 0
M  V30 6398 O 842.334 7.84798 -5.01039 0
M  V30 6399 O 840.552 5.9812 -5.08098 0
M  V30 6400 O 840.589 7.57503 -3.1866 0
M  V30 6401 C 840.429 8.97357 -2.74833 0
M  V30 6402 C 840.969 9.07548 -1.32709 0
M  V30 6403 O 839.913 8.62072 -0.606159 0
M  V30 6404 C 842.187 8.25383 -0.938334 0
M  V30 6405 O 842.925 8.74577 0.146954 0
M  V30 6406 C 841.518 6.8802 -0.712559 0
M  V30 6407 O 842.317 6.1189 0.194655 0
M  V30 6408 C 840.181 7.27966 -0.139777 0
M  V30 6409 H 840.213 7.25354 0.961601 0
M  V30 6410 H 841.396 6.32557 -1.65702 0
M  V30 6411 H 842.88 8.19355 -1.79097 0
M  V30 6412 H 841.186 10.1294 -1.10029 0
M  V30 6413 H 840.996 9.64276 -3.41316 0
M  V30 6414 H 839.366 9.25417 -2.76357 0
M  V30 6415 H 842.005 6.25267 1.07847 0
M  V30 6416 P 843.863 8.791 6.31533e-12 0
M  V30 6417 O 845.285 9.31096 0.027933 0
M  V30 6418 O 843.503 7.77869 -1.04071 0
M  V30 6419 O 843.54 8.09533 1.41463 0
M  V30 6420 C 843.38 9.0349 2.53943 0
M  V30 6421 C 843.92 8.35226 3.79016 0
M  V30 6422 O 842.864 7.57992 4.15078 0
M  V30 6423 C 845.138 7.45087 3.67298 0
M  V30 6424 O 845.876 7.27796 4.85194 0
M  V30 6425 C 844.469 6.17323 3.12027 0
M  V30 6426 O 845.268 5.04231 3.47188 0
M  V30 6427 C 843.132 6.19961 3.81809 0
M  V30 6428 H 843.164 5.58218 4.73051 0
M  V30 6429 H 844.347 6.21726 2.02589 0
M  V30 6430 H 845.831 7.86112 2.9231 0
M  V30 6431 H 844.137 9.11627 4.55076 0
M  V30 6432 H 843.947 9.9573 2.34194 0
M  V30 6433 H 842.317 9.2792 2.67832 0
M  V30 6434 H 844.956 4.67702 4.28772 0
M  V30 6435 P 846.814 7.39546 4.75277 0
M  V30 6436 O 848.236 7.81945 5.05847 0
M  V30 6437 O 846.454 7.1065 3.32998 0
M  V30 6438 O 846.491 6.04542 5.56673 0
M  V30 6439 C 846.331 6.22772 7.02095 0
M  V30 6440 C 846.871 4.97671 7.70322 0
M  V30 6441 O 845.816 4.13256 7.58987 0
M  V30 6442 C 848.089 4.28231 7.11815 0
M  V30 6443 O 848.827 3.49945 8.01648 0
M  V30 6444 C 847.421 3.5063 5.96244 0
M  V30 6445 O 848.219 2.36443 5.64589 0
M  V30 6446 C 846.083 3.15122 6.56374 0
M  V30 6447 N 845.04 3.22311 5.55692 0
M  V30 6448 C 845.102 4.14382 4.59701 0
M  V30 6449 N 844.057 4.04476 3.76958 0
M  V30 6450 C 843.323 3.04892 4.26534 0
M  V30 6451 C 842.017 2.57447 3.88189 0
M  V30 6452 O 841.284 2.9785 2.96543 0
M  V30 6453 N 841.587 1.55228 4.65922 0
M  V30 6454 C 842.336 1.01152 5.73447 0
M  V30 6455 N 841.739 -0.0472117 6.37783 0
M  V30 6456 N 843.489 1.467 6.13813 0
M  V30 6457 C 843.946 2.4931 5.38487 0
M  V30 6458 H 846.115 2.13853 6.99751 0
M  V30 6459 H 847.298 4.13438 5.06482 0
M  V30 6460 H 848.783 5.02614 6.71414 0
M  V30 6461 H 847.088 5.20877 8.75697 0
M  V30 6462 H 846.898 7.11046 7.35349 0
M  V30 6463 H 845.267 6.35815 7.26986 0
M  V30 6464 H 840.691 1.15238 4.46468 0
M  V30 6465 H 845.898 4.88312 4.49647 0
M  V30 6466 H 840.828 -0.396382 6.05203 0
M  V30 6467 H 842.204 -0.484997 7.18465 0
M  V30 6468 H 847.908 1.61619 6.13468 0
M  V30 6469 P 849.764 3.65191 7.99657 0
M  V30 6470 O 851.186 3.8425 8.48115 0
M  V30 6471 O 849.404 4.17805 6.64342 0
M  V30 6472 O 849.441 2.07613 7.95143 0
M  V30 6473 C 849.281 1.44328 9.27336 0
M  V30 6474 C 849.821 0.0220036 9.17197 0
M  V30 6475 O 848.765 -0.626867 8.61923 0
M  V30 6476 C 851.039 -0.24586 8.30336 0
M  V30 6477 O 851.777 -1.39011 8.63583 0
M  V30 6478 C 850.37 -0.273849 6.91158 0
M  V30 6479 O 851.169 -1.06348 6.02892 0
M  V30 6480 C 849.033 -0.897649 7.22545 0
M  V30 6481 H 849.065 -1.9841 7.04286 0
M  V30 6482 H 850.248 0.739928 6.497 0
M  V30 6483 H 851.732 0.60668 8.36503 0
M  V30 6484 H 850.038 -0.352479 10.1829 0
M  V30 6485 H 849.848 2.00611 10.0304 0
M  V30 6486 H 848.218 1.41843 9.55327 0
M  V30 6487 H 850.857 -1.95734 6.03555 0
M  V30 6488 P 852.715 -1.25109 8.70152 0
M  V30 6489 O 854.137 -1.35274 9.21221 0
M  V30 6490 O 852.355 -0.0769065 7.84762 0
M  V30 6491 O 852.392 -2.55232 7.81161 0
M  V30 6492 C 852.232 -3.79939 8.58154 0
M  V30 6493 C 852.772 -4.94023 7.72785 0
M  V30 6494 O 851.716 -5.18726 6.91205 0
M  V30 6495 C 853.99 -4.69597 6.85231 0
M  V30 6496 O 854.728 -5.83832 6.51337 0
M  V30 6497 C 853.321 -3.96706 5.66633 0
M  V30 6498 O 854.12 -4.15414 4.49689 0
M  V30 6499 C 851.984 -4.66153 5.59313 0
M  V30 6500 H 852.016 -5.47679 4.85214 0
M  V30 6501 H 853.199 -2.89008 5.86566 0
M  V30 6502 H 854.683 -4.0121 7.36511 0
M  V30 6503 H 852.989 -5.80182 8.37584 0
M  V30 6504 H 852.799 -3.73517 9.52265 0
M  V30 6505 H 851.169 -3.97163 8.80359 0
M  V30 6506 H 853.808 -4.90969 4.01921 0
M  V30 6507 P 855.665 -5.75688 6.64379 0
M  V30 6508 O 857.087 -6.11849 7.01846 0
M  V30 6509 O 855.305 -4.30744 6.56026 0
M  V30 6510 O 855.342 -6.37042 5.19165 0
M  V30 6511 C 855.182 -7.83578 5.16515 0
M  V30 6512 C 855.722 -8.33398 3.83019 0
M  V30 6513 O 854.666 -8.10074 3.01034 0
M  V30 6514 C 856.94 -7.65514 3.2257 0
M  V30 6515 O 857.678 -8.4329 2.32297 0
M  V30 6516 C 856.271 -6.40075 2.62207 0
M  V30 6517 O 857.07 -5.92589 1.53712 0
M  V30 6518 C 854.934 -6.9454 2.18503 0
M  V30 6519 H 854.966 -7.23063 1.12091 0
M  V30 6520 H 856.149 -5.6025 3.37201 0
M  V30 6521 H 857.633 -7.35707 4.02681 0
M  V30 6522 H 855.939 -9.40912 3.9095 0
M  V30 6523 H 855.749 -8.29056 5.99158 0
M  V30 6524 H 854.119 -8.10073 5.25882 0
M  V30 6525 H 856.758 -6.30324 0.726794 0
M  V30 6526 P 858.616 -8.4349 2.47671 0
M  V30 6527 O 860.038 -8.94167 2.5964 0
M  V30 6528 O 858.256 -7.1704 3.19006 0
M  V30 6529 O 858.293 -8.16596 0.923387 0
M  V30 6530 C 858.133 -9.38437 0.108857 0
M  V30 6531 C 858.673 -9.08175 -1.28353 0
M  V30 6532 O 857.617 -8.44229 -1.84713 0
M  V30 6533 C 859.891 -8.18386 -1.42505 0
M  V30 6534 O 860.629 -8.3501 -2.60497 0
M  V30 6535 C 859.222 -6.80225 -1.25468 0
M  V30 6536 O 860.021 -5.81621 -1.91066 0
M  V30 6537 C 857.885 -7.02416 -1.9168 0
M  V30 6538 H 857.917 -6.6888 -2.96621 0
M  V30 6539 H 859.1 -6.53617 -0.192223 0
M  V30 6540 H 860.584 -8.36622 -0.589963 0
M  V30 6541 H 858.89 -10.0291 -1.79807 0
M  V30 6542 H 858.7 -10.2138 0.558219 0
M  V30 6543 H 857.07 -9.6579 0.0444202 0
M  V30 6544 H 859.709 -5.69556 -2.79637 0
M  V30 6545 P 861.566 -8.4349 -2.47671 0
M  V30 6546 O 862.988 -8.92593 -2.65 0
M  V30 6547 O 861.206 -7.7568 -1.19296 0
M  V30 6548 O 861.243 -7.36886 -3.63805 0
M  V30 6549 C 861.083 -7.95349 -4.982 0
M  V30 6550 C 861.623 -6.94612 -5.98974 0
M  V30 6551 O 860.567 -6.10347 -6.11815 0
M  V30 6552 C 862.841 -6.11426 -5.62335 0
M  V30 6553 O 863.579 -5.6162 -6.70584 0
M  V30 6554 C 862.172 -5.04409 -4.73308 0
M  V30 6555 O 862.971 -3.85992 -4.75183 0
M  V30 6556 C 860.835 -4.8728 -5.41006 0
M  V30 6557 H 860.867 -4.02333 -6.11157 0
M  V30 6558 H 862.05 -5.39466 -3.69543 0
M  V30 6559 H 863.534 -6.71916 -5.01943 0
M  V30 6560 H 861.84 -7.4649 -6.93477 0
M  V30 6561 H 861.65 -8.89416 -5.05237 0
M  V30 6562 H 860.02 -8.14876 -5.18409 0
M  V30 6563 H 862.659 -3.27957 -5.4317 0
M  V30 6564 P 864.517 -5.75688 -6.64379 0
M  V30 6565 O 865.939 -6.07627 -7.05504 0
M  V30 6566 O 864.157 -5.88047 -5.19722 0
M  V30 6567 O 864.194 -4.2322 -7.04443 0
M  V30 6568 C 864.034 -3.99743 -8.4911 0
M  V30 6569 C 864.574 -2.60516 -8.79425 0
M  V30 6570 O 863.518 -1.82684 -8.4467 0
M  V30 6571 C 865.792 -2.10343 -8.03628 0
M  V30 6572 O 866.53 -1.09919 -8.67766 0
M  V30 6573 C 865.123 -1.68446 -6.70876 0
M  V30 6574 O 865.922 -0.678137 -6.08433 0
M  V30 6575 C 863.786 -1.17436 -7.18567 0
M  V30 6576 H 863.818 -0.0804732 -7.31656 0
M  V30 6577 H 865.001 -2.54037 -6.02537 0
M  V30 6578 H 866.485 -2.93881 -7.85526 0
M  V30 6579 H 864.791 -2.53065 -9.86973 0
M  V30 6580 H 864.601 -4.75072 -9.05887 0
M  V30 6581 H 862.971 -4.05244 -8.76668 0
M  V30 6582 H 865.61 0.177647 -6.34251 0
M  V30 6583 P 867.468 -1.25109 -8.70152 0
M  V30 6584 O 868.89 -1.29744 -9.22016 0
M  V30 6585 O 867.108 -2.13714 -7.55141 0
M  V30 6586 O 867.145 0.248149 -8.21425 0
M  V30 6587 C 866.985 1.22779 -9.30434 0
M  V30 6588 C 867.525 2.56293 -8.80664 0
M  V30 6589 O 866.469 3.02979 -8.09349 0
M  V30 6590 C 868.743 2.57523 -7.89775 0
M  V30 6591 O 869.481 3.7668 -7.89438 0
M  V30 6592 C 868.074 2.20997 -6.55446 0
M  V30 6593 O 868.873 2.71895 -5.48509 0
M  V30 6594 C 866.737 2.89693 -6.67988 0
M  V30 6595 H 866.769 3.88793 -6.19859 0
M  V30 6596 H 867.952 1.12046 -6.44229 0
M  V30 6597 H 869.436 1.7746 -8.19711 0
M  V30 6598 H 867.742 3.20706 -9.67112 0
M  V30 6599 H 867.552 0.901032 -10.1892 0
M  V30 6600 H 865.922 1.33049 -9.56592 0
M  V30 6601 H 868.561 3.57847 -5.23962 0
M  V30 6602 P 870.418 3.65191 -7.99657 0
M  V30 6603 O 871.84 3.89332 -8.45794 0
M  V30 6604 O 870.058 2.28472 -7.50807 0
M  V30 6605 O 870.095 4.64972 -6.77611 0
M  V30 6606 C 869.935 6.06319 -7.16352 0
M  V30 6607 C 870.475 6.91731 -6.02299 0
M  V30 6608 O 869.419 6.92449 -5.17064 0
M  V30 6609 C 871.693 6.43627 -5.25174 0
M  V30 6610 O 872.431 7.43686 -4.60469 0
M  V30 6611 C 871.024 5.40275 -4.31916 0
M  V30 6612 O 871.823 5.25279 -3.14438 0
M  V30 6613 C 869.687 6.04847 -4.05327 0
M  V30 6614 H 869.719 6.62195 -3.11261 0
M  V30 6615 H 870.902 4.42556 -4.81383 0
M  V30 6616 H 872.386 5.92458 -5.93643 0
M  V30 6617 H 870.692 7.92655 -6.402 0
M  V30 6618 H 870.502 6.26671 -8.0846 0
M  V30 6619 H 868.872 6.29101 -7.32804 0
M  V30 6620 H 871.511 5.84315 -2.47318 0
M  V30 6621 P 873.369 7.39546 -4.75277 0
M  V30 6622 O 874.791 7.84798 -5.01039 0
M  V30 6623 O 873.009 5.9812 -5.08098 0
M  V30 6624 O 873.046 7.57503 -3.1866 0
M  V30 6625 C 872.886 8.97357 -2.74833 0
M  V30 6626 C 873.426 9.07548 -1.32709 0
M  V30 6627 O 872.37 8.62072 -0.606159 0
M  V30 6628 C 874.644 8.25383 -0.938334 0
M  V30 6629 O 875.382 8.74577 0.146954 0
M  V30 6630 C 873.975 6.8802 -0.712559 0
M  V30 6631 O 874.774 6.1189 0.194655 0
M  V30 6632 C 872.638 7.27966 -0.139777 0
M  V30 6633 H 872.67 7.25354 0.961601 0
M  V30 6634 H 873.853 6.32557 -1.65702 0
M  V30 6635 H 875.337 8.19355 -1.79097 0
M  V30 6636 H 873.643 10.1294 -1.10029 0
M  V30 6637 H 873.453 9.64276 -3.41316 0
M  V30 6638 H 871.823 9.25417 -2.76357 0
M  V30 6639 H 874.462 6.25267 1.07847 0
M  V30 6640 P 876.319 8.791 6.62549e-12 0
M  V30 6641 O 877.741 9.31096 0.027933 0
M  V30 6642 O 875.959 7.77869 -1.04071 0
M  V30 6643 O 875.996 8.09533 1.41463 0
M  V30 6644 C 875.836 9.0349 2.53943 0
M  V30 6645 C 876.376 8.35226 3.79016 0
M  V30 6646 O 875.32 7.57992 4.15078 0
M  V30 6647 C 877.594 7.45087 3.67298 0
M  V30 6648 O 878.332 7.27796 4.85194 0
M  V30 6649 C 876.925 6.17323 3.12027 0
M  V30 6650 O 877.724 5.04231 3.47188 0
M  V30 6651 C 875.588 6.19961 3.81809 0
M  V30 6652 H 875.62 5.58218 4.73051 0
M  V30 6653 H 876.803 6.21726 2.02589 0
M  V30 6654 H 878.287 7.86112 2.9231 0
M  V30 6655 H 876.593 9.11627 4.55076 0
M  V30 6656 H 876.403 9.9573 2.34194 0
M  V30 6657 H 874.773 9.2792 2.67832 0
M  V30 6658 H 877.412 4.67702 4.28772 0
M  V30 6659 P 879.27 7.39546 4.75277 0
M  V30 6660 O 880.692 7.81777 5.05738 0
M  V30 6661 O 878.91 7.1065 3.32998 0
M  V30 6662 O 878.947 6.04542 5.56673 0
M  V30 6663 C 878.787 6.22772 7.02095 0
M  V30 6664 C 879.327 4.97725 7.70406 0
M  V30 6665 O 878.271 4.13256 7.58987 0
M  V30 6666 C 880.545 4.28231 7.11815 0
M  V30 6667 O 881.283 3.49945 8.01648 0
M  V30 6668 C 879.876 3.5063 5.96244 0
M  V30 6669 O 880.675 2.36482 5.64681 0
M  V30 6670 C 878.539 3.15122 6.56374 0
M  V30 6671 H 878.571 2.13853 6.99751 0
M  V30 6672 H 879.754 4.13501 5.06559 0
M  V30 6673 H 881.238 5.03285 6.70911 0
M  V30 6674 H 879.544 5.20877 8.75697 0
M  V30 6675 H 879.354 7.11046 7.35349 0
M  V30 6676 H 877.724 6.35815 7.26986 0
M  V30 6677 H 880.363 1.61644 6.13565 0
M  V30 6678 P 882.22 3.65191 7.99657 0
M  V30 6679 O 883.642 3.8425 8.48115 0
M  V30 6680 O 881.86 4.17805 6.64342 0
M  V30 6681 O 881.897 2.07613 7.95143 0
M  V30 6682 C 881.737 1.44328 9.27336 0
M  V30 6683 C 882.277 0.0220036 9.17197 0
M  V30 6684 O 881.221 -0.626867 8.61923 0
M  V30 6685 C 883.495 -0.24586 8.30336 0
M  V30 6686 O 884.233 -1.39011 8.63583 0
M  V30 6687 C 882.826 -0.273849 6.91158 0
M  V30 6688 O 883.625 -1.06348 6.02892 0
M  V30 6689 C 881.489 -0.897649 7.22545 0
M  V30 6690 H 881.521 -1.9841 7.04286 0
M  V30 6691 H 882.704 0.739928 6.497 0
M  V30 6692 H 884.188 0.60668 8.36503 0
M  V30 6693 H 882.494 -0.352479 10.1829 0
M  V30 6694 H 882.304 2.00611 10.0304 0
M  V30 6695 H 880.674 1.41843 9.55327 0
M  V30 6696 H 883.313 -1.95734 6.03555 0
M  V30 6697 P 885.171 -1.25109 8.70152 0
M  V30 6698 O 886.593 -1.35274 9.21221 0
M  V30 6699 O 884.811 -0.0769065 7.84762 0
M  V30 6700 O 884.848 -2.55232 7.81161 0
M  V30 6701 C 884.688 -3.79939 8.58154 0
M  V30 6702 C 885.228 -4.94023 7.72785 0
M  V30 6703 O 884.172 -5.18726 6.91205 0
M  V30 6704 C 886.446 -4.69597 6.85231 0
M  V30 6705 O 887.184 -5.83832 6.51337 0
M  V30 6706 C 885.777 -3.96706 5.66633 0
M  V30 6707 O 886.576 -4.15414 4.49689 0
M  V30 6708 C 884.44 -4.66153 5.59313 0
M  V30 6709 H 884.472 -5.47679 4.85214 0
M  V30 6710 H 885.655 -2.89008 5.86566 0
M  V30 6711 H 887.139 -4.0121 7.36511 0
M  V30 6712 H 885.445 -5.80182 8.37584 0
M  V30 6713 H 885.255 -3.73517 9.52265 0
M  V30 6714 H 883.625 -3.97163 8.80359 0
M  V30 6715 H 886.264 -4.90969 4.01921 0
M  V30 6716 P 888.122 -5.75688 6.64379 0
M  V30 6717 O 889.544 -6.11849 7.01846 0
M  V30 6718 O 887.762 -4.30744 6.56026 0
M  V30 6719 O 887.799 -6.37042 5.19165 0
M  V30 6720 C 887.639 -7.83578 5.16515 0
M  V30 6721 C 888.179 -8.33398 3.83019 0
M  V30 6722 O 887.123 -8.10074 3.01034 0
M  V30 6723 C 889.397 -7.65514 3.2257 0
M  V30 6724 O 890.135 -8.4329 2.32297 0
M  V30 6725 C 888.728 -6.40075 2.62207 0
M  V30 6726 O 889.527 -5.92589 1.53712 0
M  V30 6727 C 887.391 -6.9454 2.18503 0
M  V30 6728 H 887.423 -7.23063 1.12091 0
M  V30 6729 H 888.606 -5.6025 3.37201 0
M  V30 6730 H 890.09 -7.35707 4.02681 0
M  V30 6731 H 888.396 -9.40912 3.9095 0
M  V30 6732 H 888.206 -8.29056 5.99158 0
M  V30 6733 H 886.576 -8.10073 5.25882 0
M  V30 6734 H 889.215 -6.30324 0.726794 0
M  V30 6735 P 891.072 -8.4349 2.47671 0
M  V30 6736 O 892.494 -8.94167 2.5964 0
M  V30 6737 O 890.712 -7.1704 3.19006 0
M  V30 6738 O 890.749 -8.16596 0.923387 0
M  V30 6739 C 890.589 -9.38437 0.108857 0
M  V30 6740 C 891.129 -9.08175 -1.28353 0
M  V30 6741 O 890.073 -8.44229 -1.84713 0
M  V30 6742 C 892.347 -8.18386 -1.42505 0
M  V30 6743 O 893.085 -8.3501 -2.60497 0
M  V30 6744 C 891.678 -6.80225 -1.25468 0
M  V30 6745 O 892.477 -5.81621 -1.91066 0
M  V30 6746 C 890.341 -7.02416 -1.9168 0
M  V30 6747 H 890.373 -6.6888 -2.96621 0
M  V30 6748 H 891.556 -6.53617 -0.192223 0
M  V30 6749 H 893.04 -8.36622 -0.589963 0
M  V30 6750 H 891.346 -10.0291 -1.79807 0
M  V30 6751 H 891.156 -10.2138 0.558219 0
M  V30 6752 H 889.526 -9.6579 0.0444202 0
M  V30 6753 H 892.165 -5.69556 -2.79637 0
M  V30 6754 P 894.023 -8.4349 -2.47671 0
M  V30 6755 O 895.445 -8.92593 -2.65 0
M  V30 6756 O 893.663 -7.7568 -1.19296 0
M  V30 6757 O 893.7 -7.36886 -3.63805 0
M  V30 6758 C 893.54 -7.95349 -4.982 0
M  V30 6759 C 894.08 -6.94612 -5.98974 0
M  V30 6760 O 893.024 -6.10347 -6.11815 0
M  V30 6761 C 895.298 -6.11426 -5.62335 0
M  V30 6762 O 896.036 -5.6162 -6.70584 0
M  V30 6763 C 894.629 -5.04409 -4.73308 0
M  V30 6764 O 895.428 -3.85992 -4.75183 0
M  V30 6765 C 893.292 -4.8728 -5.41006 0
M  V30 6766 H 893.324 -4.02333 -6.11157 0
M  V30 6767 H 894.507 -5.39466 -3.69543 0
M  V30 6768 H 895.991 -6.71916 -5.01943 0
M  V30 6769 H 894.297 -7.4649 -6.93477 0
M  V30 6770 H 894.107 -8.89416 -5.05237 0
M  V30 6771 H 892.477 -8.14876 -5.18409 0
M  V30 6772 H 895.116 -3.27957 -5.4317 0
M  V30 6773 P 896.973 -5.75688 -6.64379 0
M  V30 6774 O 898.395 -6.07627 -7.05504 0
M  V30 6775 O 896.613 -5.88047 -5.19722 0
M  V30 6776 O 896.65 -4.2322 -7.04443 0
M  V30 6777 C 896.49 -3.99743 -8.4911 0
M  V30 6778 C 897.03 -2.60516 -8.79425 0
M  V30 6779 O 895.974 -1.82684 -8.4467 0
M  V30 6780 C 898.248 -2.10343 -8.03628 0
M  V30 6781 O 898.986 -1.09919 -8.67766 0
M  V30 6782 C 897.579 -1.68446 -6.70876 0
M  V30 6783 O 898.378 -0.678137 -6.08433 0
M  V30 6784 C 896.242 -1.17436 -7.18567 0
M  V30 6785 H 896.274 -0.0804732 -7.31656 0
M  V30 6786 H 897.457 -2.54037 -6.02537 0
M  V30 6787 H 898.941 -2.93881 -7.85526 0
M  V30 6788 H 897.247 -2.53065 -9.86973 0
M  V30 6789 H 897.057 -4.75072 -9.05887 0
M  V30 6790 H 895.427 -4.05244 -8.76668 0
M  V30 6791 H 898.066 0.177647 -6.34251 0
M  V30 6792 P 899.924 -1.25109 -8.70152 0
M  V30 6793 O 901.345 -1.29758 -9.22115 0
M  V30 6794 O 899.564 -2.13714 -7.55141 0
M  V30 6795 O 899.601 0.248149 -8.21425 0
M  V30 6796 C 899.44 1.22792 -9.30533 0
M  V30 6797 C 899.981 2.56293 -8.80664 0
M  V30 6798 O 898.926 3.02944 -8.09255 0
M  V30 6799 C 901.199 2.57523 -7.89775 0
M  V30 6800 O 901.937 3.7668 -7.89438 0
M  V30 6801 C 900.531 2.20997 -6.55446 0
M  V30 6802 O 901.329 2.71302 -5.48691 0
M  V30 6803 C 899.193 2.89693 -6.67988 0
M  V30 6804 N 898.15 2.08895 -6.07487 0
M  V30 6805 C 898.319 0.753809 -5.94137 0
M  V30 6806 N 897.292 0.146592 -5.38801 0
M  V30 6807 C 896.407 1.1768 -5.13693 0
M  V30 6808 C 895.14 1.17563 -4.52477 0
M  V30 6809 N 894.541 0.057481 -4.04759 0
M  V30 6810 N 894.575 2.41918 -4.45789 0
M  V30 6811 C 895.177 3.56493 -4.90792 0
M  V30 6812 N 896.354 3.61423 -5.47817 0
M  V30 6813 C 896.929 2.37779 -5.5588 0
M  V30 6814 H 899.225 3.8874 -6.19774 0
M  V30 6815 H 900.408 1.12673 -6.44018 0
M  V30 6816 H 901.891 1.7746 -8.19711 0
M  V30 6817 H 900.197 3.21673 -9.66791 0
M  V30 6818 H 900.007 0.901032 -10.1892 0
M  V30 6819 H 898.377 1.33049 -9.56592 0
M  V30 6820 H 894.641 4.49919 -4.77947 0
M  V30 6821 H 899.219 0.233081 -6.26266 0
M  V30 6822 H 893.611 0.119831 -3.60801 0
M  V30 6823 H 895.015 -0.852272 -4.12385 0
M  V30 6824 H 901.017 3.5779 -5.23879 0
M  V30 6825 P 902.874 3.65191 -7.99657 0
M  V30 6826 O 904.296 3.89332 -8.45794 0
M  V30 6827 O 902.514 2.28472 -7.50807 0
M  V30 6828 O 902.551 4.64972 -6.77611 0
M  V30 6829 C 902.391 6.06319 -7.16352 0
M  V30 6830 C 902.931 6.91731 -6.02299 0
M  V30 6831 O 901.875 6.92449 -5.17064 0
M  V30 6832 C 904.149 6.43627 -5.25174 0
M  V30 6833 O 904.887 7.43686 -4.60469 0
M  V30 6834 C 903.48 5.40275 -4.31916 0
M  V30 6835 O 904.279 5.25279 -3.14438 0
M  V30 6836 C 902.143 6.04847 -4.05327 0
M  V30 6837 H 902.175 6.62195 -3.11261 0
M  V30 6838 H 903.358 4.42556 -4.81383 0
M  V30 6839 H 904.842 5.92458 -5.93643 0
M  V30 6840 H 903.148 7.92655 -6.402 0
M  V30 6841 H 902.958 6.26671 -8.0846 0
M  V30 6842 H 901.328 6.29101 -7.32804 0
M  V30 6843 H 903.967 5.84315 -2.47318 0
M  V30 6844 P 905.825 7.39546 -4.75277 0
M  V30 6845 O 907.247 7.84798 -5.01039 0
M  V30 6846 O 905.465 5.9812 -5.08098 0
M  V30 6847 O 905.502 7.57503 -3.1866 0
M  V30 6848 C 905.342 8.97357 -2.74833 0
M  V30 6849 C 905.882 9.07548 -1.32709 0
M  V30 6850 O 904.826 8.62072 -0.606159 0
M  V30 6851 C 907.1 8.25383 -0.938334 0
M  V30 6852 O 907.838 8.74577 0.146954 0
M  V30 6853 C 906.431 6.8802 -0.712559 0
M  V30 6854 O 907.23 6.1189 0.194655 0
M  V30 6855 C 905.094 7.27966 -0.139777 0
M  V30 6856 H 905.126 7.25354 0.961601 0
M  V30 6857 H 906.309 6.32557 -1.65702 0
M  V30 6858 H 907.793 8.19355 -1.79097 0
M  V30 6859 H 906.099 10.1294 -1.10029 0
M  V30 6860 H 905.909 9.64276 -3.41316 0
M  V30 6861 H 904.279 9.25417 -2.76357 0
M  V30 6862 H 906.918 6.25267 1.07847 0
M  V30 6863 P 908.776 8.791 6.93566e-12 0
M  V30 6864 O 910.197 9.31196 0.027936 0
M  V30 6865 O 908.416 7.77869 -1.04071 0
M  V30 6866 O 908.453 8.09533 1.41463 0
M  V30 6867 C 908.292 9.03587 2.5397 0
M  V30 6868 C 908.833 8.35226 3.79016 0
M  V30 6869 O 907.778 7.57904 4.1503 0
M  V30 6870 C 910.051 7.45087 3.67298 0
M  V30 6871 O 910.789 7.27796 4.85194 0
M  V30 6872 C 909.383 6.17323 3.12027 0
M  V30 6873 O 910.181 5.04496 3.46627 0
M  V30 6874 C 908.045 6.19961 3.81809 0
M  V30 6875 N 907.002 5.71575 2.93223 0
M  V30 6876 C 907.171 5.77362 1.59168 0
M  V30 6877 N 906.144 5.3123 0.911893 0
M  V30 6878 C 905.259 4.91717 1.89588 0
M  V30 6879 C 903.992 4.3114 1.8076 0
M  V30 6880 N 903.393 3.99821 0.632928 0
M  V30 6881 N 903.427 4.06823 3.02898 0
M  V30 6882 C 904.029 4.35062 4.22711 0
M  V30 6883 N 905.206 4.90805 4.35707 0
M  V30 6884 C 905.781 5.16382 3.14469 0
M  V30 6885 H 908.077 5.58142 4.72986 0
M  V30 6886 H 909.26 6.21428 2.0318 0
M  V30 6887 H 910.743 7.86112 2.9231 0
M  V30 6888 H 909.049 9.11171 4.55987 0
M  V30 6889 H 908.859 9.9573 2.34194 0
M  V30 6890 H 907.229 9.2792 2.67832 0
M  V30 6891 H 903.493 4.09052 5.13359 0
M  V30 6892 H 908.071 6.16575 1.12198 0
M  V30 6893 H 902.463 3.55423 0.632085 0
M  V30 6894 H 903.867 4.20317 -0.256712 0
M  V30 6895 H 909.869 4.67628 4.28704 0
M  V30 6896 P 911.726 7.39546 4.75277 0
M  V30 6897 O 913.148 7.81777 5.05738 0
M  V30 6898 O 911.366 7.1065 3.32998 0
M  V30 6899 O 911.403 6.04542 5.56673 0
M  V30 6900 C 911.243 6.22772 7.02095 0
M  V30 6901 C 911.783 4.97725 7.70406 0
M  V30 6902 O 910.727 4.13256 7.58987 0
M  V30 6903 C 913.001 4.28231 7.11815 0
M  V30 6904 O 913.739 3.49945 8.01648 0
M  V30 6905 C 912.332 3.5063 5.96244 0
M  V30 6906 O 913.131 2.36482 5.64681 0
M  V30 6907 C 910.995 3.15122 6.56374 0
M  V30 6908 H 911.027 2.13853 6.99751 0
M  V30 6909 H 912.21 4.13501 5.06559 0
M  V30 6910 H 913.694 5.03285 6.70911 0
M  V30 6911 H 912 5.20877 8.75697 0
M  V30 6912 H 911.81 7.11046 7.35349 0
M  V30 6913 H 910.18 6.35815 7.26986 0
M  V30 6914 H 912.819 1.61644 6.13565 0
M  V30 6915 P 914.677 3.65191 7.99657 0
M  V30 6916 O 916.078 3.90823 8.51272 0
M  V30 6917 O 914.299 4.23191 6.66972 0
M  V30 6918 O 914.354 2.07587 7.95046 0
M  V30 6919 C 914.194 1.44328 9.27336 0
M  V30 6920 C 914.734 0.0220012 9.17097 0
M  V30 6921 O 913.678 -0.626794 8.61824 0
M  V30 6922 C 915.951 -0.24586 8.30336 0
M  V30 6923 O 916.69 -1.39011 8.63583 0
M  V30 6924 C 915.284 -0.273849 6.91158 0
M  V30 6925 O 916.082 -1.06331 6.02794 0
M  V30 6926 C 913.946 -0.897649 7.22545 0
M  V30 6927 N 912.903 -0.292839 6.41732 0
M  V30 6928 C 911.868 -1.08701 5.98712 0
M  V30 6929 O 911.907 -2.31211 6.24471 0
M  V30 6930 N 910.856 -0.533391 5.28415 0
M  V30 6931 C 910.904 0.770866 4.98576 0
M  V30 6932 N 909.894 1.29482 4.30134 0
M  V30 6933 C 912 1.59049 5.38086 0
M  V30 6934 C 912.966 1.01866 6.10256 0
M  V30 6935 H 913.978 -1.98383 7.04189 0
M  V30 6936 H 915.161 0.733318 6.49674 0
M  V30 6937 H 916.645 0.598386 8.36663 0
M  V30 6938 H 914.951 -0.362662 10.1825 0
M  V30 6939 H 914.76 2.00611 10.0304 0
M  V30 6940 H 913.13 1.41828 9.55228 0
M  V30 6941 H 912.048 2.6415 5.10622 0
M  V30 6942 H 913.812 1.61983 6.44042 0
M  V30 6943 H 909.104 0.69888 4.01361 0
M  V30 6944 H 909.899 2.29327 4.05781 0
M  V30 6945 H 915.866 -1.97777 6.14035 0
M  V30 6946 P 917.627 -1.25109 8.70152 0
M  V30 6947 O 919.028 -1.31452 9.27431 0
M  V30 6948 O 917.249 -0.0458113 7.89887 0
M  V30 6949 O 917.304 -2.55201 7.81066 0
M  V30 6950 C 917.144 -3.79939 8.58154 0
M  V30 6951 C 917.684 -4.93969 7.72701 0
M  V30 6952 O 916.628 -5.18666 6.91125 0
M  V30 6953 C 918.901 -4.69597 6.85231 0
M  V30 6954 O 919.64 -5.83832 6.51337 0
M  V30 6955 C 918.234 -3.96706 5.66633 0
M  V30 6956 O 919.032 -4.15346 4.49615 0
M  V30 6957 C 916.896 -4.66153 5.59313 0
M  V30 6958 N 915.853 -3.71582 5.24027 0
M  V30 6959 C 914.818 -4.15133 4.44901 0
M  V30 6960 O 914.857 -5.32122 4.00336 0
M  V30 6961 N 913.806 -3.30554 4.15693 0
M  V30 6962 C 913.854 -2.04701 4.61105 0
M  V30 6963 C 914.95 -1.57111 5.38655 0
M  V30 6964 C 915.916 -2.44234 5.68454 0
M  V30 6965 H 916.928 -5.47604 4.85148 0
M  V30 6966 H 918.111 -2.8955 5.86187 0
M  V30 6967 H 919.595 -4.01995 7.36197 0
M  V30 6968 H 917.901 -5.81019 8.37003 0
M  V30 6969 H 917.71 -3.73517 9.52265 0
M  V30 6970 H 916.08 -3.97122 8.80267 0
M  V30 6971 H 914.998 -0.538464 5.72373 0
M  V30 6972 H 916.762 -2.11927 6.29377 0
M  V30 6973 H 918.816 -4.98352 4.09633 0
M  V30 6974 P 920.578 -5.75688 6.64379 0
M  V30 6975 O 922 -6.11849 7.01846 0
M  V30 6976 O 920.218 -4.30744 6.56026 0
M  V30 6977 O 920.255 -6.37042 5.19165 0
M  V30 6978 C 920.095 -7.83578 5.16515 0
M  V30 6979 C 920.635 -8.33398 3.83019 0
M  V30 6980 O 919.579 -8.10074 3.01034 0
M  V30 6981 C 921.853 -7.65514 3.2257 0
M  V30 6982 O 922.591 -8.4329 2.32297 0
M  V30 6983 C 921.184 -6.40075 2.62207 0
M  V30 6984 O 921.983 -5.92589 1.53712 0
M  V30 6985 C 919.847 -6.9454 2.18503 0
M  V30 6986 H 919.879 -7.23063 1.12091 0
M  V30 6987 H 921.062 -5.6025 3.37201 0
M  V30 6988 H 922.546 -7.35707 4.02681 0
M  V30 6989 H 920.852 -9.40912 3.9095 0
M  V30 6990 H 920.662 -8.29056 5.99158 0
M  V30 6991 H 919.032 -8.10073 5.25882 0
M  V30 6992 H 921.671 -6.30324 0.726794 0
M  V30 6993 P 923.528 -8.4349 2.47671 0
M  V30 6994 O 924.95 -8.94167 2.5964 0
M  V30 6995 O 923.168 -7.1704 3.19006 0
M  V30 6996 O 923.205 -8.16596 0.923387 0
M  V30 6997 C 923.045 -9.38437 0.108857 0
M  V30 6998 C 923.585 -9.08175 -1.28353 0
M  V30 6999 O 922.529 -8.44229 -1.84713 0
M  V30 7000 C 924.803 -8.18386 -1.42505 0
M  V30 7001 O 925.541 -8.3501 -2.60497 0
M  V30 7002 C 924.134 -6.80225 -1.25468 0
M  V30 7003 O 924.933 -5.81621 -1.91066 0
M  V30 7004 C 922.797 -7.02416 -1.9168 0
M  V30 7005 H 922.829 -6.6888 -2.96621 0
M  V30 7006 H 924.012 -6.53617 -0.192223 0
M  V30 7007 H 925.496 -8.36622 -0.589963 0
M  V30 7008 H 923.802 -10.0291 -1.79807 0
M  V30 7009 H 923.612 -10.2138 0.558219 0
M  V30 7010 H 921.982 -9.6579 0.0444202 0
M  V30 7011 H 924.621 -5.69556 -2.79637 0
M  V30 7012 P 926.479 -8.4349 -2.47671 0
M  V30 7013 O 927.901 -8.92593 -2.65 0
M  V30 7014 O 926.119 -7.7568 -1.19296 0
M  V30 7015 O 926.156 -7.36886 -3.63805 0
M  V30 7016 C 925.996 -7.95349 -4.982 0
M  V30 7017 C 926.536 -6.94612 -5.98974 0
M  V30 7018 O 925.48 -6.10347 -6.11815 0
M  V30 7019 C 927.754 -6.11426 -5.62335 0
M  V30 7020 O 928.492 -5.6162 -6.70584 0
M  V30 7021 C 927.085 -5.04409 -4.73308 0
M  V30 7022 O 927.884 -3.85992 -4.75183 0
M  V30 7023 C 925.748 -4.8728 -5.41006 0
M  V30 7024 H 925.78 -4.02333 -6.11157 0
M  V30 7025 H 926.963 -5.39466 -3.69543 0
M  V30 7026 H 928.447 -6.71916 -5.01943 0
M  V30 7027 H 926.753 -7.4649 -6.93477 0
M  V30 7028 H 926.563 -8.89416 -5.05237 0
M  V30 7029 H 924.933 -8.14876 -5.18409 0
M  V30 7030 H 927.572 -3.27957 -5.4317 0
M  V30 7031 P 929.43 -5.75688 -6.64379 0
M  V30 7032 O 930.852 -6.07627 -7.05504 0
M  V30 7033 O 929.07 -5.88047 -5.19722 0
M  V30 7034 O 929.107 -4.2322 -7.04443 0
M  V30 7035 C 928.947 -3.99743 -8.4911 0
M  V30 7036 C 929.487 -2.60516 -8.79425 0
M  V30 7037 O 928.431 -1.82684 -8.4467 0
M  V30 7038 C 930.705 -2.10343 -8.03628 0
M  V30 7039 O 931.443 -1.09919 -8.67766 0
M  V30 7040 C 930.036 -1.68446 -6.70876 0
M  V30 7041 O 930.835 -0.678137 -6.08433 0
M  V30 7042 C 928.699 -1.17436 -7.18567 0
M  V30 7043 H 928.731 -0.0804732 -7.31656 0
M  V30 7044 H 929.914 -2.54037 -6.02537 0
M  V30 7045 H 931.398 -2.93881 -7.85526 0
M  V30 7046 H 929.704 -2.53065 -9.86973 0
M  V30 7047 H 929.514 -4.75072 -9.05887 0
M  V30 7048 H 927.884 -4.05244 -8.76668 0
M  V30 7049 H 930.523 0.177647 -6.34251 0
M  V30 7050 P 932.38 -1.25109 -8.70152 0
M  V30 7051 O 933.802 -1.29744 -9.22016 0
M  V30 7052 O 932.02 -2.13714 -7.55141 0
M  V30 7053 O 932.057 0.248149 -8.21425 0
M  V30 7054 C 931.897 1.22779 -9.30434 0
M  V30 7055 C 932.437 2.56293 -8.80664 0
M  V30 7056 O 931.381 3.02979 -8.09349 0
M  V30 7057 C 933.655 2.57523 -7.89775 0
M  V30 7058 O 934.393 3.7668 -7.89438 0
M  V30 7059 C 932.986 2.20997 -6.55446 0
M  V30 7060 O 933.785 2.71895 -5.48509 0
M  V30 7061 C 931.649 2.89693 -6.67988 0
M  V30 7062 H 931.681 3.88793 -6.19859 0
M  V30 7063 H 932.864 1.12046 -6.44229 0
M  V30 7064 H 934.348 1.7746 -8.19711 0
M  V30 7065 H 932.654 3.20706 -9.67112 0
M  V30 7066 H 932.464 0.901032 -10.1892 0
M  V30 7067 H 930.834 1.33049 -9.56592 0
M  V30 7068 H 933.473 3.57847 -5.23962 0
M  V30 7069 P 935.331 3.65191 -7.99657 0
M  V30 7070 O 936.732 3.87414 -8.52829 0
M  V30 7071 O 934.953 2.26932 -7.566 0
M  V30 7072 O 935.008 4.64915 -6.77529 0
M  V30 7073 C 934.848 6.06319 -7.16352 0
M  V30 7074 C 935.388 6.91655 -6.02234 0
M  V30 7075 O 934.332 6.92369 -5.17005 0
M  V30 7076 C 936.605 6.43627 -5.25174 0
M  V30 7077 O 937.344 7.43686 -4.60469 0
M  V30 7078 C 935.938 5.40275 -4.31916 0
M  V30 7079 O 936.736 5.25193 -3.14386 0
M  V30 7080 C 934.6 6.04847 -4.05327 0
M  V30 7081 N 933.557 5.04166 -3.98114 0
M  V30 7082 C 932.522 5.2366 -3.09923 0
M  V30 7083 O 932.561 6.23355 -2.34204 0
M  V30 7084 N 931.51 4.34279 -3.05727 0
M  V30 7085 C 931.558 3.26317 -3.84756 0
M  V30 7086 C 932.654 3.02504 -4.72573 0
M  V30 7087 C 933.62 3.94493 -4.76618 0
M  V30 7088 H 934.632 6.62104 -3.11218 0
M  V30 7089 H 935.815 4.42969 -4.80867 0
M  V30 7090 H 937.299 5.93122 -5.93121 0
M  V30 7091 H 935.605 7.93295 -6.39407 0
M  V30 7092 H 935.414 6.26671 -8.0846 0
M  V30 7093 H 933.784 6.29036 -7.32728 0
M  V30 7094 H 932.702 2.12921 -5.34017 0
M  V30 7095 H 934.466 3.80658 -5.44176 0
M  V30 7096 H 936.52 5.93572 -2.52637 0
M  V30 7097 P 938.281 7.39546 -4.75277 0
M  V30 7098 O 939.702 7.84882 -5.01092 0
M  V30 7099 O 937.921 5.9812 -5.08098 0
M  V30 7100 O 937.958 7.57503 -3.1866 0
M  V30 7101 C 937.797 8.97452 -2.74862 0
M  V30 7102 C 938.338 9.07548 -1.32709 0
M  V30 7103 O 937.283 8.61972 -0.606089 0
M  V30 7104 C 939.556 8.25383 -0.938334 0
M  V30 7105 O 940.294 8.74577 0.146954 0
M  V30 7106 C 938.888 6.8802 -0.712559 0
M  V30 7107 O 939.686 6.1181 0.188505 0
M  V30 7108 C 937.55 7.27966 -0.139777 0
M  V30 7109 N 936.507 6.39368 -0.623421 0
M  V30 7110 C 936.676 5.71761 -1.78245 0
M  V30 7111 N 935.649 4.962 -2.10491 0
M  V30 7112 C 934.764 5.16158 -1.0635 0
M  V30 7113 C 933.497 4.60425 -0.810266 0
M  V30 7114 N 932.898 3.7057 -1.62914 0
M  V30 7115 N 932.932 5.06 0.348685 0
M  V30 7116 C 933.534 5.94532 1.20395 0
M  V30 7117 N 934.711 6.48452 1.01191 0
M  V30 7118 C 935.286 6.04423 -0.146291 0
M  V30 7119 H 937.582 7.25255 0.961469 0
M  V30 7120 H 938.765 6.32625 -1.65044 0
M  V30 7121 H 940.248 8.19355 -1.79097 0
M  V30 7122 H 938.554 10.1305 -1.09016 0
M  V30 7123 H 938.364 9.64276 -3.41316 0
M  V30 7124 H 936.734 9.25417 -2.76357 0
M  V30 7125 H 932.998 6.21659 2.10714 0
M  V30 7126 H 937.576 5.79354 -2.38959 0
M  V30 7127 H 931.968 3.33174 -1.38982 0
M  V30 7128 H 933.372 3.39714 -2.48836 0
M  V30 7129 H 939.374 6.25169 1.0783 0
M  V30 7130 P 941.232 8.791 7.24582e-12 0
M  V30 7131 O 942.654 9.31096 0.027933 0
M  V30 7132 O 940.872 7.77869 -1.04071 0
M  V30 7133 O 940.909 8.09533 1.41463 0
M  V30 7134 C 940.749 9.0349 2.53943 0
M  V30 7135 C 941.289 8.35226 3.79016 0
M  V30 7136 O 940.233 7.57992 4.15078 0
M  V30 7137 C 942.507 7.45087 3.67298 0
M  V30 7138 O 943.245 7.27796 4.85194 0
M  V30 7139 C 941.838 6.17323 3.12027 0
M  V30 7140 O 942.637 5.04231 3.47188 0
M  V30 7141 C 940.501 6.19961 3.81809 0
M  V30 7142 H 940.533 5.58218 4.73051 0
M  V30 7143 H 941.716 6.21726 2.02589 0
M  V30 7144 H 943.2 7.86112 2.9231 0
M  V30 7145 H 941.506 9.11627 4.55076 0
M  V30 7146 H 941.316 9.9573 2.34194 0
M  V30 7147 H 939.686 9.2792 2.67832 0
M  V30 7148 H 942.325 4.67702 4.28772 0
M  V30 7149 P 944.182 7.39546 4.75277 0
M  V30 7150 O 945.604 7.81777 5.05738 0
M  V30 7151 O 943.822 7.1065 3.32998 0
M  V30 7152 O 943.859 6.04542 5.56673 0
M  V30 7153 C 943.699 6.22772 7.02095 0
M  V30 7154 C 944.239 4.97725 7.70406 0
M  V30 7155 O 943.183 4.13256 7.58987 0
M  V30 7156 C 945.457 4.28231 7.11815 0
M  V30 7157 O 946.195 3.49945 8.01648 0
M  V30 7158 C 944.788 3.5063 5.96244 0
M  V30 7159 O 945.587 2.36482 5.64681 0
M  V30 7160 C 943.451 3.15122 6.56374 0
M  V30 7161 H 943.483 2.13853 6.99751 0
M  V30 7162 H 944.666 4.13501 5.06559 0
M  V30 7163 H 946.15 5.03285 6.70911 0
M  V30 7164 H 944.456 5.20877 8.75697 0
M  V30 7165 H 944.266 7.11046 7.35349 0
M  V30 7166 H 942.636 6.35815 7.26986 0
M  V30 7167 H 945.275 1.61644 6.13565 0
M  V30 7168 P 947.133 3.65191 7.99657 0
M  V30 7169 O 948.555 3.8425 8.48115 0
M  V30 7170 O 946.773 4.17805 6.64342 0
M  V30 7171 O 946.81 2.07613 7.95143 0
M  V30 7172 C 946.65 1.44328 9.27336 0
M  V30 7173 C 947.19 0.0220036 9.17197 0
M  V30 7174 O 946.134 -0.626867 8.61923 0
M  V30 7175 C 948.408 -0.24586 8.30336 0
M  V30 7176 O 949.146 -1.39011 8.63583 0
M  V30 7177 C 947.739 -0.273849 6.91158 0
M  V30 7178 O 948.538 -1.06348 6.02892 0
M  V30 7179 C 946.402 -0.897649 7.22545 0
M  V30 7180 H 946.434 -1.9841 7.04286 0
M  V30 7181 H 947.617 0.739928 6.497 0
M  V30 7182 H 949.101 0.60668 8.36503 0
M  V30 7183 H 947.407 -0.352479 10.1829 0
M  V30 7184 H 947.217 2.00611 10.0304 0
M  V30 7185 H 945.587 1.41843 9.55327 0
M  V30 7186 H 948.226 -1.95734 6.03555 0
M  V30 7187 P 950.084 -1.25109 8.70152 0
M  V30 7188 O 951.485 -1.31452 9.27431 0
M  V30 7189 O 949.706 -0.0458113 7.89887 0
M  V30 7190 O 949.761 -2.55201 7.81066 0
M  V30 7191 C 949.601 -3.79939 8.58154 0
M  V30 7192 C 950.141 -4.93969 7.72701 0
M  V30 7193 O 949.085 -5.18666 6.91125 0
M  V30 7194 C 951.358 -4.69597 6.85231 0
M  V30 7195 O 952.097 -5.83832 6.51337 0
M  V30 7196 C 950.691 -3.96706 5.66633 0
M  V30 7197 O 951.489 -4.15346 4.49615 0
M  V30 7198 C 949.353 -4.66153 5.59313 0
M  V30 7199 N 948.31 -3.71582 5.24027 0
M  V30 7200 C 947.275 -4.15133 4.44901 0
M  V30 7201 O 947.314 -5.32122 4.00336 0
M  V30 7202 N 946.263 -3.30554 4.15693 0
M  V30 7203 C 946.311 -2.04701 4.61105 0
M  V30 7204 N 945.301 -1.23621 4.31855 0
M  V30 7205 C 947.407 -1.57111 5.38655 0
M  V30 7206 C 948.373 -2.44234 5.68454 0
M  V30 7207 H 949.385 -5.47604 4.85148 0
M  V30 7208 H 950.568 -2.8955 5.86187 0
M  V30 7209 H 952.052 -4.01995 7.36197 0
M  V30 7210 H 950.358 -5.81019 8.37003 0
M  V30 7211 H 950.167 -3.73517 9.52265 0
M  V30 7212 H 948.537 -3.97122 8.80267 0
M  V30 7213 H 947.455 -0.538464 5.72373 0
M  V30 7214 H 949.219 -2.11927 6.29377 0
M  V30 7215 H 944.511 -1.58199 3.7543 0
M  V30 7216 H 945.306 -0.264601 4.65348 0
M  V30 7217 H 951.273 -4.98352 4.09633 0
M  V30 7218 P 953.034 -5.75688 6.64379 0
M  V30 7219 O 954.456 -6.11849 7.01846 0
M  V30 7220 O 952.674 -4.30744 6.56026 0
M  V30 7221 O 952.711 -6.37042 5.19165 0
M  V30 7222 C 952.551 -7.83578 5.16515 0
M  V30 7223 C 953.091 -8.33398 3.83019 0
M  V30 7224 O 952.035 -8.10074 3.01034 0
M  V30 7225 C 954.309 -7.65514 3.2257 0
M  V30 7226 O 955.047 -8.4329 2.32297 0
M  V30 7227 C 953.64 -6.40075 2.62207 0
M  V30 7228 O 954.439 -5.92589 1.53712 0
M  V30 7229 C 952.303 -6.9454 2.18503 0
M  V30 7230 H 952.335 -7.23063 1.12091 0
M  V30 7231 H 953.518 -5.6025 3.37201 0
M  V30 7232 H 955.002 -7.35707 4.02681 0
M  V30 7233 H 953.308 -9.40912 3.9095 0
M  V30 7234 H 953.118 -8.29056 5.99158 0
M  V30 7235 H 951.488 -8.10073 5.25882 0
M  V30 7236 H 954.127 -6.30324 0.726794 0
M  V30 7237 P 955.985 -8.4349 2.47671 0
M  V30 7238 O 957.407 -8.94167 2.5964 0
M  V30 7239 O 955.625 -7.1704 3.19006 0
M  V30 7240 O 955.662 -8.16596 0.923387 0
M  V30 7241 C 955.502 -9.38437 0.108857 0
M  V30 7242 C 956.042 -9.08175 -1.28353 0
M  V30 7243 O 954.986 -8.44229 -1.84713 0
M  V30 7244 C 957.26 -8.18386 -1.42505 0
M  V30 7245 O 957.998 -8.3501 -2.60497 0
M  V30 7246 C 956.591 -6.80225 -1.25468 0
M  V30 7247 O 957.39 -5.81621 -1.91066 0
M  V30 7248 C 955.254 -7.02416 -1.9168 0
M  V30 7249 H 955.286 -6.6888 -2.96621 0
M  V30 7250 H 956.469 -6.53617 -0.192223 0
M  V30 7251 H 957.953 -8.36622 -0.589963 0
M  V30 7252 H 956.259 -10.0291 -1.79807 0
M  V30 7253 H 956.069 -10.2138 0.558219 0
M  V30 7254 H 954.439 -9.6579 0.0444202 0
M  V30 7255 H 957.078 -5.69556 -2.79637 0
M  V30 7256 P 958.935 -8.4349 -2.47671 0
M  V30 7257 O 960.357 -8.92593 -2.65 0
M  V30 7258 O 958.575 -7.7568 -1.19296 0
M  V30 7259 O 958.612 -7.36886 -3.63805 0
M  V30 7260 C 958.452 -7.95349 -4.982 0
M  V30 7261 C 958.992 -6.94612 -5.98974 0
M  V30 7262 O 957.936 -6.10347 -6.11815 0
M  V30 7263 C 960.21 -6.11426 -5.62335 0
M  V30 7264 O 960.948 -5.6162 -6.70584 0
M  V30 7265 C 959.541 -5.04409 -4.73308 0
M  V30 7266 O 960.34 -3.85992 -4.75183 0
M  V30 7267 C 958.204 -4.8728 -5.41006 0
M  V30 7268 H 958.236 -4.02333 -6.11157 0
M  V30 7269 H 959.419 -5.39466 -3.69543 0
M  V30 7270 H 960.903 -6.71916 -5.01943 0
M  V30 7271 H 959.209 -7.4649 -6.93477 0
M  V30 7272 H 959.019 -8.89416 -5.05237 0
M  V30 7273 H 957.389 -8.14876 -5.18409 0
M  V30 7274 H 960.028 -3.27957 -5.4317 0
M  V30 7275 P 961.886 -5.75688 -6.64379 0
M  V30 7276 O 963.308 -6.07758 -7.05656 0
M  V30 7277 O 961.526 -5.88047 -5.19722 0
M  V30 7278 O 961.563 -4.2322 -7.04443 0
M  V30 7279 C 961.403 -3.99743 -8.4911 0
M  V30 7280 C 961.943 -2.60487 -8.79329 0
M  V30 7281 O 960.888 -1.82684 -8.4467 0
M  V30 7282 C 963.161 -2.10343 -8.03628 0
M  V30 7283 O 963.899 -1.09919 -8.67766 0
M  V30 7284 C 962.493 -1.68446 -6.70876 0
M  V30 7285 O 963.291 -0.678026 -6.08333 0
M  V30 7286 C 961.155 -1.17436 -7.18567 0
M  V30 7287 N 960.112 -1.52699 -6.23988 0
M  V30 7288 C 960.174 -2.68084 -5.57824 0
M  V30 7289 N 959.129 -2.8189 -4.75643 0
M  V30 7290 C 958.395 -1.72373 -4.95155 0
M  V30 7291 C 957.089 -1.37653 -4.44996 0
M  V30 7292 O 956.356 -2.02239 -3.68445 0
M  V30 7293 N 956.659 -0.17675 -4.90782 0
M  V30 7294 C 957.408 0.645036 -5.78716 0
M  V30 7295 N 956.811 1.84214 -6.10618 0
M  V30 7296 N 958.561 0.321732 -6.30279 0
M  V30 7297 C 959.018 -0.87502 -5.86913 0
M  V30 7298 H 961.187 -0.0804732 -7.31656 0
M  V30 7299 H 962.37 -2.53998 -6.02444 0
M  V30 7300 H 963.855 -2.93095 -7.8582 0
M  V30 7301 H 962.16 -2.53065 -9.86973 0
M  V30 7302 H 961.97 -4.75072 -9.05887 0
M  V30 7303 H 960.339 -4.05244 -8.76668 0
M  V30 7304 H 955.763 0.152143 -4.60849 0
M  V30 7305 H 960.97 -3.41852 -5.69006 0
M  V30 7306 H 955.9 2.08538 -5.69521 0
M  V30 7307 H 957.276 2.4895 -6.75698 0
M  V30 7308 H 962.98 0.177619 -6.34151 0
M  V30 7309 P 964.836 -1.25109 -8.70152 0
M  V30 7310 O 966.258 -1.29744 -9.22016 0
M  V30 7311 O 964.476 -2.13714 -7.55141 0
M  V30 7312 O 964.513 0.248149 -8.21425 0
M  V30 7313 C 964.353 1.22779 -9.30434 0
M  V30 7314 C 964.893 2.56293 -8.80664 0
M  V30 7315 O 963.837 3.02979 -8.09349 0
M  V30 7316 C 966.111 2.57523 -7.89775 0
M  V30 7317 O 966.849 3.7668 -7.89438 0
M  V30 7318 C 965.442 2.20997 -6.55446 0
M  V30 7319 O 966.241 2.71895 -5.48509 0
M  V30 7320 C 964.105 2.89693 -6.67988 0
M  V30 7321 H 964.137 3.88793 -6.19859 0
M  V30 7322 H 965.32 1.12046 -6.44229 0
M  V30 7323 H 966.804 1.7746 -8.19711 0
M  V30 7324 H 965.11 3.20706 -9.67112 0
M  V30 7325 H 964.92 0.901032 -10.1892 0
M  V30 7326 H 963.29 1.33049 -9.56592 0
M  V30 7327 H 965.929 3.57847 -5.23962 0
M  V30 7328 P 967.787 3.65191 -7.99657 0
M  V30 7329 O 969.209 3.89332 -8.45794 0
M  V30 7330 O 967.427 2.28472 -7.50807 0
M  V30 7331 O 967.464 4.64972 -6.77611 0
M  V30 7332 C 967.304 6.06319 -7.16352 0
M  V30 7333 C 967.844 6.91731 -6.02299 0
M  V30 7334 O 966.788 6.92449 -5.17064 0
M  V30 7335 C 969.062 6.43627 -5.25174 0
M  V30 7336 O 969.8 7.43686 -4.60469 0
M  V30 7337 C 968.393 5.40275 -4.31916 0
M  V30 7338 O 969.192 5.25279 -3.14438 0
M  V30 7339 C 967.056 6.04847 -4.05327 0
M  V30 7340 H 967.088 6.62195 -3.11261 0
M  V30 7341 H 968.271 4.42556 -4.81383 0
M  V30 7342 H 969.755 5.92458 -5.93643 0
M  V30 7343 H 968.061 7.92655 -6.402 0
M  V30 7344 H 967.871 6.26671 -8.0846 0
M  V30 7345 H 966.241 6.29101 -7.32804 0
M  V30 7346 H 968.88 5.84315 -2.47318 0
M  V30 7347 P 970.738 7.39546 -4.75277 0
M  V30 7348 O 972.139 7.86988 -5.07993 0
M  V30 7349 O 970.36 5.99957 -5.13804 0
M  V30 7350 O 970.415 7.57411 -3.18621 0
M  V30 7351 C 970.255 8.97357 -2.74833 0
M  V30 7352 C 970.795 9.0745 -1.32694 0
M  V30 7353 O 969.739 8.61972 -0.606089 0
M  V30 7354 C 972.012 8.25383 -0.938334 0
M  V30 7355 O 972.751 8.74577 0.146954 0
M  V30 7356 C 971.345 6.8802 -0.712559 0
M  V30 7357 O 972.143 6.11791 0.194623 0
M  V30 7358 C 970.007 7.27966 -0.139777 0
M  V30 7359 N 968.964 6.39368 -0.623421 0
M  V30 7360 C 967.929 6.08088 0.223886 0
M  V30 7361 O 967.968 6.5102 1.39986 0
M  V30 7362 N 966.917 5.30627 -0.224051 0
M  V30 7363 C 966.965 4.82531 -1.47257 0
M  V30 7364 C 968.061 5.09974 -2.34008 0
M  V30 7365 C 969.027 5.89548 -1.87678 0
M  V30 7366 H 970.039 7.25255 0.961469 0
M  V30 7367 H 971.222 6.32625 -1.65044 0
M  V30 7368 H 972.706 8.19631 -1.78299 0
M  V30 7369 H 971.012 10.1305 -1.09016 0
M  V30 7370 H 970.821 9.64276 -3.41316 0
M  V30 7371 H 969.191 9.25321 -2.76328 0
M  V30 7372 H 968.109 4.67832 -3.3413 0
M  V30 7373 H 969.873 6.14434 -2.51991 0
M  V30 7374 H 971.927 6.35931 1.08377 0
M  V30 7375 P 973.688 8.791 7.55599e-12 0
M  V30 7376 O 975.11 9.31096 0.027933 0
M  V30 7377 O 973.328 7.77869 -1.04071 0
M  V30 7378 O 973.365 8.09533 1.41463 0
M  V30 7379 C 973.205 9.0349 2.53943 0
M  V30 7380 C 973.745 8.35226 3.79016 0
M  V30 7381 O 972.689 7.57992 4.15078 0
M  V30 7382 C 974.963 7.45087 3.67298 0
M  V30 7383 O 975.701 7.27796 4.85194 0
M  V30 7384 C 974.294 6.17323 3.12027 0
M  V30 7385 O 975.093 5.04231 3.47188 0
M  V30 7386 C 972.957 6.19961 3.81809 0
M  V30 7387 H 972.989 5.58218 4.73051 0
M  V30 7388 H 974.172 6.21726 2.02589 0
M  V30 7389 H 975.656 7.86112 2.9231 0
M  V30 7390 H 973.962 9.11627 4.55076 0
M  V30 7391 H 973.772 9.9573 2.34194 0
M  V30 7392 H 972.142 9.2792 2.67832 0
M  V30 7393 H 974.781 4.67702 4.28772 0
M  V30 7394 P 976.639 7.39546 4.75277 0
M  V30 7395 O 978.061 7.81777 5.05738 0
M  V30 7396 O 976.279 7.1065 3.32998 0
M  V30 7397 O 976.316 6.04542 5.56673 0
M  V30 7398 C 976.156 6.22772 7.02095 0
M  V30 7399 C 976.696 4.97725 7.70406 0
M  V30 7400 O 975.64 4.13256 7.58987 0
M  V30 7401 C 977.914 4.28231 7.11815 0
M  V30 7402 O 978.652 3.49945 8.01648 0
M  V30 7403 C 977.245 3.5063 5.96244 0
M  V30 7404 O 978.044 2.36482 5.64681 0
M  V30 7405 C 975.908 3.15122 6.56374 0
M  V30 7406 H 975.94 2.13853 6.99751 0
M  V30 7407 H 977.123 4.13501 5.06559 0
M  V30 7408 H 978.607 5.03285 6.70911 0
M  V30 7409 H 976.913 5.20877 8.75697 0
M  V30 7410 H 976.723 7.11046 7.35349 0
M  V30 7411 H 975.093 6.35815 7.26986 0
M  V30 7412 H 977.732 1.61644 6.13565 0
M  V30 7413 P 979.589 3.65191 7.99657 0
M  V30 7414 O 981.01 3.84292 8.48206 0
M  V30 7415 O 979.229 4.17805 6.64342 0
M  V30 7416 O 979.266 2.07613 7.95143 0
M  V30 7417 C 979.105 1.44344 9.27435 0
M  V30 7418 C 979.646 0.0220036 9.17197 0
M  V30 7419 O 978.591 -0.626794 8.61824 0
M  V30 7420 C 980.864 -0.24586 8.30336 0
M  V30 7421 O 981.602 -1.39011 8.63583 0
M  V30 7422 C 980.196 -0.273849 6.91158 0
M  V30 7423 O 980.994 -1.05728 6.029 0
M  V30 7424 C 978.858 -0.897649 7.22545 0
M  V30 7425 N 977.815 -0.292839 6.41732 0
M  V30 7426 C 977.984 0.950603 5.91308 0
M  V30 7427 N 976.957 1.37732 5.21105 0
M  V30 7428 C 976.072 0.318109 5.26039 0
M  V30 7429 C 974.805 0.146766 4.6727 0
M  V30 7430 N 974.206 1.08519 3.89983 0
M  V30 7431 N 974.24 -1.06525 4.95887 0
M  V30 7432 C 974.842 -2.0378 5.71347 0
M  V30 7433 N 976.019 -1.92445 6.27451 0
M  V30 7434 C 976.594 -0.715382 6.00353 0
M  V30 7435 H 978.89 -1.98383 7.04189 0
M  V30 7436 H 980.073 0.733318 6.49674 0
M  V30 7437 H 981.556 0.60668 8.36503 0
M  V30 7438 H 979.862 -0.362662 10.1825 0
M  V30 7439 H 979.672 2.00611 10.0304 0
M  V30 7440 H 978.042 1.41843 9.55327 0
M  V30 7441 H 974.306 -2.97041 5.85344 0
M  V30 7442 H 978.884 1.54076 6.07465 0
M  V30 7443 H 973.276 0.901517 3.49562 0
M  V30 7444 H 974.68 1.97957 3.71669 0
M  V30 7445 H 980.682 -1.95704 6.0346 0
M  V30 7446 P 982.54 -1.25109 8.70152 0
M  V30 7447 O 983.961 -1.35288 9.2132 0
M  V30 7448 O 982.18 -0.0769065 7.84762 0
M  V30 7449 O 982.217 -2.55232 7.81161 0
M  V30 7450 C 982.056 -3.79979 8.58246 0
M  V30 7451 C 982.597 -4.94023 7.72785 0
M  V30 7452 O 981.542 -5.18666 6.91125 0
M  V30 7453 C 983.815 -4.69597 6.85231 0
M  V30 7454 O 984.553 -5.83832 6.51337 0
M  V30 7455 C 983.147 -3.96706 5.66633 0
M  V30 7456 O 983.945 -4.14896 4.5003 0
M  V30 7457 C 981.809 -4.66153 5.59313 0
M  V30 7458 N 980.766 -3.71582 5.24027 0
M  V30 7459 C 980.935 -2.39715 5.48833 0
M  V30 7460 N 979.908 -1.65863 5.12845 0
M  V30 7461 C 979.023 -2.57637 4.5973 0
M  V30 7462 C 977.756 -2.40278 4.01027 0
M  V30 7463 N 977.157 -1.19549 3.86744 0
M  V30 7464 N 977.191 -3.57711 3.59575 0
M  V30 7465 C 977.793 -4.80324 3.70476 0
M  V30 7466 N 978.97 -5.01121 4.23801 0
M  V30 7467 C 979.545 -3.84757 4.66372 0
M  V30 7468 H 981.841 -5.47604 4.85148 0
M  V30 7469 H 983.024 -2.8955 5.86187 0
M  V30 7470 H 984.507 -4.0121 7.36511 0
M  V30 7471 H 982.813 -5.81019 8.37003 0
M  V30 7472 H 982.623 -3.73517 9.52265 0
M  V30 7473 H 980.993 -3.97163 8.80359 0
M  V30 7474 H 977.257 -5.66348 3.3183 0
M  V30 7475 H 981.835 -1.98804 5.94332 0
M  V30 7476 H 976.227 -1.13147 3.4281 0
M  V30 7477 H 977.631 -0.344074 4.19692 0
M  V30 7478 H 983.633 -4.90891 4.01857 0
M  V30 7479 P 985.49 -5.75688 6.64379 0
M  V30 7480 O 986.912 -6.11849 7.01846 0
M  V30 7481 O 985.13 -4.30744 6.56026 0
M  V30 7482 O 985.167 -6.37042 5.19165 0
M  V30 7483 C 985.007 -7.83578 5.16515 0
M  V30 7484 C 985.547 -8.33398 3.83019 0
M  V30 7485 O 984.491 -8.10074 3.01034 0
M  V30 7486 C 986.765 -7.65514 3.2257 0
M  V30 7487 O 987.503 -8.4329 2.32297 0
M  V30 7488 C 986.096 -6.40075 2.62207 0
M  V30 7489 O 986.895 -5.92589 1.53712 0
M  V30 7490 C 984.759 -6.9454 2.18503 0
M  V30 7491 H 984.791 -7.23063 1.12091 0
M  V30 7492 H 985.974 -5.6025 3.37201 0
M  V30 7493 H 987.458 -7.35707 4.02681 0
M  V30 7494 H 985.764 -9.40912 3.9095 0
M  V30 7495 H 985.574 -8.29056 5.99158 0
M  V30 7496 H 983.944 -8.10073 5.25882 0
M  V30 7497 H 986.583 -6.30324 0.726794 0
M  V30 7498 P 988.441 -8.4349 2.47671 0
M  V30 7499 O 989.863 -8.94167 2.5964 0
M  V30 7500 O 988.081 -7.1704 3.19006 0
M  V30 7501 O 988.118 -8.16596 0.923387 0
M  V30 7502 C 987.958 -9.38437 0.108857 0
M  V30 7503 C 988.498 -9.08175 -1.28353 0
M  V30 7504 O 987.442 -8.44229 -1.84713 0
M  V30 7505 C 989.716 -8.18386 -1.42505 0
M  V30 7506 O 990.454 -8.3501 -2.60497 0
M  V30 7507 C 989.047 -6.80225 -1.25468 0
M  V30 7508 O 989.846 -5.81621 -1.91066 0
M  V30 7509 C 987.71 -7.02416 -1.9168 0
M  V30 7510 H 987.742 -6.6888 -2.96621 0
M  V30 7511 H 988.925 -6.53617 -0.192223 0
M  V30 7512 H 990.409 -8.36622 -0.589963 0
M  V30 7513 H 988.715 -10.0291 -1.79807 0
M  V30 7514 H 988.525 -10.2138 0.558219 0
M  V30 7515 H 986.895 -9.6579 0.0444202 0
M  V30 7516 H 989.534 -5.69556 -2.79637 0
M  V30 7517 P 991.392 -8.4349 -2.47671 0
M  V30 7518 O 992.814 -8.92593 -2.65 0
M  V30 7519 O 991.032 -7.7568 -1.19296 0
M  V30 7520 O 991.069 -7.36886 -3.63805 0
M  V30 7521 C 990.909 -7.95349 -4.982 0
M  V30 7522 C 991.449 -6.94612 -5.98974 0
M  V30 7523 O 990.393 -6.10347 -6.11815 0
M  V30 7524 C 992.667 -6.11426 -5.62335 0
M  V30 7525 O 993.405 -5.6162 -6.70584 0
M  V30 7526 C 991.998 -5.04409 -4.73308 0
M  V30 7527 O 992.797 -3.85992 -4.75183 0
M  V30 7528 C 990.661 -4.8728 -5.41006 0
M  V30 7529 H 990.693 -4.02333 -6.11157 0
M  V30 7530 H 991.876 -5.39466 -3.69543 0
M  V30 7531 H 993.36 -6.71916 -5.01943 0
M  V30 7532 H 991.666 -7.4649 -6.93477 0
M  V30 7533 H 991.476 -8.89416 -5.05237 0
M  V30 7534 H 989.846 -8.14876 -5.18409 0
M  V30 7535 H 992.485 -3.27957 -5.4317 0
M  V30 7536 P 994.342 -5.75688 -6.64379 0
M  V30 7537 O 995.763 -6.07692 -7.0558 0
M  V30 7538 O 993.982 -5.88047 -5.19722 0
M  V30 7539 O 994.019 -4.2322 -7.04443 0
M  V30 7540 C 993.858 -3.99785 -8.49201 0
M  V30 7541 C 994.399 -2.60516 -8.79425 0
M  V30 7542 O 993.344 -1.82663 -8.44573 0
M  V30 7543 C 995.617 -2.10343 -8.03628 0
M  V30 7544 O 996.355 -1.09919 -8.67766 0
M  V30 7545 C 994.949 -1.68446 -6.70876 0
M  V30 7546 O 995.747 -0.684109 -6.08265 0
M  V30 7547 C 993.611 -1.17436 -7.18567 0
M  V30 7548 N 992.568 -1.52699 -6.23988 0
M  V30 7549 C 992.737 -2.578 -5.40574 0
M  V30 7550 N 991.71 -2.78966 -4.61193 0
M  V30 7551 C 990.825 -1.78725 -4.95769 0
M  V30 7552 C 989.558 -1.45727 -4.44207 0
M  V30 7553 N 988.959 -2.13994 -3.43613 0
M  V30 7554 N 988.993 -0.374977 -5.05812 0
M  V30 7555 C 989.595 0.345585 -6.05615 0
M  V30 7556 N 990.772 0.0787651 -6.56253 0
M  V30 7557 C 991.347 -1.00499 -5.96189 0
M  V30 7558 H 993.643 -0.0804622 -7.31556 0
M  V30 7559 H 994.826 -2.53396 -6.02698 0
M  V30 7560 H 996.309 -2.93881 -7.85526 0
M  V30 7561 H 994.615 -2.52078 -9.87225 0
M  V30 7562 H 994.425 -4.75072 -9.05887 0
M  V30 7563 H 992.795 -4.05244 -8.76668 0
M  V30 7564 H 989.059 1.20098 -6.4532 0
M  V30 7565 H 993.637 -3.18977 -5.3945 0
M  V30 7566 H 988.029 -1.84983 -3.10004 0
M  V30 7567 H 989.433 -2.9465 -3.00843 0
M  V30 7568 H 995.435 0.177619 -6.34151 0
M  V30 7569 P 997.293 -1.25109 -8.70152 0
M  V30 7570 O 998.715 -1.29744 -9.22016 0
M  V30 7571 O 996.933 -2.13714 -7.55141 0
M  V30 7572 O 996.97 0.248149 -8.21425 0
M  V30 7573 C 996.81 1.22779 -9.30434 0
M  V30 7574 C 997.35 2.56293 -8.80664 0
M  V30 7575 O 996.294 3.02979 -8.09349 0
M  V30 7576 C 998.568 2.57523 -7.89775 0
M  V30 7577 O 999.306 3.7668 -7.89438 0
M  V30 7578 C 997.899 2.20997 -6.55446 0
M  V30 7579 O 998.698 2.71895 -5.48509 0
M  V30 7580 C 996.562 2.89693 -6.67988 0
M  V30 7581 H 996.594 3.88793 -6.19859 0
M  V30 7582 H 997.777 1.12046 -6.44229 0
M  V30 7583 H 999.261 1.7746 -8.19711 0
M  V30 7584 H 997.567 3.20706 -9.67112 0
M  V30 7585 H 997.377 0.901032 -10.1892 0
M  V30 7586 H 995.747 1.33049 -9.56592 0
M  V30 7587 H 998.386 3.57847 -5.23962 0
M  V30 7588 P 1000.24 3.65191 -7.99657 0
M  V30 7589 O 1001.67 3.89332 -8.45794 0
M  V30 7590 O 999.883 2.28472 -7.50807 0
M  V30 7591 O 999.92 4.64972 -6.77611 0
M  V30 7592 C 999.76 6.06319 -7.16352 0
M  V30 7593 C 1000.3 6.91731 -6.02299 0
M  V30 7594 O 999.244 6.92449 -5.17064 0
M  V30 7595 C 1001.52 6.43627 -5.25174 0
M  V30 7596 O 1002.26 7.43686 -4.60469 0
M  V30 7597 C 1000.85 5.40275 -4.31916 0
M  V30 7598 O 1001.65 5.25279 -3.14438 0
M  V30 7599 C 999.512 6.04847 -4.05327 0
M  V30 7600 H 999.544 6.62195 -3.11261 0
M  V30 7601 H 1000.73 4.42556 -4.81383 0
M  V30 7602 H 1002.21 5.92458 -5.93643 0
M  V30 7603 H 1000.52 7.92655 -6.402 0
M  V30 7604 H 1000.33 6.26671 -8.0846 0
M  V30 7605 H 998.697 6.29101 -7.32804 0
M  V30 7606 H 1001.34 5.84315 -2.47318 0
M  V30 7607 P 1003.19 7.39546 -4.75277 0
M  V30 7608 O 1004.61 7.84882 -5.01092 0
M  V30 7609 O 1002.83 5.9812 -5.08098 0
M  V30 7610 O 1002.87 7.57503 -3.1866 0
M  V30 7611 C 1002.71 8.97452 -2.74862 0
M  V30 7612 C 1003.25 9.07548 -1.32709 0
M  V30 7613 O 1002.2 8.61972 -0.606089 0
M  V30 7614 C 1004.47 8.25383 -0.938334 0
M  V30 7615 O 1005.21 8.74577 0.146954 0
M  V30 7616 C 1003.8 6.8802 -0.712559 0
M  V30 7617 O 1004.6 6.1181 0.188505 0
M  V30 7618 C 1002.46 7.27966 -0.139777 0
M  V30 7619 N 1001.42 6.39368 -0.623421 0
M  V30 7620 C 1001.59 5.71761 -1.78245 0
M  V30 7621 N 1000.56 4.962 -2.10491 0
M  V30 7622 C 999.677 5.16158 -1.0635 0
M  V30 7623 C 998.41 4.60425 -0.810266 0
M  V30 7624 N 997.811 3.7057 -1.62914 0
M  V30 7625 N 997.845 5.06 0.348685 0
M  V30 7626 C 998.447 5.94532 1.20395 0
M  V30 7627 N 999.624 6.48452 1.01191 0
M  V30 7628 C 1000.2 6.04423 -0.146291 0
M  V30 7629 H 1002.49 7.25255 0.961469 0
M  V30 7630 H 1003.68 6.32625 -1.65044 0
M  V30 7631 H 1005.16 8.19355 -1.79097 0
M  V30 7632 H 1003.47 10.1305 -1.09016 0
M  V30 7633 H 1003.28 9.64276 -3.41316 0
M  V30 7634 H 1001.65 9.25417 -2.76357 0
M  V30 7635 H 997.911 6.21659 2.10714 0
M  V30 7636 H 1002.49 5.79354 -2.38959 0
M  V30 7637 H 996.881 3.33174 -1.38982 0
M  V30 7638 H 998.285 3.39714 -2.48836 0
M  V30 7639 H 1004.29 6.25169 1.0783 0
M  V30 7640 P 1006.14 8.791 7.86616e-12 0
M  V30 7641 O 1007.57 9.31096 0.027933 0
M  V30 7642 O 1005.78 7.77869 -1.04071 0
M  V30 7643 O 1005.82 8.09533 1.41463 0
M  V30 7644 C 1005.66 9.0349 2.53943 0
M  V30 7645 C 1006.2 8.35226 3.79016 0
M  V30 7646 O 1005.15 7.57992 4.15078 0
M  V30 7647 C 1007.42 7.45087 3.67298 0
M  V30 7648 O 1008.16 7.27796 4.85194 0
M  V30 7649 C 1006.75 6.17323 3.12027 0
M  V30 7650 O 1007.55 5.04231 3.47188 0
M  V30 7651 C 1005.41 6.19961 3.81809 0
M  V30 7652 H 1005.45 5.58218 4.73051 0
M  V30 7653 H 1006.63 6.21726 2.02589 0
M  V30 7654 H 1008.11 7.86112 2.9231 0
M  V30 7655 H 1006.42 9.11627 4.55076 0
M  V30 7656 H 1006.23 9.9573 2.34194 0
M  V30 7657 H 1004.6 9.2792 2.67832 0
M  V30 7658 H 1007.24 4.67702 4.28772 0
M  V30 7659 P 1009.09 7.39546 4.75277 0
M  V30 7660 O 1010.52 7.81777 5.05738 0
M  V30 7661 O 1008.73 7.1065 3.32998 0
M  V30 7662 O 1008.77 6.04542 5.56673 0
M  V30 7663 C 1008.61 6.22772 7.02095 0
M  V30 7664 C 1009.15 4.97725 7.70406 0
M  V30 7665 O 1008.1 4.13256 7.58987 0
M  V30 7666 C 1010.37 4.28231 7.11815 0
M  V30 7667 O 1011.11 3.49945 8.01648 0
M  V30 7668 C 1009.7 3.5063 5.96244 0
M  V30 7669 O 1010.5 2.36482 5.64681 0
M  V30 7670 C 1008.36 3.15122 6.56374 0
M  V30 7671 H 1008.4 2.13853 6.99751 0
M  V30 7672 H 1009.58 4.13501 5.06559 0
M  V30 7673 H 1011.06 5.03285 6.70911 0
M  V30 7674 H 1009.37 5.20877 8.75697 0
M  V30 7675 H 1009.18 7.11046 7.35349 0
M  V30 7676 H 1007.55 6.35815 7.26986 0
M  V30 7677 H 1010.19 1.61644 6.13565 0
M  V30 7678 P 1012.05 3.65191 7.99657 0
M  V30 7679 O 1013.47 3.8425 8.48115 0
M  V30 7680 O 1011.69 4.17805 6.64342 0
M  V30 7681 O 1011.72 2.07613 7.95143 0
M  V30 7682 C 1011.56 1.44328 9.27336 0
M  V30 7683 C 1012.1 0.0220036 9.17197 0
M  V30 7684 O 1011.05 -0.626867 8.61923 0
M  V30 7685 C 1013.32 -0.24586 8.30336 0
M  V30 7686 O 1014.06 -1.39011 8.63583 0
M  V30 7687 C 1012.65 -0.273849 6.91158 0
M  V30 7688 O 1013.45 -1.06348 6.02892 0
M  V30 7689 C 1011.31 -0.897649 7.22545 0
M  V30 7690 H 1011.35 -1.9841 7.04286 0
M  V30 7691 H 1012.53 0.739928 6.497 0
M  V30 7692 H 1014.01 0.60668 8.36503 0
M  V30 7693 H 1012.32 -0.352479 10.1829 0
M  V30 7694 H 1012.13 2.00611 10.0304 0
M  V30 7695 H 1010.5 1.41843 9.55327 0
M  V30 7696 H 1013.14 -1.95734 6.03555 0
M  V30 7697 P 1015 -1.25109 8.70152 0
M  V30 7698 O 1016.42 -1.35274 9.21221 0
M  V30 7699 O 1014.64 -0.0769065 7.84762 0
M  V30 7700 O 1014.67 -2.55232 7.81161 0
M  V30 7701 C 1014.51 -3.79939 8.58154 0
M  V30 7702 C 1015.05 -4.94023 7.72785 0
M  V30 7703 O 1014 -5.18726 6.91205 0
M  V30 7704 C 1016.27 -4.69597 6.85231 0
M  V30 7705 O 1017.01 -5.83832 6.51337 0
M  V30 7706 C 1015.6 -3.96706 5.66633 0
M  V30 7707 O 1016.4 -4.15414 4.49689 0
M  V30 7708 C 1014.27 -4.66153 5.59313 0
M  V30 7709 H 1014.3 -5.47679 4.85214 0
M  V30 7710 H 1015.48 -2.89008 5.86566 0
M  V30 7711 H 1016.96 -4.0121 7.36511 0
M  V30 7712 H 1015.27 -5.80182 8.37584 0
M  V30 7713 H 1015.08 -3.73517 9.52265 0
M  V30 7714 H 1013.45 -3.97163 8.80359 0
M  V30 7715 H 1016.09 -4.90969 4.01921 0
M  V30 7716 P 1017.95 -5.75688 6.64379 0
M  V30 7717 O 1019.37 -6.11849 7.01846 0
M  V30 7718 O 1017.59 -4.30744 6.56026 0
M  V30 7719 O 1017.62 -6.37042 5.19165 0
M  V30 7720 C 1017.46 -7.83578 5.16515 0
M  V30 7721 C 1018 -8.33398 3.83019 0
M  V30 7722 O 1016.95 -8.10074 3.01034 0
M  V30 7723 C 1019.22 -7.65514 3.2257 0
M  V30 7724 O 1019.96 -8.4329 2.32297 0
M  V30 7725 C 1018.55 -6.40075 2.62207 0
M  V30 7726 O 1019.35 -5.92589 1.53712 0
M  V30 7727 C 1017.22 -6.9454 2.18503 0
M  V30 7728 H 1017.25 -7.23063 1.12091 0
M  V30 7729 H 1018.43 -5.6025 3.37201 0
M  V30 7730 H 1019.91 -7.35707 4.02681 0
M  V30 7731 H 1018.22 -9.40912 3.9095 0
M  V30 7732 H 1018.03 -8.29056 5.99158 0
M  V30 7733 H 1016.4 -8.10073 5.25882 0
M  V30 7734 H 1019.04 -6.30324 0.726794 0
M  V30 7735 P 1020.9 -8.4349 2.47671 0
M  V30 7736 O 1022.32 -8.94167 2.5964 0
M  V30 7737 O 1020.54 -7.1704 3.19006 0
M  V30 7738 O 1020.57 -8.16596 0.923387 0
M  V30 7739 C 1020.41 -9.38437 0.108857 0
M  V30 7740 C 1020.95 -9.08175 -1.28353 0
M  V30 7741 O 1019.9 -8.44229 -1.84713 0
M  V30 7742 C 1022.17 -8.18386 -1.42505 0
M  V30 7743 O 1022.91 -8.3501 -2.60497 0
M  V30 7744 C 1021.5 -6.80225 -1.25468 0
M  V30 7745 O 1022.3 -5.81621 -1.91066 0
M  V30 7746 C 1020.17 -7.02416 -1.9168 0
M  V30 7747 H 1020.2 -6.6888 -2.96621 0
M  V30 7748 H 1021.38 -6.53617 -0.192223 0
M  V30 7749 H 1022.87 -8.36622 -0.589963 0
M  V30 7750 H 1021.17 -10.0291 -1.79807 0
M  V30 7751 H 1020.98 -10.2138 0.558219 0
M  V30 7752 H 1019.35 -9.6579 0.0444202 0
M  V30 7753 H 1021.99 -5.69556 -2.79637 0
M  V30 7754 P 1023.85 -8.4349 -2.47671 0
M  V30 7755 O 1025.27 -8.92593 -2.65 0
M  V30 7756 O 1023.49 -7.7568 -1.19296 0
M  V30 7757 O 1023.52 -7.36886 -3.63805 0
M  V30 7758 C 1023.36 -7.95349 -4.982 0
M  V30 7759 C 1023.9 -6.94612 -5.98974 0
M  V30 7760 O 1022.85 -6.10347 -6.11815 0
M  V30 7761 C 1025.12 -6.11426 -5.62335 0
M  V30 7762 O 1025.86 -5.6162 -6.70584 0
M  V30 7763 C 1024.45 -5.04409 -4.73308 0
M  V30 7764 O 1025.25 -3.85992 -4.75183 0
M  V30 7765 C 1023.12 -4.8728 -5.41006 0
M  V30 7766 H 1023.15 -4.02333 -6.11157 0
M  V30 7767 H 1024.33 -5.39466 -3.69543 0
M  V30 7768 H 1025.82 -6.71916 -5.01943 0
M  V30 7769 H 1024.12 -7.4649 -6.93477 0
M  V30 7770 H 1023.93 -8.89416 -5.05237 0
M  V30 7771 H 1022.3 -8.14876 -5.18409 0
M  V30 7772 H 1024.94 -3.27957 -5.4317 0
M  V30 7773 P 1026.8 -5.75688 -6.64379 0
M  V30 7774 O 1028.22 -6.07627 -7.05504 0
M  V30 7775 O 1026.44 -5.88047 -5.19722 0
M  V30 7776 O 1026.48 -4.2322 -7.04443 0
M  V30 7777 C 1026.32 -3.99743 -8.4911 0
M  V30 7778 C 1026.86 -2.60516 -8.79425 0
M  V30 7779 O 1025.8 -1.82684 -8.4467 0
M  V30 7780 C 1028.07 -2.10343 -8.03628 0
M  V30 7781 O 1028.81 -1.09919 -8.67766 0
M  V30 7782 C 1027.4 -1.68446 -6.70876 0
M  V30 7783 O 1028.2 -0.678137 -6.08433 0
M  V30 7784 C 1026.07 -1.17436 -7.18567 0
M  V30 7785 H 1026.1 -0.0804732 -7.31656 0
M  V30 7786 H 1027.28 -2.54037 -6.02537 0
M  V30 7787 H 1028.77 -2.93881 -7.85526 0
M  V30 7788 H 1027.07 -2.53065 -9.86973 0
M  V30 7789 H 1026.88 -4.75072 -9.05887 0
M  V30 7790 H 1025.25 -4.05244 -8.76668 0
M  V30 7791 H 1027.89 0.177647 -6.34251 0
M  V30 7792 P 1029.75 -1.25109 -8.70152 0
M  V30 7793 O 1031.17 -1.29744 -9.22016 0
M  V30 7794 O 1029.39 -2.13714 -7.55141 0
M  V30 7795 O 1029.43 0.248149 -8.21425 0
M  V30 7796 C 1029.27 1.22779 -9.30434 0
M  V30 7797 C 1029.81 2.56293 -8.80664 0
M  V30 7798 O 1028.75 3.02979 -8.09349 0
M  V30 7799 C 1031.02 2.57523 -7.89775 0
M  V30 7800 O 1031.76 3.7668 -7.89438 0
M  V30 7801 C 1030.35 2.20997 -6.55446 0
M  V30 7802 O 1031.15 2.71895 -5.48509 0
M  V30 7803 C 1029.02 2.89693 -6.67988 0
M  V30 7804 H 1029.05 3.88793 -6.19859 0
M  V30 7805 H 1030.23 1.12046 -6.44229 0
M  V30 7806 H 1031.72 1.7746 -8.19711 0
M  V30 7807 H 1030.02 3.20706 -9.67112 0
M  V30 7808 H 1029.83 0.901032 -10.1892 0
M  V30 7809 H 1028.2 1.33049 -9.56592 0
M  V30 7810 H 1030.84 3.57847 -5.23962 0
M  V30 7811 P 1032.7 3.65191 -7.99657 0
M  V30 7812 O 1034.12 3.89332 -8.45794 0
M  V30 7813 O 1032.34 2.28472 -7.50807 0
M  V30 7814 O 1032.38 4.64972 -6.77611 0
M  V30 7815 C 1032.22 6.06319 -7.16352 0
M  V30 7816 C 1032.76 6.91731 -6.02299 0
M  V30 7817 O 1031.7 6.92449 -5.17064 0
M  V30 7818 C 1033.97 6.43627 -5.25174 0
M  V30 7819 O 1034.71 7.43686 -4.60469 0
M  V30 7820 C 1033.31 5.40275 -4.31916 0
M  V30 7821 O 1034.1 5.25279 -3.14438 0
M  V30 7822 C 1031.97 6.04847 -4.05327 0
M  V30 7823 H 1032 6.62195 -3.11261 0
M  V30 7824 H 1033.18 4.42556 -4.81383 0
M  V30 7825 H 1034.67 5.92458 -5.93643 0
M  V30 7826 H 1032.97 7.92655 -6.402 0
M  V30 7827 H 1032.78 6.26671 -8.0846 0
M  V30 7828 H 1031.15 6.29101 -7.32804 0
M  V30 7829 H 1033.79 5.84315 -2.47318 0
M  V30 7830 P 1035.65 7.39546 -4.75277 0
M  V30 7831 O 1037.07 7.84798 -5.01039 0
M  V30 7832 O 1035.29 5.9812 -5.08098 0
M  V30 7833 O 1035.33 7.57503 -3.1866 0
M  V30 7834 C 1035.17 8.97357 -2.74833 0
M  V30 7835 C 1035.71 9.07548 -1.32709 0
M  V30 7836 O 1034.65 8.62072 -0.606159 0
M  V30 7837 C 1036.93 8.25383 -0.938334 0
M  V30 7838 O 1037.66 8.74577 0.146954 0
M  V30 7839 C 1036.26 6.8802 -0.712559 0
M  V30 7840 O 1037.06 6.1189 0.194655 0
M  V30 7841 C 1034.92 7.27966 -0.139777 0
M  V30 7842 H 1034.95 7.25354 0.961601 0
M  V30 7843 H 1036.13 6.32557 -1.65702 0
M  V30 7844 H 1037.62 8.19355 -1.79097 0
M  V30 7845 H 1035.92 10.1294 -1.10029 0
M  V30 7846 H 1035.73 9.64276 -3.41316 0
M  V30 7847 H 1034.1 9.25417 -2.76357 0
M  V30 7848 H 1036.74 6.25267 1.07847 0
M  V30 7849 P 1038.6 8.791 8.17632e-12 0
M  V30 7850 O 1040.02 9.31096 0.027933 0
M  V30 7851 O 1038.24 7.77869 -1.04071 0
M  V30 7852 O 1038.28 8.09533 1.41463 0
M  V30 7853 C 1038.12 9.0349 2.53943 0
M  V30 7854 C 1038.66 8.35226 3.79016 0
M  V30 7855 O 1037.6 7.57992 4.15078 0
M  V30 7856 C 1039.88 7.45087 3.67298 0
M  V30 7857 O 1040.61 7.27796 4.85194 0
M  V30 7858 C 1039.21 6.17323 3.12027 0
M  V30 7859 O 1040.01 5.04231 3.47188 0
M  V30 7860 C 1037.87 6.19961 3.81809 0
M  V30 7861 H 1037.9 5.58218 4.73051 0
M  V30 7862 H 1039.08 6.21726 2.02589 0
M  V30 7863 H 1040.57 7.86112 2.9231 0
M  V30 7864 H 1038.87 9.11627 4.55076 0
M  V30 7865 H 1038.68 9.9573 2.34194 0
M  V30 7866 H 1037.05 9.2792 2.67832 0
M  V30 7867 H 1039.69 4.67702 4.28772 0
M  V30 7868 P 1041.55 7.39546 4.75277 0
M  V30 7869 O 1042.97 7.81777 5.05738 0
M  V30 7870 O 1041.19 7.1065 3.32998 0
M  V30 7871 O 1041.23 6.04542 5.56673 0
M  V30 7872 C 1041.07 6.22772 7.02095 0
M  V30 7873 C 1041.61 4.97725 7.70406 0
M  V30 7874 O 1040.55 4.13256 7.58987 0
M  V30 7875 C 1042.83 4.28231 7.11815 0
M  V30 7876 O 1043.56 3.49945 8.01648 0
M  V30 7877 C 1042.16 3.5063 5.96244 0
M  V30 7878 O 1042.96 2.36482 5.64681 0
M  V30 7879 C 1040.82 3.15122 6.56374 0
M  V30 7880 H 1040.85 2.13853 6.99751 0
M  V30 7881 H 1042.04 4.13501 5.06559 0
M  V30 7882 H 1043.52 5.03285 6.70911 0
M  V30 7883 H 1041.83 5.20877 8.75697 0
M  V30 7884 H 1041.64 7.11046 7.35349 0
M  V30 7885 H 1040.01 6.35815 7.26986 0
M  V30 7886 H 1042.64 1.61644 6.13565 0
M  V30 7887 P 1044.5 3.65191 7.99657 0
M  V30 7888 O 1045.92 3.8425 8.48115 0
M  V30 7889 O 1044.14 4.17805 6.64342 0
M  V30 7890 O 1044.18 2.07613 7.95143 0
M  V30 7891 C 1044.02 1.44328 9.27336 0
M  V30 7892 C 1044.56 0.0220036 9.17197 0
M  V30 7893 O 1043.5 -0.626867 8.61923 0
M  V30 7894 C 1045.78 -0.24586 8.30336 0
M  V30 7895 O 1046.51 -1.39011 8.63583 0
M  V30 7896 C 1045.11 -0.273849 6.91158 0
M  V30 7897 O 1045.91 -1.06348 6.02892 0
M  V30 7898 C 1043.77 -0.897649 7.22545 0
M  V30 7899 H 1043.8 -1.9841 7.04286 0
M  V30 7900 H 1044.99 0.739928 6.497 0
M  V30 7901 H 1046.47 0.60668 8.36503 0
M  V30 7902 H 1044.78 -0.352479 10.1829 0
M  V30 7903 H 1044.59 2.00611 10.0304 0
M  V30 7904 H 1042.96 1.41843 9.55327 0
M  V30 7905 H 1045.59 -1.95734 6.03555 0
M  V30 7906 P 1047.45 -1.25109 8.70152 0
M  V30 7907 O 1048.87 -1.35303 9.21419 0
M  V30 7908 O 1047.09 -0.0769065 7.84762 0
M  V30 7909 O 1047.13 -2.55232 7.81161 0
M  V30 7910 C 1046.97 -3.79939 8.58154 0
M  V30 7911 C 1047.51 -4.93969 7.72701 0
M  V30 7912 O 1046.45 -5.18726 6.91205 0
M  V30 7913 C 1048.73 -4.69597 6.85231 0
M  V30 7914 O 1049.47 -5.83832 6.51337 0
M  V30 7915 C 1048.06 -3.96706 5.66633 0
M  V30 7916 O 1048.86 -4.15346 4.49615 0
M  V30 7917 C 1046.72 -4.66153 5.59313 0
M  V30 7918 N 1045.68 -3.71582 5.24027 0
M  V30 7919 C 1045.74 -2.46018 5.67902 0
M  V30 7920 N 1044.7 -1.74868 5.24518 0
M  V30 7921 C 1043.96 -2.61333 4.54528 0
M  V30 7922 C 1042.66 -2.46162 3.95441 0
M  V30 7923 O 1041.92 -1.46013 3.94122 0
M  V30 7924 N 1042.23 -3.59334 3.34752 0
M  V30 7925 C 1042.97 -4.79605 3.3023 0
M  V30 7926 N 1042.38 -5.82109 2.6065 0
M  V30 7927 N 1044.13 -4.97402 3.8843 0
M  V30 7928 C 1044.58 -3.86258 4.50476 0
M  V30 7929 H 1046.75 -5.47679 4.85214 0
M  V30 7930 H 1047.94 -2.88964 5.86476 0
M  V30 7931 H 1049.42 -4.01947 7.36109 0
M  V30 7932 H 1047.73 -5.80182 8.37584 0
M  V30 7933 H 1047.54 -3.73517 9.52265 0
M  V30 7934 H 1045.91 -3.97163 8.80359 0
M  V30 7935 H 1041.33 -3.5825 2.90294 0
M  V30 7936 H 1046.54 -2.06161 6.30974 0
M  V30 7937 H 1041.47 -5.66979 2.15354 0
M  V30 7938 H 1042.84 -6.73686 2.54344 0
M  V30 7939 H 1048.55 -4.90891 4.01857 0
M  V30 7940 P 1050.4 -5.75688 6.64379 0
M  V30 7941 O 1051.82 -6.11849 7.01846 0
M  V30 7942 O 1050.04 -4.30744 6.56026 0
M  V30 7943 O 1050.08 -6.37042 5.19165 0
M  V30 7944 C 1049.92 -7.83578 5.16515 0
M  V30 7945 C 1050.46 -8.33398 3.83019 0
M  V30 7946 O 1049.4 -8.10074 3.01034 0
M  V30 7947 C 1051.68 -7.65514 3.2257 0
M  V30 7948 O 1052.42 -8.4329 2.32297 0
M  V30 7949 C 1051.01 -6.40075 2.62207 0
M  V30 7950 O 1051.81 -5.92589 1.53712 0
M  V30 7951 C 1049.67 -6.9454 2.18503 0
M  V30 7952 H 1049.7 -7.23063 1.12091 0
M  V30 7953 H 1050.89 -5.6025 3.37201 0
M  V30 7954 H 1052.37 -7.35707 4.02681 0
M  V30 7955 H 1050.68 -9.40912 3.9095 0
M  V30 7956 H 1050.49 -8.29056 5.99158 0
M  V30 7957 H 1048.86 -8.10073 5.25882 0
M  V30 7958 H 1051.5 -6.30324 0.726794 0
M  V30 7959 P 1053.35 -8.4349 2.47671 0
M  V30 7960 O 1054.78 -8.94167 2.5964 0
M  V30 7961 O 1052.99 -7.1704 3.19006 0
M  V30 7962 O 1053.03 -8.16596 0.923387 0
M  V30 7963 C 1052.87 -9.38437 0.108857 0
M  V30 7964 C 1053.41 -9.08175 -1.28353 0
M  V30 7965 O 1052.35 -8.44229 -1.84713 0
M  V30 7966 C 1054.63 -8.18386 -1.42505 0
M  V30 7967 O 1055.37 -8.3501 -2.60497 0
M  V30 7968 C 1053.96 -6.80225 -1.25468 0
M  V30 7969 O 1054.76 -5.81621 -1.91066 0
M  V30 7970 C 1052.62 -7.02416 -1.9168 0
M  V30 7971 H 1052.65 -6.6888 -2.96621 0
M  V30 7972 H 1053.84 -6.53617 -0.192223 0
M  V30 7973 H 1055.32 -8.36622 -0.589963 0
M  V30 7974 H 1053.63 -10.0291 -1.79807 0
M  V30 7975 H 1053.44 -10.2138 0.558219 0
M  V30 7976 H 1051.81 -9.6579 0.0444202 0
M  V30 7977 H 1054.45 -5.69556 -2.79637 0
M  V30 7978 P 1056.3 -8.4349 -2.47671 0
M  V30 7979 O 1057.73 -8.92593 -2.65 0
M  V30 7980 O 1055.94 -7.7568 -1.19296 0
M  V30 7981 O 1055.98 -7.36886 -3.63805 0
M  V30 7982 C 1055.82 -7.95349 -4.982 0
M  V30 7983 C 1056.36 -6.94612 -5.98974 0
M  V30 7984 O 1055.31 -6.10347 -6.11815 0
M  V30 7985 C 1057.58 -6.11426 -5.62335 0
M  V30 7986 O 1058.32 -5.6162 -6.70584 0
M  V30 7987 C 1056.91 -5.04409 -4.73308 0
M  V30 7988 O 1057.71 -3.85992 -4.75183 0
M  V30 7989 C 1055.57 -4.8728 -5.41006 0
M  V30 7990 H 1055.61 -4.02333 -6.11157 0
M  V30 7991 H 1056.79 -5.39466 -3.69543 0
M  V30 7992 H 1058.27 -6.71916 -5.01943 0
M  V30 7993 H 1056.58 -7.4649 -6.93477 0
M  V30 7994 H 1056.39 -8.89416 -5.05237 0
M  V30 7995 H 1054.76 -8.14876 -5.18409 0
M  V30 7996 H 1057.4 -3.27957 -5.4317 0
M  V30 7997 P 1059.25 -5.75688 -6.64379 0
M  V30 7998 O 1060.68 -6.07627 -7.05504 0
M  V30 7999 O 1058.89 -5.88047 -5.19722 0
M  V30 8000 O 1058.93 -4.2322 -7.04443 0
M  V30 8001 C 1058.77 -3.99743 -8.4911 0
M  V30 8002 C 1059.31 -2.60516 -8.79425 0
M  V30 8003 O 1058.26 -1.82684 -8.4467 0
M  V30 8004 C 1060.53 -2.10343 -8.03628 0
M  V30 8005 O 1061.27 -1.09919 -8.67766 0
M  V30 8006 C 1059.86 -1.68446 -6.70876 0
M  V30 8007 O 1060.66 -0.678137 -6.08433 0
M  V30 8008 C 1058.52 -1.17436 -7.18567 0
M  V30 8009 H 1058.56 -0.0804732 -7.31656 0
M  V30 8010 H 1059.74 -2.54037 -6.02537 0
M  V30 8011 H 1061.22 -2.93881 -7.85526 0
M  V30 8012 H 1059.53 -2.53065 -9.86973 0
M  V30 8013 H 1059.34 -4.75072 -9.05887 0
M  V30 8014 H 1057.71 -4.05244 -8.76668 0
M  V30 8015 H 1060.35 0.177647 -6.34251 0
M  V30 8016 P 1062.21 -1.25109 -8.70152 0
M  V30 8017 O 1063.63 -1.29744 -9.22016 0
M  V30 8018 O 1061.85 -2.13714 -7.55141 0
M  V30 8019 O 1061.88 0.248149 -8.21425 0
M  V30 8020 C 1061.72 1.22779 -9.30434 0
M  V30 8021 C 1062.26 2.56293 -8.80664 0
M  V30 8022 O 1061.21 3.02979 -8.09349 0
M  V30 8023 C 1063.48 2.57523 -7.89775 0
M  V30 8024 O 1064.22 3.7668 -7.89438 0
M  V30 8025 C 1062.81 2.20997 -6.55446 0
M  V30 8026 O 1063.61 2.71895 -5.48509 0
M  V30 8027 C 1061.47 2.89693 -6.67988 0
M  V30 8028 H 1061.51 3.88793 -6.19859 0
M  V30 8029 H 1062.69 1.12046 -6.44229 0
M  V30 8030 H 1064.17 1.7746 -8.19711 0
M  V30 8031 H 1062.48 3.20706 -9.67112 0
M  V30 8032 H 1062.29 0.901032 -10.1892 0
M  V30 8033 H 1060.66 1.33049 -9.56592 0
M  V30 8034 H 1063.3 3.57847 -5.23962 0
M  V30 8035 P 1065.16 3.65191 -7.99657 0
M  V30 8036 O 1066.58 3.89416 -8.45976 0
M  V30 8037 O 1064.8 2.28472 -7.50807 0
M  V30 8038 O 1064.83 4.64972 -6.77611 0
M  V30 8039 C 1064.67 6.06319 -7.16352 0
M  V30 8040 C 1065.21 6.91655 -6.02234 0
M  V30 8041 O 1064.16 6.92449 -5.17064 0
M  V30 8042 C 1066.43 6.43627 -5.25174 0
M  V30 8043 O 1067.17 7.43686 -4.60469 0
M  V30 8044 C 1065.76 5.40275 -4.31916 0
M  V30 8045 O 1066.56 5.25193 -3.14386 0
M  V30 8046 C 1064.42 6.04847 -4.05327 0
M  V30 8047 N 1063.38 5.04166 -3.98114 0
M  V30 8048 C 1063.44 3.96049 -4.75587 0
M  V30 8049 N 1062.4 3.15559 -4.54006 0
M  V30 8050 C 1061.66 3.78802 -3.62491 0
M  V30 8051 C 1060.36 3.476 -3.10071 0
M  V30 8052 O 1059.63 2.51136 -3.37021 0
M  V30 8053 N 1059.93 4.39088 -2.19956 0
M  V30 8054 C 1060.68 5.53215 -1.81733 0
M  V30 8055 N 1060.08 6.31963 -0.860928 0
M  V30 8056 N 1061.83 5.86688 -2.32562 0
M  V30 8057 C 1062.29 4.97525 -3.23407 0
M  V30 8058 H 1064.46 6.62195 -3.11261 0
M  V30 8059 H 1065.64 4.42488 -4.8131 0
M  V30 8060 H 1067.12 5.93051 -5.9305 0
M  V30 8061 H 1065.43 7.92655 -6.402 0
M  V30 8062 H 1065.24 6.26671 -8.0846 0
M  V30 8063 H 1063.61 6.29101 -7.32804 0
M  V30 8064 H 1059.03 4.25523 -1.77604 0
M  V30 8065 H 1064.24 3.75576 -5.47333 0
M  V30 8066 H 1059.17 6.04684 -0.468946 0
M  V30 8067 H 1060.55 7.18054 -0.542422 0
M  V30 8068 H 1066.25 5.84223 -2.47279 0
M  V30 8069 P 1068.11 7.39546 -4.75277 0
M  V30 8070 O 1069.53 7.84798 -5.01039 0
M  V30 8071 O 1067.75 5.9812 -5.08098 0
M  V30 8072 O 1067.78 7.57503 -3.1866 0
M  V30 8073 C 1067.62 8.97357 -2.74833 0
M  V30 8074 C 1068.16 9.07548 -1.32709 0
M  V30 8075 O 1067.11 8.62072 -0.606159 0
M  V30 8076 C 1069.38 8.25383 -0.938334 0
M  V30 8077 O 1070.12 8.74577 0.146954 0
M  V30 8078 C 1068.71 6.8802 -0.712559 0
M  V30 8079 O 1069.51 6.1189 0.194655 0
M  V30 8080 C 1067.38 7.27966 -0.139777 0
M  V30 8081 H 1067.41 7.25354 0.961601 0
M  V30 8082 H 1068.59 6.32557 -1.65702 0
M  V30 8083 H 1070.07 8.19355 -1.79097 0
M  V30 8084 H 1068.38 10.1294 -1.10029 0
M  V30 8085 H 1068.19 9.64276 -3.41316 0
M  V30 8086 H 1066.56 9.25417 -2.76357 0
M  V30 8087 H 1069.2 6.25267 1.07847 0
M  V30 8088 P 1071.06 8.791 8.48649e-12 0
M  V30 8089 O 1072.46 9.36698 -0.018734 0
M  V30 8090 O 1070.68 7.82499 -1.07878 0
M  V30 8091 O 1070.73 8.09434 1.41446 0
M  V30 8092 C 1070.57 9.0349 2.53943 0
M  V30 8093 C 1071.11 8.35135 3.78975 0
M  V30 8094 O 1070.06 7.57904 4.1503 0
M  V30 8095 C 1072.33 7.45087 3.67298 0
M  V30 8096 O 1073.07 7.27796 4.85194 0
M  V30 8097 C 1071.66 6.17323 3.12027 0
M  V30 8098 O 1072.46 5.04149 3.47132 0
M  V30 8099 C 1070.33 6.19961 3.81809 0
M  V30 8100 N 1069.28 5.71575 2.93223 0
M  V30 8101 C 1068.25 4.99452 3.47592 0
M  V30 8102 O 1068.29 4.7199 4.69732 0
M  V30 8103 N 1067.24 4.58505 2.6803 0
M  V30 8104 C 1067.28 4.85544 1.36995 0
M  V30 8105 N 1066.27 4.45052 0.609031 0
M  V30 8106 C 1068.38 5.55532 0.788532 0
M  V30 8107 C 1069.35 5.97426 1.60849 0
M  V30 8108 H 1070.36 5.58142 4.72986 0
M  V30 8109 H 1071.54 6.21428 2.0318 0
M  V30 8110 H 1073.02 7.85913 2.93131 0
M  V30 8111 H 1071.33 9.11171 4.55987 0
M  V30 8112 H 1071.14 9.9573 2.34194 0
M  V30 8113 H 1069.51 9.27824 2.67805 0
M  V30 8114 H 1068.43 5.7421 -0.281588 0
M  V30 8115 H 1070.19 6.53132 1.202 0
M  V30 8116 H 1065.48 3.94123 1.03159 0
M  V30 8117 H 1066.28 4.64377 -0.400352 0
M  V30 8118 H 1072.25 4.76386 4.34983 0
M  V30 8119 P 1074.01 7.39546 4.75277 0
M  V30 8120 O 1075.43 7.81777 5.05738 0
M  V30 8121 O 1073.65 7.1065 3.32998 0
M  V30 8122 O 1073.68 6.04542 5.56673 0
M  V30 8123 C 1073.52 6.22772 7.02095 0
M  V30 8124 C 1074.06 4.97725 7.70406 0
M  V30 8125 O 1073.01 4.13256 7.58987 0
M  V30 8126 C 1075.28 4.28231 7.11815 0
M  V30 8127 O 1076.02 3.49945 8.01648 0
M  V30 8128 C 1074.61 3.5063 5.96244 0
M  V30 8129 O 1075.41 2.36482 5.64681 0
M  V30 8130 C 1073.28 3.15122 6.56374 0
M  V30 8131 H 1073.31 2.13853 6.99751 0
M  V30 8132 H 1074.49 4.13501 5.06559 0
M  V30 8133 H 1075.98 5.03285 6.70911 0
M  V30 8134 H 1074.28 5.20877 8.75697 0
M  V30 8135 H 1074.09 7.11046 7.35349 0
M  V30 8136 H 1072.46 6.35815 7.26986 0
M  V30 8137 H 1075.1 1.61644 6.13565 0
M  V30 8138 P 1076.96 3.65191 7.99657 0
M  V30 8139 O 1078.38 3.8425 8.48115 0
M  V30 8140 O 1076.6 4.17805 6.64342 0
M  V30 8141 O 1076.64 2.07613 7.95143 0
M  V30 8142 C 1076.48 1.44328 9.27336 0
M  V30 8143 C 1077.02 0.0220036 9.17197 0
M  V30 8144 O 1075.96 -0.626867 8.61923 0
M  V30 8145 C 1078.23 -0.24586 8.30336 0
M  V30 8146 O 1078.97 -1.39011 8.63583 0
M  V30 8147 C 1077.56 -0.273849 6.91158 0
M  V30 8148 O 1078.36 -1.06348 6.02892 0
M  V30 8149 C 1076.23 -0.897649 7.22545 0
M  V30 8150 H 1076.26 -1.9841 7.04286 0
M  V30 8151 H 1077.44 0.739928 6.497 0
M  V30 8152 H 1078.93 0.60668 8.36503 0
M  V30 8153 H 1077.23 -0.352479 10.1829 0
M  V30 8154 H 1077.04 2.00611 10.0304 0
M  V30 8155 H 1075.41 1.41843 9.55327 0
M  V30 8156 H 1078.05 -1.95734 6.03555 0
M  V30 8157 P 1079.91 -1.25109 8.70152 0
M  V30 8158 O 1081.33 -1.35274 9.21221 0
M  V30 8159 O 1079.55 -0.0769065 7.84762 0
M  V30 8160 O 1079.59 -2.55232 7.81161 0
M  V30 8161 C 1079.43 -3.79939 8.58154 0
M  V30 8162 C 1079.97 -4.94023 7.72785 0
M  V30 8163 O 1078.91 -5.18726 6.91205 0
M  V30 8164 C 1081.18 -4.69597 6.85231 0
M  V30 8165 O 1081.92 -5.83832 6.51337 0
M  V30 8166 C 1080.51 -3.96706 5.66633 0
M  V30 8167 O 1081.31 -4.15414 4.49689 0
M  V30 8168 C 1079.18 -4.66153 5.59313 0
M  V30 8169 H 1079.21 -5.47679 4.85214 0
M  V30 8170 H 1080.39 -2.89008 5.86566 0
M  V30 8171 H 1081.88 -4.0121 7.36511 0
M  V30 8172 H 1080.18 -5.80182 8.37584 0
M  V30 8173 H 1079.99 -3.73517 9.52265 0
M  V30 8174 H 1078.36 -3.97163 8.80359 0
M  V30 8175 H 1081 -4.90969 4.01921 0
M  V30 8176 P 1082.86 -5.75688 6.64379 0
M  V30 8177 O 1084.28 -6.11849 7.01846 0
M  V30 8178 O 1082.5 -4.30744 6.56026 0
M  V30 8179 O 1082.54 -6.37042 5.19165 0
M  V30 8180 C 1082.38 -7.83578 5.16515 0
M  V30 8181 C 1082.92 -8.33398 3.83019 0
M  V30 8182 O 1081.86 -8.10074 3.01034 0
M  V30 8183 C 1084.13 -7.65514 3.2257 0
M  V30 8184 O 1084.87 -8.4329 2.32297 0
M  V30 8185 C 1083.47 -6.40075 2.62207 0
M  V30 8186 O 1084.26 -5.92589 1.53712 0
M  V30 8187 C 1082.13 -6.9454 2.18503 0
M  V30 8188 H 1082.16 -7.23063 1.12091 0
M  V30 8189 H 1083.34 -5.6025 3.37201 0
M  V30 8190 H 1084.83 -7.35707 4.02681 0
M  V30 8191 H 1083.13 -9.40912 3.9095 0
M  V30 8192 H 1082.94 -8.29056 5.99158 0
M  V30 8193 H 1081.31 -8.10073 5.25882 0
M  V30 8194 H 1083.95 -6.30324 0.726794 0
M  V30 8195 P 1085.81 -8.4349 2.47671 0
M  V30 8196 O 1087.23 -8.94167 2.5964 0
M  V30 8197 O 1085.45 -7.1704 3.19006 0
M  V30 8198 O 1085.49 -8.16596 0.923387 0
M  V30 8199 C 1085.33 -9.38437 0.108857 0
M  V30 8200 C 1085.87 -9.08175 -1.28353 0
M  V30 8201 O 1084.81 -8.44229 -1.84713 0
M  V30 8202 C 1087.08 -8.18386 -1.42505 0
M  V30 8203 O 1087.82 -8.3501 -2.60497 0
M  V30 8204 C 1086.42 -6.80225 -1.25468 0
M  V30 8205 O 1087.21 -5.81621 -1.91066 0
M  V30 8206 C 1085.08 -7.02416 -1.9168 0
M  V30 8207 H 1085.11 -6.6888 -2.96621 0
M  V30 8208 H 1086.29 -6.53617 -0.192223 0
M  V30 8209 H 1087.78 -8.36622 -0.589963 0
M  V30 8210 H 1086.08 -10.0291 -1.79807 0
M  V30 8211 H 1085.89 -10.2138 0.558219 0
M  V30 8212 H 1084.26 -9.6579 0.0444202 0
M  V30 8213 H 1086.9 -5.69556 -2.79637 0
M  V30 8214 P 1088.76 -8.4349 -2.47671 0
M  V30 8215 O 1090.18 -8.92593 -2.65 0
M  V30 8216 O 1088.4 -7.7568 -1.19296 0
M  V30 8217 O 1088.44 -7.36886 -3.63805 0
M  V30 8218 C 1088.28 -7.95349 -4.982 0
M  V30 8219 C 1088.82 -6.94612 -5.98974 0
M  V30 8220 O 1087.76 -6.10347 -6.11815 0
M  V30 8221 C 1090.04 -6.11426 -5.62335 0
M  V30 8222 O 1090.77 -5.6162 -6.70584 0
M  V30 8223 C 1089.37 -5.04409 -4.73308 0
M  V30 8224 O 1090.17 -3.85992 -4.75183 0
M  V30 8225 C 1088.03 -4.8728 -5.41006 0
M  V30 8226 H 1088.06 -4.02333 -6.11157 0
M  V30 8227 H 1089.24 -5.39466 -3.69543 0
M  V30 8228 H 1090.73 -6.71916 -5.01943 0
M  V30 8229 H 1089.03 -7.4649 -6.93477 0
M  V30 8230 H 1088.84 -8.89416 -5.05237 0
M  V30 8231 H 1087.21 -8.14876 -5.18409 0
M  V30 8232 H 1089.85 -3.27957 -5.4317 0
M  V30 8233 P 1091.71 -5.75688 -6.64379 0
M  V30 8234 O 1093.13 -6.07627 -7.05504 0
M  V30 8235 O 1091.35 -5.88047 -5.19722 0
M  V30 8236 O 1091.39 -4.2322 -7.04443 0
M  V30 8237 C 1091.23 -3.99743 -8.4911 0
M  V30 8238 C 1091.77 -2.60516 -8.79425 0
M  V30 8239 O 1090.71 -1.82684 -8.4467 0
M  V30 8240 C 1092.99 -2.10343 -8.03628 0
M  V30 8241 O 1093.72 -1.09919 -8.67766 0
M  V30 8242 C 1092.32 -1.68446 -6.70876 0
M  V30 8243 O 1093.12 -0.678137 -6.08433 0
M  V30 8244 C 1090.98 -1.17436 -7.18567 0
M  V30 8245 H 1091.01 -0.0804732 -7.31656 0
M  V30 8246 H 1092.19 -2.54037 -6.02537 0
M  V30 8247 H 1093.68 -2.93881 -7.85526 0
M  V30 8248 H 1091.98 -2.53065 -9.86973 0
M  V30 8249 H 1091.79 -4.75072 -9.05887 0
M  V30 8250 H 1090.16 -4.05244 -8.76668 0
M  V30 8251 H 1092.8 0.177647 -6.34251 0
M  V30 8252 P 1094.66 -1.25109 -8.70152 0
M  V30 8253 O 1096.08 -1.29744 -9.22016 0
M  V30 8254 O 1094.3 -2.13714 -7.55141 0
M  V30 8255 O 1094.34 0.248149 -8.21425 0
M  V30 8256 C 1094.18 1.22779 -9.30434 0
M  V30 8257 C 1094.72 2.56293 -8.80664 0
M  V30 8258 O 1093.66 3.02979 -8.09349 0
M  V30 8259 C 1095.94 2.57523 -7.89775 0
M  V30 8260 O 1096.67 3.7668 -7.89438 0
M  V30 8261 C 1095.27 2.20997 -6.55446 0
M  V30 8262 O 1096.07 2.71895 -5.48509 0
M  V30 8263 C 1093.93 2.89693 -6.67988 0
M  V30 8264 H 1093.96 3.88793 -6.19859 0
M  V30 8265 H 1095.15 1.12046 -6.44229 0
M  V30 8266 H 1096.63 1.7746 -8.19711 0
M  V30 8267 H 1094.94 3.20706 -9.67112 0
M  V30 8268 H 1094.75 0.901032 -10.1892 0
M  V30 8269 H 1093.12 1.33049 -9.56592 0
M  V30 8270 H 1095.75 3.57847 -5.23962 0
M  V30 8271 P 1097.61 3.65191 -7.99657 0
M  V30 8272 O 1099.03 3.89374 -8.45885 0
M  V30 8273 O 1097.25 2.28472 -7.50807 0
M  V30 8274 O 1097.29 4.64972 -6.77611 0
M  V30 8275 C 1097.13 6.06383 -7.16428 0
M  V30 8276 C 1097.67 6.91731 -6.02299 0
M  V30 8277 O 1096.61 6.92369 -5.17005 0
M  V30 8278 C 1098.89 6.43627 -5.25174 0
M  V30 8279 O 1099.63 7.43686 -4.60469 0
M  V30 8280 C 1098.22 5.40275 -4.31916 0
M  V30 8281 O 1099.02 5.24878 -3.14911 0
M  V30 8282 C 1096.88 6.04847 -4.05327 0
M  V30 8283 N 1095.84 5.04166 -3.98114 0
M  V30 8284 C 1096.01 3.84629 -4.59066 0
M  V30 8285 N 1094.98 3.0363 -4.45343 0
M  V30 8286 C 1094.1 3.76722 -3.68523 0
M  V30 8287 C 1092.83 3.43528 -3.17088 0
M  V30 8288 N 1092.23 2.23665 -3.37397 0
M  V30 8289 N 1092.26 4.44526 -2.44231 0
M  V30 8290 C 1092.87 5.65243 -2.20146 0
M  V30 8291 N 1094.04 6.00221 -2.65453 0
M  V30 8292 C 1094.62 5.00564 -3.39083 0
M  V30 8293 H 1096.91 6.62104 -3.11218 0
M  V30 8294 H 1098.1 4.42969 -4.80867 0
M  V30 8295 H 1099.58 5.92458 -5.93643 0
M  V30 8296 H 1097.89 7.93295 -6.39407 0
M  V30 8297 H 1097.7 6.26671 -8.0846 0
M  V30 8298 H 1096.07 6.29101 -7.32804 0
M  V30 8299 H 1092.33 6.36894 -1.5883 0
M  V30 8300 H 1096.91 3.58193 -5.14248 0
M  V30 8301 H 1091.3 2.05145 -2.97047 0
M  V30 8302 H 1092.7 1.51255 -3.92998 0
M  V30 8303 H 1098.71 5.84223 -2.47279 0
M  V30 8304 P 1100.56 7.39546 -4.75277 0
M  V30 8305 O 1101.98 7.84798 -5.01039 0
M  V30 8306 O 1100.2 5.9812 -5.08098 0
M  V30 8307 O 1100.24 7.57503 -3.1866 0
M  V30 8308 C 1100.08 8.97357 -2.74833 0
M  V30 8309 C 1100.62 9.07548 -1.32709 0
M  V30 8310 O 1099.56 8.62072 -0.606159 0
M  V30 8311 C 1101.84 8.25383 -0.938334 0
M  V30 8312 O 1102.58 8.74577 0.146954 0
M  V30 8313 C 1101.17 6.8802 -0.712559 0
M  V30 8314 O 1101.97 6.1189 0.194655 0
M  V30 8315 C 1099.83 7.27966 -0.139777 0
M  V30 8316 H 1099.86 7.25354 0.961601 0
M  V30 8317 H 1101.05 6.32557 -1.65702 0
M  V30 8318 H 1102.53 8.19355 -1.79097 0
M  V30 8319 H 1100.84 10.1294 -1.10029 0
M  V30 8320 H 1100.65 9.64276 -3.41316 0
M  V30 8321 H 1099.02 9.25417 -2.76357 0
M  V30 8322 H 1101.66 6.25267 1.07847 0
M  V30 8323 P 1103.51 8.791 8.79665e-12 0
M  V30 8324 O 1104.94 9.31096 0.027933 0
M  V30 8325 O 1103.15 7.77869 -1.04071 0
M  V30 8326 O 1103.19 8.09533 1.41463 0
M  V30 8327 C 1103.03 9.0349 2.53943 0
M  V30 8328 C 1103.57 8.35226 3.79016 0
M  V30 8329 O 1102.51 7.57992 4.15078 0
M  V30 8330 C 1104.79 7.45087 3.67298 0
M  V30 8331 O 1105.53 7.27796 4.85194 0
M  V30 8332 C 1104.12 6.17323 3.12027 0
M  V30 8333 O 1104.92 5.04231 3.47188 0
M  V30 8334 C 1102.78 6.19961 3.81809 0
M  V30 8335 H 1102.81 5.58218 4.73051 0
M  V30 8336 H 1104 6.21726 2.02589 0
M  V30 8337 H 1105.48 7.86112 2.9231 0
M  V30 8338 H 1103.79 9.11627 4.55076 0
M  V30 8339 H 1103.6 9.9573 2.34194 0
M  V30 8340 H 1101.97 9.2792 2.67832 0
M  V30 8341 H 1104.61 4.67702 4.28772 0
M  V30 8342 P 1106.46 7.39546 4.75277 0
M  V30 8343 O 1107.89 7.81777 5.05738 0
M  V30 8344 O 1106.1 7.1065 3.32998 0
M  V30 8345 O 1106.14 6.04542 5.56673 0
M  V30 8346 C 1105.98 6.22772 7.02095 0
M  V30 8347 C 1106.52 4.97725 7.70406 0
M  V30 8348 O 1105.46 4.13256 7.58987 0
M  V30 8349 C 1107.74 4.28231 7.11815 0
M  V30 8350 O 1108.48 3.49945 8.01648 0
M  V30 8351 C 1107.07 3.5063 5.96244 0
M  V30 8352 O 1107.87 2.36482 5.64681 0
M  V30 8353 C 1105.73 3.15122 6.56374 0
M  V30 8354 H 1105.76 2.13853 6.99751 0
M  V30 8355 H 1106.95 4.13501 5.06559 0
M  V30 8356 H 1108.43 5.03285 6.70911 0
M  V30 8357 H 1106.74 5.20877 8.75697 0
M  V30 8358 H 1106.55 7.11046 7.35349 0
M  V30 8359 H 1104.92 6.35815 7.26986 0
M  V30 8360 H 1107.56 1.61644 6.13565 0
M  V30 8361 P 1109.41 3.65191 7.99657 0
M  V30 8362 O 1110.84 3.8425 8.48115 0
M  V30 8363 O 1109.05 4.17805 6.64342 0
M  V30 8364 O 1109.09 2.07613 7.95143 0
M  V30 8365 C 1108.93 1.44328 9.27336 0
M  V30 8366 C 1109.47 0.0220036 9.17197 0
M  V30 8367 O 1108.42 -0.626867 8.61923 0
M  V30 8368 C 1110.69 -0.24586 8.30336 0
M  V30 8369 O 1111.43 -1.39011 8.63583 0
M  V30 8370 C 1110.02 -0.273849 6.91158 0
M  V30 8371 O 1110.82 -1.06348 6.02892 0
M  V30 8372 C 1108.68 -0.897649 7.22545 0
M  V30 8373 H 1108.72 -1.9841 7.04286 0
M  V30 8374 H 1109.9 0.739928 6.497 0
M  V30 8375 H 1111.38 0.60668 8.36503 0
M  V30 8376 H 1109.69 -0.352479 10.1829 0
M  V30 8377 H 1109.5 2.00611 10.0304 0
M  V30 8378 H 1107.87 1.41843 9.55327 0
M  V30 8379 H 1110.51 -1.95734 6.03555 0
M  V30 8380 P 1112.36 -1.25109 8.70152 0
M  V30 8381 O 1113.79 -1.35274 9.21221 0
M  V30 8382 O 1112 -0.0769065 7.84762 0
M  V30 8383 O 1112.04 -2.55232 7.81161 0
M  V30 8384 C 1111.88 -3.79939 8.58154 0
M  V30 8385 C 1112.42 -4.94023 7.72785 0
M  V30 8386 O 1111.37 -5.18726 6.91205 0
M  V30 8387 C 1113.64 -4.69597 6.85231 0
M  V30 8388 O 1114.38 -5.83832 6.51337 0
M  V30 8389 C 1112.97 -3.96706 5.66633 0
M  V30 8390 O 1113.77 -4.15414 4.49689 0
M  V30 8391 C 1111.63 -4.66153 5.59313 0
M  V30 8392 H 1111.67 -5.47679 4.85214 0
M  V30 8393 H 1112.85 -2.89008 5.86566 0
M  V30 8394 H 1114.33 -4.0121 7.36511 0
M  V30 8395 H 1112.64 -5.80182 8.37584 0
M  V30 8396 H 1112.45 -3.73517 9.52265 0
M  V30 8397 H 1110.82 -3.97163 8.80359 0
M  V30 8398 H 1113.46 -4.90969 4.01921 0
M  V30 8399 P 1115.32 -5.75688 6.64379 0
M  V30 8400 O 1116.74 -6.11915 7.01921 0
M  V30 8401 O 1114.96 -4.30744 6.56026 0
M  V30 8402 O 1114.99 -6.37042 5.19165 0
M  V30 8403 C 1114.83 -7.83662 5.1657 0
M  V30 8404 C 1115.37 -8.33398 3.83019 0
M  V30 8405 O 1114.32 -8.0998 3.00999 0
M  V30 8406 C 1116.59 -7.65514 3.2257 0
M  V30 8407 O 1117.33 -8.4329 2.32297 0
M  V30 8408 C 1115.92 -6.40075 2.62207 0
M  V30 8409 O 1116.72 -5.92338 1.5428 0
M  V30 8410 C 1114.58 -6.9454 2.18503 0
M  V30 8411 N 1113.54 -5.95905 2.39948 0
M  V30 8412 C 1113.71 -4.98383 3.32108 0
M  V30 8413 N 1112.68 -4.16798 3.41761 0
M  V30 8414 C 1111.8 -4.65287 2.47461 0
M  V30 8415 C 1110.53 -4.18946 2.07461 0
M  V30 8416 N 1109.93 -3.09661 2.60717 0
M  V30 8417 N 1109.97 -4.95327 1.09101 0
M  V30 8418 C 1110.57 -6.04369 0.519812 0
M  V30 8419 N 1111.75 -6.50694 0.855982 0
M  V30 8420 C 1112.32 -5.75818 1.84322 0
M  V30 8421 H 1114.62 -7.22964 1.12076 0
M  V30 8422 H 1115.8 -5.60502 3.36589 0
M  V30 8423 H 1117.28 -7.35707 4.02681 0
M  V30 8424 H 1115.59 -9.41302 3.90009 0
M  V30 8425 H 1115.4 -8.29056 5.99158 0
M  V30 8426 H 1113.77 -8.10073 5.25882 0
M  V30 8427 H 1110.03 -6.55843 -0.270373 0
M  V30 8428 H 1114.61 -4.88564 3.92502 0
M  V30 8429 H 1109 -2.80523 2.27218 0
M  V30 8430 H 1110.41 -2.55848 3.34465 0
M  V30 8431 H 1116.41 -6.30224 0.72668 0
M  V30 8432 P 1118.27 -8.4349 2.47671 0
M  V30 8433 O 1119.69 -8.94167 2.5964 0
M  V30 8434 O 1117.91 -7.1704 3.19006 0
M  V30 8435 O 1117.94 -8.16596 0.923387 0
M  V30 8436 C 1117.78 -9.38437 0.108857 0
M  V30 8437 C 1118.32 -9.08175 -1.28353 0
M  V30 8438 O 1117.27 -8.44229 -1.84713 0
M  V30 8439 C 1119.54 -8.18386 -1.42505 0
M  V30 8440 O 1120.28 -8.3501 -2.60497 0
M  V30 8441 C 1118.87 -6.80225 -1.25468 0
M  V30 8442 O 1119.67 -5.81621 -1.91066 0
M  V30 8443 C 1117.54 -7.02416 -1.9168 0
M  V30 8444 H 1117.57 -6.6888 -2.96621 0
M  V30 8445 H 1118.75 -6.53617 -0.192223 0
M  V30 8446 H 1120.23 -8.36622 -0.589963 0
M  V30 8447 H 1118.54 -10.0291 -1.79807 0
M  V30 8448 H 1118.35 -10.2138 0.558219 0
M  V30 8449 H 1116.72 -9.6579 0.0444202 0
M  V30 8450 H 1119.36 -5.69556 -2.79637 0
M  V30 8451 P 1121.22 -8.4349 -2.47671 0
M  V30 8452 O 1122.64 -8.92593 -2.65 0
M  V30 8453 O 1120.86 -7.7568 -1.19296 0
M  V30 8454 O 1120.89 -7.36886 -3.63805 0
M  V30 8455 C 1120.73 -7.95349 -4.982 0
M  V30 8456 C 1121.27 -6.94612 -5.98974 0
M  V30 8457 O 1120.22 -6.10347 -6.11815 0
M  V30 8458 C 1122.49 -6.11426 -5.62335 0
M  V30 8459 O 1123.23 -5.6162 -6.70584 0
M  V30 8460 C 1121.82 -5.04409 -4.73308 0
M  V30 8461 O 1122.62 -3.85992 -4.75183 0
M  V30 8462 C 1120.49 -4.8728 -5.41006 0
M  V30 8463 H 1120.52 -4.02333 -6.11157 0
M  V30 8464 H 1121.7 -5.39466 -3.69543 0
M  V30 8465 H 1123.18 -6.71916 -5.01943 0
M  V30 8466 H 1121.49 -7.4649 -6.93477 0
M  V30 8467 H 1121.3 -8.89416 -5.05237 0
M  V30 8468 H 1119.67 -8.14876 -5.18409 0
M  V30 8469 H 1122.31 -3.27957 -5.4317 0
M  V30 8470 P 1124.17 -5.75688 -6.64379 0
M  V30 8471 O 1125.59 -6.07627 -7.05504 0
M  V30 8472 O 1123.81 -5.88047 -5.19722 0
M  V30 8473 O 1123.84 -4.2322 -7.04443 0
M  V30 8474 C 1123.68 -3.99743 -8.4911 0
M  V30 8475 C 1124.22 -2.60516 -8.79425 0
M  V30 8476 O 1123.17 -1.82684 -8.4467 0
M  V30 8477 C 1125.44 -2.10343 -8.03628 0
M  V30 8478 O 1126.18 -1.09919 -8.67766 0
M  V30 8479 C 1124.77 -1.68446 -6.70876 0
M  V30 8480 O 1125.57 -0.678137 -6.08433 0
M  V30 8481 C 1123.44 -1.17436 -7.18567 0
M  V30 8482 H 1123.47 -0.0804732 -7.31656 0
M  V30 8483 H 1124.65 -2.54037 -6.02537 0
M  V30 8484 H 1126.14 -2.93881 -7.85526 0
M  V30 8485 H 1124.44 -2.53065 -9.86973 0
M  V30 8486 H 1124.25 -4.75072 -9.05887 0
M  V30 8487 H 1122.62 -4.05244 -8.76668 0
M  V30 8488 H 1125.26 0.177647 -6.34251 0
M  V30 8489 P 1127.12 -1.25109 -8.70152 0
M  V30 8490 O 1128.54 -1.29744 -9.22016 0
M  V30 8491 O 1126.76 -2.13714 -7.55141 0
M  V30 8492 O 1126.79 0.248149 -8.21425 0
M  V30 8493 C 1126.63 1.22779 -9.30434 0
M  V30 8494 C 1127.17 2.56293 -8.80664 0
M  V30 8495 O 1126.12 3.02979 -8.09349 0
M  V30 8496 C 1128.39 2.57523 -7.89775 0
M  V30 8497 O 1129.13 3.7668 -7.89438 0
M  V30 8498 C 1127.72 2.20997 -6.55446 0
M  V30 8499 O 1128.52 2.71895 -5.48509 0
M  V30 8500 C 1126.39 2.89693 -6.67988 0
M  V30 8501 H 1126.42 3.88793 -6.19859 0
M  V30 8502 H 1127.6 1.12046 -6.44229 0
M  V30 8503 H 1129.09 1.7746 -8.19711 0
M  V30 8504 H 1127.39 3.20706 -9.67112 0
M  V30 8505 H 1127.2 0.901032 -10.1892 0
M  V30 8506 H 1125.57 1.33049 -9.56592 0
M  V30 8507 H 1128.21 3.57847 -5.23962 0
M  V30 8508 P 1130.07 3.65191 -7.99657 0
M  V30 8509 O 1131.49 3.89332 -8.45794 0
M  V30 8510 O 1129.71 2.28472 -7.50807 0
M  V30 8511 O 1129.75 4.64972 -6.77611 0
M  V30 8512 C 1129.59 6.06319 -7.16352 0
M  V30 8513 C 1130.13 6.91731 -6.02299 0
M  V30 8514 O 1129.07 6.92449 -5.17064 0
M  V30 8515 C 1131.34 6.43627 -5.25174 0
M  V30 8516 O 1132.08 7.43686 -4.60469 0
M  V30 8517 C 1130.67 5.40275 -4.31916 0
M  V30 8518 O 1131.47 5.25279 -3.14438 0
M  V30 8519 C 1129.34 6.04847 -4.05327 0
M  V30 8520 H 1129.37 6.62195 -3.11261 0
M  V30 8521 H 1130.55 4.42556 -4.81383 0
M  V30 8522 H 1132.04 5.92458 -5.93643 0
M  V30 8523 H 1130.34 7.92655 -6.402 0
M  V30 8524 H 1130.15 6.26671 -8.0846 0
M  V30 8525 H 1128.52 6.29101 -7.32804 0
M  V30 8526 H 1131.16 5.84315 -2.47318 0
M  V30 8527 P 1133.02 7.39546 -4.75277 0
M  V30 8528 O 1134.44 7.84882 -5.01092 0
M  V30 8529 O 1132.66 5.9812 -5.08098 0
M  V30 8530 O 1132.7 7.57503 -3.1866 0
M  V30 8531 C 1132.53 8.97452 -2.74862 0
M  V30 8532 C 1133.08 9.07548 -1.32709 0
M  V30 8533 O 1132.02 8.61972 -0.606089 0
M  V30 8534 C 1134.29 8.25383 -0.938334 0
M  V30 8535 O 1135.03 8.74577 0.146954 0
M  V30 8536 C 1133.63 6.8802 -0.712559 0
M  V30 8537 O 1134.42 6.1181 0.188505 0
M  V30 8538 C 1132.29 7.27966 -0.139777 0
M  V30 8539 N 1131.24 6.39368 -0.623421 0
M  V30 8540 C 1131.41 5.71761 -1.78245 0
M  V30 8541 N 1130.39 4.962 -2.10491 0
M  V30 8542 C 1129.5 5.16158 -1.0635 0
M  V30 8543 C 1128.23 4.60425 -0.810266 0
M  V30 8544 N 1127.64 3.7057 -1.62914 0
M  V30 8545 N 1127.67 5.06 0.348685 0
M  V30 8546 C 1128.27 5.94532 1.20395 0
M  V30 8547 N 1129.45 6.48452 1.01191 0
M  V30 8548 C 1130.02 6.04423 -0.146291 0
M  V30 8549 H 1132.32 7.25255 0.961469 0
M  V30 8550 H 1133.5 6.32625 -1.65044 0
M  V30 8551 H 1134.99 8.19355 -1.79097 0
M  V30 8552 H 1133.29 10.1305 -1.09016 0
M  V30 8553 H 1133.1 9.64276 -3.41316 0
M  V30 8554 H 1131.47 9.25417 -2.76357 0
M  V30 8555 H 1127.74 6.21659 2.10714 0
M  V30 8556 H 1132.31 5.79354 -2.38959 0
M  V30 8557 H 1126.71 3.33174 -1.38982 0
M  V30 8558 H 1128.11 3.39714 -2.48836 0
M  V30 8559 H 1134.11 6.25169 1.0783 0
M  V30 8560 P 1135.97 8.791 9.10682e-12 0
M  V30 8561 O 1137.39 9.31096 0.027933 0
M  V30 8562 O 1135.61 7.77869 -1.04071 0
M  V30 8563 O 1135.65 8.09533 1.41463 0
M  V30 8564 C 1135.49 9.0349 2.53943 0
M  V30 8565 C 1136.03 8.35226 3.79016 0
M  V30 8566 O 1134.97 7.57992 4.15078 0
M  V30 8567 C 1137.24 7.45087 3.67298 0
M  V30 8568 O 1137.98 7.27796 4.85194 0
M  V30 8569 C 1136.58 6.17323 3.12027 0
M  V30 8570 O 1137.37 5.04231 3.47188 0
M  V30 8571 C 1135.24 6.19961 3.81809 0
M  V30 8572 H 1135.27 5.58218 4.73051 0
M  V30 8573 H 1136.45 6.21726 2.02589 0
M  V30 8574 H 1137.94 7.86112 2.9231 0
M  V30 8575 H 1136.24 9.11627 4.55076 0
M  V30 8576 H 1136.05 9.9573 2.34194 0
M  V30 8577 H 1134.42 9.2792 2.67832 0
M  V30 8578 H 1137.06 4.67702 4.28772 0
M  V30 8579 P 1138.92 7.39546 4.75277 0
M  V30 8580 O 1140.34 7.81945 5.05847 0
M  V30 8581 O 1138.56 7.1065 3.32998 0
M  V30 8582 O 1138.6 6.04542 5.56673 0
M  V30 8583 C 1138.44 6.22772 7.02095 0
M  V30 8584 C 1138.98 4.97671 7.70322 0
M  V30 8585 O 1137.92 4.13256 7.58987 0
M  V30 8586 C 1140.2 4.28231 7.11815 0
M  V30 8587 O 1140.93 3.49945 8.01648 0
M  V30 8588 C 1139.53 3.5063 5.96244 0
M  V30 8589 O 1140.33 2.36443 5.64589 0
M  V30 8590 C 1138.19 3.15122 6.56374 0
M  V30 8591 N 1137.15 3.22311 5.55692 0
M  V30 8592 C 1137.21 4.14382 4.59701 0
M  V30 8593 N 1136.16 4.04476 3.76958 0
M  V30 8594 C 1135.43 3.04892 4.26534 0
M  V30 8595 C 1134.12 2.57447 3.88189 0
M  V30 8596 O 1133.39 2.9785 2.96543 0
M  V30 8597 N 1133.69 1.55228 4.65922 0
M  V30 8598 C 1134.44 1.01152 5.73447 0
M  V30 8599 N 1133.85 -0.0472117 6.37783 0
M  V30 8600 N 1135.6 1.467 6.13813 0
M  V30 8601 C 1136.05 2.4931 5.38487 0
M  V30 8602 H 1138.22 2.13853 6.99751 0
M  V30 8603 H 1139.4 4.13438 5.06482 0
M  V30 8604 H 1140.89 5.02614 6.71414 0
M  V30 8605 H 1139.19 5.20877 8.75697 0
M  V30 8606 H 1139 7.11046 7.35349 0
M  V30 8607 H 1137.37 6.35815 7.26986 0
M  V30 8608 H 1132.8 1.15238 4.46468 0
M  V30 8609 H 1138 4.88312 4.49647 0
M  V30 8610 H 1132.93 -0.396382 6.05203 0
M  V30 8611 H 1134.31 -0.484997 7.18465 0
M  V30 8612 H 1140.01 1.61619 6.13468 0
M  V30 8613 P 1141.87 3.65191 7.99657 0
M  V30 8614 O 1143.29 3.8425 8.48115 0
M  V30 8615 O 1141.51 4.17805 6.64342 0
M  V30 8616 O 1141.55 2.07613 7.95143 0
M  V30 8617 C 1141.39 1.44328 9.27336 0
M  V30 8618 C 1141.93 0.0220036 9.17197 0
M  V30 8619 O 1140.87 -0.626867 8.61923 0
M  V30 8620 C 1143.15 -0.24586 8.30336 0
M  V30 8621 O 1143.88 -1.39011 8.63583 0
M  V30 8622 C 1142.48 -0.273849 6.91158 0
M  V30 8623 O 1143.28 -1.06348 6.02892 0
M  V30 8624 C 1141.14 -0.897649 7.22545 0
M  V30 8625 H 1141.17 -1.9841 7.04286 0
M  V30 8626 H 1142.35 0.739928 6.497 0
M  V30 8627 H 1143.84 0.60668 8.36503 0
M  V30 8628 H 1142.14 -0.352479 10.1829 0
M  V30 8629 H 1141.95 2.00611 10.0304 0
M  V30 8630 H 1140.32 1.41843 9.55327 0
M  V30 8631 H 1142.96 -1.95734 6.03555 0
M  V30 8632 P 1144.82 -1.25109 8.70152 0
M  V30 8633 O 1146.24 -1.35303 9.21419 0
M  V30 8634 O 1144.46 -0.0769065 7.84762 0
M  V30 8635 O 1144.5 -2.55232 7.81161 0
M  V30 8636 C 1144.34 -3.79939 8.58154 0
M  V30 8637 C 1144.88 -4.93969 7.72701 0
M  V30 8638 O 1143.82 -5.18726 6.91205 0
M  V30 8639 C 1146.1 -4.69597 6.85231 0
M  V30 8640 O 1146.83 -5.83832 6.51337 0
M  V30 8641 C 1145.43 -3.96706 5.66633 0
M  V30 8642 O 1146.23 -4.15346 4.49615 0
M  V30 8643 C 1144.09 -4.66153 5.59313 0
M  V30 8644 N 1143.05 -3.71582 5.24027 0
M  V30 8645 C 1143.11 -2.46018 5.67902 0
M  V30 8646 N 1142.06 -1.74868 5.24518 0
M  V30 8647 C 1141.33 -2.61333 4.54528 0
M  V30 8648 C 1140.02 -2.46162 3.95441 0
M  V30 8649 O 1139.29 -1.46013 3.94122 0
M  V30 8650 N 1139.59 -3.59334 3.34752 0
M  V30 8651 C 1140.34 -4.79605 3.3023 0
M  V30 8652 N 1139.75 -5.82109 2.6065 0
M  V30 8653 N 1141.5 -4.97402 3.8843 0
M  V30 8654 C 1141.95 -3.86258 4.50476 0
M  V30 8655 H 1144.12 -5.47679 4.85214 0
M  V30 8656 H 1145.31 -2.88964 5.86476 0
M  V30 8657 H 1146.79 -4.01947 7.36109 0
M  V30 8658 H 1145.1 -5.80182 8.37584 0
M  V30 8659 H 1144.91 -3.73517 9.52265 0
M  V30 8660 H 1143.27 -3.97163 8.80359 0
M  V30 8661 H 1138.7 -3.5825 2.90294 0
M  V30 8662 H 1143.91 -2.06161 6.30974 0
M  V30 8663 H 1138.84 -5.66979 2.15354 0
M  V30 8664 H 1140.21 -6.73686 2.54344 0
M  V30 8665 H 1145.92 -4.90891 4.01857 0
M  V30 8666 P 1147.77 -5.75688 6.64379 0
M  V30 8667 O 1149.19 -6.11849 7.01846 0
M  V30 8668 O 1147.41 -4.30744 6.56026 0
M  V30 8669 O 1147.45 -6.37042 5.19165 0
M  V30 8670 C 1147.29 -7.83578 5.16515 0
M  V30 8671 C 1147.83 -8.33398 3.83019 0
M  V30 8672 O 1146.77 -8.10074 3.01034 0
M  V30 8673 C 1149.05 -7.65514 3.2257 0
M  V30 8674 O 1149.78 -8.4329 2.32297 0
M  V30 8675 C 1148.38 -6.40075 2.62207 0
M  V30 8676 O 1149.18 -5.92589 1.53712 0
M  V30 8677 C 1147.04 -6.9454 2.18503 0
M  V30 8678 H 1147.07 -7.23063 1.12091 0
M  V30 8679 H 1148.26 -5.6025 3.37201 0
M  V30 8680 H 1149.74 -7.35707 4.02681 0
M  V30 8681 H 1148.05 -9.40912 3.9095 0
M  V30 8682 H 1147.86 -8.29056 5.99158 0
M  V30 8683 H 1146.23 -8.10073 5.25882 0
M  V30 8684 H 1148.86 -6.30324 0.726794 0
M  V30 8685 P 1150.72 -8.4349 2.47671 0
M  V30 8686 O 1152.14 -8.94167 2.5964 0
M  V30 8687 O 1150.36 -7.1704 3.19006 0
M  V30 8688 O 1150.4 -8.16596 0.923387 0
M  V30 8689 C 1150.24 -9.38437 0.108857 0
M  V30 8690 C 1150.78 -9.08175 -1.28353 0
M  V30 8691 O 1149.72 -8.44229 -1.84713 0
M  V30 8692 C 1152 -8.18386 -1.42505 0
M  V30 8693 O 1152.74 -8.3501 -2.60497 0
M  V30 8694 C 1151.33 -6.80225 -1.25468 0
M  V30 8695 O 1152.13 -5.81621 -1.91066 0
M  V30 8696 C 1149.99 -7.02416 -1.9168 0
M  V30 8697 H 1150.02 -6.6888 -2.96621 0
M  V30 8698 H 1151.21 -6.53617 -0.192223 0
M  V30 8699 H 1152.69 -8.36622 -0.589963 0
M  V30 8700 H 1151 -10.0291 -1.79807 0
M  V30 8701 H 1150.81 -10.2138 0.558219 0
M  V30 8702 H 1149.18 -9.6579 0.0444202 0
M  V30 8703 H 1151.82 -5.69556 -2.79637 0
M  V30 8704 P 1153.67 -8.4349 -2.47671 0
M  V30 8705 O 1155.09 -8.92593 -2.65 0
M  V30 8706 O 1153.31 -7.7568 -1.19296 0
M  V30 8707 O 1153.35 -7.36886 -3.63805 0
M  V30 8708 C 1153.19 -7.95349 -4.982 0
M  V30 8709 C 1153.73 -6.94612 -5.98974 0
M  V30 8710 O 1152.67 -6.10347 -6.11815 0
M  V30 8711 C 1154.95 -6.11426 -5.62335 0
M  V30 8712 O 1155.69 -5.6162 -6.70584 0
M  V30 8713 C 1154.28 -5.04409 -4.73308 0
M  V30 8714 O 1155.08 -3.85992 -4.75183 0
M  V30 8715 C 1152.94 -4.8728 -5.41006 0
M  V30 8716 H 1152.97 -4.02333 -6.11157 0
M  V30 8717 H 1154.16 -5.39466 -3.69543 0
M  V30 8718 H 1155.64 -6.71916 -5.01943 0
M  V30 8719 H 1153.95 -7.4649 -6.93477 0
M  V30 8720 H 1153.76 -8.89416 -5.05237 0
M  V30 8721 H 1152.13 -8.14876 -5.18409 0
M  V30 8722 H 1154.77 -3.27957 -5.4317 0
M  V30 8723 P 1156.62 -5.75688 -6.64379 0
M  V30 8724 O 1158.05 -6.07627 -7.05504 0
M  V30 8725 O 1156.26 -5.88047 -5.19722 0
M  V30 8726 O 1156.3 -4.2322 -7.04443 0
M  V30 8727 C 1156.14 -3.99743 -8.4911 0
M  V30 8728 C 1156.68 -2.60516 -8.79425 0
M  V30 8729 O 1155.62 -1.82684 -8.4467 0
M  V30 8730 C 1157.9 -2.10343 -8.03628 0
M  V30 8731 O 1158.64 -1.09919 -8.67766 0
M  V30 8732 C 1157.23 -1.68446 -6.70876 0
M  V30 8733 O 1158.03 -0.678137 -6.08433 0
M  V30 8734 C 1155.89 -1.17436 -7.18567 0
M  V30 8735 H 1155.92 -0.0804732 -7.31656 0
M  V30 8736 H 1157.11 -2.54037 -6.02537 0
M  V30 8737 H 1158.59 -2.93881 -7.85526 0
M  V30 8738 H 1156.9 -2.53065 -9.86973 0
M  V30 8739 H 1156.71 -4.75072 -9.05887 0
M  V30 8740 H 1155.08 -4.05244 -8.76668 0
M  V30 8741 H 1157.72 0.177647 -6.34251 0
M  V30 8742 P 1159.57 -1.25109 -8.70152 0
M  V30 8743 O 1161 -1.29758 -9.22115 0
M  V30 8744 O 1159.21 -2.13714 -7.55141 0
M  V30 8745 O 1159.25 0.248149 -8.21425 0
M  V30 8746 C 1159.09 1.22792 -9.30533 0
M  V30 8747 C 1159.63 2.56293 -8.80664 0
M  V30 8748 O 1158.58 3.02944 -8.09255 0
M  V30 8749 C 1160.85 2.57523 -7.89775 0
M  V30 8750 O 1161.59 3.7668 -7.89438 0
M  V30 8751 C 1160.18 2.20997 -6.55446 0
M  V30 8752 O 1160.98 2.71302 -5.48691 0
M  V30 8753 C 1158.84 2.89693 -6.67988 0
M  V30 8754 N 1157.8 2.08895 -6.07487 0
M  V30 8755 C 1157.97 0.753809 -5.94137 0
M  V30 8756 N 1156.94 0.146592 -5.38801 0
M  V30 8757 C 1156.06 1.1768 -5.13693 0
M  V30 8758 C 1154.79 1.17563 -4.52477 0
M  V30 8759 N 1154.19 0.057481 -4.04759 0
M  V30 8760 N 1154.23 2.41918 -4.45789 0
M  V30 8761 C 1154.83 3.56493 -4.90792 0
M  V30 8762 N 1156 3.61423 -5.47817 0
M  V30 8763 C 1156.58 2.37779 -5.5588 0
M  V30 8764 H 1158.88 3.8874 -6.19774 0
M  V30 8765 H 1160.06 1.12673 -6.44018 0
M  V30 8766 H 1161.54 1.7746 -8.19711 0
M  V30 8767 H 1159.85 3.21673 -9.66791 0
M  V30 8768 H 1159.66 0.901032 -10.1892 0
M  V30 8769 H 1158.03 1.33049 -9.56592 0
M  V30 8770 H 1154.29 4.49919 -4.77947 0
M  V30 8771 H 1158.87 0.233081 -6.26266 0
M  V30 8772 H 1153.26 0.119831 -3.60801 0
M  V30 8773 H 1154.67 -0.852272 -4.12385 0
M  V30 8774 H 1160.67 3.5779 -5.23879 0
M  V30 8775 P 1162.52 3.65191 -7.99657 0
M  V30 8776 O 1163.95 3.89332 -8.45794 0
M  V30 8777 O 1162.16 2.28472 -7.50807 0
M  V30 8778 O 1162.2 4.64972 -6.77611 0
M  V30 8779 C 1162.04 6.06319 -7.16352 0
M  V30 8780 C 1162.58 6.91731 -6.02299 0
M  V30 8781 O 1161.53 6.92449 -5.17064 0
M  V30 8782 C 1163.8 6.43627 -5.25174 0
M  V30 8783 O 1164.54 7.43686 -4.60469 0
M  V30 8784 C 1163.13 5.40275 -4.31916 0
M  V30 8785 O 1163.93 5.25279 -3.14438 0
M  V30 8786 C 1161.79 6.04847 -4.05327 0
M  V30 8787 H 1161.83 6.62195 -3.11261 0
M  V30 8788 H 1163.01 4.42556 -4.81383 0
M  V30 8789 H 1164.49 5.92458 -5.93643 0
M  V30 8790 H 1162.8 7.92655 -6.402 0
M  V30 8791 H 1162.61 6.26671 -8.0846 0
M  V30 8792 H 1160.98 6.29101 -7.32804 0
M  V30 8793 H 1163.62 5.84315 -2.47318 0
M  V30 8794 P 1165.48 7.39546 -4.75277 0
M  V30 8795 O 1166.9 7.84882 -5.01092 0
M  V30 8796 O 1165.12 5.9812 -5.08098 0
M  V30 8797 O 1165.15 7.57503 -3.1866 0
M  V30 8798 C 1164.99 8.97452 -2.74862 0
M  V30 8799 C 1165.53 9.07548 -1.32709 0
M  V30 8800 O 1164.48 8.61972 -0.606089 0
M  V30 8801 C 1166.75 8.25383 -0.938334 0
M  V30 8802 O 1167.49 8.74577 0.146954 0
M  V30 8803 C 1166.08 6.8802 -0.712559 0
M  V30 8804 O 1166.88 6.1181 0.188505 0
M  V30 8805 C 1164.74 7.27966 -0.139777 0
M  V30 8806 N 1163.7 6.39368 -0.623421 0
M  V30 8807 C 1163.87 5.71761 -1.78245 0
M  V30 8808 N 1162.84 4.962 -2.10491 0
M  V30 8809 C 1161.96 5.16158 -1.0635 0
M  V30 8810 C 1160.69 4.60425 -0.810266 0
M  V30 8811 N 1160.09 3.7057 -1.62914 0
M  V30 8812 N 1160.13 5.06 0.348685 0
M  V30 8813 C 1160.73 5.94532 1.20395 0
M  V30 8814 N 1161.91 6.48452 1.01191 0
M  V30 8815 C 1162.48 6.04423 -0.146291 0
M  V30 8816 H 1164.78 7.25255 0.961469 0
M  V30 8817 H 1165.96 6.32625 -1.65044 0
M  V30 8818 H 1167.44 8.19355 -1.79097 0
M  V30 8819 H 1165.75 10.1305 -1.09016 0
M  V30 8820 H 1165.56 9.64276 -3.41316 0
M  V30 8821 H 1163.93 9.25417 -2.76357 0
M  V30 8822 H 1160.19 6.21659 2.10714 0
M  V30 8823 H 1164.77 5.79354 -2.38959 0
M  V30 8824 H 1159.16 3.33174 -1.38982 0
M  V30 8825 H 1160.57 3.39714 -2.48836 0
M  V30 8826 H 1166.57 6.25169 1.0783 0
M  V30 8827 P 1168.43 8.791 9.41699e-12 0
M  V30 8828 O 1169.85 9.31096 0.027933 0
M  V30 8829 O 1168.07 7.77869 -1.04071 0
M  V30 8830 O 1168.1 8.09533 1.41463 0
M  V30 8831 C 1167.94 9.0349 2.53943 0
M  V30 8832 C 1168.48 8.35226 3.79016 0
M  V30 8833 O 1167.43 7.57992 4.15078 0
M  V30 8834 C 1169.7 7.45087 3.67298 0
M  V30 8835 O 1170.44 7.27796 4.85194 0
M  V30 8836 C 1169.03 6.17323 3.12027 0
M  V30 8837 O 1169.83 5.04231 3.47188 0
M  V30 8838 C 1167.69 6.19961 3.81809 0
M  V30 8839 H 1167.73 5.58218 4.73051 0
M  V30 8840 H 1168.91 6.21726 2.02589 0
M  V30 8841 H 1170.39 7.86112 2.9231 0
M  V30 8842 H 1168.7 9.11627 4.55076 0
M  V30 8843 H 1168.51 9.9573 2.34194 0
M  V30 8844 H 1166.88 9.2792 2.67832 0
M  V30 8845 H 1169.52 4.67702 4.28772 0
M  V30 8846 P 1171.38 7.39546 4.75277 0
M  V30 8847 O 1172.8 7.81945 5.05847 0
M  V30 8848 O 1171.02 7.1065 3.32998 0
M  V30 8849 O 1171.05 6.04542 5.56673 0
M  V30 8850 C 1170.89 6.22772 7.02095 0
M  V30 8851 C 1171.43 4.97671 7.70322 0
M  V30 8852 O 1170.38 4.13256 7.58987 0
M  V30 8853 C 1172.65 4.28231 7.11815 0
M  V30 8854 O 1173.39 3.49945 8.01648 0
M  V30 8855 C 1171.98 3.5063 5.96244 0
M  V30 8856 O 1172.78 2.36443 5.64589 0
M  V30 8857 C 1170.65 3.15122 6.56374 0
M  V30 8858 N 1169.6 3.22311 5.55692 0
M  V30 8859 C 1169.66 4.14382 4.59701 0
M  V30 8860 N 1168.62 4.04476 3.76958 0
M  V30 8861 C 1167.89 3.04892 4.26534 0
M  V30 8862 C 1166.58 2.57447 3.88189 0
M  V30 8863 O 1165.85 2.9785 2.96543 0
M  V30 8864 N 1166.15 1.55228 4.65922 0
M  V30 8865 C 1166.9 1.01152 5.73447 0
M  V30 8866 N 1166.3 -0.0472117 6.37783 0
M  V30 8867 N 1168.05 1.467 6.13813 0
M  V30 8868 C 1168.51 2.4931 5.38487 0
M  V30 8869 H 1170.68 2.13853 6.99751 0
M  V30 8870 H 1171.86 4.13438 5.06482 0
M  V30 8871 H 1173.35 5.02614 6.71414 0
M  V30 8872 H 1171.65 5.20877 8.75697 0
M  V30 8873 H 1171.46 7.11046 7.35349 0
M  V30 8874 H 1169.83 6.35815 7.26986 0
M  V30 8875 H 1165.25 1.15238 4.46468 0
M  V30 8876 H 1170.46 4.88312 4.49647 0
M  V30 8877 H 1165.39 -0.396382 6.05203 0
M  V30 8878 H 1166.77 -0.484997 7.18465 0
M  V30 8879 H 1172.47 1.61619 6.13468 0
M  V30 8880 P 1174.33 3.65191 7.99657 0
M  V30 8881 O 1175.75 3.8425 8.48115 0
M  V30 8882 O 1173.97 4.17805 6.64342 0
M  V30 8883 O 1174 2.07613 7.95143 0
M  V30 8884 C 1173.84 1.44328 9.27336 0
M  V30 8885 C 1174.38 0.0220036 9.17197 0
M  V30 8886 O 1173.33 -0.626867 8.61923 0
M  V30 8887 C 1175.6 -0.24586 8.30336 0
M  V30 8888 O 1176.34 -1.39011 8.63583 0
M  V30 8889 C 1174.93 -0.273849 6.91158 0
M  V30 8890 O 1175.73 -1.06348 6.02892 0
M  V30 8891 C 1173.6 -0.897649 7.22545 0
M  V30 8892 H 1173.63 -1.9841 7.04286 0
M  V30 8893 H 1174.81 0.739928 6.497 0
M  V30 8894 H 1176.29 0.60668 8.36503 0
M  V30 8895 H 1174.6 -0.352479 10.1829 0
M  V30 8896 H 1174.41 2.00611 10.0304 0
M  V30 8897 H 1172.78 1.41843 9.55327 0
M  V30 8898 H 1175.42 -1.95734 6.03555 0
M  V30 8899 P 1177.28 -1.25109 8.70152 0
M  V30 8900 O 1178.7 -1.35274 9.21221 0
M  V30 8901 O 1176.92 -0.0769065 7.84762 0
M  V30 8902 O 1176.95 -2.55232 7.81161 0
M  V30 8903 C 1176.79 -3.79939 8.58154 0
M  V30 8904 C 1177.33 -4.94023 7.72785 0
M  V30 8905 O 1176.28 -5.18726 6.91205 0
M  V30 8906 C 1178.55 -4.69597 6.85231 0
M  V30 8907 O 1179.29 -5.83832 6.51337 0
M  V30 8908 C 1177.88 -3.96706 5.66633 0
M  V30 8909 O 1178.68 -4.15414 4.49689 0
M  V30 8910 C 1176.55 -4.66153 5.59313 0
M  V30 8911 H 1176.58 -5.47679 4.85214 0
M  V30 8912 H 1177.76 -2.89008 5.86566 0
M  V30 8913 H 1179.25 -4.0121 7.36511 0
M  V30 8914 H 1177.55 -5.80182 8.37584 0
M  V30 8915 H 1177.36 -3.73517 9.52265 0
M  V30 8916 H 1175.73 -3.97163 8.80359 0
M  V30 8917 H 1178.37 -4.90969 4.01921 0
M  V30 8918 P 1180.23 -5.75688 6.64379 0
M  V30 8919 O 1181.65 -6.11849 7.01846 0
M  V30 8920 O 1179.87 -4.30744 6.56026 0
M  V30 8921 O 1179.9 -6.37042 5.19165 0
M  V30 8922 C 1179.74 -7.83578 5.16515 0
M  V30 8923 C 1180.28 -8.33398 3.83019 0
M  V30 8924 O 1179.23 -8.10074 3.01034 0
M  V30 8925 C 1181.5 -7.65514 3.2257 0
M  V30 8926 O 1182.24 -8.4329 2.32297 0
M  V30 8927 C 1180.83 -6.40075 2.62207 0
M  V30 8928 O 1181.63 -5.92589 1.53712 0
M  V30 8929 C 1179.5 -6.9454 2.18503 0
M  V30 8930 H 1179.53 -7.23063 1.12091 0
M  V30 8931 H 1180.71 -5.6025 3.37201 0
M  V30 8932 H 1182.2 -7.35707 4.02681 0
M  V30 8933 H 1180.5 -9.40912 3.9095 0
M  V30 8934 H 1180.31 -8.29056 5.99158 0
M  V30 8935 H 1178.68 -8.10073 5.25882 0
M  V30 8936 H 1181.32 -6.30324 0.726794 0
M  V30 8937 P 1183.18 -8.4349 2.47671 0
M  V30 8938 O 1184.58 -8.98227 2.65696 0
M  V30 8939 O 1182.8 -7.20409 3.23964 0
M  V30 8940 O 1182.86 -8.16496 0.923275 0
M  V30 8941 C 1182.7 -9.38437 0.108857 0
M  V30 8942 C 1183.24 -9.08076 -1.28339 0
M  V30 8943 O 1182.18 -8.44131 -1.84692 0
M  V30 8944 C 1184.45 -8.18386 -1.42505 0
M  V30 8945 O 1185.19 -8.3501 -2.60497 0
M  V30 8946 C 1183.79 -6.80225 -1.25468 0
M  V30 8947 O 1184.58 -5.81526 -1.91035 0
M  V30 8948 C 1182.45 -7.02416 -1.9168 0
M  V30 8949 N 1181.4 -6.31033 -1.20314 0
M  V30 8950 C 1180.37 -5.77149 -1.928 0
M  V30 8951 O 1180.41 -5.8521 -3.17729 0
M  V30 8952 N 1179.36 -5.15445 -1.27997 0
M  V30 8953 C 1179.41 -5.04472 0.0534726 0
M  V30 8954 C 1180.5 -5.55244 0.808522 0
M  V30 8955 C 1181.47 -6.18542 0.13981 0
M  V30 8956 H 1182.48 -6.68789 -2.9658 0
M  V30 8957 H 1183.66 -6.53498 -0.198729 0
M  V30 8958 H 1185.15 -8.36663 -0.5984 0
M  V30 8959 H 1183.45 -10.0273 -1.8081 0
M  V30 8960 H 1183.26 -10.2138 0.558219 0
M  V30 8961 H 1181.63 -9.6569 0.0444156 0
M  V30 8962 H 1180.55 -5.43017 1.88792 0
M  V30 8963 H 1182.31 -6.60539 0.686773 0
M  V30 8964 H 1184.37 -5.79638 -2.8315 0
M  V30 8965 P 1186.13 -8.4349 -2.47671 0
M  V30 8966 O 1187.55 -8.92785 -2.65057 0
M  V30 8967 O 1185.77 -7.7568 -1.19296 0
M  V30 8968 O 1185.81 -7.36886 -3.63805 0
M  V30 8969 C 1185.65 -7.95349 -4.982 0
M  V30 8970 C 1186.19 -6.94537 -5.98908 0
M  V30 8971 O 1185.13 -6.10347 -6.11815 0
M  V30 8972 C 1187.4 -6.11426 -5.62335 0
M  V30 8973 O 1188.14 -5.6162 -6.70584 0
M  V30 8974 C 1186.74 -5.04409 -4.73308 0
M  V30 8975 O 1187.53 -3.85929 -4.75106 0
M  V30 8976 C 1185.4 -4.8728 -5.41006 0
M  V30 8977 N 1184.36 -4.65812 -4.42377 0
M  V30 8978 C 1184.42 -5.27109 -3.24335 0
M  V30 8979 N 1183.37 -4.94293 -2.47735 0
M  V30 8980 C 1182.64 -4.1271 -3.23359 0
M  V30 8981 C 1181.33 -3.56384 -2.99934 0
M  V30 8982 O 1180.6 -3.69331 -2.00616 0
M  V30 8983 N 1180.9 -2.80206 -4.03316 0
M  V30 8984 C 1181.65 -2.58614 -5.2172 0
M  V30 8985 N 1181.05 -1.75154 -6.13278 0
M  V30 8986 N 1182.8 -3.13689 -5.47619 0
M  V30 8987 C 1183.26 -3.90921 -4.46436 0
M  V30 8988 H 1185.43 -4.02333 -6.11157 0
M  V30 8989 H 1186.61 -5.39383 -3.69487 0
M  V30 8990 H 1188.1 -6.71414 -5.02615 0
M  V30 8991 H 1186.4 -7.4649 -6.93477 0
M  V30 8992 H 1186.21 -8.89416 -5.05237 0
M  V30 8993 H 1184.58 -8.14876 -5.18409 0
M  V30 8994 H 1180.01 -2.36355 -3.95916 0
M  V30 8995 H 1185.21 -5.95212 -2.93859 0
M  V30 8996 H 1180.14 -1.32473 -5.91856 0
M  V30 8997 H 1181.52 -1.5588 -7.03026 0
M  V30 8998 H 1187.22 -3.27906 -5.43085 0
M  V30 8999 P 1189.08 -5.75688 -6.64379 0
M  V30 9000 O 1190.5 -6.07627 -7.05504 0
M  V30 9001 O 1188.72 -5.88047 -5.19722 0
M  V30 9002 O 1188.76 -4.2322 -7.04443 0
M  V30 9003 C 1188.6 -3.99743 -8.4911 0
M  V30 9004 C 1189.14 -2.60516 -8.79425 0
M  V30 9005 O 1188.08 -1.82684 -8.4467 0
M  V30 9006 C 1190.35 -2.10343 -8.03628 0
M  V30 9007 O 1191.09 -1.09919 -8.67766 0
M  V30 9008 C 1189.69 -1.68446 -6.70876 0
M  V30 9009 O 1190.48 -0.678137 -6.08433 0
M  V30 9010 C 1188.35 -1.17436 -7.18567 0
M  V30 9011 H 1188.38 -0.0804732 -7.31656 0
M  V30 9012 H 1189.56 -2.54037 -6.02537 0
M  V30 9013 H 1191.05 -2.93881 -7.85526 0
M  V30 9014 H 1189.35 -2.53065 -9.86973 0
M  V30 9015 H 1189.16 -4.75072 -9.05887 0
M  V30 9016 H 1187.53 -4.05244 -8.76668 0
M  V30 9017 H 1190.17 0.177647 -6.34251 0
M  V30 9018 P 1192.03 -1.25109 -8.70152 0
M  V30 9019 O 1193.45 -1.29758 -9.22115 0
M  V30 9020 O 1191.67 -2.13714 -7.55141 0
M  V30 9021 O 1191.71 0.248149 -8.21425 0
M  V30 9022 C 1191.55 1.22792 -9.30533 0
M  V30 9023 C 1192.09 2.56293 -8.80664 0
M  V30 9024 O 1191.03 3.02944 -8.09255 0
M  V30 9025 C 1193.31 2.57523 -7.89775 0
M  V30 9026 O 1194.04 3.7668 -7.89438 0
M  V30 9027 C 1192.64 2.20997 -6.55446 0
M  V30 9028 O 1193.44 2.71302 -5.48691 0
M  V30 9029 C 1191.3 2.89693 -6.67988 0
M  V30 9030 N 1190.26 2.08895 -6.07487 0
M  V30 9031 C 1190.43 0.753809 -5.94137 0
M  V30 9032 N 1189.4 0.146592 -5.38801 0
M  V30 9033 C 1188.51 1.1768 -5.13693 0
M  V30 9034 C 1187.25 1.17563 -4.52477 0
M  V30 9035 N 1186.65 0.057481 -4.04759 0
M  V30 9036 N 1186.68 2.41918 -4.45789 0
M  V30 9037 C 1187.28 3.56493 -4.90792 0
M  V30 9038 N 1188.46 3.61423 -5.47817 0
M  V30 9039 C 1189.04 2.37779 -5.5588 0
M  V30 9040 H 1191.33 3.8874 -6.19774 0
M  V30 9041 H 1192.51 1.12673 -6.44018 0
M  V30 9042 H 1194 1.7746 -8.19711 0
M  V30 9043 H 1192.3 3.21673 -9.66791 0
M  V30 9044 H 1192.11 0.901032 -10.1892 0
M  V30 9045 H 1190.48 1.33049 -9.56592 0
M  V30 9046 H 1186.75 4.49919 -4.77947 0
M  V30 9047 H 1191.33 0.233081 -6.26266 0
M  V30 9048 H 1185.72 0.119831 -3.60801 0
M  V30 9049 H 1187.12 -0.852272 -4.12385 0
M  V30 9050 H 1193.12 3.5779 -5.23879 0
M  V30 9051 P 1194.98 3.65191 -7.99657 0
M  V30 9052 O 1196.4 3.89332 -8.45794 0
M  V30 9053 O 1194.62 2.28472 -7.50807 0
M  V30 9054 O 1194.66 4.64972 -6.77611 0
M  V30 9055 C 1194.5 6.06319 -7.16352 0
M  V30 9056 C 1195.04 6.91731 -6.02299 0
M  V30 9057 O 1193.98 6.92449 -5.17064 0
M  V30 9058 C 1196.26 6.43627 -5.25174 0
M  V30 9059 O 1196.99 7.43686 -4.60469 0
M  V30 9060 C 1195.59 5.40275 -4.31916 0
M  V30 9061 O 1196.39 5.25279 -3.14438 0
M  V30 9062 C 1194.25 6.04847 -4.05327 0
M  V30 9063 H 1194.28 6.62195 -3.11261 0
M  V30 9064 H 1195.46 4.42556 -4.81383 0
M  V30 9065 H 1196.95 5.92458 -5.93643 0
M  V30 9066 H 1195.25 7.92655 -6.402 0
M  V30 9067 H 1195.06 6.26671 -8.0846 0
M  V30 9068 H 1193.43 6.29101 -7.32804 0
M  V30 9069 H 1196.07 5.84315 -2.47318 0
M  V30 9070 P 1197.93 7.39546 -4.75277 0
M  V30 9071 O 1199.35 7.84798 -5.01039 0
M  V30 9072 O 1197.57 5.9812 -5.08098 0
M  V30 9073 O 1197.61 7.57503 -3.1866 0
M  V30 9074 C 1197.45 8.97357 -2.74833 0
M  V30 9075 C 1197.99 9.07548 -1.32709 0
M  V30 9076 O 1196.93 8.62072 -0.606159 0
M  V30 9077 C 1199.21 8.25383 -0.938334 0
M  V30 9078 O 1199.94 8.74577 0.146954 0
M  V30 9079 C 1198.54 6.8802 -0.712559 0
M  V30 9080 O 1199.34 6.1189 0.194655 0
M  V30 9081 C 1197.2 7.27966 -0.139777 0
M  V30 9082 H 1197.23 7.25354 0.961601 0
M  V30 9083 H 1198.42 6.32557 -1.65702 0
M  V30 9084 H 1199.9 8.19355 -1.79097 0
M  V30 9085 H 1198.21 10.1294 -1.10029 0
M  V30 9086 H 1198.02 9.64276 -3.41316 0
M  V30 9087 H 1196.39 9.25417 -2.76357 0
M  V30 9088 H 1199.02 6.25267 1.07847 0
M  V30 9089 P 1200.88 8.791 9.72715e-12 0
M  V30 9090 O 1202.3 9.31096 0.027933 0
M  V30 9091 O 1200.52 7.77869 -1.04071 0
M  V30 9092 O 1200.56 8.09533 1.41463 0
M  V30 9093 C 1200.4 9.0349 2.53943 0
M  V30 9094 C 1200.94 8.35226 3.79016 0
M  V30 9095 O 1199.88 7.57992 4.15078 0
M  V30 9096 C 1202.16 7.45087 3.67298 0
M  V30 9097 O 1202.89 7.27796 4.85194 0
M  V30 9098 C 1201.49 6.17323 3.12027 0
M  V30 9099 O 1202.29 5.04231 3.47188 0
M  V30 9100 C 1200.15 6.19961 3.81809 0
M  V30 9101 H 1200.18 5.58218 4.73051 0
M  V30 9102 H 1201.37 6.21726 2.02589 0
M  V30 9103 H 1202.85 7.86112 2.9231 0
M  V30 9104 H 1201.16 9.11627 4.55076 0
M  V30 9105 H 1200.97 9.9573 2.34194 0
M  V30 9106 H 1199.34 9.2792 2.67832 0
M  V30 9107 H 1201.97 4.67702 4.28772 0
M  V30 9108 P 1203.83 7.39546 4.75277 0
M  V30 9109 O 1205.25 7.81777 5.05738 0
M  V30 9110 O 1203.47 7.1065 3.32998 0
M  V30 9111 O 1203.51 6.04542 5.56673 0
M  V30 9112 C 1203.35 6.22772 7.02095 0
M  V30 9113 C 1203.89 4.97725 7.70406 0
M  V30 9114 O 1202.83 4.13256 7.58987 0
M  V30 9115 C 1205.11 4.28231 7.11815 0
M  V30 9116 O 1205.85 3.49945 8.01648 0
M  V30 9117 C 1204.44 3.5063 5.96244 0
M  V30 9118 O 1205.24 2.36482 5.64681 0
M  V30 9119 C 1203.1 3.15122 6.56374 0
M  V30 9120 H 1203.13 2.13853 6.99751 0
M  V30 9121 H 1204.32 4.13501 5.06559 0
M  V30 9122 H 1205.8 5.03285 6.70911 0
M  V30 9123 H 1204.11 5.20877 8.75697 0
M  V30 9124 H 1203.92 7.11046 7.35349 0
M  V30 9125 H 1202.29 6.35815 7.26986 0
M  V30 9126 H 1204.93 1.61644 6.13565 0
M  V30 9127 P 1206.78 3.65191 7.99657 0
M  V30 9128 O 1208.21 3.8425 8.48115 0
M  V30 9129 O 1206.42 4.17805 6.64342 0
M  V30 9130 O 1206.46 2.07613 7.95143 0
M  V30 9131 C 1206.3 1.44328 9.27336 0
M  V30 9132 C 1206.84 0.0220036 9.17197 0
M  V30 9133 O 1205.78 -0.626867 8.61923 0
M  V30 9134 C 1208.06 -0.24586 8.30336 0
M  V30 9135 O 1208.8 -1.39011 8.63583 0
M  V30 9136 C 1207.39 -0.273849 6.91158 0
M  V30 9137 O 1208.19 -1.06348 6.02892 0
M  V30 9138 C 1206.05 -0.897649 7.22545 0
M  V30 9139 H 1206.08 -1.9841 7.04286 0
M  V30 9140 H 1207.27 0.739928 6.497 0
M  V30 9141 H 1208.75 0.60668 8.36503 0
M  V30 9142 H 1207.06 -0.352479 10.1829 0
M  V30 9143 H 1206.87 2.00611 10.0304 0
M  V30 9144 H 1205.24 1.41843 9.55327 0
M  V30 9145 H 1207.88 -1.95734 6.03555 0
M  V30 9146 P 1209.73 -1.25109 8.70152 0
M  V30 9147 O 1211.16 -1.35274 9.21221 0
M  V30 9148 O 1209.37 -0.0769065 7.84762 0
M  V30 9149 O 1209.41 -2.55232 7.81161 0
M  V30 9150 C 1209.25 -3.79939 8.58154 0
M  V30 9151 C 1209.79 -4.94023 7.72785 0
M  V30 9152 O 1208.73 -5.18726 6.91205 0
M  V30 9153 C 1211.01 -4.69597 6.85231 0
M  V30 9154 O 1211.75 -5.83832 6.51337 0
M  V30 9155 C 1210.34 -3.96706 5.66633 0
M  V30 9156 O 1211.14 -4.15414 4.49689 0
M  V30 9157 C 1209 -4.66153 5.59313 0
M  V30 9158 H 1209.03 -5.47679 4.85214 0
M  V30 9159 H 1210.22 -2.89008 5.86566 0
M  V30 9160 H 1211.7 -4.0121 7.36511 0
M  V30 9161 H 1210.01 -5.80182 8.37584 0
M  V30 9162 H 1209.82 -3.73517 9.52265 0
M  V30 9163 H 1208.19 -3.97163 8.80359 0
M  V30 9164 H 1210.83 -4.90969 4.01921 0
M  V30 9165 P 1212.68 -5.75688 6.64379 0
M  V30 9166 O 1214.11 -6.11849 7.01846 0
M  V30 9167 O 1212.32 -4.30744 6.56026 0
M  V30 9168 O 1212.36 -6.37042 5.19165 0
M  V30 9169 C 1212.2 -7.83578 5.16515 0
M  V30 9170 C 1212.74 -8.33398 3.83019 0
M  V30 9171 O 1211.69 -8.10074 3.01034 0
M  V30 9172 C 1213.96 -7.65514 3.2257 0
M  V30 9173 O 1214.7 -8.4329 2.32297 0
M  V30 9174 C 1213.29 -6.40075 2.62207 0
M  V30 9175 O 1214.09 -5.92589 1.53712 0
M  V30 9176 C 1211.95 -6.9454 2.18503 0
M  V30 9177 H 1211.99 -7.23063 1.12091 0
M  V30 9178 H 1213.17 -5.6025 3.37201 0
M  V30 9179 H 1214.65 -7.35707 4.02681 0
M  V30 9180 H 1212.96 -9.40912 3.9095 0
M  V30 9181 H 1212.77 -8.29056 5.99158 0
M  V30 9182 H 1211.14 -8.10073 5.25882 0
M  V30 9183 H 1213.78 -6.30324 0.726794 0
M  V30 9184 P 1215.63 -8.4349 2.47671 0
M  V30 9185 O 1217.06 -8.94167 2.5964 0
M  V30 9186 O 1215.27 -7.1704 3.19006 0
M  V30 9187 O 1215.31 -8.16596 0.923387 0
M  V30 9188 C 1215.15 -9.38437 0.108857 0
M  V30 9189 C 1215.69 -9.08175 -1.28353 0
M  V30 9190 O 1214.64 -8.44229 -1.84713 0
M  V30 9191 C 1216.91 -8.18386 -1.42505 0
M  V30 9192 O 1217.65 -8.3501 -2.60497 0
M  V30 9193 C 1216.24 -6.80225 -1.25468 0
M  V30 9194 O 1217.04 -5.81621 -1.91066 0
M  V30 9195 C 1214.9 -7.02416 -1.9168 0
M  V30 9196 H 1214.94 -6.6888 -2.96621 0
M  V30 9197 H 1216.12 -6.53617 -0.192223 0
M  V30 9198 H 1217.6 -8.36622 -0.589963 0
M  V30 9199 H 1215.91 -10.0291 -1.79807 0
M  V30 9200 H 1215.72 -10.2138 0.558219 0
M  V30 9201 H 1214.09 -9.6579 0.0444202 0
M  V30 9202 H 1216.73 -5.69556 -2.79637 0
M  V30 9203 P 1218.59 -8.4349 -2.47671 0
M  V30 9204 O 1219.99 -8.99283 -2.62101 0
M  V30 9205 O 1218.21 -7.81195 -1.16947 0
M  V30 9206 O 1218.26 -7.36797 -3.63761 0
M  V30 9207 C 1218.1 -7.95349 -4.982 0
M  V30 9208 C 1218.64 -6.94537 -5.98908 0
M  V30 9209 O 1217.59 -6.10277 -6.11744 0
M  V30 9210 C 1219.86 -6.11426 -5.62335 0
M  V30 9211 O 1220.6 -5.6162 -6.70584 0
M  V30 9212 C 1219.19 -5.04409 -4.73308 0
M  V30 9213 O 1219.99 -3.85929 -4.75106 0
M  V30 9214 C 1217.85 -4.8728 -5.41006 0
M  V30 9215 N 1216.81 -4.65812 -4.42377 0
M  V30 9216 C 1215.78 -3.81293 -4.74224 0
M  V30 9217 O 1215.82 -3.20533 -5.83679 0
M  V30 9218 N 1214.76 -3.6442 -3.86349 0
M  V30 9219 C 1214.81 -4.2728 -2.6824 0
M  V30 9220 N 1213.8 -4.09866 -1.83822 0
M  V30 9221 C 1215.91 -5.10813 -2.3217 0
M  V30 9222 C 1216.87 -5.27909 -3.22647 0
M  V30 9223 H 1217.89 -4.02278 -6.11074 0
M  V30 9224 H 1219.07 -5.39013 -3.70026 0
M  V30 9225 H 1220.55 -6.71494 -5.02675 0
M  V30 9226 H 1218.86 -7.45796 -6.94223 0
M  V30 9227 H 1218.67 -8.89416 -5.05237 0
M  V30 9228 H 1217.04 -8.14791 -5.18355 0
M  V30 9229 H 1215.96 -5.58884 -1.34755 0
M  V30 9230 H 1217.72 -5.92811 -2.9934 0
M  V30 9231 H 1213.01 -3.49095 -2.10018 0
M  V30 9232 H 1213.81 -4.56846 -0.924167 0
M  V30 9233 H 1219.77 -3.3454 -5.51577 0
M  V30 9234 P 1221.54 -5.75688 -6.64379 0
M  V30 9235 O 1222.96 -6.07627 -7.05504 0
M  V30 9236 O 1221.18 -5.88047 -5.19722 0
M  V30 9237 O 1221.21 -4.2322 -7.04443 0
M  V30 9238 C 1221.05 -3.99743 -8.4911 0
M  V30 9239 C 1221.59 -2.60516 -8.79425 0
M  V30 9240 O 1220.54 -1.82684 -8.4467 0
M  V30 9241 C 1222.81 -2.10343 -8.03628 0
M  V30 9242 O 1223.55 -1.09919 -8.67766 0
M  V30 9243 C 1222.14 -1.68446 -6.70876 0
M  V30 9244 O 1222.94 -0.678137 -6.08433 0
M  V30 9245 C 1220.8 -1.17436 -7.18567 0
M  V30 9246 H 1220.84 -0.0804732 -7.31656 0
M  V30 9247 H 1222.02 -2.54037 -6.02537 0
M  V30 9248 H 1223.5 -2.93881 -7.85526 0
M  V30 9249 H 1221.81 -2.53065 -9.86973 0
M  V30 9250 H 1221.62 -4.75072 -9.05887 0
M  V30 9251 H 1219.99 -4.05244 -8.76668 0
M  V30 9252 H 1222.63 0.177647 -6.34251 0
M  V30 9253 P 1224.49 -1.25109 -8.70152 0
M  V30 9254 O 1225.91 -1.29744 -9.22016 0
M  V30 9255 O 1224.13 -2.13714 -7.55141 0
M  V30 9256 O 1224.16 0.248149 -8.21425 0
M  V30 9257 C 1224 1.22779 -9.30434 0
M  V30 9258 C 1224.54 2.56293 -8.80664 0
M  V30 9259 O 1223.49 3.02979 -8.09349 0
M  V30 9260 C 1225.76 2.57523 -7.89775 0
M  V30 9261 O 1226.5 3.7668 -7.89438 0
M  V30 9262 C 1225.09 2.20997 -6.55446 0
M  V30 9263 O 1225.89 2.71895 -5.48509 0
M  V30 9264 C 1223.76 2.89693 -6.67988 0
M  V30 9265 H 1223.79 3.88793 -6.19859 0
M  V30 9266 H 1224.97 1.12046 -6.44229 0
M  V30 9267 H 1226.45 1.7746 -8.19711 0
M  V30 9268 H 1224.76 3.20706 -9.67112 0
M  V30 9269 H 1224.57 0.901032 -10.1892 0
M  V30 9270 H 1222.94 1.33049 -9.56592 0
M  V30 9271 H 1225.58 3.57847 -5.23962 0
M  V30 9272 P 1227.44 3.65191 -7.99657 0
M  V30 9273 O 1228.86 3.89332 -8.45794 0
M  V30 9274 O 1227.08 2.28472 -7.50807 0
M  V30 9275 O 1227.11 4.64972 -6.77611 0
M  V30 9276 C 1226.95 6.06319 -7.16352 0
M  V30 9277 C 1227.49 6.91731 -6.02299 0
M  V30 9278 O 1226.44 6.92449 -5.17064 0
M  V30 9279 C 1228.71 6.43627 -5.25174 0
M  V30 9280 O 1229.45 7.43686 -4.60469 0
M  V30 9281 C 1228.04 5.40275 -4.31916 0
M  V30 9282 O 1228.84 5.25279 -3.14438 0
M  V30 9283 C 1226.71 6.04847 -4.05327 0
M  V30 9284 H 1226.74 6.62195 -3.11261 0
M  V30 9285 H 1227.92 4.42556 -4.81383 0
M  V30 9286 H 1229.41 5.92458 -5.93643 0
M  V30 9287 H 1227.71 7.92655 -6.402 0
M  V30 9288 H 1227.52 6.26671 -8.0846 0
M  V30 9289 H 1225.89 6.29101 -7.32804 0
M  V30 9290 H 1228.53 5.84315 -2.47318 0
M  V30 9291 P 1230.39 7.39546 -4.75277 0
M  V30 9292 O 1231.81 7.84798 -5.01039 0
M  V30 9293 O 1230.03 5.9812 -5.08098 0
M  V30 9294 O 1230.06 7.57503 -3.1866 0
M  V30 9295 C 1229.9 8.97357 -2.74833 0
M  V30 9296 C 1230.44 9.07548 -1.32709 0
M  V30 9297 O 1229.39 8.62072 -0.606159 0
M  V30 9298 C 1231.66 8.25383 -0.938334 0
M  V30 9299 O 1232.4 8.74577 0.146954 0
M  V30 9300 C 1230.99 6.8802 -0.712559 0
M  V30 9301 O 1231.79 6.1189 0.194655 0
M  V30 9302 C 1229.66 7.27966 -0.139777 0
M  V30 9303 H 1229.69 7.25354 0.961601 0
M  V30 9304 H 1230.87 6.32557 -1.65702 0
M  V30 9305 H 1232.36 8.19355 -1.79097 0
M  V30 9306 H 1230.66 10.1294 -1.10029 0
M  V30 9307 H 1230.47 9.64276 -3.41316 0
M  V30 9308 H 1228.84 9.25417 -2.76357 0
M  V30 9309 H 1231.48 6.25267 1.07847 0
M  V30 9310 P 1233.34 8.791 1.00373e-11 0
M  V30 9311 O 1234.76 9.31096 0.027933 0
M  V30 9312 O 1232.98 7.77869 -1.04071 0
M  V30 9313 O 1233.02 8.09533 1.41463 0
M  V30 9314 C 1232.86 9.0349 2.53943 0
M  V30 9315 C 1233.4 8.35226 3.79016 0
M  V30 9316 O 1232.34 7.57992 4.15078 0
M  V30 9317 C 1234.61 7.45087 3.67298 0
M  V30 9318 O 1235.35 7.27796 4.85194 0
M  V30 9319 C 1233.94 6.17323 3.12027 0
M  V30 9320 O 1234.74 5.04231 3.47188 0
M  V30 9321 C 1232.61 6.19961 3.81809 0
M  V30 9322 H 1232.64 5.58218 4.73051 0
M  V30 9323 H 1233.82 6.21726 2.02589 0
M  V30 9324 H 1235.31 7.86112 2.9231 0
M  V30 9325 H 1233.61 9.11627 4.55076 0
M  V30 9326 H 1233.42 9.9573 2.34194 0
M  V30 9327 H 1231.79 9.2792 2.67832 0
M  V30 9328 H 1234.43 4.67702 4.28772 0
M  V30 9329 P 1236.29 7.39546 4.75277 0
M  V30 9330 O 1237.71 7.81945 5.05847 0
M  V30 9331 O 1235.93 7.1065 3.32998 0
M  V30 9332 O 1235.97 6.04542 5.56673 0
M  V30 9333 C 1235.81 6.22772 7.02095 0
M  V30 9334 C 1236.35 4.97671 7.70322 0
M  V30 9335 O 1235.29 4.13256 7.58987 0
M  V30 9336 C 1237.56 4.28231 7.11815 0
M  V30 9337 O 1238.3 3.49945 8.01648 0
M  V30 9338 C 1236.9 3.5063 5.96244 0
M  V30 9339 O 1237.69 2.36443 5.64589 0
M  V30 9340 C 1235.56 3.15122 6.56374 0
M  V30 9341 N 1234.51 3.22311 5.55692 0
M  V30 9342 C 1234.58 4.14382 4.59701 0
M  V30 9343 N 1233.53 4.04476 3.76958 0
M  V30 9344 C 1232.8 3.04892 4.26534 0
M  V30 9345 C 1231.49 2.57447 3.88189 0
M  V30 9346 O 1230.76 2.9785 2.96543 0
M  V30 9347 N 1231.06 1.55228 4.65922 0
M  V30 9348 C 1231.81 1.01152 5.73447 0
M  V30 9349 N 1231.21 -0.0472117 6.37783 0
M  V30 9350 N 1232.96 1.467 6.13813 0
M  V30 9351 C 1233.42 2.4931 5.38487 0
M  V30 9352 H 1235.59 2.13853 6.99751 0
M  V30 9353 H 1236.77 4.13438 5.06482 0
M  V30 9354 H 1238.26 5.02614 6.71414 0
M  V30 9355 H 1236.56 5.20877 8.75697 0
M  V30 9356 H 1236.37 7.11046 7.35349 0
M  V30 9357 H 1234.74 6.35815 7.26986 0
M  V30 9358 H 1230.17 1.15238 4.46468 0
M  V30 9359 H 1235.37 4.88312 4.49647 0
M  V30 9360 H 1230.3 -0.396382 6.05203 0
M  V30 9361 H 1231.68 -0.484997 7.18465 0
M  V30 9362 H 1237.38 1.61619 6.13468 0
M  V30 9363 P 1239.24 3.65191 7.99657 0
M  V30 9364 O 1240.66 3.8425 8.48115 0
M  V30 9365 O 1238.88 4.17805 6.64342 0
M  V30 9366 O 1238.92 2.07613 7.95143 0
M  V30 9367 C 1238.76 1.44328 9.27336 0
M  V30 9368 C 1239.3 0.0220036 9.17197 0
M  V30 9369 O 1238.24 -0.626867 8.61923 0
M  V30 9370 C 1240.51 -0.24586 8.30336 0
M  V30 9371 O 1241.25 -1.39011 8.63583 0
M  V30 9372 C 1239.85 -0.273849 6.91158 0
M  V30 9373 O 1240.64 -1.06348 6.02892 0
M  V30 9374 C 1238.51 -0.897649 7.22545 0
M  V30 9375 H 1238.54 -1.9841 7.04286 0
M  V30 9376 H 1239.72 0.739928 6.497 0
M  V30 9377 H 1241.21 0.60668 8.36503 0
M  V30 9378 H 1239.51 -0.352479 10.1829 0
M  V30 9379 H 1239.32 2.00611 10.0304 0
M  V30 9380 H 1237.69 1.41843 9.55327 0
M  V30 9381 H 1240.33 -1.95734 6.03555 0
M  V30 9382 P 1242.19 -1.25109 8.70152 0
M  V30 9383 O 1243.61 -1.35274 9.21221 0
M  V30 9384 O 1241.83 -0.0769065 7.84762 0
M  V30 9385 O 1241.87 -2.55232 7.81161 0
M  V30 9386 C 1241.71 -3.79939 8.58154 0
M  V30 9387 C 1242.25 -4.94023 7.72785 0
M  V30 9388 O 1241.19 -5.18726 6.91205 0
M  V30 9389 C 1243.46 -4.69597 6.85231 0
M  V30 9390 O 1244.2 -5.83832 6.51337 0
M  V30 9391 C 1242.8 -3.96706 5.66633 0
M  V30 9392 O 1243.59 -4.15414 4.49689 0
M  V30 9393 C 1241.46 -4.66153 5.59313 0
M  V30 9394 H 1241.49 -5.47679 4.85214 0
M  V30 9395 H 1242.67 -2.89008 5.86566 0
M  V30 9396 H 1244.16 -4.0121 7.36511 0
M  V30 9397 H 1242.46 -5.80182 8.37584 0
M  V30 9398 H 1242.27 -3.73517 9.52265 0
M  V30 9399 H 1240.64 -3.97163 8.80359 0
M  V30 9400 H 1243.28 -4.90969 4.01921 0
M  V30 9401 P 1245.14 -5.75688 6.64379 0
M  V30 9402 O 1246.56 -6.11849 7.01846 0
M  V30 9403 O 1244.78 -4.30744 6.56026 0
M  V30 9404 O 1244.82 -6.37042 5.19165 0
M  V30 9405 C 1244.66 -7.83578 5.16515 0
M  V30 9406 C 1245.2 -8.33398 3.83019 0
M  V30 9407 O 1244.14 -8.10074 3.01034 0
M  V30 9408 C 1246.42 -7.65514 3.2257 0
M  V30 9409 O 1247.15 -8.4329 2.32297 0
M  V30 9410 C 1245.75 -6.40075 2.62207 0
M  V30 9411 O 1246.55 -5.92589 1.53712 0
M  V30 9412 C 1244.41 -6.9454 2.18503 0
M  V30 9413 H 1244.44 -7.23063 1.12091 0
M  V30 9414 H 1245.62 -5.6025 3.37201 0
M  V30 9415 H 1247.11 -7.35707 4.02681 0
M  V30 9416 H 1245.41 -9.40912 3.9095 0
M  V30 9417 H 1245.22 -8.29056 5.99158 0
M  V30 9418 H 1243.59 -8.10073 5.25882 0
M  V30 9419 H 1246.23 -6.30324 0.726794 0
M  V30 9420 P 1248.09 -8.4349 2.47671 0
M  V30 9421 O 1249.51 -8.94167 2.5964 0
M  V30 9422 O 1247.73 -7.1704 3.19006 0
M  V30 9423 O 1247.77 -8.16596 0.923387 0
M  V30 9424 C 1247.61 -9.38437 0.108857 0
M  V30 9425 C 1248.15 -9.08175 -1.28353 0
M  V30 9426 O 1247.09 -8.44229 -1.84713 0
M  V30 9427 C 1249.37 -8.18386 -1.42505 0
M  V30 9428 O 1250.1 -8.3501 -2.60497 0
M  V30 9429 C 1248.7 -6.80225 -1.25468 0
M  V30 9430 O 1249.5 -5.81621 -1.91066 0
M  V30 9431 C 1247.36 -7.02416 -1.9168 0
M  V30 9432 H 1247.39 -6.6888 -2.96621 0
M  V30 9433 H 1248.58 -6.53617 -0.192223 0
M  V30 9434 H 1250.06 -8.36622 -0.589963 0
M  V30 9435 H 1248.37 -10.0291 -1.79807 0
M  V30 9436 H 1248.18 -10.2138 0.558219 0
M  V30 9437 H 1246.55 -9.6579 0.0444202 0
M  V30 9438 H 1249.18 -5.69556 -2.79637 0
M  V30 9439 P 1251.04 -8.4349 -2.47671 0
M  V30 9440 O 1252.46 -8.92593 -2.65 0
M  V30 9441 O 1250.68 -7.7568 -1.19296 0
M  V30 9442 O 1250.72 -7.36886 -3.63805 0
M  V30 9443 C 1250.56 -7.95349 -4.982 0
M  V30 9444 C 1251.1 -6.94612 -5.98974 0
M  V30 9445 O 1250.04 -6.10347 -6.11815 0
M  V30 9446 C 1252.32 -6.11426 -5.62335 0
M  V30 9447 O 1253.05 -5.6162 -6.70584 0
M  V30 9448 C 1251.65 -5.04409 -4.73308 0
M  V30 9449 O 1252.45 -3.85992 -4.75183 0
M  V30 9450 C 1250.31 -4.8728 -5.41006 0
M  V30 9451 H 1250.34 -4.02333 -6.11157 0
M  V30 9452 H 1251.53 -5.39466 -3.69543 0
M  V30 9453 H 1253.01 -6.71916 -5.01943 0
M  V30 9454 H 1251.32 -7.4649 -6.93477 0
M  V30 9455 H 1251.13 -8.89416 -5.05237 0
M  V30 9456 H 1249.5 -8.14876 -5.18409 0
M  V30 9457 H 1252.13 -3.27957 -5.4317 0
M  V30 9458 P 1253.99 -5.75688 -6.64379 0
M  V30 9459 O 1255.41 -6.07692 -7.0558 0
M  V30 9460 O 1253.63 -5.88047 -5.19722 0
M  V30 9461 O 1253.67 -4.2322 -7.04443 0
M  V30 9462 C 1253.51 -3.99785 -8.49201 0
M  V30 9463 C 1254.05 -2.60516 -8.79425 0
M  V30 9464 O 1252.99 -1.82663 -8.44573 0
M  V30 9465 C 1255.27 -2.10343 -8.03628 0
M  V30 9466 O 1256.01 -1.09919 -8.67766 0
M  V30 9467 C 1254.6 -1.68446 -6.70876 0
M  V30 9468 O 1255.4 -0.684109 -6.08265 0
M  V30 9469 C 1253.26 -1.17436 -7.18567 0
M  V30 9470 N 1252.22 -1.52699 -6.23988 0
M  V30 9471 C 1252.39 -2.578 -5.40574 0
M  V30 9472 N 1251.36 -2.78966 -4.61193 0
M  V30 9473 C 1250.48 -1.78725 -4.95769 0
M  V30 9474 C 1249.21 -1.45727 -4.44207 0
M  V30 9475 N 1248.61 -2.13994 -3.43613 0
M  V30 9476 N 1248.64 -0.374977 -5.05812 0
M  V30 9477 C 1249.25 0.345585 -6.05615 0
M  V30 9478 N 1250.42 0.0787651 -6.56253 0
M  V30 9479 C 1251 -1.00499 -5.96189 0
M  V30 9480 H 1253.29 -0.0804622 -7.31556 0
M  V30 9481 H 1254.48 -2.53396 -6.02698 0
M  V30 9482 H 1255.96 -2.93881 -7.85526 0
M  V30 9483 H 1254.27 -2.52078 -9.87225 0
M  V30 9484 H 1254.08 -4.75072 -9.05887 0
M  V30 9485 H 1252.45 -4.05244 -8.76668 0
M  V30 9486 H 1248.71 1.20098 -6.4532 0
M  V30 9487 H 1253.29 -3.18977 -5.3945 0
M  V30 9488 H 1247.68 -1.84983 -3.10004 0
M  V30 9489 H 1249.08 -2.9465 -3.00843 0
M  V30 9490 H 1255.09 0.177619 -6.34151 0
M  V30 9491 P 1256.94 -1.25109 -8.70152 0
M  V30 9492 O 1258.36 -1.29772 -9.22214 0
M  V30 9493 O 1256.58 -2.13714 -7.55141 0
M  V30 9494 O 1256.62 0.248149 -8.21425 0
M  V30 9495 C 1256.46 1.22779 -9.30434 0
M  V30 9496 C 1257 2.56265 -8.80568 0
M  V30 9497 O 1255.94 3.02979 -8.09349 0
M  V30 9498 C 1258.22 2.57523 -7.89775 0
M  V30 9499 O 1258.96 3.7668 -7.89438 0
M  V30 9500 C 1257.55 2.20997 -6.55446 0
M  V30 9501 O 1258.35 2.71851 -5.48419 0
M  V30 9502 C 1256.21 2.89693 -6.67988 0
M  V30 9503 N 1255.17 2.08895 -6.07487 0
M  V30 9504 C 1255.23 0.760559 -6.14209 0
M  V30 9505 N 1254.19 0.200108 -5.52538 0
M  V30 9506 C 1253.45 1.22692 -5.09742 0
M  V30 9507 C 1252.15 1.24782 -4.48775 0
M  V30 9508 O 1251.41 0.290617 -4.19294 0
M  V30 9509 N 1251.72 2.50468 -4.22428 0
M  V30 9510 C 1252.46 3.67142 -4.51974 0
M  V30 9511 N 1251.87 4.85096 -4.14091 0
M  V30 9512 N 1253.62 3.67821 -5.12831 0
M  V30 9513 C 1254.07 2.43698 -5.4105 0
M  V30 9514 H 1256.24 3.88793 -6.19859 0
M  V30 9515 H 1257.43 1.12029 -6.4413 0
M  V30 9516 H 1258.91 1.78279 -8.19533 0
M  V30 9517 H 1257.22 3.20706 -9.67112 0
M  V30 9518 H 1257.03 0.901032 -10.1892 0
M  V30 9519 H 1255.4 1.33049 -9.56592 0
M  V30 9520 H 1250.82 2.61953 -3.79465 0
M  V30 9521 H 1256.03 0.200439 -6.63497 0
M  V30 9522 H 1250.96 4.8334 -3.66367 0
M  V30 9523 H 1252.33 5.7474 -4.33841 0
M  V30 9524 H 1258.04 3.5779 -5.23879 0
M  V30 9525 P 1259.89 3.65191 -7.99657 0
M  V30 9526 O 1261.32 3.89332 -8.45794 0
M  V30 9527 O 1259.53 2.28472 -7.50807 0
M  V30 9528 O 1259.57 4.64972 -6.77611 0
M  V30 9529 C 1259.41 6.06319 -7.16352 0
M  V30 9530 C 1259.95 6.91731 -6.02299 0
M  V30 9531 O 1258.89 6.92449 -5.17064 0
M  V30 9532 C 1261.17 6.43627 -5.25174 0
M  V30 9533 O 1261.91 7.43686 -4.60469 0
M  V30 9534 C 1260.5 5.40275 -4.31916 0
M  V30 9535 O 1261.3 5.25279 -3.14438 0
M  V30 9536 C 1259.16 6.04847 -4.05327 0
M  V30 9537 H 1259.19 6.62195 -3.11261 0
M  V30 9538 H 1260.38 4.42556 -4.81383 0
M  V30 9539 H 1261.86 5.92458 -5.93643 0
M  V30 9540 H 1260.17 7.92655 -6.402 0
M  V30 9541 H 1259.98 6.26671 -8.0846 0
M  V30 9542 H 1258.35 6.29101 -7.32804 0
M  V30 9543 H 1260.99 5.84315 -2.47318 0
M  V30 9544 P 1262.84 7.39546 -4.75277 0
M  V30 9545 O 1264.27 7.84798 -5.01039 0
M  V30 9546 O 1262.48 5.9812 -5.08098 0
M  V30 9547 O 1262.52 7.57503 -3.1866 0
M  V30 9548 C 1262.36 8.97357 -2.74833 0
M  V30 9549 C 1262.9 9.07548 -1.32709 0
M  V30 9550 O 1261.84 8.62072 -0.606159 0
M  V30 9551 C 1264.12 8.25383 -0.938334 0
M  V30 9552 O 1264.86 8.74577 0.146954 0
M  V30 9553 C 1263.45 6.8802 -0.712559 0
M  V30 9554 O 1264.25 6.1189 0.194655 0
M  V30 9555 C 1262.11 7.27966 -0.139777 0
M  V30 9556 H 1262.14 7.25354 0.961601 0
M  V30 9557 H 1263.33 6.32557 -1.65702 0
M  V30 9558 H 1264.81 8.19355 -1.79097 0
M  V30 9559 H 1263.12 10.1294 -1.10029 0
M  V30 9560 H 1262.93 9.64276 -3.41316 0
M  V30 9561 H 1261.3 9.25417 -2.76357 0
M  V30 9562 H 1263.94 6.25267 1.07847 0
M  V30 9563 P 1265.79 8.791 1.03475e-11 0
M  V30 9564 O 1267.22 9.31096 0.027933 0
M  V30 9565 O 1265.43 7.77869 -1.04071 0
M  V30 9566 O 1265.47 8.09533 1.41463 0
M  V30 9567 C 1265.31 9.0349 2.53943 0
M  V30 9568 C 1265.85 8.35226 3.79016 0
M  V30 9569 O 1264.8 7.57992 4.15078 0
M  V30 9570 C 1267.07 7.45087 3.67298 0
M  V30 9571 O 1267.81 7.27796 4.85194 0
M  V30 9572 C 1266.4 6.17323 3.12027 0
M  V30 9573 O 1267.2 5.04231 3.47188 0
M  V30 9574 C 1265.06 6.19961 3.81809 0
M  V30 9575 H 1265.1 5.58218 4.73051 0
M  V30 9576 H 1266.28 6.21726 2.02589 0
M  V30 9577 H 1267.76 7.86112 2.9231 0
M  V30 9578 H 1266.07 9.11627 4.55076 0
M  V30 9579 H 1265.88 9.9573 2.34194 0
M  V30 9580 H 1264.25 9.2792 2.67832 0
M  V30 9581 H 1266.89 4.67702 4.28772 0
M  V30 9582 P 1268.75 7.39546 4.75277 0
M  V30 9583 O 1270.17 7.81777 5.05738 0
M  V30 9584 O 1268.39 7.1065 3.32998 0
M  V30 9585 O 1268.42 6.04542 5.56673 0
M  V30 9586 C 1268.26 6.22772 7.02095 0
M  V30 9587 C 1268.8 4.97725 7.70406 0
M  V30 9588 O 1267.75 4.13256 7.58987 0
M  V30 9589 C 1270.02 4.28231 7.11815 0
M  V30 9590 O 1270.76 3.49945 8.01648 0
M  V30 9591 C 1269.35 3.5063 5.96244 0
M  V30 9592 O 1270.15 2.36482 5.64681 0
M  V30 9593 C 1268.01 3.15122 6.56374 0
M  V30 9594 H 1268.05 2.13853 6.99751 0
M  V30 9595 H 1269.23 4.13501 5.06559 0
M  V30 9596 H 1270.71 5.03285 6.70911 0
M  V30 9597 H 1269.02 5.20877 8.75697 0
M  V30 9598 H 1268.83 7.11046 7.35349 0
M  V30 9599 H 1267.2 6.35815 7.26986 0
M  V30 9600 H 1269.84 1.61644 6.13565 0
M  V30 9601 P 1271.7 3.65191 7.99657 0
M  V30 9602 O 1273.12 3.8425 8.48115 0
M  V30 9603 O 1271.34 4.17805 6.64342 0
M  V30 9604 O 1271.37 2.07613 7.95143 0
M  V30 9605 C 1271.21 1.44328 9.27336 0
M  V30 9606 C 1271.75 0.0220036 9.17197 0
M  V30 9607 O 1270.7 -0.626867 8.61923 0
M  V30 9608 C 1272.97 -0.24586 8.30336 0
M  V30 9609 O 1273.71 -1.39011 8.63583 0
M  V30 9610 C 1272.3 -0.273849 6.91158 0
M  V30 9611 O 1273.1 -1.06348 6.02892 0
M  V30 9612 C 1270.96 -0.897649 7.22545 0
M  V30 9613 H 1271 -1.9841 7.04286 0
M  V30 9614 H 1272.18 0.739928 6.497 0
M  V30 9615 H 1273.66 0.60668 8.36503 0
M  V30 9616 H 1271.97 -0.352479 10.1829 0
M  V30 9617 H 1271.78 2.00611 10.0304 0
M  V30 9618 H 1270.15 1.41843 9.55327 0
M  V30 9619 H 1272.79 -1.95734 6.03555 0
M  V30 9620 P 1274.65 -1.25109 8.70152 0
M  V30 9621 O 1276.07 -1.35274 9.21221 0
M  V30 9622 O 1274.29 -0.0769065 7.84762 0
M  V30 9623 O 1274.32 -2.55232 7.81161 0
M  V30 9624 C 1274.16 -3.79939 8.58154 0
M  V30 9625 C 1274.7 -4.94023 7.72785 0
M  V30 9626 O 1273.65 -5.18726 6.91205 0
M  V30 9627 C 1275.92 -4.69597 6.85231 0
M  V30 9628 O 1276.66 -5.83832 6.51337 0
M  V30 9629 C 1275.25 -3.96706 5.66633 0
M  V30 9630 O 1276.05 -4.15414 4.49689 0
M  V30 9631 C 1273.92 -4.66153 5.59313 0
M  V30 9632 H 1273.95 -5.47679 4.85214 0
M  V30 9633 H 1275.13 -2.89008 5.86566 0
M  V30 9634 H 1276.61 -4.0121 7.36511 0
M  V30 9635 H 1274.92 -5.80182 8.37584 0
M  V30 9636 H 1274.73 -3.73517 9.52265 0
M  V30 9637 H 1273.1 -3.97163 8.80359 0
M  V30 9638 H 1275.74 -4.90969 4.01921 0
M  V30 9639 P 1277.6 -5.75688 6.64379 0
M  V30 9640 O 1279.02 -6.11915 7.01921 0
M  V30 9641 O 1277.24 -4.30744 6.56026 0
M  V30 9642 O 1277.27 -6.37042 5.19165 0
M  V30 9643 C 1277.11 -7.83662 5.1657 0
M  V30 9644 C 1277.65 -8.33398 3.83019 0
M  V30 9645 O 1276.6 -8.0998 3.00999 0
M  V30 9646 C 1278.87 -7.65514 3.2257 0
M  V30 9647 O 1279.61 -8.4329 2.32297 0
M  V30 9648 C 1278.2 -6.40075 2.62207 0
M  V30 9649 O 1279 -5.92338 1.5428 0
M  V30 9650 C 1276.87 -6.9454 2.18503 0
M  V30 9651 N 1275.82 -5.95905 2.39948 0
M  V30 9652 C 1275.99 -4.98383 3.32108 0
M  V30 9653 N 1274.96 -4.16798 3.41761 0
M  V30 9654 C 1274.08 -4.65287 2.47461 0
M  V30 9655 C 1272.81 -4.18946 2.07461 0
M  V30 9656 N 1272.21 -3.09661 2.60717 0
M  V30 9657 N 1272.25 -4.95327 1.09101 0
M  V30 9658 C 1272.85 -6.04369 0.519812 0
M  V30 9659 N 1274.03 -6.50694 0.855982 0
M  V30 9660 C 1274.6 -5.75818 1.84322 0
M  V30 9661 H 1276.9 -7.22964 1.12076 0
M  V30 9662 H 1278.08 -5.60502 3.36589 0
M  V30 9663 H 1279.56 -7.35707 4.02681 0
M  V30 9664 H 1277.87 -9.41302 3.90009 0
M  V30 9665 H 1277.68 -8.29056 5.99158 0
M  V30 9666 H 1276.05 -8.10073 5.25882 0
M  V30 9667 H 1272.31 -6.55843 -0.270373 0
M  V30 9668 H 1276.89 -4.88564 3.92502 0
M  V30 9669 H 1271.28 -2.80523 2.27218 0
M  V30 9670 H 1272.69 -2.55848 3.34465 0
M  V30 9671 H 1278.69 -6.30224 0.72668 0
M  V30 9672 P 1280.55 -8.4349 2.47671 0
M  V30 9673 O 1281.97 -8.94167 2.5964 0
M  V30 9674 O 1280.19 -7.1704 3.19006 0
M  V30 9675 O 1280.22 -8.16596 0.923387 0
M  V30 9676 C 1280.06 -9.38437 0.108857 0
M  V30 9677 C 1280.6 -9.08175 -1.28353 0
M  V30 9678 O 1279.55 -8.44229 -1.84713 0
M  V30 9679 C 1281.82 -8.18386 -1.42505 0
M  V30 9680 O 1282.56 -8.3501 -2.60497 0
M  V30 9681 C 1281.15 -6.80225 -1.25468 0
M  V30 9682 O 1281.95 -5.81621 -1.91066 0
M  V30 9683 C 1279.82 -7.02416 -1.9168 0
M  V30 9684 H 1279.85 -6.6888 -2.96621 0
M  V30 9685 H 1281.03 -6.53617 -0.192223 0
M  V30 9686 H 1282.52 -8.36622 -0.589963 0
M  V30 9687 H 1280.82 -10.0291 -1.79807 0
M  V30 9688 H 1280.63 -10.2138 0.558219 0
M  V30 9689 H 1279 -9.6579 0.0444202 0
M  V30 9690 H 1281.64 -5.69556 -2.79637 0
M  V30 9691 P 1283.5 -8.4349 -2.47671 0
M  V30 9692 O 1284.92 -8.92593 -2.65 0
M  V30 9693 O 1283.14 -7.7568 -1.19296 0
M  V30 9694 O 1283.17 -7.36886 -3.63805 0
M  V30 9695 C 1283.01 -7.95349 -4.982 0
M  V30 9696 C 1283.55 -6.94612 -5.98974 0
M  V30 9697 O 1282.5 -6.10347 -6.11815 0
M  V30 9698 C 1284.77 -6.11426 -5.62335 0
M  V30 9699 O 1285.51 -5.6162 -6.70584 0
M  V30 9700 C 1284.1 -5.04409 -4.73308 0
M  V30 9701 O 1284.9 -3.85992 -4.75183 0
M  V30 9702 C 1282.77 -4.8728 -5.41006 0
M  V30 9703 H 1282.8 -4.02333 -6.11157 0
M  V30 9704 H 1283.98 -5.39466 -3.69543 0
M  V30 9705 H 1285.47 -6.71916 -5.01943 0
M  V30 9706 H 1283.77 -7.4649 -6.93477 0
M  V30 9707 H 1283.58 -8.89416 -5.05237 0
M  V30 9708 H 1281.95 -8.14876 -5.18409 0
M  V30 9709 H 1284.59 -3.27957 -5.4317 0
M  V30 9710 P 1286.45 -5.75688 -6.64379 0
M  V30 9711 O 1287.87 -6.07627 -7.05504 0
M  V30 9712 O 1286.09 -5.88047 -5.19722 0
M  V30 9713 O 1286.13 -4.2322 -7.04443 0
M  V30 9714 C 1285.97 -3.99743 -8.4911 0
M  V30 9715 C 1286.51 -2.60516 -8.79425 0
M  V30 9716 O 1285.45 -1.82684 -8.4467 0
M  V30 9717 C 1287.72 -2.10343 -8.03628 0
M  V30 9718 O 1288.46 -1.09919 -8.67766 0
M  V30 9719 C 1287.05 -1.68446 -6.70876 0
M  V30 9720 O 1287.85 -0.678137 -6.08433 0
M  V30 9721 C 1285.72 -1.17436 -7.18567 0
M  V30 9722 H 1285.75 -0.0804732 -7.31656 0
M  V30 9723 H 1286.93 -2.54037 -6.02537 0
M  V30 9724 H 1288.42 -2.93881 -7.85526 0
M  V30 9725 H 1286.72 -2.53065 -9.86973 0
M  V30 9726 H 1286.53 -4.75072 -9.05887 0
M  V30 9727 H 1284.9 -4.05244 -8.76668 0
M  V30 9728 H 1287.54 0.177647 -6.34251 0
M  V30 9729 P 1289.4 -1.25109 -8.70152 0
M  V30 9730 O 1290.82 -1.29744 -9.22016 0
M  V30 9731 O 1289.04 -2.13714 -7.55141 0
M  V30 9732 O 1289.08 0.248149 -8.21425 0
M  V30 9733 C 1288.92 1.22779 -9.30434 0
M  V30 9734 C 1289.46 2.56293 -8.80664 0
M  V30 9735 O 1288.4 3.02979 -8.09349 0
M  V30 9736 C 1290.67 2.57523 -7.89775 0
M  V30 9737 O 1291.41 3.7668 -7.89438 0
M  V30 9738 C 1290.01 2.20997 -6.55446 0
M  V30 9739 O 1290.8 2.71895 -5.48509 0
M  V30 9740 C 1288.67 2.89693 -6.67988 0
M  V30 9741 H 1288.7 3.88793 -6.19859 0
M  V30 9742 H 1289.88 1.12046 -6.44229 0
M  V30 9743 H 1291.37 1.7746 -8.19711 0
M  V30 9744 H 1289.67 3.20706 -9.67112 0
M  V30 9745 H 1289.48 0.901032 -10.1892 0
M  V30 9746 H 1287.85 1.33049 -9.56592 0
M  V30 9747 H 1290.49 3.57847 -5.23962 0
M  V30 9748 P 1292.35 3.65191 -7.99657 0
M  V30 9749 O 1293.77 3.89416 -8.45976 0
M  V30 9750 O 1291.99 2.28472 -7.50807 0
M  V30 9751 O 1292.03 4.64972 -6.77611 0
M  V30 9752 C 1291.87 6.06319 -7.16352 0
M  V30 9753 C 1292.41 6.91655 -6.02234 0
M  V30 9754 O 1291.35 6.92449 -5.17064 0
M  V30 9755 C 1293.62 6.43627 -5.25174 0
M  V30 9756 O 1294.36 7.43686 -4.60469 0
M  V30 9757 C 1292.96 5.40275 -4.31916 0
M  V30 9758 O 1293.75 5.25193 -3.14386 0
M  V30 9759 C 1291.62 6.04847 -4.05327 0
M  V30 9760 N 1290.58 5.04166 -3.98114 0
M  V30 9761 C 1290.64 3.96049 -4.75587 0
M  V30 9762 N 1289.59 3.15559 -4.54006 0
M  V30 9763 C 1288.86 3.78802 -3.62491 0
M  V30 9764 C 1287.55 3.476 -3.10071 0
M  V30 9765 O 1286.82 2.51136 -3.37021 0
M  V30 9766 N 1287.12 4.39088 -2.19956 0
M  V30 9767 C 1287.87 5.53215 -1.81733 0
M  V30 9768 N 1287.27 6.31963 -0.860928 0
M  V30 9769 N 1289.02 5.86688 -2.32562 0
M  V30 9770 C 1289.48 4.97525 -3.23407 0
M  V30 9771 H 1291.65 6.62195 -3.11261 0
M  V30 9772 H 1292.83 4.42488 -4.8131 0
M  V30 9773 H 1294.32 5.93051 -5.9305 0
M  V30 9774 H 1292.62 7.92655 -6.402 0
M  V30 9775 H 1292.43 6.26671 -8.0846 0
M  V30 9776 H 1290.8 6.29101 -7.32804 0
M  V30 9777 H 1286.23 4.25523 -1.77604 0
M  V30 9778 H 1291.43 3.75576 -5.47333 0
M  V30 9779 H 1286.36 6.04684 -0.468946 0
M  V30 9780 H 1287.74 7.18054 -0.542422 0
M  V30 9781 H 1293.44 5.84223 -2.47279 0
M  V30 9782 P 1295.3 7.39546 -4.75277 0
M  V30 9783 O 1296.72 7.84798 -5.01039 0
M  V30 9784 O 1294.94 5.9812 -5.08098 0
M  V30 9785 O 1294.98 7.57503 -3.1866 0
M  V30 9786 C 1294.82 8.97357 -2.74833 0
M  V30 9787 C 1295.36 9.07548 -1.32709 0
M  V30 9788 O 1294.3 8.62072 -0.606159 0
M  V30 9789 C 1296.58 8.25383 -0.938334 0
M  V30 9790 O 1297.31 8.74577 0.146954 0
M  V30 9791 C 1295.91 6.8802 -0.712559 0
M  V30 9792 O 1296.71 6.1189 0.194655 0
M  V30 9793 C 1294.57 7.27966 -0.139777 0
M  V30 9794 H 1294.6 7.25354 0.961601 0
M  V30 9795 H 1295.78 6.32557 -1.65702 0
M  V30 9796 H 1297.27 8.19355 -1.79097 0
M  V30 9797 H 1295.57 10.1294 -1.10029 0
M  V30 9798 H 1295.38 9.64276 -3.41316 0
M  V30 9799 H 1293.75 9.25417 -2.76357 0
M  V30 9800 H 1296.39 6.25267 1.07847 0
M  V30 9801 P 1298.25 8.791 1.06576e-11 0
M  V30 9802 O 1299.67 9.31096 0.027933 0
M  V30 9803 O 1297.89 7.77869 -1.04071 0
M  V30 9804 O 1297.93 8.09533 1.41463 0
M  V30 9805 C 1297.77 9.0349 2.53943 0
M  V30 9806 C 1298.31 8.35226 3.79016 0
M  V30 9807 O 1297.25 7.57992 4.15078 0
M  V30 9808 C 1299.53 7.45087 3.67298 0
M  V30 9809 O 1300.26 7.27796 4.85194 0
M  V30 9810 C 1298.86 6.17323 3.12027 0
M  V30 9811 O 1299.66 5.04231 3.47188 0
M  V30 9812 C 1297.52 6.19961 3.81809 0
M  V30 9813 H 1297.55 5.58218 4.73051 0
M  V30 9814 H 1298.73 6.21726 2.02589 0
M  V30 9815 H 1300.22 7.86112 2.9231 0
M  V30 9816 H 1298.52 9.11627 4.55076 0
M  V30 9817 H 1298.33 9.9573 2.34194 0
M  V30 9818 H 1296.7 9.2792 2.67832 0
M  V30 9819 H 1299.34 4.67702 4.28772 0
M  V30 9820 P 1301.2 7.39546 4.75277 0
M  V30 9821 O 1302.62 7.81777 5.05738 0
M  V30 9822 O 1300.84 7.1065 3.32998 0
M  V30 9823 O 1300.88 6.04542 5.56673 0
M  V30 9824 C 1300.72 6.22772 7.02095 0
M  V30 9825 C 1301.26 4.97725 7.70406 0
M  V30 9826 O 1300.2 4.13256 7.58987 0
M  V30 9827 C 1302.48 4.28231 7.11815 0
M  V30 9828 O 1303.21 3.49945 8.01648 0
M  V30 9829 C 1301.81 3.5063 5.96244 0
M  V30 9830 O 1302.61 2.36482 5.64681 0
M  V30 9831 C 1300.47 3.15122 6.56374 0
M  V30 9832 H 1300.5 2.13853 6.99751 0
M  V30 9833 H 1301.69 4.13501 5.06559 0
M  V30 9834 H 1303.17 5.03285 6.70911 0
M  V30 9835 H 1301.48 5.20877 8.75697 0
M  V30 9836 H 1301.29 7.11046 7.35349 0
M  V30 9837 H 1299.66 6.35815 7.26986 0
M  V30 9838 H 1302.29 1.61644 6.13565 0
M  V30 9839 P 1304.15 3.65191 7.99657 0
M  V30 9840 O 1305.57 3.8425 8.48115 0
M  V30 9841 O 1303.79 4.17805 6.64342 0
M  V30 9842 O 1303.83 2.07613 7.95143 0
M  V30 9843 C 1303.67 1.44328 9.27336 0
M  V30 9844 C 1304.21 0.0220036 9.17197 0
M  V30 9845 O 1303.15 -0.626867 8.61923 0
M  V30 9846 C 1305.43 -0.24586 8.30336 0
M  V30 9847 O 1306.16 -1.39011 8.63583 0
M  V30 9848 C 1304.76 -0.273849 6.91158 0
M  V30 9849 O 1305.56 -1.06348 6.02892 0
M  V30 9850 C 1303.42 -0.897649 7.22545 0
M  V30 9851 H 1303.45 -1.9841 7.04286 0
M  V30 9852 H 1304.64 0.739928 6.497 0
M  V30 9853 H 1306.12 0.60668 8.36503 0
M  V30 9854 H 1304.43 -0.352479 10.1829 0
M  V30 9855 H 1304.24 2.00611 10.0304 0
M  V30 9856 H 1302.61 1.41843 9.55327 0
M  V30 9857 H 1305.24 -1.95734 6.03555 0
M  V30 9858 P 1307.1 -1.25109 8.70152 0
M  V30 9859 O 1308.52 -1.35274 9.21221 0
M  V30 9860 O 1306.74 -0.0769065 7.84762 0
M  V30 9861 O 1306.78 -2.55232 7.81161 0
M  V30 9862 C 1306.62 -3.79939 8.58154 0
M  V30 9863 C 1307.16 -4.94023 7.72785 0
M  V30 9864 O 1306.1 -5.18726 6.91205 0
M  V30 9865 C 1308.38 -4.69597 6.85231 0
M  V30 9866 O 1309.12 -5.83832 6.51337 0
M  V30 9867 C 1307.71 -3.96706 5.66633 0
M  V30 9868 O 1308.51 -4.15414 4.49689 0
M  V30 9869 C 1306.37 -4.66153 5.59313 0
M  V30 9870 H 1306.4 -5.47679 4.85214 0
M  V30 9871 H 1307.59 -2.89008 5.86566 0
M  V30 9872 H 1309.07 -4.0121 7.36511 0
M  V30 9873 H 1307.38 -5.80182 8.37584 0
M  V30 9874 H 1307.19 -3.73517 9.52265 0
M  V30 9875 H 1305.56 -3.97163 8.80359 0
M  V30 9876 H 1308.2 -4.90969 4.01921 0
M  V30 9877 P 1310.05 -5.75688 6.64379 0
M  V30 9878 O 1311.48 -6.11849 7.01846 0
M  V30 9879 O 1309.69 -4.30744 6.56026 0
M  V30 9880 O 1309.73 -6.37042 5.19165 0
M  V30 9881 C 1309.57 -7.83578 5.16515 0
M  V30 9882 C 1310.11 -8.33398 3.83019 0
M  V30 9883 O 1309.05 -8.10074 3.01034 0
M  V30 9884 C 1311.33 -7.65514 3.2257 0
M  V30 9885 O 1312.07 -8.4329 2.32297 0
M  V30 9886 C 1310.66 -6.40075 2.62207 0
M  V30 9887 O 1311.46 -5.92589 1.53712 0
M  V30 9888 C 1309.32 -6.9454 2.18503 0
M  V30 9889 H 1309.35 -7.23063 1.12091 0
M  V30 9890 H 1310.54 -5.6025 3.37201 0
M  V30 9891 H 1312.02 -7.35707 4.02681 0
M  V30 9892 H 1310.33 -9.40912 3.9095 0
M  V30 9893 H 1310.14 -8.29056 5.99158 0
M  V30 9894 H 1308.51 -8.10073 5.25882 0
M  V30 9895 H 1311.15 -6.30324 0.726794 0
M  V30 9896 P 1313 -8.4349 2.47671 0
M  V30 9897 O 1314.43 -8.94167 2.5964 0
M  V30 9898 O 1312.64 -7.1704 3.19006 0
M  V30 9899 O 1312.68 -8.16596 0.923387 0
M  V30 9900 C 1312.52 -9.38437 0.108857 0
M  V30 9901 C 1313.06 -9.08175 -1.28353 0
M  V30 9902 O 1312 -8.44229 -1.84713 0
M  V30 9903 C 1314.28 -8.18386 -1.42505 0
M  V30 9904 O 1315.02 -8.3501 -2.60497 0
M  V30 9905 C 1313.61 -6.80225 -1.25468 0
M  V30 9906 O 1314.41 -5.81621 -1.91066 0
M  V30 9907 C 1312.27 -7.02416 -1.9168 0
M  V30 9908 H 1312.3 -6.6888 -2.96621 0
M  V30 9909 H 1313.49 -6.53617 -0.192223 0
M  V30 9910 H 1314.97 -8.36622 -0.589963 0
M  V30 9911 H 1313.28 -10.0291 -1.79807 0
M  V30 9912 H 1313.09 -10.2138 0.558219 0
M  V30 9913 H 1311.46 -9.6579 0.0444202 0
M  V30 9914 H 1314.1 -5.69556 -2.79637 0
M  V30 9915 P 1315.95 -8.4349 -2.47671 0
M  V30 9916 O 1317.38 -8.92593 -2.65 0
M  V30 9917 O 1315.59 -7.7568 -1.19296 0
M  V30 9918 O 1315.63 -7.36886 -3.63805 0
M  V30 9919 C 1315.47 -7.95349 -4.982 0
M  V30 9920 C 1316.01 -6.94612 -5.98974 0
M  V30 9921 O 1314.96 -6.10347 -6.11815 0
M  V30 9922 C 1317.23 -6.11426 -5.62335 0
M  V30 9923 O 1317.97 -5.6162 -6.70584 0
M  V30 9924 C 1316.56 -5.04409 -4.73308 0
M  V30 9925 O 1317.36 -3.85992 -4.75183 0
M  V30 9926 C 1315.22 -4.8728 -5.41006 0
M  V30 9927 H 1315.26 -4.02333 -6.11157 0
M  V30 9928 H 1316.44 -5.39466 -3.69543 0
M  V30 9929 H 1317.92 -6.71916 -5.01943 0
M  V30 9930 H 1316.23 -7.4649 -6.93477 0
M  V30 9931 H 1316.04 -8.89416 -5.05237 0
M  V30 9932 H 1314.41 -8.14876 -5.18409 0
M  V30 9933 H 1317.05 -3.27957 -5.4317 0
M  V30 9934 P 1318.9 -5.75688 -6.64379 0
M  V30 9935 O 1320.33 -6.07627 -7.05504 0
M  V30 9936 O 1318.54 -5.88047 -5.19722 0
M  V30 9937 O 1318.58 -4.2322 -7.04443 0
M  V30 9938 C 1318.42 -3.99743 -8.4911 0
M  V30 9939 C 1318.96 -2.60516 -8.79425 0
M  V30 9940 O 1317.91 -1.82684 -8.4467 0
M  V30 9941 C 1320.18 -2.10343 -8.03628 0
M  V30 9942 O 1320.92 -1.09919 -8.67766 0
M  V30 9943 C 1319.51 -1.68446 -6.70876 0
M  V30 9944 O 1320.31 -0.678137 -6.08433 0
M  V30 9945 C 1318.17 -1.17436 -7.18567 0
M  V30 9946 H 1318.21 -0.0804732 -7.31656 0
M  V30 9947 H 1319.39 -2.54037 -6.02537 0
M  V30 9948 H 1320.87 -2.93881 -7.85526 0
M  V30 9949 H 1319.18 -2.53065 -9.86973 0
M  V30 9950 H 1318.99 -4.75072 -9.05887 0
M  V30 9951 H 1317.36 -4.05244 -8.76668 0
M  V30 9952 H 1320 0.177647 -6.34251 0
M  V30 9953 P 1321.86 -1.25109 -8.70152 0
M  V30 9954 O 1323.28 -1.29744 -9.22016 0
M  V30 9955 O 1321.5 -2.13714 -7.55141 0
M  V30 9956 O 1321.53 0.248149 -8.21425 0
M  V30 9957 C 1321.37 1.22779 -9.30434 0
M  V30 9958 C 1321.91 2.56293 -8.80664 0
M  V30 9959 O 1320.86 3.02979 -8.09349 0
M  V30 9960 C 1323.13 2.57523 -7.89775 0
M  V30 9961 O 1323.87 3.7668 -7.89438 0
M  V30 9962 C 1322.46 2.20997 -6.55446 0
M  V30 9963 O 1323.26 2.71895 -5.48509 0
M  V30 9964 C 1321.12 2.89693 -6.67988 0
M  V30 9965 H 1321.16 3.88793 -6.19859 0
M  V30 9966 H 1322.34 1.12046 -6.44229 0
M  V30 9967 H 1323.82 1.7746 -8.19711 0
M  V30 9968 H 1322.13 3.20706 -9.67112 0
M  V30 9969 H 1321.94 0.901032 -10.1892 0
M  V30 9970 H 1320.31 1.33049 -9.56592 0
M  V30 9971 H 1322.95 3.57847 -5.23962 0
M  V30 9972 P 1324.81 3.65191 -7.99657 0
M  V30 9973 O 1326.23 3.89374 -8.45885 0
M  V30 9974 O 1324.45 2.28472 -7.50807 0
M  V30 9975 O 1324.48 4.64972 -6.77611 0
M  V30 9976 C 1324.32 6.06383 -7.16428 0
M  V30 9977 C 1324.86 6.91731 -6.02299 0
M  V30 9978 O 1323.81 6.92369 -5.17005 0
M  V30 9979 C 1326.08 6.43627 -5.25174 0
M  V30 9980 O 1326.82 7.43686 -4.60469 0
M  V30 9981 C 1325.41 5.40275 -4.31916 0
M  V30 9982 O 1326.21 5.24878 -3.14911 0
M  V30 9983 C 1324.07 6.04847 -4.05327 0
M  V30 9984 N 1323.03 5.04166 -3.98114 0
M  V30 9985 C 1323.2 3.84629 -4.59066 0
M  V30 9986 N 1322.17 3.0363 -4.45343 0
M  V30 9987 C 1321.29 3.76722 -3.68523 0
M  V30 9988 C 1320.02 3.43528 -3.17088 0
M  V30 9989 N 1319.42 2.23665 -3.37397 0
M  V30 9990 N 1319.46 4.44526 -2.44231 0
M  V30 9991 C 1320.06 5.65243 -2.20146 0
M  V30 9992 N 1321.24 6.00221 -2.65453 0
M  V30 9993 C 1321.81 5.00564 -3.39083 0
M  V30 9994 H 1324.11 6.62104 -3.11218 0
M  V30 9995 H 1325.29 4.42969 -4.80867 0
M  V30 9996 H 1326.77 5.92458 -5.93643 0
M  V30 9997 H 1325.08 7.93295 -6.39407 0
M  V30 9998 H 1324.89 6.26671 -8.0846 0
M  V30 9999 H 1323.26 6.29101 -7.32804 0
M  V30 10000 H 1319.52 6.36894 -1.5883 0
M  V30 10001 H 1324.1 3.58193 -5.14248 0
M  V30 10002 H 1318.49 2.05145 -2.97047 0
M  V30 10003 H 1319.9 1.51255 -3.92998 0
M  V30 10004 H 1325.9 5.84223 -2.47279 0
M  V30 10005 P 1327.76 7.39546 -4.75277 0
M  V30 10006 O 1329.18 7.84798 -5.01039 0
M  V30 10007 O 1327.4 5.9812 -5.08098 0
M  V30 10008 O 1327.43 7.57503 -3.1866 0
M  V30 10009 C 1327.27 8.97357 -2.74833 0
M  V30 10010 C 1327.81 9.07548 -1.32709 0
M  V30 10011 O 1326.76 8.62072 -0.606159 0
M  V30 10012 C 1329.03 8.25383 -0.938334 0
M  V30 10013 O 1329.77 8.74577 0.146954 0
M  V30 10014 C 1328.36 6.8802 -0.712559 0
M  V30 10015 O 1329.16 6.1189 0.194655 0
M  V30 10016 C 1327.03 7.27966 -0.139777 0
M  V30 10017 H 1327.06 7.25354 0.961601 0
M  V30 10018 H 1328.24 6.32557 -1.65702 0
M  V30 10019 H 1329.72 8.19355 -1.79097 0
M  V30 10020 H 1328.03 10.1294 -1.10029 0
M  V30 10021 H 1327.84 9.64276 -3.41316 0
M  V30 10022 H 1326.21 9.25417 -2.76357 0
M  V30 10023 H 1328.85 6.25267 1.07847 0
M  V30 10024 P 1330.71 8.791 1.0718e-11 0
M  V30 10025 O 1332.13 9.31096 0.027933 0
M  V30 10026 O 1330.35 7.77869 -1.04071 0
M  V30 10027 O 1330.38 8.09533 1.41463 0
M  V30 10028 C 1330.22 9.0349 2.53943 0
M  V30 10029 C 1330.76 8.35226 3.79016 0
M  V30 10030 O 1329.71 7.57992 4.15078 0
M  V30 10031 C 1331.98 7.45087 3.67298 0
M  V30 10032 O 1332.72 7.27796 4.85194 0
M  V30 10033 C 1331.31 6.17323 3.12027 0
M  V30 10034 O 1332.11 5.04231 3.47188 0
M  V30 10035 C 1329.98 6.19961 3.81809 0
M  V30 10036 H 1330.01 5.58218 4.73051 0
M  V30 10037 H 1331.19 6.21726 2.02589 0
M  V30 10038 H 1332.68 7.86112 2.9231 0
M  V30 10039 H 1330.98 9.11627 4.55076 0
M  V30 10040 H 1330.79 9.9573 2.34194 0
M  V30 10041 H 1329.16 9.2792 2.67832 0
M  V30 10042 H 1331.8 4.67702 4.28772 0
M  V30 10043 P 1333.66 7.39546 4.75277 0
M  V30 10044 O 1335.08 7.81777 5.05738 0
M  V30 10045 O 1333.3 7.1065 3.32998 0
M  V30 10046 O 1333.33 6.04542 5.56673 0
M  V30 10047 C 1333.17 6.22772 7.02095 0
M  V30 10048 C 1333.71 4.97725 7.70406 0
M  V30 10049 O 1332.66 4.13256 7.58987 0
M  V30 10050 C 1334.93 4.28231 7.11815 0
M  V30 10051 O 1335.67 3.49945 8.01648 0
M  V30 10052 C 1334.26 3.5063 5.96244 0
M  V30 10053 O 1335.06 2.36482 5.64681 0
M  V30 10054 C 1332.93 3.15122 6.56374 0
M  V30 10055 H 1332.96 2.13853 6.99751 0
M  V30 10056 H 1334.14 4.13501 5.06559 0
M  V30 10057 H 1335.63 5.03285 6.70911 0
M  V30 10058 H 1333.93 5.20877 8.75697 0
M  V30 10059 H 1333.74 7.11046 7.35349 0
M  V30 10060 H 1332.11 6.35815 7.26986 0
M  V30 10061 H 1334.75 1.61644 6.13565 0
M  V30 10062 P 1336.61 3.65191 7.99657 0
M  V30 10063 O 1338.03 3.8425 8.48115 0
M  V30 10064 O 1336.25 4.17805 6.64342 0
M  V30 10065 O 1336.29 2.07613 7.95143 0
M  V30 10066 C 1336.13 1.44328 9.27336 0
M  V30 10067 C 1336.67 0.0220036 9.17197 0
M  V30 10068 O 1335.61 -0.626867 8.61923 0
M  V30 10069 C 1337.88 -0.24586 8.30336 0
M  V30 10070 O 1338.62 -1.39011 8.63583 0
M  V30 10071 C 1337.21 -0.273849 6.91158 0
M  V30 10072 O 1338.01 -1.06348 6.02892 0
M  V30 10073 C 1335.88 -0.897649 7.22545 0
M  V30 10074 H 1335.91 -1.9841 7.04286 0
M  V30 10075 H 1337.09 0.739928 6.497 0
M  V30 10076 H 1338.58 0.60668 8.36503 0
M  V30 10077 H 1336.88 -0.352479 10.1829 0
M  V30 10078 H 1336.69 2.00611 10.0304 0
M  V30 10079 H 1335.06 1.41843 9.55327 0
M  V30 10080 H 1337.7 -1.95734 6.03555 0
M  V30 10081 P 1339.56 -1.25109 8.70152 0
M  V30 10082 O 1340.98 -1.35274 9.21221 0
M  V30 10083 O 1339.2 -0.0769065 7.84762 0
M  V30 10084 O 1339.24 -2.55232 7.81161 0
M  V30 10085 C 1339.08 -3.79939 8.58154 0
M  V30 10086 C 1339.62 -4.94023 7.72785 0
M  V30 10087 O 1338.56 -5.18726 6.91205 0
M  V30 10088 C 1340.83 -4.69597 6.85231 0
M  V30 10089 O 1341.57 -5.83832 6.51337 0
M  V30 10090 C 1340.16 -3.96706 5.66633 0
M  V30 10091 O 1340.96 -4.15414 4.49689 0
M  V30 10092 C 1338.83 -4.66153 5.59313 0
M  V30 10093 H 1338.86 -5.47679 4.85214 0
M  V30 10094 H 1340.04 -2.89008 5.86566 0
M  V30 10095 H 1341.53 -4.0121 7.36511 0
M  V30 10096 H 1339.83 -5.80182 8.37584 0
M  V30 10097 H 1339.64 -3.73517 9.52265 0
M  V30 10098 H 1338.01 -3.97163 8.80359 0
M  V30 10099 H 1340.65 -4.90969 4.01921 0
M  V30 10100 P 1342.51 -5.75688 6.64379 0
M  V30 10101 O 1343.93 -6.11849 7.01846 0
M  V30 10102 O 1342.15 -4.30744 6.56026 0
M  V30 10103 O 1342.19 -6.37042 5.19165 0
M  V30 10104 C 1342.03 -7.83578 5.16515 0
M  V30 10105 C 1342.57 -8.33398 3.83019 0
M  V30 10106 O 1341.51 -8.10074 3.01034 0
M  V30 10107 C 1343.78 -7.65514 3.2257 0
M  V30 10108 O 1344.52 -8.4329 2.32297 0
M  V30 10109 C 1343.12 -6.40075 2.62207 0
M  V30 10110 O 1343.91 -5.92589 1.53712 0
M  V30 10111 C 1341.78 -6.9454 2.18503 0
M  V30 10112 H 1341.81 -7.23063 1.12091 0
M  V30 10113 H 1342.99 -5.6025 3.37201 0
M  V30 10114 H 1344.48 -7.35707 4.02681 0
M  V30 10115 H 1342.78 -9.40912 3.9095 0
M  V30 10116 H 1342.59 -8.29056 5.99158 0
M  V30 10117 H 1340.96 -8.10073 5.25882 0
M  V30 10118 H 1343.6 -6.30324 0.726794 0
M  V30 10119 P 1345.46 -8.4349 2.47671 0
M  V30 10120 O 1346.88 -8.94167 2.5964 0
M  V30 10121 O 1345.1 -7.1704 3.19006 0
M  V30 10122 O 1345.14 -8.16596 0.923387 0
M  V30 10123 C 1344.98 -9.38437 0.108857 0
M  V30 10124 C 1345.52 -9.08175 -1.28353 0
M  V30 10125 O 1344.46 -8.44229 -1.84713 0
M  V30 10126 C 1346.73 -8.18386 -1.42505 0
M  V30 10127 O 1347.47 -8.3501 -2.60497 0
M  V30 10128 C 1346.07 -6.80225 -1.25468 0
M  V30 10129 O 1346.86 -5.81621 -1.91066 0
M  V30 10130 C 1344.73 -7.02416 -1.9168 0
M  V30 10131 H 1344.76 -6.6888 -2.96621 0
M  V30 10132 H 1345.94 -6.53617 -0.192223 0
M  V30 10133 H 1347.43 -8.36622 -0.589963 0
M  V30 10134 H 1345.73 -10.0291 -1.79807 0
M  V30 10135 H 1345.54 -10.2138 0.558219 0
M  V30 10136 H 1343.91 -9.6579 0.0444202 0
M  V30 10137 H 1346.55 -5.69556 -2.79637 0
M  V30 10138 P 1348.41 -8.4349 -2.47671 0
M  V30 10139 O 1349.83 -8.92593 -2.65 0
M  V30 10140 O 1348.05 -7.7568 -1.19296 0
M  V30 10141 O 1348.09 -7.36886 -3.63805 0
M  V30 10142 C 1347.93 -7.95349 -4.982 0
M  V30 10143 C 1348.47 -6.94612 -5.98974 0
M  V30 10144 O 1347.41 -6.10347 -6.11815 0
M  V30 10145 C 1349.69 -6.11426 -5.62335 0
M  V30 10146 O 1350.42 -5.6162 -6.70584 0
M  V30 10147 C 1349.02 -5.04409 -4.73308 0
M  V30 10148 O 1349.82 -3.85992 -4.75183 0
M  V30 10149 C 1347.68 -4.8728 -5.41006 0
M  V30 10150 H 1347.71 -4.02333 -6.11157 0
M  V30 10151 H 1348.89 -5.39466 -3.69543 0
M  V30 10152 H 1350.38 -6.71916 -5.01943 0
M  V30 10153 H 1348.68 -7.4649 -6.93477 0
M  V30 10154 H 1348.49 -8.89416 -5.05237 0
M  V30 10155 H 1346.86 -8.14876 -5.18409 0
M  V30 10156 H 1349.5 -3.27957 -5.4317 0
M  V30 10157 P 1351.36 -5.75688 -6.64379 0
M  V30 10158 O 1352.78 -6.07627 -7.05504 0
M  V30 10159 O 1351 -5.88047 -5.19722 0
M  V30 10160 O 1351.04 -4.2322 -7.04443 0
M  V30 10161 C 1350.88 -3.99743 -8.4911 0
M  V30 10162 C 1351.42 -2.60516 -8.79425 0
M  V30 10163 O 1350.36 -1.82684 -8.4467 0
M  V30 10164 C 1352.64 -2.10343 -8.03628 0
M  V30 10165 O 1353.37 -1.09919 -8.67766 0
M  V30 10166 C 1351.97 -1.68446 -6.70876 0
M  V30 10167 O 1352.77 -0.678137 -6.08433 0
M  V30 10168 C 1350.63 -1.17436 -7.18567 0
M  V30 10169 H 1350.66 -0.0804732 -7.31656 0
M  V30 10170 H 1351.85 -2.54037 -6.02537 0
M  V30 10171 H 1353.33 -2.93881 -7.85526 0
M  V30 10172 H 1351.64 -2.53065 -9.86973 0
M  V30 10173 H 1351.45 -4.75072 -9.05887 0
M  V30 10174 H 1349.82 -4.05244 -8.76668 0
M  V30 10175 H 1352.45 0.177647 -6.34251 0
M  V30 10176 P 1354.31 -1.25109 -8.70152 0
M  V30 10177 O 1355.73 -1.29744 -9.22016 0
M  V30 10178 O 1353.95 -2.13714 -7.55141 0
M  V30 10179 O 1353.99 0.248149 -8.21425 0
M  V30 10180 C 1353.83 1.22779 -9.30434 0
M  V30 10181 C 1354.37 2.56293 -8.80664 0
M  V30 10182 O 1353.31 3.02979 -8.09349 0
M  V30 10183 C 1355.59 2.57523 -7.89775 0
M  V30 10184 O 1356.32 3.7668 -7.89438 0
M  V30 10185 C 1354.92 2.20997 -6.55446 0
M  V30 10186 O 1355.72 2.71895 -5.48509 0
M  V30 10187 C 1353.58 2.89693 -6.67988 0
M  V30 10188 H 1353.61 3.88793 -6.19859 0
M  V30 10189 H 1354.8 1.12046 -6.44229 0
M  V30 10190 H 1356.28 1.7746 -8.19711 0
M  V30 10191 H 1354.59 3.20706 -9.67112 0
M  V30 10192 H 1354.4 0.901032 -10.1892 0
M  V30 10193 H 1352.77 1.33049 -9.56592 0
M  V30 10194 H 1355.4 3.57847 -5.23962 0
M  V30 10195 P 1357.26 3.65191 -7.99657 0
M  V30 10196 O 1358.68 3.89332 -8.45794 0
M  V30 10197 O 1356.9 2.28472 -7.50807 0
M  V30 10198 O 1356.94 4.64972 -6.77611 0
M  V30 10199 C 1356.78 6.06319 -7.16352 0
M  V30 10200 C 1357.32 6.91731 -6.02299 0
M  V30 10201 O 1356.26 6.92449 -5.17064 0
M  V30 10202 C 1358.54 6.43627 -5.25174 0
M  V30 10203 O 1359.28 7.43686 -4.60469 0
M  V30 10204 C 1357.87 5.40275 -4.31916 0
M  V30 10205 O 1358.67 5.25279 -3.14438 0
M  V30 10206 C 1356.53 6.04847 -4.05327 0
M  V30 10207 H 1356.56 6.62195 -3.11261 0
M  V30 10208 H 1357.75 4.42556 -4.81383 0
M  V30 10209 H 1359.23 5.92458 -5.93643 0
M  V30 10210 H 1357.54 7.92655 -6.402 0
M  V30 10211 H 1357.35 6.26671 -8.0846 0
M  V30 10212 H 1355.72 6.29101 -7.32804 0
M  V30 10213 H 1358.36 5.84315 -2.47318 0
M  V30 10214 P 1360.21 7.39546 -4.75277 0
M  V30 10215 O 1361.63 7.84798 -5.01039 0
M  V30 10216 O 1359.85 5.9812 -5.08098 0
M  V30 10217 O 1359.89 7.57503 -3.1866 0
M  V30 10218 C 1359.73 8.97357 -2.74833 0
M  V30 10219 C 1360.27 9.07548 -1.32709 0
M  V30 10220 O 1359.21 8.62072 -0.606159 0
M  V30 10221 C 1361.49 8.25383 -0.938334 0
M  V30 10222 O 1362.23 8.74577 0.146954 0
M  V30 10223 C 1360.82 6.8802 -0.712559 0
M  V30 10224 O 1361.62 6.1189 0.194655 0
M  V30 10225 C 1359.48 7.27966 -0.139777 0
M  V30 10226 H 1359.51 7.25354 0.961601 0
M  V30 10227 H 1360.7 6.32557 -1.65702 0
M  V30 10228 H 1362.18 8.19355 -1.79097 0
M  V30 10229 H 1360.49 10.1294 -1.10029 0
M  V30 10230 H 1360.3 9.64276 -3.41316 0
M  V30 10231 H 1358.67 9.25417 -2.76357 0
M  V30 10232 H 1361.31 6.25267 1.07847 0
M  V30 10233 P 1363.16 8.791 1.10281e-11 0
M  V30 10234 O 1364.56 9.36698 -0.018734 0
M  V30 10235 O 1362.79 7.82499 -1.07878 0
M  V30 10236 O 1362.84 8.09434 1.41446 0
M  V30 10237 C 1362.68 9.0349 2.53943 0
M  V30 10238 C 1363.22 8.35135 3.78975 0
M  V30 10239 O 1362.16 7.57904 4.1503 0
M  V30 10240 C 1364.44 7.45087 3.67298 0
M  V30 10241 O 1365.18 7.27796 4.85194 0
M  V30 10242 C 1363.77 6.17323 3.12027 0
M  V30 10243 O 1364.57 5.04149 3.47132 0
M  V30 10244 C 1362.43 6.19961 3.81809 0
M  V30 10245 N 1361.39 5.71575 2.93223 0
M  V30 10246 C 1360.35 4.99452 3.47592 0
M  V30 10247 O 1360.39 4.7199 4.69732 0
M  V30 10248 N 1359.34 4.58505 2.6803 0
M  V30 10249 C 1359.39 4.85544 1.36995 0
M  V30 10250 C 1360.49 5.55532 0.788532 0
M  V30 10251 C 1361.45 5.97426 1.60849 0
M  V30 10252 H 1362.46 5.58142 4.72986 0
M  V30 10253 H 1363.65 6.21428 2.0318 0
M  V30 10254 H 1365.13 7.85913 2.93131 0
M  V30 10255 H 1363.44 9.11171 4.55987 0
M  V30 10256 H 1363.25 9.9573 2.34194 0
M  V30 10257 H 1361.62 9.27824 2.67805 0
M  V30 10258 H 1360.53 5.7421 -0.281588 0
M  V30 10259 H 1362.3 6.53132 1.202 0
M  V30 10260 H 1364.35 4.76386 4.34983 0
M  V30 10261 P 1366.11 7.39546 4.75277 0
M  V30 10262 O 1367.54 7.81777 5.05738 0
M  V30 10263 O 1365.75 7.1065 3.32998 0
M  V30 10264 O 1365.79 6.04542 5.56673 0
M  V30 10265 C 1365.63 6.22772 7.02095 0
M  V30 10266 C 1366.17 4.97725 7.70406 0
M  V30 10267 O 1365.11 4.13256 7.58987 0
M  V30 10268 C 1367.39 4.28231 7.11815 0
M  V30 10269 O 1368.13 3.49945 8.01648 0
M  V30 10270 C 1366.72 3.5063 5.96244 0
M  V30 10271 O 1367.52 2.36482 5.64681 0
M  V30 10272 C 1365.38 3.15122 6.56374 0
M  V30 10273 H 1365.41 2.13853 6.99751 0
M  V30 10274 H 1366.6 4.13501 5.06559 0
M  V30 10275 H 1368.08 5.03285 6.70911 0
M  V30 10276 H 1366.39 5.20877 8.75697 0
M  V30 10277 H 1366.2 7.11046 7.35349 0
M  V30 10278 H 1364.57 6.35815 7.26986 0
M  V30 10279 H 1367.21 1.61644 6.13565 0
M  V30 10280 P 1369.06 3.65191 7.99657 0
M  V30 10281 O 1370.47 3.90823 8.51272 0
M  V30 10282 O 1368.69 4.23191 6.66972 0
M  V30 10283 O 1368.74 2.07587 7.95046 0
M  V30 10284 C 1368.58 1.44328 9.27336 0
M  V30 10285 C 1369.12 0.0220012 9.17097 0
M  V30 10286 O 1368.07 -0.626794 8.61824 0
M  V30 10287 C 1370.34 -0.24586 8.30336 0
M  V30 10288 O 1371.08 -1.39011 8.63583 0
M  V30 10289 C 1369.67 -0.273849 6.91158 0
M  V30 10290 O 1370.47 -1.06331 6.02794 0
M  V30 10291 C 1368.33 -0.897649 7.22545 0
M  V30 10292 N 1367.29 -0.292839 6.41732 0
M  V30 10293 C 1366.26 -1.08701 5.98712 0
M  V30 10294 O 1366.29 -2.31211 6.24471 0
M  V30 10295 N 1365.24 -0.533391 5.28415 0
M  V30 10296 C 1365.29 0.770866 4.98576 0
M  V30 10297 C 1366.39 1.59049 5.38086 0
M  V30 10298 C 1367.35 1.01866 6.10256 0
M  V30 10299 H 1368.37 -1.98383 7.04189 0
M  V30 10300 H 1369.55 0.733318 6.49674 0
M  V30 10301 H 1371.03 0.598386 8.36663 0
M  V30 10302 H 1369.34 -0.362662 10.1825 0
M  V30 10303 H 1369.15 2.00611 10.0304 0
M  V30 10304 H 1367.52 1.41828 9.55228 0
M  V30 10305 H 1366.44 2.6415 5.10622 0
M  V30 10306 H 1368.2 1.61983 6.44042 0
M  V30 10307 H 1370.25 -1.97777 6.14035 0
M  V30 10308 P 1372.02 -1.25109 8.70152 0
M  V30 10309 O 1373.44 -1.35274 9.21221 0
M  V30 10310 O 1371.66 -0.0769065 7.84762 0
M  V30 10311 O 1371.69 -2.55232 7.81161 0
M  V30 10312 C 1371.53 -3.79939 8.58154 0
M  V30 10313 C 1372.07 -4.94023 7.72785 0
M  V30 10314 O 1371.02 -5.18726 6.91205 0
M  V30 10315 C 1373.29 -4.69597 6.85231 0
M  V30 10316 O 1374.03 -5.83832 6.51337 0
M  V30 10317 C 1372.62 -3.96706 5.66633 0
M  V30 10318 O 1373.42 -4.15414 4.49689 0
M  V30 10319 C 1371.28 -4.66153 5.59313 0
M  V30 10320 H 1371.32 -5.47679 4.85214 0
M  V30 10321 H 1372.5 -2.89008 5.86566 0
M  V30 10322 H 1373.98 -4.0121 7.36511 0
M  V30 10323 H 1372.29 -5.80182 8.37584 0
M  V30 10324 H 1372.1 -3.73517 9.52265 0
M  V30 10325 H 1370.47 -3.97163 8.80359 0
M  V30 10326 H 1373.11 -4.90969 4.01921 0
M  V30 10327 P 1374.97 -5.75688 6.64379 0
M  V30 10328 O 1376.39 -6.11849 7.01846 0
M  V30 10329 O 1374.61 -4.30744 6.56026 0
M  V30 10330 O 1374.64 -6.37042 5.19165 0
M  V30 10331 C 1374.48 -7.83578 5.16515 0
M  V30 10332 C 1375.02 -8.33398 3.83019 0
M  V30 10333 O 1373.97 -8.10074 3.01034 0
M  V30 10334 C 1376.24 -7.65514 3.2257 0
M  V30 10335 O 1376.98 -8.4329 2.32297 0
M  V30 10336 C 1375.57 -6.40075 2.62207 0
M  V30 10337 O 1376.37 -5.92589 1.53712 0
M  V30 10338 C 1374.23 -6.9454 2.18503 0
M  V30 10339 H 1374.27 -7.23063 1.12091 0
M  V30 10340 H 1375.45 -5.6025 3.37201 0
M  V30 10341 H 1376.93 -7.35707 4.02681 0
M  V30 10342 H 1375.24 -9.40912 3.9095 0
M  V30 10343 H 1375.05 -8.29056 5.99158 0
M  V30 10344 H 1373.42 -8.10073 5.25882 0
M  V30 10345 H 1376.06 -6.30324 0.726794 0
M  V30 10346 P 1377.92 -8.4349 2.47671 0
M  V30 10347 O 1379.34 -8.94263 2.59668 0
M  V30 10348 O 1377.56 -7.1704 3.19006 0
M  V30 10349 O 1377.59 -8.16596 0.923387 0
M  V30 10350 C 1377.43 -9.38537 0.108869 0
M  V30 10351 C 1377.97 -9.08175 -1.28353 0
M  V30 10352 O 1376.92 -8.44131 -1.84692 0
M  V30 10353 C 1379.19 -8.18386 -1.42505 0
M  V30 10354 O 1379.93 -8.3501 -2.60497 0
M  V30 10355 C 1378.52 -6.80225 -1.25468 0
M  V30 10356 O 1379.32 -5.81716 -1.90454 0
M  V30 10357 C 1377.19 -7.02416 -1.9168 0
M  V30 10358 N 1376.14 -6.31033 -1.20314 0
M  V30 10359 C 1376.31 -5.98817 0.0994088 0
M  V30 10360 N 1375.28 -5.35403 0.621694 0
M  V30 10361 C 1374.4 -5.25212 -0.43376 0
M  V30 10362 C 1373.13 -4.64602 -0.519722 0
M  V30 10363 N 1372.57 -4.7568 -1.76013 0
M  V30 10364 C 1373.17 -5.3653 -2.83017 0
M  V30 10365 N 1374.35 -5.93676 -2.79782 0
M  V30 10366 C 1374.92 -5.84061 -1.56249 0
M  V30 10367 H 1378.4 -6.53498 -0.198729 0
M  V30 10368 H 1379.88 -8.36622 -0.589963 0
M  V30 10369 H 1378.19 -10.0273 -1.8081 0
M  V30 10370 H 1378 -10.2138 0.558219 0
M  V30 10371 H 1376.37 -9.6579 0.0444202 0
M  V30 10372 H 1377.21 -6.23209 0.660562 0
M  V30 10373 H 1379.01 -5.69466 -2.79593 0
M  V30 10374 P 1380.87 -8.4349 -2.47671 0
M  V30 10375 O 1382.29 -8.92593 -2.65 0
M  V30 10376 O 1380.51 -7.7568 -1.19296 0
M  V30 10377 O 1380.54 -7.36886 -3.63805 0
M  V30 10378 C 1380.38 -7.95349 -4.982 0
M  V30 10379 C 1380.92 -6.94612 -5.98974 0
M  V30 10380 O 1379.87 -6.10347 -6.11815 0
M  V30 10381 C 1382.14 -6.11426 -5.62335 0
M  V30 10382 O 1382.88 -5.6162 -6.70584 0
M  V30 10383 C 1381.47 -5.04409 -4.73308 0
M  V30 10384 O 1382.27 -3.85992 -4.75183 0
M  V30 10385 C 1380.14 -4.8728 -5.41006 0
M  V30 10386 H 1380.17 -4.02333 -6.11157 0
M  V30 10387 H 1381.35 -5.39466 -3.69543 0
M  V30 10388 H 1382.83 -6.71916 -5.01943 0
M  V30 10389 H 1381.14 -7.4649 -6.93477 0
M  V30 10390 H 1380.95 -8.89416 -5.05237 0
M  V30 10391 H 1379.32 -8.14876 -5.18409 0
M  V30 10392 H 1381.96 -3.27957 -5.4317 0
M  V30 10393 P 1383.82 -5.75688 -6.64379 0
M  V30 10394 O 1385.24 -6.07627 -7.05504 0
M  V30 10395 O 1383.46 -5.88047 -5.19722 0
M  V30 10396 O 1383.49 -4.2322 -7.04443 0
M  V30 10397 C 1383.33 -3.99743 -8.4911 0
M  V30 10398 C 1383.87 -2.60516 -8.79425 0
M  V30 10399 O 1382.82 -1.82684 -8.4467 0
M  V30 10400 C 1385.09 -2.10343 -8.03628 0
M  V30 10401 O 1385.83 -1.09919 -8.67766 0
M  V30 10402 C 1384.42 -1.68446 -6.70876 0
M  V30 10403 O 1385.22 -0.678137 -6.08433 0
M  V30 10404 C 1383.09 -1.17436 -7.18567 0
M  V30 10405 H 1383.12 -0.0804732 -7.31656 0
M  V30 10406 H 1384.3 -2.54037 -6.02537 0
M  V30 10407 H 1385.79 -2.93881 -7.85526 0
M  V30 10408 H 1384.09 -2.53065 -9.86973 0
M  V30 10409 H 1383.9 -4.75072 -9.05887 0
M  V30 10410 H 1382.27 -4.05244 -8.76668 0
M  V30 10411 H 1384.91 0.177647 -6.34251 0
M  V30 10412 P 1386.77 -1.25109 -8.70152 0
M  V30 10413 O 1388.19 -1.29744 -9.22016 0
M  V30 10414 O 1386.41 -2.13714 -7.55141 0
M  V30 10415 O 1386.44 0.248149 -8.21425 0
M  V30 10416 C 1386.28 1.22779 -9.30434 0
M  V30 10417 C 1386.82 2.56293 -8.80664 0
M  V30 10418 O 1385.77 3.02979 -8.09349 0
M  V30 10419 C 1388.04 2.57523 -7.89775 0
M  V30 10420 O 1388.78 3.7668 -7.89438 0
M  V30 10421 C 1387.37 2.20997 -6.55446 0
M  V30 10422 O 1388.17 2.71895 -5.48509 0
M  V30 10423 C 1386.04 2.89693 -6.67988 0
M  V30 10424 H 1386.07 3.88793 -6.19859 0
M  V30 10425 H 1387.25 1.12046 -6.44229 0
M  V30 10426 H 1388.74 1.7746 -8.19711 0
M  V30 10427 H 1387.04 3.20706 -9.67112 0
M  V30 10428 H 1386.85 0.901032 -10.1892 0
M  V30 10429 H 1385.22 1.33049 -9.56592 0
M  V30 10430 H 1387.86 3.57847 -5.23962 0
M  V30 10431 P 1389.72 3.65191 -7.99657 0
M  V30 10432 O 1391.14 3.89332 -8.45794 0
M  V30 10433 O 1389.36 2.28472 -7.50807 0
M  V30 10434 O 1389.4 4.64972 -6.77611 0
M  V30 10435 C 1389.24 6.06319 -7.16352 0
M  V30 10436 C 1389.78 6.91731 -6.02299 0
M  V30 10437 O 1388.72 6.92449 -5.17064 0
M  V30 10438 C 1390.99 6.43627 -5.25174 0
M  V30 10439 O 1391.73 7.43686 -4.60469 0
M  V30 10440 C 1390.32 5.40275 -4.31916 0
M  V30 10441 O 1391.12 5.25279 -3.14438 0
M  V30 10442 C 1388.99 6.04847 -4.05327 0
M  V30 10443 H 1389.02 6.62195 -3.11261 0
M  V30 10444 H 1390.2 4.42556 -4.81383 0
M  V30 10445 H 1391.69 5.92458 -5.93643 0
M  V30 10446 H 1389.99 7.92655 -6.402 0
M  V30 10447 H 1389.8 6.26671 -8.0846 0
M  V30 10448 H 1388.17 6.29101 -7.32804 0
M  V30 10449 H 1390.81 5.84315 -2.47318 0
M  V30 10450 P 1392.67 7.39546 -4.75277 0
M  V30 10451 O 1394.09 7.84798 -5.01039 0
M  V30 10452 O 1392.31 5.9812 -5.08098 0
M  V30 10453 O 1392.35 7.57503 -3.1866 0
M  V30 10454 C 1392.19 8.97357 -2.74833 0
M  V30 10455 C 1392.73 9.07548 -1.32709 0
M  V30 10456 O 1391.67 8.62072 -0.606159 0
M  V30 10457 C 1393.94 8.25383 -0.938334 0
M  V30 10458 O 1394.68 8.74577 0.146954 0
M  V30 10459 C 1393.28 6.8802 -0.712559 0
M  V30 10460 O 1394.07 6.1189 0.194655 0
M  V30 10461 C 1391.94 7.27966 -0.139777 0
M  V30 10462 H 1391.97 7.25354 0.961601 0
M  V30 10463 H 1393.15 6.32557 -1.65702 0
M  V30 10464 H 1394.64 8.19355 -1.79097 0
M  V30 10465 H 1392.94 10.1294 -1.10029 0
M  V30 10466 H 1392.75 9.64276 -3.41316 0
M  V30 10467 H 1391.12 9.25417 -2.76357 0
M  V30 10468 H 1393.76 6.25267 1.07847 0
M  V30 10469 P 1395.62 8.791 1.13383e-11 0
M  V30 10470 O 1397.04 9.31096 0.027933 0
M  V30 10471 O 1395.26 7.77869 -1.04071 0
M  V30 10472 O 1395.3 8.09533 1.41463 0
M  V30 10473 C 1395.14 9.0349 2.53943 0
M  V30 10474 C 1395.68 8.35226 3.79016 0
M  V30 10475 O 1394.62 7.57992 4.15078 0
M  V30 10476 C 1396.89 7.45087 3.67298 0
M  V30 10477 O 1397.63 7.27796 4.85194 0
M  V30 10478 C 1396.23 6.17323 3.12027 0
M  V30 10479 O 1397.02 5.04231 3.47188 0
M  V30 10480 C 1394.89 6.19961 3.81809 0
M  V30 10481 H 1394.92 5.58218 4.73051 0
M  V30 10482 H 1396.1 6.21726 2.02589 0
M  V30 10483 H 1397.59 7.86112 2.9231 0
M  V30 10484 H 1395.89 9.11627 4.55076 0
M  V30 10485 H 1395.7 9.9573 2.34194 0
M  V30 10486 H 1394.07 9.2792 2.67832 0
M  V30 10487 H 1396.71 4.67702 4.28772 0
M  V30 10488 P 1398.57 7.39546 4.75277 0
M  V30 10489 O 1399.99 7.81777 5.05738 0
M  V30 10490 O 1398.21 7.1065 3.32998 0
M  V30 10491 O 1398.25 6.04542 5.56673 0
M  V30 10492 C 1398.09 6.22772 7.02095 0
M  V30 10493 C 1398.63 4.97725 7.70406 0
M  V30 10494 O 1397.57 4.13256 7.58987 0
M  V30 10495 C 1399.85 4.28231 7.11815 0
M  V30 10496 O 1400.58 3.49945 8.01648 0
M  V30 10497 C 1399.18 3.5063 5.96244 0
M  V30 10498 O 1399.98 2.36482 5.64681 0
M  V30 10499 C 1397.84 3.15122 6.56374 0
M  V30 10500 H 1397.87 2.13853 6.99751 0
M  V30 10501 H 1399.05 4.13501 5.06559 0
M  V30 10502 H 1400.54 5.03285 6.70911 0
M  V30 10503 H 1398.84 5.20877 8.75697 0
M  V30 10504 H 1398.65 7.11046 7.35349 0
M  V30 10505 H 1397.02 6.35815 7.26986 0
M  V30 10506 H 1399.66 1.61644 6.13565 0
M  V30 10507 P 1401.52 3.65191 7.99657 0
M  V30 10508 O 1402.94 3.84292 8.48206 0
M  V30 10509 O 1401.16 4.17805 6.64342 0
M  V30 10510 O 1401.2 2.07613 7.95143 0
M  V30 10511 C 1401.04 1.44344 9.27435 0
M  V30 10512 C 1401.58 0.0220036 9.17197 0
M  V30 10513 O 1400.52 -0.626794 8.61824 0
M  V30 10514 C 1402.8 -0.24586 8.30336 0
M  V30 10515 O 1403.53 -1.39011 8.63583 0
M  V30 10516 C 1402.13 -0.273849 6.91158 0
M  V30 10517 O 1402.93 -1.05728 6.029 0
M  V30 10518 C 1400.79 -0.897649 7.22545 0
M  V30 10519 N 1399.75 -0.292839 6.41732 0
M  V30 10520 C 1399.92 0.950603 5.91308 0
M  V30 10521 N 1398.89 1.37732 5.21105 0
M  V30 10522 C 1398 0.318109 5.26039 0
M  V30 10523 C 1396.74 0.146766 4.6727 0
M  V30 10524 N 1396.17 -1.06525 4.95887 0
M  V30 10525 C 1396.77 -2.0378 5.71347 0
M  V30 10526 N 1397.95 -1.92445 6.27451 0
M  V30 10527 C 1398.53 -0.715382 6.00353 0
M  V30 10528 H 1402 0.733318 6.49674 0
M  V30 10529 H 1403.49 0.60668 8.36503 0
M  V30 10530 H 1401.79 -0.362662 10.1825 0
M  V30 10531 H 1401.6 2.00611 10.0304 0
M  V30 10532 H 1399.97 1.41843 9.55327 0
M  V30 10533 H 1400.82 1.54076 6.07465 0
M  V30 10534 H 1402.61 -1.95704 6.0346 0
M  V30 10535 P 1404.47 -1.25109 8.70152 0
M  V30 10536 O 1405.89 -1.35288 9.2132 0
M  V30 10537 O 1404.11 -0.0769065 7.84762 0
M  V30 10538 O 1404.15 -2.55232 7.81161 0
M  V30 10539 C 1403.99 -3.79979 8.58246 0
M  V30 10540 C 1404.53 -4.94023 7.72785 0
M  V30 10541 O 1403.47 -5.18666 6.91125 0
M  V30 10542 C 1405.75 -4.69597 6.85231 0
M  V30 10543 O 1406.48 -5.83832 6.51337 0
M  V30 10544 C 1405.08 -3.96706 5.66633 0
M  V30 10545 O 1405.88 -4.14896 4.5003 0
M  V30 10546 C 1403.74 -4.66153 5.59313 0
M  V30 10547 N 1402.7 -3.71582 5.24027 0
M  V30 10548 C 1402.87 -2.39715 5.48833 0
M  V30 10549 N 1401.84 -1.65863 5.12845 0
M  V30 10550 C 1400.95 -2.57637 4.5973 0
M  V30 10551 C 1399.69 -2.40278 4.01027 0
M  V30 10552 N 1399.09 -1.19549 3.86744 0
M  V30 10553 N 1399.12 -3.57711 3.59575 0
M  V30 10554 C 1399.72 -4.80324 3.70476 0
M  V30 10555 N 1400.9 -5.01121 4.23801 0
M  V30 10556 C 1401.48 -3.84757 4.66372 0
M  V30 10557 H 1403.77 -5.47604 4.85148 0
M  V30 10558 H 1404.96 -2.8955 5.86187 0
M  V30 10559 H 1406.44 -4.0121 7.36511 0
M  V30 10560 H 1404.74 -5.81019 8.37003 0
M  V30 10561 H 1404.55 -3.73517 9.52265 0
M  V30 10562 H 1402.92 -3.97163 8.80359 0
M  V30 10563 H 1399.19 -5.66348 3.3183 0
M  V30 10564 H 1403.77 -1.98804 5.94332 0
M  V30 10565 H 1398.16 -1.13147 3.4281 0
M  V30 10566 H 1399.56 -0.344074 4.19692 0
M  V30 10567 H 1405.56 -4.90891 4.01857 0
M  V30 10568 P 1407.42 -5.75688 6.64379 0
M  V30 10569 O 1408.84 -6.11849 7.01846 0
M  V30 10570 O 1407.06 -4.30744 6.56026 0
M  V30 10571 O 1407.1 -6.37042 5.19165 0
M  V30 10572 C 1406.94 -7.83578 5.16515 0
M  V30 10573 C 1407.48 -8.33398 3.83019 0
M  V30 10574 O 1406.42 -8.10074 3.01034 0
M  V30 10575 C 1408.7 -7.65514 3.2257 0
M  V30 10576 O 1409.43 -8.4329 2.32297 0
M  V30 10577 C 1408.03 -6.40075 2.62207 0
M  V30 10578 O 1408.83 -5.92589 1.53712 0
M  V30 10579 C 1406.69 -6.9454 2.18503 0
M  V30 10580 H 1406.72 -7.23063 1.12091 0
M  V30 10581 H 1407.91 -5.6025 3.37201 0
M  V30 10582 H 1409.39 -7.35707 4.02681 0
M  V30 10583 H 1407.7 -9.40912 3.9095 0
M  V30 10584 H 1407.51 -8.29056 5.99158 0
M  V30 10585 H 1405.88 -8.10073 5.25882 0
M  V30 10586 H 1408.51 -6.30324 0.726794 0
M  V30 10587 P 1410.37 -8.4349 2.47671 0
M  V30 10588 O 1411.79 -8.94167 2.5964 0
M  V30 10589 O 1410.01 -7.1704 3.19006 0
M  V30 10590 O 1410.05 -8.16596 0.923387 0
M  V30 10591 C 1409.89 -9.38437 0.108857 0
M  V30 10592 C 1410.43 -9.08175 -1.28353 0
M  V30 10593 O 1409.37 -8.44229 -1.84713 0
M  V30 10594 C 1411.65 -8.18386 -1.42505 0
M  V30 10595 O 1412.39 -8.3501 -2.60497 0
M  V30 10596 C 1410.98 -6.80225 -1.25468 0
M  V30 10597 O 1411.78 -5.81621 -1.91066 0
M  V30 10598 C 1409.64 -7.02416 -1.9168 0
M  V30 10599 H 1409.67 -6.6888 -2.96621 0
M  V30 10600 H 1410.86 -6.53617 -0.192223 0
M  V30 10601 H 1412.34 -8.36622 -0.589963 0
M  V30 10602 H 1410.65 -10.0291 -1.79807 0
M  V30 10603 H 1410.46 -10.2138 0.558219 0
M  V30 10604 H 1408.83 -9.6579 0.0444202 0
M  V30 10605 H 1411.47 -5.69556 -2.79637 0
M  V30 10606 P 1413.32 -8.4349 -2.47671 0
M  V30 10607 O 1414.75 -8.92593 -2.65 0
M  V30 10608 O 1412.96 -7.7568 -1.19296 0
M  V30 10609 O 1413 -7.36886 -3.63805 0
M  V30 10610 C 1412.84 -7.95349 -4.982 0
M  V30 10611 C 1413.38 -6.94612 -5.98974 0
M  V30 10612 O 1412.32 -6.10347 -6.11815 0
M  V30 10613 C 1414.6 -6.11426 -5.62335 0
M  V30 10614 O 1415.34 -5.6162 -6.70584 0
M  V30 10615 C 1413.93 -5.04409 -4.73308 0
M  V30 10616 O 1414.73 -3.85992 -4.75183 0
M  V30 10617 C 1412.59 -4.8728 -5.41006 0
M  V30 10618 H 1412.62 -4.02333 -6.11157 0
M  V30 10619 H 1413.81 -5.39466 -3.69543 0
M  V30 10620 H 1415.29 -6.71916 -5.01943 0
M  V30 10621 H 1413.6 -7.4649 -6.93477 0
M  V30 10622 H 1413.41 -8.89416 -5.05237 0
M  V30 10623 H 1411.78 -8.14876 -5.18409 0
M  V30 10624 H 1414.42 -3.27957 -5.4317 0
M  V30 10625 P 1416.27 -5.75688 -6.64379 0
M  V30 10626 O 1417.7 -6.07627 -7.05504 0
M  V30 10627 O 1415.91 -5.88047 -5.19722 0
M  V30 10628 O 1415.95 -4.2322 -7.04443 0
M  V30 10629 C 1415.79 -3.99743 -8.4911 0
M  V30 10630 C 1416.33 -2.60516 -8.79425 0
M  V30 10631 O 1415.27 -1.82684 -8.4467 0
M  V30 10632 C 1417.55 -2.10343 -8.03628 0
M  V30 10633 O 1418.29 -1.09919 -8.67766 0
M  V30 10634 C 1416.88 -1.68446 -6.70876 0
M  V30 10635 O 1417.68 -0.678137 -6.08433 0
M  V30 10636 C 1415.54 -1.17436 -7.18567 0
M  V30 10637 H 1415.57 -0.0804732 -7.31656 0
M  V30 10638 H 1416.76 -2.54037 -6.02537 0
M  V30 10639 H 1418.24 -2.93881 -7.85526 0
M  V30 10640 H 1416.55 -2.53065 -9.86973 0
M  V30 10641 H 1416.36 -4.75072 -9.05887 0
M  V30 10642 H 1414.73 -4.05244 -8.76668 0
M  V30 10643 H 1417.37 0.177647 -6.34251 0
M  V30 10644 P 1419.22 -1.25109 -8.70152 0
M  V30 10645 O 1420.65 -1.29744 -9.22016 0
M  V30 10646 O 1418.86 -2.13714 -7.55141 0
M  V30 10647 O 1418.9 0.248149 -8.21425 0
M  V30 10648 C 1418.74 1.22779 -9.30434 0
M  V30 10649 C 1419.28 2.56293 -8.80664 0
M  V30 10650 O 1418.23 3.02979 -8.09349 0
M  V30 10651 C 1420.5 2.57523 -7.89775 0
M  V30 10652 O 1421.24 3.7668 -7.89438 0
M  V30 10653 C 1419.83 2.20997 -6.55446 0
M  V30 10654 O 1420.63 2.71895 -5.48509 0
M  V30 10655 C 1418.49 2.89693 -6.67988 0
M  V30 10656 H 1418.53 3.88793 -6.19859 0
M  V30 10657 H 1419.71 1.12046 -6.44229 0
M  V30 10658 H 1421.19 1.7746 -8.19711 0
M  V30 10659 H 1419.5 3.20706 -9.67112 0
M  V30 10660 H 1419.31 0.901032 -10.1892 0
M  V30 10661 H 1417.68 1.33049 -9.56592 0
M  V30 10662 H 1420.32 3.57847 -5.23962 0
M  V30 10663 P 1422.17 3.65191 -7.99657 0
M  V30 10664 O 1423.6 3.89332 -8.45794 0
M  V30 10665 O 1421.81 2.28472 -7.50807 0
M  V30 10666 O 1421.85 4.64972 -6.77611 0
M  V30 10667 C 1421.69 6.06319 -7.16352 0
M  V30 10668 C 1422.23 6.91731 -6.02299 0
M  V30 10669 O 1421.18 6.92449 -5.17064 0
M  V30 10670 C 1423.45 6.43627 -5.25174 0
M  V30 10671 O 1424.19 7.43686 -4.60469 0
M  V30 10672 C 1422.78 5.40275 -4.31916 0
M  V30 10673 O 1423.58 5.25279 -3.14438 0
M  V30 10674 C 1421.44 6.04847 -4.05327 0
M  V30 10675 H 1421.48 6.62195 -3.11261 0
M  V30 10676 H 1422.66 4.42556 -4.81383 0
M  V30 10677 H 1424.14 5.92458 -5.93643 0
M  V30 10678 H 1422.45 7.92655 -6.402 0
M  V30 10679 H 1422.26 6.26671 -8.0846 0
M  V30 10680 H 1420.63 6.29101 -7.32804 0
M  V30 10681 H 1423.27 5.84315 -2.47318 0
M  V30 10682 P 1425.13 7.39546 -4.75277 0
M  V30 10683 O 1426.55 7.84798 -5.01039 0
M  V30 10684 O 1424.77 5.9812 -5.08098 0
M  V30 10685 O 1424.8 7.57503 -3.1866 0
M  V30 10686 C 1424.64 8.97357 -2.74833 0
M  V30 10687 C 1425.18 9.07548 -1.32709 0
M  V30 10688 O 1424.13 8.62072 -0.606159 0
M  V30 10689 C 1426.4 8.25383 -0.938334 0
M  V30 10690 O 1427.14 8.74577 0.146954 0
M  V30 10691 C 1425.73 6.8802 -0.712559 0
M  V30 10692 O 1426.53 6.1189 0.194655 0
M  V30 10693 C 1424.39 7.27966 -0.139777 0
M  V30 10694 H 1424.43 7.25354 0.961601 0
M  V30 10695 H 1425.61 6.32557 -1.65702 0
M  V30 10696 H 1427.09 8.19355 -1.79097 0
M  V30 10697 H 1425.4 10.1294 -1.10029 0
M  V30 10698 H 1425.21 9.64276 -3.41316 0
M  V30 10699 H 1423.58 9.25417 -2.76357 0
M  V30 10700 H 1426.22 6.25267 1.07847 0
M  V30 10701 P 1428.08 8.791 1.16485e-11 0
M  V30 10702 O 1429.5 9.31096 0.027933 0
M  V30 10703 O 1427.72 7.77869 -1.04071 0
M  V30 10704 O 1427.75 8.09533 1.41463 0
M  V30 10705 C 1427.59 9.0349 2.53943 0
M  V30 10706 C 1428.13 8.35226 3.79016 0
M  V30 10707 O 1427.08 7.57992 4.15078 0
M  V30 10708 C 1429.35 7.45087 3.67298 0
M  V30 10709 O 1430.09 7.27796 4.85194 0
M  V30 10710 C 1428.68 6.17323 3.12027 0
M  V30 10711 O 1429.48 5.04231 3.47188 0
M  V30 10712 C 1427.34 6.19961 3.81809 0
M  V30 10713 H 1427.38 5.58218 4.73051 0
M  V30 10714 H 1428.56 6.21726 2.02589 0
M  V30 10715 H 1430.04 7.86112 2.9231 0
M  V30 10716 H 1428.35 9.11627 4.55076 0
M  V30 10717 H 1428.16 9.9573 2.34194 0
M  V30 10718 H 1426.53 9.2792 2.67832 0
M  V30 10719 H 1429.17 4.67702 4.28772 0
M  V30 10720 P 1431.03 7.39546 4.75277 0
M  V30 10721 O 1432.45 7.81777 5.05738 0
M  V30 10722 O 1430.67 7.1065 3.32998 0
M  V30 10723 O 1430.7 6.04542 5.56673 0
M  V30 10724 C 1430.54 6.22772 7.02095 0
M  V30 10725 C 1431.08 4.97725 7.70406 0
M  V30 10726 O 1430.03 4.13256 7.58987 0
M  V30 10727 C 1432.3 4.28231 7.11815 0
M  V30 10728 O 1433.04 3.49945 8.01648 0
M  V30 10729 C 1431.63 3.5063 5.96244 0
M  V30 10730 O 1432.43 2.36482 5.64681 0
M  V30 10731 C 1430.3 3.15122 6.56374 0
M  V30 10732 H 1430.33 2.13853 6.99751 0
M  V30 10733 H 1431.51 4.13501 5.06559 0
M  V30 10734 H 1432.99 5.03285 6.70911 0
M  V30 10735 H 1431.3 5.20877 8.75697 0
M  V30 10736 H 1431.11 7.11046 7.35349 0
M  V30 10737 H 1429.48 6.35815 7.26986 0
M  V30 10738 H 1432.12 1.61644 6.13565 0
M  V30 10739 P 1433.98 3.65191 7.99657 0
M  V30 10740 O 1435.4 3.8425 8.48115 0
M  V30 10741 O 1433.62 4.17805 6.64342 0
M  V30 10742 O 1433.65 2.07613 7.95143 0
M  V30 10743 C 1433.49 1.44328 9.27336 0
M  V30 10744 C 1434.03 0.0220036 9.17197 0
M  V30 10745 O 1432.98 -0.626867 8.61923 0
M  V30 10746 C 1435.25 -0.24586 8.30336 0
M  V30 10747 O 1435.99 -1.39011 8.63583 0
M  V30 10748 C 1434.58 -0.273849 6.91158 0
M  V30 10749 O 1435.38 -1.06348 6.02892 0
M  V30 10750 C 1433.25 -0.897649 7.22545 0
M  V30 10751 H 1433.28 -1.9841 7.04286 0
M  V30 10752 H 1434.46 0.739928 6.497 0
M  V30 10753 H 1435.95 0.60668 8.36503 0
M  V30 10754 H 1434.25 -0.352479 10.1829 0
M  V30 10755 H 1434.06 2.00611 10.0304 0
M  V30 10756 H 1432.43 1.41843 9.55327 0
M  V30 10757 H 1435.07 -1.95734 6.03555 0
M  V30 10758 P 1436.93 -1.25109 8.70152 0
M  V30 10759 O 1438.35 -1.35274 9.21221 0
M  V30 10760 O 1436.57 -0.0769065 7.84762 0
M  V30 10761 O 1436.6 -2.55232 7.81161 0
M  V30 10762 C 1436.44 -3.79939 8.58154 0
M  V30 10763 C 1436.98 -4.94023 7.72785 0
M  V30 10764 O 1435.93 -5.18726 6.91205 0
M  V30 10765 C 1438.2 -4.69597 6.85231 0
M  V30 10766 O 1438.94 -5.83832 6.51337 0
M  V30 10767 C 1437.53 -3.96706 5.66633 0
M  V30 10768 O 1438.33 -4.15414 4.49689 0
M  V30 10769 C 1436.2 -4.66153 5.59313 0
M  V30 10770 H 1436.23 -5.47679 4.85214 0
M  V30 10771 H 1437.41 -2.89008 5.86566 0
M  V30 10772 H 1438.9 -4.0121 7.36511 0
M  V30 10773 H 1437.2 -5.80182 8.37584 0
M  V30 10774 H 1437.01 -3.73517 9.52265 0
M  V30 10775 H 1435.38 -3.97163 8.80359 0
M  V30 10776 H 1438.02 -4.90969 4.01921 0
M  V30 10777 P 1439.88 -5.75688 6.64379 0
M  V30 10778 O 1441.3 -6.11849 7.01846 0
M  V30 10779 O 1439.52 -4.30744 6.56026 0
M  V30 10780 O 1439.56 -6.37042 5.19165 0
M  V30 10781 C 1439.4 -7.83578 5.16515 0
M  V30 10782 C 1439.94 -8.33398 3.83019 0
M  V30 10783 O 1438.88 -8.10074 3.01034 0
M  V30 10784 C 1441.15 -7.65514 3.2257 0
M  V30 10785 O 1441.89 -8.4329 2.32297 0
M  V30 10786 C 1440.48 -6.40075 2.62207 0
M  V30 10787 O 1441.28 -5.92589 1.53712 0
M  V30 10788 C 1439.15 -6.9454 2.18503 0
M  V30 10789 H 1439.18 -7.23063 1.12091 0
M  V30 10790 H 1440.36 -5.6025 3.37201 0
M  V30 10791 H 1441.85 -7.35707 4.02681 0
M  V30 10792 H 1440.15 -9.40912 3.9095 0
M  V30 10793 H 1439.96 -8.29056 5.99158 0
M  V30 10794 H 1438.33 -8.10073 5.25882 0
M  V30 10795 H 1440.97 -6.30324 0.726794 0
M  V30 10796 P 1442.83 -8.4349 2.47671 0
M  V30 10797 O 1444.25 -8.94167 2.5964 0
M  V30 10798 O 1442.47 -7.1704 3.19006 0
M  V30 10799 O 1442.51 -8.16596 0.923387 0
M  V30 10800 C 1442.35 -9.38437 0.108857 0
M  V30 10801 C 1442.89 -9.08175 -1.28353 0
M  V30 10802 O 1441.83 -8.44229 -1.84713 0
M  V30 10803 C 1444.1 -8.18386 -1.42505 0
M  V30 10804 O 1444.84 -8.3501 -2.60497 0
M  V30 10805 C 1443.43 -6.80225 -1.25468 0
M  V30 10806 O 1444.23 -5.81621 -1.91066 0
M  V30 10807 C 1442.1 -7.02416 -1.9168 0
M  V30 10808 H 1442.13 -6.6888 -2.96621 0
M  V30 10809 H 1443.31 -6.53617 -0.192223 0
M  V30 10810 H 1444.8 -8.36622 -0.589963 0
M  V30 10811 H 1443.1 -10.0291 -1.79807 0
M  V30 10812 H 1442.91 -10.2138 0.558219 0
M  V30 10813 H 1441.28 -9.6579 0.0444202 0
M  V30 10814 H 1443.92 -5.69556 -2.79637 0
M  V30 10815 P 1445.78 -8.4349 -2.47671 0
M  V30 10816 O 1447.2 -8.92689 -2.65029 0
M  V30 10817 O 1445.42 -7.7568 -1.19296 0
M  V30 10818 O 1445.46 -7.36886 -3.63805 0
M  V30 10819 C 1445.3 -7.95433 -4.98253 0
M  V30 10820 C 1445.84 -6.94612 -5.98974 0
M  V30 10821 O 1444.78 -6.10277 -6.11744 0
M  V30 10822 C 1447.05 -6.11426 -5.62335 0
M  V30 10823 O 1447.79 -5.6162 -6.70584 0
M  V30 10824 C 1446.39 -5.04409 -4.73308 0
M  V30 10825 O 1447.18 -3.86404 -4.74719 0
M  V30 10826 C 1445.05 -4.8728 -5.41006 0
M  V30 10827 N 1444.01 -4.65812 -4.42377 0
M  V30 10828 C 1444.17 -5.09132 -3.15382 0
M  V30 10829 N 1443.15 -4.84021 -2.3716 0
M  V30 10830 C 1442.26 -4.18386 -3.20441 0
M  V30 10831 C 1441 -3.6275 -2.94905 0
M  V30 10832 N 1440.4 -3.65794 -1.73372 0
M  V30 10833 N 1440.43 -3.05008 -4.05243 0
M  V30 10834 C 1441.03 -2.98348 -5.28159 0
M  V30 10835 N 1442.21 -3.48171 -5.56333 0
M  V30 10836 C 1442.78 -4.06869 -4.47212 0
M  V30 10837 H 1445.08 -4.02278 -6.11074 0
M  V30 10838 H 1446.26 -5.39013 -3.70026 0
M  V30 10839 H 1447.75 -6.71916 -5.01943 0
M  V30 10840 H 1446.05 -7.45796 -6.94223 0
M  V30 10841 H 1445.86 -8.89416 -5.05237 0
M  V30 10842 H 1444.23 -8.14876 -5.18409 0
M  V30 10843 H 1440.5 -2.47853 -6.07807 0
M  V30 10844 H 1445.07 -5.59989 -2.81362 0
M  V30 10845 H 1439.47 -3.23218 -1.60782 0
M  V30 10846 H 1440.87 -4.10523 -0.937856 0
M  V30 10847 H 1446.87 -3.27906 -5.43085 0
M  V30 10848 P 1448.73 -5.75688 -6.64379 0
M  V30 10849 O 1450.15 -6.07692 -7.0558 0
M  V30 10850 O 1448.37 -5.88047 -5.19722 0
M  V30 10851 O 1448.41 -4.2322 -7.04443 0
M  V30 10852 C 1448.25 -3.99785 -8.49201 0
M  V30 10853 C 1448.79 -2.60516 -8.79425 0
M  V30 10854 O 1447.73 -1.82663 -8.44573 0
M  V30 10855 C 1450 -2.10343 -8.03628 0
M  V30 10856 O 1450.74 -1.09919 -8.67766 0
M  V30 10857 C 1449.34 -1.68446 -6.70876 0
M  V30 10858 O 1450.13 -0.684109 -6.08265 0
M  V30 10859 C 1448 -1.17436 -7.18567 0
M  V30 10860 N 1446.96 -1.52699 -6.23988 0
M  V30 10861 C 1447.12 -2.578 -5.40574 0
M  V30 10862 N 1446.1 -2.78966 -4.61193 0
M  V30 10863 C 1445.21 -1.78725 -4.95769 0
M  V30 10864 C 1443.95 -1.45727 -4.44207 0
M  V30 10865 N 1443.35 -2.13994 -3.43613 0
M  V30 10866 N 1443.38 -0.374977 -5.05812 0
M  V30 10867 C 1443.98 0.345585 -6.05615 0
M  V30 10868 N 1445.16 0.0787651 -6.56253 0
M  V30 10869 C 1445.73 -1.00499 -5.96189 0
M  V30 10870 H 1448.03 -0.0804622 -7.31556 0
M  V30 10871 H 1449.21 -2.53396 -6.02698 0
M  V30 10872 H 1450.7 -2.93881 -7.85526 0
M  V30 10873 H 1449 -2.52078 -9.87225 0
M  V30 10874 H 1448.81 -4.75072 -9.05887 0
M  V30 10875 H 1447.18 -4.05244 -8.76668 0
M  V30 10876 H 1443.45 1.20098 -6.4532 0
M  V30 10877 H 1448.02 -3.18977 -5.3945 0
M  V30 10878 H 1442.42 -1.84983 -3.10004 0
M  V30 10879 H 1443.82 -2.9465 -3.00843 0
M  V30 10880 H 1449.82 0.177619 -6.34151 0
M  V30 10881 P 1451.68 -1.25109 -8.70152 0
M  V30 10882 O 1453.1 -1.29744 -9.22016 0
M  V30 10883 O 1451.32 -2.13714 -7.55141 0
M  V30 10884 O 1451.36 0.248149 -8.21425 0
M  V30 10885 C 1451.2 1.22779 -9.30434 0
M  V30 10886 C 1451.74 2.56293 -8.80664 0
M  V30 10887 O 1450.68 3.02979 -8.09349 0
M  V30 10888 C 1452.96 2.57523 -7.89775 0
M  V30 10889 O 1453.69 3.7668 -7.89438 0
M  V30 10890 C 1452.29 2.20997 -6.55446 0
M  V30 10891 O 1453.09 2.71895 -5.48509 0
M  V30 10892 C 1450.95 2.89693 -6.67988 0
M  V30 10893 H 1450.98 3.88793 -6.19859 0
M  V30 10894 H 1452.16 1.12046 -6.44229 0
M  V30 10895 H 1453.65 1.7746 -8.19711 0
M  V30 10896 H 1451.95 3.20706 -9.67112 0
M  V30 10897 H 1451.76 0.901032 -10.1892 0
M  V30 10898 H 1450.13 1.33049 -9.56592 0
M  V30 10899 H 1452.77 3.57847 -5.23962 0
M  V30 10900 P 1454.63 3.65191 -7.99657 0
M  V30 10901 O 1456.05 3.89332 -8.45794 0
M  V30 10902 O 1454.27 2.28472 -7.50807 0
M  V30 10903 O 1454.31 4.64972 -6.77611 0
M  V30 10904 C 1454.15 6.06319 -7.16352 0
M  V30 10905 C 1454.69 6.91731 -6.02299 0
M  V30 10906 O 1453.63 6.92449 -5.17064 0
M  V30 10907 C 1455.91 6.43627 -5.25174 0
M  V30 10908 O 1456.64 7.43686 -4.60469 0
M  V30 10909 C 1455.24 5.40275 -4.31916 0
M  V30 10910 O 1456.04 5.25279 -3.14438 0
M  V30 10911 C 1453.9 6.04847 -4.05327 0
M  V30 10912 H 1453.93 6.62195 -3.11261 0
M  V30 10913 H 1455.12 4.42556 -4.81383 0
M  V30 10914 H 1456.6 5.92458 -5.93643 0
M  V30 10915 H 1454.91 7.92655 -6.402 0
M  V30 10916 H 1454.72 6.26671 -8.0846 0
M  V30 10917 H 1453.09 6.29101 -7.32804 0
M  V30 10918 H 1455.72 5.84315 -2.47318 0
M  V30 10919 P 1457.58 7.39546 -4.75277 0
M  V30 10920 O 1459 7.84798 -5.01039 0
M  V30 10921 O 1457.22 5.9812 -5.08098 0
M  V30 10922 O 1457.26 7.57503 -3.1866 0
M  V30 10923 C 1457.1 8.97357 -2.74833 0
M  V30 10924 C 1457.64 9.07548 -1.32709 0
M  V30 10925 O 1456.58 8.62072 -0.606159 0
M  V30 10926 C 1458.86 8.25383 -0.938334 0
M  V30 10927 O 1459.59 8.74577 0.146954 0
M  V30 10928 C 1458.19 6.8802 -0.712559 0
M  V30 10929 O 1458.99 6.1189 0.194655 0
M  V30 10930 C 1456.85 7.27966 -0.139777 0
M  V30 10931 H 1456.88 7.25354 0.961601 0
M  V30 10932 H 1458.07 6.32557 -1.65702 0
M  V30 10933 H 1459.55 8.19355 -1.79097 0
M  V30 10934 H 1457.86 10.1294 -1.10029 0
M  V30 10935 H 1457.67 9.64276 -3.41316 0
M  V30 10936 H 1456.04 9.25417 -2.76357 0
M  V30 10937 H 1458.67 6.25267 1.07847 0
M  V30 10938 P 1460.53 8.791 1.19586e-11 0
M  V30 10939 O 1461.95 9.31096 0.027933 0
M  V30 10940 O 1460.17 7.77869 -1.04071 0
M  V30 10941 O 1460.21 8.09533 1.41463 0
M  V30 10942 C 1460.05 9.0349 2.53943 0
M  V30 10943 C 1460.59 8.35226 3.79016 0
M  V30 10944 O 1459.53 7.57992 4.15078 0
M  V30 10945 C 1461.81 7.45087 3.67298 0
M  V30 10946 O 1462.55 7.27796 4.85194 0
M  V30 10947 C 1461.14 6.17323 3.12027 0
M  V30 10948 O 1461.94 5.04231 3.47188 0
M  V30 10949 C 1459.8 6.19961 3.81809 0
M  V30 10950 H 1459.83 5.58218 4.73051 0
M  V30 10951 H 1461.02 6.21726 2.02589 0
M  V30 10952 H 1462.5 7.86112 2.9231 0
M  V30 10953 H 1460.81 9.11627 4.55076 0
M  V30 10954 H 1460.62 9.9573 2.34194 0
M  V30 10955 H 1458.99 9.2792 2.67832 0
M  V30 10956 H 1461.63 4.67702 4.28772 0
M  V30 10957 P 1463.48 7.39546 4.75277 0
M  V30 10958 O 1464.9 7.81777 5.05738 0
M  V30 10959 O 1463.12 7.1065 3.32998 0
M  V30 10960 O 1463.16 6.04542 5.56673 0
M  V30 10961 C 1463 6.22772 7.02095 0
M  V30 10962 C 1463.54 4.97725 7.70406 0
M  V30 10963 O 1462.48 4.13256 7.58987 0
M  V30 10964 C 1464.76 4.28231 7.11815 0
M  V30 10965 O 1465.5 3.49945 8.01648 0
M  V30 10966 C 1464.09 3.5063 5.96244 0
M  V30 10967 O 1464.89 2.36482 5.64681 0
M  V30 10968 C 1462.75 3.15122 6.56374 0
M  V30 10969 H 1462.78 2.13853 6.99751 0
M  V30 10970 H 1463.97 4.13501 5.06559 0
M  V30 10971 H 1465.45 5.03285 6.70911 0
M  V30 10972 H 1463.76 5.20877 8.75697 0
M  V30 10973 H 1463.57 7.11046 7.35349 0
M  V30 10974 H 1461.94 6.35815 7.26986 0
M  V30 10975 H 1464.58 1.61644 6.13565 0
M  V30 10976 P 1466.43 3.65191 7.99657 0
M  V30 10977 O 1467.86 3.8425 8.48115 0
M  V30 10978 O 1466.07 4.17805 6.64342 0
M  V30 10979 O 1466.11 2.07613 7.95143 0
M  V30 10980 C 1465.95 1.44328 9.27336 0
M  V30 10981 C 1466.49 0.0220036 9.17197 0
M  V30 10982 O 1465.43 -0.626867 8.61923 0
M  V30 10983 C 1467.71 -0.24586 8.30336 0
M  V30 10984 O 1468.45 -1.39011 8.63583 0
M  V30 10985 C 1467.04 -0.273849 6.91158 0
M  V30 10986 O 1467.84 -1.06348 6.02892 0
M  V30 10987 C 1465.7 -0.897649 7.22545 0
M  V30 10988 H 1465.73 -1.9841 7.04286 0
M  V30 10989 H 1466.92 0.739928 6.497 0
M  V30 10990 H 1468.4 0.60668 8.36503 0
M  V30 10991 H 1466.71 -0.352479 10.1829 0
M  V30 10992 H 1466.52 2.00611 10.0304 0
M  V30 10993 H 1464.89 1.41843 9.55327 0
M  V30 10994 H 1467.53 -1.95734 6.03555 0
M  V30 10995 P 1469.38 -1.25109 8.70152 0
M  V30 10996 O 1470.81 -1.35274 9.21221 0
M  V30 10997 O 1469.02 -0.0769065 7.84762 0
M  V30 10998 O 1469.06 -2.55232 7.81161 0
M  V30 10999 C 1468.9 -3.79939 8.58154 0
M  V30 11000 C 1469.44 -4.94023 7.72785 0
M  V30 11001 O 1468.38 -5.18726 6.91205 0
M  V30 11002 C 1470.66 -4.69597 6.85231 0
M  V30 11003 O 1471.4 -5.83832 6.51337 0
M  V30 11004 C 1469.99 -3.96706 5.66633 0
M  V30 11005 O 1470.79 -4.15414 4.49689 0
M  V30 11006 C 1468.65 -4.66153 5.59313 0
M  V30 11007 H 1468.68 -5.47679 4.85214 0
M  V30 11008 H 1469.87 -2.89008 5.86566 0
M  V30 11009 H 1471.35 -4.0121 7.36511 0
M  V30 11010 H 1469.66 -5.80182 8.37584 0
M  V30 11011 H 1469.47 -3.73517 9.52265 0
M  V30 11012 H 1467.84 -3.97163 8.80359 0
M  V30 11013 H 1470.48 -4.90969 4.01921 0
M  V30 11014 P 1472.33 -5.75688 6.64379 0
M  V30 11015 O 1473.76 -6.11849 7.01846 0
M  V30 11016 O 1471.97 -4.30744 6.56026 0
M  V30 11017 O 1472.01 -6.37042 5.19165 0
M  V30 11018 C 1471.85 -7.83578 5.16515 0
M  V30 11019 C 1472.39 -8.33398 3.83019 0
M  V30 11020 O 1471.34 -8.10074 3.01034 0
M  V30 11021 C 1473.61 -7.65514 3.2257 0
M  V30 11022 O 1474.35 -8.4329 2.32297 0
M  V30 11023 C 1472.94 -6.40075 2.62207 0
M  V30 11024 O 1473.74 -5.92589 1.53712 0
M  V30 11025 C 1471.6 -6.9454 2.18503 0
M  V30 11026 H 1471.64 -7.23063 1.12091 0
M  V30 11027 H 1472.82 -5.6025 3.37201 0
M  V30 11028 H 1474.3 -7.35707 4.02681 0
M  V30 11029 H 1472.61 -9.40912 3.9095 0
M  V30 11030 H 1472.42 -8.29056 5.99158 0
M  V30 11031 H 1470.79 -8.10073 5.25882 0
M  V30 11032 H 1473.43 -6.30324 0.726794 0
M  V30 11033 P 1475.28 -8.4349 2.47671 0
M  V30 11034 O 1476.71 -8.94167 2.5964 0
M  V30 11035 O 1474.92 -7.1704 3.19006 0
M  V30 11036 O 1474.96 -8.16596 0.923387 0
M  V30 11037 C 1474.8 -9.38437 0.108857 0
M  V30 11038 C 1475.34 -9.08175 -1.28353 0
M  V30 11039 O 1474.29 -8.44229 -1.84713 0
M  V30 11040 C 1476.56 -8.18386 -1.42505 0
M  V30 11041 O 1477.3 -8.3501 -2.60497 0
M  V30 11042 C 1475.89 -6.80225 -1.25468 0
M  V30 11043 O 1476.69 -5.81621 -1.91066 0
M  V30 11044 C 1474.55 -7.02416 -1.9168 0
M  V30 11045 H 1474.59 -6.6888 -2.96621 0
M  V30 11046 H 1475.77 -6.53617 -0.192223 0
M  V30 11047 H 1477.25 -8.36622 -0.589963 0
M  V30 11048 H 1475.56 -10.0291 -1.79807 0
M  V30 11049 H 1475.37 -10.2138 0.558219 0
M  V30 11050 H 1473.74 -9.6579 0.0444202 0
M  V30 11051 H 1476.38 -5.69556 -2.79637 0
M  V30 11052 P 1478.24 -8.4349 -2.47671 0
M  V30 11053 O 1479.66 -8.92593 -2.65 0
M  V30 11054 O 1477.88 -7.7568 -1.19296 0
M  V30 11055 O 1477.91 -7.36886 -3.63805 0
M  V30 11056 C 1477.75 -7.95349 -4.982 0
M  V30 11057 C 1478.29 -6.94612 -5.98974 0
M  V30 11058 O 1477.24 -6.10347 -6.11815 0
M  V30 11059 C 1479.51 -6.11426 -5.62335 0
M  V30 11060 O 1480.25 -5.6162 -6.70584 0
M  V30 11061 C 1478.84 -5.04409 -4.73308 0
M  V30 11062 O 1479.64 -3.85992 -4.75183 0
M  V30 11063 C 1477.5 -4.8728 -5.41006 0
M  V30 11064 H 1477.54 -4.02333 -6.11157 0
M  V30 11065 H 1478.72 -5.39466 -3.69543 0
M  V30 11066 H 1480.2 -6.71916 -5.01943 0
M  V30 11067 H 1478.51 -7.4649 -6.93477 0
M  V30 11068 H 1478.32 -8.89416 -5.05237 0
M  V30 11069 H 1476.69 -8.14876 -5.18409 0
M  V30 11070 H 1479.33 -3.27957 -5.4317 0
M  V30 11071 P 1481.19 -5.75688 -6.64379 0
M  V30 11072 O 1482.61 -6.07627 -7.05504 0
M  V30 11073 O 1480.83 -5.88047 -5.19722 0
M  V30 11074 O 1480.86 -4.2322 -7.04443 0
M  V30 11075 C 1480.7 -3.99743 -8.4911 0
M  V30 11076 C 1481.24 -2.60516 -8.79425 0
M  V30 11077 O 1480.19 -1.82684 -8.4467 0
M  V30 11078 C 1482.46 -2.10343 -8.03628 0
M  V30 11079 O 1483.2 -1.09919 -8.67766 0
M  V30 11080 C 1481.79 -1.68446 -6.70876 0
M  V30 11081 O 1482.59 -0.678137 -6.08433 0
M  V30 11082 C 1480.46 -1.17436 -7.18567 0
M  V30 11083 H 1480.49 -0.0804732 -7.31656 0
M  V30 11084 H 1481.67 -2.54037 -6.02537 0
M  V30 11085 H 1483.15 -2.93881 -7.85526 0
M  V30 11086 H 1481.46 -2.53065 -9.86973 0
M  V30 11087 H 1481.27 -4.75072 -9.05887 0
M  V30 11088 H 1479.64 -4.05244 -8.76668 0
M  V30 11089 H 1482.28 0.177647 -6.34251 0
M  V30 11090 P 1484.14 -1.25109 -8.70152 0
M  V30 11091 O 1485.56 -1.29772 -9.22214 0
M  V30 11092 O 1483.78 -2.13714 -7.55141 0
M  V30 11093 O 1483.81 0.248149 -8.21425 0
M  V30 11094 C 1483.65 1.22779 -9.30434 0
M  V30 11095 C 1484.19 2.56265 -8.80568 0
M  V30 11096 O 1483.14 3.02979 -8.09349 0
M  V30 11097 C 1485.41 2.57523 -7.89775 0
M  V30 11098 O 1486.15 3.7668 -7.89438 0
M  V30 11099 C 1484.74 2.20997 -6.55446 0
M  V30 11100 O 1485.54 2.71851 -5.48419 0
M  V30 11101 C 1483.41 2.89693 -6.67988 0
M  V30 11102 N 1482.36 2.08895 -6.07487 0
M  V30 11103 C 1482.42 0.760559 -6.14209 0
M  V30 11104 N 1481.38 0.200108 -5.52538 0
M  V30 11105 C 1480.65 1.22692 -5.09742 0
M  V30 11106 C 1479.34 1.24782 -4.48775 0
M  V30 11107 O 1478.61 0.290617 -4.19294 0
M  V30 11108 N 1478.91 2.50468 -4.22428 0
M  V30 11109 C 1479.66 3.67142 -4.51974 0
M  V30 11110 N 1479.06 4.85096 -4.14091 0
M  V30 11111 N 1480.81 3.67821 -5.12831 0
M  V30 11112 C 1481.27 2.43698 -5.4105 0
M  V30 11113 H 1483.44 3.88793 -6.19859 0
M  V30 11114 H 1484.62 1.12029 -6.4413 0
M  V30 11115 H 1486.11 1.78279 -8.19533 0
M  V30 11116 H 1484.41 3.20706 -9.67112 0
M  V30 11117 H 1484.22 0.901032 -10.1892 0
M  V30 11118 H 1482.59 1.33049 -9.56592 0
M  V30 11119 H 1478.01 2.61953 -3.79465 0
M  V30 11120 H 1483.22 0.200439 -6.63497 0
M  V30 11121 H 1478.15 4.8334 -3.66367 0
M  V30 11122 H 1479.53 5.7474 -4.33841 0
M  V30 11123 H 1485.23 3.5779 -5.23879 0
M  V30 11124 P 1487.09 3.65191 -7.99657 0
M  V30 11125 O 1488.51 3.89332 -8.45794 0
M  V30 11126 O 1486.73 2.28472 -7.50807 0
M  V30 11127 O 1486.76 4.64972 -6.77611 0
M  V30 11128 C 1486.6 6.06319 -7.16352 0
M  V30 11129 C 1487.14 6.91731 -6.02299 0
M  V30 11130 O 1486.09 6.92449 -5.17064 0
M  V30 11131 C 1488.36 6.43627 -5.25174 0
M  V30 11132 O 1489.1 7.43686 -4.60469 0
M  V30 11133 C 1487.69 5.40275 -4.31916 0
M  V30 11134 O 1488.49 5.25279 -3.14438 0
M  V30 11135 C 1486.36 6.04847 -4.05327 0
M  V30 11136 H 1486.39 6.62195 -3.11261 0
M  V30 11137 H 1487.57 4.42556 -4.81383 0
M  V30 11138 H 1489.06 5.92458 -5.93643 0
M  V30 11139 H 1487.36 7.92655 -6.402 0
M  V30 11140 H 1487.17 6.26671 -8.0846 0
M  V30 11141 H 1485.54 6.29101 -7.32804 0
M  V30 11142 H 1488.18 5.84315 -2.47318 0
M  V30 11143 P 1490.04 7.39546 -4.75277 0
M  V30 11144 O 1491.46 7.84882 -5.01092 0
M  V30 11145 O 1489.68 5.9812 -5.08098 0
M  V30 11146 O 1489.71 7.57503 -3.1866 0
M  V30 11147 C 1489.55 8.97452 -2.74862 0
M  V30 11148 C 1490.09 9.07548 -1.32709 0
M  V30 11149 O 1489.04 8.61972 -0.606089 0
M  V30 11150 C 1491.31 8.25383 -0.938334 0
M  V30 11151 O 1492.05 8.74577 0.146954 0
M  V30 11152 C 1490.64 6.8802 -0.712559 0
M  V30 11153 O 1491.44 6.1181 0.188505 0
M  V30 11154 C 1489.31 7.27966 -0.139777 0
M  V30 11155 N 1488.26 6.39368 -0.623421 0
M  V30 11156 C 1488.43 5.71761 -1.78245 0
M  V30 11157 N 1487.41 4.962 -2.10491 0
M  V30 11158 C 1486.52 5.16158 -1.0635 0
M  V30 11159 C 1485.25 4.60425 -0.810266 0
M  V30 11160 N 1484.65 3.7057 -1.62914 0
M  V30 11161 N 1484.69 5.06 0.348685 0
M  V30 11162 C 1485.29 5.94532 1.20395 0
M  V30 11163 N 1486.47 6.48452 1.01191 0
M  V30 11164 C 1487.04 6.04423 -0.146291 0
M  V30 11165 H 1489.34 7.25255 0.961469 0
M  V30 11166 H 1490.52 6.32625 -1.65044 0
M  V30 11167 H 1492 8.19355 -1.79097 0
M  V30 11168 H 1490.31 10.1305 -1.09016 0
M  V30 11169 H 1490.12 9.64276 -3.41316 0
M  V30 11170 H 1488.49 9.25417 -2.76357 0
M  V30 11171 H 1484.75 6.21659 2.10714 0
M  V30 11172 H 1489.33 5.79354 -2.38959 0
M  V30 11173 H 1483.72 3.33174 -1.38982 0
M  V30 11174 H 1485.13 3.39714 -2.48836 0
M  V30 11175 H 1491.13 6.25169 1.0783 0
M  V30 11176 P 1492.99 8.791 1.22688e-11 0
M  V30 11177 O 1494.41 9.31096 0.027933 0
M  V30 11178 O 1492.63 7.77869 -1.04071 0
M  V30 11179 O 1492.67 8.09533 1.41463 0
M  V30 11180 C 1492.51 9.0349 2.53943 0
M  V30 11181 C 1493.05 8.35226 3.79016 0
M  V30 11182 O 1491.99 7.57992 4.15078 0
M  V30 11183 C 1494.26 7.45087 3.67298 0
M  V30 11184 O 1495 7.27796 4.85194 0
M  V30 11185 C 1493.59 6.17323 3.12027 0
M  V30 11186 O 1494.39 5.04231 3.47188 0
M  V30 11187 C 1492.26 6.19961 3.81809 0
M  V30 11188 H 1492.29 5.58218 4.73051 0
M  V30 11189 H 1493.47 6.21726 2.02589 0
M  V30 11190 H 1494.96 7.86112 2.9231 0
M  V30 11191 H 1493.26 9.11627 4.55076 0
M  V30 11192 H 1493.07 9.9573 2.34194 0
M  V30 11193 H 1491.44 9.2792 2.67832 0
M  V30 11194 H 1494.08 4.67702 4.28772 0
M  V30 11195 P 1495.94 7.39546 4.75277 0
M  V30 11196 O 1497.36 7.81777 5.05738 0
M  V30 11197 O 1495.58 7.1065 3.32998 0
M  V30 11198 O 1495.62 6.04542 5.56673 0
M  V30 11199 C 1495.46 6.22772 7.02095 0
M  V30 11200 C 1496 4.97725 7.70406 0
M  V30 11201 O 1494.94 4.13256 7.58987 0
M  V30 11202 C 1497.21 4.28231 7.11815 0
M  V30 11203 O 1497.95 3.49945 8.01648 0
M  V30 11204 C 1496.54 3.5063 5.96244 0
M  V30 11205 O 1497.34 2.36482 5.64681 0
M  V30 11206 C 1495.21 3.15122 6.56374 0
M  V30 11207 H 1495.24 2.13853 6.99751 0
M  V30 11208 H 1496.42 4.13501 5.06559 0
M  V30 11209 H 1497.91 5.03285 6.70911 0
M  V30 11210 H 1496.21 5.20877 8.75697 0
M  V30 11211 H 1496.02 7.11046 7.35349 0
M  V30 11212 H 1494.39 6.35815 7.26986 0
M  V30 11213 H 1497.03 1.61644 6.13565 0
M  V30 11214 P 1498.89 3.65191 7.99657 0
M  V30 11215 O 1500.31 3.84333 8.48297 0
M  V30 11216 O 1498.53 4.17805 6.64342 0
M  V30 11217 O 1498.57 2.07613 7.95143 0
M  V30 11218 C 1498.41 1.44328 9.27336 0
M  V30 11219 C 1498.95 0.0220012 9.17097 0
M  V30 11220 O 1497.89 -0.626867 8.61923 0
M  V30 11221 C 1500.16 -0.24586 8.30336 0
M  V30 11222 O 1500.9 -1.39011 8.63583 0
M  V30 11223 C 1499.5 -0.273849 6.91158 0
M  V30 11224 O 1500.29 -1.06331 6.02794 0
M  V30 11225 C 1498.16 -0.897649 7.22545 0
M  V30 11226 N 1497.12 -0.292839 6.41732 0
M  V30 11227 C 1497.18 1.00068 6.10757 0
M  V30 11228 N 1496.13 1.36468 5.35794 0
M  V30 11229 C 1495.4 0.258894 5.2366 0
M  V30 11230 C 1494.09 0.0670682 4.65752 0
M  V30 11231 O 1493.36 0.902443 4.10497 0
M  V30 11232 N 1493.66 -1.2131 4.75881 0
M  V30 11233 C 1494.41 -2.24934 5.37101 0
M  V30 11234 N 1493.81 -3.48783 5.33984 0
M  V30 11235 N 1495.56 -2.0844 5.95684 0
M  V30 11236 C 1496.02 -0.81395 5.87791 0
M  V30 11237 H 1498.19 -1.9841 7.04286 0
M  V30 11238 H 1499.37 0.739815 6.49601 0
M  V30 11239 H 1500.86 0.598315 8.36563 0
M  V30 11240 H 1499.16 -0.352479 10.1829 0
M  V30 11241 H 1498.97 2.00611 10.0304 0
M  V30 11242 H 1497.34 1.41843 9.55327 0
M  V30 11243 H 1492.77 -1.44434 4.37895 0
M  V30 11244 H 1497.97 1.67697 6.42268 0
M  V30 11245 H 1492.9 -3.60543 4.87699 0
M  V30 11246 H 1494.28 -4.29232 5.7819 0
M  V30 11247 H 1499.98 -1.95704 6.0346 0
M  V30 11248 P 1501.84 -1.25109 8.70152 0
M  V30 11249 O 1503.26 -1.35274 9.21221 0
M  V30 11250 O 1501.48 -0.0769065 7.84762 0
M  V30 11251 O 1501.52 -2.55232 7.81161 0
M  V30 11252 C 1501.36 -3.79939 8.58154 0
M  V30 11253 C 1501.9 -4.94023 7.72785 0
M  V30 11254 O 1500.84 -5.18726 6.91205 0
M  V30 11255 C 1503.12 -4.69597 6.85231 0
M  V30 11256 O 1503.85 -5.83832 6.51337 0
M  V30 11257 C 1502.45 -3.96706 5.66633 0
M  V30 11258 O 1503.25 -4.15414 4.49689 0
M  V30 11259 C 1501.11 -4.66153 5.59313 0
M  V30 11260 H 1501.14 -5.47679 4.85214 0
M  V30 11261 H 1502.32 -2.89008 5.86566 0
M  V30 11262 H 1503.81 -4.0121 7.36511 0
M  V30 11263 H 1502.11 -5.80182 8.37584 0
M  V30 11264 H 1501.92 -3.73517 9.52265 0
M  V30 11265 H 1500.29 -3.97163 8.80359 0
M  V30 11266 H 1502.93 -4.90969 4.01921 0
M  V30 11267 P 1504.79 -5.75688 6.64379 0
M  V30 11268 O 1506.21 -6.11849 7.01846 0
M  V30 11269 O 1504.43 -4.30744 6.56026 0
M  V30 11270 O 1504.47 -6.37042 5.19165 0
M  V30 11271 C 1504.31 -7.83578 5.16515 0
M  V30 11272 C 1504.85 -8.33398 3.83019 0
M  V30 11273 O 1503.79 -8.10074 3.01034 0
M  V30 11274 C 1506.07 -7.65514 3.2257 0
M  V30 11275 O 1506.8 -8.4329 2.32297 0
M  V30 11276 C 1505.4 -6.40075 2.62207 0
M  V30 11277 O 1506.2 -5.92589 1.53712 0
M  V30 11278 C 1504.06 -6.9454 2.18503 0
M  V30 11279 H 1504.09 -7.23063 1.12091 0
M  V30 11280 H 1505.27 -5.6025 3.37201 0
M  V30 11281 H 1506.76 -7.35707 4.02681 0
M  V30 11282 H 1505.06 -9.40912 3.9095 0
M  V30 11283 H 1504.87 -8.29056 5.99158 0
M  V30 11284 H 1503.24 -8.10073 5.25882 0
M  V30 11285 H 1505.88 -6.30324 0.726794 0
M  V30 11286 P 1507.74 -8.4349 2.47671 0
M  V30 11287 O 1509.16 -8.94167 2.5964 0
M  V30 11288 O 1507.38 -7.1704 3.19006 0
M  V30 11289 O 1507.42 -8.16596 0.923387 0
M  V30 11290 C 1507.26 -9.38437 0.108857 0
M  V30 11291 C 1507.8 -9.08175 -1.28353 0
M  V30 11292 O 1506.74 -8.44229 -1.84713 0
M  V30 11293 C 1509.02 -8.18386 -1.42505 0
M  V30 11294 O 1509.75 -8.3501 -2.60497 0
M  V30 11295 C 1508.35 -6.80225 -1.25468 0
M  V30 11296 O 1509.15 -5.81621 -1.91066 0
M  V30 11297 C 1507.01 -7.02416 -1.9168 0
M  V30 11298 H 1507.04 -6.6888 -2.96621 0
M  V30 11299 H 1508.23 -6.53617 -0.192223 0
M  V30 11300 H 1509.71 -8.36622 -0.589963 0
M  V30 11301 H 1508.02 -10.0291 -1.79807 0
M  V30 11302 H 1507.83 -10.2138 0.558219 0
M  V30 11303 H 1506.2 -9.6579 0.0444202 0
M  V30 11304 H 1508.83 -5.69556 -2.79637 0
M  V30 11305 P 1510.69 -8.4349 -2.47671 0
M  V30 11306 O 1512.11 -8.92593 -2.65 0
M  V30 11307 O 1510.33 -7.7568 -1.19296 0
M  V30 11308 O 1510.37 -7.36886 -3.63805 0
M  V30 11309 C 1510.21 -7.95349 -4.982 0
M  V30 11310 C 1510.75 -6.94612 -5.98974 0
M  V30 11311 O 1509.69 -6.10347 -6.11815 0
M  V30 11312 C 1511.97 -6.11426 -5.62335 0
M  V30 11313 O 1512.7 -5.6162 -6.70584 0
M  V30 11314 C 1511.3 -5.04409 -4.73308 0
M  V30 11315 O 1512.1 -3.85992 -4.75183 0
M  V30 11316 C 1509.96 -4.8728 -5.41006 0
M  V30 11317 H 1509.99 -4.02333 -6.11157 0
M  V30 11318 H 1511.18 -5.39466 -3.69543 0
M  V30 11319 H 1512.66 -6.71916 -5.01943 0
M  V30 11320 H 1510.97 -7.4649 -6.93477 0
M  V30 11321 H 1510.78 -8.89416 -5.05237 0
M  V30 11322 H 1509.15 -8.14876 -5.18409 0
M  V30 11323 H 1511.78 -3.27957 -5.4317 0
M  V30 11324 P 1513.64 -5.75688 -6.64379 0
M  V30 11325 O 1515.06 -6.07627 -7.05504 0
M  V30 11326 O 1513.28 -5.88047 -5.19722 0
M  V30 11327 O 1513.32 -4.2322 -7.04443 0
M  V30 11328 C 1513.16 -3.99743 -8.4911 0
M  V30 11329 C 1513.7 -2.60516 -8.79425 0
M  V30 11330 O 1512.64 -1.82684 -8.4467 0
M  V30 11331 C 1514.92 -2.10343 -8.03628 0
M  V30 11332 O 1515.66 -1.09919 -8.67766 0
M  V30 11333 C 1514.25 -1.68446 -6.70876 0
M  V30 11334 O 1515.05 -0.678137 -6.08433 0
M  V30 11335 C 1512.91 -1.17436 -7.18567 0
M  V30 11336 H 1512.94 -0.0804732 -7.31656 0
M  V30 11337 H 1514.13 -2.54037 -6.02537 0
M  V30 11338 H 1515.61 -2.93881 -7.85526 0
M  V30 11339 H 1513.92 -2.53065 -9.86973 0
M  V30 11340 H 1513.73 -4.75072 -9.05887 0
M  V30 11341 H 1512.1 -4.05244 -8.76668 0
M  V30 11342 H 1514.74 0.177647 -6.34251 0
M  V30 11343 P 1516.59 -1.25109 -8.70152 0
M  V30 11344 O 1518.01 -1.29744 -9.22016 0
M  V30 11345 O 1516.23 -2.13714 -7.55141 0
M  V30 11346 O 1516.27 0.248149 -8.21425 0
M  V30 11347 C 1516.11 1.22779 -9.30434 0
M  V30 11348 C 1516.65 2.56293 -8.80664 0
M  V30 11349 O 1515.59 3.02979 -8.09349 0
M  V30 11350 C 1517.87 2.57523 -7.89775 0
M  V30 11351 O 1518.61 3.7668 -7.89438 0
M  V30 11352 C 1517.2 2.20997 -6.55446 0
M  V30 11353 O 1518 2.71895 -5.48509 0
M  V30 11354 C 1515.86 2.89693 -6.67988 0
M  V30 11355 H 1515.89 3.88793 -6.19859 0
M  V30 11356 H 1517.08 1.12046 -6.44229 0
M  V30 11357 H 1518.56 1.7746 -8.19711 0
M  V30 11358 H 1516.87 3.20706 -9.67112 0
M  V30 11359 H 1516.68 0.901032 -10.1892 0
M  V30 11360 H 1515.05 1.33049 -9.56592 0
M  V30 11361 H 1517.69 3.57847 -5.23962 0
M  V30 11362 P 1519.54 3.65191 -7.99657 0
M  V30 11363 O 1520.96 3.89374 -8.45885 0
M  V30 11364 O 1519.18 2.28472 -7.50807 0
M  V30 11365 O 1519.22 4.64972 -6.77611 0
M  V30 11366 C 1519.06 6.06383 -7.16428 0
M  V30 11367 C 1519.6 6.91731 -6.02299 0
M  V30 11368 O 1518.55 6.92369 -5.17005 0
M  V30 11369 C 1520.82 6.43627 -5.25174 0
M  V30 11370 O 1521.56 7.43686 -4.60469 0
M  V30 11371 C 1520.15 5.40275 -4.31916 0
M  V30 11372 O 1520.95 5.24878 -3.14911 0
M  V30 11373 C 1518.81 6.04847 -4.05327 0
M  V30 11374 N 1517.77 5.04166 -3.98114 0
M  V30 11375 C 1517.94 3.84629 -4.59066 0
M  V30 11376 N 1516.91 3.0363 -4.45343 0
M  V30 11377 C 1516.03 3.76722 -3.68523 0
M  V30 11378 C 1514.76 3.43528 -3.17088 0
M  V30 11379 N 1514.19 4.44526 -2.44231 0
M  V30 11380 C 1514.8 5.65243 -2.20146 0
M  V30 11381 N 1515.97 6.00221 -2.65453 0
M  V30 11382 C 1516.55 5.00564 -3.39083 0
M  V30 11383 H 1520.03 4.42969 -4.80867 0
M  V30 11384 H 1521.51 5.92458 -5.93643 0
M  V30 11385 H 1519.82 7.93295 -6.39407 0
M  V30 11386 H 1519.63 6.26671 -8.0846 0
M  V30 11387 H 1518 6.29101 -7.32804 0
M  V30 11388 H 1518.84 3.58193 -5.14248 0
M  V30 11389 H 1520.64 5.84223 -2.47279 0
M  V30 11390 P 1522.49 7.39546 -4.75277 0
M  V30 11391 O 1523.92 7.84882 -5.01092 0
M  V30 11392 O 1522.13 5.9812 -5.08098 0
M  V30 11393 O 1522.17 7.57503 -3.1866 0
M  V30 11394 C 1522.01 8.97452 -2.74862 0
M  V30 11395 C 1522.55 9.07548 -1.32709 0
M  V30 11396 O 1521.5 8.61972 -0.606089 0
M  V30 11397 C 1523.77 8.25383 -0.938334 0
M  V30 11398 O 1524.51 8.74577 0.146954 0
M  V30 11399 C 1523.1 6.8802 -0.712559 0
M  V30 11400 O 1523.9 6.1181 0.188505 0
M  V30 11401 C 1521.76 7.27966 -0.139777 0
M  V30 11402 N 1520.72 6.39368 -0.623421 0
M  V30 11403 C 1520.89 5.71761 -1.78245 0
M  V30 11404 N 1519.86 4.962 -2.10491 0
M  V30 11405 C 1518.98 5.16158 -1.0635 0
M  V30 11406 C 1517.71 4.60425 -0.810266 0
M  V30 11407 N 1517.15 5.06 0.348685 0
M  V30 11408 C 1517.75 5.94532 1.20395 0
M  V30 11409 N 1518.92 6.48452 1.01191 0
M  V30 11410 C 1519.5 6.04423 -0.146291 0
M  V30 11411 H 1522.98 6.32625 -1.65044 0
M  V30 11412 H 1524.46 8.19355 -1.79097 0
M  V30 11413 H 1522.77 10.1305 -1.09016 0
M  V30 11414 H 1522.58 9.64276 -3.41316 0
M  V30 11415 H 1520.95 9.25417 -2.76357 0
M  V30 11416 H 1521.79 5.79354 -2.38959 0
M  V30 11417 H 1523.59 6.25169 1.0783 0
M  V30 11418 P 1525.44 8.791 1.2579e-11 0
M  V30 11419 O 1526.87 9.31096 0.027933 0
M  V30 11420 O 1525.08 7.77869 -1.04071 0
M  V30 11421 O 1525.12 8.09533 1.41463 0
M  V30 11422 C 1524.96 9.0349 2.53943 0
M  V30 11423 C 1525.5 8.35226 3.79016 0
M  V30 11424 O 1524.45 7.57992 4.15078 0
M  V30 11425 C 1526.72 7.45087 3.67298 0
M  V30 11426 O 1527.46 7.27796 4.85194 0
M  V30 11427 C 1526.05 6.17323 3.12027 0
M  V30 11428 O 1526.85 5.04231 3.47188 0
M  V30 11429 C 1524.71 6.19961 3.81809 0
M  V30 11430 H 1524.75 5.58218 4.73051 0
M  V30 11431 H 1525.93 6.21726 2.02589 0
M  V30 11432 H 1527.41 7.86112 2.9231 0
M  V30 11433 H 1525.72 9.11627 4.55076 0
M  V30 11434 H 1525.53 9.9573 2.34194 0
M  V30 11435 H 1523.9 9.2792 2.67832 0
M  V30 11436 H 1526.54 4.67702 4.28772 0
M  V30 11437 P 1528.4 7.39546 4.75277 0
M  V30 11438 O 1529.8 7.89013 5.04841 0
M  V30 11439 O 1528.02 7.16603 3.32298 0
M  V30 11440 O 1528.07 6.04468 5.56605 0
M  V30 11441 C 1527.91 6.22772 7.02095 0
M  V30 11442 C 1528.45 4.97671 7.70322 0
M  V30 11443 O 1527.4 4.13208 7.58899 0
M  V30 11444 C 1529.67 4.28231 7.11815 0
M  V30 11445 O 1530.41 3.49945 8.01648 0
M  V30 11446 C 1529 3.5063 5.96244 0
M  V30 11447 O 1529.8 2.36443 5.64589 0
M  V30 11448 C 1527.66 3.15122 6.56374 0
M  V30 11449 N 1526.62 3.22311 5.55692 0
M  V30 11450 C 1525.59 2.32244 5.62437 0
M  V30 11451 O 1525.63 1.43107 6.50341 0
M  V30 11452 N 1524.57 2.40811 4.73368 0
M  V30 11453 C 1524.62 3.344 3.77753 0
M  V30 11454 C 1525.72 4.24712 3.66679 0
M  V30 11455 C 1526.68 4.15625 4.58307 0
M  V30 11456 H 1527.7 2.13823 6.99656 0
M  V30 11457 H 1528.88 4.12931 5.06895 0
M  V30 11458 H 1530.36 5.02674 6.71494 0
M  V30 11459 H 1528.67 5.20001 8.76217 0
M  V30 11460 H 1528.48 7.11046 7.35349 0
M  V30 11461 H 1526.85 6.35749 7.26911 0
M  V30 11462 H 1525.77 4.9828 2.86753 0
M  V30 11463 H 1527.53 4.84464 4.54228 0
M  V30 11464 H 1529.58 1.65592 6.23485 0
M  V30 11465 P 1531.35 3.65191 7.99657 0
M  V30 11466 O 1532.77 3.8425 8.48115 0
M  V30 11467 O 1530.99 4.17805 6.64342 0
M  V30 11468 O 1531.02 2.07613 7.95143 0
M  V30 11469 C 1530.86 1.44328 9.27336 0
M  V30 11470 C 1531.4 0.0220036 9.17197 0
M  V30 11471 O 1530.35 -0.626867 8.61923 0
M  V30 11472 C 1532.62 -0.24586 8.30336 0
M  V30 11473 O 1533.36 -1.39011 8.63583 0
M  V30 11474 C 1531.95 -0.273849 6.91158 0
M  V30 11475 O 1532.75 -1.06348 6.02892 0
M  V30 11476 C 1530.61 -0.897649 7.22545 0
M  V30 11477 H 1530.65 -1.9841 7.04286 0
M  V30 11478 H 1531.83 0.739928 6.497 0
M  V30 11479 H 1533.31 0.60668 8.36503 0
M  V30 11480 H 1531.62 -0.352479 10.1829 0
M  V30 11481 H 1531.43 2.00611 10.0304 0
M  V30 11482 H 1529.8 1.41843 9.55327 0
M  V30 11483 H 1532.44 -1.95734 6.03555 0
M  V30 11484 P 1534.3 -1.25109 8.70152 0
M  V30 11485 O 1535.7 -1.31452 9.27431 0
M  V30 11486 O 1533.92 -0.0458113 7.89887 0
M  V30 11487 O 1533.97 -2.55201 7.81066 0
M  V30 11488 C 1533.81 -3.79939 8.58154 0
M  V30 11489 C 1534.35 -4.93969 7.72701 0
M  V30 11490 O 1533.3 -5.18666 6.91125 0
M  V30 11491 C 1535.57 -4.69597 6.85231 0
M  V30 11492 O 1536.31 -5.83832 6.51337 0
M  V30 11493 C 1534.9 -3.96706 5.66633 0
M  V30 11494 O 1535.7 -4.15346 4.49615 0
M  V30 11495 C 1533.57 -4.66153 5.59313 0
M  V30 11496 N 1532.52 -3.71582 5.24027 0
M  V30 11497 C 1531.49 -4.15133 4.44901 0
M  V30 11498 O 1531.53 -5.32122 4.00336 0
M  V30 11499 N 1530.48 -3.30554 4.15693 0
M  V30 11500 C 1530.52 -2.04701 4.61105 0
M  V30 11501 N 1529.51 -1.23621 4.31855 0
M  V30 11502 C 1531.62 -1.57111 5.38655 0
M  V30 11503 C 1532.59 -2.44234 5.68454 0
M  V30 11504 H 1533.6 -5.47604 4.85148 0
M  V30 11505 H 1534.78 -2.8955 5.86187 0
M  V30 11506 H 1536.26 -4.01995 7.36197 0
M  V30 11507 H 1534.57 -5.81019 8.37003 0
M  V30 11508 H 1534.38 -3.73517 9.52265 0
M  V30 11509 H 1532.75 -3.97122 8.80267 0
M  V30 11510 H 1531.67 -0.538464 5.72373 0
M  V30 11511 H 1533.43 -2.11927 6.29377 0
M  V30 11512 H 1528.72 -1.58199 3.7543 0
M  V30 11513 H 1529.52 -0.264601 4.65348 0
M  V30 11514 H 1535.49 -4.98352 4.09633 0
M  V30 11515 P 1537.25 -5.75688 6.64379 0
M  V30 11516 O 1538.67 -6.11849 7.01846 0
M  V30 11517 O 1536.89 -4.30744 6.56026 0
M  V30 11518 O 1536.92 -6.37042 5.19165 0
M  V30 11519 C 1536.76 -7.83578 5.16515 0
M  V30 11520 C 1537.3 -8.33398 3.83019 0
M  V30 11521 O 1536.25 -8.10074 3.01034 0
M  V30 11522 C 1538.52 -7.65514 3.2257 0
M  V30 11523 O 1539.26 -8.4329 2.32297 0
M  V30 11524 C 1537.85 -6.40075 2.62207 0
M  V30 11525 O 1538.65 -5.92589 1.53712 0
M  V30 11526 C 1536.52 -6.9454 2.18503 0
M  V30 11527 H 1536.55 -7.23063 1.12091 0
M  V30 11528 H 1537.73 -5.6025 3.37201 0
M  V30 11529 H 1539.21 -7.35707 4.02681 0
M  V30 11530 H 1537.52 -9.40912 3.9095 0
M  V30 11531 H 1537.33 -8.29056 5.99158 0
M  V30 11532 H 1535.7 -8.10073 5.25882 0
M  V30 11533 H 1538.34 -6.30324 0.726794 0
M  V30 11534 P 1540.2 -8.4349 2.47671 0
M  V30 11535 O 1541.62 -8.94167 2.5964 0
M  V30 11536 O 1539.84 -7.1704 3.19006 0
M  V30 11537 O 1539.87 -8.16596 0.923387 0
M  V30 11538 C 1539.71 -9.38437 0.108857 0
M  V30 11539 C 1540.25 -9.08175 -1.28353 0
M  V30 11540 O 1539.2 -8.44229 -1.84713 0
M  V30 11541 C 1541.47 -8.18386 -1.42505 0
M  V30 11542 O 1542.21 -8.3501 -2.60497 0
M  V30 11543 C 1540.8 -6.80225 -1.25468 0
M  V30 11544 O 1541.6 -5.81621 -1.91066 0
M  V30 11545 C 1539.47 -7.02416 -1.9168 0
M  V30 11546 H 1539.5 -6.6888 -2.96621 0
M  V30 11547 H 1540.68 -6.53617 -0.192223 0
M  V30 11548 H 1542.17 -8.36622 -0.589963 0
M  V30 11549 H 1540.47 -10.0291 -1.79807 0
M  V30 11550 H 1540.28 -10.2138 0.558219 0
M  V30 11551 H 1538.65 -9.6579 0.0444202 0
M  V30 11552 H 1541.29 -5.69556 -2.79637 0
M  V30 11553 P 1543.15 -8.4349 -2.47671 0
M  V30 11554 O 1544.57 -8.92689 -2.65029 0
M  V30 11555 O 1542.79 -7.7568 -1.19296 0
M  V30 11556 O 1542.83 -7.36886 -3.63805 0
M  V30 11557 C 1542.66 -7.95433 -4.98253 0
M  V30 11558 C 1543.21 -6.94612 -5.98974 0
M  V30 11559 O 1542.15 -6.10277 -6.11744 0
M  V30 11560 C 1544.42 -6.11426 -5.62335 0
M  V30 11561 O 1545.16 -5.6162 -6.70584 0
M  V30 11562 C 1543.76 -5.04409 -4.73308 0
M  V30 11563 O 1544.55 -3.86404 -4.74719 0
M  V30 11564 C 1542.42 -4.8728 -5.41006 0
M  V30 11565 N 1541.37 -4.65812 -4.42377 0
M  V30 11566 C 1541.54 -5.09132 -3.15382 0
M  V30 11567 N 1540.52 -4.84021 -2.3716 0
M  V30 11568 C 1539.63 -4.18386 -3.20441 0
M  V30 11569 C 1538.36 -3.6275 -2.94905 0
M  V30 11570 N 1537.8 -3.05008 -4.05243 0
M  V30 11571 C 1538.4 -2.98348 -5.28159 0
M  V30 11572 N 1539.58 -3.48171 -5.56333 0
M  V30 11573 C 1540.15 -4.06869 -4.47212 0
M  V30 11574 H 1543.63 -5.39013 -3.70026 0
M  V30 11575 H 1545.12 -6.71916 -5.01943 0
M  V30 11576 H 1543.42 -7.45796 -6.94223 0
M  V30 11577 H 1543.23 -8.89416 -5.05237 0
M  V30 11578 H 1541.6 -8.14876 -5.18409 0
M  V30 11579 H 1542.44 -5.59989 -2.81362 0
M  V30 11580 H 1544.24 -3.27906 -5.43085 0
M  V30 11581 P 1546.1 -5.75688 -6.64379 0
M  V30 11582 O 1547.52 -6.07627 -7.05504 0
M  V30 11583 O 1545.74 -5.88047 -5.19722 0
M  V30 11584 O 1545.78 -4.2322 -7.04443 0
M  V30 11585 C 1545.62 -3.99743 -8.4911 0
M  V30 11586 C 1546.16 -2.60516 -8.79425 0
M  V30 11587 O 1545.1 -1.82684 -8.4467 0
M  V30 11588 C 1547.37 -2.10343 -8.03628 0
M  V30 11589 O 1548.11 -1.09919 -8.67766 0
M  V30 11590 C 1546.7 -1.68446 -6.70876 0
M  V30 11591 O 1547.5 -0.678137 -6.08433 0
M  V30 11592 C 1545.37 -1.17436 -7.18567 0
M  V30 11593 H 1545.4 -0.0804732 -7.31656 0
M  V30 11594 H 1546.58 -2.54037 -6.02537 0
M  V30 11595 H 1548.07 -2.93881 -7.85526 0
M  V30 11596 H 1546.37 -2.53065 -9.86973 0
M  V30 11597 H 1546.18 -4.75072 -9.05887 0
M  V30 11598 H 1544.55 -4.05244 -8.76668 0
M  V30 11599 H 1547.19 0.177647 -6.34251 0
M  V30 11600 P 1549.05 -1.25109 -8.70152 0
M  V30 11601 O 1550.47 -1.29758 -9.22115 0
M  V30 11602 O 1548.69 -2.13714 -7.55141 0
M  V30 11603 O 1548.73 0.248149 -8.21425 0
M  V30 11604 C 1548.57 1.22792 -9.30533 0
M  V30 11605 C 1549.11 2.56293 -8.80664 0
M  V30 11606 O 1548.05 3.02944 -8.09255 0
M  V30 11607 C 1550.32 2.57523 -7.89775 0
M  V30 11608 O 1551.06 3.7668 -7.89438 0
M  V30 11609 C 1549.66 2.20997 -6.55446 0
M  V30 11610 O 1550.45 2.71302 -5.48691 0
M  V30 11611 C 1548.32 2.89693 -6.67988 0
M  V30 11612 N 1547.28 2.08895 -6.07487 0
M  V30 11613 C 1547.44 0.753809 -5.94137 0
M  V30 11614 N 1546.42 0.146592 -5.38801 0
M  V30 11615 C 1545.53 1.1768 -5.13693 0
M  V30 11616 C 1544.27 1.17563 -4.52477 0
M  V30 11617 N 1543.7 2.41918 -4.45789 0
M  V30 11618 C 1544.3 3.56493 -4.90792 0
M  V30 11619 N 1545.48 3.61423 -5.47817 0
M  V30 11620 C 1546.05 2.37779 -5.5588 0
M  V30 11621 H 1549.53 1.12673 -6.44018 0
M  V30 11622 H 1551.02 1.7746 -8.19711 0
M  V30 11623 H 1549.32 3.21673 -9.66791 0
M  V30 11624 H 1549.13 0.901032 -10.1892 0
M  V30 11625 H 1547.5 1.33049 -9.56592 0
M  V30 11626 H 1548.34 0.233081 -6.26266 0
M  V30 11627 H 1550.14 3.5779 -5.23879 0
M  V30 11628 P 1552 3.65191 -7.99657 0
M  V30 11629 O 1553.42 3.89332 -8.45794 0
M  V30 11630 O 1551.64 2.28472 -7.50807 0
M  V30 11631 O 1551.68 4.64972 -6.77611 0
M  V30 11632 C 1551.52 6.06319 -7.16352 0
M  V30 11633 C 1552.06 6.91731 -6.02299 0
M  V30 11634 O 1551 6.92449 -5.17064 0
M  V30 11635 C 1553.27 6.43627 -5.25174 0
M  V30 11636 O 1554.01 7.43686 -4.60469 0
M  V30 11637 C 1552.61 5.40275 -4.31916 0
M  V30 11638 O 1553.4 5.25279 -3.14438 0
M  V30 11639 C 1551.27 6.04847 -4.05327 0
M  V30 11640 H 1551.3 6.62195 -3.11261 0
M  V30 11641 H 1552.48 4.42556 -4.81383 0
M  V30 11642 H 1553.97 5.92458 -5.93643 0
M  V30 11643 H 1552.27 7.92655 -6.402 0
M  V30 11644 H 1552.08 6.26671 -8.0846 0
M  V30 11645 H 1550.45 6.29101 -7.32804 0
M  V30 11646 H 1553.09 5.84315 -2.47318 0
M  V30 11647 P 1554.95 7.39546 -4.75277 0
M  V30 11648 O 1556.37 7.84798 -5.01039 0
M  V30 11649 O 1554.59 5.9812 -5.08098 0
M  V30 11650 O 1554.63 7.57503 -3.1866 0
M  V30 11651 C 1554.47 8.97357 -2.74833 0
M  V30 11652 C 1555.01 9.07548 -1.32709 0
M  V30 11653 O 1553.95 8.62072 -0.606159 0
M  V30 11654 C 1556.23 8.25383 -0.938334 0
M  V30 11655 O 1556.96 8.74577 0.146954 0
M  V30 11656 C 1555.56 6.8802 -0.712559 0
M  V30 11657 O 1556.36 6.1189 0.194655 0
M  V30 11658 C 1554.22 7.27966 -0.139777 0
M  V30 11659 H 1554.25 7.25354 0.961601 0
M  V30 11660 H 1555.43 6.32557 -1.65702 0
M  V30 11661 H 1556.92 8.19355 -1.79097 0
M  V30 11662 H 1555.22 10.1294 -1.10029 0
M  V30 11663 H 1555.03 9.64276 -3.41316 0
M  V30 11664 H 1553.4 9.25417 -2.76357 0
M  V30 11665 H 1556.04 6.25267 1.07847 0
M  V30 11666 P 1557.9 8.791 1.28891e-11 0
M  V30 11667 O 1559.32 9.31296 0.027939 0
M  V30 11668 O 1557.54 7.77869 -1.04071 0
M  V30 11669 O 1557.58 8.09533 1.41463 0
M  V30 11670 C 1557.42 9.0349 2.53943 0
M  V30 11671 C 1557.96 8.35135 3.78975 0
M  V30 11672 O 1556.9 7.57992 4.15078 0
M  V30 11673 C 1559.18 7.45087 3.67298 0
M  V30 11674 O 1559.91 7.27796 4.85194 0
M  V30 11675 C 1558.51 6.17323 3.12027 0
M  V30 11676 O 1559.31 5.04149 3.47132 0
M  V30 11677 C 1557.17 6.19961 3.81809 0
M  V30 11678 N 1556.13 5.71575 2.93223 0
M  V30 11679 C 1556.19 5.97133 1.62693 0
M  V30 11680 N 1555.14 5.44066 0.984414 0
M  V30 11681 C 1554.41 4.87093 1.93987 0
M  V30 11682 C 1553.1 4.26449 1.8738 0
M  V30 11683 O 1552.37 4.1089 0.884377 0
M  V30 11684 N 1552.67 3.82483 3.08036 0
M  V30 11685 C 1553.42 3.95124 4.27727 0
M  V30 11686 N 1552.83 3.4084 5.39089 0
M  V30 11687 N 1554.58 4.55264 4.3706 0
M  V30 11688 C 1555.03 5.00861 3.18217 0
M  V30 11689 H 1557.2 5.58218 4.73051 0
M  V30 11690 H 1558.38 6.21631 2.02558 0
M  V30 11691 H 1559.87 7.85819 2.93096 0
M  V30 11692 H 1558.17 9.11627 4.55076 0
M  V30 11693 H 1557.98 9.9573 2.34194 0
M  V30 11694 H 1556.35 9.2792 2.67832 0
M  V30 11695 H 1551.78 3.38323 3.1329 0
M  V30 11696 H 1556.98 6.53891 1.14265 0
M  V30 11697 H 1551.91 2.93852 5.30559 0
M  V30 11698 H 1553.29 3.47631 6.30632 0
M  V30 11699 H 1558.99 4.67628 4.28704 0
M  V30 11700 P 1560.85 7.39546 4.75277 0
M  V30 11701 O 1562.27 7.81777 5.05738 0
M  V30 11702 O 1560.49 7.1065 3.32998 0
M  V30 11703 O 1560.53 6.04542 5.56673 0
M  V30 11704 C 1560.37 6.22772 7.02095 0
M  V30 11705 C 1560.91 4.97725 7.70406 0
M  V30 11706 O 1559.85 4.13256 7.58987 0
M  V30 11707 C 1562.13 4.28231 7.11815 0
M  V30 11708 O 1562.86 3.49945 8.01648 0
M  V30 11709 C 1561.46 3.5063 5.96244 0
M  V30 11710 O 1562.26 2.36482 5.64681 0
M  V30 11711 C 1560.12 3.15122 6.56374 0
M  V30 11712 H 1560.15 2.13853 6.99751 0
M  V30 11713 H 1561.34 4.13501 5.06559 0
M  V30 11714 H 1562.82 5.03285 6.70911 0
M  V30 11715 H 1561.13 5.20877 8.75697 0
M  V30 11716 H 1560.94 7.11046 7.35349 0
M  V30 11717 H 1559.31 6.35815 7.26986 0
M  V30 11718 H 1561.94 1.61644 6.13565 0
M  V30 11719 P 1563.8 3.65191 7.99657 0
M  V30 11720 O 1565.22 3.8425 8.48115 0
M  V30 11721 O 1563.44 4.17805 6.64342 0
M  V30 11722 O 1563.48 2.07613 7.95143 0
M  V30 11723 C 1563.32 1.44328 9.27336 0
M  V30 11724 C 1563.86 0.0220036 9.17197 0
M  V30 11725 O 1562.8 -0.626867 8.61923 0
M  V30 11726 C 1565.08 -0.24586 8.30336 0
M  V30 11727 O 1565.82 -1.39011 8.63583 0
M  V30 11728 C 1564.41 -0.273849 6.91158 0
M  V30 11729 O 1565.21 -1.06348 6.02892 0
M  V30 11730 C 1563.07 -0.897649 7.22545 0
M  V30 11731 H 1563.1 -1.9841 7.04286 0
M  V30 11732 H 1564.29 0.739928 6.497 0
M  V30 11733 H 1565.77 0.60668 8.36503 0
M  V30 11734 H 1564.08 -0.352479 10.1829 0
M  V30 11735 H 1563.89 2.00611 10.0304 0
M  V30 11736 H 1562.26 1.41843 9.55327 0
M  V30 11737 H 1564.9 -1.95734 6.03555 0
M  V30 11738 P 1566.75 -1.25109 8.70152 0
M  V30 11739 O 1568.17 -1.35274 9.21221 0
M  V30 11740 O 1566.39 -0.0769065 7.84762 0
M  V30 11741 O 1566.43 -2.55232 7.81161 0
M  V30 11742 C 1566.27 -3.79939 8.58154 0
M  V30 11743 C 1566.81 -4.94023 7.72785 0
M  V30 11744 O 1565.75 -5.18726 6.91205 0
M  V30 11745 C 1568.03 -4.69597 6.85231 0
M  V30 11746 O 1568.77 -5.83832 6.51337 0
M  V30 11747 C 1567.36 -3.96706 5.66633 0
M  V30 11748 O 1568.16 -4.15414 4.49689 0
M  V30 11749 C 1566.02 -4.66153 5.59313 0
M  V30 11750 H 1566.05 -5.47679 4.85214 0
M  V30 11751 H 1567.24 -2.89008 5.86566 0
M  V30 11752 H 1568.72 -4.0121 7.36511 0
M  V30 11753 H 1567.03 -5.80182 8.37584 0
M  V30 11754 H 1566.84 -3.73517 9.52265 0
M  V30 11755 H 1565.21 -3.97163 8.80359 0
M  V30 11756 H 1567.85 -4.90969 4.01921 0
M  V30 11757 P 1569.7 -5.75688 6.64379 0
M  V30 11758 O 1571.13 -6.11849 7.01846 0
M  V30 11759 O 1569.34 -4.30744 6.56026 0
M  V30 11760 O 1569.38 -6.37042 5.19165 0
M  V30 11761 C 1569.22 -7.83578 5.16515 0
M  V30 11762 C 1569.76 -8.33398 3.83019 0
M  V30 11763 O 1568.7 -8.10074 3.01034 0
M  V30 11764 C 1570.98 -7.65514 3.2257 0
M  V30 11765 O 1571.72 -8.4329 2.32297 0
M  V30 11766 C 1570.31 -6.40075 2.62207 0
M  V30 11767 O 1571.11 -5.92589 1.53712 0
M  V30 11768 C 1568.97 -6.9454 2.18503 0
M  V30 11769 H 1569 -7.23063 1.12091 0
M  V30 11770 H 1570.19 -5.6025 3.37201 0
M  V30 11771 H 1571.67 -7.35707 4.02681 0
M  V30 11772 H 1569.98 -9.40912 3.9095 0
M  V30 11773 H 1569.79 -8.29056 5.99158 0
M  V30 11774 H 1568.16 -8.10073 5.25882 0
M  V30 11775 H 1570.8 -6.30324 0.726794 0
M  V30 11776 P 1572.65 -8.4349 2.47671 0
M  V30 11777 O 1574.08 -8.94167 2.5964 0
M  V30 11778 O 1572.29 -7.1704 3.19006 0
M  V30 11779 O 1572.33 -8.16596 0.923387 0
M  V30 11780 C 1572.17 -9.38437 0.108857 0
M  V30 11781 C 1572.71 -9.08175 -1.28353 0
M  V30 11782 O 1571.65 -8.44229 -1.84713 0
M  V30 11783 C 1573.93 -8.18386 -1.42505 0
M  V30 11784 O 1574.67 -8.3501 -2.60497 0
M  V30 11785 C 1573.26 -6.80225 -1.25468 0
M  V30 11786 O 1574.06 -5.81621 -1.91066 0
M  V30 11787 C 1571.92 -7.02416 -1.9168 0
M  V30 11788 H 1571.95 -6.6888 -2.96621 0
M  V30 11789 H 1573.14 -6.53617 -0.192223 0
M  V30 11790 H 1574.62 -8.36622 -0.589963 0
M  V30 11791 H 1572.93 -10.0291 -1.79807 0
M  V30 11792 H 1572.74 -10.2138 0.558219 0
M  V30 11793 H 1571.11 -9.6579 0.0444202 0
M  V30 11794 H 1573.75 -5.69556 -2.79637 0
M  V30 11795 P 1575.6 -8.4349 -2.47671 0
M  V30 11796 O 1577.03 -8.92593 -2.65 0
M  V30 11797 O 1575.24 -7.7568 -1.19296 0
M  V30 11798 O 1575.28 -7.36886 -3.63805 0
M  V30 11799 C 1575.12 -7.95349 -4.982 0
M  V30 11800 C 1575.66 -6.94612 -5.98974 0
M  V30 11801 O 1574.61 -6.10347 -6.11815 0
M  V30 11802 C 1576.88 -6.11426 -5.62335 0
M  V30 11803 O 1577.62 -5.6162 -6.70584 0
M  V30 11804 C 1576.21 -5.04409 -4.73308 0
M  V30 11805 O 1577.01 -3.85992 -4.75183 0
M  V30 11806 C 1574.87 -4.8728 -5.41006 0
M  V30 11807 H 1574.91 -4.02333 -6.11157 0
M  V30 11808 H 1576.09 -5.39466 -3.69543 0
M  V30 11809 H 1577.57 -6.71916 -5.01943 0
M  V30 11810 H 1575.88 -7.4649 -6.93477 0
M  V30 11811 H 1575.69 -8.89416 -5.05237 0
M  V30 11812 H 1574.06 -8.14876 -5.18409 0
M  V30 11813 H 1576.7 -3.27957 -5.4317 0
M  V30 11814 P 1578.55 -5.75688 -6.64379 0
M  V30 11815 O 1579.98 -6.07627 -7.05504 0
M  V30 11816 O 1578.19 -5.88047 -5.19722 0
M  V30 11817 O 1578.23 -4.2322 -7.04443 0
M  V30 11818 C 1578.07 -3.99743 -8.4911 0
M  V30 11819 C 1578.61 -2.60516 -8.79425 0
M  V30 11820 O 1577.56 -1.82684 -8.4467 0
M  V30 11821 C 1579.83 -2.10343 -8.03628 0
M  V30 11822 O 1580.57 -1.09919 -8.67766 0
M  V30 11823 C 1579.16 -1.68446 -6.70876 0
M  V30 11824 O 1579.96 -0.678137 -6.08433 0
M  V30 11825 C 1577.82 -1.17436 -7.18567 0
M  V30 11826 H 1577.86 -0.0804732 -7.31656 0
M  V30 11827 H 1579.04 -2.54037 -6.02537 0
M  V30 11828 H 1580.52 -2.93881 -7.85526 0
M  V30 11829 H 1578.83 -2.53065 -9.86973 0
M  V30 11830 H 1578.64 -4.75072 -9.05887 0
M  V30 11831 H 1577.01 -4.05244 -8.76668 0
M  V30 11832 H 1579.65 0.177647 -6.34251 0
M  V30 11833 P 1581.51 -1.25109 -8.70152 0
M  V30 11834 O 1582.93 -1.29744 -9.22016 0
M  V30 11835 O 1581.15 -2.13714 -7.55141 0
M  V30 11836 O 1581.18 0.248149 -8.21425 0
M  V30 11837 C 1581.02 1.22779 -9.30434 0
M  V30 11838 C 1581.56 2.56293 -8.80664 0
M  V30 11839 O 1580.51 3.02979 -8.09349 0
M  V30 11840 C 1582.78 2.57523 -7.89775 0
M  V30 11841 O 1583.52 3.7668 -7.89438 0
M  V30 11842 C 1582.11 2.20997 -6.55446 0
M  V30 11843 O 1582.91 2.71895 -5.48509 0
M  V30 11844 C 1580.77 2.89693 -6.67988 0
M  V30 11845 H 1580.81 3.88793 -6.19859 0
M  V30 11846 H 1581.99 1.12046 -6.44229 0
M  V30 11847 H 1583.47 1.7746 -8.19711 0
M  V30 11848 H 1581.78 3.20706 -9.67112 0
M  V30 11849 H 1581.59 0.901032 -10.1892 0
M  V30 11850 H 1579.96 1.33049 -9.56592 0
M  V30 11851 H 1582.6 3.57847 -5.23962 0
M  V30 11852 P 1584.46 3.65191 -7.99657 0
M  V30 11853 O 1585.88 3.89332 -8.45794 0
M  V30 11854 O 1584.1 2.28472 -7.50807 0
M  V30 11855 O 1584.13 4.64972 -6.77611 0
M  V30 11856 C 1583.97 6.06319 -7.16352 0
M  V30 11857 C 1584.51 6.91731 -6.02299 0
M  V30 11858 O 1583.46 6.92449 -5.17064 0
M  V30 11859 C 1585.73 6.43627 -5.25174 0
M  V30 11860 O 1586.47 7.43686 -4.60469 0
M  V30 11861 C 1585.06 5.40275 -4.31916 0
M  V30 11862 O 1585.86 5.25279 -3.14438 0
M  V30 11863 C 1583.73 6.04847 -4.05327 0
M  V30 11864 H 1583.76 6.62195 -3.11261 0
M  V30 11865 H 1584.94 4.42556 -4.81383 0
M  V30 11866 H 1586.42 5.92458 -5.93643 0
M  V30 11867 H 1584.73 7.92655 -6.402 0
M  V30 11868 H 1584.54 6.26671 -8.0846 0
M  V30 11869 H 1582.91 6.29101 -7.32804 0
M  V30 11870 H 1585.55 5.84315 -2.47318 0
M  V30 11871 P 1587.41 7.39546 -4.75277 0
M  V30 11872 O 1588.83 7.84798 -5.01039 0
M  V30 11873 O 1587.05 5.9812 -5.08098 0
M  V30 11874 O 1587.08 7.57503 -3.1866 0
M  V30 11875 C 1586.92 8.97357 -2.74833 0
M  V30 11876 C 1587.46 9.07548 -1.32709 0
M  V30 11877 O 1586.41 8.62072 -0.606159 0
M  V30 11878 C 1588.68 8.25383 -0.938334 0
M  V30 11879 O 1589.42 8.74577 0.146954 0
M  V30 11880 C 1588.01 6.8802 -0.712559 0
M  V30 11881 O 1588.81 6.1189 0.194655 0
M  V30 11882 C 1586.68 7.27966 -0.139777 0
M  V30 11883 H 1586.71 7.25354 0.961601 0
M  V30 11884 H 1587.89 6.32557 -1.65702 0
M  V30 11885 H 1589.37 8.19355 -1.79097 0
M  V30 11886 H 1587.68 10.1294 -1.10029 0
M  V30 11887 H 1587.49 9.64276 -3.41316 0
M  V30 11888 H 1585.86 9.25417 -2.76357 0
M  V30 11889 H 1588.5 6.25267 1.07847 0
M  V30 11890 P 1590.36 8.791 1.31993e-11 0
M  V30 11891 O 1591.78 9.31096 0.027933 0
M  V30 11892 O 1590 7.77869 -1.04071 0
M  V30 11893 O 1590.03 8.09533 1.41463 0
M  V30 11894 C 1589.87 9.0349 2.53943 0
M  V30 11895 C 1590.41 8.35226 3.79016 0
M  V30 11896 O 1589.36 7.57992 4.15078 0
M  V30 11897 C 1591.63 7.45087 3.67298 0
M  V30 11898 O 1592.37 7.27796 4.85194 0
M  V30 11899 C 1590.96 6.17323 3.12027 0
M  V30 11900 O 1591.76 5.04231 3.47188 0
M  V30 11901 C 1589.63 6.19961 3.81809 0
M  V30 11902 H 1589.66 5.58218 4.73051 0
M  V30 11903 H 1590.84 6.21726 2.02589 0
M  V30 11904 H 1592.33 7.86112 2.9231 0
M  V30 11905 H 1590.63 9.11627 4.55076 0
M  V30 11906 H 1590.44 9.9573 2.34194 0
M  V30 11907 H 1588.81 9.2792 2.67832 0
M  V30 11908 H 1591.45 4.67702 4.28772 0
M  V30 11909 P 1593.31 7.39546 4.75277 0
M  V30 11910 O 1594.73 7.81777 5.05738 0
M  V30 11911 O 1592.95 7.1065 3.32998 0
M  V30 11912 O 1592.98 6.04542 5.56673 0
M  V30 11913 C 1592.82 6.22772 7.02095 0
M  V30 11914 C 1593.36 4.97725 7.70406 0
M  V30 11915 O 1592.31 4.13256 7.58987 0
M  V30 11916 C 1594.58 4.28231 7.11815 0
M  V30 11917 O 1595.32 3.49945 8.01648 0
M  V30 11918 C 1593.91 3.5063 5.96244 0
M  V30 11919 O 1594.71 2.36482 5.64681 0
M  V30 11920 C 1592.58 3.15122 6.56374 0
M  V30 11921 H 1592.61 2.13853 6.99751 0
M  V30 11922 H 1593.79 4.13501 5.06559 0
M  V30 11923 H 1595.28 5.03285 6.70911 0
M  V30 11924 H 1593.58 5.20877 8.75697 0
M  V30 11925 H 1593.39 7.11046 7.35349 0
M  V30 11926 H 1591.76 6.35815 7.26986 0
M  V30 11927 H 1594.4 1.61644 6.13565 0
M  V30 11928 P 1596.26 3.65191 7.99657 0
M  V30 11929 O 1597.68 3.8425 8.48115 0
M  V30 11930 O 1595.9 4.17805 6.64342 0
M  V30 11931 O 1595.94 2.07613 7.95143 0
M  V30 11932 C 1595.78 1.44328 9.27336 0
M  V30 11933 C 1596.32 0.0220036 9.17197 0
M  V30 11934 O 1595.26 -0.626867 8.61923 0
M  V30 11935 C 1597.53 -0.24586 8.30336 0
M  V30 11936 O 1598.27 -1.39011 8.63583 0
M  V30 11937 C 1596.86 -0.273849 6.91158 0
M  V30 11938 O 1597.66 -1.06348 6.02892 0
M  V30 11939 C 1595.53 -0.897649 7.22545 0
M  V30 11940 H 1595.56 -1.9841 7.04286 0
M  V30 11941 H 1596.74 0.739928 6.497 0
M  V30 11942 H 1598.23 0.60668 8.36503 0
M  V30 11943 H 1596.53 -0.352479 10.1829 0
M  V30 11944 H 1596.34 2.00611 10.0304 0
M  V30 11945 H 1594.71 1.41843 9.55327 0
M  V30 11946 H 1597.35 -1.95734 6.03555 0
M  V30 11947 P 1599.21 -1.25109 8.70152 0
M  V30 11948 O 1600.61 -1.31452 9.27431 0
M  V30 11949 O 1598.83 -0.0458113 7.89887 0
M  V30 11950 O 1598.89 -2.55201 7.81066 0
M  V30 11951 C 1598.73 -3.79939 8.58154 0
M  V30 11952 C 1599.27 -4.93969 7.72701 0
M  V30 11953 O 1598.21 -5.18666 6.91125 0
M  V30 11954 C 1600.48 -4.69597 6.85231 0
M  V30 11955 O 1601.22 -5.83832 6.51337 0
M  V30 11956 C 1599.82 -3.96706 5.66633 0
M  V30 11957 O 1600.61 -4.15346 4.49615 0
M  V30 11958 C 1598.48 -4.66153 5.59313 0
M  V30 11959 N 1597.43 -3.71582 5.24027 0
M  V30 11960 C 1596.4 -4.15133 4.44901 0
M  V30 11961 O 1596.44 -5.32122 4.00336 0
M  V30 11962 N 1595.39 -3.30554 4.15693 0
M  V30 11963 C 1595.44 -2.04701 4.61105 0
M  V30 11964 C 1596.53 -1.57111 5.38655 0
M  V30 11965 C 1597.5 -2.44234 5.68454 0
M  V30 11966 H 1598.51 -5.47604 4.85148 0
M  V30 11967 H 1599.69 -2.8955 5.86187 0
M  V30 11968 H 1601.18 -4.01995 7.36197 0
M  V30 11969 H 1599.48 -5.81019 8.37003 0
M  V30 11970 H 1599.29 -3.73517 9.52265 0
M  V30 11971 H 1597.66 -3.97122 8.80267 0
M  V30 11972 H 1596.58 -0.538464 5.72373 0
M  V30 11973 H 1598.34 -2.11927 6.29377 0
M  V30 11974 H 1600.4 -4.98352 4.09633 0
M  V30 11975 P 1602.16 -5.75688 6.64379 0
M  V30 11976 O 1603.58 -6.11849 7.01846 0
M  V30 11977 O 1601.8 -4.30744 6.56026 0
M  V30 11978 O 1601.84 -6.37042 5.19165 0
M  V30 11979 C 1601.68 -7.83578 5.16515 0
M  V30 11980 C 1602.22 -8.33398 3.83019 0
M  V30 11981 O 1601.16 -8.10074 3.01034 0
M  V30 11982 C 1603.43 -7.65514 3.2257 0
M  V30 11983 O 1604.17 -8.4329 2.32297 0
M  V30 11984 C 1602.77 -6.40075 2.62207 0
M  V30 11985 O 1603.56 -5.92589 1.53712 0
M  V30 11986 C 1601.43 -6.9454 2.18503 0
M  V30 11987 H 1601.46 -7.23063 1.12091 0
M  V30 11988 H 1602.64 -5.6025 3.37201 0
M  V30 11989 H 1604.13 -7.35707 4.02681 0
M  V30 11990 H 1602.43 -9.40912 3.9095 0
M  V30 11991 H 1602.24 -8.29056 5.99158 0
M  V30 11992 H 1600.61 -8.10073 5.25882 0
M  V30 11993 H 1603.25 -6.30324 0.726794 0
M  V30 11994 P 1605.11 -8.4349 2.47671 0
M  V30 11995 O 1606.53 -8.94167 2.5964 0
M  V30 11996 O 1604.75 -7.1704 3.19006 0
M  V30 11997 O 1604.79 -8.16596 0.923387 0
M  V30 11998 C 1604.63 -9.38437 0.108857 0
M  V30 11999 C 1605.17 -9.08175 -1.28353 0
M  V30 12000 O 1604.11 -8.44229 -1.84713 0
M  V30 12001 C 1606.39 -8.18386 -1.42505 0
M  V30 12002 O 1607.12 -8.3501 -2.60497 0
M  V30 12003 C 1605.72 -6.80225 -1.25468 0
M  V30 12004 O 1606.52 -5.81621 -1.91066 0
M  V30 12005 C 1604.38 -7.02416 -1.9168 0
M  V30 12006 H 1604.41 -6.6888 -2.96621 0
M  V30 12007 H 1605.59 -6.53617 -0.192223 0
M  V30 12008 H 1607.08 -8.36622 -0.589963 0
M  V30 12009 H 1605.38 -10.0291 -1.79807 0
M  V30 12010 H 1605.19 -10.2138 0.558219 0
M  V30 12011 H 1603.56 -9.6579 0.0444202 0
M  V30 12012 H 1606.2 -5.69556 -2.79637 0
M  V30 12013 P 1608.06 -8.4349 -2.47671 0
M  V30 12014 O 1609.48 -8.92593 -2.65 0
M  V30 12015 O 1607.7 -7.7568 -1.19296 0
M  V30 12016 O 1607.74 -7.36886 -3.63805 0
M  V30 12017 C 1607.58 -7.95349 -4.982 0
M  V30 12018 C 1608.12 -6.94612 -5.98974 0
M  V30 12019 O 1607.06 -6.10347 -6.11815 0
M  V30 12020 C 1609.34 -6.11426 -5.62335 0
M  V30 12021 O 1610.07 -5.6162 -6.70584 0
M  V30 12022 C 1608.67 -5.04409 -4.73308 0
M  V30 12023 O 1609.47 -3.85992 -4.75183 0
M  V30 12024 C 1607.33 -4.8728 -5.41006 0
M  V30 12025 H 1607.36 -4.02333 -6.11157 0
M  V30 12026 H 1608.54 -5.39466 -3.69543 0
M  V30 12027 H 1610.03 -6.71916 -5.01943 0
M  V30 12028 H 1608.33 -7.4649 -6.93477 0
M  V30 12029 H 1608.14 -8.89416 -5.05237 0
M  V30 12030 H 1606.51 -8.14876 -5.18409 0
M  V30 12031 H 1609.15 -3.27957 -5.4317 0
M  V30 12032 P 1611.01 -5.75688 -6.64379 0
M  V30 12033 O 1612.43 -6.07627 -7.05504 0
M  V30 12034 O 1610.65 -5.88047 -5.19722 0
M  V30 12035 O 1610.69 -4.2322 -7.04443 0
M  V30 12036 C 1610.53 -3.99743 -8.4911 0
M  V30 12037 C 1611.07 -2.60516 -8.79425 0
M  V30 12038 O 1610.01 -1.82684 -8.4467 0
M  V30 12039 C 1612.29 -2.10343 -8.03628 0
M  V30 12040 O 1613.02 -1.09919 -8.67766 0
M  V30 12041 C 1611.62 -1.68446 -6.70876 0
M  V30 12042 O 1612.42 -0.678137 -6.08433 0
M  V30 12043 C 1610.28 -1.17436 -7.18567 0
M  V30 12044 H 1610.31 -0.0804732 -7.31656 0
M  V30 12045 H 1611.5 -2.54037 -6.02537 0
M  V30 12046 H 1612.98 -2.93881 -7.85526 0
M  V30 12047 H 1611.29 -2.53065 -9.86973 0
M  V30 12048 H 1611.1 -4.75072 -9.05887 0
M  V30 12049 H 1609.47 -4.05244 -8.76668 0
M  V30 12050 H 1612.1 0.177647 -6.34251 0
M  V30 12051 P 1613.96 -1.25109 -8.70152 0
M  V30 12052 O 1615.38 -1.29744 -9.22016 0
M  V30 12053 O 1613.6 -2.13714 -7.55141 0
M  V30 12054 O 1613.64 0.248149 -8.21425 0
M  V30 12055 C 1613.48 1.22779 -9.30434 0
M  V30 12056 C 1614.02 2.56293 -8.80664 0
M  V30 12057 O 1612.96 3.02979 -8.09349 0
M  V30 12058 C 1615.24 2.57523 -7.89775 0
M  V30 12059 O 1615.97 3.7668 -7.89438 0
M  V30 12060 C 1614.57 2.20997 -6.55446 0
M  V30 12061 O 1615.37 2.71895 -5.48509 0
M  V30 12062 C 1613.23 2.89693 -6.67988 0
M  V30 12063 H 1613.26 3.88793 -6.19859 0
M  V30 12064 H 1614.45 1.12046 -6.44229 0
M  V30 12065 H 1615.93 1.7746 -8.19711 0
M  V30 12066 H 1614.24 3.20706 -9.67112 0
M  V30 12067 H 1614.05 0.901032 -10.1892 0
M  V30 12068 H 1612.42 1.33049 -9.56592 0
M  V30 12069 H 1615.05 3.57847 -5.23962 0
M  V30 12070 P 1616.91 3.65191 -7.99657 0
M  V30 12071 O 1618.33 3.89332 -8.45794 0
M  V30 12072 O 1616.55 2.28472 -7.50807 0
M  V30 12073 O 1616.59 4.64972 -6.77611 0
M  V30 12074 C 1616.43 6.06319 -7.16352 0
M  V30 12075 C 1616.97 6.91731 -6.02299 0
M  V30 12076 O 1615.91 6.92449 -5.17064 0
M  V30 12077 C 1618.19 6.43627 -5.25174 0
M  V30 12078 O 1618.93 7.43686 -4.60469 0
M  V30 12079 C 1617.52 5.40275 -4.31916 0
M  V30 12080 O 1618.32 5.25279 -3.14438 0
M  V30 12081 C 1616.18 6.04847 -4.05327 0
M  V30 12082 H 1616.21 6.62195 -3.11261 0
M  V30 12083 H 1617.4 4.42556 -4.81383 0
M  V30 12084 H 1618.88 5.92458 -5.93643 0
M  V30 12085 H 1617.19 7.92655 -6.402 0
M  V30 12086 H 1617 6.26671 -8.0846 0
M  V30 12087 H 1615.37 6.29101 -7.32804 0
M  V30 12088 H 1618.01 5.84315 -2.47318 0
M  V30 12089 P 1619.86 7.39546 -4.75277 0
M  V30 12090 O 1621.28 7.84798 -5.01039 0
M  V30 12091 O 1619.5 5.9812 -5.08098 0
M  V30 12092 O 1619.54 7.57503 -3.1866 0
M  V30 12093 C 1619.38 8.97357 -2.74833 0
M  V30 12094 C 1619.92 9.07548 -1.32709 0
M  V30 12095 O 1618.86 8.62072 -0.606159 0
M  V30 12096 C 1621.14 8.25383 -0.938334 0
M  V30 12097 O 1621.88 8.74577 0.146954 0
M  V30 12098 C 1620.47 6.8802 -0.712559 0
M  V30 12099 O 1621.27 6.1189 0.194655 0
M  V30 12100 C 1619.13 7.27966 -0.139777 0
M  V30 12101 H 1619.16 7.25354 0.961601 0
M  V30 12102 H 1620.35 6.32557 -1.65702 0
M  V30 12103 H 1621.83 8.19355 -1.79097 0
M  V30 12104 H 1620.14 10.1294 -1.10029 0
M  V30 12105 H 1619.95 9.64276 -3.41316 0
M  V30 12106 H 1618.32 9.25417 -2.76357 0
M  V30 12107 H 1620.96 6.25267 1.07847 0
M  V30 12108 P 1622.81 8.791 1.35095e-11 0
M  V30 12109 O 1624.24 9.31096 0.027933 0
M  V30 12110 O 1622.45 7.77869 -1.04071 0
M  V30 12111 O 1622.49 8.09533 1.41463 0
M  V30 12112 C 1622.33 9.0349 2.53943 0
M  V30 12113 C 1622.87 8.35226 3.79016 0
M  V30 12114 O 1621.81 7.57992 4.15078 0
M  V30 12115 C 1624.09 7.45087 3.67298 0
M  V30 12116 O 1624.83 7.27796 4.85194 0
M  V30 12117 C 1623.42 6.17323 3.12027 0
M  V30 12118 O 1624.22 5.04231 3.47188 0
M  V30 12119 C 1622.08 6.19961 3.81809 0
M  V30 12120 H 1622.11 5.58218 4.73051 0
M  V30 12121 H 1623.3 6.21726 2.02589 0
M  V30 12122 H 1624.78 7.86112 2.9231 0
M  V30 12123 H 1623.09 9.11627 4.55076 0
M  V30 12124 H 1622.9 9.9573 2.34194 0
M  V30 12125 H 1621.27 9.2792 2.67832 0
M  V30 12126 H 1623.91 4.67702 4.28772 0
M  V30 12127 P 1625.76 7.39546 4.75277 0
M  V30 12128 O 1627.19 7.81777 5.05738 0
M  V30 12129 O 1625.4 7.1065 3.32998 0
M  V30 12130 O 1625.44 6.04542 5.56673 0
M  V30 12131 C 1625.28 6.22772 7.02095 0
M  V30 12132 C 1625.82 4.97725 7.70406 0
M  V30 12133 O 1624.77 4.13256 7.58987 0
M  V30 12134 C 1627.04 4.28231 7.11815 0
M  V30 12135 O 1627.78 3.49945 8.01648 0
M  V30 12136 C 1626.37 3.5063 5.96244 0
M  V30 12137 O 1627.17 2.36482 5.64681 0
M  V30 12138 C 1625.03 3.15122 6.56374 0
M  V30 12139 H 1625.07 2.13853 6.99751 0
M  V30 12140 H 1626.25 4.13501 5.06559 0
M  V30 12141 H 1627.73 5.03285 6.70911 0
M  V30 12142 H 1626.04 5.20877 8.75697 0
M  V30 12143 H 1625.85 7.11046 7.35349 0
M  V30 12144 H 1624.22 6.35815 7.26986 0
M  V30 12145 H 1626.86 1.61644 6.13565 0
M  V30 12146 P 1628.71 3.65191 7.99657 0
M  V30 12147 O 1630.14 3.8425 8.48115 0
M  V30 12148 O 1628.35 4.17805 6.64342 0
M  V30 12149 O 1628.39 2.07613 7.95143 0
M  V30 12150 C 1628.23 1.44328 9.27336 0
M  V30 12151 C 1628.77 0.0220036 9.17197 0
M  V30 12152 O 1627.72 -0.626867 8.61923 0
M  V30 12153 C 1629.99 -0.24586 8.30336 0
M  V30 12154 O 1630.73 -1.39011 8.63583 0
M  V30 12155 C 1629.32 -0.273849 6.91158 0
M  V30 12156 O 1630.12 -1.06348 6.02892 0
M  V30 12157 C 1627.98 -0.897649 7.22545 0
M  V30 12158 H 1628.02 -1.9841 7.04286 0
M  V30 12159 H 1629.2 0.739928 6.497 0
M  V30 12160 H 1630.68 0.60668 8.36503 0
M  V30 12161 H 1628.99 -0.352479 10.1829 0
M  V30 12162 H 1628.8 2.00611 10.0304 0
M  V30 12163 H 1627.17 1.41843 9.55327 0
M  V30 12164 H 1629.81 -1.95734 6.03555 0
M  V30 12165 P 1631.67 -1.25109 8.70152 0
M  V30 12166 O 1633.09 -1.35274 9.21221 0
M  V30 12167 O 1631.31 -0.0769065 7.84762 0
M  V30 12168 O 1631.34 -2.55232 7.81161 0
M  V30 12169 C 1631.18 -3.79939 8.58154 0
M  V30 12170 C 1631.72 -4.94023 7.72785 0
M  V30 12171 O 1630.67 -5.18726 6.91205 0
M  V30 12172 C 1632.94 -4.69597 6.85231 0
M  V30 12173 O 1633.68 -5.83832 6.51337 0
M  V30 12174 C 1632.27 -3.96706 5.66633 0
M  V30 12175 O 1633.07 -4.15414 4.49689 0
M  V30 12176 C 1630.93 -4.66153 5.59313 0
M  V30 12177 H 1630.97 -5.47679 4.85214 0
M  V30 12178 H 1632.15 -2.89008 5.86566 0
M  V30 12179 H 1633.63 -4.0121 7.36511 0
M  V30 12180 H 1631.94 -5.80182 8.37584 0
M  V30 12181 H 1631.75 -3.73517 9.52265 0
M  V30 12182 H 1630.12 -3.97163 8.80359 0
M  V30 12183 H 1632.76 -4.90969 4.01921 0
M  V30 12184 P 1634.62 -5.75688 6.64379 0
M  V30 12185 O 1636.04 -6.11849 7.01846 0
M  V30 12186 O 1634.26 -4.30744 6.56026 0
M  V30 12187 O 1634.29 -6.37042 5.19165 0
M  V30 12188 C 1634.13 -7.83578 5.16515 0
M  V30 12189 C 1634.67 -8.33398 3.83019 0
M  V30 12190 O 1633.62 -8.10074 3.01034 0
M  V30 12191 C 1635.89 -7.65514 3.2257 0
M  V30 12192 O 1636.63 -8.4329 2.32297 0
M  V30 12193 C 1635.22 -6.40075 2.62207 0
M  V30 12194 O 1636.02 -5.92589 1.53712 0
M  V30 12195 C 1633.88 -6.9454 2.18503 0
M  V30 12196 H 1633.92 -7.23063 1.12091 0
M  V30 12197 H 1635.1 -5.6025 3.37201 0
M  V30 12198 H 1636.58 -7.35707 4.02681 0
M  V30 12199 H 1634.89 -9.40912 3.9095 0
M  V30 12200 H 1634.7 -8.29056 5.99158 0
M  V30 12201 H 1633.07 -8.10073 5.25882 0
M  V30 12202 H 1635.71 -6.30324 0.726794 0
M  V30 12203 P 1637.57 -8.4349 2.47671 0
M  V30 12204 O 1638.99 -8.94167 2.5964 0
M  V30 12205 O 1637.21 -7.1704 3.19006 0
M  V30 12206 O 1637.24 -8.16596 0.923387 0
M  V30 12207 C 1637.08 -9.38437 0.108857 0
M  V30 12208 C 1637.62 -9.08175 -1.28353 0
M  V30 12209 O 1636.57 -8.44229 -1.84713 0
M  V30 12210 C 1638.84 -8.18386 -1.42505 0
M  V30 12211 O 1639.58 -8.3501 -2.60497 0
M  V30 12212 C 1638.17 -6.80225 -1.25468 0
M  V30 12213 O 1638.97 -5.81621 -1.91066 0
M  V30 12214 C 1636.84 -7.02416 -1.9168 0
M  V30 12215 H 1636.87 -6.6888 -2.96621 0
M  V30 12216 H 1638.05 -6.53617 -0.192223 0
M  V30 12217 H 1639.53 -8.36622 -0.589963 0
M  V30 12218 H 1637.84 -10.0291 -1.79807 0
M  V30 12219 H 1637.65 -10.2138 0.558219 0
M  V30 12220 H 1636.02 -9.6579 0.0444202 0
M  V30 12221 H 1638.66 -5.69556 -2.79637 0
M  V30 12222 P 1640.52 -8.4349 -2.47671 0
M  V30 12223 O 1641.94 -8.92593 -2.65 0
M  V30 12224 O 1640.16 -7.7568 -1.19296 0
M  V30 12225 O 1640.19 -7.36886 -3.63805 0
M  V30 12226 C 1640.03 -7.95349 -4.982 0
M  V30 12227 C 1640.57 -6.94612 -5.98974 0
M  V30 12228 O 1639.52 -6.10347 -6.11815 0
M  V30 12229 C 1641.79 -6.11426 -5.62335 0
M  V30 12230 O 1642.53 -5.6162 -6.70584 0
M  V30 12231 C 1641.12 -5.04409 -4.73308 0
M  V30 12232 O 1641.92 -3.85992 -4.75183 0
M  V30 12233 C 1639.79 -4.8728 -5.41006 0
M  V30 12234 H 1639.82 -4.02333 -6.11157 0
M  V30 12235 H 1641 -5.39466 -3.69543 0
M  V30 12236 H 1642.48 -6.71916 -5.01943 0
M  V30 12237 H 1640.79 -7.4649 -6.93477 0
M  V30 12238 H 1640.6 -8.89416 -5.05237 0
M  V30 12239 H 1638.97 -8.14876 -5.18409 0
M  V30 12240 H 1641.61 -3.27957 -5.4317 0
M  V30 12241 P 1643.47 -5.75688 -6.64379 0
M  V30 12242 O 1644.89 -6.07627 -7.05504 0
M  V30 12243 O 1643.11 -5.88047 -5.19722 0
M  V30 12244 O 1643.14 -4.2322 -7.04443 0
M  V30 12245 C 1642.98 -3.99743 -8.4911 0
M  V30 12246 C 1643.52 -2.60516 -8.79425 0
M  V30 12247 O 1642.47 -1.82684 -8.4467 0
M  V30 12248 C 1644.74 -2.10343 -8.03628 0
M  V30 12249 O 1645.48 -1.09919 -8.67766 0
M  V30 12250 C 1644.07 -1.68446 -6.70876 0
M  V30 12251 O 1644.87 -0.678137 -6.08433 0
M  V30 12252 C 1642.74 -1.17436 -7.18567 0
M  V30 12253 H 1642.77 -0.0804732 -7.31656 0
M  V30 12254 H 1643.95 -2.54037 -6.02537 0
M  V30 12255 H 1645.44 -2.93881 -7.85526 0
M  V30 12256 H 1643.74 -2.53065 -9.86973 0
M  V30 12257 H 1643.55 -4.75072 -9.05887 0
M  V30 12258 H 1641.92 -4.05244 -8.76668 0
M  V30 12259 H 1644.56 0.177647 -6.34251 0
M  V30 12260 P 1646.42 -1.25109 -8.70152 0
M  V30 12261 O 1647.84 -1.29744 -9.22016 0
M  V30 12262 O 1646.06 -2.13714 -7.55141 0
M  V30 12263 O 1646.1 0.248149 -8.21425 0
M  V30 12264 C 1645.94 1.22779 -9.30434 0
M  V30 12265 C 1646.48 2.56293 -8.80664 0
M  V30 12266 O 1645.42 3.02979 -8.09349 0
M  V30 12267 C 1647.69 2.57523 -7.89775 0
M  V30 12268 O 1648.43 3.7668 -7.89438 0
M  V30 12269 C 1647.02 2.20997 -6.55446 0
M  V30 12270 O 1647.82 2.71895 -5.48509 0
M  V30 12271 C 1645.69 2.89693 -6.67988 0
M  V30 12272 H 1645.72 3.88793 -6.19859 0
M  V30 12273 H 1646.9 1.12046 -6.44229 0
M  V30 12274 H 1648.39 1.7746 -8.19711 0
M  V30 12275 H 1646.69 3.20706 -9.67112 0
M  V30 12276 H 1646.5 0.901032 -10.1892 0
M  V30 12277 H 1644.87 1.33049 -9.56592 0
M  V30 12278 H 1647.51 3.57847 -5.23962 0
M  V30 12279 P 1649.37 3.65191 -7.99657 0
M  V30 12280 O 1650.79 3.89332 -8.45794 0
M  V30 12281 O 1649.01 2.28472 -7.50807 0
M  V30 12282 O 1649.05 4.64972 -6.77611 0
M  V30 12283 C 1648.89 6.06319 -7.16352 0
M  V30 12284 C 1649.43 6.91731 -6.02299 0
M  V30 12285 O 1648.37 6.92449 -5.17064 0
M  V30 12286 C 1650.64 6.43627 -5.25174 0
M  V30 12287 O 1651.38 7.43686 -4.60469 0
M  V30 12288 C 1649.97 5.40275 -4.31916 0
M  V30 12289 O 1650.77 5.25279 -3.14438 0
M  V30 12290 C 1648.64 6.04847 -4.05327 0
M  V30 12291 H 1648.67 6.62195 -3.11261 0
M  V30 12292 H 1649.85 4.42556 -4.81383 0
M  V30 12293 H 1651.34 5.92458 -5.93643 0
M  V30 12294 H 1649.64 7.92655 -6.402 0
M  V30 12295 H 1649.45 6.26671 -8.0846 0
M  V30 12296 H 1647.82 6.29101 -7.32804 0
M  V30 12297 H 1650.46 5.84315 -2.47318 0
M  V30 12298 P 1652.32 7.39546 -4.75277 0
M  V30 12299 O 1653.74 7.84966 -5.01146 0
M  V30 12300 O 1651.96 5.9812 -5.08098 0
M  V30 12301 O 1652 7.57503 -3.1866 0
M  V30 12302 C 1651.84 8.97357 -2.74833 0
M  V30 12303 C 1652.38 9.0745 -1.32694 0
M  V30 12304 O 1651.32 8.62072 -0.606159 0
M  V30 12305 C 1653.59 8.25383 -0.938334 0
M  V30 12306 O 1654.33 8.74577 0.146954 0
M  V30 12307 C 1652.93 6.8802 -0.712559 0
M  V30 12308 O 1653.72 6.11791 0.194623 0
M  V30 12309 C 1651.59 7.27966 -0.139777 0
M  V30 12310 N 1650.55 6.39368 -0.623421 0
M  V30 12311 C 1650.61 5.90299 -1.85969 0
M  V30 12312 N 1649.56 5.10919 -2.1133 0
M  V30 12313 C 1648.83 5.14646 -1.0015 0
M  V30 12314 C 1647.52 4.60057 -0.729219 0
M  V30 12315 O 1646.79 3.93476 -1.47746 0
M  V30 12316 N 1647.09 4.88302 0.523505 0
M  V30 12317 C 1647.84 5.63646 1.46207 0
M  V30 12318 N 1647.24 5.78186 2.69239 0
M  V30 12319 N 1648.99 6.19285 1.21544 0
M  V30 12320 C 1649.45 5.93392 -0.0308487 0
M  V30 12321 H 1651.62 7.25354 0.961601 0
M  V30 12322 H 1652.8 6.3246 -1.65676 0
M  V30 12323 H 1654.29 8.19533 -1.78278 0
M  V30 12324 H 1652.59 10.1294 -1.10029 0
M  V30 12325 H 1652.4 9.64276 -3.41316 0
M  V30 12326 H 1650.77 9.25417 -2.76357 0
M  V30 12327 H 1646.2 4.53993 0.806451 0
M  V30 12328 H 1651.4 6.11865 -2.57394 0
M  V30 12329 H 1646.33 5.34046 2.87467 0
M  V30 12330 H 1647.71 6.33391 3.42578 0
M  V30 12331 H 1653.41 6.25169 1.0783 0
M  V30 12332 P 1655.27 8.791 1.38196e-11 0
M  V30 12333 O 1656.69 9.31096 0.027933 0
M  V30 12334 O 1654.91 7.77869 -1.04071 0
M  V30 12335 O 1654.95 8.09533 1.41463 0
M  V30 12336 C 1654.79 9.0349 2.53943 0
M  V30 12337 C 1655.33 8.35226 3.79016 0
M  V30 12338 O 1654.27 7.57992 4.15078 0
M  V30 12339 C 1656.54 7.45087 3.67298 0
M  V30 12340 O 1657.28 7.27796 4.85194 0
M  V30 12341 C 1655.88 6.17323 3.12027 0
M  V30 12342 O 1656.67 5.04231 3.47188 0
M  V30 12343 C 1654.54 6.19961 3.81809 0
M  V30 12344 H 1654.57 5.58218 4.73051 0
M  V30 12345 H 1655.75 6.21726 2.02589 0
M  V30 12346 H 1657.24 7.86112 2.9231 0
M  V30 12347 H 1655.54 9.11627 4.55076 0
M  V30 12348 H 1655.35 9.9573 2.34194 0
M  V30 12349 H 1653.72 9.2792 2.67832 0
M  V30 12350 H 1656.36 4.67702 4.28772 0
M  V30 12351 P 1658.22 7.39546 4.75277 0
M  V30 12352 O 1659.64 7.81777 5.05738 0
M  V30 12353 O 1657.86 7.1065 3.32998 0
M  V30 12354 O 1657.9 6.04542 5.56673 0
M  V30 12355 C 1657.74 6.22772 7.02095 0
M  V30 12356 C 1658.28 4.97725 7.70406 0
M  V30 12357 O 1657.22 4.13256 7.58987 0
M  V30 12358 C 1659.5 4.28231 7.11815 0
M  V30 12359 O 1660.23 3.49945 8.01648 0
M  V30 12360 C 1658.83 3.5063 5.96244 0
M  V30 12361 O 1659.63 2.36482 5.64681 0
M  V30 12362 C 1657.49 3.15122 6.56374 0
M  V30 12363 H 1657.52 2.13853 6.99751 0
M  V30 12364 H 1658.7 4.13501 5.06559 0
M  V30 12365 H 1660.19 5.03285 6.70911 0
M  V30 12366 H 1658.49 5.20877 8.75697 0
M  V30 12367 H 1658.3 7.11046 7.35349 0
M  V30 12368 H 1656.67 6.35815 7.26986 0
M  V30 12369 H 1659.31 1.61644 6.13565 0
M  V30 12370 P 1661.17 3.65191 7.99657 0
M  V30 12371 O 1662.59 3.8425 8.48115 0
M  V30 12372 O 1660.81 4.17805 6.64342 0
M  V30 12373 O 1660.85 2.07613 7.95143 0
M  V30 12374 C 1660.69 1.44328 9.27336 0
M  V30 12375 C 1661.23 0.0220036 9.17197 0
M  V30 12376 O 1660.17 -0.626867 8.61923 0
M  V30 12377 C 1662.45 -0.24586 8.30336 0
M  V30 12378 O 1663.18 -1.39011 8.63583 0
M  V30 12379 C 1661.78 -0.273849 6.91158 0
M  V30 12380 O 1662.58 -1.06348 6.02892 0
M  V30 12381 C 1660.44 -0.897649 7.22545 0
M  V30 12382 H 1660.47 -1.9841 7.04286 0
M  V30 12383 H 1661.65 0.739928 6.497 0
M  V30 12384 H 1663.14 0.60668 8.36503 0
M  V30 12385 H 1661.44 -0.352479 10.1829 0
M  V30 12386 H 1661.25 2.00611 10.0304 0
M  V30 12387 H 1659.62 1.41843 9.55327 0
M  V30 12388 H 1662.26 -1.95734 6.03555 0
M  V30 12389 P 1664.12 -1.25109 8.70152 0
M  V30 12390 O 1665.54 -1.35274 9.21221 0
M  V30 12391 O 1663.76 -0.0769065 7.84762 0
M  V30 12392 O 1663.8 -2.55232 7.81161 0
M  V30 12393 C 1663.64 -3.79939 8.58154 0
M  V30 12394 C 1664.18 -4.94023 7.72785 0
M  V30 12395 O 1663.12 -5.18726 6.91205 0
M  V30 12396 C 1665.4 -4.69597 6.85231 0
M  V30 12397 O 1666.13 -5.83832 6.51337 0
M  V30 12398 C 1664.73 -3.96706 5.66633 0
M  V30 12399 O 1665.53 -4.15414 4.49689 0
M  V30 12400 C 1663.39 -4.66153 5.59313 0
M  V30 12401 H 1663.42 -5.47679 4.85214 0
M  V30 12402 H 1664.61 -2.89008 5.86566 0
M  V30 12403 H 1666.09 -4.0121 7.36511 0
M  V30 12404 H 1664.4 -5.80182 8.37584 0
M  V30 12405 H 1664.21 -3.73517 9.52265 0
M  V30 12406 H 1662.58 -3.97163 8.80359 0
M  V30 12407 H 1665.21 -4.90969 4.01921 0
M  V30 12408 P 1667.07 -5.75688 6.64379 0
M  V30 12409 O 1668.49 -6.11849 7.01846 0
M  V30 12410 O 1666.71 -4.30744 6.56026 0
M  V30 12411 O 1666.75 -6.37042 5.19165 0
M  V30 12412 C 1666.59 -7.83578 5.16515 0
M  V30 12413 C 1667.13 -8.33398 3.83019 0
M  V30 12414 O 1666.07 -8.10074 3.01034 0
M  V30 12415 C 1668.35 -7.65514 3.2257 0
M  V30 12416 O 1669.09 -8.4329 2.32297 0
M  V30 12417 C 1667.68 -6.40075 2.62207 0
M  V30 12418 O 1668.48 -5.92589 1.53712 0
M  V30 12419 C 1666.34 -6.9454 2.18503 0
M  V30 12420 H 1666.37 -7.23063 1.12091 0
M  V30 12421 H 1667.56 -5.6025 3.37201 0
M  V30 12422 H 1669.04 -7.35707 4.02681 0
M  V30 12423 H 1667.35 -9.40912 3.9095 0
M  V30 12424 H 1667.16 -8.29056 5.99158 0
M  V30 12425 H 1665.53 -8.10073 5.25882 0
M  V30 12426 H 1668.17 -6.30324 0.726794 0
M  V30 12427 P 1670.02 -8.4349 2.47671 0
M  V30 12428 O 1671.44 -8.94167 2.5964 0
M  V30 12429 O 1669.66 -7.1704 3.19006 0
M  V30 12430 O 1669.7 -8.16596 0.923387 0
M  V30 12431 C 1669.54 -9.38437 0.108857 0
M  V30 12432 C 1670.08 -9.08175 -1.28353 0
M  V30 12433 O 1669.02 -8.44229 -1.84713 0
M  V30 12434 C 1671.3 -8.18386 -1.42505 0
M  V30 12435 O 1672.04 -8.3501 -2.60497 0
M  V30 12436 C 1670.63 -6.80225 -1.25468 0
M  V30 12437 O 1671.43 -5.81621 -1.91066 0
M  V30 12438 C 1669.29 -7.02416 -1.9168 0
M  V30 12439 H 1669.32 -6.6888 -2.96621 0
M  V30 12440 H 1670.51 -6.53617 -0.192223 0
M  V30 12441 H 1671.99 -8.36622 -0.589963 0
M  V30 12442 H 1670.3 -10.0291 -1.79807 0
M  V30 12443 H 1670.11 -10.2138 0.558219 0
M  V30 12444 H 1668.48 -9.6579 0.0444202 0
M  V30 12445 H 1671.12 -5.69556 -2.79637 0
M  V30 12446 P 1672.97 -8.4349 -2.47671 0
M  V30 12447 O 1674.4 -8.92593 -2.65 0
M  V30 12448 O 1672.61 -7.7568 -1.19296 0
M  V30 12449 O 1672.65 -7.36886 -3.63805 0
M  V30 12450 C 1672.49 -7.95349 -4.982 0
M  V30 12451 C 1673.03 -6.94612 -5.98974 0
M  V30 12452 O 1671.97 -6.10347 -6.11815 0
M  V30 12453 C 1674.25 -6.11426 -5.62335 0
M  V30 12454 O 1674.99 -5.6162 -6.70584 0
M  V30 12455 C 1673.58 -5.04409 -4.73308 0
M  V30 12456 O 1674.38 -3.85992 -4.75183 0
M  V30 12457 C 1672.24 -4.8728 -5.41006 0
M  V30 12458 H 1672.27 -4.02333 -6.11157 0
M  V30 12459 H 1673.46 -5.39466 -3.69543 0
M  V30 12460 H 1674.94 -6.71916 -5.01943 0
M  V30 12461 H 1673.25 -7.4649 -6.93477 0
M  V30 12462 H 1673.06 -8.89416 -5.05237 0
M  V30 12463 H 1671.43 -8.14876 -5.18409 0
M  V30 12464 H 1674.07 -3.27957 -5.4317 0
M  V30 12465 P 1675.92 -5.75688 -6.64379 0
M  V30 12466 O 1677.35 -6.07627 -7.05504 0
M  V30 12467 O 1675.56 -5.88047 -5.19722 0
M  V30 12468 O 1675.6 -4.2322 -7.04443 0
M  V30 12469 C 1675.44 -3.99743 -8.4911 0
M  V30 12470 C 1675.98 -2.60516 -8.79425 0
M  V30 12471 O 1674.92 -1.82684 -8.4467 0
M  V30 12472 C 1677.2 -2.10343 -8.03628 0
M  V30 12473 O 1677.94 -1.09919 -8.67766 0
M  V30 12474 C 1676.53 -1.68446 -6.70876 0
M  V30 12475 O 1677.33 -0.678137 -6.08433 0
M  V30 12476 C 1675.19 -1.17436 -7.18567 0
M  V30 12477 H 1675.22 -0.0804732 -7.31656 0
M  V30 12478 H 1676.41 -2.54037 -6.02537 0
M  V30 12479 H 1677.89 -2.93881 -7.85526 0
M  V30 12480 H 1676.2 -2.53065 -9.86973 0
M  V30 12481 H 1676.01 -4.75072 -9.05887 0
M  V30 12482 H 1674.38 -4.05244 -8.76668 0
M  V30 12483 H 1677.02 0.177647 -6.34251 0
M  V30 12484 P 1678.87 -1.25109 -8.70152 0
M  V30 12485 O 1680.3 -1.29744 -9.22016 0
M  V30 12486 O 1678.51 -2.13714 -7.55141 0
M  V30 12487 O 1678.55 0.248149 -8.21425 0
M  V30 12488 C 1678.39 1.22779 -9.30434 0
M  V30 12489 C 1678.93 2.56293 -8.80664 0
M  V30 12490 O 1677.88 3.02979 -8.09349 0
M  V30 12491 C 1680.15 2.57523 -7.89775 0
M  V30 12492 O 1680.89 3.7668 -7.89438 0
M  V30 12493 C 1679.48 2.20997 -6.55446 0
M  V30 12494 O 1680.28 2.71895 -5.48509 0
M  V30 12495 C 1678.14 2.89693 -6.67988 0
M  V30 12496 H 1678.18 3.88793 -6.19859 0
M  V30 12497 H 1679.36 1.12046 -6.44229 0
M  V30 12498 H 1680.84 1.7746 -8.19711 0
M  V30 12499 H 1679.15 3.20706 -9.67112 0
M  V30 12500 H 1678.96 0.901032 -10.1892 0
M  V30 12501 H 1677.33 1.33049 -9.56592 0
M  V30 12502 H 1679.97 3.57847 -5.23962 0
M  V30 12503 P 1681.82 3.65191 -7.99657 0
M  V30 12504 O 1683.25 3.89332 -8.45794 0
M  V30 12505 O 1681.46 2.28472 -7.50807 0
M  V30 12506 O 1681.5 4.64972 -6.77611 0
M  V30 12507 C 1681.34 6.06319 -7.16352 0
M  V30 12508 C 1681.88 6.91731 -6.02299 0
M  V30 12509 O 1680.83 6.92449 -5.17064 0
M  V30 12510 C 1683.1 6.43627 -5.25174 0
M  V30 12511 O 1683.84 7.43686 -4.60469 0
M  V30 12512 C 1682.43 5.40275 -4.31916 0
M  V30 12513 O 1683.23 5.25279 -3.14438 0
M  V30 12514 C 1681.09 6.04847 -4.05327 0
M  V30 12515 H 1681.13 6.62195 -3.11261 0
M  V30 12516 H 1682.31 4.42556 -4.81383 0
M  V30 12517 H 1683.79 5.92458 -5.93643 0
M  V30 12518 H 1682.1 7.92655 -6.402 0
M  V30 12519 H 1681.91 6.26671 -8.0846 0
M  V30 12520 H 1680.28 6.29101 -7.32804 0
M  V30 12521 H 1682.92 5.84315 -2.47318 0
M  V30 12522 P 1684.78 7.39546 -4.75277 0
M  V30 12523 O 1686.2 7.84798 -5.01039 0
M  V30 12524 O 1684.42 5.9812 -5.08098 0
M  V30 12525 O 1684.45 7.57503 -3.1866 0
M  V30 12526 C 1684.29 8.97357 -2.74833 0
M  V30 12527 C 1684.83 9.07548 -1.32709 0
M  V30 12528 O 1683.78 8.62072 -0.606159 0
M  V30 12529 C 1686.05 8.25383 -0.938334 0
M  V30 12530 O 1686.79 8.74577 0.146954 0
M  V30 12531 C 1685.38 6.8802 -0.712559 0
M  V30 12532 O 1686.18 6.1189 0.194655 0
M  V30 12533 C 1684.04 7.27966 -0.139777 0
M  V30 12534 H 1684.08 7.25354 0.961601 0
M  V30 12535 H 1685.26 6.32557 -1.65702 0
M  V30 12536 H 1686.74 8.19355 -1.79097 0
M  V30 12537 H 1685.05 10.1294 -1.10029 0
M  V30 12538 H 1684.86 9.64276 -3.41316 0
M  V30 12539 H 1683.23 9.25417 -2.76357 0
M  V30 12540 H 1685.87 6.25267 1.07847 0
M  V30 12541 P 1687.73 8.791 1.41298e-11 0
M  V30 12542 O 1689.15 9.31096 0.027933 0
M  V30 12543 O 1687.37 7.77869 -1.04071 0
M  V30 12544 O 1687.4 8.09533 1.41463 0
M  V30 12545 C 1687.24 9.0349 2.53943 0
M  V30 12546 C 1687.78 8.35226 3.79016 0
M  V30 12547 O 1686.73 7.57992 4.15078 0
M  V30 12548 C 1689 7.45087 3.67298 0
M  V30 12549 O 1689.74 7.27796 4.85194 0
M  V30 12550 C 1688.33 6.17323 3.12027 0
M  V30 12551 O 1689.13 5.04231 3.47188 0
M  V30 12552 C 1687 6.19961 3.81809 0
M  V30 12553 H 1687.03 5.58218 4.73051 0
M  V30 12554 H 1688.21 6.21726 2.02589 0
M  V30 12555 H 1689.69 7.86112 2.9231 0
M  V30 12556 H 1688 9.11627 4.55076 0
M  V30 12557 H 1687.81 9.9573 2.34194 0
M  V30 12558 H 1686.18 9.2792 2.67832 0
M  V30 12559 H 1688.82 4.67702 4.28772 0
M  V30 12560 P 1690.68 7.39546 4.75277 0
M  V30 12561 O 1692.1 7.81777 5.05738 0
M  V30 12562 O 1690.32 7.1065 3.32998 0
M  V30 12563 O 1690.35 6.04542 5.56673 0
M  V30 12564 C 1690.19 6.22772 7.02095 0
M  V30 12565 C 1690.73 4.97725 7.70406 0
M  V30 12566 O 1689.68 4.13256 7.58987 0
M  V30 12567 C 1691.95 4.28231 7.11815 0
M  V30 12568 O 1692.69 3.49945 8.01648 0
M  V30 12569 C 1691.28 3.5063 5.96244 0
M  V30 12570 O 1692.08 2.36482 5.64681 0
M  V30 12571 C 1689.95 3.15122 6.56374 0
M  V30 12572 H 1689.98 2.13853 6.99751 0
M  V30 12573 H 1691.16 4.13501 5.06559 0
M  V30 12574 H 1692.64 5.03285 6.70911 0
M  V30 12575 H 1690.95 5.20877 8.75697 0
M  V30 12576 H 1690.76 7.11046 7.35349 0
M  V30 12577 H 1689.13 6.35815 7.26986 0
M  V30 12578 H 1691.77 1.61644 6.13565 0
M  V30 12579 P 1693.63 3.65191 7.99657 0
M  V30 12580 O 1695.05 3.8425 8.48115 0
M  V30 12581 O 1693.27 4.17805 6.64342 0
M  V30 12582 O 1693.3 2.07613 7.95143 0
M  V30 12583 C 1693.14 1.44328 9.27336 0
M  V30 12584 C 1693.68 0.0220036 9.17197 0
M  V30 12585 O 1692.63 -0.626867 8.61923 0
M  V30 12586 C 1694.9 -0.24586 8.30336 0
M  V30 12587 O 1695.64 -1.39011 8.63583 0
M  V30 12588 C 1694.23 -0.273849 6.91158 0
M  V30 12589 O 1695.03 -1.06348 6.02892 0
M  V30 12590 C 1692.9 -0.897649 7.22545 0
M  V30 12591 H 1692.93 -1.9841 7.04286 0
M  V30 12592 H 1694.11 0.739928 6.497 0
M  V30 12593 H 1695.6 0.60668 8.36503 0
M  V30 12594 H 1693.9 -0.352479 10.1829 0
M  V30 12595 H 1693.71 2.00611 10.0304 0
M  V30 12596 H 1692.08 1.41843 9.55327 0
M  V30 12597 H 1694.72 -1.95734 6.03555 0
M  V30 12598 P 1696.58 -1.25109 8.70152 0
M  V30 12599 O 1698 -1.35274 9.21221 0
M  V30 12600 O 1696.22 -0.0769065 7.84762 0
M  V30 12601 O 1696.25 -2.55232 7.81161 0
M  V30 12602 C 1696.09 -3.79939 8.58154 0
M  V30 12603 C 1696.63 -4.94023 7.72785 0
M  V30 12604 O 1695.58 -5.18726 6.91205 0
M  V30 12605 C 1697.85 -4.69597 6.85231 0
M  V30 12606 O 1698.59 -5.83832 6.51337 0
M  V30 12607 C 1697.18 -3.96706 5.66633 0
M  V30 12608 O 1697.98 -4.15414 4.49689 0
M  V30 12609 C 1695.85 -4.66153 5.59313 0
M  V30 12610 H 1695.88 -5.47679 4.85214 0
M  V30 12611 H 1697.06 -2.89008 5.86566 0
M  V30 12612 H 1698.55 -4.0121 7.36511 0
M  V30 12613 H 1696.85 -5.80182 8.37584 0
M  V30 12614 H 1696.66 -3.73517 9.52265 0
M  V30 12615 H 1695.03 -3.97163 8.80359 0
M  V30 12616 H 1697.67 -4.90969 4.01921 0
M  V30 12617 P 1699.53 -5.75688 6.64379 0
M  V30 12618 O 1700.95 -6.11849 7.01846 0
M  V30 12619 O 1699.17 -4.30744 6.56026 0
M  V30 12620 O 1699.21 -6.37042 5.19165 0
M  V30 12621 C 1699.05 -7.83578 5.16515 0
M  V30 12622 C 1699.59 -8.33398 3.83019 0
M  V30 12623 O 1698.53 -8.10074 3.01034 0
M  V30 12624 C 1700.8 -7.65514 3.2257 0
M  V30 12625 O 1701.54 -8.4329 2.32297 0
M  V30 12626 C 1700.13 -6.40075 2.62207 0
M  V30 12627 O 1700.93 -5.92589 1.53712 0
M  V30 12628 C 1698.8 -6.9454 2.18503 0
M  V30 12629 H 1698.83 -7.23063 1.12091 0
M  V30 12630 H 1700.01 -5.6025 3.37201 0
M  V30 12631 H 1701.5 -7.35707 4.02681 0
M  V30 12632 H 1699.8 -9.40912 3.9095 0
M  V30 12633 H 1699.61 -8.29056 5.99158 0
M  V30 12634 H 1697.98 -8.10073 5.25882 0
M  V30 12635 H 1700.62 -6.30324 0.726794 0
M  V30 12636 P 1702.48 -8.4349 2.47671 0
M  V30 12637 O 1703.9 -8.94167 2.5964 0
M  V30 12638 O 1702.12 -7.1704 3.19006 0
M  V30 12639 O 1702.16 -8.16596 0.923387 0
M  V30 12640 C 1702 -9.38437 0.108857 0
M  V30 12641 C 1702.54 -9.08175 -1.28353 0
M  V30 12642 O 1701.48 -8.44229 -1.84713 0
M  V30 12643 C 1703.75 -8.18386 -1.42505 0
M  V30 12644 O 1704.49 -8.3501 -2.60497 0
M  V30 12645 C 1703.08 -6.80225 -1.25468 0
M  V30 12646 O 1703.88 -5.81621 -1.91066 0
M  V30 12647 C 1701.75 -7.02416 -1.9168 0
M  V30 12648 H 1701.78 -6.6888 -2.96621 0
M  V30 12649 H 1702.96 -6.53617 -0.192223 0
M  V30 12650 H 1704.45 -8.36622 -0.589963 0
M  V30 12651 H 1702.75 -10.0291 -1.79807 0
M  V30 12652 H 1702.56 -10.2138 0.558219 0
M  V30 12653 H 1700.93 -9.6579 0.0444202 0
M  V30 12654 H 1703.57 -5.69556 -2.79637 0
M  V30 12655 P 1705.43 -8.4349 -2.47671 0
M  V30 12656 O 1706.85 -8.92593 -2.65 0
M  V30 12657 O 1705.07 -7.7568 -1.19296 0
M  V30 12658 O 1705.11 -7.36886 -3.63805 0
M  V30 12659 C 1704.95 -7.95349 -4.982 0
M  V30 12660 C 1705.49 -6.94612 -5.98974 0
M  V30 12661 O 1704.43 -6.10347 -6.11815 0
M  V30 12662 C 1706.7 -6.11426 -5.62335 0
M  V30 12663 O 1707.44 -5.6162 -6.70584 0
M  V30 12664 C 1706.04 -5.04409 -4.73308 0
M  V30 12665 O 1706.83 -3.85992 -4.75183 0
M  V30 12666 C 1704.7 -4.8728 -5.41006 0
M  V30 12667 H 1704.73 -4.02333 -6.11157 0
M  V30 12668 H 1705.91 -5.39466 -3.69543 0
M  V30 12669 H 1707.4 -6.71916 -5.01943 0
M  V30 12670 H 1705.7 -7.4649 -6.93477 0
M  V30 12671 H 1705.51 -8.89416 -5.05237 0
M  V30 12672 H 1703.88 -8.14876 -5.18409 0
M  V30 12673 H 1706.52 -3.27957 -5.4317 0
M  V30 12674 P 1708.38 -5.75688 -6.64379 0
M  V30 12675 O 1709.8 -6.07627 -7.05504 0
M  V30 12676 O 1708.02 -5.88047 -5.19722 0
M  V30 12677 O 1708.06 -4.2322 -7.04443 0
M  V30 12678 C 1707.9 -3.99743 -8.4911 0
M  V30 12679 C 1708.44 -2.60516 -8.79425 0
M  V30 12680 O 1707.38 -1.82684 -8.4467 0
M  V30 12681 C 1709.66 -2.10343 -8.03628 0
M  V30 12682 O 1710.39 -1.09919 -8.67766 0
M  V30 12683 C 1708.99 -1.68446 -6.70876 0
M  V30 12684 O 1709.79 -0.678137 -6.08433 0
M  V30 12685 C 1707.65 -1.17436 -7.18567 0
M  V30 12686 H 1707.68 -0.0804732 -7.31656 0
M  V30 12687 H 1708.86 -2.54037 -6.02537 0
M  V30 12688 H 1710.35 -2.93881 -7.85526 0
M  V30 12689 H 1708.65 -2.53065 -9.86973 0
M  V30 12690 H 1708.46 -4.75072 -9.05887 0
M  V30 12691 H 1706.83 -4.05244 -8.76668 0
M  V30 12692 H 1709.47 0.177647 -6.34251 0
M  V30 12693 P 1711.33 -1.25109 -8.70152 0
M  V30 12694 O 1712.75 -1.29744 -9.22016 0
M  V30 12695 O 1710.97 -2.13714 -7.55141 0
M  V30 12696 O 1711.01 0.248149 -8.21425 0
M  V30 12697 C 1710.85 1.22779 -9.30434 0
M  V30 12698 C 1711.39 2.56293 -8.80664 0
M  V30 12699 O 1710.33 3.02979 -8.09349 0
M  V30 12700 C 1712.61 2.57523 -7.89775 0
M  V30 12701 O 1713.34 3.7668 -7.89438 0
M  V30 12702 C 1711.94 2.20997 -6.55446 0
M  V30 12703 O 1712.74 2.71895 -5.48509 0
M  V30 12704 C 1710.6 2.89693 -6.67988 0
M  V30 12705 H 1710.63 3.88793 -6.19859 0
M  V30 12706 H 1711.81 1.12046 -6.44229 0
M  V30 12707 H 1713.3 1.7746 -8.19711 0
M  V30 12708 H 1711.6 3.20706 -9.67112 0
M  V30 12709 H 1711.41 0.901032 -10.1892 0
M  V30 12710 H 1709.78 1.33049 -9.56592 0
M  V30 12711 H 1712.42 3.57847 -5.23962 0
M  V30 12712 P 1714.28 3.65191 -7.99657 0
M  V30 12713 O 1715.7 3.89332 -8.45794 0
M  V30 12714 O 1713.92 2.28472 -7.50807 0
M  V30 12715 O 1713.96 4.64972 -6.77611 0
M  V30 12716 C 1713.8 6.06319 -7.16352 0
M  V30 12717 C 1714.34 6.91731 -6.02299 0
M  V30 12718 O 1713.28 6.92449 -5.17064 0
M  V30 12719 C 1715.56 6.43627 -5.25174 0
M  V30 12720 O 1716.29 7.43686 -4.60469 0
M  V30 12721 C 1714.89 5.40275 -4.31916 0
M  V30 12722 O 1715.69 5.25279 -3.14438 0
M  V30 12723 C 1713.55 6.04847 -4.05327 0
M  V30 12724 H 1713.58 6.62195 -3.11261 0
M  V30 12725 H 1714.77 4.42556 -4.81383 0
M  V30 12726 H 1716.25 5.92458 -5.93643 0
M  V30 12727 H 1714.56 7.92655 -6.402 0
M  V30 12728 H 1714.37 6.26671 -8.0846 0
M  V30 12729 H 1712.74 6.29101 -7.32804 0
M  V30 12730 H 1715.37 5.84315 -2.47318 0
M  V30 12731 P 1717.23 7.39546 -4.75277 0
M  V30 12732 O 1718.65 7.84966 -5.01146 0
M  V30 12733 O 1716.87 5.9812 -5.08098 0
M  V30 12734 O 1716.91 7.57503 -3.1866 0
M  V30 12735 C 1716.75 8.97357 -2.74833 0
M  V30 12736 C 1717.29 9.0745 -1.32694 0
M  V30 12737 O 1716.23 8.62072 -0.606159 0
M  V30 12738 C 1718.51 8.25383 -0.938334 0
M  V30 12739 O 1719.24 8.74577 0.146954 0
M  V30 12740 C 1717.84 6.8802 -0.712559 0
M  V30 12741 O 1718.64 6.11791 0.194623 0
M  V30 12742 C 1716.5 7.27966 -0.139777 0
M  V30 12743 N 1715.46 6.39368 -0.623421 0
M  V30 12744 C 1715.52 5.90299 -1.85969 0
M  V30 12745 N 1714.47 5.10919 -2.1133 0
M  V30 12746 C 1713.74 5.14646 -1.0015 0
M  V30 12747 C 1712.43 4.60057 -0.729219 0
M  V30 12748 O 1711.7 3.93476 -1.47746 0
M  V30 12749 N 1712 4.88302 0.523505 0
M  V30 12750 C 1712.75 5.63646 1.46207 0
M  V30 12751 N 1712.16 5.78186 2.69239 0
M  V30 12752 N 1713.91 6.19285 1.21544 0
M  V30 12753 C 1714.36 5.93392 -0.0308487 0
M  V30 12754 H 1716.53 7.25354 0.961601 0
M  V30 12755 H 1717.72 6.3246 -1.65676 0
M  V30 12756 H 1719.2 8.19533 -1.78278 0
M  V30 12757 H 1717.51 10.1294 -1.10029 0
M  V30 12758 H 1717.32 9.64276 -3.41316 0
M  V30 12759 H 1715.68 9.25417 -2.76357 0
M  V30 12760 H 1711.11 4.53993 0.806451 0
M  V30 12761 H 1716.32 6.11865 -2.57394 0
M  V30 12762 H 1711.25 5.34046 2.87467 0
M  V30 12763 H 1712.62 6.33391 3.42578 0
M  V30 12764 H 1718.33 6.25169 1.0783 0
M  V30 12765 P 1720.18 8.791 1.44399e-11 0
M  V30 12766 O 1721.6 9.31296 0.027939 0
M  V30 12767 O 1719.82 7.77869 -1.04071 0
M  V30 12768 O 1719.86 8.09533 1.41463 0
M  V30 12769 C 1719.7 9.0349 2.53943 0
M  V30 12770 C 1720.24 8.35135 3.78975 0
M  V30 12771 O 1719.18 7.57992 4.15078 0
M  V30 12772 C 1721.46 7.45087 3.67298 0
M  V30 12773 O 1722.2 7.27796 4.85194 0
M  V30 12774 C 1720.79 6.17323 3.12027 0
M  V30 12775 O 1721.59 5.04149 3.47132 0
M  V30 12776 C 1719.45 6.19961 3.81809 0
M  V30 12777 N 1718.41 5.71575 2.93223 0
M  V30 12778 C 1718.47 5.97133 1.62693 0
M  V30 12779 N 1717.43 5.44066 0.984414 0
M  V30 12780 C 1716.69 4.87093 1.93987 0
M  V30 12781 C 1715.39 4.26449 1.8738 0
M  V30 12782 O 1714.65 4.1089 0.884377 0
M  V30 12783 N 1714.96 3.82483 3.08036 0
M  V30 12784 C 1715.7 3.95124 4.27727 0
M  V30 12785 N 1715.11 3.4084 5.39089 0
M  V30 12786 N 1716.86 4.55264 4.3706 0
M  V30 12787 C 1717.31 5.00861 3.18217 0
M  V30 12788 H 1719.48 5.58218 4.73051 0
M  V30 12789 H 1720.67 6.21631 2.02558 0
M  V30 12790 H 1722.15 7.85819 2.93096 0
M  V30 12791 H 1720.46 9.11627 4.55076 0
M  V30 12792 H 1720.27 9.9573 2.34194 0
M  V30 12793 H 1718.64 9.2792 2.67832 0
M  V30 12794 H 1714.06 3.38323 3.1329 0
M  V30 12795 H 1719.27 6.53891 1.14265 0
M  V30 12796 H 1714.2 2.93852 5.30559 0
M  V30 12797 H 1715.57 3.47631 6.30632 0
M  V30 12798 H 1721.28 4.67628 4.28704 0
M  V30 12799 P 1723.13 7.39546 4.75277 0
M  V30 12800 O 1724.55 7.81777 5.05738 0
M  V30 12801 O 1722.77 7.1065 3.32998 0
M  V30 12802 O 1722.81 6.04542 5.56673 0
M  V30 12803 C 1722.65 6.22772 7.02095 0
M  V30 12804 C 1723.19 4.97725 7.70406 0
M  V30 12805 O 1722.13 4.13256 7.58987 0
M  V30 12806 C 1724.41 4.28231 7.11815 0
M  V30 12807 O 1725.15 3.49945 8.01648 0
M  V30 12808 C 1723.74 3.5063 5.96244 0
M  V30 12809 O 1724.54 2.36482 5.64681 0
M  V30 12810 C 1722.4 3.15122 6.56374 0
M  V30 12811 H 1722.43 2.13853 6.99751 0
M  V30 12812 H 1723.62 4.13501 5.06559 0
M  V30 12813 H 1725.1 5.03285 6.70911 0
M  V30 12814 H 1723.41 5.20877 8.75697 0
M  V30 12815 H 1723.22 7.11046 7.35349 0
M  V30 12816 H 1721.59 6.35815 7.26986 0
M  V30 12817 H 1724.23 1.61644 6.13565 0
M  V30 12818 P 1726.08 3.65191 7.99657 0
M  V30 12819 O 1727.51 3.8425 8.48115 0
M  V30 12820 O 1725.72 4.17805 6.64342 0
M  V30 12821 O 1725.76 2.07613 7.95143 0
M  V30 12822 C 1725.6 1.44328 9.27336 0
M  V30 12823 C 1726.14 0.0220036 9.17197 0
M  V30 12824 O 1725.08 -0.626867 8.61923 0
M  V30 12825 C 1727.36 -0.24586 8.30336 0
M  V30 12826 O 1728.1 -1.39011 8.63583 0
M  V30 12827 C 1726.69 -0.273849 6.91158 0
M  V30 12828 O 1727.49 -1.06348 6.02892 0
M  V30 12829 C 1725.35 -0.897649 7.22545 0
M  V30 12830 H 1725.38 -1.9841 7.04286 0
M  V30 12831 H 1726.57 0.739928 6.497 0
M  V30 12832 H 1728.05 0.60668 8.36503 0
M  V30 12833 H 1726.36 -0.352479 10.1829 0
M  V30 12834 H 1726.17 2.00611 10.0304 0
M  V30 12835 H 1724.54 1.41843 9.55327 0
M  V30 12836 H 1727.18 -1.95734 6.03555 0
M  V30 12837 P 1729.03 -1.25109 8.70152 0
M  V30 12838 O 1730.46 -1.35288 9.2132 0
M  V30 12839 O 1728.67 -0.0769065 7.84762 0
M  V30 12840 O 1728.71 -2.55232 7.81161 0
M  V30 12841 C 1728.55 -3.79979 8.58246 0
M  V30 12842 C 1729.09 -4.94023 7.72785 0
M  V30 12843 O 1728.04 -5.18666 6.91125 0
M  V30 12844 C 1730.31 -4.69597 6.85231 0
M  V30 12845 O 1731.05 -5.83832 6.51337 0
M  V30 12846 C 1729.64 -3.96706 5.66633 0
M  V30 12847 O 1730.44 -4.14896 4.5003 0
M  V30 12848 C 1728.3 -4.66153 5.59313 0
M  V30 12849 N 1727.26 -3.71582 5.24027 0
M  V30 12850 C 1727.43 -2.39715 5.48833 0
M  V30 12851 N 1726.4 -1.65863 5.12845 0
M  V30 12852 C 1725.52 -2.57637 4.5973 0
M  V30 12853 C 1724.25 -2.40278 4.01027 0
M  V30 12854 N 1723.65 -1.19549 3.86744 0
M  V30 12855 N 1723.69 -3.57711 3.59575 0
M  V30 12856 C 1724.29 -4.80324 3.70476 0
M  V30 12857 N 1725.46 -5.01121 4.23801 0
M  V30 12858 C 1726.04 -3.84757 4.66372 0
M  V30 12859 H 1728.34 -5.47604 4.85148 0
M  V30 12860 H 1729.52 -2.8955 5.86187 0
M  V30 12861 H 1731 -4.0121 7.36511 0
M  V30 12862 H 1729.31 -5.81019 8.37003 0
M  V30 12863 H 1729.12 -3.73517 9.52265 0
M  V30 12864 H 1727.49 -3.97163 8.80359 0
M  V30 12865 H 1723.75 -5.66348 3.3183 0
M  V30 12866 H 1728.33 -1.98804 5.94332 0
M  V30 12867 H 1722.72 -1.13147 3.4281 0
M  V30 12868 H 1724.13 -0.344074 4.19692 0
M  V30 12869 H 1730.13 -4.90891 4.01857 0
M  V30 12870 P 1731.98 -5.75688 6.64379 0
M  V30 12871 O 1733.41 -6.11849 7.01846 0
M  V30 12872 O 1731.62 -4.30744 6.56026 0
M  V30 12873 O 1731.66 -6.37042 5.19165 0
M  V30 12874 C 1731.5 -7.83578 5.16515 0
M  V30 12875 C 1732.04 -8.33398 3.83019 0
M  V30 12876 O 1730.99 -8.10074 3.01034 0
M  V30 12877 C 1733.26 -7.65514 3.2257 0
M  V30 12878 O 1734 -8.4329 2.32297 0
M  V30 12879 C 1732.59 -6.40075 2.62207 0
M  V30 12880 O 1733.39 -5.92589 1.53712 0
M  V30 12881 C 1731.25 -6.9454 2.18503 0
M  V30 12882 H 1731.29 -7.23063 1.12091 0
M  V30 12883 H 1732.47 -5.6025 3.37201 0
M  V30 12884 H 1733.95 -7.35707 4.02681 0
M  V30 12885 H 1732.26 -9.40912 3.9095 0
M  V30 12886 H 1732.07 -8.29056 5.99158 0
M  V30 12887 H 1730.44 -8.10073 5.25882 0
M  V30 12888 H 1733.08 -6.30324 0.726794 0
M  V30 12889 P 1734.94 -8.4349 2.47671 0
M  V30 12890 O 1736.36 -8.94167 2.5964 0
M  V30 12891 O 1734.58 -7.1704 3.19006 0
M  V30 12892 O 1734.61 -8.16596 0.923387 0
M  V30 12893 C 1734.45 -9.38437 0.108857 0
M  V30 12894 C 1734.99 -9.08175 -1.28353 0
M  V30 12895 O 1733.94 -8.44229 -1.84713 0
M  V30 12896 C 1736.21 -8.18386 -1.42505 0
M  V30 12897 O 1736.95 -8.3501 -2.60497 0
M  V30 12898 C 1735.54 -6.80225 -1.25468 0
M  V30 12899 O 1736.34 -5.81621 -1.91066 0
M  V30 12900 C 1734.2 -7.02416 -1.9168 0
M  V30 12901 H 1734.24 -6.6888 -2.96621 0
M  V30 12902 H 1735.42 -6.53617 -0.192223 0
M  V30 12903 H 1736.9 -8.36622 -0.589963 0
M  V30 12904 H 1735.21 -10.0291 -1.79807 0
M  V30 12905 H 1735.02 -10.2138 0.558219 0
M  V30 12906 H 1733.39 -9.6579 0.0444202 0
M  V30 12907 H 1736.03 -5.69556 -2.79637 0
M  V30 12908 P 1737.89 -8.4349 -2.47671 0
M  V30 12909 O 1739.29 -8.99283 -2.62101 0
M  V30 12910 O 1737.51 -7.81195 -1.16947 0
M  V30 12911 O 1737.56 -7.36797 -3.63761 0
M  V30 12912 C 1737.4 -7.95349 -4.982 0
M  V30 12913 C 1737.94 -6.94537 -5.98908 0
M  V30 12914 O 1736.89 -6.10277 -6.11744 0
M  V30 12915 C 1739.16 -6.11426 -5.62335 0
M  V30 12916 O 1739.9 -5.6162 -6.70584 0
M  V30 12917 C 1738.49 -5.04409 -4.73308 0
M  V30 12918 O 1739.29 -3.85929 -4.75106 0
M  V30 12919 C 1737.15 -4.8728 -5.41006 0
M  V30 12920 N 1736.11 -4.65812 -4.42377 0
M  V30 12921 C 1735.08 -3.81293 -4.74224 0
M  V30 12922 O 1735.12 -3.20533 -5.83679 0
M  V30 12923 N 1734.06 -3.6442 -3.86349 0
M  V30 12924 C 1734.11 -4.2728 -2.6824 0
M  V30 12925 C 1735.21 -5.10813 -2.3217 0
M  V30 12926 C 1736.17 -5.27909 -3.22647 0
M  V30 12927 H 1737.19 -4.02278 -6.11074 0
M  V30 12928 H 1738.37 -5.39013 -3.70026 0
M  V30 12929 H 1739.85 -6.71494 -5.02675 0
M  V30 12930 H 1738.16 -7.45796 -6.94223 0
M  V30 12931 H 1737.97 -8.89416 -5.05237 0
M  V30 12932 H 1736.34 -8.14791 -5.18355 0
M  V30 12933 H 1735.26 -5.58884 -1.34755 0
M  V30 12934 H 1737.02 -5.92811 -2.9934 0
M  V30 12935 H 1739.07 -3.3454 -5.51577 0
M  V30 12936 P 1740.84 -5.75688 -6.64379 0
M  V30 12937 O 1742.26 -6.07627 -7.05504 0
M  V30 12938 O 1740.48 -5.88047 -5.19722 0
M  V30 12939 O 1740.51 -4.2322 -7.04443 0
M  V30 12940 C 1740.35 -3.99743 -8.4911 0
M  V30 12941 C 1740.89 -2.60516 -8.79425 0
M  V30 12942 O 1739.84 -1.82684 -8.4467 0
M  V30 12943 C 1742.11 -2.10343 -8.03628 0
M  V30 12944 O 1742.85 -1.09919 -8.67766 0
M  V30 12945 C 1741.44 -1.68446 -6.70876 0
M  V30 12946 O 1742.24 -0.678137 -6.08433 0
M  V30 12947 C 1740.11 -1.17436 -7.18567 0
M  V30 12948 H 1740.14 -0.0804732 -7.31656 0
M  V30 12949 H 1741.32 -2.54037 -6.02537 0
M  V30 12950 H 1742.8 -2.93881 -7.85526 0
M  V30 12951 H 1741.11 -2.53065 -9.86973 0
M  V30 12952 H 1740.92 -4.75072 -9.05887 0
M  V30 12953 H 1739.29 -4.05244 -8.76668 0
M  V30 12954 H 1741.93 0.177647 -6.34251 0
M  V30 12955 P 1743.79 -1.25109 -8.70152 0
M  V30 12956 O 1745.21 -1.29744 -9.22016 0
M  V30 12957 O 1743.43 -2.13714 -7.55141 0
M  V30 12958 O 1743.46 0.248149 -8.21425 0
M  V30 12959 C 1743.3 1.22779 -9.30434 0
M  V30 12960 C 1743.84 2.56293 -8.80664 0
M  V30 12961 O 1742.79 3.02979 -8.09349 0
M  V30 12962 C 1745.06 2.57523 -7.89775 0
M  V30 12963 O 1745.8 3.7668 -7.89438 0
M  V30 12964 C 1744.39 2.20997 -6.55446 0
M  V30 12965 O 1745.19 2.71895 -5.48509 0
M  V30 12966 C 1743.06 2.89693 -6.67988 0
M  V30 12967 H 1743.09 3.88793 -6.19859 0
M  V30 12968 H 1744.27 1.12046 -6.44229 0
M  V30 12969 H 1745.75 1.7746 -8.19711 0
M  V30 12970 H 1744.06 3.20706 -9.67112 0
M  V30 12971 H 1743.87 0.901032 -10.1892 0
M  V30 12972 H 1742.24 1.33049 -9.56592 0
M  V30 12973 H 1744.88 3.57847 -5.23962 0
M  V30 12974 P 1746.74 3.65191 -7.99657 0
M  V30 12975 O 1748.16 3.89416 -8.45976 0
M  V30 12976 O 1746.38 2.28472 -7.50807 0
M  V30 12977 O 1746.41 4.64972 -6.77611 0
M  V30 12978 C 1746.25 6.06319 -7.16352 0
M  V30 12979 C 1746.79 6.91655 -6.02234 0
M  V30 12980 O 1745.74 6.92449 -5.17064 0
M  V30 12981 C 1748.01 6.43627 -5.25174 0
M  V30 12982 O 1748.75 7.43686 -4.60469 0
M  V30 12983 C 1747.34 5.40275 -4.31916 0
M  V30 12984 O 1748.14 5.25193 -3.14386 0
M  V30 12985 C 1746.01 6.04847 -4.05327 0
M  V30 12986 N 1744.96 5.04166 -3.98114 0
M  V30 12987 C 1745.03 3.96049 -4.75587 0
M  V30 12988 N 1743.98 3.15559 -4.54006 0
M  V30 12989 C 1743.25 3.78802 -3.62491 0
M  V30 12990 C 1741.94 3.476 -3.10071 0
M  V30 12991 O 1741.21 2.51136 -3.37021 0
M  V30 12992 N 1741.51 4.39088 -2.19956 0
M  V30 12993 C 1742.26 5.53215 -1.81733 0
M  V30 12994 N 1741.66 6.31963 -0.860928 0
M  V30 12995 N 1743.41 5.86688 -2.32562 0
M  V30 12996 C 1743.87 4.97525 -3.23407 0
M  V30 12997 H 1746.04 6.62195 -3.11261 0
M  V30 12998 H 1747.22 4.42488 -4.8131 0
M  V30 12999 H 1748.71 5.93051 -5.9305 0
M  V30 13000 H 1747.01 7.92655 -6.402 0
M  V30 13001 H 1746.82 6.26671 -8.0846 0
M  V30 13002 H 1745.19 6.29101 -7.32804 0
M  V30 13003 H 1740.61 4.25523 -1.77604 0
M  V30 13004 H 1745.82 3.75576 -5.47333 0
M  V30 13005 H 1740.75 6.04684 -0.468946 0
M  V30 13006 H 1742.13 7.18054 -0.542422 0
M  V30 13007 H 1747.83 5.84223 -2.47279 0
M  V30 13008 P 1749.69 7.39546 -4.75277 0
M  V30 13009 O 1751.11 7.84798 -5.01039 0
M  V30 13010 O 1749.33 5.9812 -5.08098 0
M  V30 13011 O 1749.37 7.57503 -3.1866 0
M  V30 13012 C 1749.21 8.97357 -2.74833 0
M  V30 13013 C 1749.75 9.07548 -1.32709 0
M  V30 13014 O 1748.69 8.62072 -0.606159 0
M  V30 13015 C 1750.96 8.25383 -0.938334 0
M  V30 13016 O 1751.7 8.74577 0.146954 0
M  V30 13017 C 1750.29 6.8802 -0.712559 0
M  V30 13018 O 1751.09 6.1189 0.194655 0
M  V30 13019 C 1748.96 7.27966 -0.139777 0
M  V30 13020 H 1748.99 7.25354 0.961601 0
M  V30 13021 H 1750.17 6.32557 -1.65702 0
M  V30 13022 H 1751.66 8.19355 -1.79097 0
M  V30 13023 H 1749.96 10.1294 -1.10029 0
M  V30 13024 H 1749.77 9.64276 -3.41316 0
M  V30 13025 H 1748.14 9.25417 -2.76357 0
M  V30 13026 H 1750.78 6.25267 1.07847 0
M  V30 13027 P 1752.64 8.791 1.47501e-11 0
M  V30 13028 O 1754.06 9.31096 0.027933 0
M  V30 13029 O 1752.28 7.77869 -1.04071 0
M  V30 13030 O 1752.32 8.09533 1.41463 0
M  V30 13031 C 1752.16 9.0349 2.53943 0
M  V30 13032 C 1752.7 8.35226 3.79016 0
M  V30 13033 O 1751.64 7.57992 4.15078 0
M  V30 13034 C 1753.91 7.45087 3.67298 0
M  V30 13035 O 1754.65 7.27796 4.85194 0
M  V30 13036 C 1753.24 6.17323 3.12027 0
M  V30 13037 O 1754.04 5.04231 3.47188 0
M  V30 13038 C 1751.91 6.19961 3.81809 0
M  V30 13039 H 1751.94 5.58218 4.73051 0
M  V30 13040 H 1753.12 6.21726 2.02589 0
M  V30 13041 H 1754.61 7.86112 2.9231 0
M  V30 13042 H 1752.91 9.11627 4.55076 0
M  V30 13043 H 1752.72 9.9573 2.34194 0
M  V30 13044 H 1751.09 9.2792 2.67832 0
M  V30 13045 H 1753.73 4.67702 4.28772 0
M  V30 13046 P 1755.59 7.39546 4.75277 0
M  V30 13047 O 1757.01 7.81777 5.05738 0
M  V30 13048 O 1755.23 7.1065 3.32998 0
M  V30 13049 O 1755.27 6.04542 5.56673 0
M  V30 13050 C 1755.11 6.22772 7.02095 0
M  V30 13051 C 1755.65 4.97725 7.70406 0
M  V30 13052 O 1754.59 4.13256 7.58987 0
M  V30 13053 C 1756.86 4.28231 7.11815 0
M  V30 13054 O 1757.6 3.49945 8.01648 0
M  V30 13055 C 1756.2 3.5063 5.96244 0
M  V30 13056 O 1756.99 2.36482 5.64681 0
M  V30 13057 C 1754.86 3.15122 6.56374 0
M  V30 13058 H 1754.89 2.13853 6.99751 0
M  V30 13059 H 1756.07 4.13501 5.06559 0
M  V30 13060 H 1757.56 5.03285 6.70911 0
M  V30 13061 H 1755.86 5.20877 8.75697 0
M  V30 13062 H 1755.67 7.11046 7.35349 0
M  V30 13063 H 1754.04 6.35815 7.26986 0
M  V30 13064 H 1756.68 1.61644 6.13565 0
M  V30 13065 P 1758.54 3.65191 7.99657 0
M  V30 13066 O 1759.96 3.8425 8.48115 0
M  V30 13067 O 1758.18 4.17805 6.64342 0
M  V30 13068 O 1758.22 2.07613 7.95143 0
M  V30 13069 C 1758.06 1.44328 9.27336 0
M  V30 13070 C 1758.6 0.0220036 9.17197 0
M  V30 13071 O 1757.54 -0.626867 8.61923 0
M  V30 13072 C 1759.81 -0.24586 8.30336 0
M  V30 13073 O 1760.55 -1.39011 8.63583 0
M  V30 13074 C 1759.15 -0.273849 6.91158 0
M  V30 13075 O 1759.94 -1.06348 6.02892 0
M  V30 13076 C 1757.81 -0.897649 7.22545 0
M  V30 13077 H 1757.84 -1.9841 7.04286 0
M  V30 13078 H 1759.02 0.739928 6.497 0
M  V30 13079 H 1760.51 0.60668 8.36503 0
M  V30 13080 H 1758.81 -0.352479 10.1829 0
M  V30 13081 H 1758.62 2.00611 10.0304 0
M  V30 13082 H 1756.99 1.41843 9.55327 0
M  V30 13083 H 1759.63 -1.95734 6.03555 0
M  V30 13084 P 1761.49 -1.25109 8.70152 0
M  V30 13085 O 1762.91 -1.35274 9.21221 0
M  V30 13086 O 1761.13 -0.0769065 7.84762 0
M  V30 13087 O 1761.17 -2.55232 7.81161 0
M  V30 13088 C 1761.01 -3.79939 8.58154 0
M  V30 13089 C 1761.55 -4.94023 7.72785 0
M  V30 13090 O 1760.49 -5.18726 6.91205 0
M  V30 13091 C 1762.77 -4.69597 6.85231 0
M  V30 13092 O 1763.5 -5.83832 6.51337 0
M  V30 13093 C 1762.1 -3.96706 5.66633 0
M  V30 13094 O 1762.9 -4.15414 4.49689 0
M  V30 13095 C 1760.76 -4.66153 5.59313 0
M  V30 13096 H 1760.79 -5.47679 4.85214 0
M  V30 13097 H 1761.97 -2.89008 5.86566 0
M  V30 13098 H 1763.46 -4.0121 7.36511 0
M  V30 13099 H 1761.76 -5.80182 8.37584 0
M  V30 13100 H 1761.57 -3.73517 9.52265 0
M  V30 13101 H 1759.94 -3.97163 8.80359 0
M  V30 13102 H 1762.58 -4.90969 4.01921 0
M  V30 13103 P 1764.44 -5.75688 6.64379 0
M  V30 13104 O 1765.86 -6.11849 7.01846 0
M  V30 13105 O 1764.08 -4.30744 6.56026 0
M  V30 13106 O 1764.12 -6.37042 5.19165 0
M  V30 13107 C 1763.96 -7.83578 5.16515 0
M  V30 13108 C 1764.5 -8.33398 3.83019 0
M  V30 13109 O 1763.44 -8.10074 3.01034 0
M  V30 13110 C 1765.72 -7.65514 3.2257 0
M  V30 13111 O 1766.45 -8.4329 2.32297 0
M  V30 13112 C 1765.05 -6.40075 2.62207 0
M  V30 13113 O 1765.85 -5.92589 1.53712 0
M  V30 13114 C 1763.71 -6.9454 2.18503 0
M  V30 13115 H 1763.74 -7.23063 1.12091 0
M  V30 13116 H 1764.92 -5.6025 3.37201 0
M  V30 13117 H 1766.41 -7.35707 4.02681 0
M  V30 13118 H 1764.71 -9.40912 3.9095 0
M  V30 13119 H 1764.52 -8.29056 5.99158 0
M  V30 13120 H 1762.89 -8.10073 5.25882 0
M  V30 13121 H 1765.53 -6.30324 0.726794 0
M  V30 13122 P 1767.39 -8.4349 2.47671 0
M  V30 13123 O 1768.81 -8.94167 2.5964 0
M  V30 13124 O 1767.03 -7.1704 3.19006 0
M  V30 13125 O 1767.07 -8.16596 0.923387 0
M  V30 13126 C 1766.91 -9.38437 0.108857 0
M  V30 13127 C 1767.45 -9.08175 -1.28353 0
M  V30 13128 O 1766.39 -8.44229 -1.84713 0
M  V30 13129 C 1768.67 -8.18386 -1.42505 0
M  V30 13130 O 1769.4 -8.3501 -2.60497 0
M  V30 13131 C 1768 -6.80225 -1.25468 0
M  V30 13132 O 1768.8 -5.81621 -1.91066 0
M  V30 13133 C 1766.66 -7.02416 -1.9168 0
M  V30 13134 H 1766.69 -6.6888 -2.96621 0
M  V30 13135 H 1767.88 -6.53617 -0.192223 0
M  V30 13136 H 1769.36 -8.36622 -0.589963 0
M  V30 13137 H 1767.67 -10.0291 -1.79807 0
M  V30 13138 H 1767.48 -10.2138 0.558219 0
M  V30 13139 H 1765.85 -9.6579 0.0444202 0
M  V30 13140 H 1768.48 -5.69556 -2.79637 0
M  V30 13141 P 1770.34 -8.4349 -2.47671 0
M  V30 13142 O 1771.76 -8.92593 -2.65 0
M  V30 13143 O 1769.98 -7.7568 -1.19296 0
M  V30 13144 O 1770.02 -7.36886 -3.63805 0
M  V30 13145 C 1769.86 -7.95349 -4.982 0
M  V30 13146 C 1770.4 -6.94612 -5.98974 0
M  V30 13147 O 1769.34 -6.10347 -6.11815 0
M  V30 13148 C 1771.62 -6.11426 -5.62335 0
M  V30 13149 O 1772.35 -5.6162 -6.70584 0
M  V30 13150 C 1770.95 -5.04409 -4.73308 0
M  V30 13151 O 1771.75 -3.85992 -4.75183 0
M  V30 13152 C 1769.61 -4.8728 -5.41006 0
M  V30 13153 H 1769.64 -4.02333 -6.11157 0
M  V30 13154 H 1770.83 -5.39466 -3.69543 0
M  V30 13155 H 1772.31 -6.71916 -5.01943 0
M  V30 13156 H 1770.62 -7.4649 -6.93477 0
M  V30 13157 H 1770.43 -8.89416 -5.05237 0
M  V30 13158 H 1768.8 -8.14876 -5.18409 0
M  V30 13159 H 1771.43 -3.27957 -5.4317 0
M  V30 13160 P 1773.29 -5.75688 -6.64379 0
M  V30 13161 O 1774.71 -6.07627 -7.05504 0
M  V30 13162 O 1772.93 -5.88047 -5.19722 0
M  V30 13163 O 1772.97 -4.2322 -7.04443 0
M  V30 13164 C 1772.81 -3.99743 -8.4911 0
M  V30 13165 C 1773.35 -2.60516 -8.79425 0
M  V30 13166 O 1772.29 -1.82684 -8.4467 0
M  V30 13167 C 1774.57 -2.10343 -8.03628 0
M  V30 13168 O 1775.31 -1.09919 -8.67766 0
M  V30 13169 C 1773.9 -1.68446 -6.70876 0
M  V30 13170 O 1774.7 -0.678137 -6.08433 0
M  V30 13171 C 1772.56 -1.17436 -7.18567 0
M  V30 13172 H 1772.59 -0.0804732 -7.31656 0
M  V30 13173 H 1773.78 -2.54037 -6.02537 0
M  V30 13174 H 1775.26 -2.93881 -7.85526 0
M  V30 13175 H 1773.57 -2.53065 -9.86973 0
M  V30 13176 H 1773.38 -4.75072 -9.05887 0
M  V30 13177 H 1771.75 -4.05244 -8.76668 0
M  V30 13178 H 1774.39 0.177647 -6.34251 0
M  V30 13179 P 1776.24 -1.25109 -8.70152 0
M  V30 13180 O 1777.67 -1.29744 -9.22016 0
M  V30 13181 O 1775.88 -2.13714 -7.55141 0
M  V30 13182 O 1775.92 0.248149 -8.21425 0
M  V30 13183 C 1775.76 1.22779 -9.30434 0
M  V30 13184 C 1776.3 2.56293 -8.80664 0
M  V30 13185 O 1775.24 3.02979 -8.09349 0
M  V30 13186 C 1777.52 2.57523 -7.89775 0
M  V30 13187 O 1778.26 3.7668 -7.89438 0
M  V30 13188 C 1776.85 2.20997 -6.55446 0
M  V30 13189 O 1777.65 2.71895 -5.48509 0
M  V30 13190 C 1775.51 2.89693 -6.67988 0
M  V30 13191 H 1775.54 3.88793 -6.19859 0
M  V30 13192 H 1776.73 1.12046 -6.44229 0
M  V30 13193 H 1778.21 1.7746 -8.19711 0
M  V30 13194 H 1776.52 3.20706 -9.67112 0
M  V30 13195 H 1776.33 0.901032 -10.1892 0
M  V30 13196 H 1774.7 1.33049 -9.56592 0
M  V30 13197 H 1777.34 3.57847 -5.23962 0
M  V30 13198 P 1779.19 3.65191 -7.99657 0
M  V30 13199 O 1780.62 3.89416 -8.45976 0
M  V30 13200 O 1778.83 2.28472 -7.50807 0
M  V30 13201 O 1778.87 4.64972 -6.77611 0
M  V30 13202 C 1778.71 6.06319 -7.16352 0
M  V30 13203 C 1779.25 6.91655 -6.02234 0
M  V30 13204 O 1778.2 6.92449 -5.17064 0
M  V30 13205 C 1780.47 6.43627 -5.25174 0
M  V30 13206 O 1781.21 7.43686 -4.60469 0
M  V30 13207 C 1779.8 5.40275 -4.31916 0
M  V30 13208 O 1780.6 5.25193 -3.14386 0
M  V30 13209 C 1778.46 6.04847 -4.05327 0
M  V30 13210 N 1777.42 5.04166 -3.98114 0
M  V30 13211 C 1777.48 3.96049 -4.75587 0
M  V30 13212 N 1776.44 3.15559 -4.54006 0
M  V30 13213 C 1775.7 3.78802 -3.62491 0
M  V30 13214 C 1774.4 3.476 -3.10071 0
M  V30 13215 O 1773.66 2.51136 -3.37021 0
M  V30 13216 N 1773.97 4.39088 -2.19956 0
M  V30 13217 C 1774.72 5.53215 -1.81733 0
M  V30 13218 N 1774.12 6.31963 -0.860928 0
M  V30 13219 N 1775.87 5.86688 -2.32562 0
M  V30 13220 C 1776.33 4.97525 -3.23407 0
M  V30 13221 H 1778.49 6.62195 -3.11261 0
M  V30 13222 H 1779.68 4.42488 -4.8131 0
M  V30 13223 H 1781.16 5.93051 -5.9305 0
M  V30 13224 H 1779.47 7.92655 -6.402 0
M  V30 13225 H 1779.28 6.26671 -8.0846 0
M  V30 13226 H 1777.65 6.29101 -7.32804 0
M  V30 13227 H 1773.07 4.25523 -1.77604 0
M  V30 13228 H 1778.28 3.75576 -5.47333 0
M  V30 13229 H 1773.21 6.04684 -0.468946 0
M  V30 13230 H 1774.58 7.18054 -0.542422 0
M  V30 13231 H 1780.29 5.84223 -2.47279 0
M  V30 13232 P 1782.14 7.39546 -4.75277 0
M  V30 13233 O 1783.57 7.84798 -5.01039 0
M  V30 13234 O 1781.78 5.9812 -5.08098 0
M  V30 13235 O 1781.82 7.57503 -3.1866 0
M  V30 13236 C 1781.66 8.97357 -2.74833 0
M  V30 13237 C 1782.2 9.07548 -1.32709 0
M  V30 13238 O 1781.15 8.62072 -0.606159 0
M  V30 13239 C 1783.42 8.25383 -0.938334 0
M  V30 13240 O 1784.16 8.74577 0.146954 0
M  V30 13241 C 1782.75 6.8802 -0.712559 0
M  V30 13242 O 1783.55 6.1189 0.194655 0
M  V30 13243 C 1781.41 7.27966 -0.139777 0
M  V30 13244 H 1781.45 7.25354 0.961601 0
M  V30 13245 H 1782.63 6.32557 -1.65702 0
M  V30 13246 H 1784.11 8.19355 -1.79097 0
M  V30 13247 H 1782.42 10.1294 -1.10029 0
M  V30 13248 H 1782.23 9.64276 -3.41316 0
M  V30 13249 H 1780.6 9.25417 -2.76357 0
M  V30 13250 H 1783.24 6.25267 1.07847 0
M  V30 13251 P 1785.09 8.791 1.50603e-11 0
M  V30 13252 O 1786.52 9.31096 0.027933 0
M  V30 13253 O 1784.73 7.77869 -1.04071 0
M  V30 13254 O 1784.77 8.09533 1.41463 0
M  V30 13255 C 1784.61 9.0349 2.53943 0
M  V30 13256 C 1785.15 8.35226 3.79016 0
M  V30 13257 O 1784.1 7.57992 4.15078 0
M  V30 13258 C 1786.37 7.45087 3.67298 0
M  V30 13259 O 1787.11 7.27796 4.85194 0
M  V30 13260 C 1785.7 6.17323 3.12027 0
M  V30 13261 O 1786.5 5.04231 3.47188 0
M  V30 13262 C 1784.36 6.19961 3.81809 0
M  V30 13263 H 1784.4 5.58218 4.73051 0
M  V30 13264 H 1785.58 6.21726 2.02589 0
M  V30 13265 H 1787.06 7.86112 2.9231 0
M  V30 13266 H 1785.37 9.11627 4.55076 0
M  V30 13267 H 1785.18 9.9573 2.34194 0
M  V30 13268 H 1783.55 9.2792 2.67832 0
M  V30 13269 H 1786.19 4.67702 4.28772 0
M  V30 13270 P 1788.05 7.39546 4.75277 0
M  V30 13271 O 1789.47 7.81777 5.05738 0
M  V30 13272 O 1787.69 7.1065 3.32998 0
M  V30 13273 O 1787.72 6.04542 5.56673 0
M  V30 13274 C 1787.56 6.22772 7.02095 0
M  V30 13275 C 1788.1 4.97725 7.70406 0
M  V30 13276 O 1787.05 4.13256 7.58987 0
M  V30 13277 C 1789.32 4.28231 7.11815 0
M  V30 13278 O 1790.06 3.49945 8.01648 0
M  V30 13279 C 1788.65 3.5063 5.96244 0
M  V30 13280 O 1789.45 2.36482 5.64681 0
M  V30 13281 C 1787.31 3.15122 6.56374 0
M  V30 13282 H 1787.35 2.13853 6.99751 0
M  V30 13283 H 1788.53 4.13501 5.06559 0
M  V30 13284 H 1790.01 5.03285 6.70911 0
M  V30 13285 H 1788.32 5.20877 8.75697 0
M  V30 13286 H 1788.13 7.11046 7.35349 0
M  V30 13287 H 1786.5 6.35815 7.26986 0
M  V30 13288 H 1789.14 1.61644 6.13565 0
M  V30 13289 P 1791 3.65191 7.99657 0
M  V30 13290 O 1792.42 3.8425 8.48115 0
M  V30 13291 O 1790.64 4.17805 6.64342 0
M  V30 13292 O 1790.67 2.07613 7.95143 0
M  V30 13293 C 1790.51 1.44328 9.27336 0
M  V30 13294 C 1791.05 0.0220036 9.17197 0
M  V30 13295 O 1790 -0.626867 8.61923 0
M  V30 13296 C 1792.27 -0.24586 8.30336 0
M  V30 13297 O 1793.01 -1.39011 8.63583 0
M  V30 13298 C 1791.6 -0.273849 6.91158 0
M  V30 13299 O 1792.4 -1.06348 6.02892 0
M  V30 13300 C 1790.26 -0.897649 7.22545 0
M  V30 13301 H 1790.3 -1.9841 7.04286 0
M  V30 13302 H 1791.48 0.739928 6.497 0
M  V30 13303 H 1792.96 0.60668 8.36503 0
M  V30 13304 H 1791.27 -0.352479 10.1829 0
M  V30 13305 H 1791.08 2.00611 10.0304 0
M  V30 13306 H 1789.45 1.41843 9.55327 0
M  V30 13307 H 1792.09 -1.95734 6.03555 0
M  V30 13308 P 1793.95 -1.25109 8.70152 0
M  V30 13309 O 1795.35 -1.31452 9.27431 0
M  V30 13310 O 1793.57 -0.0458113 7.89887 0
M  V30 13311 O 1793.62 -2.55201 7.81066 0
M  V30 13312 C 1793.46 -3.79939 8.58154 0
M  V30 13313 C 1794 -4.93969 7.72701 0
M  V30 13314 O 1792.95 -5.18666 6.91125 0
M  V30 13315 C 1795.22 -4.69597 6.85231 0
M  V30 13316 O 1795.96 -5.83832 6.51337 0
M  V30 13317 C 1794.55 -3.96706 5.66633 0
M  V30 13318 O 1795.35 -4.15346 4.49615 0
M  V30 13319 C 1793.22 -4.66153 5.59313 0
M  V30 13320 N 1792.17 -3.71582 5.24027 0
M  V30 13321 C 1791.14 -4.15133 4.44901 0
M  V30 13322 O 1791.18 -5.32122 4.00336 0
M  V30 13323 N 1790.13 -3.30554 4.15693 0
M  V30 13324 C 1790.17 -2.04701 4.61105 0
M  V30 13325 C 1791.27 -1.57111 5.38655 0
M  V30 13326 C 1792.24 -2.44234 5.68454 0
M  V30 13327 H 1793.25 -5.47604 4.85148 0
M  V30 13328 H 1794.43 -2.8955 5.86187 0
M  V30 13329 H 1795.91 -4.01995 7.36197 0
M  V30 13330 H 1794.22 -5.81019 8.37003 0
M  V30 13331 H 1794.03 -3.73517 9.52265 0
M  V30 13332 H 1792.4 -3.97122 8.80267 0
M  V30 13333 H 1791.32 -0.538464 5.72373 0
M  V30 13334 H 1793.08 -2.11927 6.29377 0
M  V30 13335 H 1795.14 -4.98352 4.09633 0
M  V30 13336 P 1796.9 -5.75688 6.64379 0
M  V30 13337 O 1798.32 -6.11849 7.01846 0
M  V30 13338 O 1796.54 -4.30744 6.56026 0
M  V30 13339 O 1796.57 -6.37042 5.19165 0
M  V30 13340 C 1796.41 -7.83578 5.16515 0
M  V30 13341 C 1796.95 -8.33398 3.83019 0
M  V30 13342 O 1795.9 -8.10074 3.01034 0
M  V30 13343 C 1798.17 -7.65514 3.2257 0
M  V30 13344 O 1798.91 -8.4329 2.32297 0
M  V30 13345 C 1797.5 -6.40075 2.62207 0
M  V30 13346 O 1798.3 -5.92589 1.53712 0
M  V30 13347 C 1796.17 -6.9454 2.18503 0
M  V30 13348 H 1796.2 -7.23063 1.12091 0
M  V30 13349 H 1797.38 -5.6025 3.37201 0
M  V30 13350 H 1798.87 -7.35707 4.02681 0
M  V30 13351 H 1797.17 -9.40912 3.9095 0
M  V30 13352 H 1796.98 -8.29056 5.99158 0
M  V30 13353 H 1795.35 -8.10073 5.25882 0
M  V30 13354 H 1797.99 -6.30324 0.726794 0
M  V30 13355 P 1799.85 -8.4349 2.47671 0
M  V30 13356 O 1801.27 -8.94167 2.5964 0
M  V30 13357 O 1799.49 -7.1704 3.19006 0
M  V30 13358 O 1799.52 -8.16596 0.923387 0
M  V30 13359 C 1799.36 -9.38437 0.108857 0
M  V30 13360 C 1799.9 -9.08175 -1.28353 0
M  V30 13361 O 1798.85 -8.44229 -1.84713 0
M  V30 13362 C 1801.12 -8.18386 -1.42505 0
M  V30 13363 O 1801.86 -8.3501 -2.60497 0
M  V30 13364 C 1800.45 -6.80225 -1.25468 0
M  V30 13365 O 1801.25 -5.81621 -1.91066 0
M  V30 13366 C 1799.12 -7.02416 -1.9168 0
M  V30 13367 H 1799.15 -6.6888 -2.96621 0
M  V30 13368 H 1800.33 -6.53617 -0.192223 0
M  V30 13369 H 1801.82 -8.36622 -0.589963 0
M  V30 13370 H 1800.12 -10.0291 -1.79807 0
M  V30 13371 H 1799.93 -10.2138 0.558219 0
M  V30 13372 H 1798.3 -9.6579 0.0444202 0
M  V30 13373 H 1800.94 -5.69556 -2.79637 0
M  V30 13374 P 1802.8 -8.4349 -2.47671 0
M  V30 13375 O 1804.22 -8.92593 -2.65 0
M  V30 13376 O 1802.44 -7.7568 -1.19296 0
M  V30 13377 O 1802.48 -7.36886 -3.63805 0
M  V30 13378 C 1802.32 -7.95349 -4.982 0
M  V30 13379 C 1802.86 -6.94612 -5.98974 0
M  V30 13380 O 1801.8 -6.10347 -6.11815 0
M  V30 13381 C 1804.07 -6.11426 -5.62335 0
M  V30 13382 O 1804.81 -5.6162 -6.70584 0
M  V30 13383 C 1803.4 -5.04409 -4.73308 0
M  V30 13384 O 1804.2 -3.85992 -4.75183 0
M  V30 13385 C 1802.07 -4.8728 -5.41006 0
M  V30 13386 H 1802.1 -4.02333 -6.11157 0
M  V30 13387 H 1803.28 -5.39466 -3.69543 0
M  V30 13388 H 1804.77 -6.71916 -5.01943 0
M  V30 13389 H 1803.07 -7.4649 -6.93477 0
M  V30 13390 H 1802.88 -8.89416 -5.05237 0
M  V30 13391 H 1801.25 -8.14876 -5.18409 0
M  V30 13392 H 1803.89 -3.27957 -5.4317 0
M  V30 13393 P 1805.75 -5.75688 -6.64379 0
M  V30 13394 O 1807.17 -6.07758 -7.05656 0
M  V30 13395 O 1805.39 -5.88047 -5.19722 0
M  V30 13396 O 1805.43 -4.2322 -7.04443 0
M  V30 13397 C 1805.27 -3.99743 -8.4911 0
M  V30 13398 C 1805.81 -2.60487 -8.79329 0
M  V30 13399 O 1804.75 -1.82684 -8.4467 0
M  V30 13400 C 1807.02 -2.10343 -8.03628 0
M  V30 13401 O 1807.76 -1.09919 -8.67766 0
M  V30 13402 C 1806.36 -1.68446 -6.70876 0
M  V30 13403 O 1807.15 -0.678026 -6.08333 0
M  V30 13404 C 1805.02 -1.17436 -7.18567 0
M  V30 13405 N 1803.97 -1.52699 -6.23988 0
M  V30 13406 C 1804.04 -2.68084 -5.57824 0
M  V30 13407 N 1802.99 -2.8189 -4.75643 0
M  V30 13408 C 1802.26 -1.72373 -4.95155 0
M  V30 13409 C 1800.95 -1.37653 -4.44996 0
M  V30 13410 O 1800.22 -2.02239 -3.68445 0
M  V30 13411 N 1800.52 -0.17675 -4.90782 0
M  V30 13412 C 1801.27 0.645036 -5.78716 0
M  V30 13413 N 1800.67 1.84214 -6.10618 0
M  V30 13414 N 1802.42 0.321732 -6.30279 0
M  V30 13415 C 1802.88 -0.87502 -5.86913 0
M  V30 13416 H 1805.05 -0.0804732 -7.31656 0
M  V30 13417 H 1806.23 -2.53998 -6.02444 0
M  V30 13418 H 1807.72 -2.93095 -7.8582 0
M  V30 13419 H 1806.02 -2.53065 -9.86973 0
M  V30 13420 H 1805.83 -4.75072 -9.05887 0
M  V30 13421 H 1804.2 -4.05244 -8.76668 0
M  V30 13422 H 1799.63 0.152143 -4.60849 0
M  V30 13423 H 1804.83 -3.41852 -5.69006 0
M  V30 13424 H 1799.76 2.08538 -5.69521 0
M  V30 13425 H 1801.14 2.4895 -6.75698 0
M  V30 13426 H 1806.84 0.177619 -6.34151 0
M  V30 13427 P 1808.7 -1.25109 -8.70152 0
M  V30 13428 O 1810.12 -1.29744 -9.22016 0
M  V30 13429 O 1808.34 -2.13714 -7.55141 0
M  V30 13430 O 1808.38 0.248149 -8.21425 0
M  V30 13431 C 1808.22 1.22779 -9.30434 0
M  V30 13432 C 1808.76 2.56293 -8.80664 0
M  V30 13433 O 1807.7 3.02979 -8.09349 0
M  V30 13434 C 1809.97 2.57523 -7.89775 0
M  V30 13435 O 1810.71 3.7668 -7.89438 0
M  V30 13436 C 1809.31 2.20997 -6.55446 0
M  V30 13437 O 1810.1 2.71895 -5.48509 0
M  V30 13438 C 1807.97 2.89693 -6.67988 0
M  V30 13439 H 1808 3.88793 -6.19859 0
M  V30 13440 H 1809.18 1.12046 -6.44229 0
M  V30 13441 H 1810.67 1.7746 -8.19711 0
M  V30 13442 H 1808.97 3.20706 -9.67112 0
M  V30 13443 H 1808.78 0.901032 -10.1892 0
M  V30 13444 H 1807.15 1.33049 -9.56592 0
M  V30 13445 H 1809.79 3.57847 -5.23962 0
M  V30 13446 P 1811.65 3.65191 -7.99657 0
M  V30 13447 O 1813.07 3.89332 -8.45794 0
M  V30 13448 O 1811.29 2.28472 -7.50807 0
M  V30 13449 O 1811.33 4.64972 -6.77611 0
M  V30 13450 C 1811.17 6.06319 -7.16352 0
M  V30 13451 C 1811.71 6.91731 -6.02299 0
M  V30 13452 O 1810.65 6.92449 -5.17064 0
M  V30 13453 C 1812.92 6.43627 -5.25174 0
M  V30 13454 O 1813.66 7.43686 -4.60469 0
M  V30 13455 C 1812.26 5.40275 -4.31916 0
M  V30 13456 O 1813.05 5.25279 -3.14438 0
M  V30 13457 C 1810.92 6.04847 -4.05327 0
M  V30 13458 H 1810.95 6.62195 -3.11261 0
M  V30 13459 H 1812.13 4.42556 -4.81383 0
M  V30 13460 H 1813.62 5.92458 -5.93643 0
M  V30 13461 H 1811.92 7.92655 -6.402 0
M  V30 13462 H 1811.73 6.26671 -8.0846 0
M  V30 13463 H 1810.1 6.29101 -7.32804 0
M  V30 13464 H 1812.74 5.84315 -2.47318 0
M  V30 13465 P 1814.6 7.39546 -4.75277 0
M  V30 13466 O 1816.02 7.84798 -5.01039 0
M  V30 13467 O 1814.24 5.9812 -5.08098 0
M  V30 13468 O 1814.28 7.57503 -3.1866 0
M  V30 13469 C 1814.12 8.97357 -2.74833 0
M  V30 13470 C 1814.66 9.07548 -1.32709 0
M  V30 13471 O 1813.6 8.62072 -0.606159 0
M  V30 13472 C 1815.88 8.25383 -0.938334 0
M  V30 13473 O 1816.61 8.74577 0.146954 0
M  V30 13474 C 1815.21 6.8802 -0.712559 0
M  V30 13475 O 1816.01 6.1189 0.194655 0
M  V30 13476 C 1813.87 7.27966 -0.139777 0
M  V30 13477 H 1813.9 7.25354 0.961601 0
M  V30 13478 H 1815.08 6.32557 -1.65702 0
M  V30 13479 H 1816.57 8.19355 -1.79097 0
M  V30 13480 H 1814.87 10.1294 -1.10029 0
M  V30 13481 H 1814.68 9.64276 -3.41316 0
M  V30 13482 H 1813.05 9.25417 -2.76357 0
M  V30 13483 H 1815.69 6.25267 1.07847 0
M  V30 13484 P 1817.55 8.791 1.53704e-11 0
M  V30 13485 O 1818.97 9.31196 0.027936 0
M  V30 13486 O 1817.19 7.77869 -1.04071 0
M  V30 13487 O 1817.23 8.09533 1.41463 0
M  V30 13488 C 1817.07 9.03587 2.5397 0
M  V30 13489 C 1817.61 8.35226 3.79016 0
M  V30 13490 O 1816.55 7.57904 4.1503 0
M  V30 13491 C 1818.83 7.45087 3.67298 0
M  V30 13492 O 1819.56 7.27796 4.85194 0
M  V30 13493 C 1818.16 6.17323 3.12027 0
M  V30 13494 O 1818.96 5.04496 3.46627 0
M  V30 13495 C 1816.82 6.19961 3.81809 0
M  V30 13496 N 1815.78 5.71575 2.93223 0
M  V30 13497 C 1815.95 5.77362 1.59168 0
M  V30 13498 N 1814.92 5.3123 0.911893 0
M  V30 13499 C 1814.03 4.91717 1.89588 0
M  V30 13500 C 1812.77 4.3114 1.8076 0
M  V30 13501 N 1812.2 4.06823 3.02898 0
M  V30 13502 C 1812.8 4.35062 4.22711 0
M  V30 13503 N 1813.98 4.90805 4.35707 0
M  V30 13504 C 1814.56 5.16382 3.14469 0
M  V30 13505 H 1818.04 6.21428 2.0318 0
M  V30 13506 H 1819.52 7.86112 2.9231 0
M  V30 13507 H 1817.82 9.11171 4.55987 0
M  V30 13508 H 1817.63 9.9573 2.34194 0
M  V30 13509 H 1816 9.2792 2.67832 0
M  V30 13510 H 1816.85 6.16575 1.12198 0
M  V30 13511 H 1818.64 4.67628 4.28704 0
M  V30 13512 P 1820.5 7.39546 4.75277 0
M  V30 13513 O 1821.92 7.81861 5.05793 0
M  V30 13514 O 1820.14 7.1065 3.32998 0
M  V30 13515 O 1820.18 6.04542 5.56673 0
M  V30 13516 C 1820.02 6.22839 7.02169 0
M  V30 13517 C 1820.56 4.97725 7.70406 0
M  V30 13518 O 1819.5 4.13208 7.58899 0
M  V30 13519 C 1821.78 4.28231 7.11815 0
M  V30 13520 O 1822.51 3.49945 8.01648 0
M  V30 13521 C 1821.11 3.5063 5.96244 0
M  V30 13522 O 1821.91 2.37008 5.64352 0
M  V30 13523 C 1819.77 3.15122 6.56374 0
M  V30 13524 N 1818.73 3.22311 5.55692 0
M  V30 13525 C 1818.9 3.99655 4.46046 0
M  V30 13526 N 1817.87 3.97599 3.63918 0
M  V30 13527 C 1816.98 3.11159 4.25334 0
M  V30 13528 C 1815.72 2.64972 3.85157 0
M  V30 13529 N 1815.12 3.02132 2.69405 0
M  V30 13530 N 1815.15 1.78482 4.74759 0
M  V30 13531 C 1815.75 1.37463 5.90819 0
M  V30 13532 N 1816.93 1.7733 6.31889 0
M  V30 13533 C 1817.51 2.64393 5.43725 0
M  V30 13534 H 1819.8 2.13823 6.99656 0
M  V30 13535 H 1820.99 4.12931 5.06895 0
M  V30 13536 H 1822.47 5.03285 6.70911 0
M  V30 13537 H 1820.77 5.20001 8.76217 0
M  V30 13538 H 1820.58 7.11046 7.35349 0
M  V30 13539 H 1818.95 6.35815 7.26986 0
M  V30 13540 H 1815.22 0.66574 6.53015 0
M  V30 13541 H 1819.8 4.58037 4.27732 0
M  V30 13542 H 1814.19 2.64828 2.45331 0
M  V30 13543 H 1815.59 3.67472 2.05644 0
M  V30 13544 H 1821.59 1.61619 6.13468 0
M  V30 13545 P 1823.45 3.65191 7.99657 0
M  V30 13546 O 1824.87 3.8425 8.48115 0
M  V30 13547 O 1823.09 4.17805 6.64342 0
M  V30 13548 O 1823.13 2.07613 7.95143 0
M  V30 13549 C 1822.97 1.44328 9.27336 0
M  V30 13550 C 1823.51 0.0220036 9.17197 0
M  V30 13551 O 1822.45 -0.626867 8.61923 0
M  V30 13552 C 1824.73 -0.24586 8.30336 0
M  V30 13553 O 1825.47 -1.39011 8.63583 0
M  V30 13554 C 1824.06 -0.273849 6.91158 0
M  V30 13555 O 1824.86 -1.06348 6.02892 0
M  V30 13556 C 1822.72 -0.897649 7.22545 0
M  V30 13557 H 1822.75 -1.9841 7.04286 0
M  V30 13558 H 1823.94 0.739928 6.497 0
M  V30 13559 H 1825.42 0.60668 8.36503 0
M  V30 13560 H 1823.73 -0.352479 10.1829 0
M  V30 13561 H 1823.54 2.00611 10.0304 0
M  V30 13562 H 1821.91 1.41843 9.55327 0
M  V30 13563 H 1824.55 -1.95734 6.03555 0
M  V30 13564 P 1826.4 -1.25109 8.70152 0
M  V30 13565 O 1827.82 -1.35274 9.21221 0
M  V30 13566 O 1826.04 -0.0769065 7.84762 0
M  V30 13567 O 1826.08 -2.55232 7.81161 0
M  V30 13568 C 1825.92 -3.79939 8.58154 0
M  V30 13569 C 1826.46 -4.94023 7.72785 0
M  V30 13570 O 1825.4 -5.18726 6.91205 0
M  V30 13571 C 1827.68 -4.69597 6.85231 0
M  V30 13572 O 1828.42 -5.83832 6.51337 0
M  V30 13573 C 1827.01 -3.96706 5.66633 0
M  V30 13574 O 1827.81 -4.15414 4.49689 0
M  V30 13575 C 1825.67 -4.66153 5.59313 0
M  V30 13576 H 1825.7 -5.47679 4.85214 0
M  V30 13577 H 1826.89 -2.89008 5.86566 0
M  V30 13578 H 1828.37 -4.0121 7.36511 0
M  V30 13579 H 1826.68 -5.80182 8.37584 0
M  V30 13580 H 1826.49 -3.73517 9.52265 0
M  V30 13581 H 1824.86 -3.97163 8.80359 0
M  V30 13582 H 1827.5 -4.90969 4.01921 0
M  V30 13583 P 1829.35 -5.75688 6.64379 0
M  V30 13584 O 1830.75 -6.11991 7.09136 0
M  V30 13585 O 1828.98 -4.30899 6.62018 0
M  V30 13586 O 1829.03 -6.36965 5.19102 0
M  V30 13587 C 1828.87 -7.83578 5.16515 0
M  V30 13588 C 1829.41 -8.33307 3.82977 0
M  V30 13589 O 1828.35 -8.0998 3.00999 0
M  V30 13590 C 1830.63 -7.65514 3.2257 0
M  V30 13591 O 1831.37 -8.4329 2.32297 0
M  V30 13592 C 1829.96 -6.40075 2.62207 0
M  V30 13593 O 1830.76 -5.92492 1.53687 0
M  V30 13594 C 1828.62 -6.9454 2.18503 0
M  V30 13595 N 1827.58 -5.95905 2.39948 0
M  V30 13596 C 1826.54 -5.89764 1.49837 0
M  V30 13597 O 1826.58 -6.64088 0.490975 0
M  V30 13598 N 1825.53 -5.02821 1.70992 0
M  V30 13599 C 1825.58 -4.21498 2.77236 0
M  V30 13600 C 1826.68 -4.23389 3.68205 0
M  V30 13601 C 1827.64 -5.12792 3.46171 0
M  V30 13602 H 1828.65 -7.22964 1.12076 0
M  V30 13603 H 1829.84 -5.60502 3.36589 0
M  V30 13604 H 1831.32 -7.36197 4.01993 0
M  V30 13605 H 1829.63 -9.41302 3.90009 0
M  V30 13606 H 1829.44 -8.29056 5.99158 0
M  V30 13607 H 1827.81 -8.09989 5.25828 0
M  V30 13608 H 1826.72 -3.54747 4.52399 0
M  V30 13609 H 1828.49 -5.18551 4.1489 0
M  V30 13610 H 1830.54 -6.40705 0.751752 0
M  V30 13611 P 1832.3 -8.4349 2.47671 0
M  V30 13612 O 1833.73 -8.94167 2.5964 0
M  V30 13613 O 1831.94 -7.1704 3.19006 0
M  V30 13614 O 1831.98 -8.16596 0.923387 0
M  V30 13615 C 1831.82 -9.38437 0.108857 0
M  V30 13616 C 1832.36 -9.08175 -1.28353 0
M  V30 13617 O 1831.3 -8.44229 -1.84713 0
M  V30 13618 C 1833.58 -8.18386 -1.42505 0
M  V30 13619 O 1834.32 -8.3501 -2.60497 0
M  V30 13620 C 1832.91 -6.80225 -1.25468 0
M  V30 13621 O 1833.71 -5.81621 -1.91066 0
M  V30 13622 C 1831.57 -7.02416 -1.9168 0
M  V30 13623 H 1831.6 -6.6888 -2.96621 0
M  V30 13624 H 1832.79 -6.53617 -0.192223 0
M  V30 13625 H 1834.27 -8.36622 -0.589963 0
M  V30 13626 H 1832.58 -10.0291 -1.79807 0
M  V30 13627 H 1832.39 -10.2138 0.558219 0
M  V30 13628 H 1830.76 -9.6579 0.0444202 0
M  V30 13629 H 1833.4 -5.69556 -2.79637 0
M  V30 13630 P 1835.25 -8.4349 -2.47671 0
M  V30 13631 O 1836.68 -8.92593 -2.65 0
M  V30 13632 O 1834.89 -7.7568 -1.19296 0
M  V30 13633 O 1834.93 -7.36886 -3.63805 0
M  V30 13634 C 1834.77 -7.95349 -4.982 0
M  V30 13635 C 1835.31 -6.94612 -5.98974 0
M  V30 13636 O 1834.26 -6.10347 -6.11815 0
M  V30 13637 C 1836.53 -6.11426 -5.62335 0
M  V30 13638 O 1837.27 -5.6162 -6.70584 0
M  V30 13639 C 1835.86 -5.04409 -4.73308 0
M  V30 13640 O 1836.66 -3.85992 -4.75183 0
M  V30 13641 C 1834.52 -4.8728 -5.41006 0
M  V30 13642 H 1834.56 -4.02333 -6.11157 0
M  V30 13643 H 1835.74 -5.39466 -3.69543 0
M  V30 13644 H 1837.22 -6.71916 -5.01943 0
M  V30 13645 H 1835.53 -7.4649 -6.93477 0
M  V30 13646 H 1835.34 -8.89416 -5.05237 0
M  V30 13647 H 1833.71 -8.14876 -5.18409 0
M  V30 13648 H 1836.35 -3.27957 -5.4317 0
M  V30 13649 P 1838.21 -5.75688 -6.64379 0
M  V30 13650 O 1839.63 -6.07758 -7.05656 0
M  V30 13651 O 1837.85 -5.88047 -5.19722 0
M  V30 13652 O 1837.88 -4.2322 -7.04443 0
M  V30 13653 C 1837.72 -3.99743 -8.4911 0
M  V30 13654 C 1838.26 -2.60487 -8.79329 0
M  V30 13655 O 1837.21 -1.82684 -8.4467 0
M  V30 13656 C 1839.48 -2.10343 -8.03628 0
M  V30 13657 O 1840.22 -1.09919 -8.67766 0
M  V30 13658 C 1838.81 -1.68446 -6.70876 0
M  V30 13659 O 1839.61 -0.678026 -6.08333 0
M  V30 13660 C 1837.47 -1.17436 -7.18567 0
M  V30 13661 N 1836.43 -1.52699 -6.23988 0
M  V30 13662 C 1836.49 -2.68084 -5.57824 0
M  V30 13663 N 1835.45 -2.8189 -4.75643 0
M  V30 13664 C 1834.71 -1.72373 -4.95155 0
M  V30 13665 C 1833.41 -1.37653 -4.44996 0
M  V30 13666 O 1832.68 -2.02239 -3.68445 0
M  V30 13667 N 1832.98 -0.17675 -4.90782 0
M  V30 13668 C 1833.73 0.645036 -5.78716 0
M  V30 13669 N 1833.13 1.84214 -6.10618 0
M  V30 13670 N 1834.88 0.321732 -6.30279 0
M  V30 13671 C 1835.34 -0.87502 -5.86913 0
M  V30 13672 H 1837.51 -0.0804732 -7.31656 0
M  V30 13673 H 1838.69 -2.53998 -6.02444 0
M  V30 13674 H 1840.17 -2.93095 -7.8582 0
M  V30 13675 H 1838.48 -2.53065 -9.86973 0
M  V30 13676 H 1838.29 -4.75072 -9.05887 0
M  V30 13677 H 1836.66 -4.05244 -8.76668 0
M  V30 13678 H 1832.08 0.152143 -4.60849 0
M  V30 13679 H 1837.29 -3.41852 -5.69006 0
M  V30 13680 H 1832.22 2.08538 -5.69521 0
M  V30 13681 H 1833.6 2.4895 -6.75698 0
M  V30 13682 H 1839.3 0.177619 -6.34151 0
M  V30 13683 P 1841.16 -1.25109 -8.70152 0
M  V30 13684 O 1842.58 -1.29744 -9.22016 0
M  V30 13685 O 1840.8 -2.13714 -7.55141 0
M  V30 13686 O 1840.83 0.248149 -8.21425 0
M  V30 13687 C 1840.67 1.22779 -9.30434 0
M  V30 13688 C 1841.21 2.56293 -8.80664 0
M  V30 13689 O 1840.16 3.02979 -8.09349 0
M  V30 13690 C 1842.43 2.57523 -7.89775 0
M  V30 13691 O 1843.17 3.7668 -7.89438 0
M  V30 13692 C 1841.76 2.20997 -6.55446 0
M  V30 13693 O 1842.56 2.71895 -5.48509 0
M  V30 13694 C 1840.42 2.89693 -6.67988 0
M  V30 13695 H 1840.46 3.88793 -6.19859 0
M  V30 13696 H 1841.64 1.12046 -6.44229 0
M  V30 13697 H 1843.12 1.7746 -8.19711 0
M  V30 13698 H 1841.43 3.20706 -9.67112 0
M  V30 13699 H 1841.24 0.901032 -10.1892 0
M  V30 13700 H 1839.61 1.33049 -9.56592 0
M  V30 13701 H 1842.25 3.57847 -5.23962 0
M  V30 13702 P 1844.11 3.65191 -7.99657 0
M  V30 13703 O 1845.53 3.89332 -8.45794 0
M  V30 13704 O 1843.75 2.28472 -7.50807 0
M  V30 13705 O 1843.78 4.64972 -6.77611 0
M  V30 13706 C 1843.62 6.06319 -7.16352 0
M  V30 13707 C 1844.16 6.91731 -6.02299 0
M  V30 13708 O 1843.11 6.92449 -5.17064 0
M  V30 13709 C 1845.38 6.43627 -5.25174 0
M  V30 13710 O 1846.12 7.43686 -4.60469 0
M  V30 13711 C 1844.71 5.40275 -4.31916 0
M  V30 13712 O 1845.51 5.25279 -3.14438 0
M  V30 13713 C 1843.38 6.04847 -4.05327 0
M  V30 13714 H 1843.41 6.62195 -3.11261 0
M  V30 13715 H 1844.59 4.42556 -4.81383 0
M  V30 13716 H 1846.07 5.92458 -5.93643 0
M  V30 13717 H 1844.38 7.92655 -6.402 0
M  V30 13718 H 1844.19 6.26671 -8.0846 0
M  V30 13719 H 1842.56 6.29101 -7.32804 0
M  V30 13720 H 1845.2 5.84315 -2.47318 0
M  V30 13721 P 1847.06 7.39546 -4.75277 0
M  V30 13722 O 1848.48 7.84798 -5.01039 0
M  V30 13723 O 1846.7 5.9812 -5.08098 0
M  V30 13724 O 1846.73 7.57503 -3.1866 0
M  V30 13725 C 1846.57 8.97357 -2.74833 0
M  V30 13726 C 1847.11 9.07548 -1.32709 0
M  V30 13727 O 1846.06 8.62072 -0.606159 0
M  V30 13728 C 1848.33 8.25383 -0.938334 0
M  V30 13729 O 1849.07 8.74577 0.146954 0
M  V30 13730 C 1847.66 6.8802 -0.712559 0
M  V30 13731 O 1848.46 6.1189 0.194655 0
M  V30 13732 C 1846.33 7.27966 -0.139777 0
M  V30 13733 H 1846.36 7.25354 0.961601 0
M  V30 13734 H 1847.54 6.32557 -1.65702 0
M  V30 13735 H 1849.02 8.19355 -1.79097 0
M  V30 13736 H 1847.33 10.1294 -1.10029 0
M  V30 13737 H 1847.14 9.64276 -3.41316 0
M  V30 13738 H 1845.51 9.25417 -2.76357 0
M  V30 13739 H 1848.15 6.25267 1.07847 0
M  V30 13740 P 1850.01 8.791 1.56806e-11 0
M  V30 13741 O 1851.43 9.31096 0.027933 0
M  V30 13742 O 1849.65 7.77869 -1.04071 0
M  V30 13743 O 1849.68 8.09533 1.41463 0
M  V30 13744 C 1849.52 9.0349 2.53943 0
M  V30 13745 C 1850.06 8.35226 3.79016 0
M  V30 13746 O 1849.01 7.57992 4.15078 0
M  V30 13747 C 1851.28 7.45087 3.67298 0
M  V30 13748 O 1852.02 7.27796 4.85194 0
M  V30 13749 C 1850.61 6.17323 3.12027 0
M  V30 13750 O 1851.41 5.04231 3.47188 0
M  V30 13751 C 1849.28 6.19961 3.81809 0
M  V30 13752 H 1849.31 5.58218 4.73051 0
M  V30 13753 H 1850.49 6.21726 2.02589 0
M  V30 13754 H 1851.98 7.86112 2.9231 0
M  V30 13755 H 1850.28 9.11627 4.55076 0
M  V30 13756 H 1850.09 9.9573 2.34194 0
M  V30 13757 H 1848.46 9.2792 2.67832 0
M  V30 13758 H 1851.1 4.67702 4.28772 0
M  V30 13759 P 1852.96 7.39546 4.75277 0
M  V30 13760 O 1854.38 7.81945 5.05847 0
M  V30 13761 O 1852.6 7.1065 3.32998 0
M  V30 13762 O 1852.63 6.04542 5.56673 0
M  V30 13763 C 1852.47 6.22772 7.02095 0
M  V30 13764 C 1853.01 4.97671 7.70322 0
M  V30 13765 O 1851.96 4.13256 7.58987 0
M  V30 13766 C 1854.23 4.28231 7.11815 0
M  V30 13767 O 1854.97 3.49945 8.01648 0
M  V30 13768 C 1853.56 3.5063 5.96244 0
M  V30 13769 O 1854.36 2.36443 5.64589 0
M  V30 13770 C 1852.23 3.15122 6.56374 0
M  V30 13771 N 1851.18 3.22311 5.55692 0
M  V30 13772 C 1851.25 4.14382 4.59701 0
M  V30 13773 N 1850.2 4.04476 3.76958 0
M  V30 13774 C 1849.47 3.04892 4.26534 0
M  V30 13775 C 1848.16 2.57447 3.88189 0
M  V30 13776 O 1847.43 2.9785 2.96543 0
M  V30 13777 N 1847.73 1.55228 4.65922 0
M  V30 13778 C 1848.48 1.01152 5.73447 0
M  V30 13779 N 1847.88 -0.0472117 6.37783 0
M  V30 13780 N 1849.63 1.467 6.13813 0
M  V30 13781 C 1850.09 2.4931 5.38487 0
M  V30 13782 H 1852.26 2.13853 6.99751 0
M  V30 13783 H 1853.44 4.13438 5.06482 0
M  V30 13784 H 1854.93 5.02614 6.71414 0
M  V30 13785 H 1853.23 5.20877 8.75697 0
M  V30 13786 H 1853.04 7.11046 7.35349 0
M  V30 13787 H 1851.41 6.35815 7.26986 0
M  V30 13788 H 1846.83 1.15238 4.46468 0
M  V30 13789 H 1852.04 4.88312 4.49647 0
M  V30 13790 H 1846.97 -0.396382 6.05203 0
M  V30 13791 H 1848.35 -0.484997 7.18465 0
M  V30 13792 H 1854.05 1.61619 6.13468 0
M  V30 13793 P 1855.91 3.65191 7.99657 0
M  V30 13794 O 1857.33 3.84333 8.48297 0
M  V30 13795 O 1855.55 4.17805 6.64342 0
M  V30 13796 O 1855.59 2.07613 7.95143 0
M  V30 13797 C 1855.43 1.44328 9.27336 0
M  V30 13798 C 1855.97 0.0220012 9.17097 0
M  V30 13799 O 1854.91 -0.626867 8.61923 0
M  V30 13800 C 1857.18 -0.24586 8.30336 0
M  V30 13801 O 1857.92 -1.39011 8.63583 0
M  V30 13802 C 1856.52 -0.273849 6.91158 0
M  V30 13803 O 1857.31 -1.06331 6.02794 0
M  V30 13804 C 1855.18 -0.897649 7.22545 0
M  V30 13805 N 1854.13 -0.292839 6.41732 0
M  V30 13806 C 1854.2 1.00068 6.10757 0
M  V30 13807 N 1853.15 1.36468 5.35794 0
M  V30 13808 C 1852.42 0.258894 5.2366 0
M  V30 13809 C 1851.11 0.0670682 4.65752 0
M  V30 13810 O 1850.38 0.902443 4.10497 0
M  V30 13811 N 1850.68 -1.2131 4.75881 0
M  V30 13812 C 1851.43 -2.24934 5.37101 0
M  V30 13813 N 1850.83 -3.48783 5.33984 0
M  V30 13814 N 1852.58 -2.0844 5.95684 0
M  V30 13815 C 1853.04 -0.81395 5.87791 0
M  V30 13816 H 1855.21 -1.9841 7.04286 0
M  V30 13817 H 1856.39 0.739815 6.49601 0
M  V30 13818 H 1857.88 0.598315 8.36563 0
M  V30 13819 H 1856.18 -0.352479 10.1829 0
M  V30 13820 H 1855.99 2.00611 10.0304 0
M  V30 13821 H 1854.36 1.41843 9.55327 0
M  V30 13822 H 1849.79 -1.44434 4.37895 0
M  V30 13823 H 1854.99 1.67697 6.42268 0
M  V30 13824 H 1849.92 -3.60543 4.87699 0
M  V30 13825 H 1851.3 -4.29232 5.7819 0
M  V30 13826 H 1857 -1.95704 6.0346 0
M  V30 13827 P 1858.86 -1.25109 8.70152 0
M  V30 13828 O 1860.28 -1.35274 9.21221 0
M  V30 13829 O 1858.5 -0.0769065 7.84762 0
M  V30 13830 O 1858.54 -2.55232 7.81161 0
M  V30 13831 C 1858.38 -3.79939 8.58154 0
M  V30 13832 C 1858.92 -4.94023 7.72785 0
M  V30 13833 O 1857.86 -5.18726 6.91205 0
M  V30 13834 C 1860.13 -4.69597 6.85231 0
M  V30 13835 O 1860.87 -5.83832 6.51337 0
M  V30 13836 C 1859.47 -3.96706 5.66633 0
M  V30 13837 O 1860.26 -4.15414 4.49689 0
M  V30 13838 C 1858.13 -4.66153 5.59313 0
M  V30 13839 H 1858.16 -5.47679 4.85214 0
M  V30 13840 H 1859.34 -2.89008 5.86566 0
M  V30 13841 H 1860.83 -4.0121 7.36511 0
M  V30 13842 H 1859.13 -5.80182 8.37584 0
M  V30 13843 H 1858.94 -3.73517 9.52265 0
M  V30 13844 H 1857.31 -3.97163 8.80359 0
M  V30 13845 H 1859.95 -4.90969 4.01921 0
M  V30 13846 P 1861.81 -5.75688 6.64379 0
M  V30 13847 O 1863.23 -6.11849 7.01846 0
M  V30 13848 O 1861.45 -4.30744 6.56026 0
M  V30 13849 O 1861.49 -6.37042 5.19165 0
M  V30 13850 C 1861.33 -7.83578 5.16515 0
M  V30 13851 C 1861.87 -8.33398 3.83019 0
M  V30 13852 O 1860.81 -8.10074 3.01034 0
M  V30 13853 C 1863.08 -7.65514 3.2257 0
M  V30 13854 O 1863.82 -8.4329 2.32297 0
M  V30 13855 C 1862.42 -6.40075 2.62207 0
M  V30 13856 O 1863.21 -5.92589 1.53712 0
M  V30 13857 C 1861.08 -6.9454 2.18503 0
M  V30 13858 H 1861.11 -7.23063 1.12091 0
M  V30 13859 H 1862.29 -5.6025 3.37201 0
M  V30 13860 H 1863.78 -7.35707 4.02681 0
M  V30 13861 H 1862.08 -9.40912 3.9095 0
M  V30 13862 H 1861.89 -8.29056 5.99158 0
M  V30 13863 H 1860.26 -8.10073 5.25882 0
M  V30 13864 H 1862.9 -6.30324 0.726794 0
M  V30 13865 P 1864.76 -8.4349 2.47671 0
M  V30 13866 O 1866.18 -8.94167 2.5964 0
M  V30 13867 O 1864.4 -7.1704 3.19006 0
M  V30 13868 O 1864.44 -8.16596 0.923387 0
M  V30 13869 C 1864.28 -9.38437 0.108857 0
M  V30 13870 C 1864.82 -9.08175 -1.28353 0
M  V30 13871 O 1863.76 -8.44229 -1.84713 0
M  V30 13872 C 1866.04 -8.18386 -1.42505 0
M  V30 13873 O 1866.77 -8.3501 -2.60497 0
M  V30 13874 C 1865.37 -6.80225 -1.25468 0
M  V30 13875 O 1866.17 -5.81621 -1.91066 0
M  V30 13876 C 1864.03 -7.02416 -1.9168 0
M  V30 13877 H 1864.06 -6.6888 -2.96621 0
M  V30 13878 H 1865.24 -6.53617 -0.192223 0
M  V30 13879 H 1866.73 -8.36622 -0.589963 0
M  V30 13880 H 1865.03 -10.0291 -1.79807 0
M  V30 13881 H 1864.84 -10.2138 0.558219 0
M  V30 13882 H 1863.21 -9.6579 0.0444202 0
M  V30 13883 H 1865.85 -5.69556 -2.79637 0
M  V30 13884 P 1867.71 -8.4349 -2.47671 0
M  V30 13885 O 1869.13 -8.92593 -2.65 0
M  V30 13886 O 1867.35 -7.7568 -1.19296 0
M  V30 13887 O 1867.39 -7.36886 -3.63805 0
M  V30 13888 C 1867.23 -7.95349 -4.982 0
M  V30 13889 C 1867.77 -6.94612 -5.98974 0
M  V30 13890 O 1866.71 -6.10347 -6.11815 0
M  V30 13891 C 1868.99 -6.11426 -5.62335 0
M  V30 13892 O 1869.72 -5.6162 -6.70584 0
M  V30 13893 C 1868.32 -5.04409 -4.73308 0
M  V30 13894 O 1869.12 -3.85992 -4.75183 0
M  V30 13895 C 1866.98 -4.8728 -5.41006 0
M  V30 13896 H 1867.01 -4.02333 -6.11157 0
M  V30 13897 H 1868.19 -5.39466 -3.69543 0
M  V30 13898 H 1869.68 -6.71916 -5.01943 0
M  V30 13899 H 1867.98 -7.4649 -6.93477 0
M  V30 13900 H 1867.79 -8.89416 -5.05237 0
M  V30 13901 H 1866.16 -8.14876 -5.18409 0
M  V30 13902 H 1868.8 -3.27957 -5.4317 0
M  V30 13903 P 1870.66 -5.75688 -6.64379 0
M  V30 13904 O 1872.08 -6.07627 -7.05504 0
M  V30 13905 O 1870.3 -5.88047 -5.19722 0
M  V30 13906 O 1870.34 -4.2322 -7.04443 0
M  V30 13907 C 1870.18 -3.99743 -8.4911 0
M  V30 13908 C 1870.72 -2.60516 -8.79425 0
M  V30 13909 O 1869.66 -1.82684 -8.4467 0
M  V30 13910 C 1871.94 -2.10343 -8.03628 0
M  V30 13911 O 1872.67 -1.09919 -8.67766 0
M  V30 13912 C 1871.27 -1.68446 -6.70876 0
M  V30 13913 O 1872.07 -0.678137 -6.08433 0
M  V30 13914 C 1869.93 -1.17436 -7.18567 0
M  V30 13915 H 1869.96 -0.0804732 -7.31656 0
M  V30 13916 H 1871.15 -2.54037 -6.02537 0
M  V30 13917 H 1872.63 -2.93881 -7.85526 0
M  V30 13918 H 1870.94 -2.53065 -9.86973 0
M  V30 13919 H 1870.75 -4.75072 -9.05887 0
M  V30 13920 H 1869.12 -4.05244 -8.76668 0
M  V30 13921 H 1871.75 0.177647 -6.34251 0
M  V30 13922 P 1873.61 -1.25109 -8.70152 0
M  V30 13923 O 1875.03 -1.29744 -9.22016 0
M  V30 13924 O 1873.25 -2.13714 -7.55141 0
M  V30 13925 O 1873.29 0.248149 -8.21425 0
M  V30 13926 C 1873.13 1.22779 -9.30434 0
M  V30 13927 C 1873.67 2.56293 -8.80664 0
M  V30 13928 O 1872.61 3.02979 -8.09349 0
M  V30 13929 C 1874.89 2.57523 -7.89775 0
M  V30 13930 O 1875.62 3.7668 -7.89438 0
M  V30 13931 C 1874.22 2.20997 -6.55446 0
M  V30 13932 O 1875.02 2.71895 -5.48509 0
M  V30 13933 C 1872.88 2.89693 -6.67988 0
M  V30 13934 H 1872.91 3.88793 -6.19859 0
M  V30 13935 H 1874.1 1.12046 -6.44229 0
M  V30 13936 H 1875.58 1.7746 -8.19711 0
M  V30 13937 H 1873.89 3.20706 -9.67112 0
M  V30 13938 H 1873.7 0.901032 -10.1892 0
M  V30 13939 H 1872.07 1.33049 -9.56592 0
M  V30 13940 H 1874.7 3.57847 -5.23962 0
M  V30 13941 P 1876.56 3.65191 -7.99657 0
M  V30 13942 O 1877.98 3.89332 -8.45794 0
M  V30 13943 O 1876.2 2.28472 -7.50807 0
M  V30 13944 O 1876.24 4.64972 -6.77611 0
M  V30 13945 C 1876.08 6.06319 -7.16352 0
M  V30 13946 C 1876.62 6.91731 -6.02299 0
M  V30 13947 O 1875.56 6.92449 -5.17064 0
M  V30 13948 C 1877.84 6.43627 -5.25174 0
M  V30 13949 O 1878.58 7.43686 -4.60469 0
M  V30 13950 C 1877.17 5.40275 -4.31916 0
M  V30 13951 O 1877.97 5.25279 -3.14438 0
M  V30 13952 C 1875.83 6.04847 -4.05327 0
M  V30 13953 H 1875.86 6.62195 -3.11261 0
M  V30 13954 H 1877.05 4.42556 -4.81383 0
M  V30 13955 H 1878.53 5.92458 -5.93643 0
M  V30 13956 H 1876.84 7.92655 -6.402 0
M  V30 13957 H 1876.65 6.26671 -8.0846 0
M  V30 13958 H 1875.02 6.29101 -7.32804 0
M  V30 13959 H 1877.66 5.84315 -2.47318 0
M  V30 13960 P 1879.51 7.39546 -4.75277 0
M  V30 13961 O 1880.94 7.84798 -5.01039 0
M  V30 13962 O 1879.15 5.9812 -5.08098 0
M  V30 13963 O 1879.19 7.57503 -3.1866 0
M  V30 13964 C 1879.03 8.97357 -2.74833 0
M  V30 13965 C 1879.57 9.07548 -1.32709 0
M  V30 13966 O 1878.51 8.62072 -0.606159 0
M  V30 13967 C 1880.79 8.25383 -0.938334 0
M  V30 13968 O 1881.53 8.74577 0.146954 0
M  V30 13969 C 1880.12 6.8802 -0.712559 0
M  V30 13970 O 1880.92 6.1189 0.194655 0
M  V30 13971 C 1878.78 7.27966 -0.139777 0
M  V30 13972 H 1878.81 7.25354 0.961601 0
M  V30 13973 H 1880 6.32557 -1.65702 0
M  V30 13974 H 1881.48 8.19355 -1.79097 0
M  V30 13975 H 1879.79 10.1294 -1.10029 0
M  V30 13976 H 1879.6 9.64276 -3.41316 0
M  V30 13977 H 1877.97 9.25417 -2.76357 0
M  V30 13978 H 1880.61 6.25267 1.07847 0
M  V30 13979 P 1882.46 8.791 1.59908e-11 0
M  V30 13980 O 1883.89 9.31096 0.027933 0
M  V30 13981 O 1882.1 7.77869 -1.04071 0
M  V30 13982 O 1882.14 8.09533 1.41463 0
M  V30 13983 C 1881.98 9.0349 2.53943 0
M  V30 13984 C 1882.52 8.35226 3.79016 0
M  V30 13985 O 1881.46 7.57992 4.15078 0
M  V30 13986 C 1883.74 7.45087 3.67298 0
M  V30 13987 O 1884.48 7.27796 4.85194 0
M  V30 13988 C 1883.07 6.17323 3.12027 0
M  V30 13989 O 1883.87 5.04231 3.47188 0
M  V30 13990 C 1881.73 6.19961 3.81809 0
M  V30 13991 H 1881.76 5.58218 4.73051 0
M  V30 13992 H 1882.95 6.21726 2.02589 0
M  V30 13993 H 1884.43 7.86112 2.9231 0
M  V30 13994 H 1882.74 9.11627 4.55076 0
M  V30 13995 H 1882.55 9.9573 2.34194 0
M  V30 13996 H 1880.92 9.2792 2.67832 0
M  V30 13997 H 1883.56 4.67702 4.28772 0
M  V30 13998 P 1885.41 7.39546 4.75277 0
M  V30 13999 O 1886.84 7.81777 5.05738 0
M  V30 14000 O 1885.05 7.1065 3.32998 0
M  V30 14001 O 1885.09 6.04542 5.56673 0
M  V30 14002 C 1884.93 6.22772 7.02095 0
M  V30 14003 C 1885.47 4.97725 7.70406 0
M  V30 14004 O 1884.42 4.13256 7.58987 0
M  V30 14005 C 1886.69 4.28231 7.11815 0
M  V30 14006 O 1887.43 3.49945 8.01648 0
M  V30 14007 C 1886.02 3.5063 5.96244 0
M  V30 14008 O 1886.82 2.36482 5.64681 0
M  V30 14009 C 1884.68 3.15122 6.56374 0
M  V30 14010 H 1884.72 2.13853 6.99751 0
M  V30 14011 H 1885.9 4.13501 5.06559 0
M  V30 14012 H 1887.38 5.03285 6.70911 0
M  V30 14013 H 1885.69 5.20877 8.75697 0
M  V30 14014 H 1885.5 7.11046 7.35349 0
M  V30 14015 H 1883.87 6.35815 7.26986 0
M  V30 14016 H 1886.51 1.61644 6.13565 0
M  V30 14017 P 1888.36 3.65191 7.99657 0
M  V30 14018 O 1889.79 3.84292 8.48206 0
M  V30 14019 O 1888 4.17805 6.64342 0
M  V30 14020 O 1888.04 2.07613 7.95143 0
M  V30 14021 C 1887.88 1.44344 9.27435 0
M  V30 14022 C 1888.42 0.0220036 9.17197 0
M  V30 14023 O 1887.37 -0.626794 8.61824 0
M  V30 14024 C 1889.64 -0.24586 8.30336 0
M  V30 14025 O 1890.38 -1.39011 8.63583 0
M  V30 14026 C 1888.97 -0.273849 6.91158 0
M  V30 14027 O 1889.77 -1.05728 6.029 0
M  V30 14028 C 1887.63 -0.897649 7.22545 0
M  V30 14029 N 1886.59 -0.292839 6.41732 0
M  V30 14030 C 1886.76 0.950603 5.91308 0
M  V30 14031 N 1885.73 1.37732 5.21105 0
M  V30 14032 C 1884.85 0.318109 5.26039 0
M  V30 14033 C 1883.58 0.146766 4.6727 0
M  V30 14034 N 1882.98 1.08519 3.89983 0
M  V30 14035 N 1883.02 -1.06525 4.95887 0
M  V30 14036 C 1883.62 -2.0378 5.71347 0
M  V30 14037 N 1884.79 -1.92445 6.27451 0
M  V30 14038 C 1885.37 -0.715382 6.00353 0
M  V30 14039 H 1887.67 -1.98383 7.04189 0
M  V30 14040 H 1888.85 0.733318 6.49674 0
M  V30 14041 H 1890.33 0.60668 8.36503 0
M  V30 14042 H 1888.64 -0.362662 10.1825 0
M  V30 14043 H 1888.45 2.00611 10.0304 0
M  V30 14044 H 1886.82 1.41843 9.55327 0
M  V30 14045 H 1883.08 -2.97041 5.85344 0
M  V30 14046 H 1887.66 1.54076 6.07465 0
M  V30 14047 H 1882.05 0.901517 3.49562 0
M  V30 14048 H 1883.46 1.97957 3.71669 0
M  V30 14049 H 1889.46 -1.95704 6.0346 0
M  V30 14050 P 1891.32 -1.25109 8.70152 0
M  V30 14051 O 1892.74 -1.35288 9.2132 0
M  V30 14052 O 1890.96 -0.0769065 7.84762 0
M  V30 14053 O 1890.99 -2.55232 7.81161 0
M  V30 14054 C 1890.83 -3.79979 8.58246 0
M  V30 14055 C 1891.37 -4.94023 7.72785 0
M  V30 14056 O 1890.32 -5.18666 6.91125 0
M  V30 14057 C 1892.59 -4.69597 6.85231 0
M  V30 14058 O 1893.33 -5.83832 6.51337 0
M  V30 14059 C 1891.92 -3.96706 5.66633 0
M  V30 14060 O 1892.72 -4.14896 4.5003 0
M  V30 14061 C 1890.58 -4.66153 5.59313 0
M  V30 14062 N 1889.54 -3.71582 5.24027 0
M  V30 14063 C 1889.71 -2.39715 5.48833 0
M  V30 14064 N 1888.68 -1.65863 5.12845 0
M  V30 14065 C 1887.8 -2.57637 4.5973 0
M  V30 14066 C 1886.53 -2.40278 4.01027 0
M  V30 14067 N 1885.93 -1.19549 3.86744 0
M  V30 14068 N 1885.97 -3.57711 3.59575 0
M  V30 14069 C 1886.57 -4.80324 3.70476 0
M  V30 14070 N 1887.75 -5.01121 4.23801 0
M  V30 14071 C 1888.32 -3.84757 4.66372 0
M  V30 14072 H 1890.62 -5.47604 4.85148 0
M  V30 14073 H 1891.8 -2.8955 5.86187 0
M  V30 14074 H 1893.28 -4.0121 7.36511 0
M  V30 14075 H 1891.59 -5.81019 8.37003 0
M  V30 14076 H 1891.4 -3.73517 9.52265 0
M  V30 14077 H 1889.77 -3.97163 8.80359 0
M  V30 14078 H 1886.03 -5.66348 3.3183 0
M  V30 14079 H 1890.61 -1.98804 5.94332 0
M  V30 14080 H 1885 -1.13147 3.4281 0
M  V30 14081 H 1886.41 -0.344074 4.19692 0
M  V30 14082 H 1892.41 -4.90891 4.01857 0
M  V30 14083 P 1894.27 -5.75688 6.64379 0
M  V30 14084 O 1895.69 -6.11915 7.01921 0
M  V30 14085 O 1893.91 -4.30744 6.56026 0
M  V30 14086 O 1893.94 -6.37042 5.19165 0
M  V30 14087 C 1893.78 -7.83662 5.1657 0
M  V30 14088 C 1894.32 -8.33398 3.83019 0
M  V30 14089 O 1893.27 -8.0998 3.00999 0
M  V30 14090 C 1895.54 -7.65514 3.2257 0
M  V30 14091 O 1896.28 -8.4329 2.32297 0
M  V30 14092 C 1894.87 -6.40075 2.62207 0
M  V30 14093 O 1895.67 -5.92338 1.5428 0
M  V30 14094 C 1893.53 -6.9454 2.18503 0
M  V30 14095 N 1892.49 -5.95905 2.39948 0
M  V30 14096 C 1892.66 -4.98383 3.32108 0
M  V30 14097 N 1891.63 -4.16798 3.41761 0
M  V30 14098 C 1890.75 -4.65287 2.47461 0
M  V30 14099 C 1889.48 -4.18946 2.07461 0
M  V30 14100 N 1888.92 -4.95327 1.09101 0
M  V30 14101 C 1889.52 -6.04369 0.519812 0
M  V30 14102 N 1890.7 -6.50694 0.855982 0
M  V30 14103 C 1891.27 -5.75818 1.84322 0
M  V30 14104 H 1894.75 -5.60502 3.36589 0
M  V30 14105 H 1896.23 -7.35707 4.02681 0
M  V30 14106 H 1894.54 -9.41302 3.90009 0
M  V30 14107 H 1894.35 -8.29056 5.99158 0
M  V30 14108 H 1892.72 -8.10073 5.25882 0
M  V30 14109 H 1893.56 -4.88564 3.92502 0
M  V30 14110 H 1895.36 -6.30224 0.72668 0
M  V30 14111 P 1897.22 -8.4349 2.47671 0
M  V30 14112 O 1898.64 -8.94167 2.5964 0
M  V30 14113 O 1896.86 -7.1704 3.19006 0
M  V30 14114 O 1896.89 -8.16596 0.923387 0
M  V30 14115 C 1896.73 -9.38437 0.108857 0
M  V30 14116 C 1897.27 -9.08175 -1.28353 0
M  V30 14117 O 1896.22 -8.44229 -1.84713 0
M  V30 14118 C 1898.49 -8.18386 -1.42505 0
M  V30 14119 O 1899.23 -8.3501 -2.60497 0
M  V30 14120 C 1897.82 -6.80225 -1.25468 0
M  V30 14121 O 1898.62 -5.81621 -1.91066 0
M  V30 14122 C 1896.49 -7.02416 -1.9168 0
M  V30 14123 H 1896.52 -6.6888 -2.96621 0
M  V30 14124 H 1897.7 -6.53617 -0.192223 0
M  V30 14125 H 1899.18 -8.36622 -0.589963 0
M  V30 14126 H 1897.49 -10.0291 -1.79807 0
M  V30 14127 H 1897.3 -10.2138 0.558219 0
M  V30 14128 H 1895.67 -9.6579 0.0444202 0
M  V30 14129 H 1898.31 -5.69556 -2.79637 0
M  V30 14130 P 1900.17 -8.4349 -2.47671 0
M  V30 14131 O 1901.59 -8.92689 -2.65029 0
M  V30 14132 O 1899.81 -7.7568 -1.19296 0
M  V30 14133 O 1899.84 -7.36886 -3.63805 0
M  V30 14134 C 1899.68 -7.95433 -4.98253 0
M  V30 14135 C 1900.22 -6.94612 -5.98974 0
M  V30 14136 O 1899.17 -6.10277 -6.11744 0
M  V30 14137 C 1901.44 -6.11426 -5.62335 0
M  V30 14138 O 1902.18 -5.6162 -6.70584 0
M  V30 14139 C 1900.77 -5.04409 -4.73308 0
M  V30 14140 O 1901.57 -3.86404 -4.74719 0
M  V30 14141 C 1899.44 -4.8728 -5.41006 0
M  V30 14142 N 1898.39 -4.65812 -4.42377 0
M  V30 14143 C 1898.56 -5.09132 -3.15382 0
M  V30 14144 N 1897.54 -4.84021 -2.3716 0
M  V30 14145 C 1896.65 -4.18386 -3.20441 0
M  V30 14146 C 1895.38 -3.6275 -2.94905 0
M  V30 14147 N 1894.82 -3.05008 -4.05243 0
M  V30 14148 C 1895.42 -2.98348 -5.28159 0
M  V30 14149 N 1896.6 -3.48171 -5.56333 0
M  V30 14150 C 1897.17 -4.06869 -4.47212 0
M  V30 14151 H 1900.65 -5.39013 -3.70026 0
M  V30 14152 H 1902.13 -6.71916 -5.01943 0
M  V30 14153 H 1900.44 -7.45796 -6.94223 0
M  V30 14154 H 1900.25 -8.89416 -5.05237 0
M  V30 14155 H 1898.62 -8.14876 -5.18409 0
M  V30 14156 H 1899.46 -5.59989 -2.81362 0
M  V30 14157 H 1901.26 -3.27906 -5.43085 0
M  V30 14158 P 1903.12 -5.75688 -6.64379 0
M  V30 14159 O 1904.54 -6.07692 -7.0558 0
M  V30 14160 O 1902.76 -5.88047 -5.19722 0
M  V30 14161 O 1902.79 -4.2322 -7.04443 0
M  V30 14162 C 1902.63 -3.99785 -8.49201 0
M  V30 14163 C 1903.17 -2.60516 -8.79425 0
M  V30 14164 O 1902.12 -1.82663 -8.44573 0
M  V30 14165 C 1904.39 -2.10343 -8.03628 0
M  V30 14166 O 1905.13 -1.09919 -8.67766 0
M  V30 14167 C 1903.72 -1.68446 -6.70876 0
M  V30 14168 O 1904.52 -0.684109 -6.08265 0
M  V30 14169 C 1902.39 -1.17436 -7.18567 0
M  V30 14170 N 1901.34 -1.52699 -6.23988 0
M  V30 14171 C 1901.51 -2.578 -5.40574 0
M  V30 14172 N 1900.49 -2.78966 -4.61193 0
M  V30 14173 C 1899.6 -1.78725 -4.95769 0
M  V30 14174 C 1898.33 -1.45727 -4.44207 0
M  V30 14175 N 1897.73 -2.13994 -3.43613 0
M  V30 14176 N 1897.77 -0.374977 -5.05812 0
M  V30 14177 C 1898.37 0.345585 -6.05615 0
M  V30 14178 N 1899.55 0.0787651 -6.56253 0
M  V30 14179 C 1900.12 -1.00499 -5.96189 0
M  V30 14180 H 1902.42 -0.0804622 -7.31556 0
M  V30 14181 H 1903.6 -2.53396 -6.02698 0
M  V30 14182 H 1905.08 -2.93881 -7.85526 0
M  V30 14183 H 1903.39 -2.52078 -9.87225 0
M  V30 14184 H 1903.2 -4.75072 -9.05887 0
M  V30 14185 H 1901.57 -4.05244 -8.76668 0
M  V30 14186 H 1897.83 1.20098 -6.4532 0
M  V30 14187 H 1902.41 -3.18977 -5.3945 0
M  V30 14188 H 1896.8 -1.84983 -3.10004 0
M  V30 14189 H 1898.21 -2.9465 -3.00843 0
M  V30 14190 H 1904.21 0.177619 -6.34151 0
M  V30 14191 P 1906.07 -1.25109 -8.70152 0
M  V30 14192 O 1907.49 -1.29744 -9.22016 0
M  V30 14193 O 1905.71 -2.13714 -7.55141 0
M  V30 14194 O 1905.75 0.248149 -8.21425 0
M  V30 14195 C 1905.59 1.22779 -9.30434 0
M  V30 14196 C 1906.13 2.56293 -8.80664 0
M  V30 14197 O 1905.07 3.02979 -8.09349 0
M  V30 14198 C 1907.34 2.57523 -7.89775 0
M  V30 14199 O 1908.08 3.7668 -7.89438 0
M  V30 14200 C 1906.67 2.20997 -6.55446 0
M  V30 14201 O 1907.47 2.71895 -5.48509 0
M  V30 14202 C 1905.34 2.89693 -6.67988 0
M  V30 14203 H 1905.37 3.88793 -6.19859 0
M  V30 14204 H 1906.55 1.12046 -6.44229 0
M  V30 14205 H 1908.04 1.7746 -8.19711 0
M  V30 14206 H 1906.34 3.20706 -9.67112 0
M  V30 14207 H 1906.15 0.901032 -10.1892 0
M  V30 14208 H 1904.52 1.33049 -9.56592 0
M  V30 14209 H 1907.16 3.57847 -5.23962 0
M  V30 14210 P 1909.02 3.65191 -7.99657 0
M  V30 14211 O 1910.42 3.87414 -8.52829 0
M  V30 14212 O 1908.64 2.26932 -7.566 0
M  V30 14213 O 1908.7 4.64915 -6.77529 0
M  V30 14214 C 1908.54 6.06319 -7.16352 0
M  V30 14215 C 1909.08 6.91655 -6.02234 0
M  V30 14216 O 1908.02 6.92369 -5.17005 0
M  V30 14217 C 1910.29 6.43627 -5.25174 0
M  V30 14218 O 1911.03 7.43686 -4.60469 0
M  V30 14219 C 1909.63 5.40275 -4.31916 0
M  V30 14220 O 1910.42 5.25193 -3.14386 0
M  V30 14221 C 1908.29 6.04847 -4.05327 0
M  V30 14222 N 1907.24 5.04166 -3.98114 0
M  V30 14223 C 1906.21 5.2366 -3.09923 0
M  V30 14224 O 1906.25 6.23355 -2.34204 0
M  V30 14225 N 1905.2 4.34279 -3.05727 0
M  V30 14226 C 1905.25 3.26317 -3.84756 0
M  V30 14227 C 1906.34 3.02504 -4.72573 0
M  V30 14228 C 1907.31 3.94493 -4.76618 0
M  V30 14229 H 1908.32 6.62104 -3.11218 0
M  V30 14230 H 1909.5 4.42969 -4.80867 0
M  V30 14231 H 1910.99 5.93122 -5.93121 0
M  V30 14232 H 1909.29 7.93295 -6.39407 0
M  V30 14233 H 1909.1 6.26671 -8.0846 0
M  V30 14234 H 1907.47 6.29036 -7.32728 0
M  V30 14235 H 1906.39 2.12921 -5.34017 0
M  V30 14236 H 1908.15 3.80658 -5.44176 0
M  V30 14237 H 1910.21 5.93572 -2.52637 0
M  V30 14238 P 1911.97 7.39546 -4.75277 0
M  V30 14239 O 1913.39 7.84798 -5.01039 0
M  V30 14240 O 1911.61 5.9812 -5.08098 0
M  V30 14241 O 1911.65 7.57503 -3.1866 0
M  V30 14242 C 1911.49 8.97357 -2.74833 0
M  V30 14243 C 1912.03 9.07548 -1.32709 0
M  V30 14244 O 1910.97 8.62072 -0.606159 0
M  V30 14245 C 1913.24 8.25383 -0.938334 0
M  V30 14246 O 1913.98 8.74577 0.146954 0
M  V30 14247 C 1912.58 6.8802 -0.712559 0
M  V30 14248 O 1913.37 6.1189 0.194655 0
M  V30 14249 C 1911.24 7.27966 -0.139777 0
M  V30 14250 H 1911.27 7.25354 0.961601 0
M  V30 14251 H 1912.45 6.32557 -1.65702 0
M  V30 14252 H 1913.94 8.19355 -1.79097 0
M  V30 14253 H 1912.24 10.1294 -1.10029 0
M  V30 14254 H 1912.05 9.64276 -3.41316 0
M  V30 14255 H 1910.42 9.25417 -2.76357 0
M  V30 14256 H 1913.06 6.25267 1.07847 0
M  V30 14257 P 1914.92 8.791 1.63009e-11 0
M  V30 14258 O 1916.34 9.31096 0.027933 0
M  V30 14259 O 1914.56 7.77869 -1.04071 0
M  V30 14260 O 1914.6 8.09533 1.41463 0
M  V30 14261 C 1914.44 9.0349 2.53943 0
M  V30 14262 C 1914.98 8.35226 3.79016 0
M  V30 14263 O 1913.92 7.57992 4.15078 0
M  V30 14264 C 1916.19 7.45087 3.67298 0
M  V30 14265 O 1916.93 7.27796 4.85194 0
M  V30 14266 C 1915.53 6.17323 3.12027 0
M  V30 14267 O 1916.32 5.04231 3.47188 0
M  V30 14268 C 1914.19 6.19961 3.81809 0
M  V30 14269 H 1914.22 5.58218 4.73051 0
M  V30 14270 H 1915.4 6.21726 2.02589 0
M  V30 14271 H 1916.89 7.86112 2.9231 0
M  V30 14272 H 1915.19 9.11627 4.55076 0
M  V30 14273 H 1915 9.9573 2.34194 0
M  V30 14274 H 1913.37 9.2792 2.67832 0
M  V30 14275 H 1916.01 4.67702 4.28772 0
M  V30 14276 P 1917.87 7.39546 4.75277 0
M  V30 14277 O 1919.29 7.81777 5.05738 0
M  V30 14278 O 1917.51 7.1065 3.32998 0
M  V30 14279 O 1917.55 6.04542 5.56673 0
M  V30 14280 C 1917.39 6.22772 7.02095 0
M  V30 14281 C 1917.93 4.97725 7.70406 0
M  V30 14282 O 1916.87 4.13256 7.58987 0
M  V30 14283 C 1919.15 4.28231 7.11815 0
M  V30 14284 O 1919.88 3.49945 8.01648 0
M  V30 14285 C 1918.48 3.5063 5.96244 0
M  V30 14286 O 1919.28 2.36482 5.64681 0
M  V30 14287 C 1917.14 3.15122 6.56374 0
M  V30 14288 H 1917.17 2.13853 6.99751 0
M  V30 14289 H 1918.35 4.13501 5.06559 0
M  V30 14290 H 1919.84 5.03285 6.70911 0
M  V30 14291 H 1918.14 5.20877 8.75697 0
M  V30 14292 H 1917.95 7.11046 7.35349 0
M  V30 14293 H 1916.32 6.35815 7.26986 0
M  V30 14294 H 1918.96 1.61644 6.13565 0
M  V30 14295 P 1920.82 3.65191 7.99657 0
M  V30 14296 O 1922.24 3.8425 8.48115 0
M  V30 14297 O 1920.46 4.17805 6.64342 0
M  V30 14298 O 1920.5 2.07613 7.95143 0
M  V30 14299 C 1920.34 1.44328 9.27336 0
M  V30 14300 C 1920.88 0.0220036 9.17197 0
M  V30 14301 O 1919.82 -0.626867 8.61923 0
M  V30 14302 C 1922.1 -0.24586 8.30336 0
M  V30 14303 O 1922.83 -1.39011 8.63583 0
M  V30 14304 C 1921.43 -0.273849 6.91158 0
M  V30 14305 O 1922.23 -1.06348 6.02892 0
M  V30 14306 C 1920.09 -0.897649 7.22545 0
M  V30 14307 H 1920.12 -1.9841 7.04286 0
M  V30 14308 H 1921.31 0.739928 6.497 0
M  V30 14309 H 1922.79 0.60668 8.36503 0
M  V30 14310 H 1921.1 -0.352479 10.1829 0
M  V30 14311 H 1920.91 2.00611 10.0304 0
M  V30 14312 H 1919.28 1.41843 9.55327 0
M  V30 14313 H 1921.91 -1.95734 6.03555 0
M  V30 14314 P 1923.77 -1.25109 8.70152 0
M  V30 14315 O 1925.19 -1.35274 9.21221 0
M  V30 14316 O 1923.41 -0.0769065 7.84762 0
M  V30 14317 O 1923.45 -2.55232 7.81161 0
M  V30 14318 C 1923.29 -3.79939 8.58154 0
M  V30 14319 C 1923.83 -4.94023 7.72785 0
M  V30 14320 O 1922.77 -5.18726 6.91205 0
M  V30 14321 C 1925.05 -4.69597 6.85231 0
M  V30 14322 O 1925.78 -5.83832 6.51337 0
M  V30 14323 C 1924.38 -3.96706 5.66633 0
M  V30 14324 O 1925.18 -4.15414 4.49689 0
M  V30 14325 C 1923.04 -4.66153 5.59313 0
M  V30 14326 H 1923.07 -5.47679 4.85214 0
M  V30 14327 H 1924.26 -2.89008 5.86566 0
M  V30 14328 H 1925.74 -4.0121 7.36511 0
M  V30 14329 H 1924.05 -5.80182 8.37584 0
M  V30 14330 H 1923.86 -3.73517 9.52265 0
M  V30 14331 H 1922.23 -3.97163 8.80359 0
M  V30 14332 H 1924.86 -4.90969 4.01921 0
M  V30 14333 P 1926.72 -5.75688 6.64379 0
M  V30 14334 O 1928.14 -6.11849 7.01846 0
M  V30 14335 O 1926.36 -4.30744 6.56026 0
M  V30 14336 O 1926.4 -6.37042 5.19165 0
M  V30 14337 C 1926.24 -7.83578 5.16515 0
M  V30 14338 C 1926.78 -8.33398 3.83019 0
M  V30 14339 O 1925.72 -8.10074 3.01034 0
M  V30 14340 C 1928 -7.65514 3.2257 0
M  V30 14341 O 1928.74 -8.4329 2.32297 0
M  V30 14342 C 1927.33 -6.40075 2.62207 0
M  V30 14343 O 1928.13 -5.92589 1.53712 0
M  V30 14344 C 1925.99 -6.9454 2.18503 0
M  V30 14345 H 1926.02 -7.23063 1.12091 0
M  V30 14346 H 1927.21 -5.6025 3.37201 0
M  V30 14347 H 1928.69 -7.35707 4.02681 0
M  V30 14348 H 1927 -9.40912 3.9095 0
M  V30 14349 H 1926.81 -8.29056 5.99158 0
M  V30 14350 H 1925.18 -8.10073 5.25882 0
M  V30 14351 H 1927.82 -6.30324 0.726794 0
M  V30 14352 P 1929.67 -8.4349 2.47671 0
M  V30 14353 O 1931.09 -8.94359 2.59696 0
M  V30 14354 O 1929.31 -7.1704 3.19006 0
M  V30 14355 O 1929.35 -8.16596 0.923387 0
M  V30 14356 C 1929.19 -9.38437 0.108857 0
M  V30 14357 C 1929.73 -9.08076 -1.28339 0
M  V30 14358 O 1928.67 -8.44229 -1.84713 0
M  V30 14359 C 1930.95 -8.18386 -1.42505 0
M  V30 14360 O 1931.69 -8.3501 -2.60497 0
M  V30 14361 C 1930.28 -6.80225 -1.25468 0
M  V30 14362 O 1931.08 -5.81526 -1.91035 0
M  V30 14363 C 1928.94 -7.02416 -1.9168 0
M  V30 14364 N 1927.9 -6.31033 -1.20314 0
M  V30 14365 C 1927.96 -6.18781 0.121293 0
M  V30 14366 N 1926.92 -5.49762 0.588272 0
M  V30 14367 C 1926.18 -5.22015 -0.488988 0
M  V30 14368 C 1924.88 -4.61966 -0.596448 0
M  V30 14369 O 1924.14 -4.19162 0.309059 0
M  V30 14370 N 1924.45 -4.53773 -1.878 0
M  V30 14371 C 1925.19 -4.99623 -2.99082 0
M  V30 14372 N 1924.6 -4.78912 -4.21227 0
M  V30 14373 N 1926.35 -5.59957 -2.91093 0
M  V30 14374 C 1926.8 -5.70225 -1.64218 0
M  V30 14375 H 1928.97 -6.6888 -2.96621 0
M  V30 14376 H 1930.16 -6.53517 -0.192194 0
M  V30 14377 H 1931.64 -8.36563 -0.598329 0
M  V30 14378 H 1929.95 -10.0291 -1.79807 0
M  V30 14379 H 1929.76 -10.2138 0.558219 0
M  V30 14380 H 1928.13 -9.6579 0.0444202 0
M  V30 14381 H 1923.55 -4.12883 -2.05283 0
M  V30 14382 H 1928.76 -6.59596 0.745856 0
M  V30 14383 H 1923.69 -4.31425 -4.2628 0
M  V30 14384 H 1925.06 -5.11219 -5.07148 0
M  V30 14385 H 1930.77 -5.69466 -2.79593 0
M  V30 14386 P 1932.62 -8.4349 -2.47671 0
M  V30 14387 O 1934.05 -8.92593 -2.65 0
M  V30 14388 O 1932.26 -7.7568 -1.19296 0
M  V30 14389 O 1932.3 -7.36886 -3.63805 0
M  V30 14390 C 1932.14 -7.95349 -4.982 0
M  V30 14391 C 1932.68 -6.94612 -5.98974 0
M  V30 14392 O 1931.62 -6.10347 -6.11815 0
M  V30 14393 C 1933.9 -6.11426 -5.62335 0
M  V30 14394 O 1934.64 -5.6162 -6.70584 0
M  V30 14395 C 1933.23 -5.04409 -4.73308 0
M  V30 14396 O 1934.03 -3.85992 -4.75183 0
M  V30 14397 C 1931.89 -4.8728 -5.41006 0
M  V30 14398 H 1931.92 -4.02333 -6.11157 0
M  V30 14399 H 1933.11 -5.39466 -3.69543 0
M  V30 14400 H 1934.59 -6.71916 -5.01943 0
M  V30 14401 H 1932.9 -7.4649 -6.93477 0
M  V30 14402 H 1932.71 -8.89416 -5.05237 0
M  V30 14403 H 1931.08 -8.14876 -5.18409 0
M  V30 14404 H 1933.72 -3.27957 -5.4317 0
M  V30 14405 P 1935.57 -5.75688 -6.64379 0
M  V30 14406 O 1937 -6.07627 -7.05504 0
M  V30 14407 O 1935.21 -5.88047 -5.19722 0
M  V30 14408 O 1935.25 -4.2322 -7.04443 0
M  V30 14409 C 1935.09 -3.99743 -8.4911 0
M  V30 14410 C 1935.63 -2.60516 -8.79425 0
M  V30 14411 O 1934.57 -1.82684 -8.4467 0
M  V30 14412 C 1936.85 -2.10343 -8.03628 0
M  V30 14413 O 1937.59 -1.09919 -8.67766 0
M  V30 14414 C 1936.18 -1.68446 -6.70876 0
M  V30 14415 O 1936.98 -0.678137 -6.08433 0
M  V30 14416 C 1934.84 -1.17436 -7.18567 0
M  V30 14417 H 1934.87 -0.0804732 -7.31656 0
M  V30 14418 H 1936.06 -2.54037 -6.02537 0
M  V30 14419 H 1937.54 -2.93881 -7.85526 0
M  V30 14420 H 1935.85 -2.53065 -9.86973 0
M  V30 14421 H 1935.66 -4.75072 -9.05887 0
M  V30 14422 H 1934.03 -4.05244 -8.76668 0
M  V30 14423 H 1936.67 0.177647 -6.34251 0
M  V30 14424 P 1938.52 -1.25109 -8.70152 0
M  V30 14425 O 1939.95 -1.29744 -9.22016 0
M  V30 14426 O 1938.16 -2.13714 -7.55141 0
M  V30 14427 O 1938.2 0.248149 -8.21425 0
M  V30 14428 C 1938.04 1.22779 -9.30434 0
M  V30 14429 C 1938.58 2.56293 -8.80664 0
M  V30 14430 O 1937.53 3.02979 -8.09349 0
M  V30 14431 C 1939.8 2.57523 -7.89775 0
M  V30 14432 O 1940.54 3.7668 -7.89438 0
M  V30 14433 C 1939.13 2.20997 -6.55446 0
M  V30 14434 O 1939.93 2.71895 -5.48509 0
M  V30 14435 C 1937.79 2.89693 -6.67988 0
M  V30 14436 H 1937.83 3.88793 -6.19859 0
M  V30 14437 H 1939.01 1.12046 -6.44229 0
M  V30 14438 H 1940.49 1.7746 -8.19711 0
M  V30 14439 H 1938.8 3.20706 -9.67112 0
M  V30 14440 H 1938.61 0.901032 -10.1892 0
M  V30 14441 H 1936.98 1.33049 -9.56592 0
M  V30 14442 H 1939.62 3.57847 -5.23962 0
M  V30 14443 P 1941.48 3.65191 -7.99657 0
M  V30 14444 O 1942.9 3.89416 -8.45976 0
M  V30 14445 O 1941.12 2.28472 -7.50807 0
M  V30 14446 O 1941.15 4.64972 -6.77611 0
M  V30 14447 C 1940.99 6.06319 -7.16352 0
M  V30 14448 C 1941.53 6.91655 -6.02234 0
M  V30 14449 O 1940.48 6.92449 -5.17064 0
M  V30 14450 C 1942.75 6.43627 -5.25174 0
M  V30 14451 O 1943.49 7.43686 -4.60469 0
M  V30 14452 C 1942.08 5.40275 -4.31916 0
M  V30 14453 O 1942.88 5.25193 -3.14386 0
M  V30 14454 C 1940.74 6.04847 -4.05327 0
M  V30 14455 N 1939.7 5.04166 -3.98114 0
M  V30 14456 C 1939.76 3.96049 -4.75587 0
M  V30 14457 N 1938.72 3.15559 -4.54006 0
M  V30 14458 C 1937.98 3.78802 -3.62491 0
M  V30 14459 C 1936.68 3.476 -3.10071 0
M  V30 14460 O 1935.95 2.51136 -3.37021 0
M  V30 14461 N 1936.25 4.39088 -2.19956 0
M  V30 14462 C 1937 5.53215 -1.81733 0
M  V30 14463 N 1936.4 6.31963 -0.860928 0
M  V30 14464 N 1938.15 5.86688 -2.32562 0
M  V30 14465 C 1938.61 4.97525 -3.23407 0
M  V30 14466 H 1940.78 6.62195 -3.11261 0
M  V30 14467 H 1941.96 4.42488 -4.8131 0
M  V30 14468 H 1943.44 5.93051 -5.9305 0
M  V30 14469 H 1941.75 7.92655 -6.402 0
M  V30 14470 H 1941.56 6.26671 -8.0846 0
M  V30 14471 H 1939.93 6.29101 -7.32804 0
M  V30 14472 H 1935.35 4.25523 -1.77604 0
M  V30 14473 H 1940.56 3.75576 -5.47333 0
M  V30 14474 H 1935.49 6.04684 -0.468946 0
M  V30 14475 H 1936.87 7.18054 -0.542422 0
M  V30 14476 H 1942.57 5.84223 -2.47279 0
M  V30 14477 P 1944.43 7.39546 -4.75277 0
M  V30 14478 O 1945.85 7.84798 -5.01039 0
M  V30 14479 O 1944.07 5.9812 -5.08098 0
M  V30 14480 O 1944.1 7.57503 -3.1866 0
M  V30 14481 C 1943.94 8.97357 -2.74833 0
M  V30 14482 C 1944.48 9.07548 -1.32709 0
M  V30 14483 O 1943.43 8.62072 -0.606159 0
M  V30 14484 C 1945.7 8.25383 -0.938334 0
M  V30 14485 O 1946.44 8.74577 0.146954 0
M  V30 14486 C 1945.03 6.8802 -0.712559 0
M  V30 14487 O 1945.83 6.1189 0.194655 0
M  V30 14488 C 1943.69 7.27966 -0.139777 0
M  V30 14489 H 1943.73 7.25354 0.961601 0
M  V30 14490 H 1944.91 6.32557 -1.65702 0
M  V30 14491 H 1946.39 8.19355 -1.79097 0
M  V30 14492 H 1944.7 10.1294 -1.10029 0
M  V30 14493 H 1944.51 9.64276 -3.41316 0
M  V30 14494 H 1942.88 9.25417 -2.76357 0
M  V30 14495 H 1945.52 6.25267 1.07847 0
M  V30 14496 P 1947.38 8.791 1.66111e-11 0
M  V30 14497 O 1948.8 9.31096 0.027933 0
M  V30 14498 O 1947.02 7.77869 -1.04071 0
M  V30 14499 O 1947.05 8.09533 1.41463 0
M  V30 14500 C 1946.89 9.0349 2.53943 0
M  V30 14501 C 1947.43 8.35226 3.79016 0
M  V30 14502 O 1946.38 7.57992 4.15078 0
M  V30 14503 C 1948.65 7.45087 3.67298 0
M  V30 14504 O 1949.39 7.27796 4.85194 0
M  V30 14505 C 1947.98 6.17323 3.12027 0
M  V30 14506 O 1948.78 5.04231 3.47188 0
M  V30 14507 C 1946.65 6.19961 3.81809 0
M  V30 14508 H 1946.68 5.58218 4.73051 0
M  V30 14509 H 1947.86 6.21726 2.02589 0
M  V30 14510 H 1949.34 7.86112 2.9231 0
M  V30 14511 H 1947.65 9.11627 4.55076 0
M  V30 14512 H 1947.46 9.9573 2.34194 0
M  V30 14513 H 1945.83 9.2792 2.67832 0
M  V30 14514 H 1948.47 4.67702 4.28772 0
M  V30 14515 P 1950.33 7.39546 4.75277 0
M  V30 14516 O 1951.75 7.81945 5.05847 0
M  V30 14517 O 1949.97 7.1065 3.32998 0
M  V30 14518 O 1950 6.04542 5.56673 0
M  V30 14519 C 1949.84 6.22772 7.02095 0
M  V30 14520 C 1950.38 4.97671 7.70322 0
M  V30 14521 O 1949.33 4.13256 7.58987 0
M  V30 14522 C 1951.6 4.28231 7.11815 0
M  V30 14523 O 1952.34 3.49945 8.01648 0
M  V30 14524 C 1950.93 3.5063 5.96244 0
M  V30 14525 O 1951.73 2.36443 5.64589 0
M  V30 14526 C 1949.6 3.15122 6.56374 0
M  V30 14527 N 1948.55 3.22311 5.55692 0
M  V30 14528 C 1948.61 4.14382 4.59701 0
M  V30 14529 N 1947.57 4.04476 3.76958 0
M  V30 14530 C 1946.84 3.04892 4.26534 0
M  V30 14531 C 1945.53 2.57447 3.88189 0
M  V30 14532 O 1944.8 2.9785 2.96543 0
M  V30 14533 N 1945.1 1.55228 4.65922 0
M  V30 14534 C 1945.85 1.01152 5.73447 0
M  V30 14535 N 1945.25 -0.0472117 6.37783 0
M  V30 14536 N 1947 1.467 6.13813 0
M  V30 14537 C 1947.46 2.4931 5.38487 0
M  V30 14538 H 1949.63 2.13853 6.99751 0
M  V30 14539 H 1950.81 4.13438 5.06482 0
M  V30 14540 H 1952.3 5.02614 6.71414 0
M  V30 14541 H 1950.6 5.20877 8.75697 0
M  V30 14542 H 1950.41 7.11046 7.35349 0
M  V30 14543 H 1948.78 6.35815 7.26986 0
M  V30 14544 H 1944.2 1.15238 4.46468 0
M  V30 14545 H 1949.41 4.88312 4.49647 0
M  V30 14546 H 1944.34 -0.396382 6.05203 0
M  V30 14547 H 1945.72 -0.484997 7.18465 0
M  V30 14548 H 1951.42 1.61619 6.13468 0
M  V30 14549 P 1953.28 3.65191 7.99657 0
M  V30 14550 O 1954.7 3.8425 8.48115 0
M  V30 14551 O 1952.92 4.17805 6.64342 0
M  V30 14552 O 1952.95 2.07613 7.95143 0
M  V30 14553 C 1952.79 1.44328 9.27336 0
M  V30 14554 C 1953.33 0.0220036 9.17197 0
M  V30 14555 O 1952.28 -0.626867 8.61923 0
M  V30 14556 C 1954.55 -0.24586 8.30336 0
M  V30 14557 O 1955.29 -1.39011 8.63583 0
M  V30 14558 C 1953.88 -0.273849 6.91158 0
M  V30 14559 O 1954.68 -1.06348 6.02892 0
M  V30 14560 C 1952.55 -0.897649 7.22545 0
M  V30 14561 H 1952.58 -1.9841 7.04286 0
M  V30 14562 H 1953.76 0.739928 6.497 0
M  V30 14563 H 1955.25 0.60668 8.36503 0
M  V30 14564 H 1953.55 -0.352479 10.1829 0
M  V30 14565 H 1953.36 2.00611 10.0304 0
M  V30 14566 H 1951.73 1.41843 9.55327 0
M  V30 14567 H 1954.37 -1.95734 6.03555 0
M  V30 14568 P 1956.23 -1.25109 8.70152 0
M  V30 14569 O 1957.65 -1.35274 9.21221 0
M  V30 14570 O 1955.87 -0.0769065 7.84762 0
M  V30 14571 O 1955.9 -2.55232 7.81161 0
M  V30 14572 C 1955.74 -3.79939 8.58154 0
M  V30 14573 C 1956.28 -4.94023 7.72785 0
M  V30 14574 O 1955.23 -5.18726 6.91205 0
M  V30 14575 C 1957.5 -4.69597 6.85231 0
M  V30 14576 O 1958.24 -5.83832 6.51337 0
M  V30 14577 C 1956.83 -3.96706 5.66633 0
M  V30 14578 O 1957.63 -4.15414 4.49689 0
M  V30 14579 C 1955.5 -4.66153 5.59313 0
M  V30 14580 H 1955.53 -5.47679 4.85214 0
M  V30 14581 H 1956.71 -2.89008 5.86566 0
M  V30 14582 H 1958.2 -4.0121 7.36511 0
M  V30 14583 H 1956.5 -5.80182 8.37584 0
M  V30 14584 H 1956.31 -3.73517 9.52265 0
M  V30 14585 H 1954.68 -3.97163 8.80359 0
M  V30 14586 H 1957.32 -4.90969 4.01921 0
M  V30 14587 P 1959.18 -5.75688 6.64379 0
M  V30 14588 O 1960.6 -6.11849 7.01846 0
M  V30 14589 O 1958.82 -4.30744 6.56026 0
M  V30 14590 O 1958.86 -6.37042 5.19165 0
M  V30 14591 C 1958.7 -7.83578 5.16515 0
M  V30 14592 C 1959.24 -8.33398 3.83019 0
M  V30 14593 O 1958.18 -8.10074 3.01034 0
M  V30 14594 C 1960.45 -7.65514 3.2257 0
M  V30 14595 O 1961.19 -8.4329 2.32297 0
M  V30 14596 C 1959.78 -6.40075 2.62207 0
M  V30 14597 O 1960.58 -5.92589 1.53712 0
M  V30 14598 C 1958.45 -6.9454 2.18503 0
M  V30 14599 H 1958.48 -7.23063 1.12091 0
M  V30 14600 H 1959.66 -5.6025 3.37201 0
M  V30 14601 H 1961.15 -7.35707 4.02681 0
M  V30 14602 H 1959.45 -9.40912 3.9095 0
M  V30 14603 H 1959.26 -8.29056 5.99158 0
M  V30 14604 H 1957.63 -8.10073 5.25882 0
M  V30 14605 H 1960.27 -6.30324 0.726794 0
M  V30 14606 P 1962.13 -8.4349 2.47671 0
M  V30 14607 O 1963.55 -8.94167 2.5964 0
M  V30 14608 O 1961.77 -7.1704 3.19006 0
M  V30 14609 O 1961.81 -8.16596 0.923387 0
M  V30 14610 C 1961.65 -9.38437 0.108857 0
M  V30 14611 C 1962.19 -9.08175 -1.28353 0
M  V30 14612 O 1961.13 -8.44229 -1.84713 0
M  V30 14613 C 1963.4 -8.18386 -1.42505 0
M  V30 14614 O 1964.14 -8.3501 -2.60497 0
M  V30 14615 C 1962.74 -6.80225 -1.25468 0
M  V30 14616 O 1963.53 -5.81621 -1.91066 0
M  V30 14617 C 1961.4 -7.02416 -1.9168 0
M  V30 14618 H 1961.43 -6.6888 -2.96621 0
M  V30 14619 H 1962.61 -6.53617 -0.192223 0
M  V30 14620 H 1964.1 -8.36622 -0.589963 0
M  V30 14621 H 1962.4 -10.0291 -1.79807 0
M  V30 14622 H 1962.21 -10.2138 0.558219 0
M  V30 14623 H 1960.58 -9.6579 0.0444202 0
M  V30 14624 H 1963.22 -5.69556 -2.79637 0
M  V30 14625 P 1965.08 -8.4349 -2.47671 0
M  V30 14626 O 1966.5 -8.92593 -2.65 0
M  V30 14627 O 1964.72 -7.7568 -1.19296 0
M  V30 14628 O 1964.76 -7.36886 -3.63805 0
M  V30 14629 C 1964.6 -7.95349 -4.982 0
M  V30 14630 C 1965.14 -6.94612 -5.98974 0
M  V30 14631 O 1964.08 -6.10347 -6.11815 0
M  V30 14632 C 1966.35 -6.11426 -5.62335 0
M  V30 14633 O 1967.09 -5.6162 -6.70584 0
M  V30 14634 C 1965.69 -5.04409 -4.73308 0
M  V30 14635 O 1966.48 -3.85992 -4.75183 0
M  V30 14636 C 1964.35 -4.8728 -5.41006 0
M  V30 14637 H 1964.38 -4.02333 -6.11157 0
M  V30 14638 H 1965.56 -5.39466 -3.69543 0
M  V30 14639 H 1967.05 -6.71916 -5.01943 0
M  V30 14640 H 1965.35 -7.4649 -6.93477 0
M  V30 14641 H 1965.16 -8.89416 -5.05237 0
M  V30 14642 H 1963.53 -8.14876 -5.18409 0
M  V30 14643 H 1966.17 -3.27957 -5.4317 0
M  V30 14644 P 1968.03 -5.75688 -6.64379 0
M  V30 14645 O 1969.45 -6.07627 -7.05504 0
M  V30 14646 O 1967.67 -5.88047 -5.19722 0
M  V30 14647 O 1967.71 -4.2322 -7.04443 0
M  V30 14648 C 1967.55 -3.99743 -8.4911 0
M  V30 14649 C 1968.09 -2.60516 -8.79425 0
M  V30 14650 O 1967.03 -1.82684 -8.4467 0
M  V30 14651 C 1969.31 -2.10343 -8.03628 0
M  V30 14652 O 1970.04 -1.09919 -8.67766 0
M  V30 14653 C 1968.64 -1.68446 -6.70876 0
M  V30 14654 O 1969.44 -0.678137 -6.08433 0
M  V30 14655 C 1967.3 -1.17436 -7.18567 0
M  V30 14656 H 1967.33 -0.0804732 -7.31656 0
M  V30 14657 H 1968.51 -2.54037 -6.02537 0
M  V30 14658 H 1970 -2.93881 -7.85526 0
M  V30 14659 H 1968.3 -2.53065 -9.86973 0
M  V30 14660 H 1968.11 -4.75072 -9.05887 0
M  V30 14661 H 1966.48 -4.05244 -8.76668 0
M  V30 14662 H 1969.12 0.177647 -6.34251 0
M  V30 14663 P 1970.98 -1.25109 -8.70152 0
M  V30 14664 O 1972.4 -1.29744 -9.22016 0
M  V30 14665 O 1970.62 -2.13714 -7.55141 0
M  V30 14666 O 1970.66 0.248149 -8.21425 0
M  V30 14667 C 1970.5 1.22779 -9.30434 0
M  V30 14668 C 1971.04 2.56293 -8.80664 0
M  V30 14669 O 1969.98 3.02979 -8.09349 0
M  V30 14670 C 1972.26 2.57523 -7.89775 0
M  V30 14671 O 1972.99 3.7668 -7.89438 0
M  V30 14672 C 1971.59 2.20997 -6.55446 0
M  V30 14673 O 1972.39 2.71895 -5.48509 0
M  V30 14674 C 1970.25 2.89693 -6.67988 0
M  V30 14675 H 1970.28 3.88793 -6.19859 0
M  V30 14676 H 1971.46 1.12046 -6.44229 0
M  V30 14677 H 1972.95 1.7746 -8.19711 0
M  V30 14678 H 1971.25 3.20706 -9.67112 0
M  V30 14679 H 1971.06 0.901032 -10.1892 0
M  V30 14680 H 1969.43 1.33049 -9.56592 0
M  V30 14681 H 1972.07 3.57847 -5.23962 0
M  V30 14682 P 1973.93 3.65191 -7.99657 0
M  V30 14683 O 1975.35 3.89416 -8.45976 0
M  V30 14684 O 1973.57 2.28472 -7.50807 0
M  V30 14685 O 1973.61 4.64972 -6.77611 0
M  V30 14686 C 1973.45 6.06319 -7.16352 0
M  V30 14687 C 1973.99 6.91655 -6.02234 0
M  V30 14688 O 1972.93 6.92449 -5.17064 0
M  V30 14689 C 1975.21 6.43627 -5.25174 0
M  V30 14690 O 1975.94 7.43686 -4.60469 0
M  V30 14691 C 1974.54 5.40275 -4.31916 0
M  V30 14692 O 1975.34 5.25193 -3.14386 0
M  V30 14693 C 1973.2 6.04847 -4.05327 0
M  V30 14694 N 1972.16 5.04166 -3.98114 0
M  V30 14695 C 1972.22 3.96049 -4.75587 0
M  V30 14696 N 1971.17 3.15559 -4.54006 0
M  V30 14697 C 1970.44 3.78802 -3.62491 0
M  V30 14698 C 1969.13 3.476 -3.10071 0
M  V30 14699 O 1968.4 2.51136 -3.37021 0
M  V30 14700 N 1968.7 4.39088 -2.19956 0
M  V30 14701 C 1969.45 5.53215 -1.81733 0
M  V30 14702 N 1968.86 6.31963 -0.860928 0
M  V30 14703 N 1970.61 5.86688 -2.32562 0
M  V30 14704 C 1971.06 4.97525 -3.23407 0
M  V30 14705 H 1973.23 6.62195 -3.11261 0
M  V30 14706 H 1974.42 4.42488 -4.8131 0
M  V30 14707 H 1975.9 5.93051 -5.9305 0
M  V30 14708 H 1974.21 7.92655 -6.402 0
M  V30 14709 H 1974.02 6.26671 -8.0846 0
M  V30 14710 H 1972.38 6.29101 -7.32804 0
M  V30 14711 H 1967.81 4.25523 -1.77604 0
M  V30 14712 H 1973.02 3.75576 -5.47333 0
M  V30 14713 H 1967.95 6.04684 -0.468946 0
M  V30 14714 H 1969.32 7.18054 -0.542422 0
M  V30 14715 H 1975.03 5.84223 -2.47279 0
M  V30 14716 P 1976.88 7.39546 -4.75277 0
M  V30 14717 O 1978.3 7.84798 -5.01039 0
M  V30 14718 O 1976.52 5.9812 -5.08098 0
M  V30 14719 O 1976.56 7.57503 -3.1866 0
M  V30 14720 C 1976.4 8.97357 -2.74833 0
M  V30 14721 C 1976.94 9.07548 -1.32709 0
M  V30 14722 O 1975.88 8.62072 -0.606159 0
M  V30 14723 C 1978.16 8.25383 -0.938334 0
M  V30 14724 O 1978.89 8.74577 0.146954 0
M  V30 14725 C 1977.49 6.8802 -0.712559 0
M  V30 14726 O 1978.29 6.1189 0.194655 0
M  V30 14727 C 1976.15 7.27966 -0.139777 0
M  V30 14728 H 1976.18 7.25354 0.961601 0
M  V30 14729 H 1977.37 6.32557 -1.65702 0
M  V30 14730 H 1978.85 8.19355 -1.79097 0
M  V30 14731 H 1977.16 10.1294 -1.10029 0
M  V30 14732 H 1976.97 9.64276 -3.41316 0
M  V30 14733 H 1975.34 9.25417 -2.76357 0
M  V30 14734 H 1977.97 6.25267 1.07847 0
M  V30 14735 P 1979.83 8.791 1.69213e-11 0
M  V30 14736 O 1981.25 9.31096 0.027933 0
M  V30 14737 O 1979.47 7.77869 -1.04071 0
M  V30 14738 O 1979.51 8.09533 1.41463 0
M  V30 14739 C 1979.35 9.0349 2.53943 0
M  V30 14740 C 1979.89 8.35226 3.79016 0
M  V30 14741 O 1978.83 7.57992 4.15078 0
M  V30 14742 C 1981.11 7.45087 3.67298 0
M  V30 14743 O 1981.85 7.27796 4.85194 0
M  V30 14744 C 1980.44 6.17323 3.12027 0
M  V30 14745 O 1981.24 5.04231 3.47188 0
M  V30 14746 C 1979.1 6.19961 3.81809 0
M  V30 14747 H 1979.13 5.58218 4.73051 0
M  V30 14748 H 1980.32 6.21726 2.02589 0
M  V30 14749 H 1981.8 7.86112 2.9231 0
M  V30 14750 H 1980.11 9.11627 4.55076 0
M  V30 14751 H 1979.92 9.9573 2.34194 0
M  V30 14752 H 1978.29 9.2792 2.67832 0
M  V30 14753 H 1980.93 4.67702 4.28772 0
M  V30 14754 P 1982.78 7.39546 4.75277 0
M  V30 14755 O 1984.21 7.81777 5.05738 0
M  V30 14756 O 1982.42 7.1065 3.32998 0
M  V30 14757 O 1982.46 6.04542 5.56673 0
M  V30 14758 C 1982.3 6.22772 7.02095 0
M  V30 14759 C 1982.84 4.97725 7.70406 0
M  V30 14760 O 1981.78 4.13256 7.58987 0
M  V30 14761 C 1984.06 4.28231 7.11815 0
M  V30 14762 O 1984.8 3.49945 8.01648 0
M  V30 14763 C 1983.39 3.5063 5.96244 0
M  V30 14764 O 1984.19 2.36482 5.64681 0
M  V30 14765 C 1982.05 3.15122 6.56374 0
M  V30 14766 H 1982.08 2.13853 6.99751 0
M  V30 14767 H 1983.27 4.13501 5.06559 0
M  V30 14768 H 1984.75 5.03285 6.70911 0
M  V30 14769 H 1983.06 5.20877 8.75697 0
M  V30 14770 H 1982.87 7.11046 7.35349 0
M  V30 14771 H 1981.24 6.35815 7.26986 0
M  V30 14772 H 1983.88 1.61644 6.13565 0
M  V30 14773 P 1985.73 3.65191 7.99657 0
M  V30 14774 O 1987.16 3.8425 8.48115 0
M  V30 14775 O 1985.37 4.17805 6.64342 0
M  V30 14776 O 1985.41 2.07613 7.95143 0
M  V30 14777 C 1985.25 1.44328 9.27336 0
M  V30 14778 C 1985.79 0.0220036 9.17197 0
M  V30 14779 O 1984.73 -0.626867 8.61923 0
M  V30 14780 C 1987.01 -0.24586 8.30336 0
M  V30 14781 O 1987.75 -1.39011 8.63583 0
M  V30 14782 C 1986.34 -0.273849 6.91158 0
M  V30 14783 O 1987.14 -1.06348 6.02892 0
M  V30 14784 C 1985 -0.897649 7.22545 0
M  V30 14785 H 1985.03 -1.9841 7.04286 0
M  V30 14786 H 1986.22 0.739928 6.497 0
M  V30 14787 H 1987.7 0.60668 8.36503 0
M  V30 14788 H 1986.01 -0.352479 10.1829 0
M  V30 14789 H 1985.82 2.00611 10.0304 0
M  V30 14790 H 1984.19 1.41843 9.55327 0
M  V30 14791 H 1986.83 -1.95734 6.03555 0
M  V30 14792 P 1988.68 -1.25109 8.70152 0
M  V30 14793 O 1990.11 -1.35274 9.21221 0
M  V30 14794 O 1988.32 -0.0769065 7.84762 0
M  V30 14795 O 1988.36 -2.55232 7.81161 0
M  V30 14796 C 1988.2 -3.79939 8.58154 0
M  V30 14797 C 1988.74 -4.94023 7.72785 0
M  V30 14798 O 1987.69 -5.18726 6.91205 0
M  V30 14799 C 1989.96 -4.69597 6.85231 0
M  V30 14800 O 1990.7 -5.83832 6.51337 0
M  V30 14801 C 1989.29 -3.96706 5.66633 0
M  V30 14802 O 1990.09 -4.15414 4.49689 0
M  V30 14803 C 1987.95 -4.66153 5.59313 0
M  V30 14804 H 1987.99 -5.47679 4.85214 0
M  V30 14805 H 1989.17 -2.89008 5.86566 0
M  V30 14806 H 1990.65 -4.0121 7.36511 0
M  V30 14807 H 1988.96 -5.80182 8.37584 0
M  V30 14808 H 1988.77 -3.73517 9.52265 0
M  V30 14809 H 1987.14 -3.97163 8.80359 0
M  V30 14810 H 1989.78 -4.90969 4.01921 0
M  V30 14811 P 1991.63 -5.75688 6.64379 0
M  V30 14812 O 1993.06 -6.11849 7.01846 0
M  V30 14813 O 1991.27 -4.30744 6.56026 0
M  V30 14814 O 1991.31 -6.37042 5.19165 0
M  V30 14815 C 1991.15 -7.83578 5.16515 0
M  V30 14816 C 1991.69 -8.33398 3.83019 0
M  V30 14817 O 1990.64 -8.10074 3.01034 0
M  V30 14818 C 1992.91 -7.65514 3.2257 0
M  V30 14819 O 1993.65 -8.4329 2.32297 0
M  V30 14820 C 1992.24 -6.40075 2.62207 0
M  V30 14821 O 1993.04 -5.92589 1.53712 0
M  V30 14822 C 1990.9 -6.9454 2.18503 0
M  V30 14823 H 1990.94 -7.23063 1.12091 0
M  V30 14824 H 1992.12 -5.6025 3.37201 0
M  V30 14825 H 1993.6 -7.35707 4.02681 0
M  V30 14826 H 1991.91 -9.40912 3.9095 0
M  V30 14827 H 1991.72 -8.29056 5.99158 0
M  V30 14828 H 1990.09 -8.10073 5.25882 0
M  V30 14829 H 1992.73 -6.30324 0.726794 0
M  V30 14830 P 1994.59 -8.4349 2.47671 0
M  V30 14831 O 1996.01 -8.94167 2.5964 0
M  V30 14832 O 1994.23 -7.1704 3.19006 0
M  V30 14833 O 1994.26 -8.16596 0.923387 0
M  V30 14834 C 1994.1 -9.38437 0.108857 0
M  V30 14835 C 1994.64 -9.08175 -1.28353 0
M  V30 14836 O 1993.59 -8.44229 -1.84713 0
M  V30 14837 C 1995.86 -8.18386 -1.42505 0
M  V30 14838 O 1996.6 -8.3501 -2.60497 0
M  V30 14839 C 1995.19 -6.80225 -1.25468 0
M  V30 14840 O 1995.99 -5.81621 -1.91066 0
M  V30 14841 C 1993.85 -7.02416 -1.9168 0
M  V30 14842 H 1993.89 -6.6888 -2.96621 0
M  V30 14843 H 1995.07 -6.53617 -0.192223 0
M  V30 14844 H 1996.55 -8.36622 -0.589963 0
M  V30 14845 H 1994.86 -10.0291 -1.79807 0
M  V30 14846 H 1994.67 -10.2138 0.558219 0
M  V30 14847 H 1993.04 -9.6579 0.0444202 0
M  V30 14848 H 1995.68 -5.69556 -2.79637 0
M  V30 14849 P 1997.54 -8.4349 -2.47671 0
M  V30 14850 O 1998.96 -8.92593 -2.65 0
M  V30 14851 O 1997.18 -7.7568 -1.19296 0
M  V30 14852 O 1997.21 -7.36886 -3.63805 0
M  V30 14853 C 1997.05 -7.95349 -4.982 0
M  V30 14854 C 1997.59 -6.94612 -5.98974 0
M  V30 14855 O 1996.54 -6.10347 -6.11815 0
M  V30 14856 C 1998.81 -6.11426 -5.62335 0
M  V30 14857 O 1999.55 -5.6162 -6.70584 0
M  V30 14858 C 1998.14 -5.04409 -4.73308 0
M  V30 14859 O 1998.94 -3.85992 -4.75183 0
M  V30 14860 C 1996.8 -4.8728 -5.41006 0
M  V30 14861 H 1996.84 -4.02333 -6.11157 0
M  V30 14862 H 1998.02 -5.39466 -3.69543 0
M  V30 14863 H 1999.5 -6.71916 -5.01943 0
M  V30 14864 H 1997.81 -7.4649 -6.93477 0
M  V30 14865 H 1997.62 -8.89416 -5.05237 0
M  V30 14866 H 1995.99 -8.14876 -5.18409 0
M  V30 14867 H 1998.63 -3.27957 -5.4317 0
M  V30 14868 P 2000.49 -5.75688 -6.64379 0
M  V30 14869 O 2001.91 -6.07627 -7.05504 0
M  V30 14870 O 2000.13 -5.88047 -5.19722 0
M  V30 14871 O 2000.16 -4.2322 -7.04443 0
M  V30 14872 C 2000 -3.99743 -8.4911 0
M  V30 14873 C 2000.54 -2.60516 -8.79425 0
M  V30 14874 O 1999.49 -1.82684 -8.4467 0
M  V30 14875 C 2001.76 -2.10343 -8.03628 0
M  V30 14876 O 2002.5 -1.09919 -8.67766 0
M  V30 14877 C 2001.09 -1.68446 -6.70876 0
M  V30 14878 O 2001.89 -0.678137 -6.08433 0
M  V30 14879 C 1999.76 -1.17436 -7.18567 0
M  V30 14880 H 1999.79 -0.0804732 -7.31656 0
M  V30 14881 H 2000.97 -2.54037 -6.02537 0
M  V30 14882 H 2002.45 -2.93881 -7.85526 0
M  V30 14883 H 2000.76 -2.53065 -9.86973 0
M  V30 14884 H 2000.57 -4.75072 -9.05887 0
M  V30 14885 H 1998.94 -4.05244 -8.76668 0
M  V30 14886 H 2001.58 0.177647 -6.34251 0
M  V30 14887 P 2003.44 -1.25109 -8.70152 0
M  V30 14888 O 2004.86 -1.29744 -9.22016 0
M  V30 14889 O 2003.08 -2.13714 -7.55141 0
M  V30 14890 O 2003.11 0.248149 -8.21425 0
M  V30 14891 C 2002.95 1.22779 -9.30434 0
M  V30 14892 C 2003.49 2.56293 -8.80664 0
M  V30 14893 O 2002.44 3.02979 -8.09349 0
M  V30 14894 C 2004.71 2.57523 -7.89775 0
M  V30 14895 O 2005.45 3.7668 -7.89438 0
M  V30 14896 C 2004.04 2.20997 -6.55446 0
M  V30 14897 O 2004.84 2.71895 -5.48509 0
M  V30 14898 C 2002.71 2.89693 -6.67988 0
M  V30 14899 H 2002.74 3.88793 -6.19859 0
M  V30 14900 H 2003.92 1.12046 -6.44229 0
M  V30 14901 H 2005.41 1.7746 -8.19711 0
M  V30 14902 H 2003.71 3.20706 -9.67112 0
M  V30 14903 H 2003.52 0.901032 -10.1892 0
M  V30 14904 H 2001.89 1.33049 -9.56592 0
M  V30 14905 H 2004.53 3.57847 -5.23962 0
M  V30 14906 P 2006.39 3.65191 -7.99657 0
M  V30 14907 O 2007.81 3.89416 -8.45976 0
M  V30 14908 O 2006.03 2.28472 -7.50807 0
M  V30 14909 O 2006.06 4.64972 -6.77611 0
M  V30 14910 C 2005.9 6.06319 -7.16352 0
M  V30 14911 C 2006.44 6.91655 -6.02234 0
M  V30 14912 O 2005.39 6.92449 -5.17064 0
M  V30 14913 C 2007.66 6.43627 -5.25174 0
M  V30 14914 O 2008.4 7.43686 -4.60469 0
M  V30 14915 C 2006.99 5.40275 -4.31916 0
M  V30 14916 O 2007.79 5.25193 -3.14386 0
M  V30 14917 C 2005.66 6.04847 -4.05327 0
M  V30 14918 N 2004.61 5.04166 -3.98114 0
M  V30 14919 C 2004.68 3.96049 -4.75587 0
M  V30 14920 N 2003.63 3.15559 -4.54006 0
M  V30 14921 C 2002.9 3.78802 -3.62491 0
M  V30 14922 C 2001.59 3.476 -3.10071 0
M  V30 14923 O 2000.86 2.51136 -3.37021 0
M  V30 14924 N 2001.16 4.39088 -2.19956 0
M  V30 14925 C 2001.91 5.53215 -1.81733 0
M  V30 14926 N 2001.31 6.31963 -0.860928 0
M  V30 14927 N 2003.06 5.86688 -2.32562 0
M  V30 14928 C 2003.52 4.97525 -3.23407 0
M  V30 14929 H 2005.69 6.62195 -3.11261 0
M  V30 14930 H 2006.87 4.42488 -4.8131 0
M  V30 14931 H 2008.36 5.93051 -5.9305 0
M  V30 14932 H 2006.66 7.92655 -6.402 0
M  V30 14933 H 2006.47 6.26671 -8.0846 0
M  V30 14934 H 2004.84 6.29101 -7.32804 0
M  V30 14935 H 2000.26 4.25523 -1.77604 0
M  V30 14936 H 2005.47 3.75576 -5.47333 0
M  V30 14937 H 2000.4 6.04684 -0.468946 0
M  V30 14938 H 2001.78 7.18054 -0.542422 0
M  V30 14939 H 2007.48 5.84223 -2.47279 0
M  V30 14940 P 2009.34 7.39546 -4.75277 0
M  V30 14941 O 2010.76 7.84966 -5.01146 0
M  V30 14942 O 2008.98 5.9812 -5.08098 0
M  V30 14943 O 2009.02 7.57503 -3.1866 0
M  V30 14944 C 2008.86 8.97357 -2.74833 0
M  V30 14945 C 2009.4 9.0745 -1.32694 0
M  V30 14946 O 2008.34 8.62072 -0.606159 0
M  V30 14947 C 2010.61 8.25383 -0.938334 0
M  V30 14948 O 2011.35 8.74577 0.146954 0
M  V30 14949 C 2009.95 6.8802 -0.712559 0
M  V30 14950 O 2010.74 6.11791 0.194623 0
M  V30 14951 C 2008.61 7.27966 -0.139777 0
M  V30 14952 N 2007.56 6.39368 -0.623421 0
M  V30 14953 C 2007.63 5.90299 -1.85969 0
M  V30 14954 N 2006.58 5.10919 -2.1133 0
M  V30 14955 C 2005.85 5.14646 -1.0015 0
M  V30 14956 C 2004.54 4.60057 -0.729219 0
M  V30 14957 O 2003.81 3.93476 -1.47746 0
M  V30 14958 N 2004.11 4.88302 0.523505 0
M  V30 14959 C 2004.86 5.63646 1.46207 0
M  V30 14960 N 2004.26 5.78186 2.69239 0
M  V30 14961 N 2006.01 6.19285 1.21544 0
M  V30 14962 C 2006.47 5.93392 -0.0308487 0
M  V30 14963 H 2008.64 7.25354 0.961601 0
M  V30 14964 H 2009.82 6.3246 -1.65676 0
M  V30 14965 H 2011.31 8.19533 -1.78278 0
M  V30 14966 H 2009.61 10.1294 -1.10029 0
M  V30 14967 H 2009.42 9.64276 -3.41316 0
M  V30 14968 H 2007.79 9.25417 -2.76357 0
M  V30 14969 H 2003.22 4.53993 0.806451 0
M  V30 14970 H 2008.42 6.11865 -2.57394 0
M  V30 14971 H 2003.35 5.34046 2.87467 0
M  V30 14972 H 2004.73 6.33391 3.42578 0
M  V30 14973 H 2010.43 6.25169 1.0783 0
M  V30 14974 P 2012.29 8.791 1.72314e-11 0
M  V30 14975 O 2013.71 9.31096 0.027933 0
M  V30 14976 O 2011.93 7.77869 -1.04071 0
M  V30 14977 O 2011.97 8.09533 1.41463 0
M  V30 14978 C 2011.81 9.0349 2.53943 0
M  V30 14979 C 2012.35 8.35226 3.79016 0
M  V30 14980 O 2011.29 7.57992 4.15078 0
M  V30 14981 C 2013.56 7.45087 3.67298 0
M  V30 14982 O 2014.3 7.27796 4.85194 0
M  V30 14983 C 2012.89 6.17323 3.12027 0
M  V30 14984 O 2013.69 5.04231 3.47188 0
M  V30 14985 C 2011.56 6.19961 3.81809 0
M  V30 14986 H 2011.59 5.58218 4.73051 0
M  V30 14987 H 2012.77 6.21726 2.02589 0
M  V30 14988 H 2014.26 7.86112 2.9231 0
M  V30 14989 H 2012.56 9.11627 4.55076 0
M  V30 14990 H 2012.37 9.9573 2.34194 0
M  V30 14991 H 2010.74 9.2792 2.67832 0
M  V30 14992 H 2013.38 4.67702 4.28772 0
M  V30 14993 P 2015.24 7.39546 4.75277 0
M  V30 14994 O 2016.66 7.81777 5.05738 0
M  V30 14995 O 2014.88 7.1065 3.32998 0
M  V30 14996 O 2014.92 6.04542 5.56673 0
M  V30 14997 C 2014.76 6.22772 7.02095 0
M  V30 14998 C 2015.3 4.97725 7.70406 0
M  V30 14999 O 2014.24 4.13256 7.58987 0
M  V30 15000 C 2016.51 4.28231 7.11815 0
M  V30 15001 O 2017.25 3.49945 8.01648 0
M  V30 15002 C 2015.85 3.5063 5.96244 0
M  V30 15003 O 2016.64 2.36482 5.64681 0
M  V30 15004 C 2014.51 3.15122 6.56374 0
M  V30 15005 H 2014.54 2.13853 6.99751 0
M  V30 15006 H 2015.72 4.13501 5.06559 0
M  V30 15007 H 2017.21 5.03285 6.70911 0
M  V30 15008 H 2015.51 5.20877 8.75697 0
M  V30 15009 H 2015.32 7.11046 7.35349 0
M  V30 15010 H 2013.69 6.35815 7.26986 0
M  V30 15011 H 2016.33 1.61644 6.13565 0
M  V30 15012 P 2018.19 3.65191 7.99657 0
M  V30 15013 O 2019.61 3.8425 8.48115 0
M  V30 15014 O 2017.83 4.17805 6.64342 0
M  V30 15015 O 2017.87 2.07613 7.95143 0
M  V30 15016 C 2017.71 1.44328 9.27336 0
M  V30 15017 C 2018.25 0.0220036 9.17197 0
M  V30 15018 O 2017.19 -0.626867 8.61923 0
M  V30 15019 C 2019.46 -0.24586 8.30336 0
M  V30 15020 O 2020.2 -1.39011 8.63583 0
M  V30 15021 C 2018.8 -0.273849 6.91158 0
M  V30 15022 O 2019.59 -1.06348 6.02892 0
M  V30 15023 C 2017.46 -0.897649 7.22545 0
M  V30 15024 H 2017.49 -1.9841 7.04286 0
M  V30 15025 H 2018.67 0.739928 6.497 0
M  V30 15026 H 2020.16 0.60668 8.36503 0
M  V30 15027 H 2018.46 -0.352479 10.1829 0
M  V30 15028 H 2018.27 2.00611 10.0304 0
M  V30 15029 H 2016.64 1.41843 9.55327 0
M  V30 15030 H 2019.28 -1.95734 6.03555 0
M  V30 15031 P 2021.14 -1.25109 8.70152 0
M  V30 15032 O 2022.56 -1.35274 9.21221 0
M  V30 15033 O 2020.78 -0.0769065 7.84762 0
M  V30 15034 O 2020.82 -2.55232 7.81161 0
M  V30 15035 C 2020.66 -3.79939 8.58154 0
M  V30 15036 C 2021.2 -4.94023 7.72785 0
M  V30 15037 O 2020.14 -5.18726 6.91205 0
M  V30 15038 C 2022.42 -4.69597 6.85231 0
M  V30 15039 O 2023.15 -5.83832 6.51337 0
M  V30 15040 C 2021.75 -3.96706 5.66633 0
M  V30 15041 O 2022.55 -4.15414 4.49689 0
M  V30 15042 C 2020.41 -4.66153 5.59313 0
M  V30 15043 H 2020.44 -5.47679 4.85214 0
M  V30 15044 H 2021.62 -2.89008 5.86566 0
M  V30 15045 H 2023.11 -4.0121 7.36511 0
M  V30 15046 H 2021.41 -5.80182 8.37584 0
M  V30 15047 H 2021.22 -3.73517 9.52265 0
M  V30 15048 H 2019.59 -3.97163 8.80359 0
M  V30 15049 H 2022.23 -4.90969 4.01921 0
M  V30 15050 P 2024.09 -5.75688 6.64379 0
M  V30 15051 O 2025.51 -6.11849 7.01846 0
M  V30 15052 O 2023.73 -4.30744 6.56026 0
M  V30 15053 O 2023.77 -6.37042 5.19165 0
M  V30 15054 C 2023.61 -7.83578 5.16515 0
M  V30 15055 C 2024.15 -8.33398 3.83019 0
M  V30 15056 O 2023.09 -8.10074 3.01034 0
M  V30 15057 C 2025.37 -7.65514 3.2257 0
M  V30 15058 O 2026.1 -8.4329 2.32297 0
M  V30 15059 C 2024.7 -6.40075 2.62207 0
M  V30 15060 O 2025.5 -5.92589 1.53712 0
M  V30 15061 C 2023.36 -6.9454 2.18503 0
M  V30 15062 H 2023.39 -7.23063 1.12091 0
M  V30 15063 H 2024.58 -5.6025 3.37201 0
M  V30 15064 H 2026.06 -7.35707 4.02681 0
M  V30 15065 H 2024.37 -9.40912 3.9095 0
M  V30 15066 H 2024.18 -8.29056 5.99158 0
M  V30 15067 H 2022.55 -8.10073 5.25882 0
M  V30 15068 H 2025.18 -6.30324 0.726794 0
M  V30 15069 P 2027.04 -8.4349 2.47671 0
M  V30 15070 O 2028.46 -8.94167 2.5964 0
M  V30 15071 O 2026.68 -7.1704 3.19006 0
M  V30 15072 O 2026.72 -8.16596 0.923387 0
M  V30 15073 C 2026.56 -9.38437 0.108857 0
M  V30 15074 C 2027.1 -9.08175 -1.28353 0
M  V30 15075 O 2026.04 -8.44229 -1.84713 0
M  V30 15076 C 2028.32 -8.18386 -1.42505 0
M  V30 15077 O 2029.05 -8.3501 -2.60497 0
M  V30 15078 C 2027.65 -6.80225 -1.25468 0
M  V30 15079 O 2028.45 -5.81621 -1.91066 0
M  V30 15080 C 2026.31 -7.02416 -1.9168 0
M  V30 15081 H 2026.34 -6.6888 -2.96621 0
M  V30 15082 H 2027.53 -6.53617 -0.192223 0
M  V30 15083 H 2029.01 -8.36622 -0.589963 0
M  V30 15084 H 2027.32 -10.0291 -1.79807 0
M  V30 15085 H 2027.13 -10.2138 0.558219 0
M  V30 15086 H 2025.5 -9.6579 0.0444202 0
M  V30 15087 H 2028.13 -5.69556 -2.79637 0
M  V30 15088 P 2029.99 -8.4349 -2.47671 0
M  V30 15089 O 2031.41 -8.92593 -2.65 0
M  V30 15090 O 2029.63 -7.7568 -1.19296 0
M  V30 15091 O 2029.67 -7.36886 -3.63805 0
M  V30 15092 C 2029.51 -7.95349 -4.982 0
M  V30 15093 C 2030.05 -6.94612 -5.98974 0
M  V30 15094 O 2028.99 -6.10347 -6.11815 0
M  V30 15095 C 2031.27 -6.11426 -5.62335 0
M  V30 15096 O 2032.01 -5.6162 -6.70584 0
M  V30 15097 C 2030.6 -5.04409 -4.73308 0
M  V30 15098 O 2031.4 -3.85992 -4.75183 0
M  V30 15099 C 2029.26 -4.8728 -5.41006 0
M  V30 15100 H 2029.29 -4.02333 -6.11157 0
M  V30 15101 H 2030.48 -5.39466 -3.69543 0
M  V30 15102 H 2031.96 -6.71916 -5.01943 0
M  V30 15103 H 2030.27 -7.4649 -6.93477 0
M  V30 15104 H 2030.08 -8.89416 -5.05237 0
M  V30 15105 H 2028.45 -8.14876 -5.18409 0
M  V30 15106 H 2031.09 -3.27957 -5.4317 0
M  V30 15107 P 2032.94 -5.75688 -6.64379 0
M  V30 15108 O 2034.36 -6.07627 -7.05504 0
M  V30 15109 O 2032.58 -5.88047 -5.19722 0
M  V30 15110 O 2032.62 -4.2322 -7.04443 0
M  V30 15111 C 2032.46 -3.99743 -8.4911 0
M  V30 15112 C 2033 -2.60516 -8.79425 0
M  V30 15113 O 2031.94 -1.82684 -8.4467 0
M  V30 15114 C 2034.22 -2.10343 -8.03628 0
M  V30 15115 O 2034.96 -1.09919 -8.67766 0
M  V30 15116 C 2033.55 -1.68446 -6.70876 0
M  V30 15117 O 2034.35 -0.678137 -6.08433 0
M  V30 15118 C 2032.21 -1.17436 -7.18567 0
M  V30 15119 H 2032.24 -0.0804732 -7.31656 0
M  V30 15120 H 2033.43 -2.54037 -6.02537 0
M  V30 15121 H 2034.91 -2.93881 -7.85526 0
M  V30 15122 H 2033.22 -2.53065 -9.86973 0
M  V30 15123 H 2033.03 -4.75072 -9.05887 0
M  V30 15124 H 2031.4 -4.05244 -8.76668 0
M  V30 15125 H 2034.04 0.177647 -6.34251 0
M  V30 15126 P 2035.89 -1.25109 -8.70152 0
M  V30 15127 O 2037.29 -1.3516 -9.26897 0
M  V30 15128 O 2035.52 -2.18141 -7.59181 0
M  V30 15129 O 2035.57 0.248118 -8.21325 0
M  V30 15130 C 2035.41 1.22779 -9.30434 0
M  V30 15131 C 2035.95 2.56265 -8.80568 0
M  V30 15132 O 2034.89 3.02944 -8.09255 0
M  V30 15133 C 2037.17 2.57523 -7.89775 0
M  V30 15134 O 2037.91 3.7668 -7.89438 0
M  V30 15135 C 2036.5 2.20997 -6.55446 0
M  V30 15136 O 2037.3 2.71851 -5.48419 0
M  V30 15137 C 2035.16 2.89693 -6.67988 0
M  V30 15138 N 2034.12 2.08895 -6.07487 0
M  V30 15139 C 2033.08 2.72974 -5.43836 0
M  V30 15140 O 2033.12 3.97779 -5.34036 0
M  V30 15141 N 2032.07 2.0005 -4.91983 0
M  V30 15142 C 2032.12 0.66501 -5.00098 0
M  V30 15143 C 2033.22 -0.0100979 -5.61099 0
M  V30 15144 C 2034.18 0.74189 -6.14236 0
M  V30 15145 H 2035.19 3.8874 -6.19774 0
M  V30 15146 H 2036.38 1.12673 -6.44018 0
M  V30 15147 H 2037.86 1.783 -8.19631 0
M  V30 15148 H 2036.17 3.21673 -9.66791 0
M  V30 15149 H 2035.98 0.901032 -10.1892 0
M  V30 15150 H 2034.35 1.33036 -9.56493 0
M  V30 15151 H 2033.26 -1.09591 -5.64358 0
M  V30 15152 H 2035.03 0.260263 -6.6359 0
M  V30 15153 H 2037.08 3.62759 -5.33442 0
M  V30 15154 P 2038.84 3.65191 -7.99657 0
M  V30 15155 O 2040.27 3.89416 -8.45976 0
M  V30 15156 O 2038.48 2.28472 -7.50807 0
M  V30 15157 O 2038.52 4.64972 -6.77611 0
M  V30 15158 C 2038.36 6.06319 -7.16352 0
M  V30 15159 C 2038.9 6.91655 -6.02234 0
M  V30 15160 O 2037.85 6.92449 -5.17064 0
M  V30 15161 C 2040.12 6.43627 -5.25174 0
M  V30 15162 O 2040.86 7.43686 -4.60469 0
M  V30 15163 C 2039.45 5.40275 -4.31916 0
M  V30 15164 O 2040.25 5.25193 -3.14386 0
M  V30 15165 C 2038.11 6.04847 -4.05327 0
M  V30 15166 N 2037.07 5.04166 -3.98114 0
M  V30 15167 C 2037.13 3.96049 -4.75587 0
M  V30 15168 N 2036.09 3.15559 -4.54006 0
M  V30 15169 C 2035.35 3.78802 -3.62491 0
M  V30 15170 C 2034.05 3.476 -3.10071 0
M  V30 15171 O 2033.31 2.51136 -3.37021 0
M  V30 15172 N 2033.62 4.39088 -2.19956 0
M  V30 15173 C 2034.37 5.53215 -1.81733 0
M  V30 15174 N 2033.77 6.31963 -0.860928 0
M  V30 15175 N 2035.52 5.86688 -2.32562 0
M  V30 15176 C 2035.98 4.97525 -3.23407 0
M  V30 15177 H 2038.14 6.62195 -3.11261 0
M  V30 15178 H 2039.33 4.42488 -4.8131 0
M  V30 15179 H 2040.81 5.93051 -5.9305 0
M  V30 15180 H 2039.12 7.92655 -6.402 0
M  V30 15181 H 2038.93 6.26671 -8.0846 0
M  V30 15182 H 2037.3 6.29101 -7.32804 0
M  V30 15183 H 2032.72 4.25523 -1.77604 0
M  V30 15184 H 2037.93 3.75576 -5.47333 0
M  V30 15185 H 2032.86 6.04684 -0.468946 0
M  V30 15186 H 2034.23 7.18054 -0.542422 0
M  V30 15187 H 2039.94 5.84223 -2.47279 0
M  V30 15188 P 2041.79 7.39546 -4.75277 0
M  V30 15189 O 2043.22 7.84882 -5.01092 0
M  V30 15190 O 2041.43 5.9812 -5.08098 0
M  V30 15191 O 2041.47 7.57503 -3.1866 0
M  V30 15192 C 2041.31 8.97452 -2.74862 0
M  V30 15193 C 2041.85 9.07548 -1.32709 0
M  V30 15194 O 2040.8 8.61972 -0.606089 0
M  V30 15195 C 2043.07 8.25383 -0.938334 0
M  V30 15196 O 2043.81 8.74577 0.146954 0
M  V30 15197 C 2042.4 6.8802 -0.712559 0
M  V30 15198 O 2043.2 6.1181 0.188505 0
M  V30 15199 C 2041.06 7.27966 -0.139777 0
M  V30 15200 N 2040.02 6.39368 -0.623421 0
M  V30 15201 C 2040.19 5.71761 -1.78245 0
M  V30 15202 N 2039.16 4.962 -2.10491 0
M  V30 15203 C 2038.28 5.16158 -1.0635 0
M  V30 15204 C 2037.01 4.60425 -0.810266 0
M  V30 15205 N 2036.41 3.7057 -1.62914 0
M  V30 15206 N 2036.45 5.06 0.348685 0
M  V30 15207 C 2037.05 5.94532 1.20395 0
M  V30 15208 N 2038.22 6.48452 1.01191 0
M  V30 15209 C 2038.8 6.04423 -0.146291 0
M  V30 15210 H 2041.1 7.25255 0.961469 0
M  V30 15211 H 2042.28 6.32625 -1.65044 0
M  V30 15212 H 2043.76 8.19355 -1.79097 0
M  V30 15213 H 2042.07 10.1305 -1.09016 0
M  V30 15214 H 2041.88 9.64276 -3.41316 0
M  V30 15215 H 2040.25 9.25417 -2.76357 0
M  V30 15216 H 2036.51 6.21659 2.10714 0
M  V30 15217 H 2041.09 5.79354 -2.38959 0
M  V30 15218 H 2035.48 3.33174 -1.38982 0
M  V30 15219 H 2036.89 3.39714 -2.48836 0
M  V30 15220 H 2042.89 6.25169 1.0783 0
M  V30 15221 P 2044.75 8.791 1.75416e-11 0
M  V30 15222 O 2046.17 9.31096 0.027933 0
M  V30 15223 O 2044.39 7.77869 -1.04071 0
M  V30 15224 O 2044.42 8.09533 1.41463 0
M  V30 15225 C 2044.26 9.0349 2.53943 0
M  V30 15226 C 2044.8 8.35226 3.79016 0
M  V30 15227 O 2043.75 7.57992 4.15078 0
M  V30 15228 C 2046.02 7.45087 3.67298 0
M  V30 15229 O 2046.76 7.27796 4.85194 0
M  V30 15230 C 2045.35 6.17323 3.12027 0
M  V30 15231 O 2046.15 5.04231 3.47188 0
M  V30 15232 C 2044.01 6.19961 3.81809 0
M  V30 15233 H 2044.05 5.58218 4.73051 0
M  V30 15234 H 2045.23 6.21726 2.02589 0
M  V30 15235 H 2046.71 7.86112 2.9231 0
M  V30 15236 H 2045.02 9.11627 4.55076 0
M  V30 15237 H 2044.83 9.9573 2.34194 0
M  V30 15238 H 2043.2 9.2792 2.67832 0
M  V30 15239 H 2045.84 4.67702 4.28772 0
M  V30 15240 P 2047.7 7.39546 4.75277 0
M  V30 15241 O 2049.12 7.81777 5.05738 0
M  V30 15242 O 2047.34 7.1065 3.32998 0
M  V30 15243 O 2047.37 6.04542 5.56673 0
M  V30 15244 C 2047.21 6.22772 7.02095 0
M  V30 15245 C 2047.75 4.97725 7.70406 0
M  V30 15246 O 2046.7 4.13256 7.58987 0
M  V30 15247 C 2048.97 4.28231 7.11815 0
M  V30 15248 O 2049.71 3.49945 8.01648 0
M  V30 15249 C 2048.3 3.5063 5.96244 0
M  V30 15250 O 2049.1 2.36482 5.64681 0
M  V30 15251 C 2046.96 3.15122 6.56374 0
M  V30 15252 H 2047 2.13853 6.99751 0
M  V30 15253 H 2048.18 4.13501 5.06559 0
M  V30 15254 H 2049.66 5.03285 6.70911 0
M  V30 15255 H 2047.97 5.20877 8.75697 0
M  V30 15256 H 2047.78 7.11046 7.35349 0
M  V30 15257 H 2046.15 6.35815 7.26986 0
M  V30 15258 H 2048.79 1.61644 6.13565 0
M  V30 15259 P 2050.65 3.65191 7.99657 0
M  V30 15260 O 2052.07 3.8425 8.48115 0
M  V30 15261 O 2050.29 4.17805 6.64342 0
M  V30 15262 O 2050.32 2.07613 7.95143 0
M  V30 15263 C 2050.16 1.44328 9.27336 0
M  V30 15264 C 2050.7 0.0220036 9.17197 0
M  V30 15265 O 2049.65 -0.626867 8.61923 0
M  V30 15266 C 2051.92 -0.24586 8.30336 0
M  V30 15267 O 2052.66 -1.39011 8.63583 0
M  V30 15268 C 2051.25 -0.273849 6.91158 0
M  V30 15269 O 2052.05 -1.06348 6.02892 0
M  V30 15270 C 2049.92 -0.897649 7.22545 0
M  V30 15271 H 2049.95 -1.9841 7.04286 0
M  V30 15272 H 2051.13 0.739928 6.497 0
M  V30 15273 H 2052.61 0.60668 8.36503 0
M  V30 15274 H 2050.92 -0.352479 10.1829 0
M  V30 15275 H 2050.73 2.00611 10.0304 0
M  V30 15276 H 2049.1 1.41843 9.55327 0
M  V30 15277 H 2051.74 -1.95734 6.03555 0
M  V30 15278 P 2053.6 -1.25109 8.70152 0
M  V30 15279 O 2055.02 -1.35288 9.2132 0
M  V30 15280 O 2053.24 -0.0769065 7.84762 0
M  V30 15281 O 2053.27 -2.55232 7.81161 0
M  V30 15282 C 2053.11 -3.79979 8.58246 0
M  V30 15283 C 2053.65 -4.94023 7.72785 0
M  V30 15284 O 2052.6 -5.18666 6.91125 0
M  V30 15285 C 2054.87 -4.69597 6.85231 0
M  V30 15286 O 2055.61 -5.83832 6.51337 0
M  V30 15287 C 2054.2 -3.96706 5.66633 0
M  V30 15288 O 2055 -4.14896 4.5003 0
M  V30 15289 C 2052.87 -4.66153 5.59313 0
M  V30 15290 N 2051.82 -3.71582 5.24027 0
M  V30 15291 C 2051.99 -2.39715 5.48833 0
M  V30 15292 N 2050.96 -1.65863 5.12845 0
M  V30 15293 C 2050.08 -2.57637 4.5973 0
M  V30 15294 C 2048.81 -2.40278 4.01027 0
M  V30 15295 N 2048.25 -3.57711 3.59575 0
M  V30 15296 C 2048.85 -4.80324 3.70476 0
M  V30 15297 N 2050.03 -5.01121 4.23801 0
M  V30 15298 C 2050.6 -3.84757 4.66372 0
M  V30 15299 H 2054.08 -2.8955 5.86187 0
M  V30 15300 H 2055.56 -4.0121 7.36511 0
M  V30 15301 H 2053.87 -5.81019 8.37003 0
M  V30 15302 H 2053.68 -3.73517 9.52265 0
M  V30 15303 H 2052.05 -3.97163 8.80359 0
M  V30 15304 H 2052.89 -1.98804 5.94332 0
M  V30 15305 H 2054.69 -4.90891 4.01857 0
M  V30 15306 P 2056.55 -5.75688 6.64379 0
M  V30 15307 O 2057.97 -6.11849 7.01846 0
M  V30 15308 O 2056.19 -4.30744 6.56026 0
M  V30 15309 O 2056.22 -6.37042 5.19165 0
M  V30 15310 C 2056.06 -7.83578 5.16515 0
M  V30 15311 C 2056.6 -8.33398 3.83019 0
M  V30 15312 O 2055.55 -8.10074 3.01034 0
M  V30 15313 C 2057.82 -7.65514 3.2257 0
M  V30 15314 O 2058.56 -8.4329 2.32297 0
M  V30 15315 C 2057.15 -6.40075 2.62207 0
M  V30 15316 O 2057.95 -5.92589 1.53712 0
M  V30 15317 C 2055.82 -6.9454 2.18503 0
M  V30 15318 H 2055.85 -7.23063 1.12091 0
M  V30 15319 H 2057.03 -5.6025 3.37201 0
M  V30 15320 H 2058.52 -7.35707 4.02681 0
M  V30 15321 H 2056.82 -9.40912 3.9095 0
M  V30 15322 H 2056.63 -8.29056 5.99158 0
M  V30 15323 H 2055 -8.10073 5.25882 0
M  V30 15324 H 2057.64 -6.30324 0.726794 0
M  V30 15325 P 2059.5 -8.4349 2.47671 0
M  V30 15326 O 2060.92 -8.94167 2.5964 0
M  V30 15327 O 2059.14 -7.1704 3.19006 0
M  V30 15328 O 2059.17 -8.16596 0.923387 0
M  V30 15329 C 2059.01 -9.38437 0.108857 0
M  V30 15330 C 2059.55 -9.08175 -1.28353 0
M  V30 15331 O 2058.5 -8.44229 -1.84713 0
M  V30 15332 C 2060.77 -8.18386 -1.42505 0
M  V30 15333 O 2061.51 -8.3501 -2.60497 0
M  V30 15334 C 2060.1 -6.80225 -1.25468 0
M  V30 15335 O 2060.9 -5.81621 -1.91066 0
M  V30 15336 C 2058.77 -7.02416 -1.9168 0
M  V30 15337 H 2058.8 -6.6888 -2.96621 0
M  V30 15338 H 2059.98 -6.53617 -0.192223 0
M  V30 15339 H 2061.47 -8.36622 -0.589963 0
M  V30 15340 H 2059.77 -10.0291 -1.79807 0
M  V30 15341 H 2059.58 -10.2138 0.558219 0
M  V30 15342 H 2057.95 -9.6579 0.0444202 0
M  V30 15343 H 2060.59 -5.69556 -2.79637 0
M  V30 15344 P 2062.45 -8.4349 -2.47671 0
M  V30 15345 O 2063.87 -8.92593 -2.65 0
M  V30 15346 O 2062.09 -7.7568 -1.19296 0
M  V30 15347 O 2062.13 -7.36886 -3.63805 0
M  V30 15348 C 2061.97 -7.95349 -4.982 0
M  V30 15349 C 2062.51 -6.94612 -5.98974 0
M  V30 15350 O 2061.45 -6.10347 -6.11815 0
M  V30 15351 C 2063.72 -6.11426 -5.62335 0
M  V30 15352 O 2064.46 -5.6162 -6.70584 0
M  V30 15353 C 2063.05 -5.04409 -4.73308 0
M  V30 15354 O 2063.85 -3.85992 -4.75183 0
M  V30 15355 C 2061.72 -4.8728 -5.41006 0
M  V30 15356 H 2061.75 -4.02333 -6.11157 0
M  V30 15357 H 2062.93 -5.39466 -3.69543 0
M  V30 15358 H 2064.42 -6.71916 -5.01943 0
M  V30 15359 H 2062.72 -7.4649 -6.93477 0
M  V30 15360 H 2062.53 -8.89416 -5.05237 0
M  V30 15361 H 2060.9 -8.14876 -5.18409 0
M  V30 15362 H 2063.54 -3.27957 -5.4317 0
M  V30 15363 P 2065.4 -5.75688 -6.64379 0
M  V30 15364 O 2066.82 -6.07692 -7.0558 0
M  V30 15365 O 2065.04 -5.88047 -5.19722 0
M  V30 15366 O 2065.08 -4.2322 -7.04443 0
M  V30 15367 C 2064.91 -3.99785 -8.49201 0
M  V30 15368 C 2065.46 -2.60516 -8.79425 0
M  V30 15369 O 2064.4 -1.82663 -8.44573 0
M  V30 15370 C 2066.67 -2.10343 -8.03628 0
M  V30 15371 O 2067.41 -1.09919 -8.67766 0
M  V30 15372 C 2066.01 -1.68446 -6.70876 0
M  V30 15373 O 2066.8 -0.684109 -6.08265 0
M  V30 15374 C 2064.67 -1.17436 -7.18567 0
M  V30 15375 N 2063.62 -1.52699 -6.23988 0
M  V30 15376 C 2063.79 -2.578 -5.40574 0
M  V30 15377 N 2062.77 -2.78966 -4.61193 0
M  V30 15378 C 2061.88 -1.78725 -4.95769 0
M  V30 15379 C 2060.61 -1.45727 -4.44207 0
M  V30 15380 N 2060.02 -2.13994 -3.43613 0
M  V30 15381 N 2060.05 -0.374977 -5.05812 0
M  V30 15382 C 2060.65 0.345585 -6.05615 0
M  V30 15383 N 2061.83 0.0787651 -6.56253 0
M  V30 15384 C 2062.4 -1.00499 -5.96189 0
M  V30 15385 H 2064.7 -0.0804622 -7.31556 0
M  V30 15386 H 2065.88 -2.53396 -6.02698 0
M  V30 15387 H 2067.37 -2.93881 -7.85526 0
M  V30 15388 H 2065.67 -2.52078 -9.87225 0
M  V30 15389 H 2065.48 -4.75072 -9.05887 0
M  V30 15390 H 2063.85 -4.05244 -8.76668 0
M  V30 15391 H 2060.12 1.20098 -6.4532 0
M  V30 15392 H 2064.69 -3.18977 -5.3945 0
M  V30 15393 H 2059.09 -1.84983 -3.10004 0
M  V30 15394 H 2060.49 -2.9465 -3.00843 0
M  V30 15395 H 2066.49 0.177619 -6.34151 0
M  V30 15396 P 2068.35 -1.25109 -8.70152 0
M  V30 15397 O 2069.77 -1.29744 -9.22016 0
M  V30 15398 O 2067.99 -2.13714 -7.55141 0
M  V30 15399 O 2068.03 0.248149 -8.21425 0
M  V30 15400 C 2067.87 1.22779 -9.30434 0
M  V30 15401 C 2068.41 2.56293 -8.80664 0
M  V30 15402 O 2067.35 3.02979 -8.09349 0
M  V30 15403 C 2069.62 2.57523 -7.89775 0
M  V30 15404 O 2070.36 3.7668 -7.89438 0
M  V30 15405 C 2068.96 2.20997 -6.55446 0
M  V30 15406 O 2069.75 2.71895 -5.48509 0
M  V30 15407 C 2067.62 2.89693 -6.67988 0
M  V30 15408 H 2067.65 3.88793 -6.19859 0
M  V30 15409 H 2068.83 1.12046 -6.44229 0
M  V30 15410 H 2070.32 1.7746 -8.19711 0
M  V30 15411 H 2068.62 3.20706 -9.67112 0
M  V30 15412 H 2068.43 0.901032 -10.1892 0
M  V30 15413 H 2066.8 1.33049 -9.56592 0
M  V30 15414 H 2069.44 3.57847 -5.23962 0
M  V30 15415 P 2071.3 3.65191 -7.99657 0
M  V30 15416 O 2072.72 3.89332 -8.45794 0
M  V30 15417 O 2070.94 2.28472 -7.50807 0
M  V30 15418 O 2070.98 4.64972 -6.77611 0
M  V30 15419 C 2070.82 6.06319 -7.16352 0
M  V30 15420 C 2071.36 6.91731 -6.02299 0
M  V30 15421 O 2070.3 6.92449 -5.17064 0
M  V30 15422 C 2072.58 6.43627 -5.25174 0
M  V30 15423 O 2073.31 7.43686 -4.60469 0
M  V30 15424 C 2071.91 5.40275 -4.31916 0
M  V30 15425 O 2072.71 5.25279 -3.14438 0
M  V30 15426 C 2070.57 6.04847 -4.05327 0
M  V30 15427 H 2070.6 6.62195 -3.11261 0
M  V30 15428 H 2071.78 4.42556 -4.81383 0
M  V30 15429 H 2073.27 5.92458 -5.93643 0
M  V30 15430 H 2071.57 7.92655 -6.402 0
M  V30 15431 H 2071.38 6.26671 -8.0846 0
M  V30 15432 H 2069.75 6.29101 -7.32804 0
M  V30 15433 H 2072.39 5.84315 -2.47318 0
M  V30 15434 P 2074.25 7.39546 -4.75277 0
M  V30 15435 O 2075.67 7.84798 -5.01039 0
M  V30 15436 O 2073.89 5.9812 -5.08098 0
M  V30 15437 O 2073.93 7.57503 -3.1866 0
M  V30 15438 C 2073.77 8.97357 -2.74833 0
M  V30 15439 C 2074.31 9.07548 -1.32709 0
M  V30 15440 O 2073.25 8.62072 -0.606159 0
M  V30 15441 C 2075.53 8.25383 -0.938334 0
M  V30 15442 O 2076.26 8.74577 0.146954 0
M  V30 15443 C 2074.86 6.8802 -0.712559 0
M  V30 15444 O 2075.66 6.1189 0.194655 0
M  V30 15445 C 2073.52 7.27966 -0.139777 0
M  V30 15446 H 2073.55 7.25354 0.961601 0
M  V30 15447 H 2074.73 6.32557 -1.65702 0
M  V30 15448 H 2076.22 8.19355 -1.79097 0
M  V30 15449 H 2074.52 10.1294 -1.10029 0
M  V30 15450 H 2074.33 9.64276 -3.41316 0
M  V30 15451 H 2072.7 9.25417 -2.76357 0
M  V30 15452 H 2075.34 6.25267 1.07847 0
M  V30 15453 P 2077.2 8.791 1.78518e-11 0
M  V30 15454 O 2078.62 9.31096 0.027933 0
M  V30 15455 O 2076.84 7.77869 -1.04071 0
M  V30 15456 O 2076.88 8.09533 1.41463 0
M  V30 15457 C 2076.72 9.0349 2.53943 0
M  V30 15458 C 2077.26 8.35226 3.79016 0
M  V30 15459 O 2076.2 7.57992 4.15078 0
M  V30 15460 C 2078.48 7.45087 3.67298 0
M  V30 15461 O 2079.21 7.27796 4.85194 0
M  V30 15462 C 2077.81 6.17323 3.12027 0
M  V30 15463 O 2078.61 5.04231 3.47188 0
M  V30 15464 C 2076.47 6.19961 3.81809 0
M  V30 15465 H 2076.5 5.58218 4.73051 0
M  V30 15466 H 2077.69 6.21726 2.02589 0
M  V30 15467 H 2079.17 7.86112 2.9231 0
M  V30 15468 H 2077.48 9.11627 4.55076 0
M  V30 15469 H 2077.29 9.9573 2.34194 0
M  V30 15470 H 2075.66 9.2792 2.67832 0
M  V30 15471 H 2078.29 4.67702 4.28772 0
M  V30 15472 P 2080.15 7.39546 4.75277 0
M  V30 15473 O 2081.57 7.81777 5.05738 0
M  V30 15474 O 2079.79 7.1065 3.32998 0
M  V30 15475 O 2079.83 6.04542 5.56673 0
M  V30 15476 C 2079.67 6.22772 7.02095 0
M  V30 15477 C 2080.21 4.97725 7.70406 0
M  V30 15478 O 2079.15 4.13256 7.58987 0
M  V30 15479 C 2081.43 4.28231 7.11815 0
M  V30 15480 O 2082.16 3.49945 8.01648 0
M  V30 15481 C 2080.76 3.5063 5.96244 0
M  V30 15482 O 2081.56 2.36482 5.64681 0
M  V30 15483 C 2079.42 3.15122 6.56374 0
M  V30 15484 H 2079.45 2.13853 6.99751 0
M  V30 15485 H 2080.64 4.13501 5.06559 0
M  V30 15486 H 2082.12 5.03285 6.70911 0
M  V30 15487 H 2080.43 5.20877 8.75697 0
M  V30 15488 H 2080.24 7.11046 7.35349 0
M  V30 15489 H 2078.61 6.35815 7.26986 0
M  V30 15490 H 2081.24 1.61644 6.13565 0
M  V30 15491 P 2083.1 3.65191 7.99657 0
M  V30 15492 O 2084.52 3.8425 8.48115 0
M  V30 15493 O 2082.74 4.17805 6.64342 0
M  V30 15494 O 2082.78 2.07613 7.95143 0
M  V30 15495 C 2082.62 1.44328 9.27336 0
M  V30 15496 C 2083.16 0.0220036 9.17197 0
M  V30 15497 O 2082.1 -0.626867 8.61923 0
M  V30 15498 C 2084.38 -0.24586 8.30336 0
M  V30 15499 O 2085.12 -1.39011 8.63583 0
M  V30 15500 C 2083.71 -0.273849 6.91158 0
M  V30 15501 O 2084.51 -1.06348 6.02892 0
M  V30 15502 C 2082.37 -0.897649 7.22545 0
M  V30 15503 H 2082.4 -1.9841 7.04286 0
M  V30 15504 H 2083.59 0.739928 6.497 0
M  V30 15505 H 2085.07 0.60668 8.36503 0
M  V30 15506 H 2083.38 -0.352479 10.1829 0
M  V30 15507 H 2083.19 2.00611 10.0304 0
M  V30 15508 H 2081.56 1.41843 9.55327 0
M  V30 15509 H 2084.2 -1.95734 6.03555 0
M  V30 15510 P 2086.05 -1.25109 8.70152 0
M  V30 15511 O 2087.47 -1.35274 9.21221 0
M  V30 15512 O 2085.69 -0.0769065 7.84762 0
M  V30 15513 O 2085.73 -2.55232 7.81161 0
M  V30 15514 C 2085.57 -3.79939 8.58154 0
M  V30 15515 C 2086.11 -4.94023 7.72785 0
M  V30 15516 O 2085.05 -5.18726 6.91205 0
M  V30 15517 C 2087.33 -4.69597 6.85231 0
M  V30 15518 O 2088.07 -5.83832 6.51337 0
M  V30 15519 C 2086.66 -3.96706 5.66633 0
M  V30 15520 O 2087.46 -4.15414 4.49689 0
M  V30 15521 C 2085.32 -4.66153 5.59313 0
M  V30 15522 H 2085.35 -5.47679 4.85214 0
M  V30 15523 H 2086.54 -2.89008 5.86566 0
M  V30 15524 H 2088.02 -4.0121 7.36511 0
M  V30 15525 H 2086.33 -5.80182 8.37584 0
M  V30 15526 H 2086.14 -3.73517 9.52265 0
M  V30 15527 H 2084.51 -3.97163 8.80359 0
M  V30 15528 H 2087.15 -4.90969 4.01921 0
M  V30 15529 P 2089 -5.75688 6.64379 0
M  V30 15530 O 2090.43 -6.11849 7.01846 0
M  V30 15531 O 2088.64 -4.30744 6.56026 0
M  V30 15532 O 2088.68 -6.37042 5.19165 0
M  V30 15533 C 2088.52 -7.83578 5.16515 0
M  V30 15534 C 2089.06 -8.33398 3.83019 0
M  V30 15535 O 2088 -8.10074 3.01034 0
M  V30 15536 C 2090.28 -7.65514 3.2257 0
M  V30 15537 O 2091.02 -8.4329 2.32297 0
M  V30 15538 C 2089.61 -6.40075 2.62207 0
M  V30 15539 O 2090.41 -5.92589 1.53712 0
M  V30 15540 C 2088.27 -6.9454 2.18503 0
M  V30 15541 H 2088.3 -7.23063 1.12091 0
M  V30 15542 H 2089.49 -5.6025 3.37201 0
M  V30 15543 H 2090.97 -7.35707 4.02681 0
M  V30 15544 H 2089.28 -9.40912 3.9095 0
M  V30 15545 H 2089.09 -8.29056 5.99158 0
M  V30 15546 H 2087.46 -8.10073 5.25882 0
M  V30 15547 H 2090.1 -6.30324 0.726794 0
M  V30 15548 P 2091.95 -8.4349 2.47671 0
M  V30 15549 O 2093.38 -8.94263 2.59668 0
M  V30 15550 O 2091.59 -7.1704 3.19006 0
M  V30 15551 O 2091.63 -8.16596 0.923387 0
M  V30 15552 C 2091.47 -9.38537 0.108869 0
M  V30 15553 C 2092.01 -9.08175 -1.28353 0
M  V30 15554 O 2090.96 -8.44131 -1.84692 0
M  V30 15555 C 2093.23 -8.18386 -1.42505 0
M  V30 15556 O 2093.97 -8.3501 -2.60497 0
M  V30 15557 C 2092.56 -6.80225 -1.25468 0
M  V30 15558 O 2093.36 -5.81716 -1.90454 0
M  V30 15559 C 2091.22 -7.02416 -1.9168 0
M  V30 15560 N 2090.18 -6.31033 -1.20314 0
M  V30 15561 C 2090.35 -5.98817 0.0994088 0
M  V30 15562 N 2089.32 -5.35403 0.621694 0
M  V30 15563 C 2088.44 -5.25212 -0.43376 0
M  V30 15564 C 2087.17 -4.64602 -0.519722 0
M  V30 15565 N 2086.57 -4.01457 0.519136 0
M  V30 15566 N 2086.61 -4.7568 -1.76013 0
M  V30 15567 C 2087.21 -5.3653 -2.83017 0
M  V30 15568 N 2088.38 -5.93676 -2.79782 0
M  V30 15569 C 2088.96 -5.84061 -1.56249 0
M  V30 15570 H 2091.26 -6.68789 -2.9658 0
M  V30 15571 H 2092.44 -6.53498 -0.198729 0
M  V30 15572 H 2093.92 -8.36622 -0.589963 0
M  V30 15573 H 2092.23 -10.0273 -1.8081 0
M  V30 15574 H 2092.04 -10.2138 0.558219 0
M  V30 15575 H 2090.41 -9.6579 0.0444202 0
M  V30 15576 H 2086.67 -5.37113 -3.77321 0
M  V30 15577 H 2091.25 -6.23209 0.660562 0
M  V30 15578 H 2085.64 -3.58834 0.394862 0
M  V30 15579 H 2087.05 -3.96059 1.43048 0
M  V30 15580 H 2093.05 -5.69466 -2.79593 0
M  V30 15581 P 2094.9 -8.4349 -2.47671 0
M  V30 15582 O 2096.33 -8.92593 -2.65 0
M  V30 15583 O 2094.54 -7.7568 -1.19296 0
M  V30 15584 O 2094.58 -7.36886 -3.63805 0
M  V30 15585 C 2094.42 -7.95349 -4.982 0
M  V30 15586 C 2094.96 -6.94612 -5.98974 0
M  V30 15587 O 2093.91 -6.10347 -6.11815 0
M  V30 15588 C 2096.18 -6.11426 -5.62335 0
M  V30 15589 O 2096.92 -5.6162 -6.70584 0
M  V30 15590 C 2095.51 -5.04409 -4.73308 0
M  V30 15591 O 2096.31 -3.85992 -4.75183 0
M  V30 15592 C 2094.17 -4.8728 -5.41006 0
M  V30 15593 H 2094.21 -4.02333 -6.11157 0
M  V30 15594 H 2095.39 -5.39466 -3.69543 0
M  V30 15595 H 2096.87 -6.71916 -5.01943 0
M  V30 15596 H 2095.18 -7.4649 -6.93477 0
M  V30 15597 H 2094.99 -8.89416 -5.05237 0
M  V30 15598 H 2093.36 -8.14876 -5.18409 0
M  V30 15599 H 2096 -3.27957 -5.4317 0
M  V30 15600 P 2097.86 -5.75688 -6.64379 0
M  V30 15601 O 2099.28 -6.07758 -7.05656 0
M  V30 15602 O 2097.5 -5.88047 -5.19722 0
M  V30 15603 O 2097.53 -4.2322 -7.04443 0
M  V30 15604 C 2097.37 -3.99743 -8.4911 0
M  V30 15605 C 2097.91 -2.60487 -8.79329 0
M  V30 15606 O 2096.86 -1.82684 -8.4467 0
M  V30 15607 C 2099.13 -2.10343 -8.03628 0
M  V30 15608 O 2099.87 -1.09919 -8.67766 0
M  V30 15609 C 2098.46 -1.68446 -6.70876 0
M  V30 15610 O 2099.26 -0.678026 -6.08333 0
M  V30 15611 C 2097.12 -1.17436 -7.18567 0
M  V30 15612 N 2096.08 -1.52699 -6.23988 0
M  V30 15613 C 2096.14 -2.68084 -5.57824 0
M  V30 15614 N 2095.1 -2.8189 -4.75643 0
M  V30 15615 C 2094.36 -1.72373 -4.95155 0
M  V30 15616 C 2093.06 -1.37653 -4.44996 0
M  V30 15617 O 2092.33 -2.02239 -3.68445 0
M  V30 15618 N 2092.63 -0.17675 -4.90782 0
M  V30 15619 C 2093.38 0.645036 -5.78716 0
M  V30 15620 N 2092.78 1.84214 -6.10618 0
M  V30 15621 N 2094.53 0.321732 -6.30279 0
M  V30 15622 C 2094.99 -0.87502 -5.86913 0
M  V30 15623 H 2097.16 -0.0804732 -7.31656 0
M  V30 15624 H 2098.34 -2.53998 -6.02444 0
M  V30 15625 H 2099.82 -2.93095 -7.8582 0
M  V30 15626 H 2098.13 -2.53065 -9.86973 0
M  V30 15627 H 2097.94 -4.75072 -9.05887 0
M  V30 15628 H 2096.31 -4.05244 -8.76668 0
M  V30 15629 H 2091.73 0.152143 -4.60849 0
M  V30 15630 H 2096.94 -3.41852 -5.69006 0
M  V30 15631 H 2091.87 2.08538 -5.69521 0
M  V30 15632 H 2093.25 2.4895 -6.75698 0
M  V30 15633 H 2098.95 0.177619 -6.34151 0
M  V30 15634 P 2100.81 -1.25109 -8.70152 0
M  V30 15635 O 2102.23 -1.29744 -9.22016 0
M  V30 15636 O 2100.45 -2.13714 -7.55141 0
M  V30 15637 O 2100.48 0.248149 -8.21425 0
M  V30 15638 C 2100.32 1.22779 -9.30434 0
M  V30 15639 C 2100.86 2.56293 -8.80664 0
M  V30 15640 O 2099.81 3.02979 -8.09349 0
M  V30 15641 C 2102.08 2.57523 -7.89775 0
M  V30 15642 O 2102.82 3.7668 -7.89438 0
M  V30 15643 C 2101.41 2.20997 -6.55446 0
M  V30 15644 O 2102.21 2.71895 -5.48509 0
M  V30 15645 C 2100.07 2.89693 -6.67988 0
M  V30 15646 H 2100.11 3.88793 -6.19859 0
M  V30 15647 H 2101.29 1.12046 -6.44229 0
M  V30 15648 H 2102.77 1.7746 -8.19711 0
M  V30 15649 H 2101.08 3.20706 -9.67112 0
M  V30 15650 H 2100.89 0.901032 -10.1892 0
M  V30 15651 H 2099.26 1.33049 -9.56592 0
M  V30 15652 H 2101.9 3.57847 -5.23962 0
M  V30 15653 P 2103.76 3.65191 -7.99657 0
M  V30 15654 O 2105.18 3.89332 -8.45794 0
M  V30 15655 O 2103.4 2.28472 -7.50807 0
M  V30 15656 O 2103.43 4.64972 -6.77611 0
M  V30 15657 C 2103.27 6.06319 -7.16352 0
M  V30 15658 C 2103.81 6.91731 -6.02299 0
M  V30 15659 O 2102.76 6.92449 -5.17064 0
M  V30 15660 C 2105.03 6.43627 -5.25174 0
M  V30 15661 O 2105.77 7.43686 -4.60469 0
M  V30 15662 C 2104.36 5.40275 -4.31916 0
M  V30 15663 O 2105.16 5.25279 -3.14438 0
M  V30 15664 C 2103.03 6.04847 -4.05327 0
M  V30 15665 H 2103.06 6.62195 -3.11261 0
M  V30 15666 H 2104.24 4.42556 -4.81383 0
M  V30 15667 H 2105.72 5.92458 -5.93643 0
M  V30 15668 H 2104.03 7.92655 -6.402 0
M  V30 15669 H 2103.84 6.26671 -8.0846 0
M  V30 15670 H 2102.21 6.29101 -7.32804 0
M  V30 15671 H 2104.85 5.84315 -2.47318 0
M  V30 15672 P 2106.71 7.39546 -4.75277 0
M  V30 15673 O 2108.13 7.84798 -5.01039 0
M  V30 15674 O 2106.35 5.9812 -5.08098 0
M  V30 15675 O 2106.38 7.57503 -3.1866 0
M  V30 15676 C 2106.22 8.97357 -2.74833 0
M  V30 15677 C 2106.76 9.07548 -1.32709 0
M  V30 15678 O 2105.71 8.62072 -0.606159 0
M  V30 15679 C 2107.98 8.25383 -0.938334 0
M  V30 15680 O 2108.72 8.74577 0.146954 0
M  V30 15681 C 2107.31 6.8802 -0.712559 0
M  V30 15682 O 2108.11 6.1189 0.194655 0
M  V30 15683 C 2105.98 7.27966 -0.139777 0
M  V30 15684 H 2106.01 7.25354 0.961601 0
M  V30 15685 H 2107.19 6.32557 -1.65702 0
M  V30 15686 H 2108.67 8.19355 -1.79097 0
M  V30 15687 H 2106.98 10.1294 -1.10029 0
M  V30 15688 H 2106.79 9.64276 -3.41316 0
M  V30 15689 H 2105.16 9.25417 -2.76357 0
M  V30 15690 H 2107.8 6.25267 1.07847 0
M  V30 15691 P 2109.66 8.791 1.81619e-11 0
M  V30 15692 O 2111.08 9.31096 0.027933 0
M  V30 15693 O 2109.3 7.77869 -1.04071 0
M  V30 15694 O 2109.33 8.09533 1.41463 0
M  V30 15695 C 2109.17 9.0349 2.53943 0
M  V30 15696 C 2109.71 8.35226 3.79016 0
M  V30 15697 O 2108.66 7.57992 4.15078 0
M  V30 15698 C 2110.93 7.45087 3.67298 0
M  V30 15699 O 2111.67 7.27796 4.85194 0
M  V30 15700 C 2110.26 6.17323 3.12027 0
M  V30 15701 O 2111.06 5.04231 3.47188 0
M  V30 15702 C 2108.93 6.19961 3.81809 0
M  V30 15703 H 2108.96 5.58218 4.73051 0
M  V30 15704 H 2110.14 6.21726 2.02589 0
M  V30 15705 H 2111.63 7.86112 2.9231 0
M  V30 15706 H 2109.93 9.11627 4.55076 0
M  V30 15707 H 2109.74 9.9573 2.34194 0
M  V30 15708 H 2108.11 9.2792 2.67832 0
M  V30 15709 H 2110.75 4.67702 4.28772 0
M  V30 15710 P 2112.61 7.39546 4.75277 0
M  V30 15711 O 2114.03 7.81777 5.05738 0
M  V30 15712 O 2112.25 7.1065 3.32998 0
M  V30 15713 O 2112.29 6.04542 5.56673 0
M  V30 15714 C 2112.13 6.22772 7.02095 0
M  V30 15715 C 2112.67 4.97725 7.70406 0
M  V30 15716 O 2111.61 4.13256 7.58987 0
M  V30 15717 C 2113.88 4.28231 7.11815 0
M  V30 15718 O 2114.62 3.49945 8.01648 0
M  V30 15719 C 2113.21 3.5063 5.96244 0
M  V30 15720 O 2114.01 2.36482 5.64681 0
M  V30 15721 C 2111.88 3.15122 6.56374 0
M  V30 15722 H 2111.91 2.13853 6.99751 0
M  V30 15723 H 2113.09 4.13501 5.06559 0
M  V30 15724 H 2114.58 5.03285 6.70911 0
M  V30 15725 H 2112.88 5.20877 8.75697 0
M  V30 15726 H 2112.69 7.11046 7.35349 0
M  V30 15727 H 2111.06 6.35815 7.26986 0
M  V30 15728 H 2113.7 1.61644 6.13565 0
M  V30 15729 P 2115.56 3.65191 7.99657 0
M  V30 15730 O 2116.98 3.84292 8.48206 0
M  V30 15731 O 2115.2 4.17805 6.64342 0
M  V30 15732 O 2115.24 2.07613 7.95143 0
M  V30 15733 C 2115.07 1.44344 9.27435 0
M  V30 15734 C 2115.62 0.0220036 9.17197 0
M  V30 15735 O 2114.56 -0.626794 8.61824 0
M  V30 15736 C 2116.83 -0.24586 8.30336 0
M  V30 15737 O 2117.57 -1.39011 8.63583 0
M  V30 15738 C 2116.17 -0.273849 6.91158 0
M  V30 15739 O 2116.96 -1.05728 6.029 0
M  V30 15740 C 2114.83 -0.897649 7.22545 0
M  V30 15741 N 2113.78 -0.292839 6.41732 0
M  V30 15742 C 2113.95 0.950603 5.91308 0
M  V30 15743 N 2112.93 1.37732 5.21105 0
M  V30 15744 C 2112.04 0.318109 5.26039 0
M  V30 15745 C 2110.77 0.146766 4.6727 0
M  V30 15746 N 2110.18 1.08519 3.89983 0
M  V30 15747 N 2110.21 -1.06525 4.95887 0
M  V30 15748 C 2110.81 -2.0378 5.71347 0
M  V30 15749 N 2111.99 -1.92445 6.27451 0
M  V30 15750 C 2112.56 -0.715382 6.00353 0
M  V30 15751 H 2114.86 -1.98383 7.04189 0
M  V30 15752 H 2116.04 0.733318 6.49674 0
M  V30 15753 H 2117.53 0.60668 8.36503 0
M  V30 15754 H 2115.83 -0.362662 10.1825 0
M  V30 15755 H 2115.64 2.00611 10.0304 0
M  V30 15756 H 2114.01 1.41843 9.55327 0
M  V30 15757 H 2110.28 -2.97041 5.85344 0
M  V30 15758 H 2114.85 1.54076 6.07465 0
M  V30 15759 H 2109.25 0.901517 3.49562 0
M  V30 15760 H 2110.65 1.97957 3.71669 0
M  V30 15761 H 2116.65 -1.95704 6.0346 0
M  V30 15762 P 2118.51 -1.25109 8.70152 0
M  V30 15763 O 2119.93 -1.35288 9.2132 0
M  V30 15764 O 2118.15 -0.0769065 7.84762 0
M  V30 15765 O 2118.19 -2.55232 7.81161 0
M  V30 15766 C 2118.03 -3.79979 8.58246 0
M  V30 15767 C 2118.57 -4.94023 7.72785 0
M  V30 15768 O 2117.51 -5.18666 6.91125 0
M  V30 15769 C 2119.78 -4.69597 6.85231 0
M  V30 15770 O 2120.52 -5.83832 6.51337 0
M  V30 15771 C 2119.12 -3.96706 5.66633 0
M  V30 15772 O 2119.91 -4.14896 4.5003 0
M  V30 15773 C 2117.78 -4.66153 5.59313 0
M  V30 15774 N 2116.74 -3.71582 5.24027 0
M  V30 15775 C 2116.9 -2.39715 5.48833 0
M  V30 15776 N 2115.88 -1.65863 5.12845 0
M  V30 15777 C 2114.99 -2.57637 4.5973 0
M  V30 15778 C 2113.73 -2.40278 4.01027 0
M  V30 15779 N 2113.13 -1.19549 3.86744 0
M  V30 15780 N 2113.16 -3.57711 3.59575 0
M  V30 15781 C 2113.76 -4.80324 3.70476 0
M  V30 15782 N 2114.94 -5.01121 4.23801 0
M  V30 15783 C 2115.51 -3.84757 4.66372 0
M  V30 15784 H 2117.81 -5.47604 4.85148 0
M  V30 15785 H 2118.99 -2.8955 5.86187 0
M  V30 15786 H 2120.48 -4.0121 7.36511 0
M  V30 15787 H 2118.78 -5.81019 8.37003 0
M  V30 15788 H 2118.59 -3.73517 9.52265 0
M  V30 15789 H 2116.96 -3.97163 8.80359 0
M  V30 15790 H 2113.23 -5.66348 3.3183 0
M  V30 15791 H 2117.8 -1.98804 5.94332 0
M  V30 15792 H 2112.2 -1.13147 3.4281 0
M  V30 15793 H 2113.6 -0.344074 4.19692 0
M  V30 15794 H 2119.6 -4.90891 4.01857 0
M  V30 15795 P 2121.46 -5.75688 6.64379 0
M  V30 15796 O 2122.88 -6.11915 7.01921 0
M  V30 15797 O 2121.1 -4.30744 6.56026 0
M  V30 15798 O 2121.14 -6.37042 5.19165 0
M  V30 15799 C 2120.98 -7.83662 5.1657 0
M  V30 15800 C 2121.52 -8.33398 3.83019 0
M  V30 15801 O 2120.46 -8.0998 3.00999 0
M  V30 15802 C 2122.73 -7.65514 3.2257 0
M  V30 15803 O 2123.47 -8.4329 2.32297 0
M  V30 15804 C 2122.07 -6.40075 2.62207 0
M  V30 15805 O 2122.86 -5.92338 1.5428 0
M  V30 15806 C 2120.73 -6.9454 2.18503 0
M  V30 15807 N 2119.69 -5.95905 2.39948 0
M  V30 15808 C 2119.85 -4.98383 3.32108 0
M  V30 15809 N 2118.83 -4.16798 3.41761 0
M  V30 15810 C 2117.94 -4.65287 2.47461 0
M  V30 15811 C 2116.68 -4.18946 2.07461 0
M  V30 15812 N 2116.11 -4.95327 1.09101 0
M  V30 15813 C 2116.71 -6.04369 0.519812 0
M  V30 15814 N 2117.89 -6.50694 0.855982 0
M  V30 15815 C 2118.46 -5.75818 1.84322 0
M  V30 15816 H 2121.94 -5.60502 3.36589 0
M  V30 15817 H 2123.43 -7.35707 4.02681 0
M  V30 15818 H 2121.73 -9.41302 3.90009 0
M  V30 15819 H 2121.54 -8.29056 5.99158 0
M  V30 15820 H 2119.91 -8.10073 5.25882 0
M  V30 15821 H 2120.75 -4.88564 3.92502 0
M  V30 15822 H 2122.55 -6.30224 0.72668 0
M  V30 15823 P 2124.41 -8.4349 2.47671 0
M  V30 15824 O 2125.83 -8.94167 2.5964 0
M  V30 15825 O 2124.05 -7.1704 3.19006 0
M  V30 15826 O 2124.09 -8.16596 0.923387 0
M  V30 15827 C 2123.93 -9.38437 0.108857 0
M  V30 15828 C 2124.47 -9.08175 -1.28353 0
M  V30 15829 O 2123.41 -8.44229 -1.84713 0
M  V30 15830 C 2125.69 -8.18386 -1.42505 0
M  V30 15831 O 2126.42 -8.3501 -2.60497 0
M  V30 15832 C 2125.02 -6.80225 -1.25468 0
M  V30 15833 O 2125.82 -5.81621 -1.91066 0
M  V30 15834 C 2123.68 -7.02416 -1.9168 0
M  V30 15835 H 2123.71 -6.6888 -2.96621 0
M  V30 15836 H 2124.89 -6.53617 -0.192223 0
M  V30 15837 H 2126.38 -8.36622 -0.589963 0
M  V30 15838 H 2124.68 -10.0291 -1.79807 0
M  V30 15839 H 2124.49 -10.2138 0.558219 0
M  V30 15840 H 2122.86 -9.6579 0.0444202 0
M  V30 15841 H 2125.5 -5.69556 -2.79637 0
M  V30 15842 P 2127.36 -8.4349 -2.47671 0
M  V30 15843 O 2128.78 -8.92593 -2.65 0
M  V30 15844 O 2127 -7.7568 -1.19296 0
M  V30 15845 O 2127.04 -7.36886 -3.63805 0
M  V30 15846 C 2126.88 -7.95349 -4.982 0
M  V30 15847 C 2127.42 -6.94612 -5.98974 0
M  V30 15848 O 2126.36 -6.10347 -6.11815 0
M  V30 15849 C 2128.64 -6.11426 -5.62335 0
M  V30 15850 O 2129.37 -5.6162 -6.70584 0
M  V30 15851 C 2127.97 -5.04409 -4.73308 0
M  V30 15852 O 2128.77 -3.85992 -4.75183 0
M  V30 15853 C 2126.63 -4.8728 -5.41006 0
M  V30 15854 H 2126.66 -4.02333 -6.11157 0
M  V30 15855 H 2127.84 -5.39466 -3.69543 0
M  V30 15856 H 2129.33 -6.71916 -5.01943 0
M  V30 15857 H 2127.63 -7.4649 -6.93477 0
M  V30 15858 H 2127.44 -8.89416 -5.05237 0
M  V30 15859 H 2125.81 -8.14876 -5.18409 0
M  V30 15860 H 2128.45 -3.27957 -5.4317 0
M  V30 15861 P 2130.31 -5.75688 -6.64379 0
M  V30 15862 O 2131.73 -6.07627 -7.05504 0
M  V30 15863 O 2129.95 -5.88047 -5.19722 0
M  V30 15864 O 2129.99 -4.2322 -7.04443 0
M  V30 15865 C 2129.83 -3.99743 -8.4911 0
M  V30 15866 C 2130.37 -2.60516 -8.79425 0
M  V30 15867 O 2129.31 -1.82684 -8.4467 0
M  V30 15868 C 2131.59 -2.10343 -8.03628 0
M  V30 15869 O 2132.32 -1.09919 -8.67766 0
M  V30 15870 C 2130.92 -1.68446 -6.70876 0
M  V30 15871 O 2131.72 -0.678137 -6.08433 0
M  V30 15872 C 2129.58 -1.17436 -7.18567 0
M  V30 15873 H 2129.61 -0.0804732 -7.31656 0
M  V30 15874 H 2130.8 -2.54037 -6.02537 0
M  V30 15875 H 2132.28 -2.93881 -7.85526 0
M  V30 15876 H 2130.59 -2.53065 -9.86973 0
M  V30 15877 H 2130.4 -4.75072 -9.05887 0
M  V30 15878 H 2128.77 -4.05244 -8.76668 0
M  V30 15879 H 2131.4 0.177647 -6.34251 0
M  V30 15880 P 2133.26 -1.25109 -8.70152 0
M  V30 15881 O 2134.68 -1.29744 -9.22016 0
M  V30 15882 O 2132.9 -2.13714 -7.55141 0
M  V30 15883 O 2132.94 0.248149 -8.21425 0
M  V30 15884 C 2132.78 1.22779 -9.30434 0
M  V30 15885 C 2133.32 2.56293 -8.80664 0
M  V30 15886 O 2132.26 3.02979 -8.09349 0
M  V30 15887 C 2134.54 2.57523 -7.89775 0
M  V30 15888 O 2135.28 3.7668 -7.89438 0
M  V30 15889 C 2133.87 2.20997 -6.55446 0
M  V30 15890 O 2134.67 2.71895 -5.48509 0
M  V30 15891 C 2132.53 2.89693 -6.67988 0
M  V30 15892 H 2132.56 3.88793 -6.19859 0
M  V30 15893 H 2133.75 1.12046 -6.44229 0
M  V30 15894 H 2135.23 1.7746 -8.19711 0
M  V30 15895 H 2133.54 3.20706 -9.67112 0
M  V30 15896 H 2133.35 0.901032 -10.1892 0
M  V30 15897 H 2131.72 1.33049 -9.56592 0
M  V30 15898 H 2134.36 3.57847 -5.23962 0
M  V30 15899 P 2136.21 3.65191 -7.99657 0
M  V30 15900 O 2137.63 3.89332 -8.45794 0
M  V30 15901 O 2135.85 2.28472 -7.50807 0
M  V30 15902 O 2135.89 4.64972 -6.77611 0
M  V30 15903 C 2135.73 6.06319 -7.16352 0
M  V30 15904 C 2136.27 6.91731 -6.02299 0
M  V30 15905 O 2135.21 6.92449 -5.17064 0
M  V30 15906 C 2137.49 6.43627 -5.25174 0
M  V30 15907 O 2138.23 7.43686 -4.60469 0
M  V30 15908 C 2136.82 5.40275 -4.31916 0
M  V30 15909 O 2137.62 5.25279 -3.14438 0
M  V30 15910 C 2135.48 6.04847 -4.05327 0
M  V30 15911 H 2135.51 6.62195 -3.11261 0
M  V30 15912 H 2136.7 4.42556 -4.81383 0
M  V30 15913 H 2138.18 5.92458 -5.93643 0
M  V30 15914 H 2136.49 7.92655 -6.402 0
M  V30 15915 H 2136.3 6.26671 -8.0846 0
M  V30 15916 H 2134.67 6.29101 -7.32804 0
M  V30 15917 H 2137.31 5.84315 -2.47318 0
M  V30 15918 P 2139.16 7.39546 -4.75277 0
M  V30 15919 O 2140.59 7.84798 -5.01039 0
M  V30 15920 O 2138.8 5.9812 -5.08098 0
M  V30 15921 O 2138.84 7.57503 -3.1866 0
M  V30 15922 C 2138.68 8.97357 -2.74833 0
M  V30 15923 C 2139.22 9.07548 -1.32709 0
M  V30 15924 O 2138.16 8.62072 -0.606159 0
M  V30 15925 C 2140.44 8.25383 -0.938334 0
M  V30 15926 O 2141.18 8.74577 0.146954 0
M  V30 15927 C 2139.77 6.8802 -0.712559 0
M  V30 15928 O 2140.57 6.1189 0.194655 0
M  V30 15929 C 2138.43 7.27966 -0.139777 0
M  V30 15930 H 2138.46 7.25354 0.961601 0
M  V30 15931 H 2139.65 6.32557 -1.65702 0
M  V30 15932 H 2141.13 8.19355 -1.79097 0
M  V30 15933 H 2139.44 10.1294 -1.10029 0
M  V30 15934 H 2139.25 9.64276 -3.41316 0
M  V30 15935 H 2137.62 9.25417 -2.76357 0
M  V30 15936 H 2140.26 6.25267 1.07847 0
M  V30 15937 P 2142.11 8.791 1.84721e-11 0
M  V30 15938 O 2143.53 9.31196 0.027936 0
M  V30 15939 O 2141.75 7.77869 -1.04071 0
M  V30 15940 O 2141.79 8.09533 1.41463 0
M  V30 15941 C 2141.63 9.03587 2.5397 0
M  V30 15942 C 2142.17 8.35226 3.79016 0
M  V30 15943 O 2141.12 7.57904 4.1503 0
M  V30 15944 C 2143.39 7.45087 3.67298 0
M  V30 15945 O 2144.13 7.27796 4.85194 0
M  V30 15946 C 2142.72 6.17323 3.12027 0
M  V30 15947 O 2143.52 5.04496 3.46627 0
M  V30 15948 C 2141.38 6.19961 3.81809 0
M  V30 15949 N 2140.34 5.71575 2.93223 0
M  V30 15950 C 2140.51 5.77362 1.59168 0
M  V30 15951 N 2139.48 5.3123 0.911893 0
M  V30 15952 C 2138.6 4.91717 1.89588 0
M  V30 15953 C 2137.33 4.3114 1.8076 0
M  V30 15954 N 2136.76 4.06823 3.02898 0
M  V30 15955 C 2137.37 4.35062 4.22711 0
M  V30 15956 N 2138.54 4.90805 4.35707 0
M  V30 15957 C 2139.12 5.16382 3.14469 0
M  V30 15958 H 2142.6 6.21428 2.0318 0
M  V30 15959 H 2144.08 7.86112 2.9231 0
M  V30 15960 H 2142.39 9.11171 4.55987 0
M  V30 15961 H 2142.2 9.9573 2.34194 0
M  V30 15962 H 2140.57 9.2792 2.67832 0
M  V30 15963 H 2141.41 6.16575 1.12198 0
M  V30 15964 H 2143.21 4.67628 4.28704 0
M  V30 15965 P 2145.06 7.39546 4.75277 0
M  V30 15966 O 2146.49 7.81777 5.05738 0
M  V30 15967 O 2144.7 7.1065 3.32998 0
M  V30 15968 O 2144.74 6.04542 5.56673 0
M  V30 15969 C 2144.58 6.22772 7.02095 0
M  V30 15970 C 2145.12 4.97725 7.70406 0
M  V30 15971 O 2144.07 4.13256 7.58987 0
M  V30 15972 C 2146.34 4.28231 7.11815 0
M  V30 15973 O 2147.08 3.49945 8.01648 0
M  V30 15974 C 2145.67 3.5063 5.96244 0
M  V30 15975 O 2146.47 2.36482 5.64681 0
M  V30 15976 C 2144.33 3.15122 6.56374 0
M  V30 15977 H 2144.37 2.13853 6.99751 0
M  V30 15978 H 2145.55 4.13501 5.06559 0
M  V30 15979 H 2147.03 5.03285 6.70911 0
M  V30 15980 H 2145.34 5.20877 8.75697 0
M  V30 15981 H 2145.15 7.11046 7.35349 0
M  V30 15982 H 2143.52 6.35815 7.26986 0
M  V30 15983 H 2146.16 1.61644 6.13565 0
M  V30 15984 P 2148.01 3.65191 7.99657 0
M  V30 15985 O 2149.44 3.8425 8.48115 0
M  V30 15986 O 2147.65 4.17805 6.64342 0
M  V30 15987 O 2147.69 2.07613 7.95143 0
M  V30 15988 C 2147.53 1.44328 9.27336 0
M  V30 15989 C 2148.07 0.0220036 9.17197 0
M  V30 15990 O 2147.02 -0.626867 8.61923 0
M  V30 15991 C 2149.29 -0.24586 8.30336 0
M  V30 15992 O 2150.03 -1.39011 8.63583 0
M  V30 15993 C 2148.62 -0.273849 6.91158 0
M  V30 15994 O 2149.42 -1.06348 6.02892 0
M  V30 15995 C 2147.28 -0.897649 7.22545 0
M  V30 15996 H 2147.32 -1.9841 7.04286 0
M  V30 15997 H 2148.5 0.739928 6.497 0
M  V30 15998 H 2149.98 0.60668 8.36503 0
M  V30 15999 H 2148.29 -0.352479 10.1829 0
M  V30 16000 H 2148.1 2.00611 10.0304 0
M  V30 16001 H 2146.47 1.41843 9.55327 0
M  V30 16002 H 2149.11 -1.95734 6.03555 0
M  V30 16003 P 2150.97 -1.25109 8.70152 0
M  V30 16004 O 2152.39 -1.35274 9.21221 0
M  V30 16005 O 2150.61 -0.0769065 7.84762 0
M  V30 16006 O 2150.64 -2.55232 7.81161 0
M  V30 16007 C 2150.48 -3.79939 8.58154 0
M  V30 16008 C 2151.02 -4.94023 7.72785 0
M  V30 16009 O 2149.97 -5.18726 6.91205 0
M  V30 16010 C 2152.24 -4.69597 6.85231 0
M  V30 16011 O 2152.98 -5.83832 6.51337 0
M  V30 16012 C 2151.57 -3.96706 5.66633 0
M  V30 16013 O 2152.37 -4.15414 4.49689 0
M  V30 16014 C 2150.23 -4.66153 5.59313 0
M  V30 16015 H 2150.27 -5.47679 4.85214 0
M  V30 16016 H 2151.45 -2.89008 5.86566 0
M  V30 16017 H 2152.93 -4.0121 7.36511 0
M  V30 16018 H 2151.24 -5.80182 8.37584 0
M  V30 16019 H 2151.05 -3.73517 9.52265 0
M  V30 16020 H 2149.42 -3.97163 8.80359 0
M  V30 16021 H 2152.06 -4.90969 4.01921 0
M  V30 16022 P 2153.92 -5.75688 6.64379 0
M  V30 16023 O 2155.34 -6.11915 7.01921 0
M  V30 16024 O 2153.56 -4.30744 6.56026 0
M  V30 16025 O 2153.59 -6.37042 5.19165 0
M  V30 16026 C 2153.43 -7.83662 5.1657 0
M  V30 16027 C 2153.97 -8.33398 3.83019 0
M  V30 16028 O 2152.92 -8.0998 3.00999 0
M  V30 16029 C 2155.19 -7.65514 3.2257 0
M  V30 16030 O 2155.93 -8.4329 2.32297 0
M  V30 16031 C 2154.52 -6.40075 2.62207 0
M  V30 16032 O 2155.32 -5.92338 1.5428 0
M  V30 16033 C 2153.19 -6.9454 2.18503 0
M  V30 16034 N 2152.14 -5.95905 2.39948 0
M  V30 16035 C 2152.31 -4.98383 3.32108 0
M  V30 16036 N 2151.28 -4.16798 3.41761 0
M  V30 16037 C 2150.4 -4.65287 2.47461 0
M  V30 16038 C 2149.13 -4.18946 2.07461 0
M  V30 16039 N 2148.57 -4.95327 1.09101 0
M  V30 16040 C 2149.17 -6.04369 0.519812 0
M  V30 16041 N 2150.35 -6.50694 0.855982 0
M  V30 16042 C 2150.92 -5.75818 1.84322 0
M  V30 16043 H 2154.4 -5.60502 3.36589 0
M  V30 16044 H 2155.88 -7.35707 4.02681 0
M  V30 16045 H 2154.19 -9.41302 3.90009 0
M  V30 16046 H 2154 -8.29056 5.99158 0
M  V30 16047 H 2152.37 -8.10073 5.25882 0
M  V30 16048 H 2153.21 -4.88564 3.92502 0
M  V30 16049 H 2155.01 -6.30224 0.72668 0
M  V30 16050 P 2156.87 -8.4349 2.47671 0
M  V30 16051 O 2158.29 -8.94167 2.5964 0
M  V30 16052 O 2156.51 -7.1704 3.19006 0
M  V30 16053 O 2156.54 -8.16596 0.923387 0
M  V30 16054 C 2156.38 -9.38437 0.108857 0
M  V30 16055 C 2156.92 -9.08175 -1.28353 0
M  V30 16056 O 2155.87 -8.44229 -1.84713 0
M  V30 16057 C 2158.14 -8.18386 -1.42505 0
M  V30 16058 O 2158.88 -8.3501 -2.60497 0
M  V30 16059 C 2157.47 -6.80225 -1.25468 0
M  V30 16060 O 2158.27 -5.81621 -1.91066 0
M  V30 16061 C 2156.14 -7.02416 -1.9168 0
M  V30 16062 H 2156.17 -6.6888 -2.96621 0
M  V30 16063 H 2157.35 -6.53617 -0.192223 0
M  V30 16064 H 2158.83 -8.36622 -0.589963 0
M  V30 16065 H 2157.14 -10.0291 -1.79807 0
M  V30 16066 H 2156.95 -10.2138 0.558219 0
M  V30 16067 H 2155.32 -9.6579 0.0444202 0
M  V30 16068 H 2157.96 -5.69556 -2.79637 0
M  V30 16069 P 2159.82 -8.4349 -2.47671 0
M  V30 16070 O 2161.24 -8.92593 -2.65 0
M  V30 16071 O 2159.46 -7.7568 -1.19296 0
M  V30 16072 O 2159.49 -7.36886 -3.63805 0
M  V30 16073 C 2159.33 -7.95349 -4.982 0
M  V30 16074 C 2159.87 -6.94612 -5.98974 0
M  V30 16075 O 2158.82 -6.10347 -6.11815 0
M  V30 16076 C 2161.09 -6.11426 -5.62335 0
M  V30 16077 O 2161.83 -5.6162 -6.70584 0
M  V30 16078 C 2160.42 -5.04409 -4.73308 0
M  V30 16079 O 2161.22 -3.85992 -4.75183 0
M  V30 16080 C 2159.09 -4.8728 -5.41006 0
M  V30 16081 H 2159.12 -4.02333 -6.11157 0
M  V30 16082 H 2160.3 -5.39466 -3.69543 0
M  V30 16083 H 2161.79 -6.71916 -5.01943 0
M  V30 16084 H 2160.09 -7.4649 -6.93477 0
M  V30 16085 H 2159.9 -8.89416 -5.05237 0
M  V30 16086 H 2158.27 -8.14876 -5.18409 0
M  V30 16087 H 2160.91 -3.27957 -5.4317 0
M  V30 16088 P 2162.77 -5.75688 -6.64379 0
M  V30 16089 O 2164.19 -6.07627 -7.05504 0
M  V30 16090 O 2162.41 -5.88047 -5.19722 0
M  V30 16091 O 2162.44 -4.2322 -7.04443 0
M  V30 16092 C 2162.28 -3.99743 -8.4911 0
M  V30 16093 C 2162.82 -2.60516 -8.79425 0
M  V30 16094 O 2161.77 -1.82684 -8.4467 0
M  V30 16095 C 2164.04 -2.10343 -8.03628 0
M  V30 16096 O 2164.78 -1.09919 -8.67766 0
M  V30 16097 C 2163.37 -1.68446 -6.70876 0
M  V30 16098 O 2164.17 -0.678137 -6.08433 0
M  V30 16099 C 2162.04 -1.17436 -7.18567 0
M  V30 16100 H 2162.07 -0.0804732 -7.31656 0
M  V30 16101 H 2163.25 -2.54037 -6.02537 0
M  V30 16102 H 2164.74 -2.93881 -7.85526 0
M  V30 16103 H 2163.04 -2.53065 -9.86973 0
M  V30 16104 H 2162.85 -4.75072 -9.05887 0
M  V30 16105 H 2161.22 -4.05244 -8.76668 0
M  V30 16106 H 2163.86 0.177647 -6.34251 0
M  V30 16107 P 2165.72 -1.25109 -8.70152 0
M  V30 16108 O 2167.14 -1.29772 -9.22214 0
M  V30 16109 O 2165.36 -2.13714 -7.55141 0
M  V30 16110 O 2165.4 0.248149 -8.21425 0
M  V30 16111 C 2165.24 1.22779 -9.30434 0
M  V30 16112 C 2165.78 2.56265 -8.80568 0
M  V30 16113 O 2164.72 3.02979 -8.09349 0
M  V30 16114 C 2166.99 2.57523 -7.89775 0
M  V30 16115 O 2167.73 3.7668 -7.89438 0
M  V30 16116 C 2166.33 2.20997 -6.55446 0
M  V30 16117 O 2167.12 2.71851 -5.48419 0
M  V30 16118 C 2164.99 2.89693 -6.67988 0
M  V30 16119 N 2163.94 2.08895 -6.07487 0
M  V30 16120 C 2164.01 0.760559 -6.14209 0
M  V30 16121 N 2162.96 0.200108 -5.52538 0
M  V30 16122 C 2162.23 1.22692 -5.09742 0
M  V30 16123 C 2160.92 1.24782 -4.48775 0
M  V30 16124 O 2160.19 0.290617 -4.19294 0
M  V30 16125 N 2160.49 2.50468 -4.22428 0
M  V30 16126 C 2161.24 3.67142 -4.51974 0
M  V30 16127 N 2160.64 4.85096 -4.14091 0
M  V30 16128 N 2162.39 3.67821 -5.12831 0
M  V30 16129 C 2162.85 2.43698 -5.4105 0
M  V30 16130 H 2165.02 3.88793 -6.19859 0
M  V30 16131 H 2166.2 1.12029 -6.4413 0
M  V30 16132 H 2167.69 1.78279 -8.19533 0
M  V30 16133 H 2165.99 3.20706 -9.67112 0
M  V30 16134 H 2165.8 0.901032 -10.1892 0
M  V30 16135 H 2164.17 1.33049 -9.56592 0
M  V30 16136 H 2159.6 2.61953 -3.79465 0
M  V30 16137 H 2164.8 0.200439 -6.63497 0
M  V30 16138 H 2159.73 4.8334 -3.66367 0
M  V30 16139 H 2161.11 5.7474 -4.33841 0
M  V30 16140 H 2166.81 3.5779 -5.23879 0
M  V30 16141 P 2168.67 3.65191 -7.99657 0
M  V30 16142 O 2170.09 3.89332 -8.45794 0
M  V30 16143 O 2168.31 2.28472 -7.50807 0
M  V30 16144 O 2168.35 4.64972 -6.77611 0
M  V30 16145 C 2168.19 6.06319 -7.16352 0
M  V30 16146 C 2168.73 6.91731 -6.02299 0
M  V30 16147 O 2167.67 6.92449 -5.17064 0
M  V30 16148 C 2169.94 6.43627 -5.25174 0
M  V30 16149 O 2170.68 7.43686 -4.60469 0
M  V30 16150 C 2169.27 5.40275 -4.31916 0
M  V30 16151 O 2170.07 5.25279 -3.14438 0
M  V30 16152 C 2167.94 6.04847 -4.05327 0
M  V30 16153 H 2167.97 6.62195 -3.11261 0
M  V30 16154 H 2169.15 4.42556 -4.81383 0
M  V30 16155 H 2170.64 5.92458 -5.93643 0
M  V30 16156 H 2168.94 7.92655 -6.402 0
M  V30 16157 H 2168.75 6.26671 -8.0846 0
M  V30 16158 H 2167.12 6.29101 -7.32804 0
M  V30 16159 H 2169.76 5.84315 -2.47318 0
M  V30 16160 P 2171.62 7.39546 -4.75277 0
M  V30 16161 O 2173.04 7.84798 -5.01039 0
M  V30 16162 O 2171.26 5.9812 -5.08098 0
M  V30 16163 O 2171.3 7.57503 -3.1866 0
M  V30 16164 C 2171.14 8.97357 -2.74833 0
M  V30 16165 C 2171.68 9.07548 -1.32709 0
M  V30 16166 O 2170.62 8.62072 -0.606159 0
M  V30 16167 C 2172.89 8.25383 -0.938334 0
M  V30 16168 O 2173.63 8.74577 0.146954 0
M  V30 16169 C 2172.23 6.8802 -0.712559 0
M  V30 16170 O 2173.02 6.1189 0.194655 0
M  V30 16171 C 2170.89 7.27966 -0.139777 0
M  V30 16172 H 2170.92 7.25354 0.961601 0
M  V30 16173 H 2172.1 6.32557 -1.65702 0
M  V30 16174 H 2173.59 8.19355 -1.79097 0
M  V30 16175 H 2171.89 10.1294 -1.10029 0
M  V30 16176 H 2171.7 9.64276 -3.41316 0
M  V30 16177 H 2170.07 9.25417 -2.76357 0
M  V30 16178 H 2172.71 6.25267 1.07847 0
M  V30 16179 P 2174.57 8.791 1.87823e-11 0
M  V30 16180 O 2175.99 9.31196 0.027936 0
M  V30 16181 O 2174.21 7.77869 -1.04071 0
M  V30 16182 O 2174.25 8.09533 1.41463 0
M  V30 16183 C 2174.09 9.03587 2.5397 0
M  V30 16184 C 2174.63 8.35226 3.79016 0
M  V30 16185 O 2173.57 7.57904 4.1503 0
M  V30 16186 C 2175.85 7.45087 3.67298 0
M  V30 16187 O 2176.58 7.27796 4.85194 0
M  V30 16188 C 2175.18 6.17323 3.12027 0
M  V30 16189 O 2175.98 5.04496 3.46627 0
M  V30 16190 C 2173.84 6.19961 3.81809 0
M  V30 16191 N 2172.8 5.71575 2.93223 0
M  V30 16192 C 2172.97 5.77362 1.59168 0
M  V30 16193 N 2171.94 5.3123 0.911893 0
M  V30 16194 C 2171.05 4.91717 1.89588 0
M  V30 16195 C 2169.79 4.3114 1.8076 0
M  V30 16196 N 2169.19 3.99821 0.632928 0
M  V30 16197 N 2169.22 4.06823 3.02898 0
M  V30 16198 C 2169.82 4.35062 4.22711 0
M  V30 16199 N 2171 4.90805 4.35707 0
M  V30 16200 C 2171.58 5.16382 3.14469 0
M  V30 16201 H 2173.87 5.58142 4.72986 0
M  V30 16202 H 2175.05 6.21428 2.0318 0
M  V30 16203 H 2176.54 7.86112 2.9231 0
M  V30 16204 H 2174.84 9.11171 4.55987 0
M  V30 16205 H 2174.65 9.9573 2.34194 0
M  V30 16206 H 2173.02 9.2792 2.67832 0
M  V30 16207 H 2169.29 4.09052 5.13359 0
M  V30 16208 H 2173.87 6.16575 1.12198 0
M  V30 16209 H 2168.26 3.55423 0.632085 0
M  V30 16210 H 2169.66 4.20317 -0.256712 0
M  V30 16211 H 2175.66 4.67628 4.28704 0
M  V30 16212 P 2177.52 7.39546 4.75277 0
M  V30 16213 O 2178.94 7.81777 5.05738 0
M  V30 16214 O 2177.16 7.1065 3.32998 0
M  V30 16215 O 2177.2 6.04542 5.56673 0
M  V30 16216 C 2177.04 6.22772 7.02095 0
M  V30 16217 C 2177.58 4.97725 7.70406 0
M  V30 16218 O 2176.52 4.13256 7.58987 0
M  V30 16219 C 2178.8 4.28231 7.11815 0
M  V30 16220 O 2179.53 3.49945 8.01648 0
M  V30 16221 C 2178.13 3.5063 5.96244 0
M  V30 16222 O 2178.93 2.36482 5.64681 0
M  V30 16223 C 2176.79 3.15122 6.56374 0
M  V30 16224 H 2176.82 2.13853 6.99751 0
M  V30 16225 H 2178 4.13501 5.06559 0
M  V30 16226 H 2179.49 5.03285 6.70911 0
M  V30 16227 H 2177.79 5.20877 8.75697 0
M  V30 16228 H 2177.6 7.11046 7.35349 0
M  V30 16229 H 2175.97 6.35815 7.26986 0
M  V30 16230 H 2178.61 1.61644 6.13565 0
M  V30 16231 P 2180.47 3.65191 7.99657 0
M  V30 16232 O 2181.89 3.8425 8.48115 0
M  V30 16233 O 2180.11 4.17805 6.64342 0
M  V30 16234 O 2180.15 2.07613 7.95143 0
M  V30 16235 C 2179.99 1.44328 9.27336 0
M  V30 16236 C 2180.53 0.0220036 9.17197 0
M  V30 16237 O 2179.47 -0.626867 8.61923 0
M  V30 16238 C 2181.75 -0.24586 8.30336 0
M  V30 16239 O 2182.48 -1.39011 8.63583 0
M  V30 16240 C 2181.08 -0.273849 6.91158 0
M  V30 16241 O 2181.88 -1.06348 6.02892 0
M  V30 16242 C 2179.74 -0.897649 7.22545 0
M  V30 16243 H 2179.77 -1.9841 7.04286 0
M  V30 16244 H 2180.96 0.739928 6.497 0
M  V30 16245 H 2182.44 0.60668 8.36503 0
M  V30 16246 H 2180.75 -0.352479 10.1829 0
M  V30 16247 H 2180.56 2.00611 10.0304 0
M  V30 16248 H 2178.93 1.41843 9.55327 0
M  V30 16249 H 2181.56 -1.95734 6.03555 0
M  V30 16250 P 2183.42 -1.25109 8.70152 0
M  V30 16251 O 2184.84 -1.35274 9.21221 0
M  V30 16252 O 2183.06 -0.0769065 7.84762 0
M  V30 16253 O 2183.1 -2.55232 7.81161 0
M  V30 16254 C 2182.94 -3.79939 8.58154 0
M  V30 16255 C 2183.48 -4.94023 7.72785 0
M  V30 16256 O 2182.42 -5.18726 6.91205 0
M  V30 16257 C 2184.7 -4.69597 6.85231 0
M  V30 16258 O 2185.43 -5.83832 6.51337 0
M  V30 16259 C 2184.03 -3.96706 5.66633 0
M  V30 16260 O 2184.83 -4.15414 4.49689 0
M  V30 16261 C 2182.69 -4.66153 5.59313 0
M  V30 16262 H 2182.72 -5.47679 4.85214 0
M  V30 16263 H 2183.91 -2.89008 5.86566 0
M  V30 16264 H 2185.39 -4.0121 7.36511 0
M  V30 16265 H 2183.7 -5.80182 8.37584 0
M  V30 16266 H 2183.51 -3.73517 9.52265 0
M  V30 16267 H 2181.88 -3.97163 8.80359 0
M  V30 16268 H 2184.51 -4.90969 4.01921 0
M  V30 16269 P 2186.37 -5.75688 6.64379 0
M  V30 16270 O 2187.79 -6.11849 7.01846 0
M  V30 16271 O 2186.01 -4.30744 6.56026 0
M  V30 16272 O 2186.05 -6.37042 5.19165 0
M  V30 16273 C 2185.89 -7.83578 5.16515 0
M  V30 16274 C 2186.43 -8.33398 3.83019 0
M  V30 16275 O 2185.37 -8.10074 3.01034 0
M  V30 16276 C 2187.65 -7.65514 3.2257 0
M  V30 16277 O 2188.39 -8.4329 2.32297 0
M  V30 16278 C 2186.98 -6.40075 2.62207 0
M  V30 16279 O 2187.78 -5.92589 1.53712 0
M  V30 16280 C 2185.64 -6.9454 2.18503 0
M  V30 16281 H 2185.67 -7.23063 1.12091 0
M  V30 16282 H 2186.86 -5.6025 3.37201 0
M  V30 16283 H 2188.34 -7.35707 4.02681 0
M  V30 16284 H 2186.65 -9.40912 3.9095 0
M  V30 16285 H 2186.46 -8.29056 5.99158 0
M  V30 16286 H 2184.83 -8.10073 5.25882 0
M  V30 16287 H 2187.47 -6.30324 0.726794 0
M  V30 16288 P 2189.32 -8.4349 2.47671 0
M  V30 16289 O 2190.74 -8.94167 2.5964 0
M  V30 16290 O 2188.96 -7.1704 3.19006 0
M  V30 16291 O 2189 -8.16596 0.923387 0
M  V30 16292 C 2188.84 -9.38437 0.108857 0
M  V30 16293 C 2189.38 -9.08175 -1.28353 0
M  V30 16294 O 2188.32 -8.44229 -1.84713 0
M  V30 16295 C 2190.6 -8.18386 -1.42505 0
M  V30 16296 O 2191.34 -8.3501 -2.60497 0
M  V30 16297 C 2189.93 -6.80225 -1.25468 0
M  V30 16298 O 2190.73 -5.81621 -1.91066 0
M  V30 16299 C 2188.59 -7.02416 -1.9168 0
M  V30 16300 H 2188.62 -6.6888 -2.96621 0
M  V30 16301 H 2189.81 -6.53617 -0.192223 0
M  V30 16302 H 2191.29 -8.36622 -0.589963 0
M  V30 16303 H 2189.6 -10.0291 -1.79807 0
M  V30 16304 H 2189.41 -10.2138 0.558219 0
M  V30 16305 H 2187.78 -9.6579 0.0444202 0
M  V30 16306 H 2190.42 -5.69556 -2.79637 0
M  V30 16307 P 2192.27 -8.4349 -2.47671 0
M  V30 16308 O 2193.7 -8.92593 -2.65 0
M  V30 16309 O 2191.91 -7.7568 -1.19296 0
M  V30 16310 O 2191.95 -7.36886 -3.63805 0
M  V30 16311 C 2191.79 -7.95349 -4.982 0
M  V30 16312 C 2192.33 -6.94612 -5.98974 0
M  V30 16313 O 2191.27 -6.10347 -6.11815 0
M  V30 16314 C 2193.55 -6.11426 -5.62335 0
M  V30 16315 O 2194.29 -5.6162 -6.70584 0
M  V30 16316 C 2192.88 -5.04409 -4.73308 0
M  V30 16317 O 2193.68 -3.85992 -4.75183 0
M  V30 16318 C 2191.54 -4.8728 -5.41006 0
M  V30 16319 H 2191.57 -4.02333 -6.11157 0
M  V30 16320 H 2192.76 -5.39466 -3.69543 0
M  V30 16321 H 2194.24 -6.71916 -5.01943 0
M  V30 16322 H 2192.55 -7.4649 -6.93477 0
M  V30 16323 H 2192.36 -8.89416 -5.05237 0
M  V30 16324 H 2190.73 -8.14876 -5.18409 0
M  V30 16325 H 2193.37 -3.27957 -5.4317 0
M  V30 16326 P 2195.22 -5.75688 -6.64379 0
M  V30 16327 O 2196.65 -6.07627 -7.05504 0
M  V30 16328 O 2194.86 -5.88047 -5.19722 0
M  V30 16329 O 2194.9 -4.2322 -7.04443 0
M  V30 16330 C 2194.74 -3.99743 -8.4911 0
M  V30 16331 C 2195.28 -2.60516 -8.79425 0
M  V30 16332 O 2194.23 -1.82684 -8.4467 0
M  V30 16333 C 2196.5 -2.10343 -8.03628 0
M  V30 16334 O 2197.24 -1.09919 -8.67766 0
M  V30 16335 C 2195.83 -1.68446 -6.70876 0
M  V30 16336 O 2196.63 -0.678137 -6.08433 0
M  V30 16337 C 2194.49 -1.17436 -7.18567 0
M  V30 16338 H 2194.53 -0.0804732 -7.31656 0
M  V30 16339 H 2195.71 -2.54037 -6.02537 0
M  V30 16340 H 2197.19 -2.93881 -7.85526 0
M  V30 16341 H 2195.5 -2.53065 -9.86973 0
M  V30 16342 H 2195.31 -4.75072 -9.05887 0
M  V30 16343 H 2193.68 -4.05244 -8.76668 0
M  V30 16344 H 2196.32 0.177647 -6.34251 0
M  V30 16345 P 2198.17 -1.25109 -8.70152 0
M  V30 16346 O 2199.6 -1.29744 -9.22016 0
M  V30 16347 O 2197.81 -2.13714 -7.55141 0
M  V30 16348 O 2197.85 0.248149 -8.21425 0
M  V30 16349 C 2197.69 1.22779 -9.30434 0
M  V30 16350 C 2198.23 2.56293 -8.80664 0
M  V30 16351 O 2197.18 3.02979 -8.09349 0
M  V30 16352 C 2199.45 2.57523 -7.89775 0
M  V30 16353 O 2200.19 3.7668 -7.89438 0
M  V30 16354 C 2198.78 2.20997 -6.55446 0
M  V30 16355 O 2199.58 2.71895 -5.48509 0
M  V30 16356 C 2197.44 2.89693 -6.67988 0
M  V30 16357 H 2197.48 3.88793 -6.19859 0
M  V30 16358 H 2198.66 1.12046 -6.44229 0
M  V30 16359 H 2200.14 1.7746 -8.19711 0
M  V30 16360 H 2198.45 3.20706 -9.67112 0
M  V30 16361 H 2198.26 0.901032 -10.1892 0
M  V30 16362 H 2196.63 1.33049 -9.56592 0
M  V30 16363 H 2199.27 3.57847 -5.23962 0
M  V30 16364 P 2201.13 3.65191 -7.99657 0
M  V30 16365 O 2202.55 3.89332 -8.45794 0
M  V30 16366 O 2200.77 2.28472 -7.50807 0
M  V30 16367 O 2200.8 4.64972 -6.77611 0
M  V30 16368 C 2200.64 6.06319 -7.16352 0
M  V30 16369 C 2201.18 6.91731 -6.02299 0
M  V30 16370 O 2200.13 6.92449 -5.17064 0
M  V30 16371 C 2202.4 6.43627 -5.25174 0
M  V30 16372 O 2203.14 7.43686 -4.60469 0
M  V30 16373 C 2201.73 5.40275 -4.31916 0
M  V30 16374 O 2202.53 5.25279 -3.14438 0
M  V30 16375 C 2200.39 6.04847 -4.05327 0
M  V30 16376 H 2200.43 6.62195 -3.11261 0
M  V30 16377 H 2201.61 4.42556 -4.81383 0
M  V30 16378 H 2203.09 5.92458 -5.93643 0
M  V30 16379 H 2201.4 7.92655 -6.402 0
M  V30 16380 H 2201.21 6.26671 -8.0846 0
M  V30 16381 H 2199.58 6.29101 -7.32804 0
M  V30 16382 H 2202.22 5.84315 -2.47318 0
M  V30 16383 P 2204.08 7.39546 -4.75277 0
M  V30 16384 O 2205.5 7.84798 -5.01039 0
M  V30 16385 O 2203.72 5.9812 -5.08098 0
M  V30 16386 O 2203.75 7.57503 -3.1866 0
M  V30 16387 C 2203.59 8.97357 -2.74833 0
M  V30 16388 C 2204.13 9.07548 -1.32709 0
M  V30 16389 O 2203.08 8.62072 -0.606159 0
M  V30 16390 C 2205.35 8.25383 -0.938334 0
M  V30 16391 O 2206.09 8.74577 0.146954 0
M  V30 16392 C 2204.68 6.8802 -0.712559 0
M  V30 16393 O 2205.48 6.1189 0.194655 0
M  V30 16394 C 2203.34 7.27966 -0.139777 0
M  V30 16395 H 2203.38 7.25354 0.961601 0
M  V30 16396 H 2204.56 6.32557 -1.65702 0
M  V30 16397 H 2206.04 8.19355 -1.79097 0
M  V30 16398 H 2204.35 10.1294 -1.10029 0
M  V30 16399 H 2204.16 9.64276 -3.41316 0
M  V30 16400 H 2202.53 9.25417 -2.76357 0
M  V30 16401 H 2205.17 6.25267 1.07847 0
M  V30 16402 P 2207.03 8.791 1.90924e-11 0
M  V30 16403 O 2208.45 9.31096 0.027933 0
M  V30 16404 O 2206.67 7.77869 -1.04071 0
M  V30 16405 O 2206.7 8.09533 1.41463 0
M  V30 16406 C 2206.54 9.0349 2.53943 0
M  V30 16407 C 2207.08 8.35226 3.79016 0
M  V30 16408 O 2206.03 7.57992 4.15078 0
M  V30 16409 C 2208.3 7.45087 3.67298 0
M  V30 16410 O 2209.04 7.27796 4.85194 0
M  V30 16411 C 2207.63 6.17323 3.12027 0
M  V30 16412 O 2208.43 5.04231 3.47188 0
M  V30 16413 C 2206.3 6.19961 3.81809 0
M  V30 16414 H 2206.33 5.58218 4.73051 0
M  V30 16415 H 2207.51 6.21726 2.02589 0
M  V30 16416 H 2208.99 7.86112 2.9231 0
M  V30 16417 H 2207.3 9.11627 4.55076 0
M  V30 16418 H 2207.11 9.9573 2.34194 0
M  V30 16419 H 2205.48 9.2792 2.67832 0
M  V30 16420 H 2208.12 4.67702 4.28772 0
M  V30 16421 P 2209.98 7.39546 4.75277 0
M  V30 16422 O 2211.4 7.81777 5.05738 0
M  V30 16423 O 2209.62 7.1065 3.32998 0
M  V30 16424 O 2209.65 6.04542 5.56673 0
M  V30 16425 C 2209.49 6.22772 7.02095 0
M  V30 16426 C 2210.03 4.97725 7.70406 0
M  V30 16427 O 2208.98 4.13256 7.58987 0
M  V30 16428 C 2211.25 4.28231 7.11815 0
M  V30 16429 O 2211.99 3.49945 8.01648 0
M  V30 16430 C 2210.58 3.5063 5.96244 0
M  V30 16431 O 2211.38 2.36482 5.64681 0
M  V30 16432 C 2209.25 3.15122 6.56374 0
M  V30 16433 H 2209.28 2.13853 6.99751 0
M  V30 16434 H 2210.46 4.13501 5.06559 0
M  V30 16435 H 2211.94 5.03285 6.70911 0
M  V30 16436 H 2210.25 5.20877 8.75697 0
M  V30 16437 H 2210.06 7.11046 7.35349 0
M  V30 16438 H 2208.43 6.35815 7.26986 0
M  V30 16439 H 2211.07 1.61644 6.13565 0
M  V30 16440 P 2212.93 3.65191 7.99657 0
M  V30 16441 O 2214.35 3.8425 8.48115 0
M  V30 16442 O 2212.57 4.17805 6.64342 0
M  V30 16443 O 2212.6 2.07613 7.95143 0
M  V30 16444 C 2212.44 1.44328 9.27336 0
M  V30 16445 C 2212.98 0.0220036 9.17197 0
M  V30 16446 O 2211.93 -0.626867 8.61923 0
M  V30 16447 C 2214.2 -0.24586 8.30336 0
M  V30 16448 O 2214.94 -1.39011 8.63583 0
M  V30 16449 C 2213.53 -0.273849 6.91158 0
M  V30 16450 O 2214.33 -1.06348 6.02892 0
M  V30 16451 C 2212.2 -0.897649 7.22545 0
M  V30 16452 H 2212.23 -1.9841 7.04286 0
M  V30 16453 H 2213.41 0.739928 6.497 0
M  V30 16454 H 2214.9 0.60668 8.36503 0
M  V30 16455 H 2213.2 -0.352479 10.1829 0
M  V30 16456 H 2213.01 2.00611 10.0304 0
M  V30 16457 H 2211.38 1.41843 9.55327 0
M  V30 16458 H 2214.02 -1.95734 6.03555 0
M  V30 16459 P 2215.88 -1.25109 8.70152 0
M  V30 16460 O 2217.3 -1.35274 9.21221 0
M  V30 16461 O 2215.52 -0.0769065 7.84762 0
M  V30 16462 O 2215.56 -2.55232 7.81161 0
M  V30 16463 C 2215.4 -3.79939 8.58154 0
M  V30 16464 C 2215.94 -4.94023 7.72785 0
M  V30 16465 O 2214.88 -5.18726 6.91205 0
M  V30 16466 C 2217.15 -4.69597 6.85231 0
M  V30 16467 O 2217.89 -5.83832 6.51337 0
M  V30 16468 C 2216.48 -3.96706 5.66633 0
M  V30 16469 O 2217.28 -4.15414 4.49689 0
M  V30 16470 C 2215.15 -4.66153 5.59313 0
M  V30 16471 H 2215.18 -5.47679 4.85214 0
M  V30 16472 H 2216.36 -2.89008 5.86566 0
M  V30 16473 H 2217.85 -4.0121 7.36511 0
M  V30 16474 H 2216.15 -5.80182 8.37584 0
M  V30 16475 H 2215.96 -3.73517 9.52265 0
M  V30 16476 H 2214.33 -3.97163 8.80359 0
M  V30 16477 H 2216.97 -4.90969 4.01921 0
M  V30 16478 P 2218.83 -5.75688 6.64379 0
M  V30 16479 O 2220.23 -6.11991 7.09136 0
M  V30 16480 O 2218.45 -4.30899 6.62018 0
M  V30 16481 O 2218.51 -6.36965 5.19102 0
M  V30 16482 C 2218.35 -7.83578 5.16515 0
M  V30 16483 C 2218.89 -8.33307 3.82977 0
M  V30 16484 O 2217.83 -8.0998 3.00999 0
M  V30 16485 C 2220.1 -7.65514 3.2257 0
M  V30 16486 O 2220.84 -8.4329 2.32297 0
M  V30 16487 C 2219.44 -6.40075 2.62207 0
M  V30 16488 O 2220.23 -5.92492 1.53687 0
M  V30 16489 C 2218.1 -6.9454 2.18503 0
M  V30 16490 N 2217.05 -5.95905 2.39948 0
M  V30 16491 C 2216.02 -5.89764 1.49837 0
M  V30 16492 O 2216.06 -6.64088 0.490975 0
M  V30 16493 N 2215.01 -5.02821 1.70992 0
M  V30 16494 C 2215.06 -4.21498 2.77236 0
M  V30 16495 C 2216.15 -4.23389 3.68205 0
M  V30 16496 C 2217.12 -5.12792 3.46171 0
M  V30 16497 H 2218.13 -7.22964 1.12076 0
M  V30 16498 H 2219.31 -5.60502 3.36589 0
M  V30 16499 H 2220.8 -7.36197 4.01993 0
M  V30 16500 H 2219.1 -9.41302 3.90009 0
M  V30 16501 H 2218.91 -8.29056 5.99158 0
M  V30 16502 H 2217.28 -8.09989 5.25828 0
M  V30 16503 H 2216.2 -3.54747 4.52399 0
M  V30 16504 H 2217.96 -5.18551 4.1489 0
M  V30 16505 H 2220.02 -6.40705 0.751752 0
M  V30 16506 P 2221.78 -8.4349 2.47671 0
M  V30 16507 O 2223.2 -8.94167 2.5964 0
M  V30 16508 O 2221.42 -7.1704 3.19006 0
M  V30 16509 O 2221.46 -8.16596 0.923387 0
M  V30 16510 C 2221.3 -9.38437 0.108857 0
M  V30 16511 C 2221.84 -9.08175 -1.28353 0
M  V30 16512 O 2220.78 -8.44229 -1.84713 0
M  V30 16513 C 2223.05 -8.18386 -1.42505 0
M  V30 16514 O 2223.79 -8.3501 -2.60497 0
M  V30 16515 C 2222.39 -6.80225 -1.25468 0
M  V30 16516 O 2223.18 -5.81621 -1.91066 0
M  V30 16517 C 2221.05 -7.02416 -1.9168 0
M  V30 16518 H 2221.08 -6.6888 -2.96621 0
M  V30 16519 H 2222.26 -6.53617 -0.192223 0
M  V30 16520 H 2223.75 -8.36622 -0.589963 0
M  V30 16521 H 2222.05 -10.0291 -1.79807 0
M  V30 16522 H 2221.86 -10.2138 0.558219 0
M  V30 16523 H 2220.23 -9.6579 0.0444202 0
M  V30 16524 H 2222.87 -5.69556 -2.79637 0
M  V30 16525 P 2224.73 -8.4349 -2.47671 0
M  V30 16526 O 2226.15 -8.92593 -2.65 0
M  V30 16527 O 2224.37 -7.7568 -1.19296 0
M  V30 16528 O 2224.41 -7.36886 -3.63805 0
M  V30 16529 C 2224.25 -7.95349 -4.982 0
M  V30 16530 C 2224.79 -6.94612 -5.98974 0
M  V30 16531 O 2223.73 -6.10347 -6.11815 0
M  V30 16532 C 2226 -6.11426 -5.62335 0
M  V30 16533 O 2226.74 -5.6162 -6.70584 0
M  V30 16534 C 2225.34 -5.04409 -4.73308 0
M  V30 16535 O 2226.13 -3.85992 -4.75183 0
M  V30 16536 C 2224 -4.8728 -5.41006 0
M  V30 16537 H 2224.03 -4.02333 -6.11157 0
M  V30 16538 H 2225.21 -5.39466 -3.69543 0
M  V30 16539 H 2226.7 -6.71916 -5.01943 0
M  V30 16540 H 2225 -7.4649 -6.93477 0
M  V30 16541 H 2224.81 -8.89416 -5.05237 0
M  V30 16542 H 2223.18 -8.14876 -5.18409 0
M  V30 16543 H 2225.82 -3.27957 -5.4317 0
M  V30 16544 P 2227.68 -5.75688 -6.64379 0
M  V30 16545 O 2229.1 -6.07627 -7.05504 0
M  V30 16546 O 2227.32 -5.88047 -5.19722 0
M  V30 16547 O 2227.36 -4.2322 -7.04443 0
M  V30 16548 C 2227.2 -3.99743 -8.4911 0
M  V30 16549 C 2227.74 -2.60516 -8.79425 0
M  V30 16550 O 2226.68 -1.82684 -8.4467 0
M  V30 16551 C 2228.96 -2.10343 -8.03628 0
M  V30 16552 O 2229.69 -1.09919 -8.67766 0
M  V30 16553 C 2228.29 -1.68446 -6.70876 0
M  V30 16554 O 2229.09 -0.678137 -6.08433 0
M  V30 16555 C 2226.95 -1.17436 -7.18567 0
M  V30 16556 H 2226.98 -0.0804732 -7.31656 0
M  V30 16557 H 2228.16 -2.54037 -6.02537 0
M  V30 16558 H 2229.65 -2.93881 -7.85526 0
M  V30 16559 H 2227.95 -2.53065 -9.86973 0
M  V30 16560 H 2227.76 -4.75072 -9.05887 0
M  V30 16561 H 2226.13 -4.05244 -8.76668 0
M  V30 16562 H 2228.77 0.177647 -6.34251 0
M  V30 16563 P 2230.63 -1.25109 -8.70152 0
M  V30 16564 O 2232.05 -1.29744 -9.22016 0
M  V30 16565 O 2230.27 -2.13714 -7.55141 0
M  V30 16566 O 2230.31 0.248149 -8.21425 0
M  V30 16567 C 2230.15 1.22779 -9.30434 0
M  V30 16568 C 2230.69 2.56293 -8.80664 0
M  V30 16569 O 2229.63 3.02979 -8.09349 0
M  V30 16570 C 2231.91 2.57523 -7.89775 0
M  V30 16571 O 2232.64 3.7668 -7.89438 0
M  V30 16572 C 2231.24 2.20997 -6.55446 0
M  V30 16573 O 2232.04 2.71895 -5.48509 0
M  V30 16574 C 2229.9 2.89693 -6.67988 0
M  V30 16575 H 2229.93 3.88793 -6.19859 0
M  V30 16576 H 2231.11 1.12046 -6.44229 0
M  V30 16577 H 2232.6 1.7746 -8.19711 0
M  V30 16578 H 2230.9 3.20706 -9.67112 0
M  V30 16579 H 2230.71 0.901032 -10.1892 0
M  V30 16580 H 2229.08 1.33049 -9.56592 0
M  V30 16581 H 2231.72 3.57847 -5.23962 0
M  V30 16582 P 2233.58 3.65191 -7.99657 0
M  V30 16583 O 2234.98 3.87414 -8.52829 0
M  V30 16584 O 2233.2 2.26932 -7.566 0
M  V30 16585 O 2233.26 4.64915 -6.77529 0
M  V30 16586 C 2233.1 6.06319 -7.16352 0
M  V30 16587 C 2233.64 6.91655 -6.02234 0
M  V30 16588 O 2232.58 6.92369 -5.17005 0
M  V30 16589 C 2234.86 6.43627 -5.25174 0
M  V30 16590 O 2235.59 7.43686 -4.60469 0
M  V30 16591 C 2234.19 5.40275 -4.31916 0
M  V30 16592 O 2234.99 5.25193 -3.14386 0
M  V30 16593 C 2232.85 6.04847 -4.05327 0
M  V30 16594 N 2231.81 5.04166 -3.98114 0
M  V30 16595 C 2230.77 5.2366 -3.09923 0
M  V30 16596 O 2230.81 6.23355 -2.34204 0
M  V30 16597 N 2229.76 4.34279 -3.05727 0
M  V30 16598 C 2229.81 3.26317 -3.84756 0
M  V30 16599 C 2230.9 3.02504 -4.72573 0
M  V30 16600 C 2231.87 3.94493 -4.76618 0
M  V30 16601 H 2232.88 6.62104 -3.11218 0
M  V30 16602 H 2234.07 4.42969 -4.80867 0
M  V30 16603 H 2235.55 5.93122 -5.93121 0
M  V30 16604 H 2233.86 7.93295 -6.39407 0
M  V30 16605 H 2233.66 6.26671 -8.0846 0
M  V30 16606 H 2232.03 6.29036 -7.32728 0
M  V30 16607 H 2230.95 2.12921 -5.34017 0
M  V30 16608 H 2232.72 3.80658 -5.44176 0
M  V30 16609 H 2234.77 5.93572 -2.52637 0
M  V30 16610 P 2236.53 7.39546 -4.75277 0
M  V30 16611 O 2237.95 7.84798 -5.01039 0
M  V30 16612 O 2236.17 5.9812 -5.08098 0
M  V30 16613 O 2236.21 7.57503 -3.1866 0
M  V30 16614 C 2236.05 8.97357 -2.74833 0
M  V30 16615 C 2236.59 9.07548 -1.32709 0
M  V30 16616 O 2235.53 8.62072 -0.606159 0
M  V30 16617 C 2237.81 8.25383 -0.938334 0
M  V30 16618 O 2238.55 8.74577 0.146954 0
M  V30 16619 C 2237.14 6.8802 -0.712559 0
M  V30 16620 O 2237.94 6.1189 0.194655 0
M  V30 16621 C 2235.8 7.27966 -0.139777 0
M  V30 16622 H 2235.83 7.25354 0.961601 0
M  V30 16623 H 2237.02 6.32557 -1.65702 0
M  V30 16624 H 2238.5 8.19355 -1.79097 0
M  V30 16625 H 2236.81 10.1294 -1.10029 0
M  V30 16626 H 2236.62 9.64276 -3.41316 0
M  V30 16627 H 2234.99 9.25417 -2.76357 0
M  V30 16628 H 2237.63 6.25267 1.07847 0
M  V30 16629 P 2239.48 8.791 1.94026e-11 0
M  V30 16630 O 2240.9 9.31096 0.027933 0
M  V30 16631 O 2239.12 7.77869 -1.04071 0
M  V30 16632 O 2239.16 8.09533 1.41463 0
M  V30 16633 C 2239 9.0349 2.53943 0
M  V30 16634 C 2239.54 8.35226 3.79016 0
M  V30 16635 O 2238.48 7.57992 4.15078 0
M  V30 16636 C 2240.76 7.45087 3.67298 0
M  V30 16637 O 2241.5 7.27796 4.85194 0
M  V30 16638 C 2240.09 6.17323 3.12027 0
M  V30 16639 O 2240.89 5.04231 3.47188 0
M  V30 16640 C 2238.75 6.19961 3.81809 0
M  V30 16641 H 2238.78 5.58218 4.73051 0
M  V30 16642 H 2239.97 6.21726 2.02589 0
M  V30 16643 H 2241.45 7.86112 2.9231 0
M  V30 16644 H 2239.76 9.11627 4.55076 0
M  V30 16645 H 2239.57 9.9573 2.34194 0
M  V30 16646 H 2237.94 9.2792 2.67832 0
M  V30 16647 H 2240.58 4.67702 4.28772 0
M  V30 16648 P 2242.43 7.39546 4.75277 0
M  V30 16649 O 2243.86 7.81777 5.05738 0
M  V30 16650 O 2242.07 7.1065 3.32998 0
M  V30 16651 O 2242.11 6.04542 5.56673 0
M  V30 16652 C 2241.95 6.22772 7.02095 0
M  V30 16653 C 2242.49 4.97725 7.70406 0
M  V30 16654 O 2241.43 4.13256 7.58987 0
M  V30 16655 C 2243.71 4.28231 7.11815 0
M  V30 16656 O 2244.45 3.49945 8.01648 0
M  V30 16657 C 2243.04 3.5063 5.96244 0
M  V30 16658 O 2243.84 2.36482 5.64681 0
M  V30 16659 C 2241.7 3.15122 6.56374 0
M  V30 16660 H 2241.73 2.13853 6.99751 0
M  V30 16661 H 2242.92 4.13501 5.06559 0
M  V30 16662 H 2244.4 5.03285 6.70911 0
M  V30 16663 H 2242.71 5.20877 8.75697 0
M  V30 16664 H 2242.52 7.11046 7.35349 0
M  V30 16665 H 2240.89 6.35815 7.26986 0
M  V30 16666 H 2243.53 1.61644 6.13565 0
M  V30 16667 P 2245.38 3.65191 7.99657 0
M  V30 16668 O 2246.81 3.8425 8.48115 0
M  V30 16669 O 2245.02 4.17805 6.64342 0
M  V30 16670 O 2245.06 2.07613 7.95143 0
M  V30 16671 C 2244.9 1.44328 9.27336 0
M  V30 16672 C 2245.44 0.0220036 9.17197 0
M  V30 16673 O 2244.38 -0.626867 8.61923 0
M  V30 16674 C 2246.66 -0.24586 8.30336 0
M  V30 16675 O 2247.4 -1.39011 8.63583 0
M  V30 16676 C 2245.99 -0.273849 6.91158 0
M  V30 16677 O 2246.79 -1.06348 6.02892 0
M  V30 16678 C 2244.65 -0.897649 7.22545 0
M  V30 16679 H 2244.68 -1.9841 7.04286 0
M  V30 16680 H 2245.87 0.739928 6.497 0
M  V30 16681 H 2247.35 0.60668 8.36503 0
M  V30 16682 H 2245.66 -0.352479 10.1829 0
M  V30 16683 H 2245.47 2.00611 10.0304 0
M  V30 16684 H 2243.84 1.41843 9.55327 0
M  V30 16685 H 2246.48 -1.95734 6.03555 0
M  V30 16686 P 2248.33 -1.25109 8.70152 0
M  V30 16687 O 2249.76 -1.35274 9.21221 0
M  V30 16688 O 2247.97 -0.0769065 7.84762 0
M  V30 16689 O 2248.01 -2.55232 7.81161 0
M  V30 16690 C 2247.85 -3.79939 8.58154 0
M  V30 16691 C 2248.39 -4.94023 7.72785 0
M  V30 16692 O 2247.34 -5.18726 6.91205 0
M  V30 16693 C 2249.61 -4.69597 6.85231 0
M  V30 16694 O 2250.35 -5.83832 6.51337 0
M  V30 16695 C 2248.94 -3.96706 5.66633 0
M  V30 16696 O 2249.74 -4.15414 4.49689 0
M  V30 16697 C 2247.6 -4.66153 5.59313 0
M  V30 16698 H 2247.64 -5.47679 4.85214 0
M  V30 16699 H 2248.82 -2.89008 5.86566 0
M  V30 16700 H 2250.3 -4.0121 7.36511 0
M  V30 16701 H 2248.61 -5.80182 8.37584 0
M  V30 16702 H 2248.42 -3.73517 9.52265 0
M  V30 16703 H 2246.79 -3.97163 8.80359 0
M  V30 16704 H 2249.43 -4.90969 4.01921 0
M  V30 16705 P 2251.28 -5.75688 6.64379 0
M  V30 16706 O 2252.71 -6.11849 7.01846 0
M  V30 16707 O 2250.92 -4.30744 6.56026 0
M  V30 16708 O 2250.96 -6.37042 5.19165 0
M  V30 16709 C 2250.8 -7.83578 5.16515 0
M  V30 16710 C 2251.34 -8.33398 3.83019 0
M  V30 16711 O 2250.29 -8.10074 3.01034 0
M  V30 16712 C 2252.56 -7.65514 3.2257 0
M  V30 16713 O 2253.3 -8.4329 2.32297 0
M  V30 16714 C 2251.89 -6.40075 2.62207 0
M  V30 16715 O 2252.69 -5.92589 1.53712 0
M  V30 16716 C 2250.55 -6.9454 2.18503 0
M  V30 16717 H 2250.59 -7.23063 1.12091 0
M  V30 16718 H 2251.77 -5.6025 3.37201 0
M  V30 16719 H 2253.25 -7.35707 4.02681 0
M  V30 16720 H 2251.56 -9.40912 3.9095 0
M  V30 16721 H 2251.37 -8.29056 5.99158 0
M  V30 16722 H 2249.74 -8.10073 5.25882 0
M  V30 16723 H 2252.38 -6.30324 0.726794 0
M  V30 16724 P 2254.24 -8.4349 2.47671 0
M  V30 16725 O 2255.66 -8.94167 2.5964 0
M  V30 16726 O 2253.88 -7.1704 3.19006 0
M  V30 16727 O 2253.91 -8.16596 0.923387 0
M  V30 16728 C 2253.75 -9.38437 0.108857 0
M  V30 16729 C 2254.29 -9.08175 -1.28353 0
M  V30 16730 O 2253.24 -8.44229 -1.84713 0
M  V30 16731 C 2255.51 -8.18386 -1.42505 0
M  V30 16732 O 2256.25 -8.3501 -2.60497 0
M  V30 16733 C 2254.84 -6.80225 -1.25468 0
M  V30 16734 O 2255.64 -5.81621 -1.91066 0
M  V30 16735 C 2253.5 -7.02416 -1.9168 0
M  V30 16736 H 2253.54 -6.6888 -2.96621 0
M  V30 16737 H 2254.72 -6.53617 -0.192223 0
M  V30 16738 H 2256.2 -8.36622 -0.589963 0
M  V30 16739 H 2254.51 -10.0291 -1.79807 0
M  V30 16740 H 2254.32 -10.2138 0.558219 0
M  V30 16741 H 2252.69 -9.6579 0.0444202 0
M  V30 16742 H 2255.33 -5.69556 -2.79637 0
M  V30 16743 P 2257.19 -8.4349 -2.47671 0
M  V30 16744 O 2258.61 -8.92593 -2.65 0
M  V30 16745 O 2256.83 -7.7568 -1.19296 0
M  V30 16746 O 2256.86 -7.36886 -3.63805 0
M  V30 16747 C 2256.7 -7.95349 -4.982 0
M  V30 16748 C 2257.24 -6.94612 -5.98974 0
M  V30 16749 O 2256.19 -6.10347 -6.11815 0
M  V30 16750 C 2258.46 -6.11426 -5.62335 0
M  V30 16751 O 2259.2 -5.6162 -6.70584 0
M  V30 16752 C 2257.79 -5.04409 -4.73308 0
M  V30 16753 O 2258.59 -3.85992 -4.75183 0
M  V30 16754 C 2256.46 -4.8728 -5.41006 0
M  V30 16755 H 2256.49 -4.02333 -6.11157 0
M  V30 16756 H 2257.67 -5.39466 -3.69543 0
M  V30 16757 H 2259.15 -6.71916 -5.01943 0
M  V30 16758 H 2257.46 -7.4649 -6.93477 0
M  V30 16759 H 2257.27 -8.89416 -5.05237 0
M  V30 16760 H 2255.64 -8.14876 -5.18409 0
M  V30 16761 H 2258.28 -3.27957 -5.4317 0
M  V30 16762 P 2260.14 -5.75688 -6.64379 0
M  V30 16763 O 2261.56 -6.07692 -7.0558 0
M  V30 16764 O 2259.78 -5.88047 -5.19722 0
M  V30 16765 O 2259.81 -4.2322 -7.04443 0
M  V30 16766 C 2259.65 -3.99785 -8.49201 0
M  V30 16767 C 2260.19 -2.60516 -8.79425 0
M  V30 16768 O 2259.14 -1.82663 -8.44573 0
M  V30 16769 C 2261.41 -2.10343 -8.03628 0
M  V30 16770 O 2262.15 -1.09919 -8.67766 0
M  V30 16771 C 2260.74 -1.68446 -6.70876 0
M  V30 16772 O 2261.54 -0.684109 -6.08265 0
M  V30 16773 C 2259.41 -1.17436 -7.18567 0
M  V30 16774 N 2258.36 -1.52699 -6.23988 0
M  V30 16775 C 2258.53 -2.578 -5.40574 0
M  V30 16776 N 2257.5 -2.78966 -4.61193 0
M  V30 16777 C 2256.62 -1.78725 -4.95769 0
M  V30 16778 C 2255.35 -1.45727 -4.44207 0
M  V30 16779 N 2254.75 -2.13994 -3.43613 0
M  V30 16780 N 2254.79 -0.374977 -5.05812 0
M  V30 16781 C 2255.39 0.345585 -6.05615 0
M  V30 16782 N 2256.57 0.0787651 -6.56253 0
M  V30 16783 C 2257.14 -1.00499 -5.96189 0
M  V30 16784 H 2259.44 -0.0804622 -7.31556 0
M  V30 16785 H 2260.62 -2.53396 -6.02698 0
M  V30 16786 H 2262.1 -2.93881 -7.85526 0
M  V30 16787 H 2260.41 -2.52078 -9.87225 0
M  V30 16788 H 2260.22 -4.75072 -9.05887 0
M  V30 16789 H 2258.59 -4.05244 -8.76668 0
M  V30 16790 H 2254.85 1.20098 -6.4532 0
M  V30 16791 H 2259.43 -3.18977 -5.3945 0
M  V30 16792 H 2253.82 -1.84983 -3.10004 0
M  V30 16793 H 2255.23 -2.9465 -3.00843 0
M  V30 16794 H 2261.23 0.177619 -6.34151 0
M  V30 16795 P 2263.09 -1.25109 -8.70152 0
M  V30 16796 O 2264.51 -1.29744 -9.22016 0
M  V30 16797 O 2262.73 -2.13714 -7.55141 0
M  V30 16798 O 2262.76 0.248149 -8.21425 0
M  V30 16799 C 2262.6 1.22779 -9.30434 0
M  V30 16800 C 2263.14 2.56293 -8.80664 0
M  V30 16801 O 2262.09 3.02979 -8.09349 0
M  V30 16802 C 2264.36 2.57523 -7.89775 0
M  V30 16803 O 2265.1 3.7668 -7.89438 0
M  V30 16804 C 2263.69 2.20997 -6.55446 0
M  V30 16805 O 2264.49 2.71895 -5.48509 0
M  V30 16806 C 2262.36 2.89693 -6.67988 0
M  V30 16807 H 2262.39 3.88793 -6.19859 0
M  V30 16808 H 2263.57 1.12046 -6.44229 0
M  V30 16809 H 2265.06 1.7746 -8.19711 0
M  V30 16810 H 2263.36 3.20706 -9.67112 0
M  V30 16811 H 2263.17 0.901032 -10.1892 0
M  V30 16812 H 2261.54 1.33049 -9.56592 0
M  V30 16813 H 2264.18 3.57847 -5.23962 0
M  V30 16814 P 2266.04 3.65191 -7.99657 0
M  V30 16815 O 2267.46 3.89332 -8.45794 0
M  V30 16816 O 2265.68 2.28472 -7.50807 0
M  V30 16817 O 2265.71 4.64972 -6.77611 0
M  V30 16818 C 2265.55 6.06319 -7.16352 0
M  V30 16819 C 2266.09 6.91731 -6.02299 0
M  V30 16820 O 2265.04 6.92449 -5.17064 0
M  V30 16821 C 2267.31 6.43627 -5.25174 0
M  V30 16822 O 2268.05 7.43686 -4.60469 0
M  V30 16823 C 2266.64 5.40275 -4.31916 0
M  V30 16824 O 2267.44 5.25279 -3.14438 0
M  V30 16825 C 2265.31 6.04847 -4.05327 0
M  V30 16826 H 2265.34 6.62195 -3.11261 0
M  V30 16827 H 2266.52 4.42556 -4.81383 0
M  V30 16828 H 2268.01 5.92458 -5.93643 0
M  V30 16829 H 2266.31 7.92655 -6.402 0
M  V30 16830 H 2266.12 6.26671 -8.0846 0
M  V30 16831 H 2264.49 6.29101 -7.32804 0
M  V30 16832 H 2267.13 5.84315 -2.47318 0
M  V30 16833 P 2268.99 7.39546 -4.75277 0
M  V30 16834 O 2270.41 7.84798 -5.01039 0
M  V30 16835 O 2268.63 5.9812 -5.08098 0
M  V30 16836 O 2268.67 7.57503 -3.1866 0
M  V30 16837 C 2268.51 8.97357 -2.74833 0
M  V30 16838 C 2269.05 9.07548 -1.32709 0
M  V30 16839 O 2267.99 8.62072 -0.606159 0
M  V30 16840 C 2270.26 8.25383 -0.938334 0
M  V30 16841 O 2271 8.74577 0.146954 0
M  V30 16842 C 2269.59 6.8802 -0.712559 0
M  V30 16843 O 2270.39 6.1189 0.194655 0
M  V30 16844 C 2268.26 7.27966 -0.139777 0
M  V30 16845 H 2268.29 7.25354 0.961601 0
M  V30 16846 H 2269.47 6.32557 -1.65702 0
M  V30 16847 H 2270.96 8.19355 -1.79097 0
M  V30 16848 H 2269.26 10.1294 -1.10029 0
M  V30 16849 H 2269.07 9.64276 -3.41316 0
M  V30 16850 H 2267.44 9.25417 -2.76357 0
M  V30 16851 H 2270.08 6.25267 1.07847 0
M  V30 16852 P 2271.94 8.791 1.97128e-11 0
M  V30 16853 O 2273.36 9.31096 0.027933 0
M  V30 16854 O 2271.58 7.77869 -1.04071 0
M  V30 16855 O 2271.62 8.09533 1.41463 0
M  V30 16856 C 2271.46 9.0349 2.53943 0
M  V30 16857 C 2272 8.35226 3.79016 0
M  V30 16858 O 2270.94 7.57992 4.15078 0
M  V30 16859 C 2273.21 7.45087 3.67298 0
M  V30 16860 O 2273.95 7.27796 4.85194 0
M  V30 16861 C 2272.54 6.17323 3.12027 0
M  V30 16862 O 2273.34 5.04231 3.47188 0
M  V30 16863 C 2271.21 6.19961 3.81809 0
M  V30 16864 H 2271.24 5.58218 4.73051 0
M  V30 16865 H 2272.42 6.21726 2.02589 0
M  V30 16866 H 2273.91 7.86112 2.9231 0
M  V30 16867 H 2272.21 9.11627 4.55076 0
M  V30 16868 H 2272.02 9.9573 2.34194 0
M  V30 16869 H 2270.39 9.2792 2.67832 0
M  V30 16870 H 2273.03 4.67702 4.28772 0
M  V30 16871 P 2274.89 7.39546 4.75277 0
M  V30 16872 O 2276.31 7.81777 5.05738 0
M  V30 16873 O 2274.53 7.1065 3.32998 0
M  V30 16874 O 2274.57 6.04542 5.56673 0
M  V30 16875 C 2274.41 6.22772 7.02095 0
M  V30 16876 C 2274.95 4.97725 7.70406 0
M  V30 16877 O 2273.89 4.13256 7.58987 0
M  V30 16878 C 2276.16 4.28231 7.11815 0
M  V30 16879 O 2276.9 3.49945 8.01648 0
M  V30 16880 C 2275.5 3.5063 5.96244 0
M  V30 16881 O 2276.29 2.36482 5.64681 0
M  V30 16882 C 2274.16 3.15122 6.56374 0
M  V30 16883 H 2274.19 2.13853 6.99751 0
M  V30 16884 H 2275.37 4.13501 5.06559 0
M  V30 16885 H 2276.86 5.03285 6.70911 0
M  V30 16886 H 2275.16 5.20877 8.75697 0
M  V30 16887 H 2274.97 7.11046 7.35349 0
M  V30 16888 H 2273.34 6.35815 7.26986 0
M  V30 16889 H 2275.98 1.61644 6.13565 0
M  V30 16890 P 2277.84 3.65191 7.99657 0
M  V30 16891 O 2279.26 3.8425 8.48115 0
M  V30 16892 O 2277.48 4.17805 6.64342 0
M  V30 16893 O 2277.52 2.07613 7.95143 0
M  V30 16894 C 2277.36 1.44328 9.27336 0
M  V30 16895 C 2277.9 0.0220036 9.17197 0
M  V30 16896 O 2276.84 -0.626867 8.61923 0
M  V30 16897 C 2279.12 -0.24586 8.30336 0
M  V30 16898 O 2279.85 -1.39011 8.63583 0
M  V30 16899 C 2278.45 -0.273849 6.91158 0
M  V30 16900 O 2279.25 -1.06348 6.02892 0
M  V30 16901 C 2277.11 -0.897649 7.22545 0
M  V30 16902 H 2277.14 -1.9841 7.04286 0
M  V30 16903 H 2278.32 0.739928 6.497 0
M  V30 16904 H 2279.81 0.60668 8.36503 0
M  V30 16905 H 2278.11 -0.352479 10.1829 0
M  V30 16906 H 2277.92 2.00611 10.0304 0
M  V30 16907 H 2276.29 1.41843 9.55327 0
M  V30 16908 H 2278.93 -1.95734 6.03555 0
M  V30 16909 P 2280.79 -1.25109 8.70152 0
M  V30 16910 O 2282.19 -1.31452 9.27431 0
M  V30 16911 O 2280.41 -0.0458113 7.89887 0
M  V30 16912 O 2280.47 -2.55201 7.81066 0
M  V30 16913 C 2280.31 -3.79939 8.58154 0
M  V30 16914 C 2280.85 -4.93969 7.72701 0
M  V30 16915 O 2279.79 -5.18666 6.91125 0
M  V30 16916 C 2282.06 -4.69597 6.85231 0
M  V30 16917 O 2282.8 -5.83832 6.51337 0
M  V30 16918 C 2281.4 -3.96706 5.66633 0
M  V30 16919 O 2282.2 -4.15346 4.49615 0
M  V30 16920 C 2280.06 -4.66153 5.59313 0
M  V30 16921 N 2279.02 -3.71582 5.24027 0
M  V30 16922 C 2277.98 -4.15133 4.44901 0
M  V30 16923 O 2278.02 -5.32122 4.00336 0
M  V30 16924 N 2276.97 -3.30554 4.15693 0
M  V30 16925 C 2277.02 -2.04701 4.61105 0
M  V30 16926 C 2278.11 -1.57111 5.38655 0
M  V30 16927 C 2279.08 -2.44234 5.68454 0
M  V30 16928 H 2280.09 -5.47604 4.85148 0
M  V30 16929 H 2281.27 -2.8955 5.86187 0
M  V30 16930 H 2282.76 -4.01995 7.36197 0
M  V30 16931 H 2281.06 -5.81019 8.37003 0
M  V30 16932 H 2280.87 -3.73517 9.52265 0
M  V30 16933 H 2279.24 -3.97122 8.80267 0
M  V30 16934 H 2278.16 -0.538464 5.72373 0
M  V30 16935 H 2279.93 -2.11927 6.29377 0
M  V30 16936 H 2281.98 -4.98352 4.09633 0
M  V30 16937 P 2283.74 -5.75688 6.64379 0
M  V30 16938 O 2285.16 -6.11849 7.01846 0
M  V30 16939 O 2283.38 -4.30744 6.56026 0
M  V30 16940 O 2283.42 -6.37042 5.19165 0
M  V30 16941 C 2283.26 -7.83578 5.16515 0
M  V30 16942 C 2283.8 -8.33398 3.83019 0
M  V30 16943 O 2282.74 -8.10074 3.01034 0
M  V30 16944 C 2285.02 -7.65514 3.2257 0
M  V30 16945 O 2285.75 -8.4329 2.32297 0
M  V30 16946 C 2284.35 -6.40075 2.62207 0
M  V30 16947 O 2285.15 -5.92589 1.53712 0
M  V30 16948 C 2283.01 -6.9454 2.18503 0
M  V30 16949 H 2283.04 -7.23063 1.12091 0
M  V30 16950 H 2284.23 -5.6025 3.37201 0
M  V30 16951 H 2285.71 -7.35707 4.02681 0
M  V30 16952 H 2284.02 -9.40912 3.9095 0
M  V30 16953 H 2283.83 -8.29056 5.99158 0
M  V30 16954 H 2282.2 -8.10073 5.25882 0
M  V30 16955 H 2284.83 -6.30324 0.726794 0
M  V30 16956 P 2286.69 -8.4349 2.47671 0
M  V30 16957 O 2288.11 -8.94167 2.5964 0
M  V30 16958 O 2286.33 -7.1704 3.19006 0
M  V30 16959 O 2286.37 -8.16596 0.923387 0
M  V30 16960 C 2286.21 -9.38437 0.108857 0
M  V30 16961 C 2286.75 -9.08175 -1.28353 0
M  V30 16962 O 2285.69 -8.44229 -1.84713 0
M  V30 16963 C 2287.97 -8.18386 -1.42505 0
M  V30 16964 O 2288.7 -8.3501 -2.60497 0
M  V30 16965 C 2287.3 -6.80225 -1.25468 0
M  V30 16966 O 2288.1 -5.81621 -1.91066 0
M  V30 16967 C 2285.96 -7.02416 -1.9168 0
M  V30 16968 H 2285.99 -6.6888 -2.96621 0
M  V30 16969 H 2287.18 -6.53617 -0.192223 0
M  V30 16970 H 2288.66 -8.36622 -0.589963 0
M  V30 16971 H 2286.97 -10.0291 -1.79807 0
M  V30 16972 H 2286.78 -10.2138 0.558219 0
M  V30 16973 H 2285.15 -9.6579 0.0444202 0
M  V30 16974 H 2287.78 -5.69556 -2.79637 0
M  V30 16975 P 2289.64 -8.4349 -2.47671 0
M  V30 16976 O 2291.04 -8.99283 -2.62101 0
M  V30 16977 O 2289.26 -7.81195 -1.16947 0
M  V30 16978 O 2289.32 -7.36797 -3.63761 0
M  V30 16979 C 2289.16 -7.95349 -4.982 0
M  V30 16980 C 2289.7 -6.94537 -5.98908 0
M  V30 16981 O 2288.64 -6.10277 -6.11744 0
M  V30 16982 C 2290.92 -6.11426 -5.62335 0
M  V30 16983 O 2291.66 -5.6162 -6.70584 0
M  V30 16984 C 2290.25 -5.04409 -4.73308 0
M  V30 16985 O 2291.05 -3.85929 -4.75106 0
M  V30 16986 C 2288.91 -4.8728 -5.41006 0
M  V30 16987 N 2287.87 -4.65812 -4.42377 0
M  V30 16988 C 2286.83 -3.81293 -4.74224 0
M  V30 16989 O 2286.87 -3.20533 -5.83679 0
M  V30 16990 N 2285.82 -3.6442 -3.86349 0
M  V30 16991 C 2285.87 -4.2728 -2.6824 0
M  V30 16992 C 2286.97 -5.10813 -2.3217 0
M  V30 16993 C 2287.93 -5.27909 -3.22647 0
M  V30 16994 H 2288.94 -4.02278 -6.11074 0
M  V30 16995 H 2290.13 -5.39013 -3.70026 0
M  V30 16996 H 2291.61 -6.71494 -5.02675 0
M  V30 16997 H 2289.92 -7.45796 -6.94223 0
M  V30 16998 H 2289.73 -8.89416 -5.05237 0
M  V30 16999 H 2288.1 -8.14791 -5.18355 0
M  V30 17000 H 2287.01 -5.58884 -1.34755 0
M  V30 17001 H 2288.78 -5.92811 -2.9934 0
M  V30 17002 H 2290.83 -3.3454 -5.51577 0
M  V30 17003 P 2292.59 -5.75688 -6.64379 0
M  V30 17004 O 2294.01 -6.07627 -7.05504 0
M  V30 17005 O 2292.23 -5.88047 -5.19722 0
M  V30 17006 O 2292.27 -4.2322 -7.04443 0
M  V30 17007 C 2292.11 -3.99743 -8.4911 0
M  V30 17008 C 2292.65 -2.60516 -8.79425 0
M  V30 17009 O 2291.59 -1.82684 -8.4467 0
M  V30 17010 C 2293.87 -2.10343 -8.03628 0
M  V30 17011 O 2294.61 -1.09919 -8.67766 0
M  V30 17012 C 2293.2 -1.68446 -6.70876 0
M  V30 17013 O 2294 -0.678137 -6.08433 0
M  V30 17014 C 2291.86 -1.17436 -7.18567 0
M  V30 17015 H 2291.89 -0.0804732 -7.31656 0
M  V30 17016 H 2293.08 -2.54037 -6.02537 0
M  V30 17017 H 2294.56 -2.93881 -7.85526 0
M  V30 17018 H 2292.87 -2.53065 -9.86973 0
M  V30 17019 H 2292.68 -4.75072 -9.05887 0
M  V30 17020 H 2291.05 -4.05244 -8.76668 0
M  V30 17021 H 2293.69 0.177647 -6.34251 0
M  V30 17022 P 2295.54 -1.25109 -8.70152 0
M  V30 17023 O 2296.97 -1.29744 -9.22016 0
M  V30 17024 O 2295.18 -2.13714 -7.55141 0
M  V30 17025 O 2295.22 0.248149 -8.21425 0
M  V30 17026 C 2295.06 1.22779 -9.30434 0
M  V30 17027 C 2295.6 2.56293 -8.80664 0
M  V30 17028 O 2294.54 3.02979 -8.09349 0
M  V30 17029 C 2296.82 2.57523 -7.89775 0
M  V30 17030 O 2297.56 3.7668 -7.89438 0
M  V30 17031 C 2296.15 2.20997 -6.55446 0
M  V30 17032 O 2296.95 2.71895 -5.48509 0
M  V30 17033 C 2294.81 2.89693 -6.67988 0
M  V30 17034 H 2294.84 3.88793 -6.19859 0
M  V30 17035 H 2296.03 1.12046 -6.44229 0
M  V30 17036 H 2297.51 1.7746 -8.19711 0
M  V30 17037 H 2295.82 3.20706 -9.67112 0
M  V30 17038 H 2295.63 0.901032 -10.1892 0
M  V30 17039 H 2294 1.33049 -9.56592 0
M  V30 17040 H 2296.64 3.57847 -5.23962 0
M  V30 17041 P 2298.49 3.65191 -7.99657 0
M  V30 17042 O 2299.92 3.89416 -8.45976 0
M  V30 17043 O 2298.13 2.28472 -7.50807 0
M  V30 17044 O 2298.17 4.64972 -6.77611 0
M  V30 17045 C 2298.01 6.06319 -7.16352 0
M  V30 17046 C 2298.55 6.91655 -6.02234 0
M  V30 17047 O 2297.5 6.92449 -5.17064 0
M  V30 17048 C 2299.77 6.43627 -5.25174 0
M  V30 17049 O 2300.51 7.43686 -4.60469 0
M  V30 17050 C 2299.1 5.40275 -4.31916 0
M  V30 17051 O 2299.9 5.25193 -3.14386 0
M  V30 17052 C 2297.76 6.04847 -4.05327 0
M  V30 17053 N 2296.72 5.04166 -3.98114 0
M  V30 17054 C 2296.78 3.96049 -4.75587 0
M  V30 17055 N 2295.74 3.15559 -4.54006 0
M  V30 17056 C 2295 3.78802 -3.62491 0
M  V30 17057 C 2293.7 3.476 -3.10071 0
M  V30 17058 O 2292.96 2.51136 -3.37021 0
M  V30 17059 N 2293.27 4.39088 -2.19956 0
M  V30 17060 C 2294.02 5.53215 -1.81733 0
M  V30 17061 N 2293.42 6.31963 -0.860928 0
M  V30 17062 N 2295.17 5.86688 -2.32562 0
M  V30 17063 C 2295.63 4.97525 -3.23407 0
M  V30 17064 H 2297.8 6.62195 -3.11261 0
M  V30 17065 H 2298.98 4.42488 -4.8131 0
M  V30 17066 H 2300.46 5.93051 -5.9305 0
M  V30 17067 H 2298.77 7.92655 -6.402 0
M  V30 17068 H 2298.58 6.26671 -8.0846 0
M  V30 17069 H 2296.95 6.29101 -7.32804 0
M  V30 17070 H 2292.37 4.25523 -1.77604 0
M  V30 17071 H 2297.58 3.75576 -5.47333 0
M  V30 17072 H 2292.51 6.04684 -0.468946 0
M  V30 17073 H 2293.88 7.18054 -0.542422 0
M  V30 17074 H 2299.59 5.84223 -2.47279 0
M  V30 17075 P 2301.44 7.39546 -4.75277 0
M  V30 17076 O 2302.87 7.84798 -5.01039 0
M  V30 17077 O 2301.08 5.9812 -5.08098 0
M  V30 17078 O 2301.12 7.57503 -3.1866 0
M  V30 17079 C 2300.96 8.97357 -2.74833 0
M  V30 17080 C 2301.5 9.07548 -1.32709 0
M  V30 17081 O 2300.45 8.62072 -0.606159 0
M  V30 17082 C 2302.72 8.25383 -0.938334 0
M  V30 17083 O 2303.46 8.74577 0.146954 0
M  V30 17084 C 2302.05 6.8802 -0.712559 0
M  V30 17085 O 2302.85 6.1189 0.194655 0
M  V30 17086 C 2300.71 7.27966 -0.139777 0
M  V30 17087 H 2300.75 7.25354 0.961601 0
M  V30 17088 H 2301.93 6.32557 -1.65702 0
M  V30 17089 H 2303.41 8.19355 -1.79097 0
M  V30 17090 H 2301.72 10.1294 -1.10029 0
M  V30 17091 H 2301.53 9.64276 -3.41316 0
M  V30 17092 H 2299.9 9.25417 -2.76357 0
M  V30 17093 H 2302.54 6.25267 1.07847 0
M  V30 17094 P 2304.4 8.791 2.00229e-11 0
M  V30 17095 O 2305.82 9.31096 0.027933 0
M  V30 17096 O 2304.04 7.77869 -1.04071 0
M  V30 17097 O 2304.07 8.09533 1.41463 0
M  V30 17098 C 2303.91 9.0349 2.53943 0
M  V30 17099 C 2304.45 8.35226 3.79016 0
M  V30 17100 O 2303.4 7.57992 4.15078 0
M  V30 17101 C 2305.67 7.45087 3.67298 0
M  V30 17102 O 2306.41 7.27796 4.85194 0
M  V30 17103 C 2305 6.17323 3.12027 0
M  V30 17104 O 2305.8 5.04231 3.47188 0
M  V30 17105 C 2303.66 6.19961 3.81809 0
M  V30 17106 H 2303.7 5.58218 4.73051 0
M  V30 17107 H 2304.88 6.21726 2.02589 0
M  V30 17108 H 2306.36 7.86112 2.9231 0
M  V30 17109 H 2304.67 9.11627 4.55076 0
M  V30 17110 H 2304.48 9.9573 2.34194 0
M  V30 17111 H 2302.85 9.2792 2.67832 0
M  V30 17112 H 2305.49 4.67702 4.28772 0
M  V30 17113 P 2307.35 7.39546 4.75277 0
M  V30 17114 O 2308.77 7.81777 5.05738 0
M  V30 17115 O 2306.99 7.1065 3.32998 0
M  V30 17116 O 2307.02 6.04542 5.56673 0
M  V30 17117 C 2306.86 6.22772 7.02095 0
M  V30 17118 C 2307.4 4.97725 7.70406 0
M  V30 17119 O 2306.35 4.13256 7.58987 0
M  V30 17120 C 2308.62 4.28231 7.11815 0
M  V30 17121 O 2309.36 3.49945 8.01648 0
M  V30 17122 C 2307.95 3.5063 5.96244 0
M  V30 17123 O 2308.75 2.36482 5.64681 0
M  V30 17124 C 2306.61 3.15122 6.56374 0
M  V30 17125 H 2306.65 2.13853 6.99751 0
M  V30 17126 H 2307.83 4.13501 5.06559 0
M  V30 17127 H 2309.31 5.03285 6.70911 0
M  V30 17128 H 2307.62 5.20877 8.75697 0
M  V30 17129 H 2307.43 7.11046 7.35349 0
M  V30 17130 H 2305.8 6.35815 7.26986 0
M  V30 17131 H 2308.44 1.61644 6.13565 0
M  V30 17132 P 2310.3 3.65191 7.99657 0
M  V30 17133 O 2311.72 3.84292 8.48206 0
M  V30 17134 O 2309.94 4.17805 6.64342 0
M  V30 17135 O 2309.97 2.07613 7.95143 0
M  V30 17136 C 2309.81 1.44344 9.27435 0
M  V30 17137 C 2310.35 0.0220036 9.17197 0
M  V30 17138 O 2309.3 -0.626794 8.61824 0
M  V30 17139 C 2311.57 -0.24586 8.30336 0
M  V30 17140 O 2312.31 -1.39011 8.63583 0
M  V30 17141 C 2310.9 -0.273849 6.91158 0
M  V30 17142 O 2311.7 -1.05728 6.029 0
M  V30 17143 C 2309.57 -0.897649 7.22545 0
M  V30 17144 N 2308.52 -0.292839 6.41732 0
M  V30 17145 C 2308.69 0.950603 5.91308 0
M  V30 17146 N 2307.66 1.37732 5.21105 0
M  V30 17147 C 2306.78 0.318109 5.26039 0
M  V30 17148 C 2305.51 0.146766 4.6727 0
M  V30 17149 N 2304.95 -1.06525 4.95887 0
M  V30 17150 C 2305.55 -2.0378 5.71347 0
M  V30 17151 N 2306.73 -1.92445 6.27451 0
M  V30 17152 C 2307.3 -0.715382 6.00353 0
M  V30 17153 H 2310.78 0.733318 6.49674 0
M  V30 17154 H 2312.26 0.60668 8.36503 0
M  V30 17155 H 2310.57 -0.362662 10.1825 0
M  V30 17156 H 2310.38 2.00611 10.0304 0
M  V30 17157 H 2308.75 1.41843 9.55327 0
M  V30 17158 H 2309.59 1.54076 6.07465 0
M  V30 17159 H 2311.39 -1.95704 6.0346 0
M  V30 17160 P 2313.25 -1.25109 8.70152 0
M  V30 17161 O 2314.67 -1.35274 9.21221 0
M  V30 17162 O 2312.89 -0.0769065 7.84762 0
M  V30 17163 O 2312.92 -2.55232 7.81161 0
M  V30 17164 C 2312.76 -3.79939 8.58154 0
M  V30 17165 C 2313.3 -4.94023 7.72785 0
M  V30 17166 O 2312.25 -5.18726 6.91205 0
M  V30 17167 C 2314.52 -4.69597 6.85231 0
M  V30 17168 O 2315.26 -5.83832 6.51337 0
M  V30 17169 C 2313.85 -3.96706 5.66633 0
M  V30 17170 O 2314.65 -4.15414 4.49689 0
M  V30 17171 C 2312.52 -4.66153 5.59313 0
M  V30 17172 H 2312.55 -5.47679 4.85214 0
M  V30 17173 H 2313.73 -2.89008 5.86566 0
M  V30 17174 H 2315.21 -4.0121 7.36511 0
M  V30 17175 H 2313.52 -5.80182 8.37584 0
M  V30 17176 H 2313.33 -3.73517 9.52265 0
M  V30 17177 H 2311.7 -3.97163 8.80359 0
M  V30 17178 H 2314.34 -4.90969 4.01921 0
M  V30 17179 P 2316.2 -5.75688 6.64379 0
M  V30 17180 O 2317.62 -6.11849 7.01846 0
M  V30 17181 O 2315.84 -4.30744 6.56026 0
M  V30 17182 O 2315.87 -6.37042 5.19165 0
M  V30 17183 C 2315.71 -7.83578 5.16515 0
M  V30 17184 C 2316.25 -8.33398 3.83019 0
M  V30 17185 O 2315.2 -8.10074 3.01034 0
M  V30 17186 C 2317.47 -7.65514 3.2257 0
M  V30 17187 O 2318.21 -8.4329 2.32297 0
M  V30 17188 C 2316.8 -6.40075 2.62207 0
M  V30 17189 O 2317.6 -5.92589 1.53712 0
M  V30 17190 C 2315.47 -6.9454 2.18503 0
M  V30 17191 H 2315.5 -7.23063 1.12091 0
M  V30 17192 H 2316.68 -5.6025 3.37201 0
M  V30 17193 H 2318.17 -7.35707 4.02681 0
M  V30 17194 H 2316.47 -9.40912 3.9095 0
M  V30 17195 H 2316.28 -8.29056 5.99158 0
M  V30 17196 H 2314.65 -8.10073 5.25882 0
M  V30 17197 H 2317.29 -6.30324 0.726794 0
M  V30 17198 P 2319.15 -8.4349 2.47671 0
M  V30 17199 O 2320.57 -8.94263 2.59668 0
M  V30 17200 O 2318.79 -7.1704 3.19006 0
M  V30 17201 O 2318.83 -8.16596 0.923387 0
M  V30 17202 C 2318.66 -9.38537 0.108869 0
M  V30 17203 C 2319.21 -9.08175 -1.28353 0
M  V30 17204 O 2318.15 -8.44131 -1.84692 0
M  V30 17205 C 2320.42 -8.18386 -1.42505 0
M  V30 17206 O 2321.16 -8.3501 -2.60497 0
M  V30 17207 C 2319.76 -6.80225 -1.25468 0
M  V30 17208 O 2320.55 -5.81716 -1.90454 0
M  V30 17209 C 2318.42 -7.02416 -1.9168 0
M  V30 17210 N 2317.37 -6.31033 -1.20314 0
M  V30 17211 C 2317.54 -5.98817 0.0994088 0
M  V30 17212 N 2316.52 -5.35403 0.621694 0
M  V30 17213 C 2315.63 -5.25212 -0.43376 0
M  V30 17214 C 2314.36 -4.64602 -0.519722 0
M  V30 17215 N 2313.8 -4.7568 -1.76013 0
M  V30 17216 C 2314.4 -5.3653 -2.83017 0
M  V30 17217 N 2315.58 -5.93676 -2.79782 0
M  V30 17218 C 2316.15 -5.84061 -1.56249 0
M  V30 17219 H 2319.63 -6.53498 -0.198729 0
M  V30 17220 H 2321.12 -8.36622 -0.589963 0
M  V30 17221 H 2319.42 -10.0273 -1.8081 0
M  V30 17222 H 2319.23 -10.2138 0.558219 0
M  V30 17223 H 2317.6 -9.6579 0.0444202 0
M  V30 17224 H 2318.44 -6.23209 0.660562 0
M  V30 17225 H 2320.24 -5.69466 -2.79593 0
M  V30 17226 P 2322.1 -8.4349 -2.47671 0
M  V30 17227 O 2323.52 -8.92593 -2.65 0
M  V30 17228 O 2321.74 -7.7568 -1.19296 0
M  V30 17229 O 2321.78 -7.36886 -3.63805 0
M  V30 17230 C 2321.62 -7.95349 -4.982 0
M  V30 17231 C 2322.16 -6.94612 -5.98974 0
M  V30 17232 O 2321.1 -6.10347 -6.11815 0
M  V30 17233 C 2323.37 -6.11426 -5.62335 0
M  V30 17234 O 2324.11 -5.6162 -6.70584 0
M  V30 17235 C 2322.7 -5.04409 -4.73308 0
M  V30 17236 O 2323.5 -3.85992 -4.75183 0
M  V30 17237 C 2321.37 -4.8728 -5.41006 0
M  V30 17238 H 2321.4 -4.02333 -6.11157 0
M  V30 17239 H 2322.58 -5.39466 -3.69543 0
M  V30 17240 H 2324.07 -6.71916 -5.01943 0
M  V30 17241 H 2322.37 -7.4649 -6.93477 0
M  V30 17242 H 2322.18 -8.89416 -5.05237 0
M  V30 17243 H 2320.55 -8.14876 -5.18409 0
M  V30 17244 H 2323.19 -3.27957 -5.4317 0
M  V30 17245 P 2325.05 -5.75688 -6.64379 0
M  V30 17246 O 2326.47 -6.07627 -7.05504 0
M  V30 17247 O 2324.69 -5.88047 -5.19722 0
M  V30 17248 O 2324.73 -4.2322 -7.04443 0
M  V30 17249 C 2324.57 -3.99743 -8.4911 0
M  V30 17250 C 2325.11 -2.60516 -8.79425 0
M  V30 17251 O 2324.05 -1.82684 -8.4467 0
M  V30 17252 C 2326.32 -2.10343 -8.03628 0
M  V30 17253 O 2327.06 -1.09919 -8.67766 0
M  V30 17254 C 2325.66 -1.68446 -6.70876 0
M  V30 17255 O 2326.45 -0.678137 -6.08433 0
M  V30 17256 C 2324.32 -1.17436 -7.18567 0
M  V30 17257 H 2324.35 -0.0804732 -7.31656 0
M  V30 17258 H 2325.53 -2.54037 -6.02537 0
M  V30 17259 H 2327.02 -2.93881 -7.85526 0
M  V30 17260 H 2325.32 -2.53065 -9.86973 0
M  V30 17261 H 2325.13 -4.75072 -9.05887 0
M  V30 17262 H 2323.5 -4.05244 -8.76668 0
M  V30 17263 H 2326.14 0.177647 -6.34251 0
M  V30 17264 P 2328 -1.25109 -8.70152 0
M  V30 17265 O 2329.4 -1.3516 -9.26897 0
M  V30 17266 O 2327.62 -2.18141 -7.59181 0
M  V30 17267 O 2327.68 0.248118 -8.21325 0
M  V30 17268 C 2327.52 1.22779 -9.30434 0
M  V30 17269 C 2328.06 2.56265 -8.80568 0
M  V30 17270 O 2327 3.02944 -8.09255 0
M  V30 17271 C 2329.27 2.57523 -7.89775 0
M  V30 17272 O 2330.01 3.7668 -7.89438 0
M  V30 17273 C 2328.61 2.20997 -6.55446 0
M  V30 17274 O 2329.4 2.71851 -5.48419 0
M  V30 17275 C 2327.27 2.89693 -6.67988 0
M  V30 17276 N 2326.23 2.08895 -6.07487 0
M  V30 17277 C 2325.19 2.72974 -5.43836 0
M  V30 17278 O 2325.23 3.97779 -5.34036 0
M  V30 17279 N 2324.18 2.0005 -4.91983 0
M  V30 17280 C 2324.23 0.66501 -5.00098 0
M  V30 17281 C 2325.32 -0.0100979 -5.61099 0
M  V30 17282 C 2326.29 0.74189 -6.14236 0
M  V30 17283 H 2327.3 3.8874 -6.19774 0
M  V30 17284 H 2328.48 1.12673 -6.44018 0
M  V30 17285 H 2329.97 1.783 -8.19631 0
M  V30 17286 H 2328.27 3.21673 -9.66791 0
M  V30 17287 H 2328.08 0.901032 -10.1892 0
M  V30 17288 H 2326.45 1.33036 -9.56493 0
M  V30 17289 H 2325.37 -1.09591 -5.64358 0
M  V30 17290 H 2327.13 0.260263 -6.6359 0
M  V30 17291 H 2329.19 3.62759 -5.33442 0
M  V30 17292 P 2330.95 3.65191 -7.99657 0
M  V30 17293 O 2332.37 3.89332 -8.45794 0
M  V30 17294 O 2330.59 2.28472 -7.50807 0
M  V30 17295 O 2330.63 4.64972 -6.77611 0
M  V30 17296 C 2330.47 6.06319 -7.16352 0
M  V30 17297 C 2331.01 6.91731 -6.02299 0
M  V30 17298 O 2329.95 6.92449 -5.17064 0
M  V30 17299 C 2332.23 6.43627 -5.25174 0
M  V30 17300 O 2332.96 7.43686 -4.60469 0
M  V30 17301 C 2331.56 5.40275 -4.31916 0
M  V30 17302 O 2332.36 5.25279 -3.14438 0
M  V30 17303 C 2330.22 6.04847 -4.05327 0
M  V30 17304 H 2330.25 6.62195 -3.11261 0
M  V30 17305 H 2331.43 4.42556 -4.81383 0
M  V30 17306 H 2332.92 5.92458 -5.93643 0
M  V30 17307 H 2331.22 7.92655 -6.402 0
M  V30 17308 H 2331.03 6.26671 -8.0846 0
M  V30 17309 H 2329.4 6.29101 -7.32804 0
M  V30 17310 H 2332.04 5.84315 -2.47318 0
M  V30 17311 P 2333.9 7.39546 -4.75277 0
M  V30 17312 O 2335.32 7.84882 -5.01092 0
M  V30 17313 O 2333.54 5.9812 -5.08098 0
M  V30 17314 O 2333.58 7.57503 -3.1866 0
M  V30 17315 C 2333.42 8.97452 -2.74862 0
M  V30 17316 C 2333.96 9.07548 -1.32709 0
M  V30 17317 O 2332.9 8.61972 -0.606089 0
M  V30 17318 C 2335.18 8.25383 -0.938334 0
M  V30 17319 O 2335.91 8.74577 0.146954 0
M  V30 17320 C 2334.51 6.8802 -0.712559 0
M  V30 17321 O 2335.31 6.1181 0.188505 0
M  V30 17322 C 2333.17 7.27966 -0.139777 0
M  V30 17323 N 2332.13 6.39368 -0.623421 0
M  V30 17324 C 2332.3 5.71761 -1.78245 0
M  V30 17325 N 2331.27 4.962 -2.10491 0
M  V30 17326 C 2330.38 5.16158 -1.0635 0
M  V30 17327 C 2329.12 4.60425 -0.810266 0
M  V30 17328 N 2328.55 5.06 0.348685 0
M  V30 17329 C 2329.15 5.94532 1.20395 0
M  V30 17330 N 2330.33 6.48452 1.01191 0
M  V30 17331 C 2330.91 6.04423 -0.146291 0
M  V30 17332 H 2334.38 6.32625 -1.65044 0
M  V30 17333 H 2335.87 8.19355 -1.79097 0
M  V30 17334 H 2334.17 10.1305 -1.09016 0
M  V30 17335 H 2333.98 9.64276 -3.41316 0
M  V30 17336 H 2332.35 9.25417 -2.76357 0
M  V30 17337 H 2333.2 5.79354 -2.38959 0
M  V30 17338 H 2334.99 6.25169 1.0783 0
M  V30 17339 P 2336.85 8.791 2.03331e-11 0
M  V30 17340 O 2338.27 9.31096 0.027933 0
M  V30 17341 O 2336.49 7.77869 -1.04071 0
M  V30 17342 O 2336.53 8.09533 1.41463 0
M  V30 17343 C 2336.37 9.0349 2.53943 0
M  V30 17344 C 2336.91 8.35226 3.79016 0
M  V30 17345 O 2335.85 7.57992 4.15078 0
M  V30 17346 C 2338.13 7.45087 3.67298 0
M  V30 17347 O 2338.86 7.27796 4.85194 0
M  V30 17348 C 2337.46 6.17323 3.12027 0
M  V30 17349 O 2338.26 5.04231 3.47188 0
M  V30 17350 C 2336.12 6.19961 3.81809 0
M  V30 17351 H 2336.15 5.58218 4.73051 0
M  V30 17352 H 2337.34 6.21726 2.02589 0
M  V30 17353 H 2338.82 7.86112 2.9231 0
M  V30 17354 H 2337.13 9.11627 4.55076 0
M  V30 17355 H 2336.94 9.9573 2.34194 0
M  V30 17356 H 2335.31 9.2792 2.67832 0
M  V30 17357 H 2337.94 4.67702 4.28772 0
M  V30 17358 P 2339.8 7.39546 4.75277 0
M  V30 17359 O 2341.22 7.81777 5.05738 0
M  V30 17360 O 2339.44 7.1065 3.32998 0
M  V30 17361 O 2339.48 6.04542 5.56673 0
M  V30 17362 C 2339.32 6.22772 7.02095 0
M  V30 17363 C 2339.86 4.97725 7.70406 0
M  V30 17364 O 2338.8 4.13256 7.58987 0
M  V30 17365 C 2341.08 4.28231 7.11815 0
M  V30 17366 O 2341.82 3.49945 8.01648 0
M  V30 17367 C 2340.41 3.5063 5.96244 0
M  V30 17368 O 2341.21 2.36482 5.64681 0
M  V30 17369 C 2339.07 3.15122 6.56374 0
M  V30 17370 H 2339.1 2.13853 6.99751 0
M  V30 17371 H 2340.29 4.13501 5.06559 0
M  V30 17372 H 2341.77 5.03285 6.70911 0
M  V30 17373 H 2340.08 5.20877 8.75697 0
M  V30 17374 H 2339.89 7.11046 7.35349 0
M  V30 17375 H 2338.26 6.35815 7.26986 0
M  V30 17376 H 2340.9 1.61644 6.13565 0
M  V30 17377 P 2342.75 3.65191 7.99657 0
M  V30 17378 O 2344.17 3.8425 8.48115 0
M  V30 17379 O 2342.39 4.17805 6.64342 0
M  V30 17380 O 2342.43 2.07613 7.95143 0
M  V30 17381 C 2342.27 1.44328 9.27336 0
M  V30 17382 C 2342.81 0.0220036 9.17197 0
M  V30 17383 O 2341.75 -0.626867 8.61923 0
M  V30 17384 C 2344.03 -0.24586 8.30336 0
M  V30 17385 O 2344.77 -1.39011 8.63583 0
M  V30 17386 C 2343.36 -0.273849 6.91158 0
M  V30 17387 O 2344.16 -1.06348 6.02892 0
M  V30 17388 C 2342.02 -0.897649 7.22545 0
M  V30 17389 H 2342.05 -1.9841 7.04286 0
M  V30 17390 H 2343.24 0.739928 6.497 0
M  V30 17391 H 2344.72 0.60668 8.36503 0
M  V30 17392 H 2343.03 -0.352479 10.1829 0
M  V30 17393 H 2342.84 2.00611 10.0304 0
M  V30 17394 H 2341.21 1.41843 9.55327 0
M  V30 17395 H 2343.85 -1.95734 6.03555 0
M  V30 17396 P 2345.7 -1.25109 8.70152 0
M  V30 17397 O 2347.13 -1.35274 9.21221 0
M  V30 17398 O 2345.34 -0.0769065 7.84762 0
M  V30 17399 O 2345.38 -2.55232 7.81161 0
M  V30 17400 C 2345.22 -3.79939 8.58154 0
M  V30 17401 C 2345.76 -4.94023 7.72785 0
M  V30 17402 O 2344.7 -5.18726 6.91205 0
M  V30 17403 C 2346.98 -4.69597 6.85231 0
M  V30 17404 O 2347.72 -5.83832 6.51337 0
M  V30 17405 C 2346.31 -3.96706 5.66633 0
M  V30 17406 O 2347.11 -4.15414 4.49689 0
M  V30 17407 C 2344.97 -4.66153 5.59313 0
M  V30 17408 H 2345 -5.47679 4.85214 0
M  V30 17409 H 2346.19 -2.89008 5.86566 0
M  V30 17410 H 2347.67 -4.0121 7.36511 0
M  V30 17411 H 2345.98 -5.80182 8.37584 0
M  V30 17412 H 2345.79 -3.73517 9.52265 0
M  V30 17413 H 2344.16 -3.97163 8.80359 0
M  V30 17414 H 2346.8 -4.90969 4.01921 0
M  V30 17415 P 2348.65 -5.75688 6.64379 0
M  V30 17416 O 2350.08 -6.11849 7.01846 0
M  V30 17417 O 2348.29 -4.30744 6.56026 0
M  V30 17418 O 2348.33 -6.37042 5.19165 0
M  V30 17419 C 2348.17 -7.83578 5.16515 0
M  V30 17420 C 2348.71 -8.33398 3.83019 0
M  V30 17421 O 2347.65 -8.10074 3.01034 0
M  V30 17422 C 2349.93 -7.65514 3.2257 0
M  V30 17423 O 2350.67 -8.4329 2.32297 0
M  V30 17424 C 2349.26 -6.40075 2.62207 0
M  V30 17425 O 2350.06 -5.92589 1.53712 0
M  V30 17426 C 2347.92 -6.9454 2.18503 0
M  V30 17427 H 2347.95 -7.23063 1.12091 0
M  V30 17428 H 2349.14 -5.6025 3.37201 0
M  V30 17429 H 2350.62 -7.35707 4.02681 0
M  V30 17430 H 2348.93 -9.40912 3.9095 0
M  V30 17431 H 2348.74 -8.29056 5.99158 0
M  V30 17432 H 2347.11 -8.10073 5.25882 0
M  V30 17433 H 2349.75 -6.30324 0.726794 0
M  V30 17434 P 2351.6 -8.4349 2.47671 0
M  V30 17435 O 2353.01 -8.98227 2.65696 0
M  V30 17436 O 2351.23 -7.20409 3.23964 0
M  V30 17437 O 2351.28 -8.16496 0.923275 0
M  V30 17438 C 2351.12 -9.38437 0.108857 0
M  V30 17439 C 2351.66 -9.08076 -1.28339 0
M  V30 17440 O 2350.61 -8.44131 -1.84692 0
M  V30 17441 C 2352.88 -8.18386 -1.42505 0
M  V30 17442 O 2353.62 -8.3501 -2.60497 0
M  V30 17443 C 2352.21 -6.80225 -1.25468 0
M  V30 17444 O 2353.01 -5.81526 -1.91035 0
M  V30 17445 C 2350.87 -7.02416 -1.9168 0
M  V30 17446 N 2349.83 -6.31033 -1.20314 0
M  V30 17447 C 2348.8 -5.77149 -1.928 0
M  V30 17448 O 2348.83 -5.8521 -3.17729 0
M  V30 17449 N 2347.78 -5.15445 -1.27997 0
M  V30 17450 C 2347.83 -5.04472 0.0534726 0
M  V30 17451 C 2348.93 -5.55244 0.808522 0
M  V30 17452 C 2349.89 -6.18542 0.13981 0
M  V30 17453 H 2350.91 -6.68789 -2.9658 0
M  V30 17454 H 2352.09 -6.53498 -0.198729 0
M  V30 17455 H 2353.57 -8.36663 -0.5984 0
M  V30 17456 H 2351.88 -10.0273 -1.8081 0
M  V30 17457 H 2351.69 -10.2138 0.558219 0
M  V30 17458 H 2350.06 -9.6569 0.0444156 0
M  V30 17459 H 2348.98 -5.43017 1.88792 0
M  V30 17460 H 2350.74 -6.60539 0.686773 0
M  V30 17461 H 2352.79 -5.79638 -2.8315 0
M  V30 17462 P 2354.55 -8.4349 -2.47671 0
M  V30 17463 O 2355.98 -8.92593 -2.65 0
M  V30 17464 O 2354.19 -7.7568 -1.19296 0
M  V30 17465 O 2354.23 -7.36886 -3.63805 0
M  V30 17466 C 2354.07 -7.95349 -4.982 0
M  V30 17467 C 2354.61 -6.94612 -5.98974 0
M  V30 17468 O 2353.56 -6.10347 -6.11815 0
M  V30 17469 C 2355.83 -6.11426 -5.62335 0
M  V30 17470 O 2356.57 -5.6162 -6.70584 0
M  V30 17471 C 2355.16 -5.04409 -4.73308 0
M  V30 17472 O 2355.96 -3.85992 -4.75183 0
M  V30 17473 C 2353.82 -4.8728 -5.41006 0
M  V30 17474 H 2353.86 -4.02333 -6.11157 0
M  V30 17475 H 2355.04 -5.39466 -3.69543 0
M  V30 17476 H 2356.52 -6.71916 -5.01943 0
M  V30 17477 H 2354.83 -7.4649 -6.93477 0
M  V30 17478 H 2354.64 -8.89416 -5.05237 0
M  V30 17479 H 2353.01 -8.14876 -5.18409 0
M  V30 17480 H 2355.65 -3.27957 -5.4317 0
M  V30 17481 P 2357.51 -5.75688 -6.64379 0
M  V30 17482 O 2358.93 -6.07627 -7.05504 0
M  V30 17483 O 2357.15 -5.88047 -5.19722 0
M  V30 17484 O 2357.18 -4.2322 -7.04443 0
M  V30 17485 C 2357.02 -3.99743 -8.4911 0
M  V30 17486 C 2357.56 -2.60516 -8.79425 0
M  V30 17487 O 2356.51 -1.82684 -8.4467 0
M  V30 17488 C 2358.78 -2.10343 -8.03628 0
M  V30 17489 O 2359.52 -1.09919 -8.67766 0
M  V30 17490 C 2358.11 -1.68446 -6.70876 0
M  V30 17491 O 2358.91 -0.678137 -6.08433 0
M  V30 17492 C 2356.77 -1.17436 -7.18567 0
M  V30 17493 H 2356.81 -0.0804732 -7.31656 0
M  V30 17494 H 2357.99 -2.54037 -6.02537 0
M  V30 17495 H 2359.47 -2.93881 -7.85526 0
M  V30 17496 H 2357.78 -2.53065 -9.86973 0
M  V30 17497 H 2357.59 -4.75072 -9.05887 0
M  V30 17498 H 2355.96 -4.05244 -8.76668 0
M  V30 17499 H 2358.6 0.177647 -6.34251 0
M  V30 17500 P 2360.46 -1.25109 -8.70152 0
M  V30 17501 O 2361.88 -1.29744 -9.22016 0
M  V30 17502 O 2360.1 -2.13714 -7.55141 0
M  V30 17503 O 2360.13 0.248149 -8.21425 0
M  V30 17504 C 2359.97 1.22779 -9.30434 0
M  V30 17505 C 2360.51 2.56293 -8.80664 0
M  V30 17506 O 2359.46 3.02979 -8.09349 0
M  V30 17507 C 2361.73 2.57523 -7.89775 0
M  V30 17508 O 2362.47 3.7668 -7.89438 0
M  V30 17509 C 2361.06 2.20997 -6.55446 0
M  V30 17510 O 2361.86 2.71895 -5.48509 0
M  V30 17511 C 2359.72 2.89693 -6.67988 0
M  V30 17512 H 2359.76 3.88793 -6.19859 0
M  V30 17513 H 2360.94 1.12046 -6.44229 0
M  V30 17514 H 2362.42 1.7746 -8.19711 0
M  V30 17515 H 2360.73 3.20706 -9.67112 0
M  V30 17516 H 2360.54 0.901032 -10.1892 0
M  V30 17517 H 2358.91 1.33049 -9.56592 0
M  V30 17518 H 2361.55 3.57847 -5.23962 0
M  V30 17519 P 2363.41 3.65191 -7.99657 0
M  V30 17520 O 2364.83 3.89332 -8.45794 0
M  V30 17521 O 2363.05 2.28472 -7.50807 0
M  V30 17522 O 2363.08 4.64972 -6.77611 0
M  V30 17523 C 2362.92 6.06319 -7.16352 0
M  V30 17524 C 2363.46 6.91731 -6.02299 0
M  V30 17525 O 2362.41 6.92449 -5.17064 0
M  V30 17526 C 2364.68 6.43627 -5.25174 0
M  V30 17527 O 2365.42 7.43686 -4.60469 0
M  V30 17528 C 2364.01 5.40275 -4.31916 0
M  V30 17529 O 2364.81 5.25279 -3.14438 0
M  V30 17530 C 2362.68 6.04847 -4.05327 0
M  V30 17531 H 2362.71 6.62195 -3.11261 0
M  V30 17532 H 2363.89 4.42556 -4.81383 0
M  V30 17533 H 2365.37 5.92458 -5.93643 0
M  V30 17534 H 2363.68 7.92655 -6.402 0
M  V30 17535 H 2363.49 6.26671 -8.0846 0
M  V30 17536 H 2361.86 6.29101 -7.32804 0
M  V30 17537 H 2364.5 5.84315 -2.47318 0
M  V30 17538 P 2366.36 7.39546 -4.75277 0
M  V30 17539 O 2367.78 7.84798 -5.01039 0
M  V30 17540 O 2366 5.9812 -5.08098 0
M  V30 17541 O 2366.03 7.57503 -3.1866 0
M  V30 17542 C 2365.87 8.97357 -2.74833 0
M  V30 17543 C 2366.41 9.07548 -1.32709 0
M  V30 17544 O 2365.36 8.62072 -0.606159 0
M  V30 17545 C 2367.63 8.25383 -0.938334 0
M  V30 17546 O 2368.37 8.74577 0.146954 0
M  V30 17547 C 2366.96 6.8802 -0.712559 0
M  V30 17548 O 2367.76 6.1189 0.194655 0
M  V30 17549 C 2365.63 7.27966 -0.139777 0
M  V30 17550 H 2365.66 7.25354 0.961601 0
M  V30 17551 H 2366.84 6.32557 -1.65702 0
M  V30 17552 H 2368.33 8.19355 -1.79097 0
M  V30 17553 H 2366.63 10.1294 -1.10029 0
M  V30 17554 H 2366.44 9.64276 -3.41316 0
M  V30 17555 H 2364.81 9.25417 -2.76357 0
M  V30 17556 H 2367.45 6.25267 1.07847 0
M  V30 17557 P 2369.31 8.791 2.06433e-11 0
M  V30 17558 O 2370.73 9.31096 0.027933 0
M  V30 17559 O 2368.95 7.77869 -1.04071 0
M  V30 17560 O 2368.98 8.09533 1.41463 0
M  V30 17561 C 2368.82 9.0349 2.53943 0
M  V30 17562 C 2369.36 8.35226 3.79016 0
M  V30 17563 O 2368.31 7.57992 4.15078 0
M  V30 17564 C 2370.58 7.45087 3.67298 0
M  V30 17565 O 2371.32 7.27796 4.85194 0
M  V30 17566 C 2369.91 6.17323 3.12027 0
M  V30 17567 O 2370.71 5.04231 3.47188 0
M  V30 17568 C 2368.58 6.19961 3.81809 0
M  V30 17569 H 2368.61 5.58218 4.73051 0
M  V30 17570 H 2369.79 6.21726 2.02589 0
M  V30 17571 H 2371.28 7.86112 2.9231 0
M  V30 17572 H 2369.58 9.11627 4.55076 0
M  V30 17573 H 2369.39 9.9573 2.34194 0
M  V30 17574 H 2367.76 9.2792 2.67832 0
M  V30 17575 H 2370.4 4.67702 4.28772 0
M  V30 17576 P 2372.26 7.39546 4.75277 0
M  V30 17577 O 2373.68 7.81861 5.05793 0
M  V30 17578 O 2371.9 7.1065 3.32998 0
M  V30 17579 O 2371.94 6.04542 5.56673 0
M  V30 17580 C 2371.77 6.22839 7.02169 0
M  V30 17581 C 2372.32 4.97725 7.70406 0
M  V30 17582 O 2371.26 4.13208 7.58899 0
M  V30 17583 C 2373.53 4.28231 7.11815 0
M  V30 17584 O 2374.27 3.49945 8.01648 0
M  V30 17585 C 2372.87 3.5063 5.96244 0
M  V30 17586 O 2373.66 2.37008 5.64352 0
M  V30 17587 C 2371.53 3.15122 6.56374 0
M  V30 17588 N 2370.48 3.22311 5.55692 0
M  V30 17589 C 2370.65 3.99655 4.46046 0
M  V30 17590 N 2369.63 3.97599 3.63918 0
M  V30 17591 C 2368.74 3.11159 4.25334 0
M  V30 17592 C 2367.47 2.64972 3.85157 0
M  V30 17593 N 2366.91 1.78482 4.74759 0
M  V30 17594 C 2367.51 1.37463 5.90819 0
M  V30 17595 N 2368.69 1.7733 6.31889 0
M  V30 17596 C 2369.26 2.64393 5.43725 0
M  V30 17597 H 2372.74 4.12931 5.06895 0
M  V30 17598 H 2374.23 5.03285 6.70911 0
M  V30 17599 H 2372.53 5.20001 8.76217 0
M  V30 17600 H 2372.34 7.11046 7.35349 0
M  V30 17601 H 2370.71 6.35815 7.26986 0
M  V30 17602 H 2371.55 4.58037 4.27732 0
M  V30 17603 H 2373.35 1.61619 6.13468 0
M  V30 17604 P 2375.21 3.65191 7.99657 0
M  V30 17605 O 2376.63 3.8425 8.48115 0
M  V30 17606 O 2374.85 4.17805 6.64342 0
M  V30 17607 O 2374.89 2.07613 7.95143 0
M  V30 17608 C 2374.73 1.44328 9.27336 0
M  V30 17609 C 2375.27 0.0220036 9.17197 0
M  V30 17610 O 2374.21 -0.626867 8.61923 0
M  V30 17611 C 2376.48 -0.24586 8.30336 0
M  V30 17612 O 2377.22 -1.39011 8.63583 0
M  V30 17613 C 2375.81 -0.273849 6.91158 0
M  V30 17614 O 2376.61 -1.06348 6.02892 0
M  V30 17615 C 2374.48 -0.897649 7.22545 0
M  V30 17616 H 2374.51 -1.9841 7.04286 0
M  V30 17617 H 2375.69 0.739928 6.497 0
M  V30 17618 H 2377.18 0.60668 8.36503 0
M  V30 17619 H 2375.48 -0.352479 10.1829 0
M  V30 17620 H 2375.29 2.00611 10.0304 0
M  V30 17621 H 2373.66 1.41843 9.55327 0
M  V30 17622 H 2376.3 -1.95734 6.03555 0
M  V30 17623 P 2378.16 -1.25109 8.70152 0
M  V30 17624 O 2379.56 -1.31452 9.27431 0
M  V30 17625 O 2377.78 -0.0458113 7.89887 0
M  V30 17626 O 2377.84 -2.55201 7.81066 0
M  V30 17627 C 2377.68 -3.79939 8.58154 0
M  V30 17628 C 2378.22 -4.93969 7.72701 0
M  V30 17629 O 2377.16 -5.18666 6.91125 0
M  V30 17630 C 2379.43 -4.69597 6.85231 0
M  V30 17631 O 2380.17 -5.83832 6.51337 0
M  V30 17632 C 2378.77 -3.96706 5.66633 0
M  V30 17633 O 2379.56 -4.15346 4.49615 0
M  V30 17634 C 2377.43 -4.66153 5.59313 0
M  V30 17635 N 2376.39 -3.71582 5.24027 0
M  V30 17636 C 2375.35 -4.15133 4.44901 0
M  V30 17637 O 2375.39 -5.32122 4.00336 0
M  V30 17638 N 2374.34 -3.30554 4.15693 0
M  V30 17639 C 2374.39 -2.04701 4.61105 0
M  V30 17640 C 2375.48 -1.57111 5.38655 0
M  V30 17641 C 2376.45 -2.44234 5.68454 0
M  V30 17642 H 2377.46 -5.47604 4.85148 0
M  V30 17643 H 2378.64 -2.8955 5.86187 0
M  V30 17644 H 2380.13 -4.01995 7.36197 0
M  V30 17645 H 2378.43 -5.81019 8.37003 0
M  V30 17646 H 2378.24 -3.73517 9.52265 0
M  V30 17647 H 2376.61 -3.97122 8.80267 0
M  V30 17648 H 2375.53 -0.538464 5.72373 0
M  V30 17649 H 2377.29 -2.11927 6.29377 0
M  V30 17650 H 2379.35 -4.98352 4.09633 0
M  V30 17651 P 2381.11 -5.75688 6.64379 0
M  V30 17652 O 2382.51 -6.11991 7.09136 0
M  V30 17653 O 2380.73 -4.30899 6.62018 0
M  V30 17654 O 2380.79 -6.36965 5.19102 0
M  V30 17655 C 2380.63 -7.83578 5.16515 0
M  V30 17656 C 2381.17 -8.33307 3.82977 0
M  V30 17657 O 2380.11 -8.0998 3.00999 0
M  V30 17658 C 2382.38 -7.65514 3.2257 0
M  V30 17659 O 2383.12 -8.4329 2.32297 0
M  V30 17660 C 2381.72 -6.40075 2.62207 0
M  V30 17661 O 2382.51 -5.92492 1.53687 0
M  V30 17662 C 2380.38 -6.9454 2.18503 0
M  V30 17663 N 2379.34 -5.95905 2.39948 0
M  V30 17664 C 2378.3 -5.89764 1.49837 0
M  V30 17665 O 2378.34 -6.64088 0.490975 0
M  V30 17666 N 2377.29 -5.02821 1.70992 0
M  V30 17667 C 2377.34 -4.21498 2.77236 0
M  V30 17668 N 2376.33 -3.37475 2.96465 0
M  V30 17669 C 2378.43 -4.23389 3.68205 0
M  V30 17670 C 2379.4 -5.12792 3.46171 0
M  V30 17671 H 2380.41 -7.22964 1.12076 0
M  V30 17672 H 2381.59 -5.60502 3.36589 0
M  V30 17673 H 2383.08 -7.36197 4.01993 0
M  V30 17674 H 2381.38 -9.41302 3.90009 0
M  V30 17675 H 2381.19 -8.29056 5.99158 0
M  V30 17676 H 2379.56 -8.09989 5.25828 0
M  V30 17677 H 2378.48 -3.54747 4.52399 0
M  V30 17678 H 2380.24 -5.18551 4.1489 0
M  V30 17679 H 2375.54 -3.36058 2.30304 0
M  V30 17680 H 2376.33 -2.73846 3.77171 0
M  V30 17681 H 2382.3 -6.40705 0.751752 0
M  V30 17682 P 2384.06 -8.4349 2.47671 0
M  V30 17683 O 2385.48 -8.94167 2.5964 0
M  V30 17684 O 2383.7 -7.1704 3.19006 0
M  V30 17685 O 2383.74 -8.16596 0.923387 0
M  V30 17686 C 2383.58 -9.38437 0.108857 0
M  V30 17687 C 2384.12 -9.08175 -1.28353 0
M  V30 17688 O 2383.06 -8.44229 -1.84713 0
M  V30 17689 C 2385.34 -8.18386 -1.42505 0
M  V30 17690 O 2386.07 -8.3501 -2.60497 0
M  V30 17691 C 2384.67 -6.80225 -1.25468 0
M  V30 17692 O 2385.47 -5.81621 -1.91066 0
M  V30 17693 C 2383.33 -7.02416 -1.9168 0
M  V30 17694 H 2383.36 -6.6888 -2.96621 0
M  V30 17695 H 2384.54 -6.53617 -0.192223 0
M  V30 17696 H 2386.03 -8.36622 -0.589963 0
M  V30 17697 H 2384.33 -10.0291 -1.79807 0
M  V30 17698 H 2384.14 -10.2138 0.558219 0
M  V30 17699 H 2382.51 -9.6579 0.0444202 0
M  V30 17700 H 2385.15 -5.69556 -2.79637 0
M  V30 17701 P 2387.01 -8.4349 -2.47671 0
M  V30 17702 O 2388.43 -8.92593 -2.65 0
M  V30 17703 O 2386.65 -7.7568 -1.19296 0
M  V30 17704 O 2386.69 -7.36886 -3.63805 0
M  V30 17705 C 2386.53 -7.95349 -4.982 0
M  V30 17706 C 2387.07 -6.94612 -5.98974 0
M  V30 17707 O 2386.01 -6.10347 -6.11815 0
M  V30 17708 C 2388.29 -6.11426 -5.62335 0
M  V30 17709 O 2389.02 -5.6162 -6.70584 0
M  V30 17710 C 2387.62 -5.04409 -4.73308 0
M  V30 17711 O 2388.42 -3.85992 -4.75183 0
M  V30 17712 C 2386.28 -4.8728 -5.41006 0
M  V30 17713 H 2386.31 -4.02333 -6.11157 0
M  V30 17714 H 2387.5 -5.39466 -3.69543 0
M  V30 17715 H 2388.98 -6.71916 -5.01943 0
M  V30 17716 H 2387.29 -7.4649 -6.93477 0
M  V30 17717 H 2387.1 -8.89416 -5.05237 0
M  V30 17718 H 2385.47 -8.14876 -5.18409 0
M  V30 17719 H 2388.1 -3.27957 -5.4317 0
M  V30 17720 P 2389.96 -5.75688 -6.64379 0
M  V30 17721 O 2391.38 -6.07627 -7.05504 0
M  V30 17722 O 2389.6 -5.88047 -5.19722 0
M  V30 17723 O 2389.64 -4.2322 -7.04443 0
M  V30 17724 C 2389.48 -3.99743 -8.4911 0
M  V30 17725 C 2390.02 -2.60516 -8.79425 0
M  V30 17726 O 2388.96 -1.82684 -8.4467 0
M  V30 17727 C 2391.24 -2.10343 -8.03628 0
M  V30 17728 O 2391.97 -1.09919 -8.67766 0
M  V30 17729 C 2390.57 -1.68446 -6.70876 0
M  V30 17730 O 2391.37 -0.678137 -6.08433 0
M  V30 17731 C 2389.23 -1.17436 -7.18567 0
M  V30 17732 H 2389.26 -0.0804732 -7.31656 0
M  V30 17733 H 2390.45 -2.54037 -6.02537 0
M  V30 17734 H 2391.93 -2.93881 -7.85526 0
M  V30 17735 H 2390.24 -2.53065 -9.86973 0
M  V30 17736 H 2390.05 -4.75072 -9.05887 0
M  V30 17737 H 2388.42 -4.05244 -8.76668 0
M  V30 17738 H 2391.05 0.177647 -6.34251 0
M  V30 17739 P 2392.91 -1.25109 -8.70152 0
M  V30 17740 O 2394.33 -1.29744 -9.22016 0
M  V30 17741 O 2392.55 -2.13714 -7.55141 0
M  V30 17742 O 2392.59 0.248149 -8.21425 0
M  V30 17743 C 2392.43 1.22779 -9.30434 0
M  V30 17744 C 2392.97 2.56293 -8.80664 0
M  V30 17745 O 2391.91 3.02979 -8.09349 0
M  V30 17746 C 2394.19 2.57523 -7.89775 0
M  V30 17747 O 2394.93 3.7668 -7.89438 0
M  V30 17748 C 2393.52 2.20997 -6.55446 0
M  V30 17749 O 2394.32 2.71895 -5.48509 0
M  V30 17750 C 2392.18 2.89693 -6.67988 0
M  V30 17751 H 2392.21 3.88793 -6.19859 0
M  V30 17752 H 2393.4 1.12046 -6.44229 0
M  V30 17753 H 2394.88 1.7746 -8.19711 0
M  V30 17754 H 2393.19 3.20706 -9.67112 0
M  V30 17755 H 2393 0.901032 -10.1892 0
M  V30 17756 H 2391.37 1.33049 -9.56592 0
M  V30 17757 H 2394.01 3.57847 -5.23962 0
M  V30 17758 P 2395.86 3.65191 -7.99657 0
M  V30 17759 O 2397.28 3.89332 -8.45794 0
M  V30 17760 O 2395.5 2.28472 -7.50807 0
M  V30 17761 O 2395.54 4.64972 -6.77611 0
M  V30 17762 C 2395.38 6.06319 -7.16352 0
M  V30 17763 C 2395.92 6.91731 -6.02299 0
M  V30 17764 O 2394.86 6.92449 -5.17064 0
M  V30 17765 C 2397.14 6.43627 -5.25174 0
M  V30 17766 O 2397.88 7.43686 -4.60469 0
M  V30 17767 C 2396.47 5.40275 -4.31916 0
M  V30 17768 O 2397.27 5.25279 -3.14438 0
M  V30 17769 C 2395.13 6.04847 -4.05327 0
M  V30 17770 H 2395.16 6.62195 -3.11261 0
M  V30 17771 H 2396.35 4.42556 -4.81383 0
M  V30 17772 H 2397.83 5.92458 -5.93643 0
M  V30 17773 H 2396.14 7.92655 -6.402 0
M  V30 17774 H 2395.95 6.26671 -8.0846 0
M  V30 17775 H 2394.32 6.29101 -7.32804 0
M  V30 17776 H 2396.96 5.84315 -2.47318 0
M  V30 17777 P 2398.81 7.39546 -4.75277 0
M  V30 17778 O 2400.24 7.84798 -5.01039 0
M  V30 17779 O 2398.45 5.9812 -5.08098 0
M  V30 17780 O 2398.49 7.57503 -3.1866 0
M  V30 17781 C 2398.33 8.97357 -2.74833 0
M  V30 17782 C 2398.87 9.07548 -1.32709 0
M  V30 17783 O 2397.81 8.62072 -0.606159 0
M  V30 17784 C 2400.09 8.25383 -0.938334 0
M  V30 17785 O 2400.83 8.74577 0.146954 0
M  V30 17786 C 2399.42 6.8802 -0.712559 0
M  V30 17787 O 2400.22 6.1189 0.194655 0
M  V30 17788 C 2398.08 7.27966 -0.139777 0
M  V30 17789 H 2398.11 7.25354 0.961601 0
M  V30 17790 H 2399.3 6.32557 -1.65702 0
M  V30 17791 H 2400.78 8.19355 -1.79097 0
M  V30 17792 H 2399.09 10.1294 -1.10029 0
M  V30 17793 H 2398.9 9.64276 -3.41316 0
M  V30 17794 H 2397.27 9.25417 -2.76357 0
M  V30 17795 H 2399.91 6.25267 1.07847 0
M  V30 17796 P 2401.76 8.791 2.09534e-11 0
M  V30 17797 O 2403.19 9.31096 0.027933 0
M  V30 17798 O 2401.4 7.77869 -1.04071 0
M  V30 17799 O 2401.44 8.09533 1.41463 0
M  V30 17800 C 2401.28 9.0349 2.53943 0
M  V30 17801 C 2401.82 8.35226 3.79016 0
M  V30 17802 O 2400.76 7.57992 4.15078 0
M  V30 17803 C 2403.04 7.45087 3.67298 0
M  V30 17804 O 2403.78 7.27796 4.85194 0
M  V30 17805 C 2402.37 6.17323 3.12027 0
M  V30 17806 O 2403.17 5.04231 3.47188 0
M  V30 17807 C 2401.03 6.19961 3.81809 0
M  V30 17808 H 2401.06 5.58218 4.73051 0
M  V30 17809 H 2402.25 6.21726 2.02589 0
M  V30 17810 H 2403.73 7.86112 2.9231 0
M  V30 17811 H 2402.04 9.11627 4.55076 0
M  V30 17812 H 2401.85 9.9573 2.34194 0
M  V30 17813 H 2400.22 9.2792 2.67832 0
M  V30 17814 H 2402.86 4.67702 4.28772 0
M  V30 17815 P 2404.71 7.39546 4.75277 0
M  V30 17816 O 2406.14 7.81861 5.05793 0
M  V30 17817 O 2404.35 7.1065 3.32998 0
M  V30 17818 O 2404.39 6.04542 5.56673 0
M  V30 17819 C 2404.23 6.22839 7.02169 0
M  V30 17820 C 2404.77 4.97725 7.70406 0
M  V30 17821 O 2403.72 4.13208 7.58899 0
M  V30 17822 C 2405.99 4.28231 7.11815 0
M  V30 17823 O 2406.73 3.49945 8.01648 0
M  V30 17824 C 2405.32 3.5063 5.96244 0
M  V30 17825 O 2406.12 2.37008 5.64352 0
M  V30 17826 C 2403.98 3.15122 6.56374 0
M  V30 17827 N 2402.94 3.22311 5.55692 0
M  V30 17828 C 2403.11 3.99655 4.46046 0
M  V30 17829 N 2402.08 3.97599 3.63918 0
M  V30 17830 C 2401.2 3.11159 4.25334 0
M  V30 17831 C 2399.93 2.64972 3.85157 0
M  V30 17832 N 2399.37 1.78482 4.74759 0
M  V30 17833 C 2399.97 1.37463 5.90819 0
M  V30 17834 N 2401.14 1.7733 6.31889 0
M  V30 17835 C 2401.72 2.64393 5.43725 0
M  V30 17836 H 2405.2 4.12931 5.06895 0
M  V30 17837 H 2406.68 5.03285 6.70911 0
M  V30 17838 H 2404.99 5.20001 8.76217 0
M  V30 17839 H 2404.8 7.11046 7.35349 0
M  V30 17840 H 2403.17 6.35815 7.26986 0
M  V30 17841 H 2404.01 4.58037 4.27732 0
M  V30 17842 H 2405.81 1.61619 6.13468 0
M  V30 17843 P 2407.67 3.65191 7.99657 0
M  V30 17844 O 2409.09 3.84292 8.48206 0
M  V30 17845 O 2407.31 4.17805 6.64342 0
M  V30 17846 O 2407.34 2.07613 7.95143 0
M  V30 17847 C 2407.18 1.44344 9.27435 0
M  V30 17848 C 2407.72 0.0220036 9.17197 0
M  V30 17849 O 2406.67 -0.626794 8.61824 0
M  V30 17850 C 2408.94 -0.24586 8.30336 0
M  V30 17851 O 2409.68 -1.39011 8.63583 0
M  V30 17852 C 2408.27 -0.273849 6.91158 0
M  V30 17853 O 2409.07 -1.05728 6.029 0
M  V30 17854 C 2406.93 -0.897649 7.22545 0
M  V30 17855 N 2405.89 -0.292839 6.41732 0
M  V30 17856 C 2406.06 0.950603 5.91308 0
M  V30 17857 N 2405.03 1.37732 5.21105 0
M  V30 17858 C 2404.15 0.318109 5.26039 0
M  V30 17859 C 2402.88 0.146766 4.6727 0
M  V30 17860 N 2402.32 -1.06525 4.95887 0
M  V30 17861 C 2402.92 -2.0378 5.71347 0
M  V30 17862 N 2404.1 -1.92445 6.27451 0
M  V30 17863 C 2404.67 -0.715382 6.00353 0
M  V30 17864 H 2408.15 0.733318 6.49674 0
M  V30 17865 H 2409.63 0.60668 8.36503 0
M  V30 17866 H 2407.94 -0.362662 10.1825 0
M  V30 17867 H 2407.75 2.00611 10.0304 0
M  V30 17868 H 2406.12 1.41843 9.55327 0
M  V30 17869 H 2406.96 1.54076 6.07465 0
M  V30 17870 H 2408.76 -1.95704 6.0346 0
M  V30 17871 P 2410.62 -1.25109 8.70152 0
M  V30 17872 O 2412.04 -1.35274 9.21221 0
M  V30 17873 O 2410.26 -0.0769065 7.84762 0
M  V30 17874 O 2410.29 -2.55232 7.81161 0
M  V30 17875 C 2410.13 -3.79939 8.58154 0
M  V30 17876 C 2410.67 -4.94023 7.72785 0
M  V30 17877 O 2409.62 -5.18726 6.91205 0
M  V30 17878 C 2411.89 -4.69597 6.85231 0
M  V30 17879 O 2412.63 -5.83832 6.51337 0
M  V30 17880 C 2411.22 -3.96706 5.66633 0
M  V30 17881 O 2412.02 -4.15414 4.49689 0
M  V30 17882 C 2409.88 -4.66153 5.59313 0
M  V30 17883 H 2409.92 -5.47679 4.85214 0
M  V30 17884 H 2411.1 -2.89008 5.86566 0
M  V30 17885 H 2412.58 -4.0121 7.36511 0
M  V30 17886 H 2410.89 -5.80182 8.37584 0
M  V30 17887 H 2410.7 -3.73517 9.52265 0
M  V30 17888 H 2409.07 -3.97163 8.80359 0
M  V30 17889 H 2411.71 -4.90969 4.01921 0
M  V30 17890 P 2413.57 -5.75688 6.64379 0
M  V30 17891 O 2414.97 -6.11991 7.09136 0
M  V30 17892 O 2413.19 -4.30899 6.62018 0
M  V30 17893 O 2413.24 -6.36965 5.19102 0
M  V30 17894 C 2413.08 -7.83578 5.16515 0
M  V30 17895 C 2413.62 -8.33307 3.82977 0
M  V30 17896 O 2412.57 -8.0998 3.00999 0
M  V30 17897 C 2414.84 -7.65514 3.2257 0
M  V30 17898 O 2415.58 -8.4329 2.32297 0
M  V30 17899 C 2414.17 -6.40075 2.62207 0
M  V30 17900 O 2414.97 -5.92492 1.53687 0
M  V30 17901 C 2412.84 -6.9454 2.18503 0
M  V30 17902 N 2411.79 -5.95905 2.39948 0
M  V30 17903 C 2410.76 -5.89764 1.49837 0
M  V30 17904 O 2410.8 -6.64088 0.490975 0
M  V30 17905 N 2409.75 -5.02821 1.70992 0
M  V30 17906 C 2409.79 -4.21498 2.77236 0
M  V30 17907 N 2408.78 -3.37475 2.96465 0
M  V30 17908 C 2410.89 -4.23389 3.68205 0
M  V30 17909 C 2411.86 -5.12792 3.46171 0
M  V30 17910 H 2412.87 -7.22964 1.12076 0
M  V30 17911 H 2414.05 -5.60502 3.36589 0
M  V30 17912 H 2415.53 -7.36197 4.01993 0
M  V30 17913 H 2413.84 -9.41302 3.90009 0
M  V30 17914 H 2413.65 -8.29056 5.99158 0
M  V30 17915 H 2412.02 -8.09989 5.25828 0
M  V30 17916 H 2410.94 -3.54747 4.52399 0
M  V30 17917 H 2412.7 -5.18551 4.1489 0
M  V30 17918 H 2407.99 -3.36058 2.30304 0
M  V30 17919 H 2408.79 -2.73846 3.77171 0
M  V30 17920 H 2414.76 -6.40705 0.751752 0
M  V30 17921 P 2416.52 -8.4349 2.47671 0
M  V30 17922 O 2417.94 -8.94167 2.5964 0
M  V30 17923 O 2416.16 -7.1704 3.19006 0
M  V30 17924 O 2416.19 -8.16596 0.923387 0
M  V30 17925 C 2416.03 -9.38437 0.108857 0
M  V30 17926 C 2416.57 -9.08175 -1.28353 0
M  V30 17927 O 2415.52 -8.44229 -1.84713 0
M  V30 17928 C 2417.79 -8.18386 -1.42505 0
M  V30 17929 O 2418.53 -8.3501 -2.60497 0
M  V30 17930 C 2417.12 -6.80225 -1.25468 0
M  V30 17931 O 2417.92 -5.81621 -1.91066 0
M  V30 17932 C 2415.79 -7.02416 -1.9168 0
M  V30 17933 H 2415.82 -6.6888 -2.96621 0
M  V30 17934 H 2417 -6.53617 -0.192223 0
M  V30 17935 H 2418.48 -8.36622 -0.589963 0
M  V30 17936 H 2416.79 -10.0291 -1.79807 0
M  V30 17937 H 2416.6 -10.2138 0.558219 0
M  V30 17938 H 2414.97 -9.6579 0.0444202 0
M  V30 17939 H 2417.61 -5.69556 -2.79637 0
M  V30 17940 P 2419.47 -8.4349 -2.47671 0
M  V30 17941 O 2420.89 -8.92593 -2.65 0
M  V30 17942 O 2419.11 -7.7568 -1.19296 0
M  V30 17943 O 2419.14 -7.36886 -3.63805 0
M  V30 17944 C 2418.98 -7.95349 -4.982 0
M  V30 17945 C 2419.52 -6.94612 -5.98974 0
M  V30 17946 O 2418.47 -6.10347 -6.11815 0
M  V30 17947 C 2420.74 -6.11426 -5.62335 0
M  V30 17948 O 2421.48 -5.6162 -6.70584 0
M  V30 17949 C 2420.07 -5.04409 -4.73308 0
M  V30 17950 O 2420.87 -3.85992 -4.75183 0
M  V30 17951 C 2418.74 -4.8728 -5.41006 0
M  V30 17952 H 2418.77 -4.02333 -6.11157 0
M  V30 17953 H 2419.95 -5.39466 -3.69543 0
M  V30 17954 H 2421.44 -6.71916 -5.01943 0
M  V30 17955 H 2419.74 -7.4649 -6.93477 0
M  V30 17956 H 2419.55 -8.89416 -5.05237 0
M  V30 17957 H 2417.92 -8.14876 -5.18409 0
M  V30 17958 H 2420.56 -3.27957 -5.4317 0
M  V30 17959 P 2422.42 -5.75688 -6.64379 0
M  V30 17960 O 2423.84 -6.07692 -7.0558 0
M  V30 17961 O 2422.06 -5.88047 -5.19722 0
M  V30 17962 O 2422.09 -4.2322 -7.04443 0
M  V30 17963 C 2421.93 -3.99785 -8.49201 0
M  V30 17964 C 2422.47 -2.60516 -8.79425 0
M  V30 17965 O 2421.42 -1.82663 -8.44573 0
M  V30 17966 C 2423.69 -2.10343 -8.03628 0
M  V30 17967 O 2424.43 -1.09919 -8.67766 0
M  V30 17968 C 2423.02 -1.68446 -6.70876 0
M  V30 17969 O 2423.82 -0.684109 -6.08265 0
M  V30 17970 C 2421.69 -1.17436 -7.18567 0
M  V30 17971 N 2420.64 -1.52699 -6.23988 0
M  V30 17972 C 2420.81 -2.578 -5.40574 0
M  V30 17973 N 2419.79 -2.78966 -4.61193 0
M  V30 17974 C 2418.9 -1.78725 -4.95769 0
M  V30 17975 C 2417.63 -1.45727 -4.44207 0
M  V30 17976 N 2417.03 -2.13994 -3.43613 0
M  V30 17977 N 2417.07 -0.374977 -5.05812 0
M  V30 17978 C 2417.67 0.345585 -6.05615 0
M  V30 17979 N 2418.85 0.0787651 -6.56253 0
M  V30 17980 C 2419.42 -1.00499 -5.96189 0
M  V30 17981 H 2421.72 -0.0804622 -7.31556 0
M  V30 17982 H 2422.9 -2.53396 -6.02698 0
M  V30 17983 H 2424.38 -2.93881 -7.85526 0
M  V30 17984 H 2422.69 -2.52078 -9.87225 0
M  V30 17985 H 2422.5 -4.75072 -9.05887 0
M  V30 17986 H 2420.87 -4.05244 -8.76668 0
M  V30 17987 H 2417.13 1.20098 -6.4532 0
M  V30 17988 H 2421.71 -3.18977 -5.3945 0
M  V30 17989 H 2416.1 -1.84983 -3.10004 0
M  V30 17990 H 2417.51 -2.9465 -3.00843 0
M  V30 17991 H 2423.51 0.177619 -6.34151 0
M  V30 17992 P 2425.37 -1.25109 -8.70152 0
M  V30 17993 O 2426.79 -1.29744 -9.22016 0
M  V30 17994 O 2425.01 -2.13714 -7.55141 0
M  V30 17995 O 2425.05 0.248149 -8.21425 0
M  V30 17996 C 2424.89 1.22779 -9.30434 0
M  V30 17997 C 2425.43 2.56293 -8.80664 0
M  V30 17998 O 2424.37 3.02979 -8.09349 0
M  V30 17999 C 2426.64 2.57523 -7.89775 0
M  V30 18000 O 2427.38 3.7668 -7.89438 0
M  V30 18001 C 2425.97 2.20997 -6.55446 0
M  V30 18002 O 2426.77 2.71895 -5.48509 0
M  V30 18003 C 2424.64 2.89693 -6.67988 0
M  V30 18004 H 2424.67 3.88793 -6.19859 0
M  V30 18005 H 2425.85 1.12046 -6.44229 0
M  V30 18006 H 2427.34 1.7746 -8.19711 0
M  V30 18007 H 2425.64 3.20706 -9.67112 0
M  V30 18008 H 2425.45 0.901032 -10.1892 0
M  V30 18009 H 2423.82 1.33049 -9.56592 0
M  V30 18010 H 2426.46 3.57847 -5.23962 0
M  V30 18011 P 2428.32 3.65191 -7.99657 0
M  V30 18012 O 2429.74 3.89332 -8.45794 0
M  V30 18013 O 2427.96 2.28472 -7.50807 0
M  V30 18014 O 2428 4.64972 -6.77611 0
M  V30 18015 C 2427.84 6.06319 -7.16352 0
M  V30 18016 C 2428.38 6.91731 -6.02299 0
M  V30 18017 O 2427.32 6.92449 -5.17064 0
M  V30 18018 C 2429.59 6.43627 -5.25174 0
M  V30 18019 O 2430.33 7.43686 -4.60469 0
M  V30 18020 C 2428.93 5.40275 -4.31916 0
M  V30 18021 O 2429.72 5.25279 -3.14438 0
M  V30 18022 C 2427.59 6.04847 -4.05327 0
M  V30 18023 H 2427.62 6.62195 -3.11261 0
M  V30 18024 H 2428.8 4.42556 -4.81383 0
M  V30 18025 H 2430.29 5.92458 -5.93643 0
M  V30 18026 H 2428.59 7.92655 -6.402 0
M  V30 18027 H 2428.4 6.26671 -8.0846 0
M  V30 18028 H 2426.77 6.29101 -7.32804 0
M  V30 18029 H 2429.41 5.84315 -2.47318 0
M  V30 18030 P 2431.27 7.39546 -4.75277 0
M  V30 18031 O 2432.69 7.84798 -5.01039 0
M  V30 18032 O 2430.91 5.9812 -5.08098 0
M  V30 18033 O 2430.95 7.57503 -3.1866 0
M  V30 18034 C 2430.79 8.97357 -2.74833 0
M  V30 18035 C 2431.33 9.07548 -1.32709 0
M  V30 18036 O 2430.27 8.62072 -0.606159 0
M  V30 18037 C 2432.54 8.25383 -0.938334 0
M  V30 18038 O 2433.28 8.74577 0.146954 0
M  V30 18039 C 2431.88 6.8802 -0.712559 0
M  V30 18040 O 2432.67 6.1189 0.194655 0
M  V30 18041 C 2430.54 7.27966 -0.139777 0
M  V30 18042 H 2430.57 7.25354 0.961601 0
M  V30 18043 H 2431.75 6.32557 -1.65702 0
M  V30 18044 H 2433.24 8.19355 -1.79097 0
M  V30 18045 H 2431.54 10.1294 -1.10029 0
M  V30 18046 H 2431.35 9.64276 -3.41316 0
M  V30 18047 H 2429.72 9.25417 -2.76357 0
M  V30 18048 H 2432.36 6.25267 1.07847 0
M  V30 18049 P 2434.22 8.791 2.12636e-11 0
M  V30 18050 O 2435.64 9.31096 0.027933 0
M  V30 18051 O 2433.86 7.77869 -1.04071 0
M  V30 18052 O 2433.9 8.09533 1.41463 0
M  V30 18053 C 2433.74 9.0349 2.53943 0
M  V30 18054 C 2434.28 8.35226 3.79016 0
M  V30 18055 O 2433.22 7.57992 4.15078 0
M  V30 18056 C 2435.5 7.45087 3.67298 0
M  V30 18057 O 2436.23 7.27796 4.85194 0
M  V30 18058 C 2434.83 6.17323 3.12027 0
M  V30 18059 O 2435.63 5.04231 3.47188 0
M  V30 18060 C 2433.49 6.19961 3.81809 0
M  V30 18061 H 2433.52 5.58218 4.73051 0
M  V30 18062 H 2434.7 6.21726 2.02589 0
M  V30 18063 H 2436.19 7.86112 2.9231 0
M  V30 18064 H 2434.49 9.11627 4.55076 0
M  V30 18065 H 2434.3 9.9573 2.34194 0
M  V30 18066 H 2432.67 9.2792 2.67832 0
M  V30 18067 H 2435.31 4.67702 4.28772 0
M  V30 18068 P 2437.17 7.39546 4.75277 0
M  V30 18069 O 2438.59 7.81777 5.05738 0
M  V30 18070 O 2436.81 7.1065 3.32998 0
M  V30 18071 O 2436.85 6.04542 5.56673 0
M  V30 18072 C 2436.69 6.22772 7.02095 0
M  V30 18073 C 2437.23 4.97725 7.70406 0
M  V30 18074 O 2436.17 4.13256 7.58987 0
M  V30 18075 C 2438.45 4.28231 7.11815 0
M  V30 18076 O 2439.18 3.49945 8.01648 0
M  V30 18077 C 2437.78 3.5063 5.96244 0
M  V30 18078 O 2438.58 2.36482 5.64681 0
M  V30 18079 C 2436.44 3.15122 6.56374 0
M  V30 18080 H 2436.47 2.13853 6.99751 0
M  V30 18081 H 2437.65 4.13501 5.06559 0
M  V30 18082 H 2439.14 5.03285 6.70911 0
M  V30 18083 H 2437.44 5.20877 8.75697 0
M  V30 18084 H 2437.25 7.11046 7.35349 0
M  V30 18085 H 2435.62 6.35815 7.26986 0
M  V30 18086 H 2438.26 1.61644 6.13565 0
M  V30 18087 P 2440.12 3.65191 7.99657 0
M  V30 18088 O 2441.54 3.8425 8.48115 0
M  V30 18089 O 2439.76 4.17805 6.64342 0
M  V30 18090 O 2439.8 2.07613 7.95143 0
M  V30 18091 C 2439.64 1.44328 9.27336 0
M  V30 18092 C 2440.18 0.0220036 9.17197 0
M  V30 18093 O 2439.12 -0.626867 8.61923 0
M  V30 18094 C 2441.4 -0.24586 8.30336 0
M  V30 18095 O 2442.13 -1.39011 8.63583 0
M  V30 18096 C 2440.73 -0.273849 6.91158 0
M  V30 18097 O 2441.53 -1.06348 6.02892 0
M  V30 18098 C 2439.39 -0.897649 7.22545 0
M  V30 18099 H 2439.42 -1.9841 7.04286 0
M  V30 18100 H 2440.61 0.739928 6.497 0
M  V30 18101 H 2442.09 0.60668 8.36503 0
M  V30 18102 H 2440.4 -0.352479 10.1829 0
M  V30 18103 H 2440.21 2.00611 10.0304 0
M  V30 18104 H 2438.58 1.41843 9.55327 0
M  V30 18105 H 2441.21 -1.95734 6.03555 0
M  V30 18106 P 2443.07 -1.25109 8.70152 0
M  V30 18107 O 2444.49 -1.35274 9.21221 0
M  V30 18108 O 2442.71 -0.0769065 7.84762 0
M  V30 18109 O 2442.75 -2.55232 7.81161 0
M  V30 18110 C 2442.59 -3.79939 8.58154 0
M  V30 18111 C 2443.13 -4.94023 7.72785 0
M  V30 18112 O 2442.07 -5.18726 6.91205 0
M  V30 18113 C 2444.35 -4.69597 6.85231 0
M  V30 18114 O 2445.08 -5.83832 6.51337 0
M  V30 18115 C 2443.68 -3.96706 5.66633 0
M  V30 18116 O 2444.48 -4.15414 4.49689 0
M  V30 18117 C 2442.34 -4.66153 5.59313 0
M  V30 18118 H 2442.37 -5.47679 4.85214 0
M  V30 18119 H 2443.56 -2.89008 5.86566 0
M  V30 18120 H 2445.04 -4.0121 7.36511 0
M  V30 18121 H 2443.35 -5.80182 8.37584 0
M  V30 18122 H 2443.16 -3.73517 9.52265 0
M  V30 18123 H 2441.53 -3.97163 8.80359 0
M  V30 18124 H 2444.16 -4.90969 4.01921 0
M  V30 18125 P 2446.02 -5.75688 6.64379 0
M  V30 18126 O 2447.44 -6.11849 7.01846 0
M  V30 18127 O 2445.66 -4.30744 6.56026 0
M  V30 18128 O 2445.7 -6.37042 5.19165 0
M  V30 18129 C 2445.54 -7.83578 5.16515 0
M  V30 18130 C 2446.08 -8.33398 3.83019 0
M  V30 18131 O 2445.02 -8.10074 3.01034 0
M  V30 18132 C 2447.3 -7.65514 3.2257 0
M  V30 18133 O 2448.04 -8.4329 2.32297 0
M  V30 18134 C 2446.63 -6.40075 2.62207 0
M  V30 18135 O 2447.43 -5.92589 1.53712 0
M  V30 18136 C 2445.29 -6.9454 2.18503 0
M  V30 18137 H 2445.32 -7.23063 1.12091 0
M  V30 18138 H 2446.51 -5.6025 3.37201 0
M  V30 18139 H 2447.99 -7.35707 4.02681 0
M  V30 18140 H 2446.3 -9.40912 3.9095 0
M  V30 18141 H 2446.11 -8.29056 5.99158 0
M  V30 18142 H 2444.48 -8.10073 5.25882 0
M  V30 18143 H 2447.12 -6.30324 0.726794 0
M  V30 18144 P 2448.97 -8.4349 2.47671 0
M  V30 18145 O 2450.4 -8.94167 2.5964 0
M  V30 18146 O 2448.61 -7.1704 3.19006 0
M  V30 18147 O 2448.65 -8.16596 0.923387 0
M  V30 18148 C 2448.49 -9.38437 0.108857 0
M  V30 18149 C 2449.03 -9.08175 -1.28353 0
M  V30 18150 O 2447.97 -8.44229 -1.84713 0
M  V30 18151 C 2450.25 -8.18386 -1.42505 0
M  V30 18152 O 2450.99 -8.3501 -2.60497 0
M  V30 18153 C 2449.58 -6.80225 -1.25468 0
M  V30 18154 O 2450.38 -5.81621 -1.91066 0
M  V30 18155 C 2448.24 -7.02416 -1.9168 0
M  V30 18156 H 2448.27 -6.6888 -2.96621 0
M  V30 18157 H 2449.46 -6.53617 -0.192223 0
M  V30 18158 H 2450.94 -8.36622 -0.589963 0
M  V30 18159 H 2449.25 -10.0291 -1.79807 0
M  V30 18160 H 2449.06 -10.2138 0.558219 0
M  V30 18161 H 2447.43 -9.6579 0.0444202 0
M  V30 18162 H 2450.07 -5.69556 -2.79637 0
M  V30 18163 P 2451.92 -8.4349 -2.47671 0
M  V30 18164 O 2453.34 -8.92689 -2.65029 0
M  V30 18165 O 2451.56 -7.7568 -1.19296 0
M  V30 18166 O 2451.6 -7.36886 -3.63805 0
M  V30 18167 C 2451.44 -7.95433 -4.98253 0
M  V30 18168 C 2451.98 -6.94612 -5.98974 0
M  V30 18169 O 2450.93 -6.10277 -6.11744 0
M  V30 18170 C 2453.2 -6.11426 -5.62335 0
M  V30 18171 O 2453.94 -5.6162 -6.70584 0
M  V30 18172 C 2452.53 -5.04409 -4.73308 0
M  V30 18173 O 2453.33 -3.86404 -4.74719 0
M  V30 18174 C 2451.19 -4.8728 -5.41006 0
M  V30 18175 N 2450.15 -4.65812 -4.42377 0
M  V30 18176 C 2450.32 -5.09132 -3.15382 0
M  V30 18177 N 2449.29 -4.84021 -2.3716 0
M  V30 18178 C 2448.41 -4.18386 -3.20441 0
M  V30 18179 C 2447.14 -3.6275 -2.94905 0
M  V30 18180 N 2446.57 -3.05008 -4.05243 0
M  V30 18181 C 2447.18 -2.98348 -5.28159 0
M  V30 18182 N 2448.35 -3.48171 -5.56333 0
M  V30 18183 C 2448.93 -4.06869 -4.47212 0
M  V30 18184 H 2452.41 -5.39013 -3.70026 0
M  V30 18185 H 2453.89 -6.71916 -5.01943 0
M  V30 18186 H 2452.2 -7.45796 -6.94223 0
M  V30 18187 H 2452.01 -8.89416 -5.05237 0
M  V30 18188 H 2450.38 -8.14876 -5.18409 0
M  V30 18189 H 2451.22 -5.59989 -2.81362 0
M  V30 18190 H 2453.02 -3.27906 -5.43085 0
M  V30 18191 P 2454.87 -5.75688 -6.64379 0
M  V30 18192 O 2456.3 -6.07627 -7.05504 0
M  V30 18193 O 2454.51 -5.88047 -5.19722 0
M  V30 18194 O 2454.55 -4.2322 -7.04443 0
M  V30 18195 C 2454.39 -3.99743 -8.4911 0
M  V30 18196 C 2454.93 -2.60516 -8.79425 0
M  V30 18197 O 2453.88 -1.82684 -8.4467 0
M  V30 18198 C 2456.15 -2.10343 -8.03628 0
M  V30 18199 O 2456.89 -1.09919 -8.67766 0
M  V30 18200 C 2455.48 -1.68446 -6.70876 0
M  V30 18201 O 2456.28 -0.678137 -6.08433 0
M  V30 18202 C 2454.14 -1.17436 -7.18567 0
M  V30 18203 H 2454.18 -0.0804732 -7.31656 0
M  V30 18204 H 2455.36 -2.54037 -6.02537 0
M  V30 18205 H 2456.84 -2.93881 -7.85526 0
M  V30 18206 H 2455.15 -2.53065 -9.86973 0
M  V30 18207 H 2454.96 -4.75072 -9.05887 0
M  V30 18208 H 2453.33 -4.05244 -8.76668 0
M  V30 18209 H 2455.97 0.177647 -6.34251 0
M  V30 18210 P 2457.82 -1.25109 -8.70152 0
M  V30 18211 O 2459.25 -1.29744 -9.22016 0
M  V30 18212 O 2457.46 -2.13714 -7.55141 0
M  V30 18213 O 2457.5 0.248149 -8.21425 0
M  V30 18214 C 2457.34 1.22779 -9.30434 0
M  V30 18215 C 2457.88 2.56293 -8.80664 0
M  V30 18216 O 2456.83 3.02979 -8.09349 0
M  V30 18217 C 2459.1 2.57523 -7.89775 0
M  V30 18218 O 2459.84 3.7668 -7.89438 0
M  V30 18219 C 2458.43 2.20997 -6.55446 0
M  V30 18220 O 2459.23 2.71895 -5.48509 0
M  V30 18221 C 2457.09 2.89693 -6.67988 0
M  V30 18222 H 2457.13 3.88793 -6.19859 0
M  V30 18223 H 2458.31 1.12046 -6.44229 0
M  V30 18224 H 2459.79 1.7746 -8.19711 0
M  V30 18225 H 2458.1 3.20706 -9.67112 0
M  V30 18226 H 2457.91 0.901032 -10.1892 0
M  V30 18227 H 2456.28 1.33049 -9.56592 0
M  V30 18228 H 2458.92 3.57847 -5.23962 0
M  V30 18229 P 2460.78 3.65191 -7.99657 0
M  V30 18230 O 2462.2 3.89374 -8.45885 0
M  V30 18231 O 2460.42 2.28472 -7.50807 0
M  V30 18232 O 2460.45 4.64972 -6.77611 0
M  V30 18233 C 2460.29 6.06383 -7.16428 0
M  V30 18234 C 2460.83 6.91731 -6.02299 0
M  V30 18235 O 2459.78 6.92369 -5.17005 0
M  V30 18236 C 2462.05 6.43627 -5.25174 0
M  V30 18237 O 2462.79 7.43686 -4.60469 0
M  V30 18238 C 2461.38 5.40275 -4.31916 0
M  V30 18239 O 2462.18 5.24878 -3.14911 0
M  V30 18240 C 2460.04 6.04847 -4.05327 0
M  V30 18241 N 2459 5.04166 -3.98114 0
M  V30 18242 C 2459.17 3.84629 -4.59066 0
M  V30 18243 N 2458.14 3.0363 -4.45343 0
M  V30 18244 C 2457.26 3.76722 -3.68523 0
M  V30 18245 C 2455.99 3.43528 -3.17088 0
M  V30 18246 N 2455.39 2.23665 -3.37397 0
M  V30 18247 N 2455.43 4.44526 -2.44231 0
M  V30 18248 C 2456.03 5.65243 -2.20146 0
M  V30 18249 N 2457.21 6.00221 -2.65453 0
M  V30 18250 C 2457.78 5.00564 -3.39083 0
M  V30 18251 H 2460.08 6.62104 -3.11218 0
M  V30 18252 H 2461.26 4.42969 -4.80867 0
M  V30 18253 H 2462.74 5.92458 -5.93643 0
M  V30 18254 H 2461.05 7.93295 -6.39407 0
M  V30 18255 H 2460.86 6.26671 -8.0846 0
M  V30 18256 H 2459.23 6.29101 -7.32804 0
M  V30 18257 H 2455.49 6.36894 -1.5883 0
M  V30 18258 H 2460.07 3.58193 -5.14248 0
M  V30 18259 H 2454.46 2.05145 -2.97047 0
M  V30 18260 H 2455.87 1.51255 -3.92998 0
M  V30 18261 H 2461.87 5.84223 -2.47279 0
M  V30 18262 P 2463.73 7.39546 -4.75277 0
M  V30 18263 O 2465.15 7.84798 -5.01039 0
M  V30 18264 O 2463.37 5.9812 -5.08098 0
M  V30 18265 O 2463.4 7.57503 -3.1866 0
M  V30 18266 C 2463.24 8.97357 -2.74833 0
M  V30 18267 C 2463.78 9.07548 -1.32709 0
M  V30 18268 O 2462.73 8.62072 -0.606159 0
M  V30 18269 C 2465 8.25383 -0.938334 0
M  V30 18270 O 2465.74 8.74577 0.146954 0
M  V30 18271 C 2464.33 6.8802 -0.712559 0
M  V30 18272 O 2465.13 6.1189 0.194655 0
M  V30 18273 C 2462.99 7.27966 -0.139777 0
M  V30 18274 H 2463.03 7.25354 0.961601 0
M  V30 18275 H 2464.21 6.32557 -1.65702 0
M  V30 18276 H 2465.69 8.19355 -1.79097 0
M  V30 18277 H 2464 10.1294 -1.10029 0
M  V30 18278 H 2463.81 9.64276 -3.41316 0
M  V30 18279 H 2462.18 9.25417 -2.76357 0
M  V30 18280 H 2464.82 6.25267 1.07847 0
M  V30 18281 P 2466.68 8.791 2.15738e-11 0
M  V30 18282 O 2468.1 9.31096 0.027933 0
M  V30 18283 O 2466.32 7.77869 -1.04071 0
M  V30 18284 O 2466.35 8.09533 1.41463 0
M  V30 18285 C 2466.19 9.0349 2.53943 0
M  V30 18286 C 2466.73 8.35226 3.79016 0
M  V30 18287 O 2465.68 7.57992 4.15078 0
M  V30 18288 C 2467.95 7.45087 3.67298 0
M  V30 18289 O 2468.69 7.27796 4.85194 0
M  V30 18290 C 2467.28 6.17323 3.12027 0
M  V30 18291 O 2468.08 5.04231 3.47188 0
M  V30 18292 C 2465.95 6.19961 3.81809 0
M  V30 18293 H 2465.98 5.58218 4.73051 0
M  V30 18294 H 2467.16 6.21726 2.02589 0
M  V30 18295 H 2468.64 7.86112 2.9231 0
M  V30 18296 H 2466.95 9.11627 4.55076 0
M  V30 18297 H 2466.76 9.9573 2.34194 0
M  V30 18298 H 2465.13 9.2792 2.67832 0
M  V30 18299 H 2467.77 4.67702 4.28772 0
M  V30 18300 P 2469.63 7.39546 4.75277 0
M  V30 18301 O 2471.05 7.81777 5.05738 0
M  V30 18302 O 2469.27 7.1065 3.32998 0
M  V30 18303 O 2469.3 6.04542 5.56673 0
M  V30 18304 C 2469.14 6.22772 7.02095 0
M  V30 18305 C 2469.68 4.97725 7.70406 0
M  V30 18306 O 2468.63 4.13256 7.58987 0
M  V30 18307 C 2470.9 4.28231 7.11815 0
M  V30 18308 O 2471.64 3.49945 8.01648 0
M  V30 18309 C 2470.23 3.5063 5.96244 0
M  V30 18310 O 2471.03 2.36482 5.64681 0
M  V30 18311 C 2468.9 3.15122 6.56374 0
M  V30 18312 H 2468.93 2.13853 6.99751 0
M  V30 18313 H 2470.11 4.13501 5.06559 0
M  V30 18314 H 2471.6 5.03285 6.70911 0
M  V30 18315 H 2469.9 5.20877 8.75697 0
M  V30 18316 H 2469.71 7.11046 7.35349 0
M  V30 18317 H 2468.08 6.35815 7.26986 0
M  V30 18318 H 2470.72 1.61644 6.13565 0
M  V30 18319 P 2472.58 3.65191 7.99657 0
M  V30 18320 O 2474 3.8425 8.48115 0
M  V30 18321 O 2472.22 4.17805 6.64342 0
M  V30 18322 O 2472.25 2.07613 7.95143 0
M  V30 18323 C 2472.09 1.44328 9.27336 0
M  V30 18324 C 2472.63 0.0220036 9.17197 0
M  V30 18325 O 2471.58 -0.626867 8.61923 0
M  V30 18326 C 2473.85 -0.24586 8.30336 0
M  V30 18327 O 2474.59 -1.39011 8.63583 0
M  V30 18328 C 2473.18 -0.273849 6.91158 0
M  V30 18329 O 2473.98 -1.06348 6.02892 0
M  V30 18330 C 2471.85 -0.897649 7.22545 0
M  V30 18331 H 2471.88 -1.9841 7.04286 0
M  V30 18332 H 2473.06 0.739928 6.497 0
M  V30 18333 H 2474.55 0.60668 8.36503 0
M  V30 18334 H 2472.85 -0.352479 10.1829 0
M  V30 18335 H 2472.66 2.00611 10.0304 0
M  V30 18336 H 2471.03 1.41843 9.55327 0
M  V30 18337 H 2473.67 -1.95734 6.03555 0
M  V30 18338 P 2475.53 -1.25109 8.70152 0
M  V30 18339 O 2476.95 -1.35274 9.21221 0
M  V30 18340 O 2475.17 -0.0769065 7.84762 0
M  V30 18341 O 2475.21 -2.55232 7.81161 0
M  V30 18342 C 2475.05 -3.79939 8.58154 0
M  V30 18343 C 2475.59 -4.94023 7.72785 0
M  V30 18344 O 2474.53 -5.18726 6.91205 0
M  V30 18345 C 2476.8 -4.69597 6.85231 0
M  V30 18346 O 2477.54 -5.83832 6.51337 0
M  V30 18347 C 2476.13 -3.96706 5.66633 0
M  V30 18348 O 2476.93 -4.15414 4.49689 0
M  V30 18349 C 2474.8 -4.66153 5.59313 0
M  V30 18350 H 2474.83 -5.47679 4.85214 0
M  V30 18351 H 2476.01 -2.89008 5.86566 0
M  V30 18352 H 2477.5 -4.0121 7.36511 0
M  V30 18353 H 2475.8 -5.80182 8.37584 0
M  V30 18354 H 2475.61 -3.73517 9.52265 0
M  V30 18355 H 2473.98 -3.97163 8.80359 0
M  V30 18356 H 2476.62 -4.90969 4.01921 0
M  V30 18357 P 2478.48 -5.75688 6.64379 0
M  V30 18358 O 2479.9 -6.11849 7.01846 0
M  V30 18359 O 2478.12 -4.30744 6.56026 0
M  V30 18360 O 2478.16 -6.37042 5.19165 0
M  V30 18361 C 2478 -7.83578 5.16515 0
M  V30 18362 C 2478.54 -8.33398 3.83019 0
M  V30 18363 O 2477.48 -8.10074 3.01034 0
M  V30 18364 C 2479.75 -7.65514 3.2257 0
M  V30 18365 O 2480.49 -8.4329 2.32297 0
M  V30 18366 C 2479.08 -6.40075 2.62207 0
M  V30 18367 O 2479.88 -5.92589 1.53712 0
M  V30 18368 C 2477.75 -6.9454 2.18503 0
M  V30 18369 H 2477.78 -7.23063 1.12091 0
M  V30 18370 H 2478.96 -5.6025 3.37201 0
M  V30 18371 H 2480.45 -7.35707 4.02681 0
M  V30 18372 H 2478.75 -9.40912 3.9095 0
M  V30 18373 H 2478.56 -8.29056 5.99158 0
M  V30 18374 H 2476.93 -8.10073 5.25882 0
M  V30 18375 H 2479.57 -6.30324 0.726794 0
M  V30 18376 P 2481.43 -8.4349 2.47671 0
M  V30 18377 O 2482.85 -8.94263 2.59668 0
M  V30 18378 O 2481.07 -7.1704 3.19006 0
M  V30 18379 O 2481.11 -8.16596 0.923387 0
M  V30 18380 C 2480.95 -9.38537 0.108869 0
M  V30 18381 C 2481.49 -9.08175 -1.28353 0
M  V30 18382 O 2480.43 -8.44131 -1.84692 0
M  V30 18383 C 2482.7 -8.18386 -1.42505 0
M  V30 18384 O 2483.44 -8.3501 -2.60497 0
M  V30 18385 C 2482.04 -6.80225 -1.25468 0
M  V30 18386 O 2482.83 -5.81716 -1.90454 0
M  V30 18387 C 2480.7 -7.02416 -1.9168 0
M  V30 18388 N 2479.66 -6.31033 -1.20314 0
M  V30 18389 C 2479.82 -5.98817 0.0994088 0
M  V30 18390 N 2478.8 -5.35403 0.621694 0
M  V30 18391 C 2477.91 -5.25212 -0.43376 0
M  V30 18392 C 2476.65 -4.64602 -0.519722 0
M  V30 18393 N 2476.05 -4.01457 0.519136 0
M  V30 18394 N 2476.08 -4.7568 -1.76013 0
M  V30 18395 C 2476.68 -5.3653 -2.83017 0
M  V30 18396 N 2477.86 -5.93676 -2.79782 0
M  V30 18397 C 2478.43 -5.84061 -1.56249 0
M  V30 18398 H 2480.73 -6.68789 -2.9658 0
M  V30 18399 H 2481.91 -6.53498 -0.198729 0
M  V30 18400 H 2483.4 -8.36622 -0.589963 0
M  V30 18401 H 2481.7 -10.0273 -1.8081 0
M  V30 18402 H 2481.51 -10.2138 0.558219 0
M  V30 18403 H 2479.88 -9.6579 0.0444202 0
M  V30 18404 H 2476.15 -5.37113 -3.77321 0
M  V30 18405 H 2480.72 -6.23209 0.660562 0
M  V30 18406 H 2475.12 -3.58834 0.394862 0
M  V30 18407 H 2476.52 -3.96059 1.43048 0
M  V30 18408 H 2482.52 -5.69466 -2.79593 0
M  V30 18409 P 2484.38 -8.4349 -2.47671 0
M  V30 18410 O 2485.8 -8.92593 -2.65 0
M  V30 18411 O 2484.02 -7.7568 -1.19296 0
M  V30 18412 O 2484.06 -7.36886 -3.63805 0
M  V30 18413 C 2483.9 -7.95349 -4.982 0
M  V30 18414 C 2484.44 -6.94612 -5.98974 0
M  V30 18415 O 2483.38 -6.10347 -6.11815 0
M  V30 18416 C 2485.65 -6.11426 -5.62335 0
M  V30 18417 O 2486.39 -5.6162 -6.70584 0
M  V30 18418 C 2484.99 -5.04409 -4.73308 0
M  V30 18419 O 2485.78 -3.85992 -4.75183 0
M  V30 18420 C 2483.65 -4.8728 -5.41006 0
M  V30 18421 H 2483.68 -4.02333 -6.11157 0
M  V30 18422 H 2484.86 -5.39466 -3.69543 0
M  V30 18423 H 2486.35 -6.71916 -5.01943 0
M  V30 18424 H 2484.65 -7.4649 -6.93477 0
M  V30 18425 H 2484.46 -8.89416 -5.05237 0
M  V30 18426 H 2482.83 -8.14876 -5.18409 0
M  V30 18427 H 2485.47 -3.27957 -5.4317 0
M  V30 18428 P 2487.33 -5.75688 -6.64379 0
M  V30 18429 O 2488.75 -6.07627 -7.05504 0
M  V30 18430 O 2486.97 -5.88047 -5.19722 0
M  V30 18431 O 2487.01 -4.2322 -7.04443 0
M  V30 18432 C 2486.85 -3.99743 -8.4911 0
M  V30 18433 C 2487.39 -2.60516 -8.79425 0
M  V30 18434 O 2486.33 -1.82684 -8.4467 0
M  V30 18435 C 2488.61 -2.10343 -8.03628 0
M  V30 18436 O 2489.34 -1.09919 -8.67766 0
M  V30 18437 C 2487.94 -1.68446 -6.70876 0
M  V30 18438 O 2488.74 -0.678137 -6.08433 0
M  V30 18439 C 2486.6 -1.17436 -7.18567 0
M  V30 18440 H 2486.63 -0.0804732 -7.31656 0
M  V30 18441 H 2487.81 -2.54037 -6.02537 0
M  V30 18442 H 2489.3 -2.93881 -7.85526 0
M  V30 18443 H 2487.6 -2.53065 -9.86973 0
M  V30 18444 H 2487.41 -4.75072 -9.05887 0
M  V30 18445 H 2485.78 -4.05244 -8.76668 0
M  V30 18446 H 2488.42 0.177647 -6.34251 0
M  V30 18447 P 2490.28 -1.25109 -8.70152 0
M  V30 18448 O 2491.7 -1.29744 -9.22016 0
M  V30 18449 O 2489.92 -2.13714 -7.55141 0
M  V30 18450 O 2489.96 0.248149 -8.21425 0
M  V30 18451 C 2489.8 1.22779 -9.30434 0
M  V30 18452 C 2490.34 2.56293 -8.80664 0
M  V30 18453 O 2489.28 3.02979 -8.09349 0
M  V30 18454 C 2491.56 2.57523 -7.89775 0
M  V30 18455 O 2492.29 3.7668 -7.89438 0
M  V30 18456 C 2490.89 2.20997 -6.55446 0
M  V30 18457 O 2491.69 2.71895 -5.48509 0
M  V30 18458 C 2489.55 2.89693 -6.67988 0
M  V30 18459 H 2489.58 3.88793 -6.19859 0
M  V30 18460 H 2490.77 1.12046 -6.44229 0
M  V30 18461 H 2492.25 1.7746 -8.19711 0
M  V30 18462 H 2490.56 3.20706 -9.67112 0
M  V30 18463 H 2490.37 0.901032 -10.1892 0
M  V30 18464 H 2488.74 1.33049 -9.56592 0
M  V30 18465 H 2491.37 3.57847 -5.23962 0
M  V30 18466 P 2493.23 3.65191 -7.99657 0
M  V30 18467 O 2494.65 3.89332 -8.45794 0
M  V30 18468 O 2492.87 2.28472 -7.50807 0
M  V30 18469 O 2492.91 4.64972 -6.77611 0
M  V30 18470 C 2492.75 6.06319 -7.16352 0
M  V30 18471 C 2493.29 6.91731 -6.02299 0
M  V30 18472 O 2492.23 6.92449 -5.17064 0
M  V30 18473 C 2494.51 6.43627 -5.25174 0
M  V30 18474 O 2495.24 7.43686 -4.60469 0
M  V30 18475 C 2493.84 5.40275 -4.31916 0
M  V30 18476 O 2494.64 5.25279 -3.14438 0
M  V30 18477 C 2492.5 6.04847 -4.05327 0
M  V30 18478 H 2492.53 6.62195 -3.11261 0
M  V30 18479 H 2493.72 4.42556 -4.81383 0
M  V30 18480 H 2495.2 5.92458 -5.93643 0
M  V30 18481 H 2493.51 7.92655 -6.402 0
M  V30 18482 H 2493.32 6.26671 -8.0846 0
M  V30 18483 H 2491.69 6.29101 -7.32804 0
M  V30 18484 H 2494.32 5.84315 -2.47318 0
M  V30 18485 P 2496.18 7.39546 -4.75277 0
M  V30 18486 O 2497.6 7.84798 -5.01039 0
M  V30 18487 O 2495.82 5.9812 -5.08098 0
M  V30 18488 O 2495.86 7.57503 -3.1866 0
M  V30 18489 C 2495.7 8.97357 -2.74833 0
M  V30 18490 C 2496.24 9.07548 -1.32709 0
M  V30 18491 O 2495.18 8.62072 -0.606159 0
M  V30 18492 C 2497.46 8.25383 -0.938334 0
M  V30 18493 O 2498.2 8.74577 0.146954 0
M  V30 18494 C 2496.79 6.8802 -0.712559 0
M  V30 18495 O 2497.59 6.1189 0.194655 0
M  V30 18496 C 2495.45 7.27966 -0.139777 0
M  V30 18497 H 2495.48 7.25354 0.961601 0
M  V30 18498 H 2496.67 6.32557 -1.65702 0
M  V30 18499 H 2498.15 8.19355 -1.79097 0
M  V30 18500 H 2496.46 10.1294 -1.10029 0
M  V30 18501 H 2496.27 9.64276 -3.41316 0
M  V30 18502 H 2494.64 9.25417 -2.76357 0
M  V30 18503 H 2497.28 6.25267 1.07847 0
M  V30 18504 P 2499.13 8.791 2.18839e-11 0
M  V30 18505 O 2500.55 9.31096 0.027933 0
M  V30 18506 O 2498.77 7.77869 -1.04071 0
M  V30 18507 O 2498.81 8.09533 1.41463 0
M  V30 18508 C 2498.65 9.0349 2.53943 0
M  V30 18509 C 2499.19 8.35226 3.79016 0
M  V30 18510 O 2498.13 7.57992 4.15078 0
M  V30 18511 C 2500.41 7.45087 3.67298 0
M  V30 18512 O 2501.15 7.27796 4.85194 0
M  V30 18513 C 2499.74 6.17323 3.12027 0
M  V30 18514 O 2500.54 5.04231 3.47188 0
M  V30 18515 C 2498.4 6.19961 3.81809 0
M  V30 18516 H 2498.43 5.58218 4.73051 0
M  V30 18517 H 2499.62 6.21726 2.02589 0
M  V30 18518 H 2501.1 7.86112 2.9231 0
M  V30 18519 H 2499.41 9.11627 4.55076 0
M  V30 18520 H 2499.22 9.9573 2.34194 0
M  V30 18521 H 2497.59 9.2792 2.67832 0
M  V30 18522 H 2500.23 4.67702 4.28772 0
M  V30 18523 P 2502.08 7.39546 4.75277 0
M  V30 18524 O 2503.51 7.81777 5.05738 0
M  V30 18525 O 2501.72 7.1065 3.32998 0
M  V30 18526 O 2501.76 6.04542 5.56673 0
M  V30 18527 C 2501.6 6.22772 7.02095 0
M  V30 18528 C 2502.14 4.97725 7.70406 0
M  V30 18529 O 2501.08 4.13256 7.58987 0
M  V30 18530 C 2503.36 4.28231 7.11815 0
M  V30 18531 O 2504.1 3.49945 8.01648 0
M  V30 18532 C 2502.69 3.5063 5.96244 0
M  V30 18533 O 2503.49 2.36482 5.64681 0
M  V30 18534 C 2501.35 3.15122 6.56374 0
M  V30 18535 H 2501.38 2.13853 6.99751 0
M  V30 18536 H 2502.57 4.13501 5.06559 0
M  V30 18537 H 2504.05 5.03285 6.70911 0
M  V30 18538 H 2502.36 5.20877 8.75697 0
M  V30 18539 H 2502.17 7.11046 7.35349 0
M  V30 18540 H 2500.54 6.35815 7.26986 0
M  V30 18541 H 2503.18 1.61644 6.13565 0
M  V30 18542 P 2505.03 3.65191 7.99657 0
M  V30 18543 O 2506.46 3.8425 8.48115 0
M  V30 18544 O 2504.67 4.17805 6.64342 0
M  V30 18545 O 2504.71 2.07613 7.95143 0
M  V30 18546 C 2504.55 1.44328 9.27336 0
M  V30 18547 C 2505.09 0.0220036 9.17197 0
M  V30 18548 O 2504.03 -0.626867 8.61923 0
M  V30 18549 C 2506.31 -0.24586 8.30336 0
M  V30 18550 O 2507.05 -1.39011 8.63583 0
M  V30 18551 C 2505.64 -0.273849 6.91158 0
M  V30 18552 O 2506.44 -1.06348 6.02892 0
M  V30 18553 C 2504.3 -0.897649 7.22545 0
M  V30 18554 H 2504.33 -1.9841 7.04286 0
M  V30 18555 H 2505.52 0.739928 6.497 0
M  V30 18556 H 2507 0.60668 8.36503 0
M  V30 18557 H 2505.31 -0.352479 10.1829 0
M  V30 18558 H 2505.12 2.00611 10.0304 0
M  V30 18559 H 2503.49 1.41843 9.55327 0
M  V30 18560 H 2506.13 -1.95734 6.03555 0
M  V30 18561 P 2507.98 -1.25109 8.70152 0
M  V30 18562 O 2509.39 -1.31452 9.27431 0
M  V30 18563 O 2507.61 -0.0458113 7.89887 0
M  V30 18564 O 2507.66 -2.55201 7.81066 0
M  V30 18565 C 2507.5 -3.79939 8.58154 0
M  V30 18566 C 2508.04 -4.93969 7.72701 0
M  V30 18567 O 2506.99 -5.18666 6.91125 0
M  V30 18568 C 2509.26 -4.69597 6.85231 0
M  V30 18569 O 2510 -5.83832 6.51337 0
M  V30 18570 C 2508.59 -3.96706 5.66633 0
M  V30 18571 O 2509.39 -4.15346 4.49615 0
M  V30 18572 C 2507.25 -4.66153 5.59313 0
M  V30 18573 N 2506.21 -3.71582 5.24027 0
M  V30 18574 C 2505.18 -4.15133 4.44901 0
M  V30 18575 O 2505.21 -5.32122 4.00336 0
M  V30 18576 N 2504.16 -3.30554 4.15693 0
M  V30 18577 C 2504.21 -2.04701 4.61105 0
M  V30 18578 C 2505.31 -1.57111 5.38655 0
M  V30 18579 C 2506.27 -2.44234 5.68454 0
M  V30 18580 H 2507.29 -5.47604 4.85148 0
M  V30 18581 H 2508.47 -2.8955 5.86187 0
M  V30 18582 H 2509.95 -4.01995 7.36197 0
M  V30 18583 H 2508.26 -5.81019 8.37003 0
M  V30 18584 H 2508.07 -3.73517 9.52265 0
M  V30 18585 H 2506.44 -3.97122 8.80267 0
M  V30 18586 H 2505.36 -0.538464 5.72373 0
M  V30 18587 H 2507.12 -2.11927 6.29377 0
M  V30 18588 H 2509.17 -4.98352 4.09633 0
M  V30 18589 P 2510.94 -5.75688 6.64379 0
M  V30 18590 O 2512.36 -6.11849 7.01846 0
M  V30 18591 O 2510.58 -4.30744 6.56026 0
M  V30 18592 O 2510.61 -6.37042 5.19165 0
M  V30 18593 C 2510.45 -7.83578 5.16515 0
M  V30 18594 C 2510.99 -8.33398 3.83019 0
M  V30 18595 O 2509.94 -8.10074 3.01034 0
M  V30 18596 C 2512.21 -7.65514 3.2257 0
M  V30 18597 O 2512.95 -8.4329 2.32297 0
M  V30 18598 C 2511.54 -6.40075 2.62207 0
M  V30 18599 O 2512.34 -5.92589 1.53712 0
M  V30 18600 C 2510.2 -6.9454 2.18503 0
M  V30 18601 H 2510.24 -7.23063 1.12091 0
M  V30 18602 H 2511.42 -5.6025 3.37201 0
M  V30 18603 H 2512.9 -7.35707 4.02681 0
M  V30 18604 H 2511.21 -9.40912 3.9095 0
M  V30 18605 H 2511.02 -8.29056 5.99158 0
M  V30 18606 H 2509.39 -8.10073 5.25882 0
M  V30 18607 H 2512.03 -6.30324 0.726794 0
M  V30 18608 P 2513.89 -8.4349 2.47671 0
M  V30 18609 O 2515.31 -8.94167 2.5964 0
M  V30 18610 O 2513.53 -7.1704 3.19006 0
M  V30 18611 O 2513.56 -8.16596 0.923387 0
M  V30 18612 C 2513.4 -9.38437 0.108857 0
M  V30 18613 C 2513.94 -9.08175 -1.28353 0
M  V30 18614 O 2512.89 -8.44229 -1.84713 0
M  V30 18615 C 2515.16 -8.18386 -1.42505 0
M  V30 18616 O 2515.9 -8.3501 -2.60497 0
M  V30 18617 C 2514.49 -6.80225 -1.25468 0
M  V30 18618 O 2515.29 -5.81621 -1.91066 0
M  V30 18619 C 2513.15 -7.02416 -1.9168 0
M  V30 18620 H 2513.19 -6.6888 -2.96621 0
M  V30 18621 H 2514.37 -6.53617 -0.192223 0
M  V30 18622 H 2515.85 -8.36622 -0.589963 0
M  V30 18623 H 2514.16 -10.0291 -1.79807 0
M  V30 18624 H 2513.97 -10.2138 0.558219 0
M  V30 18625 H 2512.34 -9.6579 0.0444202 0
M  V30 18626 H 2514.98 -5.69556 -2.79637 0
M  V30 18627 P 2516.84 -8.4349 -2.47671 0
M  V30 18628 O 2518.26 -8.92593 -2.65 0
M  V30 18629 O 2516.48 -7.7568 -1.19296 0
M  V30 18630 O 2516.51 -7.36886 -3.63805 0
M  V30 18631 C 2516.35 -7.95349 -4.982 0
M  V30 18632 C 2516.89 -6.94612 -5.98974 0
M  V30 18633 O 2515.84 -6.10347 -6.11815 0
M  V30 18634 C 2518.11 -6.11426 -5.62335 0
M  V30 18635 O 2518.85 -5.6162 -6.70584 0
M  V30 18636 C 2517.44 -5.04409 -4.73308 0
M  V30 18637 O 2518.24 -3.85992 -4.75183 0
M  V30 18638 C 2516.11 -4.8728 -5.41006 0
M  V30 18639 H 2516.14 -4.02333 -6.11157 0
M  V30 18640 H 2517.32 -5.39466 -3.69543 0
M  V30 18641 H 2518.8 -6.71916 -5.01943 0
M  V30 18642 H 2517.11 -7.4649 -6.93477 0
M  V30 18643 H 2516.92 -8.89416 -5.05237 0
M  V30 18644 H 2515.29 -8.14876 -5.18409 0
M  V30 18645 H 2517.93 -3.27957 -5.4317 0
M  V30 18646 P 2519.79 -5.75688 -6.64379 0
M  V30 18647 O 2521.21 -6.07627 -7.05504 0
M  V30 18648 O 2519.43 -5.88047 -5.19722 0
M  V30 18649 O 2519.46 -4.2322 -7.04443 0
M  V30 18650 C 2519.3 -3.99743 -8.4911 0
M  V30 18651 C 2519.84 -2.60516 -8.79425 0
M  V30 18652 O 2518.79 -1.82684 -8.4467 0
M  V30 18653 C 2521.06 -2.10343 -8.03628 0
M  V30 18654 O 2521.8 -1.09919 -8.67766 0
M  V30 18655 C 2520.39 -1.68446 -6.70876 0
M  V30 18656 O 2521.19 -0.678137 -6.08433 0
M  V30 18657 C 2519.06 -1.17436 -7.18567 0
M  V30 18658 H 2519.09 -0.0804732 -7.31656 0
M  V30 18659 H 2520.27 -2.54037 -6.02537 0
M  V30 18660 H 2521.75 -2.93881 -7.85526 0
M  V30 18661 H 2520.06 -2.53065 -9.86973 0
M  V30 18662 H 2519.87 -4.75072 -9.05887 0
M  V30 18663 H 2518.24 -4.05244 -8.76668 0
M  V30 18664 H 2520.88 0.177647 -6.34251 0
M  V30 18665 P 2522.74 -1.25109 -8.70152 0
M  V30 18666 O 2524.16 -1.29744 -9.22016 0
M  V30 18667 O 2522.38 -2.13714 -7.55141 0
M  V30 18668 O 2522.41 0.248149 -8.21425 0
M  V30 18669 C 2522.25 1.22779 -9.30434 0
M  V30 18670 C 2522.79 2.56293 -8.80664 0
M  V30 18671 O 2521.74 3.02979 -8.09349 0
M  V30 18672 C 2524.01 2.57523 -7.89775 0
M  V30 18673 O 2524.75 3.7668 -7.89438 0
M  V30 18674 C 2523.34 2.20997 -6.55446 0
M  V30 18675 O 2524.14 2.71895 -5.48509 0
M  V30 18676 C 2522.01 2.89693 -6.67988 0
M  V30 18677 H 2522.04 3.88793 -6.19859 0
M  V30 18678 H 2523.22 1.12046 -6.44229 0
M  V30 18679 H 2524.71 1.7746 -8.19711 0
M  V30 18680 H 2523.01 3.20706 -9.67112 0
M  V30 18681 H 2522.82 0.901032 -10.1892 0
M  V30 18682 H 2521.19 1.33049 -9.56592 0
M  V30 18683 H 2523.83 3.57847 -5.23962 0
M  V30 18684 P 2525.69 3.65191 -7.99657 0
M  V30 18685 O 2527.11 3.89332 -8.45794 0
M  V30 18686 O 2525.33 2.28472 -7.50807 0
M  V30 18687 O 2525.36 4.64972 -6.77611 0
M  V30 18688 C 2525.2 6.06319 -7.16352 0
M  V30 18689 C 2525.74 6.91731 -6.02299 0
M  V30 18690 O 2524.69 6.92449 -5.17064 0
M  V30 18691 C 2526.96 6.43627 -5.25174 0
M  V30 18692 O 2527.7 7.43686 -4.60469 0
M  V30 18693 C 2526.29 5.40275 -4.31916 0
M  V30 18694 O 2527.09 5.25279 -3.14438 0
M  V30 18695 C 2524.96 6.04847 -4.05327 0
M  V30 18696 H 2524.99 6.62195 -3.11261 0
M  V30 18697 H 2526.17 4.42556 -4.81383 0
M  V30 18698 H 2527.66 5.92458 -5.93643 0
M  V30 18699 H 2525.96 7.92655 -6.402 0
M  V30 18700 H 2525.77 6.26671 -8.0846 0
M  V30 18701 H 2524.14 6.29101 -7.32804 0
M  V30 18702 H 2526.78 5.84315 -2.47318 0
M  V30 18703 P 2528.64 7.39546 -4.75277 0
M  V30 18704 O 2530.06 7.84798 -5.01039 0
M  V30 18705 O 2528.28 5.9812 -5.08098 0
M  V30 18706 O 2528.32 7.57503 -3.1866 0
M  V30 18707 C 2528.16 8.97357 -2.74833 0
M  V30 18708 C 2528.7 9.07548 -1.32709 0
M  V30 18709 O 2527.64 8.62072 -0.606159 0
M  V30 18710 C 2529.91 8.25383 -0.938334 0
M  V30 18711 O 2530.65 8.74577 0.146954 0
M  V30 18712 C 2529.24 6.8802 -0.712559 0
M  V30 18713 O 2530.04 6.1189 0.194655 0
M  V30 18714 C 2527.91 7.27966 -0.139777 0
M  V30 18715 H 2527.94 7.25354 0.961601 0
M  V30 18716 H 2529.12 6.32557 -1.65702 0
M  V30 18717 H 2530.61 8.19355 -1.79097 0
M  V30 18718 H 2528.91 10.1294 -1.10029 0
M  V30 18719 H 2528.72 9.64276 -3.41316 0
M  V30 18720 H 2527.09 9.25417 -2.76357 0
M  V30 18721 H 2529.73 6.25267 1.07847 0
M  V30 18722 P 2531.59 8.791 2.21941e-11 0
M  V30 18723 O 2533.01 9.31096 0.027933 0
M  V30 18724 O 2531.23 7.77869 -1.04071 0
M  V30 18725 O 2531.27 8.09533 1.41463 0
M  V30 18726 C 2531.11 9.0349 2.53943 0
M  V30 18727 C 2531.65 8.35226 3.79016 0
M  V30 18728 O 2530.59 7.57992 4.15078 0
M  V30 18729 C 2532.86 7.45087 3.67298 0
M  V30 18730 O 2533.6 7.27796 4.85194 0
M  V30 18731 C 2532.2 6.17323 3.12027 0
M  V30 18732 O 2532.99 5.04231 3.47188 0
M  V30 18733 C 2530.86 6.19961 3.81809 0
M  V30 18734 H 2530.89 5.58218 4.73051 0
M  V30 18735 H 2532.07 6.21726 2.02589 0
M  V30 18736 H 2533.56 7.86112 2.9231 0
M  V30 18737 H 2531.86 9.11627 4.55076 0
M  V30 18738 H 2531.67 9.9573 2.34194 0
M  V30 18739 H 2530.04 9.2792 2.67832 0
M  V30 18740 H 2532.68 4.67702 4.28772 0
M  V30 18741 P 2534.54 7.39546 4.75277 0
M  V30 18742 O 2535.96 7.81861 5.05793 0
M  V30 18743 O 2534.18 7.1065 3.32998 0
M  V30 18744 O 2534.22 6.04542 5.56673 0
M  V30 18745 C 2534.06 6.22839 7.02169 0
M  V30 18746 C 2534.6 4.97725 7.70406 0
M  V30 18747 O 2533.54 4.13208 7.58899 0
M  V30 18748 C 2535.81 4.28231 7.11815 0
M  V30 18749 O 2536.55 3.49945 8.01648 0
M  V30 18750 C 2535.15 3.5063 5.96244 0
M  V30 18751 O 2535.94 2.37008 5.64352 0
M  V30 18752 C 2533.81 3.15122 6.56374 0
M  V30 18753 N 2532.77 3.22311 5.55692 0
M  V30 18754 C 2532.93 3.99655 4.46046 0
M  V30 18755 N 2531.91 3.97599 3.63918 0
M  V30 18756 C 2531.02 3.11159 4.25334 0
M  V30 18757 C 2529.76 2.64972 3.85157 0
M  V30 18758 N 2529.19 1.78482 4.74759 0
M  V30 18759 C 2529.79 1.37463 5.90819 0
M  V30 18760 N 2530.97 1.7733 6.31889 0
M  V30 18761 C 2531.54 2.64393 5.43725 0
M  V30 18762 H 2535.02 4.12931 5.06895 0
M  V30 18763 H 2536.51 5.03285 6.70911 0
M  V30 18764 H 2534.81 5.20001 8.76217 0
M  V30 18765 H 2534.62 7.11046 7.35349 0
M  V30 18766 H 2532.99 6.35815 7.26986 0
M  V30 18767 H 2533.83 4.58037 4.27732 0
M  V30 18768 H 2535.63 1.61619 6.13468 0
M  V30 18769 P 2537.49 3.65191 7.99657 0
M  V30 18770 O 2538.91 3.8425 8.48115 0
M  V30 18771 O 2537.13 4.17805 6.64342 0
M  V30 18772 O 2537.17 2.07613 7.95143 0
M  V30 18773 C 2537.01 1.44328 9.27336 0
M  V30 18774 C 2537.55 0.0220036 9.17197 0
M  V30 18775 O 2536.49 -0.626867 8.61923 0
M  V30 18776 C 2538.77 -0.24586 8.30336 0
M  V30 18777 O 2539.5 -1.39011 8.63583 0
M  V30 18778 C 2538.1 -0.273849 6.91158 0
M  V30 18779 O 2538.9 -1.06348 6.02892 0
M  V30 18780 C 2536.76 -0.897649 7.22545 0
M  V30 18781 H 2536.79 -1.9841 7.04286 0
M  V30 18782 H 2537.97 0.739928 6.497 0
M  V30 18783 H 2539.46 0.60668 8.36503 0
M  V30 18784 H 2537.76 -0.352479 10.1829 0
M  V30 18785 H 2537.57 2.00611 10.0304 0
M  V30 18786 H 2535.94 1.41843 9.55327 0
M  V30 18787 H 2538.58 -1.95734 6.03555 0
M  V30 18788 P 2540.44 -1.25109 8.70152 0
M  V30 18789 O 2541.86 -1.35303 9.21419 0
M  V30 18790 O 2540.08 -0.0769065 7.84762 0
M  V30 18791 O 2540.12 -2.55232 7.81161 0
M  V30 18792 C 2539.96 -3.79939 8.58154 0
M  V30 18793 C 2540.5 -4.93969 7.72701 0
M  V30 18794 O 2539.44 -5.18726 6.91205 0
M  V30 18795 C 2541.72 -4.69597 6.85231 0
M  V30 18796 O 2542.45 -5.83832 6.51337 0
M  V30 18797 C 2541.05 -3.96706 5.66633 0
M  V30 18798 O 2541.85 -4.15346 4.49615 0
M  V30 18799 C 2539.71 -4.66153 5.59313 0
M  V30 18800 N 2538.67 -3.71582 5.24027 0
M  V30 18801 C 2538.73 -2.46018 5.67902 0
M  V30 18802 N 2537.68 -1.74868 5.24518 0
M  V30 18803 C 2536.95 -2.61333 4.54528 0
M  V30 18804 C 2535.64 -2.46162 3.95441 0
M  V30 18805 O 2534.91 -1.46013 3.94122 0
M  V30 18806 N 2535.21 -3.59334 3.34752 0
M  V30 18807 C 2535.96 -4.79605 3.3023 0
M  V30 18808 N 2535.37 -5.82109 2.6065 0
M  V30 18809 N 2537.12 -4.97402 3.8843 0
M  V30 18810 C 2537.57 -3.86258 4.50476 0
M  V30 18811 H 2539.74 -5.47679 4.85214 0
M  V30 18812 H 2540.92 -2.88964 5.86476 0
M  V30 18813 H 2542.41 -4.01947 7.36109 0
M  V30 18814 H 2540.71 -5.80182 8.37584 0
M  V30 18815 H 2540.52 -3.73517 9.52265 0
M  V30 18816 H 2538.89 -3.97163 8.80359 0
M  V30 18817 H 2534.32 -3.5825 2.90294 0
M  V30 18818 H 2539.52 -2.06161 6.30974 0
M  V30 18819 H 2534.45 -5.66979 2.15354 0
M  V30 18820 H 2535.83 -6.73686 2.54344 0
M  V30 18821 H 2541.53 -4.90891 4.01857 0
M  V30 18822 P 2543.39 -5.75688 6.64379 0
M  V30 18823 O 2544.81 -6.11849 7.01846 0
M  V30 18824 O 2543.03 -4.30744 6.56026 0
M  V30 18825 O 2543.07 -6.37042 5.19165 0
M  V30 18826 C 2542.91 -7.83578 5.16515 0
M  V30 18827 C 2543.45 -8.33398 3.83019 0
M  V30 18828 O 2542.39 -8.10074 3.01034 0
M  V30 18829 C 2544.67 -7.65514 3.2257 0
M  V30 18830 O 2545.4 -8.4329 2.32297 0
M  V30 18831 C 2544 -6.40075 2.62207 0
M  V30 18832 O 2544.8 -5.92589 1.53712 0
M  V30 18833 C 2542.66 -6.9454 2.18503 0
M  V30 18834 H 2542.69 -7.23063 1.12091 0
M  V30 18835 H 2543.88 -5.6025 3.37201 0
M  V30 18836 H 2545.36 -7.35707 4.02681 0
M  V30 18837 H 2543.67 -9.40912 3.9095 0
M  V30 18838 H 2543.48 -8.29056 5.99158 0
M  V30 18839 H 2541.85 -8.10073 5.25882 0
M  V30 18840 H 2544.48 -6.30324 0.726794 0
M  V30 18841 P 2546.34 -8.4349 2.47671 0
M  V30 18842 O 2547.76 -8.94167 2.5964 0
M  V30 18843 O 2545.98 -7.1704 3.19006 0
M  V30 18844 O 2546.02 -8.16596 0.923387 0
M  V30 18845 C 2545.86 -9.38437 0.108857 0
M  V30 18846 C 2546.4 -9.08175 -1.28353 0
M  V30 18847 O 2545.34 -8.44229 -1.84713 0
M  V30 18848 C 2547.62 -8.18386 -1.42505 0
M  V30 18849 O 2548.35 -8.3501 -2.60497 0
M  V30 18850 C 2546.95 -6.80225 -1.25468 0
M  V30 18851 O 2547.75 -5.81621 -1.91066 0
M  V30 18852 C 2545.61 -7.02416 -1.9168 0
M  V30 18853 H 2545.64 -6.6888 -2.96621 0
M  V30 18854 H 2546.83 -6.53617 -0.192223 0
M  V30 18855 H 2548.31 -8.36622 -0.589963 0
M  V30 18856 H 2546.62 -10.0291 -1.79807 0
M  V30 18857 H 2546.43 -10.2138 0.558219 0
M  V30 18858 H 2544.8 -9.6579 0.0444202 0
M  V30 18859 H 2547.43 -5.69556 -2.79637 0
M  V30 18860 P 2549.29 -8.4349 -2.47671 0
M  V30 18861 O 2550.71 -8.92593 -2.65 0
M  V30 18862 O 2548.93 -7.7568 -1.19296 0
M  V30 18863 O 2548.97 -7.36886 -3.63805 0
M  V30 18864 C 2548.81 -7.95349 -4.982 0
M  V30 18865 C 2549.35 -6.94612 -5.98974 0
M  V30 18866 O 2548.29 -6.10347 -6.11815 0
M  V30 18867 C 2550.57 -6.11426 -5.62335 0
M  V30 18868 O 2551.31 -5.6162 -6.70584 0
M  V30 18869 C 2549.9 -5.04409 -4.73308 0
M  V30 18870 O 2550.7 -3.85992 -4.75183 0
M  V30 18871 C 2548.56 -4.8728 -5.41006 0
M  V30 18872 H 2548.59 -4.02333 -6.11157 0
M  V30 18873 H 2549.78 -5.39466 -3.69543 0
M  V30 18874 H 2551.26 -6.71916 -5.01943 0
M  V30 18875 H 2549.57 -7.4649 -6.93477 0
M  V30 18876 H 2549.38 -8.89416 -5.05237 0
M  V30 18877 H 2547.75 -8.14876 -5.18409 0
M  V30 18878 H 2550.39 -3.27957 -5.4317 0
M  V30 18879 P 2552.24 -5.75688 -6.64379 0
M  V30 18880 O 2553.67 -6.07627 -7.05504 0
M  V30 18881 O 2551.88 -5.88047 -5.19722 0
M  V30 18882 O 2551.92 -4.2322 -7.04443 0
M  V30 18883 C 2551.76 -3.99743 -8.4911 0
M  V30 18884 C 2552.3 -2.60516 -8.79425 0
M  V30 18885 O 2551.24 -1.82684 -8.4467 0
M  V30 18886 C 2553.52 -2.10343 -8.03628 0
M  V30 18887 O 2554.26 -1.09919 -8.67766 0
M  V30 18888 C 2552.85 -1.68446 -6.70876 0
M  V30 18889 O 2553.65 -0.678137 -6.08433 0
M  V30 18890 C 2551.51 -1.17436 -7.18567 0
M  V30 18891 H 2551.54 -0.0804732 -7.31656 0
M  V30 18892 H 2552.73 -2.54037 -6.02537 0
M  V30 18893 H 2554.21 -2.93881 -7.85526 0
M  V30 18894 H 2552.52 -2.53065 -9.86973 0
M  V30 18895 H 2552.33 -4.75072 -9.05887 0
M  V30 18896 H 2550.7 -4.05244 -8.76668 0
M  V30 18897 H 2553.34 0.177647 -6.34251 0
M  V30 18898 P 2555.19 -1.25109 -8.70152 0
M  V30 18899 O 2556.62 -1.29744 -9.22016 0
M  V30 18900 O 2554.83 -2.13714 -7.55141 0
M  V30 18901 O 2554.87 0.248149 -8.21425 0
M  V30 18902 C 2554.71 1.22779 -9.30434 0
M  V30 18903 C 2555.25 2.56293 -8.80664 0
M  V30 18904 O 2554.19 3.02979 -8.09349 0
M  V30 18905 C 2556.47 2.57523 -7.89775 0
M  V30 18906 O 2557.21 3.7668 -7.89438 0
M  V30 18907 C 2555.8 2.20997 -6.55446 0
M  V30 18908 O 2556.6 2.71895 -5.48509 0
M  V30 18909 C 2554.46 2.89693 -6.67988 0
M  V30 18910 H 2554.49 3.88793 -6.19859 0
M  V30 18911 H 2555.68 1.12046 -6.44229 0
M  V30 18912 H 2557.16 1.7746 -8.19711 0
M  V30 18913 H 2555.47 3.20706 -9.67112 0
M  V30 18914 H 2555.28 0.901032 -10.1892 0
M  V30 18915 H 2553.65 1.33049 -9.56592 0
M  V30 18916 H 2556.29 3.57847 -5.23962 0
M  V30 18917 P 2558.14 3.65191 -7.99657 0
M  V30 18918 O 2559.57 3.89332 -8.45794 0
M  V30 18919 O 2557.78 2.28472 -7.50807 0
M  V30 18920 O 2557.82 4.64972 -6.77611 0
M  V30 18921 C 2557.66 6.06319 -7.16352 0
M  V30 18922 C 2558.2 6.91731 -6.02299 0
M  V30 18923 O 2557.15 6.92449 -5.17064 0
M  V30 18924 C 2559.42 6.43627 -5.25174 0
M  V30 18925 O 2560.16 7.43686 -4.60469 0
M  V30 18926 C 2558.75 5.40275 -4.31916 0
M  V30 18927 O 2559.55 5.25279 -3.14438 0
M  V30 18928 C 2557.41 6.04847 -4.05327 0
M  V30 18929 H 2557.45 6.62195 -3.11261 0
M  V30 18930 H 2558.63 4.42556 -4.81383 0
M  V30 18931 H 2560.11 5.92458 -5.93643 0
M  V30 18932 H 2558.42 7.92655 -6.402 0
M  V30 18933 H 2558.23 6.26671 -8.0846 0
M  V30 18934 H 2556.6 6.29101 -7.32804 0
M  V30 18935 H 2559.24 5.84315 -2.47318 0
M  V30 18936 P 2561.09 7.39546 -4.75277 0
M  V30 18937 O 2562.52 7.84798 -5.01039 0
M  V30 18938 O 2560.73 5.9812 -5.08098 0
M  V30 18939 O 2560.77 7.57503 -3.1866 0
M  V30 18940 C 2560.61 8.97357 -2.74833 0
M  V30 18941 C 2561.15 9.07548 -1.32709 0
M  V30 18942 O 2560.1 8.62072 -0.606159 0
M  V30 18943 C 2562.37 8.25383 -0.938334 0
M  V30 18944 O 2563.11 8.74577 0.146954 0
M  V30 18945 C 2561.7 6.8802 -0.712559 0
M  V30 18946 O 2562.5 6.1189 0.194655 0
M  V30 18947 C 2560.36 7.27966 -0.139777 0
M  V30 18948 H 2560.4 7.25354 0.961601 0
M  V30 18949 H 2561.58 6.32557 -1.65702 0
M  V30 18950 H 2563.06 8.19355 -1.79097 0
M  V30 18951 H 2561.37 10.1294 -1.10029 0
M  V30 18952 H 2561.18 9.64276 -3.41316 0
M  V30 18953 H 2559.55 9.25417 -2.76357 0
M  V30 18954 H 2562.19 6.25267 1.07847 0
M  V30 18955 P 2564.05 8.791 2.25043e-11 0
M  V30 18956 O 2565.47 9.31096 0.027933 0
M  V30 18957 O 2563.69 7.77869 -1.04071 0
M  V30 18958 O 2563.72 8.09533 1.41463 0
M  V30 18959 C 2563.56 9.0349 2.53943 0
M  V30 18960 C 2564.1 8.35226 3.79016 0
M  V30 18961 O 2563.05 7.57992 4.15078 0
M  V30 18962 C 2565.32 7.45087 3.67298 0
M  V30 18963 O 2566.06 7.27796 4.85194 0
M  V30 18964 C 2564.65 6.17323 3.12027 0
M  V30 18965 O 2565.45 5.04231 3.47188 0
M  V30 18966 C 2563.31 6.19961 3.81809 0
M  V30 18967 H 2563.35 5.58218 4.73051 0
M  V30 18968 H 2564.53 6.21726 2.02589 0
M  V30 18969 H 2566.01 7.86112 2.9231 0
M  V30 18970 H 2564.32 9.11627 4.55076 0
M  V30 18971 H 2564.13 9.9573 2.34194 0
M  V30 18972 H 2562.5 9.2792 2.67832 0
M  V30 18973 H 2565.14 4.67702 4.28772 0
M  V30 18974 P 2567 7.39546 4.75277 0
M  V30 18975 O 2568.42 7.81777 5.05738 0
M  V30 18976 O 2566.64 7.1065 3.32998 0
M  V30 18977 O 2566.67 6.04542 5.56673 0
M  V30 18978 C 2566.51 6.22772 7.02095 0
M  V30 18979 C 2567.05 4.97725 7.70406 0
M  V30 18980 O 2566 4.13256 7.58987 0
M  V30 18981 C 2568.27 4.28231 7.11815 0
M  V30 18982 O 2569.01 3.49945 8.01648 0
M  V30 18983 C 2567.6 3.5063 5.96244 0
M  V30 18984 O 2568.4 2.36482 5.64681 0
M  V30 18985 C 2566.26 3.15122 6.56374 0
M  V30 18986 H 2566.3 2.13853 6.99751 0
M  V30 18987 H 2567.48 4.13501 5.06559 0
M  V30 18988 H 2568.96 5.03285 6.70911 0
M  V30 18989 H 2567.27 5.20877 8.75697 0
M  V30 18990 H 2567.08 7.11046 7.35349 0
M  V30 18991 H 2565.45 6.35815 7.26986 0
M  V30 18992 H 2568.09 1.61644 6.13565 0
M  V30 18993 P 2569.95 3.65191 7.99657 0
M  V30 18994 O 2571.37 3.8425 8.48115 0
M  V30 18995 O 2569.59 4.17805 6.64342 0
M  V30 18996 O 2569.62 2.07613 7.95143 0
M  V30 18997 C 2569.46 1.44328 9.27336 0
M  V30 18998 C 2570 0.0220036 9.17197 0
M  V30 18999 O 2568.95 -0.626867 8.61923 0
M  V30 19000 C 2571.22 -0.24586 8.30336 0
M  V30 19001 O 2571.96 -1.39011 8.63583 0
M  V30 19002 C 2570.55 -0.273849 6.91158 0
M  V30 19003 O 2571.35 -1.06348 6.02892 0
M  V30 19004 C 2569.22 -0.897649 7.22545 0
M  V30 19005 H 2569.25 -1.9841 7.04286 0
M  V30 19006 H 2570.43 0.739928 6.497 0
M  V30 19007 H 2571.91 0.60668 8.36503 0
M  V30 19008 H 2570.22 -0.352479 10.1829 0
M  V30 19009 H 2570.03 2.00611 10.0304 0
M  V30 19010 H 2568.4 1.41843 9.55327 0
M  V30 19011 H 2571.04 -1.95734 6.03555 0
M  V30 19012 P 2572.9 -1.25109 8.70152 0
M  V30 19013 O 2574.32 -1.35274 9.21221 0
M  V30 19014 O 2572.54 -0.0769065 7.84762 0
M  V30 19015 O 2572.57 -2.55232 7.81161 0
M  V30 19016 C 2572.41 -3.79939 8.58154 0
M  V30 19017 C 2572.95 -4.94023 7.72785 0
M  V30 19018 O 2571.9 -5.18726 6.91205 0
M  V30 19019 C 2574.17 -4.69597 6.85231 0
M  V30 19020 O 2574.91 -5.83832 6.51337 0
M  V30 19021 C 2573.5 -3.96706 5.66633 0
M  V30 19022 O 2574.3 -4.15414 4.49689 0
M  V30 19023 C 2572.17 -4.66153 5.59313 0
M  V30 19024 H 2572.2 -5.47679 4.85214 0
M  V30 19025 H 2573.38 -2.89008 5.86566 0
M  V30 19026 H 2574.87 -4.0121 7.36511 0
M  V30 19027 H 2573.17 -5.80182 8.37584 0
M  V30 19028 H 2572.98 -3.73517 9.52265 0
M  V30 19029 H 2571.35 -3.97163 8.80359 0
M  V30 19030 H 2573.99 -4.90969 4.01921 0
M  V30 19031 P 2575.85 -5.75688 6.64379 0
M  V30 19032 O 2577.27 -6.11981 7.01997 0
M  V30 19033 O 2575.49 -4.30744 6.56026 0
M  V30 19034 O 2575.52 -6.37042 5.19165 0
M  V30 19035 C 2575.36 -7.83578 5.16515 0
M  V30 19036 C 2575.9 -8.33307 3.82977 0
M  V30 19037 O 2574.85 -8.10074 3.01034 0
M  V30 19038 C 2577.12 -7.65514 3.2257 0
M  V30 19039 O 2577.86 -8.4329 2.32297 0
M  V30 19040 C 2576.45 -6.40075 2.62207 0
M  V30 19041 O 2577.25 -5.92492 1.53687 0
M  V30 19042 C 2575.12 -6.9454 2.18503 0
M  V30 19043 N 2574.07 -5.95905 2.39948 0
M  V30 19044 C 2574.14 -5.13994 3.44742 0
M  V30 19045 N 2573.09 -4.30684 3.46712 0
M  V30 19046 C 2572.36 -4.65583 2.41086 0
M  V30 19047 C 2571.05 -4.20877 1.99581 0
M  V30 19048 O 2570.32 -3.35913 2.52616 0
M  V30 19049 N 2570.62 -4.83271 0.873406 0
M  V30 19050 C 2571.37 -5.82006 0.185129 0
M  V30 19051 N 2570.77 -6.30619 -0.95439 0
M  V30 19052 N 2572.52 -6.28443 0.578524 0
M  V30 19053 C 2572.98 -5.68486 1.70138 0
M  V30 19054 H 2575.15 -7.23063 1.12091 0
M  V30 19055 H 2576.33 -5.60165 3.3715 0
M  V30 19056 H 2577.82 -7.3611 4.01946 0
M  V30 19057 H 2576.12 -9.40912 3.9095 0
M  V30 19058 H 2575.93 -8.29056 5.99158 0
M  V30 19059 H 2574.3 -8.10073 5.25882 0
M  V30 19060 H 2569.72 -4.58323 0.505262 0
M  V30 19061 H 2574.93 -5.14564 4.1935 0
M  V30 19062 H 2569.86 -5.93402 -1.25364 0
M  V30 19063 H 2571.24 -7.0425 -1.50254 0
M  V30 19064 H 2576.94 -6.30224 0.72668 0
M  V30 19065 P 2578.8 -8.4349 2.47671 0
M  V30 19066 O 2580.22 -8.94167 2.5964 0
M  V30 19067 O 2578.44 -7.1704 3.19006 0
M  V30 19068 O 2578.48 -8.16596 0.923387 0
M  V30 19069 C 2578.32 -9.38437 0.108857 0
M  V30 19070 C 2578.86 -9.08175 -1.28353 0
M  V30 19071 O 2577.8 -8.44229 -1.84713 0
M  V30 19072 C 2580.07 -8.18386 -1.42505 0
M  V30 19073 O 2580.81 -8.3501 -2.60497 0
M  V30 19074 C 2579.4 -6.80225 -1.25468 0
M  V30 19075 O 2580.2 -5.81621 -1.91066 0
M  V30 19076 C 2578.07 -7.02416 -1.9168 0
M  V30 19077 H 2578.1 -6.6888 -2.96621 0
M  V30 19078 H 2579.28 -6.53617 -0.192223 0
M  V30 19079 H 2580.77 -8.36622 -0.589963 0
M  V30 19080 H 2579.07 -10.0291 -1.79807 0
M  V30 19081 H 2578.88 -10.2138 0.558219 0
M  V30 19082 H 2577.25 -9.6579 0.0444202 0
M  V30 19083 H 2579.89 -5.69556 -2.79637 0
M  V30 19084 P 2581.75 -8.4349 -2.47671 0
M  V30 19085 O 2583.17 -8.92593 -2.65 0
M  V30 19086 O 2581.39 -7.7568 -1.19296 0
M  V30 19087 O 2581.43 -7.36886 -3.63805 0
M  V30 19088 C 2581.27 -7.95349 -4.982 0
M  V30 19089 C 2581.81 -6.94612 -5.98974 0
M  V30 19090 O 2580.75 -6.10347 -6.11815 0
M  V30 19091 C 2583.02 -6.11426 -5.62335 0
M  V30 19092 O 2583.76 -5.6162 -6.70584 0
M  V30 19093 C 2582.35 -5.04409 -4.73308 0
M  V30 19094 O 2583.15 -3.85992 -4.75183 0
M  V30 19095 C 2581.02 -4.8728 -5.41006 0
M  V30 19096 H 2581.05 -4.02333 -6.11157 0
M  V30 19097 H 2582.23 -5.39466 -3.69543 0
M  V30 19098 H 2583.72 -6.71916 -5.01943 0
M  V30 19099 H 2582.02 -7.4649 -6.93477 0
M  V30 19100 H 2581.83 -8.89416 -5.05237 0
M  V30 19101 H 2580.2 -8.14876 -5.18409 0
M  V30 19102 H 2582.84 -3.27957 -5.4317 0
M  V30 19103 P 2584.7 -5.75688 -6.64379 0
M  V30 19104 O 2586.12 -6.07627 -7.05504 0
M  V30 19105 O 2584.34 -5.88047 -5.19722 0
M  V30 19106 O 2584.38 -4.2322 -7.04443 0
M  V30 19107 C 2584.22 -3.99743 -8.4911 0
M  V30 19108 C 2584.76 -2.60516 -8.79425 0
M  V30 19109 O 2583.7 -1.82684 -8.4467 0
M  V30 19110 C 2585.97 -2.10343 -8.03628 0
M  V30 19111 O 2586.71 -1.09919 -8.67766 0
M  V30 19112 C 2585.31 -1.68446 -6.70876 0
M  V30 19113 O 2586.1 -0.678137 -6.08433 0
M  V30 19114 C 2583.97 -1.17436 -7.18567 0
M  V30 19115 H 2584 -0.0804732 -7.31656 0
M  V30 19116 H 2585.18 -2.54037 -6.02537 0
M  V30 19117 H 2586.67 -2.93881 -7.85526 0
M  V30 19118 H 2584.97 -2.53065 -9.86973 0
M  V30 19119 H 2584.78 -4.75072 -9.05887 0
M  V30 19120 H 2583.15 -4.05244 -8.76668 0
M  V30 19121 H 2585.79 0.177647 -6.34251 0
M  V30 19122 P 2587.65 -1.25109 -8.70152 0
M  V30 19123 O 2589.07 -1.29758 -9.22115 0
M  V30 19124 O 2587.29 -2.13714 -7.55141 0
M  V30 19125 O 2587.33 0.248149 -8.21425 0
M  V30 19126 C 2587.17 1.22792 -9.30533 0
M  V30 19127 C 2587.71 2.56293 -8.80664 0
M  V30 19128 O 2586.65 3.02944 -8.09255 0
M  V30 19129 C 2588.92 2.57523 -7.89775 0
M  V30 19130 O 2589.66 3.7668 -7.89438 0
M  V30 19131 C 2588.26 2.20997 -6.55446 0
M  V30 19132 O 2589.05 2.71302 -5.48691 0
M  V30 19133 C 2586.92 2.89693 -6.67988 0
M  V30 19134 N 2585.88 2.08895 -6.07487 0
M  V30 19135 C 2586.04 0.753809 -5.94137 0
M  V30 19136 N 2585.02 0.146592 -5.38801 0
M  V30 19137 C 2584.13 1.1768 -5.13693 0
M  V30 19138 C 2582.87 1.17563 -4.52477 0
M  V30 19139 N 2582.27 0.057481 -4.04759 0
M  V30 19140 N 2582.3 2.41918 -4.45789 0
M  V30 19141 C 2582.9 3.56493 -4.90792 0
M  V30 19142 N 2584.08 3.61423 -5.47817 0
M  V30 19143 C 2584.65 2.37779 -5.5588 0
M  V30 19144 H 2586.95 3.8874 -6.19774 0
M  V30 19145 H 2588.13 1.12673 -6.44018 0
M  V30 19146 H 2589.62 1.7746 -8.19711 0
M  V30 19147 H 2587.92 3.21673 -9.66791 0
M  V30 19148 H 2587.73 0.901032 -10.1892 0
M  V30 19149 H 2586.1 1.33049 -9.56592 0
M  V30 19150 H 2582.37 4.49919 -4.77947 0
M  V30 19151 H 2586.94 0.233081 -6.26266 0
M  V30 19152 H 2581.34 0.119831 -3.60801 0
M  V30 19153 H 2582.74 -0.852272 -4.12385 0
M  V30 19154 H 2588.74 3.5779 -5.23879 0
M  V30 19155 P 2590.6 3.65191 -7.99657 0
M  V30 19156 O 2592.02 3.89332 -8.45794 0
M  V30 19157 O 2590.24 2.28472 -7.50807 0
M  V30 19158 O 2590.28 4.64972 -6.77611 0
M  V30 19159 C 2590.12 6.06319 -7.16352 0
M  V30 19160 C 2590.66 6.91731 -6.02299 0
M  V30 19161 O 2589.6 6.92449 -5.17064 0
M  V30 19162 C 2591.88 6.43627 -5.25174 0
M  V30 19163 O 2592.61 7.43686 -4.60469 0
M  V30 19164 C 2591.21 5.40275 -4.31916 0
M  V30 19165 O 2592.01 5.25279 -3.14438 0
M  V30 19166 C 2589.87 6.04847 -4.05327 0
M  V30 19167 H 2589.9 6.62195 -3.11261 0
M  V30 19168 H 2591.08 4.42556 -4.81383 0
M  V30 19169 H 2592.57 5.92458 -5.93643 0
M  V30 19170 H 2590.87 7.92655 -6.402 0
M  V30 19171 H 2590.68 6.26671 -8.0846 0
M  V30 19172 H 2589.05 6.29101 -7.32804 0
M  V30 19173 H 2591.69 5.84315 -2.47318 0
M  V30 19174 P 2593.55 7.39546 -4.75277 0
M  V30 19175 O 2594.97 7.84798 -5.01039 0
M  V30 19176 O 2593.19 5.9812 -5.08098 0
M  V30 19177 O 2593.23 7.57503 -3.1866 0
M  V30 19178 C 2593.07 8.97357 -2.74833 0
M  V30 19179 C 2593.61 9.07548 -1.32709 0
M  V30 19180 O 2592.55 8.62072 -0.606159 0
M  V30 19181 C 2594.83 8.25383 -0.938334 0
M  V30 19182 O 2595.56 8.74577 0.146954 0
M  V30 19183 C 2594.16 6.8802 -0.712559 0
M  V30 19184 O 2594.96 6.1189 0.194655 0
M  V30 19185 C 2592.82 7.27966 -0.139777 0
M  V30 19186 H 2592.85 7.25354 0.961601 0
M  V30 19187 H 2594.04 6.32557 -1.65702 0
M  V30 19188 H 2595.52 8.19355 -1.79097 0
M  V30 19189 H 2593.83 10.1294 -1.10029 0
M  V30 19190 H 2593.64 9.64276 -3.41316 0
M  V30 19191 H 2592.01 9.25417 -2.76357 0
M  V30 19192 H 2594.64 6.25267 1.07847 0
M  V30 19193 P 2596.5 8.791 2.28144e-11 0
M  V30 19194 O 2597.92 9.31096 0.027933 0
M  V30 19195 O 2596.14 7.77869 -1.04071 0
M  V30 19196 O 2596.18 8.09533 1.41463 0
M  V30 19197 C 2596.02 9.0349 2.53943 0
M  V30 19198 C 2596.56 8.35226 3.79016 0
M  V30 19199 O 2595.5 7.57992 4.15078 0
M  V30 19200 C 2597.78 7.45087 3.67298 0
M  V30 19201 O 2598.51 7.27796 4.85194 0
M  V30 19202 C 2597.11 6.17323 3.12027 0
M  V30 19203 O 2597.91 5.04231 3.47188 0
M  V30 19204 C 2595.77 6.19961 3.81809 0
M  V30 19205 H 2595.8 5.58218 4.73051 0
M  V30 19206 H 2596.99 6.21726 2.02589 0
M  V30 19207 H 2598.47 7.86112 2.9231 0
M  V30 19208 H 2596.78 9.11627 4.55076 0
M  V30 19209 H 2596.59 9.9573 2.34194 0
M  V30 19210 H 2594.96 9.2792 2.67832 0
M  V30 19211 H 2597.59 4.67702 4.28772 0
M  V30 19212 P 2599.45 7.39546 4.75277 0
M  V30 19213 O 2600.87 7.81861 5.05793 0
M  V30 19214 O 2599.09 7.1065 3.32998 0
M  V30 19215 O 2599.13 6.04542 5.56673 0
M  V30 19216 C 2598.97 6.22839 7.02169 0
M  V30 19217 C 2599.51 4.97725 7.70406 0
M  V30 19218 O 2598.45 4.13208 7.58899 0
M  V30 19219 C 2600.73 4.28231 7.11815 0
M  V30 19220 O 2601.47 3.49945 8.01648 0
M  V30 19221 C 2600.06 3.5063 5.96244 0
M  V30 19222 O 2600.86 2.37008 5.64352 0
M  V30 19223 C 2598.72 3.15122 6.56374 0
M  V30 19224 N 2597.68 3.22311 5.55692 0
M  V30 19225 C 2597.85 3.99655 4.46046 0
M  V30 19226 N 2596.82 3.97599 3.63918 0
M  V30 19227 C 2595.94 3.11159 4.25334 0
M  V30 19228 C 2594.67 2.64972 3.85157 0
M  V30 19229 N 2594.07 3.02132 2.69405 0
M  V30 19230 N 2594.1 1.78482 4.74759 0
M  V30 19231 C 2594.71 1.37463 5.90819 0
M  V30 19232 N 2595.88 1.7733 6.31889 0
M  V30 19233 C 2596.46 2.64393 5.43725 0
M  V30 19234 H 2598.75 2.13823 6.99656 0
M  V30 19235 H 2599.94 4.12931 5.06895 0
M  V30 19236 H 2601.42 5.03285 6.70911 0
M  V30 19237 H 2599.73 5.20001 8.76217 0
M  V30 19238 H 2599.54 7.11046 7.35349 0
M  V30 19239 H 2597.91 6.35815 7.26986 0
M  V30 19240 H 2594.17 0.66574 6.53015 0
M  V30 19241 H 2598.75 4.58037 4.27732 0
M  V30 19242 H 2593.14 2.64828 2.45331 0
M  V30 19243 H 2594.54 3.67472 2.05644 0
M  V30 19244 H 2600.55 1.61619 6.13468 0
M  V30 19245 P 2602.4 3.65191 7.99657 0
M  V30 19246 O 2603.8 3.90823 8.51272 0
M  V30 19247 O 2602.02 4.23191 6.66972 0
M  V30 19248 O 2602.08 2.07587 7.95046 0
M  V30 19249 C 2601.92 1.44328 9.27336 0
M  V30 19250 C 2602.46 0.0220012 9.17097 0
M  V30 19251 O 2601.4 -0.626794 8.61824 0
M  V30 19252 C 2603.68 -0.24586 8.30336 0
M  V30 19253 O 2604.42 -1.39011 8.63583 0
M  V30 19254 C 2603.01 -0.273849 6.91158 0
M  V30 19255 O 2603.81 -1.06331 6.02794 0
M  V30 19256 C 2601.67 -0.897649 7.22545 0
M  V30 19257 N 2600.63 -0.292839 6.41732 0
M  V30 19258 C 2599.59 -1.08701 5.98712 0
M  V30 19259 O 2599.63 -2.31211 6.24471 0
M  V30 19260 N 2598.58 -0.533391 5.28415 0
M  V30 19261 C 2598.63 0.770866 4.98576 0
M  V30 19262 N 2597.62 1.29482 4.30134 0
M  V30 19263 C 2599.73 1.59049 5.38086 0
M  V30 19264 C 2600.69 1.01866 6.10256 0
M  V30 19265 H 2601.7 -1.98383 7.04189 0
M  V30 19266 H 2602.89 0.733318 6.49674 0
M  V30 19267 H 2604.37 0.598386 8.36663 0
M  V30 19268 H 2602.68 -0.362662 10.1825 0
M  V30 19269 H 2602.49 2.00611 10.0304 0
M  V30 19270 H 2600.86 1.41828 9.55228 0
M  V30 19271 H 2599.77 2.6415 5.10622 0
M  V30 19272 H 2601.54 1.61983 6.44042 0
M  V30 19273 H 2596.83 0.69888 4.01361 0
M  V30 19274 H 2597.62 2.29327 4.05781 0
M  V30 19275 H 2603.59 -1.97777 6.14035 0
M  V30 19276 P 2605.35 -1.25109 8.70152 0
M  V30 19277 O 2606.77 -1.35288 9.2132 0
M  V30 19278 O 2604.99 -0.0769065 7.84762 0
M  V30 19279 O 2605.03 -2.55232 7.81161 0
M  V30 19280 C 2604.87 -3.79979 8.58246 0
M  V30 19281 C 2605.41 -4.94023 7.72785 0
M  V30 19282 O 2604.36 -5.18666 6.91125 0
M  V30 19283 C 2606.63 -4.69597 6.85231 0
M  V30 19284 O 2607.37 -5.83832 6.51337 0
M  V30 19285 C 2605.96 -3.96706 5.66633 0
M  V30 19286 O 2606.76 -4.14896 4.5003 0
M  V30 19287 C 2604.62 -4.66153 5.59313 0
M  V30 19288 N 2603.58 -3.71582 5.24027 0
M  V30 19289 C 2603.75 -2.39715 5.48833 0
M  V30 19290 N 2602.72 -1.65863 5.12845 0
M  V30 19291 C 2601.84 -2.57637 4.5973 0
M  V30 19292 C 2600.57 -2.40278 4.01027 0
M  V30 19293 N 2599.97 -1.19549 3.86744 0
M  V30 19294 N 2600 -3.57711 3.59575 0
M  V30 19295 C 2600.61 -4.80324 3.70476 0
M  V30 19296 N 2601.78 -5.01121 4.23801 0
M  V30 19297 C 2602.36 -3.84757 4.66372 0
M  V30 19298 H 2604.65 -5.47604 4.85148 0
M  V30 19299 H 2605.84 -2.8955 5.86187 0
M  V30 19300 H 2607.32 -4.0121 7.36511 0
M  V30 19301 H 2605.63 -5.81019 8.37003 0
M  V30 19302 H 2605.44 -3.73517 9.52265 0
M  V30 19303 H 2603.81 -3.97163 8.80359 0
M  V30 19304 H 2600.07 -5.66348 3.3183 0
M  V30 19305 H 2604.65 -1.98804 5.94332 0
M  V30 19306 H 2599.04 -1.13147 3.4281 0
M  V30 19307 H 2600.44 -0.344074 4.19692 0
M  V30 19308 H 2606.45 -4.90891 4.01857 0
M  V30 19309 P 2608.3 -5.75688 6.64379 0
M  V30 19310 O 2609.73 -6.11849 7.01846 0
M  V30 19311 O 2607.94 -4.30744 6.56026 0
M  V30 19312 O 2607.98 -6.37042 5.19165 0
M  V30 19313 C 2607.82 -7.83578 5.16515 0
M  V30 19314 C 2608.36 -8.33398 3.83019 0
M  V30 19315 O 2607.3 -8.10074 3.01034 0
M  V30 19316 C 2609.58 -7.65514 3.2257 0
M  V30 19317 O 2610.32 -8.4329 2.32297 0
M  V30 19318 C 2608.91 -6.40075 2.62207 0
M  V30 19319 O 2609.71 -5.92589 1.53712 0
M  V30 19320 C 2607.57 -6.9454 2.18503 0
M  V30 19321 H 2607.6 -7.23063 1.12091 0
M  V30 19322 H 2608.79 -5.6025 3.37201 0
M  V30 19323 H 2610.27 -7.35707 4.02681 0
M  V30 19324 H 2608.58 -9.40912 3.9095 0
M  V30 19325 H 2608.39 -8.29056 5.99158 0
M  V30 19326 H 2606.76 -8.10073 5.25882 0
M  V30 19327 H 2609.4 -6.30324 0.726794 0
M  V30 19328 P 2611.25 -8.4349 2.47671 0
M  V30 19329 O 2612.68 -8.94263 2.59668 0
M  V30 19330 O 2610.89 -7.1704 3.19006 0
M  V30 19331 O 2610.93 -8.16596 0.923387 0
M  V30 19332 C 2610.77 -9.38537 0.108869 0
M  V30 19333 C 2611.31 -9.08175 -1.28353 0
M  V30 19334 O 2610.26 -8.44131 -1.84692 0
M  V30 19335 C 2612.53 -8.18386 -1.42505 0
M  V30 19336 O 2613.27 -8.3501 -2.60497 0
M  V30 19337 C 2611.86 -6.80225 -1.25468 0
M  V30 19338 O 2612.66 -5.81716 -1.90454 0
M  V30 19339 C 2610.52 -7.02416 -1.9168 0
M  V30 19340 N 2609.48 -6.31033 -1.20314 0
M  V30 19341 C 2609.65 -5.98817 0.0994088 0
M  V30 19342 N 2608.62 -5.35403 0.621694 0
M  V30 19343 C 2607.74 -5.25212 -0.43376 0
M  V30 19344 C 2606.47 -4.64602 -0.519722 0
M  V30 19345 N 2605.91 -4.7568 -1.76013 0
M  V30 19346 C 2606.51 -5.3653 -2.83017 0
M  V30 19347 N 2607.68 -5.93676 -2.79782 0
M  V30 19348 C 2608.26 -5.84061 -1.56249 0
M  V30 19349 H 2611.74 -6.53498 -0.198729 0
M  V30 19350 H 2613.22 -8.36622 -0.589963 0
M  V30 19351 H 2611.53 -10.0273 -1.8081 0
M  V30 19352 H 2611.34 -10.2138 0.558219 0
M  V30 19353 H 2609.71 -9.6579 0.0444202 0
M  V30 19354 H 2610.55 -6.23209 0.660562 0
M  V30 19355 H 2612.35 -5.69466 -2.79593 0
M  V30 19356 P 2614.21 -8.4349 -2.47671 0
M  V30 19357 O 2615.63 -8.92593 -2.65 0
M  V30 19358 O 2613.85 -7.7568 -1.19296 0
M  V30 19359 O 2613.88 -7.36886 -3.63805 0
M  V30 19360 C 2613.72 -7.95349 -4.982 0
M  V30 19361 C 2614.26 -6.94612 -5.98974 0
M  V30 19362 O 2613.21 -6.10347 -6.11815 0
M  V30 19363 C 2615.48 -6.11426 -5.62335 0
M  V30 19364 O 2616.22 -5.6162 -6.70584 0
M  V30 19365 C 2614.81 -5.04409 -4.73308 0
M  V30 19366 O 2615.61 -3.85992 -4.75183 0
M  V30 19367 C 2613.47 -4.8728 -5.41006 0
M  V30 19368 H 2613.51 -4.02333 -6.11157 0
M  V30 19369 H 2614.69 -5.39466 -3.69543 0
M  V30 19370 H 2616.17 -6.71916 -5.01943 0
M  V30 19371 H 2614.48 -7.4649 -6.93477 0
M  V30 19372 H 2614.29 -8.89416 -5.05237 0
M  V30 19373 H 2612.66 -8.14876 -5.18409 0
M  V30 19374 H 2615.3 -3.27957 -5.4317 0
M  V30 19375 P 2617.16 -5.75688 -6.64379 0
M  V30 19376 O 2618.58 -6.07627 -7.05504 0
M  V30 19377 O 2616.8 -5.88047 -5.19722 0
M  V30 19378 O 2616.83 -4.2322 -7.04443 0
M  V30 19379 C 2616.67 -3.99743 -8.4911 0
M  V30 19380 C 2617.21 -2.60516 -8.79425 0
M  V30 19381 O 2616.16 -1.82684 -8.4467 0
M  V30 19382 C 2618.43 -2.10343 -8.03628 0
M  V30 19383 O 2619.17 -1.09919 -8.67766 0
M  V30 19384 C 2617.76 -1.68446 -6.70876 0
M  V30 19385 O 2618.56 -0.678137 -6.08433 0
M  V30 19386 C 2616.42 -1.17436 -7.18567 0
M  V30 19387 H 2616.46 -0.0804732 -7.31656 0
M  V30 19388 H 2617.64 -2.54037 -6.02537 0
M  V30 19389 H 2619.12 -2.93881 -7.85526 0
M  V30 19390 H 2617.43 -2.53065 -9.86973 0
M  V30 19391 H 2617.24 -4.75072 -9.05887 0
M  V30 19392 H 2615.61 -4.05244 -8.76668 0
M  V30 19393 H 2618.25 0.177647 -6.34251 0
M  V30 19394 P 2620.11 -1.25109 -8.70152 0
M  V30 19395 O 2621.53 -1.29744 -9.22016 0
M  V30 19396 O 2619.75 -2.13714 -7.55141 0
M  V30 19397 O 2619.78 0.248149 -8.21425 0
M  V30 19398 C 2619.62 1.22779 -9.30434 0
M  V30 19399 C 2620.16 2.56293 -8.80664 0
M  V30 19400 O 2619.11 3.02979 -8.09349 0
M  V30 19401 C 2621.38 2.57523 -7.89775 0
M  V30 19402 O 2622.12 3.7668 -7.89438 0
M  V30 19403 C 2620.71 2.20997 -6.55446 0
M  V30 19404 O 2621.51 2.71895 -5.48509 0
M  V30 19405 C 2619.38 2.89693 -6.67988 0
M  V30 19406 H 2619.41 3.88793 -6.19859 0
M  V30 19407 H 2620.59 1.12046 -6.44229 0
M  V30 19408 H 2622.07 1.7746 -8.19711 0
M  V30 19409 H 2620.38 3.20706 -9.67112 0
M  V30 19410 H 2620.19 0.901032 -10.1892 0
M  V30 19411 H 2618.56 1.33049 -9.56592 0
M  V30 19412 H 2621.2 3.57847 -5.23962 0
M  V30 19413 P 2623.06 3.65191 -7.99657 0
M  V30 19414 O 2624.48 3.89332 -8.45794 0
M  V30 19415 O 2622.7 2.28472 -7.50807 0
M  V30 19416 O 2622.73 4.64972 -6.77611 0
M  V30 19417 C 2622.57 6.06319 -7.16352 0
M  V30 19418 C 2623.11 6.91731 -6.02299 0
M  V30 19419 O 2622.06 6.92449 -5.17064 0
M  V30 19420 C 2624.33 6.43627 -5.25174 0
M  V30 19421 O 2625.07 7.43686 -4.60469 0
M  V30 19422 C 2623.66 5.40275 -4.31916 0
M  V30 19423 O 2624.46 5.25279 -3.14438 0
M  V30 19424 C 2622.33 6.04847 -4.05327 0
M  V30 19425 H 2622.36 6.62195 -3.11261 0
M  V30 19426 H 2623.54 4.42556 -4.81383 0
M  V30 19427 H 2625.02 5.92458 -5.93643 0
M  V30 19428 H 2623.33 7.92655 -6.402 0
M  V30 19429 H 2623.14 6.26671 -8.0846 0
M  V30 19430 H 2621.51 6.29101 -7.32804 0
M  V30 19431 H 2624.15 5.84315 -2.47318 0
M  V30 19432 P 2626.01 7.39546 -4.75277 0
M  V30 19433 O 2627.43 7.84966 -5.01146 0
M  V30 19434 O 2625.65 5.9812 -5.08098 0
M  V30 19435 O 2625.68 7.57503 -3.1866 0
M  V30 19436 C 2625.52 8.97357 -2.74833 0
M  V30 19437 C 2626.06 9.0745 -1.32694 0
M  V30 19438 O 2625.01 8.62072 -0.606159 0
M  V30 19439 C 2627.28 8.25383 -0.938334 0
M  V30 19440 O 2628.02 8.74577 0.146954 0
M  V30 19441 C 2626.61 6.8802 -0.712559 0
M  V30 19442 O 2627.41 6.11791 0.194623 0
M  V30 19443 C 2625.28 7.27966 -0.139777 0
M  V30 19444 N 2624.23 6.39368 -0.623421 0
M  V30 19445 C 2624.3 5.90299 -1.85969 0
M  V30 19446 N 2623.25 5.10919 -2.1133 0
M  V30 19447 C 2622.52 5.14646 -1.0015 0
M  V30 19448 C 2621.21 4.60057 -0.729219 0
M  V30 19449 O 2620.48 3.93476 -1.47746 0
M  V30 19450 N 2620.78 4.88302 0.523505 0
M  V30 19451 C 2621.53 5.63646 1.46207 0
M  V30 19452 N 2620.93 5.78186 2.69239 0
M  V30 19453 N 2622.68 6.19285 1.21544 0
M  V30 19454 C 2623.14 5.93392 -0.0308487 0
M  V30 19455 H 2625.31 7.25354 0.961601 0
M  V30 19456 H 2626.49 6.3246 -1.65676 0
M  V30 19457 H 2627.98 8.19533 -1.78278 0
M  V30 19458 H 2626.28 10.1294 -1.10029 0
M  V30 19459 H 2626.09 9.64276 -3.41316 0
M  V30 19460 H 2624.46 9.25417 -2.76357 0
M  V30 19461 H 2619.88 4.53993 0.806451 0
M  V30 19462 H 2625.09 6.11865 -2.57394 0
M  V30 19463 H 2620.02 5.34046 2.87467 0
M  V30 19464 H 2621.4 6.33391 3.42578 0
M  V30 19465 H 2627.1 6.25169 1.0783 0
M  V30 19466 P 2628.96 8.791 2.31246e-11 0
M  V30 19467 O 2630.38 9.31096 0.027933 0
M  V30 19468 O 2628.6 7.77869 -1.04071 0
M  V30 19469 O 2628.63 8.09533 1.41463 0
M  V30 19470 C 2628.47 9.0349 2.53943 0
M  V30 19471 C 2629.01 8.35226 3.79016 0
M  V30 19472 O 2627.96 7.57992 4.15078 0
M  V30 19473 C 2630.23 7.45087 3.67298 0
M  V30 19474 O 2630.97 7.27796 4.85194 0
M  V30 19475 C 2629.56 6.17323 3.12027 0
M  V30 19476 O 2630.36 5.04231 3.47188 0
M  V30 19477 C 2628.23 6.19961 3.81809 0
M  V30 19478 H 2628.26 5.58218 4.73051 0
M  V30 19479 H 2629.44 6.21726 2.02589 0
M  V30 19480 H 2630.93 7.86112 2.9231 0
M  V30 19481 H 2629.23 9.11627 4.55076 0
M  V30 19482 H 2629.04 9.9573 2.34194 0
M  V30 19483 H 2627.41 9.2792 2.67832 0
M  V30 19484 H 2630.05 4.67702 4.28772 0
M  V30 19485 P 2631.91 7.39546 4.75277 0
M  V30 19486 O 2633.33 7.81777 5.05738 0
M  V30 19487 O 2631.55 7.1065 3.32998 0
M  V30 19488 O 2631.59 6.04542 5.56673 0
M  V30 19489 C 2631.43 6.22772 7.02095 0
M  V30 19490 C 2631.97 4.97725 7.70406 0
M  V30 19491 O 2630.91 4.13256 7.58987 0
M  V30 19492 C 2633.18 4.28231 7.11815 0
M  V30 19493 O 2633.92 3.49945 8.01648 0
M  V30 19494 C 2632.51 3.5063 5.96244 0
M  V30 19495 O 2633.31 2.36482 5.64681 0
M  V30 19496 C 2631.18 3.15122 6.56374 0
M  V30 19497 H 2631.21 2.13853 6.99751 0
M  V30 19498 H 2632.39 4.13501 5.06559 0
M  V30 19499 H 2633.88 5.03285 6.70911 0
M  V30 19500 H 2632.18 5.20877 8.75697 0
M  V30 19501 H 2631.99 7.11046 7.35349 0
M  V30 19502 H 2630.36 6.35815 7.26986 0
M  V30 19503 H 2633 1.61644 6.13565 0
M  V30 19504 P 2634.86 3.65191 7.99657 0
M  V30 19505 O 2636.28 3.8425 8.48115 0
M  V30 19506 O 2634.5 4.17805 6.64342 0
M  V30 19507 O 2634.54 2.07613 7.95143 0
M  V30 19508 C 2634.38 1.44328 9.27336 0
M  V30 19509 C 2634.92 0.0220036 9.17197 0
M  V30 19510 O 2633.86 -0.626867 8.61923 0
M  V30 19511 C 2636.13 -0.24586 8.30336 0
M  V30 19512 O 2636.87 -1.39011 8.63583 0
M  V30 19513 C 2635.47 -0.273849 6.91158 0
M  V30 19514 O 2636.26 -1.06348 6.02892 0
M  V30 19515 C 2634.13 -0.897649 7.22545 0
M  V30 19516 H 2634.16 -1.9841 7.04286 0
M  V30 19517 H 2635.34 0.739928 6.497 0
M  V30 19518 H 2636.83 0.60668 8.36503 0
M  V30 19519 H 2635.13 -0.352479 10.1829 0
M  V30 19520 H 2634.94 2.00611 10.0304 0
M  V30 19521 H 2633.31 1.41843 9.55327 0
M  V30 19522 H 2635.95 -1.95734 6.03555 0
M  V30 19523 P 2637.81 -1.25109 8.70152 0
M  V30 19524 O 2639.23 -1.35303 9.21419 0
M  V30 19525 O 2637.45 -0.0769065 7.84762 0
M  V30 19526 O 2637.49 -2.55232 7.81161 0
M  V30 19527 C 2637.33 -3.79939 8.58154 0
M  V30 19528 C 2637.87 -4.93969 7.72701 0
M  V30 19529 O 2636.81 -5.18726 6.91205 0
M  V30 19530 C 2639.08 -4.69597 6.85231 0
M  V30 19531 O 2639.82 -5.83832 6.51337 0
M  V30 19532 C 2638.42 -3.96706 5.66633 0
M  V30 19533 O 2639.21 -4.15346 4.49615 0
M  V30 19534 C 2637.08 -4.66153 5.59313 0
M  V30 19535 N 2636.04 -3.71582 5.24027 0
M  V30 19536 C 2636.1 -2.46018 5.67902 0
M  V30 19537 N 2635.05 -1.74868 5.24518 0
M  V30 19538 C 2634.32 -2.61333 4.54528 0
M  V30 19539 C 2633.01 -2.46162 3.95441 0
M  V30 19540 O 2632.28 -1.46013 3.94122 0
M  V30 19541 N 2632.58 -3.59334 3.34752 0
M  V30 19542 C 2633.33 -4.79605 3.3023 0
M  V30 19543 N 2632.73 -5.82109 2.6065 0
M  V30 19544 N 2634.48 -4.97402 3.8843 0
M  V30 19545 C 2634.94 -3.86258 4.50476 0
M  V30 19546 H 2637.11 -5.47679 4.85214 0
M  V30 19547 H 2638.29 -2.88964 5.86476 0
M  V30 19548 H 2639.78 -4.01947 7.36109 0
M  V30 19549 H 2638.08 -5.80182 8.37584 0
M  V30 19550 H 2637.89 -3.73517 9.52265 0
M  V30 19551 H 2636.26 -3.97163 8.80359 0
M  V30 19552 H 2631.69 -3.5825 2.90294 0
M  V30 19553 H 2636.89 -2.06161 6.30974 0
M  V30 19554 H 2631.82 -5.66979 2.15354 0
M  V30 19555 H 2633.2 -6.73686 2.54344 0
M  V30 19556 H 2638.9 -4.90891 4.01857 0
M  V30 19557 P 2640.76 -5.75688 6.64379 0
M  V30 19558 O 2642.18 -6.11849 7.01846 0
M  V30 19559 O 2640.4 -4.30744 6.56026 0
M  V30 19560 O 2640.44 -6.37042 5.19165 0
M  V30 19561 C 2640.28 -7.83578 5.16515 0
M  V30 19562 C 2640.82 -8.33398 3.83019 0
M  V30 19563 O 2639.76 -8.10074 3.01034 0
M  V30 19564 C 2642.04 -7.65514 3.2257 0
M  V30 19565 O 2642.77 -8.4329 2.32297 0
M  V30 19566 C 2641.37 -6.40075 2.62207 0
M  V30 19567 O 2642.17 -5.92589 1.53712 0
M  V30 19568 C 2640.03 -6.9454 2.18503 0
M  V30 19569 H 2640.06 -7.23063 1.12091 0
M  V30 19570 H 2641.24 -5.6025 3.37201 0
M  V30 19571 H 2642.73 -7.35707 4.02681 0
M  V30 19572 H 2641.03 -9.40912 3.9095 0
M  V30 19573 H 2640.84 -8.29056 5.99158 0
M  V30 19574 H 2639.21 -8.10073 5.25882 0
M  V30 19575 H 2641.85 -6.30324 0.726794 0
M  V30 19576 P 2643.71 -8.4349 2.47671 0
M  V30 19577 O 2645.13 -8.94167 2.5964 0
M  V30 19578 O 2643.35 -7.1704 3.19006 0
M  V30 19579 O 2643.39 -8.16596 0.923387 0
M  V30 19580 C 2643.23 -9.38437 0.108857 0
M  V30 19581 C 2643.77 -9.08175 -1.28353 0
M  V30 19582 O 2642.71 -8.44229 -1.84713 0
M  V30 19583 C 2644.99 -8.18386 -1.42505 0
M  V30 19584 O 2645.72 -8.3501 -2.60497 0
M  V30 19585 C 2644.32 -6.80225 -1.25468 0
M  V30 19586 O 2645.12 -5.81621 -1.91066 0
M  V30 19587 C 2642.98 -7.02416 -1.9168 0
M  V30 19588 H 2643.01 -6.6888 -2.96621 0
M  V30 19589 H 2644.19 -6.53617 -0.192223 0
M  V30 19590 H 2645.68 -8.36622 -0.589963 0
M  V30 19591 H 2643.98 -10.0291 -1.79807 0
M  V30 19592 H 2643.79 -10.2138 0.558219 0
M  V30 19593 H 2642.16 -9.6579 0.0444202 0
M  V30 19594 H 2644.8 -5.69556 -2.79637 0
M  V30 19595 P 2646.66 -8.4349 -2.47671 0
M  V30 19596 O 2648.08 -8.92689 -2.65029 0
M  V30 19597 O 2646.3 -7.7568 -1.19296 0
M  V30 19598 O 2646.34 -7.36886 -3.63805 0
M  V30 19599 C 2646.18 -7.95433 -4.98253 0
M  V30 19600 C 2646.72 -6.94612 -5.98974 0
M  V30 19601 O 2645.66 -6.10277 -6.11744 0
M  V30 19602 C 2647.94 -6.11426 -5.62335 0
M  V30 19603 O 2648.67 -5.6162 -6.70584 0
M  V30 19604 C 2647.27 -5.04409 -4.73308 0
M  V30 19605 O 2648.07 -3.86404 -4.74719 0
M  V30 19606 C 2645.93 -4.8728 -5.41006 0
M  V30 19607 N 2644.89 -4.65812 -4.42377 0
M  V30 19608 C 2645.06 -5.09132 -3.15382 0
M  V30 19609 N 2644.03 -4.84021 -2.3716 0
M  V30 19610 C 2643.14 -4.18386 -3.20441 0
M  V30 19611 C 2641.88 -3.6275 -2.94905 0
M  V30 19612 N 2641.28 -3.65794 -1.73372 0
M  V30 19613 N 2641.31 -3.05008 -4.05243 0
M  V30 19614 C 2641.91 -2.98348 -5.28159 0
M  V30 19615 N 2643.09 -3.48171 -5.56333 0
M  V30 19616 C 2643.67 -4.06869 -4.47212 0
M  V30 19617 H 2645.96 -4.02278 -6.11074 0
M  V30 19618 H 2647.15 -5.39013 -3.70026 0
M  V30 19619 H 2648.63 -6.71916 -5.01943 0
M  V30 19620 H 2646.93 -7.45796 -6.94223 0
M  V30 19621 H 2646.74 -8.89416 -5.05237 0
M  V30 19622 H 2645.11 -8.14876 -5.18409 0
M  V30 19623 H 2641.38 -2.47853 -6.07807 0
M  V30 19624 H 2645.96 -5.59989 -2.81362 0
M  V30 19625 H 2640.35 -3.23218 -1.60782 0
M  V30 19626 H 2641.75 -4.10523 -0.937856 0
M  V30 19627 H 2647.75 -3.27906 -5.43085 0
M  V30 19628 P 2649.61 -5.75688 -6.64379 0
M  V30 19629 O 2651.03 -6.07692 -7.0558 0
M  V30 19630 O 2649.25 -5.88047 -5.19722 0
M  V30 19631 O 2649.29 -4.2322 -7.04443 0
M  V30 19632 C 2649.13 -3.99785 -8.49201 0
M  V30 19633 C 2649.67 -2.60516 -8.79425 0
M  V30 19634 O 2648.61 -1.82663 -8.44573 0
M  V30 19635 C 2650.89 -2.10343 -8.03628 0
M  V30 19636 O 2651.62 -1.09919 -8.67766 0
M  V30 19637 C 2650.22 -1.68446 -6.70876 0
M  V30 19638 O 2651.02 -0.684109 -6.08265 0
M  V30 19639 C 2648.88 -1.17436 -7.18567 0
M  V30 19640 N 2647.84 -1.52699 -6.23988 0
M  V30 19641 C 2648.01 -2.578 -5.40574 0
M  V30 19642 N 2646.98 -2.78966 -4.61193 0
M  V30 19643 C 2646.09 -1.78725 -4.95769 0
M  V30 19644 C 2644.83 -1.45727 -4.44207 0
M  V30 19645 N 2644.23 -2.13994 -3.43613 0
M  V30 19646 N 2644.26 -0.374977 -5.05812 0
M  V30 19647 C 2644.86 0.345585 -6.05615 0
M  V30 19648 N 2646.04 0.0787651 -6.56253 0
M  V30 19649 C 2646.62 -1.00499 -5.96189 0
M  V30 19650 H 2648.91 -0.0804622 -7.31556 0
M  V30 19651 H 2650.1 -2.53396 -6.02698 0
M  V30 19652 H 2651.58 -2.93881 -7.85526 0
M  V30 19653 H 2649.88 -2.52078 -9.87225 0
M  V30 19654 H 2649.69 -4.75072 -9.05887 0
M  V30 19655 H 2648.06 -4.05244 -8.76668 0
M  V30 19656 H 2644.33 1.20098 -6.4532 0
M  V30 19657 H 2648.91 -3.18977 -5.3945 0
M  V30 19658 H 2643.3 -1.84983 -3.10004 0
M  V30 19659 H 2644.7 -2.9465 -3.00843 0
M  V30 19660 H 2650.7 0.177619 -6.34151 0
M  V30 19661 P 2652.56 -1.25109 -8.70152 0
M  V30 19662 O 2653.98 -1.29744 -9.22016 0
M  V30 19663 O 2652.2 -2.13714 -7.55141 0
M  V30 19664 O 2652.24 0.248149 -8.21425 0
M  V30 19665 C 2652.08 1.22779 -9.30434 0
M  V30 19666 C 2652.62 2.56293 -8.80664 0
M  V30 19667 O 2651.56 3.02979 -8.09349 0
M  V30 19668 C 2653.84 2.57523 -7.89775 0
M  V30 19669 O 2654.58 3.7668 -7.89438 0
M  V30 19670 C 2653.17 2.20997 -6.55446 0
M  V30 19671 O 2653.97 2.71895 -5.48509 0
M  V30 19672 C 2651.83 2.89693 -6.67988 0
M  V30 19673 H 2651.86 3.88793 -6.19859 0
M  V30 19674 H 2653.05 1.12046 -6.44229 0
M  V30 19675 H 2654.53 1.7746 -8.19711 0
M  V30 19676 H 2652.84 3.20706 -9.67112 0
M  V30 19677 H 2652.65 0.901032 -10.1892 0
M  V30 19678 H 2651.02 1.33049 -9.56592 0
M  V30 19679 H 2653.66 3.57847 -5.23962 0
M  V30 19680 P 2655.51 3.65191 -7.99657 0
M  V30 19681 O 2656.91 3.87414 -8.52829 0
M  V30 19682 O 2655.13 2.26932 -7.566 0
M  V30 19683 O 2655.19 4.64915 -6.77529 0
M  V30 19684 C 2655.03 6.06319 -7.16352 0
M  V30 19685 C 2655.57 6.91655 -6.02234 0
M  V30 19686 O 2654.51 6.92369 -5.17005 0
M  V30 19687 C 2656.79 6.43627 -5.25174 0
M  V30 19688 O 2657.53 7.43686 -4.60469 0
M  V30 19689 C 2656.12 5.40275 -4.31916 0
M  V30 19690 O 2656.92 5.25193 -3.14386 0
M  V30 19691 C 2654.78 6.04847 -4.05327 0
M  V30 19692 N 2653.74 5.04166 -3.98114 0
M  V30 19693 C 2652.7 5.2366 -3.09923 0
M  V30 19694 O 2652.74 6.23355 -2.34204 0
M  V30 19695 N 2651.69 4.34279 -3.05727 0
M  V30 19696 C 2651.74 3.26317 -3.84756 0
M  V30 19697 C 2652.84 3.02504 -4.72573 0
M  V30 19698 C 2653.8 3.94493 -4.76618 0
M  V30 19699 H 2654.81 6.62104 -3.11218 0
M  V30 19700 H 2656 4.42969 -4.80867 0
M  V30 19701 H 2657.48 5.93122 -5.93121 0
M  V30 19702 H 2655.79 7.93295 -6.39407 0
M  V30 19703 H 2655.6 6.26671 -8.0846 0
M  V30 19704 H 2653.97 6.29036 -7.32728 0
M  V30 19705 H 2652.88 2.12921 -5.34017 0
M  V30 19706 H 2654.65 3.80658 -5.44176 0
M  V30 19707 H 2656.7 5.93572 -2.52637 0
M  V30 19708 P 2658.46 7.39546 -4.75277 0
M  V30 19709 O 2659.89 7.84798 -5.01039 0
M  V30 19710 O 2658.1 5.9812 -5.08098 0
M  V30 19711 O 2658.14 7.57503 -3.1866 0
M  V30 19712 C 2657.98 8.97357 -2.74833 0
M  V30 19713 C 2658.52 9.07548 -1.32709 0
M  V30 19714 O 2657.46 8.62072 -0.606159 0
M  V30 19715 C 2659.74 8.25383 -0.938334 0
M  V30 19716 O 2660.48 8.74577 0.146954 0
M  V30 19717 C 2659.07 6.8802 -0.712559 0
M  V30 19718 O 2659.87 6.1189 0.194655 0
M  V30 19719 C 2657.73 7.27966 -0.139777 0
M  V30 19720 H 2657.76 7.25354 0.961601 0
M  V30 19721 H 2658.95 6.32557 -1.65702 0
M  V30 19722 H 2660.43 8.19355 -1.79097 0
M  V30 19723 H 2658.74 10.1294 -1.10029 0
M  V30 19724 H 2658.55 9.64276 -3.41316 0
M  V30 19725 H 2656.92 9.25417 -2.76357 0
M  V30 19726 H 2659.56 6.25267 1.07847 0
M  V30 19727 P 2661.41 8.791 2.04365e-11 0
M  V30 19728 O 2662.84 9.31096 0.027933 0
M  V30 19729 O 2661.05 7.77869 -1.04071 0
M  V30 19730 O 2661.09 8.09533 1.41463 0
M  V30 19731 C 2660.93 9.0349 2.53943 0
M  V30 19732 C 2661.47 8.35226 3.79016 0
M  V30 19733 O 2660.42 7.57992 4.15078 0
M  V30 19734 C 2662.69 7.45087 3.67298 0
M  V30 19735 O 2663.43 7.27796 4.85194 0
M  V30 19736 C 2662.02 6.17323 3.12027 0
M  V30 19737 O 2662.82 5.04231 3.47188 0
M  V30 19738 C 2660.68 6.19961 3.81809 0
M  V30 19739 H 2660.72 5.58218 4.73051 0
M  V30 19740 H 2661.9 6.21726 2.02589 0
M  V30 19741 H 2663.38 7.86112 2.9231 0
M  V30 19742 H 2661.69 9.11627 4.55076 0
M  V30 19743 H 2661.5 9.9573 2.34194 0
M  V30 19744 H 2659.87 9.2792 2.67832 0
M  V30 19745 H 2662.51 4.67702 4.28772 0
M  V30 19746 P 2664.36 7.39546 4.75277 0
M  V30 19747 O 2665.79 7.81777 5.05738 0
M  V30 19748 O 2664 7.1065 3.32998 0
M  V30 19749 O 2664.04 6.04542 5.56673 0
M  V30 19750 C 2663.88 6.22772 7.02095 0
M  V30 19751 C 2664.42 4.97725 7.70406 0
M  V30 19752 O 2663.37 4.13256 7.58987 0
M  V30 19753 C 2665.64 4.28231 7.11815 0
M  V30 19754 O 2666.38 3.49945 8.01648 0
M  V30 19755 C 2664.97 3.5063 5.96244 0
M  V30 19756 O 2665.77 2.36482 5.64681 0
M  V30 19757 C 2663.63 3.15122 6.56374 0
M  V30 19758 H 2663.67 2.13853 6.99751 0
M  V30 19759 H 2664.85 4.13501 5.06559 0
M  V30 19760 H 2666.33 5.03285 6.70911 0
M  V30 19761 H 2664.64 5.20877 8.75697 0
M  V30 19762 H 2664.45 7.11046 7.35349 0
M  V30 19763 H 2662.82 6.35815 7.26986 0
M  V30 19764 H 2665.46 1.61644 6.13565 0
M  V30 19765 P 2667.32 3.65191 7.99657 0
M  V30 19766 O 2668.74 3.8425 8.48115 0
M  V30 19767 O 2666.96 4.17805 6.64342 0
M  V30 19768 O 2666.99 2.07613 7.95143 0
M  V30 19769 C 2666.83 1.44328 9.27336 0
M  V30 19770 C 2667.37 0.0220036 9.17197 0
M  V30 19771 O 2666.32 -0.626867 8.61923 0
M  V30 19772 C 2668.59 -0.24586 8.30336 0
M  V30 19773 O 2669.33 -1.39011 8.63583 0
M  V30 19774 C 2667.92 -0.273849 6.91158 0
M  V30 19775 O 2668.72 -1.06348 6.02892 0
M  V30 19776 C 2666.58 -0.897649 7.22545 0
M  V30 19777 H 2666.62 -1.9841 7.04286 0
M  V30 19778 H 2667.8 0.739928 6.497 0
M  V30 19779 H 2669.28 0.60668 8.36503 0
M  V30 19780 H 2667.59 -0.352479 10.1829 0
M  V30 19781 H 2667.4 2.00611 10.0304 0
M  V30 19782 H 2665.77 1.41843 9.55327 0
M  V30 19783 H 2668.41 -1.95734 6.03555 0
M  V30 19784 P 2670.27 -1.25109 8.70152 0
M  V30 19785 O 2671.69 -1.35274 9.21221 0
M  V30 19786 O 2669.91 -0.0769065 7.84762 0
M  V30 19787 O 2669.94 -2.55232 7.81161 0
M  V30 19788 C 2669.78 -3.79939 8.58154 0
M  V30 19789 C 2670.32 -4.94023 7.72785 0
M  V30 19790 O 2669.27 -5.18726 6.91205 0
M  V30 19791 C 2671.54 -4.69597 6.85231 0
M  V30 19792 O 2672.28 -5.83832 6.51337 0
M  V30 19793 C 2670.87 -3.96706 5.66633 0
M  V30 19794 O 2671.67 -4.15414 4.49689 0
M  V30 19795 C 2669.53 -4.66153 5.59313 0
M  V30 19796 H 2669.57 -5.47679 4.85214 0
M  V30 19797 H 2670.75 -2.89008 5.86566 0
M  V30 19798 H 2672.23 -4.0121 7.36511 0
M  V30 19799 H 2670.54 -5.80182 8.37584 0
M  V30 19800 H 2670.35 -3.73517 9.52265 0
M  V30 19801 H 2668.72 -3.97163 8.80359 0
M  V30 19802 H 2671.36 -4.90969 4.01921 0
M  V30 19803 P 2673.22 -5.75688 6.64379 0
M  V30 19804 O 2674.64 -6.11849 7.01846 0
M  V30 19805 O 2672.86 -4.30744 6.56026 0
M  V30 19806 O 2672.89 -6.37042 5.19165 0
M  V30 19807 C 2672.73 -7.83578 5.16515 0
M  V30 19808 C 2673.27 -8.33398 3.83019 0
M  V30 19809 O 2672.22 -8.10074 3.01034 0
M  V30 19810 C 2674.49 -7.65514 3.2257 0
M  V30 19811 O 2675.23 -8.4329 2.32297 0
M  V30 19812 C 2673.82 -6.40075 2.62207 0
M  V30 19813 O 2674.62 -5.92589 1.53712 0
M  V30 19814 C 2672.49 -6.9454 2.18503 0
M  V30 19815 H 2672.52 -7.23063 1.12091 0
M  V30 19816 H 2673.7 -5.6025 3.37201 0
M  V30 19817 H 2675.18 -7.35707 4.02681 0
M  V30 19818 H 2673.49 -9.40912 3.9095 0
M  V30 19819 H 2673.3 -8.29056 5.99158 0
M  V30 19820 H 2671.67 -8.10073 5.25882 0
M  V30 19821 H 2674.31 -6.30324 0.726794 0
M  V30 19822 P 2676.17 -8.4349 2.47671 0
M  V30 19823 O 2677.59 -8.94167 2.5964 0
M  V30 19824 O 2675.81 -7.1704 3.19006 0
M  V30 19825 O 2675.84 -8.16596 0.923387 0
M  V30 19826 C 2675.68 -9.38437 0.108857 0
M  V30 19827 C 2676.22 -9.08175 -1.28353 0
M  V30 19828 O 2675.17 -8.44229 -1.84713 0
M  V30 19829 C 2677.44 -8.18386 -1.42505 0
M  V30 19830 O 2678.18 -8.3501 -2.60497 0
M  V30 19831 C 2676.77 -6.80225 -1.25468 0
M  V30 19832 O 2677.57 -5.81621 -1.91066 0
M  V30 19833 C 2675.44 -7.02416 -1.9168 0
M  V30 19834 H 2675.47 -6.6888 -2.96621 0
M  V30 19835 H 2676.65 -6.53617 -0.192223 0
M  V30 19836 H 2678.13 -8.36622 -0.589963 0
M  V30 19837 H 2676.44 -10.0291 -1.79807 0
M  V30 19838 H 2676.25 -10.2138 0.558219 0
M  V30 19839 H 2674.62 -9.6579 0.0444202 0
M  V30 19840 H 2677.26 -5.69556 -2.79637 0
M  V30 19841 P 2679.12 -8.4349 -2.47671 0
M  V30 19842 O 2680.54 -8.92593 -2.65 0
M  V30 19843 O 2678.76 -7.7568 -1.19296 0
M  V30 19844 O 2678.79 -7.36886 -3.63805 0
M  V30 19845 C 2678.63 -7.95349 -4.982 0
M  V30 19846 C 2679.17 -6.94612 -5.98974 0
M  V30 19847 O 2678.12 -6.10347 -6.11815 0
M  V30 19848 C 2680.39 -6.11426 -5.62335 0
M  V30 19849 O 2681.13 -5.6162 -6.70584 0
M  V30 19850 C 2679.72 -5.04409 -4.73308 0
M  V30 19851 O 2680.52 -3.85992 -4.75183 0
M  V30 19852 C 2678.39 -4.8728 -5.41006 0
M  V30 19853 H 2678.42 -4.02333 -6.11157 0
M  V30 19854 H 2679.6 -5.39466 -3.69543 0
M  V30 19855 H 2681.09 -6.71916 -5.01943 0
M  V30 19856 H 2679.39 -7.4649 -6.93477 0
M  V30 19857 H 2679.2 -8.89416 -5.05237 0
M  V30 19858 H 2677.57 -8.14876 -5.18409 0
M  V30 19859 H 2680.21 -3.27957 -5.4317 0
M  V30 19860 P 2682.07 -5.75688 -6.64379 0
M  V30 19861 O 2683.49 -6.07758 -7.05656 0
M  V30 19862 O 2681.71 -5.88047 -5.19722 0
M  V30 19863 O 2681.75 -4.2322 -7.04443 0
M  V30 19864 C 2681.59 -3.99743 -8.4911 0
M  V30 19865 C 2682.13 -2.60487 -8.79329 0
M  V30 19866 O 2681.07 -1.82684 -8.4467 0
M  V30 19867 C 2683.34 -2.10343 -8.03628 0
M  V30 19868 O 2684.08 -1.09919 -8.67766 0
M  V30 19869 C 2682.68 -1.68446 -6.70876 0
M  V30 19870 O 2683.47 -0.678026 -6.08333 0
M  V30 19871 C 2681.34 -1.17436 -7.18567 0
M  V30 19872 N 2680.29 -1.52699 -6.23988 0
M  V30 19873 C 2680.36 -2.68084 -5.57824 0
M  V30 19874 N 2679.31 -2.8189 -4.75643 0
M  V30 19875 C 2678.58 -1.72373 -4.95155 0
M  V30 19876 C 2677.27 -1.37653 -4.44996 0
M  V30 19877 O 2676.54 -2.02239 -3.68445 0
M  V30 19878 N 2676.84 -0.17675 -4.90782 0
M  V30 19879 C 2677.59 0.645036 -5.78716 0
M  V30 19880 N 2676.99 1.84214 -6.10618 0
M  V30 19881 N 2678.74 0.321732 -6.30279 0
M  V30 19882 C 2679.2 -0.87502 -5.86913 0
M  V30 19883 H 2681.37 -0.0804732 -7.31656 0
M  V30 19884 H 2682.55 -2.53998 -6.02444 0
M  V30 19885 H 2684.04 -2.93095 -7.8582 0
M  V30 19886 H 2682.34 -2.53065 -9.86973 0
M  V30 19887 H 2682.15 -4.75072 -9.05887 0
M  V30 19888 H 2680.52 -4.05244 -8.76668 0
M  V30 19889 H 2675.95 0.152143 -4.60849 0
M  V30 19890 H 2681.15 -3.41852 -5.69006 0
M  V30 19891 H 2676.08 2.08538 -5.69521 0
M  V30 19892 H 2677.46 2.4895 -6.75698 0
M  V30 19893 H 2683.16 0.177619 -6.34151 0
M  V30 19894 P 2685.02 -1.25109 -8.70152 0
M  V30 19895 O 2686.44 -1.29744 -9.22016 0
M  V30 19896 O 2684.66 -2.13714 -7.55141 0
M  V30 19897 O 2684.7 0.248149 -8.21425 0
M  V30 19898 C 2684.54 1.22779 -9.30434 0
M  V30 19899 C 2685.08 2.56293 -8.80664 0
M  V30 19900 O 2684.02 3.02979 -8.09349 0
M  V30 19901 C 2686.29 2.57523 -7.89775 0
M  V30 19902 O 2687.03 3.7668 -7.89438 0
M  V30 19903 C 2685.62 2.20997 -6.55446 0
M  V30 19904 O 2686.42 2.71895 -5.48509 0
M  V30 19905 C 2684.29 2.89693 -6.67988 0
M  V30 19906 H 2684.32 3.88793 -6.19859 0
M  V30 19907 H 2685.5 1.12046 -6.44229 0
M  V30 19908 H 2686.99 1.7746 -8.19711 0
M  V30 19909 H 2685.29 3.20706 -9.67112 0
M  V30 19910 H 2685.1 0.901032 -10.1892 0
M  V30 19911 H 2683.47 1.33049 -9.56592 0
M  V30 19912 H 2686.11 3.57847 -5.23962 0
M  V30 19913 P 2687.97 3.65191 -7.99657 0
M  V30 19914 O 2689.39 3.89332 -8.45794 0
M  V30 19915 O 2687.61 2.28472 -7.50807 0
M  V30 19916 O 2687.65 4.64972 -6.77611 0
M  V30 19917 C 2687.49 6.06319 -7.16352 0
M  V30 19918 C 2688.03 6.91731 -6.02299 0
M  V30 19919 O 2686.97 6.92449 -5.17064 0
M  V30 19920 C 2689.24 6.43627 -5.25174 0
M  V30 19921 O 2689.98 7.43686 -4.60469 0
M  V30 19922 C 2688.58 5.40275 -4.31916 0
M  V30 19923 O 2689.37 5.25279 -3.14438 0
M  V30 19924 C 2687.24 6.04847 -4.05327 0
M  V30 19925 H 2687.27 6.62195 -3.11261 0
M  V30 19926 H 2688.45 4.42556 -4.81383 0
M  V30 19927 H 2689.94 5.92458 -5.93643 0
M  V30 19928 H 2688.24 7.92655 -6.402 0
M  V30 19929 H 2688.05 6.26671 -8.0846 0
M  V30 19930 H 2686.42 6.29101 -7.32804 0
M  V30 19931 H 2689.06 5.84315 -2.47318 0
M  V30 19932 P 2690.92 7.39546 -4.75277 0
M  V30 19933 O 2692.34 7.84798 -5.01039 0
M  V30 19934 O 2690.56 5.9812 -5.08098 0
M  V30 19935 O 2690.6 7.57503 -3.1866 0
M  V30 19936 C 2690.44 8.97357 -2.74833 0
M  V30 19937 C 2690.98 9.07548 -1.32709 0
M  V30 19938 O 2689.92 8.62072 -0.606159 0
M  V30 19939 C 2692.19 8.25383 -0.938334 0
M  V30 19940 O 2692.93 8.74577 0.146954 0
M  V30 19941 C 2691.53 6.8802 -0.712559 0
M  V30 19942 O 2692.32 6.1189 0.194655 0
M  V30 19943 C 2690.19 7.27966 -0.139777 0
M  V30 19944 H 2690.22 7.25354 0.961601 0
M  V30 19945 H 2691.4 6.32557 -1.65702 0
M  V30 19946 H 2692.89 8.19355 -1.79097 0
M  V30 19947 H 2691.19 10.1294 -1.10029 0
M  V30 19948 H 2691 9.64276 -3.41316 0
M  V30 19949 H 2689.37 9.25417 -2.76357 0
M  V30 19950 H 2692.01 6.25267 1.07847 0
M  V30 19951 P 2693.87 8.791 1.52498e-11 0
M  V30 19952 O 2695.29 9.31096 0.027933 0
M  V30 19953 O 2693.51 7.77869 -1.04071 0
M  V30 19954 O 2693.55 8.09533 1.41463 0
M  V30 19955 C 2693.39 9.0349 2.53943 0
M  V30 19956 C 2693.93 8.35226 3.79016 0
M  V30 19957 O 2692.87 7.57992 4.15078 0
M  V30 19958 C 2695.15 7.45087 3.67298 0
M  V30 19959 O 2695.88 7.27796 4.85194 0
M  V30 19960 C 2694.48 6.17323 3.12027 0
M  V30 19961 O 2695.28 5.04231 3.47188 0
M  V30 19962 C 2693.14 6.19961 3.81809 0
M  V30 19963 H 2693.17 5.58218 4.73051 0
M  V30 19964 H 2694.35 6.21726 2.02589 0
M  V30 19965 H 2695.84 7.86112 2.9231 0
M  V30 19966 H 2694.14 9.11627 4.55076 0
M  V30 19967 H 2693.95 9.9573 2.34194 0
M  V30 19968 H 2692.32 9.2792 2.67832 0
M  V30 19969 H 2694.96 4.67702 4.28772 0
M  V30 19970 P 2696.82 7.39546 4.75277 0
M  V30 19971 O 2698.24 7.81777 5.05738 0
M  V30 19972 O 2696.46 7.1065 3.32998 0
M  V30 19973 O 2696.5 6.04542 5.56673 0
M  V30 19974 C 2696.34 6.22772 7.02095 0
M  V30 19975 C 2696.88 4.97725 7.70406 0
M  V30 19976 O 2695.82 4.13256 7.58987 0
M  V30 19977 C 2698.1 4.28231 7.11815 0
M  V30 19978 O 2698.83 3.49945 8.01648 0
M  V30 19979 C 2697.43 3.5063 5.96244 0
M  V30 19980 O 2698.23 2.36482 5.64681 0
M  V30 19981 C 2696.09 3.15122 6.56374 0
M  V30 19982 H 2696.12 2.13853 6.99751 0
M  V30 19983 H 2697.3 4.13501 5.06559 0
M  V30 19984 H 2698.79 5.03285 6.70911 0
M  V30 19985 H 2697.09 5.20877 8.75697 0
M  V30 19986 H 2696.9 7.11046 7.35349 0
M  V30 19987 H 2695.27 6.35815 7.26986 0
M  V30 19988 H 2697.91 1.61644 6.13565 0
M  V30 19989 P 2699.77 3.65191 7.99657 0
M  V30 19990 O 2701.19 3.8425 8.48115 0
M  V30 19991 O 2699.41 4.17805 6.64342 0
M  V30 19992 O 2699.45 2.07613 7.95143 0
M  V30 19993 C 2699.29 1.44328 9.27336 0
M  V30 19994 C 2699.83 0.0220036 9.17197 0
M  V30 19995 O 2698.77 -0.626867 8.61923 0
M  V30 19996 C 2701.05 -0.24586 8.30336 0
M  V30 19997 O 2701.78 -1.39011 8.63583 0
M  V30 19998 C 2700.38 -0.273849 6.91158 0
M  V30 19999 O 2701.18 -1.06348 6.02892 0
M  V30 20000 C 2699.04 -0.897649 7.22545 0
M  V30 20001 H 2699.07 -1.9841 7.04286 0
M  V30 20002 H 2700.26 0.739928 6.497 0
M  V30 20003 H 2701.74 0.60668 8.36503 0
M  V30 20004 H 2700.05 -0.352479 10.1829 0
M  V30 20005 H 2699.86 2.00611 10.0304 0
M  V30 20006 H 2698.23 1.41843 9.55327 0
M  V30 20007 H 2700.86 -1.95734 6.03555 0
M  V30 20008 P 2702.72 -1.25109 8.70152 0
M  V30 20009 O 2704.14 -1.35274 9.21221 0
M  V30 20010 O 2702.36 -0.0769065 7.84762 0
M  V30 20011 O 2702.4 -2.55232 7.81161 0
M  V30 20012 C 2702.24 -3.79939 8.58154 0
M  V30 20013 C 2702.78 -4.94023 7.72785 0
M  V30 20014 O 2701.72 -5.18726 6.91205 0
M  V30 20015 C 2704 -4.69597 6.85231 0
M  V30 20016 O 2704.74 -5.83832 6.51337 0
M  V30 20017 C 2703.33 -3.96706 5.66633 0
M  V30 20018 O 2704.13 -4.15414 4.49689 0
M  V30 20019 C 2701.99 -4.66153 5.59313 0
M  V30 20020 H 2702.02 -5.47679 4.85214 0
M  V30 20021 H 2703.21 -2.89008 5.86566 0
M  V30 20022 H 2704.69 -4.0121 7.36511 0
M  V30 20023 H 2703 -5.80182 8.37584 0
M  V30 20024 H 2702.81 -3.73517 9.52265 0
M  V30 20025 H 2701.18 -3.97163 8.80359 0
M  V30 20026 H 2703.82 -4.90969 4.01921 0
M  V30 20027 P 2705.67 -5.75688 6.64379 0
M  V30 20028 O 2707.09 -6.11849 7.01846 0
M  V30 20029 O 2705.31 -4.30744 6.56026 0
M  V30 20030 O 2705.35 -6.37042 5.19165 0
M  V30 20031 C 2705.19 -7.83578 5.16515 0
M  V30 20032 C 2705.73 -8.33398 3.83019 0
M  V30 20033 O 2704.67 -8.10074 3.01034 0
M  V30 20034 C 2706.95 -7.65514 3.2257 0
M  V30 20035 O 2707.69 -8.4329 2.32297 0
M  V30 20036 C 2706.28 -6.40075 2.62207 0
M  V30 20037 O 2707.08 -5.92589 1.53712 0
M  V30 20038 C 2704.94 -6.9454 2.18503 0
M  V30 20039 H 2704.97 -7.23063 1.12091 0
M  V30 20040 H 2706.16 -5.6025 3.37201 0
M  V30 20041 H 2707.64 -7.35707 4.02681 0
M  V30 20042 H 2705.95 -9.40912 3.9095 0
M  V30 20043 H 2705.76 -8.29056 5.99158 0
M  V30 20044 H 2704.13 -8.10073 5.25882 0
M  V30 20045 H 2706.77 -6.30324 0.726794 0
M  V30 20046 P 2708.62 -8.4349 2.47671 0
M  V30 20047 O 2710.05 -8.94167 2.5964 0
M  V30 20048 O 2708.26 -7.1704 3.19006 0
M  V30 20049 O 2708.3 -8.16596 0.923387 0
M  V30 20050 C 2708.14 -9.38437 0.108857 0
M  V30 20051 C 2708.68 -9.08175 -1.28353 0
M  V30 20052 O 2707.62 -8.44229 -1.84713 0
M  V30 20053 C 2709.9 -8.18386 -1.42505 0
M  V30 20054 O 2710.64 -8.3501 -2.60497 0
M  V30 20055 C 2709.23 -6.80225 -1.25468 0
M  V30 20056 O 2710.03 -5.81621 -1.91066 0
M  V30 20057 C 2707.89 -7.02416 -1.9168 0
M  V30 20058 H 2707.92 -6.6888 -2.96621 0
M  V30 20059 H 2709.11 -6.53617 -0.192223 0
M  V30 20060 H 2710.59 -8.36622 -0.589963 0
M  V30 20061 H 2708.9 -10.0291 -1.79807 0
M  V30 20062 H 2708.71 -10.2138 0.558219 0
M  V30 20063 H 2707.08 -9.6579 0.0444202 0
M  V30 20064 H 2709.72 -5.69556 -2.79637 0
M  V30 20065 P 2711.57 -8.4349 -2.47671 0
M  V30 20066 O 2713 -8.92593 -2.65 0
M  V30 20067 O 2711.21 -7.7568 -1.19296 0
M  V30 20068 O 2711.25 -7.36886 -3.63805 0
M  V30 20069 C 2711.09 -7.95349 -4.982 0
M  V30 20070 C 2711.63 -6.94612 -5.98974 0
M  V30 20071 O 2710.57 -6.10347 -6.11815 0
M  V30 20072 C 2712.85 -6.11426 -5.62335 0
M  V30 20073 O 2713.59 -5.6162 -6.70584 0
M  V30 20074 C 2712.18 -5.04409 -4.73308 0
M  V30 20075 O 2712.98 -3.85992 -4.75183 0
M  V30 20076 C 2710.84 -4.8728 -5.41006 0
M  V30 20077 H 2710.87 -4.02333 -6.11157 0
M  V30 20078 H 2712.06 -5.39466 -3.69543 0
M  V30 20079 H 2713.54 -6.71916 -5.01943 0
M  V30 20080 H 2711.85 -7.4649 -6.93477 0
M  V30 20081 H 2711.66 -8.89416 -5.05237 0
M  V30 20082 H 2710.03 -8.14876 -5.18409 0
M  V30 20083 H 2712.67 -3.27957 -5.4317 0
M  V30 20084 P 2714.52 -5.75688 -6.64379 0
M  V30 20085 O 2715.95 -6.07627 -7.05504 0
M  V30 20086 O 2714.16 -5.88047 -5.19722 0
M  V30 20087 O 2714.2 -4.2322 -7.04443 0
M  V30 20088 C 2714.04 -3.99743 -8.4911 0
M  V30 20089 C 2714.58 -2.60516 -8.79425 0
M  V30 20090 O 2713.53 -1.82684 -8.4467 0
M  V30 20091 C 2715.8 -2.10343 -8.03628 0
M  V30 20092 O 2716.54 -1.09919 -8.67766 0
M  V30 20093 C 2715.13 -1.68446 -6.70876 0
M  V30 20094 O 2715.93 -0.678137 -6.08433 0
M  V30 20095 C 2713.79 -1.17436 -7.18567 0
M  V30 20096 H 2713.83 -0.0804732 -7.31656 0
M  V30 20097 H 2715.01 -2.54037 -6.02537 0
M  V30 20098 H 2716.49 -2.93881 -7.85526 0
M  V30 20099 H 2714.8 -2.53065 -9.86973 0
M  V30 20100 H 2714.61 -4.75072 -9.05887 0
M  V30 20101 H 2712.98 -4.05244 -8.76668 0
M  V30 20102 H 2715.62 0.177647 -6.34251 0
M  V30 20103 P 2717.47 -1.25109 -8.70152 0
M  V30 20104 O 2718.9 -1.29744 -9.22016 0
M  V30 20105 O 2717.11 -2.13714 -7.55141 0
M  V30 20106 O 2717.15 0.248149 -8.21425 0
M  V30 20107 C 2716.99 1.22779 -9.30434 0
M  V30 20108 C 2717.53 2.56293 -8.80664 0
M  V30 20109 O 2716.48 3.02979 -8.09349 0
M  V30 20110 C 2718.75 2.57523 -7.89775 0
M  V30 20111 O 2719.49 3.7668 -7.89438 0
M  V30 20112 C 2718.08 2.20997 -6.55446 0
M  V30 20113 O 2718.88 2.71895 -5.48509 0
M  V30 20114 C 2716.74 2.89693 -6.67988 0
M  V30 20115 H 2716.78 3.88793 -6.19859 0
M  V30 20116 H 2717.96 1.12046 -6.44229 0
M  V30 20117 H 2719.44 1.7746 -8.19711 0
M  V30 20118 H 2717.75 3.20706 -9.67112 0
M  V30 20119 H 2717.56 0.901032 -10.1892 0
M  V30 20120 H 2715.93 1.33049 -9.56592 0
M  V30 20121 H 2718.57 3.57847 -5.23962 0
M  V30 20122 P 2720.43 3.65191 -7.99657 0
M  V30 20123 O 2721.85 3.89332 -8.45794 0
M  V30 20124 O 2720.07 2.28472 -7.50807 0
M  V30 20125 O 2720.1 4.64972 -6.77611 0
M  V30 20126 C 2719.94 6.06319 -7.16352 0
M  V30 20127 C 2720.48 6.91731 -6.02299 0
M  V30 20128 O 2719.43 6.92449 -5.17064 0
M  V30 20129 C 2721.7 6.43627 -5.25174 0
M  V30 20130 O 2722.44 7.43686 -4.60469 0
M  V30 20131 C 2721.03 5.40275 -4.31916 0
M  V30 20132 O 2721.83 5.25279 -3.14438 0
M  V30 20133 C 2719.69 6.04847 -4.05327 0
M  V30 20134 H 2719.73 6.62195 -3.11261 0
M  V30 20135 H 2720.91 4.42556 -4.81383 0
M  V30 20136 H 2722.39 5.92458 -5.93643 0
M  V30 20137 H 2720.7 7.92655 -6.402 0
M  V30 20138 H 2720.51 6.26671 -8.0846 0
M  V30 20139 H 2718.88 6.29101 -7.32804 0
M  V30 20140 H 2721.52 5.84315 -2.47318 0
M  V30 20141 P 2723.38 7.39546 -4.75277 0
M  V30 20142 O 2724.8 7.84798 -5.01039 0
M  V30 20143 O 2723.02 5.9812 -5.08098 0
M  V30 20144 O 2723.05 7.57503 -3.1866 0
M  V30 20145 C 2722.89 8.97357 -2.74833 0
M  V30 20146 C 2723.43 9.07548 -1.32709 0
M  V30 20147 O 2722.38 8.62072 -0.606159 0
M  V30 20148 C 2724.65 8.25383 -0.938334 0
M  V30 20149 O 2725.39 8.74577 0.146954 0
M  V30 20150 C 2723.98 6.8802 -0.712559 0
M  V30 20151 O 2724.78 6.1189 0.194655 0
M  V30 20152 C 2722.65 7.27966 -0.139777 0
M  V30 20153 H 2722.68 7.25354 0.961601 0
M  V30 20154 H 2723.86 6.32557 -1.65702 0
M  V30 20155 H 2725.34 8.19355 -1.79097 0
M  V30 20156 H 2723.65 10.1294 -1.10029 0
M  V30 20157 H 2723.46 9.64276 -3.41316 0
M  V30 20158 H 2721.83 9.25417 -2.76357 0
M  V30 20159 H 2724.47 6.25267 1.07847 0
M  V30 20160 P 2726.33 8.791 1.00632e-11 0
M  V30 20161 O 2727.75 9.31096 0.027933 0
M  V30 20162 O 2725.97 7.77869 -1.04071 0
M  V30 20163 O 2726 8.09533 1.41463 0
M  V30 20164 C 2725.84 9.0349 2.53943 0
M  V30 20165 C 2726.38 8.35226 3.79016 0
M  V30 20166 O 2725.33 7.57992 4.15078 0
M  V30 20167 C 2727.6 7.45087 3.67298 0
M  V30 20168 O 2728.34 7.27796 4.85194 0
M  V30 20169 C 2726.93 6.17323 3.12027 0
M  V30 20170 O 2727.73 5.04231 3.47188 0
M  V30 20171 C 2725.6 6.19961 3.81809 0
M  V30 20172 H 2725.63 5.58218 4.73051 0
M  V30 20173 H 2726.81 6.21726 2.02589 0
M  V30 20174 H 2728.29 7.86112 2.9231 0
M  V30 20175 H 2726.6 9.11627 4.55076 0
M  V30 20176 H 2726.41 9.9573 2.34194 0
M  V30 20177 H 2724.78 9.2792 2.67832 0
M  V30 20178 H 2727.42 4.67702 4.28772 0
M  V30 20179 P 2729.28 7.39546 4.75277 0
M  V30 20180 O 2730.7 7.81777 5.05738 0
M  V30 20181 O 2728.92 7.1065 3.32998 0
M  V30 20182 O 2728.95 6.04542 5.56673 0
M  V30 20183 C 2728.79 6.22772 7.02095 0
M  V30 20184 C 2729.33 4.97725 7.70406 0
M  V30 20185 O 2728.28 4.13256 7.58987 0
M  V30 20186 C 2730.55 4.28231 7.11815 0
M  V30 20187 O 2731.29 3.49945 8.01648 0
M  V30 20188 C 2729.88 3.5063 5.96244 0
M  V30 20189 O 2730.68 2.36482 5.64681 0
M  V30 20190 C 2728.55 3.15122 6.56374 0
M  V30 20191 H 2728.58 2.13853 6.99751 0
M  V30 20192 H 2729.76 4.13501 5.06559 0
M  V30 20193 H 2731.25 5.03285 6.70911 0
M  V30 20194 H 2729.55 5.20877 8.75697 0
M  V30 20195 H 2729.36 7.11046 7.35349 0
M  V30 20196 H 2727.73 6.35815 7.26986 0
M  V30 20197 H 2730.37 1.61644 6.13565 0
M  V30 20198 P 2732.23 3.65191 7.99657 0
M  V30 20199 O 2733.65 3.8425 8.48115 0
M  V30 20200 O 2731.87 4.17805 6.64342 0
M  V30 20201 O 2731.9 2.07613 7.95143 0
M  V30 20202 C 2731.74 1.44328 9.27336 0
M  V30 20203 C 2732.28 0.0220036 9.17197 0
M  V30 20204 O 2731.23 -0.626867 8.61923 0
M  V30 20205 C 2733.5 -0.24586 8.30336 0
M  V30 20206 O 2734.24 -1.39011 8.63583 0
M  V30 20207 C 2732.83 -0.273849 6.91158 0
M  V30 20208 O 2733.63 -1.06348 6.02892 0
M  V30 20209 C 2731.5 -0.897649 7.22545 0
M  V30 20210 H 2731.53 -1.9841 7.04286 0
M  V30 20211 H 2732.71 0.739928 6.497 0
M  V30 20212 H 2734.2 0.60668 8.36503 0
M  V30 20213 H 2732.5 -0.352479 10.1829 0
M  V30 20214 H 2732.31 2.00611 10.0304 0
M  V30 20215 H 2730.68 1.41843 9.55327 0
M  V30 20216 H 2733.32 -1.95734 6.03555 0
M  V30 20217 P 2735.18 -1.25109 8.70152 0
M  V30 20218 O 2736.6 -1.35274 9.21221 0
M  V30 20219 O 2734.82 -0.0769065 7.84762 0
M  V30 20220 O 2734.86 -2.55232 7.81161 0
M  V30 20221 C 2734.7 -3.79939 8.58154 0
M  V30 20222 C 2735.24 -4.94023 7.72785 0
M  V30 20223 O 2734.18 -5.18726 6.91205 0
M  V30 20224 C 2736.45 -4.69597 6.85231 0
M  V30 20225 O 2737.19 -5.83832 6.51337 0
M  V30 20226 C 2735.78 -3.96706 5.66633 0
M  V30 20227 O 2736.58 -4.15414 4.49689 0
M  V30 20228 C 2734.45 -4.66153 5.59313 0
M  V30 20229 H 2734.48 -5.47679 4.85214 0
M  V30 20230 H 2735.66 -2.89008 5.86566 0
M  V30 20231 H 2737.15 -4.0121 7.36511 0
M  V30 20232 H 2735.45 -5.80182 8.37584 0
M  V30 20233 H 2735.26 -3.73517 9.52265 0
M  V30 20234 H 2733.63 -3.97163 8.80359 0
M  V30 20235 H 2736.27 -4.90969 4.01921 0
M  V30 20236 P 2738.13 -5.75688 6.64379 0
M  V30 20237 O 2739.55 -6.11849 7.01846 0
M  V30 20238 O 2737.77 -4.30744 6.56026 0
M  V30 20239 O 2737.81 -6.37042 5.19165 0
M  V30 20240 C 2737.65 -7.83578 5.16515 0
M  V30 20241 C 2738.19 -8.33398 3.83019 0
M  V30 20242 O 2737.13 -8.10074 3.01034 0
M  V30 20243 C 2739.4 -7.65514 3.2257 0
M  V30 20244 O 2740.14 -8.4329 2.32297 0
M  V30 20245 C 2738.73 -6.40075 2.62207 0
M  V30 20246 O 2739.53 -5.92589 1.53712 0
M  V30 20247 C 2737.4 -6.9454 2.18503 0
M  V30 20248 H 2737.43 -7.23063 1.12091 0
M  V30 20249 H 2738.61 -5.6025 3.37201 0
M  V30 20250 H 2740.1 -7.35707 4.02681 0
M  V30 20251 H 2738.4 -9.40912 3.9095 0
M  V30 20252 H 2738.21 -8.29056 5.99158 0
M  V30 20253 H 2736.58 -8.10073 5.25882 0
M  V30 20254 H 2739.22 -6.30324 0.726794 0
M  V30 20255 P 2741.08 -8.4349 2.47671 0
M  V30 20256 O 2742.5 -8.94167 2.5964 0
M  V30 20257 O 2740.72 -7.1704 3.19006 0
M  V30 20258 O 2740.76 -8.16596 0.923387 0
M  V30 20259 C 2740.6 -9.38437 0.108857 0
M  V30 20260 C 2741.14 -9.08175 -1.28353 0
M  V30 20261 O 2740.08 -8.44229 -1.84713 0
M  V30 20262 C 2742.35 -8.18386 -1.42505 0
M  V30 20263 O 2743.09 -8.3501 -2.60497 0
M  V30 20264 C 2741.69 -6.80225 -1.25468 0
M  V30 20265 O 2742.48 -5.81621 -1.91066 0
M  V30 20266 C 2740.35 -7.02416 -1.9168 0
M  V30 20267 H 2740.38 -6.6888 -2.96621 0
M  V30 20268 H 2741.56 -6.53617 -0.192223 0
M  V30 20269 H 2743.05 -8.36622 -0.589963 0
M  V30 20270 H 2741.35 -10.0291 -1.79807 0
M  V30 20271 H 2741.16 -10.2138 0.558219 0
M  V30 20272 H 2739.53 -9.6579 0.0444202 0
M  V30 20273 H 2742.17 -5.69556 -2.79637 0
M  V30 20274 P 2744.03 -8.4349 -2.47671 0
M  V30 20275 O 2745.45 -8.92593 -2.65 0
M  V30 20276 O 2743.67 -7.7568 -1.19296 0
M  V30 20277 O 2743.71 -7.36886 -3.63805 0
M  V30 20278 C 2743.55 -7.95349 -4.982 0
M  V30 20279 C 2744.09 -6.94612 -5.98974 0
M  V30 20280 O 2743.03 -6.10347 -6.11815 0
M  V30 20281 C 2745.31 -6.11426 -5.62335 0
M  V30 20282 O 2746.04 -5.6162 -6.70584 0
M  V30 20283 C 2744.64 -5.04409 -4.73308 0
M  V30 20284 O 2745.44 -3.85992 -4.75183 0
M  V30 20285 C 2743.3 -4.8728 -5.41006 0
M  V30 20286 H 2743.33 -4.02333 -6.11157 0
M  V30 20287 H 2744.51 -5.39466 -3.69543 0
M  V30 20288 H 2746 -6.71916 -5.01943 0
M  V30 20289 H 2744.3 -7.4649 -6.93477 0
M  V30 20290 H 2744.11 -8.89416 -5.05237 0
M  V30 20291 H 2742.48 -8.14876 -5.18409 0
M  V30 20292 H 2745.12 -3.27957 -5.4317 0
M  V30 20293 P 2746.98 -5.75688 -6.64379 0
M  V30 20294 O 2748.4 -6.07627 -7.05504 0
M  V30 20295 O 2746.62 -5.88047 -5.19722 0
M  V30 20296 O 2746.66 -4.2322 -7.04443 0
M  V30 20297 C 2746.5 -3.99743 -8.4911 0
M  V30 20298 C 2747.04 -2.60516 -8.79425 0
M  V30 20299 O 2745.98 -1.82684 -8.4467 0
M  V30 20300 C 2748.26 -2.10343 -8.03628 0
M  V30 20301 O 2748.99 -1.09919 -8.67766 0
M  V30 20302 C 2747.59 -1.68446 -6.70876 0
M  V30 20303 O 2748.39 -0.678137 -6.08433 0
M  V30 20304 C 2746.25 -1.17436 -7.18567 0
M  V30 20305 H 2746.28 -0.0804732 -7.31656 0
M  V30 20306 H 2747.46 -2.54037 -6.02537 0
M  V30 20307 H 2748.95 -2.93881 -7.85526 0
M  V30 20308 H 2747.25 -2.53065 -9.86973 0
M  V30 20309 H 2747.06 -4.75072 -9.05887 0
M  V30 20310 H 2745.43 -4.05244 -8.76668 0
M  V30 20311 H 2748.07 0.177647 -6.34251 0
M  V30 20312 P 2749.93 -1.25109 -8.70152 0
M  V30 20313 O 2751.35 -1.29744 -9.22016 0
M  V30 20314 O 2749.57 -2.13714 -7.55141 0
M  V30 20315 O 2749.61 0.248149 -8.21425 0
M  V30 20316 C 2749.45 1.22779 -9.30434 0
M  V30 20317 C 2749.99 2.56293 -8.80664 0
M  V30 20318 O 2748.93 3.02979 -8.09349 0
M  V30 20319 C 2751.21 2.57523 -7.89775 0
M  V30 20320 O 2751.94 3.7668 -7.89438 0
M  V30 20321 C 2750.54 2.20997 -6.55446 0
M  V30 20322 O 2751.34 2.71895 -5.48509 0
M  V30 20323 C 2749.2 2.89693 -6.67988 0
M  V30 20324 H 2749.23 3.88793 -6.19859 0
M  V30 20325 H 2750.42 1.12046 -6.44229 0
M  V30 20326 H 2751.9 1.7746 -8.19711 0
M  V30 20327 H 2750.21 3.20706 -9.67112 0
M  V30 20328 H 2750.02 0.901032 -10.1892 0
M  V30 20329 H 2748.39 1.33049 -9.56592 0
M  V30 20330 H 2751.02 3.57847 -5.23962 0
M  V30 20331 P 2752.88 3.65191 -7.99657 0
M  V30 20332 O 2754.3 3.89332 -8.45794 0
M  V30 20333 O 2752.52 2.28472 -7.50807 0
M  V30 20334 O 2752.56 4.64972 -6.77611 0
M  V30 20335 C 2752.4 6.06319 -7.16352 0
M  V30 20336 C 2752.94 6.91731 -6.02299 0
M  V30 20337 O 2751.88 6.92449 -5.17064 0
M  V30 20338 C 2754.16 6.43627 -5.25174 0
M  V30 20339 O 2754.89 7.43686 -4.60469 0
M  V30 20340 C 2753.49 5.40275 -4.31916 0
M  V30 20341 O 2754.29 5.25279 -3.14438 0
M  V30 20342 C 2752.15 6.04847 -4.05327 0
M  V30 20343 H 2752.18 6.62195 -3.11261 0
M  V30 20344 H 2753.37 4.42556 -4.81383 0
M  V30 20345 H 2754.85 5.92458 -5.93643 0
M  V30 20346 H 2753.16 7.92655 -6.402 0
M  V30 20347 H 2752.97 6.26671 -8.0846 0
M  V30 20348 H 2751.34 6.29101 -7.32804 0
M  V30 20349 H 2753.97 5.84315 -2.47318 0
M  V30 20350 P 2755.83 7.39546 -4.75277 0
M  V30 20351 O 2757.25 7.84798 -5.01039 0
M  V30 20352 O 2755.47 5.9812 -5.08098 0
M  V30 20353 O 2755.51 7.57503 -3.1866 0
M  V30 20354 C 2755.35 8.97357 -2.74833 0
M  V30 20355 C 2755.89 9.07548 -1.32709 0
M  V30 20356 O 2754.83 8.62072 -0.606159 0
M  V30 20357 C 2757.11 8.25383 -0.938334 0
M  V30 20358 O 2757.85 8.74577 0.146954 0
M  V30 20359 C 2756.44 6.8802 -0.712559 0
M  V30 20360 O 2757.24 6.1189 0.194655 0
M  V30 20361 C 2755.1 7.27966 -0.139777 0
M  V30 20362 H 2755.13 7.25354 0.961601 0
M  V30 20363 H 2756.32 6.32557 -1.65702 0
M  V30 20364 H 2757.8 8.19355 -1.79097 0
M  V30 20365 H 2756.11 10.1294 -1.10029 0
M  V30 20366 H 2755.92 9.64276 -3.41316 0
M  V30 20367 H 2754.29 9.25417 -2.76357 0
M  V30 20368 H 2756.93 6.25267 1.07847 0
M  V30 20369 P 2758.78 8.791 4.87655e-12 0
M  V30 20370 O 2760.2 9.31196 0.027936 0
M  V30 20371 O 2758.42 7.77869 -1.04071 0
M  V30 20372 O 2758.46 8.09533 1.41463 0
M  V30 20373 C 2758.3 9.03587 2.5397 0
M  V30 20374 C 2758.84 8.35226 3.79016 0
M  V30 20375 O 2757.78 7.57904 4.1503 0
M  V30 20376 C 2760.06 7.45087 3.67298 0
M  V30 20377 O 2760.8 7.27796 4.85194 0
M  V30 20378 C 2759.39 6.17323 3.12027 0
M  V30 20379 O 2760.19 5.04496 3.46627 0
M  V30 20380 C 2758.05 6.19961 3.81809 0
M  V30 20381 N 2757.01 5.71575 2.93223 0
M  V30 20382 C 2757.18 5.77362 1.59168 0
M  V30 20383 N 2756.15 5.3123 0.911893 0
M  V30 20384 C 2755.27 4.91717 1.89588 0
M  V30 20385 C 2754 4.3114 1.8076 0
M  V30 20386 N 2753.4 3.99821 0.632928 0
M  V30 20387 N 2753.43 4.06823 3.02898 0
M  V30 20388 C 2754.04 4.35062 4.22711 0
M  V30 20389 N 2755.21 4.90805 4.35707 0
M  V30 20390 C 2755.79 5.16382 3.14469 0
M  V30 20391 H 2758.08 5.58142 4.72986 0
M  V30 20392 H 2759.27 6.21428 2.0318 0
M  V30 20393 H 2760.75 7.86112 2.9231 0
M  V30 20394 H 2759.06 9.11171 4.55987 0
M  V30 20395 H 2758.87 9.9573 2.34194 0
M  V30 20396 H 2757.24 9.2792 2.67832 0
M  V30 20397 H 2753.5 4.09052 5.13359 0
M  V30 20398 H 2758.08 6.16575 1.12198 0
M  V30 20399 H 2752.47 3.55423 0.632085 0
M  V30 20400 H 2753.87 4.20317 -0.256712 0
M  V30 20401 H 2759.88 4.67628 4.28704 0
M  V30 20402 P 2761.73 7.39546 4.75277 0
M  V30 20403 O 2763.16 7.81777 5.05738 0
M  V30 20404 O 2761.37 7.1065 3.32998 0
M  V30 20405 O 2761.41 6.04542 5.56673 0
M  V30 20406 C 2761.25 6.22772 7.02095 0
M  V30 20407 C 2761.79 4.97725 7.70406 0
M  V30 20408 O 2760.73 4.13256 7.58987 0
M  V30 20409 C 2763.01 4.28231 7.11815 0
M  V30 20410 O 2763.75 3.49945 8.01648 0
M  V30 20411 C 2762.34 3.5063 5.96244 0
M  V30 20412 O 2763.14 2.36482 5.64681 0
M  V30 20413 C 2761 3.15122 6.56374 0
M  V30 20414 H 2761.03 2.13853 6.99751 0
M  V30 20415 H 2762.22 4.13501 5.06559 0
M  V30 20416 H 2763.7 5.03285 6.70911 0
M  V30 20417 H 2762.01 5.20877 8.75697 0
M  V30 20418 H 2761.82 7.11046 7.35349 0
M  V30 20419 H 2760.19 6.35815 7.26986 0
M  V30 20420 H 2762.83 1.61644 6.13565 0
M  V30 20421 P 2764.68 3.65191 7.99657 0
M  V30 20422 O 2766.11 3.8425 8.48115 0
M  V30 20423 O 2764.32 4.17805 6.64342 0
M  V30 20424 O 2764.36 2.07613 7.95143 0
M  V30 20425 C 2764.2 1.44328 9.27336 0
M  V30 20426 C 2764.74 0.0220036 9.17197 0
M  V30 20427 O 2763.69 -0.626867 8.61923 0
M  V30 20428 C 2765.96 -0.24586 8.30336 0
M  V30 20429 O 2766.7 -1.39011 8.63583 0
M  V30 20430 C 2765.29 -0.273849 6.91158 0
M  V30 20431 O 2766.09 -1.06348 6.02892 0
M  V30 20432 C 2763.95 -0.897649 7.22545 0
M  V30 20433 H 2763.99 -1.9841 7.04286 0
M  V30 20434 H 2765.17 0.739928 6.497 0
M  V30 20435 H 2766.65 0.60668 8.36503 0
M  V30 20436 H 2764.96 -0.352479 10.1829 0
M  V30 20437 H 2764.77 2.00611 10.0304 0
M  V30 20438 H 2763.14 1.41843 9.55327 0
M  V30 20439 H 2765.78 -1.95734 6.03555 0
M  V30 20440 P 2767.63 -1.25109 8.70152 0
M  V30 20441 O 2769.06 -1.35274 9.21221 0
M  V30 20442 O 2767.27 -0.0769065 7.84762 0
M  V30 20443 O 2767.31 -2.55232 7.81161 0
M  V30 20444 C 2767.15 -3.79939 8.58154 0
M  V30 20445 C 2767.69 -4.94023 7.72785 0
M  V30 20446 O 2766.64 -5.18726 6.91205 0
M  V30 20447 C 2768.91 -4.69597 6.85231 0
M  V30 20448 O 2769.65 -5.83832 6.51337 0
M  V30 20449 C 2768.24 -3.96706 5.66633 0
M  V30 20450 O 2769.04 -4.15414 4.49689 0
M  V30 20451 C 2766.9 -4.66153 5.59313 0
M  V30 20452 H 2766.94 -5.47679 4.85214 0
M  V30 20453 H 2768.12 -2.89008 5.86566 0
M  V30 20454 H 2769.6 -4.0121 7.36511 0
M  V30 20455 H 2767.91 -5.80182 8.37584 0
M  V30 20456 H 2767.72 -3.73517 9.52265 0
M  V30 20457 H 2766.09 -3.97163 8.80359 0
M  V30 20458 H 2768.73 -4.90969 4.01921 0
M  V30 20459 P 2770.59 -5.75688 6.64379 0
M  V30 20460 O 2772.01 -6.11849 7.01846 0
M  V30 20461 O 2770.23 -4.30744 6.56026 0
M  V30 20462 O 2770.26 -6.37042 5.19165 0
M  V30 20463 C 2770.1 -7.83578 5.16515 0
M  V30 20464 C 2770.64 -8.33398 3.83019 0
M  V30 20465 O 2769.59 -8.10074 3.01034 0
M  V30 20466 C 2771.86 -7.65514 3.2257 0
M  V30 20467 O 2772.6 -8.4329 2.32297 0
M  V30 20468 C 2771.19 -6.40075 2.62207 0
M  V30 20469 O 2771.99 -5.92589 1.53712 0
M  V30 20470 C 2769.85 -6.9454 2.18503 0
M  V30 20471 H 2769.89 -7.23063 1.12091 0
M  V30 20472 H 2771.07 -5.6025 3.37201 0
M  V30 20473 H 2772.55 -7.35707 4.02681 0
M  V30 20474 H 2770.86 -9.40912 3.9095 0
M  V30 20475 H 2770.67 -8.29056 5.99158 0
M  V30 20476 H 2769.04 -8.10073 5.25882 0
M  V30 20477 H 2771.68 -6.30324 0.726794 0
M  V30 20478 P 2773.54 -8.4349 2.47671 0
M  V30 20479 O 2774.96 -8.94167 2.5964 0
M  V30 20480 O 2773.18 -7.1704 3.19006 0
M  V30 20481 O 2773.21 -8.16596 0.923387 0
M  V30 20482 C 2773.05 -9.38437 0.108857 0
M  V30 20483 C 2773.59 -9.08175 -1.28353 0
M  V30 20484 O 2772.54 -8.44229 -1.84713 0
M  V30 20485 C 2774.81 -8.18386 -1.42505 0
M  V30 20486 O 2775.55 -8.3501 -2.60497 0
M  V30 20487 C 2774.14 -6.80225 -1.25468 0
M  V30 20488 O 2774.94 -5.81621 -1.91066 0
M  V30 20489 C 2772.8 -7.02416 -1.9168 0
M  V30 20490 H 2772.84 -6.6888 -2.96621 0
M  V30 20491 H 2774.02 -6.53617 -0.192223 0
M  V30 20492 H 2775.5 -8.36622 -0.589963 0
M  V30 20493 H 2773.81 -10.0291 -1.79807 0
M  V30 20494 H 2773.62 -10.2138 0.558219 0
M  V30 20495 H 2771.99 -9.6579 0.0444202 0
M  V30 20496 H 2774.63 -5.69556 -2.79637 0
M  V30 20497 P 2776.49 -8.4349 -2.47671 0
M  V30 20498 O 2777.91 -8.92593 -2.65 0
M  V30 20499 O 2776.13 -7.7568 -1.19296 0
M  V30 20500 O 2776.16 -7.36886 -3.63805 0
M  V30 20501 C 2776 -7.95349 -4.982 0
M  V30 20502 C 2776.54 -6.94612 -5.98974 0
M  V30 20503 O 2775.49 -6.10347 -6.11815 0
M  V30 20504 C 2777.76 -6.11426 -5.62335 0
M  V30 20505 O 2778.5 -5.6162 -6.70584 0
M  V30 20506 C 2777.09 -5.04409 -4.73308 0
M  V30 20507 O 2777.89 -3.85992 -4.75183 0
M  V30 20508 C 2775.76 -4.8728 -5.41006 0
M  V30 20509 H 2775.79 -4.02333 -6.11157 0
M  V30 20510 H 2776.97 -5.39466 -3.69543 0
M  V30 20511 H 2778.45 -6.71916 -5.01943 0
M  V30 20512 H 2776.76 -7.4649 -6.93477 0
M  V30 20513 H 2776.57 -8.89416 -5.05237 0
M  V30 20514 H 2774.94 -8.14876 -5.18409 0
M  V30 20515 H 2777.58 -3.27957 -5.4317 0
M  V30 20516 P 2779.44 -5.75688 -6.64379 0
M  V30 20517 O 2780.86 -6.07692 -7.0558 0
M  V30 20518 O 2779.08 -5.88047 -5.19722 0
M  V30 20519 O 2779.11 -4.2322 -7.04443 0
M  V30 20520 C 2778.95 -3.99785 -8.49201 0
M  V30 20521 C 2779.49 -2.60516 -8.79425 0
M  V30 20522 O 2778.44 -1.82663 -8.44573 0
M  V30 20523 C 2780.71 -2.10343 -8.03628 0
M  V30 20524 O 2781.45 -1.09919 -8.67766 0
M  V30 20525 C 2780.04 -1.68446 -6.70876 0
M  V30 20526 O 2780.84 -0.684109 -6.08265 0
M  V30 20527 C 2778.71 -1.17436 -7.18567 0
M  V30 20528 N 2777.66 -1.52699 -6.23988 0
M  V30 20529 C 2777.83 -2.578 -5.40574 0
M  V30 20530 N 2776.8 -2.78966 -4.61193 0
M  V30 20531 C 2775.92 -1.78725 -4.95769 0
M  V30 20532 C 2774.65 -1.45727 -4.44207 0
M  V30 20533 N 2774.05 -2.13994 -3.43613 0
M  V30 20534 N 2774.09 -0.374977 -5.05812 0
M  V30 20535 C 2774.69 0.345585 -6.05615 0
M  V30 20536 N 2775.87 0.0787651 -6.56253 0
M  V30 20537 C 2776.44 -1.00499 -5.96189 0
M  V30 20538 H 2778.74 -0.0804622 -7.31556 0
M  V30 20539 H 2779.92 -2.53396 -6.02698 0
M  V30 20540 H 2781.4 -2.93881 -7.85526 0
M  V30 20541 H 2779.71 -2.52078 -9.87225 0
M  V30 20542 H 2779.52 -4.75072 -9.05887 0
M  V30 20543 H 2777.89 -4.05244 -8.76668 0
M  V30 20544 H 2774.15 1.20098 -6.4532 0
M  V30 20545 H 2778.73 -3.18977 -5.3945 0
M  V30 20546 H 2773.12 -1.84983 -3.10004 0
M  V30 20547 H 2774.53 -2.9465 -3.00843 0
M  V30 20548 H 2780.53 0.177619 -6.34151 0
M  V30 20549 P 2782.39 -1.25109 -8.70152 0
M  V30 20550 O 2783.81 -1.29744 -9.22016 0
M  V30 20551 O 2782.03 -2.13714 -7.55141 0
M  V30 20552 O 2782.06 0.248149 -8.21425 0
M  V30 20553 C 2781.9 1.22779 -9.30434 0
M  V30 20554 C 2782.44 2.56293 -8.80664 0
M  V30 20555 O 2781.39 3.02979 -8.09349 0
M  V30 20556 C 2783.66 2.57523 -7.89775 0
M  V30 20557 O 2784.4 3.7668 -7.89438 0
M  V30 20558 C 2782.99 2.20997 -6.55446 0
M  V30 20559 O 2783.79 2.71895 -5.48509 0
M  V30 20560 C 2781.66 2.89693 -6.67988 0
M  V30 20561 H 2781.69 3.88793 -6.19859 0
M  V30 20562 H 2782.87 1.12046 -6.44229 0
M  V30 20563 H 2784.36 1.7746 -8.19711 0
M  V30 20564 H 2782.66 3.20706 -9.67112 0
M  V30 20565 H 2782.47 0.901032 -10.1892 0
M  V30 20566 H 2780.84 1.33049 -9.56592 0
M  V30 20567 H 2783.48 3.57847 -5.23962 0
M  V30 20568 P 2785.34 3.65191 -7.99657 0
M  V30 20569 O 2786.76 3.89332 -8.45794 0
M  V30 20570 O 2784.98 2.28472 -7.50807 0
M  V30 20571 O 2785.02 4.64972 -6.77611 0
M  V30 20572 C 2784.86 6.06319 -7.16352 0
M  V30 20573 C 2785.4 6.91731 -6.02299 0
M  V30 20574 O 2784.34 6.92449 -5.17064 0
M  V30 20575 C 2786.61 6.43627 -5.25174 0
M  V30 20576 O 2787.35 7.43686 -4.60469 0
M  V30 20577 C 2785.94 5.40275 -4.31916 0
M  V30 20578 O 2786.74 5.25279 -3.14438 0
M  V30 20579 C 2784.61 6.04847 -4.05327 0
M  V30 20580 H 2784.64 6.62195 -3.11261 0
M  V30 20581 H 2785.82 4.42556 -4.81383 0
M  V30 20582 H 2787.31 5.92458 -5.93643 0
M  V30 20583 H 2785.61 7.92655 -6.402 0
M  V30 20584 H 2785.42 6.26671 -8.0846 0
M  V30 20585 H 2783.79 6.29101 -7.32804 0
M  V30 20586 H 2786.43 5.84315 -2.47318 0
M  V30 20587 P 2788.29 7.39546 -4.75277 0
M  V30 20588 O 2789.71 7.84798 -5.01039 0
M  V30 20589 O 2787.93 5.9812 -5.08098 0
M  V30 20590 O 2787.97 7.57503 -3.1866 0
M  V30 20591 C 2787.81 8.97357 -2.74833 0
M  V30 20592 C 2788.35 9.07548 -1.32709 0
M  V30 20593 O 2787.29 8.62072 -0.606159 0
M  V30 20594 C 2789.56 8.25383 -0.938334 0
M  V30 20595 O 2790.3 8.74577 0.146954 0
M  V30 20596 C 2788.89 6.8802 -0.712559 0
M  V30 20597 O 2789.69 6.1189 0.194655 0
M  V30 20598 C 2787.56 7.27966 -0.139777 0
M  V30 20599 H 2787.59 7.25354 0.961601 0
M  V30 20600 H 2788.77 6.32557 -1.65702 0
M  V30 20601 H 2790.26 8.19355 -1.79097 0
M  V30 20602 H 2788.56 10.1294 -1.10029 0
M  V30 20603 H 2788.37 9.64276 -3.41316 0
M  V30 20604 H 2786.74 9.25417 -2.76357 0
M  V30 20605 H 2789.38 6.25267 1.07847 0
M  V30 20606 P 2791.24 8.791 -3.10101e-13 0
M  V30 20607 O 2792.66 9.31196 0.027936 0
M  V30 20608 O 2790.88 7.77869 -1.04071 0
M  V30 20609 O 2790.92 8.09533 1.41463 0
M  V30 20610 C 2790.76 9.03587 2.5397 0
M  V30 20611 C 2791.3 8.35226 3.79016 0
M  V30 20612 O 2790.24 7.57904 4.1503 0
M  V30 20613 C 2792.51 7.45087 3.67298 0
M  V30 20614 O 2793.25 7.27796 4.85194 0
M  V30 20615 C 2791.85 6.17323 3.12027 0
M  V30 20616 O 2792.64 5.04496 3.46627 0
M  V30 20617 C 2790.51 6.19961 3.81809 0
M  V30 20618 N 2789.47 5.71575 2.93223 0
M  V30 20619 C 2789.63 5.77362 1.59168 0
M  V30 20620 N 2788.61 5.3123 0.911893 0
M  V30 20621 C 2787.72 4.91717 1.89588 0
M  V30 20622 C 2786.46 4.3114 1.8076 0
M  V30 20623 N 2785.89 4.06823 3.02898 0
M  V30 20624 C 2786.49 4.35062 4.22711 0
M  V30 20625 N 2787.67 4.90805 4.35707 0
M  V30 20626 C 2788.24 5.16382 3.14469 0
M  V30 20627 H 2791.72 6.21428 2.0318 0
M  V30 20628 H 2793.21 7.86112 2.9231 0
M  V30 20629 H 2791.51 9.11171 4.55987 0
M  V30 20630 H 2791.32 9.9573 2.34194 0
M  V30 20631 H 2789.69 9.2792 2.67832 0
M  V30 20632 H 2790.53 6.16575 1.12198 0
M  V30 20633 H 2792.33 4.67628 4.28704 0
M  V30 20634 P 2794.19 7.39546 4.75277 0
M  V30 20635 O 2795.61 7.81777 5.05738 0
M  V30 20636 O 2793.83 7.1065 3.32998 0
M  V30 20637 O 2793.87 6.04542 5.56673 0
M  V30 20638 C 2793.71 6.22772 7.02095 0
M  V30 20639 C 2794.25 4.97725 7.70406 0
M  V30 20640 O 2793.19 4.13256 7.58987 0
M  V30 20641 C 2795.46 4.28231 7.11815 0
M  V30 20642 O 2796.2 3.49945 8.01648 0
M  V30 20643 C 2794.8 3.5063 5.96244 0
M  V30 20644 O 2795.59 2.36482 5.64681 0
M  V30 20645 C 2793.46 3.15122 6.56374 0
M  V30 20646 H 2793.49 2.13853 6.99751 0
M  V30 20647 H 2794.67 4.13501 5.06559 0
M  V30 20648 H 2796.16 5.03285 6.70911 0
M  V30 20649 H 2794.46 5.20877 8.75697 0
M  V30 20650 H 2794.27 7.11046 7.35349 0
M  V30 20651 H 2792.64 6.35815 7.26986 0
M  V30 20652 H 2795.28 1.61644 6.13565 0
M  V30 20653 P 2797.14 3.65191 7.99657 0
M  V30 20654 O 2798.56 3.8425 8.48115 0
M  V30 20655 O 2796.78 4.17805 6.64342 0
M  V30 20656 O 2796.82 2.07613 7.95143 0
M  V30 20657 C 2796.66 1.44328 9.27336 0
M  V30 20658 C 2797.2 0.0220036 9.17197 0
M  V30 20659 O 2796.14 -0.626867 8.61923 0
M  V30 20660 C 2798.42 -0.24586 8.30336 0
M  V30 20661 O 2799.15 -1.39011 8.63583 0
M  V30 20662 C 2797.75 -0.273849 6.91158 0
M  V30 20663 O 2798.55 -1.06348 6.02892 0
M  V30 20664 C 2796.41 -0.897649 7.22545 0
M  V30 20665 H 2796.44 -1.9841 7.04286 0
M  V30 20666 H 2797.62 0.739928 6.497 0
M  V30 20667 H 2799.11 0.60668 8.36503 0
M  V30 20668 H 2797.41 -0.352479 10.1829 0
M  V30 20669 H 2797.22 2.00611 10.0304 0
M  V30 20670 H 2795.59 1.41843 9.55327 0
M  V30 20671 H 2798.23 -1.95734 6.03555 0
M  V30 20672 P 2800.09 -1.25109 8.70152 0
M  V30 20673 O 2801.51 -1.35274 9.21221 0
M  V30 20674 O 2799.73 -0.0769065 7.84762 0
M  V30 20675 O 2799.77 -2.55232 7.81161 0
M  V30 20676 C 2799.61 -3.79939 8.58154 0
M  V30 20677 C 2800.15 -4.94023 7.72785 0
M  V30 20678 O 2799.09 -5.18726 6.91205 0
M  V30 20679 C 2801.37 -4.69597 6.85231 0
M  V30 20680 O 2802.1 -5.83832 6.51337 0
M  V30 20681 C 2800.7 -3.96706 5.66633 0
M  V30 20682 O 2801.5 -4.15414 4.49689 0
M  V30 20683 C 2799.36 -4.66153 5.59313 0
M  V30 20684 H 2799.39 -5.47679 4.85214 0
M  V30 20685 H 2800.57 -2.89008 5.86566 0
M  V30 20686 H 2802.06 -4.0121 7.36511 0
M  V30 20687 H 2800.36 -5.80182 8.37584 0
M  V30 20688 H 2800.17 -3.73517 9.52265 0
M  V30 20689 H 2798.54 -3.97163 8.80359 0
M  V30 20690 H 2801.18 -4.90969 4.01921 0
M  V30 20691 P 2803.04 -5.75688 6.64379 0
M  V30 20692 O 2804.46 -6.11915 7.01921 0
M  V30 20693 O 2802.68 -4.30744 6.56026 0
M  V30 20694 O 2802.72 -6.37042 5.19165 0
M  V30 20695 C 2802.56 -7.83662 5.1657 0
M  V30 20696 C 2803.1 -8.33398 3.83019 0
M  V30 20697 O 2802.04 -8.0998 3.00999 0
M  V30 20698 C 2804.32 -7.65514 3.2257 0
M  V30 20699 O 2805.05 -8.4329 2.32297 0
M  V30 20700 C 2803.65 -6.40075 2.62207 0
M  V30 20701 O 2804.45 -5.92338 1.5428 0
M  V30 20702 C 2802.31 -6.9454 2.18503 0
M  V30 20703 N 2801.27 -5.95905 2.39948 0
M  V30 20704 C 2801.44 -4.98383 3.32108 0
M  V30 20705 N 2800.41 -4.16798 3.41761 0
M  V30 20706 C 2799.52 -4.65287 2.47461 0
M  V30 20707 C 2798.26 -4.18946 2.07461 0
M  V30 20708 N 2797.66 -3.09661 2.60717 0
M  V30 20709 N 2797.69 -4.95327 1.09101 0
M  V30 20710 C 2798.29 -6.04369 0.519812 0
M  V30 20711 N 2799.47 -6.50694 0.855982 0
M  V30 20712 C 2800.05 -5.75818 1.84322 0
M  V30 20713 H 2802.34 -7.22964 1.12076 0
M  V30 20714 H 2803.53 -5.60502 3.36589 0
M  V30 20715 H 2805.01 -7.35707 4.02681 0
M  V30 20716 H 2803.31 -9.41302 3.90009 0
M  V30 20717 H 2803.12 -8.29056 5.99158 0
M  V30 20718 H 2801.49 -8.10073 5.25882 0
M  V30 20719 H 2797.76 -6.55843 -0.270373 0
M  V30 20720 H 2802.34 -4.88564 3.92502 0
M  V30 20721 H 2796.73 -2.80523 2.27218 0
M  V30 20722 H 2798.13 -2.55848 3.34465 0
M  V30 20723 H 2804.13 -6.30224 0.72668 0
M  V30 20724 P 2805.99 -8.4349 2.47671 0
M  V30 20725 O 2807.41 -8.94167 2.5964 0
M  V30 20726 O 2805.63 -7.1704 3.19006 0
M  V30 20727 O 2805.67 -8.16596 0.923387 0
M  V30 20728 C 2805.51 -9.38437 0.108857 0
M  V30 20729 C 2806.05 -9.08175 -1.28353 0
M  V30 20730 O 2804.99 -8.44229 -1.84713 0
M  V30 20731 C 2807.27 -8.18386 -1.42505 0
M  V30 20732 O 2808.01 -8.3501 -2.60497 0
M  V30 20733 C 2806.6 -6.80225 -1.25468 0
M  V30 20734 O 2807.4 -5.81621 -1.91066 0
M  V30 20735 C 2805.26 -7.02416 -1.9168 0
M  V30 20736 H 2805.29 -6.6888 -2.96621 0
M  V30 20737 H 2806.48 -6.53617 -0.192223 0
M  V30 20738 H 2807.96 -8.36622 -0.589963 0
M  V30 20739 H 2806.27 -10.0291 -1.79807 0
M  V30 20740 H 2806.08 -10.2138 0.558219 0
M  V30 20741 H 2804.45 -9.6579 0.0444202 0
M  V30 20742 H 2807.09 -5.69556 -2.79637 0
M  V30 20743 P 2808.94 -8.4349 -2.47671 0
M  V30 20744 O 2810.36 -8.92593 -2.65 0
M  V30 20745 O 2808.58 -7.7568 -1.19296 0
M  V30 20746 O 2808.62 -7.36886 -3.63805 0
M  V30 20747 C 2808.46 -7.95349 -4.982 0
M  V30 20748 C 2809 -6.94612 -5.98974 0
M  V30 20749 O 2807.94 -6.10347 -6.11815 0
M  V30 20750 C 2810.22 -6.11426 -5.62335 0
M  V30 20751 O 2810.96 -5.6162 -6.70584 0
M  V30 20752 C 2809.55 -5.04409 -4.73308 0
M  V30 20753 O 2810.35 -3.85992 -4.75183 0
M  V30 20754 C 2808.21 -4.8728 -5.41006 0
M  V30 20755 H 2808.24 -4.02333 -6.11157 0
M  V30 20756 H 2809.43 -5.39466 -3.69543 0
M  V30 20757 H 2810.91 -6.71916 -5.01943 0
M  V30 20758 H 2809.22 -7.4649 -6.93477 0
M  V30 20759 H 2809.03 -8.89416 -5.05237 0
M  V30 20760 H 2807.4 -8.14876 -5.18409 0
M  V30 20761 H 2810.04 -3.27957 -5.4317 0
M  V30 20762 P 2811.89 -5.75688 -6.64379 0
M  V30 20763 O 2813.32 -6.07627 -7.05504 0
M  V30 20764 O 2811.53 -5.88047 -5.19722 0
M  V30 20765 O 2811.57 -4.2322 -7.04443 0
M  V30 20766 C 2811.41 -3.99743 -8.4911 0
M  V30 20767 C 2811.95 -2.60516 -8.79425 0
M  V30 20768 O 2810.89 -1.82684 -8.4467 0
M  V30 20769 C 2813.17 -2.10343 -8.03628 0
M  V30 20770 O 2813.91 -1.09919 -8.67766 0
M  V30 20771 C 2812.5 -1.68446 -6.70876 0
M  V30 20772 O 2813.3 -0.678137 -6.08433 0
M  V30 20773 C 2811.16 -1.17436 -7.18567 0
M  V30 20774 H 2811.19 -0.0804732 -7.31656 0
M  V30 20775 H 2812.38 -2.54037 -6.02537 0
M  V30 20776 H 2813.86 -2.93881 -7.85526 0
M  V30 20777 H 2812.17 -2.53065 -9.86973 0
M  V30 20778 H 2811.98 -4.75072 -9.05887 0
M  V30 20779 H 2810.35 -4.05244 -8.76668 0
M  V30 20780 H 2812.99 0.177647 -6.34251 0
M  V30 20781 P 2814.84 -1.25109 -8.70152 0
M  V30 20782 O 2816.27 -1.29744 -9.22016 0
M  V30 20783 O 2814.48 -2.13714 -7.55141 0
M  V30 20784 O 2814.52 0.248149 -8.21425 0
M  V30 20785 C 2814.36 1.22779 -9.30434 0
M  V30 20786 C 2814.9 2.56293 -8.80664 0
M  V30 20787 O 2813.84 3.02979 -8.09349 0
M  V30 20788 C 2816.12 2.57523 -7.89775 0
M  V30 20789 O 2816.86 3.7668 -7.89438 0
M  V30 20790 C 2815.45 2.20997 -6.55446 0
M  V30 20791 O 2816.25 2.71895 -5.48509 0
M  V30 20792 C 2814.11 2.89693 -6.67988 0
M  V30 20793 H 2814.14 3.88793 -6.19859 0
M  V30 20794 H 2815.33 1.12046 -6.44229 0
M  V30 20795 H 2816.81 1.7746 -8.19711 0
M  V30 20796 H 2815.12 3.20706 -9.67112 0
M  V30 20797 H 2814.93 0.901032 -10.1892 0
M  V30 20798 H 2813.3 1.33049 -9.56592 0
M  V30 20799 H 2815.94 3.57847 -5.23962 0
M  V30 20800 P 2817.79 3.65191 -7.99657 0
M  V30 20801 O 2819.22 3.89332 -8.45794 0
M  V30 20802 O 2817.43 2.28472 -7.50807 0
M  V30 20803 O 2817.47 4.64972 -6.77611 0
M  V30 20804 C 2817.31 6.06319 -7.16352 0
M  V30 20805 C 2817.85 6.91731 -6.02299 0
M  V30 20806 O 2816.8 6.92449 -5.17064 0
M  V30 20807 C 2819.07 6.43627 -5.25174 0
M  V30 20808 O 2819.81 7.43686 -4.60469 0
M  V30 20809 C 2818.4 5.40275 -4.31916 0
M  V30 20810 O 2819.2 5.25279 -3.14438 0
M  V30 20811 C 2817.06 6.04847 -4.05327 0
M  V30 20812 H 2817.1 6.62195 -3.11261 0
M  V30 20813 H 2818.28 4.42556 -4.81383 0
M  V30 20814 H 2819.76 5.92458 -5.93643 0
M  V30 20815 H 2818.07 7.92655 -6.402 0
M  V30 20816 H 2817.88 6.26671 -8.0846 0
M  V30 20817 H 2816.25 6.29101 -7.32804 0
M  V30 20818 H 2818.89 5.84315 -2.47318 0
M  V30 20819 P 2820.74 7.39546 -4.75277 0
M  V30 20820 O 2822.17 7.84798 -5.01039 0
M  V30 20821 O 2820.38 5.9812 -5.08098 0
M  V30 20822 O 2820.42 7.57503 -3.1866 0
M  V30 20823 C 2820.26 8.97357 -2.74833 0
M  V30 20824 C 2820.8 9.07548 -1.32709 0
M  V30 20825 O 2819.75 8.62072 -0.606159 0
M  V30 20826 C 2822.02 8.25383 -0.938334 0
M  V30 20827 O 2822.76 8.74577 0.146954 0
M  V30 20828 C 2821.35 6.8802 -0.712559 0
M  V30 20829 O 2822.15 6.1189 0.194655 0
M  V30 20830 C 2820.01 7.27966 -0.139777 0
M  V30 20831 H 2820.05 7.25354 0.961601 0
M  V30 20832 H 2821.23 6.32557 -1.65702 0
M  V30 20833 H 2822.71 8.19355 -1.79097 0
M  V30 20834 H 2821.02 10.1294 -1.10029 0
M  V30 20835 H 2820.83 9.64276 -3.41316 0
M  V30 20836 H 2819.2 9.25417 -2.76357 0
M  V30 20837 H 2821.84 6.25267 1.07847 0
M  V30 20838 P 2823.7 8.791 -5.49675e-12 0
M  V30 20839 O 2825.12 9.31296 0.027939 0
M  V30 20840 O 2823.34 7.77869 -1.04071 0
M  V30 20841 O 2823.37 8.09533 1.41463 0
M  V30 20842 C 2823.21 9.0349 2.53943 0
M  V30 20843 C 2823.75 8.35135 3.78975 0
M  V30 20844 O 2822.7 7.57992 4.15078 0
M  V30 20845 C 2824.97 7.45087 3.67298 0
M  V30 20846 O 2825.71 7.27796 4.85194 0
M  V30 20847 C 2824.3 6.17323 3.12027 0
M  V30 20848 O 2825.1 5.04149 3.47132 0
M  V30 20849 C 2822.96 6.19961 3.81809 0
M  V30 20850 N 2821.92 5.71575 2.93223 0
M  V30 20851 C 2821.98 5.97133 1.62693 0
M  V30 20852 N 2820.94 5.44066 0.984414 0
M  V30 20853 C 2820.2 4.87093 1.93987 0
M  V30 20854 C 2818.9 4.26449 1.8738 0
M  V30 20855 O 2818.17 4.1089 0.884377 0
M  V30 20856 N 2818.47 3.82483 3.08036 0
M  V30 20857 C 2819.22 3.95124 4.27727 0
M  V30 20858 N 2818.62 3.4084 5.39089 0
M  V30 20859 N 2820.37 4.55264 4.3706 0
M  V30 20860 C 2820.83 5.00861 3.18217 0
M  V30 20861 H 2823 5.58218 4.73051 0
M  V30 20862 H 2824.18 6.21631 2.02558 0
M  V30 20863 H 2825.66 7.85819 2.93096 0
M  V30 20864 H 2823.97 9.11627 4.55076 0
M  V30 20865 H 2823.78 9.9573 2.34194 0
M  V30 20866 H 2822.15 9.2792 2.67832 0
M  V30 20867 H 2817.57 3.38323 3.1329 0
M  V30 20868 H 2822.78 6.53891 1.14265 0
M  V30 20869 H 2817.71 2.93852 5.30559 0
M  V30 20870 H 2819.09 3.47631 6.30632 0
M  V30 20871 H 2824.79 4.67628 4.28704 0
M  V30 20872 P 2826.65 7.39546 4.75277 0
M  V30 20873 O 2828.07 7.81777 5.05738 0
M  V30 20874 O 2826.29 7.1065 3.32998 0
M  V30 20875 O 2826.32 6.04542 5.56673 0
M  V30 20876 C 2826.16 6.22772 7.02095 0
M  V30 20877 C 2826.7 4.97725 7.70406 0
M  V30 20878 O 2825.65 4.13256 7.58987 0
M  V30 20879 C 2827.92 4.28231 7.11815 0
M  V30 20880 O 2828.66 3.49945 8.01648 0
M  V30 20881 C 2827.25 3.5063 5.96244 0
M  V30 20882 O 2828.05 2.36482 5.64681 0
M  V30 20883 C 2825.92 3.15122 6.56374 0
M  V30 20884 H 2825.95 2.13853 6.99751 0
M  V30 20885 H 2827.13 4.13501 5.06559 0
M  V30 20886 H 2828.61 5.03285 6.70911 0
M  V30 20887 H 2826.92 5.20877 8.75697 0
M  V30 20888 H 2826.73 7.11046 7.35349 0
M  V30 20889 H 2825.1 6.35815 7.26986 0
M  V30 20890 H 2827.74 1.61644 6.13565 0
M  V30 20891 P 2829.6 3.65191 7.99657 0
M  V30 20892 O 2831.02 3.8425 8.48115 0
M  V30 20893 O 2829.24 4.17805 6.64342 0
M  V30 20894 O 2829.27 2.07613 7.95143 0
M  V30 20895 C 2829.11 1.44328 9.27336 0
M  V30 20896 C 2829.65 0.0220036 9.17197 0
M  V30 20897 O 2828.6 -0.626867 8.61923 0
M  V30 20898 C 2830.87 -0.24586 8.30336 0
M  V30 20899 O 2831.61 -1.39011 8.63583 0
M  V30 20900 C 2830.2 -0.273849 6.91158 0
M  V30 20901 O 2831 -1.06348 6.02892 0
M  V30 20902 C 2828.87 -0.897649 7.22545 0
M  V30 20903 H 2828.9 -1.9841 7.04286 0
M  V30 20904 H 2830.08 0.739928 6.497 0
M  V30 20905 H 2831.56 0.60668 8.36503 0
M  V30 20906 H 2829.87 -0.352479 10.1829 0
M  V30 20907 H 2829.68 2.00611 10.0304 0
M  V30 20908 H 2828.05 1.41843 9.55327 0
M  V30 20909 H 2830.69 -1.95734 6.03555 0
M  V30 20910 P 2832.55 -1.25109 8.70152 0
M  V30 20911 O 2833.97 -1.35274 9.21221 0
M  V30 20912 O 2832.19 -0.0769065 7.84762 0
M  V30 20913 O 2832.22 -2.55232 7.81161 0
M  V30 20914 C 2832.06 -3.79939 8.58154 0
M  V30 20915 C 2832.6 -4.94023 7.72785 0
M  V30 20916 O 2831.55 -5.18726 6.91205 0
M  V30 20917 C 2833.82 -4.69597 6.85231 0
M  V30 20918 O 2834.56 -5.83832 6.51337 0
M  V30 20919 C 2833.15 -3.96706 5.66633 0
M  V30 20920 O 2833.95 -4.15414 4.49689 0
M  V30 20921 C 2831.82 -4.66153 5.59313 0
M  V30 20922 H 2831.85 -5.47679 4.85214 0
M  V30 20923 H 2833.03 -2.89008 5.86566 0
M  V30 20924 H 2834.52 -4.0121 7.36511 0
M  V30 20925 H 2832.82 -5.80182 8.37584 0
M  V30 20926 H 2832.63 -3.73517 9.52265 0
M  V30 20927 H 2831 -3.97163 8.80359 0
M  V30 20928 H 2833.64 -4.90969 4.01921 0
M  V30 20929 P 2835.5 -5.75688 6.64379 0
M  V30 20930 O 2836.92 -6.11849 7.01846 0
M  V30 20931 O 2835.14 -4.30744 6.56026 0
M  V30 20932 O 2835.17 -6.37042 5.19165 0
M  V30 20933 C 2835.01 -7.83578 5.16515 0
M  V30 20934 C 2835.55 -8.33398 3.83019 0
M  V30 20935 O 2834.5 -8.10074 3.01034 0
M  V30 20936 C 2836.77 -7.65514 3.2257 0
M  V30 20937 O 2837.51 -8.4329 2.32297 0
M  V30 20938 C 2836.1 -6.40075 2.62207 0
M  V30 20939 O 2836.9 -5.92589 1.53712 0
M  V30 20940 C 2834.77 -6.9454 2.18503 0
M  V30 20941 H 2834.8 -7.23063 1.12091 0
M  V30 20942 H 2835.98 -5.6025 3.37201 0
M  V30 20943 H 2837.47 -7.35707 4.02681 0
M  V30 20944 H 2835.77 -9.40912 3.9095 0
M  V30 20945 H 2835.58 -8.29056 5.99158 0
M  V30 20946 H 2833.95 -8.10073 5.25882 0
M  V30 20947 H 2836.59 -6.30324 0.726794 0
M  V30 20948 P 2838.45 -8.4349 2.47671 0
M  V30 20949 O 2839.87 -8.94167 2.5964 0
M  V30 20950 O 2838.09 -7.1704 3.19006 0
M  V30 20951 O 2838.13 -8.16596 0.923387 0
M  V30 20952 C 2837.97 -9.38437 0.108857 0
M  V30 20953 C 2838.51 -9.08175 -1.28353 0
M  V30 20954 O 2837.45 -8.44229 -1.84713 0
M  V30 20955 C 2839.72 -8.18386 -1.42505 0
M  V30 20956 O 2840.46 -8.3501 -2.60497 0
M  V30 20957 C 2839.05 -6.80225 -1.25468 0
M  V30 20958 O 2839.85 -5.81621 -1.91066 0
M  V30 20959 C 2837.72 -7.02416 -1.9168 0
M  V30 20960 H 2837.75 -6.6888 -2.96621 0
M  V30 20961 H 2838.93 -6.53617 -0.192223 0
M  V30 20962 H 2840.42 -8.36622 -0.589963 0
M  V30 20963 H 2838.72 -10.0291 -1.79807 0
M  V30 20964 H 2838.53 -10.2138 0.558219 0
M  V30 20965 H 2836.9 -9.6579 0.0444202 0
M  V30 20966 H 2839.54 -5.69556 -2.79637 0
M  V30 20967 P 2841.4 -8.4349 -2.47671 0
M  V30 20968 O 2842.82 -8.92593 -2.65 0
M  V30 20969 O 2841.04 -7.7568 -1.19296 0
M  V30 20970 O 2841.08 -7.36886 -3.63805 0
M  V30 20971 C 2840.92 -7.95349 -4.982 0
M  V30 20972 C 2841.46 -6.94612 -5.98974 0
M  V30 20973 O 2840.4 -6.10347 -6.11815 0
M  V30 20974 C 2842.67 -6.11426 -5.62335 0
M  V30 20975 O 2843.41 -5.6162 -6.70584 0
M  V30 20976 C 2842 -5.04409 -4.73308 0
M  V30 20977 O 2842.8 -3.85992 -4.75183 0
M  V30 20978 C 2840.67 -4.8728 -5.41006 0
M  V30 20979 H 2840.7 -4.02333 -6.11157 0
M  V30 20980 H 2841.88 -5.39466 -3.69543 0
M  V30 20981 H 2843.37 -6.71916 -5.01943 0
M  V30 20982 H 2841.67 -7.4649 -6.93477 0
M  V30 20983 H 2841.48 -8.89416 -5.05237 0
M  V30 20984 H 2839.85 -8.14876 -5.18409 0
M  V30 20985 H 2842.49 -3.27957 -5.4317 0
M  V30 20986 P 2844.35 -5.75688 -6.64379 0
M  V30 20987 O 2845.77 -6.07627 -7.05504 0
M  V30 20988 O 2843.99 -5.88047 -5.19722 0
M  V30 20989 O 2844.03 -4.2322 -7.04443 0
M  V30 20990 C 2843.87 -3.99743 -8.4911 0
M  V30 20991 C 2844.41 -2.60516 -8.79425 0
M  V30 20992 O 2843.35 -1.82684 -8.4467 0
M  V30 20993 C 2845.62 -2.10343 -8.03628 0
M  V30 20994 O 2846.36 -1.09919 -8.67766 0
M  V30 20995 C 2844.96 -1.68446 -6.70876 0
M  V30 20996 O 2845.75 -0.678137 -6.08433 0
M  V30 20997 C 2843.62 -1.17436 -7.18567 0
M  V30 20998 H 2843.65 -0.0804732 -7.31656 0
M  V30 20999 H 2844.83 -2.54037 -6.02537 0
M  V30 21000 H 2846.32 -2.93881 -7.85526 0
M  V30 21001 H 2844.62 -2.53065 -9.86973 0
M  V30 21002 H 2844.43 -4.75072 -9.05887 0
M  V30 21003 H 2842.8 -4.05244 -8.76668 0
M  V30 21004 H 2845.44 0.177647 -6.34251 0
M  V30 21005 P 2847.3 -1.25109 -8.70152 0
M  V30 21006 O 2848.72 -1.29772 -9.22214 0
M  V30 21007 O 2846.94 -2.13714 -7.55141 0
M  V30 21008 O 2846.98 0.248149 -8.21425 0
M  V30 21009 C 2846.82 1.22779 -9.30434 0
M  V30 21010 C 2847.36 2.56265 -8.80568 0
M  V30 21011 O 2846.3 3.02979 -8.09349 0
M  V30 21012 C 2848.58 2.57523 -7.89775 0
M  V30 21013 O 2849.31 3.7668 -7.89438 0
M  V30 21014 C 2847.91 2.20997 -6.55446 0
M  V30 21015 O 2848.71 2.71851 -5.48419 0
M  V30 21016 C 2846.57 2.89693 -6.67988 0
M  V30 21017 N 2845.53 2.08895 -6.07487 0
M  V30 21018 C 2845.59 0.760559 -6.14209 0
M  V30 21019 N 2844.54 0.200108 -5.52538 0
M  V30 21020 C 2843.81 1.22692 -5.09742 0
M  V30 21021 C 2842.5 1.24782 -4.48775 0
M  V30 21022 O 2841.77 0.290617 -4.19294 0
M  V30 21023 N 2842.07 2.50468 -4.22428 0
M  V30 21024 C 2842.82 3.67142 -4.51974 0
M  V30 21025 N 2842.23 4.85096 -4.14091 0
M  V30 21026 N 2843.98 3.67821 -5.12831 0
M  V30 21027 C 2844.43 2.43698 -5.4105 0
M  V30 21028 H 2846.6 3.88793 -6.19859 0
M  V30 21029 H 2847.78 1.12029 -6.4413 0
M  V30 21030 H 2849.27 1.78279 -8.19533 0
M  V30 21031 H 2847.57 3.20706 -9.67112 0
M  V30 21032 H 2847.38 0.901032 -10.1892 0
M  V30 21033 H 2845.75 1.33049 -9.56592 0
M  V30 21034 H 2841.18 2.61953 -3.79465 0
M  V30 21035 H 2846.38 0.200439 -6.63497 0
M  V30 21036 H 2841.31 4.8334 -3.66367 0
M  V30 21037 H 2842.69 5.7474 -4.33841 0
M  V30 21038 H 2848.39 3.5779 -5.23879 0
M  V30 21039 P 2850.25 3.65191 -7.99657 0
M  V30 21040 O 2851.67 3.89416 -8.45976 0
M  V30 21041 O 2849.89 2.28472 -7.50807 0
M  V30 21042 O 2849.93 4.64972 -6.77611 0
M  V30 21043 C 2849.77 6.06319 -7.16352 0
M  V30 21044 C 2850.31 6.91655 -6.02234 0
M  V30 21045 O 2849.25 6.92449 -5.17064 0
M  V30 21046 C 2851.53 6.43627 -5.25174 0
M  V30 21047 O 2852.26 7.43686 -4.60469 0
M  V30 21048 C 2850.86 5.40275 -4.31916 0
M  V30 21049 O 2851.66 5.25193 -3.14386 0
M  V30 21050 C 2849.52 6.04847 -4.05327 0
M  V30 21051 N 2848.48 5.04166 -3.98114 0
M  V30 21052 C 2848.54 3.96049 -4.75587 0
M  V30 21053 N 2847.49 3.15559 -4.54006 0
M  V30 21054 C 2846.76 3.78802 -3.62491 0
M  V30 21055 C 2845.45 3.476 -3.10071 0
M  V30 21056 O 2844.72 2.51136 -3.37021 0
M  V30 21057 N 2845.02 4.39088 -2.19956 0
M  V30 21058 C 2845.77 5.53215 -1.81733 0
M  V30 21059 N 2845.18 6.31963 -0.860928 0
M  V30 21060 N 2846.93 5.86688 -2.32562 0
M  V30 21061 C 2847.38 4.97525 -3.23407 0
M  V30 21062 H 2849.55 6.62195 -3.11261 0
M  V30 21063 H 2850.73 4.42488 -4.8131 0
M  V30 21064 H 2852.22 5.93051 -5.9305 0
M  V30 21065 H 2850.52 7.92655 -6.402 0
M  V30 21066 H 2850.33 6.26671 -8.0846 0
M  V30 21067 H 2848.7 6.29101 -7.32804 0
M  V30 21068 H 2844.13 4.25523 -1.77604 0
M  V30 21069 H 2849.33 3.75576 -5.47333 0
M  V30 21070 H 2844.26 6.04684 -0.468946 0
M  V30 21071 H 2845.64 7.18054 -0.542422 0
M  V30 21072 H 2851.34 5.84223 -2.47279 0
M  V30 21073 P 2853.2 7.39546 -4.75277 0
M  V30 21074 O 2854.62 7.84798 -5.01039 0
M  V30 21075 O 2852.84 5.9812 -5.08098 0
M  V30 21076 O 2852.88 7.57503 -3.1866 0
M  V30 21077 C 2852.72 8.97357 -2.74833 0
M  V30 21078 C 2853.26 9.07548 -1.32709 0
M  V30 21079 O 2852.2 8.62072 -0.606159 0
M  V30 21080 C 2854.48 8.25383 -0.938334 0
M  V30 21081 O 2855.21 8.74577 0.146954 0
M  V30 21082 C 2853.81 6.8802 -0.712559 0
M  V30 21083 O 2854.61 6.1189 0.194655 0
M  V30 21084 C 2852.47 7.27966 -0.139777 0
M  V30 21085 H 2852.5 7.25354 0.961601 0
M  V30 21086 H 2853.69 6.32557 -1.65702 0
M  V30 21087 H 2855.17 8.19355 -1.79097 0
M  V30 21088 H 2853.48 10.1294 -1.10029 0
M  V30 21089 H 2853.29 9.64276 -3.41316 0
M  V30 21090 H 2851.66 9.25417 -2.76357 0
M  V30 21091 H 2854.29 6.25267 1.07847 0
M  V30 21092 P 2856.15 8.791 -1.06834e-11 0
M  V30 21093 O 2857.57 9.31096 0.027933 0
M  V30 21094 O 2855.79 7.77869 -1.04071 0
M  V30 21095 O 2855.83 8.09533 1.41463 0
M  V30 21096 C 2855.67 9.0349 2.53943 0
M  V30 21097 C 2856.21 8.35226 3.79016 0
M  V30 21098 O 2855.15 7.57992 4.15078 0
M  V30 21099 C 2857.43 7.45087 3.67298 0
M  V30 21100 O 2858.16 7.27796 4.85194 0
M  V30 21101 C 2856.76 6.17323 3.12027 0
M  V30 21102 O 2857.56 5.04231 3.47188 0
M  V30 21103 C 2855.42 6.19961 3.81809 0
M  V30 21104 H 2855.45 5.58218 4.73051 0
M  V30 21105 H 2856.64 6.21726 2.02589 0
M  V30 21106 H 2858.12 7.86112 2.9231 0
M  V30 21107 H 2856.43 9.11627 4.55076 0
M  V30 21108 H 2856.24 9.9573 2.34194 0
M  V30 21109 H 2854.61 9.2792 2.67832 0
M  V30 21110 H 2857.24 4.67702 4.28772 0
M  V30 21111 P 2859.1 7.39546 4.75277 0
M  V30 21112 O 2860.52 7.81861 5.05793 0
M  V30 21113 O 2858.74 7.1065 3.32998 0
M  V30 21114 O 2858.78 6.04542 5.56673 0
M  V30 21115 C 2858.62 6.22839 7.02169 0
M  V30 21116 C 2859.16 4.97725 7.70406 0
M  V30 21117 O 2858.1 4.13208 7.58899 0
M  V30 21118 C 2860.38 4.28231 7.11815 0
M  V30 21119 O 2861.12 3.49945 8.01648 0
M  V30 21120 C 2859.71 3.5063 5.96244 0
M  V30 21121 O 2860.51 2.37008 5.64352 0
M  V30 21122 C 2858.37 3.15122 6.56374 0
M  V30 21123 N 2857.33 3.22311 5.55692 0
M  V30 21124 C 2857.5 3.99655 4.46046 0
M  V30 21125 N 2856.47 3.97599 3.63918 0
M  V30 21126 C 2855.59 3.11159 4.25334 0
M  V30 21127 C 2854.32 2.64972 3.85157 0
M  V30 21128 N 2853.75 1.78482 4.74759 0
M  V30 21129 C 2854.36 1.37463 5.90819 0
M  V30 21130 N 2855.53 1.7733 6.31889 0
M  V30 21131 C 2856.11 2.64393 5.43725 0
M  V30 21132 H 2859.59 4.12931 5.06895 0
M  V30 21133 H 2861.07 5.03285 6.70911 0
M  V30 21134 H 2859.38 5.20001 8.76217 0
M  V30 21135 H 2859.19 7.11046 7.35349 0
M  V30 21136 H 2857.56 6.35815 7.26986 0
M  V30 21137 H 2858.4 4.58037 4.27732 0
M  V30 21138 H 2860.2 1.61619 6.13468 0
M  V30 21139 P 2862.05 3.65191 7.99657 0
M  V30 21140 O 2863.47 3.8425 8.48115 0
M  V30 21141 O 2861.69 4.17805 6.64342 0
M  V30 21142 O 2861.73 2.07613 7.95143 0
M  V30 21143 C 2861.57 1.44328 9.27336 0
M  V30 21144 C 2862.11 0.0220036 9.17197 0
M  V30 21145 O 2861.05 -0.626867 8.61923 0
M  V30 21146 C 2863.33 -0.24586 8.30336 0
M  V30 21147 O 2864.07 -1.39011 8.63583 0
M  V30 21148 C 2862.66 -0.273849 6.91158 0
M  V30 21149 O 2863.46 -1.06348 6.02892 0
M  V30 21150 C 2861.32 -0.897649 7.22545 0
M  V30 21151 H 2861.35 -1.9841 7.04286 0
M  V30 21152 H 2862.54 0.739928 6.497 0
M  V30 21153 H 2864.02 0.60668 8.36503 0
M  V30 21154 H 2862.33 -0.352479 10.1829 0
M  V30 21155 H 2862.14 2.00611 10.0304 0
M  V30 21156 H 2860.51 1.41843 9.55327 0
M  V30 21157 H 2863.15 -1.95734 6.03555 0
M  V30 21158 P 2865 -1.25109 8.70152 0
M  V30 21159 O 2866.43 -1.35274 9.21221 0
M  V30 21160 O 2864.64 -0.0769065 7.84762 0
M  V30 21161 O 2864.68 -2.55232 7.81161 0
M  V30 21162 C 2864.52 -3.79939 8.58154 0
M  V30 21163 C 2865.06 -4.94023 7.72785 0
M  V30 21164 O 2864 -5.18726 6.91205 0
M  V30 21165 C 2866.28 -4.69597 6.85231 0
M  V30 21166 O 2867.02 -5.83832 6.51337 0
M  V30 21167 C 2865.61 -3.96706 5.66633 0
M  V30 21168 O 2866.41 -4.15414 4.49689 0
M  V30 21169 C 2864.27 -4.66153 5.59313 0
M  V30 21170 H 2864.3 -5.47679 4.85214 0
M  V30 21171 H 2865.49 -2.89008 5.86566 0
M  V30 21172 H 2866.97 -4.0121 7.36511 0
M  V30 21173 H 2865.28 -5.80182 8.37584 0
M  V30 21174 H 2865.09 -3.73517 9.52265 0
M  V30 21175 H 2863.46 -3.97163 8.80359 0
M  V30 21176 H 2866.1 -4.90969 4.01921 0
M  V30 21177 P 2867.95 -5.75688 6.64379 0
M  V30 21178 O 2869.38 -6.11849 7.01846 0
M  V30 21179 O 2867.59 -4.30744 6.56026 0
M  V30 21180 O 2867.63 -6.37042 5.19165 0
M  V30 21181 C 2867.47 -7.83578 5.16515 0
M  V30 21182 C 2868.01 -8.33398 3.83019 0
M  V30 21183 O 2866.96 -8.10074 3.01034 0
M  V30 21184 C 2869.23 -7.65514 3.2257 0
M  V30 21185 O 2869.97 -8.4329 2.32297 0
M  V30 21186 C 2868.56 -6.40075 2.62207 0
M  V30 21187 O 2869.36 -5.92589 1.53712 0
M  V30 21188 C 2867.22 -6.9454 2.18503 0
M  V30 21189 H 2867.26 -7.23063 1.12091 0
M  V30 21190 H 2868.44 -5.6025 3.37201 0
M  V30 21191 H 2869.92 -7.35707 4.02681 0
M  V30 21192 H 2868.23 -9.40912 3.9095 0
M  V30 21193 H 2868.04 -8.29056 5.99158 0
M  V30 21194 H 2866.41 -8.10073 5.25882 0
M  V30 21195 H 2869.05 -6.30324 0.726794 0
M  V30 21196 P 2870.9 -8.4349 2.47671 0
M  V30 21197 O 2872.33 -8.94167 2.5964 0
M  V30 21198 O 2870.54 -7.1704 3.19006 0
M  V30 21199 O 2870.58 -8.16596 0.923387 0
M  V30 21200 C 2870.42 -9.38437 0.108857 0
M  V30 21201 C 2870.96 -9.08175 -1.28353 0
M  V30 21202 O 2869.91 -8.44229 -1.84713 0
M  V30 21203 C 2872.18 -8.18386 -1.42505 0
M  V30 21204 O 2872.92 -8.3501 -2.60497 0
M  V30 21205 C 2871.51 -6.80225 -1.25468 0
M  V30 21206 O 2872.31 -5.81621 -1.91066 0
M  V30 21207 C 2870.17 -7.02416 -1.9168 0
M  V30 21208 H 2870.21 -6.6888 -2.96621 0
M  V30 21209 H 2871.39 -6.53617 -0.192223 0
M  V30 21210 H 2872.87 -8.36622 -0.589963 0
M  V30 21211 H 2871.18 -10.0291 -1.79807 0
M  V30 21212 H 2870.99 -10.2138 0.558219 0
M  V30 21213 H 2869.36 -9.6579 0.0444202 0
M  V30 21214 H 2872 -5.69556 -2.79637 0
M  V30 21215 P 2873.86 -8.4349 -2.47671 0
M  V30 21216 O 2875.26 -8.99283 -2.62101 0
M  V30 21217 O 2873.48 -7.81195 -1.16947 0
M  V30 21218 O 2873.53 -7.36797 -3.63761 0
M  V30 21219 C 2873.37 -7.95349 -4.982 0
M  V30 21220 C 2873.91 -6.94537 -5.98908 0
M  V30 21221 O 2872.86 -6.10277 -6.11744 0
M  V30 21222 C 2875.13 -6.11426 -5.62335 0
M  V30 21223 O 2875.87 -5.6162 -6.70584 0
M  V30 21224 C 2874.46 -5.04409 -4.73308 0
M  V30 21225 O 2875.26 -3.85929 -4.75106 0
M  V30 21226 C 2873.12 -4.8728 -5.41006 0
M  V30 21227 N 2872.08 -4.65812 -4.42377 0
M  V30 21228 C 2871.05 -3.81293 -4.74224 0
M  V30 21229 O 2871.09 -3.20533 -5.83679 0
M  V30 21230 N 2870.03 -3.6442 -3.86349 0
M  V30 21231 C 2870.08 -4.2728 -2.6824 0
M  V30 21232 C 2871.18 -5.10813 -2.3217 0
M  V30 21233 C 2872.14 -5.27909 -3.22647 0
M  V30 21234 H 2873.16 -4.02278 -6.11074 0
M  V30 21235 H 2874.34 -5.39013 -3.70026 0
M  V30 21236 H 2875.82 -6.71494 -5.02675 0
M  V30 21237 H 2874.13 -7.45796 -6.94223 0
M  V30 21238 H 2873.94 -8.89416 -5.05237 0
M  V30 21239 H 2872.31 -8.14791 -5.18355 0
M  V30 21240 H 2871.23 -5.58884 -1.34755 0
M  V30 21241 H 2872.99 -5.92811 -2.9934 0
M  V30 21242 H 2875.04 -3.3454 -5.51577 0
M  V30 21243 P 2876.81 -5.75688 -6.64379 0
M  V30 21244 O 2878.23 -6.07627 -7.05504 0
M  V30 21245 O 2876.45 -5.88047 -5.19722 0
M  V30 21246 O 2876.48 -4.2322 -7.04443 0
M  V30 21247 C 2876.32 -3.99743 -8.4911 0
M  V30 21248 C 2876.86 -2.60516 -8.79425 0
M  V30 21249 O 2875.81 -1.82684 -8.4467 0
M  V30 21250 C 2878.08 -2.10343 -8.03628 0
M  V30 21251 O 2878.82 -1.09919 -8.67766 0
M  V30 21252 C 2877.41 -1.68446 -6.70876 0
M  V30 21253 O 2878.21 -0.678137 -6.08433 0
M  V30 21254 C 2876.07 -1.17436 -7.18567 0
M  V30 21255 H 2876.11 -0.0804732 -7.31656 0
M  V30 21256 H 2877.29 -2.54037 -6.02537 0
M  V30 21257 H 2878.77 -2.93881 -7.85526 0
M  V30 21258 H 2877.08 -2.53065 -9.86973 0
M  V30 21259 H 2876.89 -4.75072 -9.05887 0
M  V30 21260 H 2875.26 -4.05244 -8.76668 0
M  V30 21261 H 2877.9 0.177647 -6.34251 0
M  V30 21262 P 2879.76 -1.25109 -8.70152 0
M  V30 21263 O 2881.18 -1.29744 -9.22016 0
M  V30 21264 O 2879.4 -2.13714 -7.55141 0
M  V30 21265 O 2879.43 0.248149 -8.21425 0
M  V30 21266 C 2879.27 1.22779 -9.30434 0
M  V30 21267 C 2879.81 2.56293 -8.80664 0
M  V30 21268 O 2878.76 3.02979 -8.09349 0
M  V30 21269 C 2881.03 2.57523 -7.89775 0
M  V30 21270 O 2881.77 3.7668 -7.89438 0
M  V30 21271 C 2880.36 2.20997 -6.55446 0
M  V30 21272 O 2881.16 2.71895 -5.48509 0
M  V30 21273 C 2879.03 2.89693 -6.67988 0
M  V30 21274 H 2879.06 3.88793 -6.19859 0
M  V30 21275 H 2880.24 1.12046 -6.44229 0
M  V30 21276 H 2881.72 1.7746 -8.19711 0
M  V30 21277 H 2880.03 3.20706 -9.67112 0
M  V30 21278 H 2879.84 0.901032 -10.1892 0
M  V30 21279 H 2878.21 1.33049 -9.56592 0
M  V30 21280 H 2880.85 3.57847 -5.23962 0
M  V30 21281 P 2882.71 3.65191 -7.99657 0
M  V30 21282 O 2884.13 3.89332 -8.45794 0
M  V30 21283 O 2882.35 2.28472 -7.50807 0
M  V30 21284 O 2882.38 4.64972 -6.77611 0
M  V30 21285 C 2882.22 6.06319 -7.16352 0
M  V30 21286 C 2882.76 6.91731 -6.02299 0
M  V30 21287 O 2881.71 6.92449 -5.17064 0
M  V30 21288 C 2883.98 6.43627 -5.25174 0
M  V30 21289 O 2884.72 7.43686 -4.60469 0
M  V30 21290 C 2883.31 5.40275 -4.31916 0
M  V30 21291 O 2884.11 5.25279 -3.14438 0
M  V30 21292 C 2881.98 6.04847 -4.05327 0
M  V30 21293 H 2882.01 6.62195 -3.11261 0
M  V30 21294 H 2883.19 4.42556 -4.81383 0
M  V30 21295 H 2884.67 5.92458 -5.93643 0
M  V30 21296 H 2882.98 7.92655 -6.402 0
M  V30 21297 H 2882.79 6.26671 -8.0846 0
M  V30 21298 H 2881.16 6.29101 -7.32804 0
M  V30 21299 H 2883.8 5.84315 -2.47318 0
M  V30 21300 P 2885.66 7.39546 -4.75277 0
M  V30 21301 O 2887.08 7.84798 -5.01039 0
M  V30 21302 O 2885.3 5.9812 -5.08098 0
M  V30 21303 O 2885.33 7.57503 -3.1866 0
M  V30 21304 C 2885.17 8.97357 -2.74833 0
M  V30 21305 C 2885.71 9.07548 -1.32709 0
M  V30 21306 O 2884.66 8.62072 -0.606159 0
M  V30 21307 C 2886.93 8.25383 -0.938334 0
M  V30 21308 O 2887.67 8.74577 0.146954 0
M  V30 21309 C 2886.26 6.8802 -0.712559 0
M  V30 21310 O 2887.06 6.1189 0.194655 0
M  V30 21311 C 2884.93 7.27966 -0.139777 0
M  V30 21312 H 2884.96 7.25354 0.961601 0
M  V30 21313 H 2886.14 6.32557 -1.65702 0
M  V30 21314 H 2887.63 8.19355 -1.79097 0
M  V30 21315 H 2885.93 10.1294 -1.10029 0
M  V30 21316 H 2885.74 9.64276 -3.41316 0
M  V30 21317 H 2884.11 9.25417 -2.76357 0
M  V30 21318 H 2886.75 6.25267 1.07847 0
M  V30 21319 P 2888.61 8.791 -1.587e-11 0
M  V30 21320 O 2890.03 9.31096 0.027933 0
M  V30 21321 O 2888.25 7.77869 -1.04071 0
M  V30 21322 O 2888.29 8.09533 1.41463 0
M  V30 21323 C 2888.13 9.0349 2.53943 0
M  V30 21324 C 2888.67 8.35226 3.79016 0
M  V30 21325 O 2887.61 7.57992 4.15078 0
M  V30 21326 C 2889.88 7.45087 3.67298 0
M  V30 21327 O 2890.62 7.27796 4.85194 0
M  V30 21328 C 2889.21 6.17323 3.12027 0
M  V30 21329 O 2890.01 5.04231 3.47188 0
M  V30 21330 C 2887.88 6.19961 3.81809 0
M  V30 21331 H 2887.91 5.58218 4.73051 0
M  V30 21332 H 2889.09 6.21726 2.02589 0
M  V30 21333 H 2890.58 7.86112 2.9231 0
M  V30 21334 H 2888.88 9.11627 4.55076 0
M  V30 21335 H 2888.69 9.9573 2.34194 0
M  V30 21336 H 2887.06 9.2792 2.67832 0
M  V30 21337 H 2889.7 4.67702 4.28772 0
M  V30 21338 P 2891.56 7.39546 4.75277 0
M  V30 21339 O 2892.98 7.81777 5.05738 0
M  V30 21340 O 2891.2 7.1065 3.32998 0
M  V30 21341 O 2891.24 6.04542 5.56673 0
M  V30 21342 C 2891.08 6.22772 7.02095 0
M  V30 21343 C 2891.62 4.97725 7.70406 0
M  V30 21344 O 2890.56 4.13256 7.58987 0
M  V30 21345 C 2892.83 4.28231 7.11815 0
M  V30 21346 O 2893.57 3.49945 8.01648 0
M  V30 21347 C 2892.16 3.5063 5.96244 0
M  V30 21348 O 2892.96 2.36482 5.64681 0
M  V30 21349 C 2890.83 3.15122 6.56374 0
M  V30 21350 H 2890.86 2.13853 6.99751 0
M  V30 21351 H 2892.04 4.13501 5.06559 0
M  V30 21352 H 2893.53 5.03285 6.70911 0
M  V30 21353 H 2891.83 5.20877 8.75697 0
M  V30 21354 H 2891.64 7.11046 7.35349 0
M  V30 21355 H 2890.01 6.35815 7.26986 0
M  V30 21356 H 2892.65 1.61644 6.13565 0
M  V30 21357 P 2894.51 3.65191 7.99657 0
M  V30 21358 O 2895.93 3.8425 8.48115 0
M  V30 21359 O 2894.15 4.17805 6.64342 0
M  V30 21360 O 2894.19 2.07613 7.95143 0
M  V30 21361 C 2894.03 1.44328 9.27336 0
M  V30 21362 C 2894.57 0.0220036 9.17197 0
M  V30 21363 O 2893.51 -0.626867 8.61923 0
M  V30 21364 C 2895.78 -0.24586 8.30336 0
M  V30 21365 O 2896.52 -1.39011 8.63583 0
M  V30 21366 C 2895.12 -0.273849 6.91158 0
M  V30 21367 O 2895.91 -1.06348 6.02892 0
M  V30 21368 C 2893.78 -0.897649 7.22545 0
M  V30 21369 H 2893.81 -1.9841 7.04286 0
M  V30 21370 H 2894.99 0.739928 6.497 0
M  V30 21371 H 2896.48 0.60668 8.36503 0
M  V30 21372 H 2894.78 -0.352479 10.1829 0
M  V30 21373 H 2894.59 2.00611 10.0304 0
M  V30 21374 H 2892.96 1.41843 9.55327 0
M  V30 21375 H 2895.6 -1.95734 6.03555 0
M  V30 21376 P 2897.46 -1.25109 8.70152 0
M  V30 21377 O 2898.88 -1.35274 9.21221 0
M  V30 21378 O 2897.1 -0.0769065 7.84762 0
M  V30 21379 O 2897.14 -2.55232 7.81161 0
M  V30 21380 C 2896.98 -3.79939 8.58154 0
M  V30 21381 C 2897.52 -4.94023 7.72785 0
M  V30 21382 O 2896.46 -5.18726 6.91205 0
M  V30 21383 C 2898.73 -4.69597 6.85231 0
M  V30 21384 O 2899.47 -5.83832 6.51337 0
M  V30 21385 C 2898.07 -3.96706 5.66633 0
M  V30 21386 O 2898.86 -4.15414 4.49689 0
M  V30 21387 C 2896.73 -4.66153 5.59313 0
M  V30 21388 H 2896.76 -5.47679 4.85214 0
M  V30 21389 H 2897.94 -2.89008 5.86566 0
M  V30 21390 H 2899.43 -4.0121 7.36511 0
M  V30 21391 H 2897.73 -5.80182 8.37584 0
M  V30 21392 H 2897.54 -3.73517 9.52265 0
M  V30 21393 H 2895.91 -3.97163 8.80359 0
M  V30 21394 H 2898.55 -4.90969 4.01921 0
M  V30 21395 P 2900.41 -5.75688 6.64379 0
M  V30 21396 O 2901.83 -6.11849 7.01846 0
M  V30 21397 O 2900.05 -4.30744 6.56026 0
M  V30 21398 O 2900.09 -6.37042 5.19165 0
M  V30 21399 C 2899.93 -7.83578 5.16515 0
M  V30 21400 C 2900.47 -8.33398 3.83019 0
M  V30 21401 O 2899.41 -8.10074 3.01034 0
M  V30 21402 C 2901.69 -7.65514 3.2257 0
M  V30 21403 O 2902.42 -8.4329 2.32297 0
M  V30 21404 C 2901.02 -6.40075 2.62207 0
M  V30 21405 O 2901.82 -5.92589 1.53712 0
M  V30 21406 C 2899.68 -6.9454 2.18503 0
M  V30 21407 H 2899.71 -7.23063 1.12091 0
M  V30 21408 H 2900.89 -5.6025 3.37201 0
M  V30 21409 H 2902.38 -7.35707 4.02681 0
M  V30 21410 H 2900.68 -9.40912 3.9095 0
M  V30 21411 H 2900.49 -8.29056 5.99158 0
M  V30 21412 H 2898.86 -8.10073 5.25882 0
M  V30 21413 H 2901.5 -6.30324 0.726794 0
M  V30 21414 P 2903.36 -8.4349 2.47671 0
M  V30 21415 O 2904.78 -8.94167 2.5964 0
M  V30 21416 O 2903 -7.1704 3.19006 0
M  V30 21417 O 2903.04 -8.16596 0.923387 0
M  V30 21418 C 2902.88 -9.38437 0.108857 0
M  V30 21419 C 2903.42 -9.08175 -1.28353 0
M  V30 21420 O 2902.36 -8.44229 -1.84713 0
M  V30 21421 C 2904.64 -8.18386 -1.42505 0
M  V30 21422 O 2905.37 -8.3501 -2.60497 0
M  V30 21423 C 2903.97 -6.80225 -1.25468 0
M  V30 21424 O 2904.77 -5.81621 -1.91066 0
M  V30 21425 C 2902.63 -7.02416 -1.9168 0
M  V30 21426 H 2902.66 -6.6888 -2.96621 0
M  V30 21427 H 2903.84 -6.53617 -0.192223 0
M  V30 21428 H 2905.33 -8.36622 -0.589963 0
M  V30 21429 H 2903.63 -10.0291 -1.79807 0
M  V30 21430 H 2903.44 -10.2138 0.558219 0
M  V30 21431 H 2901.81 -9.6579 0.0444202 0
M  V30 21432 H 2904.45 -5.69556 -2.79637 0
M  V30 21433 P 2906.31 -8.4349 -2.47671 0
M  V30 21434 O 2907.73 -8.92593 -2.65 0
M  V30 21435 O 2905.95 -7.7568 -1.19296 0
M  V30 21436 O 2905.99 -7.36886 -3.63805 0
M  V30 21437 C 2905.83 -7.95349 -4.982 0
M  V30 21438 C 2906.37 -6.94612 -5.98974 0
M  V30 21439 O 2905.31 -6.10347 -6.11815 0
M  V30 21440 C 2907.59 -6.11426 -5.62335 0
M  V30 21441 O 2908.32 -5.6162 -6.70584 0
M  V30 21442 C 2906.92 -5.04409 -4.73308 0
M  V30 21443 O 2907.72 -3.85992 -4.75183 0
M  V30 21444 C 2905.58 -4.8728 -5.41006 0
M  V30 21445 H 2905.61 -4.02333 -6.11157 0
M  V30 21446 H 2906.8 -5.39466 -3.69543 0
M  V30 21447 H 2908.28 -6.71916 -5.01943 0
M  V30 21448 H 2906.59 -7.4649 -6.93477 0
M  V30 21449 H 2906.4 -8.89416 -5.05237 0
M  V30 21450 H 2904.77 -8.14876 -5.18409 0
M  V30 21451 H 2907.4 -3.27957 -5.4317 0
M  V30 21452 P 2909.26 -5.75688 -6.64379 0
M  V30 21453 O 2910.66 -6.14823 -7.06682 0
M  V30 21454 O 2908.88 -5.93957 -5.20728 0
M  V30 21455 O 2908.94 -4.23169 -7.04357 0
M  V30 21456 C 2908.78 -3.99743 -8.4911 0
M  V30 21457 C 2909.32 -2.60487 -8.79329 0
M  V30 21458 O 2908.26 -1.82663 -8.44573 0
M  V30 21459 C 2910.54 -2.10343 -8.03628 0
M  V30 21460 O 2911.28 -1.09919 -8.67766 0
M  V30 21461 C 2909.87 -1.68446 -6.70876 0
M  V30 21462 O 2910.67 -0.678026 -6.08333 0
M  V30 21463 C 2908.53 -1.17436 -7.18567 0
M  V30 21464 N 2907.49 -1.52699 -6.23988 0
M  V30 21465 C 2906.45 -0.643793 -6.05085 0
M  V30 21466 O 2906.49 0.459118 -6.64315 0
M  V30 21467 N 2905.44 -0.976931 -5.22038 0
M  V30 21468 C 2905.49 -2.14429 -4.56662 0
M  V30 21469 N 2904.48 -2.4542 -3.76231 0
M  V30 21470 C 2906.59 -3.04203 -4.71481 0
M  V30 21471 C 2907.55 -2.69669 -5.56838 0
M  V30 21472 H 2908.56 -0.0804622 -7.31556 0
M  V30 21473 H 2909.75 -2.53396 -6.02698 0
M  V30 21474 H 2911.23 -2.9313 -7.85914 0
M  V30 21475 H 2909.54 -2.52078 -9.87225 0
M  V30 21476 H 2909.35 -4.75072 -9.05887 0
M  V30 21477 H 2907.72 -4.05202 -8.76577 0
M  V30 21478 H 2906.63 -3.97309 -4.15519 0
M  V30 21479 H 2908.4 -3.36869 -5.72318 0
M  V30 21480 H 2903.69 -1.80133 -3.65413 0
M  V30 21481 H 2904.48 -3.34359 -3.24736 0
M  V30 21482 H 2910.45 0.167718 -6.44882 0
M  V30 21483 P 2912.21 -1.25109 -8.70152 0
M  V30 21484 O 2913.63 -1.29744 -9.22016 0
M  V30 21485 O 2911.85 -2.13714 -7.55141 0
M  V30 21486 O 2911.89 0.248149 -8.21425 0
M  V30 21487 C 2911.73 1.22779 -9.30434 0
M  V30 21488 C 2912.27 2.56293 -8.80664 0
M  V30 21489 O 2911.21 3.02979 -8.09349 0
M  V30 21490 C 2913.49 2.57523 -7.89775 0
M  V30 21491 O 2914.23 3.7668 -7.89438 0
M  V30 21492 C 2912.82 2.20997 -6.55446 0
M  V30 21493 O 2913.62 2.71895 -5.48509 0
M  V30 21494 C 2911.48 2.89693 -6.67988 0
M  V30 21495 H 2911.51 3.88793 -6.19859 0
M  V30 21496 H 2912.7 1.12046 -6.44229 0
M  V30 21497 H 2914.18 1.7746 -8.19711 0
M  V30 21498 H 2912.49 3.20706 -9.67112 0
M  V30 21499 H 2912.3 0.901032 -10.1892 0
M  V30 21500 H 2910.67 1.33049 -9.56592 0
M  V30 21501 H 2913.31 3.57847 -5.23962 0
M  V30 21502 P 2915.16 3.65191 -7.99657 0
M  V30 21503 O 2916.58 3.89374 -8.45885 0
M  V30 21504 O 2914.8 2.28472 -7.50807 0
M  V30 21505 O 2914.84 4.64972 -6.77611 0
M  V30 21506 C 2914.68 6.06383 -7.16428 0
M  V30 21507 C 2915.22 6.91731 -6.02299 0
M  V30 21508 O 2914.17 6.92369 -5.17005 0
M  V30 21509 C 2916.44 6.43627 -5.25174 0
M  V30 21510 O 2917.18 7.43686 -4.60469 0
M  V30 21511 C 2915.77 5.40275 -4.31916 0
M  V30 21512 O 2916.57 5.24878 -3.14911 0
M  V30 21513 C 2914.43 6.04847 -4.05327 0
M  V30 21514 N 2913.39 5.04166 -3.98114 0
M  V30 21515 C 2913.56 3.84629 -4.59066 0
M  V30 21516 N 2912.53 3.0363 -4.45343 0
M  V30 21517 C 2911.65 3.76722 -3.68523 0
M  V30 21518 C 2910.38 3.43528 -3.17088 0
M  V30 21519 N 2909.81 4.44526 -2.44231 0
M  V30 21520 C 2910.42 5.65243 -2.20146 0
M  V30 21521 N 2911.59 6.00221 -2.65453 0
M  V30 21522 C 2912.17 5.00564 -3.39083 0
M  V30 21523 H 2915.65 4.42969 -4.80867 0
M  V30 21524 H 2917.13 5.92458 -5.93643 0
M  V30 21525 H 2915.44 7.93295 -6.39407 0
M  V30 21526 H 2915.25 6.26671 -8.0846 0
M  V30 21527 H 2913.62 6.29101 -7.32804 0
M  V30 21528 H 2914.46 3.58193 -5.14248 0
M  V30 21529 H 2916.26 5.84223 -2.47279 0
M  V30 21530 P 2918.11 7.39546 -4.75277 0
M  V30 21531 O 2919.51 7.86988 -5.07993 0
M  V30 21532 O 2917.74 5.99957 -5.13804 0
M  V30 21533 O 2917.79 7.57411 -3.18621 0
M  V30 21534 C 2917.63 8.97357 -2.74833 0
M  V30 21535 C 2918.17 9.0745 -1.32694 0
M  V30 21536 O 2917.11 8.61972 -0.606089 0
M  V30 21537 C 2919.39 8.25383 -0.938334 0
M  V30 21538 O 2920.13 8.74577 0.146954 0
M  V30 21539 C 2918.72 6.8802 -0.712559 0
M  V30 21540 O 2919.52 6.11791 0.194623 0
M  V30 21541 C 2917.38 7.27966 -0.139777 0
M  V30 21542 N 2916.34 6.39368 -0.623421 0
M  V30 21543 C 2915.3 6.08088 0.223886 0
M  V30 21544 O 2915.34 6.5102 1.39986 0
M  V30 21545 N 2914.29 5.30627 -0.224051 0
M  V30 21546 C 2914.34 4.82531 -1.47257 0
M  V30 21547 N 2913.33 4.07328 -1.89378 0
M  V30 21548 C 2915.44 5.09974 -2.34008 0
M  V30 21549 C 2916.4 5.89548 -1.87678 0
M  V30 21550 H 2917.41 7.25255 0.961469 0
M  V30 21551 H 2918.6 6.32625 -1.65044 0
M  V30 21552 H 2920.08 8.19631 -1.78299 0
M  V30 21553 H 2918.39 10.1305 -1.09016 0
M  V30 21554 H 2918.2 9.64276 -3.41316 0
M  V30 21555 H 2916.57 9.25321 -2.76328 0
M  V30 21556 H 2915.48 4.67832 -3.3413 0
M  V30 21557 H 2917.25 6.14434 -2.51991 0
M  V30 21558 H 2912.54 3.87329 -1.26296 0
M  V30 21559 H 2913.34 3.69014 -2.84741 0
M  V30 21560 H 2919.3 6.35931 1.08377 0
M  V30 21561 P 2921.06 8.791 -2.10567e-11 0
M  V30 21562 O 2922.49 9.31096 0.027933 0
M  V30 21563 O 2920.7 7.77869 -1.04071 0
M  V30 21564 O 2920.74 8.09533 1.41463 0
M  V30 21565 C 2920.58 9.0349 2.53943 0
M  V30 21566 C 2921.12 8.35226 3.79016 0
M  V30 21567 O 2920.07 7.57992 4.15078 0
M  V30 21568 C 2922.34 7.45087 3.67298 0
M  V30 21569 O 2923.08 7.27796 4.85194 0
M  V30 21570 C 2921.67 6.17323 3.12027 0
M  V30 21571 O 2922.47 5.04231 3.47188 0
M  V30 21572 C 2920.33 6.19961 3.81809 0
M  V30 21573 H 2920.37 5.58218 4.73051 0
M  V30 21574 H 2921.55 6.21726 2.02589 0
M  V30 21575 H 2923.03 7.86112 2.9231 0
M  V30 21576 H 2921.34 9.11627 4.55076 0
M  V30 21577 H 2921.15 9.9573 2.34194 0
M  V30 21578 H 2919.52 9.2792 2.67832 0
M  V30 21579 H 2922.16 4.67702 4.28772 0
M  V30 21580 P 2924.01 7.39546 4.75277 0
M  V30 21581 O 2925.44 7.81777 5.05738 0
M  V30 21582 O 2923.65 7.1065 3.32998 0
M  V30 21583 O 2923.69 6.04542 5.56673 0
M  V30 21584 C 2923.53 6.22772 7.02095 0
M  V30 21585 C 2924.07 4.97725 7.70406 0
M  V30 21586 O 2923.02 4.13256 7.58987 0
M  V30 21587 C 2925.29 4.28231 7.11815 0
M  V30 21588 O 2926.03 3.49945 8.01648 0
M  V30 21589 C 2924.62 3.5063 5.96244 0
M  V30 21590 O 2925.42 2.36482 5.64681 0
M  V30 21591 C 2923.28 3.15122 6.56374 0
M  V30 21592 H 2923.32 2.13853 6.99751 0
M  V30 21593 H 2924.5 4.13501 5.06559 0
M  V30 21594 H 2925.98 5.03285 6.70911 0
M  V30 21595 H 2924.29 5.20877 8.75697 0
M  V30 21596 H 2924.1 7.11046 7.35349 0
M  V30 21597 H 2922.47 6.35815 7.26986 0
M  V30 21598 H 2925.11 1.61644 6.13565 0
M  V30 21599 P 2926.97 3.65191 7.99657 0
M  V30 21600 O 2928.37 3.90823 8.51272 0
M  V30 21601 O 2926.59 4.23191 6.66972 0
M  V30 21602 O 2926.64 2.07587 7.95046 0
M  V30 21603 C 2926.48 1.44328 9.27336 0
M  V30 21604 C 2927.02 0.0220012 9.17097 0
M  V30 21605 O 2925.97 -0.626794 8.61824 0
M  V30 21606 C 2928.24 -0.24586 8.30336 0
M  V30 21607 O 2928.98 -1.39011 8.63583 0
M  V30 21608 C 2927.57 -0.273849 6.91158 0
M  V30 21609 O 2928.37 -1.06331 6.02794 0
M  V30 21610 C 2926.23 -0.897649 7.22545 0
M  V30 21611 N 2925.19 -0.292839 6.41732 0
M  V30 21612 C 2924.16 -1.08701 5.98712 0
M  V30 21613 O 2924.2 -2.31211 6.24471 0
M  V30 21614 N 2923.14 -0.533391 5.28415 0
M  V30 21615 C 2923.19 0.770866 4.98576 0
M  V30 21616 C 2924.29 1.59049 5.38086 0
M  V30 21617 C 2925.25 1.01866 6.10256 0
M  V30 21618 H 2926.27 -1.98383 7.04189 0
M  V30 21619 H 2927.45 0.733318 6.49674 0
M  V30 21620 H 2928.93 0.598386 8.36663 0
M  V30 21621 H 2927.24 -0.362662 10.1825 0
M  V30 21622 H 2927.05 2.00611 10.0304 0
M  V30 21623 H 2925.42 1.41828 9.55228 0
M  V30 21624 H 2924.34 2.6415 5.10622 0
M  V30 21625 H 2926.1 1.61983 6.44042 0
M  V30 21626 H 2928.15 -1.97777 6.14035 0
M  V30 21627 P 2929.92 -1.25109 8.70152 0
M  V30 21628 O 2931.34 -1.35274 9.21221 0
M  V30 21629 O 2929.56 -0.0769065 7.84762 0
M  V30 21630 O 2929.59 -2.55232 7.81161 0
M  V30 21631 C 2929.43 -3.79939 8.58154 0
M  V30 21632 C 2929.97 -4.94023 7.72785 0
M  V30 21633 O 2928.92 -5.18726 6.91205 0
M  V30 21634 C 2931.19 -4.69597 6.85231 0
M  V30 21635 O 2931.93 -5.83832 6.51337 0
M  V30 21636 C 2930.52 -3.96706 5.66633 0
M  V30 21637 O 2931.32 -4.15414 4.49689 0
M  V30 21638 C 2929.19 -4.66153 5.59313 0
M  V30 21639 H 2929.22 -5.47679 4.85214 0
M  V30 21640 H 2930.4 -2.89008 5.86566 0
M  V30 21641 H 2931.88 -4.0121 7.36511 0
M  V30 21642 H 2930.19 -5.80182 8.37584 0
M  V30 21643 H 2930 -3.73517 9.52265 0
M  V30 21644 H 2928.37 -3.97163 8.80359 0
M  V30 21645 H 2931.01 -4.90969 4.01921 0
M  V30 21646 P 2932.87 -5.75688 6.64379 0
M  V30 21647 O 2934.29 -6.11915 7.01921 0
M  V30 21648 O 2932.51 -4.30744 6.56026 0
M  V30 21649 O 2932.54 -6.37042 5.19165 0
M  V30 21650 C 2932.38 -7.83662 5.1657 0
M  V30 21651 C 2932.92 -8.33398 3.83019 0
M  V30 21652 O 2931.87 -8.0998 3.00999 0
M  V30 21653 C 2934.14 -7.65514 3.2257 0
M  V30 21654 O 2934.88 -8.4329 2.32297 0
M  V30 21655 C 2933.47 -6.40075 2.62207 0
M  V30 21656 O 2934.27 -5.92338 1.5428 0
M  V30 21657 C 2932.14 -6.9454 2.18503 0
M  V30 21658 N 2931.09 -5.95905 2.39948 0
M  V30 21659 C 2931.26 -4.98383 3.32108 0
M  V30 21660 N 2930.23 -4.16798 3.41761 0
M  V30 21661 C 2929.35 -4.65287 2.47461 0
M  V30 21662 C 2928.08 -4.18946 2.07461 0
M  V30 21663 N 2927.48 -3.09661 2.60717 0
M  V30 21664 N 2927.52 -4.95327 1.09101 0
M  V30 21665 C 2928.12 -6.04369 0.519812 0
M  V30 21666 N 2929.3 -6.50694 0.855982 0
M  V30 21667 C 2929.87 -5.75818 1.84322 0
M  V30 21668 H 2932.17 -7.22964 1.12076 0
M  V30 21669 H 2933.35 -5.60502 3.36589 0
M  V30 21670 H 2934.83 -7.35707 4.02681 0
M  V30 21671 H 2933.14 -9.41302 3.90009 0
M  V30 21672 H 2932.95 -8.29056 5.99158 0
M  V30 21673 H 2931.32 -8.10073 5.25882 0
M  V30 21674 H 2927.58 -6.55843 -0.270373 0
M  V30 21675 H 2932.16 -4.88564 3.92502 0
M  V30 21676 H 2926.55 -2.80523 2.27218 0
M  V30 21677 H 2927.96 -2.55848 3.34465 0
M  V30 21678 H 2933.96 -6.30224 0.72668 0
M  V30 21679 P 2935.82 -8.4349 2.47671 0
M  V30 21680 O 2937.24 -8.94167 2.5964 0
M  V30 21681 O 2935.46 -7.1704 3.19006 0
M  V30 21682 O 2935.49 -8.16596 0.923387 0
M  V30 21683 C 2935.33 -9.38437 0.108857 0
M  V30 21684 C 2935.87 -9.08175 -1.28353 0
M  V30 21685 O 2934.82 -8.44229 -1.84713 0
M  V30 21686 C 2937.09 -8.18386 -1.42505 0
M  V30 21687 O 2937.83 -8.3501 -2.60497 0
M  V30 21688 C 2936.42 -6.80225 -1.25468 0
M  V30 21689 O 2937.22 -5.81621 -1.91066 0
M  V30 21690 C 2935.09 -7.02416 -1.9168 0
M  V30 21691 H 2935.12 -6.6888 -2.96621 0
M  V30 21692 H 2936.3 -6.53617 -0.192223 0
M  V30 21693 H 2937.79 -8.36622 -0.589963 0
M  V30 21694 H 2936.09 -10.0291 -1.79807 0
M  V30 21695 H 2935.9 -10.2138 0.558219 0
M  V30 21696 H 2934.27 -9.6579 0.0444202 0
M  V30 21697 H 2936.91 -5.69556 -2.79637 0
M  V30 21698 P 2938.77 -8.4349 -2.47671 0
M  V30 21699 O 2940.19 -8.92593 -2.65 0
M  V30 21700 O 2938.41 -7.7568 -1.19296 0
M  V30 21701 O 2938.44 -7.36886 -3.63805 0
M  V30 21702 C 2938.28 -7.95349 -4.982 0
M  V30 21703 C 2938.82 -6.94612 -5.98974 0
M  V30 21704 O 2937.77 -6.10347 -6.11815 0
M  V30 21705 C 2940.04 -6.11426 -5.62335 0
M  V30 21706 O 2940.78 -5.6162 -6.70584 0
M  V30 21707 C 2939.37 -5.04409 -4.73308 0
M  V30 21708 O 2940.17 -3.85992 -4.75183 0
M  V30 21709 C 2938.04 -4.8728 -5.41006 0
M  V30 21710 H 2938.07 -4.02333 -6.11157 0
M  V30 21711 H 2939.25 -5.39466 -3.69543 0
M  V30 21712 H 2940.74 -6.71916 -5.01943 0
M  V30 21713 H 2939.04 -7.4649 -6.93477 0
M  V30 21714 H 2938.85 -8.89416 -5.05237 0
M  V30 21715 H 2937.22 -8.14876 -5.18409 0
M  V30 21716 H 2939.86 -3.27957 -5.4317 0
M  V30 21717 P 2941.72 -5.75688 -6.64379 0
M  V30 21718 O 2943.14 -6.07627 -7.05504 0
M  V30 21719 O 2941.36 -5.88047 -5.19722 0
M  V30 21720 O 2941.4 -4.2322 -7.04443 0
M  V30 21721 C 2941.24 -3.99743 -8.4911 0
M  V30 21722 C 2941.78 -2.60516 -8.79425 0
M  V30 21723 O 2940.72 -1.82684 -8.4467 0
M  V30 21724 C 2942.99 -2.10343 -8.03628 0
M  V30 21725 O 2943.73 -1.09919 -8.67766 0
M  V30 21726 C 2942.32 -1.68446 -6.70876 0
M  V30 21727 O 2943.12 -0.678137 -6.08433 0
M  V30 21728 C 2940.99 -1.17436 -7.18567 0
M  V30 21729 H 2941.02 -0.0804732 -7.31656 0
M  V30 21730 H 2942.2 -2.54037 -6.02537 0
M  V30 21731 H 2943.69 -2.93881 -7.85526 0
M  V30 21732 H 2941.99 -2.53065 -9.86973 0
M  V30 21733 H 2941.8 -4.75072 -9.05887 0
M  V30 21734 H 2940.17 -4.05244 -8.76668 0
M  V30 21735 H 2942.81 0.177647 -6.34251 0
M  V30 21736 P 2944.67 -1.25109 -8.70152 0
M  V30 21737 O 2946.09 -1.29744 -9.22016 0
M  V30 21738 O 2944.31 -2.13714 -7.55141 0
M  V30 21739 O 2944.35 0.248149 -8.21425 0
M  V30 21740 C 2944.19 1.22779 -9.30434 0
M  V30 21741 C 2944.73 2.56293 -8.80664 0
M  V30 21742 O 2943.67 3.02979 -8.09349 0
M  V30 21743 C 2945.94 2.57523 -7.89775 0
M  V30 21744 O 2946.68 3.7668 -7.89438 0
M  V30 21745 C 2945.27 2.20997 -6.55446 0
M  V30 21746 O 2946.07 2.71895 -5.48509 0
M  V30 21747 C 2943.94 2.89693 -6.67988 0
M  V30 21748 H 2943.97 3.88793 -6.19859 0
M  V30 21749 H 2945.15 1.12046 -6.44229 0
M  V30 21750 H 2946.64 1.7746 -8.19711 0
M  V30 21751 H 2944.94 3.20706 -9.67112 0
M  V30 21752 H 2944.75 0.901032 -10.1892 0
M  V30 21753 H 2943.12 1.33049 -9.56592 0
M  V30 21754 H 2945.76 3.57847 -5.23962 0
M  V30 21755 P 2947.62 3.65191 -7.99657 0
M  V30 21756 O 2949.04 3.89332 -8.45794 0
M  V30 21757 O 2947.26 2.28472 -7.50807 0
M  V30 21758 O 2947.3 4.64972 -6.77611 0
M  V30 21759 C 2947.14 6.06319 -7.16352 0
M  V30 21760 C 2947.68 6.91731 -6.02299 0
M  V30 21761 O 2946.62 6.92449 -5.17064 0
M  V30 21762 C 2948.89 6.43627 -5.25174 0
M  V30 21763 O 2949.63 7.43686 -4.60469 0
M  V30 21764 C 2948.23 5.40275 -4.31916 0
M  V30 21765 O 2949.02 5.25279 -3.14438 0
M  V30 21766 C 2946.89 6.04847 -4.05327 0
M  V30 21767 H 2946.92 6.62195 -3.11261 0
M  V30 21768 H 2948.1 4.42556 -4.81383 0
M  V30 21769 H 2949.59 5.92458 -5.93643 0
M  V30 21770 H 2947.89 7.92655 -6.402 0
M  V30 21771 H 2947.7 6.26671 -8.0846 0
M  V30 21772 H 2946.07 6.29101 -7.32804 0
M  V30 21773 H 2948.71 5.84315 -2.47318 0
M  V30 21774 P 2950.57 7.39546 -4.75277 0
M  V30 21775 O 2951.99 7.84798 -5.01039 0
M  V30 21776 O 2950.21 5.9812 -5.08098 0
M  V30 21777 O 2950.25 7.57503 -3.1866 0
M  V30 21778 C 2950.09 8.97357 -2.74833 0
M  V30 21779 C 2950.63 9.07548 -1.32709 0
M  V30 21780 O 2949.57 8.62072 -0.606159 0
M  V30 21781 C 2951.84 8.25383 -0.938334 0
M  V30 21782 O 2952.58 8.74577 0.146954 0
M  V30 21783 C 2951.18 6.8802 -0.712559 0
M  V30 21784 O 2951.97 6.1189 0.194655 0
M  V30 21785 C 2949.84 7.27966 -0.139777 0
M  V30 21786 H 2949.87 7.25354 0.961601 0
M  V30 21787 H 2951.05 6.32557 -1.65702 0
M  V30 21788 H 2952.54 8.19355 -1.79097 0
M  V30 21789 H 2950.84 10.1294 -1.10029 0
M  V30 21790 H 2950.65 9.64276 -3.41316 0
M  V30 21791 H 2949.02 9.25417 -2.76357 0
M  V30 21792 H 2951.66 6.25267 1.07847 0
M  V30 21793 P 2953.52 8.791 -2.62433e-11 0
M  V30 21794 O 2954.92 9.36698 -0.018734 0
M  V30 21795 O 2953.14 7.82499 -1.07878 0
M  V30 21796 O 2953.2 8.09434 1.41446 0
M  V30 21797 C 2953.04 9.0349 2.53943 0
M  V30 21798 C 2953.58 8.35135 3.78975 0
M  V30 21799 O 2952.52 7.57904 4.1503 0
M  V30 21800 C 2954.79 7.45087 3.67298 0
M  V30 21801 O 2955.53 7.27796 4.85194 0
M  V30 21802 C 2954.13 6.17323 3.12027 0
M  V30 21803 O 2954.93 5.04149 3.47132 0
M  V30 21804 C 2952.79 6.19961 3.81809 0
M  V30 21805 N 2951.75 5.71575 2.93223 0
M  V30 21806 C 2950.71 4.99452 3.47592 0
M  V30 21807 O 2950.75 4.7199 4.69732 0
M  V30 21808 N 2949.7 4.58505 2.6803 0
M  V30 21809 C 2949.75 4.85544 1.36995 0
M  V30 21810 N 2948.74 4.45052 0.609031 0
M  V30 21811 C 2950.84 5.55532 0.788532 0
M  V30 21812 C 2951.81 5.97426 1.60849 0
M  V30 21813 H 2952.82 5.58142 4.72986 0
M  V30 21814 H 2954 6.21428 2.0318 0
M  V30 21815 H 2955.49 7.85913 2.93131 0
M  V30 21816 H 2953.79 9.11171 4.55987 0
M  V30 21817 H 2953.6 9.9573 2.34194 0
M  V30 21818 H 2951.97 9.27824 2.67805 0
M  V30 21819 H 2950.89 5.7421 -0.281588 0
M  V30 21820 H 2952.66 6.53132 1.202 0
M  V30 21821 H 2947.95 3.94123 1.03159 0
M  V30 21822 H 2948.74 4.64377 -0.400352 0
M  V30 21823 H 2954.71 4.76386 4.34983 0
M  V30 21824 P 2956.47 7.39546 4.75277 0
M  V30 21825 O 2957.89 7.81777 5.05738 0
M  V30 21826 O 2956.11 7.1065 3.32998 0
M  V30 21827 O 2956.15 6.04542 5.56673 0
M  V30 21828 C 2955.99 6.22772 7.02095 0
M  V30 21829 C 2956.53 4.97725 7.70406 0
M  V30 21830 O 2955.47 4.13256 7.58987 0
M  V30 21831 C 2957.75 4.28231 7.11815 0
M  V30 21832 O 2958.48 3.49945 8.01648 0
M  V30 21833 C 2957.08 3.5063 5.96244 0
M  V30 21834 O 2957.88 2.36482 5.64681 0
M  V30 21835 C 2955.74 3.15122 6.56374 0
M  V30 21836 H 2955.77 2.13853 6.99751 0
M  V30 21837 H 2956.96 4.13501 5.06559 0
M  V30 21838 H 2958.44 5.03285 6.70911 0
M  V30 21839 H 2956.75 5.20877 8.75697 0
M  V30 21840 H 2956.56 7.11046 7.35349 0
M  V30 21841 H 2954.93 6.35815 7.26986 0
M  V30 21842 H 2957.56 1.61644 6.13565 0
M  V30 21843 P 2959.42 3.65191 7.99657 0
M  V30 21844 O 2960.84 3.84292 8.48206 0
M  V30 21845 O 2959.06 4.17805 6.64342 0
M  V30 21846 O 2959.1 2.07613 7.95143 0
M  V30 21847 C 2958.94 1.44344 9.27435 0
M  V30 21848 C 2959.48 0.0220036 9.17197 0
M  V30 21849 O 2958.42 -0.626794 8.61824 0
M  V30 21850 C 2960.7 -0.24586 8.30336 0
M  V30 21851 O 2961.43 -1.39011 8.63583 0
M  V30 21852 C 2960.03 -0.273849 6.91158 0
M  V30 21853 O 2960.83 -1.05728 6.029 0
M  V30 21854 C 2958.69 -0.897649 7.22545 0
M  V30 21855 N 2957.65 -0.292839 6.41732 0
M  V30 21856 C 2957.82 0.950603 5.91308 0
M  V30 21857 N 2956.79 1.37732 5.21105 0
M  V30 21858 C 2955.9 0.318109 5.26039 0
M  V30 21859 C 2954.64 0.146766 4.6727 0
M  V30 21860 N 2954.07 -1.06525 4.95887 0
M  V30 21861 C 2954.67 -2.0378 5.71347 0
M  V30 21862 N 2955.85 -1.92445 6.27451 0
M  V30 21863 C 2956.43 -0.715382 6.00353 0
M  V30 21864 H 2959.91 0.733318 6.49674 0
M  V30 21865 H 2961.39 0.60668 8.36503 0
M  V30 21866 H 2959.69 -0.362662 10.1825 0
M  V30 21867 H 2959.5 2.00611 10.0304 0
M  V30 21868 H 2957.87 1.41843 9.55327 0
M  V30 21869 H 2958.72 1.54076 6.07465 0
M  V30 21870 H 2960.51 -1.95704 6.0346 0
M  V30 21871 P 2962.37 -1.25109 8.70152 0
M  V30 21872 O 2963.77 -1.31452 9.27431 0
M  V30 21873 O 2961.99 -0.0458113 7.89887 0
M  V30 21874 O 2962.05 -2.55201 7.81066 0
M  V30 21875 C 2961.89 -3.79939 8.58154 0
M  V30 21876 C 2962.43 -4.93969 7.72701 0
M  V30 21877 O 2961.37 -5.18666 6.91125 0
M  V30 21878 C 2963.65 -4.69597 6.85231 0
M  V30 21879 O 2964.39 -5.83832 6.51337 0
M  V30 21880 C 2962.98 -3.96706 5.66633 0
M  V30 21881 O 2963.78 -4.15346 4.49615 0
M  V30 21882 C 2961.64 -4.66153 5.59313 0
M  V30 21883 N 2960.6 -3.71582 5.24027 0
M  V30 21884 C 2959.56 -4.15133 4.44901 0
M  V30 21885 O 2959.6 -5.32122 4.00336 0
M  V30 21886 N 2958.55 -3.30554 4.15693 0
M  V30 21887 C 2958.6 -2.04701 4.61105 0
M  V30 21888 N 2957.59 -1.23621 4.31855 0
M  V30 21889 C 2959.7 -1.57111 5.38655 0
M  V30 21890 C 2960.66 -2.44234 5.68454 0
M  V30 21891 H 2961.67 -5.47604 4.85148 0
M  V30 21892 H 2962.86 -2.8955 5.86187 0
M  V30 21893 H 2964.34 -4.01995 7.36197 0
M  V30 21894 H 2962.65 -5.81019 8.37003 0
M  V30 21895 H 2962.46 -3.73517 9.52265 0
M  V30 21896 H 2960.83 -3.97122 8.80267 0
M  V30 21897 H 2959.74 -0.538464 5.72373 0
M  V30 21898 H 2961.51 -2.11927 6.29377 0
M  V30 21899 H 2956.8 -1.58199 3.7543 0
M  V30 21900 H 2957.59 -0.264601 4.65348 0
M  V30 21901 H 2963.56 -4.98352 4.09633 0
M  V30 21902 P 2965.32 -5.75688 6.64379 0
M  V30 21903 O 2966.74 -6.11915 7.01921 0
M  V30 21904 O 2964.96 -4.30744 6.56026 0
M  V30 21905 O 2965 -6.37042 5.19165 0
M  V30 21906 C 2964.84 -7.83662 5.1657 0
M  V30 21907 C 2965.38 -8.33398 3.83019 0
M  V30 21908 O 2964.32 -8.0998 3.00999 0
M  V30 21909 C 2966.6 -7.65514 3.2257 0
M  V30 21910 O 2967.34 -8.4329 2.32297 0
M  V30 21911 C 2965.93 -6.40075 2.62207 0
M  V30 21912 O 2966.73 -5.92338 1.5428 0
M  V30 21913 C 2964.59 -6.9454 2.18503 0
M  V30 21914 N 2963.55 -5.95905 2.39948 0
M  V30 21915 C 2963.72 -4.98383 3.32108 0
M  V30 21916 N 2962.69 -4.16798 3.41761 0
M  V30 21917 C 2961.81 -4.65287 2.47461 0
M  V30 21918 C 2960.54 -4.18946 2.07461 0
M  V30 21919 N 2959.94 -3.09661 2.60717 0
M  V30 21920 N 2959.97 -4.95327 1.09101 0
M  V30 21921 C 2960.58 -6.04369 0.519812 0
M  V30 21922 N 2961.75 -6.50694 0.855982 0
M  V30 21923 C 2962.33 -5.75818 1.84322 0
M  V30 21924 H 2964.62 -7.22964 1.12076 0
M  V30 21925 H 2965.81 -5.60502 3.36589 0
M  V30 21926 H 2967.29 -7.35707 4.02681 0
M  V30 21927 H 2965.6 -9.41302 3.90009 0
M  V30 21928 H 2965.41 -8.29056 5.99158 0
M  V30 21929 H 2963.78 -8.10073 5.25882 0
M  V30 21930 H 2960.04 -6.55843 -0.270373 0
M  V30 21931 H 2964.62 -4.88564 3.92502 0
M  V30 21932 H 2959.01 -2.80523 2.27218 0
M  V30 21933 H 2960.41 -2.55848 3.34465 0
M  V30 21934 H 2966.42 -6.30224 0.72668 0
M  V30 21935 P 2968.27 -8.4349 2.47671 0
M  V30 21936 O 2969.7 -8.94167 2.5964 0
M  V30 21937 O 2967.91 -7.1704 3.19006 0
M  V30 21938 O 2967.95 -8.16596 0.923387 0
M  V30 21939 C 2967.79 -9.38437 0.108857 0
M  V30 21940 C 2968.33 -9.08175 -1.28353 0
M  V30 21941 O 2967.27 -8.44229 -1.84713 0
M  V30 21942 C 2969.55 -8.18386 -1.42505 0
M  V30 21943 O 2970.29 -8.3501 -2.60497 0
M  V30 21944 C 2968.88 -6.80225 -1.25468 0
M  V30 21945 O 2969.68 -5.81621 -1.91066 0
M  V30 21946 C 2967.54 -7.02416 -1.9168 0
M  V30 21947 H 2967.57 -6.6888 -2.96621 0
M  V30 21948 H 2968.76 -6.53617 -0.192223 0
M  V30 21949 H 2970.24 -8.36622 -0.589963 0
M  V30 21950 H 2968.55 -10.0291 -1.79807 0
M  V30 21951 H 2968.36 -10.2138 0.558219 0
M  V30 21952 H 2966.73 -9.6579 0.0444202 0
M  V30 21953 H 2969.37 -5.69556 -2.79637 0
M  V30 21954 P 2971.22 -8.4349 -2.47671 0
M  V30 21955 O 2972.65 -8.92593 -2.65 0
M  V30 21956 O 2970.86 -7.7568 -1.19296 0
M  V30 21957 O 2970.9 -7.36886 -3.63805 0
M  V30 21958 C 2970.74 -7.95349 -4.982 0
M  V30 21959 C 2971.28 -6.94612 -5.98974 0
M  V30 21960 O 2970.22 -6.10347 -6.11815 0
M  V30 21961 C 2972.5 -6.11426 -5.62335 0
M  V30 21962 O 2973.24 -5.6162 -6.70584 0
M  V30 21963 C 2971.83 -5.04409 -4.73308 0
M  V30 21964 O 2972.63 -3.85992 -4.75183 0
M  V30 21965 C 2970.49 -4.8728 -5.41006 0
M  V30 21966 H 2970.52 -4.02333 -6.11157 0
M  V30 21967 H 2971.71 -5.39466 -3.69543 0
M  V30 21968 H 2973.19 -6.71916 -5.01943 0
M  V30 21969 H 2971.5 -7.4649 -6.93477 0
M  V30 21970 H 2971.31 -8.89416 -5.05237 0
M  V30 21971 H 2969.68 -8.14876 -5.18409 0
M  V30 21972 H 2972.32 -3.27957 -5.4317 0
M  V30 21973 P 2974.17 -5.75688 -6.64379 0
M  V30 21974 O 2975.6 -6.07627 -7.05504 0
M  V30 21975 O 2973.81 -5.88047 -5.19722 0
M  V30 21976 O 2973.85 -4.2322 -7.04443 0
M  V30 21977 C 2973.69 -3.99743 -8.4911 0
M  V30 21978 C 2974.23 -2.60516 -8.79425 0
M  V30 21979 O 2973.18 -1.82684 -8.4467 0
M  V30 21980 C 2975.45 -2.10343 -8.03628 0
M  V30 21981 O 2976.19 -1.09919 -8.67766 0
M  V30 21982 C 2974.78 -1.68446 -6.70876 0
M  V30 21983 O 2975.58 -0.678137 -6.08433 0
M  V30 21984 C 2973.44 -1.17436 -7.18567 0
M  V30 21985 H 2973.48 -0.0804732 -7.31656 0
M  V30 21986 H 2974.66 -2.54037 -6.02537 0
M  V30 21987 H 2976.14 -2.93881 -7.85526 0
M  V30 21988 H 2974.45 -2.53065 -9.86973 0
M  V30 21989 H 2974.26 -4.75072 -9.05887 0
M  V30 21990 H 2972.63 -4.05244 -8.76668 0
M  V30 21991 H 2975.27 0.177647 -6.34251 0
M  V30 21992 P 2977.13 -1.25109 -8.70152 0
M  V30 21993 O 2978.55 -1.29744 -9.22016 0
M  V30 21994 O 2976.77 -2.13714 -7.55141 0
M  V30 21995 O 2976.8 0.248149 -8.21425 0
M  V30 21996 C 2976.64 1.22779 -9.30434 0
M  V30 21997 C 2977.18 2.56293 -8.80664 0
M  V30 21998 O 2976.13 3.02979 -8.09349 0
M  V30 21999 C 2978.4 2.57523 -7.89775 0
M  V30 22000 O 2979.14 3.7668 -7.89438 0
M  V30 22001 C 2977.73 2.20997 -6.55446 0
M  V30 22002 O 2978.53 2.71895 -5.48509 0
M  V30 22003 C 2976.39 2.89693 -6.67988 0
M  V30 22004 H 2976.43 3.88793 -6.19859 0
M  V30 22005 H 2977.61 1.12046 -6.44229 0
M  V30 22006 H 2979.09 1.7746 -8.19711 0
M  V30 22007 H 2977.4 3.20706 -9.67112 0
M  V30 22008 H 2977.21 0.901032 -10.1892 0
M  V30 22009 H 2975.58 1.33049 -9.56592 0
M  V30 22010 H 2978.22 3.57847 -5.23962 0
M  V30 22011 P 2980.08 3.65191 -7.99657 0
M  V30 22012 O 2981.5 3.89416 -8.45976 0
M  V30 22013 O 2979.72 2.28472 -7.50807 0
M  V30 22014 O 2979.75 4.64972 -6.77611 0
M  V30 22015 C 2979.59 6.06319 -7.16352 0
M  V30 22016 C 2980.13 6.91655 -6.02234 0
M  V30 22017 O 2979.08 6.92449 -5.17064 0
M  V30 22018 C 2981.35 6.43627 -5.25174 0
M  V30 22019 O 2982.09 7.43686 -4.60469 0
M  V30 22020 C 2980.68 5.40275 -4.31916 0
M  V30 22021 O 2981.48 5.25193 -3.14386 0
M  V30 22022 C 2979.34 6.04847 -4.05327 0
M  V30 22023 N 2978.3 5.04166 -3.98114 0
M  V30 22024 C 2978.36 3.96049 -4.75587 0
M  V30 22025 N 2977.32 3.15559 -4.54006 0
M  V30 22026 C 2976.58 3.78802 -3.62491 0
M  V30 22027 C 2975.28 3.476 -3.10071 0
M  V30 22028 O 2974.55 2.51136 -3.37021 0
M  V30 22029 N 2974.85 4.39088 -2.19956 0
M  V30 22030 C 2975.6 5.53215 -1.81733 0
M  V30 22031 N 2975 6.31963 -0.860928 0
M  V30 22032 N 2976.75 5.86688 -2.32562 0
M  V30 22033 C 2977.21 4.97525 -3.23407 0
M  V30 22034 H 2979.38 6.62195 -3.11261 0
M  V30 22035 H 2980.56 4.42488 -4.8131 0
M  V30 22036 H 2982.04 5.93051 -5.9305 0
M  V30 22037 H 2980.35 7.92655 -6.402 0
M  V30 22038 H 2980.16 6.26671 -8.0846 0
M  V30 22039 H 2978.53 6.29101 -7.32804 0
M  V30 22040 H 2973.95 4.25523 -1.77604 0
M  V30 22041 H 2979.16 3.75576 -5.47333 0
M  V30 22042 H 2974.09 6.04684 -0.468946 0
M  V30 22043 H 2975.47 7.18054 -0.542422 0
M  V30 22044 H 2981.17 5.84223 -2.47279 0
M  V30 22045 P 2983.03 7.39546 -4.75277 0
M  V30 22046 O 2984.45 7.84798 -5.01039 0
M  V30 22047 O 2982.67 5.9812 -5.08098 0
M  V30 22048 O 2982.7 7.57503 -3.1866 0
M  V30 22049 C 2982.54 8.97357 -2.74833 0
M  V30 22050 C 2983.08 9.07548 -1.32709 0
M  V30 22051 O 2982.03 8.62072 -0.606159 0
M  V30 22052 C 2984.3 8.25383 -0.938334 0
M  V30 22053 O 2985.04 8.74577 0.146954 0
M  V30 22054 C 2983.63 6.8802 -0.712559 0
M  V30 22055 O 2984.43 6.1189 0.194655 0
M  V30 22056 C 2982.3 7.27966 -0.139777 0
M  V30 22057 H 2982.33 7.25354 0.961601 0
M  V30 22058 H 2983.51 6.32557 -1.65702 0
M  V30 22059 H 2984.99 8.19355 -1.79097 0
M  V30 22060 H 2983.3 10.1294 -1.10029 0
M  V30 22061 H 2983.11 9.64276 -3.41316 0
M  V30 22062 H 2981.48 9.25417 -2.76357 0
M  V30 22063 H 2984.12 6.25267 1.07847 0
M  V30 22064 H 2986.67 8.24193 -0.0346053 0
M  V30 END ATOM
M  V30 BEGIN BOND
M  V30 END BOND
M  V30 END CTAB
M  END
$$$$
