drugbank_target|Q9NTG7 NAD-dependent protein deacetylase sirtuin-3, mitochondrial (DB02059)
 OpenBabel12092120553D

  0  0  0     0  0            999 V3000
M  V30 BEGIN CTAB
M  V30 COUNTS 6162 6242 0 0 0
M  V30 BEGIN ATOM
M  V30 1 H -0.908 1.98254 -0.117106 0
M  V30 2 N 0 1.576 0 0
M  V30 3 C 0.933 2.03868 1.02534 0
M  V30 4 C 1.911 0.928543 1.3348 0
M  V30 5 O 3.095 1.19667 1.45644 0
M  V30 6 C 0.222 2.43627 2.35294 0
M  V30 7 C -0.732 3.65373 2.2001 0
M  V30 8 S 0.101 5.13292 1.52614 0
M  V30 9 C 1.257 5.56322 2.86805 0
M  V30 10 H 1.49 2.90518 0.631377 0
M  V30 11 H -0.977 1.52953 0.210867 0
M  V30 12 H 0.981 2.67203 3.11629 0
M  V30 13 H -0.358 1.57376 2.7183 0
M  V30 14 H -1.165 3.90944 3.18086 0
M  V30 15 H -1.563 3.418 1.51819 0
M  V30 16 H 0.729 5.58782 3.83104 0
M  V30 17 H 1.672 6.56266 2.65933 0
M  V30 18 H 2.08 4.83886 2.90714 0
M  V30 19 N 1.4781 -0.272755 1.55222 0
M  V30 20 C 2.4411 -1.32041 1.87344 0
M  V30 21 C 3.4411 -1.42342 0.74803 0
M  V30 22 O 4.6311 -1.41488 1.0162 0
M  V30 23 C 1.7631 -2.70173 2.07893 0
M  V30 24 H 2.9561 -1.04789 2.80997 0
M  V30 25 H 0.5091 -0.51083 1.47717 0
M  V30 26 H 1.2441 -3.02605 1.16622 0
M  V30 27 H 1.0291 -2.64082 2.89833 0
M  V30 28 H 2.5191 -3.45869 2.34017 0
M  V30 29 N 2.9562 -1.48159 -0.537278 0
M  V30 30 C 4.2032 -1.55804 -1.29349 0
M  V30 31 C 4.5312 -0.228802 -1.9315 0
M  V30 32 O 3.7862 0.780242 -1.79473 0
M  V30 33 C 4.0852 -2.63956 -2.40961 0
M  V30 34 C 3.7512 -4.0662 -1.94861 0
M  V30 35 C 2.4132 -4.45452 -1.82006 0
M  V30 36 C 4.7652 -4.96055 -1.59933 0
M  V30 37 C 2.0932 -5.71531 -1.32547 0
M  V30 38 C 4.4452 -6.22617 -1.11939 0
M  V30 39 C 3.1092 -6.60312 -0.976951 0
M  V30 40 H 2.3792 -0.570129 -0.473322 0
M  V30 41 H 5.0262 -1.81845 -0.600372 0
M  V30 42 H 3.3312 -2.31747 -3.15912 0
M  V30 43 H 5.0282 -2.67089 -2.99107 0
M  V30 44 H 1.6182 -3.75949 -2.05815 0
M  V30 45 H 5.8022 -4.66738 -1.68728 0
M  V30 46 H 1.0582 -5.99468 -1.202 0
M  V30 47 H 5.2322 -6.91318 -0.839811 0
M  V30 48 H 2.8592 -7.57895 -0.591501 0
M  V30 49 N 4.4343 0.785586 -1.36625 0
M  V30 50 C 5.6803 1.5452 -1.32269 0
M  V30 51 C 6.0353 1.92159 0.0962266 0
M  V30 52 O 5.3283 1.60158 1.05167 0
M  V30 53 C 5.5223 2.83007 -2.1827 0
M  V30 54 C 5.3513 2.57925 -3.68382 0
M  V30 55 C 4.1213 2.52752 -4.37544 0
M  V30 56 C 6.3193 2.26861 -4.61561 0
M  V30 57 N 4.3013 2.19608 -5.73276 0
M  V30 58 C 5.6723 2.03738 -5.85569 0
M  V30 59 C 7.7273 2.129 -4.50087 0
M  V30 60 C 6.4303 1.68065 -6.9939 0
M  V30 61 C 8.4563 1.78626 -5.63779 0
M  V30 62 C 7.8183 1.56353 -6.86828 0
M  V30 63 H 3.9173 0.566301 -0.539283 0
M  V30 64 H 6.5013 0.917736 -1.71714 0
M  V30 65 H 4.6723 3.43614 -1.81063 0
M  V30 66 H 6.4043 3.48775 -2.05275 0
M  V30 67 H 3.1593 2.6813 -3.90389 0
M  V30 68 H 3.5833 2.05771 -6.44971 0
M  V30 69 H 8.2253 2.28808 -3.55537 0
M  V30 70 H 5.9433 1.50895 -7.93887 0
M  V30 71 H 9.5293 1.68502 -5.56865 0
M  V30 72 H 8.4093 1.30223 -7.73312 0
M  V30 73 N 5.9124 1.20967 1.01018 0
M  V30 74 C 7.1604 1.02172 1.74371 0
M  V30 75 C 7.4814 -0.446414 1.89821 0
M  V30 76 O 6.7514 -1.32234 1.44537 0
M  V30 77 H 5.3314 0.375066 0.646014 0
M  V30 78 H 7.9934 1.52187 1.21758 0
M  V30 79 H 7.0894 1.48538 2.74487 0
M  V30 80 N 7.3905 -1.2043 1.01659 0
M  V30 81 C 8.6365 -1.90356 0.716674 0
M  V30 82 C 8.9915 -1.77367 -0.745557 0
M  V30 83 O 8.2845 -1.1471 -1.53467 0
M  V30 84 C 8.4785 -3.40464 1.08714 0
M  V30 85 C 8.3075 -3.6806 2.58384 0
M  V30 86 C 7.0775 -3.86775 3.25167 0
M  V30 87 C 9.2755 -3.70623 3.56572 0
M  V30 88 N 7.2575 -4.01889 4.64067 0
M  V30 89 C 8.6285 -3.91161 4.81034 0
M  V30 90 C 10.6835 -3.53586 3.50544 0
M  V30 91 C 9.3865 -3.96428 6.00198 0
M  V30 92 C 11.4125 -3.60125 4.6911 0
M  V30 93 C 10.7745 -3.81135 5.92381 0
M  V30 94 H 6.8735 -0.716226 0.313918 0
M  V30 95 H 9.4575 -1.44815 1.30141 0
M  V30 96 H 7.6285 -3.84757 0.530745 0
M  V30 97 H 9.3605 -3.97863 0.740763 0
M  V30 98 H 6.1155 -3.85156 2.75594 0
M  V30 99 H 6.5395 -4.13323 5.36184 0
M  V30 100 H 11.1815 -3.36308 2.56235 0
M  V30 101 H 8.8995 -4.12502 6.94887 0
M  V30 102 H 12.4855 -3.4825 4.66062 0
M  V30 103 H 11.3655 -3.86054 6.82592 0
M  V30 104 N 8.8686 -0.792821 -1.36206 0
M  V30 105 C 10.2846 -0.474903 -1.52371 0
M  V30 106 C 10.4846 1.00622 -1.74578 0
M  V30 107 O 9.5406 1.79162 -1.77924 0
M  V30 108 C 10.8536 -1.3083 -2.70747 0
M  V30 109 C 12.4016 -1.30234 -2.84619 0
M  V30 110 C 12.8766 -2.11956 -4.06004 0
M  V30 111 N 14.3676 -2.09419 -4.13156 0
M  V30 112 C 15.1026 -2.69419 -5.06163 0
M  V30 113 N 14.5986 -3.3829 -6.04592 0
M  V30 114 N 16.3916 -2.59134 -4.98804 0
M  V30 115 H 8.5426 -1.75222 -1.20046 0
M  V30 116 H 10.8056 -0.745024 -0.586211 0
M  V30 117 H 10.5116 -2.35881 -2.6087 0
M  V30 118 H 10.3856 -0.95196 -3.6499 0
M  V30 119 H 12.7726 -0.259748 -2.93955 0
M  V30 120 H 12.8536 -1.69847 -1.91274 0
M  V30 121 H 12.4976 -3.16248 -3.97429 0
M  V30 122 H 12.4276 -1.69711 -4.98503 0
M  V30 123 H 14.9186 -1.59297 -3.42685 0
M  V30 124 H 15.2316 -3.81394 -6.7213 0
M  V30 125 H 13.5766 -3.42393 -6.04807 0
M  V30 126 H 16.7676 -2.04927 -4.20859 0
M  V30 127 H 16.9406 -3.06185 -5.711 0
M  V30 128 N 10.3467 1.47872 -0.545128 0
M  V30 129 C 11.3097 2.28337 0.198717 0
M  V30 130 C 12.3097 1.36255 0.853888 0
M  V30 131 O 13.4997 1.59003 0.711606 0
M  V30 132 C 10.6317 3.15585 1.28915 0
M  V30 133 H 11.8247 2.95567 -0.507941 0
M  V30 134 H 9.3777 1.53362 -0.301616 0
M  V30 135 H 10.1127 2.53019 2.02859 0
M  V30 136 H 9.8977 3.83337 0.824309 0
M  V30 137 H 11.3877 3.76243 1.81194 0
M  V30 138 N 11.8248 0.280983 1.55075 0
M  V30 139 C 12.7878 -0.590896 2.21452 0
M  V30 140 C 13.7878 -1.07682 1.19421 0
M  V30 141 O 14.9778 -0.97605 1.44288 0
M  V30 142 C 12.1098 -1.81587 2.88511 0
M  V30 143 H 13.3028 -0.0112554 2.99898 0
M  V30 144 H 10.8558 0.0316438 1.56268 0
M  V30 145 H 11.5908 -2.43587 2.14093 0
M  V30 146 H 11.3758 -1.4753 3.63287 0
M  V30 147 H 12.8658 -2.43575 3.39206 0
M  V30 148 N 13.3029 -1.57598 0.00835791 0
M  V30 149 C 14.2659 -2.07884 -0.965242 0
M  V30 150 C 15.2659 -0.989825 -1.26725 0
M  V30 151 O 16.4559 -1.25218 -1.21104 0
M  V30 152 C 13.5879 -2.52731 -2.28779 0
M  V30 153 H 14.7809 -2.95178 -0.530112 0
M  V30 154 H 12.3339 -1.54458 -0.239283 0
M  V30 155 H 13.0689 -1.68705 -2.76964 0
M  V30 156 H 12.8539 -3.32272 -2.08177 0
M  V30 157 H 14.3439 -2.91933 -2.98605 0
M  V30 158 N 14.781 0.264519 -1.55364 0
M  V30 159 C 15.744 1.31046 -1.88042 0
M  V30 160 C 16.744 1.41943 -0.755569 0
M  V30 161 O 17.934 1.40947 -1.02369 0
M  V30 162 C 15.066 2.69067 -2.09323 0
M  V30 163 H 16.259 1.03297 -2.81549 0
M  V30 164 H 13.812 0.502989 -1.47986 0
M  V30 165 H 14.547 3.01982 -1.18226 0
M  V30 166 H 14.332 2.62542 -2.91229 0
M  V30 167 H 15.822 3.44623 -2.35848 0
M  V30 168 N 16.2591 1.48442 0.529413 0
M  V30 169 C 17.1891 1.65902 1.64313 0
M  V30 170 C 18.1701 0.507897 1.6234 0
M  V30 171 O 19.3551 0.740503 1.79528 0
M  V30 172 C 16.4851 1.69911 3.02898 0
M  V30 173 C 15.4391 2.8453 3.19729 0
M  V30 174 C 14.7651 2.73629 4.59381 0
M  V30 175 C 16.0651 4.25821 3.02447 0
M  V30 176 H 17.7591 2.5914 1.49955 0
M  V30 177 H 15.3051 1.24709 0.719982 0
M  V30 178 H 17.2581 1.80715 3.80684 0
M  V30 179 H 15.9821 0.732524 3.18279 0
M  V30 180 H 14.6411 2.73283 2.44361 0
M  V30 181 H 14.2891 1.74938 4.71599 0
M  V30 182 H 13.9891 3.50541 4.71588 0
M  V30 183 H 15.5131 2.86401 5.39265 0
M  V30 184 H 16.9271 4.37898 3.70024 0
M  V30 185 H 15.3241 5.03735 3.26146 0
M  V30 186 H 16.3941 4.42244 1.98867 0
M  V30 187 N 17.7372 -0.778329 1.37039 0
M  V30 188 C 19.1532 -1.07796 1.17695 0
M  V30 189 C 19.3532 -2.01498 0.00860115 0
M  V30 190 O 18.4092 -2.43901 -0.653352 0
M  V30 191 C 19.7222 -1.68178 2.49272 0
M  V30 192 C 21.2702 -1.80467 2.55735 0
M  V30 193 C 21.7452 -2.44263 3.87427 0
M  V30 194 N 23.2362 -2.51721 3.88833 0
M  V30 195 C 23.9712 -3.01919 4.87476 0
M  V30 196 N 23.4672 -3.5234 5.96513 0
M  V30 197 N 25.2602 -3.00733 4.74885 0
M  V30 198 H 17.4112 -0.156032 2.11826 0
M  V30 199 H 19.6742 -0.131844 0.938787 0
M  V30 200 H 19.3802 -1.06796 3.35093 0
M  V30 201 H 19.2542 -2.67554 2.65885 0
M  V30 202 H 21.6412 -2.40984 1.70325 0
M  V30 203 H 21.7222 -0.798656 2.43013 0
M  V30 204 H 21.3662 -1.84388 4.73248 0
M  V30 205 H 21.2962 -3.45458 3.9745 0
M  V30 206 H 23.7872 -2.1603 3.10063 0
M  V30 207 H 24.1002 -3.89027 6.67741 0
M  V30 208 H 22.4452 -3.50462 6.00168 0
M  V30 209 H 25.6362 -2.60638 3.88826 0
M  V30 210 H 25.8092 -3.39545 5.51918 0
M  V30 211 N 19.2153 -1.21501 -1.00376 0
M  V30 212 C 20.1453 -0.999478 -2.11028 0
M  V30 213 C 21.1263 0.0759671 -1.6993 0
M  V30 214 O 22.3113 -0.0841106 -1.94018 0
M  V30 215 C 19.4413 -0.564709 -3.42678 0
M  V30 216 C 18.3953 -1.58486 -3.97576 0
M  V30 217 C 17.7213 -1.00628 -5.25146 0
M  V30 218 C 19.0213 -2.97204 -4.29496 0
M  V30 219 H 20.7153 -1.92495 -2.29317 0
M  V30 220 H 18.2613 -0.92693 -1.102 0
M  V30 221 H 20.2143 -0.401091 -4.19487 0
M  V30 222 H 18.9383 0.396411 -3.24185 0
M  V30 223 H 17.5973 -1.73606 -3.22888 0
M  V30 224 H 17.2453 -0.0368439 -5.02987 0
M  V30 225 H 16.9453 -1.68771 -5.62841 0
M  V30 226 H 18.4693 -0.854015 -6.04598 0
M  V30 227 H 19.8833 -2.8552 -4.97143 0
M  V30 228 H 18.2803 -3.62372 -4.78338 0
M  V30 229 H 19.3503 -3.47956 -3.3772 0
M  V30 230 N 20.6934 1.19889 -1.02296 0
M  V30 231 C 21.9394 1.89973 -0.726759 0
M  V30 232 C 22.2944 1.7776 0.73614 0
M  V30 233 O 21.5874 1.15523 1.52856 0
M  V30 234 C 21.7814 3.39883 -1.10518 0
M  V30 235 C 21.6104 3.66684 -2.60332 0
M  V30 236 C 20.3804 3.85045 -3.27213 0
M  V30 237 C 22.5784 3.68727 -3.58532 0
M  V30 238 N 20.5604 3.99422 -4.66192 0
M  V30 239 C 21.9314 3.88604 -4.83101 0
M  V30 240 C 23.9864 3.51722 -3.52414 0
M  V30 241 C 22.6894 3.9324 -6.02292 0
M  V30 242 C 24.7154 3.57632 -4.71013 0
M  V30 243 C 24.0774 3.77988 -5.94394 0
M  V30 244 H 20.1764 0.714551 -0.317712 0
M  V30 245 H 22.7604 1.44123 -1.30907 0
M  V30 246 H 20.9314 3.8447 -0.551142 0
M  V30 247 H 22.6634 3.97464 -0.761853 0
M  V30 248 H 19.4184 3.83689 -2.77632 0
M  V30 249 H 19.8424 4.10473 -5.38368 0
M  V30 250 H 24.4844 3.34945 -2.58015 0
M  V30 251 H 22.2024 4.08811 -6.97065 0
M  V30 252 H 25.7884 3.45773 -4.67902 0
M  V30 253 H 24.6684 3.82428 -6.8463 0
M  V30 254 N 22.1715 0.800033 1.35784 0
M  V30 255 C 23.4195 0.376597 1.9856 0
M  V30 256 C 23.7405 -1.05812 1.63795 0
M  V30 257 O 23.0105 -1.73103 0.917171 0
M  V30 258 H 21.5905 0.136261 0.734467 0
M  V30 259 H 24.2525 1.02442 1.65806 0
M  V30 260 H 23.3485 0.477002 3.08433 0
M  V30 261 N 23.6496 -1.47581 0.552962 0
M  V30 262 C 25.0656 -1.5818 0.212424 0
M  V30 263 C 25.2656 -1.55213 -1.28496 0
M  V30 264 O 24.3216 -1.45329 -2.06484 0
M  V30 265 C 25.6346 -2.88865 0.835318 0
M  V30 266 C 27.1826 -3.0244 0.806156 0
M  V30 267 C 27.6576 -4.35819 1.40804 0
M  V30 268 N 29.1486 -4.42444 1.37103 0
M  V30 269 C 29.8836 -5.44202 1.80641 0
M  V30 270 N 29.3796 -6.52795 2.32015 0
M  V30 271 N 31.1726 -5.35222 1.71738 0
M  V30 272 H 23.3236 -1.47753 1.52587 0
M  V30 273 H 25.5866 -0.702941 0.636064 0
M  V30 274 H 25.2926 -2.9676 1.88749 0
M  V30 275 H 25.1666 -3.7579 0.325848 0
M  V30 276 H 27.5536 -2.94144 -0.237317 0
M  V30 277 H 27.6346 -2.17068 1.35334 0
M  V30 278 H 27.2786 -4.44871 2.45056 0
M  V30 279 H 27.2086 -5.19916 0.836338 0
M  V30 280 H 29.6996 -3.6456 0.995202 0
M  V30 281 H 30.0126 -7.26609 2.63171 0
M  V30 282 H 28.3576 -6.53696 2.36023 0
M  V30 283 H 31.5486 -4.49284 1.31382 0
M  V30 284 H 31.7216 -6.14389 2.05987 0
M  V30 285 N 25.1277 -0.289203 -1.54924 0
M  V30 286 C 26.3737 0.323998 -2.00195 0
M  V30 287 C 26.7067 1.54441 -1.17735 0
M  V30 288 O 25.9817 1.92875 -0.250878 0
M  V30 289 C 26.2647 0.692276 -3.53383 0
M  V30 290 C 26.1177 -0.536457 -4.46589 0
M  V30 291 C 27.4367 1.52335 -4.12895 0
M  V30 292 H 24.5557 0.116289 -0.727768 0
M  V30 293 H 27.1977 -0.398954 -1.85764 0
M  V30 294 H 25.3477 1.30822 -3.65811 0
M  V30 295 H 27.0197 -1.17499 -4.46085 0
M  V30 296 H 25.2627 -1.17192 -4.1767 0
M  V30 297 H 25.9337 -0.234806 -5.515 0
M  V30 298 H 28.4097 1.00302 -4.0383 0
M  V30 299 H 27.2857 1.74982 -5.20262 0
M  V30 300 H 27.5467 2.50886 -3.64018 0
M  V30 301 N 26.6058 1.57591 -0.0167156 0
M  V30 302 C 27.8518 1.91567 0.665582 0
M  V30 303 C 28.1848 0.892298 1.72487 0
M  V30 304 O 27.4598 -0.0867127 1.94307 0
M  V30 305 C 27.7428 3.36069 1.29342 0
M  V30 306 C 27.5958 4.49135 0.244541 0
M  V30 307 C 28.9148 3.803 2.21495 0
M  V30 308 H 26.0338 0.69666 0.240488 0
M  V30 309 H 28.6758 1.89866 -0.0714356 0
M  V30 310 H 26.8258 3.3765 1.92158 0
M  V30 311 H 28.4978 4.59689 -0.385228 0
M  V30 312 H 26.7408 4.3165 -0.431379 0
M  V30 313 H 27.4118 5.47242 0.723207 0
M  V30 314 H 29.8878 3.80377 1.68678 0
M  V30 315 H 28.7638 4.82127 2.62382 0
M  V30 316 H 29.0248 3.15104 3.101 0
M  V30 317 N 28.0839 -0.256276 1.55502 0
M  V30 318 C 28.9939 -1.33882 1.92647 0
M  V30 319 C 30.0099 -1.53159 0.825727 0
M  V30 320 O 31.1859 -1.66963 1.12629 0
M  V30 321 C 28.2509 -2.6751 2.20543 0
M  V30 322 C 27.3119 -2.56836 3.43997 0
M  V30 323 C 26.5449 -3.84092 3.70553 0
M  V30 324 O 26.7679 -4.85545 2.99336 0
M  V30 325 O 25.7019 -3.83288 4.64084 0
M  V30 326 H 29.5279 -1.05374 2.84833 0
M  V30 327 H 27.1129 -0.456237 1.42263 0
M  V30 328 H 28.9949 -3.46492 2.39835 0
M  V30 329 H 27.6699 -2.9577 1.31536 0
M  V30 330 H 26.5769 -1.76172 3.30021 0
M  V30 331 H 27.9099 -2.33523 4.33275 0
M  V30 332 N 29.562 -1.4872 -0.521534 0
M  V30 333 C 30.978 -1.35028 -0.850855 0
M  V30 334 C 31.178 -0.367712 -1.98116 0
M  V30 335 O 30.234 0.208037 -2.51642 0
M  V30 336 C 31.547 -2.75263 -1.21041 0
M  V30 337 C 33.095 -2.83813 -1.31981 0
M  V30 338 C 33.57 -4.24769 -1.71276 0
M  V30 339 N 35.061 -4.27482 -1.78363 0
M  V30 340 C 35.796 -5.33494 -2.1017 0
M  V30 341 N 35.292 -6.49775 -2.40343 0
M  V30 342 N 37.085 -5.20894 -2.11248 0
M  V30 343 H 29.236 -2.11214 0.22413 0
M  V30 344 H 31.499 -0.947252 0.0376439 0
M  V30 345 H 31.205 -3.48765 -0.453415 0
M  V30 346 H 31.079 -3.09327 -2.15863 0
M  V30 347 H 33.466 -2.10561 -2.06756 0
M  V30 348 H 33.547 -2.53358 -0.352596 0
M  V30 349 H 33.191 -4.9854 -0.970588 0
M  V30 350 H 33.121 -4.52673 -2.69062 0
M  V30 351 H 35.612 -3.43611 -1.57288 0
M  V30 352 H 35.925 -7.26402 -2.63743 0
M  V30 353 H 34.27 -6.53035 -2.37844 0
M  V30 354 H 37.461 -4.29065 -1.87139 0
M  V30 355 H 37.634 -6.03612 -2.35704 0
M  V30 356 N 31.0401 0.771051 -1.3745 0
M  V30 357 C 32.2861 1.5319 -1.32894 0
M  V30 358 C 32.6191 1.94008 0.0862511 0
M  V30 359 O 31.8941 1.64124 1.04373 0
M  V30 360 C 32.1771 2.79648 -2.26868 0
M  V30 361 C 32.0301 2.45079 -3.77169 0
M  V30 362 C 33.3491 3.81583 -2.19277 0
M  V30 363 H 30.4681 0.555744 -0.484064 0
M  V30 364 H 33.1101 0.884492 -1.68157 0
M  V30 365 H 31.2601 3.34891 -1.96926 0
M  V30 366 H 32.9321 1.95745 -4.1771 0
M  V30 367 H 31.1751 1.77767 -3.95704 0
M  V30 368 H 31.8461 3.35478 -4.38359 0
M  V30 369 H 34.3221 3.35835 -2.45671 0
M  V30 370 H 33.1981 4.67787 -2.87171 0
M  V30 371 H 33.4591 4.25897 -1.18592 0
M  V30 372 N 32.5182 1.22032 0.997298 0
M  V30 373 C 33.4282 1.00271 2.12092 0
M  V30 374 C 34.4442 -0.047621 1.73935 0
M  V30 375 O 35.6202 0.144136 2.00884 0
M  V30 376 C 32.6852 0.578449 3.4184 0
M  V30 377 C 31.7462 1.70189 3.94125 0
M  V30 378 C 30.9792 1.29778 5.17681 0
M  V30 379 O 31.2022 0.174676 5.70132 0
M  V30 380 O 30.1362 2.11261 5.63607 0
M  V30 381 H 33.9622 1.94398 2.3333 0
M  V30 382 H 31.5472 1.00587 1.10465 0
M  V30 383 H 33.4292 0.351998 4.19927 0
M  V30 384 H 32.1042 -0.334019 3.21972 0
M  V30 385 H 31.0112 1.98282 3.1723 0
M  V30 386 H 32.3442 2.59206 4.18417 0
M  V30 387 N 33.9963 -1.19345 1.0293 0
M  V30 388 C 34.9593 -2.20793 0.615069 0
M  V30 389 C 35.9593 -1.57553 -0.321533 0
M  V30 390 O 37.1493 -1.73862 -0.108483 0
M  V30 391 C 34.2813 -3.40754 -0.0999222 0
M  V30 392 H 35.4743 -2.58955 1.51269 0
M  V30 393 H 33.0273 -1.3303 0.820534 0
M  V30 394 H 33.7623 -3.0811 -1.01187 0
M  V30 395 H 33.5473 -3.87889 0.57309 0
M  V30 396 H 35.0373 -4.15898 -0.376645 0
M  V30 397 N 35.4744 -0.807222 -1.35358 0
M  V30 398 C 36.7224 -0.387122 -1.98358 0
M  V30 399 C 37.0434 1.04942 -1.64354 0
M  V30 400 O 36.3134 1.72615 -0.926339 0
M  V30 401 H 34.8934 -0.140154 -0.733734 0
M  V30 402 H 37.5554 -1.0332 -1.6526 0
M  V30 403 H 36.6514 -0.493352 -3.08176 0
M  V30 404 N 36.9525 1.47285 -0.560781 0
M  V30 405 C 38.2005 2.02064 -0.0379868 0
M  V30 406 C 38.5215 1.43711 1.31803 0
M  V30 407 O 37.7915 0.61362 1.86042 0
M  V30 408 H 36.3715 0.746918 -0.0110531 0
M  V30 409 H 39.0335 1.80648 -0.731598 0
M  V30 410 H 38.1295 3.12064 0.0474463 0
M  V30 411 N 38.4306 0.297415 1.54768 0
M  V30 412 C 39.6786 -0.312295 1.99673 0
M  V30 413 C 39.9996 -1.54686 1.18732 0
M  V30 414 O 39.2696 -1.93854 0.282382 0
M  V30 415 H 37.8496 -0.118381 0.73756 0
M  V30 416 H 40.5116 0.407915 1.90583 0
M  V30 417 H 39.6076 -0.586813 3.06534 0
M  V30 418 N 39.9087 -1.5758 0.0250728 0
M  V30 419 C 41.1547 -1.91917 -0.655413 0
M  V30 420 C 41.4877 -0.901433 -1.72011 0
M  V30 421 O 40.7627 0.0764069 -1.9435 0
M  V30 422 C 41.0457 -3.36751 -1.27558 0
M  V30 423 C 40.8987 -4.49258 -0.220719 0
M  V30 424 C 42.2177 -3.81469 -2.19475 0
M  V30 425 H 39.3367 -0.697925 -0.23679 0
M  V30 426 H 41.9787 -1.89825 0.0815036 0
M  V30 427 H 40.1287 -3.38664 -1.90365 0
M  V30 428 H 41.8007 -4.59478 0.409601 0
M  V30 429 H 40.0437 -4.31415 0.454264 0
M  V30 430 H 40.7147 -5.47618 -0.694175 0
M  V30 431 H 43.1907 -3.81266 -1.66659 0
M  V30 432 H 42.0667 -4.83512 -2.59822 0
M  V30 433 H 42.3277 -3.16744 -3.08424 0
M  V30 434 N 41.3868 0.248026 -1.55636 0
M  V30 435 C 42.6348 0.974295 -1.77065 0
M  V30 436 C 42.9558 1.85897 -0.588849 0
M  V30 437 O 42.2258 1.91868 0.395407 0
M  V30 438 H 40.8058 0.362733 -0.653019 0
M  V30 439 H 43.4678 0.266244 -1.93073 0
M  V30 440 H 42.5638 1.59667 -2.68166 0
M  V30 441 N 42.8649 1.48995 0.513639 0
M  V30 442 C 44.2759 1.5119 1.09537 0
M  V30 443 C 44.6269 0.290906 1.94031 0
M  V30 444 O 43.7519 -0.60049 2.07902 0
M  V30 445 C 44.3469 2.73964 1.99322 0
M  V30 446 C 42.9059 2.78978 2.52682 0
M  V30 447 C 42.0529 2.44934 1.30009 0
M  V30 448 H 45.0039 1.55875 0.298125 0
M  V30 449 H 45.0249 2.53409 2.83838 0
M  V30 450 H 44.5369 3.62813 1.37799 0
M  V30 451 H 42.6379 1.94378 3.1788 0
M  V30 452 H 42.7509 3.8083 2.90698 0
M  V30 453 H 41.1149 1.9644 1.62122 0
M  V30 454 H 41.8979 3.36043 0.702131 0
M  V30 455 N 44.343 -0.763751 1.37857 0
M  V30 456 C 45.59 -1.52257 1.33506 0
M  V30 457 C 45.918 -1.94343 -0.078022 0
M  V30 458 O 45.173 -1.64958 -1.05297 0
M  V30 459 C 45.472 -2.79499 2.22745 0
M  V30 460 C 45.138 -2.56426 3.70886 0
M  V30 461 C 43.8 -2.49842 4.11257 0
M  V30 462 C 46.152 -2.36008 4.64704 0
M  V30 463 C 43.48 -2.20841 5.43549 0
M  V30 464 C 45.832 -2.0853 5.97242 0
M  V30 465 C 44.496 -2.00396 6.36709 0
M  V30 466 H 43.766 -0.557149 0.488534 0
M  V30 467 H 46.413 -0.879073 1.70131 0
M  V30 468 H 44.718 -3.48447 1.79142 0
M  V30 469 H 46.415 -3.37413 2.16688 0
M  V30 470 H 43.005 -2.62416 3.38874 0
M  V30 471 H 47.189 -2.40079 4.34368 0
M  V30 472 H 42.445 -2.13045 5.73081 0
M  V30 473 H 46.619 -1.91732 6.69486 0
M  V30 474 H 44.246 -1.77688 7.39142 0
M  V30 475 N 45.8211 -1.22559 -0.990812 0
M  V30 476 C 46.7531 -0.955325 -2.08342 0
M  V30 477 C 47.7661 0.0668408 -1.62663 0
M  V30 478 O 48.9551 -0.167421 -1.77713 0
M  V30 479 C 46.0551 -0.415566 -3.36342 0
M  V30 480 C 45.2281 -1.49544 -4.11042 0
M  V30 481 C 44.2871 -0.962399 -5.17324 0
M  V30 482 O 43.3131 -1.64907 -5.44788 0
M  V30 483 N 44.5151 0.215134 -5.80101 0
M  V30 484 H 47.2801 -1.89596 -2.32106 0
M  V30 485 H 44.8411 -1.13276 -1.15673 0
M  V30 486 H 46.8331 -0.0442386 -4.04676 0
M  V30 487 H 45.4031 0.430232 -3.09625 0
M  V30 488 H 44.6231 -2.04 -3.37309 0
M  V30 489 H 45.9111 -2.22195 -4.57719 0
M  V30 490 H 45.3091 0.789779 -5.6016 0
M  V30 491 H 43.8661 0.527826 -6.49659 0
M  V30 492 N 47.2992 1.18797 -1.03562 0
M  V30 493 C 48.2622 2.20464 -0.626769 0
M  V30 494 C 49.2622 1.57721 0.313173 0
M  V30 495 O 50.4522 1.73917 0.0992615 0
M  V30 496 C 47.5842 3.40802 0.0818498 0
M  V30 497 H 48.7772 2.58149 -1.5264 0
M  V30 498 H 46.3302 1.32593 -0.827578 0
M  V30 499 H 47.0652 3.08642 0.995518 0
M  V30 500 H 46.8502 3.8758 -0.593652 0
M  V30 501 H 48.3402 4.16092 0.354584 0
M  V30 502 N 48.7773 0.814389 1.34928 0
M  V30 503 C 50.0173 0.404165 2.00364 0
M  V30 504 C 50.3813 -1.01166 1.63185 0
M  V30 505 O 51.5823 -1.52431 2.21401 0
M  V30 506 C 49.8533 0.590718 3.52484 0
M  V30 507 S 51.4123 0.272075 4.37956 0
M  V30 508 H 48.2303 0.15311 0.694319 0
M  V30 509 H 50.8323 1.05834 1.64376 0
M  V30 510 H 49.5363 1.62099 3.77031 0
M  V30 511 H 49.0673 -0.0785013 3.93322 0
M  V30 512 H 51.0823 -0.917405 4.87645 0
M  V30 513 N 50.2554 -1.46986 0.568584 0
M  V30 514 C 51.5034 -2.02041 0.0487022 0
M  V30 515 C 51.8244 -1.44408 -1.31039 0
M  V30 516 O 51.0944 -0.623477 -1.85714 0
M  V30 517 H 49.6744 -0.746849 0.015014 0
M  V30 518 H 52.3364 -1.80257 0.741168 0
M  V30 519 H 51.4324 -3.12085 -0.0308961 0
M  V30 520 N 51.7335 -0.305618 -1.54608 0
M  V30 521 C 52.9735 0.303114 -2.0214 0
M  V30 522 C 53.3375 1.50737 -1.18921 0
M  V30 523 O 54.5385 2.18778 -1.56172 0
M  V30 524 C 52.8095 0.646332 -3.51507 0
M  V30 525 S 54.3685 1.23727 -4.20995 0
M  V30 526 H 51.1865 0.0927643 -0.704923 0
M  V30 527 H 53.7885 -0.434566 -1.90609 0
M  V30 528 H 52.4925 -0.238541 -4.09706 0
M  V30 529 H 52.0235 1.41468 -3.67084 0
M  V30 530 H 54.0385 2.52489 -4.27158 0
M  V30 531 N 53.2116 1.57565 -0.0334293 0
M  V30 532 C 54.6276 1.56297 0.322997 0
M  V30 533 C 54.8276 1.03945 1.7262 0
M  V30 534 O 53.8836 0.688109 2.42943 0
M  V30 535 C 55.1966 3.00232 0.167664 0
M  V30 536 C 56.7446 3.12078 0.240107 0
M  V30 537 C 57.2196 4.57859 0.113513 0
M  V30 538 N 58.7106 4.62887 0.170359 0
M  V30 539 C 59.4456 5.73319 0.0962517 0
M  V30 540 N 58.9416 6.92794 -0.0291881 0
M  V30 541 N 60.7346 5.61898 0.150551 0
M  V30 542 H 52.8856 1.89923 -0.950956 0
M  V30 543 H 55.1486 0.873824 -0.367608 0
M  V30 544 H 54.8546 3.42501 -0.799102 0
M  V30 545 H 54.7286 3.654 0.936083 0
M  V30 546 H 57.1156 2.69718 1.19733 0
M  V30 547 H 57.1966 2.49623 -0.558763 0
M  V30 548 H 56.8406 5.009 -0.840314 0
M  V30 549 H 56.7706 5.18299 0.931302 0
M  V30 550 H 59.2616 3.76954 0.26728 0
M  V30 551 H 59.5746 7.7276 -0.0789252 0
M  V30 552 H 57.9196 6.94971 -0.0640299 0
M  V30 553 H 61.1106 4.67448 0.246981 0
M  V30 554 H 61.2836 6.47938 0.0893365 0
M  V30 555 N 54.6897 -0.239769 1.55765 0
M  V30 556 C 55.6197 -1.30052 1.9393 0
M  V30 557 C 56.6007 -1.49839 0.805132 0
M  V30 558 O 57.7857 -1.62328 1.06599 0
M  V30 559 C 54.9157 -2.65391 2.2402 0
M  V30 560 C 53.8697 -2.60289 3.39755 0
M  V30 561 C 53.1957 -3.99489 3.55405 0
M  V30 562 C 54.4957 -2.16654 4.75246 0
M  V30 563 H 56.1897 -0.983573 2.82783 0
M  V30 564 H 53.7357 -0.471701 1.36055 0
M  V30 565 H 55.6887 -3.3974 2.49308 0
M  V30 566 H 54.4127 -2.98736 1.32 0
M  V30 567 H 53.0717 -1.88398 3.14487 0
M  V30 568 H 52.7197 -4.30112 2.60793 0
M  V30 569 H 52.4197 -3.96962 4.33238 0
M  V30 570 H 53.9437 -4.75528 3.83022 0
M  V30 571 H 55.3577 -2.80737 4.99859 0
M  V30 572 H 53.7547 -2.25223 5.56232 0
M  V30 573 H 54.8247 -1.11835 4.71827 0
M  V30 574 N 56.1678 -1.49265 -0.50573 0
M  V30 575 C 57.4138 -1.58748 -1.26202 0
M  V30 576 C 57.7468 -0.271227 -1.92297 0
M  V30 577 O 57.0218 0.724831 -1.80489 0
M  V30 578 C 57.3048 -2.74332 -2.33268 0
M  V30 579 C 57.1578 -4.15737 -1.71705 0
M  V30 580 C 58.4768 -2.85576 -3.34865 0
M  V30 581 H 55.5958 -0.577826 -0.457478 0
M  V30 582 H 58.2378 -1.81532 -0.560897 0
M  V30 583 H 56.3878 -2.55036 -2.93068 0
M  V30 584 H 58.0598 -4.46537 -1.15769 0
M  V30 585 H 56.3028 -4.21605 -1.02135 0
M  V30 586 H 56.9738 -4.92477 -2.49341 0
M  V30 587 H 59.4498 -3.03127 -2.8505 0
M  V30 588 H 58.3258 -3.68135 -4.07146 0
M  V30 589 H 58.5868 -1.94732 -3.96903 0
M  V30 590 N 57.6459 0.756429 -1.3826 0
M  V30 591 C 58.5759 1.88374 -1.37976 0
M  V30 592 C 59.5569 1.68311 -0.246082 0
M  V30 593 O 60.7419 1.88944 -0.44874 0
M  V30 594 C 57.8719 3.25864 -1.20125 0
M  V30 595 C 56.8259 3.60523 -2.30666 0
M  V30 596 C 56.1519 4.9672 -1.97923 0
M  V30 597 C 57.4519 3.65692 -3.72916 0
M  V30 598 H 59.1459 1.88869 -2.32312 0
M  V30 599 H 56.6919 0.907272 -1.11824 0
M  V30 600 H 58.6449 4.0438 -1.18552 0
M  V30 601 H 57.3689 3.25841 -0.222498 0
M  V30 602 H 56.0279 2.84324 -2.3142 0
M  V30 603 H 55.6759 4.93253 -0.985393 0
M  V30 604 H 55.3759 5.20878 -2.71955 0
M  V30 605 H 56.8999 5.77618 -1.97964 0
M  V30 606 H 58.3139 4.34328 -3.74208 0
M  V30 607 H 56.7109 4.01358 -4.4613 0
M  V30 608 H 57.7809 2.65987 -4.05436 0
M  V30 609 N 59.124 1.23083 0.984299 0
M  V30 610 C 60.372 1.05848 1.72165 0
M  V30 611 C 60.693 -0.406049 1.90726 0
M  V30 612 O 59.963 -1.29139 1.47309 0
M  V30 613 H 58.543 0.388685 0.637913 0
M  V30 614 H 61.205 1.54736 1.18503 0
M  V30 615 H 60.301 1.54327 2.71274 0
M  V30 616 N 60.6021 -1.18246 1.0419 0
M  V30 617 C 61.8501 -1.87886 0.744543 0
M  V30 618 C 62.1711 -1.8082 -0.730006 0
M  V30 619 O 61.4411 -1.22736 -1.52685 0
M  V30 620 H 60.0211 -0.695556 0.272417 0
M  V30 621 H 62.6831 -1.43494 1.31892 0
M  V30 622 H 61.7791 -2.9389 1.05049 0
M  V30 623 N 62.0802 -0.821533 -1.34494 0
M  V30 624 C 63.4962 -0.507117 -1.51329 0
M  V30 625 C 63.6962 0.968964 -1.76673 0
M  V30 626 O 62.7522 1.75348 -1.81685 0
M  V30 627 C 64.0652 -1.36544 -2.67911 0
M  V30 628 C 65.6132 -1.36242 -2.81793 0
M  V30 629 C 66.0882 -2.2052 -4.01416 0
M  V30 630 N 67.5792 -2.18136 -4.08621 0
M  V30 631 C 68.3142 -2.80095 -5.00334 0
M  V30 632 N 67.8102 -3.51039 -5.9728 0
M  V30 633 N 69.6032 -2.69656 -4.93196 0
M  V30 634 H 61.7542 -1.77729 -1.16302 0
M  V30 635 H 64.0172 -0.757291 -0.570276 0
M  V30 636 H 63.7232 -2.41361 -2.55808 0
M  V30 637 H 63.5972 -1.02917 -3.62888 0
M  V30 638 H 65.9842 -0.322041 -2.93338 0
M  V30 639 H 66.0652 -1.73866 -1.87628 0
M  V30 640 H 65.7092 -3.24607 -3.90631 0
M  V30 641 H 65.6392 -1.80247 -4.94791 0
M  V30 642 H 68.1302 -1.6653 -3.39229 0
M  V30 643 H 68.4432 -3.95565 -6.63889 0
M  V30 644 H 66.7882 -3.55145 -5.97409 0
M  V30 645 H 69.9792 -2.13808 -4.16418 0
M  V30 646 H 70.1522 -3.1823 -5.64476 0
M  V30 647 N 63.5583 1.46682 -0.576371 0
M  V30 648 C 64.8353 1.95599 0.00703437 0
M  V30 649 C 65.2153 1.51904 1.46589 0
M  V30 650 O 64.5633 0.766755 2.15251 0
M  V30 651 C 64.7733 3.4864 -0.158404 0
M  V30 652 C 66.1213 4.24594 -0.0229439 0
M  V30 653 O 67.1453 3.56094 -0.0869173 0
M  V30 654 O 66.0043 5.46373 0.118015 0
M  V30 655 H 63.0983 0.825275 0.053384 0
M  V30 656 H 65.6443 1.56996 -0.644244 0
M  V30 657 H 64.4163 3.7331 -1.17282 0
M  V30 658 H 64.0393 3.94057 0.5296 0
M  V30 659 N 65.0364 0.313813 1.54444 0
M  V30 660 C 66.3134 -0.345447 1.92525 0
M  V30 661 C 66.6934 -1.70667 1.24242 0
M  V30 662 O 66.0414 -2.25273 0.382654 0
M  V30 663 C 66.2514 -0.44737 3.46121 0
M  V30 664 C 67.5994 -0.712238 4.18584 0
M  V30 665 O 68.6234 -0.530678 3.52225 0
M  V30 666 O 67.4824 -1.06183 5.36085 0
M  V30 667 H 64.5764 -0.195407 0.803583 0
M  V30 668 H 67.1224 0.362813 1.65776 0
M  V30 669 H 65.8944 0.509043 3.87975 0
M  V30 670 H 65.5174 -1.20359 3.78945 0
M  V30 671 N 66.5145 -1.57545 0.0417849 0
M  V30 672 C 67.7605 -1.92601 -0.635021 0
M  V30 673 C 68.0935 -0.919627 -1.71045 0
M  V30 674 O 67.3685 0.0557892 -1.9442 0
M  V30 675 C 67.6515 -3.38085 -1.23979 0
M  V30 676 C 67.5045 -4.49467 -0.173057 0
M  V30 677 C 68.8235 -3.83776 -2.15416 0
M  V30 678 H 65.9425 -0.700397 -0.229374 0
M  V30 679 H 68.5845 -1.89728 0.101633 0
M  V30 680 H 66.7345 -3.40664 -1.86762 0
M  V30 681 H 68.4065 -4.59018 0.458312 0
M  V30 682 H 66.6495 -4.30909 0.499996 0
M  V30 683 H 67.3205 -5.48323 -0.636054 0
M  V30 684 H 69.7965 -3.83013 -1.62605 0
M  V30 685 H 68.6725 -4.8624 -2.54679 0
M  V30 686 H 68.9335 -3.19998 -3.05047 0
M  V30 687 N 67.9926 0.231505 -1.5589 0
M  V30 688 C 69.2176 0.978689 -1.82856 0
M  V30 689 C 69.6426 1.77559 -0.620846 0
M  V30 690 O 69.0006 1.76119 0.430305 0
M  V30 691 C 69.0486 1.87997 -3.07716 0
M  V30 692 O 68.1526 2.97393 -2.85712 0
M  V30 693 H 67.4936 0.277663 -0.603158 0
M  V30 694 H 70.0236 0.24783 -2.03093 0
M  V30 695 H 70.0336 2.2917 -3.37558 0
M  V30 696 H 68.7086 1.29417 -3.95252 0
M  V30 697 H 67.2856 2.60238 -2.67078 0
M  V30 698 N 69.4707 1.49531 0.497807 0
M  V30 699 C 70.4337 1.65916 1.58128 0
M  V30 700 C 71.4337 0.530825 1.51786 0
M  V30 701 O 72.6237 0.797342 1.54881 0
M  V30 702 C 69.7557 1.65951 2.9778 0
M  V30 703 H 70.9487 2.62556 1.44929 0
M  V30 704 H 68.5017 1.38611 0.722275 0
M  V30 705 H 69.2367 0.709065 3.16453 0
M  V30 706 H 69.0217 2.47897 3.03792 0
M  V30 707 H 70.5117 1.80673 3.76493 0
M  V30 708 N 70.9488 -0.749086 1.3866 0
M  V30 709 C 72.1968 -1.50535 1.34847 0
M  V30 710 C 72.5178 -1.94909 -0.0595016 0
M  V30 711 O 71.7878 -1.67973 -1.00806 0
M  V30 712 H 70.3678 -0.558395 0.49619 0
M  V30 713 H 73.0298 -0.890165 1.73384 0
M  V30 714 H 72.1258 -2.39413 2.00219 0
M  V30 715 N 72.4269 -1.23603 -0.977757 0
M  V30 716 C 73.3569 -1.04401 -2.0886 0
M  V30 717 C 74.3379 0.0399052 -1.70053 0
M  V30 718 O 75.5229 -0.125246 -1.93796 0
M  V30 719 C 72.6529 -0.637269 -3.41403 0
M  V30 720 C 71.6069 -1.66883 -3.94124 0
M  V30 721 C 70.9329 -1.11745 -5.22893 0
M  V30 722 C 72.2329 -3.06247 -4.23096 0
M  V30 723 H 73.9269 -1.97316 -2.25182 0
M  V30 724 H 71.4729 -0.950096 -1.08209 0
M  V30 725 H 73.4259 -0.48998 -4.18542 0
M  V30 726 H 72.1499 0.327557 -3.24953 0
M  V30 727 H 70.8089 -1.80416 -3.19133 0
M  V30 728 H 70.4569 -0.143527 -5.02795 0
M  V30 729 H 70.1569 -1.80672 -5.59134 0
M  V30 730 H 71.6809 -0.982067 -6.02651 0
M  V30 731 H 73.0949 -2.96001 -4.90975 0
M  V30 732 H 71.4919 -3.72436 -4.70544 0
M  V30 733 H 72.5619 -3.55041 -3.30263 0
M  V30 734 N 73.905 1.17692 -1.04816 0
M  V30 735 C 75.321 1.39863 -0.768794 0
M  V30 736 C 75.521 1.91118 0.638451 0
M  V30 737 O 74.577 2.10036 1.40146 0
M  V30 738 C 75.89 2.39274 -1.82122 0
M  V30 739 C 77.438 2.52987 -1.843 0
M  V30 740 C 77.913 3.55669 -2.88555 0
M  V30 741 N 79.404 3.63183 -2.87493 0
M  V30 742 C 80.139 4.42381 -3.64811 0
M  V30 743 N 79.635 5.25125 -4.51903 0
M  V30 744 N 81.428 4.37217 -3.53267 0
M  V30 745 H 73.579 0.82752 -1.95617 0
M  V30 746 H 75.842 0.426123 -0.846831 0
M  V30 747 H 75.548 2.08678 -2.83102 0
M  V30 748 H 75.422 3.38725 -1.65967 0
M  V30 749 H 77.809 2.82896 -0.839869 0
M  V30 750 H 77.89 1.53623 -2.04532 0
M  V30 751 H 77.534 3.26499 -3.89051 0
M  V30 752 H 77.464 4.54728 -2.65575 0
M  V30 753 H 79.955 3.04103 -2.24343 0
M  V30 754 H 80.268 5.82728 -5.07591 0
M  V30 755 H 78.613 5.24519 -4.55966 0
M  V30 756 H 81.804 3.71626 -2.84625 0
M  V30 757 H 81.977 4.98696 -4.13771 0
M  V30 758 N 75.3831 0.828654 1.34056 0
M  V30 759 C 76.6311 0.41863 1.97717 0
M  V30 760 C 76.9521 -1.02314 1.66002 0
M  V30 761 O 76.2221 -1.71119 0.953683 0
M  V30 762 H 74.8021 0.151809 0.731412 0
M  V30 763 H 77.4641 1.05936 1.63596 0
M  V30 764 H 76.5601 0.542318 3.07352 0
M  V30 765 N 76.8612 -1.46375 0.584142 0
M  V30 766 C 78.0862 -2.07268 0.0740405 0
M  V30 767 C 78.5112 -1.42979 -1.22223 0
M  V30 768 O 77.8692 -0.514092 -1.73859 0
M  V30 769 C 77.9172 -3.60518 -0.0767769 0
M  V30 770 O 77.0212 -3.96533 -1.13292 0
M  V30 771 H 76.3622 -0.660961 0.0634524 0
M  V30 772 H 78.8922 -1.87991 0.807492 0
M  V30 773 H 78.9022 -4.07021 -0.282489 0
M  V30 774 H 77.5772 -4.06702 0.86986 0
M  V30 775 H 76.1542 -3.61738 -0.905553 0
M  V30 776 N 78.3393 -0.321999 -1.54275 0
M  V30 777 C 79.2893 0.560185 -2.21011 0
M  V30 778 C 80.2733 1.08283 -1.19011 0
M  V30 779 O 81.4653 1.02011 -1.44647 0
M  V30 780 C 78.5943 1.72137 -2.97025 0
M  V30 781 C 77.6803 1.21369 -4.06363 0
M  V30 782 N 78.0713 0.425566 -5.04007 0
M  V30 783 C 76.3693 1.49255 -4.20284 0
M  V30 784 C 77.0703 0.152601 -5.815 0
M  V30 785 N 76.0463 0.738294 -5.38563 0
M  V30 786 H 79.8483 -0.049265 -2.93859 0
M  V30 787 H 77.3623 -0.127779 -1.61897 0
M  V30 788 H 79.3593 2.36512 -3.43319 0
M  V30 789 H 78.0193 2.33431 -2.25699 0
M  V30 790 H 79.0303 0.068551 -5.17855 0
M  V30 791 H 75.7073 2.11145 -3.60172 0
M  V30 792 H 77.0973 -0.481764 -6.70171 0
M  V30 793 N 79.8174 1.5752 -0.0501392 0
M  V30 794 C 81.0654 1.9227 0.622642 0
M  V30 795 C 81.3864 0.929083 1.71444 0
M  V30 796 O 80.6564 -0.0262186 1.95882 0
M  V30 797 H 79.2364 0.709739 0.232981 0
M  V30 798 H 81.8984 1.94628 -0.102898 0
M  V30 799 H 80.9944 2.93479 1.06191 0
M  V30 800 N 81.2955 -0.223234 1.56011 0
M  V30 801 C 82.2585 -1.26014 1.9145 0
M  V30 802 C 83.2585 -1.3989 0.792937 0
M  V30 803 O 84.4485 -1.38184 1.0607 0
M  V30 804 C 81.5805 -2.63422 2.16383 0
M  V30 805 H 82.7735 -0.95796 2.84189 0
M  V30 806 H 80.3265 -0.463576 1.49267 0
M  V30 807 H 81.0615 -2.98741 1.2619 0
M  V30 808 H 80.8465 -2.54728 2.98088 0
M  V30 809 H 82.3365 -3.38249 2.44903 0
M  V30 810 N 82.7736 -1.49793 -0.48987 0
M  V30 811 C 84.1896 -1.36803 -0.822022 0
M  V30 812 C 84.3896 -0.409652 -1.97292 0
M  V30 813 O 83.4456 0.154614 -2.52026 0
M  V30 814 C 84.7586 -2.77768 -1.15175 0
M  V30 815 C 86.3066 -2.86549 -1.25931 0
M  V30 816 C 86.7816 -4.28306 -1.62228 0
M  V30 817 N 88.2726 -4.31169 -1.69256 0
M  V30 818 C 89.0076 -5.37832 -1.98807 0
M  V30 819 N 88.5036 -6.54726 -2.26507 0
M  V30 820 N 90.2966 -5.25258 -2.00152 0
M  V30 821 H 82.4476 -2.10691 0.268881 0
M  V30 822 H 84.7106 -0.946241 0.057728 0
M  V30 823 H 84.4166 -3.49648 -0.379335 0
M  V30 824 H 84.2906 -3.13836 -2.09253 0
M  V30 825 H 86.6776 -2.14899 -2.02243 0
M  V30 826 H 86.7586 -2.54049 -0.298776 0
M  V30 827 H 86.4026 -5.00486 -0.864622 0
M  V30 828 H 86.3326 -4.58279 -2.594 0
M  V30 829 H 88.8236 -3.4687 -1.49965 0
M  V30 830 H 89.1366 -7.31833 -2.48276 0
M  V30 831 H 87.4816 -6.57933 -2.23939 0
M  V30 832 H 90.6726 -4.32938 -1.77996 0
M  V30 833 H 90.8456 -6.08476 -2.22848 0
M  V30 834 N 84.2517 0.741722 -1.39055 0
M  V30 835 C 85.4997 1.49818 -1.35643 0
M  V30 836 C 85.8207 1.94938 0.0491642 0
M  V30 837 O 85.0907 1.68505 0.999141 0
M  V30 838 H 83.6707 0.555755 -0.499144 0
M  V30 839 H 86.3327 0.880957 -1.73854 0
M  V30 840 H 85.4287 2.38348 -2.01486 0
M  V30 841 N 85.7298 1.2412 0.971189 0
M  V30 842 C 86.6398 1.04747 2.09917 0
M  V30 843 C 87.6558 -0.0107162 1.73997 0
M  V30 844 O 88.8318 0.186714 2.00533 0
M  V30 845 C 85.8968 0.650828 3.40537 0
M  V30 846 C 84.9578 1.7851 3.90426 0
M  V30 847 C 84.1908 1.40729 5.14812 0
M  V30 848 O 84.4138 0.29557 5.69634 0
M  V30 849 O 83.3478 2.23168 5.58999 0
M  V30 850 H 87.1738 1.99304 2.29154 0
M  V30 851 H 84.7588 1.02908 1.08307 0
M  V30 852 H 86.6408 0.440992 4.19086 0
M  V30 853 H 85.3158 -0.265649 3.22608 0
M  V30 854 H 84.2228 2.04966 3.12953 0
M  V30 855 H 85.5558 2.68023 4.12825 0
M  V30 856 N 87.2079 -1.17134 1.05439 0
M  V30 857 C 88.6189 -1.69084 0.791676 0
M  V30 858 C 88.9699 -1.83822 -0.685839 0
M  V30 859 O 88.0949 -1.52757 -1.53278 0
M  V30 860 C 88.6899 -3.07119 1.4305 0
M  V30 861 C 87.2489 -3.56225 1.21577 0
M  V30 862 C 86.3959 -2.32421 1.51247 0
M  V30 863 H 89.3469 -1.01617 1.219 0
M  V30 864 H 89.3679 -3.71087 0.84112 0
M  V30 865 H 88.8799 -2.9636 2.50584 0
M  V30 866 H 86.9809 -3.72257 0.159787 0
M  V30 867 H 87.0939 -4.38837 1.92246 0
M  V30 868 H 85.4579 -2.3701 0.932653 0
M  V30 869 H 86.2409 -2.24268 2.5992 0
M  V30 870 N 88.686 -0.835752 -1.33615 0
M  V30 871 C 89.616 -0.281739 -2.31794 0
M  V30 872 C 90.597 0.608833 -1.58831 0
M  V30 873 O 91.782 0.533035 -1.86741 0
M  V30 874 C 88.912 0.546612 -3.42971 0
M  V30 875 C 87.866 -0.247904 -4.27281 0
M  V30 876 C 87.192 0.704001 -5.30045 0
M  V30 877 C 88.492 -1.46324 -5.01385 0
M  V30 878 H 90.186 -1.10206 -2.78379 0
M  V30 879 H 87.732 -0.531388 -1.33837 0
M  V30 880 H 89.685 0.944467 -4.1068 0
M  V30 881 H 88.409 1.40011 -2.95067 0
M  V30 882 H 87.068 -0.627281 -3.61194 0
M  V30 883 H 86.716 1.55381 -4.78399 0
M  V30 884 H 86.416 0.176524 -5.87335 0
M  V30 885 H 87.94 1.09944 -6.0062 0
M  V30 886 H 89.354 -1.13871 -5.61877 0
M  V30 887 H 87.751 -1.92728 -5.6831 0
M  V30 888 H 88.821 -2.23467 -4.30338 0
M  V30 889 N 90.1641 1.46063 -0.591896 0
M  V30 890 C 91.4411 1.95595 -0.0137119 0
M  V30 891 C 91.8211 1.5345 1.4497 0
M  V30 892 O 91.1691 0.789543 2.14426 0
M  V30 893 C 91.3791 3.48453 -0.195373 0
M  V30 894 C 92.7271 4.24546 -0.0679765 0
M  V30 895 O 93.7511 3.55982 -0.124681 0
M  V30 896 O 92.6101 5.46467 0.0600579 0
M  V30 897 H 89.7041 0.825795 0.0446279 0
M  V30 898 H 92.2501 1.56303 -0.660859 0
M  V30 899 H 91.0221 3.72045 -1.21235 0
M  V30 900 H 90.6451 3.94597 0.487775 0
M  V30 901 N 91.6422 0.330177 1.54103 0
M  V30 902 C 93.0532 -0.15652 1.86043 0
M  V30 903 C 93.4042 -1.51086 1.2517 0
M  V30 904 O 92.5292 -2.09023 0.560217 0
M  V30 905 C 93.1242 -0.290784 3.3755 0
M  V30 906 C 91.6832 -0.721705 3.69416 0
M  V30 907 C 90.8302 0.152622 2.7688 0
M  V30 908 H 93.7812 0.550237 1.48856 0
M  V30 909 H 93.8022 -1.12058 3.63625 0
M  V30 910 H 93.3142 0.695068 3.81825 0
M  V30 911 H 91.4152 -1.71706 3.30678 0
M  V30 912 H 91.5282 -0.520869 4.7626 0
M  V30 913 H 89.8922 -0.372894 2.51956 0
M  V30 914 H 90.6752 1.13536 3.23982 0
M  V30 915 N 93.1203 -1.57491 0.0584922 0
M  V30 916 C 94.0833 -2.1085 -0.898617 0
M  V30 917 C 95.0833 -1.02964 -1.23511 0
M  V30 918 O 96.2733 -1.29007 -1.17059 0
M  V30 919 C 93.4053 -2.59881 -2.20623 0
M  V30 920 H 94.5983 -2.96715 -0.435936 0
M  V30 921 H 92.1513 -1.55141 -0.190023 0
M  V30 922 H 92.8863 -1.77431 -2.71457 0
M  V30 923 H 92.6713 -3.38727 -1.97501 0
M  V30 924 H 94.1613 -3.01285 -2.89166 0
M  V30 925 N 94.5984 0.214957 -1.56127 0
M  V30 926 C 96.0144 0.564948 -1.49267 0
M  V30 927 C 96.2144 1.86827 -0.754838 0
M  V30 928 O 95.2704 2.50745 -0.297198 0
M  V30 929 C 96.5834 0.638071 -2.93852 0
M  V30 930 C 98.1314 0.728253 -3.0441 0
M  V30 931 C 98.6064 0.832663 -4.50367 0
M  V30 932 N 100.097 0.896712 -4.54437 0
M  V30 933 C 100.832 0.997324 -5.6466 0
M  V30 934 N 100.328 1.06147 -6.8462 0
M  V30 935 N 102.121 1.03297 -5.52527 0
M  V30 936 H 94.2724 -0.640211 -2.02522 0
M  V30 937 H 96.5354 -0.225507 -0.920788 0
M  V30 938 H 96.2414 -0.250126 -3.50809 0
M  V30 939 H 96.1154 1.49947 -3.46115 0
M  V30 940 H 98.5024 1.60689 -2.47514 0
M  V30 941 H 98.5834 -0.158952 -2.55306 0
M  V30 942 H 98.2274 -0.0415417 -5.07883 0
M  V30 943 H 98.1574 1.73538 -4.97184 0
M  V30 944 H 100.648 0.857188 -3.6805 0
M  V30 945 H 100.961 1.1382 -7.64372 0
M  V30 946 H 99.3064 1.03049 -6.87318 0
M  V30 947 H 102.497 0.979558 -4.57736 0
M  V30 948 H 102.67 1.10793 -6.38458 0
M  V30 949 N 96.0765 1.50051 0.48192 0
M  V30 950 C 97.4875 1.5348 1.06305 0
M  V30 951 C 97.8385 0.331997 1.93371 0
M  V30 952 O 96.9635 -0.556256 2.09129 0
M  V30 953 C 97.5585 2.7813 1.93466 0
M  V30 954 C 96.1175 2.84275 2.46707 0
M  V30 955 C 95.2645 2.47637 1.24785 0
M  V30 956 H 98.2155 1.56472 0.264995 0
M  V30 957 H 98.2365 2.59372 2.78399 0
M  V30 958 H 97.7485 3.65654 1.30072 0
M  V30 959 H 95.8495 2.01077 3.13686 0
M  V30 960 H 95.9625 3.8691 2.82555 0
M  V30 961 H 94.3265 1.99835 1.57918 0
M  V30 962 H 95.1095 3.37457 0.630694 0
M  V30 963 N 97.5546 -0.734337 1.39446 0
M  V30 964 C 98.4846 -1.86155 1.40955 0
M  V30 965 C 99.4656 -1.67898 0.272827 0
M  V30 966 O 100.651 -1.88207 0.478743 0
M  V30 967 C 97.7806 -3.23912 1.25294 0
M  V30 968 C 96.7346 -3.56808 2.36373 0
M  V30 969 C 96.0606 -4.93508 2.058 0
M  V30 970 C 97.3606 -3.59713 3.78687 0
M  V30 971 H 99.0546 -1.8515 2.35287 0
M  V30 972 H 96.6006 -0.889367 1.13253 0
M  V30 973 H 98.5536 -4.02443 1.2497 0
M  V30 974 H 97.2776 -3.25446 0.274308 0
M  V30 975 H 95.9366 -2.80606 2.35914 0
M  V30 976 H 95.5846 -4.91623 1.06374 0
M  V30 977 H 95.2846 -5.16486 2.80208 0
M  V30 978 H 96.8086 -5.74396 2.07128 0
M  V30 979 H 98.2226 -4.2832 3.81071 0
M  V30 980 H 96.6196 -3.94209 4.52459 0
M  V30 981 H 97.6896 -2.59504 4.09617 0
M  V30 982 N 99.0327 -1.24633 -0.964593 0
M  V30 983 C 99.9647 -0.999302 -2.06268 0
M  V30 984 C 100.978 0.0323226 -1.62768 0
M  V30 985 O 102.167 -0.205079 -1.77318 0
M  V30 986 C 99.2667 -0.486816 -3.35385 0
M  V30 987 C 98.4397 -1.5823 -4.07777 0
M  V30 988 C 97.4987 -1.07191 -5.15166 0
M  V30 989 O 96.5247 -1.76426 -5.41168 0
M  V30 990 N 97.7267 0.0920373 -5.80427 0
M  V30 991 H 100.492 -1.94477 -2.28033 0
M  V30 992 H 98.0527 -1.15704 -1.13244 0
M  V30 993 H 100.045 -0.130066 -4.04491 0
M  V30 994 H 98.6147 0.364459 -3.10468 0
M  V30 995 H 97.8347 -2.11109 -3.32906 0
M  V30 996 H 99.1227 -2.31854 -4.52903 0
M  V30 997 H 98.5207 0.670784 -5.61709 0
M  V30 998 H 97.0777 0.389905 -6.50633 0
M  V30 999 N 100.511 1.16574 -1.06058 0
M  V30 1000 C 101.927 1.3904 -0.783585 0
M  V30 1001 C 102.127 1.91784 0.618145 0
M  V30 1002 O 101.183 2.11511 1.37911 0
M  V30 1003 C 102.496 2.37329 -1.84649 0
M  V30 1004 C 104.044 2.51018 -1.86973 0
M  V30 1005 C 104.519 3.52588 -2.92311 0
M  V30 1006 N 106.01 3.60113 -2.91329 0
M  V30 1007 C 106.745 4.38486 -3.69482 0
M  V30 1008 N 106.241 5.20302 -4.57447 0
M  V30 1009 N 108.034 4.33446 -3.57885 0
M  V30 1010 H 100.185 0.806725 -1.96483 0
M  V30 1011 H 102.448 0.417117 -0.851303 0
M  V30 1012 H 102.154 2.05663 -2.85299 0
M  V30 1013 H 102.028 3.36946 -1.6955 0
M  V30 1014 H 104.415 2.81989 -0.869827 0
M  V30 1015 H 104.496 1.51445 -2.0615 0
M  V30 1016 H 104.14 3.22354 -3.92492 0
M  V30 1017 H 104.07 4.51886 -2.70383 0
M  V30 1018 H 106.561 3.01707 -2.27555 0
M  V30 1019 H 106.874 5.77311 -5.13743 0
M  V30 1020 H 105.219 5.19653 -4.61503 0
M  V30 1021 H 108.41 3.68586 -2.88551 0
M  V30 1022 H 108.583 4.94279 -4.19037 0
M  V30 1023 N 101.989 0.842826 1.3317 0
M  V30 1024 C 103.4 0.496651 1.79973 0
M  V30 1025 C 103.751 -0.984641 1.69703 0
M  V30 1026 O 102.876 -1.76743 1.24863 0
M  V30 1027 C 103.471 0.894727 3.26772 0
M  V30 1028 C 102.03 0.600629 3.71577 0
M  V30 1029 C 101.177 1.10091 2.5451 0
M  V30 1030 H 104.128 1.03116 1.20635 0
M  V30 1031 H 104.149 0.206347 3.7994 0
M  V30 1032 H 103.661 1.97287 3.34215 0
M  V30 1033 H 101.762 -0.467284 3.69658 0
M  V30 1034 H 101.875 1.15863 4.64879 0
M  V30 1035 H 100.239 0.52162 2.49301 0
M  V30 1036 H 101.022 2.18591 2.64713 0
M  V30 1037 N 103.467 -1.45747 0.599634 0
M  V30 1038 C 104.878 -1.85853 0.177681 0
M  V30 1039 C 105.229 -1.50102 -1.26348 0
M  V30 1040 O 104.354 -0.923905 -1.95686 0
M  V30 1041 C 104.949 -3.37326 0.315688 0
M  V30 1042 C 103.508 -3.76365 -0.0515144 0
M  V30 1043 C 102.655 -2.69722 0.643822 0
M  V30 1044 H 105.606 -1.36661 0.806814 0
M  V30 1045 H 105.627 -3.77778 -0.454321 0
M  V30 1046 H 105.139 -3.63315 1.36468 0
M  V30 1047 H 103.24 -3.55993 -1.09999 0
M  V30 1048 H 103.353 -4.77916 0.336594 0
M  V30 1049 H 101.717 -2.54567 0.0822881 0
M  V30 1050 H 102.5 -2.98549 1.6948 0
M  V30 1051 N 104.945 -0.338344 -1.53925 0
M  V30 1052 C 106.361 0.0137736 -1.59594 0
M  V30 1053 C 106.561 1.49186 -1.35447 0
M  V30 1054 O 105.617 2.24987 -1.14616 0
M  V30 1055 C 106.93 -0.41773 -2.97784 0
M  V30 1056 C 108.478 -0.369633 -3.1081 0
M  V30 1057 C 108.953 -0.776524 -4.51369 0
M  V30 1058 N 110.444 -0.730506 -4.57403 0
M  V30 1059 C 111.179 -1.01736 -5.64303 0
M  V30 1060 N 110.675 -1.3721 -6.79077 0
M  V30 1061 N 112.468 -0.941942 -5.54151 0
M  V30 1062 H 104.619 -1.3012 -1.67876 0
M  V30 1063 H 106.882 -0.530082 -0.78595 0
M  V30 1064 H 106.588 -1.44811 -3.20504 0
M  V30 1065 H 106.462 0.209729 -3.76616 0
M  V30 1066 H 108.849 0.651568 -2.87817 0
M  V30 1067 H 108.93 -1.03223 -2.34049 0
M  V30 1068 H 108.574 -1.79571 -4.75096 0
M  V30 1069 H 108.504 -0.0914649 -5.26521 0
M  V30 1070 H 110.995 -0.468783 -3.74981 0
M  V30 1071 H 111.308 -1.57597 -7.5656 0
M  V30 1072 H 109.653 -1.4105 -6.80536 0
M  V30 1073 H 112.844 -0.664184 -4.63364 0
M  V30 1074 H 113.017 -1.16884 -6.37371 0
M  V30 1075 N 106.423 1.57458 -0.0668435 0
M  V30 1076 C 107.834 1.80776 0.466558 0
M  V30 1077 C 108.185 0.980361 1.69951 0
M  V30 1078 O 107.31 0.201441 2.1546 0
M  V30 1079 C 107.905 3.27881 0.85321 0
M  V30 1080 C 106.464 3.52062 1.3315 0
M  V30 1081 C 105.611 2.75513 0.314264 0
M  V30 1082 H 108.562 1.5598 -0.292588 0
M  V30 1083 H 108.583 3.39659 1.715 0
M  V30 1084 H 108.095 3.88075 -0.0443439 0
M  V30 1085 H 106.196 2.97167 2.24772 0
M  V30 1086 H 106.309 4.60762 1.31285 0
M  V30 1087 H 104.673 2.42123 0.790492 0
M  V30 1088 H 105.456 3.38442 -0.575477 0
M  V30 1089 N 107.901 -0.206675 1.56239 0
M  V30 1090 C 108.811 -1.27686 1.96808 0
M  V30 1091 C 109.827 -1.50455 0.874035 0
M  V30 1092 O 111.003 -1.63295 1.17884 0
M  V30 1093 C 108.068 -2.60358 2.28942 0
M  V30 1094 C 107.129 -2.45762 3.51994 0
M  V30 1095 C 106.362 -3.72108 3.82585 0
M  V30 1096 O 106.585 -4.75776 3.14631 0
M  V30 1097 O 105.519 -3.6833 4.76043 0
M  V30 1098 H 109.345 -0.962593 2.88041 0
M  V30 1099 H 106.93 -0.410746 1.43643 0
M  V30 1100 H 108.812 -3.38687 2.50737 0
M  V30 1101 H 107.487 -2.91435 1.4088 0
M  V30 1102 H 106.394 -1.65584 3.35459 0
M  V30 1103 H 107.727 -2.19621 4.40486 0
M  V30 1104 N 109.379 -1.50304 -0.473955 0
M  V30 1105 C 110.625 -1.61389 -1.22806 0
M  V30 1106 C 110.958 -0.311955 -1.91678 0
M  V30 1107 O 110.233 0.686384 -1.81986 0
M  V30 1108 C 110.516 -2.79219 -2.27396 0
M  V30 1109 C 110.369 -4.19286 -1.62848 0
M  V30 1110 C 111.688 -2.92614 -3.28732 0
M  V30 1111 H 108.807 -0.587399 -0.445119 0
M  V30 1112 H 111.449 -1.82681 -0.522265 0
M  V30 1113 H 109.599 -2.61195 -2.87592 0
M  V30 1114 H 111.271 -4.48892 -1.06271 0
M  V30 1115 H 109.514 -4.23677 -0.931693 0
M  V30 1116 H 110.185 -4.97655 -2.38838 0
M  V30 1117 H 112.661 -3.09105 -2.78556 0
M  V30 1118 H 111.537 -3.76688 -3.99246 0
M  V30 1119 H 111.798 -2.03107 -3.92683 0
M  V30 1120 N 110.857 0.726932 -1.39834 0
M  V30 1121 C 112.268 1.30558 -1.3346 0
M  V30 1122 C 112.619 1.962 -0.00273003 0
M  V30 1123 O 111.744 1.96826 0.899371 0
M  V30 1124 C 112.339 2.37404 -2.41713 0
M  V30 1125 C 110.898 2.90921 -2.38835 0
M  V30 1126 C 110.045 1.64578 -2.2318 0
M  V30 1127 H 112.996 0.523862 -1.49804 0
M  V30 1128 H 113.017 3.17984 -2.08966 0
M  V30 1129 H 112.529 1.89599 -3.38635 0
M  V30 1130 H 110.63 3.42985 -1.45575 0
M  V30 1131 H 110.743 3.43487 -3.33997 0
M  V30 1132 H 109.107 1.89219 -1.70494 0
M  V30 1133 H 109.89 1.18814 -3.22084 0
M  V30 1134 N 112.336 1.25143 0.95797 0
M  V30 1135 C 113.752 1.01892 1.22842 0
M  V30 1136 C 113.952 -0.266311 1.99732 0
M  V30 1137 O 113.008 -0.979913 2.3271 0
M  V30 1138 C 114.321 2.24004 2.00606 0
M  V30 1139 C 115.869 2.28731 2.13662 0
M  V30 1140 C 116.344 3.5049 2.94823 0
M  V30 1141 N 117.835 3.50866 3.02403 0
M  V30 1142 C 118.57 4.4174 3.65586 0
M  V30 1143 N 118.066 5.42882 4.30408 0
M  V30 1144 N 119.859 4.29429 3.62694 0
M  V30 1145 H 112.01 2.07718 0.443493 0
M  V30 1146 H 114.273 0.912031 0.258657 0
M  V30 1147 H 113.979 3.17395 1.51503 0
M  V30 1148 H 113.853 2.26907 3.01319 0
M  V30 1149 H 116.24 1.35865 2.61963 0
M  V30 1150 H 116.321 2.29848 1.12265 0
M  V30 1151 H 115.965 4.43676 2.47213 0
M  V30 1152 H 115.895 3.46617 3.96439 0
M  V30 1153 H 118.386 2.777 2.56302 0
M  V30 1154 H 118.699 6.0844 4.76467 0
M  V30 1155 H 117.044 5.46758 4.29047 0
M  V30 1156 H 120.235 3.49643 3.11236 0
M  V30 1157 H 120.408 5.00448 4.1165 0
M  V30 1158 N 113.814 -1.1601 1.06675 0
M  V30 1159 C 114.777 -2.18724 0.685001 0
M  V30 1160 C 115.777 -1.58496 -0.271246 0
M  V30 1161 O 116.967 -1.74119 -0.0531156 0
M  V30 1162 C 114.099 -3.40899 0.00853648 0
M  V30 1163 H 115.292 -2.54011 1.59431 0
M  V30 1164 H 112.845 -1.30352 0.862441 0
M  V30 1165 H 113.58 -3.11173 -0.913337 0
M  V30 1166 H 113.365 -3.8587 0.696204 0
M  V30 1167 H 114.855 -4.16886 -0.24414 0
M  V30 1168 N 115.292 -0.849877 -1.32721 0
M  V30 1169 C 116.539 -0.450923 -1.97416 0
M  V30 1170 C 116.867 0.992376 -1.67279 0
M  V30 1171 O 116.122 1.71048 -0.950845 0
M  V30 1172 C 116.421 -0.631272 -3.51781 0
M  V30 1173 C 116.087 -2.04432 -4.01894 0
M  V30 1174 C 114.749 -2.4308 -4.1529 0
M  V30 1175 C 117.101 -2.96679 -4.28522 0
M  V30 1176 C 114.429 -3.73257 -4.52654 0
M  V30 1177 C 116.781 -4.26349 -4.67343 0
M  V30 1178 C 115.445 -4.64939 -4.78945 0
M  V30 1179 H 114.715 -0.165004 -0.722395 0
M  V30 1180 H 117.362 -1.07901 -1.58207 0
M  V30 1181 H 115.667 0.0800767 -3.91718 0
M  V30 1182 H 117.364 -0.302709 -3.99856 0
M  V30 1183 H 113.954 -1.73419 -3.91949 0
M  V30 1184 H 118.138 -2.68054 -4.17685 0
M  V30 1185 H 113.394 -4.02946 -4.59831 0
M  V30 1186 H 117.568 -4.97895 -4.86902 0
M  V30 1187 H 115.195 -5.65855 -5.07654 0
M  V30 1188 N 116.77 1.45427 -0.607355 0
M  V30 1189 C 118.186 1.57283 -0.270985 0
M  V30 1190 C 118.386 1.59875 1.22647 0
M  V30 1191 O 117.442 1.52893 2.00948 0
M  V30 1192 C 118.755 2.85566 -0.941952 0
M  V30 1193 C 120.303 2.9924 -0.917849 0
M  V30 1194 C 120.778 4.30293 -1.56882 0
M  V30 1195 N 122.269 4.37051 -1.5343 0
M  V30 1196 C 123.004 5.37123 -2.00715 0
M  V30 1197 N 122.5 6.43734 -2.56084 0
M  V30 1198 N 124.293 5.28479 -1.91484 0
M  V30 1199 H 116.444 1.41988 -1.57966 0
M  V30 1200 H 118.707 0.67885 -0.661715 0
M  V30 1201 H 118.413 2.8955 -1.99633 0
M  V30 1202 H 118.287 3.74322 -0.465096 0
M  V30 1203 H 120.674 2.94822 0.127984 0
M  V30 1204 H 120.755 2.11895 -1.43297 0
M  V30 1205 H 120.399 4.35469 -2.61398 0
M  V30 1206 H 120.329 5.16454 -1.02873 0
M  V30 1207 H 122.82 3.60615 -1.12982 0
M  V30 1208 H 123.133 7.16341 -2.89958 0
M  V30 1209 H 121.478 6.44485 -2.60122 0
M  V30 1210 H 124.669 4.44098 -1.47967 0
M  V30 1211 H 124.842 6.0632 -2.28648 0
M  V30 1212 N 118.248 0.346503 1.53744 0
M  V30 1213 C 119.664 -0.00530975 1.59599 0
M  V30 1214 C 119.864 -1.48465 1.36236 0
M  V30 1215 O 118.92 -2.24376 1.15808 0
M  V30 1216 C 120.233 0.433516 2.97559 0
M  V30 1217 C 121.781 0.386111 3.10609 0
M  V30 1218 C 122.256 0.800451 4.50951 0
M  V30 1219 N 123.747 0.754753 4.5701 0
M  V30 1220 C 124.482 1.04727 5.63755 0
M  V30 1221 N 123.978 1.4081 6.7834 0
M  V30 1222 N 125.771 0.971316 5.53644 0
M  V30 1223 H 117.922 1.31009 1.67184 0
M  V30 1224 H 120.185 0.534242 0.783128 0
M  V30 1225 H 119.891 1.46509 3.19731 0
M  V30 1226 H 119.765 -0.189753 3.76722 0
M  V30 1227 H 122.152 -0.636295 2.88158 0
M  V30 1228 H 122.233 1.04462 2.33498 0
M  V30 1229 H 121.877 1.82088 4.74137 0
M  V30 1230 H 121.807 0.119386 5.26465 0
M  V30 1231 H 124.298 0.488662 3.74727 0
M  V30 1232 H 124.611 1.61607 7.55714 0
M  V30 1233 H 122.956 1.44657 6.79779 0
M  V30 1234 H 126.147 0.688748 4.63005 0
M  V30 1235 H 126.32 1.20263 6.36742 0
M  V30 1236 N 119.726 -1.57421 0.075193 0
M  V30 1237 C 120.658 -2.09904 -0.920483 0
M  V30 1238 C 121.671 -1.03191 -1.25918 0
M  V30 1239 O 122.86 -1.30695 -1.21577 0
M  V30 1240 C 119.96 -2.54726 -2.23534 0
M  V30 1241 C 119.133 -3.8505 -2.07498 0
M  V30 1242 C 118.192 -4.15929 -3.22319 0
M  V30 1243 O 117.218 -4.85474 -2.9716 0
M  V30 1244 N 118.42 -3.69745 -4.47514 0
M  V30 1245 H 121.185 -2.95954 -0.472359 0
M  V30 1246 H 118.746 -1.61523 -0.110444 0
M  V30 1247 H 120.738 -2.72443 -2.9926 0
M  V30 1248 H 119.308 -1.73795 -2.59835 0
M  V30 1249 H 118.528 -3.76679 -1.16219 0
M  V30 1250 H 119.816 -4.70348 -1.94038 0
M  V30 1251 H 119.214 -3.13569 -4.7084 0
M  V30 1252 H 117.771 -3.92655 -5.20255 0
M  V30 1253 N 121.204 0.198386 -1.56346 0
M  V30 1254 C 122.615 0.763358 -1.70381 0
M  V30 1255 C 122.966 1.83995 -0.681203 0
M  V30 1256 O 122.091 2.15785 0.16305 0
M  V30 1257 C 122.686 1.39143 -3.08909 0
M  V30 1258 C 121.245 1.90352 -3.2472 0
M  V30 1259 C 120.392 0.772233 -2.6633 0
M  V30 1260 H 123.343 -0.0266377 -1.58678 0
M  V30 1261 H 123.364 2.26076 -3.06055 0
M  V30 1262 H 122.876 0.607638 -3.83314 0
M  V30 1263 H 120.977 2.71461 -2.55225 0
M  V30 1264 H 121.09 2.06757 -4.3219 0
M  V30 1265 H 119.454 1.18566 -2.2542 0
M  V30 1266 H 120.237 0.00073556 -3.433 0
M  V30 1267 N 122.682 1.50554 0.465978 0
M  V30 1268 C 124.098 1.38093 0.800154 0
M  V30 1269 C 124.298 0.440988 1.96615 0
M  V30 1270 O 123.354 -0.114499 2.5224 0
M  V30 1271 C 124.667 2.79565 1.10742 0
M  V30 1272 C 126.215 2.88516 1.21357 0
M  V30 1273 C 126.69 4.30833 1.55393 0
M  V30 1274 N 128.181 4.33807 1.62375 0
M  V30 1275 C 128.916 5.40927 1.90225 0
M  V30 1276 N 128.412 6.58247 2.16062 0
M  V30 1277 N 130.205 5.28376 1.9177 0
M  V30 1278 H 122.356 2.10237 -0.302366 0
M  V30 1279 H 124.619 0.945203 -0.0727746 0
M  V30 1280 H 124.325 3.50208 0.323661 0
M  V30 1281 H 124.199 3.17125 2.04234 0
M  V30 1282 H 126.586 2.1809 1.98799 0
M  V30 1283 H 126.667 2.54492 0.258321 0
M  V30 1284 H 126.311 5.01799 0.784889 0
M  V30 1285 H 126.241 4.62347 2.52076 0
M  V30 1286 H 128.732 3.49212 1.44427 0
M  V30 1287 H 129.045 7.3569 2.36601 0
M  V30 1288 H 127.39 6.61413 2.13444 0
M  V30 1289 H 130.581 4.35715 1.71085 0
M  V30 1290 H 130.754 6.11944 2.13139 0
M  V30 1291 N 124.16 -0.719506 1.40217 0
M  V30 1292 C 125.123 -1.8153 1.39927 0
M  V30 1293 C 126.123 -1.58095 0.293723 0
M  V30 1294 O 127.313 -1.65209 0.552429 0
M  V30 1295 C 124.445 -3.19561 1.18716 0
M  V30 1296 H 125.638 -1.83186 2.37451 0
M  V30 1297 H 123.191 -0.924746 1.26008 0
M  V30 1298 H 123.926 -3.23557 0.219366 0
M  V30 1299 H 123.711 -3.3797 1.98793 0
M  V30 1300 H 125.201 -3.99598 1.21291 0
M  V30 1301 N 125.638 -1.25649 -0.95132 0
M  V30 1302 C 126.601 -1.06399 -2.03007 0
M  V30 1303 C 127.601 -0.0156794 -1.60792 0
M  V30 1304 O 128.791 -0.25817 -1.72276 0
M  V30 1305 C 125.923 -0.616184 -3.35285 0
M  V30 1306 H 127.116 -2.02164 -2.21517 0
M  V30 1307 H 124.669 -1.08103 -1.12887 0
M  V30 1308 H 125.404 0.343917 -3.22471 0
M  V30 1309 H 125.189 -1.37301 -3.67275 0
M  V30 1310 H 126.679 -0.503032 -4.14559 0
M  V30 1311 N 127.117 1.15442 -1.07289 0
M  V30 1312 C 128.08 2.18358 -0.696591 0
M  V30 1313 C 129.08 1.58637 0.262837 0
M  V30 1314 O 130.27 1.74145 0.0438809 0
M  V30 1315 C 127.402 3.4089 -0.0266151 0
M  V30 1316 H 128.595 2.53162 -1.60776 0
M  V30 1317 H 126.148 1.29893 -0.869342 0
M  V30 1318 H 126.883 3.11653 0.896822 0
M  V30 1319 H 126.668 3.85495 -0.716657 0
M  V30 1320 H 128.158 4.17009 0.222028 0
M  V30 1321 N 128.595 0.856903 1.32268 0
M  V30 1322 C 130.006 0.515711 1.79436 0
M  V30 1323 C 130.357 -0.966586 1.70738 0
M  V30 1324 O 129.482 -1.75409 1.26731 0
M  V30 1325 C 130.077 0.929335 3.25805 0
M  V30 1326 C 128.636 0.640006 3.70919 0
M  V30 1327 C 127.783 1.12784 2.53328 0
M  V30 1328 H 130.734 1.04389 1.19535 0
M  V30 1329 H 130.755 0.246633 3.797 0
M  V30 1330 H 130.267 2.00821 3.32103 0
M  V30 1331 H 128.368 -0.428051 3.70133 0
M  V30 1332 H 128.481 1.20788 4.63624 0
M  V30 1333 H 126.845 0.548033 2.48734 0
M  V30 1334 H 127.628 2.21387 2.62379 0
M  V30 1335 N 130.073 -1.45103 0.615059 0
M  V30 1336 C 131.298 -2.07064 0.117988 0
M  V30 1337 C 131.723 -1.4554 -1.19163 0
M  V30 1338 O 131.081 -0.550855 -1.72729 0
M  V30 1339 C 131.129 -3.606 -0.000288387 0
M  V30 1340 O 130.233 -3.98847 -1.04856 0
M  V30 1341 H 129.574 -0.659467 0.0774581 0
M  V30 1342 H 132.104 -1.86236 0.847186 0
M  V30 1343 H 132.114 -4.07529 -0.196091 0
M  V30 1344 H 130.789 -4.04765 0.955932 0
M  V30 1345 H 129.366 -3.63577 -0.828619 0
M  V30 1346 N 131.551 -0.354651 -1.53558 0
M  V30 1347 C 132.798 0.238443 -2.01091 0
M  V30 1348 C 133.126 1.49663 -1.24222 0
M  V30 1349 O 132.381 1.93049 -0.321003 0
M  V30 1350 C 132.68 0.587121 -3.52545 0
M  V30 1351 C 132.346 -0.575472 -4.47213 0
M  V30 1352 C 131.008 -0.894497 -4.72813 0
M  V30 1353 C 133.36 -1.35489 -5.03281 0
M  V30 1354 C 130.688 -1.99511 -5.51736 0
M  V30 1355 C 133.04 -2.44583 -5.83405 0
M  V30 1356 C 131.704 -2.77033 -6.07296 0
M  V30 1357 H 130.974 0.0872526 -0.735845 0
M  V30 1358 H 133.621 -0.484859 -1.8526 0
M  V30 1359 H 131.926 1.39129 -3.66265 0
M  V30 1360 H 133.623 1.05809 -3.86789 0
M  V30 1361 H 130.213 -0.316774 -4.27428 0
M  V30 1362 H 134.397 -1.12167 -4.83459 0
M  V30 1363 H 129.653 -2.25063 -5.68469 0
M  V30 1364 H 133.827 -3.05401 -6.25862 0
M  V30 1365 H 131.454 -3.6244 -6.68237 0
M  V30 1366 N 133.029 1.57378 -0.0835403 0
M  V30 1367 C 134.276 1.9393 0.58287 0
M  V30 1368 C 134.604 0.964455 1.68904 0
M  V30 1369 O 133.859 -0.0179474 1.95692 0
M  V30 1370 C 134.158 3.37063 1.1884 0
M  V30 1371 C 133.824 4.50424 0.207194 0
M  V30 1372 C 132.486 4.81159 -0.0627115 0
M  V30 1373 C 134.838 5.19136 -0.463426 0
M  V30 1374 C 132.166 5.77939 -1.01012 0
M  V30 1375 C 134.518 6.16931 -1.39924 0
M  V30 1376 C 133.182 6.46078 -1.67749 0
M  V30 1377 H 132.452 0.70964 0.213287 0
M  V30 1378 H 135.099 1.90856 -0.156916 0
M  V30 1379 H 133.404 3.3666 2.00418 0
M  V30 1380 H 135.101 3.6264 1.71153 0
M  V30 1381 H 131.691 4.2646 0.427747 0
M  V30 1382 H 135.875 4.95576 -0.268034 0
M  V30 1383 H 131.131 5.98842 -1.23283 0
M  V30 1384 H 135.305 6.69273 -1.92476 0
M  V30 1385 H 132.932 7.2088 -2.41321 0
M  V30 1386 N 134.507 -0.190092 1.56449 0
M  V30 1387 C 135.754 -0.909705 1.80916 0
M  V30 1388 C 136.082 -1.83047 0.657583 0
M  V30 1389 O 135.337 -1.92428 -0.356356 0
M  V30 1390 C 135.636 -1.75382 3.1141 0
M  V30 1391 C 135.302 -0.983606 4.40041 0
M  V30 1392 C 133.964 -0.770967 4.74984 0
M  V30 1393 C 136.316 -0.442024 5.19322 0
M  V30 1394 C 133.644 -0.0053448 5.867 0
M  V30 1395 C 135.996 0.310412 6.31838 0
M  V30 1396 C 134.66 0.534023 6.6536 0
M  V30 1397 H 133.93 -0.332885 0.662019 0
M  V30 1398 H 136.577 -0.175762 1.90692 0
M  V30 1399 H 134.882 -2.55659 2.96893 0
M  V30 1400 H 136.579 -2.31331 3.27547 0
M  V30 1401 H 133.169 -1.15936 4.12622 0
M  V30 1402 H 137.353 -0.593693 4.92736 0
M  V30 1403 H 132.609 0.177825 6.11141 0
M  V30 1404 H 136.783 0.737419 6.92485 0
M  V30 1405 H 134.41 1.12918 7.51767 0
M  V30 1406 N 135.985 -1.50799 -0.457987 0
M  V30 1407 C 137.21 -1.66496 -1.23668 0
M  V30 1408 C 137.635 -0.353288 -1.84752 0
M  V30 1409 O 136.993 0.684346 -1.67888 0
M  V30 1410 C 137.041 -2.76763 -2.3116 0
M  V30 1411 O 136.145 -2.38928 -3.36136 0
M  V30 1412 H 135.486 -0.555828 -0.363252 0
M  V30 1413 H 138.016 -1.9725 -0.543474 0
M  V30 1414 H 138.026 -3.00232 -2.76269 0
M  V30 1415 H 136.701 -3.71954 -1.86073 0
M  V30 1416 H 135.278 -2.25953 -2.96647 0
M  V30 1417 N 137.463 0.71206 -1.40597 0
M  V30 1418 C 138.688 1.50617 -1.42581 0
M  V30 1419 C 139.113 1.88079 -0.0282102 0
M  V30 1420 O 138.471 1.53511 0.964579 0
M  V30 1421 C 138.519 2.7557 -2.3258 0
M  V30 1422 O 137.623 3.72414 -1.77148 0
M  V30 1423 H 136.964 0.453966 -0.484573 0
M  V30 1424 H 139.494 0.876649 -1.84868 0
M  V30 1425 H 139.504 3.2406 -2.47889 0
M  V30 1426 H 138.179 2.47639 -3.34138 0
M  V30 1427 H 136.756 3.31276 -1.71204 0
M  V30 1428 N 138.941 1.26152 0.944643 0
M  V30 1429 C 140.19 1.10883 1.68487 0
M  V30 1430 C 140.503 -0.348153 1.92477 0
M  V30 1431 O 141.709 -0.621459 2.64292 0
M  V30 1432 C 140.165 1.93624 3.03377 0
M  V30 1433 C 139.773 3.43875 2.87148 0
M  V30 1434 C 141.517 1.86954 3.81115 0
M  V30 1435 C 139.424 4.18875 4.1749 0
M  V30 1436 H 138.354 0.41135 0.631907 0
M  V30 1437 H 141.005 1.50433 1.05082 0
M  V30 1438 H 139.387 1.46904 3.67743 0
M  V30 1439 H 140.561 3.98338 2.31653 0
M  V30 1440 H 138.876 3.51744 2.22856 0
M  V30 1441 H 141.473 2.40275 4.77673 0
M  V30 1442 H 141.816 0.839518 4.07747 0
M  V30 1443 H 142.349 2.31477 3.23517 0
M  V30 1444 H 139.088 5.22332 3.96043 0
M  V30 1445 H 138.608 3.69193 4.72712 0
M  V30 1446 H 140.287 4.27134 4.85968 0
M  V30 1447 N 140.419 -1.14872 1.07899 0
M  V30 1448 C 141.366 -2.19791 0.704319 0
M  V30 1449 C 142.336 -1.63238 -0.306987 0
M  V30 1450 O 143.521 -1.8983 -0.192171 0
M  V30 1451 C 140.661 -3.44911 0.114244 0
M  V30 1452 C 139.774 -4.15637 1.1777 0
M  V30 1453 C 138.909 -5.28324 0.552037 0
M  V30 1454 C 137.948 -5.90875 1.59789 0
M  V30 1455 N 137.085 -6.95022 0.994404 0
M  V30 1456 H 141.925 -2.5119 1.60336 0
M  V30 1457 H 139.462 -1.23356 0.801352 0
M  V30 1458 H 141.42 -4.16477 -0.245544 0
M  V30 1459 H 140.05 -3.14011 -0.74813 0
M  V30 1460 H 139.102 -3.42512 1.65499 0
M  V30 1461 H 140.414 -4.5823 1.97046 0
M  V30 1462 H 139.568 -6.06538 0.1402 0
M  V30 1463 H 138.307 -4.86939 -0.272431 0
M  V30 1464 H 137.312 -5.11369 2.01945 0
M  V30 1465 H 138.537 -6.34337 2.42474 0
M  V30 1466 H 136.483 -6.55722 0.190939 0
M  V30 1467 H 136.4 -7.36073 1.72432 0
M  V30 1468 H 137.668 -7.77123 0.608253 0
M  V30 1469 N 141.898 -0.863906 -1.31812 0
M  V30 1470 C 143.146 -0.470904 -1.96537 0
M  V30 1471 C 143.467 0.978771 -1.68657 0
M  V30 1472 O 142.737 1.6853 -0.998717 0
M  V30 1473 H 141.317 -0.171148 -0.72713 0
M  V30 1474 H 143.979 -1.10236 -1.60729 0
M  V30 1475 H 143.075 -0.623616 -3.05806 0
M  V30 1476 N 143.376 1.44774 -0.622745 0
M  V30 1477 C 144.624 2.01721 -0.123655 0
M  V30 1478 C 144.945 1.49172 1.25589 0
M  V30 1479 O 144.215 0.691974 1.83272 0
M  V30 1480 H 142.795 0.745777 -0.0427225 0
M  V30 1481 H 145.457 1.77382 -0.807559 0
M  V30 1482 H 144.553 3.11984 -0.0849534 0
M  V30 1483 N 144.854 0.36279 1.53368 0
M  V30 1484 C 146.27 0.0116182 1.59596 0
M  V30 1485 C 146.47 -1.47012 1.37803 0
M  V30 1486 O 145.526 -2.23136 1.18181 0
M  V30 1487 C 146.839 0.465052 2.97082 0
M  V30 1488 C 148.387 0.419033 3.10182 0
M  V30 1489 C 148.862 0.848235 4.50077 0
M  V30 1490 N 150.353 0.803183 4.56183 0
M  V30 1491 C 151.088 1.107 5.62613 0
M  V30 1492 N 150.584 1.47996 6.76808 0
M  V30 1493 N 152.377 1.02998 5.52583 0
M  V30 1494 H 144.528 1.32775 1.65785 0
M  V30 1495 H 146.791 0.542518 0.777417 0
M  V30 1496 H 146.497 1.49892 3.18159 0
M  V30 1497 H 146.371 -0.149786 3.76902 0
M  V30 1498 H 148.758 -0.605696 2.88817 0
M  V30 1499 H 148.839 1.06933 2.32377 0
M  V30 1500 H 148.483 1.87107 4.7218 0
M  V30 1501 H 148.413 0.175218 5.26308 0
M  V30 1502 H 150.904 0.52838 3.74188 0
M  V30 1503 H 151.217 1.69613 7.53957 0
M  V30 1504 H 149.562 1.51859 6.78206 0
M  V30 1505 H 152.753 0.737817 4.62249 0
M  V30 1506 H 152.926 1.2701 6.35431 0
M  V30 1507 N 146.332 -1.57332 0.0918853 0
M  V30 1508 C 147.748 -1.57389 -0.264766 0
M  V30 1509 C 147.948 -1.10281 -1.68643 0
M  V30 1510 O 147.004 -0.777801 -2.40222 0
M  V30 1511 C 148.317 -3.00648 -0.0561195 0
M  V30 1512 C 149.865 -3.12754 -0.124116 0
M  V30 1513 C 150.34 -4.57965 0.0564972 0
M  V30 1514 N 151.831 -4.632 0.00155611 0
M  V30 1515 C 152.566 -5.73281 0.116598 0
M  V30 1516 N 152.062 -6.92208 0.286294 0
M  V30 1517 N 153.855 -5.6207 0.0580973 0
M  V30 1518 H 146.006 -1.86262 1.02079 0
M  V30 1519 H 148.269 -0.859579 0.399786 0
M  V30 1520 H 147.975 -3.393 0.925669 0
M  V30 1521 H 147.849 -3.68623 -0.799823 0
M  V30 1522 H 150.236 -2.73976 -1.09641 0
M  V30 1523 H 150.317 -2.47377 0.651024 0
M  V30 1524 H 149.961 -4.97436 1.02564 0
M  V30 1525 H 149.891 -5.21399 -0.738297 0
M  V30 1526 H 152.382 -3.77686 -0.127192 0
M  V30 1527 H 152.695 -7.71934 0.365676 0
M  V30 1528 H 151.04 -6.94254 0.32192 0
M  V30 1529 H 154.231 -4.68043 -0.0733204 0
M  V30 1530 H 154.404 -6.47824 0.151203 0
M  V30 1531 N 147.81 0.181792 -1.56548 0
M  V30 1532 C 149.035 0.920019 -1.85877 0
M  V30 1533 C 149.46 1.75494 -0.677021 0
M  V30 1534 O 148.818 1.77399 0.374056 0
M  V30 1535 C 148.866 1.78112 -3.13542 0
M  V30 1536 O 147.97 2.88152 -2.95029 0
M  V30 1537 H 147.311 0.258334 -0.611686 0
M  V30 1538 H 149.841 0.183092 -2.03779 0
M  V30 1539 H 149.851 2.18314 -3.44678 0
M  V30 1540 H 148.526 1.16777 -3.99169 0
M  V30 1541 H 147.103 2.51609 -2.75222 0
M  V30 1542 N 149.288 1.51039 0.449983 0
M  V30 1543 C 150.537 1.62317 1.19733 0
M  V30 1544 C 150.85 0.339101 1.92638 0
M  V30 1545 O 152.056 0.331069 2.69474 0
M  V30 1546 C 150.512 2.86608 2.17678 0
M  V30 1547 C 150.12 4.21972 1.50479 0
M  V30 1548 C 151.864 3.07239 2.92924 0
M  V30 1549 C 149.771 5.37426 2.46834 0
M  V30 1550 H 148.701 0.604532 0.450619 0
M  V30 1551 H 151.352 1.77494 0.465625 0
M  V30 1552 H 149.734 2.65037 2.94231 0
M  V30 1553 H 150.908 4.53878 0.795716 0
M  V30 1554 H 149.223 4.07117 0.874344 0
M  V30 1555 H 151.82 3.90668 3.65079 0
M  V30 1556 H 152.163 2.19807 3.5354 0
M  V30 1557 H 152.696 3.29091 2.23481 0
M  V30 1558 H 149.435 6.27079 1.90926 0
M  V30 1559 H 148.955 5.09912 3.15832 0
M  V30 1560 H 150.634 5.68862 3.08228 0
M  V30 1561 N 150.766 -0.704594 1.40972 0
M  V30 1562 C 151.991 -1.49858 1.43378 0
M  V30 1563 C 152.416 -1.88061 0.038184 0
M  V30 1564 O 151.774 -1.5402 -0.956425 0
M  V30 1565 C 151.822 -2.74333 2.34038 0
M  V30 1566 O 150.926 -3.7147 1.7912 0
M  V30 1567 H 150.267 -0.45139 0.486974 0
M  V30 1568 H 152.797 -0.866832 1.8533 0
M  V30 1569 H 152.807 -3.22741 2.49604 0
M  V30 1570 H 151.482 -2.45863 3.35446 0
M  V30 1571 H 150.059 -3.30363 1.72958 0
M  V30 1572 N 152.244 -1.26651 -0.937939 0
M  V30 1573 C 153.491 -1.12387 -1.6845 0
M  V30 1574 C 153.819 0.332208 -1.91642 0
M  V30 1575 O 153.074 1.2602 -1.49725 0
M  V30 1576 C 153.373 -1.84168 -3.06295 0
M  V30 1577 C 153.039 -3.34056 -3.02849 0
M  V30 1578 C 151.701 -3.74942 -3.01616 0
M  V30 1579 C 154.053 -4.29741 -2.9491 0
M  V30 1580 C 151.381 -5.09894 -2.90215 0
M  V30 1581 C 153.733 -5.64738 -2.8505 0
M  V30 1582 C 152.397 -6.0493 -2.82162 0
M  V30 1583 H 151.667 -0.411252 -0.616403 0
M  V30 1584 H 154.314 -1.57134 -1.09459 0
M  V30 1585 H 152.619 -1.319 -3.6893 0
M  V30 1586 H 154.316 -1.70569 -3.62915 0
M  V30 1587 H 150.906 -3.01534 -3.0459 0
M  V30 1588 H 155.09 -3.99133 -2.94969 0
M  V30 1589 H 150.346 -5.40194 -2.86358 0
M  V30 1590 H 154.52 -6.38561 -2.77872 0
M  V30 1591 H 152.147 -7.09457 -2.73084 0
M  V30 1592 N 153.722 1.14298 -1.08507 0
M  V30 1593 C 154.947 1.8976 -0.837001 0
M  V30 1594 C 155.372 1.78097 0.605228 0
M  V30 1595 O 154.73 1.12188 1.4242 0
M  V30 1596 C 154.778 3.37685 -1.26495 0
M  V30 1597 O 153.882 4.10281 -0.417514 0
M  V30 1598 H 153.223 0.590365 -0.303917 0
M  V30 1599 H 155.753 1.44672 -1.44676 0
M  V30 1600 H 155.763 3.88501 -1.24625 0
M  V30 1601 H 154.438 3.45492 -2.31534 0
M  V30 1602 H 153.015 3.69536 -0.499722 0
M  V30 1603 N 155.201 0.870884 1.31352 0
M  V30 1604 C 156.447 0.482987 1.96965 0
M  V30 1605 C 156.78 -0.962462 1.68672 0
M  V30 1606 O 156.055 -1.6779 0.98371 0
M  V30 1607 C 156.338 0.741752 3.52378 0
M  V30 1608 C 156.191 2.2368 3.9024 0
M  V30 1609 C 157.51 0.208838 4.39604 0
M  V30 1610 H 154.629 0.176955 0.715441 0
M  V30 1611 H 157.271 1.09229 1.55464 0
M  V30 1612 H 155.421 0.223149 3.87859 0
M  V30 1613 H 157.093 2.82273 3.64856 0
M  V30 1614 H 155.336 2.70901 3.38814 0
M  V30 1615 H 156.007 2.3685 4.98604 0
M  V30 1616 H 158.483 0.652529 4.10952 0
M  V30 1617 H 157.359 0.419336 5.47296 0
M  V30 1618 H 157.62 -0.889275 4.33064 0
M  V30 1619 N 156.679 -1.44442 0.630414 0
M  V30 1620 C 157.927 -2.01653 0.134351 0
M  V30 1621 C 158.248 -1.49836 -1.24796 0
M  V30 1622 O 157.518 -0.701684 -1.82902 0
M  V30 1623 H 156.098 -0.74554 0.0466769 0
M  V30 1624 H 158.76 -1.76952 0.816955 0
M  V30 1625 H 157.856 -3.11935 0.101498 0
M  V30 1626 N 158.157 -0.370918 -1.53173 0
M  V30 1627 C 159.12 0.460778 -2.24521 0
M  V30 1628 C 160.12 1.00536 -1.25496 0
M  V30 1629 O 161.31 0.890266 -1.49733 0
M  V30 1630 C 158.442 1.64457 -2.98608 0
M  V30 1631 H 159.635 -0.163613 -2.99453 0
M  V30 1632 H 157.188 -0.122699 -1.55818 0
M  V30 1633 H 157.923 2.30691 -2.2793 0
M  V30 1634 H 157.708 1.26099 -3.7127 0
M  V30 1635 H 159.198 2.23384 -3.5283 0
M  V30 1636 N 159.635 1.57281 -0.100228 0
M  V30 1637 C 160.86 1.99302 0.573881 0
M  V30 1638 C 161.285 0.979059 1.60611 0
M  V30 1639 O 160.643 -0.0517803 1.81226 0
M  V30 1640 C 160.691 3.40274 1.19358 0
M  V30 1641 O 159.795 3.41676 2.30935 0
M  V30 1642 H 159.136 0.647944 0.145138 0
M  V30 1643 H 161.666 2.03779 -0.183156 0
M  V30 1644 H 161.676 3.78078 1.53365 0
M  V30 1645 H 160.351 4.13594 0.437385 0
M  V30 1646 H 158.928 3.15672 1.98509 0
M  V30 1647 N 161.113 -0.173488 1.56642 0
M  V30 1648 C 162.338 -0.910149 1.86363 0
M  V30 1649 C 162.763 -1.75132 0.686318 0
M  V30 1650 O 162.121 -1.77595 -0.364643 0
M  V30 1651 C 162.169 -1.76447 3.14482 0
M  V30 1652 O 161.273 -2.86584 2.96553 0
M  V30 1653 H 160.614 -0.255086 0.613047 0
M  V30 1654 H 163.144 -0.172283 2.03873 0
M  V30 1655 H 163.154 -2.16483 3.45831 0
M  V30 1656 H 161.829 -1.14658 3.99783 0
M  V30 1657 H 160.406 -2.50146 2.76553 0
M  V30 1658 N 162.591 -1.51276 -0.441967 0
M  V30 1659 C 163.837 -1.63958 -1.19355 0
M  V30 1660 C 164.17 -0.352543 -1.90973 0
M  V30 1661 O 163.445 0.647627 -1.83401 0
M  V30 1662 C 163.728 -2.83979 -2.21422 0
M  V30 1663 C 163.581 -4.22646 -1.53918 0
M  V30 1664 C 164.9 -2.99521 -3.22451 0
M  V30 1665 H 162.019 -0.596709 -0.432559 0
M  V30 1666 H 164.661 -1.83748 -0.483398 0
M  V30 1667 H 162.811 -2.67237 -2.81987 0
M  V30 1668 H 164.483 -4.51045 -0.967256 0
M  V30 1669 H 162.726 -4.25558 -0.841615 0
M  V30 1670 H 163.397 -5.02609 -2.28229 0
M  V30 1671 H 165.873 -3.14944 -2.71937 0
M  V30 1672 H 164.749 -3.85072 -3.91166 0
M  V30 1673 H 165.01 -2.11391 -3.88287 0
M  V30 1674 N 164.069 0.697108 -1.41344 0
M  V30 1675 C 165.315 1.4593 -1.40827 0
M  V30 1676 C 165.648 1.94193 -0.0167098 0
M  V30 1677 O 164.923 1.69425 0.955263 0
M  V30 1678 C 165.206 2.67229 -2.41373 0
M  V30 1679 C 165.059 2.24741 -3.8963 0
M  V30 1680 C 166.378 3.69423 -2.39196 0
M  V30 1681 H 163.497 0.529303 -0.512842 0
M  V30 1682 H 166.139 0.794112 -1.72609 0
M  V30 1683 H 164.289 3.23982 -2.14401 0
M  V30 1684 H 165.961 1.73327 -4.27499 0
M  V30 1685 H 164.204 1.56542 -4.0457 0
M  V30 1686 H 164.875 3.1177 -4.55525 0
M  V30 1687 H 167.351 3.2234 -2.63128 0
M  V30 1688 H 166.227 4.51907 -3.11563 0
M  V30 1689 H 166.488 4.19012 -1.41001 0
M  V30 1690 N 165.547 1.27147 0.931209 0
M  V30 1691 C 166.795 1.13055 1.6752 0
M  V30 1692 C 167.116 -0.324791 1.92276 0
M  V30 1693 O 166.386 -1.22775 1.52654 0
M  V30 1694 H 164.966 0.415391 0.620854 0
M  V30 1695 H 167.628 1.59623 1.11833 0
M  V30 1696 H 166.724 1.65694 2.64485 0
M  V30 1697 N 167.025 -1.13721 1.09112 0
M  V30 1698 C 168.25 -1.89314 0.847053 0
M  V30 1699 C 168.675 -1.78416 -0.595774 0
M  V30 1700 O 168.033 -1.12942 -1.41823 0
M  V30 1701 C 168.081 -3.3701 1.28284 0
M  V30 1702 O 167.185 -4.10054 0.439267 0
M  V30 1703 H 166.526 -0.588745 0.307044 0
M  V30 1704 H 169.056 -1.43902 1.45442 0
M  V30 1705 H 169.066 -3.87834 1.26683 0
M  V30 1706 H 167.741 -3.4426 2.33363 0
M  V30 1707 H 166.318 -3.69266 0.519312 0
M  V30 1708 N 168.503 -0.877838 -1.30888 0
M  V30 1709 C 169.751 -0.491723 -1.96027 0
M  V30 1710 C 170.072 0.960827 -1.69685 0
M  V30 1711 O 169.342 1.67462 -1.01654 0
M  V30 1712 H 167.922 -0.17885 -0.725273 0
M  V30 1713 H 170.584 -1.11935 -1.59551 0
M  V30 1714 H 169.68 -0.656016 -3.05128 0
M  V30 1715 N 169.982 1.44106 -0.638065 0
M  V30 1716 C 171.23 2.01579 -0.145043 0
M  V30 1717 C 171.551 1.50496 1.24 0
M  V30 1718 O 170.821 0.711374 1.82527 0
M  V30 1719 H 169.401 0.745282 -0.05063 0
M  V30 1720 H 172.063 1.76516 -0.826327 0
M  V30 1721 H 171.159 3.11877 -0.118039 0
M  V30 1722 N 171.46 0.379036 1.52974 0
M  V30 1723 C 172.685 -0.209353 2.06341 0
M  V30 1724 C 173.11 -1.40583 1.24972 0
M  V30 1725 O 172.468 -1.79246 0.272155 0
M  V30 1726 C 172.516 -0.567786 3.56102 0
M  V30 1727 O 171.62 -1.66318 3.77375 0
M  V30 1728 H 170.961 -0.0272919 0.663439 0
M  V30 1729 H 173.491 0.543536 1.97248 0
M  V30 1730 H 173.501 -0.835003 3.99364 0
M  V30 1731 H 172.176 0.307013 4.14765 0
M  V30 1732 H 170.753 -1.39048 3.46006 0
M  V30 1733 N 172.938 -1.57226 0.108567 0
M  V30 1734 C 174.163 -1.99604 -0.563303 0
M  V30 1735 C 174.588 -0.987563 -1.6009 0
M  V30 1736 O 173.946 0.0421687 -1.81251 0
M  V30 1737 C 173.994 -3.40902 -1.17552 0
M  V30 1738 O 173.098 -3.42896 -2.2912 0
M  V30 1739 H 172.439 -0.648704 -0.1417 0
M  V30 1740 H 174.969 -2.03679 0.193961 0
M  V30 1741 H 174.979 -3.78886 -1.51357 0
M  V30 1742 H 173.654 -4.1382 -0.415445 0
M  V30 1743 H 172.231 -3.1672 -1.96832 0
M  V30 1744 N 174.416 0.165178 -1.56732 0
M  V30 1745 C 175.693 0.908443 -1.73224 0
M  V30 1746 C 176.073 2.0013 -0.67165 0
M  V30 1747 O 175.421 2.26353 0.31253 0
M  V30 1748 C 175.631 1.46756 -3.16644 0
M  V30 1749 C 176.979 1.93809 -3.77787 0
M  V30 1750 O 178.003 1.56537 -3.1996 0
M  V30 1751 O 176.862 2.62486 -4.79336 0
M  V30 1752 H 173.956 0.428025 -0.707618 0
M  V30 1753 H 176.502 0.152526 -1.69013 0
M  V30 1754 H 175.274 0.68129 -3.85323 0
M  V30 1755 H 174.897 2.28749 -3.25207 0
M  V30 1756 N 175.894 1.51508 0.433938 0
M  V30 1757 C 176.841 1.73068 1.52696 0
M  V30 1758 C 177.811 0.572441 1.55924 0
M  V30 1759 O 178.996 0.807253 1.72882 0
M  V30 1760 C 176.136 1.86474 2.90381 0
M  V30 1761 C 175.249 3.14037 2.96656 0
M  V30 1762 C 174.384 3.18019 4.25485 0
M  V30 1763 C 173.423 4.39882 4.2564 0
M  V30 1764 N 172.56 4.41394 5.45999 0
M  V30 1765 H 177.4 2.66366 1.33615 0
M  V30 1766 H 174.937 1.32008 0.649018 0
M  V30 1767 H 176.895 1.92229 3.70275 0
M  V30 1768 H 175.525 0.965809 3.08013 0
M  V30 1769 H 174.577 3.17575 2.09404 0
M  V30 1770 H 175.889 4.0394 2.92633 0
M  V30 1771 H 175.043 3.22708 5.13755 0
M  V30 1772 H 173.782 2.2601 4.3217 0
M  V30 1773 H 172.787 4.35366 3.35763 0
M  V30 1774 H 174.012 5.33159 4.20617 0
M  V30 1775 H 171.958 3.52258 5.53399 0
M  V30 1776 H 171.875 5.25111 5.4387 0
M  V30 1777 H 173.143 4.50281 6.36292 0
M  V30 1778 N 177.372 -0.689602 1.41712 0
M  V30 1779 C 178.62 -1.4468 1.4111 0
M  V30 1780 C 178.941 -1.94986 0.0232196 0
M  V30 1781 O 178.211 -1.72097 -0.935913 0
M  V30 1782 H 176.791 -0.536847 0.519427 0
M  V30 1783 H 179.453 -0.815825 1.77004 0
M  V30 1784 H 178.549 -2.30706 2.10193 0
M  V30 1785 N 178.85 -1.27639 -0.924453 0
M  V30 1786 C 179.797 -1.10644 -2.0255 0
M  V30 1787 C 180.767 -0.00658438 -1.66099 0
M  V30 1788 O 181.952 -0.16952 -1.90045 0
M  V30 1789 C 179.092 -0.76309 -3.36557 0
M  V30 1790 C 178.205 -1.94091 -3.85944 0
M  V30 1791 C 177.34 -1.53914 -5.08413 0
M  V30 1792 C 176.379 -2.68425 -5.50104 0
M  V30 1793 N 175.516 -2.28815 -6.63768 0
M  V30 1794 H 180.356 -2.04858 -2.16419 0
M  V30 1795 H 177.893 -1.01974 -1.06017 0
M  V30 1796 H 179.851 -0.544822 -4.13627 0
M  V30 1797 H 178.481 0.142102 -3.22487 0
M  V30 1798 H 177.533 -2.27162 -3.05125 0
M  V30 1799 H 178.845 -2.7998 -4.12811 0
M  V30 1800 H 177.999 -1.28231 -5.92994 0
M  V30 1801 H 176.738 -0.651391 -4.8333 0
M  V30 1802 H 175.743 -2.94819 -4.64071 0
M  V30 1803 H 176.968 -3.57826 -5.7718 0
M  V30 1804 H 174.914 -1.42495 -6.40337 0
M  V30 1805 H 174.831 -3.08242 -6.90306 0
M  V30 1806 H 176.099 -2.06387 -7.51681 0
M  V30 1807 N 180.328 1.1314 -1.09713 0
M  V30 1808 C 181.258 2.20748 -0.761102 0
M  V30 1809 C 182.239 1.68061 0.262566 0
M  V30 1810 O 183.424 1.93765 0.129977 0
M  V30 1811 C 180.554 3.46812 -0.184054 0
M  V30 1812 C 179.508 4.12606 -1.13757 0
M  V30 1813 C 178.834 5.33031 -0.422083 0
M  V30 1814 C 180.134 4.59603 -2.48118 0
M  V30 1815 H 181.828 2.49113 -1.66082 0
M  V30 1816 H 179.374 1.19734 -0.799987 0
M  V30 1817 H 181.327 4.21353 0.0631215 0
M  V30 1818 H 180.051 3.17851 0.750868 0
M  V30 1819 H 178.71 3.40036 -1.37007 0
M  V30 1820 H 178.358 5.00335 0.517072 0
M  V30 1821 H 178.058 5.77999 -1.05788 0
M  V30 1822 H 179.582 6.10325 -0.183277 0
M  V30 1823 H 180.996 5.25552 -2.29059 0
M  V30 1824 H 179.393 5.15321 -3.07514 0
M  V30 1825 H 180.463 3.73971 -3.08665 0
M  V30 1826 N 181.806 0.884767 1.30421 0
M  V30 1827 C 183.031 0.517288 2.00845 0
M  V30 1828 C 183.456 -0.886779 1.65885 0
M  V30 1829 O 182.814 -1.58768 0.875354 0
M  V30 1830 C 182.862 0.698994 3.5376 0
M  V30 1831 O 181.966 -0.255208 4.1161 0
M  V30 1832 H 181.307 0.203872 0.631927 0
M  V30 1833 H 183.837 1.19225 1.66272 0
M  V30 1834 H 183.847 0.597912 4.03595 0
M  V30 1835 H 182.522 1.72271 3.78544 0
M  V30 1836 H 181.099 -0.10784 3.72744 0
M  V30 1837 N 183.284 -1.43765 0.645699 0
M  V30 1838 C 184.214 -2.33471 -0.0370477 0
M  V30 1839 C 185.195 -1.49042 -0.819779 0
M  V30 1840 O 186.38 -1.77726 -0.782758 0
M  V30 1841 C 183.51 -3.32311 -1.0093 0
M  V30 1842 C 182.464 -4.2667 -0.337201 0
M  V30 1843 C 181.79 -5.1549 -1.42037 0
M  V30 1844 C 183.09 -5.16657 0.765706 0
M  V30 1845 H 184.784 -2.90809 0.712069 0
M  V30 1846 H 182.33 -1.39834 0.343876 0
M  V30 1847 H 184.283 -3.9396 -1.49578 0
M  V30 1848 H 183.007 -2.73213 -1.78948 0
M  V30 1849 H 181.666 -3.66374 0.128771 0
M  V30 1850 H 181.314 -4.52735 -2.1918 0
M  V30 1851 H 181.014 -5.79438 -0.975966 0
M  V30 1852 H 182.538 -5.80012 -1.90838 0
M  V30 1853 H 183.952 -5.72158 0.361702 0
M  V30 1854 H 182.349 -5.89286 1.13413 0
M  V30 1855 H 183.419 -4.56796 1.62683 0
M  V30 1856 N 184.763 -0.387143 -1.52771 0
M  V30 1857 C 185.695 0.484089 -2.2403 0
M  V30 1858 C 186.708 1.02849 -1.26198 0
M  V30 1859 O 187.897 0.931186 -1.52286 0
M  V30 1860 C 184.997 1.68337 -2.94136 0
M  V30 1861 C 184.17 1.26672 -4.18656 0
M  V30 1862 C 183.229 2.33045 -4.7178 0
M  V30 1863 O 182.255 1.94541 -5.34923 0
M  V30 1864 N 183.457 3.64929 -4.5145 0
M  V30 1865 H 186.222 -0.126404 -2.99433 0
M  V30 1866 H 183.783 -0.213392 -1.60488 0
M  V30 1867 H 185.775 2.39019 -3.26577 0
M  V30 1868 H 184.345 2.20025 -2.22053 0
M  V30 1869 H 183.565 0.388878 -3.92277 0
M  V30 1870 H 184.853 0.964964 -4.99566 0
M  V30 1871 H 184.251 3.98974 -4.01044 0
M  V30 1872 H 182.808 4.31651 -4.88386 0
M  V30 1873 N 186.241 1.57166 -0.116904 0
M  V30 1874 C 187.518 1.86645 0.585049 0
M  V30 1875 C 187.898 1.0177 1.84949 0
M  V30 1876 O 187.246 0.0960379 2.28298 0
M  V30 1877 C 187.456 3.37736 0.879507 0
M  V30 1878 C 188.804 4.06289 1.23348 0
M  V30 1879 O 189.828 3.42743 0.969836 0
M  V30 1880 O 188.687 5.18455 1.7282 0
M  V30 1881 H 185.781 0.772593 0.295007 0
M  V30 1882 H 188.327 1.69025 -0.151249 0
M  V30 1883 H 187.099 3.91296 -0.0166136 0
M  V30 1884 H 186.722 3.6078 1.67103 0
M  V30 1885 N 187.719 -0.156864 1.56817 0
M  V30 1886 C 188.965 -0.872416 1.83076 0
M  V30 1887 C 189.298 -1.81261 0.697001 0
M  V30 1888 O 188.573 -1.92171 -0.30008 0
M  V30 1889 C 188.856 -1.65551 3.19789 0
M  V30 1890 C 188.709 -0.737467 4.43713 0
M  V30 1891 C 190.028 -2.62012 3.53606 0
M  V30 1892 H 187.147 -0.315715 0.665953 0
M  V30 1893 H 189.789 -0.138004 1.89498 0
M  V30 1894 H 187.939 -2.28159 3.14445 0
M  V30 1895 H 189.611 -0.123143 4.61136 0
M  V30 1896 H 187.854 -0.0464067 4.33775 0
M  V30 1897 H 188.525 -1.32122 5.35955 0
M  V30 1898 H 191.001 -2.09525 3.59497 0
M  V30 1899 H 189.877 -3.13861 4.50314 0
M  V30 1900 H 190.138 -3.42902 2.79053 0
M  V30 1901 N 189.197 -1.51736 -0.425897 0
M  V30 1902 C 190.16 -1.73271 -1.50032 0
M  V30 1903 C 191.16 -0.602639 -1.4908 0
M  V30 1904 O 192.35 -0.87033 -1.509 0
M  V30 1905 C 189.482 -1.79969 -2.89523 0
M  V30 1906 H 190.675 -2.69172 -1.32237 0
M  V30 1907 H 188.228 -1.41899 -0.65532 0
M  V30 1908 H 188.963 -0.859241 -3.1271 0
M  V30 1909 H 188.748 -2.62109 -2.91619 0
M  V30 1910 H 190.238 -1.9843 -3.67444 0
M  V30 1911 N 190.675 0.682077 -1.42076 0
M  V30 1912 C 191.585 1.82535 -1.47371 0
M  V30 1913 C 192.601 1.7017 -0.363079 0
M  V30 1914 O 193.777 1.91848 -0.612875 0
M  V30 1915 C 190.842 3.18624 -1.36674 0
M  V30 1916 C 189.903 3.42999 -2.58167 0
M  V30 1917 C 189.136 4.72595 -2.4797 0
M  V30 1918 O 189.359 5.50006 -1.5116 0
M  V30 1919 O 188.293 4.98054 -3.37974 0
M  V30 1920 H 192.119 1.81023 -2.43853 0
M  V30 1921 H 189.704 0.836887 -1.2376 0
M  V30 1922 H 191.586 3.99847 -1.33043 0
M  V30 1923 H 190.261 3.20789 -0.433138 0
M  V30 1924 H 189.168 2.61653 -2.67373 0
M  V30 1925 H 190.501 3.45659 -3.50401 0
M  V30 1926 N 192.153 1.28127 0.917671 0
M  V30 1927 C 193.083 1.14248 2.03641 0
M  V30 1928 C 194.064 0.0412748 1.7005 0
M  V30 1929 O 195.249 0.217566 1.92977 0
M  V30 1930 C 192.379 0.799431 3.37974 0
M  V30 1931 C 191.333 1.85497 3.85713 0
M  V30 1932 C 190.659 1.36565 5.16966 0
M  V30 1933 C 191.959 3.26085 4.08002 0
M  V30 1934 H 193.653 2.07835 2.15511 0
M  V30 1935 H 191.199 1.00064 1.03553 0
M  V30 1936 H 193.152 0.689114 4.15727 0
M  V30 1937 H 191.876 -0.172145 3.26146 0
M  V30 1938 H 190.535 1.95437 3.10161 0
M  V30 1939 H 190.183 0.383253 5.01538 0
M  V30 1940 H 189.883 2.07143 5.49878 0
M  V30 1941 H 191.407 1.26848 5.97279 0
M  V30 1942 H 192.821 3.19089 4.76293 0
M  V30 1943 H 191.218 3.94462 4.52238 0
M  V30 1944 H 192.288 3.70394 3.12948 0
M  V30 1945 N 193.631 -1.12557 1.10312 0
M  V30 1946 C 194.88 -1.83395 0.839588 0
M  V30 1947 C 195.193 -1.84939 -0.636929 0
M  V30 1948 O 196.399 -2.51761 -1.01631 0
M  V30 1949 C 194.855 -3.29303 1.45215 0
M  V30 1950 C 194.463 -3.36122 2.96186 0
M  V30 1951 C 196.207 -4.05121 1.26796 0
M  V30 1952 C 194.114 -4.76357 3.50483 0
M  V30 1953 H 193.044 -0.687133 0.310425 0
M  V30 1954 H 195.695 -1.26746 1.32694 0
M  V30 1955 H 194.077 -3.85812 0.892469 0
M  V30 1956 H 195.251 -2.89559 3.58458 0
M  V30 1957 H 193.566 -2.73776 3.13745 0
M  V30 1958 H 196.163 -5.08668 1.64806 0
M  V30 1959 H 196.506 -4.15773 0.209409 0
M  V30 1960 H 197.039 -3.54967 1.79563 0
M  V30 1961 H 193.778 -4.70899 4.55998 0
M  V30 1962 H 193.298 -5.23377 2.92978 0
M  V30 1963 H 194.977 -5.45294 3.48228 0
M  V30 1964 N 195.109 -0.891671 -1.2995 0
M  V30 1965 C 196.525 -0.58662 -1.48428 0
M  V30 1966 C 196.725 0.873951 -1.81561 0
M  V30 1967 O 195.781 1.65471 -1.90724 0
M  V30 1968 C 197.094 -1.50553 -2.60296 0
M  V30 1969 C 198.642 -1.50988 -2.74175 0
M  V30 1970 C 199.117 -2.41488 -3.89163 0
M  V30 1971 N 200.608 -2.39489 -3.96483 0
M  V30 1972 C 201.343 -3.06223 -4.84784 0
M  V30 1973 N 200.839 -3.82206 -5.77833 0
M  V30 1974 N 202.632 -2.95421 -4.78208 0
M  V30 1975 H 194.783 -1.83644 -1.06718 0
M  V30 1976 H 197.046 -0.786455 -0.529332 0
M  V30 1977 H 196.752 -2.54581 -2.42654 0
M  V30 1978 H 196.626 -1.22008 -3.56923 0
M  V30 1979 H 199.013 -0.47708 -2.91218 0
M  V30 1980 H 199.094 -1.83567 -1.78148 0
M  V30 1981 H 198.738 -3.44857 -3.72876 0
M  V30 1982 H 198.668 -2.06222 -4.84541 0
M  V30 1983 H 201.159 -1.84278 -3.29924 0
M  V30 1984 H 201.472 -4.302 -6.41988 0
M  V30 1985 H 199.817 -3.86313 -5.77743 0
M  V30 1986 H 203.008 -2.35581 -4.04499 0
M  V30 1987 H 203.181 -3.47704 -5.46814 0
M  V30 1988 N 196.587 1.43421 -0.653314 0
M  V30 1989 C 197.55 2.29182 0.0287951 0
M  V30 1990 C 198.55 1.42213 0.750465 0
M  V30 1991 O 199.74 1.63843 0.591701 0
M  V30 1992 C 196.872 3.24278 1.05151 0
M  V30 1993 H 198.065 2.90985 -0.725786 0
M  V30 1994 H 195.618 1.50702 -0.414545 0
M  V30 1995 H 196.353 2.6737 1.83532 0
M  V30 1996 H 196.138 3.88396 0.537687 0
M  V30 1997 H 197.628 3.88647 1.52786 0
M  V30 1998 N 198.065 0.39524 1.52563 0
M  V30 1999 C 199.481 0.0454682 1.59535 0
M  V30 2000 C 199.681 -1.44056 1.4089 0
M  V30 2001 O 198.737 -2.20579 1.22888 0
M  V30 2002 C 200.05 0.527963 2.96029 0
M  V30 2003 C 201.598 0.484733 3.09224 0
M  V30 2004 C 202.073 0.943512 4.48176 0
M  V30 2005 N 203.564 0.899765 4.54377 0
M  V30 2006 C 204.299 1.22609 5.60138 0
M  V30 2007 N 203.795 1.62319 6.73516 0
M  V30 2008 N 205.588 1.14696 5.50274 0
M  V30 2009 H 197.739 1.36261 1.62931 0
M  V30 2010 H 200.002 0.558887 0.765735 0
M  V30 2011 H 199.708 1.56607 3.14908 0
M  V30 2012 H 199.582 -0.0698056 3.77135 0
M  V30 2013 H 201.969 -0.544298 2.90037 0
M  V30 2014 H 202.05 1.11838 2.30056 0
M  V30 2015 H 201.694 1.9708 4.68104 0
M  V30 2016 H 201.624 0.286817 5.25818 0
M  V30 2017 H 204.115 0.607632 3.72983 0
M  V30 2018 H 204.428 1.85567 7.5019 0
M  V30 2019 H 202.773 1.66211 6.74833 0
M  V30 2020 H 205.964 0.835701 4.6058 0
M  V30 2021 H 206.137 1.40459 6.32594 0
M  V30 2022 N 199.544 -1.57102 0.125237 0
M  V30 2023 C 200.507 -2.14471 -0.80838 0
M  V30 2024 C 201.507 -1.0811 -1.19033 0
M  V30 2025 O 202.697 -1.33856 -1.11482 0
M  V30 2026 C 199.829 -2.69005 -2.09402 0
M  V30 2027 H 201.022 -2.98297 -0.309696 0
M  V30 2028 H 198.575 -1.55807 -0.124051 0
M  V30 2029 H 199.31 -1.88785 -2.63687 0
M  V30 2030 H 199.095 -3.46799 -1.82957 0
M  V30 2031 H 200.585 -3.13278 -2.76128 0
M  V30 2032 N 201.022 0.148545 -1.56898 0
M  V30 2033 C 202.262 0.86765 -1.85071 0
M  V30 2034 C 202.626 1.78417 -0.709317 0
M  V30 2035 O 203.827 2.54261 -0.872049 0
M  V30 2036 C 202.098 1.62306 -3.1842 0
M  V30 2037 S 203.657 2.3878 -3.68143 0
M  V30 2038 H 200.475 0.290174 -0.649092 0
M  V30 2039 H 203.077 0.127755 -1.95082 0
M  V30 2040 H 201.781 0.941192 -3.99462 0
M  V30 2041 H 201.312 2.4039 -3.1141 0
M  V30 2042 H 203.327 3.63942 -3.37285 0
M  V30 2043 N 202.5 1.5196 0.417844 0
M  V30 2044 C 203.432 1.70895 1.52733 0
M  V30 2045 C 204.445 0.589405 1.51756 0
M  V30 2046 O 205.634 0.864312 1.56179 0
M  V30 2047 C 202.734 1.72627 2.91639 0
M  V30 2048 C 201.907 3.01479 3.16905 0
M  V30 2049 C 200.966 2.95139 4.35637 0
M  V30 2050 O 199.992 3.69059 4.3334 0
M  V30 2051 N 201.194 2.12328 5.40275 0
M  V30 2052 H 203.959 2.66612 1.36888 0
M  V30 2053 H 201.52 1.50089 0.607037 0
M  V30 2054 H 203.512 1.65928 3.6912 0
M  V30 2055 H 202.082 0.844216 3.00985 0
M  V30 2056 H 201.302 3.21895 2.27546 0
M  V30 2057 H 202.59 3.86736 3.30625 0
M  V30 2058 H 201.988 1.51685 5.44985 0
M  V30 2059 H 200.545 2.11494 6.16534 0
M  V30 2060 N 203.978 -0.674533 1.42435 0
M  V30 2061 C 205.394 -0.98769 1.25367 0
M  V30 2062 C 205.594 -2.00879 0.158044 0
M  V30 2063 O 204.65 -2.48075 -0.470633 0
M  V30 2064 C 205.963 -1.49224 2.6106 0
M  V30 2065 C 207.511 -1.61 2.68417 0
M  V30 2066 C 207.986 -2.14852 4.04478 0
M  V30 2067 N 209.477 -2.22185 4.06434 0
M  V30 2068 C 210.212 -2.64928 5.08528 0
M  V30 2069 N 209.708 -3.07121 6.21006 0
M  V30 2070 N 211.501 -2.64679 4.95885 0
M  V30 2071 H 203.652 0.00152503 2.124 0
M  V30 2072 H 205.915 -0.0618434 0.945981 0
M  V30 2073 H 205.621 -0.816453 3.42092 0
M  V30 2074 H 205.495 -2.47094 2.84999 0
M  V30 2075 H 207.882 -2.27686 1.87732 0
M  V30 2076 H 207.963 -0.616195 2.48267 0
M  V30 2077 H 207.607 -1.48775 4.85622 0
M  V30 2078 H 207.537 -3.15024 4.2198 0
M  V30 2079 H 210.028 -1.92435 3.25234 0
M  V30 2080 H 210.341 -3.38423 6.94759 0
M  V30 2081 H 208.686 -3.04978 6.24511 0
M  V30 2082 H 211.877 -2.31078 4.07088 0
M  V30 2083 H 212.05 -2.9767 5.75584 0
M  V30 2084 N 205.456 -1.28612 -0.910864 0
M  V30 2085 C 206.702 -1.16106 -1.66274 0
M  V30 2086 C 207.035 0.289113 -1.92036 0
M  V30 2087 O 206.31 1.21 -1.52281 0
M  V30 2088 C 206.593 -1.96309 -3.01885 0
M  V30 2089 C 206.446 -3.49405 -2.8326 0
M  V30 2090 C 207.765 -1.78076 -4.02463 0
M  V30 2091 H 204.884 -0.423152 -0.603417 0
M  V30 2092 H 207.526 -1.57961 -1.05586 0
M  V30 2093 H 205.676 -1.60742 -3.53687 0
M  V30 2094 H 207.348 -3.94894 -2.38446 0
M  V30 2095 H 205.591 -3.74893 -2.18261 0
M  V30 2096 H 206.262 -4.00784 -3.79574 0
M  V30 2097 H 208.738 -2.0912 -3.59733 0
M  V30 2098 H 207.614 -2.36561 -4.95308 0
M  V30 2099 H 207.875 -0.733008 -4.35981 0
M  V30 2100 N 206.934 1.1197 -1.10907 0
M  V30 2101 C 208.18 1.8386 -0.855773 0
M  V30 2102 C 208.513 1.84134 0.617103 0
M  V30 2103 O 207.788 1.29041 1.45529 0
M  V30 2104 C 208.071 3.31305 -1.411 0
M  V30 2105 C 207.924 3.39456 -2.9511 0
M  V30 2106 C 209.243 4.2721 -1.05736 0
M  V30 2107 H 206.362 0.667545 -0.312334 0
M  V30 2108 H 209.004 1.31331 -1.37303 0
M  V30 2109 H 207.154 3.76169 -0.97105 0
M  V30 2110 H 208.826 3.03191 -3.47668 0
M  V30 2111 H 207.069 2.79849 -3.31462 0
M  V30 2112 H 207.74 4.43209 -3.29044 0
M  V30 2113 H 210.216 3.90497 -1.43706 0
M  V30 2114 H 209.092 5.28775 -1.47269 0
M  V30 2115 H 209.353 4.42088 0.0325958 0
M  V30 2116 N 208.412 0.89855 1.29475 0
M  V30 2117 C 209.658 0.524658 1.95896 0
M  V30 2118 C 209.991 -0.926468 1.70676 0
M  V30 2119 O 209.266 -1.65665 1.01908 0
M  V30 2120 C 209.549 0.81633 3.50725 0
M  V30 2121 C 209.402 2.31907 3.85408 0
M  V30 2122 C 210.721 0.302038 4.39062 0
M  V30 2123 H 207.84 0.19209 0.711527 0
M  V30 2124 H 210.482 1.12502 1.53112 0
M  V30 2125 H 208.632 0.305369 3.87298 0
M  V30 2126 H 210.304 2.89949 3.58786 0
M  V30 2127 H 208.547 2.78027 3.32992 0
M  V30 2128 H 209.218 2.47373 4.93468 0
M  V30 2129 H 211.694 0.739551 4.09475 0
M  V30 2130 H 210.57 0.535331 5.46283 0
M  V30 2131 H 210.831 -0.797216 4.34853 0
M  V30 2132 N 209.89 -1.43072 0.660911 0
M  V30 2133 C 210.823 -2.28074 -0.0758862 0
M  V30 2134 C 211.801 -1.40271 -0.822362 0
M  V30 2135 O 212.985 -1.69713 -0.820352 0
M  V30 2136 C 210.112 -3.19843 -1.11437 0
M  V30 2137 C 209.158 -4.23957 -0.465069 0
M  V30 2138 S 209.991 -5.29978 0.767078 0
M  V30 2139 C 211.147 -6.25314 -0.270682 0
M  V30 2140 H 211.38 -2.90216 0.645139 0
M  V30 2141 H 208.913 -1.47697 0.449995 0
M  V30 2142 H 210.871 -3.73257 -1.70849 0
M  V30 2143 H 209.532 -2.56863 -1.80776 0
M  V30 2144 H 208.725 -4.88299 -1.24819 0
M  V30 2145 H 208.327 -3.73959 0.0551242 0
M  V30 2146 H 210.619 -6.67932 -1.13459 0
M  V30 2147 H 211.562 -7.07293 0.337916 0
M  V30 2148 H 211.97 -5.61195 -0.609937 0
M  V30 2149 N 211.368 -0.403325 -1.52352 0
M  V30 2150 C 212.614 0.174605 -2.02047 0
M  V30 2151 C 212.947 1.45282 -1.28867 0
M  V30 2152 O 212.222 1.90483 -0.393257 0
M  V30 2153 C 212.505 0.428238 -3.57545 0
M  V30 2154 C 212.358 -0.866248 -4.4138 0
M  V30 2155 C 213.677 1.21287 -4.23057 0
M  V30 2156 H 210.796 0.0619851 -0.734389 0
M  V30 2157 H 213.438 -0.53565 -1.82293 0
M  V30 2158 H 211.588 1.03327 -3.74507 0
M  V30 2159 H 213.26 -1.50265 -4.3614 0
M  V30 2160 H 211.503 -1.47851 -4.07827 0
M  V30 2161 H 212.174 -0.643249 -5.48239 0
M  V30 2162 H 214.65 0.700703 -4.10158 0
M  V30 2163 H 213.526 1.35909 -5.31808 0
M  V30 2164 H 213.787 2.23193 -3.81625 0
M  V30 2165 N 212.846 1.57033 -0.133567 0
M  V30 2166 C 214.094 1.953 0.519848 0
M  V30 2167 C 214.415 1.01866 1.66278 0
M  V30 2168 O 213.685 0.0776513 1.95746 0
M  V30 2169 H 212.265 0.721091 0.195032 0
M  V30 2170 H 214.927 1.93809 -0.205921 0
M  V30 2171 H 214.023 2.98695 0.904854 0
M  V30 2172 N 214.325 -0.140222 1.56975 0
M  V30 2173 C 215.288 -1.15689 1.97861 0
M  V30 2174 C 216.288 -1.3549 0.865974 0
M  V30 2175 O 217.478 -1.32367 1.13246 0
M  V30 2176 C 214.61 -2.51582 2.30042 0
M  V30 2177 H 215.803 -0.805971 2.88867 0
M  V30 2178 H 213.356 -0.383801 1.51515 0
M  V30 2179 H 214.091 -2.91632 1.41849 0
M  V30 2180 H 213.876 -2.38569 3.11171 0
M  V30 2181 H 215.366 -3.24792 2.62488 0
M  V30 2182 N 215.803 -1.52179 -0.40978 0
M  V30 2183 C 217.051 -1.65878 -1.15451 0
M  V30 2184 C 217.372 -0.390771 -1.91044 0
M  V30 2185 O 216.642 0.594323 -1.86667 0
M  V30 2186 H 215.222 -0.611405 -0.429177 0
M  V30 2187 H 217.884 -1.89219 -0.467134 0
M  V30 2188 H 216.98 -2.49954 -1.86894 0
M  V30 2189 N 217.281 0.66697 -1.42791 0
M  V30 2190 C 218.53 1.42278 -1.42968 0
M  V30 2191 C 218.843 1.9553 -0.0524489 0
M  V30 2192 O 220.049 2.71414 0.068363 0
M  V30 2193 C 218.505 2.57418 -2.51524 0
M  V30 2194 C 218.113 2.10832 -3.9529 0
M  V30 2195 C 219.857 3.34878 -2.60877 0
M  V30 2196 C 217.764 3.23101 -4.95338 0
M  V30 2197 H 216.694 0.534533 -0.531781 0
M  V30 2198 H 219.345 0.721302 -1.68729 0
M  V30 2199 H 217.727 3.29971 -2.18941 0
M  V30 2200 H 218.901 1.4538 -4.37266 0
M  V30 2201 H 217.216 1.46289 -3.89857 0
M  V30 2202 H 219.813 4.18505 -3.32802 0
M  V30 2203 H 220.156 3.81993 -1.6549 0
M  V30 2204 H 220.689 2.69398 -2.92693 0
M  V30 2205 H 217.428 2.80969 -5.9223 0
M  V30 2206 H 216.948 3.87309 -4.57987 0
M  V30 2207 H 218.627 3.88447 -5.17415 0
M  V30 2208 N 218.759 1.29093 0.90403 0
M  V30 2209 C 219.984 1.19809 1.69294 0
M  V30 2210 C 220.409 -0.238481 1.86582 0
M  V30 2211 O 219.767 -1.1723 1.383 0
M  V30 2212 C 219.815 1.91202 3.05736 0
M  V30 2213 O 218.919 1.22611 3.93752 0
M  V30 2214 H 218.26 0.415385 0.518027 0
M  V30 2215 H 220.79 1.70586 1.12967 0
M  V30 2216 H 220.8 1.99487 3.55906 0
M  V30 2217 H 219.475 2.95692 2.92471 0
M  V30 2218 H 218.052 1.22554 3.52186 0
M  V30 2219 N 220.237 -1.11381 1.11499 0
M  V30 2220 C 221.465 -1.86934 0.88675 0
M  V30 2221 C 221.88 -1.80195 -0.563476 0
M  V30 2222 O 221.237 -1.18367 -1.38908 0
M  V30 2223 C 221.288 -3.35722 1.34064 0
M  V30 2224 O 221.009 -3.4232 2.73401 0
M  V30 2225 C 222.51 -4.2818 1.14791 0
M  V30 2226 H 219.73 -0.591117 0.317523 0
M  V30 2227 H 222.274 -1.40865 1.48248 0
M  V30 2228 H 220.429 -3.79294 0.788355 0
M  V30 2229 H 220.843 -4.34971 2.93087 0
M  V30 2230 H 222.317 -5.30817 1.5145 0
M  V30 2231 H 222.794 -4.39113 0.0875279 0
M  V30 2232 H 223.4 -3.90402 1.68721 0
M  V30 2233 N 221.715 -0.905404 -1.28997 0
M  V30 2234 C 223.126 -0.581953 -1.77398 0
M  V30 2235 C 223.477 0.902552 -1.74208 0
M  V30 2236 O 222.602 1.70584 -1.33154 0
M  V30 2237 C 223.197 -1.04961 -3.22131 0
M  V30 2238 C 221.756 -0.777229 -3.68288 0
M  V30 2239 C 220.903 -1.22109 -2.48967 0
M  V30 2240 H 223.854 -1.08754 -1.15578 0
M  V30 2241 H 223.875 -0.387387 -3.78523 0
M  V30 2242 H 223.387 -2.13008 -3.24421 0
M  V30 2243 H 221.488 0.290383 -3.71467 0
M  V30 2244 H 221.601 -1.37911 -4.58822 0
M  V30 2245 H 219.965 -0.639971 -2.46529 0
M  V30 2246 H 220.748 -2.30972 -2.53982 0
M  V30 2247 N 223.193 1.4272 -0.668489 0
M  V30 2248 C 224.418 2.06484 -0.194758 0
M  V30 2249 C 224.843 1.49862 1.13679 0
M  V30 2250 O 224.201 0.614582 1.70565 0
M  V30 2251 C 224.249 3.60353 -0.133546 0
M  V30 2252 O 223.353 4.02464 0.899806 0
M  V30 2253 H 222.694 0.656137 -0.10188 0
M  V30 2254 H 225.224 1.82964 -0.915722 0
M  V30 2255 H 225.234 4.07976 0.0447041 0
M  V30 2256 H 223.909 4.00938 -1.1055 0
M  V30 2257 H 222.486 3.66402 0.693109 0
M  V30 2258 N 224.671 0.411399 1.52136 0
M  V30 2259 C 225.919 -0.163322 2.01439 0
M  V30 2260 C 226.24 -1.45453 1.29879 0
M  V30 2261 O 225.51 -1.91225 0.4254 0
M  V30 2262 H 224.09 -0.0633447 0.744309 0
M  V30 2263 H 226.752 0.548161 1.87033 0
M  V30 2264 H 225.848 -0.357817 3.10042 0
M  V30 2265 N 226.149 -1.5696 0.141893 0
M  V30 2266 C 227.398 -1.95135 -0.510427 0
M  V30 2267 C 227.711 -1.02896 -1.66348 0
M  V30 2268 O 228.917 -1.30629 -2.38009 0
M  V30 2269 C 227.373 -3.46876 -0.959427 0
M  V30 2270 C 226.981 -4.47691 0.166419 0
M  V30 2271 C 228.725 -3.93927 -1.58183 0
M  V30 2272 C 226.632 -5.90636 -0.300565 0
M  V30 2273 H 225.562 -0.728494 -0.194454 0
M  V30 2274 H 228.213 -1.8211 0.22542 0
M  V30 2275 H 226.595 -3.55215 -1.75038 0
M  V30 2276 H 227.769 -4.51043 0.94325 0
M  V30 2277 H 226.084 -4.10527 0.696905 0
M  V30 2278 H 228.681 -4.98158 -1.94275 0
M  V30 2279 H 229.024 -3.3519 -2.46888 0
M  V30 2280 H 229.557 -3.88484 -0.855863 0
M  V30 2281 H 226.296 -6.5318 0.550989 0
M  V30 2282 H 225.816 -5.90655 -1.04338 0
M  V30 2283 H 227.495 -6.42588 -0.754265 0
M  V30 2284 N 227.627 0.131896 -1.57047 0
M  V30 2285 C 229.038 0.690407 -1.73465 0
M  V30 2286 C 229.389 1.8094 -0.758629 0
M  V30 2287 O 228.514 2.16282 0.0713813 0
M  V30 2288 C 229.109 1.25916 -3.14532 0
M  V30 2289 C 227.668 1.76409 -3.32501 0
M  V30 2290 C 226.815 0.658579 -2.69366 0
M  V30 2291 H 229.766 -0.0939144 -1.58422 0
M  V30 2292 H 229.787 2.12892 -3.15369 0
M  V30 2293 H 229.299 0.444515 -3.85546 0
M  V30 2294 H 227.4 2.60391 -2.66509 0
M  V30 2295 H 227.513 1.88241 -4.4057 0
M  V30 2296 H 225.877 1.08899 -2.30246 0
M  V30 2297 H 226.66 -0.14487 -3.42994 0
M  V30 2298 N 229.106 1.52395 0.401703 0
M  V30 2299 C 230.383 1.57387 1.16141 0
M  V30 2300 C 230.763 0.359359 2.08019 0
M  V30 2301 O 230.111 -0.65326 2.18963 0
M  V30 2302 C 230.321 2.90631 1.93221 0
M  V30 2303 C 231.669 3.43904 2.49028 0
M  V30 2304 O 232.693 2.92421 2.03393 0
M  V30 2305 O 231.552 4.33823 3.32356 0
M  V30 2306 H 228.646 0.634262 0.530698 0
M  V30 2307 H 231.192 1.64725 0.407883 0
M  V30 2308 H 229.964 3.70473 1.25958 0
M  V30 2309 H 229.587 2.8662 2.75563 0
M  V30 2310 N 230.584 -0.659388 1.43143 0
M  V30 2311 C 231.831 -1.41935 1.44433 0
M  V30 2312 C 232.159 -1.94387 0.0663522 0
M  V30 2313 O 231.414 -1.72314 -0.927706 0
M  V30 2314 C 231.713 -2.62206 2.42864 0
M  V30 2315 C 231.379 -2.28208 3.88886 0
M  V30 2316 C 230.041 -2.18647 4.28657 0
M  V30 2317 C 232.393 -2.00887 4.8093 0
M  V30 2318 C 229.721 -1.79914 5.58433 0
M  V30 2319 C 232.073 -1.63653 6.11065 0
M  V30 2320 C 230.737 -1.52614 6.49819 0
M  V30 2321 H 230.007 -0.519376 0.528517 0
M  V30 2322 H 232.654 -0.750453 1.76183 0
M  V30 2323 H 230.959 -3.34199 2.04495 0
M  V30 2324 H 232.656 -3.2041 2.41119 0
M  V30 2325 H 229.246 -2.36557 3.57406 0
M  V30 2326 H 233.43 -2.07198 4.5098 0
M  V30 2327 H 228.686 -1.69948 5.87305 0
M  V30 2328 H 232.86 -1.41543 6.81864 0
M  V30 2329 H 230.487 -1.22371 7.50286 0
M  V30 2330 N 232.062 -1.29571 -0.897171 0
M  V30 2331 C 233.478 -1.07637 -1.17841 0
M  V30 2332 C 233.678 0.170713 -2.00776 0
M  V30 2333 O 232.734 0.867768 -2.3712 0
M  V30 2334 C 234.047 -2.3332 -1.8969 0
M  V30 2335 C 235.595 -2.38664 -2.02505 0
M  V30 2336 C 236.07 -3.64157 -2.77765 0
M  V30 2337 N 237.561 -3.64894 -2.85318 0
M  V30 2338 C 238.296 -4.58679 -3.44094 0
M  V30 2339 N 237.792 -5.62799 -4.04017 0
M  V30 2340 N 239.585 -4.46245 -3.41793 0
M  V30 2341 H 231.736 -2.09598 -0.343883 0
M  V30 2342 H 233.999 -0.923333 -0.214848 0
M  V30 2343 H 233.705 -3.24262 -1.36187 0
M  V30 2344 H 233.579 -2.41025 -2.9015 0
M  V30 2345 H 235.966 -1.48208 -2.55183 0
M  V30 2346 H 236.047 -2.34943 -1.01171 0
M  V30 2347 H 235.691 -4.54965 -2.25763 0
M  V30 2348 H 235.621 -3.65137 -3.7945 0
M  V30 2349 H 238.112 -2.89613 -2.42761 0
M  V30 2350 H 238.425 -6.3048 -4.46895 0
M  V30 2351 H 236.77 -5.66605 -4.02472 0
M  V30 2352 H 239.961 -3.64094 -2.94199 0
M  V30 2353 H 240.134 -5.19518 -3.87304 0
M  V30 2354 N 233.54 1.10788 -1.12088 0
M  V30 2355 C 234.765 1.87002 -0.896949 0
M  V30 2356 C 235.19 1.79933 0.548261 0
M  V30 2357 O 234.548 1.16662 1.38779 0
M  V30 2358 C 234.596 3.3349 -1.37174 0
M  V30 2359 O 233.7 4.08745 -0.547831 0
M  V30 2360 H 233.041 0.580397 -0.322545 0
M  V30 2361 H 235.571 1.39996 -1.49206 0
M  V30 2362 H 235.581 3.84339 -1.36922 0
M  V30 2363 H 234.256 3.37951 -2.42408 0
M  V30 2364 H 232.833 3.6776 -0.617034 0
M  V30 2365 N 235.018 0.912232 1.28515 0
M  V30 2366 C 236.429 0.591352 1.77087 0
M  V30 2367 C 236.78 -0.8933 1.74684 0
M  V30 2368 O 235.905 -1.69876 1.34056 0
M  V30 2369 C 236.5 1.06668 3.2157 0
M  V30 2370 C 235.059 0.79675 3.67871 0
M  V30 2371 C 234.206 1.23427 2.48316 0
M  V30 2372 H 237.157 1.09365 1.15 0
M  V30 2373 H 237.178 0.407455 3.78312 0
M  V30 2374 H 236.69 2.14726 3.23287 0
M  V30 2375 H 234.791 -0.270679 3.71616 0
M  V30 2376 H 234.904 1.40343 4.58084 0
M  V30 2377 H 233.268 0.653036 2.46186 0
M  V30 2378 H 234.051 2.32316 2.52753 0
M  V30 2379 N 236.496 -1.42363 0.676048 0
M  V30 2380 C 237.744 -2.01123 0.198437 0
M  V30 2381 C 238.065 -1.53731 -1.19966 0
M  V30 2382 O 237.335 -0.759518 -1.80577 0
M  V30 2383 H 235.915 -0.743678 0.0703721 0
M  V30 2384 H 238.577 -1.74263 0.872837 0
M  V30 2385 H 237.673 -3.11454 0.200686 0
M  V30 2386 N 237.974 -0.419461 -1.51915 0
M  V30 2387 C 239.199 0.154572 -2.06823 0
M  V30 2388 C 239.624 1.3722 -1.28656 0
M  V30 2389 O 238.982 1.78461 -0.319583 0
M  V30 2390 C 239.03 0.473172 -3.57482 0
M  V30 2391 O 238.134 1.56255 -3.81652 0
M  V30 2392 H 237.475 0.0096924 -0.663929 0
M  V30 2393 H 240.005 -0.595642 -1.95738 0
M  V30 2394 H 240.015 0.728825 -4.01438 0
M  V30 2395 H 238.69 -0.416873 -4.13805 0
M  V30 2396 H 237.267 1.29825 -3.49571 0
M  V30 2397 N 239.452 1.56882 -0.150215 0
M  V30 2398 C 240.7 1.9584 0.499105 0
M  V30 2399 C 241.021 1.03623 1.65188 0
M  V30 2400 O 240.291 0.0984084 1.95653 0
M  V30 2401 H 238.871 0.723119 0.187373 0
M  V30 2402 H 241.533 1.9358 -0.226466 0
M  V30 2403 H 240.629 2.99638 0.873122 0
M  V30 2404 N 240.93 -0.123565 1.57115 0
M  V30 2405 C 241.86 -1.15309 2.03042 0
M  V30 2406 C 242.841 -1.43454 0.914061 0
M  V30 2407 O 244.026 -1.53973 1.18347 0
M  V30 2408 C 241.156 -2.48043 2.43089 0
M  V30 2409 C 240.11 -2.3437 3.58127 0
M  V30 2410 C 239.436 -3.72026 3.84059 0
M  V30 2411 C 240.736 -1.80804 4.90007 0
M  V30 2412 H 242.43 -0.771102 2.893 0
M  V30 2413 H 239.976 -0.369479 1.39179 0
M  V30 2414 H 241.929 -3.20311 2.73823 0
M  V30 2415 H 240.653 -2.88122 1.53796 0
M  V30 2416 H 239.312 -1.64551 3.27595 0
M  V30 2417 H 238.96 -4.09582 2.91979 0
M  V30 2418 H 238.66 -3.63732 4.6149 0
M  V30 2419 H 240.184 -4.45806 4.1724 0
M  V30 2420 H 241.598 -2.42886 5.19307 0
M  V30 2421 H 239.995 -1.83343 5.71407 0
M  V30 2422 H 241.065 -0.76528 4.78823 0
M  V30 2423 N 242.408 -1.52605 -0.393616 0
M  V30 2424 C 243.638 -1.71046 -1.15874 0
M  V30 2425 C 244.046 -0.426483 -1.84331 0
M  V30 2426 O 243.389 0.608513 -1.73329 0
M  V30 2427 C 243.451 -2.80118 -2.25332 0
M  V30 2428 C 243.115 -4.21381 -1.76881 0
M  V30 2429 C 244.112 -5.04697 -1.24808 0
M  V30 2430 C 241.797 -4.67683 -1.83244 0
M  V30 2431 C 243.791 -6.32393 -0.797387 0
M  V30 2432 C 241.478 -5.95364 -1.37787 0
M  V30 2433 C 242.476 -6.77549 -0.861208 0
M  V30 2434 O 242.164 -8.02837 -0.413252 0
M  V30 2435 H 241.896 -0.576155 -0.353583 0
M  V30 2436 H 244.45 -2.00018 -0.467123 0
M  V30 2437 H 242.68 -2.46557 -2.97904 0
M  V30 2438 H 244.369 -2.87006 -2.87023 0
M  V30 2439 H 245.135 -4.70111 -1.19252 0
M  V30 2440 H 241.014 -4.03805 -2.22401 0
M  V30 2441 H 244.558 -6.9649 -0.393437 0
M  V30 2442 H 240.455 -6.29455 -1.43026 0
M  V30 2443 H 241.223 -8.16749 -0.53515 0
M  V30 2444 N 243.887 0.651787 -1.4349 0
M  V30 2445 C 245.112 1.44434 -1.48841 0
M  V30 2446 C 245.537 1.8779 -0.107955 0
M  V30 2447 O 244.895 1.57464 0.898602 0
M  V30 2448 C 244.943 2.65458 -2.44059 0
M  V30 2449 O 244.047 3.64566 -1.92784 0
M  V30 2450 H 243.388 0.433005 -0.503391 0
M  V30 2451 H 245.918 0.797451 -1.88419 0
M  V30 2452 H 245.928 3.13255 -2.6141 0
M  V30 2453 H 244.603 2.33244 -3.4434 0
M  V30 2454 H 243.18 3.23716 -1.851 0
M  V30 2455 N 245.365 1.30045 0.890287 0
M  V30 2456 C 246.313 1.15873 2.01683 0
M  V30 2457 C 247.307 0.0719403 1.69247 0
M  V30 2458 O 248.513 0.232414 1.78493 0
M  V30 2459 H 244.888 0.358203 0.661207 0
M  V30 2460 H 246.859 2.11229 2.10772 0
M  V30 2461 C 245.608 0.861842 3.36849 0
M  V30 2462 H 244.931 1.69016 3.62317 0
M  V30 2463 H 246.371 0.802762 4.16331 0
M  V30 2464 C 244.83 -0.435132 3.34078 0
M  V30 2465 O 245.36 -1.4583 3.74295 0
M  V30 2466 N 243.566 -0.444377 2.87182 0
M  V30 2467 H 243.113 0.388723 2.5465 0
M  V30 2468 H 243.071 -1.31213 2.85711 0
M  V30 2469 N 246.843 -1.10192 1.12674 0
M  V30 2470 C 247.773 -2.18652 0.819362 0
M  V30 2471 C 248.754 -1.68698 -0.217915 0
M  V30 2472 O 249.939 -1.94041 -0.0785581 0
M  V30 2473 C 247.069 -3.46202 0.27594 0
M  V30 2474 C 246.023 -4.09444 1.24656 0
M  V30 2475 C 245.349 -5.31725 0.563258 0
M  V30 2476 C 246.649 -4.52863 2.60217 0
M  V30 2477 H 248.343 -2.44622 1.72628 0
M  V30 2478 H 245.889 -1.17571 0.831451 0
M  V30 2479 H 247.842 -4.21372 0.0486149 0
M  V30 2480 H 246.566 -3.1973 -0.666331 0
M  V30 2481 H 245.225 -3.36284 1.45974 0
M  V30 2482 H 244.873 -5.0153 -0.384235 0
M  V30 2483 H 244.573 -5.74991 1.21075 0
M  V30 2484 H 246.097 -6.09624 0.34503 0
M  V30 2485 H 247.511 -5.19294 2.42913 0
M  V30 2486 H 245.908 -5.06986 3.21068 0
M  V30 2487 H 246.978 -3.65656 3.18471 0
M  V30 2488 N 248.321 -0.919034 -1.28029 0
M  V30 2489 C 249.253 -0.368762 -2.26214 0
M  V30 2490 C 250.266 0.495716 -1.55069 0
M  V30 2491 O 251.455 0.30974 -1.75792 0
M  V30 2492 C 248.555 0.491049 -3.35324 0
M  V30 2493 C 247.728 -0.352133 -4.3598 0
M  V30 2494 C 246.787 0.443622 -5.24327 0
M  V30 2495 O 245.813 -0.14566 -5.69014 0
M  V30 2496 N 247.015 1.74545 -5.53637 0
M  V30 2497 H 249.78 -1.21273 -2.74068 0
M  V30 2498 H 247.341 -0.785541 -1.41566 0
M  V30 2499 H 249.333 1.03026 -3.91366 0
M  V30 2500 H 247.903 1.23574 -2.87138 0
M  V30 2501 H 247.123 -1.07269 -3.79324 0
M  V30 2502 H 248.411 -0.928883 -5.00249 0
M  V30 2503 H 247.809 2.24666 -5.19174 0
M  V30 2504 H 246.366 2.23138 -6.12416 0
M  V30 2505 N 249.799 1.42003 -0.683588 0
M  V30 2506 C 250.731 2.29183 0.0283068 0
M  V30 2507 C 251.744 1.4415 0.756611 0
M  V30 2508 O 252.933 1.67779 0.609306 0
M  V30 2509 C 250.033 3.21765 1.06398 0
M  V30 2510 C 249.206 4.35496 0.407723 0
M  V30 2511 C 248.265 5.08737 1.34437 0
M  V30 2512 O 247.291 5.62948 0.841318 0
M  V30 2513 N 248.493 5.15075 2.67728 0
M  V30 2514 H 251.258 2.9092 -0.720105 0
M  V30 2515 H 248.819 1.53025 -0.528682 0
M  V30 2516 H 250.811 3.6763 1.69204 0
M  V30 2517 H 249.381 2.61418 1.71404 0
M  V30 2518 H 248.601 3.92165 -0.400012 0
M  V30 2519 H 249.889 5.08776 -0.0490956 0
M  V30 2520 H 249.287 4.72457 3.11129 0
M  V30 2521 H 247.844 5.64556 3.2576 0
M  V30 2522 N 251.277 0.427512 1.51691 0
M  V30 2523 C 252.507 -0.140986 2.06118 0
M  V30 2524 C 252.915 -1.37854 1.29588 0
M  V30 2525 O 252.258 -1.80411 0.346036 0
M  V30 2526 C 252.32 -0.538276 3.55447 0
M  V30 2527 C 251.984 0.591095 4.53161 0
M  V30 2528 C 252.981 1.46027 4.98971 0
M  V30 2529 C 250.666 0.769028 4.96378 0
M  V30 2530 C 252.66 2.49216 5.8666 0
M  V30 2531 C 250.347 1.80421 5.83859 0
M  V30 2532 C 251.345 2.66417 6.28897 0
M  V30 2533 O 251.033 3.68159 7.14643 0
M  V30 2534 H 250.765 -0.0157455 0.675817 0
M  V30 2535 H 253.319 0.602495 1.96365 0
M  V30 2536 H 251.549 -1.33432 3.6295 0
M  V30 2537 H 253.238 -1.0368 3.92435 0
M  V30 2538 H 254.004 1.33429 4.66285 0
M  V30 2539 H 249.883 0.109273 4.6087 0
M  V30 2540 H 253.427 3.16372 6.21735 0
M  V30 2541 H 249.324 1.93042 6.15959 0
M  V30 2542 H 250.092 3.64622 7.32798 0
M  V30 2543 N 252.755 -1.56801 0.158532 0
M  V30 2544 C 254.032 -1.88131 -0.535357 0
M  V30 2545 C 254.412 -1.06638 -1.82186 0
M  V30 2546 O 253.76 -0.156533 -2.27963 0
M  V30 2547 C 253.97 -3.39949 -0.789653 0
M  V30 2548 C 255.318 -4.09416 -1.12533 0
M  V30 2549 O 256.342 -3.45194 -0.878622 0
M  V30 2550 O 255.201 -5.22855 -1.59014 0
M  V30 2551 H 252.295 -0.780143 -0.27442 0
M  V30 2552 H 254.841 -1.68564 0.19601 0
M  V30 2553 H 253.613 -3.91115 0.120353 0
M  V30 2554 H 253.236 -3.65084 -1.57479 0
M  V30 2555 N 254.233 0.115231 -1.57178 0
M  V30 2556 C 255.163 1.1423 -2.03651 0
M  V30 2557 C 256.144 1.42967 -0.921655 0
M  V30 2558 O 257.329 1.53343 -1.19162 0
M  V30 2559 C 254.459 2.4675 -2.44401 0
M  V30 2560 C 253.413 2.32467 -3.59365 0
M  V30 2561 C 252.739 3.69984 -3.86026 0
M  V30 2562 C 254.039 1.78203 -4.90959 0
M  V30 2563 H 255.733 0.755749 -2.89705 0
M  V30 2564 H 253.279 0.362093 -1.39373 0
M  V30 2565 H 255.232 3.18854 -2.75517 0
M  V30 2566 H 253.956 2.87302 -1.55322 0
M  V30 2567 H 252.615 1.62811 -3.28463 0
M  V30 2568 H 252.263 4.08028 -2.94147 0
M  V30 2569 H 251.963 3.61279 -4.63412 0
M  V30 2570 H 253.487 4.43587 -4.19599 0
M  V30 2571 H 254.901 2.40128 -5.20587 0
M  V30 2572 H 253.298 1.8031 -5.72371 0
M  V30 2573 H 254.368 0.739876 -4.79222 0
M  V30 2574 N 255.711 1.52812 0.385517 0
M  V30 2575 C 257.122 1.5993 0.963293 0
M  V30 2576 C 257.473 0.454302 1.90868 0
M  V30 2577 O 256.598 -0.422132 2.12243 0
M  V30 2578 C 257.193 2.89871 1.75387 0
M  V30 2579 C 255.752 2.99389 2.28129 0
M  V30 2580 C 254.899 2.55071 1.08783 0
M  V30 2581 H 257.85 1.5784 0.164948 0
M  V30 2582 H 257.871 2.76553 2.61341 0
M  V30 2583 H 257.383 3.73186 1.06554 0
M  V30 2584 H 255.484 2.20619 3.00263 0
M  V30 2585 H 255.597 4.04096 2.57377 0
M  V30 2586 H 253.961 2.09473 1.4489 0
M  V30 2587 H 254.744 3.40785 0.414807 0
M  V30 2588 N 257.189 -0.644168 1.43834 0
M  V30 2589 C 258.419 -1.42939 1.49171 0
M  V30 2590 C 258.827 -1.88874 0.111048 0
M  V30 2591 O 258.17 -1.60656 -0.8908 0
M  V30 2592 C 258.232 -2.69151 2.38324 0
M  V30 2593 C 257.896 -2.45097 3.85715 0
M  V30 2594 C 258.893 -2.07747 4.76589 0
M  V30 2595 C 256.578 -2.59141 4.30292 0
M  V30 2596 C 258.572 -1.8475 6.10038 0
M  V30 2597 C 256.259 -2.35759 5.63792 0
M  V30 2598 C 257.257 -1.9862 6.53482 0
M  V30 2599 O 256.945 -1.75489 7.84512 0
M  V30 2600 H 256.677 -0.445271 0.508635 0
M  V30 2601 H 259.231 -0.79621 1.8934 0
M  V30 2602 H 257.461 -3.3506 1.93058 0
M  V30 2603 H 259.15 -3.31123 2.3476 0
M  V30 2604 H 259.916 -1.96465 4.43426 0
M  V30 2605 H 255.795 -2.87022 3.60749 0
M  V30 2606 H 259.339 -1.55686 6.80006 0
M  V30 2607 H 255.236 -2.46646 5.9652 0
M  V30 2608 H 256.004 -1.89841 7.9618 0
M  V30 2609 N 258.668 -1.30515 -0.883378 0
M  V30 2610 C 260.079 -1.17509 -1.45081 0
M  V30 2611 C 260.43 0.223605 -1.94922 0
M  V30 2612 O 259.555 1.12041 -1.85137 0
M  V30 2613 C 260.15 -2.12715 -2.63701 0
M  V30 2614 C 258.709 -2.03682 -3.16529 0
M  V30 2615 C 257.856 -2.02706 -1.89224 0
M  V30 2616 H 260.807 -1.42762 -0.693165 0
M  V30 2617 H 260.828 -1.70891 -3.39965 0
M  V30 2618 H 260.34 -3.14505 -2.27395 0
M  V30 2619 H 258.441 -1.05039 -3.57488 0
M  V30 2620 H 258.554 -2.92146 -3.7972 0
M  V30 2621 H 256.918 -1.4753 -2.07622 0
M  V30 2622 H 257.701 -3.06229 -1.55174 0
M  V30 2623 N 260.146 1.09593 -1.13257 0
M  V30 2624 C 261.056 2.19739 -0.821691 0
M  V30 2625 C 262.072 1.72926 0.19302 0
M  V30 2626 O 263.248 2.01385 0.0244895 0
M  V30 2627 C 260.313 3.45482 -0.290333 0
M  V30 2628 C 259.374 4.06985 -1.36607 0
M  V30 2629 C 258.607 5.26726 -0.859975 0
M  V30 2630 O 258.83 5.69594 0.303082 0
M  V30 2631 O 257.764 5.7931 -1.63351 0
M  V30 2632 H 261.59 2.48781 -1.74189 0
M  V30 2633 H 259.175 1.18496 -0.909894 0
M  V30 2634 H 261.057 4.214 0.000674022 0
M  V30 2635 H 259.732 3.18047 0.602306 0
M  V30 2636 H 258.639 3.32712 -1.71037 0
M  V30 2637 H 259.972 4.38643 -2.23279 0
M  V30 2638 N 261.624 0.925811 1.2754 0
M  V30 2639 C 262.587 0.428129 2.25166 0
M  V30 2640 C 263.587 -0.452261 1.54309 0
M  V30 2641 O 264.777 -0.253608 1.72344 0
M  V30 2642 C 261.909 -0.384749 3.38722 0
M  V30 2643 H 263.102 1.29066 2.70706 0
M  V30 2644 H 260.655 0.706323 1.3943 0
M  V30 2645 H 261.39 -1.26618 2.98561 0
M  V30 2646 H 261.175 0.246454 3.91325 0
M  V30 2647 H 262.665 -0.723389 4.11287 0
M  V30 2648 N 263.102 -1.41638 0.69111 0
M  V30 2649 C 264.351 -2.00526 0.217318 0
M  V30 2650 C 264.664 -1.55353 -1.18848 0
M  V30 2651 O 265.87 -2.06769 -1.75951 0
M  V30 2652 C 264.326 -3.58313 0.337639 0
M  V30 2653 C 263.934 -4.12469 1.74852 0
M  V30 2654 C 265.678 -4.24431 -0.0766066 0
M  V30 2655 C 263.585 -5.62675 1.82074 0
M  V30 2656 H 262.515 -0.750008 0.0774893 0
M  V30 2657 H 265.166 -1.6217 0.858661 0
M  V30 2658 H 263.548 -3.9425 -0.371879 0
M  V30 2659 H 264.722 -3.8796 2.48644 0
M  V30 2660 H 263.037 -3.58861 2.11205 0
M  V30 2661 H 265.634 -5.34683 -0.0430284 0
M  V30 2662 H 265.977 -4.01101 -1.1146 0
M  V30 2663 H 266.51 -3.93512 0.582476 0
M  V30 2664 H 263.249 -5.90826 2.83911 0
M  V30 2665 H 262.769 -5.89124 1.12661 0
M  V30 2666 H 264.448 -6.27371 1.58159 0
M  V30 2667 N 264.58 -0.43555 -1.51462 0
M  V30 2668 C 265.827 0.131514 -2.02072 0
M  V30 2669 C 266.155 1.42868 -1.31981 0
M  V30 2670 O 265.41 1.91076 -0.422883 0
M  V30 2671 C 265.709 0.39942 -3.55161 0
M  V30 2672 C 265.375 -0.81172 -4.43533 0
M  V30 2673 C 264.037 -1.14387 -4.67407 0
M  V30 2674 C 266.389 -1.61976 -4.95392 0
M  V30 2675 C 263.717 -2.28477 -5.40384 0
M  V30 2676 C 266.069 -2.75164 -5.6962 0
M  V30 2677 C 264.733 -3.08835 -5.91758 0
M  V30 2678 H 264.003 0.0481244 -0.739436 0
M  V30 2679 H 266.65 -0.58238 -1.8243 0
M  V30 2680 H 264.955 1.19519 -3.73125 0
M  V30 2681 H 266.652 0.85157 -3.91854 0
M  V30 2682 H 263.242 -0.542898 -4.25148 0
M  V30 2683 H 267.426 -1.37637 -4.76833 0
M  V30 2684 H 262.682 -2.5488 -5.55739 0
M  V30 2685 H 266.856 -3.38147 -6.08793 0
M  V30 2686 H 264.483 -3.97353 -6.48086 0
M  V30 2687 N 266.058 1.56714 -0.166846 0
M  V30 2688 C 266.968 2.21331 0.777791 0
M  V30 2689 C 267.984 1.20358 1.25658 0
M  V30 2690 O 269.16 1.53005 1.30964 0
M  V30 2691 C 266.225 2.83787 1.99163 0
M  V30 2692 C 265.286 3.99947 1.56016 0
M  V30 2693 C 264.519 4.59415 2.71613 0
M  V30 2694 O 264.742 4.17769 3.88362 0
M  V30 2695 O 263.676 5.49359 2.45945 0
M  V30 2696 H 267.502 3.02605 0.257636 0
M  V30 2697 H 265.087 1.49275 0.0611393 0
M  V30 2698 H 266.969 3.23405 2.70161 0
M  V30 2699 H 265.644 2.05513 2.50092 0
M  V30 2700 H 264.551 3.65007 0.819809 0
M  V30 2701 H 265.884 4.79801 1.09782 0
M  V30 2702 N 267.536 -0.106894 1.57237 0
M  V30 2703 C 268.466 -1.13148 2.04254 0
M  V30 2704 C 269.447 -1.42476 0.929224 0
M  V30 2705 O 270.632 -1.52709 1.19973 0
M  V30 2706 C 267.762 -2.4545 2.45706 0
M  V30 2707 C 266.716 -2.30558 3.60592 0
M  V30 2708 C 266.042 -3.67931 3.87983 0
M  V30 2709 C 267.342 -1.75597 4.91897 0
M  V30 2710 H 269.036 -0.740374 2.90101 0
M  V30 2711 H 266.582 -0.354696 1.39563 0
M  V30 2712 H 268.535 -3.17389 2.77205 0
M  V30 2713 H 267.259 -2.86475 1.56843 0
M  V30 2714 H 265.918 -1.61067 3.29322 0
M  V30 2715 H 265.566 -4.06462 2.96306 0
M  V30 2716 H 265.266 -3.58817 4.65322 0
M  V30 2717 H 266.79 -4.41356 4.21945 0
M  V30 2718 H 268.204 -2.37364 5.21854 0
M  V30 2719 H 266.601 -1.77272 5.73319 0
M  V30 2720 H 267.671 -0.714451 4.79608 0
M  V30 2721 N 269.014 -1.53014 -0.377408 0
M  V30 2722 C 270.425 -1.60438 -0.954798 0
M  V30 2723 C 270.776 -0.464418 -1.90624 0
M  V30 2724 O 269.901 0.41087 -2.12464 0
M  V30 2725 C 270.496 -2.90797 -1.73847 0
M  V30 2726 C 269.055 -3.00595 -2.26538 0
M  V30 2727 C 268.202 -2.55645 -1.07429 0
M  V30 2728 H 271.153 -1.57926 -0.156575 0
M  V30 2729 H 271.174 -2.77935 -2.5987 0
M  V30 2730 H 270.686 -3.73746 -1.04574 0
M  V30 2731 H 268.787 -2.22208 -2.99089 0
M  V30 2732 H 268.9 -4.05456 -2.5523 0
M  V30 2733 H 267.264 -2.10239 -1.43777 0
M  V30 2734 H 268.047 -3.41 -0.396728 0
M  V30 2735 N 270.492 0.636531 -1.44174 0
M  V30 2736 C 271.739 1.39619 -1.46672 0
M  V30 2737 C 272.067 1.94257 -0.0972691 0
M  V30 2738 O 271.322 1.73768 0.900175 0
M  V30 2739 C 271.621 2.58309 -2.47005 0
M  V30 2740 C 271.287 2.21992 -3.92467 0
M  V30 2741 C 269.949 2.118 -4.32081 0
M  V30 2742 C 272.301 1.9321 -4.84065 0
M  V30 2743 C 269.629 1.71007 -5.61225 0
M  V30 2744 C 271.981 1.53911 -6.13591 0
M  V30 2745 C 270.645 1.42257 -6.52165 0
M  V30 2746 H 269.915 0.510902 -0.536712 0
M  V30 2747 H 272.562 0.722328 -1.77355 0
M  V30 2748 H 270.867 3.30903 -2.09786 0
M  V30 2749 H 272.564 3.16533 -2.46186 0
M  V30 2750 H 269.154 2.30841 -3.61124 0
M  V30 2751 H 273.338 1.99997 -4.54219 0
M  V30 2752 H 268.594 1.60583 -5.89935 0
M  V30 2753 H 272.768 1.30677 -6.8403 0
M  V30 2754 H 270.395 1.10419 -7.52138 0
M  V30 2755 N 271.97 1.30982 0.876444 0
M  V30 2756 C 273.217 1.20296 1.62896 0
M  V30 2757 C 273.545 -0.240395 1.93009 0
M  V30 2758 O 272.8 -1.18733 1.55567 0
M  V30 2759 C 273.099 1.98572 2.9716 0
M  V30 2760 C 272.765 3.48125 2.86566 0
M  V30 2761 C 271.427 3.88905 2.83383 0
M  V30 2762 C 273.779 4.43322 2.74071 0
M  V30 2763 C 271.107 5.2316 2.65556 0
M  V30 2764 C 273.459 5.77695 2.57781 0
M  V30 2765 C 272.123 6.17704 2.52979 0
M  V30 2766 H 271.393 0.440193 0.59608 0
M  V30 2767 H 274.04 1.62177 1.01837 0
M  V30 2768 H 272.345 1.49352 3.62217 0
M  V30 2769 H 274.042 1.8769 3.54364 0
M  V30 2770 H 270.632 3.15723 2.89856 0
M  V30 2771 H 274.816 4.12752 2.75589 0
M  V30 2772 H 270.072 5.53241 2.60259 0
M  V30 2773 H 274.246 6.51091 2.47089 0
M  V30 2774 H 271.873 7.21678 2.38924 0
M  V30 2775 N 273.449 -1.08991 1.13837 0
M  V30 2776 C 274.696 -1.81258 0.902882 0
M  V30 2777 C 275.024 -1.85936 -0.570803 0
M  V30 2778 O 274.279 -1.3267 -1.43865 0
M  V30 2779 C 274.578 -3.27042 1.44147 0
M  V30 2780 C 274.244 -3.4249 2.93276 0
M  V30 2781 C 272.906 -3.46414 3.33992 0
M  V30 2782 C 275.258 -3.4666 3.892 0
M  V30 2783 C 272.586 -3.52091 4.69307 0
M  V30 2784 C 274.938 -3.53872 5.24364 0
M  V30 2785 C 273.602 -3.56066 5.646 0
M  V30 2786 H 272.872 -0.663268 0.330388 0
M  V30 2787 H 275.519 -1.28368 1.42105 0
M  V30 2788 H 273.824 -3.82599 0.844097 0
M  V30 2789 H 275.521 -3.81499 1.23528 0
M  V30 2790 H 272.111 -3.40124 2.60794 0
M  V30 2791 H 276.295 -3.42865 3.58828 0
M  V30 2792 H 271.551 -3.52079 4.9985 0
M  V30 2793 H 275.725 -3.56043 5.98503 0
M  V30 2794 H 273.352 -3.60218 6.69438 0
M  V30 2795 N 274.927 -0.932562 -1.27047 0
M  V30 2796 C 275.877 -0.406392 -2.24349 0
M  V30 2797 C 276.861 0.492066 -1.53191 0
M  V30 2798 O 278.053 0.328717 -1.73921 0
M  V30 2799 C 275.182 0.335214 -3.41659 0
M  V30 2800 C 274.268 -0.58004 -4.20115 0
M  V30 2801 N 274.659 -1.70203 -4.76303 0
M  V30 2802 C 272.957 -0.383974 -4.44344 0
M  V30 2803 C 273.658 -2.27167 -5.35509 0
M  V30 2804 N 272.634 -1.56068 -5.20715 0
M  V30 2805 H 276.436 -1.26299 -2.65378 0
M  V30 2806 H 273.95 -0.787408 -1.42034 0
M  V30 2807 H 275.947 0.729142 -4.10474 0
M  V30 2808 H 274.607 1.18868 -3.0216 0
M  V30 2809 H 275.618 -2.08433 -4.74106 0
M  V30 2810 H 272.295 0.428436 -4.15296 0
M  V30 2811 H 273.685 -3.21654 -5.89905 0
M  V30 2812 N 276.405 1.4127 -0.698611 0
M  V30 2813 C 277.353 2.32588 -0.023855 0
M  V30 2814 C 278.347 1.51128 0.765292 0
M  V30 2815 O 279.553 1.67043 0.670571 0
M  V30 2816 H 275.928 0.751918 0.0110871 0
M  V30 2817 H 277.899 2.87167 -0.811031 0
M  V30 2818 C 276.648 3.35947 0.896369 0
M  V30 2819 H 275.971 3.98684 0.298548 0
M  V30 2820 H 277.411 4.02376 1.33676 0
M  V30 2821 C 275.87 2.70076 2.01396 0
M  V30 2822 O 276.4 2.55093 3.10307 0
M  V30 2823 N 274.606 2.28724 1.79259 0
M  V30 2824 H 274.153 2.4111 0.906841 0
M  V30 2825 H 274.111 1.84986 2.54219 0
M  V30 2826 N 277.883 0.443576 1.51229 0
M  V30 2827 C 279.294 -0.0180867 1.86691 0
M  V30 2828 C 279.645 -1.41384 1.36033 0
M  V30 2829 O 278.77 -2.04291 0.713722 0
M  V30 2830 C 279.365 -0.039597 3.38777 0
M  V30 2831 C 277.924 -0.445692 3.73752 0
M  V30 2832 C 277.071 0.357584 2.74985 0
M  V30 2833 H 280.022 0.659138 1.44364 0
M  V30 2834 H 280.043 -0.847761 3.70936 0
M  V30 2835 H 279.555 0.976382 3.75617 0
M  V30 2836 H 277.656 -1.46704 3.42503 0
M  V30 2837 H 277.769 -0.166155 4.78812 0
M  V30 2838 H 276.133 -0.184973 2.54027 0
M  V30 2839 H 276.916 1.37256 3.14668 0
M  V30 2840 N 279.361 -1.56624 0.175154 0
M  V30 2841 C 280.308 -2.18149 -0.753634 0
M  V30 2842 C 281.278 -1.12265 -1.22417 0
M  V30 2843 O 282.463 -1.40432 -1.29165 0
M  V30 2844 C 279.603 -2.82933 -1.97592 0
M  V30 2845 C 278.716 -4.03289 -1.5486 0
M  V30 2846 C 277.851 -4.55988 -2.72485 0
M  V30 2847 C 276.89 -5.68746 -2.26262 0
M  V30 2848 N 276.027 -6.15938 -3.36994 0
M  V30 2849 H 280.867 -2.9717 -0.222195 0
M  V30 2850 H 278.404 -1.46774 -0.0979422 0
M  V30 2851 H 280.362 -3.18653 -2.69288 0
M  V30 2852 H 278.992 -2.06509 -2.481 0
M  V30 2853 H 278.044 -3.73364 -0.728246 0
M  V30 2854 H 279.356 -4.849 -1.16933 0
M  V30 2855 H 278.51 -4.9391 -3.52332 0
M  V30 2856 H 277.249 -3.73443 -3.13674 0
M  V30 2857 H 276.254 -5.30372 -1.44863 0
M  V30 2858 H 277.479 -6.53095 -1.86127 0
M  V30 2859 H 275.425 -5.36321 -3.77751 0
M  V30 2860 H 275.342 -6.92548 -3.03172 0
M  V30 2861 H 276.61 -6.58511 -4.17114 0
M  V30 2862 N 280.839 0.0985539 -1.57292 0
M  V30 2863 C 282.25 0.653457 -1.74891 0
M  V30 2864 C 282.601 1.7929 -0.796838 0
M  V30 2865 O 281.726 2.16385 0.0254886 0
M  V30 2866 C 282.321 1.19216 -3.17133 0
M  V30 2867 C 280.88 1.69316 -3.36168 0
M  V30 2868 C 280.027 0.601294 -2.70702 0
M  V30 2869 H 282.978 -0.127497 -1.58187 0
M  V30 2870 H 282.999 2.06154 -3.19814 0
M  V30 2871 H 282.511 0.362635 -3.86402 0
M  V30 2872 H 280.612 2.5468 -2.71972 0
M  V30 2873 H 280.725 1.78853 -4.44464 0
M  V30 2874 H 279.089 1.0399 -2.32504 0
M  V30 2875 H 279.872 -0.217592 -3.4261 0
M  V30 2876 N 282.317 1.53212 0.369288 0
M  V30 2877 C 283.564 1.69215 1.11232 0
M  V30 2878 C 283.892 0.442048 1.8941 0
M  V30 2879 O 283.147 -0.575944 1.87033 0
M  V30 2880 C 283.446 2.89101 2.10132 0
M  V30 2881 C 283.112 4.25758 1.48463 0
M  V30 2882 C 281.774 4.6292 1.31372 0
M  V30 2883 C 284.126 5.10757 1.03811 0
M  V30 2884 C 281.454 5.82722 0.68207 0
M  V30 2885 C 283.806 6.31201 0.420487 0
M  V30 2886 C 282.47 6.67079 0.237038 0
M  V30 2887 H 281.74 0.619201 0.407027 0
M  V30 2888 H 284.387 1.87391 0.394552 0
M  V30 2889 H 282.692 2.65421 2.88199 0
M  V30 2890 H 284.389 2.98676 2.6757 0
M  V30 2891 H 280.979 3.96494 1.62758 0
M  V30 2892 H 285.163 4.82599 1.1581 0
M  V30 2893 H 280.419 6.09113 0.528316 0
M  V30 2894 H 284.593 6.96368 0.0662874 0
M  V30 2895 H 282.22 7.59774 -0.254477 0
M  V30 2896 N 283.795 -0.628877 1.44509 0
M  V30 2897 C 285.042 -1.38839 1.47411 0
M  V30 2898 C 285.37 -1.94202 0.10757 0
M  V30 2899 O 284.625 -1.74243 -0.890947 0
M  V30 2900 C 284.924 -2.56995 2.48371 0
M  V30 2901 C 284.59 -2.19908 3.93639 0
M  V30 2902 C 283.252 -2.09506 4.33198 0
M  V30 2903 C 285.604 -1.9064 4.85083 0
M  V30 2904 C 282.932 -1.68028 5.62124 0
M  V30 2905 C 285.284 -1.50655 6.14399 0
M  V30 2906 C 283.948 -1.38796 6.5291 0
M  V30 2907 H 283.218 -0.508048 0.539414 0
M  V30 2908 H 285.865 -0.712913 1.77735 0
M  V30 2909 H 284.17 -3.29786 2.11538 0
M  V30 2910 H 285.867 -3.15223 2.47861 0
M  V30 2911 H 282.457 -2.28922 3.62343 0
M  V30 2912 H 286.641 -1.97585 4.55273 0
M  V30 2913 H 281.897 -1.57452 5.90778 0
M  V30 2914 H 286.071 -1.27048 6.84713 0
M  V30 2915 H 283.698 -1.06429 7.52713 0
M  V30 2916 N 285.273 -1.31445 -0.869486 0
M  V30 2917 C 286.501 -1.24122 -1.65534 0
M  V30 2918 C 286.916 0.193387 -1.87807 0
M  V30 2919 O 286.273 1.12557 -1.43656 0
M  V30 2920 C 286.324 -1.98229 -3.02304 0
M  V30 2921 O 286.045 -3.3609 -2.81026 0
M  V30 2922 C 287.546 -1.97751 -3.96749 0
M  V30 2923 H 284.766 -0.428868 -0.516055 0
M  V30 2924 H 287.31 -1.73328 -1.08525 0
M  V30 2925 H 285.465 -1.52782 -3.56001 0
M  V30 2926 H 285.879 -3.7383 -3.67902 0
M  V30 2927 H 287.353 -2.54114 -4.90031 0
M  V30 2928 H 287.83 -0.960137 -4.28577 0
M  V30 2929 H 288.436 -2.43079 -3.48988 0
M  V30 2930 N 286.751 1.08385 -1.14413 0
M  V30 2931 C 287.681 2.17321 -0.854044 0
M  V30 2932 C 288.662 1.69024 0.191049 0
M  V30 2933 O 289.847 1.94141 0.0476779 0
M  V30 2934 C 286.977 3.45719 -0.330983 0
M  V30 2935 C 285.931 4.07409 -1.31155 0
M  V30 2936 C 285.257 5.30762 -0.64778 0
M  V30 2937 C 286.557 4.48665 -2.67388 0
M  V30 2938 H 288.251 2.41845 -1.76498 0
M  V30 2939 H 285.797 1.16233 -0.850051 0
M  V30 2940 H 287.75 4.21241 -0.115645 0
M  V30 2941 H 286.474 3.2075 0.615381 0
M  V30 2942 H 285.133 3.33919 -1.51306 0
M  V30 2943 H 284.781 5.02078 0.304398 0
M  V30 2944 H 284.481 5.72992 -1.30207 0
M  V30 2945 H 286.005 6.08998 -0.441972 0
M  V30 2946 H 287.419 5.15364 -2.51143 0
M  V30 2947 H 285.816 5.01814 -3.29093 0
M  V30 2948 H 286.886 3.60543 -3.24248 0
M  V30 2949 N 288.23 0.939286 1.26551 0
M  V30 2950 C 289.193 0.451987 2.24699 0
M  V30 2951 C 290.193 -0.435869 1.5478 0
M  V30 2952 O 291.383 -0.235314 1.72603 0
M  V30 2953 C 288.515 -0.348801 3.39111 0
M  V30 2954 H 289.708 1.3193 2.69322 0
M  V30 2955 H 287.261 0.721072 1.38673 0
M  V30 2956 H 287.996 -1.23444 2.99887 0
M  V30 2957 H 287.781 0.287945 3.91041 0
M  V30 2958 H 289.271 -0.679726 4.12031 0
M  V30 2959 N 289.708 -1.40897 0.706093 0
M  V30 2960 C 290.655 -2.30751 0.0474474 0
M  V30 2961 C 291.625 -1.47678 -0.76029 0
M  V30 2962 O 292.81 -1.76441 -0.726177 0
M  V30 2963 C 289.95 -3.33815 -0.875309 0
M  V30 2964 C 289.063 -4.31961 -0.0580623 0
M  V30 2965 C 288.198 -5.22093 -0.979425 0
M  V30 2966 C 287.237 -6.11902 -0.155706 0
M  V30 2967 N 286.374 -6.94482 -1.03144 0
M  V30 2968 H 291.214 -2.86513 0.819413 0
M  V30 2969 H 288.751 -1.41102 0.415783 0
M  V30 2970 H 290.709 -3.92129 -1.42446 0
M  V30 2971 H 289.339 -2.79579 -1.61356 0
M  V30 2972 H 288.391 -3.75507 0.608147 0
M  V30 2973 H 289.703 -4.95415 0.580082 0
M  V30 2974 H 288.857 -5.85292 -1.59744 0
M  V30 2975 H 287.596 -4.5889 -1.65141 0
M  V30 2976 H 286.601 -5.47742 0.475309 0
M  V30 2977 H 287.826 -6.77162 0.512635 0
M  V30 2978 H 285.772 -6.33877 -1.68924 0
M  V30 2979 H 285.689 -7.54665 -0.449108 0
M  V30 2980 H 286.957 -7.6214 -1.63593 0
M  V30 2981 N 291.186 -0.45159 -1.50991 0
M  V30 2982 C 292.096 0.358431 -2.31846 0
M  V30 2983 C 293.112 1.01438 -1.41373 0
M  V30 2984 O 294.288 1.00663 -1.74439 0
M  V30 2985 C 291.353 1.43704 -3.15515 0
M  V30 2986 C 290.414 0.799742 -4.21785 0
M  V30 2987 C 289.647 1.82696 -5.01456 0
M  V30 2988 O 289.87 3.05105 -4.81941 0
M  V30 2989 O 288.804 1.40958 -5.85162 0
M  V30 2990 H 292.63 -0.302032 -3.02194 0
M  V30 2991 H 290.215 -0.213825 -1.47862 0
M  V30 2992 H 292.097 2.06227 -3.67489 0
M  V30 2993 H 290.772 2.08133 -2.47916 0
M  V30 2994 H 289.679 0.136084 -3.73852 0
M  V30 2995 H 291.012 0.198718 -4.91799 0
M  V30 2996 N 292.664 1.56529 -0.183458 0
M  V30 2997 C 293.594 2.21549 0.737456 0
M  V30 2998 C 294.575 1.17489 1.23005 0
M  V30 2999 O 295.76 1.45959 1.281 0
M  V30 3000 C 292.89 2.86575 1.96194 0
M  V30 3001 C 291.844 3.96778 1.60473 0
M  V30 3002 C 291.17 4.48911 2.90487 0
M  V30 3003 C 292.47 5.15767 0.823497 0
M  V30 3004 H 294.164 2.98761 0.195453 0
M  V30 3005 H 291.71 1.43702 0.0925686 0
M  V30 3006 H 293.663 3.30739 2.61131 0
M  V30 3007 H 292.387 2.06749 2.52828 0
M  V30 3008 H 291.046 3.53286 0.978997 0
M  V30 3009 H 290.694 3.65862 3.45186 0
M  V30 3010 H 290.394 5.23265 2.67335 0
M  V30 3011 H 291.918 4.95771 3.56432 0
M  V30 3012 H 293.332 5.56549 1.37571 0
M  V30 3013 H 291.729 5.96114 0.690551 0
M  V30 3014 H 292.799 4.84574 -0.177782 0
M  V30 3015 N 294.142 -0.090211 1.57342 0
M  V30 3016 C 295.372 -0.805055 1.90269 0
M  V30 3017 C 295.78 -1.72561 0.775842 0
M  V30 3018 O 295.123 -1.81839 -0.260843 0
M  V30 3019 C 295.185 -1.66734 3.18497 0
M  V30 3020 C 294.849 -0.918092 4.47683 0
M  V30 3021 C 295.846 -0.245674 5.19319 0
M  V30 3022 C 293.531 -0.890724 4.94339 0
M  V30 3023 C 295.525 0.444088 6.35851 0
M  V30 3024 C 293.212 -0.197179 6.10782 0
M  V30 3025 C 294.21 0.469044 6.81388 0
M  V30 3026 O 293.898 1.15146 7.95611 0
M  V30 3027 H 293.63 -0.235143 0.633785 0
M  V30 3028 H 296.184 -0.0703805 2.05279 0
M  V30 3029 H 294.414 -2.44437 2.99646 0
M  V30 3030 H 296.103 -2.25919 3.37217 0
M  V30 3031 H 296.869 -0.258246 4.84312 0
M  V30 3032 H 292.748 -1.39873 4.39268 0
M  V30 3033 H 296.292 0.964667 6.90898 0
M  V30 3034 H 292.189 -0.18247 6.45242 0
M  V30 3035 H 292.957 1.05885 8.11622 0
M  V30 3036 N 295.62 -1.53406 -0.361157 0
M  V30 3037 C 297.031 -1.61442 -0.937728 0
M  V30 3038 C 297.382 -0.48461 -1.90121 0
M  V30 3039 O 296.507 0.388312 -2.12888 0
M  V30 3040 C 297.102 -2.92624 -1.70753 0
M  V30 3041 C 295.661 -3.02981 -2.23337 0
M  V30 3042 C 294.808 -2.5677 -1.04712 0
M  V30 3043 H 297.759 -1.58083 -0.139816 0
M  V30 3044 H 297.78 -2.80675 -2.56908 0
M  V30 3045 H 297.292 -3.74834 -1.00604 0
M  V30 3046 H 295.393 -2.25368 -2.96715 0
M  V30 3047 H 295.506 -4.0814 -2.50916 0
M  V30 3048 H 293.87 -2.11752 -1.41539 0
M  V30 3049 H 294.653 -3.41402 -0.360539 0
M  V30 3050 N 297.098 0.621204 -1.44841 0
M  V30 3051 C 298.346 1.37783 -1.47852 0
M  V30 3052 C 298.667 1.94653 -0.116224 0
M  V30 3053 O 297.937 1.76367 0.852737 0
M  V30 3054 H 296.517 0.511453 -0.544449 0
M  V30 3055 H 299.179 0.730446 -1.80694 0
M  V30 3056 H 298.275 2.20414 -2.20961 0
M  V30 3057 N 298.576 1.31904 0.862503 0
M  V30 3058 C 299.524 1.20125 1.9918 0
M  V30 3059 C 300.518 0.107824 1.69056 0
M  V30 3060 O 301.724 0.270223 1.7796 0
M  V30 3061 H 298.099 0.372148 0.65346 0
M  V30 3062 H 300.07 2.15652 2.06244 0
M  V30 3063 C 298.819 0.933099 3.34946 0
M  V30 3064 H 298.142 1.76664 3.5865 0
M  V30 3065 H 299.582 0.890892 4.14535 0
M  V30 3066 C 298.041 -0.364172 3.34926 0
M  V30 3067 O 298.571 -1.37858 3.77304 0
M  V30 3068 N 296.777 -0.383362 2.8806 0
M  V30 3069 H 296.324 0.442651 2.53768 0
M  V30 3070 H 296.282 -1.25123 2.8843 0
M  V30 3071 N 300.054 -1.07777 1.14986 0
M  V30 3072 C 301.284 -1.83752 0.944402 0
M  V30 3073 C 301.692 -1.8218 -0.51058 0
M  V30 3074 O 301.035 -1.22852 -1.36576 0
M  V30 3075 C 301.097 -3.32128 1.37592 0
M  V30 3076 C 300.761 -3.57425 2.84775 0
M  V30 3077 C 301.758 -3.5173 3.8286 0
M  V30 3078 C 299.443 -3.8523 3.2234 0
M  V30 3079 C 301.437 -3.73482 5.16517 0
M  V30 3080 C 299.124 -4.06634 4.56171 0
M  V30 3081 C 300.122 -4.00754 5.53069 0
M  V30 3082 O 299.81 -4.2159 6.84483 0
M  V30 3083 H 299.542 -0.58673 0.335744 0
M  V30 3084 H 302.096 -1.36982 1.53052 0
M  V30 3085 H 300.326 -3.79686 0.733165 0
M  V30 3086 H 302.015 -3.89555 1.14024 0
M  V30 3087 H 302.781 -3.30256 3.55184 0
M  V30 3088 H 298.66 -3.88923 2.47508 0
M  V30 3089 H 302.204 -3.68808 5.92137 0
M  V30 3090 H 298.101 -4.27593 4.83564 0
M  V30 3091 H 298.869 -4.38961 6.90837 0
M  V30 3092 N 301.532 -0.945985 -1.26051 0
M  V30 3093 C 302.479 -0.45809 -2.26208 0
M  V30 3094 C 303.449 0.484816 -1.58867 0
M  V30 3095 O 304.634 0.399969 -1.86561 0
M  V30 3096 C 301.774 0.266131 -3.44072 0
M  V30 3097 C 300.887 -0.713005 -4.26075 0
M  V30 3098 C 300.022 0.0329013 -5.3119 0
M  V30 3099 C 299.061 -0.93774 -6.04874 0
M  V30 3100 N 298.198 -0.223274 -7.01745 0
M  V30 3101 H 303.038 -1.3171 -2.67313 0
M  V30 3102 H 300.575 -0.66069 -1.31428 0
M  V30 3103 H 302.533 0.702514 -4.11243 0
M  V30 3104 H 301.163 1.08925 -3.03867 0
M  V30 3105 H 300.215 -1.26789 -3.58648 0
M  V30 3106 H 301.527 -1.45406 -4.77136 0
M  V30 3107 H 300.681 0.528335 -6.04395 0
M  V30 3108 H 299.42 0.806801 -4.8098 0
M  V30 3109 H 298.425 -1.44425 -5.30492 0
M  V30 3110 H 299.65 -1.71172 -6.57173 0
M  V30 3111 H 297.596 0.532046 -6.53839 0
M  V30 3112 H 297.513 -0.90357 -7.50581 0
M  V30 3113 H 298.781 0.250907 -7.79096 0
M  V30 3114 N 303.011 1.40521 -0.713556 0
M  V30 3115 C 304.422 1.83853 -0.324807 0
M  V30 3116 C 304.773 1.59667 1.14021 0
M  V30 3117 O 303.898 1.07649 1.87725 0
M  V30 3118 C 304.493 3.33751 -0.582746 0
M  V30 3119 C 303.052 3.75584 -0.247727 0
M  V30 3120 C 302.199 2.63753 -0.856121 0
M  V30 3121 H 305.15 1.29817 -0.91286 0
M  V30 3122 H 305.171 3.80194 0.152682 0
M  V30 3123 H 304.683 3.51322 -1.64908 0
M  V30 3124 H 302.784 3.63608 0.813624 0
M  V30 3125 H 302.897 4.7373 -0.715307 0
M  V30 3126 H 301.261 2.53108 -0.28432 0
M  V30 3127 H 302.044 2.84137 -1.92668 0
M  V30 3128 N 304.489 0.459591 1.5075 0
M  V30 3129 C 305.437 -0.354678 2.2988 0
M  V30 3130 C 306.431 -1.00086 1.36672 0
M  V30 3131 O 307.637 -0.933277 1.53915 0
M  V30 3132 H 304.012 -0.13321 0.740107 0
M  V30 3133 H 305.983 0.333269 2.96533 0
M  V30 3134 C 304.732 -1.43073 3.169 0
M  V30 3135 H 304.055 -0.942882 3.88523 0
M  V30 3136 H 305.495 -1.97328 3.75284 0
M  V30 3137 C 303.954 -2.42633 2.33732 0
M  V30 3138 O 304.484 -3.47658 2.01238 0
M  V30 3139 N 302.69 -2.14066 1.9653 0
M  V30 3140 H 302.237 -1.28685 2.23155 0
M  V30 3141 H 302.195 -2.80917 1.41185 0
M  V30 3142 N 305.967 -1.56429 0.191757 0
M  V30 3143 C 307.213 -1.97777 -0.448554 0
M  V30 3144 C 307.546 -1.07847 -1.61501 0
M  V30 3145 O 306.821 -0.129774 -1.94067 0
M  V30 3146 C 307.104 -3.48362 -0.911906 0
M  V30 3147 C 306.957 -4.4907 0.256136 0
M  V30 3148 C 308.276 -4.02561 -1.77857 0
M  V30 3149 H 305.395 -0.719071 -0.161572 0
M  V30 3150 H 308.037 -1.87896 0.282007 0
M  V30 3151 H 306.187 -3.56914 -1.53442 0
M  V30 3152 H 307.859 -4.5256 0.893733 0
M  V30 3153 H 306.102 -4.24181 0.908436 0
M  V30 3154 H 306.773 -5.51889 -0.11053 0
M  V30 3155 H 309.249 -3.96767 -1.25359 0
M  V30 3156 H 308.125 -5.08301 -2.07174 0
M  V30 3157 H 308.386 -3.47616 -2.73158 0
M  V30 3158 N 307.445 0.0818655 -1.57387 0
M  V30 3159 C 308.673 0.796108 -1.9097 0
M  V30 3160 C 309.088 1.71626 -0.786757 0
M  V30 3161 O 308.445 1.80908 0.240513 0
M  V30 3162 C 308.496 1.59829 -3.24248 0
M  V30 3163 O 308.217 0.715131 -4.32224 0
M  V30 3164 C 309.718 2.41442 -3.7178 0
M  V30 3165 H 306.938 0.22691 -0.631469 0
M  V30 3166 H 309.482 0.0551439 -2.04426 0
M  V30 3167 H 307.637 2.29163 -3.12351 0
M  V30 3168 H 308.051 1.27205 -5.08841 0
M  V30 3169 H 309.525 2.932 -4.67694 0
M  V30 3170 H 310.002 3.2051 -3.00283 0
M  V30 3171 H 310.608 1.77283 -3.86589 0
M  V30 3172 N 308.923 1.53595 0.353017 0
M  V30 3173 C 309.873 1.77299 1.43349 0
M  V30 3174 C 310.857 0.627884 1.48143 0
M  V30 3175 O 312.049 0.88697 1.53173 0
M  V30 3176 C 309.178 1.97757 2.80619 0
M  V30 3177 C 308.264 3.18305 2.80254 0
M  V30 3178 N 308.655 4.39967 2.49526 0
M  V30 3179 C 306.953 3.19283 3.11407 0
M  V30 3180 C 307.654 5.21772 2.57156 0
M  V30 3181 N 306.63 4.58269 2.92388 0
M  V30 3182 H 310.432 2.68963 1.18474 0
M  V30 3183 H 307.946 1.52391 0.561306 0
M  V30 3184 H 309.943 2.1287 3.58458 0
M  V30 3185 H 308.603 1.07329 3.06448 0
M  V30 3186 H 309.614 4.67482 2.22893 0
M  V30 3187 H 306.291 2.3879 3.4247 0
M  V30 3188 H 307.681 6.2885 2.36638 0
M  V30 3189 N 310.401 -0.613514 1.45168 0
M  V30 3190 C 311.631 -1.39743 1.52169 0
M  V30 3191 C 312.039 -1.88596 0.151086 0
M  V30 3192 O 311.382 -1.6251 -0.856521 0
M  V30 3193 C 311.444 -2.64035 2.43979 0
M  V30 3194 C 311.108 -2.36861 3.90827 0
M  V30 3195 C 312.105 -1.97591 4.80889 0
M  V30 3196 C 309.79 -2.49956 4.35692 0
M  V30 3197 C 311.784 -1.71768 6.1382 0
M  V30 3198 C 309.471 -2.23747 5.68665 0
M  V30 3199 C 310.469 -1.84714 6.57548 0
M  V30 3200 O 310.157 -1.58809 7.88058 0
M  V30 3201 H 309.889 -0.434382 0.517966 0
M  V30 3202 H 312.443 -0.75587 1.90986 0
M  V30 3203 H 310.673 -3.3089 2.00122 0
M  V30 3204 H 312.362 -3.26069 2.41731 0
M  V30 3205 H 313.128 -1.87015 4.47493 0
M  V30 3206 H 309.007 -2.79305 3.66756 0
M  V30 3207 H 312.551 -1.41227 6.83155 0
M  V30 3208 H 308.448 -2.33938 6.01617 0
M  V30 3209 H 309.216 -1.7291 8.00028 0
M  V30 3210 N 311.879 -1.3236 -0.855495 0
M  V30 3211 C 313.126 -1.22872 -1.60962 0
M  V30 3212 C 313.454 0.209658 -1.93367 0
M  V30 3213 O 312.709 1.16243 -1.57436 0
M  V30 3214 C 313.008 -2.03275 -2.93963 0
M  V30 3215 C 312.674 -3.5264 -2.80991 0
M  V30 3216 C 311.336 -3.93364 -2.7716 0
M  V30 3217 C 313.688 -4.47626 -2.66983 0
M  V30 3218 C 311.016 -5.27319 -2.572 0
M  V30 3219 C 313.368 -5.81723 -2.48558 0
M  V30 3220 C 312.032 -6.2165 -2.4312 0
M  V30 3221 H 311.302 -0.44962 -0.589001 0
M  V30 3222 H 313.949 -1.63777 -0.992442 0
M  V30 3223 H 312.254 -1.55095 -3.59795 0
M  V30 3224 H 313.951 -1.93303 -3.51333 0
M  V30 3225 H 310.541 -3.20295 -2.84797 0
M  V30 3226 H 314.725 -4.17084 -2.68988 0
M  V30 3227 H 309.981 -5.57311 -2.51424 0
M  V30 3228 H 314.155 -6.5494 -2.36699 0
M  V30 3229 H 311.782 -7.25388 -2.27412 0
M  V30 3230 N 313.357 1.07166 -1.15556 0
M  V30 3231 C 314.287 2.16403 -0.877046 0
M  V30 3232 C 315.268 1.69217 0.173111 0
M  V30 3233 O 316.453 1.94181 0.027084 0
M  V30 3234 C 313.583 3.45349 -0.367632 0
M  V30 3235 C 312.537 4.05995 -1.35468 0
M  V30 3236 C 311.863 5.30045 -0.704038 0
M  V30 3237 C 313.163 4.45804 -2.72132 0
M  V30 3238 H 314.857 2.39959 -1.79053 0
M  V30 3239 H 312.403 1.15325 -0.862331 0
M  V30 3240 H 314.356 4.21095 -0.160317 0
M  V30 3241 H 313.08 3.21385 0.581326 0
M  V30 3242 H 311.739 3.32296 -1.54839 0
M  V30 3243 H 311.387 5.02373 0.251128 0
M  V30 3244 H 311.087 5.71579 -1.36277 0
M  V30 3245 H 312.611 6.08495 -0.50654 0
M  V30 3246 H 314.025 5.12671 -2.56595 0
M  V30 3247 H 312.422 4.98296 -3.34397 0
M  V30 3248 H 313.492 3.57083 -3.28054 0
M  V30 3249 N 314.835 0.952656 1.25548 0
M  V30 3250 C 316.251 0.656769 1.4546 0
M  V30 3251 C 316.451 -0.78633 1.85524 0
M  V30 3252 O 315.507 -1.56183 1.98402 0
M  V30 3253 C 316.82 1.62801 2.52817 0
M  V30 3254 C 318.368 1.63897 2.66659 0
M  V30 3255 C 318.843 2.5978 3.77198 0
M  V30 3256 N 320.334 2.58133 3.84606 0
M  V30 3257 C 321.069 3.29003 4.69621 0
M  V30 3258 N 320.565 4.09339 5.58939 0
M  V30 3259 N 322.358 3.179 4.63569 0
M  V30 3260 H 314.509 1.88526 0.978344 0
M  V30 3261 H 316.772 0.810815 0.491206 0
M  V30 3262 H 316.478 2.65869 2.30232 0
M  V30 3263 H 316.352 1.38898 3.50695 0
M  V30 3264 H 318.739 0.615481 2.8861 0
M  V30 3265 H 318.82 1.91858 1.69187 0
M  V30 3266 H 318.464 3.62254 3.55997 0
M  V30 3267 H 318.394 2.29105 4.7415 0
M  V30 3268 H 320.885 1.99809 3.20757 0
M  V30 3269 H 321.198 4.6034 6.20731 0
M  V30 3270 H 319.543 4.13438 5.58654 0
M  V30 3271 H 322.734 2.54612 3.92798 0
M  V30 3272 H 322.907 3.73398 5.29602 0
M  V30 3273 N 316.313 -1.40141 0.720998 0
M  V30 3274 C 317.243 -2.33339 0.0867621 0
M  V30 3275 C 318.224 -1.53178 -0.739622 0
M  V30 3276 O 319.409 -1.81625 -0.687449 0
M  V30 3277 C 316.539 -3.37194 -0.831728 0
M  V30 3278 C 315.493 -4.27857 -0.110558 0
M  V30 3279 C 314.819 -5.22294 -1.14513 0
M  V30 3280 C 316.119 -5.11872 1.0385 0
M  V30 3281 H 317.813 -2.86626 0.865219 0
M  V30 3282 H 315.359 -1.37814 0.417516 0
M  V30 3283 H 317.312 -4.01335 -1.28485 0
M  V30 3284 H 316.036 -2.82314 -1.64214 0
M  V30 3285 H 314.695 -3.65176 0.322797 0
M  V30 3286 H 314.343 -4.63717 -1.94874 0
M  V30 3287 H 314.043 -5.83797 -0.667446 0
M  V30 3288 H 315.567 -5.89312 -1.59824 0
M  V30 3289 H 316.981 -5.69436 0.664482 0
M  V30 3290 H 315.378 -5.82445 1.4449 0
M  V30 3291 H 316.448 -4.4753 1.86668 0
M  V30 3292 N 317.792 -0.46758 -1.50504 0
M  V30 3293 C 318.722 0.318381 -2.31319 0
M  V30 3294 C 319.703 0.993564 -1.38066 0
M  V30 3295 O 320.888 0.991411 -1.66987 0
M  V30 3296 C 318.018 1.40275 -3.17711 0
M  V30 3297 C 316.972 0.849373 -4.19487 0
M  V30 3298 C 316.298 2.03177 -4.94594 0
M  V30 3299 C 317.598 -0.136942 -5.2212 0
M  V30 3300 H 319.292 -0.356106 -2.97275 0
M  V30 3301 H 316.838 -0.172703 -1.42961 0
M  V30 3302 H 318.791 1.96004 -3.73042 0
M  V30 3303 H 317.515 2.10596 -2.49634 0
M  V30 3304 H 316.174 0.314076 -3.65252 0
M  V30 3305 H 315.822 2.72187 -4.22993 0
M  V30 3306 H 315.522 1.66774 -5.63436 0
M  V30 3307 H 317.046 2.59403 -5.52759 0
M  V30 3308 H 318.46 0.331056 -5.72343 0
M  V30 3309 H 316.857 -0.41507 -5.98663 0
M  V30 3310 H 317.927 -1.06398 -4.73083 0
M  V30 3311 N 319.27 1.56325 -0.20005 0
M  V30 3312 C 320.22 2.15939 0.731743 0
M  V30 3313 C 321.204 1.10154 1.17281 0
M  V30 3314 O 322.396 1.36203 1.13038 0
M  V30 3315 C 319.525 2.82614 1.94895 0
M  V30 3316 C 318.611 3.95596 1.52855 0
M  V30 3317 N 319.002 4.99118 0.819418 0
M  V30 3318 C 317.3 4.07288 1.81748 0
M  V30 3319 C 318.001 5.78513 0.608053 0
M  V30 3320 N 316.977 5.31117 1.15828 0
M  V30 3321 H 320.779 2.9334 0.181285 0
M  V30 3322 H 318.293 1.624 -0.000452172 0
M  V30 3323 H 320.29 3.23718 2.62702 0
M  V30 3324 H 318.95 2.06702 2.50408 0
M  V30 3325 H 319.961 5.15723 0.47436 0
M  V30 3326 H 316.638 3.42509 2.38734 0
M  V30 3327 H 318.028 6.71885 0.0451619 0
M  V30 3328 N 320.748 -0.0735177 1.57428 0
M  V30 3329 C 322.025 -0.805903 1.78226 0
M  V30 3330 C 322.405 -1.95874 0.787189 0
M  V30 3331 O 321.753 -2.2779 -0.180029 0
M  V30 3332 C 321.963 -1.28045 3.24662 0
M  V30 3333 C 323.311 -1.71453 3.88444 0
M  V30 3334 O 324.335 -1.37616 3.28543 0
M  V30 3335 O 323.194 -2.34093 4.93825 0
M  V30 3336 H 320.288 -0.386041 0.73137 0
M  V30 3337 H 322.834 -0.0537269 1.69615 0
M  V30 3338 H 321.606 -0.455476 3.8864 0
M  V30 3339 H 321.229 -2.094 3.37991 0
M  V30 3340 N 322.226 -1.5378 -0.344866 0
M  V30 3341 C 323.173 -1.81676 -1.42346 0
M  V30 3342 C 324.143 -0.662376 -1.52321 0
M  V30 3343 O 325.328 -0.906675 -1.67881 0
M  V30 3344 C 322.468 -2.03087 -2.79015 0
M  V30 3345 C 321.581 -3.30799 -2.77842 0
M  V30 3346 C 320.716 -3.42285 -4.0622 0
M  V30 3347 C 319.755 -4.6395 -3.9927 0
M  V30 3348 N 318.892 -4.72477 -5.19336 0
M  V30 3349 H 323.732 -2.73703 -1.17858 0
M  V30 3350 H 321.269 -1.35568 -0.570949 0
M  V30 3351 H 323.227 -2.1349 -3.58438 0
M  V30 3352 H 321.857 -1.14375 -3.01858 0
M  V30 3353 H 320.909 -3.29244 -1.90533 0
M  V30 3354 H 322.221 -4.20314 -2.68584 0
M  V30 3355 H 321.375 -3.52113 -4.94066 0
M  V30 3356 H 320.114 -2.50823 -4.18258 0
M  V30 3357 H 319.119 -4.54201 -3.09809 0
M  V30 3358 H 320.344 -5.56775 -3.88817 0
M  V30 3359 H 318.29 -3.83924 -5.3192 0
M  V30 3360 H 318.207 -5.55927 -5.12329 0
M  V30 3361 H 319.475 -4.86613 -6.08957 0
M  V30 3362 N 323.704 0.605807 -1.45491 0
M  V30 3363 C 324.952 1.36207 -1.49305 0
M  V30 3364 C 325.273 1.94519 -0.136863 0
M  V30 3365 O 324.543 1.77261 0.833983 0
M  V30 3366 H 323.123 0.50565 -0.549843 0
M  V30 3367 H 325.785 0.711239 -1.81459 0
M  V30 3368 H 324.881 2.18058 -2.23287 0
M  V30 3369 N 325.182 1.32811 0.848464 0
M  V30 3370 C 326.112 1.24882 1.97299 0
M  V30 3371 C 327.093 0.131357 1.69592 0
M  V30 3372 O 328.278 0.319553 1.91553 0
M  V30 3373 C 325.408 0.97746 3.33261 0
M  V30 3374 C 324.362 2.05682 3.75338 0
M  V30 3375 C 323.688 1.63777 5.09 0
M  V30 3376 C 324.988 3.47254 3.90144 0
M  V30 3377 H 326.682 2.18966 2.04191 0
M  V30 3378 H 324.228 1.05413 0.981029 0
M  V30 3379 H 326.181 0.908513 4.1149 0
M  V30 3380 H 324.905 0.000980011 3.266 0
M  V30 3381 H 323.564 2.11603 2.99366 0
M  V30 3382 H 323.212 0.648569 4.98801 0
M  V30 3383 H 322.912 2.36 5.38124 0
M  V30 3384 H 324.436 1.5833 5.89715 0
M  V30 3385 H 325.85 3.43888 4.58709 0
M  V30 3386 H 324.247 4.1788 4.30693 0
M  V30 3387 H 325.317 3.86462 2.92874 0
M  V30 3388 N 326.66 -1.06551 1.16123 0
M  V30 3389 C 327.59 -2.15935 0.88851 0
M  V30 3390 C 328.571 -1.69306 -0.164135 0
M  V30 3391 O 329.756 -1.94193 -0.0167857 0
M  V30 3392 C 326.886 -3.45149 0.385942 0
M  V30 3393 C 325.84 -4.05271 1.3762 0
M  V30 3394 C 325.166 -5.29664 0.732137 0
M  V30 3395 C 326.466 -4.44355 2.74493 0
M  V30 3396 H 328.16 -2.39006 1.80323 0
M  V30 3397 H 325.706 -1.14866 0.868435 0
M  V30 3398 H 327.659 -4.21004 0.182647 0
M  V30 3399 H 326.383 -3.21689 -0.564274 0
M  V30 3400 H 325.042 -3.3147 1.56599 0
M  V30 3401 H 324.69 -5.02499 -0.224483 0
M  V30 3402 H 324.39 -5.70848 1.39307 0
M  V30 3403 H 325.914 -6.08218 0.538802 0
M  V30 3404 H 327.328 -5.11303 2.59311 0
M  V30 3405 H 325.725 -4.96515 3.37035 0
M  V30 3406 H 326.795 -3.55339 3.29943 0
M  V30 3407 N 328.138 -0.959301 -1.25041 0
M  V30 3408 C 329.068 -0.501388 -2.28053 0
M  V30 3409 C 330.049 0.454673 -1.63911 0
M  V30 3410 O 331.234 0.352618 -1.90972 0
M  V30 3411 C 328.364 0.217224 -3.4662 0
M  V30 3412 C 327.318 -0.654034 -4.22973 0
M  V30 3413 C 326.644 0.195589 -5.34342 0
M  V30 3414 C 327.944 -1.93447 -4.85155 0
M  V30 3415 H 329.638 -1.36238 -2.66608 0
M  V30 3416 H 327.184 -0.656534 -1.28163 0
M  V30 3417 H 329.137 0.548732 -4.17812 0
M  V30 3418 H 327.861 1.1125 -3.07068 0
M  V30 3419 H 326.52 -0.968693 -3.5357 0
M  V30 3420 H 326.168 1.09076 -4.91031 0
M  V30 3421 H 325.868 -0.384091 -5.86343 0
M  V30 3422 H 327.392 0.521958 -6.08365 0
M  V30 3423 H 328.806 -1.66908 -5.48466 0
M  V30 3424 H 327.203 -2.46018 -5.47353 0
M  V30 3425 H 328.273 -2.63466 -4.07079 0
M  V30 3426 N 329.616 1.39756 -0.72842 0
M  V30 3427 C 331.032 1.5442 -0.403308 0
M  V30 3428 C 331.232 1.69694 1.08656 0
M  V30 3429 O 330.288 1.69373 1.87267 0
M  V30 3430 C 331.601 2.76555 -1.18058 0
M  V30 3431 C 333.149 2.90384 -1.16815 0
M  V30 3432 C 333.624 4.15449 -1.92785 0
M  V30 3433 N 335.115 4.22475 -1.89918 0
M  V30 3434 C 335.85 5.1818 -2.45514 0
M  V30 3435 N 335.346 6.19714 -3.09719 0
M  V30 3436 N 337.139 5.1035 -2.35584 0
M  V30 3437 H 329.29 1.28089 -1.69431 0
M  V30 3438 H 331.553 0.620327 -0.716867 0
M  V30 3439 H 331.259 2.7159 -2.23455 0
M  V30 3440 H 331.133 3.69033 -0.780662 0
M  V30 3441 H 333.52 2.94846 -0.12234 0
M  V30 3442 H 333.601 1.98988 -1.6074 0
M  V30 3443 H 333.245 4.11749 -2.97364 0
M  V30 3444 H 333.175 5.05877 -1.46272 0
M  V30 3445 H 335.666 3.49743 -1.43138 0
M  V30 3446 H 335.979 6.8919 -3.49625 0
M  V30 3447 H 334.324 6.20121 -3.13807 0
M  V30 3448 H 337.515 4.2996 -1.85072 0
M  V30 3449 H 337.688 5.84761 -2.79211 0
M  V30 3450 N 331.094 0.475555 1.50254 0
M  V30 3451 C 332.024 -0.30611 2.31485 0
M  V30 3452 C 333.005 -0.986228 1.38591 0
M  V30 3453 O 334.19 -0.982541 1.67511 0
M  V30 3454 C 331.32 -1.38588 3.1845 0
M  V30 3455 C 330.274 -0.827115 4.19932 0
M  V30 3456 C 329.6 -2.00551 4.95665 0
M  V30 3457 C 330.9 0.16463 5.2204 0
M  V30 3458 H 332.594 0.371866 2.97082 0
M  V30 3459 H 330.14 0.180282 1.42867 0
M  V30 3460 H 332.093 -1.94023 3.74076 0
M  V30 3461 H 330.817 -2.09269 2.50747 0
M  V30 3462 H 329.476 -0.294702 3.65414 0
M  V30 3463 H 329.124 -2.6994 4.2443 0
M  V30 3464 H 328.824 -1.63784 5.64313 0
M  V30 3465 H 330.348 -2.56468 5.54127 0
M  V30 3466 H 331.762 -0.300699 5.72511 0
M  V30 3467 H 330.159 0.446813 5.98434 0
M  V30 3468 H 331.229 1.08905 4.72512 0
M  V30 3469 N 332.573 -1.56217 0.208337 0
M  V30 3470 C 333.803 -2.02043 -0.431523 0
M  V30 3471 C 334.211 -1.08755 -1.54819 0
M  V30 3472 O 333.554 -0.0870009 -1.83494 0
M  V30 3473 C 333.616 -3.44239 -1.03633 0
M  V30 3474 C 333.28 -4.56965 -0.0567502 0
M  V30 3475 C 334.277 -5.14624 0.738773 0
M  V30 3476 C 331.962 -5.02266 0.0581736 0
M  V30 3477 C 333.956 -6.16045 1.63605 0
M  V30 3478 C 331.643 -6.03528 0.959001 0
M  V30 3479 C 332.641 -6.60293 1.7465 0
M  V30 3480 O 332.329 -7.59586 2.6322 0
M  V30 3481 H 332.061 -0.666772 -0.111313 0
M  V30 3482 H 334.615 -2.02919 0.318277 0
M  V30 3483 H 332.845 -3.40391 -1.83497 0
M  V30 3484 H 334.534 -3.73793 -1.58221 0
M  V30 3485 H 335.3 -4.80483 0.660364 0
M  V30 3486 H 331.179 -4.57771 -0.544633 0
M  V30 3487 H 334.723 -6.60279 2.25116 0
M  V30 3488 H 330.62 -6.37092 1.03848 0
M  V30 3489 H 331.388 -7.77057 2.57148 0
M  V30 3490 N 334.051 0.0651679 -1.57465 0
M  V30 3491 C 335.279 0.775808 -1.91804 0
M  V30 3492 C 335.694 1.70782 -0.804916 0
M  V30 3493 O 335.051 1.81153 0.221311 0
M  V30 3494 C 335.102 1.56381 -3.25925 0
M  V30 3495 O 334.823 0.669248 -4.32958 0
M  V30 3496 C 336.324 2.37485 -3.7432 0
M  V30 3497 H 333.544 0.2202 -0.63384 0
M  V30 3498 H 336.088 0.0334587 -2.04473 0
M  V30 3499 H 334.243 2.25837 -3.14764 0
M  V30 3500 H 334.657 1.21801 -5.10162 0
M  V30 3501 H 336.131 2.88223 -4.70778 0
M  V30 3502 H 336.608 3.17307 -3.03666 0
M  V30 3503 H 337.214 1.73173 -3.88447 0
M  V30 3504 N 335.529 1.53961 0.336706 0
M  V30 3505 C 336.461 1.78751 1.4346 0
M  V30 3506 C 337.474 0.669019 1.48418 0
M  V30 3507 O 338.663 0.945884 1.51378 0
M  V30 3508 C 335.763 1.87844 2.82078 0
M  V30 3509 C 334.936 3.17854 3.00479 0
M  V30 3510 C 333.995 3.17816 4.19379 0
M  V30 3511 O 333.021 3.91511 4.13168 0
M  V30 3512 N 334.223 2.40669 5.2826 0
M  V30 3513 H 336.988 2.73493 1.22563 0
M  V30 3514 H 334.549 1.53096 0.526625 0
M  V30 3515 H 336.541 1.85261 3.59806 0
M  V30 3516 H 335.111 1.00257 2.96086 0
M  V30 3517 H 334.331 3.33504 2.10163 0
M  V30 3518 H 335.619 4.03718 3.0966 0
M  V30 3519 H 335.017 1.8036 5.36178 0
M  V30 3520 H 333.574 2.43877 6.04456 0
M  V30 3521 N 337.007 -0.598083 1.45811 0
M  V30 3522 C 337.955 -1.72932 1.55555 0
M  V30 3523 C 338.949 -1.63984 0.424921 0
M  V30 3524 O 340.155 -1.69663 0.601205 0
M  V30 3525 H 336.53 -0.571489 0.488779 0
M  V30 3526 H 338.501 -1.61842 2.50699 0
M  V30 3527 C 337.25 -3.11318 1.54843 0
M  V30 3528 H 336.573 -3.18867 2.41172 0
M  V30 3529 H 338.013 -3.90274 1.65717 0
M  V30 3530 C 336.472 -3.3578 0.274427 0
M  V30 3531 O 337.002 -3.9654 -0.641778 0
M  V30 3532 N 335.208 -2.90119 0.167139 0
M  V30 3533 H 334.755 -2.40855 0.913596 0
M  V30 3534 H 334.713 -3.0686 -0.684435 0
M  V30 3535 N 338.485 -1.33259 -0.841409 0
M  V30 3536 C 339.734 -1.23921 -1.59143 0
M  V30 3537 C 340.047 0.1941 -1.94635 0
M  V30 3538 O 341.253 0.409474 -2.68394 0
M  V30 3539 C 339.709 -2.17119 -2.87032 0
M  V30 3540 C 339.317 -3.65606 -2.58914 0
M  V30 3541 C 341.061 -2.16648 -3.65053 0
M  V30 3542 C 338.968 -4.50726 -3.82884 0
M  V30 3543 H 337.898 -0.460264 -0.597221 0
M  V30 3544 H 340.549 -1.58307 -0.927959 0
M  V30 3545 H 338.931 -1.75663 -3.54906 0
M  V30 3546 H 340.105 -4.15487 -1.99267 0
M  V30 3547 H 338.42 -3.68341 -1.942 0
M  V30 3548 H 341.017 -2.77474 -4.57069 0
M  V30 3549 H 341.36 -1.16088 -3.99787 0
M  V30 3550 H 341.893 -2.56453 -3.041 0
M  V30 3551 H 338.632 -5.52151 -3.53283 0
M  V30 3552 H 338.152 -4.0559 -4.41879 0
M  V30 3553 H 339.831 -4.64401 -4.50489 0
M  V30 3554 N 339.963 1.05934 -1.16686 0
M  V30 3555 C 341.24 1.75643 -0.860747 0
M  V30 3556 C 341.62 2.01144 0.640641 0
M  V30 3557 O 340.968 1.64147 1.58959 0
M  V30 3558 C 341.178 3.05493 -1.68745 0
M  V30 3559 C 342.526 3.79581 -1.90271 0
M  V30 3560 O 343.55 3.15344 -1.65641 0
M  V30 3561 O 342.409 4.9499 -2.31618 0
M  V30 3562 H 339.503 0.763426 -0.317977 0
M  V30 3563 H 342.049 1.1217 -1.27342 0
M  V30 3564 H 340.821 2.8264 -2.70611 0
M  V30 3565 H 340.444 3.76702 -1.27206 0
M  V30 3566 N 341.441 0.965919 1.2453 0
M  V30 3567 C 342.689 0.625593 1.92174 0
M  V30 3568 C 343.01 -0.841652 1.75901 0
M  V30 3569 O 342.28 -1.60061 1.12948 0
M  V30 3570 H 340.86 0.228388 0.71123 0
M  V30 3571 H 343.522 1.2266 1.51461 0
M  V30 3572 H 342.618 0.864653 2.99884 0
M  V30 3573 N 342.919 -1.39368 0.735821 0
M  V30 3574 C 343.849 -2.33234 0.111506 0
M  V30 3575 C 344.83 -1.53954 -0.723334 0
M  V30 3576 O 346.015 -1.82344 -0.668147 0
M  V30 3577 C 343.145 -3.38057 -0.795917 0
M  V30 3578 C 342.099 -4.2795 -0.065172 0
M  V30 3579 C 341.425 -5.23479 -1.08967 0
M  V30 3580 C 342.725 -5.10741 1.09273 0
M  V30 3581 H 344.419 -2.85692 0.895571 0
M  V30 3582 H 341.965 -1.37364 0.432109 0
M  V30 3583 H 343.918 -4.02675 -1.24221 0
M  V30 3584 H 342.642 -2.8404 -1.61211 0
M  V30 3585 H 341.301 -3.64813 0.361511 0
M  V30 3586 H 340.949 -4.65758 -1.89944 0
M  V30 3587 H 340.649 -5.84472 -0.605489 0
M  V30 3588 H 342.173 -5.90974 -1.53565 0
M  V30 3589 H 343.587 -5.68699 0.724841 0
M  V30 3590 H 341.984 -5.8088 1.50659 0
M  V30 3591 H 343.054 -4.45525 1.91404 0
M  V30 3592 N 344.397 -0.483516 -1.5 0
M  V30 3593 C 345.307 0.309172 -2.32554 0
M  V30 3594 C 346.323 0.984159 -1.43493 0
M  V30 3595 O 347.499 0.969399 -1.76535 0
M  V30 3596 C 344.564 1.36979 -3.18493 0
M  V30 3597 C 343.625 0.710095 -4.23387 0
M  V30 3598 C 342.858 1.72018 -5.05218 0
M  V30 3599 O 343.081 2.94813 -4.88305 0
M  V30 3600 O 342.015 1.28515 -5.8802 0
M  V30 3601 H 345.841 -0.366064 -3.01486 0
M  V30 3602 H 343.426 -0.24514 -1.47375 0
M  V30 3603 H 345.308 1.98385 -3.71781 0
M  V30 3604 H 343.983 2.02828 -2.52275 0
M  V30 3605 H 342.89 0.0567539 -3.74057 0
M  V30 3606 H 344.223 0.0943557 -4.9211 0
M  V30 3607 N 345.875 1.56104 -0.216619 0
M  V30 3608 C 347.291 1.58995 0.13886 0
M  V30 3609 C 347.491 1.23333 1.59346 0
M  V30 3610 O 346.547 0.966234 2.33281 0
M  V30 3611 C 347.86 3.00143 -0.182968 0
M  V30 3612 C 349.408 3.12751 -0.124807 0
M  V30 3613 C 349.883 4.56068 -0.420241 0
M  V30 3614 N 351.374 4.61723 -0.369634 0
M  V30 3615 C 352.109 5.70542 -0.571789 0
M  V30 3616 N 351.605 6.87744 -0.835453 0
M  V30 3617 N 353.398 5.59831 -0.504563 0
M  V30 3618 H 345.549 1.77562 -1.16557 0
M  V30 3619 H 347.812 0.825091 -0.466828 0
M  V30 3620 H 347.518 3.30871 -1.19237 0
M  V30 3621 H 347.392 3.73813 0.504367 0
M  V30 3622 H 349.779 2.81822 0.875223 0
M  V30 3623 H 349.86 2.41421 -0.845544 0
M  V30 3624 H 349.504 4.87713 -1.41769 0
M  V30 3625 H 349.434 5.25617 0.321631 0
M  V30 3626 H 351.925 3.77502 -0.173338 0
M  V30 3627 H 352.238 7.66587 -0.977938 0
M  V30 3628 H 350.583 6.895 -0.872592 0
M  V30 3629 H 353.774 4.67145 -0.298842 0
M  V30 3630 H 353.947 6.44573 -0.665519 0
M  V30 3631 N 347.353 -0.0568162 1.57498 0
M  V30 3632 C 348.599 -0.75422 1.88253 0
M  V30 3633 C 348.932 -1.76461 0.810865 0
M  V30 3634 O 348.207 -1.93691 -0.177259 0
M  V30 3635 C 348.49 -1.44878 3.2967 0
M  V30 3636 C 348.343 -0.453789 4.47505 0
M  V30 3637 C 349.662 -2.38994 3.69554 0
M  V30 3638 H 346.781 -0.272724 0.684683 0
M  V30 3639 H 349.423 -0.0172113 1.89992 0
M  V30 3640 H 347.573 -2.077 3.28318 0
M  V30 3641 H 349.245 0.170371 4.60985 0
M  V30 3642 H 347.488 0.229552 4.33192 0
M  V30 3643 H 348.159 -0.977699 5.43273 0
M  V30 3644 H 350.635 -1.86239 3.72095 0
M  V30 3645 H 349.511 -2.84587 4.69363 0
M  V30 3646 H 349.772 -3.24461 3.00296 0
M  V30 3647 N 348.832 -1.54138 -0.328536 0
M  V30 3648 C 350.057 -1.76378 -1.09112 0
M  V30 3649 C 350.482 -0.508596 -1.81094 0
M  V30 3650 O 349.84 0.539598 -1.73084 0
M  V30 3651 C 349.888 -2.95358 -2.06872 0
M  V30 3652 O 348.992 -2.66556 -3.14677 0
M  V30 3653 H 348.333 -0.584614 -0.314838 0
M  V30 3654 H 350.863 -2.01146 -0.374348 0
M  V30 3655 H 350.873 -3.22566 -2.4983 0
M  V30 3656 H 349.548 -3.86385 -1.5388 0
M  V30 3657 H 348.125 -2.50282 -2.7643 0
M  V30 3658 N 350.31 0.590341 -1.46126 0
M  V30 3659 C 351.558 1.34616 -1.50742 0
M  V30 3660 C 351.879 1.94363 -0.157486 0
M  V30 3661 O 351.149 1.78136 0.815136 0
M  V30 3662 H 349.729 0.499789 -0.555175 0
M  V30 3663 H 352.391 0.691953 -1.82203 0
M  V30 3664 H 351.487 2.15678 -2.25587 0
M  V30 3665 N 351.788 1.33704 0.83433 0
M  V30 3666 C 353.037 1.24763 1.58484 0
M  V30 3667 C 353.35 -0.183775 1.94735 0
M  V30 3668 O 354.556 -0.395234 2.68608 0
M  V30 3669 C 353.012 2.18638 2.85876 0
M  V30 3670 C 352.62 3.66974 2.56971 0
M  V30 3671 C 354.364 2.18581 3.63899 0
M  V30 3672 C 352.271 4.5275 3.80488 0
M  V30 3673 H 351.201 0.463425 0.594772 0
M  V30 3674 H 353.852 1.58797 0.919551 0
M  V30 3675 H 352.234 1.77542 3.5397 0
M  V30 3676 H 353.408 4.16538 1.9706 0
M  V30 3677 H 351.723 3.69366 1.92244 0
M  V30 3678 H 354.32 2.79894 4.55591 0
M  V30 3679 H 354.663 1.18207 3.99165 0
M  V30 3680 H 355.196 2.58062 3.02735 0
M  V30 3681 H 351.935 5.54017 3.5035 0
M  V30 3682 H 351.455 4.07927 4.39722 0
M  V30 3683 H 353.134 4.66784 4.4802 0
M  V30 3684 N 353.266 -1.05314 1.17247 0
M  V30 3685 C 354.677 -1.59753 0.96623 0
M  V30 3686 C 355.028 -1.9005 -0.487378 0
M  V30 3687 O 354.153 -1.68126 -1.36245 0
M  V30 3688 C 354.748 -2.90249 1.74759 0
M  V30 3689 C 353.307 -3.41352 1.58606 0
M  V30 3690 C 352.454 -2.15103 1.75002 0
M  V30 3691 H 355.405 -0.881406 1.31973 0
M  V30 3692 H 355.426 -3.60097 1.22925 0
M  V30 3693 H 354.938 -2.68166 2.8055 0
M  V30 3694 H 353.039 -3.68474 0.552985 0
M  V30 3695 H 353.152 -4.16019 2.37624 0
M  V30 3696 H 351.516 -2.25804 1.17833 0
M  V30 3697 H 352.299 -1.95491 2.82202 0
M  V30 3698 N 354.744 -0.972509 -1.24016 0
M  V30 3699 C 355.707 -0.511403 -2.23422 0
M  V30 3700 C 356.707 0.394679 -1.55881 0
M  V30 3701 O 357.897 0.189469 -1.73167 0
M  V30 3702 C 355.029 0.258769 -3.39916 0
M  V30 3703 H 356.222 -1.39024 -2.6573 0
M  V30 3704 H 353.775 -0.757585 -1.36713 0
M  V30 3705 H 354.51 1.1545 -3.03054 0
M  V30 3706 H 354.295 -0.391522 -3.9014 0
M  V30 3707 H 355.785 0.570244 -4.13688 0
M  V30 3708 N 356.222 1.38976 -0.743202 0
M  V30 3709 C 357.447 2.05161 -0.303936 0
M  V30 3710 C 357.872 1.55677 1.05576 0
M  V30 3711 O 357.23 0.704131 1.67068 0
M  V30 3712 C 357.278 3.59138 -0.324373 0
M  V30 3713 O 356.382 4.06668 0.685204 0
M  V30 3714 H 355.723 0.649815 -0.136518 0
M  V30 3715 H 358.253 1.77852 -1.01142 0
M  V30 3716 H 358.263 4.07639 -0.171618 0
M  V30 3717 H 356.938 3.94515 -1.31647 0
M  V30 3718 H 355.515 3.69561 0.497913 0
M  V30 3719 N 357.7 0.491464 1.49741 0
M  V30 3720 C 358.647 -0.292027 2.28945 0
M  V30 3721 C 359.617 -0.968973 1.34908 0
M  V30 3722 O 360.802 -0.97748 1.6386 0
M  V30 3723 C 357.942 -1.35617 3.17336 0
M  V30 3724 C 357.055 -0.691957 4.26422 0
M  V30 3725 C 356.19 -1.73572 5.02042 0
M  V30 3726 C 355.229 -1.05286 6.02977 0
M  V30 3727 N 354.366 -2.0404 6.71798 0
M  V30 3728 H 359.206 0.389654 2.95442 0
M  V30 3729 H 356.743 0.204003 1.45679 0
M  V30 3730 H 358.701 -1.98502 3.66951 0
M  V30 3731 H 357.331 -2.00674 2.52844 0
M  V30 3732 H 356.383 0.0499523 3.80367 0
M  V30 3733 H 357.695 -0.153946 4.98562 0
M  V30 3734 H 356.849 -2.43987 5.55478 0
M  V30 3735 H 355.588 -2.30757 4.29654 0
M  V30 3736 H 354.593 -0.334446 5.48782 0
M  V30 3737 H 355.818 -0.487636 6.77347 0
M  V30 3738 H 353.764 -2.60205 6.02187 0
M  V30 3739 H 353.681 -1.55279 7.39881 0
M  V30 3740 H 354.949 -2.73772 7.29842 0
M  V30 3741 N 359.178 -1.55987 0.224894 0
M  V30 3742 C 360.108 -2.23426 -0.678457 0
M  V30 3743 C 361.089 -1.20709 -1.19847 0
M  V30 3744 O 362.274 -1.49304 -1.24186 0
M  V30 3745 C 359.404 -2.91676 -1.88527 0
M  V30 3746 C 358.358 -4.00893 -1.49896 0
M  V30 3747 C 357.684 -4.56455 -2.78483 0
M  V30 3748 C 358.984 -5.17769 -0.686461 0
M  V30 3749 H 360.678 -2.99175 -0.116173 0
M  V30 3750 H 358.224 -1.43897 -0.054436 0
M  V30 3751 H 360.177 -3.37547 -2.5227 0
M  V30 3752 H 358.901 -2.1338 -2.47258 0
M  V30 3753 H 357.56 -3.55758 -0.884985 0
M  V30 3754 H 357.208 -3.74886 -3.35365 0
M  V30 3755 H 356.908 -5.30169 -2.53368 0
M  V30 3756 H 358.432 -5.05047 -3.43162 0
M  V30 3757 H 359.846 -5.60001 -1.22767 0
M  V30 3758 H 358.243 -5.97735 -0.532259 0
M  V30 3759 H 359.313 -4.83932 0.306196 0
M  V30 3760 N 360.656 0.0484629 -1.57525 0
M  V30 3761 C 361.902 0.744226 -1.88651 0
M  V30 3762 C 362.235 1.76029 -0.820212 0
M  V30 3763 O 361.51 1.93782 0.166985 0
M  V30 3764 C 361.793 1.43128 -3.30434 0
M  V30 3765 C 361.646 0.43005 -4.47739 0
M  V30 3766 C 362.965 2.37031 -3.70816 0
M  V30 3767 H 360.084 0.269089 -0.68612 0
M  V30 3768 H 362.726 0.00713532 -1.89999 0
M  V30 3769 H 360.876 2.05956 -3.29415 0
M  V30 3770 H 362.548 -0.194816 -4.60888 0
M  V30 3771 H 360.791 -0.252522 -4.33064 0
M  V30 3772 H 361.462 0.948874 -5.43783 0
M  V30 3773 H 363.938 1.84263 -3.73077 0
M  V30 3774 H 362.814 2.82094 -4.70865 0
M  V30 3775 H 363.075 3.22864 -3.02012 0
M  V30 3776 N 362.134 1.5431 0.320358 0
M  V30 3777 C 363.044 1.86946 1.41734 0
M  V30 3778 C 364.06 0.761689 1.56443 0
M  V30 3779 O 365.236 1.05629 1.71477 0
M  V30 3780 C 362.301 2.09293 2.76401 0
M  V30 3781 C 361.362 3.33082 2.70841 0
M  V30 3782 C 360.595 3.54353 3.99086 0
M  V30 3783 O 360.818 2.79002 4.97508 0
M  V30 3784 O 359.752 4.47838 4.0215 0
M  V30 3785 H 363.578 2.80232 1.17062 0
M  V30 3786 H 361.163 1.40255 0.514673 0
M  V30 3787 H 363.045 2.25303 3.56113 0
M  V30 3788 H 361.72 1.19194 3.00956 0
M  V30 3789 H 360.627 3.22454 1.89668 0
M  V30 3790 H 361.96 4.23249 2.5124 0
M  V30 3791 N 363.613 -0.582584 1.46437 0
M  V30 3792 C 364.576 -1.67366 1.56592 0
M  V30 3793 C 365.576 -1.54575 0.443072 0
M  V30 3794 O 366.766 -1.59191 0.707381 0
M  V30 3795 C 363.898 -3.06791 1.48634 0
M  V30 3796 H 365.091 -1.5972 2.5383 0
M  V30 3797 H 362.644 -0.800432 1.34249 0
M  V30 3798 H 363.379 -3.19993 0.526763 0
M  V30 3799 H 363.164 -3.17484 2.30101 0
M  V30 3800 H 364.654 -3.86218 1.58826 0
M  V30 3801 N 365.091 -1.34144 -0.827227 0
M  V30 3802 C 366.041 -1.21923 -1.92663 0
M  V30 3803 C 367.025 -0.119294 -1.60457 0
M  V30 3804 O 368.217 -0.348539 -1.73534 0
M  V30 3805 C 365.346 -0.972492 -3.29238 0
M  V30 3806 C 364.432 -2.1154 -3.67576 0
M  V30 3807 N 364.823 -3.36627 -3.77512 0
M  V30 3808 C 363.121 -2.02468 -3.97395 0
M  V30 3809 C 363.822 -4.11658 -4.1099 0
M  V30 3810 N 362.798 -3.40207 -4.23981 0
M  V30 3811 H 366.6 -2.16721 -1.98517 0
M  V30 3812 H 364.114 -1.2632 -1.02064 0
M  V30 3813 H 366.111 -0.865847 -4.0781 0
M  V30 3814 H 364.771 -0.0331509 -3.24683 0
M  V30 3815 H 365.782 -3.71234 -3.61118 0
M  V30 3816 H 362.459 -1.16265 -4.00985 0
M  V30 3817 H 363.849 -5.19657 -4.25918 0
M  V30 3818 N 366.569 1.04691 -1.17803 0
M  V30 3819 C 367.817 1.7743 -0.967617 0
M  V30 3820 C 368.138 1.88359 0.504574 0
M  V30 3821 O 367.408 1.40402 1.36617 0
M  V30 3822 H 365.988 0.657242 -0.355024 0
M  V30 3823 H 368.65 1.2638 -1.48371 0
M  V30 3824 H 367.746 2.78924 -1.40027 0
M  V30 3825 N 368.047 0.979072 1.23499 0
M  V30 3826 C 369.275 0.665202 1.95915 0
M  V30 3827 C 369.69 -0.767571 1.72493 0
M  V30 3828 O 369.047 -1.51635 1.01554 0
M  V30 3829 C 369.098 0.944438 3.48945 0
M  V30 3830 O 368.819 2.3209 3.71572 0
M  V30 3831 C 370.32 0.646336 4.38563 0
M  V30 3832 H 367.54 0.247218 0.623798 0
M  V30 3833 H 370.084 1.31009 1.57025 0
M  V30 3834 H 368.239 0.345575 3.85856 0
M  V30 3835 H 368.653 2.40957 4.65876 0
M  V30 3836 H 370.127 0.892091 5.44744 0
M  V30 3837 H 370.604 -0.419575 4.37191 0
M  V30 3838 H 371.21 1.22562 4.07258 0
M  V30 3839 N 369.525 -1.3858 0.750561 0
M  V30 3840 C 370.772 -2.00184 0.305373 0
M  V30 3841 C 371.1 -1.59575 -1.11203 0
M  V30 3842 O 370.355 -0.823236 -1.77542 0
M  V30 3843 C 370.654 -3.55455 0.372373 0
M  V30 3844 C 370.32 -4.15765 1.745 0
M  V30 3845 C 368.982 -4.31951 2.12065 0
M  V30 3846 C 371.334 -4.49067 2.64553 0
M  V30 3847 C 368.662 -4.78734 3.39162 0
M  V30 3848 C 371.014 -4.97265 3.91038 0
M  V30 3849 C 369.678 -5.11658 4.28676 0
M  V30 3850 H 368.948 -0.732526 0.111744 0
M  V30 3851 H 371.595 -1.65673 0.960451 0
M  V30 3852 H 369.9 -3.90084 -0.366272 0
M  V30 3853 H 371.597 -4.00999 0.00953918 0
M  V30 3854 H 368.187 -4.03579 1.44297 0
M  V30 3855 H 372.371 -4.36166 2.36796 0
M  V30 3856 H 367.627 -4.88062 3.68246 0
M  V30 3857 H 371.801 -5.22003 4.60962 0
M  V30 3858 H 369.428 -5.47668 5.27222 0
M  V30 3859 N 371.003 -0.499398 -1.49478 0
M  V30 3860 C 371.966 0.268838 -2.27618 0
M  V30 3861 C 372.966 0.895383 -1.33565 0
M  V30 3862 O 374.156 0.760164 -1.56739 0
M  V30 3863 C 371.288 1.38559 -3.11471 0
M  V30 3864 H 372.481 -0.416812 -2.96989 0
M  V30 3865 H 370.034 -0.254313 -1.54217 0
M  V30 3866 H 370.769 2.10544 -2.46661 0
M  V30 3867 H 370.554 0.941797 -3.80621 0
M  V30 3868 H 372.044 1.92678 -3.70493 0
M  V30 3869 N 372.481 1.55866 -0.233164 0
M  V30 3870 C 373.706 2.03449 0.402906 0
M  V30 3871 C 374.131 1.11166 1.51736 0
M  V30 3872 O 373.489 0.101996 1.81013 0
M  V30 3873 C 373.537 3.49165 0.9009 0
M  V30 3874 O 372.641 3.60019 2.01147 0
M  V30 3875 H 371.982 0.657913 0.0897025 0
M  V30 3876 H 374.512 2.01493 -0.355201 0
M  V30 3877 H 374.522 3.89716 1.2077 0
M  V30 3878 H 373.197 4.15813 0.0852889 0
M  V30 3879 H 371.774 3.3136 1.71042 0
M  V30 3880 N 373.959 -0.0401083 1.57549 0
M  V30 3881 C 374.922 -1.02871 2.04817 0
M  V30 3882 C 375.922 -1.29708 0.950388 0
M  V30 3883 O 377.112 -1.24897 1.21435 0
M  V30 3884 C 374.244 -2.36443 2.45576 0
M  V30 3885 H 375.437 -0.620631 2.93408 0
M  V30 3886 H 372.99 -0.286667 1.53649 0
M  V30 3887 H 373.725 -2.82021 1.60108 0
M  V30 3888 H 373.51 -2.18296 3.25713 0
M  V30 3889 H 375 -3.07441 2.82612 0
M  V30 3890 N 375.437 -1.54477 -0.31217 0
M  V30 3891 C 376.665 -1.77205 -1.068 0
M  V30 3892 C 377.08 -0.526114 -1.81321 0
M  V30 3893 O 376.437 0.503647 -1.75413 0
M  V30 3894 C 376.488 -2.97253 -2.05725 0
M  V30 3895 O 376.209 -4.1703 -1.34228 0
M  V30 3896 C 377.71 -3.32281 -2.93435 0
M  V30 3897 H 374.93 -0.591287 -0.317208 0
M  V30 3898 H 377.474 -2.01398 -0.354834 0
M  V30 3899 H 375.629 -2.753 -2.72559 0
M  V30 3900 H 376.043 -4.84636 -2.00571 0
M  V30 3901 H 377.517 -4.19551 -3.58721 0
M  V30 3902 H 377.994 -2.49945 -3.61143 0
M  V30 3903 H 378.6 -3.56353 -2.32147 0
M  V30 3904 N 376.915 0.57481 -1.46744 0
M  V30 3905 C 378.155 1.34369 -1.54027 0
M  V30 3906 C 378.519 1.91051 -0.190642 0
M  V30 3907 O 379.72 2.68444 -0.138255 0
M  V30 3908 C 377.991 2.43706 -2.61423 0
M  V30 3909 S 379.55 3.30915 -2.88167 0
M  V30 3910 H 376.368 0.45768 -0.544105 0
M  V30 3911 H 378.97 0.659959 -1.84024 0
M  V30 3912 H 377.674 2.0047 -3.58106 0
M  V30 3913 H 377.205 3.16842 -2.33184 0
M  V30 3914 H 379.22 4.42742 -2.24039 0
M  V30 3915 N 378.394 1.34581 0.820102 0
M  V30 3916 C 379.622 1.3018 1.60813 0
M  V30 3917 C 380.037 -0.123551 1.88395 0
M  V30 3918 O 379.394 -1.07148 1.47735 0
M  V30 3919 C 379.445 2.09312 2.94739 0
M  V30 3920 O 379.166 3.46288 2.68358 0
M  V30 3921 C 380.667 2.1234 3.89136 0
M  V30 3922 H 377.887 0.447726 0.499782 0
M  V30 3923 H 380.431 1.77237 1.02017 0
M  V30 3924 H 378.586 1.65889 3.50085 0
M  V30 3925 H 379 3.87227 3.53774 0
M  V30 3926 H 380.474 2.72126 4.80262 0
M  V30 3927 H 380.951 1.11854 4.24718 0
M  V30 3928 H 381.557 2.55864 3.39726 0
M  V30 3929 N 379.872 -1.04064 1.18357 0
M  V30 3930 C 381.118 -1.77528 0.980397 0
M  V30 3931 C 381.451 -1.87948 -0.48879 0
M  V30 3932 O 380.726 -1.3876 -1.36293 0
M  V30 3933 C 381.009 -3.20797 1.63588 0
M  V30 3934 C 380.862 -3.1832 3.17793 0
M  V30 3935 C 382.181 -4.18911 1.34914 0
M  V30 3936 H 379.3 -0.644443 0.357578 0
M  V30 3937 H 381.942 -1.2156 1.46024 0
M  V30 3938 H 380.092 -3.68586 1.22788 0
M  V30 3939 H 381.764 -2.78521 3.67728 0
M  V30 3940 H 380.007 -2.56351 3.49952 0
M  V30 3941 H 380.678 -4.19489 3.58794 0
M  V30 3942 H 383.154 -3.7967 1.70265 0
M  V30 3943 H 382.03 -5.17374 1.83346 0
M  V30 3944 H 382.291 -4.41262 0.272027 0
M  V30 3945 N 381.35 -0.985608 -1.22978 0
M  V30 3946 C 382.59 -0.665487 -1.93263 0
M  V30 3947 C 382.954 0.78706 -1.75127 0
M  V30 3948 O 384.155 1.21826 -2.39608 0
M  V30 3949 C 382.426 -1.0515 -3.41582 0
M  V30 3950 S 383.985 -0.848637 -4.30516 0
M  V30 3951 H 380.803 -0.24355 -0.667985 0
M  V30 3952 H 383.405 -1.26635 -1.48942 0
M  V30 3953 H 382.109 -2.10517 -3.52293 0
M  V30 3954 H 381.64 -0.442134 -3.90908 0
M  V30 3955 H 383.655 0.264717 -4.95493 0
M  V30 3956 N 382.828 1.3818 -0.7579 0
M  V30 3957 C 383.76 2.2901 -0.0932177 0
M  V30 3958 C 384.773 1.47958 0.679136 0
M  V30 3959 O 385.962 1.70773 0.519514 0
M  V30 3960 C 383.062 3.26953 0.89192 0
M  V30 3961 C 382.235 4.37045 0.176303 0
M  V30 3962 C 381.294 5.15148 1.07281 0
M  V30 3963 O 380.32 5.66616 0.541728 0
M  V30 3964 N 381.522 5.28542 2.40049 0
M  V30 3965 H 384.287 2.86694 -0.873303 0
M  V30 3966 H 381.848 1.50007 -0.609054 0
M  V30 3967 H 383.84 3.76083 1.49479 0
M  V30 3968 H 382.41 2.70136 1.57306 0
M  V30 3969 H 381.63 3.89493 -0.607328 0
M  V30 3970 H 382.918 5.07801 -0.318718 0
M  V30 3971 H 382.316 4.88285 2.85647 0
M  V30 3972 H 380.873 5.8103 2.95376 0
M  V30 3973 N 384.306 0.507319 1.49211 0
M  V30 3974 C 385.722 0.163682 1.58758 0
M  V30 3975 C 385.922 -1.33208 1.51188 0
M  V30 3976 O 384.978 -2.10855 1.38911 0
M  V30 3977 C 386.291 0.746095 2.91297 0
M  V30 3978 C 387.839 0.712773 3.04776 0
M  V30 3979 C 388.314 1.27336 4.39943 0
M  V30 3980 N 389.805 1.23433 4.46451 0
M  V30 3981 C 390.54 1.63821 5.495 0
M  V30 3982 N 390.036 2.11832 6.5962 0
M  V30 3983 N 391.829 1.55198 5.4025 0
M  V30 3984 H 383.98 1.47972 1.52375 0
M  V30 3985 H 386.243 0.614147 0.722168 0
M  V30 3986 H 385.949 1.79534 3.02424 0
M  V30 3987 H 385.823 0.210137 3.76614 0
M  V30 3988 H 388.21 -0.327656 2.93275 0
M  V30 3989 H 388.291 1.28595 2.21127 0
M  V30 3990 H 387.935 2.3126 4.52196 0
M  V30 3991 H 387.865 0.676066 5.22242 0
M  V30 3992 H 390.356 0.882627 3.67448 0
M  V30 3993 H 390.669 2.40703 7.34358 0
M  V30 3994 H 389.014 2.1581 6.60644 0
M  V30 3995 H 392.205 1.17505 4.53112 0
M  V30 3996 H 392.378 1.86997 6.20432 0
M  V30 3997 N 385.784 -1.5574 0.241426 0
M  V30 3998 C 387.195 -1.84842 -0.262755 0
M  V30 3999 C 387.546 -1.16317 -1.58003 0
M  V30 4000 O 386.671 -0.439653 -2.11887 0
M  V30 4001 C 387.266 -3.35332 -0.483523 0
M  V30 4002 C 385.825 -3.6468 -0.931977 0
M  V30 4003 C 384.972 -2.77299 -0.0061151 0
M  V30 4004 H 387.923 -1.51761 0.464129 0
M  V30 4005 H 387.944 -3.56615 -1.32688 0
M  V30 4006 H 387.456 -3.85178 0.47537 0
M  V30 4007 H 385.557 -3.20307 -1.90353 0
M  V30 4008 H 385.67 -4.72498 -0.792628 0
M  V30 4009 H 384.034 -2.49408 -0.516503 0
M  V30 4010 H 384.817 -3.2995 0.948052 0
M  V30 4011 N 387.262 0.0317525 -1.57568 0
M  V30 4012 C 388.509 0.723104 -1.89149 0
M  V30 4013 C 388.837 1.75504 -0.838377 0
M  V30 4014 O 388.092 1.95037 0.160982 0
M  V30 4015 C 388.391 1.43167 -3.27472 0
M  V30 4016 C 388.057 0.535972 -4.47703 0
M  V30 4017 C 386.719 0.289262 -4.8033 0
M  V30 4018 C 389.071 -0.0826125 -5.21135 0
M  V30 4019 C 386.399 -0.584853 -5.83778 0
M  V30 4020 C 388.751 -0.944414 -6.25511 0
M  V30 4021 C 387.415 -1.20061 -6.56614 0
M  V30 4022 H 386.685 0.264602 -0.692146 0
M  V30 4023 H 389.332 -0.0169496 -1.91492 0
M  V30 4024 H 387.637 2.24497 -3.21105 0
M  V30 4025 H 389.334 1.97209 -3.49155 0
M  V30 4026 H 385.924 0.738414 -4.22191 0
M  V30 4027 H 390.108 0.0950302 -4.96209 0
M  V30 4028 H 385.364 -0.79168 -6.06253 0
M  V30 4029 H 389.538 -1.43026 -6.81554 0
M  V30 4030 H 387.165 -1.87967 -7.36595 0
M  V30 4031 N 388.74 1.54641 0.303973 0
M  V30 4032 C 390.151 1.64811 0.877163 0
M  V30 4033 C 390.502 0.554838 1.88191 0
M  V30 4034 O 389.627 -0.309033 2.14182 0
M  V30 4035 C 390.222 2.9876 1.59775 0
M  V30 4036 C 388.781 3.11061 2.11938 0
M  V30 4037 C 387.928 2.60479 0.951097 0
M  V30 4038 H 390.879 1.58493 0.0810486 0
M  V30 4039 H 390.9 2.90017 2.46314 0
M  V30 4040 H 390.412 3.7831 0.866226 0
M  V30 4041 H 388.513 2.36225 2.88146 0
M  V30 4042 H 388.626 4.17171 2.35595 0
M  V30 4043 H 386.99 2.16859 1.33583 0
M  V30 4044 H 387.773 3.42504 0.233581 0
M  V30 4045 N 390.218 -0.567019 1.47046 0
M  V30 4046 C 391.466 -1.322 1.52864 0
M  V30 4047 C 391.787 -1.94088 0.188388 0
M  V30 4048 O 391.057 -1.7941 -0.786693 0
M  V30 4049 H 389.637 -0.490894 0.563056 0
M  V30 4050 H 392.299 -0.662879 1.83281 0
M  V30 4051 H 391.395 -2.12062 2.2899 0
M  V30 4052 N 391.696 -1.35014 -0.812953 0
M  V30 4053 C 392.606 -1.2951 -1.95613 0
M  V30 4054 C 393.622 -0.20107 -1.72834 0
M  V30 4055 O 394.798 -0.42932 -1.96771 0
M  V30 4056 C 391.863 -1.06033 -3.30088 0
M  V30 4057 C 390.924 -2.24688 -3.65805 0
M  V30 4058 C 390.157 -2.02322 -4.93864 0
M  V30 4059 O 390.38 -0.986464 -5.61805 0
M  V30 4060 O 389.314 -2.89525 -5.27692 0
M  V30 4061 H 393.14 -2.25705 -2.03202 0
M  V30 4062 H 390.725 -1.15321 -0.949811 0
M  V30 4063 H 392.607 -0.94763 -4.10607 0
M  V30 4064 H 391.282 -0.128852 -3.23443 0
M  V30 4065 H 390.189 -2.41521 -2.85689 0
M  V30 4066 H 391.522 -3.16261 -3.77147 0
M  V30 4067 N 393.175 1.03435 -1.18907 0
M  V30 4068 C 394.452 1.73778 -0.89781 0
M  V30 4069 C 394.832 2.02458 0.597832 0
M  V30 4070 O 394.18 1.67482 1.55441 0
M  V30 4071 C 394.39 3.01845 -1.75187 0
M  V30 4072 C 395.738 3.7546 -1.9828 0
M  V30 4073 O 396.762 3.11759 -1.72293 0
M  V30 4074 O 395.621 4.89966 -2.42065 0
M  V30 4075 H 392.715 0.75651 -0.334098 0
M  V30 4076 H 395.261 1.09444 -1.29693 0
M  V30 4077 H 394.033 2.76836 -2.76545 0
M  V30 4078 H 393.656 3.73919 -1.35167 0
M  V30 4079 N 394.653 0.992116 1.22453 0
M  V30 4080 C 395.902 0.662992 1.90492 0
M  V30 4081 C 396.215 -0.808407 1.78113 0
M  V30 4082 O 397.421 -1.24908 2.41061 0
M  V30 4083 C 395.877 1.1353 3.41524 0
M  V30 4084 C 395.485 2.63187 3.62542 0
M  V30 4085 C 397.229 0.880465 4.15269 0
M  V30 4086 C 395.136 3.04024 5.0727 0
M  V30 4087 H 394.066 0.244278 0.713333 0
M  V30 4088 H 396.717 1.20157 1.38688 0
M  V30 4089 H 395.099 0.52485 3.92506 0
M  V30 4090 H 396.273 3.2957 3.22056 0
M  V30 4091 H 394.588 2.86543 3.02129 0
M  V30 4092 H 397.185 1.16128 5.21937 0
M  V30 4093 H 397.528 -0.183408 4.15896 0
M  V30 4094 H 398.061 1.45307 3.70312 0
M  V30 4095 H 394.8 4.09584 5.11782 0
M  V30 4096 H 394.32 2.42343 5.48662 0
M  V30 4097 H 395.999 2.95282 5.75689 0
M  V30 4098 N 396.131 -1.37776 0.765217 0
M  V30 4099 C 397.547 -1.53297 0.444108 0
M  V30 4100 C 397.747 -1.72515 -1.04119 0
M  V30 4101 O 396.803 -1.74278 -1.82711 0
M  V30 4102 C 398.116 -2.73328 1.25349 0
M  V30 4103 C 399.664 -2.87185 1.24473 0
M  V30 4104 C 400.139 -4.10191 2.03733 0
M  V30 4105 N 401.63 -4.17291 2.01053 0
M  V30 4106 C 402.365 -5.11488 2.59166 0
M  V30 4107 N 401.861 -6.11285 3.26041 0
M  V30 4108 N 403.654 -5.03924 2.49032 0
M  V30 4109 H 395.805 -1.23552 1.72768 0
M  V30 4110 H 398.068 -0.601103 0.733062 0
M  V30 4111 H 397.774 -2.6557 2.30577 0
M  V30 4112 H 397.648 -3.66834 0.87823 0
M  V30 4113 H 400.035 -2.94418 0.20047 0
M  V30 4114 H 400.116 -1.94657 1.65959 0
M  V30 4115 H 399.76 -4.0372 3.08176 0
M  V30 4116 H 399.69 -5.01821 1.59633 0
M  V30 4117 H 402.181 -3.45825 1.5236 0
M  V30 4118 H 402.494 -6.79678 3.67774 0
M  V30 4119 H 400.839 -6.11583 3.30138 0
M  V30 4120 H 404.03 -4.24902 1.96407 0
M  V30 4121 H 404.203 -5.77152 2.94617 0
M  V30 4122 N 397.609 -0.515225 -1.4894 0
M  V30 4123 C 398.572 0.244681 -2.2789 0
M  V30 4124 C 399.572 0.881166 -1.34507 0
M  V30 4125 O 400.762 0.743497 -1.57537 0
M  V30 4126 C 397.894 1.35247 -3.12923 0
M  V30 4127 H 399.087 -0.448289 -2.96531 0
M  V30 4128 H 396.64 -0.270656 -1.53939 0
M  V30 4129 H 397.375 2.07916 -2.48881 0
M  V30 4130 H 397.16 0.901374 -3.81599 0
M  V30 4131 H 398.65 1.88737 -3.72516 0
M  V30 4132 N 399.087 1.5561 -0.249682 0
M  V30 4133 C 400.364 1.90932 0.424761 0
M  V30 4134 C 400.744 1.17078 1.75658 0
M  V30 4135 O 400.092 0.289176 2.26663 0
M  V30 4136 C 400.302 3.43975 0.590109 0
M  V30 4137 C 401.65 4.15281 0.884714 0
M  V30 4138 O 402.674 3.49729 0.67587 0
M  V30 4139 O 401.533 5.31236 1.28259 0
M  V30 4140 H 398.627 0.794815 0.228468 0
M  V30 4141 H 401.173 1.67135 -0.293954 0
M  V30 4142 H 399.945 3.89748 -0.34818 0
M  V30 4143 H 399.568 3.73644 1.35926 0
M  V30 4144 N 400.565 -0.0233959 1.57583 0
M  V30 4145 C 401.811 -0.714119 1.89811 0
M  V30 4146 C 402.144 -1.74702 0.848113 0
M  V30 4147 O 401.419 -1.94023 -0.136135 0
M  V30 4148 C 401.702 -1.37853 3.32669 0
M  V30 4149 C 401.555 -0.358764 4.48367 0
M  V30 4150 C 402.874 -2.31101 3.7454 0
M  V30 4151 H 399.993 -0.25814 0.690314 0
M  V30 4152 H 402.635 0.0230927 1.89986 0
M  V30 4153 H 400.785 -2.00689 3.3265 0
M  V30 4154 H 402.457 0.268115 4.6052 0
M  V30 4155 H 400.7 0.321387 4.32608 0
M  V30 4156 H 401.371 -0.862242 5.45224 0
M  V30 4157 H 403.847 -1.78304 3.75961 0
M  V30 4158 H 402.723 -2.74567 4.75294 0
M  V30 4159 H 402.984 -3.18018 3.0711 0
M  V30 4160 N 402.043 -1.548 -0.295768 0
M  V30 4161 C 402.976 -1.81003 -1.38972 0
M  V30 4162 C 403.954 -0.661544 -1.48534 0
M  V30 4163 O 405.138 -0.902074 -1.65514 0
M  V30 4164 C 402.265 -1.95141 -2.76835 0
M  V30 4165 C 401.311 -3.17592 -2.84671 0
M  V30 4166 S 402.144 -4.75531 -2.46232 0
M  V30 4167 C 403.3 -4.92613 -3.86114 0
M  V30 4168 H 403.533 -2.73507 -1.16537 0
M  V30 4169 H 401.066 -1.46278 -0.494168 0
M  V30 4170 H 403.024 -2.03972 -3.56238 0
M  V30 4171 H 401.685 -1.03565 -2.96535 0
M  V30 4172 H 400.878 -3.24303 -3.85803 0
M  V30 4173 H 400.48 -3.07235 -2.13267 0
M  V30 4174 H 402.772 -4.76957 -4.81164 0
M  V30 4175 H 403.715 -5.94698 -3.8437 0
M  V30 4176 H 404.123 -4.2073 -3.76359 0
M  V30 4177 N 403.521 0.559213 -1.47345 0
M  V30 4178 C 404.484 1.64854 -1.59235 0
M  V30 4179 C 405.484 1.53851 -0.467607 0
M  V30 4180 O 406.674 1.58045 -0.732617 0
M  V30 4181 C 403.806 3.04388 -1.53496 0
M  V30 4182 H 404.999 1.55662 -2.56339 0
M  V30 4183 H 402.552 0.778973 -1.35505 0
M  V30 4184 H 403.287 3.19115 -0.577604 0
M  V30 4185 H 403.072 3.13783 -2.35123 0
M  V30 4186 H 404.562 3.83642 -1.6495 0
M  V30 4187 N 404.999 1.35443 0.805782 0
M  V30 4188 C 406.276 1.19325 1.54987 0
M  V30 4189 C 406.656 -0.227294 2.09873 0
M  V30 4190 O 406.004 -1.2309 1.92512 0
M  V30 4191 C 406.214 2.26196 2.65775 0
M  V30 4192 C 407.562 2.62043 3.34094 0
M  V30 4193 O 408.586 2.25115 2.76046 0
M  V30 4194 O 407.445 3.25542 4.38958 0
M  V30 4195 H 404.539 0.463623 0.684823 0
M  V30 4196 H 407.085 1.47127 0.845674 0
M  V30 4197 H 405.857 3.21471 2.23096 0
M  V30 4198 H 405.48 1.99667 3.43829 0
M  V30 4199 N 406.477 -1.02803 1.19454 0
M  V30 4200 C 407.893 -1.28473 0.946937 0
M  V30 4201 C 408.093 -1.97881 -0.380202 0
M  V30 4202 O 407.149 -2.26719 -1.11151 0
M  V30 4203 C 408.462 -2.13099 2.12154 0
M  V30 4204 C 410.01 -2.26404 2.16126 0
M  V30 4205 C 410.485 -3.14402 3.33039 0
M  V30 4206 N 411.976 -3.21991 3.32981 0
M  V30 4207 C 412.711 -3.90272 4.20089 0
M  V30 4208 N 412.207 -4.60777 5.17355 0
M  V30 4209 N 414 -3.8668 4.07964 0
M  V30 4210 H 406.151 -0.561665 2.04839 0
M  V30 4211 H 408.414 -0.310438 0.89573 0
M  V30 4212 H 408.12 -1.69422 3.08203 0
M  V30 4213 H 407.994 -3.13813 2.09287 0
M  V30 4214 H 410.381 -2.69311 1.20647 0
M  V30 4215 H 410.462 -1.25237 2.23045 0
M  V30 4216 H 410.106 -2.72204 4.28798 0
M  V30 4217 H 410.036 -4.1563 3.23356 0
M  V30 4218 H 412.527 -2.71778 2.62574 0
M  V30 4219 H 412.84 -5.10513 5.80169 0
M  V30 4220 H 411.185 -4.5964 5.21302 0
M  V30 4221 H 414.376 -3.30739 3.31254 0
M  V30 4222 H 414.549 -4.39621 4.76064 0
M  V30 4223 N 407.956 -0.998596 -1.21925 0
M  V30 4224 C 409.202 -0.678667 -1.91107 0
M  V30 4225 C 409.535 0.78791 -1.77498 0
M  V30 4226 O 408.81 1.57043 -1.1475 0
M  V30 4227 C 409.093 -1.09245 -3.43129 0
M  V30 4228 C 408.946 -2.61801 -3.6576 0
M  V30 4229 C 410.265 -0.649984 -4.35274 0
M  V30 4230 H 407.384 -0.248025 -0.694012 0
M  V30 4231 H 410.026 -1.24314 -1.43688 0
M  V30 4232 H 408.176 -0.612171 -3.83647 0
M  V30 4233 H 409.848 -3.17543 -3.34611 0
M  V30 4234 H 408.091 -3.03609 -3.09845 0
M  V30 4235 H 408.762 -2.85804 -4.7225 0
M  V30 4236 H 411.238 -1.0626 -4.02303 0
M  V30 4237 H 410.114 -0.967743 -5.40302 0
M  V30 4238 H 410.375 0.449139 -4.39813 0
M  V30 4239 N 409.434 1.37368 -0.772513 0
M  V30 4240 C 410.845 1.8231 -0.402493 0
M  V30 4241 C 411.196 1.6436 1.07146 0
M  V30 4242 O 410.321 1.15514 1.82991 0
M  V30 4243 C 410.916 3.30979 -0.723776 0
M  V30 4244 C 409.475 3.74195 -0.406802 0
M  V30 4245 C 408.622 2.59885 -0.967218 0
M  V30 4246 H 411.573 1.25829 -0.967099 0
M  V30 4247 H 411.594 3.80499 -0.00870832 0
M  V30 4248 H 411.106 3.44011 -1.7966 0
M  V30 4249 H 409.207 3.66732 0.658673 0
M  V30 4250 H 409.32 4.7027 -0.915588 0
M  V30 4251 H 407.684 2.51674 -0.391416 0
M  V30 4252 H 408.467 2.7571 -2.04546 0
M  V30 4253 N 410.912 0.523116 1.48665 0
M  V30 4254 C 412.328 0.180511 1.58576 0
M  V30 4255 C 412.528 -1.31597 1.52592 0
M  V30 4256 O 411.584 -2.0937 1.4114 0
M  V30 4257 C 412.897 0.776949 2.90489 0
M  V30 4258 C 414.445 0.745058 3.04003 0
M  V30 4259 C 414.92 1.31995 4.38567 0
M  V30 4260 N 416.411 1.28162 4.45117 0
M  V30 4261 C 417.146 1.6964 5.47731 0
M  V30 4262 N 416.642 2.18816 6.57337 0
M  V30 4263 N 418.435 1.6092 5.38573 0
M  V30 4264 H 410.586 1.4958 1.50797 0
M  V30 4265 H 412.849 0.621772 0.715614 0
M  V30 4266 H 412.555 1.82732 3.00503 0
M  V30 4267 H 412.429 0.25007 3.7637 0
M  V30 4268 H 414.816 -0.296532 2.93606 0
M  V30 4269 H 414.897 1.30933 2.1975 0
M  V30 4270 H 414.541 2.36043 4.49718 0
M  V30 4271 H 414.471 0.731418 5.21496 0
M  V30 4272 H 416.962 0.92155 3.66491 0
M  V30 4273 H 417.275 2.48478 7.31764 0
M  V30 4274 H 415.62 2.22805 6.58318 0
M  V30 4275 H 418.811 1.22304 4.5184 0
M  V30 4276 H 418.984 1.93567 6.18414 0
M  V30 4277 N 412.39 -1.55475 0.257931 0
M  V30 4278 C 413.63 -2.01112 -0.365129 0
M  V30 4279 C 413.994 -1.1423 -1.54323 0
M  V30 4280 O 415.195 -1.49371 -2.23477 0
M  V30 4281 C 413.466 -3.49353 -0.754117 0
M  V30 4282 S 415.025 -4.16992 -1.36614 0
M  V30 4283 H 411.843 -0.701737 -0.114397 0
M  V30 4284 H 414.445 -1.91855 0.375747 0
M  V30 4285 H 413.149 -4.10246 0.112441 0
M  V30 4286 H 412.68 -3.6256 -1.52689 0
M  V30 4287 H 414.695 -4.19191 -2.65505 0
M  V30 4288 N 413.868 0.0150385 -1.57593 0
M  V30 4289 C 415.279 0.559832 -1.78109 0
M  V30 4290 C 415.63 1.74814 -0.890756 0
M  V30 4291 O 414.755 2.16216 -0.0892482 0
M  V30 4292 C 415.35 1.02238 -3.23006 0
M  V30 4293 C 413.909 1.51258 -3.44671 0
M  V30 4294 C 413.056 0.456955 -2.73509 0
M  V30 4295 H 416.007 -0.211169 -1.57289 0
M  V30 4296 H 416.028 1.88912 -3.30292 0
M  V30 4297 H 415.54 0.157302 -3.87781 0
M  V30 4298 H 413.641 2.39905 -2.8509 0
M  V30 4299 H 413.754 1.55042 -4.5332 0
M  V30 4300 H 412.118 0.915196 -2.37689 0
M  V30 4301 H 412.901 -0.398896 -3.40975 0
M  V30 4302 N 415.346 1.54954 0.287554 0
M  V30 4303 C 416.592 1.75132 1.02257 0
M  V30 4304 C 416.925 0.542858 1.86458 0
M  V30 4305 O 416.2 -0.459856 1.88986 0
M  V30 4306 C 416.483 3.04812 1.91733 0
M  V30 4307 C 416.336 4.35985 1.10622 0
M  V30 4308 C 417.655 3.30438 2.90687 0
M  V30 4309 H 414.774 0.637194 0.370341 0
M  V30 4310 H 417.416 1.87678 0.296111 0
M  V30 4311 H 415.566 2.94247 2.53675 0
M  V30 4312 H 417.238 4.58487 0.508636 0
M  V30 4313 H 415.481 4.31865 0.409271 0
M  V30 4314 H 416.152 5.23017 1.76513 0
M  V30 4315 H 418.628 3.40701 2.38877 0
M  V30 4316 H 417.504 4.22467 3.50447 0
M  V30 4317 H 417.765 2.49377 3.65053 0
M  V30 4318 N 416.824 -0.551391 1.4764 0
M  V30 4319 C 418.064 -1.31901 1.56145 0
M  V30 4320 C 418.428 -1.90724 0.221013 0
M  V30 4321 O 419.629 -2.6819 0.180945 0
M  V30 4322 C 417.9 -2.39517 2.65267 0
M  V30 4323 S 419.459 -3.26289 2.93395 0
M  V30 4324 H 416.277 -0.448965 0.551318 0
M  V30 4325 H 418.879 -0.630599 1.85051 0
M  V30 4326 H 417.583 -1.94747 3.6125 0
M  V30 4327 H 417.114 -3.13092 2.38195 0
M  V30 4328 H 419.129 -4.39122 2.31055 0
M  V30 4329 N 418.302 -1.35869 -0.798587 0
M  V30 4330 C 419.53 -1.32722 -1.58722 0
M  V30 4331 C 419.945 0.0935631 -1.88568 0
M  V30 4332 O 419.302 1.04784 -1.49421 0
M  V30 4333 C 419.353 -2.13974 -2.91371 0
M  V30 4334 O 419.074 -3.50514 -2.62815 0
M  V30 4335 C 420.575 -2.18504 -3.85708 0
M  V30 4336 H 417.795 -0.45562 -0.492596 0
M  V30 4337 H 420.339 -1.78837 -0.991843 0
M  V30 4338 H 418.494 -1.71438 -3.47402 0
M  V30 4339 H 418.908 -3.92806 -3.47568 0
M  V30 4340 H 420.382 -2.79732 -4.75872 0
M  V30 4341 H 420.859 -1.18597 -4.22885 0
M  V30 4342 H 421.465 -2.61236 -3.35612 0
M  V30 4343 N 419.78 1.02168 -1.19998 0
M  V30 4344 C 421.028 1.75338 -1.00504 0
M  V30 4345 C 421.349 1.89387 0.464506 0
M  V30 4346 O 420.619 1.43268 1.33608 0
M  V30 4347 H 419.199 0.649564 -0.368885 0
M  V30 4348 H 421.861 1.23205 -1.51018 0
M  V30 4349 H 420.957 2.75892 -1.45912 0
M  V30 4350 N 421.258 1.00505 1.21394 0
M  V30 4351 C 422.504 0.688793 1.90745 0
M  V30 4352 C 422.837 -0.778486 1.77914 0
M  V30 4353 O 422.112 -1.56433 1.15581 0
M  V30 4354 C 422.395 1.11063 3.42545 0
M  V30 4355 C 422.248 2.63737 3.64367 0
M  V30 4356 C 423.567 0.673059 4.34923 0
M  V30 4357 H 420.686 0.251702 0.692687 0
M  V30 4358 H 423.328 1.25074 1.43026 0
M  V30 4359 H 421.478 0.632508 3.83317 0
M  V30 4360 H 423.15 3.19313 3.32922 0
M  V30 4361 H 421.393 3.05248 3.08231 0
M  V30 4362 H 422.064 2.88305 4.70727 0
M  V30 4363 H 424.54 1.08392 4.01734 0
M  V30 4364 H 423.416 0.996383 5.39781 0
M  V30 4365 H 423.677 -0.425808 4.40045 0
M  V30 4366 N 422.737 -1.36956 0.779787 0
M  V30 4367 C 423.983 -1.99787 0.348281 0
M  V30 4368 C 424.316 -1.61756 -1.07465 0
M  V30 4369 O 423.591 -0.867639 -1.74075 0
M  V30 4370 C 423.874 -3.56597 0.50104 0
M  V30 4371 C 423.727 -4.04513 1.96697 0
M  V30 4372 C 425.046 -4.40008 -0.0898097 0
M  V30 4373 H 422.165 -0.725796 0.128022 0
M  V30 4374 H 424.807 -1.62514 0.984331 0
M  V30 4375 H 422.957 -3.88479 -0.0404347 0
M  V30 4376 H 424.629 -3.83161 2.56876 0
M  V30 4377 H 422.872 -3.56408 2.47297 0
M  V30 4378 H 423.543 -5.1352 2.02486 0
M  V30 4379 H 426.019 -4.14431 0.372293 0
M  V30 4380 H 424.895 -5.4888 0.0471605 0
M  V30 4381 H 425.156 -4.26035 -1.18096 0
M  V30 4382 N 424.215 -0.530993 -1.48385 0
M  V30 4383 C 425.162 0.231223 -2.29639 0
M  V30 4384 C 426.132 0.932864 -1.37429 0
M  V30 4385 O 427.317 0.933692 -1.66394 0
M  V30 4386 C 424.457 1.27155 -3.2082 0
M  V30 4387 C 423.57 0.578655 -4.28107 0
M  V30 4388 C 422.705 1.602 -5.06467 0
M  V30 4389 C 421.744 0.892625 -6.05556 0
M  V30 4390 N 420.881 1.86157 -6.76971 0
M  V30 4391 H 425.721 -0.467848 -2.94305 0
M  V30 4392 H 423.258 -0.242556 -1.45086 0
M  V30 4393 H 425.216 1.88703 -3.72085 0
M  V30 4394 H 423.846 1.939 -2.58075 0
M  V30 4395 H 422.898 -0.150782 -3.80101 0
M  V30 4396 H 424.21 0.0217065 -4.98795 0
M  V30 4397 H 423.364 2.29173 -5.61751 0
M  V30 4398 H 422.103 2.19285 -4.35621 0
M  V30 4399 H 421.108 0.188829 -5.49476 0
M  V30 4400 H 422.333 0.307878 -6.78402 0
M  V30 4401 H 420.279 2.44147 -6.08875 0
M  V30 4402 H 420.196 1.35608 -7.43738 0
M  V30 4403 H 421.464 2.54325 -7.36844 0
M  V30 4404 N 425.693 1.55336 -0.266172 0
M  V30 4405 C 427.104 1.85236 0.233315 0
M  V30 4406 C 427.455 1.18816 1.56132 0
M  V30 4407 O 426.58 0.473307 2.11161 0
M  V30 4408 C 427.175 3.36059 0.430113 0
M  V30 4409 C 425.734 3.66116 0.873842 0
M  V30 4410 C 424.881 2.77274 -0.0380016 0
M  V30 4411 H 427.832 1.51004 -0.488214 0
M  V30 4412 H 427.853 3.58681 1.26998 0
M  V30 4413 H 427.365 3.84373 -0.536588 0
M  V30 4414 H 425.466 3.23295 1.85233 0
M  V30 4415 H 425.579 4.73699 0.717358 0
M  V30 4416 H 423.943 2.50198 0.476759 0
M  V30 4417 H 424.726 3.284 -1.00042 0
M  V30 4418 N 427.171 -0.0066808 1.57599 0
M  V30 4419 C 428.448 -0.729586 1.81484 0
M  V30 4420 C 428.828 -1.92359 0.869558 0
M  V30 4421 O 428.176 -2.28348 -0.0832533 0
M  V30 4422 C 428.386 -1.1416 3.29801 0
M  V30 4423 C 429.734 -1.54823 3.95367 0
M  V30 4424 O 430.758 -1.23558 3.34084 0
M  V30 4425 O 429.617 -2.12937 5.03309 0
M  V30 4426 H 426.711 -0.354674 0.747085 0
M  V30 4427 H 429.257 0.0182609 1.6969 0
M  V30 4428 H 428.029 -0.290231 3.90222 0
M  V30 4429 H 427.652 -1.94876 3.46568 0
M  V30 4430 N 428.649 -1.55105 -0.279332 0
M  V30 4431 C 429.898 -1.74618 -1.00952 0
M  V30 4432 C 430.211 -0.551096 -1.87676 0
M  V30 4433 O 431.417 -0.628507 -2.64125 0
M  V30 4434 C 429.873 -3.09025 -1.84476 0
M  V30 4435 C 429.481 -4.36081 -1.0265 0
M  V30 4436 C 431.225 -3.37891 -2.56963 0
M  V30 4437 C 429.132 -5.6153 -1.85576 0
M  V30 4438 H 428.062 -0.650868 -0.38064 0
M  V30 4439 H 430.713 -1.81569 -0.265475 0
M  V30 4440 H 429.095 -2.96095 -2.62952 0
M  V30 4441 H 430.269 -4.59909 -0.286354 0
M  V30 4442 H 428.584 -4.14312 -0.416464 0
M  V30 4443 H 431.181 -4.28822 -3.19399 0
M  V30 4444 H 431.524 -2.57737 -3.26921 0
M  V30 4445 H 432.057 -3.5189 -1.85522 0
M  V30 4446 H 428.796 -6.44413 -1.2005 0
M  V30 4447 H 428.316 -5.41854 -2.57204 0
M  V30 4448 H 429.995 -5.99594 -2.43096 0
M  V30 4449 N 430.127 0.543554 -1.4793 0
M  V30 4450 C 431.373 1.30201 -1.55485 0
M  V30 4451 C 431.706 1.92925 -0.222201 0
M  V30 4452 O 430.981 1.78586 0.77053 0
M  V30 4453 C 431.264 2.40174 -2.68307 0
M  V30 4454 C 431.117 1.8223 -4.11233 0
M  V30 4455 C 432.436 3.42024 -2.76961 0
M  V30 4456 H 429.555 0.472036 -0.565996 0
M  V30 4457 H 432.197 0.606914 -1.80046 0
M  V30 4458 H 430.347 2.99463 -2.47495 0
M  V30 4459 H 432.019 1.27096 -4.43446 0
M  V30 4460 H 430.262 1.12832 -4.18869 0
M  V30 4461 H 430.933 2.61793 -4.85972 0
M  V30 4462 H 433.409 2.92672 -2.95774 0
M  V30 4463 H 432.285 4.16383 -3.57654 0
M  V30 4464 H 432.546 4.0173 -1.84568 0
M  V30 4465 N 431.605 1.3629 0.791371 0
M  V30 4466 C 432.852 1.30412 1.54916 0
M  V30 4467 C 433.18 -0.117162 1.94147 0
M  V30 4468 O 432.435 -1.08599 1.62803 0
M  V30 4469 C 432.734 2.17068 2.8393 0
M  V30 4470 C 432.4 3.65645 2.63846 0
M  V30 4471 C 431.062 4.0614 2.58077 0
M  V30 4472 C 433.414 4.59855 2.45322 0
M  V30 4473 C 430.742 5.3899 2.31748 0
M  V30 4474 C 433.094 5.9292 2.2052 0
M  V30 4475 C 431.758 6.32542 2.13183 0
M  V30 4476 H 431.028 0.47721 0.566879 0
M  V30 4477 H 433.675 1.68325 0.913172 0
M  V30 4478 H 431.98 1.72085 3.51986 0
M  V30 4479 H 433.677 2.09846 3.4171 0
M  V30 4480 H 430.267 3.33518 2.69191 0
M  V30 4481 H 434.451 4.29443 2.48782 0
M  V30 4482 H 429.707 5.68672 2.24548 0
M  V30 4483 H 433.881 6.65487 2.05182 0
M  V30 4484 H 431.508 7.35412 1.92544 0
M  V30 4485 N 433.083 -1.0153 1.20538 0
M  V30 4486 C 434.33 -1.75149 1.01633 0
M  V30 4487 C 434.658 -1.89189 -0.451399 0
M  V30 4488 O 433.913 -1.41551 -1.35136 0
M  V30 4489 C 434.212 -3.17213 1.64654 0
M  V30 4490 C 433.878 -3.23146 3.14464 0
M  V30 4491 C 432.54 -3.24472 3.55347 0
M  V30 4492 C 434.892 -3.21207 4.10458 0
M  V30 4493 C 432.22 -3.21532 4.90748 0
M  V30 4494 C 434.572 -3.19808 5.45807 0
M  V30 4495 C 433.236 -3.19439 5.86102 0
M  V30 4496 H 432.506 -0.640914 0.3719 0
M  V30 4497 H 435.153 -1.19071 1.49981 0
M  V30 4498 H 433.458 -3.76457 1.08571 0
M  V30 4499 H 435.155 -3.72871 1.4754 0
M  V30 4500 H 431.745 -3.2285 2.81897 0
M  V30 4501 H 435.929 -3.19351 3.79906 0
M  V30 4502 H 431.185 -3.19578 5.21229 0
M  V30 4503 H 435.359 -3.1726 6.19935 0
M  V30 4504 H 432.986 -3.16915 6.90991 0
M  V30 4505 N 434.561 -1.01147 -1.20859 0
M  V30 4506 C 435.809 -0.696486 -1.89719 0
M  V30 4507 C 436.13 0.775788 -1.78904 0
M  V30 4508 O 435.4 1.55759 -1.18811 0
M  V30 4509 H 433.98 -0.254628 -0.702263 0
M  V30 4510 H 436.642 -1.28197 -1.46804 0
M  V30 4511 H 435.738 -0.975357 -2.96468 0
M  V30 4512 N 436.039 1.36541 -0.78704 0
M  V30 4513 C 436.949 2.3387 -0.184896 0
M  V30 4514 C 437.965 1.60927 0.661697 0
M  V30 4515 O 439.141 1.92927 0.57804 0
M  V30 4516 C 436.206 3.40122 0.672145 0
M  V30 4517 C 435.267 4.28867 -0.19267 0
M  V30 4518 C 434.5 5.30045 0.623561 0
M  V30 4519 O 434.723 5.39232 1.8597 0
M  V30 4520 O 433.657 6.01895 0.0247068 0
M  V30 4521 H 437.483 2.87126 -0.989562 0
M  V30 4522 H 435.068 1.38969 -0.548455 0
M  V30 4523 H 436.95 4.05093 1.16094 0
M  V30 4524 H 435.625 2.89169 1.45474 0
M  V30 4525 H 434.532 3.66945 -0.728166 0
M  V30 4526 H 435.865 4.83165 -0.938722 0
M  V30 4527 N 437.518 0.538854 1.48102 0
M  V30 4528 C 438.929 0.100679 1.86428 0
M  V30 4529 C 439.28 -1.32447 1.44749 0
M  V30 4530 O 438.405 -1.99339 0.842199 0
M  V30 4531 C 439 0.175933 3.38343 0
M  V30 4532 C 437.559 -0.207098 3.7583 0
M  V30 4533 C 436.706 0.531741 2.72154 0
M  V30 4534 H 439.657 0.749614 1.3988 0
M  V30 4535 H 439.678 -0.610144 3.75576 0
M  V30 4536 H 439.19 1.21328 3.68648 0
M  V30 4537 H 437.291 -1.24626 3.5114 0
M  V30 4538 H 437.404 0.138687 4.78899 0
M  V30 4539 H 435.768 -0.0230462 2.5469 0
M  V30 4540 H 436.551 1.56989 3.05302 0
M  V30 4541 N 438.996 -1.55193 0.274407 0
M  V30 4542 C 439.926 -2.25471 -0.607032 0
M  V30 4543 C 440.907 -1.24461 -1.15946 0
M  V30 4544 O 442.092 -1.53179 -1.19373 0
M  V30 4545 C 439.222 -2.97526 -1.79153 0
M  V30 4546 C 438.176 -4.05459 -1.37067 0
M  V30 4547 C 437.502 -4.65084 -2.6382 0
M  V30 4548 C 438.802 -5.19691 -0.521389 0
M  V30 4549 H 440.496 -2.99393 -0.0209343 0
M  V30 4550 H 438.042 -1.43997 -0.00862866 0
M  V30 4551 H 439.995 -3.45402 -2.41404 0
M  V30 4552 H 438.719 -2.21138 -2.40344 0
M  V30 4553 H 437.378 -3.58393 -0.771355 0
M  V30 4554 H 437.026 -3.85365 -3.23268 0
M  V30 4555 H 436.726 -5.37961 -2.36372 0
M  V30 4556 H 438.25 -5.15708 -3.26921 0
M  V30 4557 H 439.664 -5.63623 -1.04889 0
M  V30 4558 H 438.061 -5.99126 -0.341825 0
M  V30 4559 H 439.131 -4.82713 0.46 0
M  V30 4560 N 440.474 -0.00167713 -1.576 0
M  V30 4561 C 441.885 0.54091 -1.78693 0
M  V30 4562 C 442.236 1.7386 -0.909247 0
M  V30 4563 O 441.361 2.16109 -0.112176 0
M  V30 4564 C 441.956 0.98806 -3.24072 0
M  V30 4565 C 440.515 1.47594 -3.46256 0
M  V30 4566 C 439.662 0.42792 -2.73978 0
M  V30 4567 H 442.613 -0.22784 -1.57056 0
M  V30 4568 H 442.634 1.85398 -3.32277 0
M  V30 4569 H 442.146 0.116164 -3.87926 0
M  V30 4570 H 440.247 2.36868 -2.87618 0
M  V30 4571 H 440.36 1.50225 -4.54939 0
M  V30 4572 H 438.724 0.889934 -2.38647 0
M  V30 4573 H 439.507 -0.435038 -3.40532 0
M  V30 4574 N 441.952 1.55251 0.271103 0
M  V30 4575 C 442.884 1.84675 1.35749 0
M  V30 4576 C 443.897 0.731366 1.45447 0
M  V30 4577 O 445.086 1.00924 1.4723 0
M  V30 4578 C 442.186 1.99638 2.73857 0
M  V30 4579 C 441.359 3.30312 2.86727 0
M  V30 4580 C 440.418 3.35318 4.05522 0
M  V30 4581 O 439.444 4.08682 3.96191 0
M  V30 4582 N 440.646 2.62857 5.17577 0
M  V30 4583 H 443.411 2.78445 1.10853 0
M  V30 4584 H 440.972 1.55191 0.461218 0
M  V30 4585 H 442.964 2.00355 3.51625 0
M  V30 4586 H 441.534 1.12725 2.91568 0
M  V30 4587 H 440.754 3.42118 1.95829 0
M  V30 4588 H 442.042 4.16488 2.92258 0
M  V30 4589 H 441.44 2.02939 5.28046 0
M  V30 4590 H 439.997 2.69295 5.93568 0
M  V30 4591 N 443.43 -0.535701 1.48216 0
M  V30 4592 C 444.846 -0.863701 1.3421 0
M  V30 4593 C 445.046 -1.98458 0.34879 0
M  V30 4594 O 444.102 -2.51432 -0.23204 0
M  V30 4595 C 445.415 -1.23662 2.74095 0
M  V30 4596 C 446.963 -1.34683 2.82541 0
M  V30 4597 C 447.438 -1.75322 4.23115 0
M  V30 4598 N 448.929 -1.82434 4.2576 0
M  V30 4599 C 449.664 -2.15252 5.31464 0
M  V30 4600 N 449.16 -2.46533 6.47452 0
M  V30 4601 N 450.953 -2.16209 5.18855 0
M  V30 4602 H 443.104 0.203965 2.11418 0
M  V30 4603 H 445.367 0.0286033 0.947568 0
M  V30 4604 H 445.073 -0.486674 3.48316 0
M  V30 4605 H 444.947 -2.18805 3.07253 0
M  V30 4606 H 447.334 -2.08756 2.08579 0
M  V30 4607 H 447.415 -0.376756 2.5301 0
M  V30 4608 H 447.059 -1.01812 4.97591 0
M  V30 4609 H 446.989 -2.7337 4.50085 0
M  V30 4610 H 449.48 -1.6056 3.42095 0
M  V30 4611 H 449.793 -2.70662 7.23852 0
M  V30 4612 H 448.138 -2.44065 6.50736 0
M  V30 4613 H 451.329 -1.91224 4.2726 0
M  V30 4614 H 451.502 -2.41453 6.01335 0
M  V30 4615 N 444.908 -1.36708 -0.784132 0
M  V30 4616 C 446.155 -1.31231 -1.54222 0
M  V30 4617 C 446.483 0.106864 -1.94206 0
M  V30 4618 O 445.738 1.07734 -1.63376 0
M  V30 4619 C 446.037 -2.18571 -2.82774 0
M  V30 4620 C 445.703 -3.67039 -2.61903 0
M  V30 4621 C 444.365 -4.07503 -2.55919 0
M  V30 4622 C 446.717 -4.61149 -2.4288 0
M  V30 4623 C 444.045 -5.40211 -2.28886 0
M  V30 4624 C 446.397 -5.94081 -2.17373 0
M  V30 4625 C 445.061 -6.33664 -2.09825 0
M  V30 4626 H 444.331 -0.48021 -0.56434 0
M  V30 4627 H 446.978 -1.68807 -0.904233 0
M  V30 4628 H 445.283 -1.73949 -3.51068 0
M  V30 4629 H 446.98 -2.11655 -3.40592 0
M  V30 4630 H 443.57 -3.34941 -2.67418 0
M  V30 4631 H 447.754 -4.30756 -2.46501 0
M  V30 4632 H 443.01 -5.69855 -2.21529 0
M  V30 4633 H 447.184 -6.66566 -2.01649 0
M  V30 4634 H 444.811 -7.36423 -1.88641 0
M  V30 4635 N 446.386 1.0089 -1.21074 0
M  V30 4636 C 447.316 2.1145 -0.990523 0
M  V30 4637 C 448.297 1.69897 0.0831699 0
M  V30 4638 O 449.482 1.94052 -0.0758853 0
M  V30 4639 C 446.612 3.42914 -0.550177 0
M  V30 4640 C 445.566 3.98244 -1.56799 0
M  V30 4641 C 444.892 5.25568 -0.984013 0
M  V30 4642 C 446.192 4.30752 -2.95381 0
M  V30 4643 H 447.886 2.3013 -1.91521 0
M  V30 4644 H 445.432 1.10592 -0.92225 0
M  V30 4645 H 447.385 4.19653 -0.383305 0
M  V30 4646 H 446.109 3.24014 0.41015 0
M  V30 4647 H 444.768 3.23621 -1.72236 0
M  V30 4648 H 444.416 5.02998 -0.0155216 0
M  V30 4649 H 444.116 5.63551 -1.66384 0
M  V30 4650 H 445.64 6.04955 -0.828378 0
M  V30 4651 H 447.054 4.98349 -2.8341 0
M  V30 4652 H 445.451 4.79869 -3.60341 0
M  V30 4653 H 446.521 3.39192 -3.46521 0
M  V30 4654 N 447.864 1.01787 1.20321 0
M  V30 4655 C 448.794 0.609625 2.25401 0
M  V30 4656 C 449.775 -0.375951 1.65893 0
M  V30 4657 O 450.96 -0.261101 1.92437 0
M  V30 4658 C 448.09 -0.0515995 3.47262 0
M  V30 4659 C 447.044 0.855095 4.19371 0
M  V30 4660 C 446.37 0.0595757 5.34667 0
M  V30 4661 C 447.67 2.16374 4.75373 0
M  V30 4662 H 449.364 1.48803 2.59804 0
M  V30 4663 H 446.91 0.716934 1.24884 0
M  V30 4664 H 448.863 -0.348764 4.19954 0
M  V30 4665 H 447.587 -0.964726 3.12027 0
M  V30 4666 H 446.246 1.13628 3.48546 0
M  V30 4667 H 445.894 -0.85524 4.95676 0
M  V30 4668 H 445.594 0.663406 5.83843 0
M  V30 4669 H 447.118 -0.231105 6.10162 0
M  V30 4670 H 448.532 1.92885 5.39878 0
M  V30 4671 H 446.929 2.71853 5.34991 0
M  V30 4672 H 447.999 2.82589 3.94045 0
M  V30 4673 N 449.342 -1.36122 0.79427 0
M  V30 4674 C 450.292 -2.27373 0.169017 0
M  V30 4675 C 451.276 -1.4719 -0.649913 0
M  V30 4676 O 452.468 -1.69518 -0.50919 0
M  V30 4677 C 449.597 -3.36264 -0.691455 0
M  V30 4678 C 448.683 -4.2388 0.13653 0
M  V30 4679 N 449.074 -4.91519 1.19345 0
M  V30 4680 C 447.372 -4.45921 -0.0838499 0
M  V30 4681 C 448.073 -5.56369 1.6979 0
M  V30 4682 N 447.049 -5.34204 1.00634 0
M  V30 4683 H 450.851 -2.77154 0.977897 0
M  V30 4684 H 448.365 -1.49504 0.634208 0
M  V30 4685 H 450.362 -4.00572 -1.15534 0
M  V30 4686 H 449.022 -2.88037 -1.49883 0
M  V30 4687 H 450.033 -4.9334 1.57594 0
M  V30 4688 H 446.71 -4.08518 -0.861341 0
M  V30 4689 H 448.1 -6.20368 2.58055 0
M  V30 4690 N 450.82 -0.546701 -1.47814 0
M  V30 4691 C 452.066 -0.0187684 -2.02791 0
M  V30 4692 C 452.399 1.32338 -1.42128 0
M  V30 4693 O 451.674 1.85867 -0.573023 0
M  V30 4694 C 451.957 0.0854985 -3.59998 0
M  V30 4695 C 451.81 -1.283 -4.31114 0
M  V30 4696 C 453.129 0.80412 -4.32691 0
M  V30 4697 H 450.248 -0.0082946 -0.736953 0
M  V30 4698 H 452.89 -0.706962 -1.76358 0
M  V30 4699 H 451.04 0.671609 -3.82651 0
M  V30 4700 H 452.712 -1.91151 -4.19832 0
M  V30 4701 H 450.955 -1.86049 -3.91878 0
M  V30 4702 H 451.626 -1.16287 -5.39612 0
M  V30 4703 H 454.102 0.306576 -4.14969 0
M  V30 4704 H 452.978 0.846011 -5.42341 0
M  V30 4705 H 453.239 1.85802 -4.01161 0
M  V30 4706 N 452.299 1.55045 -0.282633 0
M  V30 4707 C 453.545 2.00056 0.332481 0
M  V30 4708 C 453.878 1.1708 1.54939 0
M  V30 4709 O 453.153 0.2427 1.9298 0
M  V30 4710 C 453.436 3.53086 0.70725 0
M  V30 4711 C 453.289 4.46813 -0.517521 0
M  V30 4712 C 454.608 4.12245 1.54084 0
M  V30 4713 H 451.727 0.727268 0.119373 0
M  V30 4714 H 454.369 1.85932 -0.391076 0
M  V30 4715 H 452.519 3.65253 1.32372 0
M  V30 4716 H 454.191 4.46579 -1.15607 0
M  V30 4717 H 452.434 4.18163 -1.1542 0
M  V30 4718 H 453.105 5.51595 -0.211426 0
M  V30 4719 H 455.581 4.03401 1.02013 0
M  V30 4720 H 454.457 5.19515 1.77186 0
M  V30 4721 H 454.718 3.62951 2.52427 0
M  V30 4722 N 453.777 0.010035 1.57597 0
M  V30 4723 C 455.054 -0.710296 1.82248 0
M  V30 4724 C 455.434 -1.91426 0.889911 0
M  V30 4725 O 454.782 -2.28424 -0.0590292 0
M  V30 4726 C 454.992 -1.10655 3.30993 0
M  V30 4727 C 456.34 -1.50621 3.96987 0
M  V30 4728 O 457.364 -1.20007 3.35375 0
M  V30 4729 O 456.223 -2.07587 5.05539 0
M  V30 4730 H 453.317 -0.34673 0.750804 0
M  V30 4731 H 455.863 0.0362578 1.69661 0
M  V30 4732 H 454.635 -0.248826 3.90508 0
M  V30 4733 H 454.258 -1.91189 3.48615 0
M  V30 4734 N 455.255 -1.55392 -0.262866 0
M  V30 4735 C 456.502 -1.76476 -0.993109 0
M  V30 4736 C 456.83 -0.571479 -1.85915 0
M  V30 4737 O 456.085 0.445733 -1.90556 0
M  V30 4738 C 456.384 -3.02889 -1.89718 0
M  V30 4739 C 456.05 -4.34974 -1.18781 0
M  V30 4740 C 454.712 -4.7087 -0.991699 0
M  V30 4741 C 457.064 -5.16695 -0.683798 0
M  V30 4742 C 454.392 -5.86036 -0.279024 0
M  V30 4743 C 456.744 -6.32598 0.0153327 0
M  V30 4744 C 455.408 -6.67127 0.223062 0
M  V30 4745 H 454.678 -0.64577 -0.363404 0
M  V30 4746 H 457.325 -1.89664 -0.264525 0
M  V30 4747 H 455.63 -2.84644 -2.6923 0
M  V30 4748 H 457.327 -3.16399 -2.46359 0
M  V30 4749 H 453.917 -4.06765 -1.35058 0
M  V30 4750 H 458.101 -4.8943 -0.8229 0
M  V30 4751 H 453.357 -6.11306 -0.107456 0
M  V30 4752 H 457.531 -6.95171 0.413584 0
M  V30 4753 H 455.158 -7.56216 0.777265 0
M  V30 4754 N 456.733 0.527833 -1.48498 0
M  V30 4755 C 458.144 1.10975 -1.50138 0
M  V30 4756 C 458.495 1.943 -0.272378 0
M  V30 4757 O 457.62 2.07319 0.620301 0
M  V30 4758 C 458.215 2.01927 -2.72049 0
M  V30 4759 C 456.774 2.55332 -2.76554 0
M  V30 4760 C 455.921 1.32341 -2.43683 0
M  V30 4761 H 458.872 0.312986 -1.55583 0
M  V30 4762 H 458.893 2.86244 -2.50689 0
M  V30 4763 H 458.405 1.41254 -3.61481 0
M  V30 4764 H 456.506 3.19721 -1.91336 0
M  V30 4765 H 456.619 2.94319 -3.78038 0
M  V30 4766 H 454.983 1.63989 -1.94884 0
M  V30 4767 H 455.766 0.734165 -3.35358 0
M  V30 4768 N 458.211 1.37122 0.776871 0
M  V30 4769 C 459.144 1.26835 1.89705 0
M  V30 4770 C 460.122 0.14992 1.61907 0
M  V30 4771 O 461.306 0.323242 1.85708 0
M  V30 4772 C 458.433 0.95986 3.24814 0
M  V30 4773 C 457.479 2.09447 3.7153 0
M  V30 4774 S 458.312 3.71368 3.85806 0
M  V30 4775 C 459.468 3.42659 5.23771 0
M  V30 4776 H 459.701 2.21647 1.98141 0
M  V30 4777 H 457.234 1.22685 0.937433 0
M  V30 4778 H 459.192 0.788696 4.02852 0
M  V30 4779 H 457.853 0.0293137 3.14086 0
M  V30 4780 H 457.046 1.8335 4.69467 0
M  V30 4781 H 456.648 2.2255 3.00578 0
M  V30 4782 H 458.94 2.9733 6.0877 0
M  V30 4783 H 459.883 4.39905 5.54878 0
M  V30 4784 H 460.291 2.77708 4.91466 0
M  V30 4785 N 459.689 -1.00246 1.21608 0
M  V30 4786 C 460.652 -2.07233 0.979133 0
M  V30 4787 C 461.652 -1.6072 -0.0508219 0
M  V30 4788 O 462.842 -1.73196 0.186712 0
M  V30 4789 C 459.974 -3.37546 0.477016 0
M  V30 4790 H 461.167 -2.29687 1.92831 0
M  V30 4791 H 458.72 -1.17261 1.03342 0
M  V30 4792 H 459.455 -3.20773 -0.476966 0
M  V30 4793 H 459.24 -3.72638 1.21997 0
M  V30 4794 H 460.73 -4.16285 0.331181 0
M  V30 4795 N 461.167 -1.02423 -1.1978 0
M  V30 4796 C 462.444 -0.632802 -1.85081 0
M  V30 4797 C 462.824 0.888745 -1.9148 0
M  V30 4798 O 462.172 1.78357 -1.42832 0
M  V30 4799 C 462.382 -1.28947 -3.24305 0
M  V30 4800 C 463.73 -1.40976 -4.00513 0
M  V30 4801 O 464.754 -1.24628 -3.33686 0
M  V30 4802 O 463.613 -1.67467 -5.20209 0
M  V30 4803 H 460.707 -0.219348 -0.79738 0
M  V30 4804 H 463.253 -1.12209 -1.27307 0
M  V30 4805 H 462.025 -2.3288 -3.14456 0
M  V30 4806 H 461.648 -0.787748 -3.89718 0
M  V30 4807 N 462.645 1.35699 -0.801477 0
M  V30 4808 C 463.575 2.32436 -0.222658 0
M  V30 4809 C 464.556 1.5723 0.649057 0
M  V30 4810 O 465.741 1.85324 0.580387 0
M  V30 4811 C 462.871 3.41469 0.633719 0
M  V30 4812 C 461.825 4.27774 -0.139083 0
M  V30 4813 C 461.151 5.28082 0.838666 0
M  V30 4814 C 462.451 5.04946 -1.33517 0
M  V30 4815 H 464.145 2.81094 -1.03086 0
M  V30 4816 H 461.691 1.35146 -0.497155 0
M  V30 4817 H 463.644 4.08143 1.04868 0
M  V30 4818 H 462.368 2.91408 1.47475 0
M  V30 4819 H 461.027 3.62673 -0.535156 0
M  V30 4820 H 460.675 4.7429 1.67506 0
M  V30 4821 H 460.375 5.86695 0.32594 0
M  V30 4822 H 461.899 5.97628 1.25194 0
M  V30 4823 H 463.313 5.64593 -0.995349 0
M  V30 4824 H 461.71 5.7303 -1.78202 0
M  V30 4825 H 462.78 4.35886 -2.12442 0
M  V30 4826 N 464.123 0.554532 1.47522 0
M  V30 4827 C 465.053 -0.182974 2.32782 0
M  V30 4828 C 466.034 -0.911377 1.43624 0
M  V30 4829 O 467.219 -0.892366 1.72483 0
M  V30 4830 C 464.349 -1.21513 3.25349 0
M  V30 4831 C 463.303 -0.603355 4.23726 0
M  V30 4832 C 462.629 -1.73995 5.05598 0
M  V30 4833 C 463.929 0.441121 5.20434 0
M  V30 4834 H 465.623 0.52882 2.94693 0
M  V30 4835 H 463.169 0.255759 1.41711 0
M  V30 4836 H 465.122 -1.73922 3.83835 0
M  V30 4837 H 463.846 -1.95683 2.61487 0
M  V30 4838 H 462.505 -0.10059 3.66462 0
M  V30 4839 H 462.153 -2.47063 4.38143 0
M  V30 4840 H 461.853 -1.3364 5.72201 0
M  V30 4841 H 463.377 -2.26735 5.66942 0
M  V30 4842 H 464.791 0.00319931 5.733 0
M  V30 4843 H 463.188 0.763402 5.95224 0
M  V30 4844 H 464.258 1.33799 4.66075 0
M  V30 4845 N 465.601 -1.54893 0.290851 0
M  V30 4846 C 466.531 -2.26103 -0.583084 0
M  V30 4847 C 467.512 -1.25684 -1.14619 0
M  V30 4848 O 468.697 -1.54436 -1.17741 0
M  V30 4849 C 465.827 -2.99409 -1.75987 0
M  V30 4850 C 464.781 -4.0689 -1.32758 0
M  V30 4851 C 464.107 -4.67856 -2.58872 0
M  V30 4852 C 465.407 -5.20215 -0.46624 0
M  V30 4853 H 467.101 -2.99398 0.0108214 0
M  V30 4854 H 464.647 -1.43998 0.00664468 0
M  V30 4855 H 466.6 -3.47943 -2.37727 0
M  V30 4856 H 465.324 -2.23675 -2.37985 0
M  V30 4857 H 463.983 -3.59191 -0.733299 0
M  V30 4858 H 463.631 -3.88772 -3.19163 0
M  V30 4859 H 463.331 -5.40438 -2.30653 0
M  V30 4860 H 464.855 -5.19147 -3.21433 0
M  V30 4861 H 466.269 -5.64704 -0.989047 0
M  V30 4862 H 464.666 -5.99455 -0.27826 0
M  V30 4863 H 465.736 -4.82198 0.511173 0
M  V30 4864 N 467.08 -0.0183926 -1.57589 0
M  V30 4865 C 468.329 0.66185 -1.90532 0
M  V30 4866 C 468.642 1.73904 -0.895366 0
M  V30 4867 O 469.848 2.47518 -1.11566 0
M  V30 4868 C 468.304 1.22844 -3.38286 0
M  V30 4869 C 467.912 0.185103 -4.47617 0
M  V30 4870 C 469.656 1.88581 -3.80312 0
M  V30 4871 C 467.563 0.762723 -5.86461 0
M  V30 4872 H 466.493 0.250972 -0.711006 0
M  V30 4873 H 469.144 -0.0819435 -1.83317 0
M  V30 4874 H 467.526 2.0235 -3.40398 0
M  V30 4875 H 468.7 -0.58671 -4.5705 0
M  V30 4876 H 467.015 -0.372889 -4.14727 0
M  V30 4877 H 469.612 2.32735 -4.81392 0
M  V30 4878 H 469.955 2.72408 -3.14801 0
M  V30 4879 H 470.488 1.15782 -3.80578 0
M  V30 4880 H 467.227 -0.0371713 -6.55489 0
M  V30 4881 H 466.747 1.50327 -5.80656 0
M  V30 4882 H 468.426 1.25576 -6.34697 0
M  V30 4883 N 468.558 1.5553 0.254621 0
M  V30 4884 C 469.488 1.9268 1.31897 0
M  V30 4885 C 470.469 0.790797 1.506 0
M  V30 4886 O 471.654 1.05045 1.63337 0
M  V30 4887 C 468.784 2.21477 2.67517 0
M  V30 4888 C 467.738 3.37256 2.63519 0
M  V30 4889 C 467.064 3.51576 4.02862 0
M  V30 4890 C 468.364 4.73157 2.21179 0
M  V30 4891 H 470.058 2.81832 1.01051 0
M  V30 4892 H 467.604 1.35599 0.484662 0
M  V30 4893 H 469.557 2.46055 3.42104 0
M  V30 4894 H 468.281 1.29144 2.99982 0
M  V30 4895 H 466.94 3.12675 1.9139 0
M  V30 4896 H 466.588 2.56676 4.32581 0
M  V30 4897 H 466.288 4.2943 4.01078 0
M  V30 4898 H 467.812 3.78467 4.79161 0
M  V30 4899 H 469.226 4.97158 2.85494 0
M  V30 4900 H 467.623 5.54058 2.30521 0
M  V30 4901 H 468.693 4.70739 1.16332 0
M  V30 4902 N 470.036 -0.519951 1.48776 0
M  V30 4903 C 471.284 -1.2727 1.56993 0
M  V30 4904 C 471.605 -1.9339 0.25004 0
M  V30 4905 O 470.875 -1.81822 -0.729216 0
M  V30 4906 H 469.455 -0.472732 0.578389 0
M  V30 4907 H 472.117 -0.604234 1.85297 0
M  V30 4908 H 471.213 -2.04669 2.3562 0
M  V30 4909 N 471.514 -1.37532 -0.769588 0
M  V30 4910 C 472.742 -1.36059 -1.55871 0
M  V30 4911 C 473.157 0.053544 -1.88724 0
M  V30 4912 O 472.514 1.01591 -1.5161 0
M  V30 4913 C 472.565 -2.20107 -2.86767 0
M  V30 4914 O 472.286 -3.56009 -2.55321 0
M  V30 4915 C 473.787 -2.26636 -3.80987 0
M  V30 4916 H 471.007 -0.465967 -0.482821 0
M  V30 4917 H 473.551 -1.80901 -0.953686 0
M  V30 4918 H 471.706 -1.78768 -3.43687 0
M  V30 4919 H 472.12 -4.0009 -3.39158 0
M  V30 4920 H 473.594 -2.89763 -4.69831 0
M  V30 4921 H 474.071 -1.2754 -4.20274 0
M  V30 4922 H 474.677 -2.68296 -3.29996 0
M  V30 4923 N 472.992 0.995999 -1.22138 0
M  V30 4924 C 474.217 1.77601 -1.0711 0
M  V30 4925 C 474.642 1.84339 0.374264 0
M  V30 4926 O 474 1.29359 1.27028 0
M  V30 4927 C 474.048 3.18897 -1.68336 0
M  V30 4928 O 473.152 4.01663 -0.934928 0
M  V30 4929 H 472.493 0.547011 -0.376397 0
M  V30 4930 H 475.023 1.25137 -1.6187 0
M  V30 4931 H 475.033 3.69539 -1.72931 0
M  V30 4932 H 473.708 3.13308 -2.73516 0
M  V30 4933 H 472.285 3.60204 -0.964751 0
M  V30 4934 N 474.47 1.03057 1.19235 0
M  V30 4935 C 475.4 0.633497 2.24742 0
M  V30 4936 C 476.381 -0.358335 1.66283 0
M  V30 4937 O 477.566 -0.240676 1.92703 0
M  V30 4938 C 474.696 -0.0147648 3.47297 0
M  V30 4939 C 473.65 0.899527 4.18441 0
M  V30 4940 C 472.976 0.116281 5.34574 0
M  V30 4941 C 474.276 2.21404 4.73051 0
M  V30 4942 H 475.97 1.5155 2.58211 0
M  V30 4943 H 473.516 0.73014 1.24117 0
M  V30 4944 H 475.469 -0.304202 4.20301 0
M  V30 4945 H 474.193 -0.931577 3.13032 0
M  V30 4946 H 472.852 1.17319 3.47321 0
M  V30 4947 H 472.5 -0.802619 4.96555 0
M  V30 4948 H 472.2 0.725293 5.83107 0
M  V30 4949 H 473.724 -0.166376 6.10373 0
M  V30 4950 H 475.138 1.98601 5.37802 0
M  V30 4951 H 473.535 2.77512 5.32078 0
M  V30 4952 H 474.605 2.86752 3.91026 0
M  V30 4953 N 475.948 -1.35272 0.808662 0
M  V30 4954 C 476.858 -2.33546 0.222079 0
M  V30 4955 C 477.874 -1.6196 -0.636011 0
M  V30 4956 O 479.05 -1.93822 -0.547274 0
M  V30 4957 C 476.115 -3.41148 -0.61795 0
M  V30 4958 C 475.176 -4.28507 0.260875 0
M  V30 4959 C 474.409 -5.3097 -0.539156 0
M  V30 4960 O 474.632 -5.42123 -1.77367 0
M  V30 4961 O 473.566 -6.01858 0.0710526 0
M  V30 4962 H 477.392 -2.85515 1.03512 0
M  V30 4963 H 474.977 -1.38079 0.570495 0
M  V30 4964 H 476.859 -4.06889 -1.09634 0
M  V30 4965 H 475.534 -2.91447 -1.40855 0
M  V30 4966 H 474.441 -3.6574 0.786451 0
M  V30 4967 H 475.774 -4.81611 1.01547 0
M  V30 4968 N 477.426 -0.562348 -1.47226 0
M  V30 4969 C 478.672 -0.0402761 -2.0276 0
M  V30 4970 C 479.005 1.30823 -1.43523 0
M  V30 4971 O 478.28 1.85249 -0.592705 0
M  V30 4972 C 478.563 0.047311 -3.60069 0
M  V30 4973 C 478.416 -1.32865 -4.29729 0
M  V30 4974 C 479.735 0.758182 -4.3352 0
M  V30 4975 H 476.854 -0.0161105 -0.736824 0
M  V30 4976 H 479.496 -0.725628 -1.75598 0
M  V30 4977 H 477.646 0.630986 -3.83342 0
M  V30 4978 H 479.318 -1.95593 -4.17781 0
M  V30 4979 H 477.561 -1.90195 -3.89882 0
M  V30 4980 H 478.232 -1.22004 -5.38349 0
M  V30 4981 H 480.708 0.262546 -4.15271 0
M  V30 4982 H 479.584 0.78844 -5.43208 0
M  V30 4983 H 479.845 1.81537 -4.03109 0
M  V30 4984 N 478.904 1.54736 -0.299062 0
M  V30 4985 C 479.814 2.27127 0.587413 0
M  V30 4986 C 480.83 1.30575 1.15005 0
M  V30 4987 O 482.006 1.63554 1.17525 0
M  V30 4988 C 479.071 2.99645 1.74395 0
M  V30 4989 C 478.132 4.11731 1.21559 0
M  V30 4990 C 477.365 4.80781 2.317 0
M  V30 4991 O 477.588 4.4918 3.51558 0
M  V30 4992 O 476.522 5.68226 1.98501 0
M  V30 4993 H 480.348 3.037 0.000250109 0
M  V30 4994 H 477.933 1.49256 -0.0655919 0
M  V30 4995 H 479.815 3.45138 2.4178 0
M  V30 4996 H 478.49 2.25969 2.31775 0
M  V30 4997 H 477.397 3.70641 0.507514 0
M  V30 4998 H 478.73 4.87379 0.687233 0
M  V30 4999 N 480.382 0.0267497 1.57577 0
M  V30 5000 C 481.793 -0.512413 1.79531 0
M  V30 5001 C 482.144 -1.72391 0.936791 0
M  V30 5002 O 481.269 -2.15903 0.146543 0
M  V30 5003 C 481.864 -0.936378 3.25603 0
M  V30 5004 C 480.423 -1.42067 3.4856 0
M  V30 5005 C 479.57 -0.384278 2.74624 0
M  V30 5006 H 482.521 0.252797 1.56674 0
M  V30 5007 H 482.542 -1.80088 3.35184 0
M  V30 5008 H 482.054 -0.0544332 3.88062 0
M  V30 5009 H 480.155 -2.32262 2.9135 0
M  V30 5010 H 480.268 -1.42968 4.57271 0
M  V30 5011 H 478.632 -0.851855 2.40032 0
M  V30 5012 H 479.415 0.489159 3.39797 0
M  V30 5013 N 481.861 -1.55662 -0.24637 0
M  V30 5014 C 483.108 -1.77519 -0.974335 0
M  V30 5015 C 483.436 -0.591165 -1.85298 0
M  V30 5016 O 482.691 0.425497 -1.91018 0
M  V30 5017 C 482.99 -3.04885 -1.86494 0
M  V30 5018 C 482.656 -4.36209 -1.14161 0
M  V30 5019 C 481.318 -4.71896 -0.941701 0
M  V30 5020 C 483.67 -5.17391 -0.628957 0
M  V30 5021 C 480.998 -5.86299 -0.216852 0
M  V30 5022 C 483.35 -6.32546 0.0824273 0
M  V30 5023 C 482.014 -6.66853 0.293807 0
M  V30 5024 H 481.284 -0.649588 -0.356535 0
M  V30 5025 H 483.931 -1.89934 -0.244394 0
M  V30 5026 H 482.236 -2.87484 -2.66196 0
M  V30 5027 H 483.933 -3.18994 -2.42989 0
M  V30 5028 H 480.523 -4.08174 -1.30736 0
M  V30 5029 H 484.707 -4.90276 -0.770943 0
M  V30 5030 H 479.963 -6.11385 -0.0426124 0
M  V30 5031 H 484.137 -6.94693 0.487292 0
M  V30 5032 H 481.764 -7.55349 0.857428 0
M  V30 5033 N 483.339 0.512053 -1.4905 0
M  V30 5034 C 484.302 1.59704 -1.64399 0
M  V30 5035 C 485.302 1.52285 -0.516317 0
M  V30 5036 O 486.492 1.55635 -0.782527 0
M  V30 5037 C 483.624 2.9935 -1.63102 0
M  V30 5038 H 484.817 1.47428 -2.61161 0
M  V30 5039 H 482.37 0.735469 -1.37915 0
M  V30 5040 H 483.105 3.17116 -0.678836 0
M  V30 5041 H 482.89 3.06144 -2.44986 0
M  V30 5042 H 484.38 3.782 -1.77072 0
M  V30 5043 N 484.817 1.37938 0.762283 0
M  V30 5044 C 486.042 1.37059 1.55659 0
M  V30 5045 C 486.467 -0.0396123 1.88058 0
M  V30 5046 O 485.825 -1.01929 1.49934 0
M  V30 5047 C 485.873 2.22494 2.83776 0
M  V30 5048 O 484.977 1.63607 3.78559 0
M  V30 5049 H 484.318 0.467892 0.47114 0
M  V30 5050 H 486.848 1.81587 0.942725 0
M  V30 5051 H 486.858 2.36045 3.32786 0
M  V30 5052 H 485.533 3.24993 2.59524 0
M  V30 5053 H 484.11 1.5915 3.37233 0
M  V30 5054 N 486.295 -0.989507 1.22664 0
M  V30 5055 C 487.225 -2.09847 1.02404 0
M  V30 5056 C 488.206 -1.70007 -0.0561303 0
M  V30 5057 O 489.391 -1.93906 0.106748 0
M  V30 5058 C 486.521 -3.41996 0.604663 0
M  V30 5059 C 485.475 -3.95699 1.63115 0
M  V30 5060 C 484.801 -5.23936 1.0675 0
M  V30 5061 C 486.101 -4.25999 3.02196 0
M  V30 5062 H 487.795 -2.27054 1.95158 0
M  V30 5063 H 485.341 -1.09111 0.939727 0
M  V30 5064 H 487.294 -4.1899 0.45002 0
M  V30 5065 H 486.018 -3.24626 -0.35855 0
M  V30 5066 H 484.677 -3.2084 1.77362 0
M  V30 5067 H 484.325 -5.02909 0.0955422 0
M  V30 5068 H 484.025 -5.60833 1.75328 0
M  V30 5069 H 485.549 -6.0356 0.924516 0
M  V30 5070 H 486.963 -4.93777 2.91303 0
M  V30 5071 H 485.36 -4.74076 3.67929 0
M  V30 5072 H 486.43 -3.33636 3.51873 0
M  V30 5073 N 487.773 -1.03688 -1.18687 0
M  V30 5074 C 489.001 -0.757918 -1.92518 0
M  V30 5075 C 489.416 0.684398 -1.75959 0
M  V30 5076 O 488.773 1.46617 -1.08673 0
M  V30 5077 C 488.824 -1.10985 -3.44042 0
M  V30 5078 O 488.545 -2.49554 -3.60076 0
M  V30 5079 C 490.046 -0.854844 -4.3498 0
M  V30 5080 H 487.266 -0.276699 -0.611293 0
M  V30 5081 H 489.81 -1.38352 -1.50595 0
M  V30 5082 H 487.965 -0.529279 -3.83767 0
M  V30 5083 H 488.379 -2.6291 -4.53849 0
M  V30 5084 H 489.853 -1.15098 -5.39867 0
M  V30 5085 H 490.33 0.210507 -4.38695 0
M  V30 5086 H 490.936 -1.41853 -4.00946 0
M  V30 5087 N 489.251 1.34841 -0.815825 0
M  V30 5088 C 490.161 2.33425 -0.234462 0
M  V30 5089 C 491.177 1.62295 0.627413 0
M  V30 5090 O 492.353 1.94109 0.536987 0
M  V30 5091 C 489.418 3.41471 0.599849 0
M  V30 5092 C 488.479 4.28362 -0.283596 0
M  V30 5093 C 487.712 5.31248 0.51099 0
M  V30 5094 O 487.935 5.43056 1.7449 0
M  V30 5095 O 486.869 6.01812 -0.10297 0
M  V30 5096 H 490.695 2.84962 -1.05024 0
M  V30 5097 H 488.28 1.37774 -0.577809 0
M  V30 5098 H 490.162 4.07464 1.07475 0
M  V30 5099 H 488.837 2.9219 1.39308 0
M  V30 5100 H 487.744 3.65318 -0.805836 0
M  V30 5101 H 489.077 4.81066 -1.041 0
M  V30 5102 N 490.729 0.570148 1.46925 0
M  V30 5103 C 491.692 -0.159933 2.28641 0
M  V30 5104 C 492.692 -0.830638 1.37685 0
M  V30 5105 O 493.882 -0.684516 1.60187 0
M  V30 5106 C 491.014 -1.2354 3.17727 0
M  V30 5107 H 492.207 0.558035 2.94662 0
M  V30 5108 H 489.76 0.327603 1.52828 0
M  V30 5109 H 490.495 -1.98535 2.56426 0
M  V30 5110 H 490.28 -0.759125 3.84681 0
M  V30 5111 H 491.77 -1.74782 3.79264 0
M  V30 5112 N 492.207 -1.54576 0.307264 0
M  V30 5113 C 493.453 -2.0056 -0.300612 0
M  V30 5114 C 493.786 -1.1953 -1.53057 0
M  V30 5115 O 493.061 -0.27337 -1.92569 0
M  V30 5116 C 493.344 -3.54167 -0.650987 0
M  V30 5117 C 493.197 -4.45933 0.588539 0
M  V30 5118 C 494.516 -4.14645 -1.47506 0
M  V30 5119 H 491.635 -0.729075 -0.107788 0
M  V30 5120 H 494.277 -1.85286 0.420606 0
M  V30 5121 H 492.427 -3.67313 -1.26544 0
M  V30 5122 H 494.099 -4.44683 1.22697 0
M  V30 5123 H 492.342 -4.16274 1.22058 0
M  V30 5124 H 493.013 -5.51189 0.299153 0
M  V30 5125 H 495.489 -4.04973 -0.955821 0
M  V30 5126 H 494.365 -5.22269 -1.68899 0
M  V30 5127 H 494.626 -3.66921 -2.4662 0
M  V30 5128 N 493.685 -0.035106 -1.57561 0
M  V30 5129 C 495.101 0.321334 -1.56332 0
M  V30 5130 C 495.301 1.72509 -1.04129 0
M  V30 5131 O 494.357 2.4287 -0.690694 0
M  V30 5132 C 495.67 0.164469 -3.0025 0
M  V30 5133 C 497.218 0.236786 -3.12103 0
M  V30 5134 C 497.693 0.10864 -4.57871 0
M  V30 5135 N 499.184 0.165433 -4.62904 0
M  V30 5136 C 499.919 0.0901506 -5.73329 0
M  V30 5137 N 499.415 -0.0365606 -6.9279 0
M  V30 5138 N 501.208 0.144572 -5.61914 0
M  V30 5139 H 493.359 -0.952976 -1.89821 0
M  V30 5140 H 495.622 -0.368537 -0.873432 0
M  V30 5141 H 495.328 -0.802746 -3.42416 0
M  V30 5142 H 495.202 0.932194 -3.655 0
M  V30 5143 H 497.589 1.19446 -2.69845 0
M  V30 5144 H 497.67 -0.561419 -2.49563 0
M  V30 5145 H 497.314 -0.845644 -5.00811 0
M  V30 5146 H 497.244 0.925786 -5.18398 0
M  V30 5147 H 499.735 0.263269 -3.76982 0
M  V30 5148 H 500.048 -0.0871487 -7.72751 0
M  V30 5149 H 498.393 -0.0714256 -6.94963 0
M  V30 5150 H 501.584 0.242006 -4.67474 0
M  V30 5151 H 501.757 0.0824413 -6.47948 0
M  V30 5152 N 495.163 1.55791 0.238111 0
M  V30 5153 C 496.388 1.8244 0.986432 0
M  V30 5154 C 496.813 0.613314 1.7782 0
M  V30 5155 O 496.171 -0.437767 1.75935 0
M  V30 5156 C 496.219 3.06917 1.893 0
M  V30 5157 O 495.323 2.84449 2.98601 0
M  V30 5158 H 494.664 0.601975 0.280218 0
M  V30 5159 H 497.194 2.02987 0.256437 0
M  V30 5160 H 497.204 3.36583 2.30598 0
M  V30 5161 H 495.879 3.947 1.31091 0
M  V30 5162 H 494.456 2.65972 2.61368 0
M  V30 5163 N 496.642 -0.504142 1.49319 0
M  V30 5164 C 497.867 -1.28729 1.62615 0
M  V30 5165 C 498.292 -1.85752 0.296309 0
M  V30 5166 O 497.65 -1.65704 -0.735649 0
M  V30 5167 C 497.698 -2.39561 2.69524 0
M  V30 5168 O 496.802 -3.43324 2.28478 0
M  V30 5169 H 496.143 -0.380172 0.544395 0
M  V30 5170 H 498.673 -0.603872 1.95485 0
M  V30 5171 H 498.683 -2.8537 2.91595 0
M  V30 5172 H 497.358 -1.97423 3.66056 0
M  V30 5173 H 495.935 -3.03455 2.16725 0
M  V30 5174 N 498.12 -1.38341 -0.754957 0
M  V30 5175 C 499.366 -1.34672 -1.51628 0
M  V30 5176 C 499.699 0.0636036 -1.94096 0
M  V30 5177 O 498.974 1.0245 -1.6533 0
M  V30 5178 C 499.257 -2.30116 -2.76981 0
M  V30 5179 C 499.11 -3.80003 -2.4066 0
M  V30 5180 C 500.429 -2.23715 -3.78998 0
M  V30 5181 H 497.548 -0.490517 -0.550056 0
M  V30 5182 H 500.19 -1.69178 -0.864807 0
M  V30 5183 H 498.34 -2.00821 -3.3257 0
M  V30 5184 H 500.012 -4.19966 -1.90856 0
M  V30 5185 H 498.255 -3.97751 -1.73137 0
M  V30 5186 H 498.926 -4.42244 -3.30339 0
M  V30 5187 H 501.402 -2.49574 -3.32945 0
M  V30 5188 H 500.278 -2.9261 -4.64403 0
M  V30 5189 H 500.539 -1.23554 -4.24484 0
M  V30 5190 N 499.598 0.982988 -1.23187 0
M  V30 5191 C 501.009 1.53847 -1.05773 0
M  V30 5192 C 501.36 1.92568 0.375744 0
M  V30 5193 O 500.485 1.75783 1.26211 0
M  V30 5194 C 501.08 2.79567 -1.91384 0
M  V30 5195 C 499.639 3.31524 -1.78238 0
M  V30 5196 C 498.786 2.04534 -1.87246 0
M  V30 5197 H 501.737 0.802962 -1.36888 0
M  V30 5198 H 501.758 3.52317 -1.43711 0
M  V30 5199 H 501.27 2.51353 -2.95708 0
M  V30 5200 H 499.371 3.64623 -0.766875 0
M  V30 5201 H 499.484 4.01457 -2.61475 0
M  V30 5202 H 497.848 2.1855 -1.30797 0
M  V30 5203 H 498.631 1.78706 -2.9312 0
M  V30 5204 N 501.076 1.04316 1.18135 0
M  V30 5205 C 502.492 0.762858 1.40188 0
M  V30 5206 C 502.692 -0.646547 1.90846 0
M  V30 5207 O 501.748 -1.41036 2.0944 0
M  V30 5208 C 503.061 1.81106 2.40044 0
M  V30 5209 C 504.609 1.83226 2.53766 0
M  V30 5210 C 505.084 2.87044 3.56889 0
M  V30 5211 N 506.575 2.85951 3.64398 0
M  V30 5212 C 507.31 3.62932 4.43923 0
M  V30 5213 N 506.806 4.49672 5.27036 0
M  V30 5214 N 508.599 3.51411 4.38711 0
M  V30 5215 H 500.75 1.95264 0.835805 0
M  V30 5216 H 503.013 0.845017 0.429709 0
M  V30 5217 H 502.719 2.82214 2.09876 0
M  V30 5218 H 502.593 1.64529 3.39426 0
M  V30 5219 H 504.98 0.827869 2.8325 0
M  V30 5220 H 505.061 2.03879 1.54489 0
M  V30 5221 H 504.705 3.87663 3.28145 0
M  V30 5222 H 504.635 2.63645 4.5585 0
M  V30 5223 H 507.126 2.23051 3.05052 0
M  V30 5224 H 507.439 5.05116 5.84874 0
M  V30 5225 H 505.784 4.53738 5.26447 0
M  V30 5226 H 508.975 2.83047 3.72829 0
M  V30 5227 H 509.148 4.11654 5.00445 0
M  V30 5228 N 502.554 -1.34406 0.822964 0
M  V30 5229 C 503.484 -2.32052 0.259608 0
M  V30 5230 C 504.465 -1.58243 -0.623961 0
M  V30 5231 O 505.65 -1.86224 -0.55083 0
M  V30 5232 C 502.78 -3.42434 -0.579314 0
M  V30 5233 C 501.734 -4.27499 0.20712 0
M  V30 5234 C 501.06 -5.29349 -0.754547 0
M  V30 5235 C 502.36 -5.02758 1.41533 0
M  V30 5236 H 504.054 -2.79418 1.07545 0
M  V30 5237 H 501.6 -1.34338 0.518593 0
M  V30 5238 H 503.553 -4.0976 -0.983612 0
M  V30 5239 H 502.277 -2.93717 -1.4282 0
M  V30 5240 H 500.936 -3.61776 0.592787 0
M  V30 5241 H 500.584 -4.76895 -1.59939 0
M  V30 5242 H 500.284 -5.8714 -0.232561 0
M  V30 5243 H 501.808 -5.99544 -1.1567 0
M  V30 5244 H 503.222 -5.62938 1.08504 0
M  V30 5245 H 501.619 -5.70123 1.87296 0
M  V30 5246 H 502.689 -4.32451 2.1935 0
M  V30 5247 N 504.032 -0.577932 -1.46621 0
M  V30 5248 C 504.962 0.145917 -2.33044 0
M  V30 5249 C 505.943 0.888412 -1.45056 0
M  V30 5250 O 507.128 0.864812 -1.73881 0
M  V30 5251 C 504.258 1.16322 -3.27241 0
M  V30 5252 C 503.212 0.535868 -4.24632 0
M  V30 5253 C 502.538 1.65929 -5.08303 0
M  V30 5254 C 503.838 -0.523861 -5.19666 0
M  V30 5255 H 505.532 -0.575636 -2.93814 0
M  V30 5256 H 503.078 -0.278272 -1.41286 0
M  V30 5257 H 505.031 1.67793 -3.86553 0
M  V30 5258 H 503.755 1.91498 -2.64567 0
M  V30 5259 H 502.414 0.0422759 -3.66576 0
M  V30 5260 H 502.062 2.40061 -4.42018 0
M  V30 5261 H 501.762 1.2452 -5.74255 0
M  V30 5262 H 503.286 2.17686 -5.70478 0
M  V30 5263 H 504.7 -0.0944059 -5.73222 0
M  V30 5264 H 503.097 -0.858 -5.93935 0
M  V30 5265 H 504.167 -1.41197 -4.63887 0
M  V30 5266 N 505.51 1.54411 -0.315457 0
M  V30 5267 C 506.759 1.99599 0.290395 0
M  V30 5268 C 507.072 1.20746 1.53882 0
M  V30 5269 O 508.278 1.56272 2.22017 0
M  V30 5270 C 506.734 3.5539 0.56797 0
M  V30 5271 C 506.342 4.43068 -0.662945 0
M  V30 5272 C 508.086 4.09067 1.13422 0
M  V30 5273 C 505.993 5.90317 -0.357722 0
M  V30 5274 H 504.923 0.745592 0.112286 0
M  V30 5275 H 507.574 1.78477 -0.426418 0
M  V30 5276 H 505.956 3.72468 1.34476 0
M  V30 5277 H 507.13 4.37765 -1.43869 0
M  V30 5278 H 505.445 4.00238 -1.14884 0
M  V30 5279 H 508.042 5.16663 1.37707 0
M  V30 5280 H 508.385 3.60552 2.08106 0
M  V30 5281 H 508.918 3.95589 0.418805 0
M  V30 5282 H 505.657 6.4301 -1.27351 0
M  V30 5283 H 505.177 5.98592 0.380472 0
M  V30 5284 H 506.856 6.4699 0.0354284 0
M  V30 5285 N 506.988 0.0434614 1.5754 0
M  V30 5286 C 507.936 -0.951465 2.1225 0
M  V30 5287 C 508.93 -1.3274 1.05245 0
M  V30 5288 O 510.136 -1.30795 1.23663 0
M  V30 5289 H 506.511 -0.324667 0.678303 0
M  V30 5290 H 508.482 -0.464855 2.94757 0
M  V30 5291 C 507.231 -2.21972 2.67626 0
M  V30 5292 H 506.554 -1.93923 3.4962 0
M  V30 5293 H 507.994 -2.89765 3.09536 0
M  V30 5294 C 506.453 -2.95919 1.61038 0
M  V30 5295 O 506.983 -3.8857 1.01862 0
M  V30 5296 N 505.189 -2.58511 1.32741 0
M  V30 5297 H 504.736 -1.83244 1.81051 0
M  V30 5298 H 504.694 -3.08296 0.616531 0
M  V30 5299 N 508.466 -1.55915 -0.229846 0
M  V30 5300 C 509.882 -1.48721 -0.579166 0
M  V30 5301 C 510.082 -0.736976 -1.87539 0
M  V30 5302 O 509.138 -0.273258 -2.51017 0
M  V30 5303 C 510.451 -2.9323 -0.666082 0
M  V30 5304 C 511.999 -3.03701 -0.757267 0
M  V30 5305 C 512.474 -4.49552 -0.8756 0
M  V30 5306 N 513.965 -4.53561 -0.940035 0
M  V30 5307 C 514.7 -5.63683 -1.05116 0
M  V30 5308 N 514.196 -6.83576 -1.12675 0
M  V30 5309 N 515.989 -5.51516 -1.08565 0
M  V30 5310 H 508.14 -2.03123 0.620857 0
M  V30 5311 H 510.403 -0.922898 0.21671 0
M  V30 5312 H 510.109 -3.51032 0.21664 0
M  V30 5313 H 509.983 -3.44668 -1.53243 0
M  V30 5314 H 512.37 -2.45969 -1.63043 0
M  V30 5315 H 512.451 -2.55446 0.134583 0
M  V30 5316 H 512.095 -5.079 -0.00692351 0
M  V30 5317 H 512.025 -4.95506 -1.78274 0
M  V30 5318 H 514.516 -3.67215 -0.892269 0
M  V30 5319 H 514.829 -7.63251 -1.21109 0
M  V30 5320 H 513.174 -6.86303 -1.09603 0
M  V30 5321 H 516.365 -4.5678 -1.02319 0
M  V30 5322 H 516.538 -6.37372 -1.1688 0
M  V30 5323 N 509.944 0.496216 -1.49584 0
M  V30 5324 C 511.221 1.25755 -1.49816 0
M  V30 5325 C 511.601 2.09859 -0.228572 0
M  V30 5326 O 510.949 2.14449 0.788908 0
M  V30 5327 C 511.159 2.11017 -2.7798 0
M  V30 5328 C 512.507 2.70047 -3.27658 0
M  V30 5329 O 513.531 2.21281 -2.79129 0
M  V30 5330 O 512.39 3.58834 -4.1219 0
M  V30 5331 H 509.484 0.569322 -0.599834 0
M  V30 5332 H 512.03 0.510094 -1.61852 0
M  V30 5333 H 510.802 1.48879 -3.61871 0
M  V30 5334 H 510.425 2.92947 -2.68827 0
M  V30 5335 N 511.423 1.38739 0.74761 0
M  V30 5336 C 512.353 1.39173 1.87492 0
M  V30 5337 C 513.334 0.256794 1.6815 0
M  V30 5338 O 514.519 0.460762 1.88655 0
M  V30 5339 C 511.649 1.22197 3.25093 0
M  V30 5340 C 510.603 2.32957 3.59047 0
M  V30 5341 C 509.929 2.01082 4.95449 0
M  V30 5342 C 511.229 3.75237 3.6331 0
M  V30 5343 H 512.923 2.3351 1.87386 0
M  V30 5344 H 510.469 1.12399 0.900134 0
M  V30 5345 H 512.422 1.21124 4.03617 0
M  V30 5346 H 511.146 0.243241 3.25693 0
M  V30 5347 H 509.805 2.33226 2.82845 0
M  V30 5348 H 509.453 1.01678 4.92616 0
M  V30 5349 H 509.153 2.75267 5.19136 0
M  V30 5350 H 510.677 2.01638 5.76346 0
M  V30 5351 H 512.091 3.76966 4.31937 0
M  V30 5352 H 510.488 4.48677 3.98509 0
M  V30 5353 H 511.558 4.07122 2.634 0
M  V30 5354 N 512.901 -0.976442 1.23707 0
M  V30 5355 C 514.147 -1.72081 1.07312 0
M  V30 5356 C 514.48 -1.90275 -0.388476 0
M  V30 5357 O 513.755 -1.4579 -1.28746 0
M  V30 5358 C 514.038 -3.11675 1.80363 0
M  V30 5359 C 513.891 -3.01027 3.3422 0
M  V30 5360 C 515.21 -4.1117 1.5693 0
M  V30 5361 H 512.329 -0.624583 0.391236 0
M  V30 5362 H 514.971 -1.13649 1.52263 0
M  V30 5363 H 513.121 -3.61559 1.42153 0
M  V30 5364 H 514.793 -2.58637 3.81975 0
M  V30 5365 H 513.036 -2.3744 3.63049 0
M  V30 5366 H 513.707 -3.9988 3.80525 0
M  V30 5367 H 516.183 -3.7011 1.90151 0
M  V30 5368 H 515.059 -5.06928 2.10513 0
M  V30 5369 H 515.32 -4.392 0.505548 0
M  V30 5370 N 514.379 -1.04941 -1.1758 0
M  V30 5371 C 515.627 -0.756492 -1.87408 0
M  V30 5372 C 515.948 0.718478 -1.81281 0
M  V30 5373 O 515.218 1.519 -1.23706 0
M  V30 5374 H 513.798 -0.276841 -0.693807 0
M  V30 5375 H 516.46 -1.32803 -1.42652 0
M  V30 5376 H 515.556 -1.06918 -2.93215 0
M  V30 5377 N 515.857 1.33968 -0.830081 0
M  V30 5378 C 517.268 1.80439 -0.479455 0
M  V30 5379 C 517.619 1.68756 1.00079 0
M  V30 5380 O 516.744 1.23171 1.77927 0
M  V30 5381 C 517.339 3.27611 -0.863505 0
M  V30 5382 C 515.898 3.72133 -0.565145 0
M  V30 5383 C 515.045 2.55549 -1.07657 0
M  V30 5384 H 517.996 1.21614 -1.0196 0
M  V30 5385 H 518.017 3.8012 -0.170083 0
M  V30 5386 H 517.529 3.36082 -1.94089 0
M  V30 5387 H 515.63 3.69196 0.502536 0
M  V30 5388 H 515.743 4.65963 -1.11422 0
M  V30 5389 H 514.107 2.49788 -0.497807 0
M  V30 5390 H 514.89 2.66786 -2.16055 0
M  V30 5391 N 517.335 0.585699 1.46312 0
M  V30 5392 C 518.265 -0.133556 2.33118 0
M  V30 5393 C 519.246 -0.880707 1.45525 0
M  V30 5394 O 520.431 -0.855579 1.74337 0
M  V30 5395 C 517.561 -1.14585 3.27853 0
M  V30 5396 C 516.515 -0.513341 4.2491 0
M  V30 5397 C 515.841 -1.63231 5.09175 0
M  V30 5398 C 517.141 0.551413 5.19381 0
M  V30 5399 H 518.835 0.59121 2.93505 0
M  V30 5400 H 516.381 0.285761 1.41136 0
M  V30 5401 H 518.334 -1.65741 3.87438 0
M  V30 5402 H 517.058 -1.90093 2.65579 0
M  V30 5403 H 515.717 -0.0228349 3.66593 0
M  V30 5404 H 515.365 -2.37713 4.43285 0
M  V30 5405 H 515.065 -1.21473 5.74907 0
M  V30 5406 H 516.589 -2.14658 5.71624 0
M  V30 5407 H 518.003 0.124804 5.73164 0
M  V30 5408 H 516.4 0.889486 5.93471 0
M  V30 5409 H 517.47 1.43655 4.63132 0
M  V30 5410 N 518.813 -1.54241 0.323641 0
M  V30 5411 C 519.776 -2.22997 -0.529602 0
M  V30 5412 C 520.776 -1.22345 -1.04347 0
M  V30 5413 O 521.966 -1.46924 -0.935889 0
M  V30 5414 C 519.098 -2.93409 -1.73562 0
M  V30 5415 H 520.291 -2.99815 0.0714518 0
M  V30 5416 H 517.844 -1.56121 0.0747258 0
M  V30 5417 H 518.579 -2.20729 -2.37591 0
M  V30 5418 H 518.364 -3.67217 -1.37456 0
M  V30 5419 H 519.854 -3.45794 -2.34128 0
M  V30 5420 N 520.291 -0.0518155 -1.57515 0
M  V30 5421 C 521.537 0.616839 -1.93821 0
M  V30 5422 C 521.892 1.68413 -0.930307 0
M  V30 5423 O 521.185 1.91534 0.0504231 0
M  V30 5424 C 521.379 1.25607 -3.34601 0
M  V30 5425 C 521.208 0.252222 -4.48992 0
M  V30 5426 C 519.978 -0.156031 -5.05059 0
M  V30 5427 C 522.176 -0.502613 -5.11838 0
M  V30 5428 N 520.158 -1.15267 -6.02981 0
M  V30 5429 C 521.529 -1.35232 -6.05072 0
M  V30 5430 C 523.584 -0.560855 -4.94731 0
M  V30 5431 C 522.287 -2.25505 -6.83037 0
M  V30 5432 C 524.313 -1.45102 -5.73323 0
M  V30 5433 C 523.675 -2.28845 -6.6619 0
M  V30 5434 H 519.774 0.197344 -0.75669 0
M  V30 5435 H 522.358 -0.124297 -1.94303 0
M  V30 5436 H 520.529 1.96723 -3.34895 0
M  V30 5437 H 522.261 1.88358 -3.58195 0
M  V30 5438 H 519.016 0.22306 -4.73074 0
M  V30 5439 H 519.44 -1.64791 -6.56638 0
M  V30 5440 H 524.082 0.0723639 -4.22738 0
M  V30 5441 H 521.8 -2.89872 -7.54321 0
M  V30 5442 H 525.386 -1.50066 -5.62113 0
M  V30 5443 H 524.266 -2.96608 -7.25943 0
M  V30 5444 N 521.769 1.56035 0.221574 0
M  V30 5445 C 522.719 1.8881 1.27807 0
M  V30 5446 C 523.703 0.751177 1.42289 0
M  V30 5447 O 524.895 1.01359 1.45104 0
M  V30 5448 C 522.024 2.20828 2.6285 0
M  V30 5449 C 521.11 3.40912 2.52269 0
M  V30 5450 N 521.501 4.59531 2.1134 0
M  V30 5451 C 519.799 3.44526 2.83228 0
M  V30 5452 C 520.5 5.41689 2.1201 0
M  V30 5453 N 519.476 4.814 2.52497 0
M  V30 5454 H 523.278 2.78036 0.952529 0
M  V30 5455 H 520.792 1.566 0.430134 0
M  V30 5456 H 522.789 2.42483 3.39127 0
M  V30 5457 H 521.449 1.32914 2.9625 0
M  V30 5458 H 522.46 4.8469 1.82472 0
M  V30 5459 H 519.137 2.66956 3.21 0
M  V30 5460 H 520.527 6.46643 1.82491 0
M  V30 5461 N 523.247 -0.488276 1.49845 0
M  V30 5462 C 524.658 -1.06955 1.53028 0
M  V30 5463 C 525.009 -1.9351 0.323797 0
M  V30 5464 O 524.134 -2.08891 -0.565116 0
M  V30 5465 C 524.729 -1.94643 2.77307 0
M  V30 5466 C 523.288 -2.4791 2.83227 0
M  V30 5467 C 522.435 -1.25833 2.47106 0
M  V30 5468 H 525.386 -0.271626 1.56358 0
M  V30 5469 H 525.407 -2.79496 2.5819 0
M  V30 5470 H 524.919 -1.31621 3.65099 0
M  V30 5471 H 523.02 -3.14535 1.99745 0
M  V30 5472 H 523.133 -2.84193 3.85709 0
M  V30 5473 H 521.497 -1.58764 1.99163 0
M  V30 5474 H 522.28 -0.644993 3.37186 0
M  V30 5475 N 524.725 -1.39134 -0.740242 0
M  V30 5476 C 526.141 -1.20623 -1.0451 0
M  V30 5477 C 526.341 -0.0641651 -2.01398 0
M  V30 5478 O 525.397 0.585843 -2.4561 0
M  V30 5479 C 526.71 -2.53815 -1.6124 0
M  V30 5480 C 528.258 -2.60615 -1.73346 0
M  V30 5481 C 528.733 -3.94015 -2.33486 0
M  V30 5482 N 530.224 -3.95627 -2.40902 0
M  V30 5483 C 530.959 -4.95616 -2.88361 0
M  V30 5484 N 530.455 -6.06003 -3.35756 0
M  V30 5485 N 532.248 -4.82998 -2.87523 0
M  V30 5486 H 524.399 -2.12176 -0.0975576 0
M  V30 5487 H 526.662 -0.942066 -0.105904 0
M  V30 5488 H 526.368 -3.37911 -0.975144 0
M  V30 5489 H 526.242 -2.73162 -2.6012 0
M  V30 5490 H 528.629 -1.76906 -2.36195 0
M  V30 5491 H 528.71 -2.45123 -0.731336 0
M  V30 5492 H 528.354 -4.78153 -1.71267 0
M  V30 5493 H 528.284 -4.06825 -3.34366 0
M  V30 5494 H 530.775 -3.15903 -2.07398 0
M  V30 5495 H 531.088 -6.78215 -3.70464 0
M  V30 5496 H 529.433 -6.09604 -3.33778 0
M  V30 5497 H 532.624 -3.95866 -2.49816 0
M  V30 5498 H 532.797 -5.61072 -3.24196 0
M  V30 5499 N 526.204 0.969867 -1.24223 0
M  V30 5500 C 527.429 1.75289 -1.10853 0
M  V30 5501 C 527.854 1.85091 0.335079 0
M  V30 5502 O 527.212 1.32024 1.24255 0
M  V30 5503 C 527.26 3.15255 -1.75062 0
M  V30 5504 O 526.364 3.99589 -1.01992 0
M  V30 5505 H 525.705 0.538904 -0.387915 0
M  V30 5506 H 528.235 1.21675 -1.64488 0
M  V30 5507 H 528.245 3.65787 -1.80731 0
M  V30 5508 H 526.92 3.07436 -2.801 0
M  V30 5509 H 525.497 3.58077 -1.04094 0
M  V30 5510 N 527.682 1.05563 1.17022 0
M  V30 5511 C 529.098 0.777684 1.39371 0
M  V30 5512 C 529.298 -0.626269 1.91521 0
M  V30 5513 O 528.354 -1.38806 2.10924 0
M  V30 5514 C 529.667 1.83642 2.3811 0
M  V30 5515 C 531.215 1.85907 2.51809 0
M  V30 5516 C 531.69 2.90813 3.53824 0
M  V30 5517 N 533.181 2.898 3.61345 0
M  V30 5518 C 533.916 3.6762 4.40049 0
M  V30 5519 N 533.412 4.55237 5.22237 0
M  V30 5520 N 535.205 3.56044 4.34959 0
M  V30 5521 H 527.356 1.9614 0.815047 0
M  V30 5522 H 529.619 0.849527 0.420722 0
M  V30 5523 H 529.325 2.84425 2.06871 0
M  V30 5524 H 529.199 1.6812 3.37662 0
M  V30 5525 H 531.586 0.857865 2.82356 0
M  V30 5526 H 531.667 2.05506 1.52318 0
M  V30 5527 H 531.311 3.91122 3.24015 0
M  V30 5528 H 531.241 2.68465 4.53028 0
M  V30 5529 H 533.732 2.26274 3.02669 0
M  V30 5530 H 534.045 5.11291 5.79484 0
M  V30 5531 H 532.39 4.59296 5.21605 0
M  V30 5532 H 535.581 2.86986 3.69806 0
M  V30 5533 H 535.754 4.16938 4.96051 0
M  V30 5534 N 529.16 -1.33526 0.837174 0
M  V30 5535 C 530.437 -1.92369 0.354065 0
M  V30 5536 C 530.817 -1.76348 -1.16038 0
M  V30 5537 O 530.165 -1.15083 -1.97403 0
M  V30 5538 C 530.375 -3.39728 0.799101 0
M  V30 5539 C 531.723 -4.16877 0.806139 0
M  V30 5540 O 532.747 -3.48373 0.742597 0
M  V30 5541 O 531.606 -5.39166 0.892345 0
M  V30 5542 H 528.7 -0.820952 0.0998378 0
M  V30 5543 H 531.246 -1.42409 0.922913 0
M  V30 5544 H 530.018 -3.45254 1.84162 0
M  V30 5545 H 529.641 -3.97062 0.206731 0
M  V30 5546 N 530.638 -0.59345 -1.46 0
M  V30 5547 C 531.884 -0.0832754 -2.02629 0
M  V30 5548 C 532.217 1.27749 -1.46266 0
M  V30 5549 O 531.492 1.8395 -0.631866 0
M  V30 5550 C 531.775 -0.0290756 -3.60088 0
M  V30 5551 C 531.628 -1.41951 -4.26814 0
M  V30 5552 C 532.947 0.666055 -4.35031 0
M  V30 5553 H 530.066 -0.031736 -0.736316 0
M  V30 5554 H 532.708 -0.762711 -1.74019 0
M  V30 5555 H 530.858 0.549532 -3.84594 0
M  V30 5556 H 532.53 -2.04411 -4.13538 0
M  V30 5557 H 530.773 -1.98422 -3.8576 0
M  V30 5558 H 531.444 -1.33395 -5.3564 0
M  V30 5559 H 533.92 0.174401 -4.15734 0
M  V30 5560 H 532.796 0.673041 -5.44758 0
M  V30 5561 H 533.057 1.72946 -4.06869 0
M  V30 5562 N 532.116 1.54067 -0.331816 0
M  V30 5563 C 533.079 2.23275 0.517768 0
M  V30 5564 C 534.079 1.22897 1.03697 0
M  V30 5565 O 535.269 1.47419 0.928084 0
M  V30 5566 C 532.401 2.94326 1.72004 0
M  V30 5567 H 533.594 2.99773 -0.0873507 0
M  V30 5568 H 531.147 1.56079 -0.0830042 0
M  V30 5569 H 531.882 2.21986 2.36417 0
M  V30 5570 H 531.667 3.67941 1.35507 0
M  V30 5571 H 533.157 3.47031 2.32291 0
M  V30 5572 N 533.594 0.0601682 1.57485 0
M  V30 5573 C 534.526 -0.94047 2.09016 0
M  V30 5574 C 535.539 -1.26897 1.01985 0
M  V30 5575 O 536.728 -1.22819 1.29529 0
M  V30 5576 C 533.828 -2.25955 2.52582 0
M  V30 5577 C 533.001 -2.11163 3.83052 0
M  V30 5578 C 532.06 -3.26273 4.12835 0
M  V30 5579 O 531.086 -3.01779 4.82616 0
M  V30 5580 N 532.288 -4.51022 3.65458 0
M  V30 5581 H 535.053 -0.500578 2.9549 0
M  V30 5582 H 532.614 -0.125852 1.6141 0
M  V30 5583 H 534.606 -3.01846 2.69575 0
M  V30 5584 H 533.176 -2.61481 1.71308 0
M  V30 5585 H 532.396 -1.19808 3.75552 0
M  V30 5586 H 533.684 -1.98517 4.68475 0
M  V30 5587 H 533.082 -4.73811 3.09062 0
M  V30 5588 H 531.639 -5.23978 3.87673 0
M  V30 5589 N 535.072 -1.5615 -0.213296 0
M  V30 5590 C 536.002 -1.96109 -1.26742 0
M  V30 5591 C 536.983 -0.830448 -1.48451 0
M  V30 5592 O 538.168 -1.09339 -1.60495 0
M  V30 5593 C 535.298 -2.28492 -2.61551 0
M  V30 5594 C 534.252 -3.44124 -2.54485 0
M  V30 5595 C 533.578 -3.62134 -3.93399 0
M  V30 5596 C 534.878 -4.78855 -2.08556 0
M  V30 5597 H 536.572 -2.84412 -0.935434 0
M  V30 5598 H 534.118 -1.36836 -0.44854 0
M  V30 5599 H 536.071 -2.55039 -3.3546 0
M  V30 5600 H 534.795 -1.37052 -2.96453 0
M  V30 5601 H 533.454 -3.17639 -1.83033 0
M  V30 5602 H 533.102 -2.68055 -4.25623 0
M  V30 5603 H 532.802 -4.39913 -3.89551 0
M  V30 5604 H 534.326 -3.91038 -4.68958 0
M  V30 5605 H 535.74 -5.04552 -2.72213 0
M  V30 5606 H 534.137 -5.59975 -2.1575 0
M  V30 5607 H 535.207 -4.73657 -1.03811 0
M  V30 5608 N 536.55 0.480323 -1.50102 0
M  V30 5609 C 537.798 1.23063 -1.60312 0
M  V30 5610 C 538.119 1.92659 -0.301226 0
M  V30 5611 O 537.389 1.83691 0.680753 0
M  V30 5612 H 535.969 0.457231 -0.590719 0
M  V30 5613 H 538.631 0.554893 -1.86834 0
M  V30 5614 H 537.727 1.9835 -2.40964 0
M  V30 5615 N 538.028 1.39524 0.732853 0
M  V30 5616 C 539.305 1.27373 1.48444 0
M  V30 5617 C 539.685 -0.115725 2.10783 0
M  V30 5618 O 539.033 -1.12713 1.98766 0
M  V30 5619 C 539.243 2.39966 2.53412 0
M  V30 5620 C 540.591 2.79384 3.19733 0
M  V30 5621 O 541.615 2.39431 2.63725 0
M  V30 5622 O 540.474 3.48353 4.21085 0
M  V30 5623 H 537.568 0.499272 0.659285 0
M  V30 5624 H 540.114 1.51403 0.766496 0
M  V30 5625 H 538.886 3.32845 2.05742 0
M  V30 5626 H 538.509 2.17612 3.32762 0
M  V30 5627 N 539.506 -0.963266 1.24736 0
M  V30 5628 C 540.752 -1.70933 1.09131 0
M  V30 5629 C 541.085 -1.90676 -0.368273 0
M  V30 5630 O 540.36 -1.47147 -1.27193 0
M  V30 5631 C 540.643 -3.09744 1.83658 0
M  V30 5632 C 540.496 -2.97465 3.37394 0
M  V30 5633 C 541.815 -4.09483 1.61282 0
M  V30 5634 H 538.934 -0.620398 0.397838 0
M  V30 5635 H 541.576 -1.12028 1.53459 0
M  V30 5636 H 539.726 -3.60031 1.4598 0
M  V30 5637 H 541.398 -2.54571 3.84696 0
M  V30 5638 H 539.641 -2.33576 3.65547 0
M  V30 5639 H 540.312 -3.95822 3.84745 0
M  V30 5640 H 542.788 -3.68073 1.94066 0
M  V30 5641 H 541.664 -5.04666 2.15878 0
M  V30 5642 H 541.925 -4.38639 0.552102 0
M  V30 5643 N 540.985 -1.06182 -1.16461 0
M  V30 5644 C 542.231 -0.779015 -1.87241 0
M  V30 5645 C 542.564 0.692715 -1.81425 0
M  V30 5646 O 541.839 1.5074 -1.22913 0
M  V30 5647 C 542.122 -1.2728 -3.36856 0
M  V30 5648 C 541.975 -2.80821 -3.51368 0
M  V30 5649 C 543.294 -0.879799 -4.31216 0
M  V30 5650 H 540.413 -0.284464 -0.679889 0
M  V30 5651 H 543.055 -1.31755 -1.36896 0
M  V30 5652 H 541.205 -0.814673 -3.79862 0
M  V30 5653 H 542.877 -3.34833 -3.17308 0
M  V30 5654 H 541.12 -3.19606 -2.93316 0
M  V30 5655 H 541.791 -3.10435 -4.56436 0
M  V30 5656 H 544.267 -1.27436 -3.96105 0
M  V30 5657 H 543.143 -1.25278 -5.34412 0
M  V30 5658 H 543.404 0.215372 -4.41575 0
M  V30 5659 N 542.463 1.3308 -0.844243 0
M  V30 5660 C 543.413 2.26589 -0.253289 0
M  V30 5661 C 544.397 1.49501 0.594836 0
M  V30 5662 O 545.589 1.71291 0.445924 0
M  V30 5663 C 542.718 3.38599 0.566176 0
M  V30 5664 C 541.804 4.23081 -0.293756 0
M  V30 5665 N 542.195 4.86751 -1.37505 0
M  V30 5666 C 540.493 4.45925 -0.0817086 0
M  V30 5667 C 541.194 5.49684 -1.90323 0
M  V30 5668 N 540.17 5.30101 -1.20391 0
M  V30 5669 H 543.972 2.73334 -1.08009 0
M  V30 5670 H 541.486 1.47048 -0.689258 0
M  V30 5671 H 543.483 4.04584 1.00587 0
M  V30 5672 H 542.143 2.93401 1.39089 0
M  V30 5673 H 543.154 4.87151 -1.75796 0
M  V30 5674 H 539.831 4.11434 0.709129 0
M  V30 5675 H 541.221 6.10363 -2.80902 0
M  V30 5676 N 543.941 0.601185 1.45683 0
M  V30 5677 C 545.189 0.0936957 2.01883 0
M  V30 5678 C 545.51 -1.2779 1.47291 0
M  V30 5679 O 544.78 -1.84279 0.664691 0
M  V30 5680 H 543.36 0.0316466 0.746329 0
M  V30 5681 H 546.022 0.781137 1.78562 0
M  V30 5682 H 545.118 0.0386297 3.12076 0
M  V30 5683 N 545.419 -1.53889 0.339982 0
M  V30 5684 C 546.665 -2.01152 -0.258003 0
M  V30 5685 C 546.998 -1.22749 -1.50487 0
M  V30 5686 O 546.273 -0.314156 -1.91946 0
M  V30 5687 C 546.556 -3.55468 -0.575717 0
M  V30 5688 C 546.409 -4.44584 0.682996 0
M  V30 5689 C 547.728 -4.1768 -1.38677 0
M  V30 5690 H 544.847 -0.731198 -0.0922992 0
M  V30 5691 H 547.489 -1.84352 0.459814 0
M  V30 5692 H 545.639 -3.69914 -1.18725 0
M  V30 5693 H 547.311 -4.41981 1.32102 0
M  V30 5694 H 545.554 -4.13592 1.3086 0
M  V30 5695 H 546.225 -5.5043 0.416001 0
M  V30 5696 H 548.701 -4.0691 -0.869705 0
M  V30 5697 H 547.577 -5.25734 -1.57783 0
M  V30 5698 H 547.838 -3.72069 -2.38782 0
M  V30 5699 N 546.897 -0.0685191 -1.57451 0
M  V30 5700 C 547.807 0.914677 -2.16034 0
M  V30 5701 C 548.823 1.32938 -1.12265 0
M  V30 5702 O 549.999 1.40275 -1.44516 0
M  V30 5703 C 547.064 2.16519 -2.70777 0
M  V30 5704 C 546.125 1.80721 -3.89408 0
M  V30 5705 C 545.358 2.9981 -4.41531 0
M  V30 5706 O 545.581 4.13727 -3.92666 0
M  V30 5707 O 544.515 2.79817 -5.32903 0
M  V30 5708 H 548.341 0.446364 -3.00402 0
M  V30 5709 H 545.926 0.154367 -1.486 0
M  V30 5710 H 547.808 2.89856 -3.05878 0
M  V30 5711 H 546.483 2.62454 -1.89471 0
M  V30 5712 H 545.39 1.04646 -3.59166 0
M  V30 5713 H 546.723 1.39571 -4.71997 0
M  V30 5714 N 548.375 1.56261 0.205012 0
M  V30 5715 C 549.6 1.84491 0.947512 0
M  V30 5716 C 550.025 0.650894 1.76479 0
M  V30 5717 O 549.383 -0.40035 1.76824 0
M  V30 5718 C 549.431 3.10863 1.82747 0
M  V30 5719 O 548.535 2.90719 2.925 0
M  V30 5720 H 547.876 0.607783 0.267386 0
M  V30 5721 H 550.406 2.03485 0.213323 0
M  V30 5722 H 550.416 3.41399 2.23407 0
M  V30 5723 H 549.091 3.97392 1.2269 0
M  V30 5724 H 547.668 2.71457 2.55667 0
M  V30 5725 N 549.853 -0.472356 1.50355 0
M  V30 5726 C 550.783 -1.57859 1.72055 0
M  V30 5727 C 551.764 -1.60283 0.569505 0
M  V30 5728 O 552.949 -1.7657 0.808503 0
M  V30 5729 C 550.079 -2.96191 1.81351 0
M  V30 5730 C 549.033 -3.08633 2.96529 0
M  V30 5731 C 548.359 -4.486 2.90968 0
M  V30 5732 C 549.659 -2.85969 4.37057 0
M  V30 5733 H 551.353 -1.39953 2.64676 0
M  V30 5734 H 548.899 -0.671846 1.27367 0
M  V30 5735 H 550.852 -3.73507 1.95117 0
M  V30 5736 H 549.576 -3.15251 0.853502 0
M  V30 5737 H 548.235 -2.33749 2.82413 0
M  V30 5738 H 547.883 -4.64577 1.92815 0
M  V30 5739 H 547.583 -4.57861 3.68289 0
M  V30 5740 H 549.107 -5.27938 3.0678 0
M  V30 5741 H 550.521 -3.53036 4.51706 0
M  V30 5742 H 548.918 -3.06677 5.15819 0
M  V30 5743 H 549.988 -1.81838 4.49514 0
M  V30 5744 N 551.331 -1.39911 -0.725443 0
M  V30 5745 C 552.577 -1.37858 -1.48738 0
M  V30 5746 C 552.91 0.0224187 -1.94187 0
M  V30 5747 O 552.185 0.989204 -1.67466 0
M  V30 5748 C 552.468 -2.3594 -2.72038 0
M  V30 5749 C 552.321 -3.85023 -2.32546 0
M  V30 5750 C 553.64 -2.31704 -3.74167 0
M  V30 5751 H 550.759 -0.502074 -0.539528 0
M  V30 5752 H 553.401 -1.70974 -0.828728 0
M  V30 5753 H 551.551 -2.0783 -3.28236 0
M  V30 5754 H 553.223 -4.2392 -1.81905 0
M  V30 5755 H 551.466 -4.01334 -1.64661 0
M  V30 5756 H 552.137 -4.49152 -3.20884 0
M  V30 5757 H 554.613 -2.5658 -3.27576 0
M  V30 5758 H 553.489 -3.02395 -4.58092 0
M  V30 5759 H 553.75 -1.3253 -4.21768 0
M  V30 5760 N 552.809 0.956637 -1.25245 0
M  V30 5761 C 553.719 2.0868 -1.0719 0
M  V30 5762 C 554.735 1.73997 -0.00959074 0
M  V30 5763 O 555.911 2.00301 -0.210104 0
M  V30 5764 C 552.976 3.39754 -0.690526 0
M  V30 5765 C 552.037 3.88316 -1.83055 0
M  V30 5766 C 551.27 5.13134 -1.46728 0
M  V30 5767 O 551.493 5.6925 -0.362029 0
M  V30 5768 O 550.427 5.56356 -2.29677 0
M  V30 5769 H 554.253 2.26813 -2.01965 0
M  V30 5770 H 551.838 1.07098 -1.04165 0
M  V30 5771 H 553.72 4.18543 -0.489871 0
M  V30 5772 H 552.395 3.22896 0.227981 0
M  V30 5773 H 551.302 3.1054 -2.08604 0
M  V30 5774 H 552.635 4.09669 -2.72822 0
M  V30 5775 N 554.287 1.06798 1.15896 0
M  V30 5776 C 555.217 0.704677 2.22613 0
M  V30 5777 C 556.198 -0.305252 1.67339 0
M  V30 5778 O 557.383 -0.179247 1.93371 0
M  V30 5779 C 554.513 0.0957325 3.47168 0
M  V30 5780 C 553.467 1.0322 4.15367 0
M  V30 5781 C 552.793 0.286293 5.33933 0
M  V30 5782 C 554.093 2.36341 4.65768 0
M  V30 5783 H 555.787 1.59688 2.53259 0
M  V30 5784 H 553.333 0.769257 1.21731 0
M  V30 5785 H 555.286 -0.170333 4.21056 0
M  V30 5786 H 554.01 -0.831516 3.15838 0
M  V30 5787 H 552.669 1.28309 3.43413 0
M  V30 5788 H 552.317 -0.644237 4.98857 0
M  V30 5789 H 552.017 0.910436 5.80504 0
M  V30 5790 H 553.541 0.0278938 6.10594 0
M  V30 5791 H 554.955 2.1561 5.31211 0
M  V30 5792 H 553.352 2.94299 5.2298 0
M  V30 5793 H 554.422 2.99047 3.81705 0
M  V30 5794 N 555.766 -1.3263 0.851289 0
M  V30 5795 C 556.696 -2.31449 0.308771 0
M  V30 5796 C 557.677 -1.59531 -0.590255 0
M  V30 5797 O 558.862 -1.87351 -0.511205 0
M  V30 5798 C 555.992 -3.43586 -0.506548 0
M  V30 5799 C 554.946 -4.26963 0.297753 0
M  V30 5800 C 554.272 -5.30831 -0.642094 0
M  V30 5801 C 555.572 -4.99643 1.52166 0
M  V30 5802 H 557.266 -2.77074 1.13447 0
M  V30 5803 H 554.812 -1.33207 0.546971 0
M  V30 5804 H 556.765 -4.11754 -0.896474 0
M  V30 5805 H 555.489 -2.96681 -1.36558 0
M  V30 5806 H 554.148 -3.60437 0.669391 0
M  V30 5807 H 553.796 -4.8018 -1.49788 0
M  V30 5808 H 553.496 -5.87501 -0.107968 0
M  V30 5809 H 555.02 -6.01862 -1.02927 0
M  V30 5810 H 556.434 -5.6051 1.20421 0
M  V30 5811 H 554.831 -5.66022 1.99347 0
M  V30 5812 H 555.901 -4.27701 2.28474 0
M  V30 5813 N 557.244 -0.608902 -1.45362 0
M  V30 5814 C 558.492 -0.104401 -2.0183 0
M  V30 5815 C 558.813 1.27007 -1.47967 0
M  V30 5816 O 558.083 1.83924 -0.674455 0
M  V30 5817 H 556.663 -0.0356042 -0.746151 0
M  V30 5818 H 559.325 -0.790596 -1.78145 0
M  V30 5819 H 558.421 -0.0551793 -3.12051 0
M  V30 5820 N 558.722 1.53707 -0.348139 0
M  V30 5821 C 559.968 2.01979 0.239986 0
M  V30 5822 C 560.323 1.23141 1.47831 0
M  V30 5823 O 559.616 0.311936 1.89044 0
M  V30 5824 C 559.81 3.52292 0.602061 0
M  V30 5825 C 559.639 4.45684 -0.599625 0
M  V30 5826 C 558.409 4.9304 -1.10635 0
M  V30 5827 C 560.607 4.93156 -1.4595 0
M  V30 5828 N 558.589 5.70394 -2.26988 0
M  V30 5829 C 559.96 5.6868 -2.46988 0
M  V30 5830 C 562.015 4.75257 -1.48441 0
M  V30 5831 C 560.718 6.28208 -3.50353 0
M  V30 5832 C 562.744 5.35639 -2.50689 0
M  V30 5833 C 562.106 6.11034 -3.50453 0
M  V30 5834 H 558.205 0.780335 0.0509992 0
M  V30 5835 H 560.789 1.88466 -0.488742 0
M  V30 5836 H 558.96 3.66002 1.29989 0
M  V30 5837 H 560.692 3.87304 1.17377 0
M  V30 5838 H 557.447 4.68784 -0.67371 0
M  V30 5839 H 557.871 6.13741 -2.85747 0
M  V30 5840 H 562.513 4.16508 -0.726707 0
M  V30 5841 H 560.231 6.86064 -4.27015 0
M  V30 5842 H 563.817 5.23693 -2.53449 0
M  V30 5843 H 562.697 6.56925 -4.28275 0
M  V30 5844 N 560.2 0.0768682 1.57412 0
M  V30 5845 C 561.428 -0.59997 1.9801 0
M  V30 5846 C 561.843 -1.62842 0.955408 0
M  V30 5847 O 561.2 -1.8241 -0.057314 0
M  V30 5848 C 561.251 -1.26401 3.38681 0
M  V30 5849 O 560.972 -0.276723 4.37225 0
M  V30 5850 C 562.473 -2.0282 3.94182 0
M  V30 5851 H 559.693 -0.162239 0.651091 0
M  V30 5852 H 562.237 0.150771 2.03943 0
M  V30 5853 H 560.392 -1.96581 3.33819 0
M  V30 5854 H 560.806 -0.753744 5.19056 0
M  V30 5855 H 562.28 -2.44667 4.94815 0
M  V30 5856 H 562.757 -2.88678 3.31001 0
M  V30 5857 H 563.363 -1.37496 4.02461 0
M  V30 5858 N 561.678 -1.56367 -0.196722 0
M  V30 5859 C 562.588 -1.97617 -1.2643 0
M  V30 5860 C 563.604 -0.883598 -1.49895 0
M  V30 5861 O 564.78 -1.18921 -1.62541 0
M  V30 5862 C 561.845 -2.30595 -2.58895 0
M  V30 5863 C 560.906 -3.53551 -2.43516 0
M  V30 5864 C 560.139 -3.84946 -3.69665 0
M  V30 5865 O 560.362 -3.17655 -4.73763 0
M  V30 5866 O 559.296 -4.78379 -3.65291 0
M  V30 5867 H 563.122 -2.88648 -0.944233 0
M  V30 5868 H 560.707 -1.43901 -0.401592 0
M  V30 5869 H 562.589 -2.52889 -3.37083 0
M  V30 5870 H 561.264 -1.42732 -2.90533 0
M  V30 5871 H 560.171 -3.36507 -1.63445 0
M  V30 5872 H 561.504 -4.41875 -2.16812 0
M  V30 5873 N 563.156 0.464375 -1.50603 0
M  V30 5874 C 564.066 1.58723 -1.72754 0
M  V30 5875 C 565.082 1.62925 -0.610844 0
M  V30 5876 O 566.258 1.8067 -0.889963 0
M  V30 5877 C 563.323 2.94897 -1.82309 0
M  V30 5878 C 562.384 3.0103 -3.06071 0
M  V30 5879 C 561.617 4.30708 -3.1516 0
M  V30 5880 O 561.84 5.2159 -2.30868 0
M  V30 5881 O 560.774 4.42571 -4.0794 0
M  V30 5882 H 564.6 1.42954 -2.67951 0
M  V30 5883 H 562.185 0.644579 -1.3478 0
M  V30 5884 H 564.067 3.75764 -1.90735 0
M  V30 5885 H 562.742 3.10851 -0.902967 0
M  V30 5886 H 561.649 2.19217 -3.03142 0
M  V30 5887 H 562.982 2.90014 -3.97684 0
M  V30 5888 N 564.634 1.40294 0.718013 0
M  V30 5889 C 565.567 1.34767 1.84155 0
M  V30 5890 C 566.545 0.218455 1.61126 0
M  V30 5891 O 567.729 0.401716 1.8417 0
M  V30 5892 C 564.856 1.09676 3.20451 0
M  V30 5893 C 563.902 2.25016 3.62312 0
M  V30 5894 S 564.735 3.87397 3.69707 0
M  V30 5895 C 565.891 3.64565 5.08766 0
M  V30 5896 H 566.124 2.29851 1.88562 0
M  V30 5897 H 563.657 1.2655 0.884555 0
M  V30 5898 H 565.615 0.95885 3.99144 0
M  V30 5899 H 564.276 0.162502 3.13679 0
M  V30 5900 H 563.469 2.03097 4.61268 0
M  V30 5901 H 563.071 2.35098 2.90869 0
M  V30 5902 H 565.363 3.22882 5.95612 0
M  V30 5903 H 566.306 4.63043 5.35721 0
M  V30 5904 H 566.714 2.98303 4.79245 0
M  V30 5905 N 566.112 -0.949982 1.2575 0
M  V30 5906 C 567.528 -1.22191 1.02672 0
M  V30 5907 C 567.728 -1.99898 -0.253588 0
M  V30 5908 O 566.784 -2.33329 -0.965076 0
M  V30 5909 C 568.097 -1.99175 2.25277 0
M  V30 5910 C 569.645 -2.12201 2.30087 0
M  V30 5911 C 570.12 -2.92586 3.5236 0
M  V30 5912 N 571.611 -3.00163 3.52784 0
M  V30 5913 C 572.346 -3.62766 4.44059 0
M  V30 5914 N 571.842 -4.26943 5.45611 0
M  V30 5915 N 573.635 -3.59953 4.3173 0
M  V30 5916 H 565.786 -0.430258 2.07996 0
M  V30 5917 H 568.049 -0.252844 0.91366 0
M  V30 5918 H 567.755 -1.49479 3.18354 0
M  V30 5919 H 567.629 -2.99868 2.28821 0
M  V30 5920 H 570.016 -2.61093 1.3753 0
M  V30 5921 H 570.097 -1.10799 2.30559 0
M  V30 5922 H 569.741 -2.44383 4.45241 0
M  V30 5923 H 569.671 -3.94224 3.49134 0
M  V30 5924 H 572.162 -2.54529 2.79327 0
M  V30 5925 H 572.475 -4.72583 6.11461 0
M  V30 5926 H 570.82 -4.25557 5.49478 0
M  V30 5927 H 574.011 -3.09003 3.51617 0
M  V30 5928 H 574.184 -4.08455 5.03059 0
M  V30 5929 N 567.59 -1.07411 -1.15328 0
M  V30 5930 C 568.867 -0.710732 -1.82231 0
M  V30 5931 C 569.247 0.806732 -1.95077 0
M  V30 5932 O 568.595 1.72139 -1.50268 0
M  V30 5933 C 568.805 -1.42586 -3.18544 0
M  V30 5934 C 570.153 -1.57836 -3.94174 0
M  V30 5935 O 571.177 -1.38669 -3.281 0
M  V30 5936 O 570.036 -1.8938 -5.12638 0
M  V30 5937 H 567.13 -0.25297 -0.78736 0
M  V30 5938 H 569.676 -1.17508 -1.22434 0
M  V30 5939 H 568.448 -2.46008 -3.04296 0
M  V30 5940 H 568.071 -0.952332 -3.86026 0
M  V30 5941 N 569.068 1.32177 -0.85831 0
M  V30 5942 C 569.998 2.31282 -0.321041 0
M  V30 5943 C 570.979 1.59841 0.581786 0
M  V30 5944 O 572.164 1.87619 0.501262 0
M  V30 5945 C 569.294 3.4385 0.48832 0
M  V30 5946 C 568.248 4.26799 -0.320391 0
M  V30 5947 C 567.574 5.31164 0.613934 0
M  V30 5948 C 568.874 4.98829 -1.54813 0
M  V30 5949 H 570.568 2.76469 -1.14915 0
M  V30 5950 H 568.114 1.32916 -0.554028 0
M  V30 5951 H 570.067 4.12224 0.874626 0
M  V30 5952 H 568.791 2.97401 1.34983 0
M  V30 5953 H 567.45 3.60077 -0.688497 0
M  V30 5954 H 567.098 4.80967 1.47239 0
M  V30 5955 H 566.798 5.8755 0.0768097 0
M  V30 5956 H 568.322 6.024 0.997336 0
M  V30 5957 H 569.736 5.59864 -1.23392 0
M  V30 5958 H 568.133 5.64957 -2.02346 0
M  V30 5959 H 569.203 4.26483 -2.30739 0
M  V30 5960 N 570.547 0.616602 1.45037 0
M  V30 5961 C 571.793 0.115501 2.02471 0
M  V30 5962 C 572.126 -1.25406 1.4828 0
M  V30 5963 O 571.401 -1.82922 0.661051 0
M  V30 5964 C 571.684 0.0863588 3.59996 0
M  V30 5965 C 571.537 1.48723 4.24501 0
M  V30 5966 C 572.856 -0.596762 4.36035 0
M  V30 5967 H 569.975 0.0434461 0.735718 0
M  V30 5968 H 572.617 0.7903 1.72784 0
M  V30 5969 H 570.767 -0.488277 3.85419 0
M  V30 5970 H 572.439 2.10964 4.10234 0
M  V30 5971 H 570.682 2.04534 3.82555 0
M  V30 5972 H 571.353 1.419 5.3345 0
M  V30 5973 H 573.829 -0.10824 4.15959 0
M  V30 5974 H 572.705 -0.586289 5.4576 0
M  V30 5975 H 572.966 -1.66451 4.09569 0
M  V30 5976 N 572.025 -1.5352 0.356285 0
M  V30 5977 C 572.957 -2.23009 -0.529127 0
M  V30 5978 C 573.97 -1.241 -1.05371 0
M  V30 5979 O 575.159 -1.50379 -0.961679 0
M  V30 5980 C 572.259 -2.90685 -1.74229 0
M  V30 5981 C 571.432 -4.16019 -1.35081 0
M  V30 5982 C 570.491 -4.66989 -2.42502 0
M  V30 5983 O 569.517 -5.30895 -2.05279 0
M  V30 5984 N 570.719 -4.44006 -3.7395 0
M  V30 5985 H 573.484 -2.99627 0.0660501 0
M  V30 5986 H 571.045 -1.60885 0.181014 0
M  V30 5987 H 573.037 -3.21695 -2.4555 0
M  V30 5988 H 571.607 -2.17575 -2.24454 0
M  V30 5989 H 570.827 -3.91414 -0.467833 0
M  V30 5990 H 572.115 -4.9752 -1.06542 0
M  V30 5991 H 571.513 -3.92924 -4.06973 0
M  V30 5992 H 570.07 -4.7959 -4.41403 0
M  V30 5993 N 573.503 -0.0852151 -1.57369 0
M  V30 5994 C 574.919 0.271436 -1.57275 0
M  V30 5995 C 575.119 1.69109 -1.09565 0
M  V30 5996 O 574.175 2.40549 -0.767611 0
M  V30 5997 C 575.488 0.0688638 -3.00621 0
M  V30 5998 C 577.036 0.137373 -3.12698 0
M  V30 5999 C 577.511 -0.0370832 -4.57985 0
M  V30 6000 N 579.002 0.0180794 -4.63196 0
M  V30 6001 C 579.737 -0.0922953 -5.73326 0
M  V30 6002 N 579.233 -0.256948 -6.92323 0
M  V30 6003 N 581.026 -0.0342702 -5.6209 0
M  V30 6004 H 573.177 -1.01288 -1.86693 0
M  V30 6005 H 575.44 -0.396138 -0.861266 0
M  V30 6006 H 575.146 -0.911277 -3.39689 0
M  V30 6007 H 575.02 0.815442 -3.6828 0
M  V30 6008 H 577.407 1.10801 -2.73509 0
M  V30 6009 H 577.488 -0.640532 -2.47651 0
M  V30 6010 H 577.132 -1.00455 -4.97867 0
M  V30 6011 H 577.062 0.760392 -5.21081 0
M  V30 6012 H 579.553 0.143202 -3.77629 0
M  V30 6013 H 579.866 -0.332949 -7.72082 0
M  V30 6014 H 578.211 -0.292487 -6.94384 0
M  V30 6015 H 581.402 0.0931605 -4.68007 0
M  V30 6016 H 581.575 -0.12374 -6.47882 0
M  V30 6017 N 574.981 1.5647 0.188427 0
M  V30 6018 C 575.891 1.98285 1.2538 0
M  V30 6019 C 576.907 0.891535 1.49424 0
M  V30 6020 O 578.083 1.19782 1.61908 0
M  V30 6021 C 575.148 2.31965 2.57669 0
M  V30 6022 C 574.209 3.54838 2.41638 0
M  V30 6023 C 573.442 3.86901 3.67618 0
M  V30 6024 O 573.665 3.20163 4.72072 0
M  V30 6025 O 572.599 4.80309 3.62749 0
M  V30 6026 H 576.425 2.89145 0.928912 0
M  V30 6027 H 574.01 1.44112 0.393955 0
M  V30 6028 H 575.892 2.54673 3.35737 0
M  V30 6029 H 574.567 1.44271 2.89771 0
M  V30 6030 H 573.474 3.37369 1.61658 0
M  V30 6031 H 574.807 4.43019 2.14465 0
M  V30 6032 N 576.459 -0.456382 1.50847 0
M  V30 6033 C 577.687 -1.23026 1.66349 0
M  V30 6034 C 578.102 -1.85473 0.352868 0
M  V30 6035 O 577.459 -1.69885 -0.666739 0
M  V30 6036 C 577.51 -2.32827 2.76539 0
M  V30 6037 O 577.231 -1.72938 4.02522 0
M  V30 6038 C 578.732 -3.23448 3.03144 0
M  V30 6039 H 575.952 -0.371527 0.558756 0
M  V30 6040 H 578.496 -0.543082 1.97157 0
M  V30 6041 H 576.651 -2.97294 2.48384 0
M  V30 6042 H 577.065 -2.45357 4.63573 0
M  V30 6043 H 578.539 -3.96669 3.83872 0
M  V30 6044 H 579.016 -3.83094 2.14793 0
M  V30 6045 H 579.622 -2.64702 3.32886 0
M  V30 6046 N 577.937 -1.40673 -0.710563 0
M  V30 6047 C 579.185 -1.38947 -1.46759 0
M  V30 6048 C 579.506 0.00572879 -1.94999 0
M  V30 6049 O 578.776 0.961358 -1.70689 0
M  V30 6050 H 577.356 -0.5114 -0.544499 0
M  V30 6051 H 580.018 -1.75773 -0.842012 0
M  V30 6052 H 579.114 -2.06745 -2.33801 0
M  V30 6053 N 579.415 0.9433 -1.26252 0
M  V30 6054 C 580.362 2.0417 -1.07625 0
M  V30 6055 C 581.332 1.6609 0.0180738 0
M  V30 6056 O 582.517 1.90276 -0.141289 0
M  V30 6057 C 579.657 3.37653 -0.713043 0
M  V30 6058 C 578.77 3.88783 -1.8834 0
M  V30 6059 C 577.905 5.10642 -1.4635 0
M  V30 6060 C 576.944 5.54028 -2.60229 0
M  V30 6061 N 576.081 6.67092 -2.18936 0
M  V30 6062 H 580.921 2.19436 -2.01623 0
M  V30 6063 H 578.458 1.07519 -1.00389 0
M  V30 6064 H 580.416 4.14391 -0.483358 0
M  V30 6065 H 579.046 3.22241 0.18996 0
M  V30 6066 H 578.098 3.08464 -2.22608 0
M  V30 6067 H 579.41 4.16922 -2.73821 0
M  V30 6068 H 578.564 5.94832 -1.19414 0
M  V30 6069 H 577.303 4.84244 -0.579568 0
M  V30 6070 H 576.308 4.68396 -2.87898 0
M  V30 6071 H 577.533 5.82429 -3.49219 0
M  V30 6072 H 575.479 6.42381 -1.32974 0
M  V30 6073 H 575.396 6.94806 -2.97961 0
M  V30 6074 H 576.664 7.54662 -1.95206 0
M  V30 6075 N 580.893 1.08022 1.14757 0
M  V30 6076 C 581.823 0.728248 2.21853 0
M  V30 6077 C 582.804 -0.287486 1.67653 0
M  V30 6078 O 583.989 -0.158727 1.9355 0
M  V30 6079 C 581.119 0.132549 3.47047 0
M  V30 6080 C 580.073 1.07619 4.14249 0
M  V30 6081 C 579.399 0.342907 5.33599 0
M  V30 6082 C 580.699 2.41268 4.63235 0
M  V30 6083 H 582.393 1.62365 2.51551 0
M  V30 6084 H 579.939 0.782125 1.20908 0
M  V30 6085 H 581.892 -0.125665 4.21213 0
M  V30 6086 H 580.616 -0.797971 3.16702 0
M  V30 6087 H 579.275 1.31944 3.42033 0
M  V30 6088 H 578.923 -0.59129 4.99513 0
M  V30 6089 H 578.623 0.971955 5.79506 0
M  V30 6090 H 580.147 0.0926538 6.1053 0
M  V30 6091 H 581.561 2.21232 5.28894 0
M  V30 6092 H 579.958 2.9983 5.19829 0
M  V30 6093 H 581.028 3.03079 3.78512 0
M  V30 6094 N 582.371 -1.3172 0.865308 0
M  V30 6095 C 583.648 -1.91574 0.394789 0
M  V30 6096 C 584.028 -1.78769 -1.12271 0
M  V30 6097 O 583.376 -1.19245 -1.94918 0
M  V30 6098 C 583.586 -3.37957 0.870982 0
M  V30 6099 C 584.934 -4.15073 0.894384 0
M  V30 6100 O 585.958 -3.4672 0.816325 0
M  V30 6101 O 584.817 -5.37151 1.00651 0
M  V30 6102 H 581.911 -0.818649 0.117229 0
M  V30 6103 H 584.457 -1.4042 0.952913 0
M  V30 6104 H 583.229 -3.41269 1.91444 0
M  V30 6105 H 582.852 -3.96534 0.290907 0
M  V30 6106 N 583.85 -0.624285 -1.44708 0
M  V30 6107 C 585.098 -0.125802 -2.01708 0
M  V30 6108 C 585.418 1.2543 -1.49306 0
M  V30 6109 O 584.689 1.83198 -0.693924 0
M  V30 6110 H 583.269 -0.0435161 -0.745731 0
M  V30 6111 H 585.931 -0.809446 -1.77296 0
M  V30 6112 H 585.027 -0.0882734 -3.11975 0
M  V30 6113 N 585.328 1.53329 -0.364422 0
M  V30 6114 C 586.739 1.86345 0.115039 0
M  V30 6115 C 587.09 1.28505 1.4826 0
M  V30 6116 O 586.215 0.606639 2.07723 0
M  V30 6117 C 586.81 3.38114 0.215522 0
M  V30 6118 C 585.369 3.70932 0.639237 0
M  V30 6119 C 584.516 2.76471 -0.214261 0
M  V30 6120 H 587.467 1.47593 -0.583258 0
M  V30 6121 H 587.488 3.66031 1.0393 0
M  V30 6122 H 587 3.80182 -0.779948 0
M  V30 6123 H 585.101 3.3442 1.64298 0
M  V30 6124 H 585.214 4.77302 0.41465 0
M  V30 6125 H 583.578 2.52724 0.316678 0
M  V30 6126 H 584.361 3.21373 -1.20725 0
M  V30 6127 N 586.806 0.0935595 1.57322 0
M  V30 6128 C 588.083 -0.612692 1.85756 0
M  V30 6129 C 588.463 -1.86439 0.99013 0
M  V30 6130 O 587.811 -2.28416 0.0621362 0
M  V30 6131 C 588.021 -0.929547 3.36393 0
M  V30 6132 C 589.369 -1.29366 4.04413 0
M  V30 6133 O 590.393 -1.02061 3.41265 0
M  V30 6134 O 589.252 -1.80498 5.15832 0
M  V30 6135 H 586.346 -0.306444 0.768128 0
M  V30 6136 H 588.892 0.126141 1.69231 0
M  V30 6137 H 587.664 -0.0414766 3.91278 0
M  V30 6138 H 587.287 -1.72441 3.5826 0
M  V30 6139 N 588.284 -1.56567 -0.180126 0
M  V30 6140 C 589.231 -1.95725 -1.22313 0
M  V30 6141 C 590.201 -0.819911 -1.44453 0
M  V30 6142 O 591.386 -1.07931 -1.57339 0
M  V30 6143 C 588.526 -2.31484 -2.55947 0
M  V30 6144 C 587.639 -3.58354 -2.4126 0
M  V30 6145 C 586.774 -3.83366 -3.67701 0
M  V30 6146 C 585.813 -5.03612 -3.47909 0
M  V30 6147 N 584.95 -5.24802 -4.66398 0
M  V30 6148 H 589.79 -2.84642 -0.882198 0
M  V30 6149 H 587.327 -1.4085 -0.42422 0
M  V30 6150 H 589.285 -2.50237 -3.33822 0
M  V30 6151 H 587.915 -1.45689 -2.88053 0
M  V30 6152 H 586.967 -3.47565 -1.54606 0
M  V30 6153 H 588.279 -4.46386 -2.22577 0
M  V30 6154 H 587.433 -4.02439 -4.54013 0
M  V30 6155 H 586.172 -2.93692 -3.89353 0
M  V30 6156 H 585.177 -4.84447 -2.59983 0
M  V30 6157 H 586.402 -5.94809 -3.27688 0
M  V30 6158 H 584.348 -4.38079 -4.88286 0
M  V30 6159 H 584.265 -6.07041 -4.50596 0
M  V30 6160 H 585.533 -5.48346 -5.54019 0
M  V30 6161 O 589.801 0.325198 -1.58192 0
M  V30 6162 H 590.492 0.973777 -1.67443 0
M  V30 END ATOM
M  V30 BEGIN BOND
M  V30 END BOND
M  V30 END CTAB
M  END
$$$$
