drugbank_target|Q9NUB1 Acetyl-coenzyme A synthetase 2-like, mitochondrial (DB00171)
 OpenBabel12092119393D

  0  0  0     0  0            999 V3000
M  V30 BEGIN CTAB
M  V30 COUNTS 10498 10623 0 0 0
M  V30 BEGIN ATOM
M  V30 1 H -0.908 1.98254 -0.117106 0
M  V30 2 N 0 1.576 0 0
M  V30 3 C 0.933 2.03868 1.02534 0
M  V30 4 C 1.911 0.928543 1.3348 0
M  V30 5 O 3.095 1.19667 1.45644 0
M  V30 6 C 0.222 2.43627 2.35294 0
M  V30 7 C -0.732 3.65373 2.2001 0
M  V30 8 S 0.101 5.13292 1.52614 0
M  V30 9 C 1.257 5.56322 2.86805 0
M  V30 10 H 1.49 2.90518 0.631377 0
M  V30 11 H -0.977 1.52953 0.210867 0
M  V30 12 H 0.981 2.67203 3.11629 0
M  V30 13 H -0.358 1.57376 2.7183 0
M  V30 14 H -1.165 3.90944 3.18086 0
M  V30 15 H -1.563 3.418 1.51819 0
M  V30 16 H 0.729 5.58782 3.83104 0
M  V30 17 H 1.672 6.56266 2.65933 0
M  V30 18 H 2.08 4.83886 2.90714 0
M  V30 19 N 1.4781 -0.272755 1.55222 0
M  V30 20 C 2.4411 -1.32041 1.87344 0
M  V30 21 C 3.4411 -1.42342 0.74803 0
M  V30 22 O 4.6311 -1.41488 1.0162 0
M  V30 23 C 1.7631 -2.70173 2.07893 0
M  V30 24 H 2.9561 -1.04789 2.80997 0
M  V30 25 H 0.5091 -0.51083 1.47717 0
M  V30 26 H 1.2441 -3.02605 1.16622 0
M  V30 27 H 1.0291 -2.64082 2.89833 0
M  V30 28 H 2.5191 -3.45869 2.34017 0
M  V30 29 N 2.9562 -1.48159 -0.537278 0
M  V30 30 C 3.9192 -1.61665 -1.62472 0
M  V30 31 C 4.9192 -0.490395 -1.5314 0
M  V30 32 O 6.1092 -0.755998 -1.5694 0
M  V30 33 C 3.2412 -1.57997 -3.02076 0
M  V30 34 H 4.4342 -2.58621 -1.51839 0
M  V30 35 H 1.9872 -1.36647 -0.758771 0
M  V30 36 H 2.7222 -0.624913 -3.18222 0
M  V30 37 H 2.5072 -2.39755 -3.10258 0
M  V30 38 H 3.9972 -1.70627 -3.81151 0
M  V30 39 N 4.4343 0.785586 -1.36625 0
M  V30 40 C 5.8503 1.08419 -1.17122 0
M  V30 41 C 6.0503 2.015 0.00208491 0
M  V30 42 O 5.1063 2.43551 0.666278 0
M  V30 43 C 6.4193 1.69498 -2.48377 0
M  V30 44 C 7.9673 1.81821 -2.54775 0
M  V30 45 C 8.4423 2.46315 -3.86126 0
M  V30 46 N 9.9333 2.53779 -3.87492 0
M  V30 47 C 10.6683 3.045 -4.85868 0
M  V30 48 N 10.1643 3.55499 -5.94637 0
M  V30 49 N 11.9573 3.03247 -4.73284 0
M  V30 50 H 4.1083 0.167264 -2.1174 0
M  V30 51 H 6.3713 0.13682 -0.938075 0
M  V30 52 H 6.0773 1.08571 -3.34522 0
M  V30 53 H 5.9513 2.6896 -2.64462 0
M  V30 54 H 8.3383 2.41884 -1.69045 0
M  V30 55 H 8.4193 0.811532 -2.42586 0
M  V30 56 H 8.0633 1.86895 -4.72263 0
M  V30 57 H 7.9933 3.47561 -3.95612 0
M  V30 58 H 10.4843 2.17672 -3.08913 0
M  V30 59 H 10.7973 3.92562 -6.65669 0
M  V30 60 H 9.1423 3.5364 -5.98301 0
M  V30 61 H 12.3333 2.62696 -3.87438 0
M  V30 62 H 12.5063 3.42467 -5.50109 0
M  V30 63 N 5.9124 1.20967 1.01018 0
M  V30 64 C 7.1404 1.04956 1.78303 0
M  V30 65 C 7.5554 -0.400915 1.84494 0
M  V30 66 O 6.9124 -1.27826 1.30257 0
M  V30 67 C 6.9634 1.63403 3.22462 0
M  V30 68 O 6.6844 3.02775 3.16637 0
M  V30 69 C 8.1854 1.52432 4.16268 0
M  V30 70 H 5.4054 0.368858 0.560522 0
M  V30 71 H 7.9494 1.60193 1.27116 0
M  V30 72 H 6.1044 1.1227 3.70775 0
M  V30 73 H 6.5184 3.30626 4.07169 0
M  V30 74 H 7.9924 1.98078 5.15237 0
M  V30 75 H 8.4694 0.477875 4.36592 0
M  V30 76 H 9.0754 2.02787 3.73841 0
M  V30 77 N 7.3905 -1.2043 1.01659 0
M  V30 78 C 8.3205 -2.25466 0.607226 0
M  V30 79 C 9.3015 -1.65853 -0.377716 0
M  V30 80 O 10.4865 -1.92409 -0.263149 0
M  V30 81 C 7.6165 -3.47256 -0.0552949 0
M  V30 82 C 6.5705 -4.19462 0.850632 0
M  V30 83 C 5.8965 -5.34673 0.0538859 0
M  V30 84 C 7.1965 -4.75603 2.15868 0
M  V30 85 H 8.8905 -2.59962 1.48526 0
M  V30 86 H 6.4365 -1.2496 0.715605 0
M  V30 87 H 8.3895 -4.19917 -0.353233 0
M  V30 88 H 7.1135 -3.11924 -0.968045 0
M  V30 89 H 5.7725 -3.48667 1.13257 0
M  V30 90 H 5.4205 -4.95585 -0.860514 0
M  V30 91 H 5.1205 -5.83913 0.657192 0
M  V30 92 H 6.6445 -6.10138 -0.237598 0
M  V30 93 H 8.0585 -5.40083 1.92311 0
M  V30 94 H 6.4555 -5.3528 2.71284 0
M  V30 95 H 7.5255 -3.94346 2.82169 0
M  V30 96 N 8.8686 -0.792821 -1.36206 0
M  V30 97 C 10.1166 -0.366062 -1.98757 0
M  V30 98 C 10.4376 1.0668 -1.63231 0
M  V30 99 O 9.7076 1.73587 -0.907978 0
M  V30 100 H 8.2876 -0.132364 -0.735179 0
M  V30 101 H 10.9496 -1.01562 -1.66347 0
M  V30 102 H 10.0456 -0.460638 -3.08682 0
M  V30 103 N 10.3467 1.47872 -0.545128 0
M  V30 104 C 11.7627 1.5829 -0.204032 0
M  V30 105 C 11.9627 1.54529 1.29317 0
M  V30 106 O 11.0187 1.44232 2.07252 0
M  V30 107 C 12.3317 2.89304 -0.819987 0
M  V30 108 C 13.8797 3.02864 -0.790105 0
M  V30 109 C 14.3547 4.3656 -1.38491 0
M  V30 110 N 15.8457 4.43165 -1.34755 0
M  V30 111 C 16.5807 5.45153 -1.77753 0
M  V30 112 N 16.0767 6.54016 -2.2855 0
M  V30 113 N 17.8697 5.36125 -1.68897 0
M  V30 114 H 10.0207 1.4856 -1.51802 0
M  V30 115 H 12.2837 0.706305 -0.632327 0
M  V30 116 H 11.9897 2.97757 -1.87173 0
M  V30 117 H 11.8637 3.75957 -0.305915 0
M  V30 118 H 14.2507 2.94014 0.252913 0
M  V30 119 H 14.3317 2.17782 -1.34181 0
M  V30 120 H 13.9757 4.46164 -2.42693 0
M  V30 121 H 13.9057 5.20353 -0.808754 0
M  V30 122 H 16.3967 3.65083 -0.975855 0
M  V30 123 H 16.7097 7.27994 -2.59314 0
M  V30 124 H 15.0547 6.54938 -2.32553 0
M  V30 125 H 18.2457 4.49975 -1.28998 0
M  V30 126 H 18.4187 6.15472 -2.02726 0
M  V30 127 N 11.8248 0.280983 1.55075 0
M  V30 128 C 13.0728 -0.333455 1.9933 0
M  V30 129 C 13.3938 -1.55937 1.17085 0
M  V30 130 O 12.6638 -1.94143 0.261805 0
M  V30 131 H 11.2438 -0.126197 0.736263 0
M  V30 132 H 13.9058 0.387678 1.91005 0
M  V30 133 H 13.0018 -0.619292 3.05894 0
M  V30 134 N 13.3029 -1.57598 0.00835791 0
M  V30 135 C 14.5489 -1.91211 -0.675732 0
M  V30 136 C 14.8819 -0.883139 -1.72958 0
M  V30 137 O 14.1569 0.097016 -1.94258 0
M  V30 138 C 14.4399 -3.35379 -1.31123 0
M  V30 139 C 14.2929 -4.48999 -0.268356 0
M  V30 140 C 15.6119 -3.7912 -2.23508 0
M  V30 141 H 12.7309 -0.695374 -0.244179 0
M  V30 142 H 15.3729 -1.89901 0.0613655 0
M  V30 143 H 13.5229 -3.36626 -1.93946 0
M  V30 144 H 15.1949 -4.59887 0.360844 0
M  V30 145 H 13.4379 -4.31873 0.408482 0
M  V30 146 H 14.1089 -5.46851 -0.752218 0
M  V30 147 H 16.5849 -3.79477 -1.70693 0
M  V30 148 H 15.4609 -4.80729 -2.64936 0
M  V30 149 H 15.7219 -3.13455 -3.11766 0
M  V30 150 N 14.781 0.264519 -1.55364 0
M  V30 151 C 16.029 0.993021 -1.76021 0
M  V30 152 C 16.35 1.86511 -0.569099 0
M  V30 153 O 15.62 1.91438 0.415735 0
M  V30 154 H 14.2 0.369639 -0.649135 0
M  V30 155 H 16.862 0.286707 -1.9278 0
M  V30 156 H 15.958 1.62502 -2.66457 0
M  V30 157 N 16.2591 1.48442 0.529413 0
M  V30 158 C 17.6751 1.34575 0.858004 0
M  V30 159 C 17.8751 0.3572 1.98309 0
M  V30 160 O 16.9311 -0.221379 2.51528 0
M  V30 161 C 18.2441 2.74617 1.22499 0
M  V30 162 C 19.7921 2.83109 1.33484 0
M  V30 163 C 20.2671 4.23854 1.73526 0
M  V30 164 N 21.7581 4.2653 1.80628 0
M  V30 165 C 22.4931 5.32372 2.12997 0
M  V30 166 N 21.9891 6.48491 2.43786 0
M  V30 167 N 23.7821 5.19766 2.14008 0
M  V30 168 H 15.9331 2.1133 -0.212925 0
M  V30 169 H 18.1961 0.947439 -0.0326199 0
M  V30 170 H 17.9021 3.4852 0.471905 0
M  V30 171 H 17.7761 3.08177 2.17501 0
M  V30 172 H 20.1631 2.09462 2.0787 0
M  V30 173 H 20.2441 2.53168 0.366027 0
M  V30 174 H 19.8881 4.98018 0.997013 0
M  V30 175 H 19.8181 4.5124 2.71459 0
M  V30 176 H 22.3091 3.42772 1.59108 0
M  V30 177 H 22.6221 7.24993 2.67592 0
M  V30 178 H 20.9671 6.51765 2.41304 0
M  V30 179 H 24.1581 4.28066 1.89412 0
M  V30 180 H 24.3311 6.02354 2.38902 0
M  V30 181 N 17.7372 -0.778329 1.37039 0
M  V30 182 C 18.6672 -1.90546 1.34962 0
M  V30 183 C 19.6482 -1.68681 0.219274 0
M  V30 184 O 20.8332 -1.89634 0.418624 0
M  V30 185 C 17.9632 -3.27734 1.14925 0
M  V30 186 C 16.9172 -3.64147 2.24902 0
M  V30 187 C 16.2432 -4.99806 1.89996 0
M  V30 188 C 17.5432 -3.71579 3.67051 0
M  V30 189 H 19.2372 -1.92541 2.29277 0
M  V30 190 H 16.7832 -0.924948 1.10366 0
M  V30 191 H 18.7362 -4.06215 1.12104 0
M  V30 192 H 17.4602 -3.26154 0.170631 0
M  V30 193 H 16.1192 -2.8797 2.26868 0
M  V30 194 H 15.7672 -4.94759 0.906796 0
M  V30 195 H 15.4672 -5.25139 2.63634 0
M  V30 196 H 16.9912 -5.80694 1.88749 0
M  V30 197 H 18.4052 -4.40227 3.67251 0
M  V30 198 H 16.8022 -4.08405 4.39688 0
M  V30 199 H 17.8722 -2.72404 4.01154 0
M  V30 200 N 19.2153 -1.21501 -1.00376 0
M  V30 201 C 20.1453 -0.999478 -2.11028 0
M  V30 202 C 21.1263 0.0759671 -1.6993 0
M  V30 203 O 22.3113 -0.0841106 -1.94018 0
M  V30 204 C 19.4413 -0.564709 -3.42678 0
M  V30 205 C 18.3953 -1.58486 -3.97576 0
M  V30 206 C 17.7213 -1.00628 -5.25146 0
M  V30 207 C 19.0213 -2.97204 -4.29496 0
M  V30 208 H 20.7153 -1.92495 -2.29317 0
M  V30 209 H 18.2613 -0.92693 -1.102 0
M  V30 210 H 20.2143 -0.401091 -4.19487 0
M  V30 211 H 18.9383 0.396411 -3.24185 0
M  V30 212 H 17.5973 -1.73606 -3.22888 0
M  V30 213 H 17.2453 -0.0368439 -5.02987 0
M  V30 214 H 16.9453 -1.68771 -5.62841 0
M  V30 215 H 18.4693 -0.854015 -6.04598 0
M  V30 216 H 19.8833 -2.8552 -4.97143 0
M  V30 217 H 18.2803 -3.62372 -4.78338 0
M  V30 218 H 19.3503 -3.47956 -3.3772 0
M  V30 219 N 20.6934 1.19889 -1.02296 0
M  V30 220 C 21.9414 1.89046 -0.714558 0
M  V30 221 C 22.2624 1.79636 0.758681 0
M  V30 222 O 21.5324 1.20292 1.54618 0
M  V30 223 H 20.1124 0.699802 -0.261317 0
M  V30 224 H 22.7744 1.45574 -1.29592 0
M  V30 225 H 21.8704 2.95524 -1.0036 0
M  V30 226 N 22.1715 0.800033 1.35784 0
M  V30 227 C 23.3965 0.388511 2.03729 0
M  V30 228 C 23.8215 -0.990481 1.5991 0
M  V30 229 O 23.1795 -1.64013 0.772612 0
M  V30 230 C 23.2275 0.4726 3.5749 0
M  V30 231 O 22.3315 -0.51646 4.09153 0
M  V30 232 H 21.6725 0.163271 0.643614 0
M  V30 233 H 24.2025 1.0841 1.73518 0
M  V30 234 H 24.2125 0.34003 4.06581 0
M  V30 235 H 22.8875 1.47848 3.88734 0
M  V30 236 H 21.4645 -0.344673 3.71304 0
M  V30 237 N 23.6496 -1.47581 0.552962 0
M  V30 238 C 24.5796 -2.32762 -0.185451 0
M  V30 239 C 25.5606 -1.43527 -0.912905 0
M  V30 240 O 26.7456 -1.72388 -0.894201 0
M  V30 241 C 23.8756 -3.25219 -1.21859 0
M  V30 242 C 22.8296 -4.23661 -0.607864 0
M  V30 243 C 22.1556 -5.05413 -1.74533 0
M  V30 244 C 23.4556 -5.20481 0.435582 0
M  V30 245 H 25.1496 -2.94749 0.525684 0
M  V30 246 H 22.6956 -1.41738 0.254251 0
M  V30 247 H 24.6486 -3.8365 -1.7433 0
M  V30 248 H 23.3726 -2.61279 -1.95961 0
M  V30 249 H 22.0316 -3.66451 -0.104489 0
M  V30 250 H 21.6796 -4.3788 -2.47529 0
M  V30 251 H 21.3796 -5.72059 -1.34249 0
M  V30 252 H 22.9036 -5.66701 -2.27338 0
M  V30 253 H 24.3176 -5.733 -0.00290157 0
M  V30 254 H 22.7146 -5.95305 0.757067 0
M  V30 255 H 23.7846 -4.66217 1.33303 0
M  V30 256 N 25.1277 -0.289203 -1.54924 0
M  V30 257 C 26.5437 0.0645403 -1.59469 0
M  V30 258 C 26.7437 1.53419 -1.30632 0
M  V30 259 O 25.7997 2.2852 -1.074 0
M  V30 260 C 27.1127 -0.32278 -2.98963 0
M  V30 261 C 28.6607 -0.270564 -3.11828 0
M  V30 262 C 29.1357 -0.632532 -4.53611 0
M  V30 263 N 30.6267 -0.584617 -4.59496 0
M  V30 264 C 31.3617 -0.837314 -5.67254 0
M  V30 265 N 30.8577 -1.15536 -6.83098 0
M  V30 266 N 32.6507 -0.765166 -5.56868 0
M  V30 267 H 24.8017 -1.24714 -1.71931 0
M  V30 268 H 27.0647 -0.504809 -0.802416 0
M  V30 269 H 26.7707 -1.34541 -3.24948 0
M  V30 270 H 26.6447 0.32944 -3.75759 0
M  V30 271 H 29.0317 0.742805 -2.85598 0
M  V30 272 H 29.1127 -0.957242 -2.37214 0
M  V30 273 H 28.7567 -1.64365 -4.80569 0
M  V30 274 H 28.6867 0.07609 -5.26545 0
M  V30 275 H 31.1777 -0.349248 -3.76283 0
M  V30 276 H 31.4907 -1.33447 -7.61191 0
M  V30 277 H 29.8357 -1.19328 -6.84679 0
M  V30 278 H 33.0267 -0.516432 -4.65243 0
M  V30 279 H 33.1997 -0.965477 -6.40767 0
M  V30 280 N 26.6058 1.57591 -0.0167156 0
M  V30 281 C 27.8538 1.90906 0.663285 0
M  V30 282 C 28.1748 0.892509 1.73376 0
M  V30 283 O 27.4448 -0.0677623 1.95783 0
M  V30 284 H 26.0248 0.704637 0.247983 0
M  V30 285 H 28.6868 1.94803 -0.0615909 0
M  V30 286 H 27.7828 2.9116 1.12393 0
M  V30 287 N 28.0839 -0.256276 1.55502 0
M  V30 288 C 29.0139 -1.32102 1.92539 0
M  V30 289 C 29.9949 -1.50684 0.789194 0
M  V30 290 O 31.1799 -1.63449 1.04872 0
M  V30 291 C 28.3099 -2.67752 2.21192 0
M  V30 292 C 27.2639 -2.63878 3.36975 0
M  V30 293 C 26.5899 -4.03236 3.51147 0
M  V30 294 C 27.8899 -2.21682 4.72921 0
M  V30 295 H 29.5839 -1.01351 2.81724 0
M  V30 296 H 27.1299 -0.486105 1.35547 0
M  V30 297 H 29.0829 -3.42365 2.45691 0
M  V30 298 H 27.8069 -3.0012 1.28824 0
M  V30 299 H 26.4659 -1.91722 3.12471 0
M  V30 300 H 26.1139 -4.32854 2.56216 0
M  V30 301 H 25.8139 -4.01535 4.29003 0
M  V30 302 H 27.3379 -4.79563 3.77957 0
M  V30 303 H 28.7519 -2.86023 4.96854 0
M  V30 304 H 27.1489 -2.3111 5.53812 0
M  V30 305 H 28.2189 -1.16833 4.70615 0
M  V30 306 N 29.562 -1.4872 -0.521534 0
M  V30 307 C 30.787 -1.61101 -1.30618 0
M  V30 308 C 31.212 -0.274611 -1.86085 0
M  V30 309 O 30.57 0.754937 -1.64834 0
M  V30 310 C 30.618 -2.66709 -2.4269 0
M  V30 311 O 29.722 -2.24456 -3.45967 0
M  V30 312 H 29.063 -0.539921 -0.386499 0
M  V30 313 H 31.593 -1.94767 -0.626645 0
M  V30 314 H 31.603 -2.88245 -2.88754 0
M  V30 315 H 30.278 -3.63727 -2.01682 0
M  V30 316 H 28.855 -2.13168 -3.05964 0
M  V30 317 N 31.0401 0.771051 -1.3745 0
M  V30 318 C 32.2881 1.52661 -1.32435 0
M  V30 319 C 32.6091 1.9479 0.0905024 0
M  V30 320 O 31.8791 1.66348 1.03466 0
M  V30 321 H 30.4591 0.566218 -0.487244 0
M  V30 322 H 33.1211 0.917636 -1.71946 0
M  V30 323 H 32.2171 2.42568 -1.96385 0
M  V30 324 N 32.5182 1.22032 0.997298 0
M  V30 325 C 33.4502 0.944263 2.08845 0
M  V30 326 C 34.4632 -0.0754663 1.62625 0
M  V30 327 O 35.6522 0.157994 1.77799 0
M  V30 328 C 32.7522 0.397723 3.36558 0
M  V30 329 C 31.9252 1.47362 4.11829 0
M  V30 330 C 30.9842 0.934951 5.17827 0
M  V30 331 O 30.0102 1.62016 5.45655 0
M  V30 332 N 31.2122 -0.245895 5.79979 0
M  V30 333 H 33.9772 1.88363 2.33109 0
M  V30 334 H 31.5382 1.12661 1.16272 0
M  V30 335 H 33.5302 0.0227771 4.04694 0
M  V30 336 H 32.1002 -0.446646 3.09393 0
M  V30 337 H 31.3202 2.02208 3.38386 0
M  V30 338 H 32.6082 2.19764 4.58891 0
M  V30 339 H 32.0062 -0.819475 5.59733 0
M  V30 340 H 30.5632 -0.562272 6.4937 0
M  V30 341 N 33.9963 -1.19345 1.0293 0
M  V30 342 C 35.4073 -1.70725 0.755633 0
M  V30 343 C 35.7583 -1.82326 -0.724676 0
M  V30 344 O 34.8833 -1.49471 -1.56484 0
M  V30 345 C 35.4783 -3.10084 1.36503 0
M  V30 346 C 34.0373 -3.58723 1.13994 0
M  V30 347 C 33.1843 -2.35577 1.46283 0
M  V30 348 H 36.1353 -1.0418 1.19718 0
M  V30 349 H 36.1563 -3.72787 0.762217 0
M  V30 350 H 35.6683 -3.01609 2.44241 0
M  V30 351 H 33.7693 -3.72512 0.0807901 0
M  V30 352 H 33.8823 -4.42816 1.82894 0
M  V30 353 H 32.2463 -2.38935 0.88217 0
M  V30 354 H 33.0293 -2.29731 2.55105 0
M  V30 355 N 35.4744 -0.807222 -1.35358 0
M  V30 356 C 36.4374 -0.223665 -2.28106 0
M  V30 357 C 37.4374 0.589354 -1.4961 0
M  V30 358 O 38.6274 0.407745 -1.69361 0
M  V30 359 C 35.7594 0.688149 -3.33882 0
M  V30 360 H 36.9524 -1.04169 -2.81227 0
M  V30 361 H 34.5054 -0.577921 -1.45223 0
M  V30 362 H 35.2404 1.52984 -2.85948 0
M  V30 363 H 35.0254 0.10687 -3.91954 0
M  V30 364 H 36.5154 1.09075 -4.03104 0
M  V30 365 N 36.9525 1.47285 -0.560781 0
M  V30 366 C 38.3685 1.58065 -0.22081 0
M  V30 367 C 38.5685 1.55892 1.27671 0
M  V30 368 O 37.6245 1.46422 2.0571 0
M  V30 369 C 38.9375 2.88418 -0.850625 0
M  V30 370 C 40.4855 3.02009 -0.822184 0
M  V30 371 C 40.9605 4.35066 -1.43113 0
M  V30 372 N 42.4515 4.41711 -1.39448 0
M  V30 373 C 43.1865 5.43237 -1.83525 0
M  V30 374 N 42.6825 6.51555 -2.35474 0
M  V30 375 N 44.4755 5.34304 -1.74574 0
M  V30 376 H 36.6265 1.46941 -1.53369 0
M  V30 377 H 38.8895 0.699558 -0.639783 0
M  V30 378 H 38.5955 2.95755 -1.9032 0
M  V30 379 H 38.4695 3.75612 -0.345773 0
M  V30 380 H 40.8565 2.94266 0.221714 0
M  V30 381 H 40.9375 2.16347 -1.36483 0
M  V30 382 H 40.5815 4.43565 -2.47412 0
M  V30 383 H 40.5115 5.19465 -0.863899 0
M  V30 384 H 43.0025 3.64027 -1.01452 0
M  V30 385 H 43.3155 7.25203 -2.67021 0
M  V30 386 H 41.6605 6.52435 -2.39487 0
M  V30 387 H 44.8515 4.48581 -1.33763 0
M  V30 388 H 45.0245 6.13288 -2.09242 0
M  V30 389 N 38.4306 0.297415 1.54768 0
M  V30 390 C 39.8416 -0.195947 1.85669 0
M  V30 391 C 40.1926 -1.53707 1.21937 0
M  V30 392 O 39.3176 -2.10164 0.515754 0
M  V30 393 C 39.9126 -0.362318 3.36857 0
M  V30 394 C 38.4716 -0.799901 3.67802 0
M  V30 395 C 37.6186 0.0938578 2.77141 0
M  V30 396 H 40.5696 0.518538 1.4999 0
M  V30 397 H 40.5906 -1.19745 3.61167 0
M  V30 398 H 40.1026 0.613921 3.83214 0
M  V30 399 H 38.2036 -1.78682 3.26961 0
M  V30 400 H 38.3166 -0.621773 4.75048 0
M  V30 401 H 36.6806 -0.426254 2.51108 0
M  V30 402 H 37.4636 1.06639 3.26318 0
M  V30 403 N 39.9087 -1.5758 0.0250728 0
M  V30 404 C 41.3197 -1.79476 -0.514323 0
M  V30 405 C 41.6707 -0.934956 -1.72491 0
M  V30 406 O 40.7957 -0.144245 -2.15919 0
M  V30 407 C 41.3907 -3.25503 -0.939842 0
M  V30 408 C 39.9497 -3.48408 -1.42438 0
M  V30 409 C 39.0967 -2.74583 -0.387201 0
M  V30 410 H 42.0477 -1.567 0.25113 0
M  V30 411 H 42.0687 -3.34992 -1.80445 0
M  V30 412 H 41.5807 -3.88056 -0.0585628 0
M  V30 413 H 39.6817 -2.91103 -2.32572 0
M  V30 414 H 39.7947 -4.57119 -1.43455 0
M  V30 415 H 38.1587 -2.39942 -0.854409 0
M  V30 416 H 38.9417 -3.39849 0.485543 0
M  V30 417 N 41.3868 0.248026 -1.55636 0
M  V30 418 C 42.6268 0.983592 -1.79178 0
M  V30 419 C 42.9908 1.82567 -0.594414 0
M  V30 420 O 44.1918 2.59292 -0.708583 0
M  V30 421 C 42.4628 1.82228 -3.07454 0
M  V30 422 S 44.0218 2.61709 -3.52213 0
M  V30 423 H 40.8398 0.330866 -0.629324 0
M  V30 424 H 43.4418 0.251562 -1.93875 0
M  V30 425 H 42.1458 1.19333 -3.92668 0
M  V30 426 H 41.6768 2.59708 -2.95492 0
M  V30 427 H 43.6918 3.84655 -3.13457 0
M  V30 428 N 42.8649 1.48995 0.513639 0
M  V30 429 C 44.1129 1.57531 1.26604 0
M  V30 430 C 44.4339 0.258236 1.93283 0
M  V30 431 O 43.7039 -0.721502 1.8213 0
M  V30 432 H 42.2839 0.580387 0.470276 0
M  V30 433 H 44.9459 1.85552 0.596373 0
M  V30 434 H 44.0419 2.36486 2.03669 0
M  V30 435 N 44.343 -0.763751 1.37857 0
M  V30 436 C 45.589 -1.52483 1.33704 0
M  V30 437 C 45.922 -1.94051 -0.0759612 0
M  V30 438 O 45.197 -1.64675 -1.03501 0
M  V30 439 C 45.48 -2.78441 2.28348 0
M  V30 440 C 45.333 -2.43075 3.78463 0
M  V30 441 C 46.652 -3.80415 2.21298 0
M  V30 442 H 43.771 -0.553169 0.487005 0
M  V30 443 H 46.413 -0.875562 1.68624 0
M  V30 444 H 44.563 -3.33842 1.987 0
M  V30 445 H 46.235 -1.93527 4.18742 0
M  V30 446 H 44.478 -1.75666 3.96641 0
M  V30 447 H 45.149 -3.33149 4.40132 0
M  V30 448 H 47.625 -3.34527 2.47449 0
M  V30 449 H 46.501 -4.66257 2.89647 0
M  V30 450 H 46.762 -4.25262 1.20849 0
M  V30 451 N 45.8211 -1.22559 -0.990812 0
M  V30 452 C 47.0461 -1.07862 -1.77145 0
M  V30 453 C 47.4711 0.366447 -1.84496 0
M  V30 454 O 46.8291 1.26478 -1.29896 0
M  V30 455 C 46.8771 -1.69686 -3.18181 0
M  V30 456 O 45.9811 -0.951946 -4.01263 0
M  V30 457 H 45.3221 -0.378712 -0.545411 0
M  V30 458 H 47.8521 -1.62399 -1.2445 0
M  V30 459 H 47.8621 -1.74496 -3.68802 0
M  V30 460 H 46.5371 -2.74841 -3.12146 0
M  V30 461 H 45.1141 -0.980011 -3.59792 0
M  V30 462 N 47.2992 1.18797 -1.03562 0
M  V30 463 C 48.2622 2.20464 -0.626769 0
M  V30 464 C 49.2622 1.57721 0.313173 0
M  V30 465 O 50.4522 1.73917 0.0992615 0
M  V30 466 C 47.5842 3.40802 0.0818498 0
M  V30 467 H 48.7772 2.58149 -1.5264 0
M  V30 468 H 46.3302 1.32593 -0.827578 0
M  V30 469 H 47.0652 3.08642 0.995518 0
M  V30 470 H 46.8502 3.8758 -0.593652 0
M  V30 471 H 48.3402 4.16092 0.354584 0
M  V30 472 N 48.7773 0.814389 1.34928 0
M  V30 473 C 50.1883 0.458364 1.80986 0
M  V30 474 C 50.5393 -1.02042 1.67577 0
M  V30 475 O 49.6643 -1.79352 1.21086 0
M  V30 476 C 50.2593 0.825212 3.28597 0
M  V30 477 C 48.8183 0.521677 3.72767 0
M  V30 478 C 47.9653 1.04668 2.56788 0
M  V30 479 H 50.9163 1.00533 1.22795 0
M  V30 480 H 50.9373 0.12571 3.80292 0
M  V30 481 H 50.4493 1.90154 3.38324 0
M  V30 482 H 48.5503 -0.545589 3.68584 0
M  V30 483 H 48.6633 1.05977 4.67232 0
M  V30 484 H 47.0273 0.468622 2.50352 0
M  V30 485 H 47.8103 2.12927 2.6929 0
M  V30 486 N 50.2554 -1.46986 0.568584 0
M  V30 487 C 51.6714 -1.57946 0.229189 0
M  V30 488 C 51.8714 -1.56567 -1.26843 0
M  V30 489 O 50.9274 -1.47511 -2.04931 0
M  V30 490 C 52.2404 -2.87963 0.865909 0
M  V30 491 C 53.7884 -3.01568 0.838188 0
M  V30 492 C 54.2634 -4.34301 1.45419 0
M  V30 493 N 55.7544 -4.40965 1.41788 0
M  V30 494 C 56.4894 -5.42256 1.86403 0
M  V30 495 N 55.9854 -6.50297 2.38926 0
M  V30 496 N 57.7784 -5.3337 1.77405 0
M  V30 497 H 49.9294 -1.46126 1.54146 0
M  V30 498 H 52.1924 -0.696156 0.643484 0
M  V30 499 H 51.8984 -2.94742 1.91886 0
M  V30 500 H 51.7724 -3.75423 0.365687 0
M  V30 501 H 54.1594 -2.94379 -0.206106 0
M  V30 502 H 54.2404 -2.1562 1.37629 0
M  V30 503 H 53.8844 -4.42247 2.49761 0
M  V30 504 H 53.8144 -5.19 0.891435 0
M  V30 505 H 56.3054 -3.63484 1.03381 0
M  V30 506 H 56.6184 -7.23777 2.70863 0
M  V30 507 H 54.9634 -6.51155 2.42944 0
M  V30 508 H 58.1544 -4.47865 1.3614 0
M  V30 509 H 58.3274 -6.12169 2.12492 0
M  V30 510 N 51.7335 -0.305618 -1.54608 0
M  V30 511 C 53.1495 0.0476228 -1.59529 0
M  V30 512 C 53.3495 1.52025 -1.32252 0
M  V30 513 O 52.4055 2.27368 -1.09818 0
M  V30 514 C 53.7185 -0.354471 -2.98603 0
M  V30 515 C 55.2665 -0.303622 -3.11524 0
M  V30 516 C 55.7415 -0.680608 -4.52915 0
M  V30 517 N 57.2325 -0.63332 -4.5885 0
M  V30 518 C 57.9675 -0.897432 -5.66334 0
M  V30 519 N 57.4635 -1.22775 -6.81834 0
M  V30 520 N 59.2565 -0.824186 -5.56025 0
M  V30 521 H 51.4075 -1.2653 -1.70599 0
M  V30 522 H 53.6705 -0.513291 -0.797017 0
M  V30 523 H 53.3765 -1.3798 -3.23503 0
M  V30 524 H 53.2505 0.289568 -3.76087 0
M  V30 525 H 55.6375 0.712472 -2.8637 0
M  V30 526 H 55.7185 -0.982348 -2.36185 0
M  V30 527 H 55.3625 -1.69453 -4.78799 0
M  V30 528 H 55.2925 0.0202385 -5.26596 0
M  V30 529 H 57.7835 -0.389138 -3.75891 0
M  V30 530 H 58.0965 -1.41513 -7.59733 0
M  V30 531 H 56.4415 -1.26583 -6.83375 0
M  V30 532 H 59.6325 -0.565748 -4.64669 0
M  V30 533 H 59.8055 -1.03338 -6.39707 0
M  V30 534 N 53.2116 1.57565 -0.0334293 0
M  V30 535 C 54.1746 2.09393 0.932048 0
M  V30 536 C 55.1746 1.00986 1.25134 0
M  V30 537 O 56.3646 1.27129 1.19096 0
M  V30 538 C 53.4966 2.56338 2.2473 0
M  V30 539 H 54.6896 2.95984 0.483085 0
M  V30 540 H 52.2426 1.54819 0.21468 0
M  V30 541 H 52.9776 1.7309 2.74245 0
M  V30 542 H 52.7626 3.35542 2.02865 0
M  V30 543 H 54.2526 2.96646 2.93923 0
M  V30 544 N 54.6897 -0.239769 1.55765 0
M  V30 545 C 55.6527 -1.28038 1.90103 0
M  V30 546 C 56.6527 -1.40723 0.778055 0
M  V30 547 O 57.8427 -1.39301 1.04599 0
M  V30 548 C 54.9747 -2.65702 2.13577 0
M  V30 549 H 56.1677 -0.988048 2.83157 0
M  V30 550 H 53.7207 -0.479382 1.48767 0
M  V30 551 H 54.4557 -3.00063 1.23015 0
M  V30 552 H 54.2407 -2.57875 2.95369 0
M  V30 553 H 55.7307 -3.40828 2.41301 0
M  V30 554 N 56.1678 -1.49265 -0.50573 0
M  V30 555 C 57.3928 -1.62478 -1.28902 0
M  V30 556 C 57.8178 -0.294332 -1.85783 0
M  V30 557 O 57.1758 0.737412 -1.65626 0
M  V30 558 C 57.2238 -2.69268 -2.39848 0
M  V30 559 O 56.3278 -2.28113 -3.43567 0
M  V30 560 H 55.6688 -0.54399 -0.380751 0
M  V30 561 H 58.1988 -1.95421 -0.605952 0
M  V30 562 H 58.2088 -2.91291 -2.85681 0
M  V30 563 H 56.8838 -3.65846 -1.97812 0
M  V30 564 H 55.4608 -2.16401 -3.03685 0
M  V30 565 N 57.6459 0.756429 -1.3826 0
M  V30 566 C 58.8939 1.51248 -1.34047 0
M  V30 567 C 59.2149 1.94875 0.0698372 0
M  V30 568 O 58.4849 1.67436 1.01696 0
M  V30 569 H 57.0649 0.561018 -0.493222 0
M  V30 570 H 59.7269 0.899347 -1.7291 0
M  V30 571 H 58.8229 2.40472 -1.98947 0
M  V30 572 N 59.124 1.23083 0.984299 0
M  V30 573 C 60.535 1.05609 1.5396 0
M  V30 574 C 60.886 -0.377793 1.92528 0
M  V30 575 O 60.011 -1.26398 1.75649 0
M  V30 576 C 60.606 1.91087 2.7977 0
M  V30 577 C 59.165 1.77885 3.31713 0
M  V30 578 C 58.312 1.87028 2.04733 0
M  V30 579 H 61.263 1.36802 0.804419 0
M  V30 580 H 61.284 1.43336 3.5247 0
M  V30 581 H 60.796 2.9544 2.51668 0
M  V30 582 H 58.897 0.762995 3.64704 0
M  V30 583 H 59.01 2.61047 4.01735 0
M  V30 584 H 57.374 1.30565 2.18689 0
M  V30 585 H 58.157 2.92929 1.79017 0
M  V30 586 N 60.6021 -1.18246 1.0419 0
M  V30 587 C 61.8271 -1.92736 0.765996 0
M  V30 588 C 62.2521 -1.75728 -0.67091 0
M  V30 589 O 61.6101 -1.06825 -1.46486 0
M  V30 590 C 61.6581 -3.42148 1.13875 0
M  V30 591 O 60.7621 -4.11548 0.264954 0
M  V30 592 H 60.1031 -0.601238 0.281797 0
M  V30 593 H 62.6331 -1.49942 1.39207 0
M  V30 594 H 62.6431 -3.92858 1.1012 0
M  V30 595 H 61.3181 -3.53848 2.18551 0
M  V30 596 H 59.8951 -3.71137 0.362226 0
M  V30 597 N 62.0802 -0.821533 -1.34494 0
M  V30 598 C 63.3282 -0.408139 -1.97936 0
M  V30 599 C 63.6492 1.03193 -1.65457 0
M  V30 600 O 62.9192 1.71622 -0.944595 0
M  V30 601 H 61.4992 -0.147928 -0.732206 0
M  V30 602 H 64.1612 -1.05067 -1.64155 0
M  V30 603 H 63.2572 -0.52601 -3.07635 0
M  V30 604 N 63.5583 1.46682 -0.576371 0
M  V30 605 C 64.7833 2.07304 -0.0630475 0
M  V30 606 C 65.2083 1.42329 1.2298 0
M  V30 607 O 64.5663 0.504865 1.74129 0
M  V30 608 C 64.6143 3.60472 0.095895 0
M  V30 609 O 63.7183 3.95927 1.15394 0
M  V30 610 H 63.0593 0.661288 -0.0599463 0
M  V30 611 H 65.5893 1.88417 -0.797511 0
M  V30 612 H 65.5993 4.06865 0.304071 0
M  V30 613 H 64.2743 4.07157 -0.84828 0
M  V30 614 H 62.8513 3.61252 0.924724 0
M  V30 615 N 65.0364 0.313813 1.54444 0
M  V30 616 C 65.9994 -0.54379 2.22656 0
M  V30 617 C 66.9994 -1.05124 1.21678 0
M  V30 618 O 68.1894 -0.945225 1.46325 0
M  V30 619 C 65.3214 -1.75427 2.92298 0
M  V30 620 H 66.5144 0.0523599 2.99854 0
M  V30 621 H 64.0674 0.0647834 1.56166 0
M  V30 622 H 64.8024 -2.38991 2.19211 0
M  V30 623 H 64.5874 -1.39791 3.66334 0
M  V30 624 H 66.0774 -2.36325 3.44297 0
M  V30 625 N 66.5145 -1.57545 0.0417849 0
M  V30 626 C 67.9255 -1.80011 -0.495259 0
M  V30 627 C 68.2765 -0.953199 -1.71489 0
M  V30 628 O 67.4015 -0.167138 -2.15754 0
M  V30 629 C 67.9965 -3.26482 -0.905265 0
M  V30 630 C 66.5555 -3.499 -1.38734 0
M  V30 631 C 65.7025 -2.74979 -0.358056 0
M  V30 632 H 68.6535 -1.56425 0.267736 0
M  V30 633 H 68.6745 -3.36887 -1.76882 0
M  V30 634 H 68.1865 -3.88096 -0.017401 0
M  V30 635 H 66.2875 -2.93553 -2.29471 0
M  V30 636 H 66.4005 -4.58615 -1.38598 0
M  V30 637 H 64.7645 -2.40834 -0.828912 0
M  V30 638 H 65.5475 -3.39315 0.521561 0
M  V30 639 N 67.9926 0.231505 -1.5589 0
M  V30 640 C 68.9556 1.27028 -1.90779 0
M  V30 641 C 69.9556 1.40308 -0.785507 0
M  V30 642 O 71.1456 1.38744 -1.05336 0
M  V30 643 C 68.2776 2.64566 -2.14983 0
M  V30 644 H 69.4706 0.973017 -2.83677 0
M  V30 645 H 67.0236 0.471486 -1.49019 0
M  V30 646 H 67.7586 2.99406 -1.24604 0
M  V30 647 H 67.5436 2.56305 -2.96732 0
M  V30 648 H 69.0336 3.39543 -2.43105 0
M  V30 649 N 69.4707 1.49531 0.497807 0
M  V30 650 C 70.7167 1.59415 1.25358 0
M  V30 651 C 71.0497 0.281422 1.9215 0
M  V30 652 O 70.3247 -0.715249 1.80871 0
M  V30 653 C 70.6077 2.75566 2.3181 0
M  V30 654 C 70.4607 4.16642 1.69498 0
M  V30 655 C 71.7797 2.87347 3.33346 0
M  V30 656 H 68.8987 0.580244 0.454408 0
M  V30 657 H 71.5407 1.81827 0.551262 0
M  V30 658 H 69.6907 2.56587 2.91711 0
M  V30 659 H 71.3627 4.47145 1.13399 0
M  V30 660 H 69.6057 4.22141 0.998978 0
M  V30 661 H 70.2767 4.93792 2.46725 0
M  V30 662 H 72.7527 3.04634 2.83438 0
M  V30 663 H 71.6287 3.70289 4.05188 0
M  V30 664 H 71.8897 1.96834 3.95865 0
M  V30 665 N 70.9488 -0.749086 1.3866 0
M  V30 666 C 71.9118 -1.84457 1.36045 0
M  V30 667 C 72.9118 -1.58682 0.260122 0
M  V30 668 O 74.1018 -1.66343 0.517261 0
M  V30 669 C 71.2338 -3.22008 1.11911 0
M  V30 670 H 72.4268 -1.88182 2.33512 0
M  V30 671 H 69.9798 -0.951266 1.24019 0
M  V30 672 H 70.7148 -3.2395 0.150686 0
M  V30 673 H 70.4998 -3.42111 1.91579 0
M  V30 674 H 71.9898 -4.0208 1.12788 0
M  V30 675 N 72.4269 -1.23603 -0.977757 0
M  V30 676 C 73.3899 -1.02069 -2.05218 0
M  V30 677 C 74.3899 0.0184305 -1.60789 0
M  V30 678 O 75.5799 -0.221569 -1.72785 0
M  V30 679 C 72.7119 -0.544926 -3.36517 0
M  V30 680 H 73.9049 -1.9742 -2.25755 0
M  V30 681 H 71.4579 -1.05684 -1.15155 0
M  V30 682 H 72.1929 0.412241 -3.21669 0
M  V30 683 H 71.9779 -1.2948 -3.70105 0
M  V30 684 H 73.4679 -0.414985 -4.15533 0
M  V30 685 N 73.905 1.17692 -1.04816 0
M  V30 686 C 74.868 2.19787 -0.650117 0
M  V30 687 C 75.868 1.58044 0.296427 0
M  V30 688 O 77.058 1.74012 0.0808097 0
M  V30 689 C 74.19 3.40869 0.0456987 0
M  V30 690 H 75.383 2.56516 -1.5537 0
M  V30 691 H 72.936 1.31708 -0.841594 0
M  V30 692 H 73.671 3.09681 0.962726 0
M  V30 693 H 73.456 3.86928 -0.634727 0
M  V30 694 H 74.946 4.16445 0.310432 0
M  V30 695 N 75.3831 0.828654 1.34056 0
M  V30 696 C 76.3461 0.259927 2.27721 0
M  V30 697 C 77.3461 -0.565478 1.50529 0
M  V30 698 O 78.5361 -0.38075 1.69988 0
M  V30 699 C 75.6681 -0.634944 3.34935 0
M  V30 700 H 76.8611 1.0863 2.79534 0
M  V30 701 H 74.4141 0.600951 1.44285 0
M  V30 702 H 75.1491 -1.48416 2.88346 0
M  V30 703 H 74.9341 -0.0444999 3.92075 0
M  V30 704 H 76.4241 -1.02648 4.04788 0
M  V30 705 N 76.8612 -1.46375 0.584142 0
M  V30 706 C 77.8242 -2.28784 -0.138108 0
M  V30 707 C 78.8242 -1.38471 -0.817462 0
M  V30 708 O 80.0142 -1.60833 -0.669199 0
M  V30 709 C 77.1462 -3.18892 -1.20503 0
M  V30 710 H 78.3392 -2.94117 0.586127 0
M  V30 711 H 75.8922 -1.52509 0.342171 0
M  V30 712 H 76.6272 -2.58309 -1.96079 0
M  V30 713 H 76.4122 -3.85388 -0.722384 0
M  V30 714 H 77.9022 -3.80914 -1.71155 0
M  V30 715 N 78.3393 -0.321999 -1.54275 0
M  V30 716 C 79.2713 0.578671 -2.21775 0
M  V30 717 C 80.2843 1.08109 -1.21722 0
M  V30 718 O 81.4733 0.994938 -1.482 0
M  V30 719 C 78.5733 1.80661 -2.86731 0
M  V30 720 C 77.7463 1.44314 -4.12907 0
M  V30 721 C 76.8053 2.52845 -4.61472 0
M  V30 722 O 75.8313 2.17054 -5.2619 0
M  V30 723 N 77.0333 3.83748 -4.35566 0
M  V30 724 H 79.7983 0.000709447 -2.997 0
M  V30 725 H 77.3593 -0.145132 -1.61248 0
M  V30 726 H 79.3513 2.52655 -3.16145 0
M  V30 727 H 77.9213 2.29245 -2.12521 0
M  V30 728 H 77.1413 0.554906 -3.90275 0
M  V30 729 H 78.4293 1.17598 -4.95023 0
M  V30 730 H 77.8273 4.15625 -3.83761 0
M  V30 731 H 76.3843 4.51977 -4.69638 0
M  V30 732 N 79.8174 1.5752 -0.0501392 0
M  V30 733 C 81.2284 1.80271 0.485705 0
M  V30 734 C 81.5794 0.96228 1.70981 0
M  V30 735 O 80.7044 0.178578 2.15662 0
M  V30 736 C 81.2994 3.26957 0.887938 0
M  V30 737 C 79.8584 3.5063 1.36877 0
M  V30 738 C 79.0054 2.75165 0.343468 0
M  V30 739 H 81.9564 1.56281 -0.276028 0
M  V30 740 H 81.9774 3.37821 1.75093 0
M  V30 741 H 81.4894 3.881 -0.0031809 0
M  V30 742 H 79.5904 2.94766 2.27911 0
M  V30 743 H 79.7034 4.59343 1.36164 0
M  V30 744 H 78.0674 2.4127 0.816128 0
M  V30 745 H 78.8504 3.39034 -0.539548 0
M  V30 746 N 81.2955 -0.223234 1.56011 0
M  V30 747 C 82.5435 -0.946003 1.78592 0
M  V30 748 C 82.8645 -1.84936 0.618349 0
M  V30 749 O 82.1345 -1.92473 -0.364833 0
M  V30 750 H 80.7145 -0.352298 0.658707 0
M  V30 751 H 83.3765 -0.235494 1.93472 0
M  V30 752 H 82.4725 -1.55381 2.70672 0
M  V30 753 N 82.7736 -1.49793 -0.48987 0
M  V30 754 C 83.9986 -1.63836 -1.27172 0
M  V30 755 C 84.4236 -0.31402 -1.8546 0
M  V30 756 O 83.7816 0.719803 -1.66399 0
M  V30 757 C 83.8296 -2.71797 -2.36978 0
M  V30 758 O 82.9336 -2.31744 -3.41128 0
M  V30 759 H 82.2746 -0.547997 -0.37496 0
M  V30 760 H 84.8046 -1.96053 -0.585191 0
M  V30 761 H 84.8146 -2.94305 -2.82575 0
M  V30 762 H 83.4896 -3.67923 -1.93921 0
M  V30 763 H 82.0666 -2.1961 -3.01373 0
M  V30 764 N 84.2517 0.741722 -1.39055 0
M  V30 765 C 85.4817 1.52876 -1.3897 0
M  V30 766 C 85.8897 1.8919 0.0193266 0
M  V30 767 O 85.2327 1.54138 0.999356 0
M  V30 768 C 85.2947 2.84929 -2.19216 0
M  V30 769 C 84.9587 2.71086 -3.67915 0
M  V30 770 C 85.9557 2.40084 -4.61146 0
M  V30 771 C 83.6407 2.88168 -4.11418 0
M  V30 772 C 85.6347 2.26335 -5.95862 0
M  V30 773 C 83.3217 2.74037 -5.46211 0
M  V30 774 C 84.3197 2.43166 -6.38247 0
M  V30 775 O 84.0077 2.29115 -7.70559 0
M  V30 776 H 83.7397 0.479252 -0.476753 0
M  V30 777 H 86.2937 0.924751 -1.83405 0
M  V30 778 H 84.5237 3.47564 -1.69518 0
M  V30 779 H 86.2127 3.46509 -2.11392 0
M  V30 780 H 86.9787 2.26545 -4.28838 0
M  V30 781 H 82.8577 3.11191 -3.40119 0
M  V30 782 H 86.4017 2.0216 -6.67665 0
M  V30 783 H 82.2987 2.87153 -5.78112 0
M  V30 784 H 83.0667 2.44237 -7.81211 0
M  V30 785 N 85.7298 1.2412 0.971189 0
M  V30 786 C 87.1408 1.07236 1.52831 0
M  V30 787 C 87.4918 -0.357352 1.92918 0
M  V30 788 O 86.6168 -1.24528 1.76979 0
M  V30 789 C 87.2118 1.94043 2.77728 0
M  V30 790 C 85.7708 1.81394 3.29808 0
M  V30 791 C 84.9178 1.89189 2.02738 0
M  V30 792 H 87.8688 1.37648 0.789864 0
M  V30 793 H 87.8898 1.47066 3.5093 0
M  V30 794 H 87.4018 2.98093 2.4852 0
M  V30 795 H 85.5028 0.801634 3.63874 0
M  V30 796 H 85.6158 2.65294 3.98944 0
M  V30 797 H 83.9798 1.32877 2.17292 0
M  V30 798 H 84.7628 2.94812 1.759 0
M  V30 799 N 87.2079 -1.17134 1.05439 0
M  V30 800 C 88.1709 -2.19439 0.661764 0
M  V30 801 C 89.1709 -1.58199 -0.288042 0
M  V30 802 O 90.3609 -1.74053 -0.0715803 0
M  V30 803 C 87.4929 -3.40889 -0.0276209 0
M  V30 804 H 88.6859 -2.55688 1.56728 0
M  V30 805 H 86.2389 -1.31259 0.848567 0
M  V30 806 H 86.9739 -3.10187 -0.94629 0
M  V30 807 H 86.7589 -3.86586 0.655238 0
M  V30 808 H 88.2489 -4.16603 -0.288342 0
M  V30 809 N 88.686 -0.835752 -1.33615 0
M  V30 810 C 89.616 -0.281739 -2.31794 0
M  V30 811 C 90.597 0.608833 -1.58831 0
M  V30 812 O 91.782 0.533035 -1.86741 0
M  V30 813 C 88.912 0.546612 -3.42971 0
M  V30 814 C 87.866 -0.247904 -4.27281 0
M  V30 815 C 87.192 0.704001 -5.30045 0
M  V30 816 C 88.492 -1.46324 -5.01385 0
M  V30 817 H 90.186 -1.10206 -2.78379 0
M  V30 818 H 87.732 -0.531388 -1.33837 0
M  V30 819 H 89.685 0.944467 -4.1068 0
M  V30 820 H 88.409 1.40011 -2.95067 0
M  V30 821 H 87.068 -0.627281 -3.61194 0
M  V30 822 H 86.716 1.55381 -4.78399 0
M  V30 823 H 86.416 0.176524 -5.87335 0
M  V30 824 H 87.94 1.09944 -6.0062 0
M  V30 825 H 89.354 -1.13871 -5.61877 0
M  V30 826 H 87.751 -1.92728 -5.6831 0
M  V30 827 H 88.821 -2.23467 -4.30338 0
M  V30 828 N 90.1641 1.46063 -0.591896 0
M  V30 829 C 91.3891 2.07226 -0.0850314 0
M  V30 830 C 91.8141 1.43625 1.21463 0
M  V30 831 O 91.1721 0.523305 1.73583 0
M  V30 832 C 91.2201 3.60554 0.0576567 0
M  V30 833 O 90.3241 3.97128 1.11188 0
M  V30 834 H 89.6651 0.660615 -0.0669568 0
M  V30 835 H 92.1951 1.8756 -0.81745 0
M  V30 836 H 92.2051 4.07165 0.2609 0
M  V30 837 H 90.8801 4.06235 -0.891416 0
M  V30 838 H 89.4571 3.62213 0.886356 0
M  V30 839 N 91.6422 0.330177 1.54103 0
M  V30 840 C 92.6052 -0.520144 2.2322 0
M  V30 841 C 93.6052 -1.03828 1.22786 0
M  V30 842 O 94.7952 -0.929652 1.4732 0
M  V30 843 C 91.9272 -1.72317 2.94142 0
M  V30 844 H 93.1202 0.0841605 2.99782 0
M  V30 845 H 90.6732 0.0813433 1.56088 0
M  V30 846 H 91.4082 -2.36653 2.21734 0
M  V30 847 H 91.1932 -1.35898 3.67796 0
M  V30 848 H 92.6832 -2.3266 3.46784 0
M  V30 849 N 93.1203 -1.57491 0.0584922 0
M  V30 850 C 94.0523 -2.08916 -0.942694 0
M  V30 851 C 95.0653 -1.0185 -1.27006 0
M  V30 852 O 96.2543 -1.29398 -1.22957 0
M  V30 853 C 93.3543 -2.52341 -2.26224 0
M  V30 854 C 92.5273 -3.82827 -2.1157 0
M  V30 855 C 91.5863 -4.12487 -3.26712 0
M  V30 856 O 90.6123 -4.82295 -3.02292 0
M  V30 857 N 91.8143 -3.64978 -4.5141 0
M  V30 858 H 94.5793 -2.95437 -0.503722 0
M  V30 859 H 92.1403 -1.61397 -0.12757 0
M  V30 860 H 94.1323 -2.69254 -3.02133 0
M  V30 861 H 92.7023 -1.7103 -2.61663 0
M  V30 862 H 91.9223 -3.75425 -1.20208 0
M  V30 863 H 93.2103 -4.68263 -1.99015 0
M  V30 864 H 92.6083 -3.08558 -4.7414 0
M  V30 865 H 91.1653 -3.87115 -5.2439 0
M  V30 866 N 94.5984 0.214957 -1.56127 0
M  V30 867 C 95.5614 1.24997 -1.92116 0
M  V30 868 C 96.5614 1.39467 -0.800344 0
M  V30 869 O 97.7514 1.37619 -1.06802 0
M  V30 870 C 94.8834 2.62271 -2.17777 0
M  V30 871 H 96.0764 0.942875 -2.84693 0
M  V30 872 H 93.6294 0.455654 -1.49511 0
M  V30 873 H 94.3644 2.98068 -1.27773 0
M  V30 874 H 94.1494 2.53143 -2.99434 0
M  V30 875 H 95.6394 3.36946 -2.46693 0
M  V30 876 N 96.0765 1.50051 0.48192 0
M  V30 877 C 97.0395 1.67584 1.5636 0
M  V30 878 C 98.0395 0.546894 1.51214 0
M  V30 879 O 99.2295 0.813725 1.54026 0
M  V30 880 C 96.3615 1.691 2.96003 0
M  V30 881 H 97.5545 2.64078 1.42136 0
M  V30 882 H 95.1075 1.39369 0.707533 0
M  V30 883 H 95.8425 0.742589 3.15684 0
M  V30 884 H 95.6275 2.51105 3.01146 0
M  V30 885 H 97.1175 1.84656 3.74556 0
M  V30 886 N 97.5546 -0.734337 1.39446 0
M  V30 887 C 98.9706 -1.03997 1.21065 0
M  V30 888 C 99.1706 -2.01369 0.0727019 0
M  V30 889 O 98.2266 -2.45856 -0.575426 0
M  V30 890 C 99.5396 -1.60163 2.54496 0
M  V30 891 C 101.088 -1.7224 2.61347 0
M  V30 892 C 101.563 -2.31814 3.95002 0
M  V30 893 N 103.054 -2.39223 3.96644 0
M  V30 894 C 103.789 -2.86258 4.96834 0
M  V30 895 N 103.285 -3.33184 6.07421 0
M  V30 896 N 105.078 -2.85473 4.84213 0
M  V30 897 H 97.2286 -0.0885624 2.12215 0
M  V30 898 H 99.4916 -0.10191 0.942506 0
M  V30 899 H 99.1976 -0.960811 3.38321 0
M  V30 900 H 99.0716 -2.5896 2.74262 0
M  V30 901 H 101.459 -2.35443 1.77906 0
M  V30 902 H 101.54 -0.720939 2.4543 0
M  V30 903 H 101.184 -1.69238 4.78875 0
M  V30 904 H 101.114 -3.32638 4.08239 0
M  V30 905 H 103.605 -2.06057 3.16779 0
M  V30 906 H 103.918 -3.67586 6.7978 0
M  V30 907 H 102.263 -3.31191 6.11013 0
M  V30 908 H 105.454 -2.48136 3.96921 0
M  V30 909 H 105.627 -3.21814 5.62441 0
M  V30 910 N 99.0327 -1.24633 -0.964593 0
M  V30 911 C 99.9427 -1.05859 -2.09359 0
M  V30 912 C 100.959 0.00148855 -1.74 0
M  V30 913 O 102.135 -0.197346 -2.00431 0
M  V30 914 C 99.1997 -0.668879 -3.40187 0
M  V30 915 C 98.2607 -1.80578 -3.89474 0
M  V30 916 C 97.4937 -1.43457 -5.14058 0
M  V30 917 O 97.7167 -0.325775 -5.69469 0
M  V30 918 O 96.6507 -2.2613 -5.57807 0
M  V30 919 H 100.477 -2.00516 -2.28094 0
M  V30 920 H 98.0617 -1.03481 -1.0776 0
M  V30 921 H 99.9437 -0.463211 -4.18846 0
M  V30 922 H 98.6187 0.248536 -3.22744 0
M  V30 923 H 97.5257 -2.06623 -3.11862 0
M  V30 924 H 98.8587 -2.70208 -4.11398 0
M  V30 925 N 100.511 1.16574 -1.06058 0
M  V30 926 C 101.922 1.68662 -0.800632 0
M  V30 927 C 102.273 1.84184 0.67608 0
M  V30 928 O 101.398 1.53568 1.52466 0
M  V30 929 C 101.993 3.06356 -1.44676 0
M  V30 930 C 100.552 3.55575 -1.23465 0
M  V30 931 C 99.6988 2.31616 -1.52477 0
M  V30 932 H 102.65 1.00969 -1.22438 0
M  V30 933 H 102.671 3.70636 -0.860788 0
M  V30 934 H 102.183 2.95027 -2.52152 0
M  V30 935 H 100.284 3.72167 -0.179527 0
M  V30 936 H 100.397 4.37812 -1.94571 0
M  V30 937 H 98.7608 2.36512 -0.945209 0
M  V30 938 H 99.5438 2.22887 -2.61106 0
M  V30 939 N 101.989 0.842826 1.3317 0
M  V30 940 C 102.952 0.284065 2.27433 0
M  V30 941 C 103.952 -0.54948 1.5112 0
M  V30 942 O 105.142 -0.362699 1.70382 0
M  V30 943 C 102.274 -0.599384 3.35589 0
M  V30 944 H 103.467 1.11589 2.78366 0
M  V30 945 H 101.02 0.616221 1.4364 0
M  V30 946 H 101.755 -1.45349 2.89904 0
M  V30 947 H 101.54 -0.00291266 3.921 0
M  V30 948 H 103.03 -0.983488 4.05854 0
M  V30 949 N 103.467 -1.45747 0.599634 0
M  V30 950 C 104.43 -2.28917 -0.113835 0
M  V30 951 C 105.43 -1.3933 -0.802729 0
M  V30 952 O 106.62 -1.61534 -0.652103 0
M  V30 953 C 103.752 -3.20152 -1.17114 0
M  V30 954 H 104.945 -2.93478 0.617289 0
M  V30 955 H 102.498 -1.52137 0.358327 0
M  V30 956 H 103.233 -2.60374 -1.93329 0
M  V30 957 H 103.018 -3.86133 -0.681468 0
M  V30 958 H 104.508 -3.82708 -1.67105 0
M  V30 959 N 104.945 -0.338344 -1.53925 0
M  V30 960 C 106.192 0.259758 -2.00827 0
M  V30 961 C 106.52 1.50973 -1.22628 0
M  V30 962 O 105.775 1.93379 -0.300509 0
M  V30 963 C 106.074 0.62448 -3.51902 0
M  V30 964 C 105.74 -0.528006 -4.47798 0
M  V30 965 C 104.402 -0.844298 -4.73735 0
M  V30 966 C 106.754 -1.30143 -5.0469 0
M  V30 967 C 104.082 -1.93648 -5.53821 0
M  V30 968 C 106.434 -2.38382 -5.85967 0
M  V30 969 C 105.098 -2.70576 -6.10201 0
M  V30 970 H 104.368 0.0950523 -0.734878 0
M  V30 971 H 107.015 -0.465182 -1.85764 0
M  V30 972 H 105.32 1.43006 -3.64769 0
M  V30 973 H 107.017 1.09905 -3.85645 0
M  V30 974 H 103.607 -0.271421 -4.2774 0
M  V30 975 H 107.791 -1.07033 -4.84621 0
M  V30 976 H 103.047 -2.19021 -5.70824 0
M  V30 977 H 107.221 -2.98746 -6.29066 0
M  V30 978 H 104.848 -3.55333 -6.72044 0
M  V30 979 N 106.423 1.57458 -0.0668435 0
M  V30 980 C 107.669 1.94401 0.598316 0
M  V30 981 C 108.024 0.946335 1.67518 0
M  V30 982 O 107.317 -0.0321442 1.91573 0
M  V30 983 C 107.511 3.35784 1.22409 0
M  V30 984 C 107.34 4.49212 0.209367 0
M  V30 985 C 106.11 5.04887 -0.204218 0
M  V30 986 C 108.308 5.11335 -0.551431 0
M  V30 987 N 106.29 6.01854 -1.21016 0
M  V30 988 C 107.661 6.03754 -1.41 0
M  V30 989 C 109.716 4.94173 -0.608038 0
M  V30 990 C 108.419 6.80854 -2.32013 0
M  V30 991 C 110.445 5.71912 -1.50566 0
M  V30 992 C 109.807 6.63976 -2.35191 0
M  V30 993 H 105.906 0.758538 0.190114 0
M  V30 994 H 108.49 1.94175 -0.142832 0
M  V30 995 H 106.661 3.36757 1.93518 0
M  V30 996 H 108.393 3.59976 1.84931 0
M  V30 997 H 105.148 4.73266 0.177908 0
M  V30 998 H 105.572 6.55035 -1.71049 0
M  V30 999 H 110.214 4.22788 0.032022 0
M  V30 1000 H 107.932 7.5152 -2.97057 0
M  V30 1001 H 111.518 5.60656 -1.55423 0
M  V30 1002 H 110.398 7.2308 -3.03522 0
M  V30 1003 N 107.901 -0.206675 1.56239 0
M  V30 1004 C 109.149 -0.927007 1.79586 0
M  V30 1005 C 109.47 -1.8427 0.637929 0
M  V30 1006 O 108.74 -1.92849 -0.344398 0
M  V30 1007 H 107.32 -0.345292 0.662407 0
M  V30 1008 H 109.982 -0.21496 1.93711 0
M  V30 1009 H 109.078 -1.52501 2.72305 0
M  V30 1010 N 109.379 -1.50304 -0.473955 0
M  V30 1011 C 110.79 -1.54042 -1.0549 0
M  V30 1012 C 111.141 -0.342248 -1.93192 0
M  V30 1013 O 110.266 0.545157 -2.09421 0
M  V30 1014 C 110.861 -2.79152 -1.91989 0
M  V30 1015 C 109.42 -2.8558 -2.45196 0
M  V30 1016 C 108.567 -2.48295 -1.2347 0
M  V30 1017 H 111.518 -1.5661 -0.256693 0
M  V30 1018 H 111.539 -2.60845 -2.7702 0
M  V30 1019 H 111.051 -3.66339 -1.28131 0
M  V30 1020 H 109.152 -2.02738 -3.12615 0
M  V30 1021 H 109.265 -3.88403 -2.80499 0
M  V30 1022 H 107.629 -2.00669 -1.56856 0
M  V30 1023 H 108.412 -3.37787 -0.612789 0
M  V30 1024 N 110.857 0.726932 -1.39834 0
M  V30 1025 C 111.787 1.85405 -1.41941 0
M  V30 1026 C 112.768 1.67751 -0.281728 0
M  V30 1027 O 113.953 1.8795 -0.488717 0
M  V30 1028 C 111.083 3.23243 -1.2701 0
M  V30 1029 C 110.037 3.55549 -2.38262 0
M  V30 1030 C 109.363 4.9241 -2.08415 0
M  V30 1031 C 110.663 3.577 -3.80589 0
M  V30 1032 H 112.357 1.83899 -2.36266 0
M  V30 1033 H 109.903 0.883349 -1.13723 0
M  V30 1034 H 111.856 4.01775 -1.27103 0
M  V30 1035 H 110.58 3.25296 -0.291564 0
M  V30 1036 H 109.239 2.79351 -2.37399 0
M  V30 1037 H 108.887 4.91052 -1.0898 0
M  V30 1038 H 108.587 5.14992 -2.82943 0
M  V30 1039 H 110.111 5.73289 -2.10171 0
M  V30 1040 H 111.525 4.26293 -3.83337 0
M  V30 1041 H 109.922 3.91804 -4.54543 0
M  V30 1042 H 110.992 2.57328 -4.10987 0
M  V30 1043 N 112.336 1.25143 0.95797 0
M  V30 1044 C 113.299 1.05321 2.03569 0
M  V30 1045 C 114.299 0.007152 1.60798 0
M  V30 1046 O 115.489 0.24903 1.72411 0
M  V30 1047 C 112.621 0.598394 3.35607 0
M  V30 1048 H 113.814 2.00986 2.22586 0
M  V30 1049 H 111.367 1.07502 1.13459 0
M  V30 1050 H 112.102 -0.361014 3.22284 0
M  V30 1051 H 111.887 1.35351 3.67998 0
M  V30 1052 H 113.377 0.48104 4.1482 0
M  V30 1053 N 113.814 -1.1601 1.06675 0
M  V30 1054 C 115.23 -1.38622 0.790948 0
M  V30 1055 C 115.43 -1.92109 -0.607965 0
M  V30 1056 O 114.486 -2.12239 -1.36787 0
M  V30 1057 C 115.799 -2.36347 1.85905 0
M  V30 1058 C 117.347 -2.50023 1.88301 0
M  V30 1059 C 117.822 -3.51033 2.94176 0
M  V30 1060 N 119.313 -3.58563 2.93235 0
M  V30 1061 C 120.048 -4.36521 3.71803 0
M  V30 1062 N 119.544 -5.17869 4.602 0
M  V30 1063 N 121.337 -4.31541 3.60178 0
M  V30 1064 H 113.488 -0.796294 1.96908 0
M  V30 1065 H 115.751 -0.412597 0.853503 0
M  V30 1066 H 115.457 -2.04147 2.86386 0
M  V30 1067 H 115.331 -3.36042 1.71334 0
M  V30 1068 H 117.718 -2.81524 0.884769 0
M  V30 1069 H 117.799 -1.5035 2.06951 0
M  V30 1070 H 117.443 -3.20268 3.94196 0
M  V30 1071 H 117.373 -4.50445 2.72776 0
M  V30 1072 H 119.864 -3.00496 2.29152 0
M  V30 1073 H 120.177 -5.74578 5.16797 0
M  V30 1074 H 118.522 -5.17199 4.64253 0
M  V30 1075 H 121.713 -3.67051 2.90502 0
M  V30 1076 H 121.886 -4.9205 4.21653 0
M  V30 1077 N 115.292 -0.849877 -1.32721 0
M  V30 1078 C 116.569 -0.372405 -1.92022 0
M  V30 1079 C 116.949 1.1435 -1.77447 0
M  V30 1080 O 116.297 1.96296 -1.16962 0
M  V30 1081 C 116.507 -0.831482 -3.3895 0
M  V30 1082 C 117.855 -0.845882 -4.16089 0
M  V30 1083 O 118.879 -0.775806 -3.47649 0
M  V30 1084 O 117.738 -0.943753 -5.38289 0
M  V30 1085 H 114.832 -0.107667 -0.819961 0
M  V30 1086 H 117.378 -0.93646 -1.41522 0
M  V30 1087 H 116.15 -1.87448 -3.4348 0
M  V30 1088 H 115.773 -0.24461 -3.96847 0
M  V30 1089 N 116.77 1.45427 -0.607355 0
M  V30 1090 C 117.998 2.06614 -0.108814 0
M  V30 1091 C 118.413 1.45204 1.2067 0
M  V30 1092 O 117.77 0.566132 1.73497 0
M  V30 1093 C 117.821 3.61481 0.0375347 0
M  V30 1094 O 117.542 4.20598 -1.22593 0
M  V30 1095 C 119.043 4.39652 0.567561 0
M  V30 1096 H 116.263 0.66747 -0.0687351 0
M  V30 1097 H 118.807 1.86675 -0.835022 0
M  V30 1098 H 116.962 3.80762 0.714068 0
M  V30 1099 H 117.376 5.1377 -1.05547 0
M  V30 1100 H 118.85 5.48518 0.61905 0
M  V30 1101 H 119.327 4.09417 1.58978 0
M  V30 1102 H 119.933 4.25234 -0.0749202 0
M  V30 1103 N 118.248 0.346503 1.53744 0
M  V30 1104 C 119.178 -0.501193 2.28058 0
M  V30 1105 C 120.159 -1.10014 1.29734 0
M  V30 1106 O 121.344 -1.12097 1.58581 0
M  V30 1107 C 118.474 -1.65078 3.05559 0
M  V30 1108 C 117.428 -1.18003 4.11411 0
M  V30 1109 C 116.754 -2.41837 4.76884 0
M  V30 1110 C 118.054 -0.278394 5.21558 0
M  V30 1111 H 119.748 0.11875 2.99164 0
M  V30 1112 H 117.294 0.0585531 1.43881 0
M  V30 1113 H 119.247 -2.25028 3.56287 0
M  V30 1114 H 117.971 -2.29767 2.32109 0
M  V30 1115 H 116.63 -0.603331 3.61601 0
M  V30 1116 H 116.278 -3.0494 4.00026 0
M  V30 1117 H 115.978 -2.1102 5.48402 0
M  V30 1118 H 117.502 -3.02508 5.30397 0
M  V30 1119 H 118.916 -0.784823 5.67903 0
M  V30 1120 H 117.313 -0.0619707 6.00068 0
M  V30 1121 H 118.383 0.684677 4.80042 0
M  V30 1122 N 119.726 -1.57421 0.075193 0
M  V30 1123 C 120.972 -1.93905 -0.594025 0
M  V30 1124 C 121.305 -0.955701 -1.69056 0
M  V30 1125 O 120.58 0.0145373 -1.94495 0
M  V30 1126 C 120.863 -3.40638 -1.1678 0
M  V30 1127 C 120.716 -4.49733 -0.0776792 0
M  V30 1128 C 122.035 -3.88259 -2.07228 0
M  V30 1129 H 119.154 -0.705105 -0.214466 0
M  V30 1130 H 121.796 -1.8947 0.141854 0
M  V30 1131 H 119.946 -3.44549 -1.79494 0
M  V30 1132 H 121.618 -4.57942 0.555573 0
M  V30 1133 H 119.861 -4.29751 0.591286 0
M  V30 1134 H 120.532 -5.49549 -0.519603 0
M  V30 1135 H 123.008 -3.86376 -1.54445 0
M  V30 1136 H 121.884 -4.91533 -2.44308 0
M  V30 1137 H 122.145 -3.26396 -2.98191 0
M  V30 1138 N 121.204 0.198386 -1.56346 0
M  V30 1139 C 122.45 0.916115 -1.81601 0
M  V30 1140 C 122.805 1.81025 -0.651744 0
M  V30 1141 O 122.098 1.88316 0.353229 0
M  V30 1142 C 122.292 1.77031 -3.10475 0
M  V30 1143 C 122.121 0.960365 -4.39326 0
M  V30 1144 C 120.891 0.646093 -5.01152 0
M  V30 1145 C 123.089 0.314628 -5.13337 0
M  V30 1146 N 121.071 -0.182828 -6.13628 0
M  V30 1147 C 122.442 -0.37664 -6.18855 0
M  V30 1148 C 124.497 0.230019 -4.97368 0
M  V30 1149 C 123.2 -1.14445 -7.10137 0
M  V30 1150 C 125.226 -0.524389 -5.89071 0
M  V30 1151 C 124.588 -1.20412 -6.94032 0
M  V30 1152 H 120.687 0.314732 -0.715868 0
M  V30 1153 H 123.271 0.185102 -1.93818 0
M  V30 1154 H 121.442 2.47295 -2.99499 0
M  V30 1155 H 123.174 2.42727 -3.2383 0
M  V30 1156 H 119.929 0.969724 -4.63566 0
M  V30 1157 H 120.353 -0.586802 -6.74452 0
M  V30 1158 H 124.995 0.741184 -4.16253 0
M  V30 1159 H 122.713 -1.66706 -7.90718 0
M  V30 1160 H 126.299 -0.591167 -5.78789 0
M  V30 1161 H 125.179 -1.77853 -7.63766 0
M  V30 1162 N 122.682 1.50554 0.465978 0
M  V30 1163 C 123.959 1.5232 1.22712 0
M  V30 1164 C 124.339 0.270807 2.09356 0
M  V30 1165 O 123.687 -0.745541 2.15995 0
M  V30 1166 C 123.897 2.82175 2.05374 0
M  V30 1167 C 125.245 3.33033 2.6339 0
M  V30 1168 O 126.269 2.83531 2.15612 0
M  V30 1169 O 125.128 4.19336 3.50456 0
M  V30 1170 H 122.222 0.611183 0.557122 0
M  V30 1171 H 124.768 1.62847 0.477381 0
M  V30 1172 H 123.54 3.64797 1.41558 0
M  V30 1173 H 123.163 2.74675 2.87471 0
M  V30 1174 N 124.16 -0.719506 1.40217 0
M  V30 1175 C 125.388 -1.50864 1.41589 0
M  V30 1176 C 125.803 -1.88794 0.0145275 0
M  V30 1177 O 125.16 -1.55174 -0.960594 0
M  V30 1178 C 125.211 -2.78646 2.30302 0
M  V30 1179 O 124.932 -2.42321 3.64983 0
M  V30 1180 C 126.433 -3.72569 2.40224 0
M  V30 1181 H 123.653 -0.465709 0.48307 0
M  V30 1182 H 126.197 -0.88785 1.84221 0
M  V30 1183 H 124.352 -3.37019 1.91042 0
M  V30 1184 H 124.766 -3.24514 4.12057 0
M  V30 1185 H 126.24 -4.5908 3.06512 0
M  V30 1186 H 126.717 -4.15403 1.42608 0
M  V30 1187 H 127.323 -3.20109 2.80019 0
M  V30 1188 N 125.638 -1.25649 -0.95132 0
M  V30 1189 C 127.049 -1.09654 -1.51106 0
M  V30 1190 C 127.4 0.326615 -1.93462 0
M  V30 1191 O 126.525 1.21697 -1.78938 0
M  V30 1192 C 127.12 -1.98437 -2.74605 0
M  V30 1193 C 125.679 -1.86618 -3.2688 0
M  V30 1194 C 124.826 -1.9239 -1.99703 0
M  V30 1195 H 127.777 -1.38887 -0.767865 0
M  V30 1196 H 127.798 -1.5263 -3.48546 0
M  V30 1197 H 127.31 -3.02009 -2.43746 0
M  V30 1198 H 125.411 -0.859421 -3.62553 0
M  V30 1199 H 125.524 -2.71607 -3.94673 0
M  V30 1200 H 123.888 -1.36317 -2.15151 0
M  V30 1201 H 124.671 -2.97573 -1.71188 0
M  V30 1202 N 127.117 1.15442 -1.07289 0
M  V30 1203 C 128.347 1.89821 -0.815576 0
M  V30 1204 C 128.755 1.7823 0.634867 0
M  V30 1205 O 128.098 1.13152 1.44715 0
M  V30 1206 C 128.16 3.40817 -1.14385 0
M  V30 1207 C 127.824 3.76193 -2.59476 0
M  V30 1208 C 128.821 3.77269 -3.57721 0
M  V30 1209 C 126.506 4.0652 -2.95037 0
M  V30 1210 C 128.5 4.08176 -4.89562 0
M  V30 1211 C 126.187 4.37092 -4.27076 0
M  V30 1212 C 127.185 4.37902 -5.24148 0
M  V30 1213 O 126.873 4.67741 -6.53815 0
M  V30 1214 H 126.605 0.608465 -0.294528 0
M  V30 1215 H 129.159 1.472 -1.43252 0
M  V30 1216 H 127.389 3.83835 -0.469865 0
M  V30 1217 H 129.078 3.96485 -0.869179 0
M  V30 1218 H 129.844 3.5394 -3.3159 0
M  V30 1219 H 125.723 4.05049 -2.20128 0
M  V30 1220 H 129.267 4.08723 -5.65324 0
M  V30 1221 H 125.164 4.59889 -4.5296 0
M  V30 1222 H 125.932 4.85509 -6.58957 0
M  V30 1223 N 128.595 0.856903 1.32268 0
M  V30 1224 C 129.545 0.274899 2.26337 0
M  V30 1225 C 130.529 -0.580543 1.50062 0
M  V30 1226 O 131.721 -0.429559 1.71708 0
M  V30 1227 C 128.85 -0.533841 3.39124 0
M  V30 1228 C 127.936 0.334114 4.22782 0
M  V30 1229 N 128.327 1.42143 4.85416 0
M  V30 1230 C 126.625 0.124256 4.45827 0
M  V30 1231 C 127.326 1.95559 5.47843 0
M  V30 1232 N 126.302 1.25444 5.28928 0
M  V30 1233 H 130.104 1.10612 2.72291 0
M  V30 1234 H 127.618 0.703258 1.46383 0
M  V30 1235 H 129.615 -0.96722 4.05525 0
M  V30 1236 H 128.275 -1.36283 2.94715 0
M  V30 1237 H 129.286 1.80436 4.85451 0
M  V30 1238 H 125.963 -0.669837 4.12092 0
M  V30 1239 H 127.353 2.86714 6.07655 0
M  V30 1240 N 130.073 -1.45103 0.615059 0
M  V30 1241 C 131.301 -2.06553 0.11977 0
M  V30 1242 C 131.716 -1.45842 -1.19898 0
M  V30 1243 O 131.073 -0.575325 -1.73194 0
M  V30 1244 C 131.124 -3.61495 -0.018364 0
M  V30 1245 O 130.845 -4.19942 1.24822 0
M  V30 1246 C 132.346 -4.39947 -0.544237 0
M  V30 1247 H 129.566 -0.667096 0.0722739 0
M  V30 1248 H 132.11 -1.8623 0.84491 0
M  V30 1249 H 130.265 -3.81135 -0.693865 0
M  V30 1250 H 130.679 -5.13204 1.0827 0
M  V30 1251 H 132.153 -5.48838 -0.589953 0
M  V30 1252 H 132.63 -4.10255 -1.56805 0
M  V30 1253 H 133.236 -4.25188 0.0974703 0
M  V30 1254 N 131.551 -0.354651 -1.53558 0
M  V30 1255 C 132.797 0.238797 -2.01389 0
M  V30 1256 C 133.13 1.49309 -1.2418 0
M  V30 1257 O 132.405 1.91638 -0.332457 0
M  V30 1258 C 132.688 0.541771 -3.56001 0
M  V30 1259 C 132.541 -0.725388 -4.43912 0
M  V30 1260 C 133.86 1.34685 -4.18984 0
M  V30 1261 H 130.979 0.0853177 -0.732045 0
M  V30 1262 H 133.621 -0.477384 -1.83905 0
M  V30 1263 H 131.771 1.15189 -3.71031 0
M  V30 1264 H 133.443 -1.36313 -4.407 0
M  V30 1265 H 131.686 -1.34801 -4.12324 0
M  V30 1266 H 132.357 -0.468505 -5.50008 0
M  V30 1267 H 134.833 0.830837 -4.07721 0
M  V30 1268 H 133.709 1.52759 -5.27215 0
M  V30 1269 H 133.97 2.35221 -3.74331 0
M  V30 1270 N 133.029 1.57378 -0.0835403 0
M  V30 1271 C 134.275 1.95025 0.577664 0
M  V30 1272 C 134.63 0.964049 1.66505 0
M  V30 1273 O 133.923 -0.0118235 1.91596 0
M  V30 1274 C 134.117 3.37063 1.1884 0
M  V30 1275 C 133.946 4.49409 0.16171 0
M  V30 1276 C 132.716 5.04642 -0.257756 0
M  V30 1277 C 134.914 5.10722 -0.605634 0
M  V30 1278 N 132.896 6.00537 -1.27393 0
M  V30 1279 C 134.267 6.02225 -1.47395 0
M  V30 1280 C 136.322 4.93501 -0.660418 0
M  V30 1281 C 135.025 6.78355 -2.39221 0
M  V30 1282 C 137.051 5.70283 -1.56623 0
M  V30 1283 C 136.413 6.61444 -2.4222 0
M  V30 1284 H 132.512 0.760512 0.182058 0
M  V30 1285 H 135.096 1.94013 -0.163419 0
M  V30 1286 H 133.267 3.3879 1.89936 0
M  V30 1287 H 134.999 3.61917 1.81103 0
M  V30 1288 H 131.754 4.73428 0.127702 0
M  V30 1289 H 132.178 6.53184 -1.77987 0
M  V30 1290 H 136.82 4.22798 -0.0128221 0
M  V30 1291 H 134.538 7.48327 -3.05011 0
M  V30 1292 H 138.124 5.58976 -1.61361 0
M  V30 1293 H 137.004 7.1982 -3.11174 0
M  V30 1294 N 134.507 -0.190092 1.56449 0
M  V30 1295 C 135.784 -0.935886 1.71757 0
M  V30 1296 C 136.164 -2.01173 0.639726 0
M  V30 1297 O 135.512 -2.25827 -0.348502 0
M  V30 1298 C 135.722 -1.51775 3.1427 0
M  V30 1299 C 137.07 -1.99794 3.74656 0
M  V30 1300 O 138.094 -1.61607 3.1743 0
M  V30 1301 O 136.953 -2.70079 4.751 0
M  V30 1302 H 134.047 -0.439229 0.700719 0
M  V30 1303 H 136.593 -0.179395 1.68749 0
M  V30 1304 H 135.365 -0.742505 3.84191 0
M  V30 1305 H 134.988 -2.33894 3.21527 0
M  V30 1306 N 135.985 -1.50799 -0.457987 0
M  V30 1307 C 137.225 -1.64088 -1.21879 0
M  V30 1308 C 137.589 -0.339848 -1.88968 0
M  V30 1309 O 138.79 -0.348301 -2.66534 0
M  V30 1310 C 137.061 -2.79726 -2.2246 0
M  V30 1311 S 138.62 -3.13225 -3.07303 0
M  V30 1312 H 135.438 -0.578314 -0.41361 0
M  V30 1313 H 138.04 -1.88632 -0.513645 0
M  V30 1314 H 136.744 -3.72722 -1.71775 0
M  V30 1315 H 136.275 -2.57308 -2.97584 0
M  V30 1316 H 138.29 -2.58062 -4.23814 0
M  V30 1317 N 137.463 0.71206 -1.40597 0
M  V30 1318 C 138.74 1.46536 -1.29563 0
M  V30 1319 C 139.12 2.10931 0.0844217 0
M  V30 1320 O 138.468 2.00418 1.0975 0
M  V30 1321 C 138.678 2.49821 -2.43701 0
M  V30 1322 C 140.026 3.15551 -2.841 0
M  V30 1323 O 141.05 2.60142 -2.4332 0
M  V30 1324 O 139.909 4.15867 -3.54566 0
M  V30 1325 H 137.003 0.651801 -0.509004 0
M  V30 1326 H 139.549 0.743935 -1.52524 0
M  V30 1327 H 138.321 2.00778 -3.35863 0
M  V30 1328 H 137.944 3.29495 -2.22528 0
M  V30 1329 N 138.941 1.26152 0.944643 0
M  V30 1330 C 140.188 1.11492 1.69044 0
M  V30 1331 C 140.516 -0.342366 1.91463 0
M  V30 1332 O 139.771 -1.26812 1.49054 0
M  V30 1333 C 140.07 1.82541 3.07268 0
M  V30 1334 C 139.736 3.32445 3.04616 0
M  V30 1335 C 138.398 3.73337 3.036 0
M  V30 1336 C 140.75 4.28171 2.97185 0
M  V30 1337 C 138.078 5.08348 2.92915 0
M  V30 1338 C 140.43 5.63218 2.88041 0
M  V30 1339 C 139.094 6.03426 2.85366 0
M  V30 1340 H 138.364 0.407977 0.618576 0
M  V30 1341 H 141.011 1.56551 1.10291 0
M  V30 1342 H 139.316 1.29941 3.69625 0
M  V30 1343 H 141.013 1.68642 3.63815 0
M  V30 1344 H 137.603 2.99915 3.06185 0
M  V30 1345 H 141.787 3.97563 2.97081 0
M  V30 1346 H 137.043 5.38667 2.89219 0
M  V30 1347 H 141.217 6.37078 2.81254 0
M  V30 1348 H 138.844 7.07999 2.76842 0
M  V30 1349 N 140.419 -1.14872 1.07899 0
M  V30 1350 C 141.644 -1.90202 0.826926 0
M  V30 1351 C 142.069 -1.77774 -0.614664 0
M  V30 1352 O 141.427 -1.11431 -1.43013 0
M  V30 1353 C 141.475 -3.38352 1.24702 0
M  V30 1354 O 140.579 -4.10497 0.39575 0
M  V30 1355 H 139.92 -0.591968 0.300782 0
M  V30 1356 H 142.45 -1.45437 1.43907 0
M  V30 1357 H 142.46 -3.89156 1.22563 0
M  V30 1358 H 141.135 -3.46715 2.29698 0
M  V30 1359 H 139.712 -3.69796 0.480117 0
M  V30 1360 N 141.898 -0.863906 -1.31812 0
M  V30 1361 C 143.126 -0.486111 -2.01108 0
M  V30 1362 C 143.541 0.919755 -1.64882 0
M  V30 1363 O 142.898 1.60162 -0.874893 0
M  V30 1364 C 142.949 -0.626435 -3.56031 0
M  V30 1365 O 142.67 -1.97693 -3.90959 0
M  V30 1366 C 144.171 -0.248857 -4.42601 0
M  V30 1367 H 141.391 -0.190052 -0.643523 0
M  V30 1368 H 143.935 -1.1634 -1.68182 0
M  V30 1369 H 142.09 0.00322717 -3.874 0
M  V30 1370 H 142.504 -1.98034 -4.85678 0
M  V30 1371 H 143.978 -0.398016 -5.50563 0
M  V30 1372 H 144.455 0.811489 -4.31638 0
M  V30 1373 H 145.061 -0.853971 -4.16638 0
M  V30 1374 N 143.376 1.44774 -0.622745 0
M  V30 1375 C 144.624 2.01721 -0.123655 0
M  V30 1376 C 144.945 1.49172 1.25589 0
M  V30 1377 O 144.215 0.691974 1.83272 0
M  V30 1378 H 142.795 0.745777 -0.0427225 0
M  V30 1379 H 145.457 1.77382 -0.807559 0
M  V30 1380 H 144.553 3.11984 -0.0849534 0
M  V30 1381 N 144.854 0.36279 1.53368 0
M  V30 1382 C 145.801 -0.485008 2.25646 0
M  V30 1383 C 146.771 -1.07982 1.2621 0
M  V30 1384 O 147.956 -1.11284 1.54986 0
M  V30 1385 C 145.096 -1.62023 3.04701 0
M  V30 1386 C 144.209 -1.05086 4.19024 0
M  V30 1387 C 143.344 -2.15496 4.85525 0
M  V30 1388 C 142.383 -1.5601 5.91884 0
M  V30 1389 N 141.52 -2.60241 6.52088 0
M  V30 1390 H 146.36 0.137864 2.97681 0
M  V30 1391 H 143.897 0.0798061 1.46883 0
M  V30 1392 H 145.855 -2.28887 3.48807 0
M  V30 1393 H 144.485 -2.2138 2.34927 0
M  V30 1394 H 143.537 -0.27259 3.79422 0
M  V30 1395 H 144.849 -0.575926 4.95464 0
M  V30 1396 H 144.003 -2.90186 5.32801 0
M  V30 1397 H 142.742 -2.66341 4.08551 0
M  V30 1398 H 141.747 -0.798338 5.43973 0
M  V30 1399 H 142.972 -1.05994 6.70777 0
M  V30 1400 H 140.918 -3.10304 5.77968 0
M  V30 1401 H 140.835 -2.17426 7.24059 0
M  V30 1402 H 142.103 -3.34641 7.04014 0
M  V30 1403 N 146.332 -1.57332 0.0918853 0
M  V30 1404 C 147.581 -1.93412 -0.572249 0
M  V30 1405 C 147.894 -0.975515 -1.69538 0
M  V30 1406 O 149.1 -1.22991 -2.42045 0
M  V30 1407 C 147.556 -3.43648 -1.0693 0
M  V30 1408 C 147.164 -4.47994 0.0239049 0
M  V30 1409 C 148.908 -3.88695 -1.70635 0
M  V30 1410 C 146.815 -5.89381 -0.488319 0
M  V30 1411 H 145.745 -0.721939 -0.217532 0
M  V30 1412 H 148.396 -1.82735 0.167369 0
M  V30 1413 H 146.778 -3.49466 -1.8625 0
M  V30 1414 H 147.952 -4.53815 0.799277 0
M  V30 1415 H 146.267 -4.12536 0.565946 0
M  V30 1416 H 148.864 -4.91725 -2.10025 0
M  V30 1417 H 149.207 -3.27166 -2.57426 0
M  V30 1418 H 149.74 -3.85564 -0.979023 0
M  V30 1419 H 146.479 -6.54602 0.342906 0
M  V30 1420 H 145.999 -5.87037 -1.23077 0
M  V30 1421 H 147.678 -6.39863 -0.958317 0
M  V30 1422 N 147.81 0.181792 -1.56548 0
M  V30 1423 C 149.058 0.89832 -1.81038 0
M  V30 1424 C 149.379 1.83232 -0.667164 0
M  V30 1425 O 148.649 1.93372 0.313673 0
M  V30 1426 H 147.229 0.33471 -0.667816 0
M  V30 1427 H 149.891 0.184116 -1.94028 0
M  V30 1428 H 148.987 1.4815 -2.74696 0
M  V30 1429 N 149.288 1.51039 0.449983 0
M  V30 1430 C 150.534 1.64287 1.19923 0
M  V30 1431 C 150.889 0.348701 1.89214 0
M  V30 1432 O 150.182 -0.654751 1.80065 0
M  V30 1433 C 150.376 2.77556 2.25161 0
M  V30 1434 C 150.205 4.17862 1.66198 0
M  V30 1435 C 148.975 4.83976 1.45243 0
M  V30 1436 C 151.173 5.01388 1.14519 0
M  V30 1437 N 149.155 6.08433 0.817437 0
M  V30 1438 C 150.526 6.16743 0.634705 0
M  V30 1439 C 152.581 4.87008 1.03574 0
M  V30 1440 C 151.284 7.19295 0.0255452 0
M  V30 1441 C 153.31 5.89757 0.440489 0
M  V30 1442 C 152.672 7.04375 -0.0595112 0
M  V30 1443 H 148.771 0.655161 0.426952 0
M  V30 1444 H 151.355 1.88228 0.49781 0
M  V30 1445 H 149.526 2.553 2.92706 0
M  V30 1446 H 151.258 2.80049 2.92155 0
M  V30 1447 H 148.013 4.41627 1.71063 0
M  V30 1448 H 148.437 6.75017 0.517747 0
M  V30 1449 H 153.079 3.9866 1.4082 0
M  V30 1450 H 150.797 8.07302 -0.359071 0
M  V30 1451 H 154.383 5.80698 0.35788 0
M  V30 1452 H 153.263 7.82521 -0.512882 0
M  V30 1453 N 150.766 -0.704594 1.40972 0
M  V30 1454 C 152.013 -1.46458 1.39844 0
M  V30 1455 C 152.341 -1.94499 0.00447594 0
M  V30 1456 O 151.596 -1.69275 -0.982057 0
M  V30 1457 C 151.895 -2.698 2.34399 0
M  V30 1458 C 151.561 -2.40464 3.81429 0
M  V30 1459 C 150.223 -2.32174 4.21484 0
M  V30 1460 C 152.575 -2.16086 4.74296 0
M  V30 1461 C 149.903 -1.97589 5.52427 0
M  V30 1462 C 152.255 -1.83011 6.05549 0
M  V30 1463 C 150.919 -1.7321 6.44635 0
M  V30 1464 H 150.189 -0.535927 0.511725 0
M  V30 1465 H 152.836 -0.806124 1.73706 0
M  V30 1466 H 151.141 -3.40536 1.93759 0
M  V30 1467 H 152.838 -3.27919 2.30804 0
M  V30 1468 H 149.428 -2.47808 3.49699 0
M  V30 1469 H 153.612 -2.2144 4.4416 0
M  V30 1470 H 148.868 -1.88547 5.81601 0
M  V30 1471 H 153.042 -1.63164 6.77016 0
M  V30 1472 H 150.669 -1.46179 7.46013 0
M  V30 1473 N 152.244 -1.26651 -0.937939 0
M  V30 1474 C 153.174 -1.10993 -2.05433 0
M  V30 1475 C 154.155 -0.0142161 -1.70094 0
M  V30 1476 O 155.34 -0.186837 -1.93299 0
M  V30 1477 C 152.47 -0.745561 -3.39203 0
M  V30 1478 C 151.424 -1.79337 -3.88616 0
M  V30 1479 C 150.75 -1.28324 -5.19073 0
M  V30 1480 C 152.05 -3.19553 -4.13138 0
M  V30 1481 H 153.744 -2.0438 -2.1879 0
M  V30 1482 H 151.29 -0.984041 -1.05131 0
M  V30 1483 H 153.243 -0.622888 -4.16771 0
M  V30 1484 H 151.967 0.22401 -3.25831 0
M  V30 1485 H 150.626 -1.90477 -3.13231 0
M  V30 1486 H 150.274 -0.303414 -5.02084 0
M  V30 1487 H 149.974 -1.98369 -5.53103 0
M  V30 1488 H 151.498 -1.1733 -5.99221 0
M  V30 1489 H 152.912 -3.11471 -4.81309 0
M  V30 1490 H 151.309 -3.87218 -4.58457 0
M  V30 1491 H 152.379 -3.65368 -3.18801 0
M  V30 1492 N 153.722 1.14298 -1.08507 0
M  V30 1493 C 154.97 1.84993 -0.813763 0
M  V30 1494 C 155.291 1.83405 0.662393 0
M  V30 1495 O 154.561 1.28319 1.48024 0
M  V30 1496 H 153.141 0.684966 -0.298045 0
M  V30 1497 H 155.803 1.385 -1.37126 0
M  V30 1498 H 154.899 2.89788 -1.15884 0
M  V30 1499 N 155.201 0.870884 1.31352 0
M  V30 1500 C 156.449 0.48132 1.96285 0
M  V30 1501 C 156.77 -0.969813 1.69173 0
M  V30 1502 O 156.04 -1.67998 1.00764 0
M  V30 1503 H 154.62 0.175002 0.726212 0
M  V30 1504 H 157.282 1.11087 1.60143 0
M  V30 1505 H 156.378 0.639825 3.05471 0
M  V30 1506 N 156.679 -1.44442 0.630414 0
M  V30 1507 C 157.611 -2.2892 -0.113347 0
M  V30 1508 C 158.624 -1.41243 -0.80959 0
M  V30 1509 O 159.813 -1.65402 -0.671156 0
M  V30 1510 C 156.913 -3.17594 -1.18266 0
M  V30 1511 C 156.086 -4.33682 -0.569073 0
M  V30 1512 C 155.145 -5.03397 -1.53226 0
M  V30 1513 O 154.171 -5.59438 -1.04967 0
M  V30 1514 N 155.373 -5.04783 -2.86661 0
M  V30 1515 H 158.138 -2.93392 0.611636 0
M  V30 1516 H 155.699 -1.54881 0.471523 0
M  V30 1517 H 157.691 -3.61097 -1.82732 0
M  V30 1518 H 156.261 -2.54876 -1.80988 0
M  V30 1519 H 155.481 -3.9338 0.254187 0
M  V30 1520 H 156.769 -5.08608 -0.139767 0
M  V30 1521 H 156.167 -4.60584 -3.28449 0
M  V30 1522 H 154.724 -5.52077 -3.46489 0
M  V30 1523 N 158.157 -0.370918 -1.53173 0
M  V30 1524 C 159.087 0.464847 -2.28826 0
M  V30 1525 C 160.068 1.07936 -1.31468 0
M  V30 1526 O 161.253 1.0956 -1.60344 0
M  V30 1527 C 158.383 1.60196 -3.08147 0
M  V30 1528 C 157.337 1.11443 -4.13237 0
M  V30 1529 C 156.663 2.3422 -4.80672 0
M  V30 1530 C 157.963 0.195384 -5.21934 0
M  V30 1531 H 159.657 -0.166329 -2.98938 0
M  V30 1532 H 157.203 -0.0814359 -1.4377 0
M  V30 1533 H 159.156 2.19332 -3.59822 0
M  V30 1534 H 157.88 2.26045 -2.35735 0
M  V30 1535 H 156.539 0.545727 -3.62515 0
M  V30 1536 H 156.187 2.98537 -4.04827 0
M  V30 1537 H 155.887 2.02269 -5.51689 0
M  V30 1538 H 157.411 2.94032 -5.35143 0
M  V30 1539 H 158.825 0.694375 -5.69079 0
M  V30 1540 H 157.222 -0.0335027 -6.00091 0
M  V30 1541 H 158.292 -0.760961 -4.78892 0
M  V30 1542 N 159.635 1.57281 -0.100228 0
M  V30 1543 C 160.583 2.15542 0.874328 0
M  V30 1544 C 161.577 1.09962 1.28859 0
M  V30 1545 O 162.783 1.28298 1.26252 0
M  V30 1546 H 159.158 0.689567 0.300003 0
M  V30 1547 H 161.129 2.96241 0.35829 0
M  V30 1548 C 159.878 2.75454 2.1218 0
M  V30 1549 H 159.201 3.56384 1.81193 0
M  V30 1550 H 160.641 3.19781 2.78417 0
M  V30 1551 C 159.1 1.71602 2.89921 0
M  V30 1552 O 159.63 1.15804 3.84646 0
M  V30 1553 N 157.836 1.41975 2.53558 0
M  V30 1554 H 157.383 1.87539 1.76598 0
M  V30 1555 H 157.341 0.727274 3.05873 0
M  V30 1556 N 161.113 -0.173488 1.56642 0
M  V30 1557 C 162.359 -0.891784 1.8214 0
M  V30 1558 C 162.692 -1.8199 0.677736 0
M  V30 1559 O 161.967 -1.91842 -0.320446 0
M  V30 1560 C 162.25 -1.68933 3.18015 0
M  V30 1561 C 162.103 -0.784487 4.42906 0
M  V30 1562 C 163.422 -2.65748 3.50808 0
M  V30 1563 H 160.541 -0.322761 0.662567 0
M  V30 1564 H 163.183 -0.158095 1.89341 0
M  V30 1565 H 161.333 -2.31482 3.12007 0
M  V30 1566 H 163.005 -0.172046 4.60979 0
M  V30 1567 H 161.248 -0.0924117 4.33702 0
M  V30 1568 H 161.919 -1.37799 5.34524 0
M  V30 1569 H 164.395 -2.13327 3.57255 0
M  V30 1570 H 163.271 -3.18619 4.4696 0
M  V30 1571 H 163.532 -3.45842 2.75401 0
M  V30 1572 N 162.591 -1.51276 -0.441967 0
M  V30 1573 C 163.816 -1.67799 -1.21895 0
M  V30 1574 C 164.241 -0.372864 -1.84367 0
M  V30 1575 O 163.599 0.666501 -1.68604 0
M  V30 1576 C 163.647 -2.79199 -2.28211 0
M  V30 1577 O 162.751 -2.42479 -3.33583 0
M  V30 1578 H 162.092 -0.559649 -0.357336 0
M  V30 1579 H 164.622 -1.97815 -0.522522 0
M  V30 1580 H 164.632 -3.03146 -2.73069 0
M  V30 1581 H 163.307 -3.73906 -1.82118 0
M  V30 1582 H 161.884 -2.29087 -2.94234 0
M  V30 1583 N 164.069 0.697108 -1.41344 0
M  V30 1584 C 165.315 1.4593 -1.40827 0
M  V30 1585 C 165.648 1.94193 -0.0167098 0
M  V30 1586 O 164.923 1.69425 0.955263 0
M  V30 1587 C 165.206 2.67229 -2.41373 0
M  V30 1588 C 165.059 2.24741 -3.8963 0
M  V30 1589 C 166.378 3.69423 -2.39196 0
M  V30 1590 H 163.497 0.529303 -0.512842 0
M  V30 1591 H 166.139 0.794112 -1.72609 0
M  V30 1592 H 164.289 3.23982 -2.14401 0
M  V30 1593 H 165.961 1.73327 -4.27499 0
M  V30 1594 H 164.204 1.56542 -4.0457 0
M  V30 1595 H 164.875 3.1177 -4.55525 0
M  V30 1596 H 167.351 3.2234 -2.63128 0
M  V30 1597 H 166.227 4.51907 -3.11563 0
M  V30 1598 H 166.488 4.19012 -1.41001 0
M  V30 1599 N 165.547 1.27147 0.931209 0
M  V30 1600 C 166.495 1.09398 2.05268 0
M  V30 1601 C 167.489 0.0180591 1.6939 0
M  V30 1602 O 168.695 0.17551 1.79142 0
M  V30 1603 H 165.07 0.336986 0.672268 0
M  V30 1604 H 167.041 2.04416 2.17386 0
M  V30 1605 C 165.79 0.75424 3.39421 0
M  V30 1606 H 165.113 1.57404 3.67511 0
M  V30 1607 H 166.553 0.669903 4.18674 0
M  V30 1608 C 165.012 -0.541197 3.32525 0
M  V30 1609 O 165.542 -1.57664 3.69466 0
M  V30 1610 N 163.748 -0.535517 2.85623 0
M  V30 1611 H 163.295 0.307511 2.55758 0
M  V30 1612 H 163.253 -1.40236 2.81392 0
M  V30 1613 N 167.025 -1.13721 1.09112 0
M  V30 1614 C 168.265 -1.86576 0.834801 0
M  V30 1615 C 168.629 -1.81435 -0.628122 0
M  V30 1616 O 169.83 -2.49497 -1.00024 0
M  V30 1617 C 168.101 -3.30872 1.35124 0
M  V30 1618 S 169.66 -4.21257 1.22832 0
M  V30 1619 H 166.478 -0.643666 0.302017 0
M  V30 1620 H 169.08 -1.37085 1.39385 0
M  V30 1621 H 167.784 -3.32166 2.41027 0
M  V30 1622 H 167.315 -3.85423 0.788185 0
M  V30 1623 H 169.33 -4.95884 0.177191 0
M  V30 1624 N 168.503 -0.877838 -1.30888 0
M  V30 1625 C 169.433 -0.35534 -2.3078 0
M  V30 1626 C 170.414 0.557994 -1.60687 0
M  V30 1627 O 171.599 0.473355 -1.88343 0
M  V30 1628 C 168.729 0.437221 -3.44537 0
M  V30 1629 C 167.683 -0.383715 -4.26276 0
M  V30 1630 C 167.009 0.535014 -5.32017 0
M  V30 1631 C 168.309 -1.62201 -4.96476 0
M  V30 1632 H 170.003 -1.19007 -2.74732 0
M  V30 1633 H 167.549 -0.573698 -1.32078 0
M  V30 1634 H 169.502 0.813334 -4.13477 0
M  V30 1635 H 168.226 1.30553 -2.99372 0
M  V30 1636 H 166.885 -0.741874 -3.59015 0
M  V30 1637 H 166.533 1.40083 -4.831 0
M  V30 1638 H 166.233 -0.0104211 -5.87599 0
M  V30 1639 H 167.757 0.907799 -6.03814 0
M  V30 1640 H 169.171 -1.31689 -5.5797 0
M  V30 1641 H 167.568 -2.10711 -5.61891 0
M  V30 1642 H 168.638 -2.37044 -4.23011 0
M  V30 1643 N 169.982 1.44106 -0.638065 0
M  V30 1644 C 171.259 1.95453 -0.0759321 0
M  V30 1645 C 171.639 1.57984 1.40015 0
M  V30 1646 O 170.987 0.857361 2.11806 0
M  V30 1647 C 171.197 3.47655 -0.306132 0
M  V30 1648 C 172.545 4.24114 -0.203008 0
M  V30 1649 O 173.569 3.55405 -0.237871 0
M  V30 1650 O 172.428 5.46381 -0.113827 0
M  V30 1651 H 169.522 0.826797 0.0183332 0
M  V30 1652 H 172.068 1.54122 -0.710251 0
M  V30 1653 H 170.84 3.68 -1.3301 0
M  V30 1654 H 170.463 3.95949 0.361991 0
M  V30 1655 N 171.46 0.379036 1.52974 0
M  V30 1656 C 172.392 -0.495963 2.2377 0
M  V30 1657 C 173.405 -1.03517 1.25651 0
M  V30 1658 O 174.594 -0.939249 1.51791 0
M  V30 1659 C 171.694 -1.69894 2.93239 0
M  V30 1660 C 170.867 -1.2889 4.17979 0
M  V30 1661 C 169.926 -2.35543 4.70538 0
M  V30 1662 O 168.952 -1.97375 5.33883 0
M  V30 1663 N 170.154 -3.67318 4.49508 0
M  V30 1664 H 172.919 0.110523 2.99496 0
M  V30 1665 H 170.48 0.204878 1.60598 0
M  V30 1666 H 172.472 -2.40747 3.25304 0
M  V30 1667 H 171.042 -2.212 2.20883 0
M  V30 1668 H 170.262 -0.409676 3.92065 0
M  V30 1669 H 171.55 -0.991443 4.99047 0
M  V30 1670 H 170.948 -4.01095 3.98923 0
M  V30 1671 H 169.505 -4.34235 4.8609 0
M  V30 1672 N 172.938 -1.57226 0.108567 0
M  V30 1673 C 173.888 -2.11305 -0.856396 0
M  V30 1674 C 174.872 -1.03129 -1.23504 0
M  V30 1675 O 176.064 -1.29381 -1.20787 0
M  V30 1676 C 173.193 -2.70771 -2.11041 0
M  V30 1677 C 172.279 -3.86011 -1.7566 0
M  V30 1678 N 172.67 -4.93492 -1.10902 0
M  V30 1679 C 170.968 -3.95999 -2.05185 0
M  V30 1680 C 171.669 -5.73984 -0.944308 0
M  V30 1681 N 170.645 -5.2346 -1.46596 0
M  V30 1682 H 174.447 -2.91784 -0.352002 0
M  V30 1683 H 171.961 -1.62126 -0.0942324 0
M  V30 1684 H 173.958 -3.07851 -2.81128 0
M  V30 1685 H 172.618 -1.91751 -2.62034 0
M  V30 1686 H 173.629 -5.1208 -0.774235 0
M  V30 1687 H 170.306 -3.28007 -2.58298 0
M  V30 1688 H 171.696 -6.70479 -0.436813 0
M  V30 1689 N 174.416 0.165178 -1.56732 0
M  V30 1690 C 175.662 0.882112 -1.82611 0
M  V30 1691 C 175.995 1.81628 -0.687378 0
M  V30 1692 O 175.27 1.92009 0.310267 0
M  V30 1693 C 175.553 1.67245 -3.18906 0
M  V30 1694 C 175.406 0.760987 -4.43316 0
M  V30 1695 C 176.725 2.63884 -3.52212 0
M  V30 1696 H 173.844 0.319242 -0.664269 0
M  V30 1697 H 176.486 0.148052 -1.89422 0
M  V30 1698 H 174.636 2.29824 -3.1323 0
M  V30 1699 H 176.308 0.147596 -4.61064 0
M  V30 1700 H 174.551 0.0694102 -4.33744 0
M  V30 1701 H 175.222 1.34962 -5.35247 0
M  V30 1702 H 177.698 2.11429 -3.58381 0
M  V30 1703 H 176.574 3.16245 -4.48643 0
M  V30 1704 H 176.835 3.44377 -2.77231 0
M  V30 1705 N 175.894 1.51508 0.433938 0
M  V30 1706 C 177.31 1.39759 0.770682 0
M  V30 1707 C 177.51 0.482594 1.95636 0
M  V30 1708 O 176.566 -0.0609691 2.52426 0
M  V30 1709 C 177.879 2.81851 1.04787 0
M  V30 1710 C 179.427 2.91025 1.1521 0
M  V30 1711 C 179.902 4.34032 1.46219 0
M  V30 1712 N 181.393 4.37154 1.53136 0
M  V30 1713 C 182.128 5.4484 1.78709 0
M  V30 1714 N 181.624 6.62682 2.02051 0
M  V30 1715 N 183.417 5.32324 1.80519 0
M  V30 1716 H 175.568 2.09548 -0.346892 0
M  V30 1717 H 177.831 0.943446 -0.0928074 0
M  V30 1718 H 177.537 3.50815 0.249304 0
M  V30 1719 H 177.411 3.21386 1.97461 0
M  V30 1720 H 179.798 2.22257 1.94128 0
M  V30 1721 H 179.879 2.54983 0.204281 0
M  V30 1722 H 179.523 5.03351 0.678274 0
M  V30 1723 H 179.453 4.6759 2.42212 0
M  V30 1724 H 181.944 3.52197 1.36987 0
M  V30 1725 H 182.257 7.40543 2.20943 0
M  V30 1726 H 180.602 6.65791 1.99366 0
M  V30 1727 H 183.793 4.39246 1.61805 0
M  V30 1728 H 183.966 6.16328 2.00111 0
M  V30 1729 N 177.372 -0.689602 1.41712 0
M  V30 1730 C 178.319 -1.80345 1.44029 0
M  V30 1731 C 179.289 -1.63478 0.293948 0
M  V30 1732 O 180.474 -1.84244 0.495869 0
M  V30 1733 C 177.614 -3.18272 1.33405 0
M  V30 1734 C 176.727 -3.46529 2.57956 0
M  V30 1735 C 175.862 -4.74103 2.39582 0
M  V30 1736 C 174.901 -4.95347 3.5958 0
M  V30 1737 N 174.038 -6.14151 3.40239 0
M  V30 1738 H 178.878 -1.77698 2.39222 0
M  V30 1739 H 176.415 -0.867688 1.18784 0
M  V30 1740 H 178.373 -3.97956 1.25246 0
M  V30 1741 H 177.003 -3.2008 0.418164 0
M  V30 1742 H 176.055 -2.61207 2.76542 0
M  V30 1743 H 177.367 -3.58126 3.47199 0
M  V30 1744 H 176.521 -5.61853 2.28924 0
M  V30 1745 H 175.26 -4.64763 1.47805 0
M  V30 1746 H 174.265 -4.06044 3.70686 0
M  V30 1747 H 175.49 -5.06542 4.52318 0
M  V30 1748 H 173.436 -6.06013 2.51167 0
M  V30 1749 H 173.353 -6.26543 4.23061 0
M  V30 1750 H 174.621 -7.04619 3.33365 0
M  V30 1751 N 178.85 -1.27639 -0.924453 0
M  V30 1752 C 180.075 -1.17101 -1.71179 0
M  V30 1753 C 180.5 0.268134 -1.86179 0
M  V30 1754 O 179.858 1.19415 -1.36418 0
M  V30 1755 C 179.906 -1.86313 -3.08739 0
M  V30 1756 O 179.01 -1.16331 -3.95652 0
M  V30 1757 H 178.351 -0.407091 -0.524569 0
M  V30 1758 H 180.881 -1.68767 -1.15666 0
M  V30 1759 H 180.891 -1.938 -3.59034 0
M  V30 1760 H 179.566 -2.91001 -2.97138 0
M  V30 1761 H 178.143 -1.16935 -3.54091 0
M  V30 1762 N 180.328 1.1314 -1.09713 0
M  V30 1763 C 181.739 1.66029 -0.853885 0
M  V30 1764 C 182.09 1.86241 0.617142 0
M  V30 1765 O 181.215 1.5834 1.47503 0
M  V30 1766 C 181.81 3.01599 -1.5435 0
M  V30 1767 C 180.369 3.51467 -1.34714 0
M  V30 1768 C 179.516 2.26648 -1.59769 0
M  V30 1769 H 182.467 0.970226 -1.25588 0
M  V30 1770 H 182.488 3.67709 -0.978267 0
M  V30 1771 H 182 2.86856 -2.6141 0
M  V30 1772 H 180.101 3.71408 -0.297838 0
M  V30 1773 H 180.214 4.314 -2.08401 0
M  V30 1774 H 178.578 2.33385 -1.01998 0
M  V30 1775 H 179.361 2.14467 -2.68065 0
M  V30 1776 N 181.806 0.884767 1.30421 0
M  V30 1777 C 182.716 0.355398 2.31892 0
M  V30 1778 C 183.732 -0.542261 1.65335 0
M  V30 1779 O 184.908 -0.435432 1.96637 0
M  V30 1780 C 181.973 -0.421661 3.44126 0
M  V30 1781 C 181.034 0.505727 4.26311 0
M  V30 1782 C 180.267 -0.234343 5.33185 0
M  V30 1783 O 180.49 -1.46045 5.51386 0
M  V30 1784 O 179.424 0.415443 6.00465 0
M  V30 1785 H 183.25 1.19685 2.79122 0
M  V30 1786 H 180.835 0.648596 1.34587 0
M  V30 1787 H 182.717 -0.861641 4.12497 0
M  V30 1788 H 181.392 -1.23942 2.99032 0
M  V30 1789 H 180.299 0.994513 3.60639 0
M  V30 1790 H 181.632 1.28948 4.75009 0
M  V30 1791 N 183.284 -1.43765 0.645699 0
M  V30 1792 C 184.509 -2.06767 0.161883 0
M  V30 1793 C 184.934 -1.48034 -1.16049 0
M  V30 1794 O 184.292 -0.587369 -1.71522 0
M  V30 1795 C 184.34 -3.60519 0.0762003 0
M  V30 1796 O 183.444 -4.00982 -0.963721 0
M  V30 1797 H 182.785 -0.657675 0.091429 0
M  V30 1798 H 185.315 -1.84397 0.886499 0
M  V30 1799 H 185.325 -4.07853 -0.109604 0
M  V30 1800 H 184 -4.02646 1.04157 0
M  V30 1801 H 182.577 -3.65253 -0.751312 0
M  V30 1802 N 184.763 -0.387143 -1.52771 0
M  V30 1803 C 186.009 0.196025 -2.0185 0
M  V30 1804 C 186.342 1.46641 -1.27319 0
M  V30 1805 O 185.617 1.90889 -0.373032 0
M  V30 1806 C 185.9 0.466136 -3.5707 0
M  V30 1807 C 185.753 -0.819385 -4.42274 0
M  V30 1808 C 187.072 1.25768 -4.21747 0
M  V30 1809 H 184.191 0.0697708 -0.73369 0
M  V30 1810 H 186.833 -0.516286 -1.82851 0
M  V30 1811 H 184.983 1.07293 -3.7339 0
M  V30 1812 H 186.655 -1.4563 -4.37709 0
M  V30 1813 H 184.898 -1.43517 -4.09372 0
M  V30 1814 H 185.569 -0.585065 -5.48891 0
M  V30 1815 H 188.045 0.744167 -4.09391 0
M  V30 1816 H 186.921 1.41541 -5.30337 0
M  V30 1817 H 187.182 2.27228 -3.79236 0
M  V30 1818 N 186.241 1.57166 -0.116904 0
M  V30 1819 C 187.204 2.14039 0.819742 0
M  V30 1820 C 188.204 1.07477 1.19605 0
M  V30 1821 O 189.394 1.33263 1.1219 0
M  V30 1822 C 186.526 2.67891 2.10826 0
M  V30 1823 H 187.719 2.98128 0.325511 0
M  V30 1824 H 185.272 1.55739 0.132312 0
M  V30 1825 H 186.007 1.87384 2.64685 0
M  V30 1826 H 185.792 3.45823 1.84793 0
M  V30 1827 H 187.282 3.11809 2.77785 0
M  V30 1828 N 187.719 -0.156864 1.56817 0
M  V30 1829 C 188.649 -1.19589 2.00551 0
M  V30 1830 C 189.63 -1.4536 0.883426 0
M  V30 1831 O 190.815 -1.56449 1.15054 0
M  V30 1832 C 187.945 -2.53143 2.37773 0
M  V30 1833 C 186.899 -2.41913 3.53075 0
M  V30 1834 C 186.225 -3.80088 3.76081 0
M  V30 1835 C 187.525 -1.91157 4.86062 0
M  V30 1836 H 189.219 -0.832293 2.87599 0
M  V30 1837 H 186.765 -0.398918 1.38364 0
M  V30 1838 H 188.718 -3.26047 2.66967 0
M  V30 1839 H 187.442 -2.91319 1.4765 0
M  V30 1840 H 186.101 -1.71462 3.24031 0
M  V30 1841 H 185.749 -4.15683 2.83225 0
M  V30 1842 H 185.449 -3.73439 4.53671 0
M  V30 1843 H 186.973 -4.54556 4.0769 0
M  V30 1844 H 188.387 -2.53846 5.14038 0
M  V30 1845 H 186.784 -1.95422 5.67389 0
M  V30 1846 H 187.854 -0.866673 4.77092 0
M  V30 1847 N 189.197 -1.51736 -0.425897 0
M  V30 1848 C 190.446 -1.64201 -1.17136 0
M  V30 1849 C 190.759 -0.369705 -1.92074 0
M  V30 1850 O 191.965 -0.373898 -2.68913 0
M  V30 1851 C 190.421 -2.90035 -2.13091 0
M  V30 1852 C 190.029 -4.24312 -1.43747 0
M  V30 1853 C 191.773 -3.1186 -2.87999 0
M  V30 1854 C 189.68 -5.41285 -2.38253 0
M  V30 1855 H 188.61 -0.611624 -0.440944 0
M  V30 1856 H 191.261 -1.78212 -0.437328 0
M  V30 1857 H 189.643 -2.69684 -2.89977 0
M  V30 1858 H 190.817 -4.55086 -0.723408 0
M  V30 1859 H 189.132 -4.08456 -0.809465 0
M  V30 1860 H 191.729 -3.96427 -3.58817 0
M  V30 1861 H 192.072 -2.25403 -3.49999 0
M  V30 1862 H 192.605 -3.32605 -2.18217 0
M  V30 1863 H 189.344 -6.30037 -1.80925 0
M  V30 1864 H 188.864 -5.14872 -3.0768 0
M  V30 1865 H 190.543 -5.73694 -2.99139 0
M  V30 1866 N 190.675 0.682077 -1.42076 0
M  V30 1867 C 191.921 1.44283 -1.43366 0
M  V30 1868 C 192.276 1.92344 -0.0465775 0
M  V30 1869 O 191.569 1.67517 0.929973 0
M  V30 1870 C 191.763 2.66036 -2.38662 0
M  V30 1871 C 191.592 2.29889 -3.86499 0
M  V30 1872 C 190.362 2.19599 -4.55087 0
M  V30 1873 C 192.56 1.91999 -4.77117 0
M  V30 1874 N 190.542 1.76478 -5.87987 0
M  V30 1875 C 191.913 1.59741 -5.99068 0
M  V30 1876 C 193.968 1.78927 -4.64639 0
M  V30 1877 C 192.671 1.15723 -7.0993 0
M  V30 1878 C 194.697 1.36314 -5.75476 0
M  V30 1879 C 194.059 1.04975 -6.96534 0
M  V30 1880 H 190.158 0.524739 -0.579805 0
M  V30 1881 H 192.742 0.787834 -1.78048 0
M  V30 1882 H 190.913 3.29237 -2.06053 0
M  V30 1883 H 192.645 3.32588 -2.30581 0
M  V30 1884 H 189.4 2.38433 -4.09202 0
M  V30 1885 H 189.824 1.57362 -6.58458 0
M  V30 1886 H 194.466 2.01805 -3.7153 0
M  V30 1887 H 192.184 0.91591 -8.02893 0
M  V30 1888 H 195.77 1.26731 -5.6783 0
M  V30 1889 H 194.65 0.725017 -7.80841 0
M  V30 1890 N 192.153 1.28127 0.917671 0
M  V30 1891 C 193.063 1.13556 2.05286 0
M  V30 1892 C 194.079 0.0630914 1.73886 0
M  V30 1893 O 195.255 0.271598 1.9956 0
M  V30 1894 C 192.32 0.794676 3.3747 0
M  V30 1895 C 191.381 1.94909 3.82504 0
M  V30 1896 C 190.614 1.62437 5.0838 0
M  V30 1897 O 190.837 0.536905 5.67867 0
M  V30 1898 O 189.771 2.46677 5.4903 0
M  V30 1899 H 193.597 2.08844 2.20495 0
M  V30 1900 H 191.182 1.07409 1.03845 0
M  V30 1901 H 193.064 0.618344 4.16839 0
M  V30 1902 H 191.739 -0.128581 3.23445 0
M  V30 1903 H 190.646 2.18055 3.03978 0
M  V30 1904 H 191.979 2.85291 4.01086 0
M  V30 1905 N 193.631 -1.12557 1.10312 0
M  V30 1906 C 195.047 -1.36036 0.834649 0
M  V30 1907 C 195.247 -1.93946 -0.546539 0
M  V30 1908 O 194.303 -2.16484 -1.29966 0
M  V30 1909 C 195.616 -2.30312 1.9333 0
M  V30 1910 C 197.164 -2.43906 1.9616 0
M  V30 1911 C 197.639 -3.41496 3.05195 0
M  V30 1912 N 199.13 -3.49053 3.04494 0
M  V30 1913 C 199.865 -4.24471 3.85502 0
M  V30 1914 N 199.361 -5.02966 4.76442 0
M  V30 1915 N 201.154 -4.19864 3.73725 0
M  V30 1916 H 193.305 -0.733246 1.99342 0
M  V30 1917 H 195.568 -0.385234 0.866198 0
M  V30 1918 H 195.274 -1.94933 2.92735 0
M  V30 1919 H 195.148 -3.30421 1.81939 0
M  V30 1920 H 197.535 -2.78567 0.973886 0
M  V30 1921 H 197.616 -1.4369 2.11629 0
M  V30 1922 H 197.26 -3.07565 4.04186 0
M  V30 1923 H 197.19 -4.41539 2.86968 0
M  V30 1924 H 199.681 -2.93053 2.38596 0
M  V30 1925 H 199.994 -5.57846 5.34815 0
M  V30 1926 H 198.339 -5.02167 4.80472 0
M  V30 1927 H 201.53 -3.57623 3.02032 0
M  V30 1928 H 201.703 -4.78386 4.37093 0
M  V30 1929 N 195.109 -0.891671 -1.2995 0
M  V30 1930 C 196.386 -0.433307 -1.9074 0
M  V30 1931 C 196.766 1.08646 -1.80995 0
M  V30 1932 O 196.114 1.92476 -1.23147 0
M  V30 1933 C 196.324 -0.938895 -3.36134 0
M  V30 1934 C 197.672 -0.977829 -4.13187 0
M  V30 1935 O 198.696 -0.886015 -3.45005 0
M  V30 1936 O 197.555 -1.11453 -5.35015 0
M  V30 1937 H 194.649 -0.133699 -0.816121 0
M  V30 1938 H 197.195 -0.981011 -1.38471 0
M  V30 1939 H 195.967 -1.98281 -3.37343 0
M  V30 1940 H 195.59 -0.37074 -3.95868 0
M  V30 1941 N 196.587 1.43421 -0.653314 0
M  V30 1942 C 197.497 2.34568 0.0388565 0
M  V30 1943 C 198.513 1.53888 0.81207 0
M  V30 1944 O 199.689 1.86539 0.759294 0
M  V30 1945 C 196.754 3.32167 0.993269 0
M  V30 1946 C 195.815 4.28751 0.216977 0
M  V30 1947 C 195.048 5.21688 1.12593 0
M  V30 1948 O 195.271 5.19052 2.36519 0
M  V30 1949 O 194.205 5.98919 0.598284 0
M  V30 1950 H 198.031 2.95251 -0.711386 0
M  V30 1951 H 195.616 1.43564 -0.413502 0
M  V30 1952 H 197.498 3.92183 1.54176 0
M  V30 1953 H 196.173 2.73987 1.72374 0
M  V30 1954 H 195.08 3.72215 -0.375101 0
M  V30 1955 H 196.413 4.89913 -0.473924 0
M  V30 1956 N 198.065 0.39524 1.52563 0
M  V30 1957 C 199.476 -0.0774719 1.86539 0
M  V30 1958 C 199.827 -1.45641 1.31466 0
M  V30 1959 O 198.952 -2.06459 0.648367 0
M  V30 1960 C 199.547 -0.147356 3.38479 0
M  V30 1961 C 198.106 -0.564373 3.72145 0
M  V30 1962 C 197.253 0.269919 2.75983 0
M  V30 1963 H 200.204 0.612876 1.46388 0
M  V30 1964 H 200.225 -0.965343 3.68051 0
M  V30 1965 H 199.737 0.856387 3.78534 0
M  V30 1966 H 197.838 -1.57527 3.37663 0
M  V30 1967 H 197.951 -0.318402 4.78041 0
M  V30 1968 H 196.315 -0.265696 2.5331 0
M  V30 1969 H 197.098 1.27175 3.18875 0
M  V30 1970 N 199.544 -1.57102 0.125237 0
M  V30 1971 C 200.792 -1.95021 -0.530198 0
M  V30 1972 C 201.113 -1.00982 -1.66816 0
M  V30 1973 O 200.383 -0.0672693 -1.95784 0
M  V30 1974 H 198.963 -0.720046 -0.198853 0
M  V30 1975 H 201.625 -1.93916 0.19564 0
M  V30 1976 H 200.721 -2.98211 -0.920681 0
M  V30 1977 N 201.022 0.148545 -1.56898 0
M  V30 1978 C 202.25 0.876389 -1.87422 0
M  V30 1979 C 202.665 1.74809 -0.713256 0
M  V30 1980 O 202.022 1.79725 0.317025 0
M  V30 1981 C 202.073 1.73438 -3.17178 0
M  V30 1982 O 201.794 0.897809 -4.28802 0
M  V30 1983 C 203.295 2.56993 -3.61205 0
M  V30 1984 H 200.515 0.253489 -0.621277 0
M  V30 1985 H 203.059 0.141798 -2.04008 0
M  V30 1986 H 201.214 2.42205 -3.0235 0
M  V30 1987 H 201.628 1.48672 -5.02988 0
M  V30 1988 H 203.102 3.12773 -4.54838 0
M  V30 1989 H 203.579 3.32958 -2.86419 0
M  V30 1990 H 204.185 1.9352 -3.78722 0
M  V30 1991 N 202.5 1.5196 0.417844 0
M  V30 1992 C 203.41 1.77554 1.53336 0
M  V30 1993 C 204.426 0.660655 1.6097 0
M  V30 1994 O 205.602 0.945099 1.77848 0
M  V30 1995 C 202.667 1.91291 2.89152 0
M  V30 1996 C 201.728 3.15183 2.91475 0
M  V30 1997 C 200.961 3.28256 4.20813 0
M  V30 1998 O 201.184 2.46798 5.14244 0
M  V30 1999 O 200.118 4.21356 4.29817 0
M  V30 2000 H 203.944 2.7222 1.34647 0
M  V30 2001 H 201.529 1.36698 0.602828 0
M  V30 2002 H 203.411 2.02199 3.69721 0
M  V30 2003 H 202.086 0.998129 3.07927 0
M  V30 2004 H 200.993 3.09739 2.09791 0
M  V30 2005 H 202.326 4.06414 2.77648 0
M  V30 2006 N 203.978 -0.674533 1.42435 0
M  V30 2007 C 205.224 -1.43671 1.43131 0
M  V30 2008 C 205.557 -1.94142 0.0476021 0
M  V30 2009 O 204.832 -1.70924 -0.928188 0
M  V30 2010 C 205.115 -2.63355 2.45594 0
M  V30 2011 C 204.968 -2.18514 3.93156 0
M  V30 2012 C 206.287 -3.65571 2.45043 0
M  V30 2013 H 203.406 -0.521077 0.521198 0
M  V30 2014 H 206.048 -0.766551 1.7385 0
M  V30 2015 H 204.198 -3.2053 2.19528 0
M  V30 2016 H 205.87 -1.66504 4.30202 0
M  V30 2017 H 204.113 -1.50086 4.07009 0
M  V30 2018 H 204.784 -3.04484 4.60428 0
M  V30 2019 H 207.26 -3.18113 2.68223 0
M  V30 2020 H 206.136 -4.46893 3.18713 0
M  V30 2021 H 206.397 -4.16716 1.47649 0
M  V30 2022 N 205.456 -1.28612 -0.910864 0
M  V30 2023 C 206.872 -1.06381 -1.18976 0
M  V30 2024 C 207.072 0.191998 -2.00583 0
M  V30 2025 O 206.128 0.892869 -2.36187 0
M  V30 2026 C 207.441 -2.31295 -1.92154 0
M  V30 2027 C 208.989 -2.36503 -2.05025 0
M  V30 2028 C 209.464 -3.61191 -2.81612 0
M  V30 2029 N 210.955 -3.61847 -2.89172 0
M  V30 2030 C 211.69 -4.55004 -3.4894 0
M  V30 2031 N 211.186 -5.58482 -4.09963 0
M  V30 2032 N 212.979 -4.42594 -3.46506 0
M  V30 2033 H 205.13 -2.09221 -0.366094 0
M  V30 2034 H 207.393 -0.921003 -0.224629 0
M  V30 2035 H 207.099 -3.228 -1.39618 0
M  V30 2036 H 206.973 -2.37934 -2.9269 0
M  V30 2037 H 209.36 -1.45494 -2.5674 0
M  V30 2038 H 209.441 -2.33857 -1.03657 0
M  V30 2039 H 209.085 -4.52545 -2.30576 0
M  V30 2040 H 209.015 -3.61092 -3.83302 0
M  V30 2041 H 211.506 -2.87022 -2.45819 0
M  V30 2042 H 211.819 -6.25704 -4.53557 0
M  V30 2043 H 210.164 -5.62305 -4.08459 0
M  V30 2044 H 213.355 -3.60953 -2.98045 0
M  V30 2045 H 213.528 -5.15381 -3.92793 0
M  V30 2046 N 206.934 1.1197 -1.10907 0
M  V30 2047 C 208.183 1.82947 -0.849302 0
M  V30 2048 C 208.496 1.85275 0.627112 0
M  V30 2049 O 209.702 2.52296 1.00295 0
M  V30 2050 C 208.158 3.28529 -1.46959 0
M  V30 2051 C 207.766 3.34546 -2.97965 0
M  V30 2052 C 209.51 4.04443 -1.28942 0
M  V30 2053 C 207.417 4.74491 -3.53004 0
M  V30 2054 H 206.347 0.685477 -0.314065 0
M  V30 2055 H 208.998 1.2604 -1.33365 0
M  V30 2056 H 207.38 3.85333 -0.912917 0
M  V30 2057 H 208.554 2.87654 -3.59989 0
M  V30 2058 H 206.869 2.72108 -3.15192 0
M  V30 2059 H 209.466 5.07787 -1.67502 0
M  V30 2060 H 209.809 4.15656 -0.231456 0
M  V30 2061 H 210.342 3.5401 -1.81443 0
M  V30 2062 H 207.081 4.68474 -4.58489 0
M  V30 2063 H 206.601 5.21816 -2.9575 0
M  V30 2064 H 208.28 5.4344 -3.51115 0
M  V30 2065 N 208.412 0.89855 1.29475 0
M  V30 2066 C 209.64 0.539261 1.99749 0
M  V30 2067 C 210.055 -0.875716 1.67262 0
M  V30 2068 O 209.412 -1.57786 0.917049 0
M  V30 2069 C 209.463 0.72061 3.54245 0
M  V30 2070 O 209.184 2.07989 3.8558 0
M  V30 2071 C 210.685 0.366118 4.41786 0
M  V30 2072 H 207.905 0.207047 0.638258 0
M  V30 2073 H 210.449 1.20758 1.65039 0
M  V30 2074 H 208.604 0.0994862 3.87272 0
M  V30 2075 H 209.018 2.10841 4.80257 0
M  V30 2076 H 210.492 0.543848 5.49314 0
M  V30 2077 H 210.969 -0.696763 4.33638 0
M  V30 2078 H 211.575 0.964135 4.14228 0
M  V30 2079 N 209.89 -1.43072 0.660911 0
M  V30 2080 C 211.12 -2.05769 0.185153 0
M  V30 2081 C 211.528 -1.49668 -1.15742 0
M  V30 2082 O 210.871 -0.625649 -1.72717 0
M  V30 2083 C 210.933 -3.59489 0.0278237 0
M  V30 2084 C 210.597 -4.38212 1.2969 0
M  V30 2085 C 211.594 -4.69772 2.22734 0
M  V30 2086 C 209.279 -4.7809 1.54063 0
M  V30 2087 C 211.273 -5.40129 3.38437 0
M  V30 2088 C 208.96 -5.4819 2.70058 0
M  V30 2089 C 209.958 -5.79132 3.62071 0
M  V30 2090 O 209.646 -6.47798 4.76039 0
M  V30 2091 H 209.378 -0.669873 0.0908086 0
M  V30 2092 H 211.932 -1.84436 0.90402 0
M  V30 2093 H 210.162 -3.79426 -0.746489 0
M  V30 2094 H 211.851 -4.03862 -0.406275 0
M  V30 2095 H 212.617 -4.39476 2.05149 0
M  V30 2096 H 208.496 -4.53408 0.833215 0
M  V30 2097 H 212.04 -5.64198 4.10277 0
M  V30 2098 H 207.937 -5.77902 2.87574 0
M  V30 2099 H 208.705 -6.66283 4.75404 0
M  V30 2100 N 211.368 -0.403325 -1.52352 0
M  V30 2101 C 212.784 -0.0539281 -1.59509 0
M  V30 2102 C 212.984 1.43307 -1.41652 0
M  V30 2103 O 212.04 2.19924 -1.24056 0
M  V30 2104 C 213.353 -0.543654 -2.95745 0
M  V30 2105 C 214.901 -0.501125 -3.08962 0
M  V30 2106 C 215.376 -0.967267 -4.47669 0
M  V30 2107 N 216.867 -0.923849 -4.53893 0
M  V30 2108 C 217.602 -1.25578 -5.5948 0
M  V30 2109 N 217.098 -1.65889 -6.72646 0
M  V30 2110 N 218.891 -1.17613 -5.49658 0
M  V30 2111 H 211.042 -1.37123 -1.62206 0
M  V30 2112 H 213.305 -0.56294 -0.76276 0
M  V30 2113 H 213.011 -1.58275 -3.14073 0
M  V30 2114 H 212.885 0.0498042 -3.77167 0
M  V30 2115 H 215.272 0.528909 -2.90321 0
M  V30 2116 H 215.353 -1.13056 -2.2946 0
M  V30 2117 H 214.997 -1.9956 -4.67053 0
M  V30 2118 H 214.927 -0.314698 -5.25659 0
M  V30 2119 H 217.418 -0.627403 -3.72655 0
M  V30 2120 H 217.731 -1.89543 -7.49195 0
M  V30 2121 H 216.076 -1.69787 -6.73942 0
M  V30 2122 H 219.267 -0.860115 -4.6013 0
M  V30 2123 H 219.44 -1.43812 -6.3184 0
M  V30 2124 N 212.846 1.57033 -0.133567 0
M  V30 2125 C 213.756 2.19632 0.824564 0
M  V30 2126 C 214.772 1.17666 1.28182 0
M  V30 2127 O 215.948 1.50193 1.3418 0
M  V30 2128 C 213.013 2.79499 2.05137 0
M  V30 2129 C 212.074 3.96548 1.64464 0
M  V30 2130 C 211.307 4.5355 2.81297 0
M  V30 2131 O 211.53 4.09438 3.97136 0
M  V30 2132 O 210.464 5.44018 2.57542 0
M  V30 2133 H 214.29 3.01991 0.321766 0
M  V30 2134 H 211.875 1.49112 0.0927889 0
M  V30 2135 H 213.757 3.17602 2.7696 0
M  V30 2136 H 212.432 2.00162 2.54395 0
M  V30 2137 H 211.339 3.63186 0.897048 0
M  V30 2138 H 212.672 4.77364 1.19934 0
M  V30 2139 N 214.325 -0.140222 1.56975 0
M  V30 2140 C 215.255 -1.17456 2.01808 0
M  V30 2141 C 216.236 -1.44415 0.898794 0
M  V30 2142 O 217.421 -1.5522 1.16707 0
M  V30 2143 C 214.551 -2.50607 2.40444 0
M  V30 2144 C 213.505 -2.38155 3.55621 0
M  V30 2145 C 212.831 -3.76078 3.80091 0
M  V30 2146 C 214.131 -1.85991 4.88062 0
M  V30 2147 H 215.825 -0.801743 2.88466 0
M  V30 2148 H 213.371 -0.38422 1.38779 0
M  V30 2149 H 215.324 -3.23197 2.7041 0
M  V30 2150 H 214.048 -2.89737 1.50732 0
M  V30 2151 H 212.707 -1.68016 3.25832 0
M  V30 2152 H 212.355 -4.12656 2.87618 0
M  V30 2153 H 212.055 -3.68606 4.57606 0
M  V30 2154 H 213.579 -4.50206 4.12488 0
M  V30 2155 H 214.993 -2.4838 5.16701 0
M  V30 2156 H 213.39 -1.89393 5.6943 0
M  V30 2157 H 214.46 -0.816023 4.77984 0
M  V30 2158 N 215.803 -1.52179 -0.40978 0
M  V30 2159 C 216.733 -1.78435 -1.5061 0
M  V30 2160 C 217.714 -0.635295 -1.57791 0
M  V30 2161 O 218.899 -0.880823 -1.73076 0
M  V30 2162 C 216.029 -1.93444 -2.88439 0
M  V30 2163 C 214.983 -3.09038 -2.96108 0
M  V30 2164 C 214.309 -3.09268 -4.36185 0
M  V30 2165 C 215.609 -4.48508 -2.67652 0
M  V30 2166 H 217.303 -2.70237 -1.28889 0
M  V30 2167 H 214.849 -1.30036 -0.618605 0
M  V30 2168 H 216.802 -2.10394 -3.65119 0
M  V30 2169 H 215.526 -0.983129 -3.11452 0
M  V30 2170 H 214.185 -2.91837 -2.21872 0
M  V30 2171 H 213.833 -2.11861 -4.56206 0
M  V30 2172 H 213.533 -3.86907 -4.42241 0
M  V30 2173 H 215.057 -3.28348 -5.14801 0
M  V30 2174 H 216.471 -4.65918 -3.34056 0
M  V30 2175 H 214.868 -5.28059 -2.85085 0
M  V30 2176 H 215.938 -4.56649 -1.63095 0
M  V30 2177 N 217.281 0.66697 -1.42791 0
M  V30 2178 C 218.191 1.80962 -1.49299 0
M  V30 2179 C 219.207 1.69775 -0.381108 0
M  V30 2180 O 220.383 1.91188 -0.633188 0
M  V30 2181 C 217.448 3.17156 -1.40045 0
M  V30 2182 C 216.509 3.40242 -2.6179 0
M  V30 2183 C 215.742 4.69939 -2.52969 0
M  V30 2184 O 215.965 5.48372 -1.56985 0
M  V30 2185 O 214.899 4.94441 -3.43237 0
M  V30 2186 H 218.725 1.78427 -2.45759 0
M  V30 2187 H 216.31 0.823713 -1.24641 0
M  V30 2188 H 218.192 3.98413 -1.37276 0
M  V30 2189 H 216.867 3.20312 -0.467138 0
M  V30 2190 H 215.774 2.58802 -2.70134 0
M  V30 2191 H 217.107 3.41923 -3.54047 0
M  V30 2192 N 218.759 1.29093 0.90403 0
M  V30 2193 C 219.987 1.19689 1.68766 0
M  V30 2194 C 220.402 -0.243113 1.87228 0
M  V30 2195 O 219.759 -1.16326 1.40621 0
M  V30 2196 C 219.81 1.90144 3.07453 0
M  V30 2197 O 219.531 3.2852 2.89838 0
M  V30 2198 C 221.032 1.87162 4.01852 0
M  V30 2199 H 218.252 0.415035 0.527244 0
M  V30 2200 H 220.796 1.7039 1.13082 0
M  V30 2201 H 218.951 1.43289 3.59926 0
M  V30 2202 H 219.365 3.63944 3.77684 0
M  V30 2203 H 220.839 2.41032 4.96596 0
M  V30 2204 H 221.316 0.84617 4.30972 0
M  V30 2205 H 221.922 2.33741 3.5531 0
M  V30 2206 N 220.237 -1.11381 1.11499 0
M  V30 2207 C 221.465 -1.86934 0.88675 0
M  V30 2208 C 221.88 -1.80195 -0.563476 0
M  V30 2209 O 221.237 -1.18367 -1.38908 0
M  V30 2210 C 221.288 -3.35722 1.34064 0
M  V30 2211 O 221.009 -3.4232 2.73401 0
M  V30 2212 C 222.51 -4.2818 1.14791 0
M  V30 2213 H 219.73 -0.591117 0.317523 0
M  V30 2214 H 222.274 -1.40865 1.48248 0
M  V30 2215 H 220.429 -3.79294 0.788355 0
M  V30 2216 H 220.843 -4.34971 2.93087 0
M  V30 2217 H 222.317 -5.30817 1.5145 0
M  V30 2218 H 222.794 -4.39113 0.0875279 0
M  V30 2219 H 223.4 -3.90402 1.68721 0
M  V30 2220 N 221.715 -0.905404 -1.28997 0
M  V30 2221 C 222.955 -0.541232 -1.97104 0
M  V30 2222 C 223.319 0.896841 -1.69767 0
M  V30 2223 O 224.52 1.36817 -2.31375 0
M  V30 2224 C 222.791 -0.832134 -3.47578 0
M  V30 2225 S 224.35 -0.573127 -4.35041 0
M  V30 2226 H 221.168 -0.200576 -0.682122 0
M  V30 2227 H 223.77 -1.16906 -1.56694 0
M  V30 2228 H 222.474 -1.87687 -3.64968 0
M  V30 2229 H 222.005 -0.192636 -3.92928 0
M  V30 2230 H 224.02 0.579297 -4.92807 0
M  V30 2231 N 223.193 1.4272 -0.668489 0
M  V30 2232 C 224.609 1.55992 -0.33745 0
M  V30 2233 C 224.809 1.64933 1.15756 0
M  V30 2234 O 223.865 1.61278 1.94282 0
M  V30 2235 C 225.178 2.81314 -1.06222 0
M  V30 2236 C 226.726 2.95078 -1.04394 0
M  V30 2237 C 227.201 4.23252 -1.74991 0
M  V30 2238 N 228.692 4.3015 -1.71829 0
M  V30 2239 C 229.427 5.28127 -2.23315 0
M  V30 2240 N 228.923 6.32293 -2.83156 0
M  V30 2241 N 230.716 5.19882 -2.13726 0
M  V30 2242 H 222.867 1.3516 -1.63846 0
M  V30 2243 H 225.13 0.650174 -0.689912 0
M  V30 2244 H 224.836 2.80823 -2.11734 0
M  V30 2245 H 224.71 3.72012 -0.62344 0
M  V30 2246 H 227.097 2.951 0.0028244 0
M  V30 2247 H 227.178 2.05627 -1.52155 0
M  V30 2248 H 226.822 4.2399 -2.79633 0
M  V30 2249 H 226.752 5.11626 -1.24685 0
M  V30 2250 H 229.243 3.55499 -1.28175 0
M  V30 2251 H 229.556 7.03398 -3.20079 0
M  V30 2252 H 227.901 6.32873 -2.87223 0
M  V30 2253 H 231.092 4.37423 -1.66669 0
M  V30 2254 H 231.265 5.96077 -2.54158 0
M  V30 2255 N 224.671 0.411399 1.52136 0
M  V30 2256 C 225.601 -0.404015 2.29978 0
M  V30 2257 C 226.582 -1.04412 1.34284 0
M  V30 2258 O 227.767 -1.0527 1.63192 0
M  V30 2259 C 224.897 -1.5197 3.12286 0
M  V30 2260 C 223.851 -1.00448 4.16046 0
M  V30 2261 C 223.177 -2.21393 4.86712 0
M  V30 2262 C 224.477 -0.0569336 5.22269 0
M  V30 2263 H 226.171 0.245529 2.98392 0
M  V30 2264 H 223.717 0.119525 1.43503 0
M  V30 2265 H 225.67 -2.09715 3.6551 0
M  V30 2266 H 224.394 -2.19716 2.41646 0
M  V30 2267 H 223.053 -0.449421 3.63835 0
M  V30 2268 H 222.701 -2.87699 4.12599 0
M  V30 2269 H 222.401 -1.87571 5.56858 0
M  V30 2270 H 223.925 -2.7974 5.4275 0
M  V30 2271 H 225.339 -0.54325 5.7072 0
M  V30 2272 H 223.736 0.192594 5.99791 0
M  V30 2273 H 224.806 0.887663 4.76706 0
M  V30 2274 N 226.149 -1.5696 0.141893 0
M  V30 2275 C 227.112 -2.15316 -0.785587 0
M  V30 2276 C 228.112 -1.09366 -1.1788 0
M  V30 2277 O 229.302 -1.35031 -1.10056 0
M  V30 2278 C 226.434 -2.71211 -2.06537 0
M  V30 2279 H 227.627 -2.98608 -0.278041 0
M  V30 2280 H 225.18 -1.5593 -0.107519 0
M  V30 2281 H 225.915 -1.91571 -2.6167 0
M  V30 2282 H 225.7 -3.4872 -1.79268 0
M  V30 2283 H 227.19 -3.16189 -2.72789 0
M  V30 2284 N 227.627 0.131896 -1.57047 0
M  V30 2285 C 228.575 1.18146 -2.0036 0
M  V30 2286 C 229.569 1.43614 -0.898406 0
M  V30 2287 O 230.775 1.43729 -1.08361 0
M  V30 2288 H 227.15 0.398042 -0.638018 0
M  V30 2289 H 229.121 0.789564 -2.87765 0
M  V30 2290 C 227.87 2.50341 -2.41298 0
M  V30 2291 H 227.193 2.31578 -3.25902 0
M  V30 2292 H 228.633 3.22371 -2.75414 0
M  V30 2293 C 227.092 3.11984 -1.27153 0
M  V30 2294 O 227.622 3.97484 -0.580459 0
M  V30 2295 N 225.828 2.71662 -1.03189 0
M  V30 2296 H 225.375 2.02231 -1.59564 0
M  V30 2297 H 225.333 3.13238 -0.270077 0
M  V30 2298 N 229.106 1.52395 0.401703 0
M  V30 2299 C 230.334 1.70676 1.16949 0
M  V30 2300 C 230.749 0.419503 1.8408 0
M  V30 2301 O 230.106 -0.605061 1.72178 0
M  V30 2302 C 230.157 2.84753 2.22706 0
M  V30 2303 O 229.878 4.08495 1.58314 0
M  V30 2304 C 231.379 3.14608 3.12309 0
M  V30 2305 H 228.599 0.571787 0.351142 0
M  V30 2306 H 231.143 1.98987 0.471652 0
M  V30 2307 H 229.298 2.58941 2.88147 0
M  V30 2308 H 229.712 4.72117 2.28485 0
M  V30 2309 H 231.186 3.97923 3.82572 0
M  V30 2310 H 231.663 2.28464 3.75101 0
M  V30 2311 H 232.269 3.42212 2.52529 0
M  V30 2312 N 230.584 -0.659388 1.43143 0
M  V30 2313 C 231.514 -1.78422 1.50625 0
M  V30 2314 C 232.495 -1.66216 0.361443 0
M  V30 2315 O 233.68 -1.85404 0.577834 0
M  V30 2316 C 230.81 -3.16815 1.42287 0
M  V30 2317 C 229.764 -3.43777 2.54954 0
M  V30 2318 C 229.09 -4.81905 2.31671 0
M  V30 2319 C 230.39 -3.39134 3.97222 0
M  V30 2320 H 232.084 -1.72417 2.44771 0
M  V30 2321 H 229.63 -0.828084 1.17808 0
M  V30 2322 H 231.583 -3.95253 1.46127 0
M  V30 2323 H 230.307 -3.23534 0.446435 0
M  V30 2324 H 228.966 -2.67707 2.50457 0
M  V30 2325 H 228.614 -4.85294 1.32284 0
M  V30 2326 H 228.314 -5.00906 3.07192 0
M  V30 2327 H 229.838 -5.62609 2.37284 0
M  V30 2328 H 231.252 -4.07518 4.03239 0
M  V30 2329 H 229.649 -3.69671 4.72719 0
M  V30 2330 H 230.719 -2.37426 4.22797 0
M  V30 2331 N 232.062 -1.29571 -0.897171 0
M  V30 2332 C 233.009 -1.14916 -2.00158 0
M  V30 2333 C 233.979 -0.0418149 -1.66047 0
M  V30 2334 O 235.164 -0.209793 -1.89643 0
M  V30 2335 C 232.304 -0.834307 -3.34863 0
M  V30 2336 C 231.417 -2.02234 -3.8174 0
M  V30 2337 C 230.552 -1.64664 -5.05034 0
M  V30 2338 C 229.591 -2.80033 -5.44286 0
M  V30 2339 N 228.728 -2.42843 -6.58765 0
M  V30 2340 H 233.568 -2.09403 -2.12025 0
M  V30 2341 H 231.105 -1.042 -1.0383 0
M  V30 2342 H 233.063 -0.632436 -4.12379 0
M  V30 2343 H 231.693 0.0736656 -3.22716 0
M  V30 2344 H 230.745 -2.33583 -3.00238 0
M  V30 2345 H 232.057 -2.88673 -4.06779 0
M  V30 2346 H 231.211 -1.4078 -5.9014 0
M  V30 2347 H 229.95 -0.753766 -4.8184 0
M  V30 2348 H 228.955 -3.04596 -4.57713 0
M  V30 2349 H 230.18 -3.69989 -5.6946 0
M  V30 2350 H 228.126 -1.56046 -6.3717 0
M  V30 2351 H 228.043 -3.22815 -6.83613 0
M  V30 2352 H 229.311 -2.22285 -7.47134 0
M  V30 2353 N 233.54 1.10788 -1.12088 0
M  V30 2354 C 234.956 1.34691 -0.856186 0
M  V30 2355 C 235.156 1.94791 0.515615 0
M  V30 2356 O 234.212 2.18524 1.26505 0
M  V30 2357 C 235.525 2.27208 -1.9697 0
M  V30 2358 C 237.073 2.40755 -2.00016 0
M  V30 2359 C 237.548 3.36598 -3.1059 0
M  V30 2360 N 239.039 3.44164 -3.10008 0
M  V30 2361 C 239.774 4.18284 -3.92206 0
M  V30 2362 N 239.27 4.95322 -4.84384 0
M  V30 2363 N 241.063 4.13865 -3.80357 0
M  V30 2364 H 233.214 0.70144 -2.00483 0
M  V30 2365 H 235.477 0.371405 -0.872217 0
M  V30 2366 H 235.183 1.90251 -2.958 0
M  V30 2367 H 235.057 3.27485 -1.87172 0
M  V30 2368 H 237.444 2.76982 -1.01808 0
M  V30 2369 H 237.525 1.40305 -2.13888 0
M  V30 2370 H 237.169 3.01096 -4.09028 0
M  V30 2371 H 237.099 4.36918 -2.93956 0
M  V30 2372 H 239.59 2.8922 -2.43228 0
M  V30 2373 H 239.903 5.49267 -5.43623 0
M  V30 2374 H 238.248 4.94459 -4.884 0
M  V30 2375 H 241.439 3.52773 -3.07683 0
M  V30 2376 H 241.612 4.71372 -4.44649 0
M  V30 2377 N 235.018 0.912232 1.28515 0
M  V30 2378 C 235.968 0.370649 2.24967 0
M  V30 2379 C 236.952 -0.516375 1.52389 0
M  V30 2380 O 238.144 -0.356345 1.73376 0
M  V30 2381 C 235.273 -0.389526 3.41083 0
M  V30 2382 C 234.359 0.51313 4.20984 0
M  V30 2383 N 234.75 1.62604 4.78951 0
M  V30 2384 C 233.048 0.313235 4.44899 0
M  V30 2385 C 233.749 2.18619 5.39055 0
M  V30 2386 N 232.725 1.47765 5.23132 0
M  V30 2387 H 236.527 1.22061 2.67354 0
M  V30 2388 H 234.041 0.764712 1.43269 0
M  V30 2389 H 236.038 -0.794353 4.09262 0
M  V30 2390 H 234.698 -1.2366 3.0023 0
M  V30 2391 H 235.709 2.00864 4.77362 0
M  V30 2392 H 232.386 -0.494452 4.14562 0
M  V30 2393 H 233.776 3.12228 5.94948 0
M  V30 2394 N 236.496 -1.42363 0.676048 0
M  V30 2395 C 237.744 -2.01123 0.198437 0
M  V30 2396 C 238.065 -1.53731 -1.19966 0
M  V30 2397 O 237.335 -0.759518 -1.80577 0
M  V30 2398 H 235.915 -0.743678 0.0703721 0
M  V30 2399 H 238.577 -1.74263 0.872837 0
M  V30 2400 H 237.673 -3.11454 0.200686 0
M  V30 2401 N 237.974 -0.419461 -1.51915 0
M  V30 2402 C 239.22 0.153166 -2.02221 0
M  V30 2403 C 239.553 1.43907 -1.30401 0
M  V30 2404 O 238.828 1.90055 -0.413438 0
M  V30 2405 C 239.111 0.390291 -3.57979 0
M  V30 2406 C 238.964 -0.913014 -4.40436 0
M  V30 2407 C 240.283 1.16794 -4.2432 0
M  V30 2408 H 237.402 0.0541924 -0.735005 0
M  V30 2409 H 240.044 -0.554955 -1.81715 0
M  V30 2410 H 238.194 0.993491 -3.75582 0
M  V30 2411 H 239.866 -1.54882 -4.34522 0
M  V30 2412 H 238.109 -1.52168 -4.06236 0
M  V30 2413 H 238.78 -0.701361 -5.47526 0
M  V30 2414 H 241.256 0.657161 -4.10878 0
M  V30 2415 H 240.132 1.3026 -5.3322 0
M  V30 2416 H 240.393 2.19132 -3.83971 0
M  V30 2417 N 239.452 1.56882 -0.150215 0
M  V30 2418 C 240.402 2.13501 0.800071 0
M  V30 2419 C 241.386 1.06368 1.20726 0
M  V30 2420 O 242.578 1.32538 1.17314 0
M  V30 2421 C 239.707 2.76271 2.03787 0
M  V30 2422 C 238.793 3.90533 1.65364 0
M  V30 2423 N 239.184 4.96259 0.977794 0
M  V30 2424 C 237.482 4.013 1.94613 0
M  V30 2425 C 238.183 5.76286 0.791794 0
M  V30 2426 N 237.159 5.27163 1.32666 0
M  V30 2427 H 240.961 2.92615 0.274517 0
M  V30 2428 H 238.475 1.62319 0.0512144 0
M  V30 2429 H 240.472 3.15197 2.72867 0
M  V30 2430 H 239.132 1.98631 2.56857 0
M  V30 2431 H 240.143 5.13953 0.638193 0
M  V30 2432 H 236.82 3.3474 2.4951 0
M  V30 2433 H 238.21 6.71401 0.258894 0
M  V30 2434 N 240.93 -0.123565 1.57115 0
M  V30 2435 C 242.346 -0.476961 1.52306 0
M  V30 2436 C 242.546 -1.82109 0.86248 0
M  V30 2437 O 241.602 -2.48586 0.442884 0
M  V30 2438 C 242.915 -0.465661 2.97073 0
M  V30 2439 C 244.463 -0.549534 3.08138 0
M  V30 2440 C 244.938 -0.568669 4.54456 0
M  V30 2441 N 246.429 -0.630237 4.58892 0
M  V30 2442 C 247.164 -0.666415 5.69514 0
M  V30 2443 N 246.66 -0.660514 6.89644 0
M  V30 2444 N 248.453 -0.709077 5.5761 0
M  V30 2445 H 240.604 0.757198 1.98445 0
M  V30 2446 H 242.867 0.278808 0.906074 0
M  V30 2447 H 242.573 0.454232 3.48754 0
M  V30 2448 H 242.447 -1.29513 3.54269 0
M  V30 2449 H 244.834 -1.45985 2.56461 0
M  V30 2450 H 244.915 0.307532 2.53945 0
M  V30 2451 H 244.559 0.337581 5.06777 0
M  V30 2452 H 244.489 -1.44256 5.06456 0
M  V30 2453 H 246.98 -0.641146 3.72421 0
M  V30 2454 H 247.293 -0.690616 7.69708 0
M  V30 2455 H 245.638 -0.628012 6.92157 0
M  V30 2456 H 248.829 -0.711019 4.62668 0
M  V30 2457 H 249.002 -0.733804 6.43832 0
M  V30 2458 N 242.408 -1.52605 -0.393616 0
M  V30 2459 C 243.656 -1.67093 -1.13685 0
M  V30 2460 C 243.977 -0.411011 -1.90619 0
M  V30 2461 O 243.247 0.574491 -1.87287 0
M  V30 2462 H 241.827 -0.615923 -0.422668 0
M  V30 2463 H 244.489 -1.89704 -0.447039 0
M  V30 2464 H 243.585 -2.51922 -1.84232 0
M  V30 2465 N 243.887 0.651787 -1.4349 0
M  V30 2466 C 245.164 1.40909 -1.35661 0
M  V30 2467 C 245.544 2.11099 -0.00511733 0
M  V30 2468 O 244.892 2.04892 1.0115 0
M  V30 2469 C 245.102 2.3926 -2.54078 0
M  V30 2470 C 246.45 3.03217 -2.97228 0
M  V30 2471 O 247.474 2.49588 -2.54135 0
M  V30 2472 O 246.333 4.00455 -3.71885 0
M  V30 2473 H 243.427 0.629625 -0.536191 0
M  V30 2474 H 245.973 0.678575 -1.55542 0
M  V30 2475 H 244.745 1.86352 -3.44076 0
M  V30 2476 H 244.368 3.1976 -2.36303 0
M  V30 2477 N 245.365 1.30045 0.890287 0
M  V30 2478 C 246.781 1.08261 1.17268 0
M  V30 2479 C 246.981 -0.160063 2.00863 0
M  V30 2480 O 246.037 -0.855181 2.37577 0
M  V30 2481 C 247.35 2.34323 1.8845 0
M  V30 2482 C 248.898 2.39735 2.01237 0
M  V30 2483 C 249.373 3.65625 2.7583 0
M  V30 2484 N 250.864 3.66402 2.83379 0
M  V30 2485 C 251.599 4.60498 3.41657 0
M  V30 2486 N 251.095 5.64933 4.01026 0
M  V30 2487 N 252.888 4.48051 3.39421 0
M  V30 2488 H 245.039 2.09777 0.332762 0
M  V30 2489 H 247.302 0.92446 0.209948 0
M  V30 2490 H 247.008 3.2498 1.34465 0
M  V30 2491 H 246.882 2.4256 2.88867 0
M  V30 2492 H 249.269 1.4956 2.54393 0
M  V30 2493 H 249.35 2.35476 0.999232 0
M  V30 2494 H 248.994 4.56156 2.23347 0
M  V30 2495 H 248.924 3.67144 3.77509 0
M  V30 2496 H 251.415 2.90896 2.41222 0
M  V30 2497 H 251.728 6.32841 4.43545 0
M  V30 2498 H 250.073 5.68732 3.99461 0
M  V30 2499 H 253.264 3.65649 2.92264 0
M  V30 2500 H 253.437 5.21565 3.84544 0
M  V30 2501 N 246.843 -1.10192 1.12674 0
M  V30 2502 C 248.089 -1.82475 0.884915 0
M  V30 2503 C 248.422 -1.85093 -0.58773 0
M  V30 2504 O 247.697 -1.3134 -1.43457 0
M  V30 2505 C 247.98 -3.29018 1.46353 0
M  V30 2506 C 247.833 -3.34718 3.00473 0
M  V30 2507 C 249.152 -4.25473 1.12519 0
M  V30 2508 H 246.271 -0.662492 0.322915 0
M  V30 2509 H 248.913 -1.2913 1.39375 0
M  V30 2510 H 247.063 -3.74576 1.03077 0
M  V30 2511 H 248.735 -2.97622 3.52447 0
M  V30 2512 H 246.978 -2.74541 3.35872 0
M  V30 2513 H 247.649 -4.37918 3.36053 0
M  V30 2514 H 250.125 -3.88161 1.499 0
M  V30 2515 H 249.001 -5.26365 1.55663 0
M  V30 2516 H 249.262 -4.42084 0.0377407 0
M  V30 2517 N 248.321 -0.919034 -1.28029 0
M  V30 2518 C 249.284 -0.416182 -2.2539 0
M  V30 2519 C 250.284 0.460438 -1.54067 0
M  V30 2520 O 251.474 0.262744 -1.72207 0
M  V30 2521 C 248.606 0.402707 -3.38513 0
M  V30 2522 H 249.799 -1.27629 -2.71387 0
M  V30 2523 H 247.352 -0.698919 -1.39803 0
M  V30 2524 H 248.087 1.282 -2.97885 0
M  V30 2525 H 247.872 -0.225698 -3.9145 0
M  V30 2526 H 249.362 0.745191 -4.10897 0
M  V30 2527 N 249.799 1.42003 -0.683588 0
M  V30 2528 C 251.048 2.00638 -0.206681 0
M  V30 2529 C 251.361 1.5472 1.19671 0
M  V30 2530 O 252.567 2.05833 1.77045 0
M  V30 2531 C 251.023 3.58487 -0.318632 0
M  V30 2532 C 250.631 4.1339 -1.72663 0
M  V30 2533 C 252.375 4.24384 0.0991141 0
M  V30 2534 C 250.282 5.63633 -1.79087 0
M  V30 2535 H 249.212 0.750408 -0.0735107 0
M  V30 2536 H 251.863 1.62624 -0.850048 0
M  V30 2537 H 250.245 3.94047 0.392781 0
M  V30 2538 H 251.419 3.89273 -2.46583 0
M  V30 2539 H 249.734 3.59976 -2.09299 0
M  V30 2540 H 252.331 5.34652 0.0713833 0
M  V30 2541 H 252.674 4.00505 1.13586 0
M  V30 2542 H 253.207 3.93816 -0.561599 0
M  V30 2543 H 249.946 5.92323 -2.80774 0
M  V30 2544 H 249.466 5.89714 -1.09535 0
M  V30 2545 H 251.145 6.28201 -1.5483 0
M  V30 2546 N 251.277 0.427512 1.51691 0
M  V30 2547 C 252.507 -0.140986 2.06118 0
M  V30 2548 C 252.915 -1.37854 1.29588 0
M  V30 2549 O 252.258 -1.80411 0.346036 0
M  V30 2550 C 252.32 -0.538276 3.55447 0
M  V30 2551 C 251.984 0.591095 4.53161 0
M  V30 2552 C 252.981 1.46027 4.98971 0
M  V30 2553 C 250.666 0.769028 4.96378 0
M  V30 2554 C 252.66 2.49216 5.8666 0
M  V30 2555 C 250.347 1.80421 5.83859 0
M  V30 2556 C 251.345 2.66417 6.28897 0
M  V30 2557 O 251.033 3.68159 7.14643 0
M  V30 2558 H 250.765 -0.0157455 0.675817 0
M  V30 2559 H 253.319 0.602495 1.96365 0
M  V30 2560 H 251.549 -1.33432 3.6295 0
M  V30 2561 H 253.238 -1.0368 3.92435 0
M  V30 2562 H 254.004 1.33429 4.66285 0
M  V30 2563 H 249.883 0.109273 4.6087 0
M  V30 2564 H 253.427 3.16372 6.21735 0
M  V30 2565 H 249.324 1.93042 6.15959 0
M  V30 2566 H 250.092 3.64622 7.32798 0
M  V30 2567 N 252.755 -1.56801 0.158532 0
M  V30 2568 C 253.688 -2.13148 -0.815065 0
M  V30 2569 C 254.666 -1.0581 -1.23462 0
M  V30 2570 O 255.85 -1.3371 -1.32868 0
M  V30 2571 C 252.977 -2.6606 -2.09594 0
M  V30 2572 C 252.023 -3.85651 -1.82141 0
M  V30 2573 S 252.856 -5.26041 -1.00207 0
M  V30 2574 C 254.012 -5.8235 -2.29389 0
M  V30 2575 H 254.245 -2.95396 -0.335937 0
M  V30 2576 H 251.778 -1.54299 -0.0559391 0
M  V30 2577 H 253.736 -2.97195 -2.8317 0
M  V30 2578 H 252.397 -1.83921 -2.54621 0
M  V30 2579 H 251.59 -4.20958 -2.77147 0
M  V30 2580 H 251.192 -3.55338 -1.16667 0
M  V30 2581 H 253.484 -5.94485 -3.24952 0
M  V30 2582 H 254.427 -6.79688 -1.9857 0
M  V30 2583 H 254.835 -5.10675 -2.40564 0
M  V30 2584 N 254.233 0.115231 -1.57178 0
M  V30 2585 C 255.644 0.67197 -1.74188 0
M  V30 2586 C 255.995 1.80125 -0.777777 0
M  V30 2587 O 255.12 2.16346 0.0484376 0
M  V30 2588 C 255.715 1.22573 -3.1585 0
M  V30 2589 C 254.274 1.72872 -3.34353 0
M  V30 2590 C 253.421 0.629972 -2.70049 0
M  V30 2591 H 256.372 -0.110712 -1.58313 0
M  V30 2592 H 256.393 2.09535 -3.17609 0
M  V30 2593 H 255.905 0.403598 -3.85996 0
M  V30 2594 H 254.006 2.5755 -2.69256 0
M  V30 2595 H 254.119 1.83557 -4.42542 0
M  V30 2596 H 252.483 1.0645 -2.31388 0
M  V30 2597 H 253.266 -0.181241 -3.42821 0
M  V30 2598 N 255.711 1.52812 0.385517 0
M  V30 2599 C 256.957 1.68275 1.13188 0
M  V30 2600 C 257.29 0.423179 1.89533 0
M  V30 2601 O 256.565 -0.579113 1.85679 0
M  V30 2602 C 256.848 2.92001 2.1073 0
M  V30 2603 C 256.701 4.28067 1.38125 0
M  V30 2604 C 258.02 3.11283 3.11113 0
M  V30 2605 H 255.139 0.612352 0.410115 0
M  V30 2606 H 257.781 1.85415 0.414869 0
M  V30 2607 H 255.931 2.77519 2.71874 0
M  V30 2608 H 257.603 4.54324 0.799187 0
M  V30 2609 H 255.846 4.28388 0.683092 0
M  V30 2610 H 256.517 5.10733 2.09417 0
M  V30 2611 H 258.993 3.2482 2.6006 0
M  V30 2612 H 257.869 3.99325 3.76605 0
M  V30 2613 H 258.13 2.25656 3.80173 0
M  V30 2614 N 257.189 -0.644168 1.43834 0
M  V30 2615 C 258.414 -1.43642 1.49605 0
M  V30 2616 C 258.839 -1.8773 0.117913 0
M  V30 2617 O 258.197 -1.57938 -0.890239 0
M  V30 2618 C 258.245 -2.6416 2.45463 0
M  V30 2619 O 257.349 -3.63538 1.94714 0
M  V30 2620 H 256.69 -0.430329 0.50568 0
M  V30 2621 H 259.22 -0.787448 1.8884 0
M  V30 2622 H 259.23 -3.11864 2.63068 0
M  V30 2623 H 257.905 -2.31414 3.45572 0
M  V30 2624 H 256.482 -3.2273 1.86814 0
M  V30 2625 N 258.668 -1.30515 -0.883378 0
M  V30 2626 C 260.079 -1.17509 -1.45081 0
M  V30 2627 C 260.43 0.223605 -1.94922 0
M  V30 2628 O 259.555 1.12041 -1.85137 0
M  V30 2629 C 260.15 -2.12715 -2.63701 0
M  V30 2630 C 258.709 -2.03682 -3.16529 0
M  V30 2631 C 257.856 -2.02706 -1.89224 0
M  V30 2632 H 260.807 -1.42762 -0.693165 0
M  V30 2633 H 260.828 -1.70891 -3.39965 0
M  V30 2634 H 260.34 -3.14505 -2.27395 0
M  V30 2635 H 258.441 -1.05039 -3.57488 0
M  V30 2636 H 258.554 -2.92146 -3.7972 0
M  V30 2637 H 256.918 -1.4753 -2.07622 0
M  V30 2638 H 257.701 -3.06229 -1.55174 0
M  V30 2639 N 260.146 1.09593 -1.13257 0
M  V30 2640 C 261.076 2.18214 -0.830946 0
M  V30 2641 C 262.057 1.68812 0.208966 0
M  V30 2642 O 263.242 1.9408 0.0682666 0
M  V30 2643 C 260.372 3.46051 -0.294296 0
M  V30 2644 C 259.326 4.08778 -1.26826 0
M  V30 2645 C 258.652 5.31419 -0.591449 0
M  V30 2646 C 259.952 4.51476 -2.62615 0
M  V30 2647 H 261.646 2.43703 -1.73923 0
M  V30 2648 H 259.192 1.17128 -0.837675 0
M  V30 2649 H 261.145 4.2134 -0.0709606 0
M  V30 2650 H 259.869 3.20079 0.649366 0
M  V30 2651 H 258.528 3.35505 -1.47756 0
M  V30 2652 H 258.176 5.01727 0.357633 0
M  V30 2653 H 257.876 5.74341 -1.24123 0
M  V30 2654 H 259.4 6.09433 -0.377355 0
M  V30 2655 H 260.814 5.17999 -2.45663 0
M  V30 2656 H 259.211 5.05277 -3.23752 0
M  V30 2657 H 260.281 3.63962 -3.20406 0
M  V30 2658 N 261.624 0.925811 1.2754 0
M  V30 2659 C 262.587 0.428129 2.25166 0
M  V30 2660 C 263.587 -0.452261 1.54309 0
M  V30 2661 O 264.777 -0.253608 1.72344 0
M  V30 2662 C 261.909 -0.384749 3.38722 0
M  V30 2663 H 263.102 1.29066 2.70706 0
M  V30 2664 H 260.655 0.706323 1.3943 0
M  V30 2665 H 261.39 -1.26618 2.98561 0
M  V30 2666 H 261.175 0.246454 3.91325 0
M  V30 2667 H 262.665 -0.723389 4.11287 0
M  V30 2668 N 263.102 -1.41638 0.69111 0
M  V30 2669 C 264.348 -2.01598 0.220519 0
M  V30 2670 C 264.681 -1.54594 -1.17535 0
M  V30 2671 O 263.956 -0.755177 -1.79241 0
M  V30 2672 C 264.239 -3.59062 0.273243 0
M  V30 2673 C 264.092 -4.16203 1.70573 0
M  V30 2674 C 265.411 -4.38546 -0.369457 0
M  V30 2675 H 262.53 -0.732468 0.0816045 0
M  V30 2676 H 265.172 -1.68445 0.878986 0
M  V30 2677 H 263.322 -3.87435 -0.287411 0
M  V30 2678 H 264.994 -3.98722 2.31989 0
M  V30 2679 H 263.237 -3.71414 2.2413 0
M  V30 2680 H 263.908 -5.25358 1.69419 0
M  V30 2681 H 266.384 -4.1596 0.107977 0
M  V30 2682 H 265.26 -5.48069 -0.302002 0
M  V30 2683 H 265.521 -4.17662 -1.44951 0
M  V30 2684 N 264.58 -0.43555 -1.51462 0
M  V30 2685 C 265.543 0.365137 -2.26273 0
M  V30 2686 C 266.543 0.951227 -1.29647 0
M  V30 2687 O 267.733 0.825958 -1.53374 0
M  V30 2688 C 264.865 1.51645 -3.05314 0
M  V30 2689 H 266.058 -0.290474 -2.9849 0
M  V30 2690 H 263.611 -0.188676 -1.55157 0
M  V30 2691 H 264.346 2.20816 -2.3751 0
M  V30 2692 H 264.131 1.10238 -3.76284 0
M  V30 2693 H 265.621 2.08218 -3.61987 0
M  V30 2694 N 266.058 1.56714 -0.166846 0
M  V30 2695 C 267.021 2.16539 0.751232 0
M  V30 2696 C 268.021 1.11228 1.16125 0
M  V30 2697 O 269.211 1.36765 1.07894 0
M  V30 2698 C 266.343 2.74462 2.02196 0
M  V30 2699 H 267.536 2.99013 0.230499 0
M  V30 2700 H 265.089 1.56081 0.0826982 0
M  V30 2701 H 265.824 1.95709 2.58589 0
M  V30 2702 H 265.609 3.51527 1.73698 0
M  V30 2703 H 267.099 3.20489 2.67725 0
M  V30 2704 N 267.536 -0.106894 1.57237 0
M  V30 2705 C 268.469 -1.16125 1.96444 0
M  V30 2706 C 269.447 -1.3947 0.835871 0
M  V30 2707 O 270.631 -1.53425 1.09513 0
M  V30 2708 C 267.758 -2.51277 2.27107 0
M  V30 2709 C 266.804 -2.44285 3.4961 0
M  V30 2710 S 267.637 -1.87077 5.01759 0
M  V30 2711 C 268.793 -3.23877 5.35588 0
M  V30 2712 H 269.026 -0.826971 2.85567 0
M  V30 2713 H 266.559 -0.314124 1.51171 0
M  V30 2714 H 268.517 -3.29035 2.45451 0
M  V30 2715 H 267.178 -2.81879 1.38576 0
M  V30 2716 H 266.371 -3.4387 3.68469 0
M  V30 2717 H 265.973 -1.74652 3.30715 0
M  V30 2718 H 268.265 -4.20122 5.31511 0
M  V30 2719 H 269.208 -3.09833 6.36717 0
M  V30 2720 H 269.616 -3.22864 4.63054 0
M  V30 2721 N 269.014 -1.53014 -0.377408 0
M  V30 2722 C 269.944 -1.81589 -1.46791 0
M  V30 2723 C 270.925 -0.668622 -1.56408 0
M  V30 2724 O 272.11 -0.917337 -1.71168 0
M  V30 2725 C 269.24 -1.99519 -2.8427 0
M  V30 2726 C 268.194 -3.15249 -2.89486 0
M  V30 2727 C 267.52 -3.18451 -4.29527 0
M  V30 2728 C 268.82 -4.54084 -2.58079 0
M  V30 2729 H 270.514 -2.7291 -1.23127 0
M  V30 2730 H 268.06 -1.31319 -0.590883 0
M  V30 2731 H 270.013 -2.18092 -3.60575 0
M  V30 2732 H 268.737 -1.04897 -3.09296 0
M  V30 2733 H 267.396 -2.96477 -2.15631 0
M  V30 2734 H 267.044 -2.2149 -4.5161 0
M  V30 2735 H 266.744 -3.962 -4.33934 0
M  V30 2736 H 268.268 -3.39193 -5.07721 0
M  V30 2737 H 269.682 -4.72899 -3.24098 0
M  V30 2738 H 268.079 -5.33987 -2.7382 0
M  V30 2739 H 269.149 -4.60006 -1.53372 0
M  V30 2740 N 270.492 0.636531 -1.44174 0
M  V30 2741 C 271.455 1.73063 -1.50273 0
M  V30 2742 C 272.455 1.56113 -0.385397 0
M  V30 2743 O 273.645 1.61707 -0.64781 0
M  V30 2744 C 270.777 3.12096 -1.37145 0
M  V30 2745 H 271.97 1.69031 -2.47727 0
M  V30 2746 H 269.523 0.849706 -1.31186 0
M  V30 2747 H 270.258 3.21728 -0.407636 0
M  V30 2748 H 270.043 3.25805 -2.18159 0
M  V30 2749 H 271.533 3.91846 -1.44382 0
M  V30 2750 N 271.97 1.30982 0.876444 0
M  V30 2751 C 273.21 1.21589 1.64303 0
M  V30 2752 C 273.574 -0.223962 1.90689 0
M  V30 2753 O 274.775 -0.44128 2.65153 0
M  V30 2754 C 273.046 2.03007 2.94148 0
M  V30 2755 S 274.605 2.10405 3.85065 0
M  V30 2756 H 271.423 0.433161 0.563819 0
M  V30 2757 H 274.025 1.65565 1.03964 0
M  V30 2758 H 272.729 3.06719 2.72675 0
M  V30 2759 H 272.26 1.59725 3.59515 0
M  V30 2760 H 274.275 1.23765 4.80517 0
M  V30 2761 N 273.449 -1.08991 1.13837 0
M  V30 2762 C 274.412 -2.13925 0.822715 0
M  V30 2763 C 275.412 -1.599 -0.1699 0
M  V30 2764 O 276.602 -1.74104 0.0577251 0
M  V30 2765 C 273.734 -3.40155 0.225318 0
M  V30 2766 H 274.927 -2.43358 1.75262 0
M  V30 2767 H 272.48 -1.24603 0.943594 0
M  V30 2768 H 273.215 -3.16352 -0.713594 0
M  V30 2769 H 273 -3.80661 0.940193 0
M  V30 2770 H 274.49 -4.17594 0.0214784 0
M  V30 2771 N 274.927 -0.932562 -1.27047 0
M  V30 2772 C 276.343 -0.633544 -1.46487 0
M  V30 2773 C 276.543 0.815746 -1.84249 0
M  V30 2774 O 275.599 1.59319 -1.95892 0
M  V30 2775 C 276.912 -1.58758 -2.55375 0
M  V30 2776 C 278.46 -1.59634 -2.69232 0
M  V30 2777 C 278.935 -2.53747 -3.81283 0
M  V30 2778 N 280.426 -2.51982 -3.88664 0
M  V30 2779 C 281.161 -3.21491 -4.74796 0
M  V30 2780 N 280.657 -4.00395 -5.65381 0
M  V30 2781 N 282.45 -3.10485 -4.68568 0
M  V30 2782 H 274.601 -1.86946 -1.00821 0
M  V30 2783 H 276.864 -0.802897 -0.504044 0
M  V30 2784 H 276.57 -2.62172 -2.34432 0
M  V30 2785 H 276.444 -1.33301 -3.52861 0
M  V30 2786 H 278.831 -0.569488 -2.89553 0
M  V30 2787 H 278.912 -1.89142 -1.72218 0
M  V30 2788 H 278.556 -3.56545 -3.61715 0
M  V30 2789 H 278.486 -2.21532 -4.77735 0
M  V30 2790 H 280.977 -1.94681 -3.23895 0
M  V30 2791 H 281.29 -4.50406 -6.27976 0
M  V30 2792 H 279.635 -4.04498 -5.65161 0
M  V30 2793 H 282.826 -2.48331 -3.96799 0
M  V30 2794 H 282.999 -3.64925 -5.35475 0
M  V30 2795 N 276.405 1.4127 -0.698611 0
M  V30 2796 C 277.654 2.00408 -0.227949 0
M  V30 2797 C 277.967 1.55981 1.18023 0
M  V30 2798 O 279.173 2.07699 1.74852 0
M  V30 2799 C 277.629 3.58129 -0.356636 0
M  V30 2800 C 277.237 4.11536 -1.77037 0
M  V30 2801 C 278.981 4.24466 0.0540969 0
M  V30 2802 C 276.888 5.61701 -1.85055 0
M  V30 2803 H 275.818 0.749586 -0.0814657 0
M  V30 2804 H 278.469 1.61713 -0.867249 0
M  V30 2805 H 276.851 3.94442 0.350965 0
M  V30 2806 H 278.025 3.86636 -2.50698 0
M  V30 2807 H 276.34 3.57736 -2.13105 0
M  V30 2808 H 278.937 5.34698 0.0146723 0
M  V30 2809 H 279.28 4.01687 1.09332 0
M  V30 2810 H 279.813 3.93198 -0.603337 0
M  V30 2811 H 276.552 5.89312 -2.8704 0
M  V30 2812 H 276.072 5.88519 -1.15783 0
M  V30 2813 H 277.751 6.26524 -1.61484 0
M  V30 2814 N 277.883 0.443576 1.51229 0
M  V30 2815 C 279.131 -0.120557 2.0174 0
M  V30 2816 C 279.452 -1.42665 1.32935 0
M  V30 2817 O 278.722 -1.9028 0.465866 0
M  V30 2818 H 277.302 -0.0475426 0.745486 0
M  V30 2819 H 279.964 0.587711 1.85828 0
M  V30 2820 H 279.06 -0.291972 3.10731 0
M  V30 2821 N 279.361 -1.56624 0.175154 0
M  V30 2822 C 280.324 -2.16934 -0.739738 0
M  V30 2823 C 281.324 -1.11842 -1.15533 0
M  V30 2824 O 282.514 -1.37335 -1.07167 0
M  V30 2825 C 279.646 -2.75531 -2.00738 0
M  V30 2826 H 280.839 -2.99131 -0.214639 0
M  V30 2827 H 278.392 -1.56123 -0.0744197 0
M  V30 2828 H 279.127 -1.97078 -2.57548 0
M  V30 2829 H 278.912 -3.52444 -1.71831 0
M  V30 2830 H 280.402 -3.21904 -2.66021 0
M  V30 2831 N 280.839 0.0985539 -1.57292 0
M  V30 2832 C 282.085 0.803867 -1.86188 0
M  V30 2833 C 282.418 1.78549 -0.763794 0
M  V30 2834 O 281.693 1.93153 0.22855 0
M  V30 2835 C 281.976 1.53568 -3.25713 0
M  V30 2836 C 281.829 0.572277 -4.46145 0
M  V30 2837 C 283.148 2.48708 -3.63087 0
M  V30 2838 H 280.267 0.290781 -0.677211 0
M  V30 2839 H 282.909 0.0675783 -1.8988 0
M  V30 2840 H 281.059 2.16332 -3.22696 0
M  V30 2841 H 282.731 -0.0480894 -4.61275 0
M  V30 2842 H 280.974 -0.114618 -4.33649 0
M  V30 2843 H 281.645 1.12139 -5.40489 0
M  V30 2844 H 284.121 1.96039 -3.67026 0
M  V30 2845 H 282.997 2.96932 -4.61652 0
M  V30 2846 H 283.258 3.32309 -2.91588 0
M  V30 2847 N 282.317 1.53212 0.369288 0
M  V30 2848 C 283.267 1.75769 1.45222 0
M  V30 2849 C 284.251 0.612136 1.48801 0
M  V30 2850 O 285.443 0.870674 1.54105 0
M  V30 2851 C 282.572 1.94769 2.82701 0
M  V30 2852 C 281.658 3.15315 2.83615 0
M  V30 2853 N 282.049 4.37295 2.54178 0
M  V30 2854 C 280.347 3.15962 3.14776 0
M  V30 2855 C 281.048 5.19015 2.62675 0
M  V30 2856 N 280.024 4.55142 2.97232 0
M  V30 2857 H 283.826 2.67691 1.2132 0
M  V30 2858 H 281.34 1.51787 0.577438 0
M  V30 2859 H 283.337 2.09056 3.60696 0
M  V30 2860 H 281.997 1.04073 3.07569 0
M  V30 2861 H 283.008 4.65091 2.27839 0
M  V30 2862 H 279.685 2.35144 3.44983 0
M  V30 2863 H 281.075 6.26305 2.43294 0
M  V30 2864 N 283.795 -0.628877 1.44509 0
M  V30 2865 C 285.023 -1.41554 1.50897 0
M  V30 2866 C 285.438 -1.8832 0.134564 0
M  V30 2867 O 284.795 -1.60969 -0.859965 0
M  V30 2868 C 284.846 -2.63435 2.47556 0
M  V30 2869 O 284.567 -2.18619 3.79654 0
M  V30 2870 C 286.068 -3.56537 2.63431 0
M  V30 2871 H 283.288 -0.434044 0.511709 0
M  V30 2872 H 285.832 -0.768895 1.89495 0
M  V30 2873 H 283.987 -3.24187 2.12089 0
M  V30 2874 H 284.401 -2.97652 4.31861 0
M  V30 2875 H 285.875 -4.38657 3.35088 0
M  V30 2876 H 286.352 -4.05493 1.68738 0
M  V30 2877 H 286.958 -3.01653 2.9981 0
M  V30 2878 N 285.273 -1.31445 -0.869486 0
M  V30 2879 C 286.519 -1.21337 -1.62496 0
M  V30 2880 C 286.852 0.227872 -1.92858 0
M  V30 2881 O 286.127 1.16094 -1.56053 0
M  V30 2882 C 286.41 -2.05814 -2.95487 0
M  V30 2883 C 286.263 -3.5824 -2.72 0
M  V30 2884 C 287.582 -1.9079 -3.96594 0
M  V30 2885 H 284.701 -0.442135 -0.589649 0
M  V30 2886 H 287.343 -1.6124 -1.00507 0
M  V30 2887 H 285.493 -1.71913 -3.48394 0
M  V30 2888 H 287.165 -4.0228 -2.25762 0
M  V30 2889 H 285.408 -3.81647 -2.06224 0
M  V30 2890 H 286.079 -4.12657 -3.66631 0
M  V30 2891 H 288.555 -2.20459 -3.52898 0
M  V30 2892 H 287.431 -2.52199 -4.87531 0
M  V30 2893 H 287.692 -0.871341 -4.33428 0
M  V30 2894 N 286.751 1.08385 -1.14413 0
M  V30 2895 C 288 1.80153 -0.907076 0
M  V30 2896 C 288.313 1.87176 0.567851 0
M  V30 2897 O 289.519 2.55359 0.922172 0
M  V30 2898 C 287.975 3.23687 -1.57336 0
M  V30 2899 C 287.583 3.24897 -3.08457 0
M  V30 2900 C 289.327 4.00136 -1.41744 0
M  V30 2901 C 287.234 4.6302 -3.67921 0
M  V30 2902 H 286.164 0.675139 -0.335714 0
M  V30 2903 H 288.815 1.21733 -1.37307 0
M  V30 2904 H 287.197 3.82234 -1.03505 0
M  V30 2905 H 288.371 2.76055 -3.68958 0
M  V30 2906 H 286.686 2.61943 -3.2369 0
M  V30 2907 H 289.283 5.02201 -1.83572 0
M  V30 2908 H 289.626 4.14709 -0.363576 0
M  V30 2909 H 290.159 3.48058 -1.92614 0
M  V30 2910 H 286.898 4.5365 -4.73161 0
M  V30 2911 H 286.418 5.12143 -3.12201 0
M  V30 2912 H 288.097 5.31994 -3.68227 0
M  V30 2913 N 288.23 0.939286 1.26551 0
M  V30 2914 C 289.477 0.585847 1.9384 0
M  V30 2915 C 289.805 -0.874784 1.73718 0
M  V30 2916 O 289.06 -1.64092 1.06642 0
M  V30 2917 C 289.359 0.872106 3.46596 0
M  V30 2918 C 289.025 2.31632 3.86856 0
M  V30 2919 C 287.687 2.71111 3.97558 0
M  V30 2920 C 290.039 3.25494 4.07066 0
M  V30 2921 C 287.367 4.03553 4.25866 0
M  V30 2922 C 289.719 4.57531 4.36862 0
M  V30 2923 C 288.383 4.96828 4.45778 0
M  V30 2924 H 287.653 0.214377 0.709312 0
M  V30 2925 H 290.3 1.18544 1.50398 0
M  V30 2926 H 288.605 0.18996 3.91339 0
M  V30 2927 H 290.302 0.577442 3.96821 0
M  V30 2928 H 286.892 2.00008 3.79071 0
M  V30 2929 H 291.076 2.9619 3.98227 0
M  V30 2930 H 286.332 4.33665 4.30981 0
M  V30 2931 H 290.506 5.30254 4.51446 0
M  V30 2932 H 288.133 5.99482 4.67468 0
M  V30 2933 N 289.708 -1.40897 0.706093 0
M  V30 2934 C 290.671 -2.29131 0.0562841 0
M  V30 2935 C 291.671 -1.44901 -0.697166 0
M  V30 2936 O 292.861 -1.65926 -0.530484 0
M  V30 2937 C 289.993 -3.27957 -0.93043 0
M  V30 2938 H 291.186 -2.88091 0.833284 0
M  V30 2939 H 288.739 -1.4906 0.470192 0
M  V30 2940 H 289.474 -2.73997 -1.73482 0
M  V30 2941 H 289.259 -3.90124 -0.393166 0
M  V30 2942 H 290.749 -3.94049 -1.38256 0
M  V30 2943 N 291.186 -0.45159 -1.50991 0
M  V30 2944 C 292.434 0.109857 -2.01801 0
M  V30 2945 C 292.755 1.41958 -1.3369 0
M  V30 2946 O 292.025 1.9003 -0.475951 0
M  V30 2947 H 290.605 0.0435884 -0.745727 0
M  V30 2948 H 293.267 -0.597557 -1.85514 0
M  V30 2949 H 292.363 0.275489 -3.10882 0
M  V30 2950 N 292.664 1.56529 -0.183458 0
M  V30 2951 C 293.911 1.97244 0.458357 0
M  V30 2952 C 294.239 1.06992 1.62428 0
M  V30 2953 O 293.494 0.106542 1.9541 0
M  V30 2954 C 293.793 3.43939 0.971637 0
M  V30 2955 C 293.459 4.5083 -0.0796784 0
M  V30 2956 C 292.121 4.79786 -0.368584 0
M  V30 2957 C 294.473 5.15138 -0.792638 0
M  V30 2958 C 291.801 5.70345 -1.37563 0
M  V30 2959 C 294.153 6.06784 -1.78875 0
M  V30 2960 C 292.817 6.34102 -2.08497 0
M  V30 2961 H 292.087 0.721768 0.167725 0
M  V30 2962 H 294.734 1.89472 -0.277976 0
M  V30 2963 H 293.039 3.48724 1.78602 0
M  V30 2964 H 294.736 3.72791 1.47744 0
M  V30 2965 H 291.326 4.28317 0.155668 0
M  V30 2966 H 295.51 4.92868 -0.582659 0
M  V30 2967 H 290.766 5.89789 -1.61118 0
M  V30 2968 H 294.94 6.55677 -2.3465 0
M  V30 2969 H 292.567 7.04074 -2.86678 0
M  V30 2970 N 294.142 -0.090211 1.57342 0
M  V30 2971 C 295.367 -0.810082 1.90925 0
M  V30 2972 C 295.792 -1.71248 0.778187 0
M  V30 2973 O 295.15 -1.79278 -0.269991 0
M  V30 2974 C 295.198 -1.59529 3.23393 0
M  V30 2975 O 294.302 -2.70461 3.11327 0
M  V30 2976 H 293.643 -0.222231 0.625707 0
M  V30 2977 H 296.173 -0.0639716 2.045 0
M  V30 2978 H 296.183 -1.97847 3.5682 0
M  V30 2979 H 294.858 -0.933055 4.05299 0
M  V30 2980 H 293.435 -2.35135 2.89423 0
M  V30 2981 N 295.62 -1.53406 -0.361157 0
M  V30 2982 C 296.583 -1.79479 -1.42548 0
M  V30 2983 C 297.583 -0.665327 -1.4639 0
M  V30 2984 O 298.773 -0.933549 -1.47073 0
M  V30 2985 C 295.905 -1.92087 -2.8163 0
M  V30 2986 H 297.098 -2.74538 -1.20701 0
M  V30 2987 H 294.651 -1.4455 -0.594546 0
M  V30 2988 H 295.386 -0.991099 -3.08784 0
M  V30 2989 H 295.171 -2.74241 -2.80239 0
M  V30 2990 H 296.661 -2.13836 -3.58697 0
M  V30 2991 N 297.098 0.621204 -1.44841 0
M  V30 2992 C 298.008 1.7612 -1.5498 0
M  V30 2993 C 299.024 1.68477 -0.434927 0
M  V30 2994 O 300.2 1.89076 -0.693693 0
M  V30 2995 C 297.265 3.1254 -1.50065 0
M  V30 2996 C 296.326 3.31741 -2.72482 0
M  V30 2997 C 295.559 4.61653 -2.67792 0
M  V30 2998 O 295.782 5.431 -1.74352 0
M  V30 2999 O 294.716 4.83271 -3.58794 0
M  V30 3000 H 298.542 1.70518 -2.51311 0
M  V30 3001 H 296.127 0.783643 -1.27198 0
M  V30 3002 H 298.009 3.93844 -1.49882 0
M  V30 3003 H 296.684 3.18663 -0.568806 0
M  V30 3004 H 295.591 2.50077 -2.7823 0
M  V30 3005 H 296.924 3.30486 -3.64746 0
M  V30 3006 N 298.576 1.31904 0.862503 0
M  V30 3007 C 299.801 1.25135 1.65397 0
M  V30 3008 C 300.226 -0.179 1.87246 0
M  V30 3009 O 299.584 -1.1277 1.4196 0
M  V30 3010 C 299.632 2.00832 2.99498 0
M  V30 3011 O 298.736 1.35075 3.89652 0
M  V30 3012 H 298.077 0.431655 0.504549 0
M  V30 3013 H 300.607 1.74094 1.07483 0
M  V30 3014 H 300.617 2.10709 3.49379 0
M  V30 3015 H 299.292 3.04847 2.82916 0
M  V30 3016 H 297.869 1.33696 3.48109 0
M  V30 3017 N 300.054 -1.07777 1.14986 0
M  V30 3018 C 300.984 -2.16865 0.865557 0
M  V30 3019 C 301.965 -1.69123 -0.182083 0
M  V30 3020 O 303.15 -1.94164 -0.0373815 0
M  V30 3021 C 300.28 -3.45539 0.349313 0
M  V30 3022 C 299.234 -4.06708 1.33313 0
M  V30 3023 C 298.56 -5.30411 0.675918 0
M  V30 3024 C 299.86 -4.47241 2.69764 0
M  V30 3025 H 301.554 -2.40905 1.77778 0
M  V30 3026 H 299.1 -1.15781 0.856203 0
M  V30 3027 H 301.053 -4.21174 0.137983 0
M  V30 3028 H 299.777 -3.21072 -0.598362 0
M  V30 3029 H 298.436 -3.33112 1.53075 0
M  V30 3030 H 298.084 -5.02232 -0.277767 0
M  V30 3031 H 297.784 -5.72293 1.33244 0
M  V30 3032 H 299.308 -6.08755 0.474262 0
M  V30 3033 H 300.722 -5.14025 2.53873 0
M  V30 3034 H 299.119 -5.00062 3.3175 0
M  V30 3035 H 300.189 -3.58818 3.26156 0
M  V30 3036 N 301.532 -0.945985 -1.26051 0
M  V30 3037 C 302.495 -0.463897 -2.24456 0
M  V30 3038 C 303.495 0.427655 -1.55009 0
M  V30 3039 O 304.685 0.226157 -1.72726 0
M  V30 3040 C 301.817 0.330812 -3.39291 0
M  V30 3041 H 303.01 -1.33357 -2.68619 0
M  V30 3042 H 300.563 -0.728416 -1.38289 0
M  V30 3043 H 301.298 1.21852 -3.00537 0
M  V30 3044 H 301.083 -0.308679 -3.90883 0
M  V30 3045 H 302.573 0.657865 -4.12386 0
M  V30 3046 N 303.011 1.40521 -0.713556 0
M  V30 3047 C 304.259 2.00527 -0.251692 0
M  V30 3048 C 304.58 1.56857 1.15848 0
M  V30 3049 O 303.85 0.807127 1.785 0
M  V30 3050 H 302.43 0.741551 -0.0900646 0
M  V30 3051 H 305.092 1.71887 -0.918733 0
M  V30 3052 H 304.188 3.10813 -0.283192 0
M  V30 3053 N 304.489 0.459591 1.5075 0
M  V30 3054 C 305.905 0.113092 1.59199 0
M  V30 3055 C 306.105 -1.37951 1.46874 0
M  V30 3056 O 305.161 -2.15168 1.32132 0
M  V30 3057 C 306.474 0.653043 2.93523 0
M  V30 3058 C 308.022 0.615449 3.0689 0
M  V30 3059 C 308.497 1.13275 4.43771 0
M  V30 3060 N 309.988 1.09167 4.50152 0
M  V30 3061 C 310.723 1.46256 5.54434 0
M  V30 3062 N 310.219 1.90739 6.66026 0
M  V30 3063 N 312.012 1.37932 5.44914 0
M  V30 3064 H 304.163 1.43049 1.57005 0
M  V30 3065 H 306.426 0.590861 0.741341 0
M  V30 3066 H 306.132 1.69822 3.07983 0
M  V30 3067 H 306.006 0.0902132 3.77092 0
M  V30 3068 H 308.393 -0.420793 2.92084 0
M  V30 3069 H 308.474 1.21495 2.25106 0
M  V30 3070 H 308.118 2.16757 4.59324 0
M  V30 3071 H 308.048 0.509576 5.24129 0
M  V30 3072 H 310.539 0.76528 3.7007 0
M  V30 3073 H 310.852 2.17218 7.41644 0
M  V30 3074 H 309.197 1.94683 6.67176 0
M  V30 3075 H 312.388 1.0303 4.56621 0
M  V30 3076 H 312.561 1.67164 6.26067 0
M  V30 3077 N 305.967 -1.56429 0.191757 0
M  V30 3078 C 307.216 -1.9666 -0.448088 0
M  V30 3079 C 307.529 -1.08136 -1.62991 0
M  V30 3080 O 308.735 -1.38135 -2.33733 0
M  V30 3081 C 307.191 -3.49753 -0.848585 0
M  V30 3082 C 306.799 -4.46935 0.308764 0
M  V30 3083 C 308.543 -3.9876 -1.4557 0
M  V30 3084 C 306.45 -5.91293 -0.112506 0
M  V30 3085 H 305.38 -0.734312 -0.171179 0
M  V30 3086 H 308.031 -1.81301 0.283242 0
M  V30 3087 H 306.413 -3.60604 -1.63649 0
M  V30 3088 H 307.587 -4.47813 1.08627 0
M  V30 3089 H 305.902 -4.08102 0.827158 0
M  V30 3090 H 308.499 -5.04086 -1.78328 0
M  V30 3091 H 308.842 -3.42875 -2.36099 0
M  V30 3092 H 309.375 -3.9101 -0.731836 0
M  V30 3093 H 306.114 -6.51097 0.758514 0
M  V30 3094 H 305.634 -5.93676 -0.854941 0
M  V30 3095 H 307.313 -6.44663 -0.549448 0
M  V30 3096 N 307.445 0.0818655 -1.57387 0
M  V30 3097 C 308.393 1.11712 -2.04018 0
M  V30 3098 C 309.387 1.40683 -0.94364 0
M  V30 3099 O 310.593 1.40209 -1.12878 0
M  V30 3100 H 306.968 0.377542 -0.650358 0
M  V30 3101 H 308.939 0.697614 -2.90131 0
M  V30 3102 C 307.688 2.42537 -2.49141 0
M  V30 3103 H 307.011 2.21092 -3.33104 0
M  V30 3104 H 308.451 3.13446 -2.85531 0
M  V30 3105 C 306.91 3.0778 -1.37014 0
M  V30 3106 O 307.44 3.95436 -0.706621 0
M  V30 3107 N 305.646 2.68242 -1.11779 0
M  V30 3108 H 305.193 1.97052 -1.65917 0
M  V30 3109 H 305.151 3.1222 -0.369594 0
M  V30 3110 N 308.923 1.53595 0.353017 0
M  V30 3111 C 310.2 1.61002 1.11075 0
M  V30 3112 C 310.58 0.425356 2.0677 0
M  V30 3113 O 309.928 -0.583267 2.2093 0
M  V30 3114 C 310.138 2.96631 1.83877 0
M  V30 3115 C 311.486 3.51653 2.37961 0
M  V30 3116 O 312.51 2.98743 1.93987 0
M  V30 3117 O 311.369 4.44177 3.18386 0
M  V30 3118 H 308.463 0.650825 0.510251 0
M  V30 3119 H 311.009 1.6594 0.35527 0
M  V30 3120 H 309.781 3.74293 1.14108 0
M  V30 3121 H 309.404 2.95242 2.66304 0
M  V30 3122 N 310.401 -0.613514 1.45168 0
M  V30 3123 C 311.364 -1.7065 1.53007 0
M  V30 3124 C 312.364 -1.5548 0.410184 0
M  V30 3125 O 313.554 -1.60656 0.673455 0
M  V30 3126 C 310.686 -3.09875 1.42093 0
M  V30 3127 H 311.879 -1.65068 2.50385 0
M  V30 3128 H 309.432 -0.828728 1.32521 0
M  V30 3129 H 310.167 -3.21039 0.458769 0
M  V30 3130 H 309.952 -3.22293 2.23315 0
M  V30 3131 H 311.442 -3.895 1.50598 0
M  V30 3132 N 311.879 -1.3236 -0.855495 0
M  V30 3133 C 312.826 -1.21225 -1.964 0
M  V30 3134 C 313.796 -0.0946204 -1.6583 0
M  V30 3135 O 314.981 -0.27002 -1.8888 0
M  V30 3136 C 312.121 -0.940419 -3.32039 0
M  V30 3137 C 311.234 -2.14276 -3.75113 0
M  V30 3138 C 310.369 -1.80648 -4.9954 0
M  V30 3139 C 309.408 -2.97208 -5.35102 0
M  V30 3140 N 308.545 -2.63678 -6.50706 0
M  V30 3141 H 313.385 -2.16042 -2.05255 0
M  V30 3142 H 310.922 -1.07451 -1.00463 0
M  V30 3143 H 312.88 -0.763311 -4.10158 0
M  V30 3144 H 311.51 -0.0290413 -3.22787 0
M  V30 3145 H 310.562 -2.43017 -2.92655 0
M  V30 3146 H 311.874 -3.01468 -3.97389 0
M  V30 3147 H 311.028 -1.59484 -5.85363 0
M  V30 3148 H 309.767 -0.906678 -4.79198 0
M  V30 3149 H 308.772 -3.19004 -4.47791 0
M  V30 3150 H 309.997 -3.87918 -5.57401 0
M  V30 3151 H 307.943 -1.76238 -6.31883 0
M  V30 3152 H 307.86 -3.444 -6.72997 0
M  V30 3153 H 309.128 -2.45942 -7.39684 0
M  V30 3154 N 313.357 1.07166 -1.15556 0
M  V30 3155 C 314.597 1.81391 -0.94216 0
M  V30 3156 C 314.961 1.84788 0.521272 0
M  V30 3157 O 316.162 2.54904 0.85307 0
M  V30 3158 C 314.433 3.22431 -1.54185 0
M  V30 3159 S 315.992 4.13379 -1.47183 0
M  V30 3160 H 312.81 0.624963 -0.339031 0
M  V30 3161 H 315.412 1.28725 -1.4714 0
M  V30 3162 H 314.116 3.17548 -2.59984 0
M  V30 3163 H 313.647 3.80172 -1.01156 0
M  V30 3164 H 315.662 4.94007 -0.466004 0
M  V30 3165 N 314.835 0.952656 1.25548 0
M  V30 3166 C 315.782 0.47008 2.25962 0
M  V30 3167 C 316.752 -0.476384 1.59122 0
M  V30 3168 O 317.937 -0.39007 1.8677 0
M  V30 3169 C 315.077 -0.247881 3.44209 0
M  V30 3170 C 314.19 0.735591 4.25691 0
M  V30 3171 C 313.325 -0.0047306 5.312 0
M  V30 3172 C 312.364 0.969805 6.04368 0
M  V30 3173 N 311.501 0.260486 7.01617 0
M  V30 3174 H 316.341 1.33126 2.66611 0
M  V30 3175 H 313.878 0.66765 1.31076 0
M  V30 3176 H 315.836 -0.680695 4.1161 0
M  V30 3177 H 314.466 -1.07312 3.0444 0
M  V30 3178 H 313.518 1.28689 3.57971 0
M  V30 3179 H 314.83 1.47934 4.76358 0
M  V30 3180 H 313.984 -0.496275 6.04667 0
M  V30 3181 H 312.723 -0.781282 4.81401 0
M  V30 3182 H 311.728 1.47237 5.29718 0
M  V30 3183 H 312.953 1.74655 6.56256 0
M  V30 3184 H 310.899 -0.497364 6.54112 0
M  V30 3185 H 310.816 0.943362 7.50091 0
M  V30 3186 H 312.084 -0.209587 7.79218 0
M  V30 3187 N 316.313 -1.40141 0.720998 0
M  V30 3188 C 317.559 -2.01084 0.263231 0
M  V30 3189 C 317.892 -1.57052 -1.14229 0
M  V30 3190 O 317.167 -0.793027 -1.77599 0
M  V30 3191 C 317.45 -3.58401 0.349344 0
M  V30 3192 C 317.303 -4.12491 1.79363 0
M  V30 3193 C 318.622 -4.39231 -0.276351 0
M  V30 3194 H 315.741 -0.730572 0.0971228 0
M  V30 3195 H 318.383 -1.66543 0.914518 0
M  V30 3196 H 316.533 -3.87958 -0.205165 0
M  V30 3197 H 318.205 -3.93711 2.40394 0
M  V30 3198 H 316.448 -3.66576 2.31958 0
M  V30 3199 H 317.119 -5.21646 1.80524 0
M  V30 3200 H 319.595 -4.15637 0.196184 0
M  V30 3201 H 318.471 -5.48586 -0.185681 0
M  V30 3202 H 318.732 -4.20643 -1.36059 0
M  V30 3203 N 317.792 -0.46758 -1.50504 0
M  V30 3204 C 319.038 0.0887532 -2.02606 0
M  V30 3205 C 319.371 1.39686 -1.34913 0
M  V30 3206 O 318.646 1.88644 -0.473694 0
M  V30 3207 C 318.929 0.276206 -3.59039 0
M  V30 3208 C 318.782 -1.05267 -4.37309 0
M  V30 3209 C 320.101 1.03235 -4.27821 0
M  V30 3210 H 317.22 0.0307814 -0.736357 0
M  V30 3211 H 319.862 -0.612485 -1.79857 0
M  V30 3212 H 318.012 0.8735 -3.78553 0
M  V30 3213 H 319.684 -1.68628 -4.29374 0
M  V30 3214 H 317.927 -1.65015 -4.01189 0
M  V30 3215 H 318.598 -0.875197 -5.45018 0
M  V30 3216 H 321.074 0.526111 -4.12761 0
M  V30 3217 H 319.95 1.1323 -5.37094 0
M  V30 3218 H 320.211 2.06806 -3.90748 0
M  V30 3219 N 319.27 1.56325 -0.20005 0
M  V30 3220 C 320.519 1.96895 0.437652 0
M  V30 3221 C 320.832 1.08999 1.62415 0
M  V30 3222 O 322.038 1.39372 2.32997 0
M  V30 3223 C 320.494 3.50198 0.830025 0
M  V30 3224 C 320.102 4.46765 -0.332461 0
M  V30 3225 C 321.846 3.99526 1.43453 0
M  V30 3226 C 319.753 5.91344 0.0811468 0
M  V30 3227 H 318.683 0.735209 0.167282 0
M  V30 3228 H 321.334 1.81148 -0.292853 0
M  V30 3229 H 319.716 3.61467 1.61734 0
M  V30 3230 H 320.89 4.47231 -1.11 0
M  V30 3231 H 319.205 4.07657 -0.848789 0
M  V30 3232 H 321.802 5.05025 1.75652 0
M  V30 3233 H 322.145 3.44122 2.34277 0
M  V30 3234 H 322.678 3.91393 0.71109 0
M  V30 3235 H 319.417 6.50685 -0.793033 0
M  V30 3236 H 318.937 5.94121 0.823445 0
M  V30 3237 H 320.616 6.44945 0.515252 0
M  V30 3238 N 320.748 -0.0735177 1.57428 0
M  V30 3239 C 321.976 -0.785969 1.9139 0
M  V30 3240 C 322.391 -1.71207 0.795847 0
M  V30 3241 O 321.748 -1.81033 -0.230915 0
M  V30 3242 C 321.799 -1.58107 3.25091 0
M  V30 3243 O 321.52 -0.6922 4.32597 0
M  V30 3244 C 323.021 -2.39467 3.73055 0
M  V30 3245 H 320.241 -0.223558 0.632663 0
M  V30 3246 H 322.785 -0.044302 2.04452 0
M  V30 3247 H 320.94 -2.27503 3.13562 0
M  V30 3248 H 321.354 -1.24504 5.09508 0
M  V30 3249 H 322.828 -2.90716 4.69242 0
M  V30 3250 H 323.305 -3.18913 3.01979 0
M  V30 3251 H 323.911 -1.7523 3.87523 0
M  V30 3252 N 322.226 -1.5378 -0.344866 0
M  V30 3253 C 323.473 -1.70963 -1.08526 0
M  V30 3254 C 323.801 -0.472126 -1.88683 0
M  V30 3255 O 323.056 0.546116 -1.87926 0
M  V30 3256 C 323.355 -2.92407 -2.05506 0
M  V30 3257 C 323.021 -4.28066 -1.41671 0
M  V30 3258 C 321.683 -4.64951 -1.2399 0
M  V30 3259 C 324.035 -5.12344 -0.956726 0
M  V30 3260 C 321.363 -5.83733 -0.589277 0
M  V30 3261 C 323.715 -6.3179 -0.320015 0
M  V30 3262 C 322.379 -6.67372 -0.130881 0
M  V30 3263 H 321.649 -0.625598 -0.397124 0
M  V30 3264 H 324.296 -1.87995 -0.36469 0
M  V30 3265 H 322.601 -2.69973 -2.8394 0
M  V30 3266 H 324.298 -3.02895 -2.62784 0
M  V30 3267 H 320.888 -3.99034 -1.56429 0
M  V30 3268 H 325.072 -4.8438 -1.08118 0
M  V30 3269 H 320.328 -6.09877 -0.431344 0
M  V30 3270 H 324.502 -6.96386 0.0445072 0
M  V30 3271 H 322.129 -7.59273 0.375318 0
M  V30 3272 N 323.704 0.605807 -1.45491 0
M  V30 3273 C 324.652 1.73754 -1.54636 0
M  V30 3274 C 325.646 1.64207 -0.416219 0
M  V30 3275 O 326.852 1.69979 -0.592199 0
M  V30 3276 H 323.227 0.574073 -0.485741 0
M  V30 3277 H 325.198 1.63169 -2.49837 0
M  V30 3278 C 323.947 3.12135 -1.53189 0
M  V30 3279 H 323.27 3.20141 -2.39478 0
M  V30 3280 H 324.71 3.91147 -1.63645 0
M  V30 3281 C 323.169 3.35921 -0.256616 0
M  V30 3282 O 323.699 3.96194 0.662798 0
M  V30 3283 N 321.905 2.90204 -0.151751 0
M  V30 3284 H 321.452 2.41336 -0.90081 0
M  V30 3285 H 321.41 3.06492 0.700699 0
M  V30 3286 N 325.182 1.32811 0.848464 0
M  V30 3287 C 326.114 1.18095 1.96433 0
M  V30 3288 C 327.127 0.114354 1.62398 0
M  V30 3289 O 328.316 0.363892 1.74751 0
M  V30 3290 C 325.416 0.786798 3.2964 0
M  V30 3291 C 324.589 1.943 3.91875 0
M  V30 3292 C 323.648 1.53138 5.03423 0
M  V30 3293 O 322.674 2.24432 5.23086 0
M  V30 3294 N 323.876 0.430915 5.78898 0
M  V30 3295 H 326.641 2.14218 2.09597 0
M  V30 3296 H 324.202 1.2543 1.02367 0
M  V30 3297 H 326.194 0.493715 4.01677 0
M  V30 3298 H 324.764 -0.0834541 3.12489 0
M  V30 3299 H 323.984 2.40224 3.12547 0
M  V30 3300 H 325.272 2.71689 4.30189 0
M  V30 3301 H 324.67 -0.162333 5.65467 0
M  V30 3302 H 323.227 0.197466 6.51501 0
M  V30 3303 N 326.66 -1.06551 1.16123 0
M  V30 3304 C 327.908 -1.78947 0.939267 0
M  V30 3305 C 328.229 -1.87532 -0.534476 0
M  V30 3306 O 327.499 -1.38211 -1.38833 0
M  V30 3307 H 326.079 -0.662807 0.344523 0
M  V30 3308 H 328.741 -1.28725 1.46342 0
M  V30 3309 H 327.837 -2.81117 1.35572 0
M  V30 3310 N 328.138 -0.959301 -1.25041 0
M  V30 3311 C 329.068 -0.501388 -2.28053 0
M  V30 3312 C 330.049 0.454673 -1.63911 0
M  V30 3313 O 331.234 0.352618 -1.90972 0
M  V30 3314 C 328.364 0.217224 -3.4662 0
M  V30 3315 C 327.318 -0.654034 -4.22973 0
M  V30 3316 C 326.644 0.195589 -5.34342 0
M  V30 3317 C 327.944 -1.93447 -4.85155 0
M  V30 3318 H 329.638 -1.36238 -2.66608 0
M  V30 3319 H 327.184 -0.656534 -1.28163 0
M  V30 3320 H 329.137 0.548732 -4.17812 0
M  V30 3321 H 327.861 1.1125 -3.07068 0
M  V30 3322 H 326.52 -0.968693 -3.5357 0
M  V30 3323 H 326.168 1.09076 -4.91031 0
M  V30 3324 H 325.868 -0.384091 -5.86343 0
M  V30 3325 H 327.392 0.521958 -6.08365 0
M  V30 3326 H 328.806 -1.66908 -5.48466 0
M  V30 3327 H 327.203 -2.46018 -5.47353 0
M  V30 3328 H 328.273 -2.63466 -4.07079 0
M  V30 3329 N 329.616 1.39756 -0.72842 0
M  V30 3330 C 331.032 1.5442 -0.403308 0
M  V30 3331 C 331.232 1.69694 1.08656 0
M  V30 3332 O 330.288 1.69373 1.87267 0
M  V30 3333 C 331.601 2.76555 -1.18058 0
M  V30 3334 C 333.149 2.90384 -1.16815 0
M  V30 3335 C 333.624 4.15449 -1.92785 0
M  V30 3336 N 335.115 4.22475 -1.89918 0
M  V30 3337 C 335.85 5.1818 -2.45514 0
M  V30 3338 N 335.346 6.19714 -3.09719 0
M  V30 3339 N 337.139 5.1035 -2.35584 0
M  V30 3340 H 329.29 1.28089 -1.69431 0
M  V30 3341 H 331.553 0.620327 -0.716867 0
M  V30 3342 H 331.259 2.7159 -2.23455 0
M  V30 3343 H 331.133 3.69033 -0.780662 0
M  V30 3344 H 333.52 2.94846 -0.12234 0
M  V30 3345 H 333.601 1.98988 -1.6074 0
M  V30 3346 H 333.245 4.11749 -2.97364 0
M  V30 3347 H 333.175 5.05877 -1.46272 0
M  V30 3348 H 335.666 3.49743 -1.43138 0
M  V30 3349 H 335.979 6.8919 -3.49625 0
M  V30 3350 H 334.324 6.20121 -3.13807 0
M  V30 3351 H 337.515 4.2996 -1.85072 0
M  V30 3352 H 337.688 5.84761 -2.79211 0
M  V30 3353 N 331.094 0.475555 1.50254 0
M  V30 3354 C 332.342 -0.077738 2.0195 0
M  V30 3355 C 332.663 -1.39813 1.35931 0
M  V30 3356 O 331.933 -1.89249 0.506123 0
M  V30 3357 H 330.513 -0.031719 0.746326 0
M  V30 3358 H 333.175 0.626995 1.84539 0
M  V30 3359 H 332.271 -0.225995 3.11281 0
M  V30 3360 N 332.573 -1.56217 0.208337 0
M  V30 3361 C 333.821 -1.97558 -0.426076 0
M  V30 3362 C 334.142 -1.09683 -1.61229 0
M  V30 3363 O 333.412 -0.170956 -1.95153 0
M  V30 3364 H 331.992 -0.729575 -0.160405 0
M  V30 3365 H 334.654 -1.92606 0.298155 0
M  V30 3366 H 333.75 -3.02672 -0.761312 0
M  V30 3367 N 334.051 0.0651679 -1.57465 0
M  V30 3368 C 335.467 0.420105 -1.53972 0
M  V30 3369 C 335.667 1.78782 -0.929474 0
M  V30 3370 O 334.723 2.46771 -0.534839 0
M  V30 3371 C 336.036 0.355084 -2.98596 0
M  V30 3372 C 337.584 0.434792 -3.09965 0
M  V30 3373 C 338.059 0.399609 -4.56253 0
M  V30 3374 N 339.55 0.459488 -4.60915 0
M  V30 3375 C 340.285 0.454584 -5.71595 0
M  V30 3376 N 339.781 0.404102 -6.9162 0
M  V30 3377 N 341.574 0.501635 -5.59857 0
M  V30 3378 H 333.725 -0.830328 -1.95498 0
M  V30 3379 H 335.988 -0.312244 -0.895102 0
M  V30 3380 H 335.694 -0.583357 -3.46828 0
M  V30 3381 H 335.568 1.16275 -3.58831 0
M  V30 3382 H 337.955 1.36366 -2.61703 0
M  V30 3383 H 338.036 -0.40157 -2.52628 0
M  V30 3384 H 337.68 -0.525436 -5.05175 0
M  V30 3385 H 337.61 1.25359 -5.11461 0
M  V30 3386 H 340.101 0.502482 -3.74544 0
M  V30 3387 H 340.414 0.404468 -7.71741 0
M  V30 3388 H 338.759 0.37069 -6.94011 0
M  V30 3389 H 341.95 0.538812 -4.64989 0
M  V30 3390 H 342.123 0.494345 -6.46112 0
M  V30 3391 N 335.529 1.53961 0.336706 0
M  V30 3392 C 336.775 1.7179 1.07777 0
M  V30 3393 C 337.108 0.483263 1.88091 0
M  V30 3394 O 336.383 -0.519747 1.87427 0
M  V30 3395 C 336.666 2.98558 2.01334 0
M  V30 3396 C 336.519 4.32245 1.24437 0
M  V30 3397 C 337.838 3.21023 3.01052 0
M  V30 3398 H 334.957 0.625089 0.390426 0
M  V30 3399 H 337.599 1.86641 0.35567 0
M  V30 3400 H 335.749 2.86028 2.62908 0
M  V30 3401 H 337.421 4.56637 0.654243 0
M  V30 3402 H 335.664 4.30344 0.546458 0
M  V30 3403 H 336.335 5.17137 1.93063 0
M  V30 3404 H 338.811 3.32929 2.49595 0
M  V30 3405 H 337.687 4.11104 3.6371 0
M  V30 3406 H 337.948 2.37637 3.72802 0
M  V30 3407 N 337.007 -0.598083 1.45811 0
M  V30 3408 C 338.253 -1.35882 1.50545 0
M  V30 3409 C 338.586 -1.93616 0.150445 0
M  V30 3410 O 337.861 -1.75604 -0.83628 0
M  V30 3411 C 338.144 -2.49966 2.59208 0
M  V30 3412 C 337.997 -1.97367 4.04186 0
M  V30 3413 C 339.316 -3.52068 2.64076 0
M  V30 3414 H 336.435 -0.492717 0.548087 0
M  V30 3415 H 339.077 -0.673319 1.77669 0
M  V30 3416 H 337.227 -3.08443 2.3621 0
M  V30 3417 H 338.899 -1.43466 4.38423 0
M  V30 3418 H 337.142 -1.283 4.14393 0
M  V30 3419 H 337.813 -2.79649 4.75921 0
M  V30 3420 H 340.289 -3.03448 2.84708 0
M  V30 3421 H 339.165 -4.2937 3.41954 0
M  V30 3422 H 339.426 -4.08304 1.69531 0
M  V30 3423 N 338.485 -1.33259 -0.841409 0
M  V30 3424 C 339.395 -1.25332 -1.98316 0
M  V30 3425 C 340.411 -0.164364 -1.73222 0
M  V30 3426 O 341.587 -0.387486 -1.97637 0
M  V30 3427 C 338.652 -0.990078 -3.32262 0
M  V30 3428 C 337.713 -2.16879 -3.70489 0
M  V30 3429 C 336.946 -1.91801 -4.98044 0
M  V30 3430 O 337.169 -0.867075 -5.63771 0
M  V30 3431 O 336.103 -2.78267 -5.33714 0
M  V30 3432 H 339.929 -2.21344 -2.07944 0
M  V30 3433 H 337.514 -1.1328 -0.974058 0
M  V30 3434 H 339.396 -0.860321 -4.12524 0
M  V30 3435 H 338.071 -0.0602155 -3.23644 0
M  V30 3436 H 336.978 -2.35407 -2.90748 0
M  V30 3437 H 338.311 -3.0819 -3.8377 0
M  V30 3438 N 339.963 1.05934 -1.16686 0
M  V30 3439 C 340.893 2.1546 -0.899949 0
M  V30 3440 C 341.874 1.69391 0.155154 0
M  V30 3441 O 343.059 1.94199 0.00648693 0
M  V30 3442 C 340.189 3.44939 -0.404241 0
M  V30 3443 C 339.143 4.04536 -1.39767 0
M  V30 3444 C 338.469 5.29268 -0.760216 0
M  V30 3445 C 339.769 4.42893 -2.76845 0
M  V30 3446 H 341.463 2.38046 -1.81588 0
M  V30 3447 H 339.009 1.14404 -0.874514 0
M  V30 3448 H 340.962 4.20901 -0.204971 0
M  V30 3449 H 339.686 3.21983 0.547206 0
M  V30 3450 H 338.345 3.30635 -1.58355 0
M  V30 3451 H 337.993 5.02611 0.197831 0
M  V30 3452 H 337.693 5.70101 -1.42332 0
M  V30 3453 H 339.217 6.07924 -0.57105 0
M  V30 3454 H 340.631 5.09921 -2.62019 0
M  V30 3455 H 339.028 4.94721 -3.39663 0
M  V30 3456 H 340.098 3.53584 -3.31823 0
M  V30 3457 N 341.441 0.965919 1.2453 0
M  V30 3458 C 342.388 0.49402 2.25451 0
M  V30 3459 C 343.358 -0.45948 1.59618 0
M  V30 3460 O 344.543 -0.370238 1.87173 0
M  V30 3461 C 341.683 -0.211359 3.44452 0
M  V30 3462 C 340.796 0.7807 4.24887 0
M  V30 3463 C 339.931 0.0516105 5.31175 0
M  V30 3464 C 338.97 1.03385 6.03306 0
M  V30 3465 N 338.107 0.334887 7.01301 0
M  V30 3466 H 342.947 1.35946 2.65184 0
M  V30 3467 H 340.484 0.681515 1.3036 0
M  V30 3468 H 342.442 -0.637 4.12308 0
M  V30 3469 H 341.072 -1.04077 3.05562 0
M  V30 3470 H 340.124 1.32479 3.56586 0
M  V30 3471 H 341.436 1.52978 4.74762 0
M  V30 3472 H 340.59 -0.432114 6.05159 0
M  V30 3473 H 339.329 -0.730179 4.82203 0
M  V30 3474 H 338.334 1.52847 5.28127 0
M  V30 3475 H 339.559 1.81606 6.54367 0
M  V30 3476 H 337.505 -0.427959 6.54603 0
M  V30 3477 H 337.422 1.02287 7.49048 0
M  V30 3478 H 338.69 -0.126928 7.79397 0
M  V30 3479 N 342.919 -1.39368 0.735821 0
M  V30 3480 C 343.866 -2.30599 0.0963825 0
M  V30 3481 C 344.836 -1.49257 -0.728794 0
M  V30 3482 O 346.021 -1.77941 -0.688588 0
M  V30 3483 C 343.161 -3.35596 -0.804305 0
M  V30 3484 C 342.274 -4.31987 0.0335761 0
M  V30 3485 C 341.409 -5.24053 -0.868461 0
M  V30 3486 C 340.448 -6.12095 -0.0258776 0
M  V30 3487 N 339.585 -6.96514 -0.883893 0
M  V30 3488 H 344.425 -2.8471 0.880002 0
M  V30 3489 H 341.962 -1.40188 0.445619 0
M  V30 3490 H 343.92 -3.95062 -1.34096 0
M  V30 3491 H 342.55 -2.82938 -1.55389 0
M  V30 3492 H 341.602 -3.74133 0.68766 0
M  V30 3493 H 342.914 -4.94074 0.685036 0
M  V30 3494 H 342.068 -5.88549 -1.47293 0
M  V30 3495 H 340.807 -4.62289 -1.5537 0
M  V30 3496 H 339.812 -5.4661 0.591386 0
M  V30 3497 H 341.037 -6.75923 0.656156 0
M  V30 3498 H 338.983 -6.37318 -1.55441 0
M  V30 3499 H 338.9 -7.55448 -0.288931 0
M  V30 3500 H 340.168 -7.65439 -1.4739 0
M  V30 3501 N 344.397 -0.483516 -1.5 0
M  V30 3502 C 345.646 0.0689102 -2.01582 0
M  V30 3503 C 345.959 1.39655 -1.36952 0
M  V30 3504 O 347.165 2.03465 -1.79762 0
M  V30 3505 C 345.621 0.173302 -3.59483 0
M  V30 3506 C 345.229 -1.14665 -4.33077 0
M  V30 3507 C 346.973 0.677024 -4.19066 0
M  V30 3508 C 344.88 -1.00537 -5.82792 0
M  V30 3509 H 343.81 0.0295277 -0.753422 0
M  V30 3510 H 346.461 -0.620295 -1.72698 0
M  V30 3511 H 344.843 0.926569 -3.85007 0
M  V30 3512 H 346.017 -1.91184 -4.19268 0
M  V30 3513 H 344.332 -1.58244 -3.85159 0
M  V30 3514 H 346.929 0.799952 -5.28682 0
M  V30 3515 H 347.272 1.67151 -3.81269 0
M  V30 3516 H 347.805 -0.0192083 -3.97795 0
M  V30 3517 H 344.544 -1.9736 -6.25083 0
M  V30 3518 H 344.064 -0.280776 -5.99142 0
M  V30 3519 H 345.743 -0.677 -6.43448 0
M  V30 3520 N 345.875 1.56104 -0.216619 0
M  V30 3521 C 347.121 1.98466 0.417033 0
M  V30 3522 C 347.454 1.10403 1.59765 0
M  V30 3523 O 346.729 0.160632 1.93836 0
M  V30 3524 C 347.012 3.49769 0.85637 0
M  V30 3525 C 346.865 4.48606 -0.327546 0
M  V30 3526 C 348.184 4.05339 1.7143 0
M  V30 3527 H 345.303 0.721551 0.150112 0
M  V30 3528 H 347.945 1.87423 -0.311864 0
M  V30 3529 H 346.095 3.5931 1.47745 0
M  V30 3530 H 347.767 4.5108 -0.965618 0
M  V30 3531 H 346.01 4.22682 -0.975805 0
M  V30 3532 H 346.681 5.51995 0.0227149 0
M  V30 3533 H 349.157 3.98712 1.19031 0
M  V30 3534 H 348.033 5.11533 1.99061 0
M  V30 3535 H 348.294 3.51918 2.67593 0
M  V30 3536 N 347.353 -0.0568162 1.57498 0
M  V30 3537 C 348.63 -0.786954 1.79071 0
M  V30 3538 C 349.01 -1.95028 0.80792 0
M  V30 3539 O 348.358 -2.27968 -0.155858 0
M  V30 3540 C 348.568 -1.24594 3.26002 0
M  V30 3541 C 349.916 -1.67323 3.90241 0
M  V30 3542 O 350.94 -1.34124 3.29984 0
M  V30 3543 O 349.799 -2.28842 4.9628 0
M  V30 3544 H 346.893 -0.378262 0.735423 0
M  V30 3545 H 349.439 -0.035734 1.69662 0
M  V30 3546 H 348.211 -0.41423 3.89101 0
M  V30 3547 H 347.834 -2.05803 3.40192 0
M  V30 3548 N 348.832 -1.54138 -0.328536 0
M  V30 3549 C 349.742 -1.86192 -1.42723 0
M  V30 3550 C 350.758 -0.753382 -1.56844 0
M  V30 3551 O 351.934 -1.04718 -1.72035 0
M  V30 3552 C 348.999 -2.07824 -2.77507 0
M  V30 3553 C 348.06 -3.31641 -2.72603 0
M  V30 3554 C 347.293 -3.52232 -4.00959 0
M  V30 3555 O 347.516 -2.7636 -4.9898 0
M  V30 3556 O 346.45 -4.45699 -4.0452 0
M  V30 3557 H 350.276 -2.79608 -1.18547 0
M  V30 3558 H 347.861 -1.3998 -0.522104 0
M  V30 3559 H 349.743 -2.23411 -3.57303 0
M  V30 3560 H 348.418 -1.17596 -3.01584 0
M  V30 3561 H 347.325 -3.21444 -1.91376 0
M  V30 3562 H 348.658 -4.2191 -2.53481 0
M  V30 3563 N 350.31 0.590341 -1.46126 0
M  V30 3564 C 351.273 1.68194 -1.55703 0
M  V30 3565 C 352.273 1.54808 -0.434868 0
M  V30 3566 O 353.463 1.59564 -0.698928 0
M  V30 3567 C 350.595 3.07575 -1.47005 0
M  V30 3568 H 351.788 1.61064 -2.52979 0
M  V30 3569 H 349.341 0.807541 -1.33823 0
M  V30 3570 H 350.076 3.20268 -0.509785 0
M  V30 3571 H 349.861 3.187 -2.28414 0
M  V30 3572 H 351.351 3.87055 -1.56776 0
M  V30 3573 N 351.788 1.33704 0.83433 0
M  V30 3574 C 353.034 1.25603 1.59222 0
M  V30 3575 C 353.367 -0.176659 1.93395 0
M  V30 3576 O 352.642 -1.11915 1.59076 0
M  V30 3577 C 352.925 2.13576 2.89926 0
M  V30 3578 C 352.778 3.65326 2.62406 0
M  V30 3579 C 354.097 2.01238 3.91397 0
M  V30 3580 H 351.216 0.457613 0.577719 0
M  V30 3581 H 353.858 1.63848 0.961972 0
M  V30 3582 H 352.008 1.8109 3.43713 0
M  V30 3583 H 353.68 4.08124 2.15017 0
M  V30 3584 H 351.923 3.8698 1.96033 0
M  V30 3585 H 352.594 4.22232 3.55562 0
M  V30 3586 H 355.07 2.29738 3.46929 0
M  V30 3587 H 353.946 2.65036 4.80673 0
M  V30 3588 H 354.207 0.985951 4.30966 0
M  V30 3589 N 353.266 -1.05314 1.17247 0
M  V30 3590 C 354.213 -2.13031 0.888058 0
M  V30 3591 C 355.183 -1.65253 -0.167537 0
M  V30 3592 O 356.368 -1.90775 -0.0305974 0
M  V30 3593 C 353.508 -3.42702 0.406147 0
M  V30 3594 C 352.621 -4.04161 1.52572 0
M  V30 3595 C 351.756 -5.21744 0.997808 0
M  V30 3596 C 350.795 -5.75207 2.09291 0
M  V30 3597 N 349.932 -6.84094 1.57986 0
M  V30 3598 H 354.772 -2.36698 1.81048 0
M  V30 3599 H 352.309 -1.16121 0.903013 0
M  V30 3600 H 354.267 -4.17059 0.108305 0
M  V30 3601 H 352.897 -3.19222 -0.479313 0
M  V30 3602 H 351.949 -3.27253 1.93931 0
M  V30 3603 H 353.261 -4.39881 2.35172 0
M  V30 3604 H 352.415 -6.03168 0.653739 0
M  V30 3605 H 351.154 -4.87495 0.141232 0
M  V30 3606 H 350.159 -4.92414 2.44557 0
M  V30 3607 H 351.384 -6.11505 2.95362 0
M  V30 3608 H 349.33 -6.51745 0.74598 0
M  V30 3609 H 349.247 -7.18811 2.34195 0
M  V30 3610 H 350.515 -7.69172 1.26468 0
M  V30 3611 N 354.744 -0.972509 -1.24016 0
M  V30 3612 C 355.694 -0.477561 -2.22942 0
M  V30 3613 C 356.678 0.44308 -1.54679 0
M  V30 3614 O 357.87 0.273219 -1.74879 0
M  V30 3615 C 354.999 0.226348 -3.42553 0
M  V30 3616 C 354.085 -0.713403 -4.18057 0
M  V30 3617 N 354.476 -1.8527 -4.70647 0
M  V30 3618 C 352.774 -0.525145 -4.42898 0
M  V30 3619 C 353.475 -2.44089 -5.28011 0
M  V30 3620 N 352.451 -1.72556 -5.15486 0
M  V30 3621 H 356.253 -1.34678 -2.61226 0
M  V30 3622 H 353.767 -0.832196 -1.39457 0
M  V30 3623 H 355.764 0.598184 -4.12586 0
M  V30 3624 H 354.424 1.09195 -3.05788 0
M  V30 3625 H 355.435 -2.2341 -4.67235 0
M  V30 3626 H 352.112 0.296096 -4.16449 0
M  V30 3627 H 353.502 -3.40259 -5.79374 0
M  V30 3628 N 356.222 1.38976 -0.743202 0
M  V30 3629 C 357.462 2.02193 -0.29954 0
M  V30 3630 C 357.826 1.5771 1.09506 0
M  V30 3631 O 359.027 2.13184 1.63726 0
M  V30 3632 C 357.298 3.55077 -0.406822 0
M  V30 3633 S 358.857 4.38778 -0.0442109 0
M  V30 3634 H 355.675 0.701335 -0.116836 0
M  V30 3635 H 358.277 1.69651 -0.971529 0
M  V30 3636 H 356.981 3.84942 -1.42295 0
M  V30 3637 H 356.512 3.92383 0.282707 0
M  V30 3638 H 358.527 4.82222 1.16947 0
M  V30 3639 N 357.7 0.491464 1.49741 0
M  V30 3640 C 359.111 0.0413169 1.86654 0
M  V30 3641 C 359.462 -1.36985 1.40462 0
M  V30 3642 O 358.587 -2.01917 0.778354 0
M  V30 3643 C 359.182 0.0682023 3.38731 0
M  V30 3644 C 357.741 -0.32656 3.74981 0
M  V30 3645 C 356.888 0.444888 2.73708 0
M  V30 3646 H 359.839 0.704733 1.42194 0
M  V30 3647 H 359.86 -0.729322 3.73445 0
M  V30 3648 H 359.372 1.09539 3.72321 0
M  V30 3649 H 357.473 -1.35734 3.46997 0
M  V30 3650 H 357.586 -0.013741 4.79098 0
M  V30 3651 H 355.95 -0.104062 2.54487 0
M  V30 3652 H 356.733 1.47197 3.10142 0
M  V30 3653 N 359.178 -1.55987 0.224894 0
M  V30 3654 C 360.406 -2.02784 -0.410665 0
M  V30 3655 C 360.821 -1.10464 -1.53112 0
M  V30 3656 O 360.178 -0.114871 -1.82138 0
M  V30 3657 C 360.229 -3.49087 -0.939165 0
M  V30 3658 O 359.95 -4.37887 0.136614 0
M  V30 3659 C 361.451 -4.11543 -1.64763 0
M  V30 3660 H 358.671 -0.663484 -0.100148 0
M  V30 3661 H 361.215 -2.01614 0.342326 0
M  V30 3662 H 359.37 -3.50861 -1.64242 0
M  V30 3663 H 359.784 -5.23849 -0.261155 0
M  V30 3664 H 361.258 -5.15673 -1.96939 0
M  V30 3665 H 361.735 -3.56736 -2.56195 0
M  V30 3666 H 362.341 -4.13629 -0.989503 0
M  V30 3667 N 360.656 0.0484629 -1.57525 0
M  V30 3668 C 361.902 0.744226 -1.88651 0
M  V30 3669 C 362.235 1.76029 -0.820212 0
M  V30 3670 O 361.51 1.93782 0.166985 0
M  V30 3671 C 361.793 1.43128 -3.30434 0
M  V30 3672 C 361.646 0.43005 -4.47739 0
M  V30 3673 C 362.965 2.37031 -3.70816 0
M  V30 3674 H 360.084 0.269089 -0.68612 0
M  V30 3675 H 362.726 0.00713532 -1.89999 0
M  V30 3676 H 360.876 2.05956 -3.29415 0
M  V30 3677 H 362.548 -0.194816 -4.60888 0
M  V30 3678 H 360.791 -0.252522 -4.33064 0
M  V30 3679 H 361.462 0.948874 -5.43783 0
M  V30 3680 H 363.938 1.84263 -3.73077 0
M  V30 3681 H 362.814 2.82094 -4.70865 0
M  V30 3682 H 363.075 3.22864 -3.02012 0
M  V30 3683 N 362.134 1.5431 0.320358 0
M  V30 3684 C 363.066 1.80262 1.41556 0
M  V30 3685 C 364.079 0.684723 1.477 0
M  V30 3686 O 365.268 0.961886 1.50366 0
M  V30 3687 C 362.368 1.90825 2.8007 0
M  V30 3688 C 361.541 3.21023 2.97091 0
M  V30 3689 C 360.6 3.22247 4.15985 0
M  V30 3690 O 359.626 3.95871 4.08992 0
M  V30 3691 N 360.828 2.46258 5.25678 0
M  V30 3692 H 363.593 2.74778 1.19655 0
M  V30 3693 H 361.154 1.53646 0.510358 0
M  V30 3694 H 363.146 1.89067 3.57821 0
M  V30 3695 H 361.716 1.03392 2.95006 0
M  V30 3696 H 360.936 3.35715 2.06614 0
M  V30 3697 H 362.224 4.0698 3.05361 0
M  V30 3698 H 361.622 1.86037 5.34235 0
M  V30 3699 H 360.179 2.50275 6.01835 0
M  V30 3700 N 363.613 -0.582584 1.46437 0
M  V30 3701 C 364.563 -1.68654 1.53426 0
M  V30 3702 C 365.547 -1.55971 0.395194 0
M  V30 3703 O 366.739 -1.64884 0.643612 0
M  V30 3704 C 363.868 -3.07439 1.52762 0
M  V30 3705 C 362.954 -3.25418 2.71963 0
M  V30 3706 N 363.345 -3.13556 3.96883 0
M  V30 3707 C 361.643 -3.56357 2.68189 0
M  V30 3708 C 362.344 -3.33543 4.76575 0
M  V30 3709 N 361.32 -3.58704 4.08451 0
M  V30 3710 H 365.122 -1.58014 2.47808 0
M  V30 3711 H 362.636 -0.786617 1.42078 0
M  V30 3712 H 364.633 -3.86671 1.55857 0
M  V30 3713 H 363.293 -3.1921 0.594573 0
M  V30 3714 H 364.304 -2.9142 4.28129 0
M  V30 3715 H 360.981 -3.74812 1.83908 0
M  V30 3716 H 362.371 -3.29555 5.85528 0
M  V30 3717 N 365.091 -1.34144 -0.827227 0
M  V30 3718 C 366.337 -1.26446 -1.58554 0
M  V30 3719 C 366.67 0.1664 -1.93486 0
M  V30 3720 O 365.945 1.1107 -1.59667 0
M  V30 3721 C 366.228 -2.15111 -2.8879 0
M  V30 3722 C 366.081 -3.66712 -2.60465 0
M  V30 3723 C 367.4 -2.03311 -3.90324 0
M  V30 3724 H 364.519 -0.46067 -0.575284 0
M  V30 3725 H 367.161 -1.64356 -0.953269 0
M  V30 3726 H 365.311 -1.8291 -3.42748 0
M  V30 3727 H 366.983 -4.09259 -2.1285 0
M  V30 3728 H 365.226 -3.88014 -1.93978 0
M  V30 3729 H 365.897 -4.24112 -3.53317 0
M  V30 3730 H 368.373 -2.31574 -3.45706 0
M  V30 3731 H 367.249 -2.67582 -4.79261 0
M  V30 3732 H 367.51 -1.00879 -4.30437 0
M  V30 3733 N 366.569 1.04691 -1.17803 0
M  V30 3734 C 367.499 2.14494 -0.92275 0
M  V30 3735 C 368.48 1.69546 0.137179 0
M  V30 3736 O 369.665 1.94195 -0.0141108 0
M  V30 3737 C 366.795 3.44491 -0.440803 0
M  V30 3738 C 365.749 4.03031 -1.4405 0
M  V30 3739 C 365.075 5.28432 -0.81631 0
M  V30 3740 C 366.375 4.39932 -2.81527 0
M  V30 3741 H 368.069 2.36107 -1.84103 0
M  V30 3742 H 365.615 1.1347 -0.886599 0
M  V30 3743 H 367.568 4.2066 -0.249602 0
M  V30 3744 H 366.292 3.22546 0.513025 0
M  V30 3745 H 364.951 3.28937 -1.61853 0
M  V30 3746 H 364.599 5.02792 0.144511 0
M  V30 3747 H 364.299 5.68559 -1.48371 0
M  V30 3748 H 365.823 6.07284 -0.635496 0
M  V30 3749 H 367.237 5.07113 -2.67412 0
M  V30 3750 H 365.634 4.9109 -3.44892 0
M  V30 3751 H 366.704 3.50045 -3.35554 0
M  V30 3752 N 368.047 0.979072 1.23499 0
M  V30 3753 C 369.293 0.648178 1.92163 0
M  V30 3754 C 369.626 -0.816049 1.76222 0
M  V30 3755 O 368.901 -1.58849 1.12237 0
M  V30 3756 C 369.184 1.03773 3.44824 0
M  V30 3757 C 369.037 2.55948 3.69879 0
M  V30 3758 C 370.356 0.580653 4.36253 0
M  V30 3759 H 367.475 0.236952 0.69787 0
M  V30 3760 H 370.117 1.22012 1.45647 0
M  V30 3761 H 368.267 0.551058 3.84572 0
M  V30 3762 H 369.939 3.12179 3.3962 0
M  V30 3763 H 368.182 2.98641 3.14636 0
M  V30 3764 H 368.853 2.78255 4.76737 0
M  V30 3765 H 371.329 0.998465 4.03943 0
M  V30 3766 H 370.205 0.881663 5.41773 0
M  V30 3767 H 370.466 -0.519052 4.39042 0
M  V30 3768 N 369.525 -1.3858 0.750561 0
M  V30 3769 C 370.488 -2.28836 0.129152 0
M  V30 3770 C 371.488 -1.47045 -0.650714 0
M  V30 3771 O 372.678 -1.6753 -0.477428 0
M  V30 3772 C 369.81 -3.30751 -0.825622 0
M  V30 3773 H 371.003 -2.85294 0.924516 0
M  V30 3774 H 368.556 -1.47489 0.517376 0
M  V30 3775 H 369.291 -2.79378 -1.64677 0
M  V30 3776 H 369.076 -3.91177 -0.268852 0
M  V30 3777 H 370.566 -3.98249 -1.2565 0
M  V30 3778 N 371.003 -0.499398 -1.49478 0
M  V30 3779 C 371.953 0.299103 -2.2603 0
M  V30 3780 C 372.937 0.936934 -1.30807 0
M  V30 3781 O 374.129 0.844798 -1.55538 0
M  V30 3782 C 371.258 1.36391 -3.15044 0
M  V30 3783 C 370.344 0.732398 -4.17728 0
M  V30 3784 N 370.735 -0.164028 -5.05534 0
M  V30 3785 C 369.033 0.993162 -4.34801 0
M  V30 3786 C 369.734 -0.525345 -5.79323 0
M  V30 3787 N 368.71 0.106348 -5.43496 0
M  V30 3788 H 372.512 -0.391003 -2.91287 0
M  V30 3789 H 370.026 -0.31537 -1.59308 0
M  V30 3790 H 372.023 1.94939 -3.68516 0
M  V30 3791 H 370.683 2.05571 -2.51338 0
M  V30 3792 H 371.694 -0.534736 -5.15132 0
M  V30 3793 H 368.371 1.67783 -3.82302 0
M  V30 3794 H 369.761 -1.25862 -6.60006 0
M  V30 3795 N 372.481 1.55866 -0.233164 0
M  V30 3796 C 373.897 1.59133 0.121988 0
M  V30 3797 C 374.097 1.25016 1.58029 0
M  V30 3798 O 373.153 0.990922 2.32243 0
M  V30 3799 C 374.466 2.99932 -0.214792 0
M  V30 3800 C 376.014 3.12601 -0.157971 0
M  V30 3801 C 376.489 4.55597 -0.46859 0
M  V30 3802 N 377.98 4.61305 -0.418585 0
M  V30 3803 C 378.715 5.69903 -0.63227 0
M  V30 3804 N 378.211 6.86819 -0.90835 0
M  V30 3805 N 380.004 5.59264 -0.563913 0
M  V30 3806 H 372.155 1.76315 -1.18434 0
M  V30 3807 H 374.418 0.820093 -0.475553 0
M  V30 3808 H 374.124 3.29588 -1.22739 0
M  V30 3809 H 373.998 3.74327 0.464691 0
M  V30 3810 H 376.385 2.82735 0.845283 0
M  V30 3811 H 376.466 2.40511 -0.871102 0
M  V30 3812 H 376.11 4.86182 -1.46934 0
M  V30 3813 H 376.04 5.25928 0.265865 0
M  V30 3814 H 378.531 3.77297 -0.213368 0
M  V30 3815 H 378.844 7.65507 -1.05919 0
M  V30 3816 H 377.189 6.88536 -0.945673 0
M  V30 3817 H 380.38 4.66802 -0.348372 0
M  V30 3818 H 380.553 6.43831 -0.733847 0
M  V30 3819 N 373.959 -0.0401083 1.57549 0
M  V30 3820 C 375.187 -0.745196 1.93014 0
M  V30 3821 C 375.602 -1.6948 0.831984 0
M  V30 3822 O 374.959 -1.81482 -0.192463 0
M  V30 3823 C 375.01 -1.51176 3.28372 0
M  V30 3824 O 374.731 -0.600284 4.33968 0
M  V30 3825 C 376.232 -2.315 3.78051 0
M  V30 3826 H 373.452 -0.210088 0.637263 0
M  V30 3827 H 375.996 -0.000924689 2.045 0
M  V30 3828 H 374.151 -2.20801 3.18317 0
M  V30 3829 H 374.565 -1.13669 5.12035 0
M  V30 3830 H 376.039 -2.80697 4.75303 0
M  V30 3831 H 376.516 -3.12436 3.08675 0
M  V30 3832 H 377.122 -1.66971 3.91153 0
M  V30 3833 N 375.437 -1.54477 -0.31217 0
M  V30 3834 C 376.714 -1.63891 -1.06767 0
M  V30 3835 C 377.094 -0.480028 -2.0557 0
M  V30 3836 O 376.442 0.524487 -2.22399 0
M  V30 3837 C 376.652 -3.01402 -1.75948 0
M  V30 3838 C 378 -3.57838 -2.28554 0
M  V30 3839 O 379.024 -3.03782 -1.85998 0
M  V30 3840 O 377.883 -4.52462 -3.06497 0
M  V30 3841 H 374.977 -0.664125 -0.492816 0
M  V30 3842 H 377.523 -1.66823 -0.311149 0
M  V30 3843 H 376.295 -3.77187 -1.04144 0
M  V30 3844 H 375.918 -3.02199 -2.58383 0
M  V30 3845 N 376.915 0.57481 -1.46744 0
M  V30 3846 C 377.863 1.70435 -1.58286 0
M  V30 3847 C 378.857 1.63287 -0.450956 0
M  V30 3848 O 380.063 1.68685 -0.628121 0
M  V30 3849 H 376.438 0.56364 -0.497809 0
M  V30 3850 H 378.409 1.57833 -2.53242 0
M  V30 3851 C 377.158 3.08815 -1.59776 0
M  V30 3852 H 376.481 3.1499 -2.46214 0
M  V30 3853 H 377.921 3.87588 -1.71905 0
M  V30 3854 C 376.38 3.35301 -0.327812 0
M  V30 3855 O 376.91 3.97511 0.57861 0
M  V30 3856 N 375.116 2.89816 -0.213274 0
M  V30 3857 H 374.663 2.39371 -0.951798 0
M  V30 3858 H 374.621 3.0791 0.63553 0
M  V30 3859 N 378.394 1.34581 0.820102 0
M  V30 3860 C 379.341 1.2639 1.93117 0
M  V30 3861 C 380.311 0.138554 1.65521 0
M  V30 3862 O 381.496 0.320004 1.88097 0
M  V30 3863 C 378.636 1.02812 3.29429 0
M  V30 3864 C 377.749 2.24146 3.693 0
M  V30 3865 C 376.884 1.93829 4.94574 0
M  V30 3866 C 375.923 3.1129 5.27034 0
M  V30 3867 N 375.06 2.80838 6.43486 0
M  V30 3868 H 379.9 2.21408 1.99455 0
M  V30 3869 H 377.437 1.10077 0.975784 0
M  V30 3870 H 379.395 0.871788 4.0799 0
M  V30 3871 H 378.025 0.114612 3.22596 0
M  V30 3872 H 377.077 2.50691 2.86109 0
M  V30 3873 H 378.389 3.11899 3.89257 0
M  V30 3874 H 377.543 1.74948 5.80929 0
M  V30 3875 H 376.282 1.03341 4.76626 0
M  V30 3876 H 375.287 3.30764 4.39175 0
M  V30 3877 H 376.512 4.02561 5.4692 0
M  V30 3878 H 374.458 1.92929 6.26988 0
M  V30 3879 H 374.375 3.62123 6.63629 0
M  V30 3880 H 375.643 2.65467 7.32903 0
M  V30 3881 N 379.872 -1.04064 1.18357 0
M  V30 3882 C 381.118 -1.77528 0.980397 0
M  V30 3883 C 381.451 -1.87948 -0.48879 0
M  V30 3884 O 380.726 -1.3876 -1.36293 0
M  V30 3885 C 381.009 -3.20797 1.63588 0
M  V30 3886 C 380.862 -3.1832 3.17793 0
M  V30 3887 C 382.181 -4.18911 1.34914 0
M  V30 3888 H 379.3 -0.644443 0.357578 0
M  V30 3889 H 381.942 -1.2156 1.46024 0
M  V30 3890 H 380.092 -3.68586 1.22788 0
M  V30 3891 H 381.764 -2.78521 3.67728 0
M  V30 3892 H 380.007 -2.56351 3.49952 0
M  V30 3893 H 380.678 -4.19489 3.58794 0
M  V30 3894 H 383.154 -3.7967 1.70265 0
M  V30 3895 H 382.03 -5.17374 1.83346 0
M  V30 3896 H 382.291 -4.41262 0.272027 0
M  V30 3897 N 381.35 -0.985608 -1.22978 0
M  V30 3898 C 382.3 -0.50118 -2.22423 0
M  V30 3899 C 383.284 0.426649 -1.5514 0
M  V30 3900 O 384.476 0.254656 -1.75159 0
M  V30 3901 C 381.605 0.190003 -3.42774 0
M  V30 3902 C 380.691 -0.757703 -4.17276 0
M  V30 3903 N 381.082 -1.90251 -4.68656 0
M  V30 3904 C 379.38 -0.57209 -4.42316 0
M  V30 3905 C 380.081 -2.49676 -5.25392 0
M  V30 3906 N 379.057 -1.78013 -5.13627 0
M  V30 3907 H 382.859 -1.37441 -2.59783 0
M  V30 3908 H 380.373 -0.846941 -1.38567 0
M  V30 3909 H 382.37 0.55439 -4.13197 0
M  V30 3910 H 381.03 1.05946 -3.06929 0
M  V30 3911 H 382.041 -2.28354 -4.64839 0
M  V30 3912 H 378.718 0.251909 -4.16739 0
M  V30 3913 H 380.108 -3.46384 -5.75732 0
M  V30 3914 N 382.828 1.3818 -0.7579 0
M  V30 3915 C 383.761 2.28055 -0.0814093 0
M  V30 3916 C 384.739 1.45603 0.723779 0
M  V30 3917 O 385.923 1.74961 0.701491 0
M  V30 3918 C 383.05 3.2676 0.891394 0
M  V30 3919 C 382.096 4.26153 0.171909 0
M  V30 3920 S 382.929 5.23434 -1.13035 0
M  V30 3921 C 384.085 6.25694 -0.160727 0
M  V30 3922 H 384.318 2.85082 -0.84353 0
M  V30 3923 H 381.851 1.44246 -0.550671 0
M  V30 3924 H 383.809 3.8414 1.44731 0
M  V30 3925 H 382.47 2.68706 1.62652 0
M  V30 3926 H 381.663 4.95738 0.908843 0
M  V30 3927 H 381.265 3.72691 -0.312606 0
M  V30 3928 H 383.557 6.74161 0.671773 0
M  V30 3929 H 384.5 7.03285 -0.824353 0
M  V30 3930 H 384.908 5.64064 0.221892 0
M  V30 3931 N 384.306 0.507319 1.49211 0
M  V30 3932 C 385.554 -0.0348839 2.0207 0
M  V30 3933 C 385.875 -1.36898 1.38866 0
M  V30 3934 O 385.145 -1.88133 0.546151 0
M  V30 3935 H 383.725 -0.0158812 0.746831 0
M  V30 3936 H 386.387 0.665998 1.83168 0
M  V30 3937 H 385.483 -0.159917 3.1169 0
M  V30 3938 N 385.784 -1.5574 0.241426 0
M  V30 3939 C 387.061 -1.90704 -0.434881 0
M  V30 3940 C 387.441 -1.16145 -1.76277 0
M  V30 3941 O 386.789 -0.277152 -2.26813 0
M  V30 3942 C 386.999 -3.43657 -0.608343 0
M  V30 3943 C 388.347 -4.14806 -0.906725 0
M  V30 3944 O 389.371 -3.49366 -0.694408 0
M  V30 3945 O 388.23 -5.30548 -1.31075 0
M  V30 3946 H 385.324 -0.793592 -0.23268 0
M  V30 3947 H 387.87 -1.67288 0.285086 0
M  V30 3948 H 386.642 -3.89927 0.327505 0
M  V30 3949 H 386.265 -3.72918 -1.37906 0
M  V30 3950 N 387.262 0.0317525 -1.57568 0
M  V30 3951 C 388.192 1.03274 -2.0942 0
M  V30 3952 C 389.173 1.3788 -0.996143 0
M  V30 3953 O 390.358 1.46811 -1.27122 0
M  V30 3954 C 387.488 2.33448 -2.57137 0
M  V30 3955 C 386.442 2.13091 -3.71182 0
M  V30 3956 C 385.768 3.49001 -4.05095 0
M  V30 3957 C 387.068 1.51928 -4.99715 0
M  V30 3958 H 388.762 0.60112 -2.93303 0
M  V30 3959 H 386.308 0.287705 -1.41097 0
M  V30 3960 H 388.261 3.03802 -2.92032 0
M  V30 3961 H 386.985 2.78665 -1.70333 0
M  V30 3962 H 385.644 1.45171 -3.36632 0
M  V30 3963 H 385.292 3.91862 -3.15362 0
M  V30 3964 H 384.992 3.36207 -4.81911 0
M  V30 3965 H 386.516 4.20721 -4.42522 0
M  V30 3966 H 387.93 2.12196 -5.32584 0
M  V30 3967 H 386.327 1.49716 -5.81124 0
M  V30 3968 H 387.397 0.484811 -4.8247 0
M  V30 3969 N 388.74 1.54641 0.303973 0
M  V30 3970 C 390.017 1.64455 1.05896 0
M  V30 3971 C 390.397 0.490923 2.05312 0
M  V30 3972 O 389.745 -0.512685 2.22674 0
M  V30 3973 C 389.955 3.02331 1.74347 0
M  V30 3974 C 391.303 3.59045 2.26653 0
M  V30 3975 O 392.327 3.04764 1.84384 0
M  V30 3976 O 391.186 4.54081 3.04093 0
M  V30 3977 H 388.28 0.666729 0.489287 0
M  V30 3978 H 390.826 1.66986 0.302298 0
M  V30 3979 H 389.598 3.77734 1.02142 0
M  V30 3980 H 389.221 3.03565 2.56777 0
M  V30 3981 N 390.218 -0.567019 1.47046 0
M  V30 3982 C 391.464 -1.32658 1.53394 0
M  V30 3983 C 391.797 -1.93254 0.19148 0
M  V30 3984 O 391.072 -1.77338 -0.798844 0
M  V30 3985 C 391.355 -2.44412 2.64452 0
M  V30 3986 C 391.208 -1.88749 4.08282 0
M  V30 3987 C 392.527 -3.46387 2.71485 0
M  V30 3988 H 389.646 -0.48098 0.558415 0
M  V30 3989 H 392.288 -0.635481 1.79058 0
M  V30 3990 H 390.438 -3.03363 2.427 0
M  V30 3991 H 392.11 -1.34134 4.41368 0
M  V30 3992 H 390.353 -1.19481 4.17021 0
M  V30 3993 H 391.024 -2.69491 4.81745 0
M  V30 3994 H 393.5 -2.9734 2.91081 0
M  V30 3995 H 392.376 -4.2202 3.50985 0
M  V30 3996 H 392.637 -4.04616 1.78153 0
M  V30 3997 N 391.696 -1.35014 -0.812953 0
M  V30 3998 C 393.107 -1.25035 -1.38648 0
M  V30 3999 C 393.458 0.119967 -1.95833 0
M  V30 4000 O 392.583 1.02069 -1.90816 0
M  V30 4001 C 393.178 -2.26394 -2.52054 0
M  V30 4002 C 391.737 -2.20175 -3.05287 0
M  V30 4003 C 390.884 -2.12451 -1.78213 0
M  V30 4004 H 393.835 -1.46235 -0.616516 0
M  V30 4005 H 393.856 -1.88672 -3.30429 0
M  V30 4006 H 393.368 -3.26116 -2.10404 0
M  V30 4007 H 391.469 -1.23841 -3.51417 0
M  V30 4008 H 391.582 -3.11863 -3.63701 0
M  V30 4009 H 389.946 -1.58328 -1.9951 0
M  V30 4010 H 390.729 -3.14024 -1.38723 0
M  V30 4011 N 393.175 1.03435 -1.18907 0
M  V30 4012 C 394.105 2.13503 -0.945448 0
M  V30 4013 C 395.086 1.69682 0.119189 0
M  V30 4014 O 396.271 1.94169 -0.034707 0
M  V30 4015 C 393.401 3.44004 -0.477316 0
M  V30 4016 C 392.355 4.0148 -1.48316 0
M  V30 4017 C 391.681 5.27537 -0.872311 0
M  V30 4018 C 392.981 4.36921 -2.86177 0
M  V30 4019 H 394.675 2.34141 -1.86597 0
M  V30 4020 H 392.221 1.12523 -0.898584 0
M  V30 4021 H 394.174 4.20372 -0.294204 0
M  V30 4022 H 392.898 3.23072 0.478786 0
M  V30 4023 H 391.557 3.27201 -1.65332 0
M  V30 4024 H 391.205 5.02917 0.0911752 0
M  V30 4025 H 390.905 5.66954 -1.54393 0
M  V30 4026 H 392.429 6.06576 -0.699871 0
M  V30 4027 H 393.843 5.04248 -2.72776 0
M  V30 4028 H 392.24 4.87405 -3.50081 0
M  V30 4029 H 393.31 3.46466 -3.39248 0
M  V30 4030 N 394.653 0.992116 1.22453 0
M  V30 4031 C 395.563 0.55065 2.28046 0
M  V30 4032 C 396.579 -0.400189 1.69335 0
M  V30 4033 O 397.755 -0.267215 1.99619 0
M  V30 4034 C 394.82 -0.128496 3.46462 0
M  V30 4035 C 393.881 0.865208 4.20491 0
M  V30 4036 C 393.114 0.218377 5.33253 0
M  V30 4037 O 393.337 -0.987894 5.6178 0
M  V30 4038 O 392.271 0.922845 5.94783 0
M  V30 4039 H 396.097 1.4291 2.67975 0
M  V30 4040 H 393.682 0.760326 1.28606 0
M  V30 4041 H 395.564 -0.508947 4.18315 0
M  V30 4042 H 394.239 -0.981526 3.0846 0
M  V30 4043 H 393.146 1.29658 3.50913 0
M  V30 4044 H 394.479 1.68741 4.62371 0
M  V30 4045 N 396.131 -1.37776 0.765217 0
M  V30 4046 C 397.063 -2.28958 0.105361 0
M  V30 4047 C 398.076 -1.48316 -0.67128 0
M  V30 4048 O 399.265 -1.71046 -0.51045 0
M  V30 4049 C 396.365 -3.27421 -0.874569 0
M  V30 4050 C 395.538 -4.37132 -0.153123 0
M  V30 4051 C 394.597 -5.1571 -1.04547 0
M  V30 4052 O 393.623 -5.66896 -0.511672 0
M  V30 4053 N 394.825 -5.29808 -2.37243 0
M  V30 4054 H 397.59 -2.86227 0.888495 0
M  V30 4055 H 395.151 -1.49682 0.617 0
M  V30 4056 H 397.143 -3.7687 -1.47483 0
M  V30 4057 H 395.713 -2.70967 -1.55871 0
M  V30 4058 H 394.933 -3.89166 0.627975 0
M  V30 4059 H 396.221 -5.07625 0.345643 0
M  V30 4060 H 395.619 -4.89793 -2.83054 0
M  V30 4061 H 394.176 -5.82589 -2.9229 0
M  V30 4062 N 397.609 -0.515225 -1.4894 0
M  V30 4063 C 398.519 0.259774 -2.33157 0
M  V30 4064 C 399.535 0.953501 -1.45548 0
M  V30 4065 O 400.711 0.931735 -1.78552 0
M  V30 4066 C 397.776 1.30193 -3.21326 0
M  V30 4067 C 396.837 0.620129 -4.24797 0
M  V30 4068 C 396.07 1.61263 -5.08753 0
M  V30 4069 O 396.293 2.84389 -4.94448 0
M  V30 4070 O 395.227 1.16013 -5.90614 0
M  V30 4071 H 399.053 -0.429932 -3.00641 0
M  V30 4072 H 396.638 -0.276346 -1.46822 0
M  V30 4073 H 398.52 1.90455 -3.75905 0
M  V30 4074 H 397.195 1.97431 -2.56521 0
M  V30 4075 H 396.102 -0.0226019 -3.74093 0
M  V30 4076 H 397.435 -0.0100493 -4.92199 0
M  V30 4077 N 399.087 1.5561 -0.249682 0
M  V30 4078 C 400.02 2.17537 0.689408 0
M  V30 4079 C 400.998 1.12829 1.17083 0
M  V30 4080 O 402.182 1.41229 1.24846 0
M  V30 4081 C 399.309 2.77828 1.93725 0
M  V30 4082 C 398.355 3.95615 1.59346 0
M  V30 4083 S 399.188 5.30988 0.69367 0
M  V30 4084 C 400.344 5.94734 1.95046 0
M  V30 4085 H 400.577 2.96852 0.163142 0
M  V30 4086 H 398.11 1.54362 -0.0341166 0
M  V30 4087 H 400.068 3.13199 2.65361 0
M  V30 4088 H 398.729 1.98454 2.43465 0
M  V30 4089 H 397.922 4.364 2.52132 0
M  V30 4090 H 397.524 3.61535 0.957512 0
M  V30 4091 H 399.816 6.12419 2.89739 0
M  V30 4092 H 400.759 6.90109 1.58604 0
M  V30 4093 H 401.167 5.23832 2.10381 0
M  V30 4094 N 400.565 -0.0233959 1.57583 0
M  V30 4095 C 401.528 -1.00693 2.05897 0
M  V30 4096 C 402.528 -1.28693 0.964092 0
M  V30 4097 O 403.718 -1.23602 1.22753 0
M  V30 4098 C 400.85 -2.33825 2.4807 0
M  V30 4099 H 402.043 -0.589476 2.9405 0
M  V30 4100 H 399.596 -0.270354 1.53944 0
M  V30 4101 H 400.331 -2.80307 1.6309 0
M  V30 4102 H 400.116 -2.1483 3.2801 0
M  V30 4103 H 401.606 -3.04426 2.85857 0
M  V30 4104 N 402.043 -1.548 -0.295768 0
M  V30 4105 C 402.99 -1.86113 -1.36494 0
M  V30 4106 C 403.96 -0.7105 -1.50137 0
M  V30 4107 O 405.145 -0.959626 -1.64912 0
M  V30 4108 C 402.285 -2.11861 -2.72413 0
M  V30 4109 C 401.398 -3.39471 -2.67177 0
M  V30 4110 C 400.533 -3.55035 -3.95125 0
M  V30 4111 C 399.572 -4.76418 -3.84308 0
M  V30 4112 N 398.709 -4.8876 -5.04042 0
M  V30 4113 H 403.549 -2.77314 -1.09091 0
M  V30 4114 H 401.086 -1.37315 -0.52753 0
M  V30 4115 H 403.044 -2.24786 -3.51464 0
M  V30 4116 H 401.674 -1.2392 -2.98066 0
M  V30 4117 H 400.726 -3.35139 -1.79962 0
M  V30 4118 H 402.038 -4.28646 -2.55076 0
M  V30 4119 H 401.192 -3.67653 -4.82614 0
M  V30 4120 H 399.931 -2.64002 -4.10066 0
M  V30 4121 H 398.936 -4.63827 -2.95202 0
M  V30 4122 H 400.161 -5.68863 -3.70906 0
M  V30 4123 H 398.107 -4.00652 -5.19436 0
M  V30 4124 H 398.024 -5.71945 -4.94384 0
M  V30 4125 H 399.292 -5.0574 -5.93167 0
M  V30 4126 N 403.521 0.559213 -1.47345 0
M  V30 4127 C 404.431 1.69388 -1.62311 0
M  V30 4128 C 405.447 1.6648 -0.505993 0
M  V30 4129 O 406.623 1.85964 -0.773262 0
M  V30 4130 C 403.688 3.05894 -1.63185 0
M  V30 4131 C 402.749 3.19885 -2.86307 0
M  V30 4132 C 401.982 4.49879 -2.87131 0
M  V30 4133 O 402.205 5.35217 -1.97229 0
M  V30 4134 O 401.139 4.67618 -3.78968 0
M  V30 4135 H 404.965 1.59706 -2.58317 0
M  V30 4136 H 402.55 0.728989 -1.30407 0
M  V30 4137 H 404.432 3.87133 -1.66451 0
M  V30 4138 H 403.107 3.15964 -0.70345 0
M  V30 4139 H 402.014 2.38052 -2.88587 0
M  V30 4140 H 403.347 3.14718 -3.78435 0
M  V30 4141 N 404.999 1.35443 0.805782 0
M  V30 4142 C 406.276 1.19325 1.54987 0
M  V30 4143 C 406.656 -0.227294 2.09873 0
M  V30 4144 O 406.004 -1.2309 1.92512 0
M  V30 4145 C 406.214 2.26196 2.65775 0
M  V30 4146 C 407.562 2.62043 3.34094 0
M  V30 4147 O 408.586 2.25115 2.76046 0
M  V30 4148 O 407.445 3.25542 4.38958 0
M  V30 4149 H 404.539 0.463623 0.684823 0
M  V30 4150 H 407.085 1.47127 0.845674 0
M  V30 4151 H 405.857 3.21471 2.23096 0
M  V30 4152 H 405.48 1.99667 3.43829 0
M  V30 4153 N 406.477 -1.02803 1.19454 0
M  V30 4154 C 407.888 -1.57667 0.999899 0
M  V30 4155 C 408.239 -1.91041 -0.446956 0
M  V30 4156 O 407.364 -1.70978 -1.32648 0
M  V30 4157 C 407.959 -2.86477 1.80877 0
M  V30 4158 C 406.518 -3.37911 1.65811 0
M  V30 4159 C 405.665 -2.11343 1.79526 0
M  V30 4160 H 408.616 -0.853214 1.33813 0
M  V30 4161 H 408.637 -3.57408 1.30536 0
M  V30 4162 H 408.149 -2.62155 2.86175 0
M  V30 4163 H 406.25 -3.67218 0.63102 0
M  V30 4164 H 406.363 -4.10885 2.46395 0
M  V30 4165 H 404.727 -2.23254 1.22596 0
M  V30 4166 H 405.51 -1.89461 2.86285 0
M  V30 4167 N 407.956 -0.998596 -1.21925 0
M  V30 4168 C 409.202 -0.678667 -1.91107 0
M  V30 4169 C 409.535 0.78791 -1.77498 0
M  V30 4170 O 408.81 1.57043 -1.1475 0
M  V30 4171 C 409.093 -1.09245 -3.43129 0
M  V30 4172 C 408.946 -2.61801 -3.6576 0
M  V30 4173 C 410.265 -0.649984 -4.35274 0
M  V30 4174 H 407.384 -0.248025 -0.694012 0
M  V30 4175 H 410.026 -1.24314 -1.43688 0
M  V30 4176 H 408.176 -0.612171 -3.83647 0
M  V30 4177 H 409.848 -3.17543 -3.34611 0
M  V30 4178 H 408.091 -3.03609 -3.09845 0
M  V30 4179 H 408.762 -2.85804 -4.7225 0
M  V30 4180 H 411.238 -1.0626 -4.02303 0
M  V30 4181 H 410.114 -0.967743 -5.40302 0
M  V30 4182 H 410.375 0.449139 -4.39813 0
M  V30 4183 N 409.434 1.37368 -0.772513 0
M  V30 4184 C 410.674 2.01512 -0.342361 0
M  V30 4185 C 411.038 1.59997 1.06136 0
M  V30 4186 O 412.239 2.16609 1.59167 0
M  V30 4187 C 410.51 3.54134 -0.482048 0
M  V30 4188 S 412.069 4.38585 -0.137272 0
M  V30 4189 H 408.887 0.698699 -0.131686 0
M  V30 4190 H 411.489 1.67552 -1.0073 0
M  V30 4191 H 410.193 3.81837 -1.50428 0
M  V30 4192 H 409.724 3.92894 0.199413 0
M  V30 4193 H 411.739 4.84594 1.06692 0
M  V30 4194 N 410.912 0.523116 1.48665 0
M  V30 4195 C 411.875 -0.232592 2.28017 0
M  V30 4196 C 412.875 -0.874021 1.34972 0
M  V30 4197 O 414.065 -0.735132 1.57929 0
M  V30 4198 C 411.197 -1.33586 3.13636 0
M  V30 4199 H 412.39 0.464008 2.96289 0
M  V30 4200 H 409.943 0.278816 1.53793 0
M  V30 4201 H 410.678 -2.06593 2.4998 0
M  V30 4202 H 410.463 -0.881125 3.82071 0
M  V30 4203 H 411.953 -1.86759 3.73511 0
M  V30 4204 N 412.39 -1.55475 0.257931 0
M  V30 4205 C 413.801 -1.8511 -0.243135 0
M  V30 4206 C 414.152 -1.17986 -1.5676 0
M  V30 4207 O 413.277 -0.462102 -2.11409 0
M  V30 4208 C 413.872 -3.35826 -0.447929 0
M  V30 4209 C 412.431 -3.65647 -0.893245 0
M  V30 4210 C 411.578 -2.7729 0.0232965 0
M  V30 4211 H 414.529 -1.51261 0.480199 0
M  V30 4212 H 414.55 -3.58002 -1.28898 0
M  V30 4213 H 414.062 -3.84652 0.516196 0
M  V30 4214 H 412.163 -3.22308 -1.86945 0
M  V30 4215 H 412.276 -4.73312 -0.742469 0
M  V30 4216 H 410.64 -2.49942 -0.490021 0
M  V30 4217 H 411.423 -3.28926 0.982994 0
M  V30 4218 N 413.868 0.0150385 -1.57593 0
M  V30 4219 C 414.778 1.02791 -2.10882 0
M  V30 4220 C 415.794 1.38702 -1.0506 0
M  V30 4221 O 416.97 1.47739 -1.36877 0
M  V30 4222 C 414.035 2.30568 -2.58919 0
M  V30 4223 C 413.096 2.01108 -3.79281 0
M  V30 4224 C 412.329 3.22794 -4.25018 0
M  V30 4225 O 412.552 4.33959 -3.70183 0
M  V30 4226 O 411.486 3.07672 -5.17322 0
M  V30 4227 H 415.312 0.604973 -2.97613 0
M  V30 4228 H 412.897 0.23292 -1.47573 0
M  V30 4229 H 414.779 3.05662 -2.90084 0
M  V30 4230 H 413.454 2.72129 -1.75293 0
M  V30 4231 H 412.361 1.23537 -3.53114 0
M  V30 4232 H 413.694 1.64394 -4.63935 0
M  V30 4233 N 415.346 1.54954 0.287554 0
M  V30 4234 C 416.571 1.79209 1.04397 0
M  V30 4235 C 416.996 0.556431 1.79682 0
M  V30 4236 O 416.354 -0.493518 1.74454 0
M  V30 4237 C 416.402 3.00739 1.98969 0
M  V30 4238 O 415.506 2.74805 3.075 0
M  V30 4239 H 414.847 0.592755 0.299227 0
M  V30 4240 H 417.377 2.02068 0.320886 0
M  V30 4241 H 417.387 3.29077 2.4119 0
M  V30 4242 H 416.062 3.90329 1.43582 0
M  V30 4243 H 414.639 2.57523 2.69697 0
M  V30 4244 N 416.824 -0.551391 1.4764 0
M  V30 4245 C 417.757 -1.6738 1.5511 0
M  V30 4246 C 418.735 -1.5753 0.402856 0
M  V30 4247 O 419.919 -1.78307 0.611475 0
M  V30 4248 C 417.046 -3.05661 1.45908 0
M  V30 4249 C 416.092 -3.33938 2.65307 0
M  V30 4250 S 416.925 -3.22553 4.27457 0
M  V30 4251 C 418.081 -4.63317 4.20818 0
M  V30 4252 H 418.314 -1.6079 2.50068 0
M  V30 4253 H 415.847 -0.732674 1.35909 0
M  V30 4254 H 417.805 -3.8542 1.41286 0
M  V30 4255 H 416.466 -3.09711 0.523248 0
M  V30 4256 H 415.659 -4.34761 2.54948 0
M  V30 4257 H 415.261 -2.61809 2.67081 0
M  V30 4258 H 417.553 -5.54391 3.89431 0
M  V30 4259 H 418.496 -4.78732 5.21748 0
M  V30 4260 H 418.904 -4.41636 3.51593 0
M  V30 4261 N 418.302 -1.35869 -0.798587 0
M  V30 4262 C 419.55 -1.29332 -1.55298 0
M  V30 4263 C 419.871 0.129729 -1.94568 0
M  V30 4264 O 419.141 1.06796 -1.6423 0
M  V30 4265 H 417.721 -0.475737 -0.57592 0
M  V30 4266 H 420.383 -1.70062 -0.952093 0
M  V30 4267 H 419.479 -1.91458 -2.46476 0
M  V30 4268 N 419.78 1.02168 -1.19998 0
M  V30 4269 C 421.005 1.79833 -1.03319 0
M  V30 4270 C 421.43 1.83504 0.413281 0
M  V30 4271 O 420.788 1.26635 1.29743 0
M  V30 4272 C 420.836 3.22396 -1.61533 0
M  V30 4273 O 419.94 4.03555 -0.849519 0
M  V30 4274 H 419.281 0.554872 -0.364709 0
M  V30 4275 H 421.811 1.28542 -1.59179 0
M  V30 4276 H 421.821 3.73124 -1.65054 0
M  V30 4277 H 420.496 3.19039 -2.66809 0
M  V30 4278 H 419.073 3.62169 -0.888129 0
M  V30 4279 N 421.258 1.00505 1.21394 0
M  V30 4280 C 422.168 0.574806 2.27449 0
M  V30 4281 C 423.184 -0.382206 1.6975 0
M  V30 4282 O 424.36 -0.246027 1.99892 0
M  V30 4283 C 421.425 -0.0917414 3.46579 0
M  V30 4284 C 420.486 0.909758 4.1955 0
M  V30 4285 C 419.719 0.274924 5.32991 0
M  V30 4286 O 419.942 -0.928254 5.62796 0
M  V30 4287 O 418.876 0.985877 5.93771 0
M  V30 4288 H 422.702 1.45744 2.66444 0
M  V30 4289 H 420.287 0.773923 1.27792 0
M  V30 4290 H 422.169 -0.464551 4.18832 0
M  V30 4291 H 420.844 -0.948755 3.09484 0
M  V30 4292 H 419.751 1.33372 3.49518 0
M  V30 4293 H 421.084 1.73636 4.60555 0
M  V30 4294 N 422.737 -1.36956 0.779787 0
M  V30 4295 C 424.014 -1.93697 0.272156 0
M  V30 4296 C 424.394 -1.71267 -1.23413 0
M  V30 4297 O 423.742 -1.06607 -2.02107 0
M  V30 4298 C 423.952 -3.42812 0.654291 0
M  V30 4299 C 425.3 -4.19921 0.628602 0
M  V30 4300 O 426.324 -3.51209 0.594172 0
M  V30 4301 O 425.183 -5.42465 0.662864 0
M  V30 4302 H 422.277 -0.824447 0.0649286 0
M  V30 4303 H 424.823 -1.46196 0.861682 0
M  V30 4304 H 423.595 -3.52754 1.69353 0
M  V30 4305 H 423.218 -3.97582 0.0381369 0
M  V30 4306 N 424.215 -0.530993 -1.48385 0
M  V30 4307 C 425.148 0.278511 -2.26494 0
M  V30 4308 C 426.126 0.943905 -1.32398 0
M  V30 4309 O 427.31 0.968098 -1.61741 0
M  V30 4310 C 424.437 1.39453 -3.08659 0
M  V30 4311 C 423.483 0.840434 -4.18137 0
M  V30 4312 S 424.316 -0.292496 -5.34701 0
M  V30 4313 C 425.472 0.825973 -6.20426 0
M  V30 4314 H 425.705 -0.384365 -2.94805 0
M  V30 4315 H 423.238 -0.316799 -1.51115 0
M  V30 4316 H 425.196 2.03382 -3.56575 0
M  V30 4317 H 423.857 2.02913 -2.3976 0
M  V30 4318 H 423.05 1.67769 -4.75257 0
M  V30 4319 H 422.652 0.277819 -3.72967 0
M  V30 4320 H 424.944 1.72438 -6.55188 0
M  V30 4321 H 425.887 0.292728 -7.07495 0
M  V30 4322 H 426.295 1.10683 -5.53543 0
M  V30 4323 N 425.693 1.55336 -0.266172 0
M  V30 4324 C 426.623 2.25146 0.618981 0
M  V30 4325 C 427.604 1.23845 1.16604 0
M  V30 4326 O 428.789 1.52544 1.20183 0
M  V30 4327 C 425.919 2.96572 1.80728 0
M  V30 4328 C 424.873 4.04726 1.39215 0
M  V30 4329 C 424.199 4.63678 2.66283 0
M  V30 4330 C 425.499 5.19407 0.548942 0
M  V30 4331 H 427.193 2.99377 0.0368116 0
M  V30 4332 H 424.739 1.43991 0.0162651 0
M  V30 4333 H 426.692 3.44116 2.43232 0
M  V30 4334 H 425.416 2.19861 2.41514 0
M  V30 4335 H 424.075 3.57979 0.790351 0
M  V30 4336 H 423.723 3.83646 3.25308 0
M  V30 4337 H 423.423 5.367 2.39222 0
M  V30 4338 H 424.947 5.13967 3.29651 0
M  V30 4339 H 426.361 5.63059 1.07876 0
M  V30 4340 H 424.758 5.98936 0.373593 0
M  V30 4341 H 425.828 4.8295 -0.434394 0
M  V30 4342 N 427.171 -0.0066808 1.57599 0
M  V30 4343 C 428.418 -0.69292 1.90276 0
M  V30 4344 C 428.746 -1.74148 0.866192 0
M  V30 4345 O 428.001 -1.95268 -0.129933 0
M  V30 4346 C 428.3 -1.37939 3.29708 0
M  V30 4347 C 427.966 -0.464679 4.48499 0
M  V30 4348 C 426.628 -0.212809 4.80729 0
M  V30 4349 C 428.98 0.16551 5.20937 0
M  V30 4350 C 426.308 0.677653 5.82773 0
M  V30 4351 C 428.66 1.04381 6.23929 0
M  V30 4352 C 427.324 1.30492 6.54621 0
M  V30 4353 H 426.594 -0.253558 0.696268 0
M  V30 4354 H 429.241 0.0474123 1.91441 0
M  V30 4355 H 427.546 -2.1936 3.24636 0
M  V30 4356 H 429.243 -1.9163 3.52249 0
M  V30 4357 H 425.833 -0.671153 4.23313 0
M  V30 4358 H 430.017 -0.0160756 4.96297 0
M  V30 4359 H 425.273 0.88803 6.04917 0
M  V30 4360 H 429.447 1.53851 6.79193 0
M  V30 4361 H 427.074 1.99662 7.33512 0
M  V30 4362 N 428.649 -1.55105 -0.279332 0
M  V30 4363 C 429.582 -1.82467 -1.37044 0
M  V30 4364 C 430.56 -0.677261 -1.47824 0
M  V30 4365 O 431.744 -0.919578 -1.64548 0
M  V30 4366 C 428.871 -1.98066 -2.7475 0
M  V30 4367 C 427.917 -3.20594 -2.81286 0
M  V30 4368 S 428.75 -4.78116 -2.41175 0
M  V30 4369 C 429.906 -4.9668 -3.80867 0
M  V30 4370 H 430.139 -2.74728 -1.1363 0
M  V30 4371 H 427.672 -1.46794 -0.478625 0
M  V30 4372 H 429.63 -2.07739 -3.54055 0
M  V30 4373 H 428.291 -1.06704 -2.9542 0
M  V30 4374 H 427.484 -3.28376 -3.82341 0
M  V30 4375 H 427.086 -3.09479 -2.09996 0
M  V30 4376 H 429.378 -4.82033 -4.76078 0
M  V30 4377 H 430.321 -5.98741 -3.78041 0
M  V30 4378 H 430.729 -4.24698 -3.71876 0
M  V30 4379 N 430.127 0.543554 -1.4793 0
M  V30 4380 C 431.057 1.65888 -1.64327 0
M  V30 4381 C 432.038 1.62818 -0.492383 0
M  V30 4382 O 433.223 1.80226 -0.723338 0
M  V30 4383 C 430.353 3.04506 -1.67013 0
M  V30 4384 C 429.307 3.2243 -2.81466 0
M  V30 4385 C 428.633 4.61972 -2.69233 0
M  V30 4386 C 429.933 3.06496 -4.22915 0
M  V30 4387 H 431.627 1.52421 -2.57698 0
M  V30 4388 H 429.173 0.731849 -1.24016 0
M  V30 4389 H 431.126 3.82391 -1.77074 0
M  V30 4390 H 429.85 3.18964 -0.70212 0
M  V30 4391 H 428.509 2.46957 -2.70938 0
M  V30 4392 H 428.157 4.73247 -1.7043 0
M  V30 4393 H 427.857 4.74911 -3.46025 0
M  V30 4394 H 429.381 5.41974 -2.81242 0
M  V30 4395 H 430.795 3.74186 -4.34348 0
M  V30 4396 H 429.192 3.30938 -5.006 0
M  V30 4397 H 430.262 2.03077 -4.40327 0
M  V30 4398 N 431.605 1.3629 0.791371 0
M  V30 4399 C 432.835 1.33368 1.57786 0
M  V30 4400 C 433.243 -0.0875188 1.88997 0
M  V30 4401 O 432.586 -1.05427 1.50435 0
M  V30 4402 C 432.648 2.08802 2.92646 0
M  V30 4403 C 432.312 3.57903 2.84174 0
M  V30 4404 C 433.309 4.52191 2.56553 0
M  V30 4405 C 430.994 4.00762 3.02812 0
M  V30 4406 C 432.988 5.87315 2.47669 0
M  V30 4407 C 430.675 5.35977 2.93551 0
M  V30 4408 C 431.673 6.29066 2.66017 0
M  V30 4409 O 431.361 7.61798 2.56746 0
M  V30 4410 H 431.093 0.459166 0.496128 0
M  V30 4411 H 433.647 1.79952 0.990269 0
M  V30 4412 H 431.877 1.56878 3.53449 0
M  V30 4413 H 433.566 1.98762 3.53904 0
M  V30 4414 H 434.332 4.20393 2.41858 0
M  V30 4415 H 430.211 3.2868 3.2325 0
M  V30 4416 H 433.755 6.59943 2.26099 0
M  V30 4417 H 429.652 5.67384 3.07808 0
M  V30 4418 H 430.42 7.71898 2.72242 0
M  V30 4419 N 433.083 -1.0153 1.20538 0
M  V30 4420 C 434.311 -1.78746 1.04199 0
M  V30 4421 C 434.726 -1.84323 -0.408733 0
M  V30 4422 O 434.083 -1.29714 -1.28377 0
M  V30 4423 C 434.134 -3.23152 1.62035 0
M  V30 4424 O 433.855 -3.17918 3.0143 0
M  V30 4425 C 435.356 -4.16911 1.50666 0
M  V30 4426 H 432.576 -0.56208 0.366479 0
M  V30 4427 H 435.12 -1.27794 1.59653 0
M  V30 4428 H 433.275 -3.71248 1.10697 0
M  V30 4429 H 433.689 -4.08567 3.28897 0
M  V30 4430 H 435.163 -5.16072 1.95892 0
M  V30 4431 H 435.64 -4.36791 0.459363 0
M  V30 4432 H 436.246 -3.74698 2.01201 0
M  V30 4433 N 434.561 -1.01147 -1.20859 0
M  V30 4434 C 435.786 -0.716698 -1.94623 0
M  V30 4435 C 436.211 0.715415 -1.73964 0
M  V30 4436 O 435.569 1.49157 -1.03062 0
M  V30 4437 C 435.617 -1.0513 -3.44935 0
M  V30 4438 O 434.721 -0.160131 -4.12089 0
M  V30 4439 H 434.062 -0.266404 -0.608214 0
M  V30 4440 H 436.592 -1.35346 -1.53436 0
M  V30 4441 H 436.602 -1.00086 -3.95533 0
M  V30 4442 H 435.277 -2.09475 -3.59295 0
M  V30 4443 H 433.854 -0.267657 -3.71938 0
M  V30 4444 N 436.039 1.36541 -0.78704 0
M  V30 4445 C 437.287 1.98911 -0.357633 0
M  V30 4446 C 437.608 1.62778 1.07371 0
M  V30 4447 O 436.878 0.900612 1.73971 0
M  V30 4448 H 435.458 0.735734 -0.129246 0
M  V30 4449 H 438.12 1.66776 -1.00855 0
M  V30 4450 H 437.216 3.08874 -0.447549 0
M  V30 4451 N 437.518 0.538854 1.48102 0
M  V30 4452 C 438.743 0.0102694 2.07397 0
M  V30 4453 C 439.168 -1.26562 1.39153 0
M  V30 4454 O 438.526 -1.75357 0.460387 0
M  V30 4455 C 438.574 -0.187602 3.60112 0
M  V30 4456 O 437.678 -1.25432 3.92862 0
M  V30 4457 H 437.019 0.0430975 0.6626 0
M  V30 4458 H 439.549 0.749301 1.90385 0
M  V30 4459 H 439.559 -0.407517 4.0596 0
M  V30 4460 H 438.234 0.744386 4.09184 0
M  V30 4461 H 436.811 -1.01636 3.58782 0
M  V30 4462 N 438.996 -1.55193 0.274407 0
M  V30 4463 C 440.224 -2.03987 -0.345943 0
M  V30 4464 C 440.639 -1.15279 -1.4952 0
M  V30 4465 O 439.996 -0.172759 -1.8168 0
M  V30 4466 C 440.047 -3.51898 -0.827631 0
M  V30 4467 O 439.768 -4.37231 0.275855 0
M  V30 4468 C 441.269 -4.16577 -1.51587 0
M  V30 4469 H 438.489 -0.666335 -0.0789892 0
M  V30 4470 H 441.033 -2.00423 0.406294 0
M  V30 4471 H 439.188 -3.55909 -1.52996 0
M  V30 4472 H 439.602 -5.24415 -0.0943638 0
M  V30 4473 H 441.076 -5.21678 -1.80433 0
M  V30 4474 H 441.553 -3.64707 -2.44716 0
M  V30 4475 H 442.159 -4.16568 -0.857409 0
M  V30 4476 N 440.474 -0.00167713 -1.576 0
M  V30 4477 C 441.722 0.681471 -1.90264 0
M  V30 4478 C 442.043 1.7422 -0.875924 0
M  V30 4479 O 441.313 1.95709 0.0864412 0
M  V30 4480 H 439.893 0.254696 -0.702239 0
M  V30 4481 H 442.555 -0.0429996 -1.94853 0
M  V30 4482 H 441.651 1.15166 -2.90075 0
M  V30 4483 N 441.952 1.55251 0.271103 0
M  V30 4484 C 442.885 1.83191 1.36075 0
M  V30 4485 C 443.863 0.685091 1.47463 0
M  V30 4486 O 445.047 0.928292 1.64058 0
M  V30 4487 C 442.174 1.99521 2.73696 0
M  V30 4488 C 441.22 3.22081 2.79582 0
M  V30 4489 S 442.053 4.79388 2.38636 0
M  V30 4490 C 443.209 4.98693 3.78228 0
M  V30 4491 H 443.442 2.75327 1.12171 0
M  V30 4492 H 440.975 1.47046 0.470833 0
M  V30 4493 H 442.933 2.09613 3.52948 0
M  V30 4494 H 441.594 1.0827 2.9485 0
M  V30 4495 H 440.787 3.304 3.80594 0
M  V30 4496 H 440.389 3.10589 2.08352 0
M  V30 4497 H 442.681 4.84551 4.73515 0
M  V30 4498 H 443.624 6.00738 3.7486 0
M  V30 4499 H 444.032 4.26665 3.69618 0
M  V30 4500 N 443.43 -0.535701 1.48216 0
M  V30 4501 C 444.841 -1.11769 1.49548 0
M  V30 4502 C 445.192 -1.94442 0.26207 0
M  V30 4503 O 444.317 -2.06987 -0.631287 0
M  V30 4504 C 444.912 -2.03367 2.70975 0
M  V30 4505 C 443.471 -2.56795 2.75196 0
M  V30 4506 C 442.618 -1.33631 2.42977 0
M  V30 4507 H 445.569 -0.321232 1.55415 0
M  V30 4508 H 445.59 -2.87569 2.49167 0
M  V30 4509 H 445.102 -1.43169 3.60727 0
M  V30 4510 H 443.203 -3.20731 1.89638 0
M  V30 4511 H 443.316 -2.9632 3.76472 0
M  V30 4512 H 441.68 -1.6502 1.94012 0
M  V30 4513 H 442.463 -0.75194 3.34964 0
M  V30 4514 N 444.908 -1.36708 -0.784132 0
M  V30 4515 C 445.855 -1.31466 -1.89698 0
M  V30 4516 C 446.825 -0.18239 -1.65096 0
M  V30 4517 O 448.01 -0.369762 -1.87183 0
M  V30 4518 C 445.15 -1.1151 -3.26588 0
M  V30 4519 C 444.263 -2.33859 -3.63227 0
M  V30 4520 C 443.398 -2.06873 -4.89262 0
M  V30 4521 C 442.437 -3.25154 -5.18595 0
M  V30 4522 N 441.574 -2.978 -6.35814 0
M  V30 4523 H 446.414 -2.26619 -1.93515 0
M  V30 4524 H 443.951 -1.12625 -0.946256 0
M  V30 4525 H 445.909 -0.979653 -4.05535 0
M  V30 4526 H 444.539 -0.200103 -3.22179 0
M  V30 4527 H 443.591 -2.58188 -2.79362 0
M  V30 4528 H 444.903 -3.22109 -3.8085 0
M  V30 4529 H 444.057 -1.90289 -5.76086 0
M  V30 4530 H 442.796 -1.15942 -4.73718 0
M  V30 4531 H 441.801 -3.42292 -4.30251 0
M  V30 4532 H 443.026 -4.1692 -5.36055 0
M  V30 4533 H 440.972 -2.09485 -6.21653 0
M  V30 4534 H 440.889 -3.7959 -6.53794 0
M  V30 4535 H 442.157 -2.84805 -7.25607 0
M  V30 4536 N 446.386 1.0089 -1.21074 0
M  V30 4537 C 447.634 1.74262 -1.02358 0
M  V30 4538 C 447.955 1.89869 0.444393 0
M  V30 4539 O 447.225 1.44677 1.32081 0
M  V30 4540 H 445.805 0.645615 -0.375754 0
M  V30 4541 H 448.467 1.21596 -1.52317 0
M  V30 4542 H 447.563 2.74328 -1.4883 0
M  V30 4543 N 447.864 1.01787 1.20321 0
M  V30 4544 C 449.113 0.703249 1.89043 0
M  V30 4545 C 449.426 -0.770445 1.79787 0
M  V30 4546 O 450.632 -1.19767 2.43656 0
M  V30 4547 C 449.088 1.20749 3.3904 0
M  V30 4548 C 448.696 2.70817 3.56878 0
M  V30 4549 C 450.44 0.968352 4.13308 0
M  V30 4550 C 448.347 3.14716 5.00708 0
M  V30 4551 H 447.277 0.259354 0.707991 0
M  V30 4552 H 449.928 1.23072 1.36108 0
M  V30 4553 H 448.31 0.607989 3.91305 0
M  V30 4554 H 449.484 3.36327 3.14993 0
M  V30 4555 H 447.799 2.92888 2.95983 0
M  V30 4556 H 450.396 1.27173 5.19356 0
M  V30 4557 H 450.739 -0.095149 4.16191 0
M  V30 4558 H 451.272 1.53129 3.67146 0
M  V30 4559 H 448.011 4.20347 5.02979 0
M  V30 4560 H 447.531 2.53927 5.43398 0
M  V30 4561 H 449.21 3.07426 5.69296 0
M  V30 4562 N 449.342 -1.36122 0.79427 0
M  V30 4563 C 450.588 -1.99406 0.369452 0
M  V30 4564 C 450.921 -1.62886 -1.05743 0
M  V30 4565 O 450.196 -0.886053 -1.73145 0
M  V30 4566 C 450.479 -3.56046 0.538833 0
M  V30 4567 C 450.332 -4.02404 2.00976 0
M  V30 4568 C 451.651 -4.40079 -0.0431359 0
M  V30 4569 H 448.77 -0.724397 0.135712 0
M  V30 4570 H 451.412 -1.61461 1.00151 0
M  V30 4571 H 449.562 -3.885 0.000771004 0
M  V30 4572 H 451.234 -3.80415 2.60926 0
M  V30 4573 H 449.477 -3.53765 2.51063 0
M  V30 4574 H 450.148 -5.11344 2.07922 0
M  V30 4575 H 452.624 -4.14013 0.416228 0
M  V30 4576 H 451.5 -5.48799 0.105374 0
M  V30 4577 H 451.761 -4.27264 -1.13571 0
M  V30 4578 N 450.82 -0.546701 -1.47814 0
M  V30 4579 C 451.77 0.227042 -2.26867 0
M  V30 4580 C 452.754 0.894844 -1.33721 0
M  V30 4581 O 453.946 0.794887 -1.58147 0
M  V30 4582 C 451.075 1.26299 -3.19223 0
M  V30 4583 C 450.161 0.59913 -4.19847 0
M  V30 4584 N 450.552 -0.324777 -5.04756 0
M  V30 4585 C 448.85 0.854331 -4.37741 0
M  V30 4586 C 449.551 -0.709386 -5.77358 0
M  V30 4587 N 448.527 -0.0666153 -5.43559 0
M  V30 4588 H 452.329 -0.483476 -2.89896 0
M  V30 4589 H 449.843 -0.365893 -1.58224 0
M  V30 4590 H 451.84 1.83116 -3.74532 0
M  V30 4591 H 450.5 1.97471 -2.57751 0
M  V30 4592 H 451.511 -0.698351 -5.1317 0
M  V30 4593 H 448.188 1.55536 -3.87447 0
M  V30 4594 H 449.578 -1.46796 -6.55668 0
M  V30 4595 N 452.299 1.55045 -0.282633 0
M  V30 4596 C 453.527 2.04168 0.33512 0
M  V30 4597 C 453.942 1.16071 1.48906 0
M  V30 4598 O 453.299 0.182391 1.81586 0
M  V30 4599 C 453.35 3.52332 0.808957 0
M  V30 4600 O 453.071 4.37078 -0.299038 0
M  V30 4601 C 454.572 4.17375 1.49375 0
M  V30 4602 H 451.792 0.666744 0.0754543 0
M  V30 4603 H 454.336 2.00205 -0.416918 0
M  V30 4604 H 452.491 3.56715 1.51106 0
M  V30 4605 H 452.905 5.24458 0.0665514 0
M  V30 4606 H 454.379 5.22627 1.77664 0
M  V30 4607 H 454.856 3.65999 2.42778 0
M  V30 4608 H 455.462 4.17016 0.835305 0
M  V30 4609 N 453.777 0.010035 1.57597 0
M  V30 4610 C 454.709 -1.00649 2.05918 0
M  V30 4611 C 455.722 -1.30077 0.978964 0
M  V30 4612 O 456.911 -1.26878 1.25556 0
M  V30 4613 C 454.011 -2.33876 2.45265 0
M  V30 4614 C 453.184 -2.23242 3.7614 0
M  V30 4615 C 452.243 -3.39242 4.02245 0
M  V30 4616 O 451.269 -3.1698 4.72771 0
M  V30 4617 N 452.471 -4.6242 3.50924 0
M  V30 4618 H 455.236 -0.594333 2.93748 0
M  V30 4619 H 452.797 -0.17714 1.60928 0
M  V30 4620 H 454.789 -3.1027 2.59836 0
M  V30 4621 H 453.359 -2.66799 1.62902 0
M  V30 4622 H 452.579 -1.31696 3.71551 0
M  V30 4623 H 453.867 -2.13321 4.61922 0
M  V30 4624 H 453.265 -4.83404 2.93832 0
M  V30 4625 H 451.822 -5.36046 3.70807 0
M  V30 4626 N 455.255 -1.55392 -0.262866 0
M  V30 4627 C 456.218 -1.88181 -1.30846 0
M  V30 4628 C 457.218 -0.757079 -1.41862 0
M  V30 4629 O 458.408 -1.02519 -1.40838 0
M  V30 4630 C 455.54 -2.09609 -2.68844 0
M  V30 4631 H 456.733 -2.81659 -1.02997 0
M  V30 4632 H 454.286 -1.48039 -0.501414 0
M  V30 4633 H 455.021 -1.18547 -3.01856 0
M  V30 4634 H 454.806 -2.91508 -2.62231 0
M  V30 4635 H 456.296 -2.36215 -3.44372 0
M  V30 4636 N 456.733 0.527833 -1.48498 0
M  V30 4637 C 457.981 1.28101 -1.56316 0
M  V30 4638 C 458.302 1.9352 -0.239781 0
M  V30 4639 O 457.572 1.81433 0.738849 0
M  V30 4640 H 456.152 0.475793 -0.575873 0
M  V30 4641 H 458.814 0.614052 -1.84974 0
M  V30 4642 H 457.91 2.05916 -2.34532 0
M  V30 4643 N 458.211 1.37122 0.776871 0
M  V30 4644 C 459.441 1.35034 1.56363 0
M  V30 4645 C 459.849 -0.0674681 1.8908 0
M  V30 4646 O 459.192 -1.03826 1.51545 0
M  V30 4647 C 459.254 2.11894 2.90415 0
M  V30 4648 C 458.918 3.60897 2.80362 0
M  V30 4649 C 459.915 4.54887 2.51742 0
M  V30 4650 C 457.6 4.03951 2.98545 0
M  V30 4651 C 459.594 5.89909 2.41426 0
M  V30 4652 C 457.281 5.3906 2.87849 0
M  V30 4653 C 458.279 6.31852 2.5933 0
M  V30 4654 O 457.967 7.64479 2.48651 0
M  V30 4655 H 457.699 0.464402 0.49123 0
M  V30 4656 H 460.253 1.80992 0.971127 0
M  V30 4657 H 458.483 1.60618 3.51765 0
M  V30 4658 H 460.172 2.02505 3.51776 0
M  V30 4659 H 460.938 4.22934 2.37385 0
M  V30 4660 H 456.817 3.3209 3.19746 0
M  V30 4661 H 460.361 6.62304 2.19086 0
M  V30 4662 H 456.258 5.70617 3.01773 0
M  V30 4663 H 457.026 7.74742 2.64039 0
M  V30 4664 N 459.689 -1.00246 1.21608 0
M  V30 4665 C 460.619 -2.10921 1.00172 0
M  V30 4666 C 461.6 -1.69938 -0.0741587 0
M  V30 4667 O 462.785 -1.94009 0.0861753 0
M  V30 4668 C 459.915 -3.42618 0.568355 0
M  V30 4669 C 458.869 -3.97407 1.58909 0
M  V30 4670 C 458.195 -5.25038 1.01187 0
M  V30 4671 C 459.495 -4.2918 2.97661 0
M  V30 4672 H 461.189 -2.29112 1.92739 0
M  V30 4673 H 458.735 -1.10101 0.928102 0
M  V30 4674 H 460.688 -4.19444 0.405555 0
M  V30 4675 H 459.412 -3.24227 -0.392961 0
M  V30 4676 H 458.071 -3.22703 1.73949 0
M  V30 4677 H 457.719 -5.02982 0.0421965 0
M  V30 4678 H 457.419 -5.62661 1.6937 0
M  V30 4679 H 458.943 -6.04507 0.860448 0
M  V30 4680 H 460.357 -4.96839 2.86049 0
M  V30 4681 H 458.754 -4.77952 3.6288 0
M  V30 4682 H 459.824 -3.3735 3.48315 0
M  V30 4683 N 461.167 -1.02423 -1.1978 0
M  V30 4684 C 462.097 -0.62157 -2.25075 0
M  V30 4685 C 463.078 0.367148 -1.6609 0
M  V30 4686 O 464.263 0.250892 -1.92573 0
M  V30 4687 C 461.393 0.0331826 -3.47284 0
M  V30 4688 C 460.347 -0.877323 -4.18912 0
M  V30 4689 C 459.673 -0.0879296 -5.34628 0
M  V30 4690 C 460.973 -2.18892 -4.74219 0
M  V30 4691 H 462.667 -1.50179 -2.59011 0
M  V30 4692 H 460.213 -0.723547 -1.24502 0
M  V30 4693 H 462.166 0.326488 -4.20133 0
M  V30 4694 H 460.89 0.948164 -3.12534 0
M  V30 4695 H 459.549 -1.15475 -3.47938 0
M  V30 4696 H 459.197 0.828941 -4.96123 0
M  V30 4697 H 458.897 -0.694359 -5.83483 0
M  V30 4698 H 460.421 0.198743 -6.10276 0
M  V30 4699 H 461.835 -1.95746 -5.38847 0
M  V30 4700 H 460.232 -2.74686 -5.33542 0
M  V30 4701 H 461.302 -2.84674 -3.92541 0
M  V30 4702 N 462.645 1.35699 -0.801477 0
M  V30 4703 C 463.875 2.02862 -0.3912 0
M  V30 4704 C 464.283 1.60552 1.00099 0
M  V30 4705 O 463.626 0.796215 1.65548 0
M  V30 4706 C 463.688 3.57386 -0.389299 0
M  V30 4707 C 463.352 4.22943 -1.73113 0
M  V30 4708 C 464.349 4.44984 -2.68859 0
M  V30 4709 C 462.034 4.60167 -2.01373 0
M  V30 4710 C 464.028 5.03345 -3.91053 0
M  V30 4711 C 461.715 5.18243 -3.23832 0
M  V30 4712 C 462.713 5.39773 -4.1849 0
M  V30 4713 O 462.401 5.96626 -5.38788 0
M  V30 4714 H 462.133 0.657341 -0.157732 0
M  V30 4715 H 464.687 1.74407 -1.08496 0
M  V30 4716 H 462.917 3.85011 0.361031 0
M  V30 4717 H 464.606 4.059 -0.0020365 0
M  V30 4718 H 465.372 4.1661 -2.48316 0
M  V30 4719 H 461.251 4.42726 -1.28508 0
M  V30 4720 H 464.795 5.20065 -4.64949 0
M  V30 4721 H 460.692 5.46044 -3.44248 0
M  V30 4722 H 461.46 6.15082 -5.40015 0
M  V30 4723 N 464.123 0.554532 1.47522 0
M  V30 4724 C 465.086 -0.184174 2.28459 0
M  V30 4725 C 466.086 -0.845195 1.36796 0
M  V30 4726 O 467.276 -0.701467 1.59452 0
M  V30 4727 C 464.408 -1.26903 3.16399 0
M  V30 4728 H 465.601 0.526751 2.95238 0
M  V30 4729 H 463.154 0.311375 1.53167 0
M  V30 4730 H 463.889 -2.01244 2.54306 0
M  V30 4731 H 463.674 -0.799883 3.83854 0
M  V30 4732 H 465.164 -1.78794 3.77389 0
M  V30 4733 N 465.601 -1.54893 0.290851 0
M  V30 4734 C 466.564 -2.21824 -0.576784 0
M  V30 4735 C 467.564 -1.20104 -1.06919 0
M  V30 4736 O 468.754 -1.44906 -0.966843 0
M  V30 4737 C 465.886 -2.89662 -1.79747 0
M  V30 4738 H 467.079 -2.99899 0.00784051 0
M  V30 4739 H 464.632 -1.56245 0.0415934 0
M  V30 4740 H 465.367 -2.15639 -2.42219 0
M  V30 4741 H 465.152 -3.64219 -1.45214 0
M  V30 4742 H 466.642 -3.4075 -2.4141 0
M  V30 4743 N 467.08 -0.0183926 -1.57589 0
M  V30 4744 C 468.01 0.965596 -2.12599 0
M  V30 4745 C 468.991 1.34641 -1.0395 0
M  V30 4746 O 470.176 1.42693 -1.31729 0
M  V30 4747 C 467.306 2.25149 -2.64434 0
M  V30 4748 C 466.26 2.01175 -3.77773 0
M  V30 4749 C 465.586 3.35937 -4.15994 0
M  V30 4750 C 466.886 1.35953 -5.04296 0
M  V30 4751 H 468.58 0.507504 -2.95067 0
M  V30 4752 H 466.126 0.242671 -1.41941 0
M  V30 4753 H 468.079 2.94357 -3.01549 0
M  V30 4754 H 466.803 2.73105 -1.79112 0
M  V30 4755 H 465.462 1.34388 -3.4108 0
M  V30 4756 H 465.11 3.81631 -3.27669 0
M  V30 4757 H 464.81 3.20705 -4.92364 0
M  V30 4758 H 466.334 4.0643 -4.55683 0
M  V30 4759 H 467.748 1.95144 -5.39065 0
M  V30 4760 H 466.145 1.31152 -5.85593 0
M  V30 4761 H 467.215 0.331071 -4.83768 0
M  V30 4762 N 468.558 1.5553 0.254621 0
M  V30 4763 C 469.786 1.81046 1.00149 0
M  V30 4764 C 470.201 0.593047 1.79244 0
M  V30 4765 O 469.558 -0.438196 1.77161 0
M  V30 4766 C 469.609 3.04684 1.94551 0
M  V30 4767 O 469.33 4.21725 1.18658 0
M  V30 4768 C 470.831 3.42943 2.80901 0
M  V30 4769 H 468.051 0.602653 0.295044 0
M  V30 4770 H 470.595 2.02576 0.279842 0
M  V30 4771 H 468.75 2.85226 2.62154 0
M  V30 4772 H 469.164 4.91746 1.82445 0
M  V30 4773 H 470.638 4.32576 3.42902 0
M  V30 4774 H 471.115 2.63176 3.51617 0
M  V30 4775 H 471.721 3.64724 2.18762 0
M  V30 4776 N 470.036 -0.519951 1.48776 0
M  V30 4777 C 470.986 -1.61995 1.60442 0
M  V30 4778 C 471.97 -1.54155 0.460991 0
M  V30 4779 O 473.162 -1.62006 0.712965 0
M  V30 4780 C 470.291 -3.00683 1.65664 0
M  V30 4781 C 469.377 -3.1359 2.8552 0
M  V30 4782 N 469.768 -2.96441 4.09825 0
M  V30 4783 C 468.066 -3.44662 2.83062 0
M  V30 4784 C 468.767 -3.1303 4.90293 0
M  V30 4785 N 467.743 -3.41058 4.23297 0
M  V30 4786 H 471.545 -1.47362 2.54287 0
M  V30 4787 H 469.059 -0.725649 1.45286 0
M  V30 4788 H 471.056 -3.79712 1.72117 0
M  V30 4789 H 469.716 -3.16401 0.729425 0
M  V30 4790 H 470.727 -2.72999 4.40104 0
M  V30 4791 H 467.404 -3.66675 1.9964 0
M  V30 4792 H 468.794 -3.04424 5.98979 0
M  V30 4793 N 471.514 -1.37532 -0.769588 0
M  V30 4794 C 472.461 -1.3347 -1.88293 0
M  V30 4795 C 473.431 -0.199891 -1.64893 0
M  V30 4796 O 474.616 -0.389594 -1.8678 0
M  V30 4797 C 471.756 -1.14968 -3.25387 0
M  V30 4798 C 470.869 -2.37698 -3.60727 0
M  V30 4799 C 470.004 -2.12051 -4.8704 0
M  V30 4800 C 469.043 -3.30636 -5.15117 0
M  V30 4801 N 468.18 -3.04527 -6.3262 0
M  V30 4802 H 473.02 -2.28658 -1.911 0
M  V30 4803 H 470.557 -1.13622 -0.934257 0
M  V30 4804 H 472.515 -1.02261 -4.04473 0
M  V30 4805 H 471.145 -0.234263 -3.21949 0
M  V30 4806 H 470.197 -2.61137 -2.76608 0
M  V30 4807 H 471.509 -3.26131 -3.77413 0
M  V30 4808 H 470.663 -1.96388 -5.74035 0
M  V30 4809 H 469.402 -1.20959 -4.72462 0
M  V30 4810 H 468.407 -3.46836 -4.26597 0
M  V30 4811 H 469.632 -4.22582 -5.31603 0
M  V30 4812 H 467.578 -2.16067 -6.19396 0
M  V30 4813 H 467.495 -3.86503 -6.49732 0
M  V30 4814 H 468.763 -2.92485 -7.22546 0
M  V30 4815 N 472.992 0.995999 -1.22138 0
M  V30 4816 C 473.922 2.10387 -1.01289 0
M  V30 4817 C 474.903 1.69975 0.0651454 0
M  V30 4818 O 476.088 1.9396 -0.0964628 0
M  V30 4819 C 473.218 3.42312 -0.586517 0
M  V30 4820 C 472.172 3.96558 -1.61014 0
M  V30 4821 C 471.498 5.24494 -1.0397 0
M  V30 4822 C 472.798 4.27595 -2.99933 0
M  V30 4823 H 474.492 2.28086 -1.93951 0
M  V30 4824 H 472.038 1.09607 -0.933928 0
M  V30 4825 H 473.991 4.19223 -0.427793 0
M  V30 4826 H 472.715 3.24431 0.375761 0
M  V30 4827 H 471.374 3.21776 -1.75658 0
M  V30 4828 H 471.022 5.02953 -0.0688703 0
M  V30 4829 H 470.722 5.61755 -1.72352 0
M  V30 4830 H 472.246 6.04042 -0.892494 0
M  V30 4831 H 473.66 4.95315 -2.8868 0
M  V30 4832 H 472.057 4.76021 -3.6541 0
M  V30 4833 H 473.127 3.35498 -3.50099 0
M  V30 4834 N 474.47 1.03057 1.19235 0
M  V30 4835 C 475.716 0.729098 1.89241 0
M  V30 4836 C 476.049 -0.740573 1.79525 0
M  V30 4837 O 475.324 -1.53946 1.18874 0
M  V30 4838 C 475.607 1.18304 3.40112 0
M  V30 4839 C 475.46 2.71406 3.5869 0
M  V30 4840 C 476.779 0.765161 4.33397 0
M  V30 4841 H 473.898 0.266338 0.687192 0
M  V30 4842 H 476.54 1.28079 1.40341 0
M  V30 4843 H 474.69 0.713672 3.81889 0
M  V30 4844 H 476.362 3.26303 3.26074 0
M  V30 4845 H 474.605 3.11717 3.01687 0
M  V30 4846 H 475.276 2.98225 4.64506 0
M  V30 4847 H 477.752 1.16889 3.99345 0
M  V30 4848 H 476.628 1.11065 5.37546 0
M  V30 4849 H 476.889 -0.332372 4.40849 0
M  V30 4850 N 475.948 -1.35272 0.808662 0
M  V30 4851 C 477.195 -1.98709 0.390003 0
M  V30 4852 C 477.523 -1.64148 -1.04335 0
M  V30 4853 O 476.778 -0.897797 -1.73891 0
M  V30 4854 C 477.077 -3.53556 0.522798 0
M  V30 4855 C 476.743 -4.0799 1.91977 0
M  V30 4856 C 475.405 -4.22568 2.30195 0
M  V30 4857 C 477.757 -4.37442 2.83361 0
M  V30 4858 C 475.085 -4.63918 3.59162 0
M  V30 4859 C 477.437 -4.80232 4.11776 0
M  V30 4860 C 476.101 -4.93016 4.49991 0
M  V30 4861 H 475.371 -0.727127 0.142712 0
M  V30 4862 H 478.018 -1.6145 1.02985 0
M  V30 4863 H 476.323 -3.91287 -0.200494 0
M  V30 4864 H 478.02 -4.00598 0.179608 0
M  V30 4865 H 474.61 -3.97096 1.61284 0
M  V30 4866 H 478.794 -4.25731 2.55083 0
M  V30 4867 H 474.05 -4.72005 3.88615 0
M  V30 4868 H 478.224 -5.01982 4.82687 0
M  V30 4869 H 475.851 -5.24814 5.49976 0
M  V30 4870 N 477.426 -0.562348 -1.47226 0
M  V30 4871 C 478.703 0.0256985 -1.95583 0
M  V30 4872 C 479.083 1.48032 -1.50498 0
M  V30 4873 O 478.431 2.15973 -0.746181 0
M  V30 4874 C 478.641 -0.125129 -3.48776 0
M  V30 4875 C 479.989 0.0175728 -4.24596 0
M  V30 4876 O 481.013 -0.0529341 -3.56161 0
M  V30 4877 O 479.872 0.170145 -5.46235 0
M  V30 4878 H 476.966 0.0612565 -0.824728 0
M  V30 4879 H 479.512 -0.629233 -1.57603 0
M  V30 4880 H 478.284 -1.13715 -3.74412 0
M  V30 4881 H 477.907 0.567178 -3.93534 0
M  V30 4882 N 478.904 1.54736 -0.299062 0
M  V30 4883 C 479.854 2.20155 0.592932 0
M  V30 4884 C 480.838 1.1739 1.10038 0
M  V30 4885 O 482.03 1.43116 1.04147 0
M  V30 4886 C 479.159 2.94437 1.76527 0
M  V30 4887 C 478.245 4.04516 1.27388 0
M  V30 4888 N 478.636 5.03319 0.500339 0
M  V30 4889 C 476.934 4.18022 1.55478 0
M  V30 4890 C 477.635 5.81209 0.238909 0
M  V30 4891 N 476.611 5.37408 0.818163 0
M  V30 4892 H 480.413 2.93899 -0.00563596 0
M  V30 4893 H 477.927 1.62068 -0.103732 0
M  V30 4894 H 479.924 3.3977 2.41582 0
M  V30 4895 H 478.584 2.22209 2.36756 0
M  V30 4896 H 479.595 5.17696 0.145419 0
M  V30 4897 H 476.272 3.56998 2.16469 0
M  V30 4898 H 477.662 6.70812 -0.382223 0
M  V30 4899 N 480.382 0.0267497 1.57577 0
M  V30 4900 C 481.314 -0.984594 2.06974 0
M  V30 4901 C 482.327 -1.29032 0.992705 0
M  V30 4902 O 483.516 -1.25539 1.26895 0
M  V30 4903 C 480.616 -2.31262 2.47732 0
M  V30 4904 C 479.789 -2.1924 3.78487 0
M  V30 4905 C 478.848 -3.34956 4.05821 0
M  V30 4906 O 477.874 -3.11948 4.76106 0
M  V30 4907 N 479.076 -4.58672 3.55809 0
M  V30 4908 H 481.841 -0.563143 2.94362 0
M  V30 4909 H 479.402 -0.160061 1.61107 0
M  V30 4910 H 481.394 -3.07496 2.63112 0
M  V30 4911 H 479.964 -2.65056 1.65723 0
M  V30 4912 H 479.184 -1.27747 3.72927 0
M  V30 4913 H 480.472 -2.08409 4.64158 0
M  V30 4914 H 479.87 -4.8026 2.98942 0
M  V30 4915 H 478.427 -5.32083 3.76472 0
M  V30 4916 N 481.861 -1.55662 -0.24637 0
M  V30 4917 C 483.272 -1.67953 -0.81539 0
M  V30 4918 C 483.623 -0.624302 -1.86002 0
M  V30 4919 O 482.748 0.229328 -2.15181 0
M  V30 4920 C 483.343 -3.04484 -1.48576 0
M  V30 4921 C 481.902 -3.18713 -2.00248 0
M  V30 4922 C 481.049 -2.6383 -0.853766 0
M  V30 4923 H 484 -1.58685 -0.0221692 0
M  V30 4924 H 484.021 -2.98959 -2.3538 0
M  V30 4925 H 483.533 -3.81264 -0.725222 0
M  V30 4926 H 481.634 -2.46757 -2.79181 0
M  V30 4927 H 481.747 -4.25628 -2.1995 0
M  V30 4928 H 480.111 -2.21667 -1.25442 0
M  V30 4929 H 480.894 -3.43135 -0.106302 0
M  V30 4930 N 483.339 0.512053 -1.4905 0
M  V30 4931 C 484.587 1.26436 -1.57665 0
M  V30 4932 C 484.908 1.93255 -0.260293 0
M  V30 4933 O 484.178 1.82206 0.719564 0
M  V30 4934 H 482.758 0.469658 -0.580888 0
M  V30 4935 H 485.42 0.594398 -1.85615 0
M  V30 4936 H 484.516 2.03417 -2.36702 0
M  V30 4937 N 484.817 1.37938 0.762283 0
M  V30 4938 C 486.094 1.24196 1.51112 0
M  V30 4939 C 486.474 -0.160409 2.1049 0
M  V30 4940 O 485.822 -1.16904 1.96331 0
M  V30 4941 C 486.032 2.34537 2.58445 0
M  V30 4942 C 487.38 2.7254 3.25588 0
M  V30 4943 O 488.404 2.33783 2.68745 0
M  V30 4944 O 487.263 3.39343 4.28379 0
M  V30 4945 H 484.357 0.485175 0.669727 0
M  V30 4946 H 486.903 1.49743 0.798438 0
M  V30 4947 H 485.675 3.28406 2.12756 0
M  V30 4948 H 485.298 2.10505 3.37303 0
M  V30 4949 N 486.295 -0.989507 1.22664 0
M  V30 4950 C 487.544 -1.72375 1.04737 0
M  V30 4951 C 487.857 -1.91096 -0.417316 0
M  V30 4952 O 489.063 -2.6188 -0.716334 0
M  V30 4953 C 487.519 -3.10161 1.82561 0
M  V30 4954 C 487.127 -2.99358 3.333 0
M  V30 4955 C 488.871 -3.87607 1.73093 0
M  V30 4956 C 486.778 -4.32319 4.03552 0
M  V30 4957 H 485.708 -0.646326 0.388302 0
M  V30 4958 H 488.359 -1.10437 1.46546 0
M  V30 4959 H 486.741 -3.728 1.33552 0
M  V30 4960 H 487.915 -2.45863 3.89728 0
M  V30 4961 H 486.23 -2.35392 3.43481 0
M  V30 4962 H 488.827 -4.86025 2.22899 0
M  V30 4963 H 489.17 -4.10509 0.691976 0
M  V30 4964 H 489.703 -3.31652 2.19663 0
M  V30 4965 H 486.442 -4.14616 5.07714 0
M  V30 4966 H 485.962 -4.85714 3.51911 0
M  V30 4967 H 487.641 -5.01051 4.09337 0
M  V30 4968 N 487.773 -1.03688 -1.18687 0
M  V30 4969 C 489.02 -0.73803 -1.88572 0
M  V30 4970 C 489.348 0.733973 -1.8012 0
M  V30 4971 O 488.603 1.55098 -1.19344 0
M  V30 4972 C 488.902 -1.14477 -3.3857 0
M  V30 4973 C 488.568 -2.61641 -3.67226 0
M  V30 4974 C 487.23 -3.01846 -3.74757 0
M  V30 4975 C 489.582 -3.56812 -3.79914 0
M  V30 4976 C 486.91 -4.36118 -3.92451 0
M  V30 4977 C 489.262 -4.90799 -3.99123 0
M  V30 4978 C 487.926 -5.3068 -4.04888 0
M  V30 4979 H 487.196 -0.270064 -0.690034 0
M  V30 4980 H 489.843 -1.3012 -1.40503 0
M  V30 4981 H 488.148 -0.500337 -3.88592 0
M  V30 4982 H 489.845 -0.89095 -3.90977 0
M  V30 4983 H 486.435 -2.29498 -3.61979 0
M  V30 4984 H 490.619 -3.26899 -3.73431 0
M  V30 4985 H 485.875 -4.66542 -3.95157 0
M  V30 4986 H 490.049 -5.64451 -4.07882 0
M  V30 4987 H 487.676 -6.34733 -4.18351 0
M  V30 4988 N 489.251 1.34841 -0.815825 0
M  V30 4989 C 490.499 1.98107 -0.399744 0
M  V30 4990 C 490.82 1.65019 1.03894 0
M  V30 4991 O 490.09 0.937311 1.72021 0
M  V30 4992 H 488.67 0.732827 -0.144823 0
M  V30 4993 H 491.332 1.64599 -1.0437 0
M  V30 4994 H 490.428 3.07856 -0.512965 0
M  V30 4995 N 490.729 0.570148 1.46925 0
M  V30 4996 C 491.969 0.0534743 2.0433 0
M  V30 4997 C 492.333 -1.27729 1.4335 0
M  V30 4998 O 493.534 -1.88244 1.91879 0
M  V30 4999 C 491.805 -0.0244296 3.57392 0
M  V30 5000 S 493.364 -0.485351 4.36108 0
M  V30 5001 H 490.182 0.0313908 0.710307 0
M  V30 5002 H 492.784 0.759808 1.80131 0
M  V30 5003 H 491.488 0.948261 3.99295 0
M  V30 5004 H 491.019 -0.753922 3.86108 0
M  V30 5005 H 493.034 -1.74258 4.64595 0
M  V30 5006 N 492.207 -1.54576 0.307264 0
M  V30 5007 C 493.453 -2.0056 -0.300612 0
M  V30 5008 C 493.786 -1.1953 -1.53057 0
M  V30 5009 O 493.061 -0.27337 -1.92569 0
M  V30 5010 C 493.344 -3.54167 -0.650987 0
M  V30 5011 C 493.197 -4.45933 0.588539 0
M  V30 5012 C 494.516 -4.14645 -1.47506 0
M  V30 5013 H 491.635 -0.729075 -0.107788 0
M  V30 5014 H 494.277 -1.85286 0.420606 0
M  V30 5015 H 492.427 -3.67313 -1.26544 0
M  V30 5016 H 494.099 -4.44683 1.22697 0
M  V30 5017 H 492.342 -4.16274 1.22058 0
M  V30 5018 H 493.013 -5.51189 0.299153 0
M  V30 5019 H 495.489 -4.04973 -0.955821 0
M  V30 5020 H 494.365 -5.22269 -1.68899 0
M  V30 5021 H 494.626 -3.66921 -2.4662 0
M  V30 5022 N 493.685 -0.035106 -1.57561 0
M  V30 5023 C 494.648 0.929819 -2.09492 0
M  V30 5024 C 495.648 1.25026 -1.01119 0
M  V30 5025 O 496.838 1.18961 -1.27255 0
M  V30 5026 C 493.97 2.24457 -2.56577 0
M  V30 5027 H 495.163 0.479935 -2.96035 0
M  V30 5028 H 492.716 0.213033 -1.54841 0
M  V30 5029 H 493.451 2.74061 -1.73382 0
M  V30 5030 H 493.236 2.02508 -3.35757 0
M  V30 5031 H 494.726 2.93607 -2.96959 0
M  V30 5032 N 495.163 1.55791 0.238111 0
M  V30 5033 C 496.44 1.68798 0.98826 0
M  V30 5034 C 496.82 0.577562 2.03045 0
M  V30 5035 O 496.168 -0.41778 2.24648 0
M  V30 5036 C 496.378 3.09454 1.61367 0
M  V30 5037 C 497.726 3.68335 2.11221 0
M  V30 5038 O 498.75 3.1231 1.71292 0
M  V30 5039 O 497.609 4.6657 2.84561 0
M  V30 5040 H 494.703 0.686881 0.460568 0
M  V30 5041 H 497.249 1.68118 0.231202 0
M  V30 5042 H 496.021 3.81726 0.860295 0
M  V30 5043 H 495.644 3.14182 2.4367 0
M  V30 5044 N 496.642 -0.504142 1.49319 0
M  V30 5045 C 497.891 -1.25507 1.57895 0
M  V30 5046 C 498.204 -1.93735 0.269433 0
M  V30 5047 O 499.41 -2.70492 0.233706 0
M  V30 5048 C 497.866 -2.27869 2.78574 0
M  V30 5049 C 497.474 -1.65594 4.16272 0
M  V30 5050 C 499.218 -3.0381 2.96479 0
M  V30 5051 C 497.125 -2.66048 5.28178 0
M  V30 5052 H 496.055 -0.47212 0.587894 0
M  V30 5053 H 498.706 -0.52931 1.757 0
M  V30 5054 H 497.088 -3.03594 2.54257 0
M  V30 5055 H 498.262 -0.958826 4.50714 0
M  V30 5056 H 496.577 -1.02055 4.037 0
M  V30 5057 H 499.174 -3.78925 3.77253 0
M  V30 5058 H 499.517 -3.61235 2.06918 0
M  V30 5059 H 500.05 -2.352 3.20821 0
M  V30 5060 H 496.789 -2.13408 6.19788 0
M  V30 5061 H 496.309 -3.34009 4.98195 0
M  V30 5062 H 497.988 -3.28536 5.57381 0
M  V30 5063 N 498.12 -1.38341 -0.754957 0
M  V30 5064 C 499.368 -1.34208 -1.51105 0
M  V30 5065 C 499.689 0.0677634 -1.94882 0
M  V30 5066 O 498.959 1.01517 -1.67544 0
M  V30 5067 H 497.539 -0.493819 -0.560493 0
M  V30 5068 H 500.201 -1.73005 -0.897507 0
M  V30 5069 H 499.297 -1.99203 -2.4026 0
M  V30 5070 N 499.598 0.982988 -1.23187 0
M  V30 5071 C 500.844 1.7273 -1.07405 0
M  V30 5072 C 501.199 1.885 0.385447 0
M  V30 5073 O 500.492 1.4243 1.28157 0
M  V30 5074 C 500.686 3.12736 -1.73006 0
M  V30 5075 C 500.515 3.10621 -3.25184 0
M  V30 5076 C 499.285 3.15957 -3.94334 0
M  V30 5077 C 501.483 2.93992 -4.21987 0
M  V30 5078 N 499.465 3.03701 -5.33516 0
M  V30 5079 C 500.836 2.8987 -5.48065 0
M  V30 5080 C 502.891 2.78457 -4.12754 0
M  V30 5081 C 501.594 2.71804 -6.65969 0
M  V30 5082 C 503.62 2.61754 -5.30319 0
M  V30 5083 C 502.982 2.58328 -6.55321 0
M  V30 5084 H 499.081 0.641279 -0.447533 0
M  V30 5085 H 501.665 1.16664 -1.55877 0
M  V30 5086 H 499.836 3.67026 -1.2707 0
M  V30 5087 H 501.568 3.75786 -1.50224 0
M  V30 5088 H 498.323 3.24034 -3.45397 0
M  V30 5089 H 498.747 3.00855 -6.06478 0
M  V30 5090 H 503.389 2.79898 -3.16886 0
M  V30 5091 H 501.107 2.69108 -7.61975 0
M  V30 5092 H 504.693 2.50702 -5.25014 0
M  V30 5093 H 503.573 2.45564 -7.4476 0
M  V30 5094 N 501.076 1.04316 1.18135 0
M  V30 5095 C 502.325 0.74319 1.87509 0
M  V30 5096 C 502.638 -0.732136 1.81381 0
M  V30 5097 O 503.844 -1.14572 2.46141 0
M  V30 5098 C 502.3 1.27913 3.36402 0
M  V30 5099 C 501.908 2.78326 3.51053 0
M  V30 5100 C 503.652 1.0558 4.11161 0
M  V30 5101 C 501.559 3.25266 4.93919 0
M  V30 5102 H 500.489 0.274313 0.702331 0
M  V30 5103 H 503.14 1.25931 1.33467 0
M  V30 5104 H 501.522 0.690853 3.89927 0
M  V30 5105 H 502.696 3.42933 3.07788 0
M  V30 5106 H 501.011 2.991 2.89704 0
M  V30 5107 H 503.608 1.38161 5.16542 0
M  V30 5108 H 503.951 -0.00684729 4.16299 0
M  V30 5109 H 504.484 1.60882 3.63816 0
M  V30 5110 H 501.223 4.30922 4.9395 0
M  V30 5111 H 500.743 2.65396 5.3789 0
M  V30 5112 H 502.422 3.19433 5.62647 0
M  V30 5113 N 502.554 -1.34406 0.822964 0
M  V30 5114 C 503.782 -2.02508 0.424039 0
M  V30 5115 C 504.197 -1.61975 -0.970022 0
M  V30 5116 O 503.554 -0.825228 -1.62777 0
M  V30 5117 C 503.605 -3.57789 0.516657 0
M  V30 5118 O 503.326 -3.96853 1.85577 0
M  V30 5119 C 504.827 -4.43157 0.112637 0
M  V30 5120 H 502.047 -0.649063 0.170173 0
M  V30 5121 H 504.591 -1.7168 1.11113 0
M  V30 5122 H 502.746 -3.87207 -0.122353 0
M  V30 5123 H 503.16 -4.91538 1.83005 0
M  V30 5124 H 504.634 -5.51527 0.228526 0
M  V30 5125 H 505.111 -4.28939 -0.943837 0
M  V30 5126 H 505.717 -4.19067 0.725449 0
M  V30 5127 N 504.032 -0.577932 -1.46621 0
M  V30 5128 C 505.28 -0.061566 -2.02006 0
M  V30 5129 C 505.601 1.30117 -1.4524 0
M  V30 5130 O 504.871 1.85313 -0.63529 0
M  V30 5131 H 503.451 -0.0197692 -0.746738 0
M  V30 5132 H 506.113 -0.752631 -1.79782 0
M  V30 5133 H 505.209 0.0110238 -3.12098 0
M  V30 5134 N 505.51 1.54411 -0.315457 0
M  V30 5135 C 506.46 2.20772 0.569549 0
M  V30 5136 C 507.444 1.18551 1.08787 0
M  V30 5137 O 508.636 1.44213 1.02624 0
M  V30 5138 C 505.765 2.96293 1.73394 0
M  V30 5139 C 504.851 4.05844 1.2309 0
M  V30 5140 N 505.242 5.03822 0.446927 0
M  V30 5141 C 503.54 4.19648 1.51035 0
M  V30 5142 C 504.241 5.8143 0.17725 0
M  V30 5143 N 503.217 5.38245 0.761118 0
M  V30 5144 H 507.019 2.93877 -0.0368076 0
M  V30 5145 H 504.533 1.61949 -0.120915 0
M  V30 5146 H 506.53 3.42313 2.37965 0
M  V30 5147 H 505.19 2.24708 2.34386 0
M  V30 5148 H 506.201 5.17821 0.0905027 0
M  V30 5149 H 502.878 3.59274 2.1267 0
M  V30 5150 H 504.268 6.70369 -0.45335 0
M  V30 5151 N 506.988 0.0434614 1.5754 0
M  V30 5152 C 508.213 -0.645358 1.97104 0
M  V30 5153 C 508.638 -1.64037 0.920521 0
M  V30 5154 O 507.996 -1.80922 -0.11708 0
M  V30 5155 C 508.044 -1.31547 3.35749 0
M  V30 5156 O 507.148 -2.43103 3.33129 0
M  V30 5157 H 506.489 -0.168403 0.64229 0
M  V30 5158 H 509.019 0.109573 2.04306 0
M  V30 5159 H 509.029 -1.66895 3.72304 0
M  V30 5160 H 507.704 -0.586205 4.11748 0
M  V30 5161 H 506.281 -2.0976 3.0831 0
M  V30 5162 N 508.466 -1.55915 -0.229846 0
M  V30 5163 C 509.696 -1.82352 -0.971152 0
M  V30 5164 C 510.104 -0.619231 -1.7878 0
M  V30 5165 O 509.447 0.421597 -1.78797 0
M  V30 5166 C 509.509 -3.02399 -1.9441 0
M  V30 5167 C 509.173 -4.37739 -1.31277 0
M  V30 5168 C 510.17 -5.15074 -0.706757 0
M  V30 5169 C 507.855 -4.84454 -1.32702 0
M  V30 5170 C 509.849 -6.37281 -0.123413 0
M  V30 5171 C 507.536 -6.06605 -0.739831 0
M  V30 5172 C 508.534 -6.82858 -0.139071 0
M  V30 5173 O 508.222 -8.027 0.439007 0
M  V30 5174 H 507.954 -0.61035 -0.290601 0
M  V30 5175 H 510.508 -2.03839 -0.252746 0
M  V30 5176 H 508.738 -2.76709 -2.70128 0
M  V30 5177 H 510.427 -3.15779 -2.55026 0
M  V30 5178 H 511.193 -4.80093 -0.688131 0
M  V30 5179 H 507.072 -4.25081 -1.78402 0
M  V30 5180 H 510.616 -6.96741 0.346124 0
M  V30 5181 H 506.513 -6.4106 -0.755841 0
M  V30 5182 H 507.281 -8.17824 0.332521 0
M  V30 5183 N 509.944 0.496216 -1.49584 0
M  V30 5184 C 511.19 1.25189 -1.59548 0
M  V30 5185 C 511.523 1.9212 -0.283466 0
M  V30 5186 O 510.798 1.80947 0.713324 0
M  V30 5187 C 511.081 2.31516 -2.75812 0
M  V30 5188 C 510.934 1.69054 -4.16822 0
M  V30 5189 C 512.253 3.3304 -2.87702 0
M  V30 5190 H 509.372 0.45379 -0.580727 0
M  V30 5191 H 512.014 0.549327 -1.81886 0
M  V30 5192 H 510.164 2.91438 -2.56897 0
M  V30 5193 H 511.836 1.12923 -4.47265 0
M  V30 5194 H 510.079 0.994485 -4.22247 0
M  V30 5195 H 510.75 2.462 -4.94054 0
M  V30 5196 H 513.226 2.83114 -3.04936 0
M  V30 5197 H 512.102 4.04794 -3.7072 0
M  V30 5198 H 512.363 3.95655 -1.97255 0
M  V30 5199 N 511.423 1.38739 0.74761 0
M  V30 5200 C 512.669 1.35475 1.50912 0
M  V30 5201 C 513.002 -0.0533093 1.94127 0
M  V30 5202 O 512.277 -1.01572 1.65871 0
M  V30 5203 C 512.56 2.31582 2.75757 0
M  V30 5204 C 512.413 3.81274 2.38642 0
M  V30 5205 C 513.732 2.25722 3.77806 0
M  V30 5206 H 510.851 0.493427 0.547447 0
M  V30 5207 H 513.493 1.69634 0.855823 0
M  V30 5208 H 511.643 2.02582 3.31501 0
M  V30 5209 H 513.315 4.20972 1.88626 0
M  V30 5210 H 511.558 3.98664 1.71025 0
M  V30 5211 H 512.229 4.4399 3.27989 0
M  V30 5212 H 514.705 2.51336 3.31616 0
M  V30 5213 H 513.581 2.95069 4.62845 0
M  V30 5214 H 513.842 1.25803 4.23823 0
M  V30 5215 N 512.901 -0.976442 1.23707 0
M  V30 5216 C 514.131 -1.75087 1.09673 0
M  V30 5217 C 514.539 -1.85852 -0.354344 0
M  V30 5218 O 513.882 -1.33985 -1.25673 0
M  V30 5219 C 513.944 -3.19272 1.65245 0
M  V30 5220 C 513.608 -3.32004 3.14042 0
M  V30 5221 C 514.605 -3.18017 4.11292 0
M  V30 5222 C 512.29 -3.56525 3.53829 0
M  V30 5223 C 514.284 -3.28363 5.46312 0
M  V30 5224 C 511.971 -3.6651 4.88993 0
M  V30 5225 C 512.969 -3.52439 5.85043 0
M  V30 5226 O 512.657 -3.62063 7.1775 0
M  V30 5227 H 512.389 -0.556164 0.384262 0
M  V30 5228 H 514.943 -1.23518 1.64111 0
M  V30 5229 H 513.173 -3.72107 1.05231 0
M  V30 5230 H 514.862 -3.7849 1.46629 0
M  V30 5231 H 515.628 -2.98966 3.81896 0
M  V30 5232 H 511.507 -3.66547 2.79579 0
M  V30 5233 H 515.051 -3.17297 6.21263 0
M  V30 5234 H 510.948 -3.85072 5.18063 0
M  V30 5235 H 511.716 -3.78833 7.25553 0
M  V30 5236 N 514.379 -1.04941 -1.1758 0
M  V30 5237 C 515.627 -0.756492 -1.87408 0
M  V30 5238 C 515.948 0.718478 -1.81281 0
M  V30 5239 O 515.218 1.519 -1.23706 0
M  V30 5240 H 513.798 -0.276841 -0.693807 0
M  V30 5241 H 516.46 -1.32803 -1.42652 0
M  V30 5242 H 515.556 -1.06918 -2.93215 0
M  V30 5243 N 515.857 1.33968 -0.830081 0
M  V30 5244 C 517.268 1.80439 -0.479455 0
M  V30 5245 C 517.619 1.68756 1.00079 0
M  V30 5246 O 516.744 1.23171 1.77927 0
M  V30 5247 C 517.339 3.27611 -0.863505 0
M  V30 5248 C 515.898 3.72133 -0.565145 0
M  V30 5249 C 515.045 2.55549 -1.07657 0
M  V30 5250 H 517.996 1.21614 -1.0196 0
M  V30 5251 H 518.017 3.8012 -0.170083 0
M  V30 5252 H 517.529 3.36082 -1.94089 0
M  V30 5253 H 515.63 3.69196 0.502536 0
M  V30 5254 H 515.743 4.65963 -1.11422 0
M  V30 5255 H 514.107 2.49788 -0.497807 0
M  V30 5256 H 514.89 2.66786 -2.16055 0
M  V30 5257 N 517.335 0.585699 1.46312 0
M  V30 5258 C 518.265 -0.133556 2.33118 0
M  V30 5259 C 519.246 -0.880707 1.45525 0
M  V30 5260 O 520.431 -0.855579 1.74337 0
M  V30 5261 C 517.561 -1.14585 3.27853 0
M  V30 5262 C 516.515 -0.513341 4.2491 0
M  V30 5263 C 515.841 -1.63231 5.09175 0
M  V30 5264 C 517.141 0.551413 5.19381 0
M  V30 5265 H 518.835 0.59121 2.93505 0
M  V30 5266 H 516.381 0.285761 1.41136 0
M  V30 5267 H 518.334 -1.65741 3.87438 0
M  V30 5268 H 517.058 -1.90093 2.65579 0
M  V30 5269 H 515.717 -0.0228349 3.66593 0
M  V30 5270 H 515.365 -2.37713 4.43285 0
M  V30 5271 H 515.065 -1.21473 5.74907 0
M  V30 5272 H 516.589 -2.14658 5.71624 0
M  V30 5273 H 518.003 0.124804 5.73164 0
M  V30 5274 H 516.4 0.889486 5.93471 0
M  V30 5275 H 517.47 1.43655 4.63132 0
M  V30 5276 N 518.813 -1.54241 0.323641 0
M  V30 5277 C 520.053 -2.0248 -0.279502 0
M  V30 5278 C 520.417 -1.20672 -1.49339 0
M  V30 5279 O 521.618 -1.58715 -2.1694 0
M  V30 5280 C 519.889 -3.52238 -0.605266 0
M  V30 5281 S 521.448 -4.22411 -1.18805 0
M  V30 5282 H 518.266 -0.705957 -0.0845313 0
M  V30 5283 H 520.868 -1.90089 0.456781 0
M  V30 5284 H 519.572 -4.094 0.286339 0
M  V30 5285 H 519.103 -3.6871 -1.37174 0
M  V30 5286 H 521.118 -4.30075 -2.47487 0
M  V30 5287 N 520.291 -0.0518155 -1.57515 0
M  V30 5288 C 521.239 0.940195 -2.12751 0
M  V30 5289 C 522.233 1.3218 -1.05948 0
M  V30 5290 O 523.439 1.30138 -1.24355 0
M  V30 5291 H 519.814 0.321066 -0.680015 0
M  V30 5292 H 521.785 0.449217 -2.94999 0
M  V30 5293 C 520.534 2.2055 -2.68799 0
M  V30 5294 H 519.857 1.92066 -3.50643 0
M  V30 5295 H 521.297 2.88119 -3.11068 0
M  V30 5296 C 519.756 2.95061 -1.62605 0
M  V30 5297 O 520.286 3.88025 -1.03921 0
M  V30 5298 N 518.492 2.57804 -1.34111 0
M  V30 5299 H 518.039 1.82281 -1.8202 0
M  V30 5300 H 517.997 3.07964 -0.632872 0
M  V30 5301 N 521.769 1.56035 0.221574 0
M  V30 5302 C 523.017 1.78693 0.944102 0
M  V30 5303 C 523.338 0.620317 1.8487 0
M  V30 5304 O 522.608 -0.362784 1.92512 0
M  V30 5305 H 521.188 0.659082 0.351597 0
M  V30 5306 H 523.85 1.93497 0.233435 0
M  V30 5307 H 522.946 2.70837 1.55093 0
M  V30 5308 N 523.247 -0.488276 1.49845 0
M  V30 5309 C 524.21 -1.57069 1.66919 0
M  V30 5310 C 525.21 -1.51445 0.540479 0
M  V30 5311 O 526.4 -1.5437 0.807188 0
M  V30 5312 C 523.532 -2.96718 1.67844 0
M  V30 5313 H 524.725 -1.43254 2.63474 0
M  V30 5314 H 522.278 -0.713435 1.39068 0
M  V30 5315 H 523.013 -3.15996 0.7292 0
M  V30 5316 H 522.798 -3.02208 2.49826 0
M  V30 5317 H 524.288 -3.75335 1.83066 0
M  V30 5318 N 524.725 -1.39134 -0.740242 0
M  V30 5319 C 525.953 -1.39334 -1.5295 0
M  V30 5320 C 526.368 0.0135008 -1.88795 0
M  V30 5321 O 525.725 0.983524 -1.5373 0
M  V30 5322 C 525.776 -2.2614 -2.82034 0
M  V30 5323 O 525.497 -3.61345 -2.47712 0
M  V30 5324 C 526.998 -2.34666 -3.76094 0
M  V30 5325 H 524.218 -0.476103 -0.472828 0
M  V30 5326 H 526.762 -1.82883 -0.9151 0
M  V30 5327 H 524.917 -1.86018 -3.39818 0
M  V30 5328 H 525.331 -4.07194 -3.30595 0
M  V30 5329 H 526.805 -2.99663 -4.63579 0
M  V30 5330 H 527.282 -1.36426 -4.17474 0
M  V30 5331 H 527.888 -2.75236 -3.2423 0
M  V30 5332 N 526.204 0.969867 -1.24223 0
M  V30 5333 C 527.429 1.75289 -1.10853 0
M  V30 5334 C 527.854 1.85091 0.335079 0
M  V30 5335 O 527.212 1.32024 1.24255 0
M  V30 5336 C 527.26 3.15255 -1.75062 0
M  V30 5337 O 526.364 3.99589 -1.01992 0
M  V30 5338 H 525.705 0.538904 -0.387915 0
M  V30 5339 H 528.235 1.21675 -1.64488 0
M  V30 5340 H 528.245 3.65787 -1.80731 0
M  V30 5341 H 526.92 3.07436 -2.801 0
M  V30 5342 H 525.497 3.58077 -1.04094 0
M  V30 5343 N 527.682 1.05563 1.17022 0
M  V30 5344 C 528.928 0.769074 1.87652 0
M  V30 5345 C 529.261 -0.702326 1.81055 0
M  V30 5346 O 528.536 -1.5139 1.22112 0
M  V30 5347 C 528.819 1.25492 3.37526 0
M  V30 5348 C 528.672 2.78953 3.52853 0
M  V30 5349 C 529.991 0.856919 4.31677 0
M  V30 5350 H 527.11 0.280854 0.681388 0
M  V30 5351 H 529.752 1.31027 1.37593 0
M  V30 5352 H 527.902 0.794516 3.80289 0
M  V30 5353 H 529.574 3.33146 3.19079 0
M  V30 5354 H 527.817 3.18046 2.95007 0
M  V30 5355 H 528.488 3.08011 4.58076 0
M  V30 5356 H 530.964 1.25334 3.96775 0
M  V30 5357 H 529.84 1.22443 5.35069 0
M  V30 5358 H 530.101 -0.238787 4.41455 0
M  V30 5359 N 529.16 -1.33526 0.837174 0
M  V30 5360 C 530.09 -2.31764 0.284206 0
M  V30 5361 C 531.071 -1.58896 -0.607142 0
M  V30 5362 O 532.256 -1.86798 -0.531047 0
M  V30 5363 C 529.386 -3.43029 -0.542962 0
M  V30 5364 C 528.34 -4.27255 0.252451 0
M  V30 5365 C 527.666 -5.3012 -0.69836 0
M  V30 5366 C 528.966 -5.01229 1.46858 0
M  V30 5367 H 530.66 -2.78262 1.10502 0
M  V30 5368 H 528.206 -1.3378 0.532812 0
M  V30 5369 H 530.159 -4.1078 -0.940096 0
M  V30 5370 H 528.883 -2.95216 -1.39697 0
M  V30 5371 H 527.542 -3.61127 0.631124 0
M  V30 5372 H 527.19 -4.78564 -1.54872 0
M  V30 5373 H 526.89 -5.87353 -0.170274 0
M  V30 5374 H 528.414 -6.00737 -1.09305 0
M  V30 5375 H 529.828 -5.61756 1.14469 0
M  V30 5376 H 528.225 -5.68104 1.93333 0
M  V30 5377 H 529.295 -4.301 2.23924 0
M  V30 5378 N 530.638 -0.59345 -1.46 0
M  V30 5379 C 531.885 -0.0831523 -2.02329 0
M  V30 5380 C 532.213 1.28093 -1.46364 0
M  V30 5381 O 531.468 1.85526 -0.622793 0
M  V30 5382 C 531.767 0.021178 -3.57394 0
M  V30 5383 C 531.433 -1.27671 -4.32448 0
M  V30 5384 C 530.095 -1.63227 -4.5267 0
M  V30 5385 C 532.447 -2.13511 -4.7546 0
M  V30 5386 C 529.775 -2.84401 -5.1316 0
M  V30 5387 C 532.127 -3.33922 -5.37289 0
M  V30 5388 C 530.791 -3.69747 -5.55737 0
M  V30 5389 H 530.061 -0.0304276 -0.740375 0
M  V30 5390 H 532.708 -0.772239 -1.75239 0
M  V30 5391 H 531.013 0.793454 -3.83682 0
M  V30 5392 H 532.71 0.431942 -3.98667 0
M  V30 5393 H 529.3 -0.989937 -4.17011 0
M  V30 5394 H 533.484 -1.87344 -4.59582 0
M  V30 5395 H 528.74 -3.12282 -5.25633 0
M  V30 5396 H 532.914 -4.00698 -5.69574 0
M  V30 5397 H 530.541 -4.6373 -6.02377 0
M  V30 5398 N 532.116 1.54067 -0.331816 0
M  V30 5399 C 533.026 2.28322 0.539104 0
M  V30 5400 C 534.042 1.32985 1.1221 0
M  V30 5401 O 535.218 1.6601 1.1403 0
M  V30 5402 C 532.283 3.03277 1.68 0
M  V30 5403 C 531.344 4.14216 1.12798 0
M  V30 5404 C 530.577 4.85588 2.2145 0
M  V30 5405 O 530.8 4.56536 3.41952 0
M  V30 5406 O 529.734 5.72309 1.86404 0
M  V30 5407 H 533.56 3.03632 -0.0641692 0
M  V30 5408 H 531.145 1.49083 -0.0972365 0
M  V30 5409 H 533.027 3.50189 2.34405 0
M  V30 5410 H 531.702 2.30834 2.2693 0
M  V30 5411 H 530.609 3.71635 0.428782 0
M  V30 5412 H 531.942 4.88727 0.583698 0
M  V30 5413 N 533.594 0.0601682 1.57485 0
M  V30 5414 C 534.819 -0.624416 1.97777 0
M  V30 5415 C 535.244 -1.63051 0.937867 0
M  V30 5416 O 534.602 -1.81036 -0.0978845 0
M  V30 5417 C 534.65 -1.27979 3.37126 0
M  V30 5418 O 533.754 -2.39556 3.35688 0
M  V30 5419 H 533.095 -0.161581 0.64404 0
M  V30 5420 H 535.625 0.131237 2.04179 0
M  V30 5421 H 535.635 -1.62937 3.74053 0
M  V30 5422 H 534.31 -0.542501 4.12347 0
M  V30 5423 H 532.887 -2.06478 3.10517 0
M  V30 5424 N 535.072 -1.5615 -0.213296 0
M  V30 5425 C 536.3 -1.83638 -0.953139 0
M  V30 5426 C 536.715 -0.640362 -1.77609 0
M  V30 5427 O 536.072 0.391071 -1.78261 0
M  V30 5428 C 536.123 -3.09735 -1.86405 0
M  V30 5429 O 535.844 -4.24723 -1.07435 0
M  V30 5430 C 537.345 -3.5027 -2.71709 0
M  V30 5431 H 534.565 -0.610263 -0.278962 0
M  V30 5432 H 537.109 -2.03247 -0.226035 0
M  V30 5433 H 535.264 -2.92077 -2.545 0
M  V30 5434 H 535.678 -4.9641 -1.69343 0
M  V30 5435 H 537.152 -4.41515 -3.31313 0
M  V30 5436 H 537.629 -2.72406 -3.44516 0
M  V30 5437 H 538.235 -3.70396 -2.09015 0
M  V30 5438 N 536.55 0.480323 -1.50102 0
M  V30 5439 C 537.961 1.06142 -1.53593 0
M  V30 5440 C 538.312 1.93335 -0.334055 0
M  V30 5441 O 537.437 2.09188 0.55403 0
M  V30 5442 C 538.032 1.9317 -2.78336 0
M  V30 5443 C 536.591 2.46405 -2.84538 0
M  V30 5444 C 535.738 1.24521 -2.4777 0
M  V30 5445 H 538.689 0.26333 -1.565 0
M  V30 5446 H 538.71 2.78123 -2.59669 0
M  V30 5447 H 538.222 1.29683 -3.65792 0
M  V30 5448 H 536.323 3.13472 -2.01411 0
M  V30 5449 H 536.436 2.82143 -3.87211 0
M  V30 5450 H 534.8 1.57706 -2.00003 0
M  V30 5451 H 535.583 0.627102 -3.37524 0
M  V30 5452 N 538.028 1.39524 0.732853 0
M  V30 5453 C 539.274 1.37068 1.49467 0
M  V30 5454 C 539.607 -0.0327166 1.94172 0
M  V30 5455 O 538.882 -0.998071 1.66939 0
M  V30 5456 C 539.165 2.34494 2.73285 0
M  V30 5457 C 539.018 3.83784 2.34585 0
M  V30 5458 C 540.337 2.29717 3.75391 0
M  V30 5459 H 537.456 0.499206 0.542183 0
M  V30 5460 H 540.098 1.70532 0.837783 0
M  V30 5461 H 538.248 2.06087 3.29333 0
M  V30 5462 H 539.92 4.22949 1.84151 0
M  V30 5463 H 538.163 4.00455 1.66787 0
M  V30 5464 H 538.834 4.47444 3.23262 0
M  V30 5465 H 541.31 2.54839 3.28932 0
M  V30 5466 H 540.186 2.99962 4.59689 0
M  V30 5467 H 540.447 1.30291 4.22465 0
M  V30 5468 N 539.506 -0.963266 1.24736 0
M  V30 5469 C 540.736 -1.73913 1.11524 0
M  V30 5470 C 541.144 -1.86218 -0.334612 0
M  V30 5471 O 540.487 -1.3531 -1.24245 0
M  V30 5472 C 540.549 -3.17501 1.68622 0
M  V30 5473 C 540.213 -3.28655 3.17546 0
M  V30 5474 C 541.21 -3.13637 4.14642 0
M  V30 5475 C 538.895 -3.52753 3.5759 0
M  V30 5476 C 540.889 -3.2255 5.49764 0
M  V30 5477 C 538.576 -3.61303 4.92852 0
M  V30 5478 C 539.574 -3.46214 5.88748 0
M  V30 5479 O 539.262 -3.5443 7.2155 0
M  V30 5480 H 538.994 -0.552057 0.390139 0
M  V30 5481 H 541.548 -1.2177 1.65412 0
M  V30 5482 H 539.778 -3.70969 1.09172 0
M  V30 5483 H 541.467 -3.76914 1.50635 0
M  V30 5484 H 542.233 -2.94899 3.85045 0
M  V30 5485 H 538.112 -3.63561 2.83451 0
M  V30 5486 H 541.656 -3.1069 6.24594 0
M  V30 5487 H 537.553 -3.79556 5.22118 0
M  V30 5488 H 538.321 -3.71116 7.29531 0
M  V30 5489 N 540.985 -1.06182 -1.16461 0
M  V30 5490 C 542.396 -0.802426 -1.68576 0
M  V30 5491 C 542.747 0.67412 -1.84255 0
M  V30 5492 O 541.872 1.52303 -1.5373 0
M  V30 5493 C 542.467 -1.45002 -3.06202 0
M  V30 5494 C 541.026 -1.23843 -3.55443 0
M  V30 5495 C 540.173 -1.52724 -2.31454 0
M  V30 5496 H 543.124 -1.22545 -1.00839 0
M  V30 5497 H 543.145 -0.864731 -3.70544 0
M  V30 5498 H 542.657 -2.52466 -2.94759 0
M  V30 5499 H 540.758 -0.183487 -3.72148 0
M  V30 5500 H 540.871 -1.95036 -4.37604 0
M  V30 5501 H 539.235 -0.947726 -2.36411 0
M  V30 5502 H 540.018 -2.61343 -2.22609 0
M  V30 5503 N 542.463 1.3308 -0.844243 0
M  V30 5504 C 543.411 2.31028 -0.269954 0
M  V30 5505 C 544.405 1.58381 0.600997 0
M  V30 5506 O 545.611 1.73203 0.48996 0
M  V30 5507 H 541.986 0.748866 -0.0685782 0
M  V30 5508 H 543.957 2.76967 -1.11049 0
M  V30 5509 C 542.706 3.43549 0.535676 0
M  V30 5510 H 542.029 3.99604 -0.125202 0
M  V30 5511 H 543.469 4.14267 0.903262 0
M  V30 5512 C 541.928 2.8988 1.71672 0
M  V30 5513 O 542.458 2.86511 2.81557 0
M  V30 5514 N 540.664 2.46416 1.54037 0
M  V30 5515 H 540.211 2.49356 0.64649 0
M  V30 5516 H 540.169 2.1086 2.33207 0
M  V30 5517 N 543.941 0.601185 1.45683 0
M  V30 5518 C 544.904 -0.111398 2.28929 0
M  V30 5519 C 545.904 -0.801246 1.39416 0
M  V30 5520 O 547.094 -0.650383 1.61603 0
M  V30 5521 C 544.226 -1.16773 3.20276 0
M  V30 5522 H 545.419 0.620412 2.93413 0
M  V30 5523 H 542.972 0.359946 1.52099 0
M  V30 5524 H 543.707 -1.93051 2.60579 0
M  V30 5525 H 543.492 -0.677358 3.86205 0
M  V30 5526 H 544.982 -1.66698 3.82886 0
M  V30 5527 N 545.419 -1.53889 0.339982 0
M  V30 5528 C 546.667 -2.00458 -0.257112 0
M  V30 5529 C 546.988 -1.22953 -1.51353 0
M  V30 5530 O 546.258 -0.335734 -1.93002 0
M  V30 5531 H 544.838 -0.740544 -0.0979965 0
M  V30 5532 H 547.5 -1.89386 0.460317 0
M  V30 5533 H 546.596 -3.08035 -0.502057 0
M  V30 5534 N 546.897 -0.0685191 -1.57451 0
M  V30 5535 C 548.313 0.288101 -1.56978 0
M  V30 5536 C 548.513 1.70262 -1.07765 0
M  V30 5537 O 547.569 2.4135 -0.742054 0
M  V30 5538 C 548.882 0.100745 -3.00531 0
M  V30 5539 C 550.43 0.170531 -3.12535 0
M  V30 5540 C 550.905 0.0114944 -4.57999 0
M  V30 5541 N 552.396 0.0672065 -4.63151 0
M  V30 5542 C 553.131 -0.0314813 -5.73391 0
M  V30 5543 N 552.627 -0.183503 -6.92557 0
M  V30 5544 N 554.42 0.0253489 -5.62094 0
M  V30 5545 H 546.571 -0.993026 -1.87757 0
M  V30 5546 H 548.834 -0.386981 -0.865419 0
M  V30 5547 H 548.54 -0.875197 -3.40636 0
M  V30 5548 H 548.414 0.854457 -3.67395 0
M  V30 5549 H 550.801 1.13696 -2.72318 0
M  V30 5550 H 550.882 -0.614229 -2.48316 0
M  V30 5551 H 550.526 -0.951684 -4.98904 0
M  V30 5552 H 550.456 0.815617 -5.20245 0
M  V30 5553 H 552.947 0.183246 -3.77455 0
M  V30 5554 H 553.26 -0.251041 -7.72392 0
M  V30 5555 H 551.605 -0.218822 -6.94655 0
M  V30 5556 H 554.796 0.142794 -4.67882 0
M  V30 5557 H 554.969 -0.0550166 -6.47977 0
M  V30 5558 N 548.375 1.56261 0.205012 0
M  V30 5559 C 549.605 1.83874 0.942018 0
M  V30 5560 C 550.013 0.647595 1.77772 0
M  V30 5561 O 549.356 -0.393098 1.79445 0
M  V30 5562 C 549.418 3.05453 1.89575 0
M  V30 5563 C 549.082 4.39772 1.24296 0
M  V30 5564 C 550.079 5.16133 0.624724 0
M  V30 5565 C 547.764 4.86504 1.24978 0
M  V30 5566 C 549.758 6.37396 0.0220117 0
M  V30 5567 C 547.445 6.07705 0.643232 0
M  V30 5568 C 548.443 6.82993 0.0304164 0
M  V30 5569 O 548.131 8.019 -0.566654 0
M  V30 5570 H 547.863 0.614896 0.280854 0
M  V30 5571 H 550.417 2.04215 0.220285 0
M  V30 5572 H 548.647 2.80972 2.65691 0
M  V30 5573 H 550.336 3.19797 2.4997 0
M  V30 5574 H 551.102 4.81127 0.611666 0
M  V30 5575 H 546.981 4.27865 1.71616 0
M  V30 5576 H 550.525 6.96102 -0.456926 0
M  V30 5577 H 546.422 6.42181 0.653759 0
M  V30 5578 H 547.19 8.17192 -0.462588 0
M  V30 5579 N 549.853 -0.472356 1.50355 0
M  V30 5580 C 551.099 -1.22348 1.62488 0
M  V30 5581 C 551.454 -1.89711 0.320574 0
M  V30 5582 O 550.747 -1.79074 -0.68141 0
M  V30 5583 C 550.941 -2.29257 2.74182 0
M  V30 5584 C 550.77 -1.72383 4.15348 0
M  V30 5585 C 549.54 -1.52411 4.81766 0
M  V30 5586 C 551.738 -1.21949 4.99633 0
M  V30 5587 N 549.72 -0.907669 6.07153 0
M  V30 5588 C 551.091 -0.726191 6.15732 0
M  V30 5589 C 553.146 -1.10792 4.85417 0
M  V30 5590 C 551.849 -0.132322 7.19178 0
M  V30 5591 C 553.875 -0.52799 5.89038 0
M  V30 5592 C 553.237 -0.0450604 7.04386 0
M  V30 5593 H 549.336 -0.436631 0.648751 0
M  V30 5594 H 551.92 -0.525698 1.87469 0
M  V30 5595 H 550.091 -2.96464 2.50926 0
M  V30 5596 H 551.823 -2.9628 2.75681 0
M  V30 5597 H 548.578 -1.776 4.39039 0
M  V30 5598 H 549.002 -0.617897 6.74174 0
M  V30 5599 H 553.644 -1.46722 3.96525 0
M  V30 5600 H 551.362 0.239187 8.07746 0
M  V30 5601 H 554.948 -0.444046 5.80103 0
M  V30 5602 H 553.828 0.396659 7.83196 0
M  V30 5603 N 551.331 -1.39911 -0.725443 0
M  V30 5604 C 552.241 -1.41688 -1.8698 0
M  V30 5605 C 553.257 -0.310579 -1.71206 0
M  V30 5606 O 554.433 -0.55359 -1.93642 0
M  V30 5607 C 551.498 -1.26811 -3.22676 0
M  V30 5608 C 550.559 -2.47497 -3.50776 0
M  V30 5609 C 549.792 -2.3332 -4.79997 0
M  V30 5610 O 550.015 -1.34175 -5.54394 0
M  V30 5611 O 548.949 -3.22498 -5.08211 0
M  V30 5612 H 552.775 -2.38171 -1.88436 0
M  V30 5613 H 550.36 -1.21128 -0.874548 0
M  V30 5614 H 552.242 -1.20684 -4.03749 0
M  V30 5615 H 550.917 -0.334289 -3.21969 0
M  V30 5616 H 549.824 -2.59201 -2.69751 0
M  V30 5617 H 551.157 -3.39606 -3.5627 0
M  V30 5618 N 552.809 0.956637 -1.25245 0
M  V30 5619 C 554.037 1.73571 -1.12608 0
M  V30 5620 C 554.452 1.86063 0.320324 0
M  V30 5621 O 553.809 1.35691 1.22042 0
M  V30 5622 C 553.86 3.15053 -1.77268 0
M  V30 5623 O 553.581 3.03174 -3.16255 0
M  V30 5624 C 555.082 4.09248 -1.70386 0
M  V30 5625 H 552.302 0.543955 -0.392879 0
M  V30 5626 H 554.846 1.20031 -1.65568 0
M  V30 5627 H 553.001 3.65543 -1.28284 0
M  V30 5628 H 553.415 3.9241 -3.48015 0
M  V30 5629 H 554.889 5.06138 -2.20291 0
M  V30 5630 H 555.366 4.34102 -0.667239 0
M  V30 5631 H 555.972 3.64672 -2.18849 0
M  V30 5632 N 554.287 1.06798 1.15896 0
M  V30 5633 C 555.533 0.788934 1.86825 0
M  V30 5634 C 555.866 -0.683084 1.8179 0
M  V30 5635 O 555.141 -1.50086 1.23711 0
M  V30 5636 C 555.424 1.29065 3.36176 0
M  V30 5637 C 555.277 2.8268 3.49874 0
M  V30 5638 C 556.596 0.902655 4.30744 0
M  V30 5639 H 553.715 0.288066 0.678371 0
M  V30 5640 H 556.357 1.32479 1.36195 0
M  V30 5641 H 554.507 0.834806 3.79425 0
M  V30 5642 H 556.179 3.36511 3.15528 0
M  V30 5643 H 554.422 3.21157 2.91617 0
M  V30 5644 H 555.093 3.12852 4.54783 0
M  V30 5645 H 557.569 1.29535 3.95424 0
M  V30 5646 H 556.445 1.28111 5.3374 0
M  V30 5647 H 556.706 -0.191951 4.41683 0
M  V30 5648 N 555.766 -1.3263 0.851289 0
M  V30 5649 C 556.676 -2.32722 0.296268 0
M  V30 5650 C 557.692 -1.63901 -0.584162 0
M  V30 5651 O 558.868 -1.95465 -0.485334 0
M  V30 5652 C 555.933 -3.42942 -0.509103 0
M  V30 5653 C 554.994 -4.2746 0.397069 0
M  V30 5654 C 554.227 -5.32416 -0.36996 0
M  V30 5655 O 554.45 -5.47491 -1.6003 0
M  V30 5656 O 553.384 -6.01327 0.262493 0
M  V30 5657 H 557.21 -2.82078 1.12543 0
M  V30 5658 H 554.795 -1.36194 0.614135 0
M  V30 5659 H 556.677 -4.1017 -0.96634 0
M  V30 5660 H 555.352 -2.95781 -1.31512 0
M  V30 5661 H 554.259 -3.63053 0.902411 0
M  V30 5662 H 555.592 -4.78136 1.16818 0
M  V30 5663 N 557.244 -0.608902 -1.45362 0
M  V30 5664 C 558.66 -0.272659 -1.57254 0
M  V30 5665 C 558.86 1.22477 -1.60005 0
M  V30 5666 O 557.916 2.00785 -1.53106 0
M  V30 5667 C 559.229 -0.944991 -2.85465 0
M  V30 5668 C 560.777 -0.921033 -2.99142 0
M  V30 5669 C 561.252 -1.5734 -4.30126 0
M  V30 5670 N 562.743 -1.53895 -4.36887 0
M  V30 5671 C 563.478 -2.01286 -5.36909 0
M  V30 5672 N 562.974 -2.56768 -6.43461 0
M  V30 5673 N 564.767 -1.92046 -5.28275 0
M  V30 5674 H 556.918 -1.58117 -1.4182 0
M  V30 5675 H 559.181 -0.662437 -0.678146 0
M  V30 5676 H 558.887 -1.99941 -2.89338 0
M  V30 5677 H 558.761 -0.469079 -3.74272 0
M  V30 5678 H 561.148 0.124846 -2.94836 0
M  V30 5679 H 561.229 -1.43522 -2.11743 0
M  V30 5680 H 560.873 -2.61862 -4.35191 0
M  V30 5681 H 560.803 -1.03422 -5.16344 0
M  V30 5682 H 563.294 -1.13366 -3.60495 0
M  V30 5683 H 563.607 -2.9072 -7.16032 0
M  V30 5684 H 561.952 -2.60808 -6.44208 0
M  V30 5685 H 565.143 -1.48439 -4.43941 0
M  V30 5686 H 565.316 -2.29293 -6.06077 0
M  V30 5687 N 558.722 1.53707 -0.348139 0
M  V30 5688 C 559.652 2.28111 0.498766 0
M  V30 5689 C 560.633 1.29851 1.09876 0
M  V30 5690 O 561.818 1.587 1.11928 0
M  V30 5691 C 558.948 3.05735 1.64753 0
M  V30 5692 C 557.902 4.11537 1.17565 0
M  V30 5693 C 557.228 4.77142 2.4133 0
M  V30 5694 C 558.528 5.21587 0.272844 0
M  V30 5695 H 560.222 2.99152 -0.121934 0
M  V30 5696 H 557.768 1.43875 -0.0600842 0
M  V30 5697 H 559.721 3.56526 2.24649 0
M  V30 5698 H 558.445 2.32354 2.2952 0
M  V30 5699 H 557.104 3.61665 0.599483 0
M  V30 5700 H 556.752 4.0035 3.04514 0
M  V30 5701 H 556.452 5.48626 2.10436 0
M  V30 5702 H 557.976 5.30719 3.01943 0
M  V30 5703 H 559.39 5.67986 0.778779 0
M  V30 5704 H 557.787 6.00074 0.0555849 0
M  V30 5705 H 558.857 4.79969 -0.689785 0
M  V30 5706 N 560.2 0.0768682 1.57412 0
M  V30 5707 C 561.147 -0.888577 2.13009 0
M  V30 5708 C 562.117 -1.29198 1.0439 0
M  V30 5709 O 563.302 -1.37694 1.3208 0
M  V30 5710 C 560.442 -2.14899 2.70023 0
M  V30 5711 C 559.555 -1.79777 3.92816 0
M  V30 5712 C 558.69 -3.00467 4.38056 0
M  V30 5713 C 557.729 -2.61385 5.53484 0
M  V30 5714 N 556.866 -3.74851 5.93659 0
M  V30 5715 H 561.706 -0.407593 2.95199 0
M  V30 5716 H 559.243 -0.189534 1.45874 0
M  V30 5717 H 561.201 -2.88688 3.0119 0
M  V30 5718 H 559.831 -2.60529 1.9059 0
M  V30 5719 H 558.883 -0.960301 3.68079 0
M  V30 5720 H 560.195 -1.47027 4.76639 0
M  V30 5721 H 559.349 -3.82529 4.7091 0
M  V30 5722 H 558.088 -3.36413 3.53097 0
M  V30 5723 H 557.093 -1.77746 5.20275 0
M  V30 5724 H 558.318 -2.26603 6.40178 0
M  V30 5725 H 556.264 -4.1055 5.11649 0
M  V30 5726 H 556.181 -3.45887 6.72234 0
M  V30 5727 H 557.449 -4.57477 6.31138 0
M  V30 5728 N 561.678 -1.56367 -0.196722 0
M  V30 5729 C 562.927 -1.79724 -0.915539 0
M  V30 5730 C 563.24 -0.649804 -1.84491 0
M  V30 5731 O 564.446 -0.767631 -2.60422 0
M  V30 5732 C 562.902 -3.18369 -1.67836 0
M  V30 5733 C 562.51 -4.4091 -0.793897 0
M  V30 5734 C 564.254 -3.51037 -2.38691 0
M  V30 5735 C 562.161 -5.70577 -1.55549 0
M  V30 5736 H 561.091 -0.67013 -0.345604 0
M  V30 5737 H 563.742 -1.82721 -0.168856 0
M  V30 5738 H 562.124 -3.09617 -2.46887 0
M  V30 5739 H 563.298 -4.60781 -0.042163 0
M  V30 5740 H 561.613 -4.15937 -0.19626 0
M  V30 5741 H 564.21 -4.4515 -2.96219 0
M  V30 5742 H 564.553 -2.74704 -3.12799 0
M  V30 5743 H 565.086 -3.61229 -1.66608 0
M  V30 5744 H 561.825 -6.49871 -0.857226 0
M  V30 5745 H 561.345 -5.54726 -2.2812 0
M  V30 5746 H 563.024 -6.11637 -2.10971 0
M  V30 5747 N 563.156 0.464375 -1.50603 0
M  V30 5748 C 564.104 1.58224 -1.70493 0
M  V30 5749 C 565.098 1.59492 -0.570836 0
M  V30 5750 O 566.304 1.63561 -0.751517 0
M  V30 5751 H 562.679 0.525161 -0.538247 0
M  V30 5752 H 564.65 1.38613 -2.64252 0
M  V30 5753 C 563.399 2.96113 -1.82243 0
M  V30 5754 H 562.722 2.95858 -2.68901 0
M  V30 5755 H 564.162 3.73769 -2.00182 0
M  V30 5756 C 562.621 3.31946 -0.575628 0
M  V30 5757 O 563.151 4.00708 0.282152 0
M  V30 5758 N 561.357 2.87436 -0.427665 0
M  V30 5759 H 560.904 2.31652 -1.12674 0
M  V30 5760 H 560.862 3.11776 0.405379 0
M  V30 5761 N 564.634 1.40294 0.718013 0
M  V30 5762 C 565.566 1.36281 1.84283 0
M  V30 5763 C 566.579 0.268621 1.60569 0
M  V30 5764 O 567.768 0.528798 1.70487 0
M  V30 5765 C 564.868 1.09741 3.2064 0
M  V30 5766 C 564.041 2.30767 3.71571 0
M  V30 5767 C 563.1 2.00424 4.86535 0
M  V30 5768 O 562.126 2.73268 4.99313 0
M  V30 5769 N 563.328 0.980724 5.72156 0
M  V30 5770 H 566.093 2.3322 1.88225 0
M  V30 5771 H 563.654 1.34616 0.899453 0
M  V30 5772 H 565.646 0.874322 3.95143 0
M  V30 5773 H 564.216 0.214771 3.11861 0
M  V30 5774 H 563.436 2.68921 2.88228 0
M  V30 5775 H 564.724 3.11455 4.02335 0
M  V30 5776 H 564.122 0.377375 5.6444 0
M  V30 5777 H 562.679 0.817538 6.46653 0
M  V30 5778 N 566.112 -0.949982 1.2575 0
M  V30 5779 C 567.359 -1.69515 1.10774 0
M  V30 5780 C 567.687 -1.91316 -0.350479 0
M  V30 5781 O 566.942 -1.48515 -1.27443 0
M  V30 5782 C 567.241 -3.08039 1.81237 0
M  V30 5783 C 566.907 -3.06023 3.31151 0
M  V30 5784 C 565.569 -3.0518 3.72047 0
M  V30 5785 C 567.921 -2.98998 4.26907 0
M  V30 5786 C 565.249 -2.95067 5.07102 0
M  V30 5787 C 567.601 -2.90426 5.61992 0
M  V30 5788 C 566.265 -2.87922 6.0221 0
M  V30 5789 H 565.535 -0.6203 0.405351 0
M  V30 5790 H 568.182 -1.10953 1.56082 0
M  V30 5791 H 566.487 -3.70172 1.28373 0
M  V30 5792 H 568.184 -3.64526 1.67098 0
M  V30 5793 H 564.774 -3.07453 2.98614 0
M  V30 5794 H 568.958 -2.98764 3.963 0
M  V30 5795 H 564.214 -2.915 5.37436 0
M  V30 5796 H 568.388 -2.83952 6.35881 0
M  V30 5797 H 566.015 -2.79841 7.06819 0
M  V30 5798 N 567.59 -1.07411 -1.15328 0
M  V30 5799 C 568.82 -0.817595 -1.89734 0
M  V30 5800 C 569.228 0.63297 -1.78298 0
M  V30 5801 O 568.571 1.44594 -1.13306 0
M  V30 5802 C 568.633 -1.14748 -3.40695 0
M  V30 5803 C 568.297 -2.59876 -3.75917 0
M  V30 5804 C 569.294 -3.58122 -3.76888 0
M  V30 5805 C 566.979 -2.95469 -4.06206 0
M  V30 5806 C 568.973 -4.89996 -4.07655 0
M  V30 5807 C 566.66 -4.2754 -4.36638 0
M  V30 5808 C 567.658 -5.24614 -4.37344 0
M  V30 5809 O 567.346 -6.54312 -4.67045 0
M  V30 5810 H 567.078 -0.295175 -0.608151 0
M  V30 5811 H 569.632 -1.43409 -1.47048 0
M  V30 5812 H 567.862 -0.47395 -3.83785 0
M  V30 5813 H 569.551 -0.873397 -3.96392 0
M  V30 5814 H 570.317 -3.31966 -3.53587 0
M  V30 5815 H 566.196 -2.20558 -4.04815 0
M  V30 5816 H 569.74 -5.65759 -4.08121 0
M  V30 5817 H 565.637 -4.53449 -4.59407 0
M  V30 5818 H 566.405 -6.59473 -4.84807 0
M  V30 5819 N 569.068 1.32177 -0.85831 0
M  V30 5820 C 570.316 1.96735 -0.462568 0
M  V30 5821 C 570.637 1.6824 0.985911 0
M  V30 5822 O 569.907 0.991564 1.68952 0
M  V30 5823 H 568.487 0.727849 -0.168064 0
M  V30 5824 H 571.149 1.61195 -1.09554 0
M  V30 5825 H 570.245 3.06068 -0.610647 0
M  V30 5826 N 570.547 0.616602 1.45037 0
M  V30 5827 C 571.51 -0.0871112 2.29034 0
M  V30 5828 C 572.51 -0.786414 1.40258 0
M  V30 5829 O 573.7 -0.633207 1.62284 0
M  V30 5830 C 570.832 -1.13369 3.21497 0
M  V30 5831 H 572.025 0.651497 2.92738 0
M  V30 5832 H 569.578 0.376058 1.51709 0
M  V30 5833 H 570.313 -1.90277 2.62612 0
M  V30 5834 H 570.098 -0.636358 3.86902 0
M  V30 5835 H 571.588 -1.62627 3.84633 0
M  V30 5836 N 572.025 -1.5352 0.356285 0
M  V30 5837 C 573.436 -1.86282 -0.12492 0
M  V30 5838 C 573.787 -1.27717 -1.48939 0
M  V30 5839 O 572.912 -0.595614 -2.08042 0
M  V30 5840 C 573.507 -3.37995 -0.23345 0
M  V30 5841 C 572.066 -3.70588 -0.658899 0
M  V30 5842 C 571.213 -2.76581 0.199596 0
M  V30 5843 H 574.164 -1.47901 0.575423 0
M  V30 5844 H 574.185 -3.65475 -1.0587 0
M  V30 5845 H 573.697 -3.8059 0.759776 0
M  V30 5846 H 571.798 -3.33544 -1.66069 0
M  V30 5847 H 571.911 -4.77076 -0.439957 0
M  V30 5848 H 570.275 -2.52552 -0.330076 0
M  V30 5849 H 571.058 -3.22008 1.19019 0
M  V30 5850 N 573.503 -0.0852151 -1.57369 0
M  V30 5851 C 574.731 0.58946 -1.98325 0
M  V30 5852 C 575.146 1.62333 -0.96403 0
M  V30 5853 O 574.503 1.82438 0.0476395 0
M  V30 5854 C 574.554 1.24604 -3.39347 0
M  V30 5855 O 574.275 0.253532 -4.37366 0
M  V30 5856 C 575.776 2.00726 -3.95252 0
M  V30 5857 H 572.996 0.158783 -0.651942 0
M  V30 5858 H 575.54 -0.161584 -2.03861 0
M  V30 5859 H 573.695 1.94808 -3.34856 0
M  V30 5860 H 574.109 0.726207 -5.19448 0
M  V30 5861 H 575.583 2.42039 -4.96106 0
M  V30 5862 H 576.06 2.86919 -3.32527 0
M  V30 5863 H 576.666 1.3536 -4.03185 0
M  V30 5864 N 574.981 1.5647 0.188427 0
M  V30 5865 C 575.944 1.9421 1.21718 0
M  V30 5866 C 576.944 0.823901 1.38089 0
M  V30 5867 O 578.134 1.09122 1.35787 0
M  V30 5868 C 575.266 2.22197 2.58537 0
M  V30 5869 H 576.459 2.86252 0.894418 0
M  V30 5870 H 574.012 1.50263 0.430211 0
M  V30 5871 H 574.747 1.32814 2.95856 0
M  V30 5872 H 574.532 3.03688 2.48025 0
M  V30 5873 H 576.022 2.52376 3.3271 0
M  V30 5874 N 576.459 -0.456382 1.50847 0
M  V30 5875 C 577.705 -1.20914 1.62811 0
M  V30 5876 C 578.038 -1.91301 0.334304 0
M  V30 5877 O 577.313 -1.82775 -0.665098 0
M  V30 5878 C 577.596 -2.24122 2.81853 0
M  V30 5879 C 577.449 -1.57944 4.21158 0
M  V30 5880 C 578.768 -3.25295 2.96431 0
M  V30 5881 H 575.887 -0.438233 0.592554 0
M  V30 5882 H 578.529 -0.50091 1.83278 0
M  V30 5883 H 576.679 -2.84524 2.64534 0
M  V30 5884 H 578.351 -1.01025 4.50102 0
M  V30 5885 H 576.594 -0.882185 4.24735 0
M  V30 5886 H 577.265 -2.33014 5.00408 0
M  V30 5887 H 579.741 -2.7493 3.12335 0
M  V30 5888 H 578.617 -3.94822 3.81322 0
M  V30 5889 H 578.878 -3.90286 2.07676 0
M  V30 5890 N 577.937 -1.40673 -0.710563 0
M  V30 5891 C 579.353 -1.22813 -1.01928 0
M  V30 5892 C 579.553 -0.10687 -2.01216 0
M  V30 5893 O 578.609 0.533614 -2.46797 0
M  V30 5894 C 579.922 -2.57178 -1.5582 0
M  V30 5895 C 581.47 -2.64233 -1.67779 0
M  V30 5896 C 581.945 -3.98879 -2.25076 0
M  V30 5897 N 583.436 -4.00647 -2.32456 0
M  V30 5898 C 584.171 -5.01621 -2.77784 0
M  V30 5899 N 583.667 -6.12989 -3.22826 0
M  V30 5900 N 585.46 -4.88988 -2.77213 0
M  V30 5901 H 577.611 -2.12335 -0.05253 0
M  V30 5902 H 579.874 -0.9441 -0.085898 0
M  V30 5903 H 579.58 -3.39903 -0.903249 0
M  V30 5904 H 579.454 -2.78618 -2.54267 0
M  V30 5905 H 581.841 -1.81876 -2.3239 0
M  V30 5906 H 581.922 -2.46619 -0.679178 0
M  V30 5907 H 581.566 -4.81678 -1.61086 0
M  V30 5908 H 581.496 -4.13826 -3.25661 0
M  V30 5909 H 583.987 -3.20231 -2.0065 0
M  V30 5910 H 584.3 -6.85921 -3.55995 0
M  V30 5911 H 582.645 -6.16547 -3.20773 0
M  V30 5912 H 585.836 -4.01075 -2.41363 0
M  V30 5913 H 586.009 -5.67822 -3.12221 0
M  V30 5914 N 579.415 0.9433 -1.26252 0
M  V30 5915 C 580.345 2.05902 -1.10122 0
M  V30 5916 C 581.326 1.70099 -0.00700552 0
M  V30 5917 O 582.511 1.93377 -0.178641 0
M  V30 5918 C 579.641 3.39516 -0.731175 0
M  V30 5919 C 578.595 3.89372 -1.77688 0
M  V30 5920 C 577.921 5.19613 -1.26122 0
M  V30 5921 C 579.221 4.14489 -3.17799 0
M  V30 5922 H 580.915 2.19655 -2.03451 0
M  V30 5923 H 578.461 1.05548 -0.979576 0
M  V30 5924 H 580.414 4.17031 -0.605215 0
M  V30 5925 H 579.138 3.25733 0.23782 0
M  V30 5926 H 577.797 3.14036 -1.89148 0
M  V30 5927 H 577.445 5.02208 -0.282128 0
M  V30 5928 H 577.145 5.53939 -1.96023 0
M  V30 5929 H 578.669 5.99713 -1.14789 0
M  V30 5930 H 580.083 4.82625 -3.09428 0
M  V30 5931 H 578.48 4.60094 -3.85271 0
M  V30 5932 H 579.55 3.20347 -3.64014 0
M  V30 5933 N 580.893 1.08022 1.14757 0
M  V30 5934 C 581.823 0.728248 2.21853 0
M  V30 5935 C 582.804 -0.287486 1.67653 0
M  V30 5936 O 583.989 -0.158727 1.9355 0
M  V30 5937 C 581.119 0.132549 3.47047 0
M  V30 5938 C 580.073 1.07619 4.14249 0
M  V30 5939 C 579.399 0.342907 5.33599 0
M  V30 5940 C 580.699 2.41268 4.63235 0
M  V30 5941 H 582.393 1.62365 2.51551 0
M  V30 5942 H 579.939 0.782125 1.20908 0
M  V30 5943 H 581.892 -0.125665 4.21213 0
M  V30 5944 H 580.616 -0.797971 3.16702 0
M  V30 5945 H 579.275 1.31944 3.42033 0
M  V30 5946 H 578.923 -0.59129 4.99513 0
M  V30 5947 H 578.623 0.971955 5.79506 0
M  V30 5948 H 580.147 0.0926538 6.1053 0
M  V30 5949 H 581.561 2.21232 5.28894 0
M  V30 5950 H 579.958 2.9983 5.19829 0
M  V30 5951 H 581.028 3.03079 3.78512 0
M  V30 5952 N 582.371 -1.3172 0.865308 0
M  V30 5953 C 583.301 -2.31109 0.333302 0
M  V30 5954 C 584.282 -1.60148 -0.573301 0
M  V30 5955 O 585.467 -1.87882 -0.491305 0
M  V30 5956 C 582.597 -3.44104 -0.470078 0
M  V30 5957 C 581.551 -4.26623 0.343021 0
M  V30 5958 C 580.877 -5.31482 -0.585756 0
M  V30 5959 C 582.177 -4.98001 1.57456 0
M  V30 5960 H 583.871 -2.75855 1.1638 0
M  V30 5961 H 581.417 -1.3262 0.561069 0
M  V30 5962 H 583.37 -4.12682 -0.852752 0
M  V30 5963 H 582.094 -2.98112 -1.33404 0
M  V30 5964 H 580.753 -3.59707 0.707583 0
M  V30 5965 H 580.401 -4.81741 -1.44686 0
M  V30 5966 H 580.101 -5.87582 -0.0456494 0
M  V30 5967 H 581.625 -6.0292 -0.965375 0
M  V30 5968 H 583.039 -5.59201 1.26359 0
M  V30 5969 H 581.436 -5.63876 2.05339 0
M  V30 5970 H 582.506 -4.25253 2.32997 0
M  V30 5971 N 583.85 -0.624285 -1.44708 0
M  V30 5972 C 584.797 0.0847135 -2.30644 0
M  V30 5973 C 585.767 0.843575 -1.43084 0
M  V30 5974 O 586.952 0.825982 -1.71995 0
M  V30 5975 C 584.091 1.06495 -3.28257 0
M  V30 5976 C 583.205 0.305224 -4.3092 0
M  V30 5977 C 582.34 1.27667 -5.1563 0
M  V30 5978 C 581.379 0.505706 -6.10007 0
M  V30 5979 N 580.516 1.42727 -6.8744 0
M  V30 5980 H 585.356 -0.654068 -2.90733 0
M  V30 5981 H 582.893 -0.334334 -1.4325 0
M  V30 5982 H 584.851 1.64658 -3.83332 0
M  V30 5983 H 583.481 1.77094 -2.69884 0
M  V30 5984 H 582.533 -0.392207 -3.78373 0
M  V30 5985 H 583.845 -0.295553 -4.97924 0
M  V30 5986 H 582.999 1.92984 -5.75189 0
M  V30 5987 H 581.738 1.91137 -4.48685 0
M  V30 5988 H 580.743 -0.160999 -5.49564 0
M  V30 5989 H 581.968 -0.124183 -6.78986 0
M  V30 5990 H 579.913 2.04931 -6.23169 0
M  V30 5991 H 579.831 0.880345 -7.50857 0
M  V30 5992 H 581.099 2.0695 -7.51526 0
M  V30 5993 N 585.328 1.53329 -0.364422 0
M  V30 5994 C 586.558 2.05359 0.226096 0
M  V30 5995 C 586.966 1.23777 1.43094 0
M  V30 5996 O 586.309 0.271139 1.81688 0
M  V30 5997 C 586.371 3.52918 0.684794 0
M  V30 5998 C 586.035 4.55218 -0.403206 0
M  V30 5999 C 587.032 5.04583 -1.2527 0
M  V30 6000 C 584.717 4.99134 -0.563117 0
M  V30 6001 C 586.711 5.96463 -2.24745 0
M  V30 6002 C 584.398 5.9082 -1.56124 0
M  V30 6003 C 585.396 6.39375 -2.40184 0
M  V30 6004 O 585.084 7.29255 -3.38293 0
M  V30 6005 H 584.816 0.674588 0.0436772 0
M  V30 6006 H 587.37 1.98688 -0.520782 0
M  V30 6007 H 585.6 3.57122 1.48326 0
M  V30 6008 H 587.289 3.87812 1.19818 0
M  V30 6009 H 588.055 4.71403 -1.14034 0
M  V30 6010 H 583.934 4.60928 0.0813909 0
M  V30 6011 H 587.478 6.34285 -2.90393 0
M  V30 6012 H 583.375 6.23414 -1.67407 0
M  V30 6013 H 584.143 7.47249 -3.34009 0
M  V30 6014 N 586.806 0.0935595 1.57322 0
M  V30 6015 C 588.054 -0.569383 1.93913 0
M  V30 6016 C 588.375 -1.68817 0.976009 0
M  V30 6017 O 587.645 -1.9588 0.0278099 0
M  V30 6018 H 586.225 -0.21332 0.715894 0
M  V30 6019 H 588.887 0.156531 1.9427 0
M  V30 6020 H 587.983 -0.980577 2.96296 0
M  V30 6021 N 588.284 -1.56567 -0.180126 0
M  V30 6022 C 589.561 -1.7235 -0.924931 0
M  V30 6023 C 589.941 -0.652523 -2.00762 0
M  V30 6024 O 589.289 0.334115 -2.26044 0
M  V30 6025 C 589.499 -3.1523 -1.49771 0
M  V30 6026 C 590.847 -3.75921 -1.97405 0
M  V30 6027 O 591.871 -3.18452 -1.59583 0
M  V30 6028 O 590.73 -4.7681 -2.67048 0
M  V30 6029 H 587.824 -0.703502 -0.434758 0
M  V30 6030 H 590.37 -1.6886 -0.168647 0
M  V30 6031 H 589.142 -3.84656 -0.718027 0
M  V30 6032 H 588.765 -3.23009 -2.31842 0
M  V30 6033 N 589.762 0.448376 -1.51087 0
M  V30 6034 C 590.725 1.52588 -1.71025 0
M  V30 6035 C 591.725 1.49958 -0.580442 0
M  V30 6036 O 592.915 1.52176 -0.847833 0
M  V30 6037 C 590.047 2.92163 -1.75652 0
M  V30 6038 H 591.24 1.36218 -2.67179 0
M  V30 6039 H 588.793 0.676313 -1.4091 0
M  V30 6040 H 589.528 3.13951 -0.812724 0
M  V30 6041 H 589.313 2.95478 -2.57751 0
M  V30 6042 H 590.803 3.70349 -1.92953 0
M  V30 6043 N 591.24 1.41047 0.703093 0
M  V30 6044 C 592.486 1.41209 1.46396 0
M  V30 6045 C 592.841 0.0180188 1.92392 0
M  V30 6046 O 592.134 -0.954739 1.66118 0
M  V30 6047 C 592.328 2.34686 2.6955 0
M  V30 6048 C 592.157 3.83044 2.35601 0
M  V30 6049 C 590.927 4.51777 2.26331 0
M  V30 6050 C 593.125 4.74215 1.9906 0
M  V30 6051 N 591.107 5.85302 1.85188 0
M  V30 6052 C 592.478 5.96631 1.68616 0
M  V30 6053 C 594.533 4.61932 1.85805 0
M  V30 6054 C 593.236 7.08134 1.26249 0
M  V30 6055 C 595.262 5.73389 1.44842 0
M  V30 6056 C 594.624 6.94899 1.15304 0
M  V30 6057 H 590.723 0.571951 0.533288 0
M  V30 6058 H 593.307 1.76859 0.814179 0
M  V30 6059 H 591.478 2.01143 3.32259 0
M  V30 6060 H 593.21 2.25618 3.35974 0
M  V30 6061 H 589.965 4.05618 2.44482 0
M  V30 6062 H 590.389 6.56049 1.67119 0
M  V30 6063 H 595.031 3.68494 2.07298 0
M  V30 6064 H 592.749 8.01445 1.035 0
M  V30 6065 H 596.335 5.65886 1.35146 0
M  V30 6066 H 595.215 7.79679 0.840854 0
M  V30 6067 N 592.718 -0.936591 1.26751 0
M  V30 6068 C 593.964 -1.6858 1.12733 0
M  V30 6069 C 594.297 -1.91414 -0.327745 0
M  V30 6070 O 593.572 -1.49812 -1.24043 0
M  V30 6071 C 593.855 -3.05779 1.90187 0
M  V30 6072 C 593.708 -2.90242 3.43627 0
M  V30 6073 C 595.027 -4.0597 1.69931 0
M  V30 6074 H 592.146 -0.61182 0.410908 0
M  V30 6075 H 594.788 -1.08747 1.55801 0
M  V30 6076 H 592.938 -3.56853 1.53584 0
M  V30 6077 H 594.61 -2.46354 3.9001 0
M  V30 6078 H 592.853 -2.2577 3.70419 0
M  V30 6079 H 593.524 -3.87572 3.93055 0
M  V30 6080 H 596 -3.63874 2.0183 0
M  V30 6081 H 594.876 -4.99974 2.26534 0
M  V30 6082 H 595.137 -4.37369 0.64502 0
M  V30 6083 N 594.196 -1.08629 -1.14182 0
M  V30 6084 C 595.143 -0.718299 -2.19338 0
M  V30 6085 C 596.113 0.296587 -1.63431 0
M  V30 6086 O 597.298 0.180079 -1.89948 0
M  V30 6087 C 594.438 -0.136203 -3.44831 0
M  V30 6088 C 593.551 -1.20414 -4.14879 0
M  V30 6089 C 592.686 -0.585666 -5.27962 0
M  V30 6090 C 591.725 -1.63548 -5.89846 0
M  V30 6091 N 590.862 -1.03864 -6.94375 0
M  V30 6092 H 595.702 -1.61932 -2.50164 0
M  V30 6093 H 593.239 -0.80919 -1.22844 0
M  V30 6094 H 595.197 0.219021 -4.16625 0
M  V30 6095 H 593.827 0.728121 -3.14481 0
M  V30 6096 H 592.879 -1.67676 -3.41451 0
M  V30 6097 H 594.191 -1.99959 -4.56966 0
M  V30 6098 H 593.345 -0.178818 -6.06436 0
M  V30 6099 H 592.084 0.24142 -4.87102 0
M  V30 6100 H 591.089 -2.05197 -5.10073 0
M  V30 6101 H 592.314 -2.46509 -6.3278 0
M  V30 6102 H 590.26 -0.232687 -6.55587 0
M  V30 6103 H 590.177 -1.77116 -7.3496 0
M  V30 6104 H 591.445 -0.657724 -7.7672 0
M  V30 6105 N 595.674 1.31259 -0.872281 0
M  V30 6106 C 596.621 2.28459 -0.327857 0
M  V30 6107 C 597.591 1.55831 0.574957 0
M  V30 6108 O 598.776 1.83965 0.506101 0
M  V30 6109 C 595.916 3.41985 0.462644 0
M  V30 6110 C 595.029 4.29458 -0.467949 0
M  V30 6111 C 594.164 5.30131 0.336903 0
M  V30 6112 C 593.203 6.0925 -0.58997 0
M  V30 6113 N 592.34 7.01872 0.178775 0
M  V30 6114 H 597.18 2.74414 -1.16193 0
M  V30 6115 H 594.717 1.34994 -0.584376 0
M  V30 6116 H 596.675 4.06547 0.936759 0
M  V30 6117 H 595.305 2.97134 1.2614 0
M  V30 6118 H 594.357 3.65318 -1.06052 0
M  V30 6119 H 595.669 4.84677 -1.17856 0
M  V30 6120 H 594.823 6.0038 0.873427 0
M  V30 6121 H 593.562 4.75573 1.08079 0
M  V30 6122 H 592.567 5.37889 -1.13823 0
M  V30 6123 H 593.792 6.65894 -1.33275 0
M  V30 6124 H 591.738 6.49721 0.905435 0
M  V30 6125 H 591.655 7.54522 -0.472452 0
M  V30 6126 H 592.923 7.76382 0.696454 0
M  V30 6127 N 597.152 0.631951 1.44375 0
M  V30 6128 C 598.382 0.143658 2.061 0
M  V30 6129 C 598.79 -1.18733 1.47306 0
M  V30 6130 O 598.133 -1.73943 0.590724 0
M  V30 6131 C 598.195 -0.0446102 3.59472 0
M  V30 6132 C 597.859 1.20835 4.40736 0
M  V30 6133 C 598.856 2.13224 4.74164 0
M  V30 6134 C 596.541 1.44399 4.81097 0
M  V30 6135 C 598.535 3.27487 5.46838 0
M  V30 6136 C 596.222 2.58959 5.53519 0
M  V30 6137 C 597.22 3.50329 5.86309 0
M  V30 6138 O 596.908 4.62891 6.57257 0
M  V30 6139 H 596.64 0.0772939 0.671567 0
M  V30 6140 H 599.194 0.866677 1.8622 0
M  V30 6141 H 597.424 -0.822783 3.77845 0
M  V30 6142 H 599.113 -0.487561 4.02961 0
M  V30 6143 H 599.879 1.96253 4.4352 0
M  V30 6144 H 595.758 0.741696 4.54994 0
M  V30 6145 H 599.302 3.98826 5.72349 0
M  V30 6146 H 595.199 2.75873 5.83579 0
M  V30 6147 H 595.967 4.61883 6.75726 0
M  V30 6148 N 598.631 -1.53133 0.372548 0
M  V30 6149 C 599.908 -1.93704 -0.271693 0
M  V30 6150 C 600.288 -1.30667 -1.65799 0
M  V30 6151 O 599.636 -0.46838 -2.23648 0
M  V30 6152 C 599.846 -3.47576 -0.314903 0
M  V30 6153 C 601.194 -4.20998 -0.551912 0
M  V30 6154 O 602.218 -3.53994 -0.39582 0
M  V30 6155 O 601.077 -5.39748 -0.85639 0
M  V30 6156 H 598.171 -0.810457 -0.164586 0
M  V30 6157 H 600.717 -1.6427 0.425838 0
M  V30 6158 H 599.489 -3.85749 0.656792 0
M  V30 6159 H 599.112 -3.83264 -1.05804 0
M  V30 6160 N 600.109 -0.101901 -1.5727 0
M  V30 6161 C 601.525 0.254739 -1.57554 0
M  V30 6162 C 601.725 1.67937 -1.11352 0
M  V30 6163 O 600.781 2.39722 -0.793081 0
M  V30 6164 C 602.094 0.036975 -3.00677 0
M  V30 6165 C 603.642 0.104199 -3.12827 0
M  V30 6166 C 604.117 -0.0856565 -4.5792 0
M  V30 6167 N 605.608 -0.0310498 -4.6319 0
M  V30 6168 C 606.343 -0.153099 -5.73196 0
M  V30 6169 N 605.839 -0.330364 -6.92012 0
M  V30 6170 N 607.632 -0.0938854 -5.62022 0
M  V30 6171 H 599.783 -1.03263 -1.85609 0
M  V30 6172 H 602.046 -0.405251 -0.857016 0
M  V30 6173 H 601.752 -0.947254 -3.38703 0
M  V30 6174 H 601.626 0.776335 -3.69124 0
M  V30 6175 H 604.013 1.07894 -2.74669 0
M  V30 6176 H 604.094 -0.666762 -2.46957 0
M  V30 6177 H 603.738 -1.05729 -4.96773 0
M  V30 6178 H 603.668 0.705082 -5.21858 0
M  V30 6179 H 606.159 0.103141 -3.77759 0
M  V30 6180 H 606.472 -0.41482 -7.71686 0
M  V30 6181 H 604.817 -0.366119 -6.94035 0
M  V30 6182 H 608.008 0.0435168 -4.6808 0
M  V30 6183 H 608.181 -0.19245 -6.47714 0
M  V30 6184 N 601.587 1.56661 0.17182 0
M  V30 6185 C 602.812 1.86459 0.908165 0
M  V30 6186 C 603.237 0.688181 1.75059 0
M  V30 6187 O 602.595 -0.362753 1.77634 0
M  V30 6188 C 602.643 3.14669 1.76112 0
M  V30 6189 O 601.747 2.96858 2.86268 0
M  V30 6190 H 601.088 0.613318 0.254434 0
M  V30 6191 H 603.618 2.03892 0.170113 0
M  V30 6192 H 603.628 3.46061 2.16115 0
M  V30 6193 H 602.303 3.99905 1.14233 0
M  V30 6194 H 600.88 2.76819 2.49852 0
M  V30 6195 N 603.065 -0.440357 1.51323 0
M  V30 6196 C 604.29 -1.21716 1.67928 0
M  V30 6197 C 604.715 -1.84328 0.374826 0
M  V30 6198 O 604.073 -1.68675 -0.664706 0
M  V30 6199 C 604.121 -2.27914 2.79442 0
M  V30 6200 O 603.225 -3.33325 2.42834 0
M  V30 6201 H 602.566 -0.35674 0.560029 0
M  V30 6202 H 605.096 -0.520417 1.97871 0
M  V30 6203 H 605.106 -2.72746 3.03436 0
M  V30 6204 H 603.781 -1.8172 3.741 0
M  V30 6205 H 602.358 -2.9399 2.294 0
M  V30 6206 N 604.543 -1.41418 -0.695603 0
M  V30 6207 C 605.473 -1.46035 -1.82197 0
M  V30 6208 C 606.454 -0.319025 -1.67082 0
M  V30 6209 O 607.639 -0.530462 -1.86815 0
M  V30 6210 C 604.769 -1.34179 -3.20333 0
M  V30 6211 C 603.723 -2.46123 -3.50154 0
M  V30 6212 C 603.049 -2.19332 -4.87645 0
M  V30 6213 C 604.349 -3.88463 -3.49133 0
M  V30 6214 H 606.043 -2.40303 -1.78591 0
M  V30 6215 H 603.589 -1.15663 -0.857797 0
M  V30 6216 H 605.542 -1.36021 -3.98844 0
M  V30 6217 H 604.266 -0.363952 -3.24566 0
M  V30 6218 H 602.925 -2.43563 -2.73994 0
M  V30 6219 H 602.573 -1.19891 -4.88503 0
M  V30 6220 H 602.273 -2.94344 -5.08562 0
M  V30 6221 H 603.797 -2.22889 -5.68465 0
M  V30 6222 H 605.211 -3.92738 -4.17648 0
M  V30 6223 H 603.608 -4.63158 -3.81582 0
M  V30 6224 H 604.678 -4.16617 -2.48109 0
M  V30 6225 N 606.021 0.929856 -1.27246 0
M  V30 6226 C 607.437 1.20542 -1.04603 0
M  V30 6227 C 607.637 2.00276 0.221754 0
M  V30 6228 O 606.693 2.34835 0.927833 0
M  V30 6229 C 608.006 1.95566 -2.28417 0
M  V30 6230 C 609.554 2.08513 -2.33433 0
M  V30 6231 C 610.029 2.86943 -3.5697 0
M  V30 6232 N 611.52 2.94512 -3.57515 0
M  V30 6233 C 612.255 3.55656 -4.49774 0
M  V30 6234 N 611.751 4.18209 -5.52334 0
M  V30 6235 N 613.544 3.53038 -4.37402 0
M  V30 6236 H 605.695 0.397113 -2.08655 0
M  V30 6237 H 607.958 0.238277 -0.917566 0
M  V30 6238 H 607.664 1.44395 -3.20691 0
M  V30 6239 H 607.538 2.9619 -2.33563 0
M  V30 6240 H 609.925 2.58872 -1.41666 0
M  V30 6241 H 610.006 1.07117 -2.32292 0
M  V30 6242 H 609.65 2.37268 -4.49072 0
M  V30 6243 H 609.58 3.8862 -3.55362 0
M  V30 6244 H 612.071 2.50053 -2.83341 0
M  V30 6245 H 612.384 4.62796 -6.18902 0
M  V30 6246 H 610.729 4.16761 -5.56179 0
M  V30 6247 H 613.92 3.0337 -3.56489 0
M  V30 6248 H 614.093 4.004 -5.09493 0
M  V30 6249 N 607.499 1.09233 1.13605 0
M  V30 6250 C 608.727 0.848908 1.88683 0
M  V30 6251 C 609.142 -0.599667 1.79024 0
M  V30 6252 O 608.499 -1.41265 1.15544 0
M  V30 6253 C 608.55 1.27273 3.38355 0
M  V30 6254 O 608.271 2.66449 3.47759 0
M  V30 6255 C 609.772 1.0614 4.30406 0
M  V30 6256 H 606.992 0.305549 0.597395 0
M  V30 6257 H 609.536 1.4538 1.43823 0
M  V30 6258 H 607.691 0.711776 3.80805 0
M  V30 6259 H 608.105 2.84264 4.40788 0
M  V30 6260 H 609.579 1.40725 5.33761 0
M  V30 6261 H 610.056 -0.000960332 4.392 0
M  V30 6262 H 610.662 1.60821 3.93722 0
M  V30 6263 N 608.977 -1.30795 0.87923 0
M  V30 6264 C 609.907 -2.30742 0.357796 0
M  V30 6265 C 610.888 -1.60747 -0.556283 0
M  V30 6266 O 612.073 -1.88393 -0.47135 0
M  V30 6267 C 609.203 -3.44583 -0.433555 0
M  V30 6268 C 608.157 -4.26235 0.388251 0
M  V30 6269 C 607.483 -5.32073 -0.529352 0
M  V30 6270 C 608.783 -4.96303 1.62729 0
M  V30 6271 H 610.477 -2.74605 1.19299 0
M  V30 6272 H 608.023 -1.32017 0.575104 0
M  V30 6273 H 609.976 -4.13563 -0.808934 0
M  V30 6274 H 608.7 -2.99511 -1.30234 0
M  V30 6275 H 607.359 -3.58936 0.745695 0
M  V30 6276 H 607.007 -4.83249 -1.39569 0
M  V30 6277 H 606.707 -5.87598 0.0166741 0
M  V30 6278 H 608.231 -6.0391 -0.901373 0
M  V30 6279 H 609.645 -5.5783 1.32283 0
M  V30 6280 H 608.042 -5.61666 2.11309 0
M  V30 6281 H 609.112 -4.22758 2.37494 0
M  V30 6282 N 610.455 -0.639598 -1.44038 0
M  V30 6283 C 611.703 -0.147188 -2.01563 0
M  V30 6284 C 612.024 1.2384 -1.50628 0
M  V30 6285 O 611.294 1.82452 -0.713316 0
M  V30 6286 H 609.874 -0.0514231 -0.745228 0
M  V30 6287 H 612.536 -0.828205 -1.76428 0
M  V30 6288 H 611.632 -0.121358 -3.11864 0
M  V30 6289 N 611.933 1.52934 -0.380664 0
M  V30 6290 C 613.158 2.06363 0.207157 0
M  V30 6291 C 613.583 1.25122 1.4045 0
M  V30 6292 O 612.941 0.274062 1.79217 0
M  V30 6293 C 612.989 3.56162 0.563996 0
M  V30 6294 O 612.093 3.77552 1.65917 0
M  V30 6295 H 611.434 0.663468 0.0265859 0
M  V30 6296 H 613.964 1.9719 -0.545635 0
M  V30 6297 H 613.974 3.99453 0.830752 0
M  V30 6298 H 612.649 4.14732 -0.311427 0
M  V30 6299 H 611.226 3.46154 1.3868 0
M  V30 6300 N 613.412 0.11024 1.57214 0
M  V30 6301 C 614.658 -0.550684 1.9518 0
M  V30 6302 C 614.991 -1.66885 0.993122 0
M  V30 6303 O 614.266 -1.94479 0.0287907 0
M  V30 6304 C 614.549 -1.09163 3.43155 0
M  V30 6305 C 614.402 0.0225198 4.49794 0
M  V30 6306 C 615.721 -1.98527 3.92778 0
M  V30 6307 H 612.84 -0.198706 0.709708 0
M  V30 6308 H 615.482 0.184024 1.89107 0
M  V30 6309 H 613.632 -1.71775 3.48462 0
M  V30 6310 H 615.304 0.657443 4.56591 0
M  V30 6311 H 613.547 0.686868 4.28328 0
M  V30 6312 H 614.218 -0.39706 5.5057 0
M  V30 6313 H 616.694 -1.458 3.8972 0
M  V30 6314 H 615.57 -2.33298 4.96853 0
M  V30 6315 H 615.831 -2.90846 3.32958 0
M  V30 6316 N 614.89 -1.56749 -0.16351 0
M  V30 6317 C 616.138 -1.82074 -0.87713 0
M  V30 6318 C 616.459 -0.688503 -1.82441 0
M  V30 6319 O 615.729 0.291085 -1.93725 0
M  V30 6320 H 614.309 -0.671677 -0.326893 0
M  V30 6321 H 616.971 -1.9423 -0.161459 0
M  V30 6322 H 616.067 -2.76407 -1.44934 0
M  V30 6323 N 616.368 0.432326 -1.51554 0
M  V30 6324 C 617.278 1.55023 -1.76082 0
M  V30 6325 C 618.294 1.61593 -0.645265 0
M  V30 6326 O 619.47 1.78742 -0.928086 0
M  V30 6327 C 616.535 2.90964 -1.88523 0
M  V30 6328 C 615.596 2.9447 -3.12388 0
M  V30 6329 C 614.829 4.23926 -3.24225 0
M  V30 6330 O 615.052 5.16576 -2.4188 0
M  V30 6331 O 613.986 4.33818 -4.17235 0
M  V30 6332 H 617.812 1.37238 -2.70923 0
M  V30 6333 H 615.397 0.615845 -1.36117 0
M  V30 6334 H 617.279 3.71633 -1.98662 0
M  V30 6335 H 615.954 3.08865 -0.9687 0
M  V30 6336 H 614.861 2.12737 -3.07723 0
M  V30 6337 H 616.194 2.81514 -4.03746 0
M  V30 6338 N 617.846 1.41785 0.688094 0
M  V30 6339 C 619.257 1.3701 1.26828 0
M  V30 6340 C 619.608 0.056835 1.96118 0
M  V30 6341 O 618.733 -0.84475 1.99231 0
M  V30 6342 C 619.328 2.48168 2.30648 0
M  V30 6343 C 617.887 2.46766 2.84224 0
M  V30 6344 C 617.034 2.27633 1.58361 0
M  V30 6345 H 619.985 1.51192 0.482351 0
M  V30 6346 H 620.006 2.17655 3.121 0
M  V30 6347 H 619.518 3.43735 1.80188 0
M  V30 6348 H 617.619 1.54978 3.3884 0
M  V30 6349 H 617.732 3.43342 3.34145 0
M  V30 6350 H 616.096 1.75648 1.84445 0
M  V30 6351 H 616.879 3.25238 1.09887 0
M  V30 6352 N 619.324 -0.923095 1.27737 0
M  V30 6353 C 620.573 -1.66581 1.13727 0
M  V30 6354 C 620.886 -1.9304 -0.315433 0
M  V30 6355 O 622.092 -2.65309 -0.57651 0
M  V30 6356 C 620.548 -3.00047 1.98745 0
M  V30 6357 C 620.156 -2.8127 3.48699 0
M  V30 6358 C 621.9 -3.77887 1.93395 0
M  V30 6359 C 619.807 -4.1032 4.25901 0
M  V30 6360 H 618.737 -0.624834 0.422017 0
M  V30 6361 H 621.388 -1.02514 1.52194 0
M  V30 6362 H 619.77 -3.65197 1.53125 0
M  V30 6363 H 620.944 -2.24859 4.02213 0
M  V30 6364 H 619.259 -2.16854 3.55476 0
M  V30 6365 H 621.856 -4.73526 2.48348 0
M  V30 6366 H 622.199 -4.06264 0.908605 0
M  V30 6367 H 622.732 -3.19541 2.36935 0
M  V30 6368 H 619.471 -3.8712 5.28978 0
M  V30 6369 H 618.991 -4.66377 3.77163 0
M  V30 6370 H 620.67 -4.78648 4.35321 0
M  V30 6371 N 620.802 -1.09834 -1.13024 0
M  V30 6372 C 621.75 -0.736283 -2.20639 0
M  V30 6373 C 622.744 0.264725 -1.67319 0
M  V30 6374 O 623.95 0.125745 -1.7956 0
M  V30 6375 H 620.325 -0.220136 -0.719058 0
M  V30 6376 H 622.296 -1.65295 -2.48436 0
M  V30 6377 C 621.045 -0.177544 -3.47246 0
M  V30 6378 H 620.368 -0.939009 -3.88616 0
M  V30 6379 H 621.808 0.0378007 -4.23983 0
M  V30 6380 C 620.267 1.08824 -3.1884 0
M  V30 6381 O 620.797 2.1708 -3.37993 0
M  V30 6382 N 619.003 1.00442 -2.7269 0
M  V30 6383 H 618.55 0.123383 -2.57304 0
M  V30 6384 H 618.508 1.85206 -2.5406 0
M  V30 6385 N 622.28 1.30327 -0.886154 0
M  V30 6386 C 623.52 1.97886 -0.511912 0
M  V30 6387 C 623.884 1.68417 0.921944 0
M  V30 6388 O 625.085 2.29319 1.40237 0
M  V30 6389 C 623.356 3.48775 -0.780444 0
M  V30 6390 S 624.915 4.35844 -0.508482 0
M  V30 6391 H 621.733 0.685024 -0.190428 0
M  V30 6392 H 624.335 1.58413 -1.14567 0
M  V30 6393 H 623.039 3.67714 -1.82248 0
M  V30 6394 H 622.57 3.93171 -0.134284 0
M  V30 6395 H 624.585 4.91893 0.65239 0
M  V30 6396 N 623.758 0.647228 1.43697 0
M  V30 6397 C 624.668 -0.0487997 2.34549 0
M  V30 6398 C 625.684 -0.818586 1.53542 0
M  V30 6399 O 626.86 -0.767195 1.86215 0
M  V30 6400 C 623.925 -1.00734 3.31743 0
M  V30 6401 C 622.986 -0.23515 4.28655 0
M  V30 6402 C 622.219 -1.14803 5.21206 0
M  V30 6403 O 622.442 -2.38717 5.18045 0
M  V30 6404 O 621.376 -0.623667 5.9866 0
M  V30 6405 H 625.202 0.698863 2.9555 0
M  V30 6406 H 622.787 0.407412 1.43738 0
M  V30 6407 H 624.669 -1.55837 3.91526 0
M  V30 6408 H 623.344 -1.73534 2.73254 0
M  V30 6409 H 622.251 0.359319 3.7237 0
M  V30 6410 H 623.584 0.453152 4.9011 0
M  V30 6411 N 625.236 -1.5273 0.388769 0
M  V30 6412 C 626.199 -2.25043 -0.434544 0
M  V30 6413 C 627.199 -1.26661 -0.990644 0
M  V30 6414 O 628.389 -1.50762 -0.872731 0
M  V30 6415 C 625.521 -3.00507 -1.60961 0
M  V30 6416 H 626.714 -2.99242 0.198549 0
M  V30 6417 H 624.267 -1.55664 0.140875 0
M  V30 6418 H 625.002 -2.30607 -2.28015 0
M  V30 6419 H 624.787 -3.72716 -1.21757 0
M  V30 6420 H 626.277 -3.55413 -2.19251 0
M  V30 6421 N 626.714 -0.118576 -1.57153 0
M  V30 6422 C 627.96 0.534078 -1.96263 0
M  V30 6423 C 628.315 1.64316 -1.0009 0
M  V30 6424 O 627.608 1.91575 -0.0308582 0
M  V30 6425 C 627.802 1.11303 -3.39627 0
M  V30 6426 C 627.631 0.0615624 -4.49658 0
M  V30 6427 C 626.401 -0.370103 -5.03943 0
M  V30 6428 C 628.599 -0.719249 -5.09246 0
M  V30 6429 N 626.581 -1.40738 -5.9755 0
M  V30 6430 C 627.952 -1.60774 -5.98792 0
M  V30 6431 C 630.007 -0.770183 -4.91907 0
M  V30 6432 C 628.71 -2.54272 -6.72858 0
M  V30 6433 C 630.736 -1.69288 -5.66653 0
M  V30 6434 C 630.098 -2.56894 -6.55885 0
M  V30 6435 H 626.197 0.165072 -0.764379 0
M  V30 6436 H 628.781 -0.206596 -1.93601 0
M  V30 6437 H 626.952 1.82342 -3.42937 0
M  V30 6438 H 628.684 1.72996 -3.65861 0
M  V30 6439 H 625.439 0.0222121 -4.73595 0
M  V30 6440 H 625.863 -1.92493 -6.49057 0
M  V30 6441 H 630.505 -0.106999 -4.22665 0
M  V30 6442 H 628.223 -3.21605 -7.41347 0
M  V30 6443 H 631.809 -1.73772 -5.55243 0
M  V30 6444 H 630.689 -3.27131 -7.1271 0
M  V30 6445 N 628.193 1.56834 0.155195 0
M  V30 6446 C 629.103 2.009 1.21146 0
M  V30 6447 C 630.119 0.923029 1.475 0
M  V30 6448 O 631.295 1.23189 1.59331 0
M  V30 6449 C 628.36 2.37378 2.52691 0
M  V30 6450 C 627.421 3.59883 2.34057 0
M  V30 6451 C 626.654 3.94612 3.59329 0
M  V30 6452 O 626.877 3.30104 4.65175 0
M  V30 6453 O 625.811 4.87895 3.52479 0
M  V30 6454 H 629.637 2.9105 0.867371 0
M  V30 6455 H 627.222 1.44916 0.363298 0
M  V30 6456 H 629.104 2.61737 3.3026 0
M  V30 6457 H 627.779 1.50385 2.86646 0
M  V30 6458 H 626.686 3.40722 1.54465 0
M  V30 6459 H 628.019 4.47468 2.0502 0
M  V30 6460 N 629.671 -0.424282 1.51781 0
M  V30 6461 C 630.917 -1.17117 1.66298 0
M  V30 6462 C 631.272 -1.88595 0.380767 0
M  V30 6463 O 630.565 -1.81151 -0.624094 0
M  V30 6464 C 630.759 -2.20418 2.81337 0
M  V30 6465 C 630.588 -1.59081 4.20622 0
M  V30 6466 C 629.358 -1.37007 4.86371 0
M  V30 6467 C 631.556 -1.05992 5.0326 0
M  V30 6468 N 629.538 -0.714049 6.09733 0
M  V30 6469 C 630.909 -0.529933 6.17731 0
M  V30 6470 C 632.964 -0.952927 4.88696 0
M  V30 6471 C 631.667 0.0965457 7.19235 0
M  V30 6472 C 633.693 -0.340325 5.9042 0
M  V30 6473 C 633.055 0.179057 7.04172 0
M  V30 6474 H 629.154 -0.41577 0.662314 0
M  V30 6475 H 631.738 -0.46579 1.89046 0
M  V30 6476 H 629.909 -2.8833 2.60231 0
M  V30 6477 H 631.641 -2.8736 2.84968 0
M  V30 6478 H 628.396 -1.63543 4.44467 0
M  V30 6479 H 628.82 -0.403101 6.75799 0
M  V30 6480 H 633.462 -1.34033 4.00993 0
M  V30 6481 H 631.18 0.496044 8.06576 0
M  V30 6482 H 634.766 -0.259266 5.81222 0
M  V30 6483 H 633.646 0.645626 7.81538 0
M  V30 6484 N 631.149 -1.42148 -0.680565 0
M  V30 6485 C 632.079 -1.4796 -1.80638 0
M  V30 6486 C 633.06 -0.336728 -1.66734 0
M  V30 6487 O 634.245 -0.550247 -1.86242 0
M  V30 6488 C 631.375 -1.37569 -3.18892 0
M  V30 6489 C 630.329 -2.49823 -3.47524 0
M  V30 6490 C 629.655 -2.24491 -4.85291 0
M  V30 6491 C 630.955 -3.92144 -3.44994 0
M  V30 6492 H 632.649 -2.42184 -1.76032 0
M  V30 6493 H 630.195 -1.16566 -0.845481 0
M  V30 6494 H 632.148 -1.40243 -3.97379 0
M  V30 6495 H 630.872 -0.398357 -3.24162 0
M  V30 6496 H 629.531 -2.46455 -2.71395 0
M  V30 6497 H 629.179 -1.25066 -4.87204 0
M  V30 6498 H 628.879 -2.99722 -5.05411 0
M  V30 6499 H 630.403 -2.28906 -5.66069 0
M  V30 6500 H 631.817 -3.97145 -4.13459 0
M  V30 6501 H 630.214 -4.67179 -3.76648 0
M  V30 6502 H 631.284 -4.19225 -2.43676 0
M  V30 6503 N 632.627 0.916307 -1.28225 0
M  V30 6504 C 633.577 2.00488 -1.08574 0
M  V30 6505 C 634.561 1.60897 -0.0101874 0
M  V30 6506 O 635.753 1.75499 -0.230034 0
M  V30 6507 C 632.882 3.35076 -0.746943 0
M  V30 6508 C 631.968 3.81077 -1.86121 0
M  V30 6509 N 632.359 3.99475 -3.10247 0
M  V30 6510 C 630.657 4.10212 -1.75048 0
M  V30 6511 C 631.358 4.37965 -3.82834 0
M  V30 6512 N 630.334 4.4608 -3.10667 0
M  V30 6513 H 634.136 2.1276 -2.02757 0
M  V30 6514 H 631.65 1.10397 -1.19107 0
M  V30 6515 H 633.647 4.12743 -0.587252 0
M  V30 6516 H 632.307 3.2416 0.187146 0
M  V30 6517 H 633.318 3.85466 -3.45885 0
M  V30 6518 H 629.995 4.07947 -0.887999 0
M  V30 6519 H 631.385 4.60183 -4.89572 0
M  V30 6520 N 634.105 1.10431 1.1244 0
M  V30 6521 C 635.521 0.836096 1.35947 0
M  V30 6522 C 635.721 -0.544475 1.94004 0
M  V30 6523 O 634.777 -1.29735 2.16622 0
M  V30 6524 C 636.09 1.93575 2.30107 0
M  V30 6525 C 637.638 1.9642 2.43697 0
M  V30 6526 C 638.113 3.05559 3.41171 0
M  V30 6527 N 639.604 3.04865 3.48728 0
M  V30 6528 C 640.339 3.85954 4.24061 0
M  V30 6529 N 639.835 4.76977 5.02458 0
M  V30 6530 N 641.628 3.74172 4.19466 0
M  V30 6531 H 633.779 1.9942 0.731124 0
M  V30 6532 H 636.042 0.866607 0.384312 0
M  V30 6533 H 635.748 2.92943 1.94621 0
M  V30 6534 H 635.622 1.8229 3.30227 0
M  V30 6535 H 638.009 0.97685 2.78463 0
M  V30 6536 H 638.09 2.11782 1.43465 0
M  V30 6537 H 637.734 4.04513 3.07135 0
M  V30 6538 H 637.664 2.87438 4.41234 0
M  V30 6539 H 640.155 2.38908 2.92799 0
M  V30 6540 H 640.468 5.35409 5.57277 0
M  V30 6541 H 638.813 4.81006 5.01655 0
M  V30 6542 H 642.004 3.02412 3.57302 0
M  V30 6543 H 642.177 4.37602 4.77921 0
M  V30 6544 N 635.583 -1.29855 0.893053 0
M  V30 6545 C 636.829 -1.96116 0.516349 0
M  V30 6546 C 637.162 -1.70281 -0.933695 0
M  V30 6547 O 636.437 -1.01205 -1.66096 0
M  V30 6548 C 636.72 -3.51068 0.801455 0
M  V30 6549 C 636.573 -3.86387 2.30272 0
M  V30 6550 C 637.892 -4.39186 0.283423 0
M  V30 6551 H 635.011 -0.712335 0.189072 0
M  V30 6552 H 637.653 -1.53587 1.11852 0
M  V30 6553 H 635.803 -3.87424 0.288949 0
M  V30 6554 H 637.475 -3.60012 2.88425 0
M  V30 6555 H 635.718 -3.34167 2.76613 0
M  V30 6556 H 636.389 -4.94512 2.45279 0
M  V30 6557 H 638.865 -4.09785 0.722187 0
M  V30 6558 H 637.741 -5.46505 0.512169 0
M  V30 6559 H 638.002 -4.34511 -0.815643 0
M  V30 6560 N 637.061 -0.65484 -1.43351 0
M  V30 6561 C 638.307 -0.169142 -2.02093 0
M  V30 6562 C 638.64 1.21431 -1.51553 0
M  V30 6563 O 637.915 1.81105 -0.709317 0
M  V30 6564 C 638.198 -0.181775 -3.59641 0
M  V30 6565 C 638.051 -1.59926 -4.20409 0
M  V30 6566 C 639.37 0.480945 -4.37464 0
M  V30 6567 H 636.489 -0.0629371 -0.734308 0
M  V30 6568 H 639.131 -0.835833 -1.70628 0
M  V30 6569 H 637.281 0.385918 -3.86578 0
M  V30 6570 H 638.953 -2.21766 -4.04497 0
M  V30 6571 H 637.196 -2.14605 -3.76998 0
M  V30 6572 H 637.867 -1.55994 -5.295 0
M  V30 6573 H 640.343 -0.00208273 -4.161 0
M  V30 6574 H 639.219 0.441384 -5.47122 0
M  V30 6575 H 639.48 1.55533 -4.13838 0
M  V30 6576 N 638.539 1.52521 -0.396863 0
M  V30 6577 C 639.787 2.01274 0.182536 0
M  V30 6578 C 640.108 1.28485 1.46685 0
M  V30 6579 O 639.378 0.407134 1.91623 0
M  V30 6580 H 637.958 0.743671 0.0704442 0
M  V30 6581 H 640.62 1.87547 -0.530289 0
M  V30 6582 H 639.716 3.09687 0.387385 0
M  V30 6583 N 640.017 0.126909 1.57088 0
M  V30 6584 C 641.294 -0.573152 1.87014 0
M  V30 6585 C 641.674 -1.84297 1.02945 0
M  V30 6586 O 641.022 -2.28232 0.110573 0
M  V30 6587 C 641.232 -0.857984 3.38289 0
M  V30 6588 C 642.58 -1.20759 4.07066 0
M  V30 6589 O 643.604 -0.947992 3.43353 0
M  V30 6590 O 642.463 -1.69516 5.19545 0
M  V30 6591 H 639.557 -0.290082 0.774456 0
M  V30 6592 H 642.103 0.162008 1.68925 0
M  V30 6593 H 640.875 0.0415286 3.91278 0
M  V30 6594 H 640.498 -1.64803 3.61837 0
M  V30 6595 N 641.495 -1.56914 -0.146875 0
M  V30 6596 C 642.72 -1.87881 -0.878386 0
M  V30 6597 C 643.145 -0.715945 -1.73942 0
M  V30 6598 O 642.503 0.334447 -1.78189 0
M  V30 6599 C 642.551 -3.17431 -1.71084 0
M  V30 6600 O 641.655 -3.01374 -2.81509 0
M  V30 6601 H 640.996 -0.617289 -0.244644 0
M  V30 6602 H 643.526 -2.04136 -0.137654 0
M  V30 6603 H 643.536 -3.49455 -2.10582 0
M  V30 6604 H 642.211 -4.01671 -1.07856 0
M  V30 6605 H 640.788 -2.80758 -2.45416 0
M  V30 6606 N 642.974 0.416227 -1.52004 0
M  V30 6607 C 644.39 0.754319 -1.40649 0
M  V30 6608 C 644.59 1.95059 -0.505392 0
M  V30 6609 O 643.646 2.5248 0.0315057 0
M  V30 6610 C 644.959 1.0149 -2.83055 0
M  V30 6611 C 646.507 1.11805 -2.9235 0
M  V30 6612 C 646.982 1.41144 -4.35709 0
M  V30 6613 N 648.473 1.48024 -4.38911 0
M  V30 6614 C 649.208 1.72338 -5.46889 0
M  V30 6615 N 648.704 1.94303 -6.64995 0
M  V30 6616 N 650.497 1.74294 -5.34395 0
M  V30 6617 H 642.648 -0.371324 -2.09129 0
M  V30 6618 H 644.911 -0.103811 -0.942299 0
M  V30 6619 H 644.617 0.208345 -3.51082 0
M  V30 6620 H 644.491 1.93697 -3.23668 0
M  V30 6621 H 646.878 1.91521 -2.24508 0
M  V30 6622 H 646.959 0.17451 -2.55204 0
M  V30 6623 H 646.603 0.619484 -5.04108 0
M  V30 6624 H 646.533 2.36739 -4.70385 0
M  V30 6625 H 649.024 1.32868 -3.53772 0
M  V30 6626 H 649.337 2.12286 -7.43071 0
M  V30 6627 H 647.682 1.91582 -6.68073 0
M  V30 6628 H 650.873 1.56667 -4.41104 0
M  V30 6629 H 651.046 1.92904 -6.18621 0
M  V30 6630 N 644.452 1.42507 0.673017 0
M  V30 6631 C 645.692 1.44559 1.44507 0
M  V30 6632 C 646.056 0.0606206 1.91904 0
M  V30 6633 O 647.257 -0.044139 2.68764 0
M  V30 6634 C 645.528 2.44291 2.60877 0
M  V30 6635 S 647.087 2.65059 3.49699 0
M  V30 6636 H 643.905 0.51181 0.49353 0
M  V30 6637 H 646.507 1.79124 0.783256 0
M  V30 6638 H 645.211 3.43685 2.24297 0
M  V30 6639 H 644.742 2.11157 3.31928 0
M  V30 6640 H 646.757 1.93494 4.56919 0
M  V30 6641 N 645.93 -0.909495 1.28709 0
M  V30 6642 C 647.158 -1.69272 1.18973 0
M  V30 6643 C 647.573 -1.87123 -0.251048 0
M  V30 6644 O 646.93 -1.40127 -1.16922 0
M  V30 6645 C 646.981 -3.08257 1.88839 0
M  V30 6646 O 646.702 -2.91228 3.27289 0
M  V30 6647 C 648.203 -4.02642 1.85457 0
M  V30 6648 H 645.423 -0.528999 0.412797 0
M  V30 6649 H 647.967 -1.13803 1.69909 0
M  V30 6650 H 646.122 -3.6053 1.41762 0
M  V30 6651 H 646.536 -3.79223 3.6234 0
M  V30 6652 H 648.01 -4.97613 2.38925 0
M  V30 6653 H 648.487 -4.31327 0.827893 0
M  V30 6654 H 649.093 -3.56298 2.32233 0
M  V30 6655 N 647.408 -1.11026 -1.11852 0
M  V30 6656 C 648.338 -0.786812 -2.19844 0
M  V30 6657 C 649.319 0.242935 -1.68356 0
M  V30 6658 O 650.504 0.107355 -1.93903 0
M  V30 6659 C 647.634 -0.224516 -3.46574 0
M  V30 6660 C 646.588 -1.18564 -4.1125 0
M  V30 6661 C 645.914 -0.484261 -5.32503 0
M  V30 6662 C 647.214 -2.53465 -4.56676 0
M  V30 6663 H 648.908 -1.68978 -2.47158 0
M  V30 6664 H 646.454 -0.813906 -1.18792 0
M  V30 6665 H 648.407 0.0139435 -4.21398 0
M  V30 6666 H 647.131 0.713722 -3.18706 0
M  V30 6667 H 645.79 -1.40966 -3.38414 0
M  V30 6668 H 645.438 0.458646 -5.00905 0
M  V30 6669 H 645.138 -1.12526 -5.76725 0
M  V30 6670 H 646.662 -0.254492 -6.10069 0
M  V30 6671 H 648.076 -2.35177 -5.22843 0
M  V30 6672 H 646.473 -3.13507 -5.11697 0
M  V30 6673 H 647.543 -3.13008 -3.70343 0
M  V30 6674 N 648.886 1.2938 -0.899927 0
M  V30 6675 C 650.132 1.9584 -0.526742 0
M  V30 6676 C 650.465 1.70774 0.924651 0
M  V30 6677 O 649.74 1.02084 1.65557 0
M  V30 6678 C 650.023 3.50638 -0.820062 0
M  V30 6679 C 649.876 3.85161 -2.32317 0
M  V30 6680 C 651.195 4.3903 -0.30671 0
M  V30 6681 H 648.314 0.711322 -0.192848 0
M  V30 6682 H 650.956 1.52992 -1.12665 0
M  V30 6683 H 649.106 3.87265 -0.309491 0
M  V30 6684 H 650.778 3.58477 -2.9033 0
M  V30 6685 H 649.021 3.32696 -2.78381 0
M  V30 6686 H 649.692 4.93204 -2.47898 0
M  V30 6687 H 652.168 4.09396 -0.743908 0
M  V30 6688 H 651.044 5.46226 -0.541144 0
M  V30 6689 H 651.305 4.34937 0.792588 0
M  V30 6690 N 650.364 0.662433 1.43002 0
M  V30 6691 C 651.641 0.109096 1.95296 0
M  V30 6692 C 652.021 -1.37313 1.60338 0
M  V30 6693 O 651.369 -2.1032 0.893187 0
M  V30 6694 C 651.579 0.365096 3.47085 0
M  V30 6695 C 652.927 0.274964 4.23709 0
M  V30 6696 O 653.951 0.29816 3.5495 0
M  V30 6697 O 652.81 0.206549 5.4611 0
M  V30 6698 H 649.904 -0.00429724 0.826989 0
M  V30 6699 H 652.45 0.736308 1.52894 0
M  V30 6700 H 651.222 1.39237 3.65689 0
M  V30 6701 H 650.845 -0.294733 3.96506 0
M  V30 6702 N 651.842 -1.52309 0.404946 0
M  V30 6703 C 653.07 -2.06185 -0.171818 0
M  V30 6704 C 653.485 -1.27536 -1.39212 0
M  V30 6705 O 652.842 -0.326112 -1.79563 0
M  V30 6706 C 652.893 -3.57647 -0.526417 0
M  V30 6707 O 652.614 -4.3332 0.645417 0
M  V30 6708 C 654.115 -4.27925 -1.15736 0
M  V30 6709 H 651.335 -0.670632 -0.0222328 0
M  V30 6710 H 653.879 -1.96259 0.574692 0
M  V30 6711 H 652.034 -3.67595 -1.22282 0
M  V30 6712 H 652.448 -5.23328 0.35042 0
M  V30 6713 H 653.922 -5.35093 -1.35572 0
M  V30 6714 H 654.399 -3.84134 -2.12926 0
M  V30 6715 H 655.005 -4.22335 -0.501281 0
M  V30 6716 N 653.32 -0.135238 -1.57019 0
M  V30 6717 C 654.566 0.513232 -1.96818 0
M  V30 6718 C 654.921 1.63245 -1.01827 0
M  V30 6719 O 654.214 1.91532 -0.0511756 0
M  V30 6720 C 654.408 1.07694 -3.40788 0
M  V30 6721 C 654.237 0.0138667 -4.49698 0
M  V30 6722 C 653.007 -0.423532 -5.03522 0
M  V30 6723 C 655.205 -0.77322 -5.08454 0
M  V30 6724 N 653.187 -1.47068 -5.96024 0
M  V30 6725 C 654.558 -1.67115 -5.97053 0
M  V30 6726 C 656.613 -0.822313 -4.91063 0
M  V30 6727 C 655.316 -2.61395 -6.70123 0
M  V30 6728 C 657.342 -1.75288 -5.64826 0
M  V30 6729 C 656.704 -2.63836 -6.53123 0
M  V30 6730 H 652.803 0.156956 -0.766087 0
M  V30 6731 H 655.387 -0.227118 -1.93371 0
M  V30 6732 H 653.558 1.78694 -3.44852 0
M  V30 6733 H 655.29 1.69106 -3.67675 0
M  V30 6734 H 652.045 -0.0280202 -4.73592 0
M  V30 6735 H 652.469 -1.99366 -6.46979 0
M  V30 6736 H 657.111 -0.151822 -4.22527 0
M  V30 6737 H 654.829 -3.2945 -7.37895 0
M  V30 6738 H 658.415 -1.79652 -5.53368 0
M  V30 6739 H 657.295 -3.34672 -7.092 0
M  V30 6740 N 654.798 1.5699 0.138552 0
M  V30 6741 C 656.044 1.84966 0.846116 0
M  V30 6742 C 656.399 0.72038 1.78405 0
M  V30 6743 O 655.692 -0.281076 1.89527 0
M  V30 6744 C 655.886 3.17007 1.65049 0
M  V30 6745 C 655.715 4.42672 0.79194 0
M  V30 6746 C 654.485 5.03254 0.454293 0
M  V30 6747 C 656.683 5.14164 0.118419 0
M  V30 6748 N 654.665 6.12482 -0.416964 0
M  V30 6749 C 656.036 6.16966 -0.61263 0
M  V30 6750 C 658.091 4.97884 0.0399671 0
M  V30 6751 C 656.794 7.0525 -1.41473 0
M  V30 6752 C 658.82 5.86639 -0.748901 0
M  V30 6753 C 658.182 6.88929 -1.4682 0
M  V30 6754 H 654.281 0.727362 0.287172 0
M  V30 6755 H 656.865 1.94383 0.110972 0
M  V30 6756 H 655.036 3.08722 2.35681 0
M  V30 6757 H 656.768 3.3286 2.30187 0
M  V30 6758 H 653.523 4.6693 0.792038 0
M  V30 6759 H 653.947 6.7172 -0.843865 0
M  V30 6760 H 658.589 4.18779 0.581728 0
M  V30 6761 H 656.307 7.83777 -1.96772 0
M  V30 6762 H 659.893 5.7611 -0.811705 0
M  V30 6763 H 658.773 7.56419 -2.06882 0
M  V30 6764 N 656.276 -0.40816 1.52223 0
M  V30 6765 C 657.208 -1.51642 1.71864 0
M  V30 6766 C 658.221 -1.51378 0.599056 0
M  V30 6767 O 659.41 -1.55626 0.874239 0
M  V30 6768 C 656.51 -2.90534 1.74481 0
M  V30 6769 C 655.683 -3.14979 3.03491 0
M  V30 6770 C 654.742 -4.33749 2.97907 0
M  V30 6771 O 653.768 -4.30982 3.71811 0
M  V30 6772 N 654.97 -5.38912 2.15764 0
M  V30 6773 H 657.735 -1.35188 2.67478 0
M  V30 6774 H 655.296 -0.597468 1.50472 0
M  V30 6775 H 657.288 -3.68056 1.68275 0
M  V30 6776 H 655.858 -3.00441 0.863363 0
M  V30 6777 H 655.078 -2.25492 3.23337 0
M  V30 6778 H 656.366 -3.28156 3.88833 0
M  V30 6779 H 655.764 -5.44008 1.55152 0
M  V30 6780 H 654.321 -6.15174 2.15415 0
M  V30 6781 N 657.755 -1.42862 -0.66545 0
M  V30 6782 C 658.983 -1.47246 -1.45349 0
M  V30 6783 C 659.398 -0.0865944 -1.88601 0
M  V30 6784 O 658.755 0.900652 -1.58728 0
M  V30 6785 C 658.806 -2.40772 -2.6965 0
M  V30 6786 O 658.527 -3.73968 -2.2821 0
M  V30 6787 C 660.028 -2.54272 -3.63126 0
M  V30 6788 H 657.248 -0.500497 -0.446927 0
M  V30 6789 H 659.792 -1.87477 -0.816871 0
M  V30 6790 H 657.947 -2.0377 -3.29479 0
M  V30 6791 H 658.361 -4.24146 -3.08546 0
M  V30 6792 H 659.835 -3.23815 -4.47043 0
M  V30 6793 H 660.312 -1.58364 -4.09656 0
M  V30 6794 H 660.918 -2.92036 -3.09185 0
M  V30 6795 N 659.233 0.902656 -1.29189 0
M  V30 6796 C 660.143 2.03946 -1.15944 0
M  V30 6797 C 661.159 1.738 -0.0833803 0
M  V30 6798 O 662.335 1.9923 -0.29487 0
M  V30 6799 C 659.4 3.36519 -0.834006 0
M  V30 6800 C 658.461 3.80203 -1.9936 0
M  V30 6801 C 657.694 5.06449 -1.68359 0
M  V30 6802 O 657.917 5.67202 -0.603141 0
M  V30 6803 O 656.851 5.46114 -2.53067 0
M  V30 6804 H 660.677 2.18043 -2.11403 0
M  V30 6805 H 658.262 1.02584 -1.08613 0
M  V30 6806 H 660.144 4.16089 -0.666949 0
M  V30 6807 H 658.819 3.23573 0.0908245 0
M  V30 6808 H 657.726 3.01413 -2.21588 0
M  V30 6809 H 659.059 3.97729 -2.89952 0
M  V30 6810 N 660.711 1.11618 1.11262 0
M  V30 6811 C 661.939 0.888739 1.8684 0
M  V30 6812 C 662.354 -0.561558 1.80255 0
M  V30 6813 O 661.711 -1.38782 1.18515 0
M  V30 6814 C 661.762 1.34422 3.35579 0
M  V30 6815 O 661.483 2.73766 3.42029 0
M  V30 6816 C 662.984 1.15246 4.28058 0
M  V30 6817 H 660.204 0.318152 0.590779 0
M  V30 6818 H 662.748 1.48398 1.40707 0
M  V30 6819 H 660.903 0.79239 3.7921 0
M  V30 6820 H 661.317 2.9355 4.34659 0
M  V30 6821 H 662.791 1.52015 5.30656 0
M  V30 6822 H 663.268 0.0922007 4.39103 0
M  V30 6823 H 663.874 1.69136 3.90222 0
M  V30 6824 N 662.189 -1.289 0.906776 0
M  V30 6825 C 663.437 -1.94883 0.535266 0
M  V30 6826 C 663.758 -1.71784 -0.922791 0
M  V30 6827 O 663.028 -1.05359 -1.65156 0
M  V30 6828 H 661.608 -0.721109 0.194962 0
M  V30 6829 H 664.27 -1.57018 1.15461 0
M  V30 6830 H 663.366 -3.03591 0.723821 0
M  V30 6831 N 663.667 -0.670007 -1.42649 0
M  V30 6832 C 664.915 -0.18991 -2.01206 0
M  V30 6833 C 665.236 1.20617 -1.53221 0
M  V30 6834 O 664.506 1.80898 -0.751856 0
M  V30 6835 H 663.086 -0.0672189 -0.743969 0
M  V30 6836 H 665.748 -0.865442 -1.74631 0
M  V30 6837 H 664.844 -0.187481 -3.11536 0
M  V30 6838 N 665.145 1.52092 -0.413018 0
M  V30 6839 C 666.394 2.01041 0.16287 0
M  V30 6840 C 666.707 1.30288 1.45892 0
M  V30 6841 O 667.913 1.70075 2.11629 0
M  V30 6842 C 666.369 3.58283 0.340806 0
M  V30 6843 C 665.977 4.37955 -0.943377 0
M  V30 6844 C 667.721 4.15452 0.871774 0
M  V30 6845 C 665.628 5.86847 -0.732417 0
M  V30 6846 H 664.558 0.751224 0.0646414 0
M  V30 6847 H 667.209 1.75404 -0.539059 0
M  V30 6848 H 665.591 3.80266 1.10516 0
M  V30 6849 H 666.765 4.2773 -1.71418 0
M  V30 6850 H 665.08 3.92122 -1.40105 0
M  V30 6851 H 667.677 5.24375 1.0457 0
M  V30 6852 H 668.02 3.73057 1.84755 0
M  V30 6853 H 668.553 3.97452 0.166377 0
M  V30 6854 H 665.292 6.33609 -1.67986 0
M  V30 6855 H 664.812 5.998 -0.000980058 0
M  V30 6856 H 666.491 6.45906 -0.376105 0
M  V30 6857 N 666.623 0.143563 1.56945 0
M  V30 6858 C 667.863 -0.511198 1.97904 0
M  V30 6859 C 668.227 -1.62262 1.0264 0
M  V30 6860 O 669.428 -2.338 1.32631 0
M  V30 6861 C 667.699 -1.00753 3.42905 0
M  V30 6862 S 669.258 -1.66737 4.05887 0
M  V30 6863 H 666.076 -0.165399 0.691494 0
M  V30 6864 H 668.678 0.234464 1.94089 0
M  V30 6865 H 667.382 -0.187817 4.0997 0
M  V30 6866 H 666.913 -1.7879 3.50425 0
M  V30 6867 H 668.928 -2.95444 3.98657 0
M  V30 6868 N 668.101 -1.57061 -0.130224 0
M  V30 6869 C 669.35 -1.83446 -0.838488 0
M  V30 6870 C 669.663 -0.727468 -1.81569 0
M  V30 6871 O 670.869 -0.877394 -2.56932 0
M  V30 6872 C 669.325 -3.25201 -1.54182 0
M  V30 6873 C 668.933 -4.4388 -0.606178 0
M  V30 6874 C 670.677 -3.60844 -2.23588 0
M  V30 6875 C 668.584 -5.76661 -1.31209 0
M  V30 6876 H 667.514 -0.684185 -0.316871 0
M  V30 6877 H 670.165 -1.83273 -0.0912059 0
M  V30 6878 H 668.547 -3.1981 -2.33533 0
M  V30 6879 H 669.721 -4.60545 0.153308 0
M  V30 6880 H 668.036 -4.16395 -0.0196705 0
M  V30 6881 H 670.633 -4.57313 -2.77072 0
M  V30 6882 H 670.976 -2.87724 -3.00867 0
M  V30 6883 H 671.509 -3.67971 -1.51137 0
M  V30 6884 H 668.248 -6.52922 -0.580823 0
M  V30 6885 H 667.768 -5.63902 -2.04387 0
M  V30 6886 H 669.447 -6.20035 -1.8484 0
M  V30 6887 N 669.579 0.400081 -1.52437 0
M  V30 6888 C 670.542 1.4707 -1.75793 0
M  V30 6889 C 671.542 1.48036 -0.627856 0
M  V30 6890 O 672.732 1.49401 -0.895817 0
M  V30 6891 C 669.864 2.86427 -1.84858 0
M  V30 6892 H 671.057 1.27649 -2.71377 0
M  V30 6893 H 668.61 0.631141 -1.42991 0
M  V30 6894 H 669.345 3.11207 -0.912194 0
M  V30 6895 H 669.13 2.87128 -2.6702 0
M  V30 6896 H 670.62 3.64023 -2.04638 0
M  V30 6897 N 671.057 1.43213 0.657864 0
M  V30 6898 C 672.468 1.39669 1.23893 0
M  V30 6899 C 672.819 0.0984217 1.95953 0
M  V30 6900 O 671.944 -0.8023 2.00978 0
M  V30 6901 C 672.539 2.53004 2.25332 0
M  V30 6902 C 671.098 2.5274 2.78926 0
M  V30 6903 C 670.245 2.30941 1.53497 0
M  V30 6904 H 673.196 1.52181 0.450172 0
M  V30 6905 H 673.217 2.24226 3.07413 0
M  V30 6906 H 672.729 3.4748 1.72856 0
M  V30 6907 H 670.83 1.6213 3.35477 0
M  V30 6908 H 670.943 3.50352 3.26787 0
M  V30 6909 H 669.307 1.7952 1.80678 0
M  V30 6910 H 670.09 3.27496 1.02963 0
M  V30 6911 N 672.536 -0.895792 1.29666 0
M  V30 6912 C 673.952 -1.17726 1.07763 0
M  V30 6913 C 674.152 -2.00794 -0.168576 0
M  V30 6914 O 673.208 -2.37213 -0.865244 0
M  V30 6915 C 674.521 -1.89441 2.33522 0
M  V30 6916 C 676.069 -2.02251 2.3888 0
M  V30 6917 C 676.544 -2.77378 3.64452 0
M  V30 6918 N 678.035 -2.8493 3.65198 0
M  V30 6919 C 678.77 -3.43606 4.59045 0
M  V30 6920 N 678.266 -4.03417 5.63228 0
M  V30 6921 N 680.059 -3.41317 4.46608 0
M  V30 6922 H 672.21 -0.341652 2.09634 0
M  V30 6923 H 674.473 -0.213865 0.923561 0
M  V30 6924 H 674.179 -1.35842 3.24407 0
M  V30 6925 H 674.053 -2.89893 2.41334 0
M  V30 6926 H 676.44 -2.55025 1.4848 0
M  V30 6927 H 676.521 -1.0092 2.3505 0
M  V30 6928 H 676.165 -2.25279 4.55205 0
M  V30 6929 H 676.095 -3.79062 3.65541 0
M  V30 6930 H 678.586 -2.42453 2.89871 0
M  V30 6931 H 678.899 -4.46224 6.30955 0
M  V30 6932 H 677.244 -4.01868 5.67033 0
M  V30 6933 H 680.435 -2.93812 3.64407 0
M  V30 6934 H 680.608 -3.86751 5.1993 0
M  V30 6935 N 674.014 -1.12206 -1.10668 0
M  V30 6936 C 675.425 -0.890657 -1.64086 0
M  V30 6937 C 675.776 0.575502 -1.8757 0
M  V30 6938 O 674.901 1.4394 -1.61587 0
M  V30 6939 C 675.496 -1.61029 -2.98085 0
M  V30 6940 C 674.055 -1.4251 -3.48379 0
M  V30 6941 C 673.202 -1.64778 -2.23033 0
M  V30 6942 H 676.153 -1.27718 -0.94201 0
M  V30 6943 H 676.174 -1.05993 -3.65439 0
M  V30 6944 H 675.686 -2.67735 -2.80962 0
M  V30 6945 H 673.787 -0.380497 -3.70652 0
M  V30 6946 H 673.9 -2.17959 -4.26651 0
M  V30 6947 H 672.264 -1.07171 -2.31055 0
M  V30 6948 H 673.047 -2.72776 -2.08443 0
M  V30 6949 N 675.492 1.28418 -0.913599 0
M  V30 6950 C 676.717 1.99643 -0.561899 0
M  V30 6951 C 677.142 1.67819 0.849608 0
M  V30 6952 O 676.5 0.910503 1.56779 0
M  V30 6953 C 676.548 3.52116 -0.777622 0
M  V30 6954 O 675.652 4.12076 0.163457 0
M  V30 6955 H 674.993 0.627229 -0.217898 0
M  V30 6956 H 677.523 1.63575 -1.229 0
M  V30 6957 H 677.533 4.02163 -0.687666 0
M  V30 6958 H 676.208 3.74613 -1.8066 0
M  V30 6959 H 674.785 3.72892 0.0247827 0
M  V30 6960 N 676.97 0.677563 1.42291 0
M  V30 6961 C 677.88 0.000962654 2.346 0
M  V30 6962 C 678.896 -0.785833 1.55244 0
M  V30 6963 O 680.072 -0.727523 1.87801 0
M  V30 6964 C 677.137 -0.936746 3.33805 0
M  V30 6965 C 676.198 -0.144173 4.29058 0
M  V30 6966 C 675.431 -1.03722 5.23524 0
M  V30 6967 O 675.654 -2.27675 5.22992 0
M  V30 6968 O 674.588 -0.496542 5.99848 0
M  V30 6969 H 678.414 0.761397 2.94001 0
M  V30 6970 H 675.999 0.43781 1.42841 0
M  V30 6971 H 677.881 -1.47497 3.94744 0
M  V30 6972 H 676.556 -1.67698 2.76874 0
M  V30 6973 H 675.463 0.438224 3.71524 0
M  V30 6974 H 676.796 0.55701 4.89038 0
M  V30 6975 N 678.448 -1.51871 0.421078 0
M  V30 6976 C 679.358 -2.31077 -0.405069 0
M  V30 6977 C 680.374 -1.39301 -1.04265 0
M  V30 6978 O 681.55 -1.72376 -1.04157 0
M  V30 6979 C 678.615 -3.12556 -1.50032 0
M  V30 6980 C 677.676 -4.20088 -0.884559 0
M  V30 6981 C 676.909 -4.97673 -1.92762 0
M  V30 6982 O 677.132 -4.75696 -3.14753 0
M  V30 6983 O 676.066 -5.82203 -1.52719 0
M  V30 6984 H 679.892 -3.02742 0.241086 0
M  V30 6985 H 677.477 -1.48263 0.183991 0
M  V30 6986 H 679.359 -3.6326 -2.13589 0
M  V30 6987 H 678.034 -2.43672 -2.13086 0
M  V30 6988 H 676.941 -3.73502 -0.211379 0
M  V30 6989 H 678.274 -4.91298 -0.297763 0
M  V30 6990 N 679.926 -0.151884 -1.56866 0
M  V30 6991 C 681.174 0.497021 -1.95893 0
M  V30 6992 C 681.495 1.65078 -1.03799 0
M  V30 6993 O 680.765 1.95642 -0.10049 0
M  V30 6994 H 679.345 0.186603 -0.723318 0
M  V30 6995 H 682.007 -0.228525 -1.93556 0
M  V30 6996 H 681.103 0.869933 -2.99731 0
M  V30 6997 N 681.404 1.57128 0.121893 0
M  V30 6998 C 682.367 1.99197 1.13372 0
M  V30 6999 C 683.367 0.881728 1.3447 0
M  V30 7000 O 684.557 1.14783 1.31036 0
M  V30 7001 C 681.689 2.32963 2.4888 0
M  V30 7002 H 682.882 2.89788 0.772204 0
M  V30 7003 H 680.435 1.51952 0.366093 0
M  V30 7004 H 681.17 1.45243 2.89957 0
M  V30 7005 H 680.955 3.13934 2.34921 0
M  V30 7006 H 682.445 2.66261 3.21706 0
M  V30 7007 N 682.882 -0.391992 1.52647 0
M  V30 7008 C 683.792 -1.503 1.80131 0
M  V30 7009 C 684.808 -1.59825 0.687882 0
M  V30 7010 O 685.984 -1.76218 0.975149 0
M  V30 7011 C 683.049 -2.85863 1.96171 0
M  V30 7012 C 682.11 -2.86084 3.20085 0
M  V30 7013 C 681.343 -4.15181 3.35351 0
M  V30 7014 O 681.566 -5.09981 2.55491 0
M  V30 7015 O 680.5 -4.22603 4.28591 0
M  V30 7016 H 684.326 -1.30007 2.74466 0
M  V30 7017 H 681.911 -0.579539 1.37701 0
M  V30 7018 H 683.793 -3.66236 2.08445 0
M  V30 7019 H 682.468 -3.06189 1.05025 0
M  V30 7020 H 681.375 -2.04504 3.13256 0
M  V30 7021 H 682.708 -2.7071 4.11068 0
M  V30 7022 N 684.36 -1.4356 -0.65026 0
M  V30 7023 C 685.609 -1.44619 -1.406 0
M  V30 7024 C 685.922 -0.0752645 -1.95455 0
M  V30 7025 O 687.128 0.0366832 -2.71475 0
M  V30 7026 C 685.584 -2.54511 -2.54465 0
M  V30 7027 C 685.192 -3.97723 -2.06204 0
M  V30 7028 C 686.936 -2.64768 -3.31811 0
M  V30 7029 C 684.843 -4.99075 -3.17298 0
M  V30 7030 H 683.773 -0.537983 -0.52829 0
M  V30 7031 H 686.424 -1.69559 -0.701561 0
M  V30 7032 H 684.806 -2.22777 -3.27393 0
M  V30 7033 H 685.98 -4.38932 -1.40267 0
M  V30 7034 H 684.295 -3.91538 -1.41729 0
M  V30 7035 H 686.892 -3.37664 -4.14593 0
M  V30 7036 H 687.235 -1.69936 -3.80036 0
M  V30 7037 H 687.768 -2.95817 -2.65964 0
M  V30 7038 H 684.507 -5.95469 -2.74038 0
M  V30 7039 H 684.027 -4.62476 -3.81937 0
M  V30 7040 H 685.706 -5.21913 -3.82382 0
M  V30 7041 N 685.838 0.888903 -1.30139 0
M  V30 7042 C 686.768 2.01046 -1.18755 0
M  V30 7043 C 687.749 1.69916 -0.0791438 0
M  V30 7044 O 688.934 1.92445 -0.260498 0
M  V30 7045 C 686.064 3.36109 -0.874518 0
M  V30 7046 C 685.018 3.81486 -1.94043 0
M  V30 7047 C 684.344 5.13796 -1.48047 0
M  V30 7048 C 685.644 4.00637 -3.35093 0
M  V30 7049 H 687.338 2.10828 -2.12584 0
M  V30 7050 H 684.884 1.01298 -1.02346 0
M  V30 7051 H 686.837 4.14089 -0.781548 0
M  V30 7052 H 685.561 3.26449 0.0994519 0
M  V30 7053 H 684.22 3.05731 -2.02297 0
M  V30 7054 H 683.868 5.0056 -0.494878 0
M  V30 7055 H 683.568 5.45127 -2.19341 0
M  V30 7056 H 685.092 5.94305 -1.40121 0
M  V30 7057 H 686.506 4.69067 -3.2962 0
M  V30 7058 H 684.903 4.43339 -4.04438 0
M  V30 7059 H 685.973 3.0462 -3.77273 0
M  V30 7060 N 687.317 1.12792 1.10072 0
M  V30 7061 C 688.728 0.899346 1.63611 0
M  V30 7062 C 689.079 -0.565547 1.87872 0
M  V30 7063 O 688.204 -1.43081 1.62348 0
M  V30 7064 C 688.799 1.62608 2.97227 0
M  V30 7065 C 687.358 1.44356 3.47618 0
M  V30 7066 C 686.505 1.65958 2.22156 0
M  V30 7067 H 689.456 1.28216 0.935223 0
M  V30 7068 H 689.477 1.0793 3.64872 0
M  V30 7069 H 688.989 2.69221 2.79538 0
M  V30 7070 H 687.09 0.400148 3.70445 0
M  V30 7071 H 687.203 2.20218 4.25489 0
M  V30 7072 H 685.567 1.08395 2.30484 0
M  V30 7073 H 686.35 2.73877 2.06993 0
M  V30 7074 N 688.795 -1.27931 0.920396 0
M  V30 7075 C 689.758 -2.25345 0.41858 0
M  V30 7076 C 690.758 -1.54116 -0.458798 0
M  V30 7077 O 691.948 -1.72235 -0.260912 0
M  V30 7078 C 689.08 -3.38556 -0.399104 0
M  V30 7079 H 690.273 -2.71251 1.27918 0
M  V30 7080 H 687.826 -1.39728 0.700406 0
M  V30 7081 H 688.561 -2.98021 -1.27882 0
M  V30 7082 H 688.346 -3.91426 0.229863 0
M  V30 7083 H 689.836 -4.10976 -0.740817 0
M  V30 7084 N 690.273 -0.685099 -1.4193 0
M  V30 7085 C 691.206 0.0371639 -2.2817 0
M  V30 7086 C 692.184 0.798436 -1.41647 0
M  V30 7087 O 693.368 0.791428 -1.71081 0
M  V30 7088 C 690.495 1.05993 -3.21688 0
M  V30 7089 C 689.541 0.393043 -4.24685 0
M  V30 7090 S 690.374 -0.856921 -5.28599 0
M  V30 7091 C 691.53 0.164508 -6.25684 0
M  V30 7092 H 691.763 -0.694305 -2.89079 0
M  V30 7093 H 689.296 -0.474999 -1.46912 0
M  V30 7094 H 691.254 1.64489 -3.76103 0
M  V30 7095 H 689.915 1.7639 -2.59895 0
M  V30 7096 H 689.108 1.16513 -4.90348 0
M  V30 7097 H 688.71 -0.118589 -3.73812 0
M  V30 7098 H 691.002 1.02106 -6.69762 0
M  V30 7099 H 691.945 -0.457917 -7.06618 0
M  V30 7100 H 692.353 0.514596 -5.6215 0
M  V30 7101 N 691.751 1.51645 -0.429126 0
M  V30 7102 C 692.714 2.26116 0.374726 0
M  V30 7103 C 693.714 1.29242 0.956714 0
M  V30 7104 O 694.904 1.53022 0.832452 0
M  V30 7105 C 692.036 3.04669 1.52937 0
M  V30 7106 H 693.229 2.9861 -0.277818 0
M  V30 7107 H 690.782 1.55236 -0.182097 0
M  V30 7108 H 691.517 2.36571 2.21821 0
M  V30 7109 H 691.302 3.75814 1.11833 0
M  V30 7110 H 692.792 3.61102 2.09751 0
M  V30 7111 N 693.229 0.160201 1.56784 0
M  V30 7112 C 694.162 -0.812797 2.13234 0
M  V30 7113 C 695.14 -1.2335 1.05942 0
M  V30 7114 O 696.324 -1.32725 1.33852 0
M  V30 7115 C 693.451 -2.09311 2.66283 0
M  V30 7116 C 692.497 -1.8173 3.85845 0
M  V30 7117 S 693.33 -0.996473 5.26147 0
M  V30 7118 C 694.486 -2.28769 5.82594 0
M  V30 7119 H 694.719 -0.332794 2.95432 0
M  V30 7120 H 692.252 -0.0542971 1.54304 0
M  V30 7121 H 694.21 -2.82854 2.97496 0
M  V30 7122 H 692.871 -2.54425 1.84192 0
M  V30 7123 H 692.064 -2.76699 4.21253 0
M  V30 7124 H 691.666 -1.16289 3.55462 0
M  V30 7125 H 693.958 -3.24319 5.9483 0
M  V30 7126 H 694.901 -1.97846 6.79899 0
M  V30 7127 H 695.309 -2.40021 5.10931 0
M  V30 7128 N 694.707 -1.5719 -0.113559 0
M  V30 7129 C 696.123 -1.52607 -0.467253 0
M  V30 7130 C 696.323 -0.874058 -1.81556 0
M  V30 7131 O 695.379 -0.458703 -2.48299 0
M  V30 7132 C 696.692 -2.97363 -0.446736 0
M  V30 7133 C 698.24 -3.08482 -0.529903 0
M  V30 7134 C 698.715 -4.54809 -0.539721 0
M  V30 7135 N 700.206 -4.59284 -0.601005 0
M  V30 7136 C 700.941 -5.69927 -0.630138 0
M  V30 7137 N 700.437 -6.90051 -0.616589 0
M  V30 7138 N 702.23 -5.5805 -0.673558 0
M  V30 7139 H 694.381 -1.97958 0.769819 0
M  V30 7140 H 696.644 -0.90428 0.284572 0
M  V30 7141 H 696.35 -3.48458 0.47643 0
M  V30 7142 H 696.224 -3.55086 -1.27254 0
M  V30 7143 H 698.611 -2.57386 -1.44349 0
M  V30 7144 H 698.692 -2.53744 0.323695 0
M  V30 7145 H 698.336 -5.06552 0.369843 0
M  V30 7146 H 698.266 -5.07364 -1.41028 0
M  V30 7147 H 700.757 -3.72822 -0.617419 0
M  V30 7148 H 701.07 -7.70132 -0.641592 0
M  V30 7149 H 699.415 -6.92543 -0.583927 0
M  V30 7150 H 702.606 -4.63112 -0.681544 0
M  V30 7151 H 702.779 -6.44286 -0.692794 0
M  V30 7152 N 696.185 0.383891 -1.52853 0
M  V30 7153 C 697.596 0.961591 -1.60032 0
M  V30 7154 C 697.947 1.90819 -0.456333 0
M  V30 7155 O 697.072 2.12288 0.419873 0
M  V30 7156 C 697.667 1.75078 -2.90057 0
M  V30 7157 C 696.226 2.2781 -2.99632 0
M  V30 7158 C 695.373 1.08512 -2.55187 0
M  V30 7159 H 698.324 0.163269 -1.57858 0
M  V30 7160 H 698.345 2.61046 -2.7683 0
M  V30 7161 H 697.857 1.06157 -3.73299 0
M  V30 7162 H 695.958 3.00028 -2.20939 0
M  V30 7163 H 696.071 2.56947 -4.0437 0
M  V30 7164 H 694.435 1.44667 -2.09627 0
M  V30 7165 H 695.218 0.41118 -3.40829 0
M  V30 7166 N 697.663 1.43903 0.642637 0
M  V30 7167 C 698.91 1.46079 1.40239 0
M  V30 7168 C 699.238 0.0890335 1.94296 0
M  V30 7169 O 698.493 -0.907533 1.73385 0
M  V30 7170 C 698.792 2.45907 2.59354 0
M  V30 7171 C 698.458 3.91522 2.23654 0
M  V30 7172 C 697.12 4.31179 2.1363 0
M  V30 7173 C 699.472 4.83242 1.95261 0
M  V30 7174 C 696.8 5.60495 1.73384 0
M  V30 7175 C 699.152 6.12933 1.56511 0
M  V30 7176 C 697.816 6.51556 1.4502 0
M  V30 7177 H 697.086 0.534542 0.513172 0
M  V30 7178 H 699.733 1.77047 0.72984 0
M  V30 7179 H 698.038 2.08381 3.3179 0
M  V30 7180 H 699.735 2.44842 3.17574 0
M  V30 7181 H 696.325 3.60142 2.32369 0
M  V30 7182 H 700.509 4.53367 2.0192 0
M  V30 7183 H 695.765 5.89249 1.63082 0
M  V30 7184 H 699.939 6.83469 1.33576 0
M  V30 7185 H 697.566 7.51663 1.13606 0
M  V30 7186 N 699.141 -0.881989 1.30609 0
M  V30 7187 C 700.388 -1.63405 1.19604 0
M  V30 7188 C 700.716 -1.92905 -0.248574 0
M  V30 7189 O 699.971 -1.55062 -1.19391 0
M  V30 7190 C 700.27 -2.97999 1.97311 0
M  V30 7191 C 699.936 -2.88039 3.46907 0
M  V30 7192 C 698.598 -2.85029 3.877 0
M  V30 7193 C 700.95 -2.75948 4.42156 0
M  V30 7194 C 698.278 -2.67772 5.2203 0
M  V30 7195 C 700.63 -2.60228 5.76597 0
M  V30 7196 C 699.294 -2.55595 6.16626 0
M  V30 7197 H 698.564 -0.597941 0.437662 0
M  V30 7198 H 701.211 -1.02524 1.61744 0
M  V30 7199 H 699.516 -3.62847 1.47815 0
M  V30 7200 H 701.213 -3.55156 1.86186 0
M  V30 7201 H 697.803 -2.91192 3.14492 0
M  V30 7202 H 701.987 -2.77337 4.1158 0
M  V30 7203 H 697.243 -2.62601 5.52133 0
M  V30 7204 H 701.417 -2.49847 6.50038 0
M  V30 7205 H 699.044 -2.41981 7.20659 0
M  V30 7206 N 700.619 -1.13374 -1.09472 0
M  V30 7207 C 701.867 -0.893422 -1.8128 0
M  V30 7208 C 702.188 0.582029 -1.86111 0
M  V30 7209 O 701.458 1.42305 -1.34633 0
M  V30 7210 H 700.038 -0.327543 -0.67136 0
M  V30 7211 H 702.7 -1.43018 -1.32408 0
M  V30 7212 H 701.796 -1.28374 -2.84476 0
M  V30 7213 N 702.098 1.27442 -0.927168 0
M  V30 7214 C 703.347 1.93679 -0.563146 0
M  V30 7215 C 703.66 1.73673 0.899837 0
M  V30 7216 O 704.866 2.34247 1.37262 0
M  V30 7217 C 703.322 3.46961 -0.95636 0
M  V30 7218 C 702.93 3.75724 -2.43999 0
M  V30 7219 C 704.674 4.19282 -0.663565 0
M  V30 7220 C 702.581 5.22378 -2.77263 0
M  V30 7221 H 701.511 0.725059 -0.206894 0
M  V30 7222 H 704.162 1.44743 -1.12791 0
M  V30 7223 H 702.544 3.94703 -0.320254 0
M  V30 7224 H 703.718 3.38741 -3.12396 0
M  V30 7225 H 702.033 3.16605 -2.70463 0
M  V30 7226 H 704.63 5.27265 -0.888596 0
M  V30 7227 H 704.973 4.14382 0.399198 0
M  V30 7228 H 705.506 3.7736 -1.25875 0
M  V30 7229 H 702.245 5.32367 -3.82446 0
M  V30 7230 H 701.765 5.6051 -2.13516 0
M  V30 7231 H 703.444 5.9025 -2.64979 0
M  V30 7232 N 703.576 0.692616 1.41565 0
M  V30 7233 C 704.822 0.222664 2.01574 0
M  V30 7234 C 705.155 -1.1737 1.54719 0
M  V30 7235 O 704.43 -1.79161 0.757084 0
M  V30 7236 C 704.713 0.277064 3.59033 0
M  V30 7237 C 704.566 1.71016 4.16021 0
M  V30 7238 C 705.885 -0.36479 4.38586 0
M  V30 7239 H 703.004 0.0823839 0.732381 0
M  V30 7240 H 705.646 0.880778 1.68352 0
M  V30 7241 H 703.796 -0.283288 3.87466 0
M  V30 7242 H 705.468 2.32413 3.98475 0
M  V30 7243 H 703.711 2.24525 3.71175 0
M  V30 7244 H 704.382 1.69978 5.25178 0
M  V30 7245 H 706.858 0.112404 4.15948 0
M  V30 7246 H 705.734 -0.296169 5.481 0
M  V30 7247 H 705.995 -1.44506 4.17816 0
M  V30 7248 N 705.054 -1.51416 0.437162 0
M  V30 7249 C 706.465 -1.86682 -0.0260005 0
M  V30 7250 C 706.816 -1.35432 -1.4196 0
M  V30 7251 O 705.941 -0.705055 -2.04592 0
M  V30 7252 C 706.536 -3.38757 -0.0539577 0
M  V30 7253 C 705.095 -3.7356 -0.461532 0
M  V30 7254 C 704.242 -2.75134 0.345924 0
M  V30 7255 H 707.193 -1.44642 0.653013 0
M  V30 7256 H 707.214 -3.70573 -0.863478 0
M  V30 7257 H 706.726 -3.76028 0.96045 0
M  V30 7258 H 704.827 -3.41878 -1.48155 0
M  V30 7259 H 704.94 -4.78737 -0.186451 0
M  V30 7260 H 703.304 -2.53947 -0.195739 0
M  V30 7261 H 704.087 -3.15247 1.35921 0
M  V30 7262 N 706.532 -0.168513 -1.56696 0
M  V30 7263 C 707.778 0.477865 -1.9709 0
M  V30 7264 C 708.111 1.63084 -1.05438 0
M  V30 7265 O 707.386 1.94238 -0.10095 0
M  V30 7266 C 707.669 0.963521 -3.4697 0
M  V30 7267 C 707.522 -0.189443 -4.49401 0
M  V30 7268 C 708.841 1.83813 -3.99876 0
M  V30 7269 H 705.96 0.172229 -0.716593 0
M  V30 7270 H 708.602 -0.254083 -1.88293 0
M  V30 7271 H 706.752 1.58724 -3.54597 0
M  V30 7272 H 708.424 -0.826451 -4.53836 0
M  V30 7273 H 706.667 -0.845366 -4.25483 0
M  V30 7274 H 707.338 0.192446 -5.51664 0
M  V30 7275 H 709.814 1.31235 -3.94863 0
M  V30 7276 H 708.69 2.14697 -5.0517 0
M  V30 7277 H 708.951 2.78289 -3.43523 0
M  V30 7278 N 708.01 1.57248 0.105221 0
M  V30 7279 C 708.94 2.04374 1.12931 0
M  V30 7280 C 709.921 0.93074 1.42377 0
M  V30 7281 O 711.106 1.20136 1.52581 0
M  V30 7282 C 708.236 2.45967 2.45189 0
M  V30 7283 C 707.19 3.60838 2.30174 0
M  V30 7284 C 706.516 3.88374 3.67518 0
M  V30 7285 C 707.816 4.92084 1.75073 0
M  V30 7286 H 709.51 2.9018 0.737287 0
M  V30 7287 H 707.056 1.39601 0.353211 0
M  V30 7288 H 709.009 2.77542 3.17094 0
M  V30 7289 H 707.733 1.57148 2.86308 0
M  V30 7290 H 706.392 3.29493 1.60716 0
M  V30 7291 H 706.04 2.96739 4.06147 0
M  V30 7292 H 705.74 4.65703 3.58321 0
M  V30 7293 H 707.264 4.22415 4.40906 0
M  V30 7294 H 708.678 5.22106 2.36809 0
M  V30 7295 H 707.075 5.73507 1.76662 0
M  V30 7296 H 708.145 4.79684 0.709347 0
M  V30 7297 N 709.488 -0.375779 1.53054 0
M  V30 7298 C 710.421 -1.48187 1.7354 0
M  V30 7299 C 711.399 -1.5177 0.583495 0
M  V30 7300 O 712.583 -1.69976 0.81488 0
M  V30 7301 C 709.71 -2.86598 1.80497 0
M  V30 7302 C 708.756 -3.00784 3.02376 0
M  V30 7303 S 709.589 -2.70601 4.62099 0
M  V30 7304 C 710.745 -4.11181 4.71891 0
M  V30 7305 H 710.978 -1.30587 2.67085 0
M  V30 7306 H 708.511 -0.569485 1.43514 0
M  V30 7307 H 710.469 -3.66353 1.85192 0
M  V30 7308 H 709.13 -3.01514 0.880217 0
M  V30 7309 H 708.323 -4.02128 3.03824 0
M  V30 7310 H 707.925 -2.28939 2.95742 0
M  V30 7311 H 710.217 -5.0529 4.51319 0
M  V30 7312 H 711.16 -4.14742 5.73929 0
M  V30 7313 H 711.568 -3.97706 4.00612 0
M  V30 7314 N 710.966 -1.44241 -0.634997 0
M  V30 7315 C 712.243 -1.37296 -1.39317 0
M  V30 7316 C 712.623 -0.0297532 -2.11079 0
M  V30 7317 O 711.971 0.987524 -2.06059 0
M  V30 7318 C 712.181 -2.56853 -2.36279 0
M  V30 7319 C 713.529 -3.00747 -2.99728 0
M  V30 7320 O 714.553 -2.5703 -2.46605 0
M  V30 7321 O 713.412 -3.76533 -3.96087 0
M  V30 7322 H 710.506 -0.543503 -0.623325 0
M  V30 7323 H 713.052 -1.56324 -0.660376 0
M  V30 7324 H 711.824 -3.46228 -1.82324 0
M  V30 7325 H 711.447 -2.40019 -3.16981 0
M  V30 7326 N 712.444 0.87505 -1.31075 0
M  V30 7327 C 713.354 2.01441 -1.20244 0
M  V30 7328 C 714.37 1.73584 -0.120227 0
M  V30 7329 O 715.546 1.98559 -0.337063 0
M  V30 7330 C 712.611 3.34675 -0.905199 0
M  V30 7331 C 711.672 3.75889 -2.0738 0
M  V30 7332 C 710.905 5.02764 -1.79064 0
M  V30 7333 O 711.128 5.65795 -0.723318 0
M  V30 7334 O 710.062 5.40623 -2.64594 0
M  V30 7335 H 713.888 2.13509 -2.1598 0
M  V30 7336 H 711.473 1.00257 -1.10765 0
M  V30 7337 H 713.355 4.1458 -0.755057 0
M  V30 7338 H 712.03 3.23692 0.0221695 0
M  V30 7339 H 710.937 2.96645 -2.27931 0
M  V30 7340 H 712.27 3.91489 -2.98324 0
M  V30 7341 N 713.922 1.13953 1.08869 0
M  V30 7342 C 714.869 0.82213 2.15661 0
M  V30 7343 C 715.839 -0.218274 1.6466 0
M  V30 7344 O 717.024 -0.0892475 1.90591 0
M  V30 7345 C 714.164 0.300572 3.43789 0
M  V30 7346 C 713.277 1.40071 4.08661 0
M  V30 7347 C 712.412 0.836897 5.24566 0
M  V30 7348 C 711.451 1.91504 5.81371 0
M  V30 7349 N 710.588 1.36875 6.88629 0
M  V30 7350 H 715.428 1.73683 2.42153 0
M  V30 7351 H 712.965 0.866879 1.18843 0
M  V30 7352 H 714.923 -0.0199943 4.17195 0
M  V30 7353 H 713.553 -0.577248 3.17597 0
M  V30 7354 H 712.605 1.83776 3.33062 0
M  V30 7355 H 713.917 2.21534 4.46905 0
M  V30 7356 H 713.071 0.467953 6.04893 0
M  V30 7357 H 711.81 -0.00874207 4.87699 0
M  V30 7358 H 710.815 2.29299 4.99702 0
M  V30 7359 H 712.04 2.76419 6.20298 0
M  V30 7360 H 709.986 0.545211 6.5373 0
M  V30 7361 H 709.903 2.1198 7.25672 0
M  V30 7362 H 711.171 1.02756 7.72698 0
M  V30 7363 N 715.4 -1.26948 0.933913 0
M  V30 7364 C 716.648 -1.93704 0.576484 0
M  V30 7365 C 716.969 -1.73702 -0.886145 0
M  V30 7366 O 716.239 -1.08838 -1.62884 0
M  V30 7367 H 714.819 -0.716812 0.210214 0
M  V30 7368 H 717.481 -1.54534 1.18766 0
M  V30 7369 H 716.577 -3.01987 0.788055 0
M  V30 7370 N 716.879 -0.700114 -1.41195 0
M  V30 7371 C 718.104 -0.240704 -2.05998 0
M  V30 7372 C 718.529 1.10313 -1.52357 0
M  V30 7373 O 717.887 1.69154 -0.652424 0
M  V30 7374 C 717.935 -0.213783 -3.59966 0
M  V30 7375 O 717.039 0.809933 -4.04368 0
M  V30 7376 H 716.38 -0.116471 -0.653705 0
M  V30 7377 H 718.91 -0.956251 -1.80878 0
M  V30 7378 H 718.92 -0.0461852 -4.07974 0
M  V30 7379 H 717.595 -1.19454 -3.98376 0
M  V30 7380 H 716.172 0.611319 -3.67855 0
M  V30 7381 N 718.357 1.51182 -0.445186 0
M  V30 7382 C 719.603 2.02452 0.11882 0
M  V30 7383 C 719.936 1.32824 1.41673 0
M  V30 7384 O 719.211 0.445637 1.89326 0
M  V30 7385 C 719.494 3.5859 0.329475 0
M  V30 7386 C 719.347 4.38823 -0.987638 0
M  V30 7387 C 720.666 4.26241 1.09575 0
M  V30 7388 H 717.785 0.735819 0.0417092 0
M  V30 7389 H 720.427 1.80747 -0.585718 0
M  V30 7390 H 718.577 3.77214 0.9296 0
M  V30 7391 H 720.249 4.3183 -1.62235 0
M  V30 7392 H 718.492 4.03594 -1.59041 0
M  V30 7393 H 719.163 5.46257 -0.794192 0
M  V30 7394 H 721.639 4.11934 0.587328 0
M  V30 7395 H 720.515 5.35354 1.21191 0
M  V30 7396 H 720.776 3.87635 2.12584 0
M  V30 7397 N 719.835 0.176821 1.56605 0
M  V30 7398 C 721.081 -0.467406 1.9734 0
M  V30 7399 C 721.414 -1.62523 1.06301 0
M  V30 7400 O 720.689 -1.94182 0.11125 0
M  V30 7401 C 720.972 -0.945106 3.47476 0
M  V30 7402 C 720.825 0.213273 4.49294 0
M  V30 7403 C 722.144 -1.8169 4.00845 0
M  V30 7404 H 719.263 -0.168426 0.717497 0
M  V30 7405 H 721.905 0.264065 1.88156 0
M  V30 7406 H 720.055 -1.56841 3.55434 0
M  V30 7407 H 721.727 0.850508 4.53392 0
M  V30 7408 H 719.97 0.867918 4.25029 0
M  V30 7409 H 720.641 -0.163187 5.51759 0
M  V30 7410 H 723.117 -1.29139 3.95553 0
M  V30 7411 H 721.993 -2.12015 5.06301 0
M  V30 7412 H 722.254 -2.76463 3.44994 0
M  V30 7413 N 721.313 -1.57302 -0.09688 0
M  V30 7414 C 722.223 -2.05258 -1.13606 0
M  V30 7415 C 723.239 -0.977137 -1.43972 0
M  V30 7416 O 724.415 -1.29018 -1.54649 0
M  V30 7417 C 721.48 -2.46593 -2.43706 0
M  V30 7418 C 720.541 -3.68322 -2.20538 0
M  V30 7419 C 719.774 -4.07676 -3.44435 0
M  V30 7420 O 719.997 -3.47141 -4.52603 0
M  V30 7421 O 718.931 -5.00641 -3.34129 0
M  V30 7422 H 722.757 -2.94069 -0.758752 0
M  V30 7423 H 720.342 -1.46164 -0.309263 0
M  V30 7424 H 722.224 -2.73814 -3.20318 0
M  V30 7425 H 720.899 -1.6092 -2.80867 0
M  V30 7426 H 719.806 -3.4622 -1.41713 0
M  V30 7427 H 721.139 -4.54769 -1.88271 0
M  V30 7428 N 722.791 0.367657 -1.53252 0
M  V30 7429 C 724.039 1.10832 -1.68999 0
M  V30 7430 C 724.36 1.89894 -0.443306 0
M  V30 7431 O 723.63 1.88235 0.54262 0
M  V30 7432 H 722.21 0.412153 -0.623008 0
M  V30 7433 H 724.872 0.414775 -1.90435 0
M  V30 7434 H 723.968 1.7993 -2.55013 0
M  V30 7435 N 724.269 1.44576 0.627338 0
M  V30 7436 C 725.494 1.51271 1.41887 0
M  V30 7437 C 725.919 0.139814 1.8758 0
M  V30 7438 O 725.277 -0.871746 1.58966 0
M  V30 7439 C 725.325 2.48529 2.61277 0
M  V30 7440 O 724.429 1.98944 3.61241 0
M  V30 7441 H 723.77 0.510668 0.424399 0
M  V30 7442 H 726.3 1.89746 0.765356 0
M  V30 7443 H 726.31 2.66689 3.08773 0
M  V30 7444 H 724.985 3.48249 2.27366 0
M  V30 7445 H 723.562 1.90568 3.20528 0
M  V30 7446 N 725.747 -0.868086 1.31537 0
M  V30 7447 C 726.695 -1.99688 1.1928 0
M  V30 7448 C 727.689 -1.69101 0.100656 0
M  V30 7449 O 728.895 -1.78073 0.262677 0
M  V30 7450 H 725.27 -0.655032 0.369374 0
M  V30 7451 H 727.241 -2.07157 2.14776 0
M  V30 7452 C 725.99 -3.35338 0.918892 0
M  V30 7453 H 725.313 -3.59396 1.75142 0
M  V30 7454 H 726.753 -4.14909 0.873311 0
M  V30 7455 C 725.212 -3.34769 -0.378366 0
M  V30 7456 O 725.742 -3.76716 -1.39456 0
M  V30 7457 N 723.948 -2.87895 -0.39557 0
M  V30 7458 H 723.495 -2.53954 0.431889 0
M  V30 7459 H 723.453 -2.87897 -1.26344 0
M  V30 7460 N 727.225 -1.14528 -1.08264 0
M  V30 7461 C 728.471 -0.91576 -1.80947 0
M  V30 7462 C 728.804 0.55623 -1.86064 0
M  V30 7463 O 728.079 1.41207 -1.33756 0
M  V30 7464 C 728.362 -1.51917 -3.26486 0
M  V30 7465 C 728.215 -3.06111 -3.2957 0
M  V30 7466 C 729.534 -1.19724 -4.23502 0
M  V30 7467 H 726.653 -0.334113 -0.656915 0
M  V30 7468 H 729.295 -1.41547 -1.26746 0
M  V30 7469 H 727.445 -1.0942 -3.72773 0
M  V30 7470 H 729.117 -3.57448 -2.91597 0
M  V30 7471 H 727.36 -3.40483 -2.688 0
M  V30 7472 H 728.031 -3.43438 -4.32151 0
M  V30 7473 H 730.507 -1.56467 -3.85561 0
M  V30 7474 H 729.383 -1.64575 -5.23647 0
M  V30 7475 H 729.644 -0.112771 -4.41956 0
M  V30 7476 N 728.703 1.26451 -0.940633 0
M  V30 7477 C 729.928 1.98407 -0.60412 0
M  V30 7478 C 730.353 1.69584 0.81382 0
M  V30 7479 O 729.711 0.943553 1.54812 0
M  V30 7480 C 729.759 3.50387 -0.852136 0
M  V30 7481 O 728.863 4.1233 0.076013 0
M  V30 7482 H 728.204 0.622466 -0.231153 0
M  V30 7483 H 730.734 1.60932 -1.26342 0
M  V30 7484 H 730.744 4.00614 -0.772816 0
M  V30 7485 H 729.419 3.70696 -1.88566 0
M  V30 7486 H 727.996 3.7286 -0.0543187 0
M  V30 7487 N 730.181 0.707592 1.40822 0
M  V30 7488 C 731.429 0.243189 2.00632 0
M  V30 7489 C 731.75 -1.16512 1.56365 0
M  V30 7490 O 731.02 -1.78841 0.799553 0
M  V30 7491 H 729.6 0.0869203 0.741926 0
M  V30 7492 H 732.262 0.911438 1.72275 0
M  V30 7493 H 731.358 0.270014 3.1093 0
M  V30 7494 N 731.66 -1.50943 0.453197 0
M  V30 7495 C 732.623 -2.26684 -0.338705 0
M  V30 7496 C 733.623 -1.30748 -0.936032 0
M  V30 7497 O 734.813 -1.54327 -0.808002 0
M  V30 7498 C 731.945 -3.07063 -1.48071 0
M  V30 7499 H 733.138 -2.98131 0.325289 0
M  V30 7500 H 730.691 -1.54926 0.206771 0
M  V30 7501 H 731.426 -2.4007 -2.18029 0
M  V30 7502 H 731.211 -3.77545 -1.0584 0
M  V30 7503 H 732.701 -3.64393 -2.0398 0
M  V30 7504 N 733.138 -0.185124 -1.56509 0
M  V30 7505 C 734.068 0.735098 -2.21627 0
M  V30 7506 C 735.049 1.2288 -1.1762 0
M  V30 7507 O 736.234 1.27945 -1.46095 0
M  V30 7508 C 733.364 1.95889 -2.86783 0
M  V30 7509 C 732.318 1.6005 -3.96948 0
M  V30 7510 C 731.644 2.90009 -4.4922 0
M  V30 7511 C 732.944 0.818008 -5.15855 0
M  V30 7512 H 734.638 0.192274 -2.98782 0
M  V30 7513 H 732.184 0.0910393 -1.43712 0
M  V30 7514 H 734.137 2.60779 -3.31017 0
M  V30 7515 H 732.861 2.52608 -2.07018 0
M  V30 7516 H 731.52 0.975237 -3.5339 0
M  V30 7517 H 731.168 3.44797 -3.6623 0
M  V30 7518 H 730.868 2.66778 -5.23549 0
M  V30 7519 H 732.392 3.55904 -4.9615 0
M  V30 7520 H 733.806 1.36979 -5.56695 0
M  V30 7521 H 732.203 0.684207 -5.96187 0
M  V30 7522 H 733.273 -0.182939 -4.84555 0
M  V30 7523 N 734.616 1.57351 0.0885366 0
M  V30 7524 C 735.856 1.88248 0.796362 0
M  V30 7525 C 736.22 0.776915 1.75579 0
M  V30 7526 O 737.421 0.968485 2.50747 0
M  V30 7527 C 735.692 3.24385 1.50031 0
M  V30 7528 S 737.251 3.76991 2.24551 0
M  V30 7529 H 734.069 0.659697 0.265181 0
M  V30 7530 H 736.671 1.95428 0.0531843 0
M  V30 7531 H 735.375 4.02764 0.788 0
M  V30 7532 H 734.906 3.20361 2.28325 0
M  V30 7533 H 736.921 3.50933 3.508 0
M  V30 7534 N 736.094 -0.359525 1.53444 0
M  V30 7535 C 737.343 -1.09886 1.69139 0
M  V30 7536 C 737.656 -1.90285 0.452863 0
M  V30 7537 O 738.862 -2.67033 0.490459 0
M  V30 7538 C 737.318 -2.0028 2.99025 0
M  V30 7539 C 736.926 -1.25164 4.30161 0
M  V30 7540 C 738.67 -2.74168 3.24086 0
M  V30 7541 C 736.577 -2.14494 5.51132 0
M  V30 7542 H 735.507 -0.413936 0.630217 0
M  V30 7543 H 738.158 -0.359434 1.79945 0
M  V30 7544 H 736.54 -2.77978 2.82036 0
M  V30 7545 H 737.714 -0.524867 4.57801 0
M  V30 7546 H 736.029 -0.631116 4.11589 0
M  V30 7547 H 738.626 -3.41243 4.11652 0
M  V30 7548 H 738.969 -3.39868 2.40407 0
M  V30 7549 H 739.502 -2.0355 3.41778 0
M  V30 7550 H 736.241 -1.53362 6.37307 0
M  V30 7551 H 735.761 -2.85004 5.27762 0
M  V30 7552 H 737.44 -2.73914 5.86157 0
M  V30 7553 N 737.572 -1.44907 -0.619662 0
M  V30 7554 C 738.797 -1.52021 -1.41083 0
M  V30 7555 C 739.222 -0.14976 -1.87503 0
M  V30 7556 O 738.58 0.863303 -1.59426 0
M  V30 7557 C 738.628 -2.49911 -2.59955 0
M  V30 7558 O 737.732 -2.00857 -3.60181 0
M  V30 7559 H 737.073 -0.512912 -0.421684 0
M  V30 7560 H 739.603 -1.90149 -0.755282 0
M  V30 7561 H 739.613 -2.68323 -3.07354 0
M  V30 7562 H 738.288 -3.4945 -2.25516 0
M  V30 7563 H 736.865 -1.92265 -3.19513 0
M  V30 7564 N 739.05 0.861098 -1.31996 0
M  V30 7565 C 739.982 1.97551 -1.16216 0
M  V30 7566 C 740.995 1.625 -0.0988527 0
M  V30 7567 O 742.184 1.75091 -0.3472 0
M  V30 7568 C 739.284 3.30376 -0.755307 0
M  V30 7569 C 738.457 3.93711 -1.90552 0
M  V30 7570 C 737.516 5.04862 -1.48328 0
M  V30 7571 O 736.542 5.25204 -2.19431 0
M  V30 7572 N 737.744 5.79283 -0.375656 0
M  V30 7573 H 740.509 2.11632 -2.12208 0
M  V30 7574 H 738.07 1.03559 -1.24448 0
M  V30 7575 H 740.062 4.0213 -0.455364 0
M  V30 7576 H 738.632 3.12395 0.113269 0
M  V30 7577 H 737.852 3.14825 -2.37231 0
M  V30 7578 H 739.14 4.32762 -2.67571 0
M  V30 7579 H 738.538 5.65286 0.216284 0
M  V30 7580 H 737.095 6.5166 -0.135289 0
M  V30 7581 N 740.528 1.15101 1.07655 0
M  V30 7582 C 741.491 0.847625 2.12951 0
M  V30 7583 C 742.491 -0.151227 1.60087 0
M  V30 7584 O 743.681 0.0780399 1.74025 0
M  V30 7585 C 740.813 0.265 3.39868 0
M  V30 7586 H 742.006 1.7809 2.41296 0
M  V30 7587 H 739.559 0.958072 1.23494 0
M  V30 7588 H 740.294 -0.676625 3.17163 0
M  V30 7589 H 740.079 0.984554 3.79538 0
M  V30 7590 H 741.569 0.0702121 4.17541 0
M  V30 7591 N 742.006 -1.2595 0.947325 0
M  V30 7592 C 743.252 -1.94081 0.608604 0
M  V30 7593 C 743.607 -1.72899 -0.844021 0
M  V30 7594 O 742.9 -1.05908 -1.59669 0
M  V30 7595 C 743.094 -3.46034 0.894158 0
M  V30 7596 C 742.923 -3.81994 2.37299 0
M  V30 7597 C 741.693 -4.04431 3.02925 0
M  V30 7598 C 743.891 -3.90069 3.35188 0
M  V30 7599 N 741.873 -4.27325 4.40757 0
M  V30 7600 C 743.244 -4.17567 4.58299 0
M  V30 7601 C 745.299 -3.72721 3.30127 0
M  V30 7602 C 744.002 -4.2952 5.76979 0
M  V30 7603 C 746.028 -3.8591 4.48138 0
M  V30 7604 C 745.39 -4.13812 5.70034 0
M  V30 7605 H 741.489 -0.73273 0.273187 0
M  V30 7606 H 744.073 -1.51898 1.218 0
M  V30 7607 H 742.244 -3.87131 0.313758 0
M  V30 7608 H 743.976 -4.01396 0.516082 0
M  V30 7609 H 740.731 -4.0003 2.53521 0
M  V30 7610 H 741.155 -4.42792 5.12118 0
M  V30 7611 H 745.797 -3.50172 2.36938 0
M  V30 7612 H 743.515 -4.50888 6.70616 0
M  V30 7613 H 747.101 -3.73882 4.45762 0
M  V30 7614 H 745.981 -4.23791 6.59827 0
M  V30 7615 N 743.484 -0.715051 -1.40445 0
M  V30 7616 C 744.895 -0.326763 -1.83818 0
M  V30 7617 C 745.246 1.13851 -1.59789 0
M  V30 7618 O 744.371 1.87611 -1.07848 0
M  V30 7619 C 744.966 -0.586297 -3.33688 0
M  V30 7620 C 743.525 -0.251724 -3.75557 0
M  V30 7621 C 742.672 -0.858928 -2.63662 0
M  V30 7622 H 745.623 -0.914241 -1.2972 0
M  V30 7623 H 745.644 0.148636 -3.8021 0
M  V30 7624 H 745.156 -1.65281 -3.51146 0
M  V30 7625 H 743.257 0.809754 -3.63695 0
M  V30 7626 H 743.37 -0.720348 -4.73654 0
M  V30 7627 H 741.734 -0.287013 -2.53078 0
M  V30 7628 H 742.517 -1.9297 -2.83932 0
M  V30 7629 N 744.962 1.50701 -0.461195 0
M  V30 7630 C 746.21 2.01867 0.0970051 0
M  V30 7631 C 746.531 1.34591 1.41104 0
M  V30 7632 O 745.801 0.488041 1.89723 0
M  V30 7633 H 744.381 0.74599 0.0388392 0
M  V30 7634 H 747.043 1.85129 -0.609357 0
M  V30 7635 H 746.139 3.11051 0.255688 0
M  V30 7636 N 746.441 0.193421 1.56409 0
M  V30 7637 C 747.374 -0.767384 2.1491 0
M  V30 7638 C 748.352 -1.21075 1.08534 0
M  V30 7639 O 749.536 -1.29856 1.36637 0
M  V30 7640 C 746.663 -2.03615 2.70663 0
M  V30 7641 C 745.709 -1.73505 3.89613 0
M  V30 7642 S 746.542 -0.884645 5.28142 0
M  V30 7643 C 747.698 -2.1636 5.87315 0
M  V30 7644 H 747.931 -0.270053 2.96071 0
M  V30 7645 H 745.464 -0.0215546 1.54385 0
M  V30 7646 H 747.422 -2.7648 3.03429 0
M  V30 7647 H 746.083 -2.50461 1.89547 0
M  V30 7648 H 745.276 -2.67701 4.27027 0
M  V30 7649 H 744.878 -1.08723 3.57848 0
M  V30 7650 H 747.17 -3.11629 6.01576 0
M  V30 7651 H 748.113 -1.8338 6.83943 0
M  V30 7652 H 748.521 -2.29129 5.15907 0
M  V30 7653 N 747.919 -1.57396 -0.0801906 0
M  V30 7654 C 748.882 -2.02133 -1.0805 0
M  V30 7655 C 749.882 -0.91707 -1.32085 0
M  V30 7656 O 751.072 -1.18217 -1.27947 0
M  V30 7657 C 748.204 -2.39479 -2.42616 0
M  V30 7658 H 749.397 -2.91733 -0.6951 0
M  V30 7659 H 746.95 -1.52869 -0.325677 0
M  V30 7660 H 747.685 -1.52879 -2.86004 0
M  V30 7661 H 747.47 -3.20052 -2.26515 0
M  V30 7662 H 748.96 -2.74697 -3.14534 0
M  V30 7663 N 749.397 0.351382 -1.53633 0
M  V30 7664 C 750.813 0.693987 -1.43722 0
M  V30 7665 C 751.013 1.9274 -0.587669 0
M  V30 7666 O 750.069 2.52387 -0.0756082 0
M  V30 7667 C 751.382 0.893937 -2.87105 0
M  V30 7668 C 752.93 0.993051 -2.96829 0
M  V30 7669 C 753.405 1.22537 -4.41303 0
M  V30 7670 N 754.896 1.29275 -4.44795 0
M  V30 7671 C 755.631 1.48988 -5.53706 0
M  V30 7672 N 755.127 1.65924 -6.72637 0
M  V30 7673 N 756.92 1.51472 -5.41306 0
M  V30 7674 H 749.071 -0.459688 -2.07366 0
M  V30 7675 H 751.334 -0.143684 -0.937048 0
M  V30 7676 H 751.04 0.0592517 -3.5165 0
M  V30 7677 H 750.914 1.79795 -3.31592 0
M  V30 7678 H 753.301 1.81827 -2.32429 0
M  V30 7679 H 753.382 0.0661119 -2.55715 0
M  V30 7680 H 753.026 0.405117 -5.06282 0
M  V30 7681 H 752.956 2.16575 -4.80003 0
M  V30 7682 H 755.447 1.17743 -3.59089 0
M  V30 7683 H 755.76 1.80578 -7.51406 0
M  V30 7684 H 754.105 1.63075 -6.75597 0
M  V30 7685 H 757.296 1.37818 -4.47352 0
M  V30 7686 H 757.469 1.66493 -6.26246 0
M  V30 7687 N 750.875 1.45233 0.611969 0
M  V30 7688 C 752.103 1.52539 1.39784 0
M  V30 7689 C 752.518 0.156533 1.8815 0
M  V30 7690 O 751.875 -0.84112 1.61961 0
M  V30 7691 C 751.926 2.50614 2.60528 0
M  V30 7692 O 751.647 3.8218 2.14173 0
M  V30 7693 C 753.148 2.67574 3.53439 0
M  V30 7694 H 750.368 0.51674 0.428043 0
M  V30 7695 H 752.912 1.90379 0.746727 0
M  V30 7696 H 751.067 2.15858 3.2169 0
M  V30 7697 H 751.481 4.35305 2.92592 0
M  V30 7698 H 752.955 3.40184 4.34717 0
M  V30 7699 H 753.432 1.73458 4.03496 0
M  V30 7700 H 754.038 3.0331 2.98133 0
M  V30 7701 N 752.353 -0.854086 1.3245 0
M  V30 7702 C 753.602 -1.60318 1.22397 0
M  V30 7703 C 753.915 -1.9444 -0.212664 0
M  V30 7704 O 755.121 -2.67991 -0.435066 0
M  V30 7705 C 753.577 -2.8909 2.1437 0
M  V30 7706 C 753.185 -2.62391 3.63119 0
M  V30 7707 C 754.929 -3.67104 2.13155 0
M  V30 7708 C 752.836 -3.87167 4.47052 0
M  V30 7709 H 751.766 -0.601586 0.454544 0
M  V30 7710 H 754.417 -0.943023 1.57415 0
M  V30 7711 H 752.799 -3.56567 1.72268 0
M  V30 7712 H 753.973 -2.03222 4.13567 0
M  V30 7713 H 752.288 -1.97706 3.66471 0
M  V30 7714 H 754.885 -4.59696 2.731 0
M  V30 7715 H 755.228 -4.00876 1.12268 0
M  V30 7716 H 755.761 -3.06533 2.5354 0
M  V30 7717 H 752.5 -3.58536 5.48755 0
M  V30 7718 H 752.02 -4.45729 4.01355 0
M  V30 7719 H 753.699 -4.549 4.60081 0
M  V30 7720 N 753.831 -1.1567 -1.07043 0
M  V30 7721 C 755.061 -0.956083 -1.83146 0
M  V30 7722 C 755.469 0.498969 -1.82502 0
M  V30 7723 O 754.812 1.35791 -1.23719 0
M  V30 7724 C 754.874 -1.39704 -3.31245 0
M  V30 7725 C 754.538 -2.87045 -3.55604 0
M  V30 7726 C 755.535 -3.85092 -3.49285 0
M  V30 7727 C 753.22 -3.24787 -3.8317 0
M  V30 7728 C 755.214 -5.18885 -3.70185 0
M  V30 7729 C 752.901 -4.58751 -4.03721 0
M  V30 7730 C 753.899 -5.55609 -3.97224 0
M  V30 7731 O 753.587 -6.87154 -4.17223 0
M  V30 7732 H 753.319 -0.339473 -0.58458 0
M  V30 7733 H 755.873 -1.53922 -1.36005 0
M  V30 7734 H 754.103 -0.757326 -3.79212 0
M  V30 7735 H 755.792 -1.16503 -3.88821 0
M  V30 7736 H 756.558 -3.5728 -3.27988 0
M  V30 7737 H 752.437 -2.49979 -3.87339 0
M  V30 7738 H 755.981 -5.94473 -3.6503 0
M  V30 7739 H 751.878 -4.86277 -4.24505 0
M  V30 7740 H 752.646 -6.93618 -4.34553 0
M  V30 7741 N 755.309 1.25446 -0.953992 0
M  V30 7742 C 756.557 1.92762 -0.607227 0
M  V30 7743 C 756.878 1.7509 0.858399 0
M  V30 7744 O 756.148 1.11416 1.61132 0
M  V30 7745 H 754.728 0.713377 -0.221591 0
M  V30 7746 H 757.39 1.52625 -1.21209 0
M  V30 7747 H 756.486 3.00695 -0.835998 0
M  V30 7748 N 756.787 0.722489 1.40064 0
M  V30 7749 C 758.064 0.191829 1.94657 0
M  V30 7750 C 758.444 -1.30389 1.66018 0
M  V30 7751 O 757.792 -2.06342 0.981588 0
M  V30 7752 C 758.002 0.511978 3.45224 0
M  V30 7753 C 759.35 0.454426 4.22161 0
M  V30 7754 O 760.374 0.448438 3.53366 0
M  V30 7755 O 759.233 0.437986 5.44742 0
M  V30 7756 H 756.327 0.0307821 0.826427 0
M  V30 7757 H 758.873 0.800493 1.49634 0
M  V30 7758 H 757.645 1.54622 3.59455 0
M  V30 7759 H 757.268 -0.126296 3.97399 0
M  V30 7760 N 758.265 -1.50454 0.469181 0
M  V30 7761 C 759.215 -2.25381 -0.344582 0
M  V30 7762 C 760.199 -1.28892 -0.963098 0
M  V30 7763 O 761.391 -1.53805 -0.875964 0
M  V30 7764 C 758.52 -3.12232 -1.4271 0
M  V30 7765 C 757.606 -4.16168 -0.816411 0
M  V30 7766 N 757.997 -5.05762 0.0621424 0
M  V30 7767 C 756.295 -4.32712 -1.08056 0
M  V30 7768 C 756.996 -5.80264 0.408519 0
M  V30 7769 N 755.972 -5.43171 -0.215827 0
M  V30 7770 H 759.774 -2.92016 0.332237 0
M  V30 7771 H 757.288 -1.59911 0.283209 0
M  V30 7772 H 759.285 -3.64514 -2.02324 0
M  V30 7773 H 757.945 -2.47145 -2.10593 0
M  V30 7774 H 758.956 -5.16105 0.430841 0
M  V30 7775 H 755.633 -3.78844 -1.75452 0
M  V30 7776 H 757.023 -6.62408 1.12539 0
M  V30 7777 N 759.743 -0.201713 -1.56304 0
M  V30 7778 C 760.675 0.748466 -2.16635 0
M  V30 7779 C 761.688 1.172 -1.12996 0
M  V30 7780 O 762.877 1.10658 -1.40061 0
M  V30 7781 C 759.977 2.02296 -2.719 0
M  V30 7782 C 759.15 1.75818 -4.00508 0
M  V30 7783 C 758.209 2.87779 -4.40533 0
M  V30 7784 O 757.235 2.57101 -5.07826 0
M  V30 7785 N 758.437 4.16287 -4.04581 0
M  V30 7786 H 761.202 0.232505 -2.98797 0
M  V30 7787 H 758.763 -0.0199822 -1.61888 0
M  V30 7788 H 760.755 2.7635 -2.95657 0
M  V30 7789 H 759.325 2.44996 -1.94154 0
M  V30 7790 H 758.545 0.855095 -3.84814 0
M  V30 7791 H 759.833 1.55532 -4.84445 0
M  V30 7792 H 759.231 4.44061 -3.50466 0
M  V30 7793 H 757.788 4.86946 -4.33274 0
M  V30 7794 N 761.222 1.57436 0.0718424 0
M  V30 7795 C 762.638 1.53792 0.426628 0
M  V30 7796 C 762.838 0.921887 1.79174 0
M  V30 7797 O 761.894 0.524374 2.46995 0
M  V30 7798 C 763.207 2.98443 0.367739 0
M  V30 7799 C 764.755 3.09778 0.447928 0
M  V30 7800 C 765.23 4.5608 0.418946 0
M  V30 7801 N 766.721 4.60716 0.479022 0
M  V30 7802 C 767.456 5.71397 0.47881 0
M  V30 7803 N 766.952 6.91443 0.433417 0
M  V30 7804 N 768.745 5.59639 0.525364 0
M  V30 7805 H 760.896 1.95848 -0.822033 0
M  V30 7806 H 763.159 0.896418 -0.308447 0
M  V30 7807 H 762.865 3.47072 -0.56865 0
M  V30 7808 H 762.739 3.58335 1.17795 0
M  V30 7809 H 765.126 2.61122 1.37474 0
M  V30 7810 H 765.207 2.52796 -0.390857 0
M  V30 7811 H 764.851 5.05393 -0.504016 0
M  V30 7812 H 764.781 5.10925 1.27526 0
M  V30 7813 H 767.272 3.74328 0.518355 0
M  V30 7814 H 767.585 7.71562 0.43718 0
M  V30 7815 H 765.93 6.93847 0.400106 0
M  V30 7816 H 769.121 4.64756 0.558519 0
M  V30 7817 H 769.294 6.45896 0.52173 0
M  V30 7818 N 762.7 -0.34323 1.53817 0
M  V30 7819 C 763.947 -1.08344 1.71079 0
M  V30 7820 C 764.275 -1.88633 0.474133 0
M  V30 7821 O 763.53 -1.87984 -0.544116 0
M  V30 7822 C 763.829 -2.05195 2.92626 0
M  V30 7823 C 763.495 -1.41215 4.28216 0
M  V30 7824 C 762.157 -1.23495 4.65083 0
M  V30 7825 C 764.509 -0.951273 5.12445 0
M  V30 7826 C 761.837 -0.583065 5.83796 0
M  V30 7827 C 764.189 -0.313292 6.31824 0
M  V30 7828 C 762.853 -0.123779 6.67385 0
M  V30 7829 H 762.123 -0.396458 0.626021 0
M  V30 7830 H 764.77 -0.362689 1.88034 0
M  V30 7831 H 763.075 -2.83653 2.70275 0
M  V30 7832 H 764.772 -2.62462 3.03175 0
M  V30 7833 H 761.362 -1.56005 3.992 0
M  V30 7834 H 765.546 -1.07602 4.84495 0
M  V30 7835 H 760.802 -0.424854 6.09922 0
M  V30 7836 H 764.976 0.0519179 6.96381 0
M  V30 7837 H 762.603 0.383398 7.59233 0
M  V30 7838 N 764.178 -1.45556 -0.604258 0
M  V30 7839 C 765.424 -1.49968 -1.36519 0
M  V30 7840 C 765.757 -0.142236 -1.93678 0
M  V30 7841 O 765.032 0.843717 -1.75247 0
M  V30 7842 C 765.315 -2.58146 -2.51063 0
M  V30 7843 C 765.168 -4.03346 -1.99078 0
M  V30 7844 C 766.487 -2.62581 -3.53184 0
M  V30 7845 H 763.606 -0.545993 -0.495036 0
M  V30 7846 H 766.248 -1.77382 -0.680845 0
M  V30 7847 H 764.398 -2.34901 -3.09441 0
M  V30 7848 H 766.07 -4.37811 -1.45323 0
M  V30 7849 H 764.313 -4.13845 -1.30055 0
M  V30 7850 H 764.984 -4.74731 -2.81664 0
M  V30 7851 H 767.46 -2.83419 -3.04652 0
M  V30 7852 H 766.336 -3.40131 -4.30816 0
M  V30 7853 H 766.597 -1.67798 -4.09019 0
M  V30 7854 N 765.656 0.84705 -1.32902 0
M  V30 7855 C 766.933 1.58583 -1.14503 0
M  V30 7856 C 767.313 2.09075 0.291724 0
M  V30 7857 O 766.661 1.88636 1.28952 0
M  V30 7858 C 766.871 2.72605 -2.17916 0
M  V30 7859 C 768.219 3.41993 -2.51646 0
M  V30 7860 O 769.243 2.82838 -2.1652 0
M  V30 7861 O 768.102 4.48761 -3.1189 0
M  V30 7862 H 765.196 0.698756 -0.442345 0
M  V30 7863 H 767.742 0.890516 -1.44457 0
M  V30 7864 H 766.514 2.32876 -3.14459 0
M  V30 7865 H 766.137 3.49807 -1.89 0
M  V30 7866 N 767.134 1.16236 1.06428 0
M  V30 7867 C 768.097 0.870163 2.1204 0
M  V30 7868 C 769.097 -0.134239 1.60239 0
M  V30 7869 O 770.287 0.0964932 1.73933 0
M  V30 7870 C 767.419 0.301033 3.39568 0
M  V30 7871 H 768.612 1.8064 2.39394 0
M  V30 7872 H 766.165 0.971116 1.2247 0
M  V30 7873 H 766.9 -0.642948 3.17863 0
M  V30 7874 H 766.685 1.02475 3.78472 0
M  V30 7875 H 768.175 0.114494 4.17443 0
M  V30 7876 N 768.612 -1.24939 0.960631 0
M  V30 7877 C 769.842 -1.96595 0.635123 0
M  V30 7878 C 770.25 -1.71538 -0.798206 0
M  V30 7879 O 769.593 -0.991727 -1.5463 0
M  V30 7880 C 769.655 -3.49994 0.821248 0
M  V30 7881 C 769.319 -3.98738 2.23287 0
M  V30 7882 C 770.316 -4.08965 3.21004 0
M  V30 7883 C 768.001 -4.32247 2.55867 0
M  V30 7884 C 769.995 -4.52025 4.49391 0
M  V30 7885 C 767.682 -4.74991 3.84482 0
M  V30 7886 C 768.68 -4.84844 4.81056 0
M  V30 7887 O 768.368 -5.26638 6.07378 0
M  V30 7888 H 768.1 -0.633265 0.23654 0
M  V30 7889 H 770.654 -1.5991 1.28911 0
M  V30 7890 H 768.884 -3.86543 0.110105 0
M  V30 7891 H 770.573 -4.02859 0.495892 0
M  V30 7892 H 771.339 -3.83302 2.97161 0
M  V30 7893 H 767.218 -4.23801 1.81421 0
M  V30 7894 H 770.762 -4.5963 5.24773 0
M  V30 7895 H 766.659 -5.00101 4.08129 0
M  V30 7896 H 767.427 -5.44807 6.10842 0
M  V30 7897 N 770.09 -0.729906 -1.39679 0
M  V30 7898 C 771.337 -0.275622 -2.00615 0
M  V30 7899 C 771.665 1.13559 -1.57907 0
M  V30 7900 O 770.92 1.78745 -0.796789 0
M  V30 7901 C 771.219 -0.319564 -3.55968 0
M  V30 7902 C 770.885 -1.68308 -4.1831 0
M  V30 7903 C 769.547 -2.05629 -4.35052 0
M  V30 7904 C 771.899 -2.57857 -4.52945 0
M  V30 7905 C 769.227 -3.32018 -4.83716 0
M  V30 7906 C 771.579 -3.83613 -5.03015 0
M  V30 7907 C 770.243 -4.21033 -5.17965 0
M  V30 7908 H 769.513 -0.100857 -0.734104 0
M  V30 7909 H 772.16 -0.93575 -1.67081 0
M  V30 7910 H 770.465 0.42414 -3.89497 0
M  V30 7911 H 772.162 0.0499905 -4.00969 0
M  V30 7912 H 768.752 -1.3829 -4.05677 0
M  V30 7913 H 772.936 -2.30295 -4.39634 0
M  V30 7914 H 768.192 -3.6096 -4.93475 0
M  V30 7915 H 772.366 -4.53162 -5.28788 0
M  V30 7916 H 769.993 -5.19034 -5.55435 0
M  V30 7917 N 771.568 1.50203 -0.477153 0
M  V30 7918 C 772.515 2.28656 0.31386 0
M  V30 7919 C 773.485 1.33977 0.981802 0
M  V30 7920 O 774.67 1.62919 0.993072 0
M  V30 7921 C 771.81 3.16027 1.38639 0
M  V30 7922 C 770.923 4.25743 0.732615 0
M  V30 7923 C 770.058 5.00363 1.78355 0
M  V30 7924 C 769.097 6.01945 1.11035 0
M  V30 7925 N 768.234 6.6982 2.10441 0
M  V30 7926 H 773.074 2.958 -0.361445 0
M  V30 7927 H 770.611 1.45867 -0.190093 0
M  V30 7928 H 772.569 3.6504 2.01994 0
M  V30 7929 H 771.199 2.50917 2.03077 0
M  V30 7930 H 770.251 3.80398 -0.0136546 0
M  V30 7931 H 771.563 4.98393 0.201513 0
M  V30 7932 H 770.717 5.53124 2.49276 0
M  V30 7933 H 769.456 4.27432 2.34847 0
M  V30 7934 H 768.461 5.48438 0.386797 0
M  V30 7935 H 769.686 6.76851 0.552248 0
M  V30 7936 H 767.632 5.99677 2.65939 0
M  V30 7937 H 767.549 7.38366 1.62332 0
M  V30 7938 H 768.817 7.27196 2.80724 0
M  V30 7939 N 773.046 0.209999 1.56195 0
M  V30 7940 C 774.009 -0.691232 2.18528 0
M  V30 7941 C 775.009 -1.13013 1.14388 0
M  V30 7942 O 776.199 -1.04081 1.39688 0
M  V30 7943 C 773.331 -1.94551 2.79934 0
M  V30 7944 H 774.524 -0.147953 2.99535 0
M  V30 7945 H 772.077 -0.0396243 1.5625 0
M  V30 7946 H 772.812 -2.53094 2.02766 0
M  V30 7947 H 772.597 -1.63938 3.56184 0
M  V30 7948 H 774.087 -2.58785 3.2775 0
M  V30 7949 N 774.524 -1.57472 -0.0634922 0
M  V30 7950 C 775.754 -1.91608 -0.772645 0
M  V30 7951 C 776.162 -0.805019 -1.71219 0
M  V30 7952 O 775.505 0.229941 -1.82255 0
M  V30 7953 C 775.567 -3.21281 -1.61304 0
M  V30 7954 C 775.231 -4.49177 -0.841973 0
M  V30 7955 C 776.228 -5.19661 -0.157494 0
M  V30 7956 C 773.913 -4.9578 -0.80669 0
M  V30 7957 C 775.907 -6.35006 0.551948 0
M  V30 7958 C 773.594 -6.11028 -0.0934812 0
M  V30 7959 C 774.592 -6.80493 0.58463 0
M  V30 7960 O 774.28 -7.93542 1.28633 0
M  V30 7961 H 774.012 -0.637685 -0.224352 0
M  V30 7962 H 776.566 -2.05369 -0.0355279 0
M  V30 7963 H 774.796 -3.03752 -2.39315 0
M  V30 7964 H 776.485 -3.41003 -2.20162 0
M  V30 7965 H 777.251 -4.84681 -0.176006 0
M  V30 7966 H 773.13 -4.41579 -1.32397 0
M  V30 7967 H 776.674 -6.89161 1.0818 0
M  V30 7968 H 772.571 -6.45459 -0.0729258 0
M  V30 7969 H 773.339 -8.09708 1.19646 0
M  V30 7970 N 776.003 0.335068 -1.53997 0
M  V30 7971 C 777.414 0.910191 -1.6301 0
M  V30 7972 C 777.765 1.89271 -0.516809 0
M  V30 7973 O 776.89 2.13516 0.352123 0
M  V30 7974 C 777.485 1.65761 -2.9548 0
M  V30 7975 C 776.044 2.18163 -3.06728 0
M  V30 7976 C 775.191 1.00338 -2.5851 0
M  V30 7977 H 778.142 0.112965 -1.58297 0
M  V30 7978 H 778.163 2.52107 -2.84995 0
M  V30 7979 H 777.675 0.94227 -3.76488 0
M  V30 7980 H 775.776 2.92847 -2.30372 0
M  V30 7981 H 775.889 2.43952 -4.1234 0
M  V30 7982 H 774.253 1.37925 -2.14124 0
M  V30 7983 H 775.036 0.30254 -3.41964 0
M  V30 7984 N 777.481 1.45874 0.596531 0
M  V30 7985 C 778.729 1.5017 1.35253 0
M  V30 7986 C 779.05 0.149246 1.94428 0
M  V30 7987 O 778.32 -0.82268 1.77789 0
M  V30 7988 H 776.9 0.553052 0.502138 0
M  V30 7989 H 779.562 1.81908 0.699671 0
M  V30 7990 H 778.658 2.24671 2.16632 0
M  V30 7991 N 778.959 -0.83999 1.33349 0
M  V30 7992 C 780.189 -1.62492 1.27593 0
M  V30 7993 C 780.597 -1.88559 -0.155597 0
M  V30 7994 O 779.94 -1.46537 -1.10782 0
M  V30 7995 C 780.002 -2.99984 1.98116 0
M  V30 7996 C 779.666 -2.96892 3.47425 0
M  V30 7997 C 780.663 -2.72688 4.42648 0
M  V30 7998 C 778.348 -3.17063 3.89585 0
M  V30 7999 C 780.342 -2.68681 5.78004 0
M  V30 8000 C 778.029 -3.12682 5.25046 0
M  V30 8001 C 779.027 -2.88522 6.19067 0
M  V30 8002 O 778.715 -2.84042 7.52047 0
M  V30 8003 H 778.447 -0.512358 0.440982 0
M  V30 8004 H 781.001 -1.0545 1.76265 0
M  V30 8005 H 779.231 -3.58875 1.44034 0
M  V30 8006 H 780.92 -3.6084 1.85875 0
M  V30 8007 H 781.686 -2.56856 4.114 0
M  V30 8008 H 777.565 -3.34889 3.16813 0
M  V30 8009 H 781.109 -2.49743 6.51363 0
M  V30 8010 H 777.006 -3.28063 5.55918 0
M  V30 8011 H 777.774 -2.99892 7.61582 0
M  V30 8012 N 780.437 -1.16799 -1.0581 0
M  V30 8013 C 781.667 -0.975454 -1.82122 0
M  V30 8014 C 782.075 0.479584 -1.83021 0
M  V30 8015 O 781.418 1.34471 -1.25153 0
M  V30 8016 C 781.48 -1.43209 -3.29744 0
M  V30 8017 C 781.144 -2.908 -3.5254 0
M  V30 8018 C 782.141 -3.88775 -3.45181 0
M  V30 8019 C 779.826 -3.28832 -3.79703 0
M  V30 8020 C 781.82 -5.22782 -3.64661 0
M  V30 8021 C 779.507 -4.63007 -3.98832 0
M  V30 8022 C 780.505 -5.59791 -3.91309 0
M  V30 8023 O 780.193 -6.9154 -4.09911 0
M  V30 8024 H 779.925 -0.345655 -0.580947 0
M  V30 8025 H 782.479 -1.55355 -1.34365 0
M  V30 8026 H 780.709 -0.797504 -3.78387 0
M  V30 8027 H 782.398 -1.2062 -3.87564 0
M  V30 8028 H 783.164 -3.60738 -3.2418 0
M  V30 8029 H 779.043 -2.54073 -3.84666 0
M  V30 8030 H 782.587 -5.98312 -3.58705 0
M  V30 8031 H 778.484 -4.90752 -4.19324 0
M  V30 8032 H 779.252 -6.98188 -4.27172 0
M  V30 8033 N 781.915 1.24427 -0.967243 0
M  V30 8034 C 783.162 1.92487 -0.62888 0
M  V30 8035 C 783.49 1.75623 0.835871 0
M  V30 8036 O 782.745 1.1027 1.61675 0
M  V30 8037 C 783.044 3.44568 -0.949096 0
M  V30 8038 C 782.71 3.816 -2.40192 0
M  V30 8039 C 781.372 3.9142 -2.799 0
M  V30 8040 C 783.724 3.99715 -3.34481 0
M  V30 8041 C 781.052 4.16771 -4.12939 0
M  V30 8042 C 783.404 4.26562 -4.67148 0
M  V30 8043 C 782.068 4.34601 -5.06634 0
M  V30 8044 H 781.338 0.704361 -0.230124 0
M  V30 8045 H 783.985 1.4772 -1.21864 0
M  V30 8046 H 782.29 3.90819 -0.277085 0
M  V30 8047 H 783.987 3.95436 -0.665692 0
M  V30 8048 H 780.577 3.74522 -2.08402 0
M  V30 8049 H 784.761 3.91531 -3.04987 0
M  V30 8050 H 780.017 4.21214 -4.43158 0
M  V30 8051 H 784.191 4.39523 -5.40178 0
M  V30 8052 H 781.818 4.53998 -6.09746 0
M  V30 8053 N 783.393 0.737304 1.3929 0
M  V30 8054 C 784.621 0.296573 2.04763 0
M  V30 8055 C 785.036 -1.06941 1.55592 0
M  V30 8056 O 784.393 -1.67619 0.721822 0
M  V30 8057 C 784.444 0.291906 3.6032 0
M  V30 8058 O 784.165 1.60397 4.07682 0
M  V30 8059 C 785.666 -0.164708 4.42994 0
M  V30 8060 H 782.886 0.129251 0.658434 0
M  V30 8061 H 785.43 1.0016 1.78293 0
M  V30 8062 H 783.585 -0.364251 3.85684 0
M  V30 8063 H 783.999 1.51909 5.0202 0
M  V30 8064 H 785.473 -0.116814 5.51876 0
M  V30 8065 H 785.95 -1.21022 4.22197 0
M  V30 8066 H 786.556 0.461968 4.22784 0
M  V30 8067 N 784.871 -1.49948 0.485112 0
M  V30 8068 C 786.119 -2.01996 -0.0648775 0
M  V30 8069 C 786.44 -1.36819 -1.38945 0
M  V30 8070 O 785.71 -0.518163 -1.88923 0
M  V30 8071 H 784.29 -0.746513 -0.0269662 0
M  V30 8072 H 786.952 -1.84136 0.638733 0
M  V30 8073 H 786.048 -3.11418 -0.20617 0
M  V30 8074 N 786.349 -0.21828 -1.56081 0
M  V30 8075 C 787.626 0.463143 -1.90038 0
M  V30 8076 C 788.006 1.77982 -1.13515 0
M  V30 8077 O 787.354 2.27199 -0.24345 0
M  V30 8078 C 787.564 0.659292 -3.42716 0
M  V30 8079 C 788.912 0.968203 -4.13414 0
M  V30 8080 O 789.936 0.746195 -3.48296 0
M  V30 8081 O 788.795 1.38936 -5.28544 0
M  V30 8082 H 785.889 0.244435 -0.790051 0
M  V30 8083 H 788.435 -0.260221 -1.67693 0
M  V30 8084 H 787.207 -0.269584 -3.9037 0
M  V30 8085 H 786.83 1.43426 -3.7083 0
M  V30 8086 N 787.827 1.57504 0.0551401 0
M  V30 8087 C 789.075 1.87684 0.74962 0
M  V30 8088 C 789.396 0.812547 1.77264 0
M  V30 8089 O 788.666 -0.15694 1.9527 0
M  V30 8090 H 787.246 0.6926 0.279846 0
M  V30 8091 H 789.908 1.94881 0.0272745 0
M  V30 8092 H 789.004 2.85734 1.25548 0
M  V30 8093 N 789.305 -0.326896 1.54172 0
M  V30 8094 C 790.268 -1.38515 1.8261 0
M  V30 8095 C 791.268 -1.44872 0.697771 0
M  V30 8096 O 792.458 -1.44957 0.966078 0
M  V30 8097 C 789.59 -2.77281 1.98313 0
M  V30 8098 H 790.783 -1.14556 2.77159 0
M  V30 8099 H 788.336 -0.562199 1.45839 0
M  V30 8100 H 789.071 -3.065 1.05964 0
M  V30 8101 H 788.856 -2.74061 2.80416 0
M  V30 8102 H 790.346 -3.53845 2.21773 0
M  V30 8103 N 790.784 -1.46188 -0.588786 0
M  V30 8104 C 792.014 -1.54519 -1.3714 0
M  V30 8105 C 792.422 -0.183075 -1.88312 0
M  V30 8106 O 791.765 0.828815 -1.6394 0
M  V30 8107 C 791.827 -2.48426 -2.59856 0
M  V30 8108 C 791.491 -3.94791 -2.30193 0
M  V30 8109 C 792.488 -4.84173 -1.894 0
M  V30 8110 C 790.173 -4.39872 -2.42525 0
M  V30 8111 C 792.167 -6.16647 -1.61325 0
M  V30 8112 C 789.854 -5.72381 -2.14063 0
M  V30 8113 C 790.852 -6.60589 -1.73527 0
M  V30 8114 O 790.54 -7.9064 -1.4541 0
M  V30 8115 H 790.272 -0.525264 -0.425527 0
M  V30 8116 H 792.826 -1.92242 -0.723344 0
M  V30 8117 H 791.056 -2.05709 -3.27446 0
M  V30 8118 H 792.745 -2.4723 -3.21919 0
M  V30 8119 H 793.511 -4.50603 -1.79393 0
M  V30 8120 H 789.39 -3.71444 -2.7304 0
M  V30 8121 H 792.934 -6.85454 -1.29611 0
M  V30 8122 H 788.831 -6.05501 -2.23693 0
M  V30 8123 H 789.599 -8.02847 -1.59306 0
M  V30 8124 N 792.262 0.832906 -1.33792 0
M  V30 8125 C 793.678 1.1245 -1.13257 0
M  V30 8126 C 793.878 2.01369 0.0725832 0
M  V30 8127 O 792.934 2.41071 0.751082 0
M  V30 8128 C 794.247 1.78084 -2.42294 0
M  V30 8129 C 795.795 1.90624 -2.48257 0
M  V30 8130 C 796.27 2.59673 -3.77271 0
M  V30 8131 N 797.761 2.67181 -3.78376 0
M  V30 8132 C 798.496 3.21313 -4.74916 0
M  V30 8133 N 797.992 3.76086 -5.81835 0
M  V30 8134 N 799.785 3.19621 -4.62384 0
M  V30 8135 H 791.936 0.241244 -2.11026 0
M  V30 8136 H 794.199 0.169557 -0.932713 0
M  V30 8137 H 793.905 1.20209 -3.30519 0
M  V30 8138 H 793.779 2.78049 -2.5489 0
M  V30 8139 H 796.166 2.4765 -1.60478 0
M  V30 8140 H 796.247 0.89591 -2.39598 0
M  V30 8141 H 795.891 2.03304 -4.65435 0
M  V30 8142 H 795.821 3.61189 -3.8321 0
M  V30 8143 H 798.312 2.28346 -3.01108 0
M  V30 8144 H 798.625 4.15612 -6.51526 0
M  V30 8145 H 796.97 3.74357 -5.85561 0
M  V30 8146 H 800.161 2.76091 -3.7801 0
M  V30 8147 H 800.334 3.61504 -5.37791 0
M  V30 8148 N 793.74 1.17359 1.05189 0
M  V30 8149 C 794.968 0.986529 1.81866 0
M  V30 8150 C 795.383 -0.46522 1.82979 0
M  V30 8151 O 794.74 -1.32305 1.25705 0
M  V30 8152 C 794.791 1.52021 3.27982 0
M  V30 8153 O 794.512 2.91511 3.27037 0
M  V30 8154 C 796.013 1.37774 4.21347 0
M  V30 8155 H 793.233 0.349021 0.573084 0
M  V30 8156 H 795.777 1.55648 1.32643 0
M  V30 8157 H 793.932 0.992287 3.74476 0
M  V30 8158 H 794.346 3.16178 4.18488 0
M  V30 8159 H 795.82 1.7993 5.21852 0
M  V30 8160 H 796.297 0.32483 4.37997 0
M  V30 8161 H 796.903 1.89583 3.80708 0
M  V30 8162 N 795.218 -1.23913 0.973828 0
M  V30 8163 C 796.128 -2.28838 0.516735 0
M  V30 8164 C 797.144 -1.68723 -0.425282 0
M  V30 8165 O 798.32 -1.99201 -0.296819 0
M  V30 8166 C 795.385 -3.46233 -0.179914 0
M  V30 8167 C 794.446 -4.21729 0.80269 0
M  V30 8168 C 793.679 -5.33518 0.139191 0
M  V30 8169 O 793.902 -5.60252 -1.07118 0
M  V30 8170 O 792.836 -5.96088 0.834447 0
M  V30 8171 H 796.662 -2.70067 1.38916 0
M  V30 8172 H 794.247 -1.2972 0.74115 0
M  V30 8173 H 796.129 -4.17514 -0.570991 0
M  V30 8174 H 794.804 -3.06969 -1.02721 0
M  V30 8175 H 793.711 -3.52799 1.24434 0
M  V30 8176 H 795.044 -4.64825 1.61859 0
M  V30 8177 N 796.696 -0.74468 -1.38897 0
M  V30 8178 C 797.944 -0.296298 -1.99916 0
M  V30 8179 C 798.265 1.12325 -1.59399 0
M  V30 8180 O 797.535 1.76658 -0.846689 0
M  V30 8181 H 796.115 -0.106561 -0.73936 0
M  V30 8182 H 798.777 -0.956793 -1.69798 0
M  V30 8183 H 797.873 -0.352356 -3.10105 0
M  V30 8184 N 798.174 1.49689 -0.493057 0
M  V30 8185 C 799.422 2.02027 0.0541642 0
M  V30 8186 C 799.743 1.37554 1.38217 0
M  V30 8187 O 799.013 0.528174 1.88646 0
M  V30 8188 H 797.593 0.746646 0.0230069 0
M  V30 8189 H 800.255 1.83795 -0.648489 0
M  V30 8190 H 799.351 3.11523 0.189652 0
M  V30 8191 N 799.652 0.226554 1.55963 0
M  V30 8192 C 800.882 -0.407915 2.02533 0
M  V30 8193 C 801.29 -1.53539 1.10554 0
M  V30 8194 O 800.633 -1.8338 0.108409 0
M  V30 8195 C 800.695 -0.996081 3.45425 0
M  V30 8196 C 800.359 -0.00341651 4.57 0
M  V30 8197 C 801.356 0.798782 5.13727 0
M  V30 8198 C 799.041 0.116786 5.02164 0
M  V30 8199 C 801.035 1.70784 6.14094 0
M  V30 8200 C 798.722 1.02937 6.02368 0
M  V30 8201 C 799.72 1.82344 6.5821 0
M  V30 8202 O 799.408 2.72067 7.56462 0
M  V30 8203 H 799.14 -0.103524 0.668026 0
M  V30 8204 H 801.694 0.341937 2.02534 0
M  V30 8205 H 799.924 -1.79512 3.42509 0
M  V30 8206 H 801.613 -1.53848 3.75614 0
M  V30 8207 H 802.379 0.716393 4.7968 0
M  V30 8208 H 798.258 -0.491172 4.58376 0
M  V30 8209 H 801.802 2.32807 6.57607 0
M  V30 8210 H 797.699 1.11276 6.35836 0
M  V30 8211 H 798.467 2.66199 7.74003 0
M  V30 8212 N 801.13 -1.57531 -0.0467866 0
M  V30 8213 C 802.36 -1.92417 -0.752279 0
M  V30 8214 C 802.768 -0.823134 -1.70356 0
M  V30 8215 O 802.111 0.210598 -1.82489 0
M  V30 8216 C 802.173 -3.22974 -1.57887 0
M  V30 8217 C 801.837 -4.50045 -0.794285 0
M  V30 8218 C 802.834 -5.19799 -0.102368 0
M  V30 8219 C 800.519 -4.96608 -0.754061 0
M  V30 8220 C 802.513 -6.34385 0.619267 0
M  V30 8221 C 800.2 -6.11093 -0.0286682 0
M  V30 8222 C 801.198 -6.79835 0.656772 0
M  V30 8223 O 800.886 -7.92133 1.37042 0
M  V30 8224 H 800.618 -0.640029 -0.217576 0
M  V30 8225 H 803.172 -2.05395 -0.0137438 0
M  V30 8226 H 801.402 -3.06273 -2.3608 0
M  V30 8227 H 803.091 -3.43319 -2.16533 0
M  V30 8228 H 803.857 -4.8484 -0.124589 0
M  V30 8229 H 799.736 -4.42958 -1.27706 0
M  V30 8230 H 803.28 -6.87975 1.15483 0
M  V30 8231 H 799.177 -6.455 -0.00446214 0
M  V30 8232 H 799.945 -8.08394 1.28227 0
M  V30 8233 N 802.608 0.318715 -1.54344 0
M  V30 8234 C 803.54 1.41364 -1.80413 0
M  V30 8235 C 804.553 1.47627 -0.686294 0
M  V30 8236 O 805.742 1.50264 -0.963486 0
M  V30 8237 C 802.842 2.79867 -1.91123 0
M  V30 8238 C 802.015 2.96749 -3.21339 0
M  V30 8239 C 801.074 4.15642 -3.22689 0
M  V30 8240 O 800.1 4.08571 -3.96306 0
M  V30 8241 N 801.302 5.25416 -2.46817 0
M  V30 8242 H 804.067 1.19363 -2.74905 0
M  V30 8243 H 801.628 0.508722 -1.537 0
M  V30 8244 H 803.62 3.57619 -1.89448 0
M  V30 8245 H 802.19 2.94896 -1.03706 0
M  V30 8246 H 801.41 2.06257 -3.35934 0
M  V30 8247 H 802.698 3.04927 -4.07304 0
M  V30 8248 H 802.096 5.34037 -1.86605 0
M  V30 8249 H 800.653 6.01569 -2.50915 0
M  V30 8250 N 804.086 1.46499 0.581025 0
M  V30 8251 C 805.335 1.51162 1.3354 0
M  V30 8252 C 805.648 0.168433 1.94873 0
M  V30 8253 O 806.854 0.092883 2.71341 0
M  V30 8254 C 805.31 2.66362 2.42032 0
M  V30 8255 C 804.918 4.07109 1.86994 0
M  V30 8256 C 806.662 2.80297 3.188 0
M  V30 8257 C 804.569 5.13645 2.93125 0
M  V30 8258 H 803.499 0.562576 0.502021 0
M  V30 8259 H 806.15 1.72713 0.619863 0
M  V30 8260 H 804.532 2.38143 3.16392 0
M  V30 8261 H 805.706 4.45125 1.19166 0
M  V30 8262 H 804.021 3.97854 1.22887 0
M  V30 8263 H 806.618 3.5706 3.9801 0
M  V30 8264 H 806.961 1.87875 3.71495 0
M  V30 8265 H 807.494 3.0817 2.51547 0
M  V30 8266 H 804.233 6.07866 2.45315 0
M  V30 8267 H 803.753 4.80172 3.59437 0
M  V30 8268 H 805.432 5.39562 3.57046 0
M  V30 8269 N 805.565 -0.825799 1.34232 0
M  V30 8270 C 806.793 -1.61363 1.29497 0
M  V30 8271 C 807.208 -1.88341 -0.131536 0
M  V30 8272 O 806.565 -1.47279 -1.07773 0
M  V30 8273 C 806.616 -2.95623 2.08061 0
M  V30 8274 O 806.337 -2.69824 3.45147 0
M  V30 8275 C 807.838 -3.90032 2.10688 0
M  V30 8276 H 805.058 -0.501676 0.445603 0
M  V30 8277 H 807.602 -1.02767 1.76803 0
M  V30 8278 H 805.757 -3.50785 1.64404 0
M  V30 8279 H 806.171 -3.55412 3.85723 0
M  V30 8280 H 807.645 -4.81411 2.70087 0
M  V30 8281 H 808.122 -4.25188 1.10052 0
M  V30 8282 H 808.728 -3.40807 2.54422 0
M  V30 8283 N 807.043 -1.17915 -1.04565 0
M  V30 8284 C 808.291 -0.969505 -1.77327 0
M  V30 8285 C 808.612 0.502569 -1.88412 0
M  V30 8286 O 807.882 1.36467 -1.40547 0
M  V30 8287 H 806.462 -0.355723 -0.656864 0
M  V30 8288 H 809.124 -1.48506 -1.26223 0
M  V30 8289 H 808.22 -1.40324 -2.78775 0
M  V30 8290 N 808.521 1.23394 -0.980386 0
M  V30 8291 C 809.937 1.43961 -0.689008 0
M  V30 8292 C 810.137 1.87229 0.744809 0
M  V30 8293 O 809.193 2.01831 1.51725 0
M  V30 8294 C 810.506 2.49128 -1.68392 0
M  V30 8295 C 812.054 2.62941 -1.69796 0
M  V30 8296 C 812.529 3.71317 -2.68118 0
M  V30 8297 N 814.02 3.7876 -2.66636 0
M  V30 8298 C 814.755 4.62176 -3.39383 0
M  V30 8299 N 814.251 5.49682 -4.21688 0
M  V30 8300 N 816.044 4.56372 -3.28147 0
M  V30 8301 H 808.195 0.936106 -1.90659 0
M  V30 8302 H 810.458 0.473023 -0.821555 0
M  V30 8303 H 810.164 2.24252 -2.70931 0
M  V30 8304 H 810.038 3.47514 -1.46675 0
M  V30 8305 H 812.425 2.87168 -0.679617 0
M  V30 8306 H 812.506 1.64871 -1.95579 0
M  V30 8307 H 812.15 3.4784 -3.70095 0
M  V30 8308 H 812.08 4.68929 -2.3961 0
M  V30 8309 H 814.571 3.16226 -2.06904 0
M  V30 8310 H 814.884 6.10323 -4.74053 0
M  V30 8311 H 813.229 5.49306 -4.25779 0
M  V30 8312 H 816.42 3.87029 -2.63299 0
M  V30 8313 H 816.593 5.21153 -3.85102 0
M  V30 8314 N 809.999 0.752036 1.385 0
M  V30 8315 C 810.932 0.0717411 2.28087 0
M  V30 8316 C 811.91 -0.729945 1.45295 0
M  V30 8317 O 813.094 -0.708902 1.74662 0
M  V30 8318 C 810.221 -0.905237 3.26379 0
M  V30 8319 C 809.267 -0.189973 4.26077 0
M  V30 8320 S 810.1 1.10815 5.23909 0
M  V30 8321 C 811.256 0.134202 6.25756 0
M  V30 8322 H 811.489 0.831438 2.85437 0
M  V30 8323 H 809.022 0.544552 1.44478 0
M  V30 8324 H 810.98 -1.46358 3.83523 0
M  V30 8325 H 809.641 -1.63789 2.68015 0
M  V30 8326 H 808.834 -0.92985 4.95348 0
M  V30 8327 H 808.436 0.296804 3.7282 0
M  V30 8328 H 810.728 -0.700345 6.7387 0
M  V30 8329 H 811.671 0.794532 7.03628 0
M  V30 8330 H 812.079 -0.245801 5.63965 0
M  V30 8331 N 811.477 -1.49425 0.500989 0
M  V30 8332 C 812.754 -1.9531 -0.106551 0
M  V30 8333 C 813.134 -1.44248 -1.54129 0
M  V30 8334 O 812.482 -0.656237 -2.18874 0
M  V30 8335 C 812.692 -3.48995 -0.0191972 0
M  V30 8336 C 814.04 -4.24161 -0.193129 0
M  V30 8337 O 815.064 -3.56075 -0.0943843 0
M  V30 8338 O 813.923 -5.45064 -0.395869 0
M  V30 8339 H 811.017 -0.82149 -0.0953068 0
M  V30 8340 H 813.563 -1.6007 0.563526 0
M  V30 8341 H 812.335 -3.78794 0.981353 0
M  V30 8342 H 811.958 -3.90852 -0.72942 0
M  V30 8343 N 812.955 -0.234822 -1.55841 0
M  V30 8344 C 814.232 0.442961 -1.90518 0
M  V30 8345 C 814.612 1.76768 -1.15397 0
M  V30 8346 O 813.96 2.26928 -0.267534 0
M  V30 8347 C 814.17 0.622905 -3.43396 0
M  V30 8348 C 815.518 0.9243 -4.14417 0
M  V30 8349 O 816.542 0.709211 -3.49068 0
M  V30 8350 O 815.401 1.33323 -5.29988 0
M  V30 8351 H 812.495 0.236042 -0.792599 0
M  V30 8352 H 815.041 -0.277992 -1.67408 0
M  V30 8353 H 813.813 -0.310973 -3.90062 0
M  V30 8354 H 813.436 1.39485 -3.7233 0
M  V30 8355 N 814.433 1.57553 0.0384317 0
M  V30 8356 C 815.679 1.89121 0.732199 0
M  V30 8357 C 816.012 0.831404 1.75503 0
M  V30 8358 O 815.287 -0.154642 1.93884 0
M  V30 8359 C 815.57 3.31338 1.41021 0
M  V30 8360 C 815.423 4.48004 0.401532 0
M  V30 8361 C 816.742 3.72318 2.34665 0
M  V30 8362 H 813.861 0.687819 0.264715 0
M  V30 8363 H 816.503 1.89999 -0.00496279 0
M  V30 8364 H 814.653 3.3072 2.03854 0
M  V30 8365 H 816.325 4.60755 -0.224159 0
M  V30 8366 H 814.568 4.32895 -0.280092 0
M  V30 8367 H 815.239 5.44377 0.91423 0
M  V30 8368 H 817.715 3.74243 1.81883 0
M  V30 8369 H 816.591 4.72652 2.7909 0
M  V30 8370 H 816.852 3.04062 3.20934 0
M  V30 8371 N 815.911 -0.310526 1.54511 0
M  V30 8372 C 817.16 -1.0445 1.72549 0
M  V30 8373 C 817.473 -1.88748 0.513172 0
M  V30 8374 O 818.679 -2.65338 0.575165 0
M  V30 8375 C 817.135 -1.90665 3.05246 0
M  V30 8376 C 816.743 -1.11415 4.33925 0
M  V30 8377 C 818.487 -2.63719 3.32645 0
M  V30 8378 C 816.394 -1.96852 5.57677 0
M  V30 8379 H 815.324 -0.393676 0.643067 0
M  V30 8380 H 817.975 -0.302003 1.80998 0
M  V30 8381 H 816.357 -2.68864 2.90737 0
M  V30 8382 H 817.531 -0.378956 4.59239 0
M  V30 8383 H 815.846 -0.499853 4.13389 0
M  V30 8384 H 818.443 -3.27974 4.223 0
M  V30 8385 H 818.786 -3.32047 2.51098 0
M  V30 8386 H 819.319 -1.92574 3.48081 0
M  V30 8387 H 816.058 -1.33009 6.41864 0
M  V30 8388 H 815.578 -2.68069 5.36562 0
M  V30 8389 H 817.257 -2.55127 5.94575 0
M  V30 8390 N 817.389 -1.46805 -0.573248 0
M  V30 8391 C 818.337 -1.58468 -1.70267 0
M  V30 8392 C 819.331 -0.452694 -1.63239 0
M  V30 8393 O 820.537 -0.629915 -1.68618 0
M  V30 8394 H 816.912 -0.498408 -0.56311 0
M  V30 8395 H 818.883 -2.5341 -1.57563 0
M  V30 8396 C 817.632 -1.60104 -3.08645 0
M  V30 8397 H 816.955 -2.4655 -3.14727 0
M  V30 8398 H 818.395 -1.72318 -3.87405 0
M  V30 8399 C 816.854 -0.33138 -3.35266 0
M  V30 8400 O 817.384 0.57438 -3.97572 0
M  V30 8401 N 815.59 -0.216358 -2.89793 0
M  V30 8402 H 815.137 -0.954345 -2.3927 0
M  V30 8403 H 815.095 0.632253 -3.07977 0
M  V30 8404 N 818.867 0.818669 -1.34668 0
M  V30 8405 C 820.116 1.57017 -1.26604 0
M  V30 8406 C 820.429 1.94936 0.161036 0
M  V30 8407 O 821.635 2.69051 0.36386 0
M  V30 8408 C 820.091 2.83305 -2.2196 0
M  V30 8409 C 819.699 2.52671 -3.69948 0
M  V30 8410 C 821.443 3.61324 -2.22813 0
M  V30 8411 C 819.35 3.75178 -4.5716 0
M  V30 8412 H 818.28 0.589323 -0.470335 0
M  V30 8413 H 820.931 0.900956 -1.59859 0
M  V30 8414 H 819.313 3.51874 -1.81661 0
M  V30 8415 H 820.487 1.92186 -4.18809 0
M  V30 8416 H 818.802 1.8792 -3.71584 0
M  V30 8417 H 821.399 4.52294 -2.85192 0
M  V30 8418 H 821.742 3.97759 -1.22857 0
M  V30 8419 H 822.275 2.99703 -2.61578 0
M  V30 8420 H 819.014 3.43861 -5.58068 0
M  V30 8421 H 818.534 4.34931 -4.13031 0
M  V30 8422 H 820.213 4.42542 -4.71981 0
M  V30 8423 N 820.346 1.18468 1.03938 0
M  V30 8424 C 821.571 1.00638 1.81347 0
M  V30 8425 C 821.996 -0.440477 1.8287 0
M  V30 8426 O 821.354 -1.31609 1.24695 0
M  V30 8427 C 821.402 1.5673 3.24759 0
M  V30 8428 O 820.506 0.789517 4.04772 0
M  V30 8429 H 819.847 0.356432 0.560225 0
M  V30 8430 H 822.377 1.57253 1.30891 0
M  V30 8431 H 822.387 1.59496 3.75533 0
M  V30 8432 H 821.062 2.62043 3.22965 0
M  V30 8433 H 819.639 0.834267 3.63448 0
M  V30 8434 N 821.824 -1.22873 0.986916 0
M  V30 8435 C 823.072 -1.91084 0.658121 0
M  V30 8436 C 823.393 -1.77304 -0.811675 0
M  V30 8437 O 822.663 -1.15649 -1.58121 0
M  V30 8438 H 821.243 -0.707251 0.240427 0
M  V30 8439 H 823.905 -1.49357 1.25213 0
M  V30 8440 H 823.001 -2.98373 0.915428 0
M  V30 8441 N 823.302 -0.75937 -1.38099 0
M  V30 8442 C 824.252 -0.111098 -2.27729 0
M  V30 8443 C 825.236 0.687161 -1.45489 0
M  V30 8444 O 826.428 0.552167 -1.68167 0
M  V30 8445 C 823.557 0.776809 -3.34396 0
M  V30 8446 C 822.643 -0.0286108 -4.2409 0
M  V30 8447 N 823.034 -1.06797 -4.94397 0
M  V30 8448 C 821.332 0.197307 -4.45563 0
M  V30 8449 C 822.033 -1.55576 -5.6051 0
M  V30 8450 N 821.009 -0.870059 -5.36592 0
M  V30 8451 H 824.811 -0.907047 -2.79553 0
M  V30 8452 H 822.325 -0.595954 -1.5107 0
M  V30 8453 H 824.322 1.25691 -3.97502 0
M  V30 8454 H 822.982 1.57164 -2.84129 0
M  V30 8455 H 823.993 -1.44988 -4.97191 0
M  V30 8456 H 820.67 0.965028 -4.06194 0
M  V30 8457 H 822.06 -2.42184 -6.26735 0
M  V30 8458 N 824.78 1.49157 -0.508906 0
M  V30 8459 C 826.196 1.58741 -0.165372 0
M  V30 8460 C 826.396 1.5133 1.33047 0
M  V30 8461 O 825.452 1.39135 2.10707 0
M  V30 8462 C 826.765 2.91217 -0.749194 0
M  V30 8463 C 828.313 3.047 -0.716015 0
M  V30 8464 C 828.788 4.39807 -1.27804 0
M  V30 8465 N 830.279 4.46319 -1.23908 0
M  V30 8466 C 831.014 5.49325 -1.64406 0
M  V30 8467 N 830.51 6.59395 -2.12534 0
M  V30 8468 N 832.303 5.40084 -1.55773 0
M  V30 8469 H 824.454 1.52217 -1.48134 0
M  V30 8470 H 826.717 0.721514 -0.614915 0
M  V30 8471 H 826.423 3.02233 -1.79856 0
M  V30 8472 H 826.297 3.76592 -0.214144 0
M  V30 8473 H 828.684 2.9331 0.324535 0
M  V30 8474 H 828.765 2.2099 -1.2883 0
M  V30 8475 H 828.409 4.5195 -2.31741 0
M  V30 8476 H 828.339 5.2217 -0.681623 0
M  V30 8477 H 830.83 3.67354 -0.886537 0
M  V30 8478 H 831.143 7.34102 -2.41485 0
M  V30 8479 H 829.488 6.60414 -2.16513 0
M  V30 8480 H 832.679 4.52986 -1.17987 0
M  V30 8481 H 832.852 6.20233 -1.87657 0
M  V30 8482 N 826.258 0.243083 1.55714 0
M  V30 8483 C 827.188 -0.652336 2.24203 0
M  V30 8484 C 828.169 -1.1843 1.221 0
M  V30 8485 O 829.354 -1.22435 1.50743 0
M  V30 8486 C 826.484 -1.85111 2.93856 0
M  V30 8487 C 825.438 -1.45208 4.02615 0
M  V30 8488 C 824.764 -2.73137 4.59674 0
M  V30 8489 C 826.064 -0.625988 5.18535 0
M  V30 8490 H 827.758 -0.0812504 2.9929 0
M  V30 8491 H 825.304 -0.0376388 1.43951 0
M  V30 8492 H 827.257 -2.48314 3.40468 0
M  V30 8493 H 825.981 -2.44751 2.16251 0
M  V30 8494 H 824.64 -0.843406 3.56766 0
M  V30 8495 H 824.288 -3.30967 3.78774 0
M  V30 8496 H 823.988 -2.47163 5.33089 0
M  V30 8497 H 825.512 -3.37245 5.09017 0
M  V30 8498 H 826.926 -1.16223 5.61396 0
M  V30 8499 H 825.323 -0.462465 5.98315 0
M  V30 8500 H 826.393 0.362652 4.83542 0
M  V30 8501 N 827.736 -1.57571 -0.0300757 0
M  V30 8502 C 828.984 -1.88852 -0.719666 0
M  V30 8503 C 829.305 -0.840645 -1.75949 0
M  V30 8504 O 828.575 0.125854 -1.95495 0
M  V30 8505 H 827.155 -0.696965 -0.268792 0
M  V30 8506 H 829.817 -1.949 0.00373285 0
M  V30 8507 H 828.913 -2.87695 -1.20987 0
M  V30 8508 N 829.214 0.302327 -1.54673 0
M  V30 8509 C 830.442 1.05669 -1.77881 0
M  V30 8510 C 830.857 1.80983 -0.537648 0
M  V30 8511 O 830.214 1.7573 0.492467 0
M  V30 8512 C 830.265 2.03828 -2.98557 0
M  V30 8513 O 829.986 1.3157 -4.17877 0
M  V30 8514 C 831.487 2.91314 -3.34143 0
M  V30 8515 H 828.707 0.313436 -0.593295 0
M  V30 8516 H 831.251 0.342003 -2.0162 0
M  V30 8517 H 829.406 2.70801 -2.7703 0
M  V30 8518 H 829.82 1.97481 -4.85903 0
M  V30 8519 H 831.294 3.56042 -4.21827 0
M  V30 8520 H 831.771 3.59544 -2.52239 0
M  V30 8521 H 832.377 2.29874 -3.57824 0
M  V30 8522 N 830.692 1.47107 0.565454 0
M  V30 8523 C 831.655 1.58535 1.65527 0
M  V30 8524 C 832.655 0.461081 1.54048 0
M  V30 8525 O 833.845 0.725911 1.58355 0
M  V30 8526 C 830.977 1.52204 3.05036 0
M  V30 8527 H 832.17 2.55676 1.56747 0
M  V30 8528 H 829.723 1.35174 0.78471 0
M  V30 8529 H 830.458 0.564071 3.19357 0
M  V30 8530 H 830.243 2.3379 3.14777 0
M  V30 8531 H 831.733 1.63322 3.84338 0
M  V30 8532 N 832.17 -0.811516 1.35101 0
M  V30 8533 C 833.08 -1.95475 1.29718 0
M  V30 8534 C 834.096 -1.72813 0.202909 0
M  V30 8535 O 835.272 -1.96725 0.431414 0
M  V30 8536 C 832.337 -3.29975 1.06385 0
M  V30 8537 C 831.398 -3.65566 2.25077 0
M  V30 8538 C 830.631 -4.93648 2.02848 0
M  V30 8539 O 830.854 -5.617 0.992442 0
M  V30 8540 O 829.788 -5.27384 2.90087 0
M  V30 8541 H 833.614 -2.02961 2.25921 0
M  V30 8542 H 831.199 -0.948583 1.15422 0
M  V30 8543 H 833.081 -4.10506 0.951999 0
M  V30 8544 H 831.756 -3.2343 0.132294 0
M  V30 8545 H 830.663 -2.85432 2.41825 0
M  V30 8546 H 831.996 -3.7681 3.16662 0
M  V30 8547 N 833.648 -1.19017 -1.03309 0
M  V30 8548 C 834.897 -0.984542 -1.76039 0
M  V30 8549 C 835.21 0.485937 -1.89468 0
M  V30 8550 O 836.416 0.810278 -2.59127 0
M  V30 8551 C 834.872 -1.71261 -3.1654 0
M  V30 8552 C 834.48 -3.22291 -3.11179 0
M  V30 8553 C 836.224 -1.59007 -3.93595 0
M  V30 8554 C 834.131 -3.87704 -4.46587 0
M  V30 8555 H 833.061 -0.364749 -0.659905 0
M  V30 8556 H 835.712 -1.4247 -1.15649 0
M  V30 8557 H 834.094 -1.20025 -3.77373 0
M  V30 8558 H 835.268 -3.80611 -2.59753 0
M  V30 8559 H 833.583 -3.34772 -2.47622 0
M  V30 8560 H 836.18 -2.05232 -4.93745 0
M  V30 8561 H 836.523 -0.543534 -4.12736 0
M  V30 8562 H 837.056 -2.07564 -3.39355 0
M  V30 8563 H 833.795 -4.92437 -4.3265 0
M  V30 8564 H 833.315 -3.34172 -4.98085 0
M  V30 8565 H 834.994 -3.91008 -5.15482 0
M  V30 8566 N 835.127 1.22348 -0.993418 0
M  V30 8567 C 836.037 2.27987 -0.553076 0
M  V30 8568 C 837.053 1.69378 0.398386 0
M  V30 8569 O 838.229 1.99648 0.26509 0
M  V30 8570 C 835.294 3.46475 0.124809 0
M  V30 8571 C 834.355 4.20399 -0.869682 0
M  V30 8572 C 833.588 5.33229 -0.224052 0
M  V30 8573 O 833.811 5.61885 0.981915 0
M  V30 8574 O 832.745 5.94685 -0.929174 0
M  V30 8575 H 836.571 2.67822 -1.43195 0
M  V30 8576 H 834.156 1.28525 -0.761694 0
M  V30 8577 H 836.038 4.18369 0.504496 0
M  V30 8578 H 834.713 3.08565 0.978243 0
M  V30 8579 H 833.62 3.50774 -1.30031 0
M  V30 8580 H 834.953 4.62191 -1.69233 0
M  V30 8581 N 836.605 0.766683 1.37694 0
M  V30 8582 C 837.882 0.25366 1.93948 0
M  V30 8583 C 838.262 -1.25041 1.70082 0
M  V30 8584 O 837.61 -2.03115 1.04674 0
M  V30 8585 C 837.82 0.621549 3.43421 0
M  V30 8586 C 839.168 0.588504 4.20502 0
M  V30 8587 O 840.192 0.560632 3.5176 0
M  V30 8588 O 839.051 0.61107 5.43073 0
M  V30 8589 H 836.145 0.0570586 0.825029 0
M  V30 8590 H 838.691 0.847693 1.47011 0
M  V30 8591 H 837.463 1.65979 3.54354 0
M  V30 8592 H 837.086 0.000197027 3.976 0
M  V30 8593 N 838.083 -1.48885 0.516809 0
M  V30 8594 C 839.046 -2.27916 -0.242256 0
M  V30 8595 C 840.046 -1.34601 -0.879735 0
M  V30 8596 O 841.236 -1.57616 -0.74182 0
M  V30 8597 C 838.368 -3.13067 -1.34914 0
M  V30 8598 H 839.561 -2.96483 0.451444 0
M  V30 8599 H 837.114 -1.5391 0.272294 0
M  V30 8600 H 837.849 -2.49102 -2.07651 0
M  V30 8601 H 837.634 -3.81695 -0.897313 0
M  V30 8602 H 839.124 -3.72716 -1.88341 0
M  V30 8603 N 839.561 -0.251338 -1.55583 0
M  V30 8604 C 840.81 0.372681 -1.98227 0
M  V30 8605 C 841.123 1.58743 -1.1428 0
M  V30 8606 O 842.329 2.28289 -1.46957 0
M  V30 8607 C 840.785 0.714439 -3.52738 0
M  V30 8608 C 840.393 -0.479168 -4.4543 0
M  V30 8609 C 842.137 1.3024 -4.04027 0
M  V30 8610 C 840.044 -0.113318 -5.91291 0
M  V30 8611 H 838.974 0.14302 -0.740312 0
M  V30 8612 H 841.625 -0.352253 -1.80087 0
M  V30 8613 H 840.007 1.49762 -3.66589 0
M  V30 8614 H 841.181 -1.25644 -4.4334 0
M  V30 8615 H 839.496 -0.982359 -4.04646 0
M  V30 8616 H 842.093 1.58953 -5.10527 0
M  V30 8617 H 842.436 2.22837 -3.51638 0
M  V30 8618 H 842.969 0.582024 -3.93519 0
M  V30 8619 H 839.708 -1.00654 -6.47726 0
M  V30 8620 H 839.228 0.627666 -5.96507 0
M  V30 8621 H 840.907 0.30293 -6.4629 0
M  V30 8622 N 841.039 1.57585 0.0217189 0
M  V30 8623 C 842.002 2.06004 1.00474 0
M  V30 8624 C 843.002 0.965461 1.2859 0
M  V30 8625 O 844.192 1.22884 1.23471 0
M  V30 8626 C 841.324 2.48319 2.33561 0
M  V30 8627 H 842.517 2.94112 0.586346 0
M  V30 8628 H 840.07 1.53973 0.268716 0
M  V30 8629 H 840.805 1.63389 2.80133 0
M  V30 8630 H 840.59 3.28239 2.1448 0
M  V30 8631 H 842.08 2.86181 3.04122 0
M  V30 8632 N 842.517 -0.29412 1.54831 0
M  V30 8633 C 843.794 -1.04847 1.65126 0
M  V30 8634 C 844.174 -2.04996 0.503986 0
M  V30 8635 O 843.522 -2.22996 -0.498496 0
M  V30 8636 C 843.732 -1.72418 3.03435 0
M  V30 8637 C 845.08 -2.24362 3.60481 0
M  V30 8638 O 846.104 -1.8244 3.05932 0
M  V30 8639 O 844.963 -3.01196 4.56008 0
M  V30 8640 H 842.057 -0.485032 0.669831 0
M  V30 8641 H 844.603 -0.291659 1.67175 0
M  V30 8642 H 843.375 -0.997351 3.78376 0
M  V30 8643 H 842.998 -2.54839 3.05193 0
M  V30 8644 N 843.995 -1.47404 -0.557645 0
M  V30 8645 C 844.945 -1.56267 -1.66026 0
M  V30 8646 C 845.929 -0.42161 -1.55278 0
M  V30 8647 O 847.121 -0.671505 -1.63768 0
M  V30 8648 C 844.25 -1.57958 -3.04802 0
M  V30 8649 C 843.336 -2.77447 -3.20755 0
M  V30 8650 N 843.727 -4.02148 -3.06775 0
M  V30 8651 C 842.025 -2.74199 -3.51754 0
M  V30 8652 C 842.726 -4.82168 -3.25406 0
M  V30 8653 N 841.702 -4.14481 -3.5172 0
M  V30 8654 H 845.504 -2.50454 -1.53785 0
M  V30 8655 H 843.018 -1.43392 -0.762388 0
M  V30 8656 H 845.015 -1.62397 -3.8397 0
M  V30 8657 H 843.675 -0.648667 -3.18155 0
M  V30 8658 H 844.686 -4.33014 -2.84111 0
M  V30 8659 H 841.363 -1.90243 -3.71637 0
M  V30 8660 H 842.753 -5.91037 -3.19569 0
M  V30 8661 N 845.473 0.80434 -1.35529 0
M  V30 8662 C 846.884 1.37849 -1.25915 0
M  V30 8663 C 847.235 1.95905 0.107495 0
M  V30 8664 O 846.36 1.91462 1.00852 0
M  V30 8665 C 846.955 2.50608 -2.27994 0
M  V30 8666 C 845.514 3.03879 -2.22114 0
M  V30 8667 C 844.661 1.76856 -2.13582 0
M  V30 8668 H 847.612 0.607192 -1.46625 0
M  V30 8669 H 847.633 3.29221 -1.90772 0
M  V30 8670 H 847.145 2.08323 -3.27449 0
M  V30 8671 H 845.246 3.50622 -1.26077 0
M  V30 8672 H 845.359 3.61707 -3.14173 0
M  V30 8673 H 843.723 1.98498 -1.59595 0
M  V30 8674 H 844.506 1.36721 -3.14901 0
M  V30 8675 N 846.951 1.19563 1.02676 0
M  V30 8676 C 847.914 0.937182 2.09164 0
M  V30 8677 C 848.914 -0.0831927 1.60585 0
M  V30 8678 O 850.104 0.15178 1.73538 0
M  V30 8679 C 847.236 0.408912 3.38439 0
M  V30 8680 H 848.429 1.88164 2.33526 0
M  V30 8681 H 845.982 1.00959 1.19319 0
M  V30 8682 H 846.717 -0.541497 3.19747 0
M  V30 8683 H 846.502 1.14464 3.7502 0
M  V30 8684 H 847.992 0.247242 4.16867 0
M  V30 8685 N 848.429 -1.21819 0.999893 0
M  V30 8686 C 849.675 -1.91035 0.680701 0
M  V30 8687 C 850.008 -1.77582 -0.786021 0
M  V30 8688 O 849.283 -1.14917 -1.56921 0
M  V30 8689 C 849.566 -3.43013 1.0961 0
M  V30 8690 C 849.419 -3.65481 2.6219 0
M  V30 8691 C 850.738 -4.35204 0.654616 0
M  V30 8692 H 847.857 -0.693748 0.248763 0
M  V30 8693 H 850.499 -1.43555 1.24466 0
M  V30 8694 H 848.649 -3.83581 0.616253 0
M  V30 8695 H 850.321 -3.34273 3.17899 0
M  V30 8696 H 848.564 -3.09522 3.03938 0
M  V30 8697 H 849.235 -4.71945 2.86307 0
M  V30 8698 H 851.711 -4.0219 1.06688 0
M  V30 8699 H 850.587 -5.40198 0.973492 0
M  V30 8700 H 850.848 -4.3986 -0.444458 0
M  V30 8701 N 849.908 -0.773975 -1.37286 0
M  V30 8702 C 851.319 -0.404433 -1.82267 0
M  V30 8703 C 851.67 1.06971 -1.64474 0
M  V30 8704 O 850.795 1.82867 -1.15708 0
M  V30 8705 C 851.39 -0.727298 -3.30902 0
M  V30 8706 C 849.949 -0.410784 -3.74152 0
M  V30 8707 C 849.096 -0.969983 -2.59782 0
M  V30 8708 H 852.047 -0.968437 -1.25726 0
M  V30 8709 H 852.068 -0.0127575 -3.80498 0
M  V30 8710 H 851.58 -1.80026 -3.4382 0
M  V30 8711 H 849.681 0.65477 -3.66802 0
M  V30 8712 H 849.794 -0.920592 -4.70172 0
M  V30 8713 H 848.158 -0.394094 -2.51633 0
M  V30 8714 H 848.941 -2.04839 -2.75492 0
M  V30 8715 N 851.386 1.48609 -0.524698 0
M  V30 8716 C 852.296 2.33318 0.244923 0
M  V30 8717 C 853.312 1.46153 0.944214 0
M  V30 8718 O 854.488 1.79141 0.920347 0
M  V30 8719 C 851.553 3.22149 1.28144 0
M  V30 8720 C 850.614 4.25184 0.593068 0
M  V30 8721 C 849.847 5.0977 1.5802 0
M  V30 8722 O 850.07 4.96249 2.81235 0
M  V30 8723 O 849.004 5.9134 1.1225 0
M  V30 8724 H 852.83 3.00362 -0.449066 0
M  V30 8725 H 850.415 1.46643 -0.285689 0
M  V30 8726 H 852.297 3.77111 1.88057 0
M  V30 8727 H 850.972 2.57772 1.95793 0
M  V30 8728 H 849.879 3.74071 -0.0464214 0
M  V30 8729 H 851.212 4.92183 -0.0413893 0
M  V30 8730 N 852.864 0.259585 1.55447 0
M  V30 8731 C 854.089 -0.368317 2.04103 0
M  V30 8732 C 854.514 -1.49827 1.13725 0
M  V30 8733 O 853.872 -1.80814 0.132705 0
M  V30 8734 C 853.92 -0.841506 3.50644 0
M  V30 8735 O 853.024 -1.95008 3.63381 0
M  V30 8736 H 852.365 -0.0785227 0.659341 0
M  V30 8737 H 854.895 0.389349 2.00861 0
M  V30 8738 H 854.905 -1.14138 3.9171 0
M  V30 8739 H 853.58 -0.0147001 4.15897 0
M  V30 8740 H 852.157 -1.65393 3.34215 0
M  V30 8741 N 854.342 -1.57594 -0.0133615 0
M  V30 8742 C 855.305 -2.06534 -0.993799 0
M  V30 8743 C 856.305 -0.972267 -1.28077 0
M  V30 8744 O 857.495 -1.23537 -1.22818 0
M  V30 8745 C 854.627 -2.49554 -2.3224 0
M  V30 8746 H 855.82 -2.94419 -0.570741 0
M  V30 8747 H 853.373 -1.54113 -0.260546 0
M  V30 8748 H 854.108 -1.64872 -2.79263 0
M  V30 8749 H 853.893 -3.29371 -2.12737 0
M  V30 8750 H 855.383 -2.8779 -3.026 0
M  V30 8751 N 855.82 0.285905 -1.54985 0
M  V30 8752 C 857.066 1.02071 -1.75241 0
M  V30 8753 C 857.399 1.864 -0.544842 0
M  V30 8754 O 856.674 1.89034 0.457844 0
M  V30 8755 C 856.957 1.91409 -3.05016 0
M  V30 8756 C 856.81 1.10158 -4.36102 0
M  V30 8757 C 858.129 2.90335 -3.30747 0
M  V30 8758 H 855.248 0.369663 -0.637588 0
M  V30 8759 H 857.89 0.294114 -1.8771 0
M  V30 8760 H 856.04 2.53362 -2.94517 0
M  V30 8761 H 857.712 0.503756 -4.58541 0
M  V30 8762 H 855.955 0.404675 -4.31908 0
M  V30 8763 H 856.626 1.75956 -5.23205 0
M  V30 8764 H 859.102 2.38514 -3.40955 0
M  V30 8765 H 857.978 3.49997 -4.2284 0
M  V30 8766 H 858.239 3.64787 -2.49765 0
M  V30 8767 N 857.298 1.47698 0.54982 0
M  V30 8768 C 858.547 1.53961 1.30303 0
M  V30 8769 C 858.86 0.209731 1.94472 0
M  V30 8770 O 860.066 0.150418 2.71083 0
M  V30 8771 C 858.522 2.71436 2.36328 0
M  V30 8772 C 858.13 4.10983 1.78316 0
M  V30 8773 C 859.874 2.86996 3.12783 0
M  V30 8774 C 857.781 5.19747 2.82164 0
M  V30 8775 H 856.711 0.573098 0.489975 0
M  V30 8776 H 859.362 1.73989 0.583089 0
M  V30 8777 H 857.744 2.44801 3.11269 0
M  V30 8778 H 858.918 4.47552 1.09697 0
M  V30 8779 H 857.233 4.00371 1.1442 0
M  V30 8780 H 859.83 3.65422 3.90347 0
M  V30 8781 H 860.173 1.95712 3.67427 0
M  V30 8782 H 860.706 3.13436 2.44954 0
M  V30 8783 H 857.445 6.12932 2.32366 0
M  V30 8784 H 856.965 4.87688 3.49171 0
M  V30 8785 H 858.644 5.47014 3.4552 0
M  V30 8786 N 858.776 -0.797141 1.35954 0
M  V30 8787 C 860.024 -1.55161 1.29497 0
M  V30 8788 C 860.345 -1.94582 -0.127659 0
M  V30 8789 O 859.615 -1.64343 -1.06622 0
M  V30 8790 H 858.195 -0.575413 0.47635 0
M  V30 8791 H 860.857 -0.950282 1.70164 0
M  V30 8792 H 859.953 -2.46272 1.9172 0
M  V30 8793 N 860.254 -1.20106 -1.0204 0
M  V30 8794 C 861.484 -1.0329 -1.78927 0
M  V30 8795 C 861.892 0.421115 -1.84454 0
M  V30 8796 O 861.235 1.30422 -1.29367 0
M  V30 8797 C 861.297 -1.53627 -3.25021 0
M  V30 8798 C 860.961 -3.01869 -3.4311 0
M  V30 8799 C 861.958 -3.9956 -3.32638 0
M  V30 8800 C 859.643 -3.40746 -3.6905 0
M  V30 8801 C 861.637 -5.34119 -3.47844 0
M  V30 8802 C 859.324 -4.75462 -3.839 0
M  V30 8803 C 860.322 -5.71957 -3.73302 0
M  V30 8804 O 860.01 -7.04231 -3.87703 0
M  V30 8805 H 859.742 -0.363962 -0.569656 0
M  V30 8806 H 862.296 -1.59551 -1.29354 0
M  V30 8807 H 860.526 -0.917481 -3.75658 0
M  V30 8808 H 862.215 -1.32889 -3.8353 0
M  V30 8809 H 862.981 -3.70869 -3.12539 0
M  V30 8810 H 858.86 -2.66182 -3.76388 0
M  V30 8811 H 862.404 -6.09421 -3.39488 0
M  V30 8812 H 858.301 -5.03844 -4.03499 0
M  V30 8813 H 859.069 -7.11425 -4.04744 0
M  V30 8814 N 861.732 1.21287 -1.00634 0
M  V30 8815 C 863.143 1.72136 -0.722914 0
M  V30 8816 C 863.494 1.8091 0.759338 0
M  V30 8817 O 862.619 1.46458 1.59308 0
M  V30 8818 C 863.214 3.12633 -1.30561 0
M  V30 8819 C 861.773 3.60833 -1.07127 0
M  V30 8820 C 860.92 2.38326 -1.4176 0
M  V30 8821 H 863.871 1.06445 -1.17708 0
M  V30 8822 H 863.892 3.74174 -0.690937 0
M  V30 8823 H 863.404 3.06215 -2.38441 0
M  V30 8824 H 861.505 3.72599 -0.00968671 0
M  V30 8825 H 861.618 4.46226 -1.74411 0
M  V30 8826 H 859.982 2.40575 -0.836412 0
M  V30 8827 H 860.765 2.34558 -2.50674 0
M  V30 8828 N 863.21 0.781244 1.36873 0
M  V30 8829 C 864.16 0.147313 2.27524 0
M  V30 8830 C 865.144 -0.663928 1.46563 0
M  V30 8831 O 866.336 -0.525343 1.69024 0
M  V30 8832 C 863.465 -0.723511 3.35589 0
M  V30 8833 C 862.551 0.0960763 4.23991 0
M  V30 8834 N 862.942 1.14649 4.92635 0
M  V30 8835 C 861.24 -0.126397 4.45821 0
M  V30 8836 C 861.941 1.64474 5.57964 0
M  V30 8837 N 860.917 0.955316 5.3514 0
M  V30 8838 H 864.719 0.951406 2.78075 0
M  V30 8839 H 862.233 0.619913 1.50103 0
M  V30 8840 H 864.23 -1.19351 3.99451 0
M  V30 8841 H 862.89 -1.52624 2.86594 0
M  V30 8842 H 863.901 1.5288 4.94821 0
M  V30 8843 H 860.578 -0.900284 4.07678 0
M  V30 8844 H 861.968 2.52124 6.22803 0
M  V30 8845 N 864.689 -1.48329 0.532571 0
M  V30 8846 C 865.966 -1.95492 -0.0650985 0
M  V30 8847 C 866.346 -1.47485 -1.51034 0
M  V30 8848 O 865.694 -0.702516 -2.17433 0
M  V30 8849 C 865.904 -3.48957 0.0548341 0
M  V30 8850 C 867.252 -4.24475 -0.103115 0
M  V30 8851 O 868.276 -3.56195 -0.0188343 0
M  V30 8852 O 867.135 -5.45781 -0.280164 0
M  V30 8853 H 864.229 -0.823327 -0.0778603 0
M  V30 8854 H 866.775 -1.58839 0.597353 0
M  V30 8855 H 865.547 -3.76628 1.06148 0
M  V30 8856 H 865.17 -3.92311 -0.64635 0
M  V30 8857 N 866.167 -0.267825 -1.55308 0
M  V30 8858 C 867.416 0.351635 -1.98611 0
M  V30 8859 C 867.729 1.57522 -1.15957 0
M  V30 8860 O 868.935 2.26717 -1.49371 0
M  V30 8861 C 867.391 0.676986 -3.53475 0
M  V30 8862 C 866.999 -0.526385 -4.44897 0
M  V30 8863 C 868.743 1.25948 -4.05386 0
M  V30 8864 C 866.65 -0.176026 -5.91138 0
M  V30 8865 H 865.58 0.13516 -0.741787 0
M  V30 8866 H 868.231 -0.371333 -1.79704 0
M  V30 8867 H 866.613 1.45866 -3.68156 0
M  V30 8868 H 867.787 -1.30339 -4.41982 0
M  V30 8869 H 866.102 -1.02522 -4.03582 0
M  V30 8870 H 868.699 1.53529 -5.12184 0
M  V30 8871 H 869.042 2.19094 -3.53982 0
M  V30 8872 H 869.575 0.540253 -3.94114 0
M  V30 8873 H 866.314 -1.07518 -6.46622 0
M  V30 8874 H 865.834 0.564363 -5.97139 0
M  V30 8875 H 867.513 0.234365 -6.46575 0
M  V30 8876 N 867.645 1.57599 0.00500368 0
M  V30 8877 C 868.592 2.08106 0.998025 0
M  V30 8878 C 869.562 0.975374 1.34446 0
M  V30 8879 O 870.747 1.24749 1.44369 0
M  V30 8880 C 867.887 2.58496 2.28635 0
M  V30 8881 C 867 3.82947 1.99939 0
M  V30 8882 C 866.135 4.21857 3.22816 0
M  V30 8883 C 865.174 5.39159 2.89783 0
M  V30 8884 N 864.311 5.73386 4.05183 0
M  V30 8885 H 869.151 2.92684 0.560385 0
M  V30 8886 H 866.688 1.44692 0.265053 0
M  V30 8887 H 868.646 2.85787 3.03943 0
M  V30 8888 H 867.276 1.768 2.70077 0
M  V30 8889 H 866.328 3.62594 1.1502 0
M  V30 8890 H 867.64 4.68358 1.71588 0
M  V30 8891 H 866.794 4.50404 4.06474 0
M  V30 8892 H 865.533 3.35145 3.54301 0
M  V30 8893 H 864.538 5.1034 2.04532 0
M  V30 8894 H 865.763 6.27543 2.59551 0
M  V30 8895 H 863.709 4.89632 4.36574 0
M  V30 8896 H 863.626 6.53359 3.80339 0
M  V30 8897 H 864.894 6.06522 4.89644 0
M  V30 8898 N 869.123 -0.277682 1.55134 0
M  V30 8899 C 870.371 -1.00791 1.75173 0
M  V30 8900 C 870.692 -1.86987 0.553266 0
M  V30 8901 O 869.962 -1.91079 -0.43195 0
M  V30 8902 H 868.542 -0.375129 0.645978 0
M  V30 8903 H 871.204 -0.303041 1.9253 0
M  V30 8904 H 870.3 -1.64756 2.6507 0
M  V30 8905 N 870.601 -1.47988 -0.541979 0
M  V30 8906 C 871.511 -1.64276 -1.67483 0
M  V30 8907 C 872.527 -0.525387 -1.65879 0
M  V30 8908 O 873.703 -0.794912 -1.85049 0
M  V30 8909 C 870.768 -1.66744 -3.03969 0
M  V30 8910 C 869.829 -2.90021 -3.16522 0
M  V30 8911 C 869.062 -2.92362 -4.46498 0
M  V30 8912 O 869.285 -2.03462 -5.32878 0
M  V30 8913 O 868.219 -3.84399 -4.63164 0
M  V30 8914 H 872.045 -2.60164 -1.5668 0
M  V30 8915 H 869.63 -1.31249 -0.71372 0
M  V30 8916 H 871.512 -1.70958 -3.85164 0
M  V30 8917 H 870.187 -0.740277 -3.15122 0
M  V30 8918 H 869.094 -2.91345 -2.34667 0
M  V30 8919 H 870.427 -3.82082 -3.10281 0
M  V30 8920 N 872.079 0.78992 -1.36375 0
M  V30 8921 C 873.042 1.88414 -1.30509 0
M  V30 8922 C 874.042 1.59384 -0.2129 0
M  V30 8923 O 875.232 1.67805 -0.467651 0
M  V30 8924 C 872.364 3.25188 -1.02302 0
M  V30 8925 H 873.557 1.95031 -2.27822 0
M  V30 8926 H 871.11 0.987664 -1.2114 0
M  V30 8927 H 871.845 3.24254 -0.0544486 0
M  V30 8928 H 871.63 3.47647 -1.81338 0
M  V30 8929 H 873.12 4.05252 -1.00801 0
M  V30 8930 N 873.557 1.20646 1.01402 0
M  V30 8931 C 874.52 0.959314 2.08158 0
M  V30 8932 C 875.52 -0.0661558 1.60664 0
M  V30 8933 O 876.71 0.170177 1.73367 0
M  V30 8934 C 873.842 0.444785 3.37986 0
M  V30 8935 H 875.035 1.90631 2.31517 0
M  V30 8936 H 872.588 1.02219 1.18241 0
M  V30 8937 H 873.323 -0.507553 3.20304 0
M  V30 8938 H 873.108 1.18435 3.73785 0
M  V30 8939 H 874.598 0.291443 4.16582 0
M  V30 8940 N 875.035 -1.20752 1.01276 0
M  V30 8941 C 876.282 -1.90021 0.699887 0
M  V30 8942 C 876.61 -1.78604 -0.770113 0
M  V30 8943 O 875.865 -1.16195 -1.57471 0
M  V30 8944 C 876.164 -3.40808 1.07633 0
M  V30 8945 C 875.83 -3.72423 2.54189 0
M  V30 8946 C 874.492 -3.80762 2.94234 0
M  V30 8947 C 876.844 -3.87025 3.49086 0
M  V30 8948 C 874.172 -4.01158 4.28123 0
M  V30 8949 C 876.524 -4.0893 4.82658 0
M  V30 8950 C 875.188 -4.15498 5.22415 0
M  V30 8951 H 874.458 -0.695335 0.256107 0
M  V30 8952 H 877.105 -1.43096 1.27263 0
M  V30 8953 H 875.41 -3.89521 0.421944 0
M  V30 8954 H 877.107 -3.92693 0.811997 0
M  V30 8955 H 873.697 -3.66529 2.22158 0
M  V30 8956 H 877.881 -3.79942 3.19309 0
M  V30 8957 H 873.137 -4.04476 4.58486 0
M  V30 8958 H 877.311 -4.19172 5.56119 0
M  V30 8959 H 874.938 -4.31055 6.26176 0
M  V30 8960 N 876.513 -0.788492 -1.36457 0
M  V30 8961 C 877.476 -0.192209 -2.28393 0
M  V30 8962 C 878.476 0.609916 -1.48784 0
M  V30 8963 O 879.666 0.431046 -1.68783 0
M  V30 8964 C 876.798 0.734096 -3.32902 0
M  V30 8965 H 877.991 -1.00284 -2.82636 0
M  V30 8966 H 875.544 -0.557852 -1.46006 0
M  V30 8967 H 876.279 1.5691 -2.83813 0
M  V30 8968 H 876.064 0.160875 -3.9177 0
M  V30 8969 H 877.554 1.1462 -4.01562 0
M  V30 8970 N 877.991 1.48044 -0.54043 0
M  V30 8971 C 879.238 2.02497 -0.0101567 0
M  V30 8972 C 879.566 1.41651 1.33286 0
M  V30 8973 O 878.821 0.555504 1.8765 0
M  V30 8974 C 879.12 3.57085 0.150008 0
M  V30 8975 C 878.786 4.36769 -1.11998 0
M  V30 8976 C 877.448 4.58261 -1.46801 0
M  V30 8977 C 879.8 4.82848 -1.96232 0
M  V30 8978 C 877.128 5.23079 -2.65717 0
M  V30 8979 C 879.48 5.48977 -3.14335 0
M  V30 8980 C 878.144 5.68705 -3.49472 0
M  V30 8981 H 877.414 0.740991 -0.00371661 0
M  V30 8982 H 880.061 1.77909 -0.708562 0
M  V30 8983 H 878.366 3.80572 0.931259 0
M  V30 8984 H 880.063 3.96851 0.575384 0
M  V30 8985 H 876.653 4.20309 -0.838957 0
M  V30 8986 H 880.837 4.66038 -1.70654 0
M  V30 8987 H 876.093 5.36549 -2.93129 0
M  V30 8988 H 880.267 5.83649 -3.79904 0
M  V30 8989 H 877.894 6.18703 -4.41713 0
M  V30 8990 N 879.47 0.276058 1.55163 0
M  V30 8991 C 880.719 -0.341098 1.98795 0
M  V30 8992 C 881.032 -1.56905 1.16791 0
M  V30 8993 O 882.238 -2.25922 1.50571 0
M  V30 8994 C 880.694 -0.658231 3.5383 0
M  V30 8995 C 880.302 0.549972 4.44611 0
M  V30 8996 C 882.046 -1.23796 4.06048 0
M  V30 8997 C 879.953 0.207373 5.91036 0
M  V30 8998 H 878.883 -0.131224 0.742493 0
M  V30 8999 H 881.534 0.380858 1.79504 0
M  V30 9000 H 879.916 -1.43911 3.68925 0
M  V30 9001 H 881.09 1.32681 4.41285 0
M  V30 9002 H 879.405 1.04661 4.03032 0
M  V30 9003 H 882.002 -1.50811 5.12991 0
M  V30 9004 H 882.345 -2.17214 3.55139 0
M  V30 9005 H 882.878 -0.519345 3.94395 0
M  V30 9006 H 879.617 1.10946 6.46043 0
M  V30 9007 H 879.137 -0.532687 5.9743 0
M  V30 9008 H 880.816 -0.200072 6.46691 0
M  V30 9009 N 880.948 -1.576 0.00335426 0
M  V30 9010 C 882.194 -1.90996 -0.681799 0
M  V30 9011 C 882.527 -0.877643 -1.73237 0
M  V30 9012 O 881.802 0.103183 -1.94226 0
M  V30 9013 C 882.085 -3.34961 -1.32187 0
M  V30 9014 C 881.938 -4.48911 -0.28261 0
M  V30 9015 C 883.257 -3.78408 -2.24711 0
M  V30 9016 H 880.376 -0.694596 -0.246386 0
M  V30 9017 H 883.018 -1.89919 0.055336 0
M  V30 9018 H 881.168 -3.36008 -1.95014 0
M  V30 9019 H 882.84 -4.59999 0.346241 0
M  V30 9020 H 881.083 -4.32 0.394768 0
M  V30 9021 H 881.754 -5.46609 -0.769576 0
M  V30 9022 H 884.23 -3.78934 -1.71897 0
M  V30 9023 H 883.106 -4.79885 -2.66461 0
M  V30 9024 H 883.367 -3.12464 -3.1276 0
M  V30 9025 N 882.426 0.269451 -1.5528 0
M  V30 9026 C 883.672 1.00206 -1.76314 0
M  V30 9027 C 884.005 1.85812 -0.564581 0
M  V30 9028 O 883.28 1.89509 0.437769 0
M  V30 9029 C 883.563 1.88163 -3.07029 0
M  V30 9030 C 883.416 1.05527 -4.37246 0
M  V30 9031 C 884.735 2.8681 -3.33808 0
M  V30 9032 H 881.854 0.36288 -0.641473 0
M  V30 9033 H 884.496 0.274188 -1.88011 0
M  V30 9034 H 882.646 2.50224 -2.97187 0
M  V30 9035 H 884.318 0.455094 -4.5905 0
M  V30 9036 H 882.561 0.358842 -4.32313 0
M  V30 9037 H 883.232 1.70397 -5.25042 0
M  V30 9038 H 885.708 2.34884 -3.43466 0
M  V30 9039 H 884.584 3.45492 -4.26528 0
M  V30 9040 H 884.845 3.62118 -2.5362 0
M  V30 9041 N 883.904 1.48273 0.534124 0
M  V30 9042 C 884.851 1.62487 1.6391 0
M  V30 9043 C 885.821 0.467062 1.59398 0
M  V30 9044 O 887.006 0.690029 1.77885 0
M  V30 9045 C 884.146 1.66671 3.02183 0
M  V30 9046 C 883.259 2.9353 3.16961 0
M  V30 9047 C 882.394 2.88902 4.45768 0
M  V30 9048 C 881.433 4.10483 4.54059 0
M  V30 9049 N 880.57 4.03956 5.74251 0
M  V30 9050 H 885.41 2.56851 1.51101 0
M  V30 9051 H 882.947 1.27381 0.735704 0
M  V30 9052 H 884.905 1.67079 3.82283 0
M  V30 9053 H 883.535 0.758011 3.13774 0
M  V30 9054 H 882.587 3.02886 2.3014 0
M  V30 9055 H 883.899 3.83501 3.18949 0
M  V30 9056 H 883.053 2.87688 5.34154 0
M  V30 9057 H 881.792 1.96652 4.46295 0
M  V30 9058 H 880.797 4.11977 3.64081 0
M  V30 9059 H 882.022 5.03887 4.55274 0
M  V30 9060 H 879.968 3.14525 5.75682 0
M  V30 9061 H 879.885 4.87628 5.77715 0
M  V30 9062 H 881.153 4.06795 6.64935 0
M  V30 9063 N 885.382 -0.782676 1.36792 0
M  V30 9064 C 886.659 -1.52939 1.21939 0
M  V30 9065 C 887.039 -2.10228 -0.191639 0
M  V30 9066 O 886.387 -1.94574 -1.19805 0
M  V30 9067 C 886.597 -2.61898 2.30674 0
M  V30 9068 C 887.945 -3.29598 2.67676 0
M  V30 9069 O 888.969 -2.72186 2.29768 0
M  V30 9070 O 887.828 -4.3337 3.32946 0
M  V30 9071 H 884.922 -0.676856 0.47518 0
M  V30 9072 H 887.468 -0.82058 1.48542 0
M  V30 9073 H 886.24 -2.17607 3.25212 0
M  V30 9074 H 885.863 -3.40391 2.05475 0
M  V30 9075 N 886.86 -1.21182 -1.00761 0
M  V30 9076 C 888.085 -1.05411 -1.78615 0
M  V30 9077 C 888.51 0.391837 -1.83973 0
M  V30 9078 O 887.868 1.28256 -1.28141 0
M  V30 9079 C 887.916 -1.65285 -3.20489 0
M  V30 9080 O 887.02 -0.896558 -4.02536 0
M  V30 9081 H 886.361 -0.37116 -0.550578 0
M  V30 9082 H 888.891 -1.60669 -1.26676 0
M  V30 9083 H 888.901 -1.69397 -3.71172 0
M  V30 9084 H 887.576 -2.70514 -3.15904 0
M  V30 9085 H 886.153 -0.930335 -3.61108 0
M  V30 9086 N 888.338 1.20213 -1.01915 0
M  V30 9087 C 889.301 2.21307 -0.596327 0
M  V30 9088 C 890.301 1.57274 0.334879 0
M  V30 9089 O 891.491 1.73764 0.12322 0
M  V30 9090 C 888.623 3.40657 0.128808 0
M  V30 9091 H 889.816 2.60228 -1.49068 0
M  V30 9092 H 887.369 1.33721 -0.809226 0
M  V30 9093 H 888.104 3.07241 1.03796 0
M  V30 9094 H 887.889 3.88361 -0.540183 0
M  V30 9095 H 889.379 4.15564 0.411892 0
M  V30 9096 N 889.816 0.795718 1.36037 0
M  V30 9097 C 891.064 0.370291 1.98679 0
M  V30 9098 C 891.385 -1.06332 1.63458 0
M  V30 9099 O 890.655 -1.73394 0.911671 0
M  V30 9100 H 889.235 0.133928 0.734896 0
M  V30 9101 H 891.897 1.01915 1.6613 0
M  V30 9102 H 890.993 0.467207 3.08583 0
M  V30 9103 N 891.294 -1.47756 0.548274 0
M  V30 9104 C 892.571 -1.9555 -0.0443603 0
M  V30 9105 C 892.951 -1.49079 -1.49462 0
M  V30 9106 O 892.299 -0.725538 -2.16675 0
M  V30 9107 C 892.509 -3.48879 0.0918425 0
M  V30 9108 C 893.857 -4.2456 -0.0580879 0
M  V30 9109 O 894.881 -3.56195 0.018946 0
M  V30 9110 O 893.74 -5.46048 -0.222261 0
M  V30 9111 H 890.834 -0.824106 -0.0691235 0
M  V30 9112 H 893.38 -1.58196 0.614166 0
M  V30 9113 H 892.152 -3.7548 1.10137 0
M  V30 9114 H 891.775 -3.92975 -0.604704 0
M  V30 9115 N 892.772 -0.284283 -1.55015 0
M  V30 9116 C 893.997 0.335799 -2.04664 0
M  V30 9117 C 894.422 1.47999 -1.16094 0
M  V30 9118 O 893.78 1.8058 -0.161454 0
M  V30 9119 C 893.828 0.785615 -3.51938 0
M  V30 9120 O 892.932 1.89202 -3.66437 0
M  V30 9121 H 892.273 0.0680233 -0.660506 0
M  V30 9122 H 894.803 -0.421255 -2.00216 0
M  V30 9123 H 894.813 1.07892 -3.93476 0
M  V30 9124 H 893.488 -0.0514675 -4.15868 0
M  V30 9125 H 892.065 1.60055 -3.36804 0
M  V30 9126 N 894.251 1.57596 -0.0117121 0
M  V30 9127 C 895.528 1.82323 0.708356 0
M  V30 9128 C 895.908 0.891947 1.91331 0
M  V30 9129 O 895.256 -0.0565984 2.2843 0
M  V30 9130 C 895.466 3.31111 1.10303 0
M  V30 9131 C 896.814 3.97147 1.50199 0
M  V30 9132 O 897.838 3.35503 1.1965 0
M  V30 9133 O 896.697 5.0576 2.07049 0
M  V30 9134 H 893.791 0.751173 0.345931 0
M  V30 9135 H 896.337 1.69657 -0.0380632 0
M  V30 9136 H 895.109 3.90534 0.24467 0
M  V30 9137 H 894.732 3.48818 1.90818 0
M  V30 9138 N 895.729 -0.261212 1.5542 0
M  V30 9139 C 896.975 -0.992699 1.76843 0
M  V30 9140 C 897.308 -1.8551 0.574428 0
M  V30 9141 O 896.583 -1.89739 -0.427713 0
M  V30 9142 C 896.866 -1.86532 3.08022 0
M  V30 9143 C 896.719 -1.03206 4.378 0
M  V30 9144 C 898.038 -2.85036 3.35324 0
M  V30 9145 H 895.157 -0.359473 0.643388 0
M  V30 9146 H 897.799 -0.264214 1.88154 0
M  V30 9147 H 895.949 -2.48644 2.9851 0
M  V30 9148 H 897.621 -0.430743 4.59285 0
M  V30 9149 H 895.864 -0.335911 4.32497 0
M  V30 9150 H 896.535 -1.6761 5.25938 0
M  V30 9151 H 899.011 -2.3306 3.44706 0
M  V30 9152 H 897.887 -3.43226 4.28354 0
M  V30 9153 H 898.148 -3.60768 2.55537 0
M  V30 9154 N 897.207 -1.48554 -0.526253 0
M  V30 9155 C 898.453 -1.56994 -1.28378 0
M  V30 9156 C 898.786 -0.244701 -1.92652 0
M  V30 9157 O 898.061 0.749636 -1.79473 0
M  V30 9158 C 898.344 -2.71092 -2.37026 0
M  V30 9159 C 898.197 -4.13331 -1.77418 0
M  V30 9160 C 899.516 -2.80934 -3.38769 0
M  V30 9161 H 896.635 -0.571466 -0.465398 0
M  V30 9162 H 899.277 -1.80742 -0.585861 0
M  V30 9163 H 897.427 -2.50973 -2.96555 0
M  V30 9164 H 899.099 -4.44899 -1.21912 0
M  V30 9165 H 897.342 -4.20158 -1.07936 0
M  V30 9166 H 898.013 -4.88994 -2.56104 0
M  V30 9167 H 900.489 -2.9917 -2.892 0
M  V30 9168 H 899.365 -3.62489 -4.12181 0
M  V30 9169 H 899.626 -1.89244 -3.99549 0
M  V30 9170 N 898.685 0.775411 -1.37205 0
M  V30 9171 C 899.931 1.53611 -1.32407 0
M  V30 9172 C 900.264 1.9398 0.0924103 0
M  V30 9173 O 899.539 1.63791 1.04893 0
M  V30 9174 C 899.822 2.80367 -2.25979 0
M  V30 9175 C 899.675 2.46275 -3.76389 0
M  V30 9176 C 900.994 3.82277 -2.18064 0
M  V30 9177 H 898.113 0.557278 -0.482297 0
M  V30 9178 H 900.755 0.889826 -1.67875 0
M  V30 9179 H 898.905 3.35515 -1.95862 0
M  V30 9180 H 900.577 1.9707 -4.17087 0
M  V30 9181 H 898.82 1.79023 -3.95137 0
M  V30 9182 H 899.491 3.36868 -4.37291 0
M  V30 9183 H 901.967 3.36613 -2.44604 0
M  V30 9184 H 900.843 4.68696 -2.85684 0
M  V30 9185 H 901.104 4.26272 -1.17239 0
M  V30 9186 N 900.163 1.21714 1.00117 0
M  V30 9187 C 901.095 0.937627 2.09144 0
M  V30 9188 C 902.108 -0.0806291 1.626 0
M  V30 9189 O 903.297 0.152348 1.77849 0
M  V30 9190 C 900.397 0.387036 3.36683 0
M  V30 9191 C 899.57 1.46054 4.12295 0
M  V30 9192 C 898.629 0.918505 5.18122 0
M  V30 9193 O 897.655 1.60282 5.46167 0
M  V30 9194 N 898.857 -0.264308 5.79898 0
M  V30 9195 H 901.622 1.87622 2.33705 0
M  V30 9196 H 899.183 1.12291 1.16629 0
M  V30 9197 H 901.175 0.00992825 4.04699 0
M  V30 9198 H 899.745 -0.456467 3.09249 0
M  V30 9199 H 898.965 2.01133 3.39027 0
M  V30 9200 H 900.253 2.18306 4.59587 0
M  V30 9201 H 899.651 -0.837242 5.5947 0
M  V30 9202 H 898.208 -0.582886 6.49188 0
M  V30 9203 N 901.641 -1.19671 1.02551 0
M  V30 9204 C 902.551 -2.26441 0.613329 0
M  V30 9205 C 903.567 -1.70375 -0.353339 0
M  V30 9206 O 904.743 -2.0028 -0.212064 0
M  V30 9207 C 901.808 -3.46684 -0.0329028 0
M  V30 9208 C 900.869 -4.17945 0.980837 0
M  V30 9209 C 900.102 -5.32448 0.36535 0
M  V30 9210 O 900.325 -5.64291 -0.832596 0
M  V30 9211 O 899.259 -5.92012 1.08652 0
M  V30 9212 H 903.085 -2.63932 1.50246 0
M  V30 9213 H 900.67 -1.2646 0.795502 0
M  V30 9214 H 902.552 -4.1956 -0.393395 0
M  V30 9215 H 901.227 -3.1105 -0.896089 0
M  V30 9216 H 900.134 -3.47204 1.39286 0
M  V30 9217 H 901.467 -4.57542 1.81428 0
M  V30 9218 N 903.119 -0.802921 -1.35613 0
M  V30 9219 C 904.049 -0.225131 -2.32412 0
M  V30 9220 C 905.03 0.647383 -1.57299 0
M  V30 9221 O 906.215 0.578414 -1.85386 0
M  V30 9222 C 903.345 0.630085 -3.41537 0
M  V30 9223 C 902.299 -0.143635 -4.27759 0
M  V30 9224 C 901.625 0.833046 -5.28171 0
M  V30 9225 C 902.925 -1.34054 -5.04804 0
M  V30 9226 H 904.619 -1.03385 -2.80984 0
M  V30 9227 H 902.165 -0.498593 -1.35093 0
M  V30 9228 H 904.118 1.04433 -4.08254 0
M  V30 9229 H 902.842 1.47165 -2.91565 0
M  V30 9230 H 901.501 -0.539015 -3.62616 0
M  V30 9231 H 901.149 1.67001 -4.74468 0
M  V30 9232 H 900.849 0.319697 -5.8673 0
M  V30 9233 H 902.373 1.24558 -5.97761 0
M  V30 9234 H 903.787 -1.00136 -5.64487 0
M  V30 9235 H 902.184 -1.78812 -5.72841 0
M  V30 9236 H 903.254 -2.12906 -4.35659 0
M  V30 9237 N 904.597 1.47463 -0.556102 0
M  V30 9238 C 905.544 2.29998 0.192213 0
M  V30 9239 C 906.514 1.38993 0.909403 0
M  V30 9240 O 907.699 1.67954 0.905316 0
M  V30 9241 C 904.839 3.22932 1.21692 0
M  V30 9242 C 903.952 4.29027 0.505908 0
M  V30 9243 C 903.087 5.09114 1.51581 0
M  V30 9244 C 902.126 6.06984 0.789714 0
M  V30 9245 N 901.263 6.80033 1.74639 0
M  V30 9246 H 906.103 2.93468 -0.517734 0
M  V30 9247 H 903.64 1.44654 -0.267147 0
M  V30 9248 H 905.598 3.75234 1.8236 0
M  V30 9249 H 904.228 2.61329 1.89491 0
M  V30 9250 H 903.28 3.7979 -0.215276 0
M  V30 9251 H 904.592 4.9876 -0.062958 0
M  V30 9252 H 903.746 5.6556 2.19606 0
M  V30 9253 H 902.485 4.3928 2.11859 0
M  V30 9254 H 901.49 5.49717 0.0955382 0
M  V30 9255 H 902.715 6.78827 0.192688 0
M  V30 9256 H 900.661 6.12931 2.33777 0
M  V30 9257 H 900.578 7.45933 1.22965 0
M  V30 9258 H 901.846 7.41054 2.41782 0
M  V30 9259 N 906.075 0.2925 1.54862 0
M  V30 9260 C 907.3 -0.32494 2.04839 0
M  V30 9261 C 907.725 -1.47381 1.16877 0
M  V30 9262 O 907.083 -1.80492 0.171028 0
M  V30 9263 C 907.131 -0.76694 3.5235 0
M  V30 9264 O 906.235 -1.87256 3.67436 0
M  V30 9265 H 905.576 -0.0645195 0.660858 0
M  V30 9266 H 908.106 0.431867 1.9999 0
M  V30 9267 H 908.116 -1.05804 3.94043 0
M  V30 9268 H 906.791 0.0735212 4.15835 0
M  V30 9269 H 905.368 -1.58266 3.37648 0
M  V30 9270 N 907.553 -1.57587 0.0200696 0
M  V30 9271 C 908.486 -2.05157 -0.999295 0
M  V30 9272 C 909.464 -0.945466 -1.32286 0
M  V30 9273 O 910.648 -1.21512 -1.44108 0
M  V30 9274 C 907.775 -2.46604 -2.32173 0
M  V30 9275 C 906.821 -3.68146 -2.15339 0
M  V30 9276 S 907.654 -5.15194 -1.46065 0
M  V30 9277 C 908.81 -5.59929 -2.79697 0
M  V30 9278 H 909.043 -2.91299 -0.59433 0
M  V30 9279 H 906.576 -1.53209 -0.191372 0
M  V30 9280 H 908.534 -2.7115 -3.08201 0
M  V30 9281 H 907.195 -1.60825 -2.69804 0
M  V30 9282 H 906.388 -3.94963 -3.13082 0
M  V30 9283 H 905.99 -3.43705 -1.47454 0
M  V30 9284 H 908.282 -5.63615 -3.75957 0
M  V30 9285 H 909.225 -6.59599 -2.57555 0
M  V30 9286 H 909.633 -4.87549 -2.84528 0
M  V30 9287 N 909.032 0.252966 -1.55557 0
M  V30 9288 C 910.278 0.983306 -1.77367 0
M  V30 9289 C 910.611 1.85203 -0.584258 0
M  V30 9290 O 909.886 1.89963 0.417644 0
M  V30 9291 C 910.169 1.84896 -3.09007 0
M  V30 9292 C 910.022 1.00883 -4.38341 0
M  V30 9293 C 911.341 2.83254 -3.36831 0
M  V30 9294 H 908.46 0.356056 -0.645286 0
M  V30 9295 H 911.102 0.254232 -1.88291 0
M  V30 9296 H 909.252 2.47058 -2.99825 0
M  V30 9297 H 910.924 0.40638 -4.59507 0
M  V30 9298 H 909.167 0.31297 -4.3267 0
M  V30 9299 H 909.838 1.64818 -5.2682 0
M  V30 9300 H 912.314 2.31228 -3.45937 0
M  V30 9301 H 911.19 3.40949 -4.30169 0
M  V30 9302 H 911.451 3.59407 -2.57447 0
M  V30 9303 N 910.51 1.48831 0.518367 0
M  V30 9304 C 911.473 1.63721 1.604 0
M  V30 9305 C 912.473 0.509857 1.52503 0
M  V30 9306 O 913.663 0.775922 1.55965 0
M  V30 9307 C 910.795 1.61831 3.00039 0
M  V30 9308 H 911.988 2.60534 1.48533 0
M  V30 9309 H 909.541 1.37602 0.741309 0
M  V30 9310 H 910.276 0.665387 3.17401 0
M  V30 9311 H 910.061 2.43686 3.0718 0
M  V30 9312 H 911.551 1.75467 3.78947 0
M  V30 9313 N 911.988 -0.768124 1.37614 0
M  V30 9314 C 913.216 -1.55726 1.36224 0
M  V30 9315 C 913.631 -1.8873 -0.0515357 0
M  V30 9316 O 912.988 -1.51718 -1.0143 0
M  V30 9317 C 913.039 -2.86533 2.20412 0
M  V30 9318 O 912.76 -2.54942 3.56281 0
M  V30 9319 C 914.261 -3.80745 2.27041 0
M  V30 9320 H 911.481 -0.482325 0.46648 0
M  V30 9321 H 914.025 -0.95176 1.81002 0
M  V30 9322 H 912.18 -3.43496 1.79134 0
M  V30 9323 H 912.594 -3.38732 4.00451 0
M  V30 9324 H 914.068 -4.69523 2.90263 0
M  V30 9325 H 914.545 -4.20138 1.27987 0
M  V30 9326 H 915.151 -3.2971 2.68647 0
M  V30 9327 N 913.466 -1.22244 -0.994698 0
M  V30 9328 C 914.413 -0.990906 -2.08446 0
M  V30 9329 C 915.383 0.086737 -1.65873 0
M  V30 9330 O 916.568 -0.0624882 -1.90698 0
M  V30 9331 C 913.708 -0.572813 -3.40313 0
M  V30 9332 C 912.821 -1.72103 -3.96238 0
M  V30 9333 C 911.956 -1.2511 -5.16257 0
M  V30 9334 C 910.995 -2.37098 -5.64315 0
M  V30 9335 N 910.132 -1.91164 -6.75574 0
M  V30 9336 H 914.972 -1.92377 -2.27585 0
M  V30 9337 H 912.509 -0.958576 -1.11578 0
M  V30 9338 H 914.467 -0.311594 -4.16035 0
M  V30 9339 H 913.097 0.323044 -3.21179 0
M  V30 9340 H 912.149 -2.09662 -3.17405 0
M  V30 9341 H 913.461 -2.56347 -4.27888 0
M  V30 9342 H 912.615 -0.947152 -5.99261 0
M  V30 9343 H 911.354 -0.378836 -4.86226 0
M  V30 9344 H 910.359 -2.68283 -4.799 0
M  V30 9345 H 911.584 -3.24837 -5.96371 0
M  V30 9346 H 909.53 -1.06298 -6.47331 0
M  V30 9347 H 909.447 -2.68975 -7.06533 0
M  V30 9348 H 910.715 -1.63833 -7.62088 0
M  V30 9349 N 914.944 1.19125 -1.03184 0
M  V30 9350 C 916.193 1.8821 -0.725264 0
M  V30 9351 C 916.506 1.80674 0.749411 0
M  V30 9352 O 917.712 2.45037 1.16915 0
M  V30 9353 C 916.168 3.37607 -1.24697 0
M  V30 9354 C 915.776 3.53693 -2.74964 0
M  V30 9355 C 917.52 4.12149 -1.01652 0
M  V30 9356 C 915.427 4.97001 -3.20538 0
M  V30 9357 H 914.357 0.704916 -0.267599 0
M  V30 9358 H 917.008 1.34663 -1.24652 0
M  V30 9359 H 915.39 3.90569 -0.653614 0
M  V30 9360 H 916.564 3.11046 -3.39981 0
M  V30 9361 H 914.879 2.92544 -2.96322 0
M  V30 9362 H 917.476 5.17837 -1.33226 0
M  V30 9363 H 917.819 4.16274 0.0465712 0
M  V30 9364 H 918.352 3.65334 -1.57403 0
M  V30 9365 H 915.091 4.9804 -4.26189 0
M  V30 9366 H 914.611 5.40398 -2.60251 0
M  V30 9367 H 916.29 5.65669 -3.14049 0
M  V30 9368 N 916.422 0.810101 1.35185 0
M  V30 9369 C 917.385 0.22852 2.28058 0
M  V30 9370 C 918.385 -0.586168 1.49735 0
M  V30 9371 O 919.575 -0.40414 1.69447 0
M  V30 9372 C 916.707 -0.681041 3.34028 0
M  V30 9373 H 917.9 1.04768 2.81005 0
M  V30 9374 H 915.453 0.58101 1.451 0
M  V30 9375 H 916.188 -1.52375 2.86273 0
M  V30 9376 H 915.973 -0.0985276 3.91976 0
M  V30 9377 H 917.463 -1.08217 4.03335 0
M  V30 9378 N 917.9 -1.47166 0.563914 0
M  V30 9379 C 918.847 -2.30097 -0.180013 0
M  V30 9380 C 919.817 -1.39473 -0.902019 0
M  V30 9381 O 921.002 -1.68432 -0.896396 0
M  V30 9382 C 918.142 -3.23573 -1.19978 0
M  V30 9383 C 917.255 -4.2929 -0.483149 0
M  V30 9384 C 916.39 -5.0991 -1.48879 0
M  V30 9385 C 915.429 -6.07395 -0.757513 0
M  V30 9386 N 914.566 -6.8095 -1.71031 0
M  V30 9387 H 919.406 -2.93189 0.53329 0
M  V30 9388 H 916.943 -1.4451 0.274814 0
M  V30 9389 H 918.901 -3.76196 -1.80368 0
M  V30 9390 H 917.531 -2.6233 -1.88103 0
M  V30 9391 H 916.583 -3.79671 0.235414 0
M  V30 9392 H 917.895 -4.9872 0.0894075 0
M  V30 9393 H 917.049 -5.66717 -2.16603 0
M  V30 9394 H 915.788 -4.40397 -2.09527 0
M  V30 9395 H 914.793 -5.4976 -0.0663841 0
M  V30 9396 H 916.018 -6.78919 -0.156685 0
M  V30 9397 H 913.964 -6.14162 -2.30524 0
M  V30 9398 H 913.881 -7.46574 -1.19007 0
M  V30 9399 H 915.149 -7.42326 -2.37849 0
M  V30 9400 N 919.378 -0.300708 -1.54705 0
M  V30 9401 C 920.608 0.310819 -2.04249 0
M  V30 9402 C 921.016 1.4809 -1.17754 0
M  V30 9403 O 920.359 1.82654 -0.195779 0
M  V30 9404 C 920.421 0.83014 -3.49784 0
M  V30 9405 C 920.085 -0.214628 -4.56496 0
M  V30 9406 C 921.082 -1.04298 -5.09331 0
M  V30 9407 C 918.767 -0.356242 -5.01035 0
M  V30 9408 C 920.761 -1.99889 -6.05246 0
M  V30 9409 C 918.448 -1.3156 -5.96771 0
M  V30 9410 C 919.446 -2.1354 -6.4876 0
M  V30 9411 O 919.134 -3.07849 -7.4262 0
M  V30 9412 H 918.866 0.0715341 -0.672204 0
M  V30 9413 H 921.42 -0.438179 -2.00672 0
M  V30 9414 H 919.65 1.62966 -3.50684 0
M  V30 9415 H 921.339 1.35752 -3.82526 0
M  V30 9416 H 922.105 -0.944439 -4.75716 0
M  V30 9417 H 917.984 0.271916 -4.60197 0
M  V30 9418 H 921.528 -2.63917 -6.45751 0
M  V30 9419 H 917.425 -1.41486 -6.29803 0
M  V30 9420 H 918.193 -3.02824 -7.60421 0
M  V30 9421 N 920.856 1.57574 -0.0284266 0
M  V30 9422 C 921.819 2.09096 0.938691 0
M  V30 9423 C 922.819 1.00588 1.25454 0
M  V30 9424 O 924.009 1.2675 1.19499 0
M  V30 9425 C 921.141 2.55624 2.25542 0
M  V30 9426 H 922.334 2.95829 0.49248 0
M  V30 9427 H 919.887 1.5475 0.219594 0
M  V30 9428 H 920.622 1.72218 2.74793 0
M  V30 9429 H 920.407 3.34896 2.03929 0
M  V30 9430 H 921.897 2.95712 2.94863 0
M  V30 9431 N 922.334 -0.244713 1.55689 0
M  V30 9432 C 923.58 -0.973886 1.77886 0
M  V30 9433 C 923.913 -1.8489 0.594071 0
M  V30 9434 O 923.188 -1.90182 -0.407564 0
M  V30 9435 C 923.471 -1.83255 3.09983 0
M  V30 9436 C 923.324 -0.985571 4.3887 0
M  V30 9437 C 924.643 -2.81464 3.38329 0
M  V30 9438 H 921.762 -0.352629 0.647165 0
M  V30 9439 H 924.404 -0.244243 1.88424 0
M  V30 9440 H 922.554 -2.45464 3.01131 0
M  V30 9441 H 924.226 -0.382005 4.59716 0
M  V30 9442 H 922.469 -0.29002 4.32829 0
M  V30 9443 H 923.14 -1.62022 5.27686 0
M  V30 9444 H 925.616 -2.2939 3.47159 0
M  V30 9445 H 924.492 -3.38663 4.31971 0
M  V30 9446 H 924.753 -3.58037 2.59349 0
M  V30 9447 N 923.813 -1.49104 -0.510467 0
M  V30 9448 C 925.224 -1.51423 -1.09215 0
M  V30 9449 C 925.575 -0.295035 -1.93969 0
M  V30 9450 O 924.7 0.596064 -2.08029 0
M  V30 9451 C 925.295 -2.74387 -1.98739 0
M  V30 9452 C 923.854 -2.79515 -2.52088 0
M  V30 9453 C 923.001 -2.4521 -1.29488 0
M  V30 9454 H 925.952 -1.55938 -0.294807 0
M  V30 9455 H 925.973 -2.54012 -2.83298 0
M  V30 9456 H 925.485 -3.63105 -1.37026 0
M  V30 9457 H 923.586 -1.95054 -3.17466 0
M  V30 9458 H 923.699 -3.81447 -2.89887 0
M  V30 9459 H 922.063 -1.96785 -1.61703 0
M  V30 9460 H 922.846 -3.36192 -0.694978 0
M  V30 9461 N 925.291 0.760815 -1.38019 0
M  V30 9462 C 926.568 1.5098 -1.24356 0
M  V30 9463 C 926.948 2.10507 0.158169 0
M  V30 9464 O 926.296 1.96455 1.16695 0
M  V30 9465 C 926.506 2.58195 -2.34811 0
M  V30 9466 C 927.854 3.25297 -2.72886 0
M  V30 9467 O 928.878 2.68496 -2.34069 0
M  V30 9468 O 927.737 4.28018 -3.39799 0
M  V30 9469 H 924.831 0.66921 -0.485888 0
M  V30 9470 H 927.377 0.796844 -1.49828 0
M  V30 9471 H 926.149 2.12406 -3.28633 0
M  V30 9472 H 925.772 3.37079 -2.10864 0
M  V30 9473 N 926.769 1.22769 0.988202 0
M  V30 9474 C 927.679 1.01844 2.11341 0
M  V30 9475 C 928.695 -0.0346937 1.73965 0
M  V30 9476 O 929.871 0.159061 2.00771 0
M  V30 9477 C 926.936 0.603837 3.41401 0
M  V30 9478 C 925.997 1.73113 3.92849 0
M  V30 9479 C 925.23 1.33621 5.16702 0
M  V30 9480 O 925.453 0.217041 5.69987 0
M  V30 9481 O 924.387 2.15444 5.62021 0
M  V30 9482 H 928.213 1.96127 2.31879 0
M  V30 9483 H 925.798 1.01405 1.09715 0
M  V30 9484 H 927.68 0.383196 4.19654 0
M  V30 9485 H 926.355 -0.310082 3.22211 0
M  V30 9486 H 925.262 2.00634 3.15748 0
M  V30 9487 H 926.595 2.62308 4.1648 0
M  V30 9488 N 928.247 -1.18576 1.03814 0
M  V30 9489 C 929.496 -1.87822 0.735235 0
M  V30 9490 C 929.809 -1.81069 -0.739819 0
M  V30 9491 O 931.015 -2.45654 -1.15614 0
M  V30 9492 C 929.471 -3.36941 1.26486 0
M  V30 9493 C 929.079 -3.5223 2.76836 0
M  V30 9494 C 930.823 -4.11604 1.03836 0
M  V30 9495 C 928.73 -4.95294 3.23169 0
M  V30 9496 H 927.66 -0.703487 0.271333 0
M  V30 9497 H 930.311 -1.34 1.25365 0
M  V30 9498 H 928.693 -3.90217 0.674318 0
M  V30 9499 H 929.867 -3.09239 3.41625 0
M  V30 9500 H 928.182 -2.90969 2.97869 0
M  V30 9501 H 930.779 -5.17123 1.3597 0
M  V30 9502 H 931.122 -4.16293 -0.0244945 0
M  V30 9503 H 931.655 -3.64494 1.59338 0
M  V30 9504 H 928.394 -4.95772 4.28824 0
M  V30 9505 H 927.914 -5.3901 2.63113 0
M  V30 9506 H 929.593 -5.63996 3.17045 0
M  V30 9507 N 929.725 -0.817259 -1.34754 0
M  V30 9508 C 930.655 -0.249769 -2.3216 0
M  V30 9509 C 931.636 0.630663 -1.57977 0
M  V30 9510 O 932.821 0.558719 -1.85989 0
M  V30 9511 C 929.951 0.593825 -3.42186 0
M  V30 9512 C 928.905 -0.188997 -4.27583 0
M  V30 9513 C 928.231 0.776979 -5.29025 0
M  V30 9514 C 929.531 -1.39401 -5.03354 0
M  V30 9515 H 931.225 -1.06359 -2.79872 0
M  V30 9516 H 928.771 -0.512894 -1.34556 0
M  V30 9517 H 930.724 1.00097 -4.09339 0
M  V30 9518 H 929.448 1.44064 -2.93109 0
M  V30 9519 H 928.107 -0.577445 -3.62024 0
M  V30 9520 H 927.755 1.61959 -4.76212 0
M  V30 9521 H 927.455 0.257448 -5.87036 0
M  V30 9522 H 928.979 1.18211 -5.99048 0
M  V30 9523 H 930.393 -1.06117 -5.63393 0
M  V30 9524 H 928.79 -1.84878 -5.70912 0
M  V30 9525 H 929.86 -2.17515 -4.33377 0
M  V30 9526 N 931.203 1.46865 -0.571711 0
M  V30 9527 C 932.449 2.0273 -0.0531858 0
M  V30 9528 C 932.782 1.44353 1.29907 0
M  V30 9529 O 932.057 0.604488 1.84868 0
M  V30 9530 C 932.34 3.60092 0.0243831 0
M  V30 9531 C 932.193 4.28874 -1.35599 0
M  V30 9532 C 933.512 4.33994 0.730563 0
M  V30 9533 H 930.631 0.736706 -0.0208018 0
M  V30 9534 H 933.273 1.75132 -0.736794 0
M  V30 9535 H 931.423 3.83736 0.606565 0
M  V30 9536 H 933.095 4.16527 -1.98249 0
M  V30 9537 H 931.338 3.88664 -1.92674 0
M  V30 9538 H 932.009 5.37561 -1.25429 0
M  V30 9539 H 934.485 4.1543 0.236098 0
M  V30 9540 H 933.361 5.43699 0.753836 0
M  V30 9541 H 933.622 4.04257 1.78967 0
M  V30 9542 N 932.681 0.308908 1.54543 0
M  V30 9543 C 933.927 -0.298478 2.00592 0
M  V30 9544 C 934.26 -1.52929 1.19692 0
M  V30 9545 O 933.535 -1.9254 0.27542 0
M  V30 9546 C 933.818 -0.647218 3.54236 0
M  V30 9547 C 933.671 0.593284 4.4587 0
M  V30 9548 C 934.99 -1.47064 4.14801 0
M  V30 9549 H 932.109 -0.107012 0.72919 0
M  V30 9550 H 934.751 0.422578 1.85241 0
M  V30 9551 H 932.901 -1.26153 3.67447 0
M  V30 9552 H 934.573 1.2317 4.44552 0
M  V30 9553 H 932.816 1.22501 4.16144 0
M  V30 9554 H 933.487 0.305018 5.51157 0
M  V30 9555 H 935.963 -0.951511 4.05075 0
M  V30 9556 H 934.839 -1.68343 5.22448 0
M  V30 9557 H 935.1 -2.4623 3.67183 0
M  V30 9558 N 934.159 -1.57557 0.0367827 0
M  V30 9559 C 935.106 -2.10679 -0.942499 0
M  V30 9560 C 936.076 -1.01068 -1.31812 0
M  V30 9561 O 937.261 -1.28533 -1.41011 0
M  V30 9562 C 934.401 -2.64467 -2.21701 0
M  V30 9563 C 933.514 -3.88114 -1.89715 0
M  V30 9564 C 932.649 -4.30268 -3.11518 0
M  V30 9565 C 931.688 -5.46652 -2.75387 0
M  V30 9566 N 930.825 -5.83927 -3.89838 0
M  V30 9567 H 935.665 -2.94066 -0.482588 0
M  V30 9568 H 933.202 -1.45344 -0.226597 0
M  V30 9569 H 935.16 -2.93745 -2.96259 0
M  V30 9570 H 933.79 -1.83898 -2.65295 0
M  V30 9571 H 932.842 -3.65516 -1.05366 0
M  V30 9572 H 934.154 -4.72743 -1.5911 0
M  V30 9573 H 933.308 -4.61023 -3.94389 0
M  V30 9574 H 932.047 -3.44421 -3.4529 0
M  V30 9575 H 931.052 -5.15583 -1.90929 0
M  V30 9576 H 932.277 -6.34204 -2.42822 0
M  V30 9577 H 930.223 -5.01035 -4.23438 0
M  V30 9578 H 930.14 -6.63214 -3.62883 0
M  V30 9579 H 931.408 -6.19291 -4.73391 0
M  V30 9580 N 935.637 0.236453 -1.55816 0
M  V30 9581 C 937.053 0.585465 -1.48474 0
M  V30 9582 C 937.253 1.8785 -0.72902 0
M  V30 9583 O 936.309 2.51131 -0.262614 0
M  V30 9584 C 937.622 0.678506 -2.92945 0
M  V30 9585 C 939.17 0.770135 -3.03378 0
M  V30 9586 C 939.645 0.894649 -4.49177 0
M  V30 9587 N 941.136 0.959253 -4.53158 0
M  V30 9588 C 941.871 1.07505 -5.63232 0
M  V30 9589 N 941.367 1.15572 -6.83092 0
M  V30 9590 N 943.16 1.10902 -5.51051 0
M  V30 9591 H 935.311 -0.612241 -2.03385 0
M  V30 9592 H 937.574 -0.212796 -0.923808 0
M  V30 9593 H 937.28 -0.201757 -3.51121 0
M  V30 9594 H 937.154 1.54703 -3.44016 0
M  V30 9595 H 939.541 1.64085 -2.45276 0
M  V30 9596 H 939.622 -0.123753 -2.555 0
M  V30 9597 H 939.266 0.0284537 -5.07892 0
M  V30 9598 H 939.196 1.80373 -4.94745 0
M  V30 9599 H 941.687 0.907827 -3.66834 0
M  V30 9600 H 942 1.24343 -7.62731 0
M  V30 9601 H 940.345 1.12511 -6.85833 0
M  V30 9602 H 943.536 1.04255 -4.56343 0
M  V30 9603 H 943.709 1.19581 -6.36871 0
M  V30 9604 N 937.115 1.49373 0.502552 0
M  V30 9605 C 938.045 1.68839 1.61294 0
M  V30 9606 C 939.026 0.537096 1.61398 0
M  V30 9607 O 940.211 0.772764 1.78163 0
M  V30 9608 C 937.341 1.75347 2.99784 0
M  V30 9609 C 936.295 2.90251 3.14545 0
M  V30 9610 C 935.621 2.8187 4.54371 0
M  V30 9611 C 936.921 4.31207 2.94717 0
M  V30 9612 H 938.615 2.61803 1.45257 0
M  V30 9613 H 936.161 1.25987 0.697371 0
M  V30 9614 H 938.114 1.87552 3.77362 0
M  V30 9615 H 936.838 0.789814 3.16906 0
M  V30 9616 H 935.497 2.77646 2.39392 0
M  V30 9617 H 935.145 1.83416 4.68367 0
M  V30 9618 H 934.845 3.5899 4.65188 0
M  V30 9619 H 936.369 2.96081 5.34012 0
M  V30 9620 H 937.783 4.44501 3.62065 0
M  V30 9621 H 936.18 5.09536 3.17007 0
M  V30 9622 H 937.25 4.45759 1.90857 0
M  V30 9623 N 938.594 -0.753485 1.38421 0
M  V30 9624 C 940.005 -1.33081 1.30944 0
M  V30 9625 C 940.356 -1.96169 -0.0347124 0
M  V30 9626 O 939.481 -1.95073 -0.936768 0
M  V30 9627 C 940.076 -2.41973 2.37138 0
M  V30 9628 C 938.635 -2.95426 2.33239 0
M  V30 9629 C 937.782 -1.68808 2.19998 0
M  V30 9630 H 940.733 -0.552354 1.48777 0
M  V30 9631 H 940.754 -3.21913 2.02859 0
M  V30 9632 H 940.266 -1.96027 3.34956 0
M  V30 9633 H 938.367 -3.45701 1.39003 0
M  V30 9634 H 938.48 -3.49798 3.27381 0
M  V30 9635 H 936.844 -1.92438 1.66852 0
M  V30 9636 H 937.627 -1.24939 3.19758 0
M  V30 9637 N 940.072 -1.23292 -0.981677 0
M  V30 9638 C 941.019 -1.01296 -2.07383 0
M  V30 9639 C 941.989 0.069139 -1.65956 0
M  V30 9640 O 943.174 -0.0827108 -1.90621 0
M  V30 9641 C 940.314 -0.608876 -3.39686 0
M  V30 9642 C 939.427 -1.76296 -3.9439 0
M  V30 9643 C 938.562 -1.30578 -5.14901 0
M  V30 9644 C 937.601 -2.4307 -5.61768 0
M  V30 9645 N 936.738 -1.98319 -6.73509 0
M  V30 9646 H 941.578 -1.9478 -2.25532 0
M  V30 9647 H 939.115 -0.970356 -1.10555 0
M  V30 9648 H 941.073 -0.355702 -4.15681 0
M  V30 9649 H 939.703 0.288961 -3.21504 0
M  V30 9650 H 938.755 -2.13017 -3.15163 0
M  V30 9651 H 940.067 -2.60871 -4.25145 0
M  V30 9652 H 939.221 -1.01066 -5.98223 0
M  V30 9653 H 937.96 -0.430386 -4.85797 0
M  V30 9654 H 936.965 -2.73358 -4.77028 0
M  V30 9655 H 938.19 -3.31144 -5.92892 0
M  V30 9656 H 936.136 -1.13157 -6.46167 0
M  V30 9657 H 936.053 -2.76454 -7.0364 0
M  V30 9658 H 937.321 -1.71907 -7.60308 0
M  V30 9659 N 941.55 1.18024 -1.04442 0
M  V30 9660 C 942.778 1.92032 -0.770161 0
M  V30 9661 C 943.193 1.76391 0.673181 0
M  V30 9662 O 942.55 1.09604 1.45922 0
M  V30 9663 C 942.601 3.43328 -1.13173 0
M  V30 9664 O 942.322 3.5848 -2.51841 0
M  V30 9665 C 943.823 4.34427 -0.882523 0
M  V30 9666 H 941.043 0.609518 -0.280586 0
M  V30 9667 H 943.587 1.49711 -1.39308 0
M  V30 9668 H 941.742 3.83423 -0.553704 0
M  V30 9669 H 942.156 4.52166 -2.65794 0
M  V30 9670 H 943.63 5.39123 -1.18533 0
M  V30 9671 H 944.107 4.3882 0.18257 0
M  V30 9672 H 944.713 4.00035 -1.44403 0
M  V30 9673 N 943.028 0.824394 1.34319 0
M  V30 9674 C 944.444 0.510336 1.51221 0
M  V30 9675 C 944.644 -0.965201 1.76879 0
M  V30 9676 O 943.7 -1.74961 1.82057 0
M  V30 9677 C 945.013 1.37114 2.6762 0
M  V30 9678 C 946.561 1.36842 2.81502 0
M  V30 9679 C 947.036 2.21374 4.00946 0
M  V30 9680 N 948.527 2.19005 4.08156 0
M  V30 9681 C 949.262 2.81159 4.99737 0
M  V30 9682 N 948.758 3.52309 5.96532 0
M  V30 9683 N 950.551 2.70706 4.9262 0
M  V30 9684 H 942.702 1.77976 1.15924 0
M  V30 9685 H 944.965 0.758503 0.568663 0
M  V30 9686 H 944.671 2.41905 2.55294 0
M  V30 9687 H 944.545 1.03689 3.62669 0
M  V30 9688 H 946.932 0.328284 2.93268 0
M  V30 9689 H 947.013 1.74265 1.87257 0
M  V30 9690 H 946.657 3.25437 3.8994 0
M  V30 9691 H 946.587 1.813 4.94407 0
M  V30 9692 H 949.078 1.67252 3.38874 0
M  V30 9693 H 949.391 3.96977 6.63045 0
M  V30 9694 H 947.736 3.56415 5.96652 0
M  V30 9695 H 950.927 2.14694 4.15962 0
M  V30 9696 H 951.1 3.19431 5.63798 0
M  V30 9697 N 944.506 -1.46559 0.579492 0
M  V30 9698 C 945.731 -2.0729 0.0674595 0
M  V30 9699 C 946.156 -1.4259 -1.22677 0
M  V30 9700 O 945.514 -0.50857 -1.74021 0
M  V30 9701 C 945.562 -3.60492 -0.0882227 0
M  V30 9702 O 944.666 -3.96172 -1.14551 0
M  V30 9703 H 944.007 -0.661159 0.0613536 0
M  V30 9704 H 946.537 -1.88247 0.801519 0
M  V30 9705 H 946.547 -4.06929 -0.295411 0
M  V30 9706 H 945.222 -4.06976 0.856943 0
M  V30 9707 H 943.799 -3.61448 -0.917033 0
M  V30 9708 N 945.984 -0.3171 -1.54377 0
M  V30 9709 C 947.232 0.286842 -2.00054 0
M  V30 9710 C 947.553 1.53161 -1.20692 0
M  V30 9711 O 946.823 1.93479 -0.307045 0
M  V30 9712 H 945.403 0.108979 -0.739008 0
M  V30 9713 H 948.065 -0.432152 -1.90049 0
M  V30 9714 H 947.161 0.547729 -3.07256 0
M  V30 9715 N 947.462 1.57535 -0.0451378 0
M  V30 9716 C 948.409 2.11176 0.931313 0
M  V30 9717 C 949.379 1.01765 1.31275 0
M  V30 9718 O 950.564 1.29279 1.40327 0
M  V30 9719 C 947.704 2.65639 2.20295 0
M  V30 9720 C 946.817 3.89114 1.87654 0
M  V30 9721 C 945.952 4.31914 3.09232 0
M  V30 9722 C 944.991 5.48105 2.72484 0
M  V30 9723 N 944.128 5.85986 3.86736 0
M  V30 9724 H 948.968 2.94318 0.466986 0
M  V30 9725 H 946.505 1.45462 0.218886 0
M  V30 9726 H 948.463 2.95312 2.94697 0
M  V30 9727 H 947.093 1.85303 2.64316 0
M  V30 9728 H 946.145 3.6607 1.03427 0
M  V30 9729 H 947.457 4.7358 1.56601 0
M  V30 9730 H 946.611 4.63108 3.91939 0
M  V30 9731 H 945.35 3.46247 3.43459 0
M  V30 9732 H 944.355 5.16589 1.88192 0
M  V30 9733 H 945.58 6.35482 2.39455 0
M  V30 9734 H 943.526 5.03273 4.20775 0
M  V30 9735 H 943.443 6.65129 3.5936 0
M  V30 9736 H 944.711 6.21793 4.701 0
M  V30 9737 N 948.94 -0.228186 1.55939 0
M  V30 9738 C 950.186 -0.954964 1.78909 0
M  V30 9739 C 950.519 -1.8425 0.613648 0
M  V30 9740 O 949.794 -1.90604 -0.38737 0
M  V30 9741 C 950.077 -1.79957 3.1191 0
M  V30 9742 C 949.93 -0.938968 4.3989 0
M  V30 9743 C 951.249 -2.77859 3.41295 0
M  V30 9744 H 948.368 -0.345745 0.650868 0
M  V30 9745 H 951.01 -0.224244 1.88672 0
M  V30 9746 H 949.16 -2.42256 3.03717 0
M  V30 9747 H 950.832 -0.333225 4.60095 0
M  V30 9748 H 949.075 -0.244096 4.33113 0
M  V30 9749 H 949.746 -1.56416 5.29375 0
M  V30 9750 H 952.222 -2.25695 3.49572 0
M  V30 9751 H 951.098 -3.34062 4.35538 0
M  V30 9752 H 951.359 -3.55266 2.63132 0
M  V30 9753 N 950.418 -1.49637 -0.494624 0
M  V30 9754 C 951.351 -1.61387 -1.61337 0
M  V30 9755 C 952.329 -0.462704 -1.55878 0
M  V30 9756 O 953.513 -0.679103 -1.75842 0
M  V30 9757 C 950.64 -1.57471 -2.99867 0
M  V30 9758 C 949.686 -2.77863 -3.23565 0
M  V30 9759 S 950.519 -4.3946 -3.05999 0
M  V30 9760 C 951.675 -4.382 -4.46914 0
M  V30 9761 H 951.908 -2.56024 -1.51126 0
M  V30 9762 H 949.441 -1.38607 -0.680253 0
M  V30 9763 H 951.399 -1.55898 -3.79745 0
M  V30 9764 H 950.06 -0.641107 -3.07488 0
M  V30 9765 H 949.253 -2.71361 -4.24711 0
M  V30 9766 H 948.855 -2.76882 -2.51421 0
M  V30 9767 H 951.147 -4.10312 -5.3912 0
M  V30 9768 H 952.09 -5.39645 -4.58464 0
M  V30 9769 H 952.498 -3.68197 -4.27891 0
M  V30 9770 N 951.896 0.746133 -1.38819 0
M  V30 9771 C 953.312 1.0502 -1.20179 0
M  V30 9772 C 953.512 2.01423 -0.0556271 0
M  V30 9773 O 952.568 2.45359 0.59625 0
M  V30 9774 C 953.881 1.62315 -2.53129 0
M  V30 9775 C 955.429 1.74449 -2.59878 0
M  V30 9776 C 955.904 2.35155 -3.93022 0
M  V30 9777 N 957.395 2.42577 -3.94602 0
M  V30 9778 C 958.13 2.9046 -4.94389 0
M  V30 9779 N 957.626 3.38322 -6.04574 0
M  V30 9780 N 959.419 2.89568 -4.81775 0
M  V30 9781 H 951.57 0.106551 -2.12133 0
M  V30 9782 H 953.833 0.109897 -0.941609 0
M  V30 9783 H 953.539 0.98946 -3.37495 0
M  V30 9784 H 953.413 2.61276 -2.72057 0
M  V30 9785 H 955.8 2.36943 -1.75903 0
M  V30 9786 H 955.881 0.741721 -2.4481 0
M  V30 9787 H 955.525 1.73292 -4.77422 0
M  V30 9788 H 955.455 3.36088 -4.05404 0
M  V30 9789 H 957.946 2.08735 -3.15021 0
M  V30 9790 H 958.259 3.73336 -6.76639 0
M  V30 9791 H 956.604 3.3636 -6.08184 0
M  V30 9792 H 959.795 2.51492 -3.94803 0
M  V30 9793 H 959.968 3.26571 -5.59692 0
M  V30 9794 N 953.375 1.23811 0.975125 0
M  V30 9795 C 954.791 1.0019 1.24234 0
M  V30 9796 C 954.991 -0.293811 1.99346 0
M  V30 9797 O 954.047 -1.01189 2.31337 0
M  V30 9798 C 955.36 2.21218 2.03674 0
M  V30 9799 C 956.908 2.25764 2.16793 0
M  V30 9800 C 957.383 3.46394 2.99626 0
M  V30 9801 N 958.874 3.46665 3.07209 0
M  V30 9802 C 959.609 4.3666 3.71639 0
M  V30 9803 N 959.105 5.36899 4.37849 0
M  V30 9804 N 960.898 4.2439 3.68578 0
M  V30 9805 H 953.049 2.07087 0.472076 0
M  V30 9806 H 955.312 0.90838 0.271201 0
M  V30 9807 H 955.018 3.15277 1.55862 0
M  V30 9808 H 954.892 2.22733 3.04417 0
M  V30 9809 H 957.279 1.32242 2.63811 0
M  V30 9810 H 957.36 2.28279 1.15422 0
M  V30 9811 H 957.004 4.40227 2.53304 0
M  V30 9812 H 956.934 3.41121 4.01178 0
M  V30 9813 H 959.425 2.74142 2.60105 0
M  V30 9814 H 959.738 6.01816 4.84807 0
M  V30 9815 H 958.083 5.40793 4.36541 0
M  V30 9816 H 961.274 3.4532 3.16025 0
M  V30 9817 H 961.447 4.94727 4.18508 0
M  V30 9818 N 954.853 -1.17469 1.05066 0
M  V30 9819 C 955.783 -2.23635 0.671552 0
M  V30 9820 C 956.764 -1.66867 -0.33006 0
M  V30 9821 O 957.949 -1.93084 -0.207933 0
M  V30 9822 C 955.079 -3.47272 0.0441845 0
M  V30 9823 C 954.033 -4.16854 0.97042 0
M  V30 9824 C 953.359 -5.34299 0.206998 0
M  V30 9825 C 954.659 -4.69225 2.29401 0
M  V30 9826 H 956.353 -2.55602 1.55911 0
M  V30 9827 H 953.899 -1.2286 0.751101 0
M  V30 9828 H 955.852 -4.20756 -0.23282 0
M  V30 9829 H 954.576 -3.14568 -0.878311 0
M  V30 9830 H 953.235 -3.4528 1.23197 0
M  V30 9831 H 952.883 -4.97846 -0.718222 0
M  V30 9832 H 952.583 -5.81792 0.82416 0
M  V30 9833 H 954.107 -6.10568 -0.0627525 0
M  V30 9834 H 955.521 -5.34353 2.077 0
M  V30 9835 H 953.918 -5.27291 2.86503 0
M  V30 9836 H 954.988 -3.86102 2.93348 0
M  V30 9837 N 956.331 -0.831506 -1.3388 0
M  V30 9838 C 957.261 -0.274378 -2.31882 0
M  V30 9839 C 958.242 0.613872 -1.58637 0
M  V30 9840 O 959.427 0.538961 -1.86571 0
M  V30 9841 C 956.557 0.557498 -3.42796 0
M  V30 9842 C 955.511 -0.234337 -4.27358 0
M  V30 9843 C 954.837 0.720825 -5.29819 0
M  V30 9844 C 956.137 -1.44732 -5.01847 0
M  V30 9845 H 957.831 -1.09322 -2.78728 0
M  V30 9846 H 955.377 -0.527136 -1.34005 0
M  V30 9847 H 957.33 0.957501 -4.10378 0
M  V30 9848 H 956.054 1.40947 -2.94621 0
M  V30 9849 H 954.713 -0.61581 -3.61391 0
M  V30 9850 H 954.361 1.569 -4.77903 0
M  V30 9851 H 954.061 0.195171 -5.87276 0
M  V30 9852 H 955.585 1.1185 -6.00268 0
M  V30 9853 H 956.999 -1.12087 -5.62236 0
M  V30 9854 H 955.396 -1.90923 -5.68919 0
M  V30 9855 H 956.466 -2.22099 -4.31045 0
M  V30 9856 N 957.809 1.4625 -0.587256 0
M  V30 9857 C 959.225 1.57641 -0.249284 0
M  V30 9858 C 959.425 1.58169 1.24839 0
M  V30 9859 O 958.481 1.50109 2.03036 0
M  V30 9860 C 959.794 2.86837 -0.902509 0
M  V30 9861 C 961.342 3.00476 -0.876524 0
M  V30 9862 C 961.817 4.32414 -1.50938 0
M  V30 9863 N 963.308 4.39124 -1.47392 0
M  V30 9864 C 964.043 5.39838 -1.93293 0
M  V30 9865 N 963.539 6.47202 -2.47188 0
M  V30 9866 N 965.332 5.31068 -1.84183 0
M  V30 9867 H 957.483 1.44151 -1.55994 0
M  V30 9868 H 959.746 0.687905 -0.652297 0
M  V30 9869 H 959.452 2.92274 -1.95624 0
M  V30 9870 H 959.326 3.74927 -0.413466 0
M  V30 9871 H 961.713 2.94618 0.168601 0
M  V30 9872 H 961.794 2.1385 -1.40363 0
M  V30 9873 H 961.438 4.3903 -2.55372 0
M  V30 9874 H 961.368 5.17823 -0.957455 0
M  V30 9875 H 963.859 3.62138 -1.08002 0
M  V30 9876 H 964.172 7.20269 -2.80058 0
M  V30 9877 H 962.517 6.48009 -2.51216 0
M  V30 9878 H 965.708 4.46095 -1.41833 0
M  V30 9879 H 965.881 6.09414 -2.2027 0
M  V30 9880 N 959.287 0.325282 1.54207 0
M  V30 9881 C 960.234 -0.539889 2.24397 0
M  V30 9882 C 961.204 -1.11028 1.2354 0
M  V30 9883 O 962.389 -1.1503 1.52226 0
M  V30 9884 C 959.529 -1.69405 3.00659 0
M  V30 9885 C 958.642 -1.15273 4.16337 0
M  V30 9886 C 957.777 -2.27272 4.80126 0
M  V30 9887 C 956.816 -1.70397 5.87904 0
M  V30 9888 N 955.953 -2.76065 6.45548 0
M  V30 9889 H 960.793 0.0652318 2.97929 0
M  V30 9890 H 958.33 0.043964 1.47034 0
M  V30 9891 H 960.288 -2.37325 3.43122 0
M  V30 9892 H 958.918 -2.27043 2.29458 0
M  V30 9893 H 957.97 -0.365034 3.78645 0
M  V30 9894 H 959.282 -0.696576 4.93912 0
M  V30 9895 H 958.436 -3.03092 5.25566 0
M  V30 9896 H 957.175 -2.76224 4.01935 0
M  V30 9897 H 956.18 -0.930752 5.41864 0
M  V30 9898 H 957.405 -1.22319 6.67993 0
M  V30 9899 H 955.351 -3.24306 5.7023 0
M  V30 9900 H 955.268 -2.35018 7.18542 0
M  V30 9901 H 956.536 -3.5171 6.95644 0
M  V30 9902 N 960.765 -1.57509 0.0534917 0
M  V30 9903 C 962.014 -1.91959 -0.619244 0
M  V30 9904 C 962.327 -0.933882 -1.71866 0
M  V30 9905 O 963.533 -1.17052 -2.44972 0
M  V30 9906 C 961.989 -3.40938 -1.15278 0
M  V30 9907 C 961.597 -4.47919 -0.085348 0
M  V30 9908 C 963.341 -3.84419 -1.80063 0
M  V30 9909 C 961.248 -5.88014 -0.631897 0
M  V30 9910 H 960.178 -0.71642 -0.235072 0
M  V30 9911 H 962.829 -1.83089 0.122758 0
M  V30 9912 H 961.211 -3.44821 -1.94717 0
M  V30 9913 H 962.385 -4.55629 0.688374 0
M  V30 9914 H 960.7 -4.13793 0.465178 0
M  V30 9915 H 963.297 -4.86457 -2.21954 0
M  V30 9916 H 963.64 -3.20791 -2.65328 0
M  V30 9917 H 964.173 -3.83062 -1.07275 0
M  V30 9918 H 960.912 -6.55244 0.183175 0
M  V30 9919 H 960.432 -5.83861 -1.37355 0
M  V30 9920 H 962.111 -6.37336 -1.11407 0
M  V30 9921 N 962.243 0.219913 -1.56058 0
M  V30 9922 C 963.492 0.942119 -1.78345 0
M  V30 9923 C 963.805 1.85435 -0.622344 0
M  V30 9924 O 965.011 2.61533 -0.728886 0
M  V30 9925 C 963.467 1.72544 -3.15843 0
M  V30 9926 C 963.075 0.859263 -4.39682 0
M  V30 9927 C 964.819 2.43876 -3.47455 0
M  V30 9928 C 962.726 1.64003 -5.68205 0
M  V30 9929 H 961.656 0.355514 -0.664925 0
M  V30 9930 H 964.307 0.195963 -1.82451 0
M  V30 9931 H 962.689 2.51456 -3.05918 0
M  V30 9932 H 963.863 0.110562 -4.60667 0
M  V30 9933 H 962.178 0.257985 -4.156 0
M  V30 9934 H 964.775 3.02794 -4.40704 0
M  V30 9935 H 965.118 3.16843 -2.7003 0
M  V30 9936 H 965.651 1.71952 -3.58716 0
M  V30 9937 H 962.39 0.953606 -6.48526 0
M  V30 9938 H 961.91 2.3633 -5.51279 0
M  V30 9939 H 963.589 2.20028 -6.08438 0
M  V30 9940 N 963.721 1.49897 0.486681 0
M  V30 9941 C 964.949 1.63837 1.26353 0
M  V30 9942 C 965.364 0.315428 1.86146 0
M  V30 9943 O 964.721 -0.700831 1.68507 0
M  V30 9944 C 964.772 2.71792 2.38351 0
M  V30 9945 O 964.493 3.98956 1.81013 0
M  V30 9946 C 965.994 2.96566 3.2949 0
M  V30 9947 H 963.214 0.551158 0.382709 0
M  V30 9948 H 965.758 1.96023 0.582694 0
M  V30 9949 H 963.913 2.42344 3.02238 0
M  V30 9950 H 964.327 4.58536 2.54647 0
M  V30 9951 H 965.801 3.75803 4.04322 0
M  V30 9952 H 966.278 2.07031 3.87343 0
M  V30 9953 H 966.884 3.27485 2.71355 0
M  V30 9954 N 965.199 -0.738761 1.39212 0
M  V30 9955 C 966.424 -1.5331 1.39681 0
M  V30 9956 C 966.849 -1.88098 -0.00768715 0
M  V30 9957 O 966.207 -1.51642 -0.993699 0
M  V30 9958 C 966.255 -2.79958 2.27279 0
M  V30 9959 O 965.359 -3.75727 1.70008 0
M  V30 9960 H 964.7 -0.463131 0.475821 0
M  V30 9961 H 967.23 -0.911768 1.83161 0
M  V30 9962 H 967.24 -3.28732 2.41659 0
M  V30 9963 H 965.915 -2.5397 3.29351 0
M  V30 9964 H 964.492 -3.34483 1.64851 0
M  V30 9965 N 966.677 -1.24326 -0.968545 0
M  V30 9966 C 967.587 -1.05194 -2.09694 0
M  V30 9967 C 968.603 0.00701291 -1.73999 0
M  V30 9968 O 969.779 -0.190981 -2.00492 0
M  V30 9969 C 966.844 -0.658075 -3.40397 0
M  V30 9970 C 965.905 -1.79341 -3.90045 0
M  V30 9971 C 965.138 -1.41824 -5.14511 0
M  V30 9972 O 965.361 -0.307693 -5.69569 0
M  V30 9973 O 964.295 -2.24358 -5.58522 0
M  V30 9974 H 968.121 -1.99791 -2.2873 0
M  V30 9975 H 965.706 -1.03138 -1.08088 0
M  V30 9976 H 967.588 -0.449911 -4.18991 0
M  V30 9977 H 966.263 0.258782 -3.22664 0
M  V30 9978 H 965.17 -2.05632 -3.12516 0
M  V30 9979 H 966.503 -2.68901 -4.12254 0
M  V30 9980 N 968.156 1.1691 -1.05688 0
M  V30 9981 C 969.119 2.19297 -0.666433 0
M  V30 9982 C 970.119 1.5826 0.284674 0
M  V30 9983 O 971.309 1.74068 0.0678757 0
M  V30 9984 C 968.441 3.40894 0.0203656 0
M  V30 9985 H 969.634 2.55354 -1.57272 0
M  V30 9986 H 967.187 1.31078 -0.851359 0
M  V30 9987 H 967.922 3.10388 0.939686 0
M  V30 9988 H 967.707 3.86446 -0.663464 0
M  V30 9989 H 969.197 4.16664 0.279475 0
M  V30 9990 N 969.634 0.838594 1.33437 0
M  V30 9991 C 970.566 0.229006 2.28053 0
M  V30 9992 C 971.579 -0.590103 1.51729 0
M  V30 9993 O 972.768 -0.417218 1.73556 0
M  V30 9994 C 969.868 -0.696251 3.31671 0
M  V30 9995 C 969.041 0.0834606 4.3732 0
M  V30 9996 C 968.1 -0.765097 5.20608 0
M  V30 9997 O 967.126 -0.2044 5.68833 0
M  V30 9998 N 968.328 -2.08249 5.4186 0
M  V30 9999 H 971.093 1.04196 2.81004 0
M  V30 10000 H 968.654 0.697031 1.46127 0
M  V30 10001 H 970.646 -1.26889 3.84293 0
M  V30 10002 H 969.216 -1.40992 2.78998 0
M  V30 10003 H 968.436 0.837481 3.85201 0
M  V30 10004 H 969.724 0.619613 5.05013 0
M  V30 10005 H 969.122 -2.56156 5.04381 0
M  V30 10006 H 967.679 -2.60362 5.97541 0
M  V30 10007 N 971.112 -1.45937 0.595003 0
M  V30 10008 C 972.022 -2.34221 -0.133325 0
M  V30 10009 C 973.038 -1.50491 -0.873407 0
M  V30 10010 O 974.214 -1.83328 -0.833828 0
M  V30 10011 C 971.279 -3.27896 -1.12628 0
M  V30 10012 C 970.34 -4.27529 -0.389532 0
M  V30 10013 C 969.573 -5.16729 -1.33519 0
M  V30 10014 O 969.796 -5.09102 -2.57238 0
M  V30 10015 O 968.73 -5.96023 -0.839084 0
M  V30 10016 H 972.556 -2.97877 0.591861 0
M  V30 10017 H 970.141 -1.45113 0.355329 0
M  V30 10018 H 972.023 -3.85654 -1.69851 0
M  V30 10019 H 970.698 -2.6682 -1.83272 0
M  V30 10020 H 969.605 -3.73424 0.224843 0
M  V30 10021 H 970.938 -4.91425 0.276169 0
M  V30 10022 N 972.59 -0.333456 -1.54032 0
M  V30 10023 C 973.52 0.52051 -2.27625 0
M  V30 10024 C 974.501 1.1111 -1.28797 0
M  V30 10025 O 975.686 1.13438 -1.57625 0
M  V30 10026 C 972.816 1.67663 -3.04149 0
M  V30 10027 C 971.77 1.21487 -4.10396 0
M  V30 10028 C 971.096 2.45872 -4.74817 0
M  V30 10029 C 972.396 0.322603 -5.21303 0
M  V30 10030 H 974.09 -0.0933823 -2.99254 0
M  V30 10031 H 971.636 -0.0463526 -1.43925 0
M  V30 10032 H 973.589 2.28041 -3.54366 0
M  V30 10033 H 972.313 2.31727 -2.30153 0
M  V30 10034 H 970.972 0.633966 -3.61077 0
M  V30 10035 H 970.62 3.0832 -3.97426 0
M  V30 10036 H 970.32 2.15662 -5.46593 0
M  V30 10037 H 971.844 3.06994 -5.27814 0
M  V30 10038 H 973.258 0.832942 -5.67217 0
M  V30 10039 H 971.655 0.112843 -5.99994 0
M  V30 10040 H 972.725 -0.643954 -4.80605 0
M  V30 10041 N 974.068 1.57479 -0.061844 0
M  V30 10042 C 975.316 1.92727 0.608336 0
M  V30 10043 C 975.637 0.941799 1.70749 0
M  V30 10044 O 974.907 -0.0116608 1.95897 0
M  V30 10045 H 973.487 0.71145 0.2277 0
M  V30 10046 H 976.149 1.94546 -0.117359 0
M  V30 10047 H 975.245 2.9426 1.04007 0
M  V30 10048 N 975.546 -0.211634 1.56173 0
M  V30 10049 C 976.823 -0.959467 1.70451 0
M  V30 10050 C 977.203 -2.02036 0.611942 0
M  V30 10051 O 976.551 -2.25325 -0.37959 0
M  V30 10052 C 976.761 -1.56092 3.12148 0
M  V30 10053 C 978.109 -2.04939 3.71867 0
M  V30 10054 O 979.133 -1.65966 3.15172 0
M  V30 10055 O 977.992 -2.766 4.71333 0
M  V30 10056 H 975.086 -0.448844 0.6946 0
M  V30 10057 H 977.632 -0.202633 1.68486 0
M  V30 10058 H 976.404 -0.79538 3.83131 0
M  V30 10059 H 976.027 -2.38303 3.18273 0
M  V30 10060 N 977.024 -1.50153 -0.478725 0
M  V30 10061 C 978.252 -1.64505 -1.25482 0
M  V30 10062 C 978.667 -0.325295 -1.85977 0
M  V30 10063 O 978.024 0.691885 -1.68876 0
M  V30 10064 C 978.075 -2.73052 -2.36906 0
M  V30 10065 O 977.796 -3.99911 -1.78894 0
M  V30 10066 C 979.297 -2.98309 -3.27912 0
M  V30 10067 H 976.517 -0.55318 -0.379781 0
M  V30 10068 H 979.061 -1.96329 -0.57229 0
M  V30 10069 H 977.216 -2.43944 -3.00949 0
M  V30 10070 H 977.63 -4.5988 -2.52211 0
M  V30 10071 H 979.104 -3.77942 -4.02323 0
M  V30 10072 H 979.581 -2.09082 -3.8624 0
M  V30 10073 H 980.187 -3.2892 -2.69614 0
M  V30 10074 N 978.502 0.731368 -1.39602 0
M  V30 10075 C 979.73 1.52059 -1.40305 0
M  V30 10076 C 980.145 1.888 0.00147921 0
M  V30 10077 O 979.502 1.54354 0.973715 0
M  V30 10078 C 979.553 2.80588 -2.27931 0
M  V30 10079 O 979.274 2.45406 -3.62915 0
M  V30 10080 C 980.775 3.74592 -2.37056 0
M  V30 10081 H 977.995 0.469787 -0.479104 0
M  V30 10082 H 980.539 0.903436 -1.83462 0
M  V30 10083 H 978.694 3.38626 -1.88178 0
M  V30 10084 H 979.108 3.27996 -4.09291 0
M  V30 10085 H 980.582 4.61662 -3.02609 0
M  V30 10086 H 981.059 4.16597 -1.39081 0
M  V30 10087 H 981.665 3.22471 -2.77295 0
M  V30 10088 N 979.98 1.24838 0.961938 0
M  V30 10089 C 981.208 1.11871 1.74047 0
M  V30 10090 C 981.623 -0.328209 1.85925 0
M  V30 10091 O 980.98 -1.22616 1.35173 0
M  V30 10092 C 981.031 1.75931 3.15801 0
M  V30 10093 O 980.752 3.14967 3.04512 0
M  V30 10094 C 982.253 1.68649 4.09966 0
M  V30 10095 H 979.473 0.390569 0.545616 0
M  V30 10096 H 982.017 1.65058 1.20732 0
M  V30 10097 H 980.172 1.26733 3.66084 0
M  V30 10098 H 980.586 3.46349 3.93882 0
M  V30 10099 H 982.06 2.18144 5.07067 0
M  V30 10100 H 982.537 0.648831 4.34381 0
M  V30 10101 H 983.143 2.17301 3.65596 0
M  V30 10102 N 981.458 -1.16348 1.06306 0
M  V30 10103 C 982.388 -2.2291 0.695234 0
M  V30 10104 C 983.369 -1.67208 -0.312343 0
M  V30 10105 O 984.554 -1.93293 -0.187442 0
M  V30 10106 C 981.684 -3.47205 0.0810149 0
M  V30 10107 C 980.638 -4.15801 1.01458 0
M  V30 10108 C 979.964 -5.3405 0.263656 0
M  V30 10109 C 981.264 -4.66766 2.34365 0
M  V30 10110 H 982.958 -2.53934 1.58613 0
M  V30 10111 H 980.504 -1.22056 0.76409 0
M  V30 10112 H 982.457 -4.2098 -0.18818 0
M  V30 10113 H 981.181 -3.15482 -0.844897 0
M  V30 10114 H 979.84 -3.43954 1.26852 0
M  V30 10115 H 979.488 -4.9858 -0.665378 0
M  V30 10116 H 979.188 -5.80885 0.88582 0
M  V30 10117 H 980.712 -6.106 0.00200994 0
M  V30 10118 H 982.126 -5.3212 2.13356 0
M  V30 10119 H 980.523 -5.24223 2.9208 0
M  V30 10120 H 981.593 -3.82969 2.97426 0
M  V30 10121 N 982.937 -0.845659 -1.3299 0
M  V30 10122 C 983.847 -0.2864 -2.32845 0
M  V30 10123 C 984.863 0.591105 -1.63652 0
M  V30 10124 O 986.039 0.493615 -1.95257 0
M  V30 10125 C 983.104 0.523636 -3.42723 0
M  V30 10126 C 982.165 -0.378945 -4.27624 0
M  V30 10127 C 981.398 0.392526 -5.32255 0
M  V30 10128 O 981.621 1.6235 -5.46808 0
M  V30 10129 O 980.555 -0.237 -6.01433 0
M  V30 10130 H 984.381 -1.11346 -2.82552 0
M  V30 10131 H 981.966 -0.608356 -1.36453 0
M  V30 10132 H 983.848 0.983718 -4.09757 0
M  V30 10133 H 982.523 1.32764 -2.95221 0
M  V30 10134 H 981.43 -0.887012 -3.63432 0
M  V30 10135 H 982.763 -1.1479 -4.78627 0
M  V30 10136 N 984.415 1.45619 -0.602734 0
M  V30 10137 C 985.692 1.9558 -0.0282472 0
M  V30 10138 C 986.072 1.54523 1.43826 0
M  V30 10139 O 985.42 0.805456 2.13833 0
M  V30 10140 C 985.63 3.48298 -0.221263 0
M  V30 10141 C 986.978 4.24483 -0.0995249 0
M  V30 10142 O 988.002 3.55879 -0.151132 0
M  V30 10143 O 986.861 5.46497 0.0194454 0
M  V30 10144 H 983.955 0.826104 0.0384897 0
M  V30 10145 H 986.501 1.55808 -0.672456 0
M  V30 10146 H 985.273 3.71134 -1.23997 0
M  V30 10147 H 984.896 3.94948 0.458437 0
M  V30 10148 N 985.893 0.34162 1.53853 0
M  V30 10149 C 987.304 -0.14269 1.86154 0
M  V30 10150 C 987.655 -1.50151 1.2629 0
M  V30 10151 O 986.78 -2.08601 0.575735 0
M  V30 10152 C 987.375 -0.265691 3.37757 0
M  V30 10153 C 985.934 -0.694231 3.69942 0
M  V30 10154 C 985.081 0.173195 2.76759 0
M  V30 10155 H 988.032 0.561284 1.48443 0
M  V30 10156 H 988.053 -1.09352 3.64448 0
M  V30 10157 H 987.565 0.723424 3.81298 0
M  V30 10158 H 985.666 -1.69244 3.31945 0
M  V30 10159 H 985.779 -0.485461 4.76634 0
M  V30 10160 H 984.143 -0.35416 2.52226 0
M  V30 10161 H 984.926 1.15941 3.23129 0
M  V30 10162 N 987.371 -1.57444 0.0701946 0
M  V30 10163 C 988.596 -1.98171 -0.61181 0
M  V30 10164 C 989.021 -0.94823 -1.62451 0
M  V30 10165 O 988.379 0.0863553 -1.81094 0
M  V30 10166 C 988.427 -3.37934 -1.2583 0
M  V30 10167 O 987.531 -3.37207 -2.37414 0
M  V30 10168 H 986.872 -0.645056 -0.157477 0
M  V30 10169 H 989.402 -2.04091 0.144235 0
M  V30 10170 H 989.412 -3.75083 -1.60552 0
M  V30 10171 H 988.087 -4.12684 -0.516234 0
M  V30 10172 H 986.664 -3.11826 -2.04497 0
M  V30 10173 N 988.849 0.203349 -1.56283 0
M  V30 10174 C 990.098 0.92315 -1.79334 0
M  V30 10175 C 990.411 1.84765 -0.641977 0
M  V30 10176 O 991.617 2.60745 -0.756584 0
M  V30 10177 C 990.073 1.69184 -3.17655 0
M  V30 10178 C 989.681 0.812581 -4.40569 0
M  V30 10179 C 991.425 2.40177 -3.50022 0
M  V30 10180 C 989.332 1.57967 -5.69913 0
M  V30 10181 H 988.262 0.348442 -0.668659 0
M  V30 10182 H 990.913 0.1766 -1.82648 0
M  V30 10183 H 989.295 2.48197 -3.08568 0
M  V30 10184 H 990.469 0.0616956 -4.60759 0
M  V30 10185 H 988.784 0.21389 -4.1585 0
M  V30 10186 H 991.381 2.98103 -4.4389 0
M  V30 10187 H 991.724 3.13961 -2.73376 0
M  V30 10188 H 992.257 1.68138 -3.6052 0
M  V30 10189 H 988.996 0.884767 -6.49501 0
M  V30 10190 H 988.516 2.3047 -5.53754 0
M  V30 10191 H 990.195 2.13562 -6.10737 0
M  V30 10192 N 990.327 1.50405 0.470755 0
M  V30 10193 C 991.576 1.60652 1.21959 0
M  V30 10194 C 991.889 0.312521 1.93087 0
M  V30 10195 O 993.095 0.293901 2.69905 0
M  V30 10196 C 991.551 2.83581 2.21607 0
M  V30 10197 C 991.159 4.19858 1.5628 0
M  V30 10198 C 992.903 3.03173 2.9713 0
M  V30 10199 C 990.81 5.33974 2.54217 0
M  V30 10200 H 989.74 0.598264 0.458907 0
M  V30 10201 H 992.391 1.76836 0.490041 0
M  V30 10202 H 990.773 2.60957 2.97855 0
M  V30 10203 H 991.947 4.52738 0.85819 0
M  V30 10204 H 990.262 4.05873 0.930366 0
M  V30 10205 H 992.859 3.856 3.70428 0
M  V30 10206 H 993.202 2.14914 3.56536 0
M  V30 10207 H 993.735 3.2598 2.27995 0
M  V30 10208 H 990.474 6.24388 1.99549 0
M  V30 10209 H 989.994 5.05511 3.22829 0
M  V30 10210 H 991.673 5.64561 3.16039 0
M  V30 10211 N 991.805 -0.723954 1.39988 0
M  V30 10212 C 992.768 -1.81973 1.3935 0
M  V30 10213 C 993.768 -1.58187 0.288702 0
M  V30 10214 O 994.958 -1.65383 0.547181 0
M  V30 10215 C 992.09 -3.19937 1.177 0
M  V30 10216 H 993.283 -1.83939 2.36868 0
M  V30 10217 H 990.836 -0.928742 1.25714 0
M  V30 10218 H 991.571 -3.23625 0.209093 0
M  V30 10219 H 991.356 -3.386 1.97719 0
M  V30 10220 H 992.846 -3.99981 1.20022 0
M  V30 10221 N 993.283 -1.25346 -0.955304 0
M  V30 10222 C 994.193 -1.07412 -2.08566 0
M  V30 10223 C 995.209 -0.0114424 -1.73996 0
M  V30 10224 O 996.385 -0.212236 -2.00279 0
M  V30 10225 C 993.45 -0.694141 -3.3968 0
M  V30 10226 C 992.511 -1.83468 -3.88121 0
M  V30 10227 C 991.744 -1.47274 -5.12978 0
M  V30 10228 O 991.967 -0.368086 -5.69211 0
M  V30 10229 O 990.901 -2.30269 -5.56111 0
M  V30 10230 H 994.727 -2.02206 -2.26598 0
M  V30 10231 H 992.312 -1.04279 -1.06988 0
M  V30 10232 H 994.194 -0.494325 -4.18491 0
M  V30 10233 H 992.869 0.224545 -3.2292 0
M  V30 10234 H 991.776 -2.08935 -3.10318 0
M  V30 10235 H 993.109 -2.73258 -4.09379 0
M  V30 10236 N 994.761 1.15782 -1.06922 0
M  V30 10237 C 996.01 1.85807 -0.784774 0
M  V30 10238 C 996.323 1.82967 0.691551 0
M  V30 10239 O 997.529 2.48632 1.0906 0
M  V30 10240 C 995.985 3.33469 -1.35375 0
M  V30 10241 C 995.593 3.44766 -2.86077 0
M  V30 10242 C 997.337 4.08707 -1.14713 0
M  V30 10243 C 995.244 4.86551 -3.36187 0
M  V30 10244 H 994.174 0.696046 -0.28989 0
M  V30 10245 H 996.825 1.30629 -1.28873 0
M  V30 10246 H 995.207 3.88292 -0.77754 0
M  V30 10247 H 996.381 3.00073 -3.49704 0
M  V30 10248 H 994.696 2.82969 -3.05479 0
M  V30 10249 H 997.293 5.13336 -1.49633 0
M  V30 10250 H 997.636 4.16211 -0.0858868 0
M  V30 10251 H 998.169 3.60142 -1.68946 0
M  V30 10252 H 994.908 4.84229 -4.41818 0
M  V30 10253 H 994.428 5.31844 -2.77312 0
M  V30 10254 H 996.107 5.55392 -3.31887 0
M  V30 10255 N 996.239 0.8527 1.3254 0
M  V30 10256 C 997.169 0.311234 2.31416 0
M  V30 10257 C 998.15 -0.588557 1.59593 0
M  V30 10258 O 999.335 -0.509211 1.87405 0
M  V30 10259 C 996.465 -0.502892 3.4364 0
M  V30 10260 C 995.419 0.302296 4.26931 0
M  V30 10261 C 994.745 -0.636445 5.30899 0
M  V30 10262 C 996.045 1.52697 4.99481 0
M  V30 10263 H 997.739 1.13742 2.76953 0
M  V30 10264 H 995.285 0.548389 1.33149 0
M  V30 10265 H 997.238 -0.892092 4.11849 0
M  V30 10266 H 995.962 -1.36242 2.96826 0
M  V30 10267 H 994.621 0.673226 3.60365 0
M  V30 10268 H 994.269 -1.49277 4.80339 0
M  V30 10269 H 993.969 -0.101716 5.87512 0
M  V30 10270 H 995.493 -1.02286 6.01972 0
M  V30 10271 H 996.907 1.21017 5.60382 0
M  V30 10272 H 995.304 1.9995 5.65809 0
M  V30 10273 H 996.374 2.28929 4.27457 0
M  V30 10274 N 997.718 -1.45297 0.610449 0
M  V30 10275 C 998.943 -2.07101 0.111414 0
M  V30 10276 C 999.368 -1.45161 -1.19625 0
M  V30 10277 O 998.726 -0.545368 -1.72903 0
M  V30 10278 C 998.774 -3.60598 -0.0117372 0
M  V30 10279 O 997.878 -3.98512 -1.06122 0
M  V30 10280 H 997.219 -0.659709 0.075364 0
M  V30 10281 H 999.749 -1.86504 0.841269 0
M  V30 10282 H 999.759 -4.07464 -0.209028 0
M  V30 10283 H 998.434 -4.05067 0.943076 0
M  V30 10284 H 997.011 -3.63312 -0.840158 0
M  V30 10285 N 999.196 -0.349774 -1.5367 0
M  V30 10286 C 1000.44 0.245189 -2.01312 0
M  V30 10287 C 1000.77 1.49702 -1.23705 0
M  V30 10288 O 1000.05 1.91742 -0.326371 0
M  V30 10289 C 1000.33 0.553071 -3.55827 0
M  V30 10290 C 1000.19 -0.71129 -4.4414 0
M  V30 10291 C 1001.5 1.36015 -4.18555 0
M  V30 10292 H 998.624 0.0876415 -0.73177 0
M  V30 10293 H 1001.27 -0.471543 -1.84056 0
M  V30 10294 H 999.416 1.16367 -3.70663 0
M  V30 10295 H 1001.09 -1.34913 -4.41131 0
M  V30 10296 H 999.331 -1.33491 -4.1275 0
M  V30 10297 H 1000 -0.45104 -5.50154 0
M  V30 10298 H 1002.48 0.843778 -4.07455 0
M  V30 10299 H 1001.35 1.54432 -5.26728 0
M  V30 10300 H 1001.61 2.36408 -3.73582 0
M  V30 10301 N 1000.67 1.57404 -0.0785433 0
M  V30 10302 C 1001.9 1.97787 0.596995 0
M  V30 10303 C 1002.31 0.955904 1.63276 0
M  V30 10304 O 1001.65 -0.0649169 1.83585 0
M  V30 10305 C 1001.72 3.34499 1.31723 0
M  V30 10306 C 1001.38 4.54933 0.434144 0
M  V30 10307 C 1002.38 5.18969 -0.311015 0
M  V30 10308 C 1000.06 5.01029 0.357046 0
M  V30 10309 C 1002.06 6.27457 -1.12142 0
M  V30 10310 C 999.744 6.09389 -0.457029 0
M  V30 10311 C 1000.74 6.72466 -1.19493 0
M  V30 10312 O 1000.43 7.78738 -1.99556 0
M  V30 10313 H 1000.16 0.655294 0.166028 0
M  V30 10314 H 1002.72 2.04855 -0.149517 0
M  V30 10315 H 1000.95 3.24064 2.10996 0
M  V30 10316 H 1002.63 3.5944 1.88567 0
M  V30 10317 H 1003.4 4.84297 -0.261084 0
M  V30 10318 H 999.28 4.51706 0.921026 0
M  V30 10319 H 1002.82 6.76622 -1.69788 0
M  V30 10320 H 998.721 6.43494 -0.508499 0
M  V30 10321 H 999.489 7.95648 -1.9206 0
M  V30 10322 N 1002.15 -0.195058 1.56388 0
M  V30 10323 C 1003.08 -1.26581 1.91076 0
M  V30 10324 C 1004.1 -1.41707 0.801436 0
M  V30 10325 O 1005.29 -1.42132 1.07985 0
M  V30 10326 C 1002.39 -2.63794 2.12758 0
M  V30 10327 C 1001.56 -2.70275 3.43904 0
M  V30 10328 C 1000.62 -3.88685 3.54698 0
M  V30 10329 O 999.644 -3.75786 4.2752 0
M  V30 10330 N 1000.85 -5.04141 2.87789 0
M  V30 10331 H 1003.61 -0.971401 2.83521 0
M  V30 10332 H 1001.17 -0.384976 1.57256 0
M  V30 10333 H 1003.16 -3.41434 2.17267 0
M  V30 10334 H 1001.73 -2.85723 1.26812 0
M  V30 10335 H 1000.95 -1.78909 3.51262 0
M  V30 10336 H 1002.24 -2.71597 4.30247 0
M  V30 10337 H 1001.64 -5.17519 2.28452 0
M  V30 10338 H 1000.2 -5.79727 2.97925 0
M  V30 10339 N 1003.63 -1.50653 -0.462772 0
M  V30 10340 C 1004.58 -1.70122 -1.55971 0
M  V30 10341 C 1005.55 -0.542581 -1.56988 0
M  V30 10342 O 1006.73 -0.774114 -1.74391 0
M  V30 10343 C 1003.87 -1.80899 -2.93887 0
M  V30 10344 C 1002.98 -3.08318 -3.02595 0
M  V30 10345 C 1002.12 -3.09841 -4.31477 0
M  V30 10346 C 1001.16 -4.3168 -4.33957 0
M  V30 10347 N 1000.3 -4.30894 -5.54323 0
M  V30 10348 H 1005.14 -2.63768 -1.38674 0
M  V30 10349 H 1002.67 -1.30746 -0.674091 0
M  V30 10350 H 1004.63 -1.85128 -3.73876 0
M  V30 10351 H 1003.26 -0.906854 -3.098 0
M  V30 10352 H 1002.31 -3.13521 -2.15427 0
M  V30 10353 H 1003.62 -3.98282 -3.00288 0
M  V30 10354 H 1002.78 -3.12845 -5.1982 0
M  V30 10355 H 1001.52 -2.17722 -4.36404 0
M  V30 10356 H 1000.52 -4.28879 -3.4401 0
M  V30 10357 H 1001.75 -5.25035 -4.30715 0
M  V30 10358 H 999.694 -3.41633 -5.6002 0
M  V30 10359 H 999.611 -5.14636 -5.53792 0
M  V30 10360 H 1000.88 -4.38056 -6.44769 0
M  V30 10361 N 1005.11 0.71652 -1.4037 0
M  V30 10362 C 1006.35 1.48883 -1.40047 0
M  V30 10363 C 1006.71 1.92 -0.00158027 0
M  V30 10364 O 1007.91 2.68501 0.126765 0
M  V30 10365 C 1006.18 2.68265 -2.36154 0
M  V30 10366 S 1007.74 3.57684 -2.5418 0
M  V30 10367 H 1004.56 0.509035 -0.496391 0
M  V30 10368 H 1007.16 0.837967 -1.76631 0
M  V30 10369 H 1005.87 2.34759 -3.36625 0
M  V30 10370 H 1005.4 3.38264 -2.0085 0
M  V30 10371 H 1007.41 4.62653 -1.79352 0
M  V30 10372 N 1006.59 1.25851 0.948643 0
M  V30 10373 C 1007.53 1.06759 2.04625 0
M  V30 10374 C 1008.5 -0.0251144 1.66081 0
M  V30 10375 O 1009.69 0.133221 1.90334 0
M  V30 10376 C 1006.83 0.698724 3.37952 0
M  V30 10377 C 1005.94 1.8669 3.89578 0
M  V30 10378 C 1005.08 1.44184 5.11258 0
M  V30 10379 C 1004.12 2.57878 5.55126 0
M  V30 10380 N 1003.25 2.16106 6.68014 0
M  V30 10381 H 1008.09 2.00691 2.20289 0
M  V30 10382 H 1005.63 0.999327 1.07944 0
M  V30 10383 H 1007.59 0.465788 4.14592 0
M  V30 10384 H 1006.22 -0.203618 3.22157 0
M  V30 10385 H 1005.27 2.21298 3.09405 0
M  V30 10386 H 1006.58 2.72051 4.18079 0
M  V30 10387 H 1005.74 1.16891 5.95333 0
M  V30 10388 H 1004.47 0.559035 4.84485 0
M  V30 10389 H 1003.48 2.85909 4.69612 0
M  V30 10390 H 1004.7 3.46747 5.83904 0
M  V30 10391 H 1002.65 1.3025 6.42939 0
M  V30 10392 H 1002.57 2.95012 6.96063 0
M  V30 10393 H 1003.84 1.92005 7.55483 0
M  V30 10394 N 1008.06 -1.15214 1.07534 0
M  V30 10395 C 1009.34 -1.82155 0.71267 0
M  V30 10396 C 1009.72 -1.95163 -0.804655 0
M  V30 10397 O 1009.07 -1.50451 -1.71979 0
M  V30 10398 C 1009.28 -3.18392 1.42925 0
M  V30 10399 C 1010.63 -3.94005 1.58256 0
M  V30 10400 O 1011.65 -3.27952 1.39018 0
M  V30 10401 O 1010.51 -5.12436 1.89925 0
M  V30 10402 H 1007.6 -0.78709 0.253808 0
M  V30 10403 H 1010.15 -1.22309 1.17638 0
M  V30 10404 H 1008.92 -3.04034 2.46331 0
M  V30 10405 H 1008.55 -3.85925 0.956439 0
M  V30 10406 N 1009.54 -0.859717 -1.32086 0
M  V30 10407 C 1010.49 -0.306042 -2.28762 0
M  V30 10408 C 1011.46 0.589801 -1.55276 0
M  V30 10409 O 1012.64 0.523633 -1.83474 0
M  V30 10410 C 1009.78 0.495256 -3.41528 0
M  V30 10411 C 1008.9 -0.426947 -4.29885 0
M  V30 10412 C 1008.03 0.387474 -5.29785 0
M  V30 10413 C 1007.07 -0.531807 -6.09785 0
M  V30 10414 N 1006.21 0.245741 -7.0167 0
M  V30 10415 H 1011.05 -1.1357 -2.7551 0
M  V30 10416 H 1008.59 -0.571468 -1.35546 0
M  V30 10417 H 1010.54 0.97551 -4.05635 0
M  V30 10418 H 1009.17 1.28969 -2.95917 0
M  V30 10419 H 1008.23 -1.02561 -3.66313 0
M  V30 10420 H 1009.54 -1.13226 -4.85779 0
M  V30 10421 H 1008.69 0.930677 -5.99519 0
M  V30 10422 H 1007.43 1.12612 -4.74521 0
M  V30 10423 H 1006.44 -1.08685 -5.3895 0
M  V30 10424 H 1007.66 -1.26915 -6.67135 0
M  V30 10425 H 1005.61 0.967391 -6.48828 0
M  V30 10426 H 1005.52 -0.400432 -7.54939 0
M  V30 10427 H 1006.79 0.770507 -7.75683 0
M  V30 10428 N 1011.02 1.44971 -0.618145 0
M  V30 10429 C 1011.95 2.28815 0.132751 0
M  V30 10430 C 1012.97 1.40551 0.821535 0
M  V30 10431 O 1014.15 1.64827 0.685155 0
M  V30 10432 C 1011.25 3.1658 1.20955 0
M  V30 10433 C 1010.43 4.33184 0.605821 0
M  V30 10434 C 1009.49 5.0208 1.57488 0
M  V30 10435 O 1008.51 5.58528 1.09706 0
M  V30 10436 N 1009.71 5.02335 2.9093 0
M  V30 10437 H 1012.48 2.939 -0.58674 0
M  V30 10438 H 1010.04 1.55276 -0.458375 0
M  V30 10439 H 1012.03 3.59535 1.85787 0
M  V30 10440 H 1010.6 2.53333 1.83143 0
M  V30 10441 H 1009.82 3.93581 -0.220827 0
M  V30 10442 H 1011.11 5.08471 0.182883 0
M  V30 10443 H 1010.51 4.57783 3.32342 0
M  V30 10444 H 1009.07 5.49119 3.51157 0
M  V30 10445 N 1012.5 0.357919 1.53482 0
M  V30 10446 C 1013.46 -0.479797 2.24122 0
M  V30 10447 C 1014.46 -1.01596 1.24639 0
M  V30 10448 O 1015.65 -0.902928 1.48973 0
M  V30 10449 C 1012.78 -1.66983 2.97203 0
M  V30 10450 H 1013.98 0.138219 2.99581 0
M  V30 10451 H 1011.53 0.109484 1.55916 0
M  V30 10452 H 1012.26 -2.32615 2.25966 0
M  V30 10453 H 1012.05 -1.29242 3.70188 0
M  V30 10454 H 1013.54 -2.26367 3.50924 0
M  V30 10455 N 1013.98 -1.5736 0.0868897 0
M  V30 10456 C 1014.94 -2.12436 -0.860439 0
M  V30 10457 C 1015.94 -1.05175 -1.21634 0
M  V30 10458 O 1017.13 -1.31098 -1.14713 0
M  V30 10459 C 1014.26 -2.63818 -2.159 0
M  V30 10460 H 1015.45 -2.97453 -0.382346 0
M  V30 10461 H 1013.01 -1.55458 -0.162009 0
M  V30 10462 H 1013.74 -1.82298 -2.68212 0
M  V30 10463 H 1013.53 -3.42234 -1.91359 0
M  V30 10464 H 1015.02 -3.06452 -2.83685 0
M  V30 10465 N 1015.45 0.186762 -1.56489 0
M  V30 10466 C 1016.42 1.21511 -1.94339 0
M  V30 10467 C 1017.42 1.38001 -0.82537 0
M  V30 10468 O 1018.61 1.3567 -1.09266 0
M  V30 10469 C 1015.74 2.583 -2.22472 0
M  V30 10470 H 1016.93 0.891371 -2.86347 0
M  V30 10471 H 1014.49 0.428612 -1.50308 0
M  V30 10472 H 1015.22 2.95715 -1.33129 0
M  V30 10473 H 1015.01 2.47701 -3.03951 0
M  V30 10474 H 1016.5 3.32441 -2.5273 0
M  V30 10475 N 1016.93 1.50896 0.454776 0
M  V30 10476 C 1017.88 1.70947 1.55067 0
M  V30 10477 C 1018.85 0.550899 1.56698 0
M  V30 10478 O 1020.03 0.783352 1.73978 0
M  V30 10479 C 1017.17 1.82455 2.92924 0
M  V30 10480 C 1016.29 3.09919 3.00956 0
M  V30 10481 C 1015.42 3.12125 4.29827 0
M  V30 10482 C 1014.46 4.33975 4.31662 0
M  V30 10483 N 1013.6 4.33828 5.5203 0
M  V30 10484 H 1018.44 2.645 1.37273 0
M  V30 10485 H 1015.98 1.31101 0.667148 0
M  V30 10486 H 1017.93 1.87108 3.72889 0
M  V30 10487 H 1016.56 0.92327 3.09315 0
M  V30 10488 H 1015.62 3.14659 2.13761 0
M  V30 10489 H 1016.93 3.99869 2.98172 0
M  V30 10490 H 1016.08 3.15598 5.18154 0
M  V30 10491 H 1014.82 2.20033 4.35243 0
M  V30 10492 H 1013.83 4.30697 3.41731 0
M  V30 10493 H 1015.05 5.27312 4.27924 0
M  V30 10494 H 1013 3.44598 5.58201 0
M  V30 10495 H 1012.91 5.17566 5.51055 0
M  V30 10496 H 1014.18 4.4147 6.42437 0
M  V30 10497 O 1018.45 -0.600431 1.49924 0
M  V30 10498 H 1019.14 -1.25514 1.47533 0
M  V30 END ATOM
M  V30 BEGIN BOND
M  V30 END BOND
M  V30 END CTAB
M  END
$$$$
