drugbank_target|Q9NUV7 Serine palmitoyltransferase 3 (DB00114)
 OpenBabel12092120063D

  0  0  0     0  0            999 V3000
M  V30 BEGIN CTAB
M  V30 COUNTS 8743 8835 0 0 0
M  V30 BEGIN ATOM
M  V30 1 H -0.908 1.98254 -0.117106 0
M  V30 2 N 0 1.576 0 0
M  V30 3 C 0.933 2.03868 1.02534 0
M  V30 4 C 1.911 0.928543 1.3348 0
M  V30 5 O 3.095 1.19667 1.45644 0
M  V30 6 C 0.222 2.43627 2.35294 0
M  V30 7 C -0.732 3.65373 2.2001 0
M  V30 8 S 0.101 5.13292 1.52614 0
M  V30 9 C 1.257 5.56322 2.86805 0
M  V30 10 H 1.49 2.90518 0.631377 0
M  V30 11 H -0.977 1.52953 0.210867 0
M  V30 12 H 0.981 2.67203 3.11629 0
M  V30 13 H -0.358 1.57376 2.7183 0
M  V30 14 H -1.165 3.90944 3.18086 0
M  V30 15 H -1.563 3.418 1.51819 0
M  V30 16 H 0.729 5.58782 3.83104 0
M  V30 17 H 1.672 6.56266 2.65933 0
M  V30 18 H 2.08 4.83886 2.90714 0
M  V30 19 N 1.4781 -0.272755 1.55222 0
M  V30 20 C 2.4411 -1.32041 1.87344 0
M  V30 21 C 3.4411 -1.42342 0.74803 0
M  V30 22 O 4.6311 -1.41488 1.0162 0
M  V30 23 C 1.7631 -2.70173 2.07893 0
M  V30 24 H 2.9561 -1.04789 2.80997 0
M  V30 25 H 0.5091 -0.51083 1.47717 0
M  V30 26 H 1.2441 -3.02605 1.16622 0
M  V30 27 H 1.0291 -2.64082 2.89833 0
M  V30 28 H 2.5191 -3.45869 2.34017 0
M  V30 29 N 2.9562 -1.48159 -0.537278 0
M  V30 30 C 3.9042 -1.62573 -1.66352 0
M  V30 31 C 4.8982 -0.492366 -1.62087 0
M  V30 32 O 6.1042 -0.670847 -1.67032 0
M  V30 33 H 2.4792 -0.511992 -0.550789 0
M  V30 34 H 4.4502 -2.57176 -1.51337 0
M  V30 35 C 3.1992 -1.67583 -3.04649 0
M  V30 36 H 2.5222 -2.54151 -3.08622 0
M  V30 37 H 3.9622 -1.81713 -3.83088 0
M  V30 38 C 2.4212 -0.413039 -3.34358 0
M  V30 39 O 2.9512 0.477259 -3.98855 0
M  V30 40 N 1.1572 -0.286961 -2.8918 0
M  V30 41 H 0.7042 -1.01241 -2.36871 0
M  V30 42 H 0.6622 0.556963 -3.09427 0
M  V30 43 N 4.4343 0.785586 -1.36625 0
M  V30 44 C 5.8453 1.36101 -1.27803 0
M  V30 45 C 6.1963 1.96035 0.0804875 0
M  V30 46 O 5.3213 1.92834 0.982042 0
M  V30 47 C 5.9163 2.47442 -2.31426 0
M  V30 48 C 4.4753 3.00789 -2.26281 0
M  V30 49 C 3.6223 1.73896 -2.15999 0
M  V30 50 H 6.5733 0.586928 -1.47448 0
M  V30 51 H 6.5943 3.2656 -1.95291 0
M  V30 52 H 6.1063 2.03791 -3.30289 0
M  V30 53 H 4.2073 3.48851 -1.30896 0
M  V30 54 H 4.3203 3.57343 -3.19128 0
M  V30 55 H 2.6843 1.9628 -1.62316 0
M  V30 56 H 3.4673 1.32368 -3.16755 0
M  V30 57 N 5.9124 1.20967 1.01018 0
M  V30 58 C 7.1604 1.02172 1.74371 0
M  V30 59 C 7.4814 -0.446414 1.89821 0
M  V30 60 O 6.7514 -1.32234 1.44537 0
M  V30 61 H 5.3314 0.375066 0.646014 0
M  V30 62 H 7.9934 1.52187 1.21758 0
M  V30 63 H 7.0894 1.48538 2.74487 0
M  V30 64 N 7.3905 -1.2043 1.01659 0
M  V30 65 C 8.6385 -1.89423 0.704522 0
M  V30 66 C 8.9595 -1.79231 -0.768197 0
M  V30 67 O 8.2295 -1.1947 -1.55254 0
M  V30 68 H 6.8095 -0.701178 0.257602 0
M  V30 69 H 9.4715 -1.4626 1.28818 0
M  V30 70 H 8.5675 -2.96052 0.987916 0
M  V30 71 N 8.8686 -0.792821 -1.36206 0
M  V30 72 C 10.1166 -0.366062 -1.98757 0
M  V30 73 C 10.4376 1.0668 -1.63231 0
M  V30 74 O 9.7076 1.73587 -0.907978 0
M  V30 75 H 8.2876 -0.132364 -0.735179 0
M  V30 76 H 10.9496 -1.01562 -1.66347 0
M  V30 77 H 10.0456 -0.460638 -3.08682 0
M  V30 78 N 10.3467 1.47872 -0.545128 0
M  V30 79 C 11.3097 2.28337 0.198717 0
M  V30 80 C 12.3097 1.36255 0.853888 0
M  V30 81 O 13.4997 1.59003 0.711606 0
M  V30 82 C 10.6317 3.15585 1.28915 0
M  V30 83 H 11.8247 2.95567 -0.507941 0
M  V30 84 H 9.3777 1.53362 -0.301616 0
M  V30 85 H 10.1127 2.53019 2.02859 0
M  V30 86 H 9.8977 3.83337 0.824309 0
M  V30 87 H 11.3877 3.76243 1.81194 0
M  V30 88 N 11.8248 0.280983 1.55075 0
M  V30 89 C 13.0708 -0.33461 2.00021 0
M  V30 90 C 13.4038 -1.55063 1.16915 0
M  V30 91 O 12.6788 -1.93006 0.240646 0
M  V30 92 C 12.9618 -0.711007 3.53011 0
M  V30 93 C 12.8148 0.512766 4.46868 0
M  V30 94 C 14.1338 -1.54522 4.12081 0
M  V30 95 H 11.2528 -0.120147 0.727141 0
M  V30 96 H 13.8948 0.389097 1.85973 0
M  V30 97 H 12.0448 -1.32761 3.65112 0
M  V30 98 H 13.7168 1.15131 4.46702 0
M  V30 99 H 11.9598 1.14975 4.18286 0
M  V30 100 H 12.6308 0.205556 5.51617 0
M  V30 101 H 15.1068 -1.02442 4.03293 0
M  V30 102 H 13.9828 -1.77739 5.19327 0
M  V30 103 H 14.2438 -2.52813 3.62682 0
M  V30 104 N 13.3029 -1.57598 0.00835791 0
M  V30 105 C 14.5429 -1.92788 -0.679136 0
M  V30 106 C 14.9069 -0.883378 -1.70471 0
M  V30 107 O 16.1079 -1.12079 -2.44319 0
M  V30 108 C 14.3789 -3.32994 -1.29807 0
M  V30 109 S 15.9379 -3.90082 -2.00952 0
M  V30 110 H 12.7559 -0.67475 -0.224127 0
M  V30 111 H 15.3579 -1.95385 0.0670497 0
M  V30 112 H 14.0619 -4.06846 -0.538922 0
M  V30 113 H 13.5929 -3.33791 -2.082 0
M  V30 114 H 15.6079 -3.71834 -3.28563 0
M  V30 115 N 14.781 0.264519 -1.55364 0
M  V30 116 C 15.729 1.34702 -1.89626 0
M  V30 117 C 16.723 1.50712 -0.773459 0
M  V30 118 O 17.929 1.52395 -0.957897 0
M  V30 119 H 14.304 0.450682 -0.601988 0
M  V30 120 H 16.275 1.0306 -2.80038 0
M  V30 121 C 15.024 2.6989 -2.19214 0
M  V30 122 H 14.347 2.58365 -3.05103 0
M  V30 123 H 15.787 3.44553 -2.47102 0
M  V30 124 C 14.246 3.21637 -1.00254 0
M  V30 125 O 14.776 4.00973 -0.241501 0
M  V30 126 N 12.982 2.7943 -0.797938 0
M  V30 127 H 12.529 2.15026 -1.4185 0
M  V30 128 H 12.487 3.144 -0.00363422 0
M  V30 129 N 16.2591 1.48442 0.529413 0
M  V30 130 C 17.5071 1.56179 1.28267 0
M  V30 131 C 17.8281 0.237721 1.93546 0
M  V30 132 O 17.0981 -0.740779 1.81354 0
M  V30 133 H 15.6781 0.575367 0.476405 0
M  V30 134 H 18.3401 1.84909 0.61602 0
M  V30 135 H 17.4361 2.34312 2.06165 0
M  V30 136 N 17.7372 -0.778329 1.37039 0
M  V30 137 C 18.6842 -1.89139 1.32269 0
M  V30 138 C 19.6542 -1.65017 0.189387 0
M  V30 139 O 20.8392 -1.87024 0.377693 0
M  V30 140 C 17.9792 -3.26112 1.12894 0
M  V30 141 C 17.0922 -3.62233 2.35396 0
M  V30 142 C 16.2272 -4.8838 2.08946 0
M  V30 143 C 15.2662 -5.17212 3.2735 0
M  V30 144 N 14.4032 -6.34546 3.00492 0
M  V30 145 H 19.2432 -1.92552 2.27437 0
M  V30 146 H 16.7802 -0.941473 1.13025 0
M  V30 147 H 18.7382 -4.05116 0.996835 0
M  V30 148 H 17.3682 -3.22091 0.213758 0
M  V30 149 H 16.4202 -2.78265 2.5937 0
M  V30 150 H 17.7322 -3.79481 3.23721 0
M  V30 151 H 16.8862 -5.75274 1.92729 0
M  V30 152 H 15.6252 -4.73222 1.17949 0
M  V30 153 H 14.6302 -4.28796 3.44113 0
M  V30 154 H 15.8552 -5.34283 4.19188 0
M  V30 155 H 13.8012 -6.20759 2.12118 0
M  V30 156 H 13.7182 -6.52179 3.82358 0
M  V30 157 H 14.9862 -7.24394 2.87879 0
M  V30 158 N 19.2153 -1.21501 -1.00376 0
M  V30 159 C 20.1453 -0.999478 -2.11028 0
M  V30 160 C 21.1263 0.0759671 -1.6993 0
M  V30 161 O 22.3113 -0.0841106 -1.94018 0
M  V30 162 C 19.4413 -0.564709 -3.42678 0
M  V30 163 C 18.3953 -1.58486 -3.97576 0
M  V30 164 C 17.7213 -1.00628 -5.25146 0
M  V30 165 C 19.0213 -2.97204 -4.29496 0
M  V30 166 H 20.7153 -1.92495 -2.29317 0
M  V30 167 H 18.2613 -0.92693 -1.102 0
M  V30 168 H 20.2143 -0.401091 -4.19487 0
M  V30 169 H 18.9383 0.396411 -3.24185 0
M  V30 170 H 17.5973 -1.73606 -3.22888 0
M  V30 171 H 17.2453 -0.0368439 -5.02987 0
M  V30 172 H 16.9453 -1.68771 -5.62841 0
M  V30 173 H 18.4693 -0.854015 -6.04598 0
M  V30 174 H 19.8833 -2.8552 -4.97143 0
M  V30 175 H 18.2803 -3.62372 -4.78338 0
M  V30 176 H 19.3503 -3.47956 -3.3772 0
M  V30 177 N 20.6934 1.19889 -1.02296 0
M  V30 178 C 21.6434 2.20777 -0.56934 0
M  V30 179 C 22.6274 1.56379 0.378741 0
M  V30 180 O 23.8194 1.75859 0.200673 0
M  V30 181 C 20.9484 3.43196 0.0845077 0
M  V30 182 C 20.0344 4.14749 -0.88566 0
M  V30 183 N 20.4254 4.62584 -2.04573 0
M  V30 184 C 18.7234 4.40347 -0.707835 0
M  V30 185 C 19.4244 5.17466 -2.65714 0
M  V30 186 N 18.4004 5.0791 -1.93723 0
M  V30 187 H 22.2024 2.55434 -1.45365 0
M  V30 188 H 19.7164 1.35897 -0.88915 0
M  V30 189 H 21.7134 4.14707 0.427067 0
M  V30 190 H 20.3734 3.10042 0.964574 0
M  V30 191 H 21.3844 4.57597 -2.4254 0
M  V30 192 H 18.0614 4.17317 0.12364 0
M  V30 193 H 19.4514 5.64808 -3.63925 0
M  V30 194 N 22.1715 0.800033 1.35784 0
M  V30 195 C 23.1195 0.193851 2.31791 0
M  V30 196 C 24.1135 -0.652744 1.56319 0
M  V30 197 O 25.3195 -0.546641 1.71499 0
M  V30 198 H 21.6945 0.04392 0.750716 0
M  V30 199 H 23.6655 1.01883 2.80468 0
M  V30 200 C 22.4145 -0.648338 3.41602 0
M  V30 201 H 21.7375 -0.00624665 3.998 0
M  V30 202 H 23.1775 -1.03898 4.11073 0
M  V30 203 C 21.6365 -1.8111 2.84079 0
M  V30 204 O 22.1665 -2.90825 2.77099 0
M  V30 205 N 20.3725 -1.62056 2.41218 0
M  V30 206 H 19.9195 -0.728123 2.47095 0
M  V30 207 H 19.8775 -2.40013 2.03079 0
M  V30 208 N 23.6496 -1.47581 0.552962 0
M  V30 209 C 24.5996 -2.26961 -0.217423 0
M  V30 210 C 25.5836 -1.34099 -0.889168 0
M  V30 211 O 26.7756 -1.58483 -0.788176 0
M  V30 212 C 23.9046 -3.19756 -1.24944 0
M  V30 213 C 22.9906 -4.20097 -0.581327 0
M  V30 214 N 23.3816 -5.04614 0.346171 0
M  V30 215 C 21.6796 -4.38099 -0.835767 0
M  V30 216 C 22.3806 -5.77052 0.733854 0
M  V30 217 N 21.3566 -5.43526 0.0896567 0
M  V30 218 H 25.1586 -2.89688 0.495761 0
M  V30 219 H 22.6726 -1.58068 0.372597 0
M  V30 220 H 24.6696 -3.75305 -1.81527 0
M  V30 221 H 23.3296 -2.58585 -1.96376 0
M  V30 222 H 24.3406 -5.12869 0.720098 0
M  V30 223 H 21.0176 -3.88102 -1.53892 0
M  V30 224 H 22.4076 -6.5504 1.49574 0
M  V30 225 N 25.1277 -0.289203 -1.54924 0
M  V30 226 C 26.0747 0.592115 -2.23075 0
M  V30 227 C 27.0447 1.13881 -1.20915 0
M  V30 228 O 28.2297 1.18551 -1.495 0
M  V30 229 C 25.3697 1.76376 -2.96623 0
M  V30 230 C 24.4827 1.24959 -4.13533 0
M  V30 231 C 23.6177 2.38416 -4.74691 0
M  V30 232 C 22.6567 1.84072 -5.83767 0
M  V30 233 N 21.7937 2.91057 -6.38929 0
M  V30 234 H 26.6337 0.00432038 -2.98 0
M  V30 235 H 24.1707 -0.00963529 -1.47097 0
M  V30 236 H 26.1287 2.45268 -3.3749 0
M  V30 237 H 24.7587 2.32337 -2.24097 0
M  V30 238 H 23.8107 0.453307 -3.77689 0
M  V30 239 H 25.1227 0.811662 -4.92152 0
M  V30 240 H 24.2767 3.15276 -5.18349 0
M  V30 241 H 23.0157 2.8553 -3.95378 0
M  V30 242 H 22.0207 1.05697 -5.39545 0
M  V30 243 H 23.2457 1.37877 -6.64956 0
M  V30 244 H 21.1917 3.37526 -5.62505 0
M  V30 245 H 21.1087 2.51724 -7.12861 0
M  V30 246 H 22.3767 3.6785 -6.87246 0
M  V30 247 N 26.6058 1.57591 -0.0167156 0
M  V30 248 C 27.5528 2.09462 0.969251 0
M  V30 249 C 28.5228 0.99381 1.33089 0
M  V30 250 O 29.7078 1.26726 1.42636 0
M  V30 251 C 26.8478 2.61622 2.25051 0
M  V30 252 C 25.9608 3.85666 1.94642 0
M  V30 253 C 25.0958 4.26266 3.16972 0
M  V30 254 C 24.1348 5.43101 2.82326 0
M  V30 255 N 23.2718 5.78915 3.97243 0
M  V30 256 H 28.1118 2.93428 0.519997 0
M  V30 257 H 25.6488 1.45044 0.245087 0
M  V30 258 H 27.6068 2.89949 2.99976 0
M  V30 259 H 26.2368 1.80505 2.67615 0
M  V30 260 H 25.2888 3.64145 1.10013 0
M  V30 261 H 26.6008 4.70678 1.65117 0
M  V30 262 H 25.7548 4.55963 4.00228 0
M  V30 263 H 24.4938 3.39996 3.49648 0
M  V30 264 H 23.4988 5.1311 1.97479 0
M  V30 265 H 24.7238 6.3106 2.50879 0
M  V30 266 H 22.6698 4.95602 4.29785 0
M  V30 267 H 22.5868 6.58539 3.71299 0
M  V30 268 H 23.8548 6.13212 4.81239 0
M  V30 269 N 28.0839 -0.256276 1.55502 0
M  V30 270 C 29.0159 -1.33981 1.85962 0
M  V30 271 C 30.0289 -1.44743 0.745212 0
M  V30 272 O 31.2179 -1.4626 1.02324 0
M  V30 273 C 28.3179 -2.7194 2.02242 0
M  V30 274 C 27.4909 -2.83562 3.33033 0
M  V30 275 C 26.5499 -4.02304 3.39172 0
M  V30 276 O 25.5759 -3.92273 4.12444 0
M  V30 277 N 26.7779 -5.15045 2.67784 0
M  V30 278 H 29.5429 -1.08191 2.7949 0
M  V30 279 H 27.1039 -0.446388 1.55624 0
M  V30 280 H 29.0959 -3.49697 2.03701 0
M  V30 281 H 27.6659 -2.90479 1.15502 0
M  V30 282 H 26.8859 -1.92555 3.43971 0
M  V30 283 H 28.1739 -2.88271 4.19258 0
M  V30 284 H 27.5719 -5.26085 2.07968 0
M  V30 285 H 26.1289 -5.90972 2.74947 0
M  V30 286 N 29.562 -1.4872 -0.521534 0
M  V30 287 C 30.787 -1.61101 -1.30618 0
M  V30 288 C 31.212 -0.274611 -1.86085 0
M  V30 289 O 30.57 0.754937 -1.64834 0
M  V30 290 C 30.618 -2.66709 -2.4269 0
M  V30 291 O 29.722 -2.24456 -3.45967 0
M  V30 292 H 29.063 -0.539921 -0.386499 0
M  V30 293 H 31.593 -1.94767 -0.626645 0
M  V30 294 H 31.603 -2.88245 -2.88754 0
M  V30 295 H 30.278 -3.63727 -2.01682 0
M  V30 296 H 28.855 -2.13168 -3.05964 0
M  V30 297 N 31.0401 0.771051 -1.3745 0
M  V30 298 C 31.9881 1.90574 -1.33358 0
M  V30 299 C 32.9821 1.67936 -0.22224 0
M  V30 300 O 34.1881 1.75717 -0.390304 0
M  V30 301 H 30.5631 0.626714 -0.415612 0
M  V30 302 H 32.5341 1.91142 -2.29144 0
M  V30 303 C 31.2831 3.27845 -1.15813 0
M  V30 304 H 30.6061 3.45842 -2.00583 0
M  V30 305 H 32.0461 4.07538 -1.17 0
M  V30 306 C 30.5051 3.36625 0.136165 0
M  V30 307 O 31.0351 3.85785 1.11949 0
M  V30 308 N 29.2411 2.89997 0.187099 0
M  V30 309 H 28.7881 2.50182 -0.613753 0
M  V30 310 H 28.7461 2.96252 1.05272 0
M  V30 311 N 32.5182 1.22032 0.997298 0
M  V30 312 C 33.7662 1.04016 1.73278 0
M  V30 313 C 34.0872 -0.426255 1.90284 0
M  V30 314 O 33.3572 -1.30694 1.45931 0
M  V30 315 H 31.9372 0.381897 0.642 0
M  V30 316 H 34.5992 1.5347 1.20137 0
M  V30 317 H 33.6952 1.51441 2.72896 0
M  V30 318 N 33.9963 -1.19345 1.0293 0
M  V30 319 C 35.2213 -1.93538 0.745511 0
M  V30 320 C 35.6463 -1.75007 -0.689511 0
M  V30 321 O 35.0043 -1.05265 -1.47611 0
M  V30 322 C 35.0523 -3.43336 1.10239 0
M  V30 323 O 34.1563 -4.11806 0.221289 0
M  V30 324 H 33.4973 -0.604193 0.275404 0
M  V30 325 H 36.0273 -1.5141 1.37609 0
M  V30 326 H 36.0373 -3.94004 1.05947 0
M  V30 327 H 34.7123 -3.56146 2.14786 0
M  V30 328 H 33.2893 -3.715 0.322842 0
M  V30 329 N 35.4744 -0.807222 -1.35358 0
M  V30 330 C 36.4064 -0.175717 -2.28525 0
M  V30 331 C 37.4194 0.625354 -1.5031 0
M  V30 332 O 38.6084 0.457611 -1.72535 0
M  V30 333 C 35.7084 0.773471 -3.29956 0
M  V30 334 C 34.8814 0.0186296 -4.37396 0
M  V30 335 C 33.9404 0.886395 -5.18681 0
M  V30 336 O 32.9664 0.337106 -5.68201 0
M  V30 337 N 34.1684 2.20839 -5.36852 0
M  V30 338 H 36.9334 -0.976091 -2.83359 0
M  V30 339 H 34.4944 -0.662737 -1.47714 0
M  V30 340 H 36.4864 1.35824 -3.81227 0
M  V30 341 H 35.0564 1.47465 -2.75632 0
M  V30 342 H 34.2764 -0.747349 -3.87051 0
M  V30 343 H 35.5644 -0.501577 -5.06322 0
M  V30 344 H 34.9624 2.67858 -4.98265 0
M  V30 345 H 33.5194 2.74237 -5.91301 0
M  V30 346 N 36.9525 1.47285 -0.560781 0
M  V30 347 C 38.1775 2.07359 -0.0410566 0
M  V30 348 C 38.6025 1.41017 1.24483 0
M  V30 349 O 37.9605 0.486368 1.74654 0
M  V30 350 C 38.0085 3.6035 0.134123 0
M  V30 351 O 37.1125 3.94681 1.19587 0
M  V30 352 H 36.4535 0.661887 -0.0529291 0
M  V30 353 H 38.9835 1.89252 -0.777482 0
M  V30 354 H 38.9935 4.0652 0.347207 0
M  V30 355 H 37.6685 4.08034 -0.805047 0
M  V30 356 H 36.2455 3.60251 0.962987 0
M  V30 357 N 38.4306 0.297415 1.54768 0
M  V30 358 C 39.8466 -0.0560823 1.59501 0
M  V30 359 C 40.0466 -1.52725 1.31444 0
M  V30 360 O 39.1026 -2.27947 1.08611 0
M  V30 361 C 40.4156 0.338631 2.98787 0
M  V30 362 C 41.9636 0.287097 3.11681 0
M  V30 363 C 42.4386 0.656579 4.53269 0
M  V30 364 N 43.9296 0.608977 4.59179 0
M  V30 365 C 44.6646 0.867385 5.66802 0
M  V30 366 N 44.1606 1.19157 6.82476 0
M  V30 367 N 45.9536 0.794687 5.56454 0
M  V30 368 H 38.1046 1.25624 1.71267 0
M  V30 369 H 40.3676 0.509057 0.799728 0
M  V30 370 H 40.0736 1.36263 3.2423 0
M  V30 371 H 39.9476 -0.309508 3.75928 0
M  V30 372 H 42.3346 -0.727649 2.85988 0
M  V30 373 H 42.4156 0.969809 2.36703 0
M  V30 374 H 42.0596 1.66912 4.7969 0
M  V30 375 H 41.9896 -0.0481649 5.26578 0
M  V30 376 H 44.4806 0.369198 3.76092 0
M  V30 377 H 44.7936 1.37482 7.60473 0
M  V30 378 H 43.1386 1.22958 6.84037 0
M  V30 379 H 46.3296 0.541098 4.64962 0
M  V30 380 H 46.5026 0.999445 6.40246 0
M  V30 381 N 39.9087 -1.5758 0.0250728 0
M  V30 382 C 40.8567 -2.11125 -0.97617 0
M  V30 383 C 41.8507 -1.03689 -1.33959 0
M  V30 384 O 43.0567 -1.22128 -1.3223 0
M  V30 385 H 39.4317 -0.674468 -0.332561 0
M  V30 386 H 41.4027 -2.94194 -0.499223 0
M  V30 387 C 40.1517 -2.65017 -2.2508 0
M  V30 388 H 39.4747 -3.47333 -1.9799 0
M  V30 389 H 40.9147 -3.06133 -2.93357 0
M  V30 390 C 39.3737 -1.57574 -2.97779 0
M  V30 391 O 39.9037 -0.973203 -3.89733 0
M  V30 392 N 38.1097 -1.29716 -2.60043 0
M  V30 393 H 37.6567 -1.789 -1.85345 0
M  V30 394 H 37.6147 -0.58051 -3.08994 0
M  V30 395 N 41.3868 0.248026 -1.55636 0
M  V30 396 C 42.6268 0.983592 -1.79178 0
M  V30 397 C 42.9908 1.82567 -0.594414 0
M  V30 398 O 44.1918 2.59292 -0.708583 0
M  V30 399 C 42.4628 1.82228 -3.07454 0
M  V30 400 S 44.0218 2.61709 -3.52213 0
M  V30 401 H 40.8398 0.330866 -0.629324 0
M  V30 402 H 43.4418 0.251562 -1.93875 0
M  V30 403 H 42.1458 1.19333 -3.92668 0
M  V30 404 H 41.6768 2.59708 -2.95492 0
M  V30 405 H 43.6918 3.84655 -3.13457 0
M  V30 406 N 42.8649 1.48995 0.513639 0
M  V30 407 C 44.0929 1.61531 1.29288 0
M  V30 408 C 44.5079 0.281801 1.86685 0
M  V30 409 O 43.8649 -0.731111 1.67215 0
M  V30 410 C 43.9159 2.67449 2.43215 0
M  V30 411 O 43.6369 3.95626 1.88179 0
M  V30 412 C 45.1379 2.90575 3.34785 0
M  V30 413 H 42.3579 0.544165 0.392588 0
M  V30 414 H 44.9019 1.9494 0.617956 0
M  V30 415 H 43.0569 2.36853 3.0656 0
M  V30 416 H 43.4709 4.53868 2.62876 0
M  V30 417 H 44.9449 3.68449 4.11035 0
M  V30 418 H 45.4219 2.00011 3.91015 0
M  V30 419 H 46.0279 3.22538 2.77218 0
M  V30 420 N 44.343 -0.763751 1.37857 0
M  V30 421 C 45.29 -1.87726 1.34267 0
M  V30 422 C 46.26 -1.64807 0.206879 0
M  V30 423 O 47.445 -1.86613 0.397508 0
M  V30 424 C 44.585 -3.24896 1.16346 0
M  V30 425 C 43.698 -3.59716 2.39225 0
M  V30 426 C 42.833 -4.86137 2.14114 0
M  V30 427 C 41.872 -5.13711 3.32817 0
M  V30 428 N 41.009 -6.31323 3.07206 0
M  V30 429 H 45.849 -1.90129 2.29466 0
M  V30 430 H 43.386 -0.929433 1.14017 0
M  V30 431 H 45.344 -4.04036 1.03975 0
M  V30 432 H 43.974 -3.21847 0.247909 0
M  V30 433 H 43.026 -2.75498 2.62307 0
M  V30 434 H 44.338 -3.76027 3.27728 0
M  V30 435 H 43.492 -5.73198 1.9882 0
M  V30 436 H 42.231 -4.71945 1.22961 0
M  V30 437 H 41.236 -4.25123 3.48641 0
M  V30 438 H 42.461 -5.29807 4.24832 0
M  V30 439 H 40.407 -6.18474 2.1869 0
M  V30 440 H 40.324 -6.48087 3.89254 0
M  V30 441 H 41.592 -7.213 2.95546 0
M  V30 442 N 45.8211 -1.22559 -0.990812 0
M  V30 443 C 46.7691 -0.994798 -2.10253 0
M  V30 444 C 47.7631 0.0627798 -1.69284 0
M  V30 445 O 48.9691 -0.0898392 -1.79776 0
M  V30 446 H 45.3441 -0.304527 -0.687581 0
M  V30 447 H 47.3151 -1.93812 -2.26891 0
M  V30 448 C 46.0641 -0.591439 -3.42633 0
M  V30 449 H 45.3871 -1.3969 -3.74602 0
M  V30 450 H 46.8271 -0.469385 -4.21394 0
M  V30 451 C 45.2861 0.699232 -3.29564 0
M  V30 452 O 45.8161 1.75112 -3.61523 0
M  V30 453 N 44.0221 0.671182 -2.82743 0
M  V30 454 H 43.5691 -0.185136 -2.56934 0
M  V30 455 H 43.5271 1.53502 -2.7438 0
M  V30 456 N 47.2992 1.18797 -1.03562 0
M  V30 457 C 48.5472 1.88278 -0.734569 0
M  V30 458 C 48.8682 1.8043 0.739586 0
M  V30 459 O 48.1382 1.21925 1.53333 0
M  V30 460 H 46.7182 0.696991 -0.268725 0
M  V30 461 H 49.3802 1.44192 -1.31129 0
M  V30 462 H 48.4762 2.94443 -1.03489 0
M  V30 463 N 48.7773 0.814389 1.34928 0
M  V30 464 C 50.0263 0.394871 1.97797 0
M  V30 465 C 50.3393 -1.04555 1.65311 0
M  V30 466 O 51.5453 -1.56856 2.21604 0
M  V30 467 C 50.0013 0.655103 3.53888 0
M  V30 468 C 49.6093 2.10858 3.95276 0
M  V30 469 C 51.3533 0.301329 4.23429 0
M  V30 470 C 49.2603 2.31415 5.44244 0
M  V30 471 H 48.1903 0.143913 0.740139 0
M  V30 472 H 50.8413 0.999544 1.53888 0
M  V30 473 H 49.2233 -0.0196253 3.95995 0
M  V30 474 H 50.3973 2.82176 3.64298 0
M  V30 475 H 48.7123 2.42297 3.38646 0
M  V30 476 H 51.3093 0.432869 5.32945 0
M  V30 477 H 51.6523 -0.75331 4.09428 0
M  V30 478 H 52.1853 0.930288 3.86769 0
M  V30 479 H 48.9243 3.35353 5.63222 0
M  V30 480 H 48.4443 1.6463 5.76764 0
M  V30 481 H 50.1233 2.13352 6.10811 0
M  V30 482 N 50.2554 -1.46986 0.568584 0
M  V30 483 C 51.5014 -2.02741 0.0488709 0
M  V30 484 C 51.8344 -1.44077 -1.30214 0
M  V30 485 O 51.1094 -0.600552 -1.84996 0
M  V30 486 C 51.3924 -3.60086 -0.032047 0
M  V30 487 C 51.2454 -4.29162 1.34686 0
M  V30 488 C 52.5644 -4.33838 -0.739798 0
M  V30 489 H 49.6834 -0.736749 0.0192338 0
M  V30 490 H 52.3254 -1.75289 0.733065 0
M  V30 491 H 50.4754 -3.83606 -0.61473 0
M  V30 492 H 52.1474 -4.16948 1.97362 0
M  V30 493 H 50.3904 -3.89073 1.91846 0
M  V30 494 H 51.0614 -5.37826 1.24285 0
M  V30 495 H 53.5374 -4.15378 -0.244939 0
M  V30 496 H 52.4134 -5.43537 -0.765406 0
M  V30 497 H 52.6744 -4.03875 -1.79827 0
M  V30 498 N 51.7335 -0.305618 -1.54608 0
M  V30 499 C 52.6805 0.568421 -2.23691 0
M  V30 500 C 53.6505 1.12592 -1.22116 0
M  V30 501 O 54.8355 1.16959 -1.50749 0
M  V30 502 C 51.9755 1.7322 -2.98477 0
M  V30 503 C 51.0885 1.20566 -4.14835 0
M  V30 504 C 50.2235 2.33368 -4.77193 0
M  V30 505 C 49.2625 1.7787 -5.85686 0
M  V30 506 N 48.3995 2.84263 -6.4198 0
M  V30 507 H 53.2395 -0.0272867 -2.97988 0
M  V30 508 H 50.7765 -0.0252363 -1.47078 0
M  V30 509 H 52.7345 2.41675 -3.40072 0
M  V30 510 H 51.3645 2.29947 -2.26548 0
M  V30 511 H 50.4165 0.413223 -3.78149 0
M  V30 512 H 51.7285 0.759417 -4.92985 0
M  V30 513 H 50.8825 3.09761 -5.21664 0
M  V30 514 H 49.6215 2.8132 -3.98385 0
M  V30 515 H 48.6265 0.99968 -5.40635 0
M  V30 516 H 49.8515 1.30816 -6.66381 0
M  V30 517 H 47.7975 3.31541 -5.66053 0
M  V30 518 H 47.7145 2.44149 -7.15491 0
M  V30 519 H 48.9825 3.6054 -6.91109 0
M  V30 520 N 53.2116 1.57565 -0.0334293 0
M  V30 521 C 54.1216 2.13943 0.962572 0
M  V30 522 C 55.1376 1.09276 1.35406 0
M  V30 523 O 56.3136 1.41355 1.4346 0
M  V30 524 C 53.3786 2.65887 2.22497 0
M  V30 525 C 52.4396 3.85286 1.8935 0
M  V30 526 C 51.6726 4.34743 3.09571 0
M  V30 527 O 51.8956 3.83352 4.22371 0
M  V30 528 O 50.8296 5.26538 2.91618 0
M  V30 529 H 54.6556 2.99333 0.513169 0
M  V30 530 H 52.2406 1.4822 0.18743 0
M  V30 531 H 54.1226 2.99346 2.96598 0
M  V30 532 H 52.7976 1.83578 2.6661 0
M  V30 533 H 51.7046 3.56746 1.1262 0
M  V30 534 H 53.0376 4.68771 1.5005 0
M  V30 535 N 54.6897 -0.239769 1.55765 0
M  V30 536 C 55.6527 -1.28038 1.90103 0
M  V30 537 C 56.6527 -1.40723 0.778055 0
M  V30 538 O 57.8427 -1.39301 1.04599 0
M  V30 539 C 54.9747 -2.65702 2.13577 0
M  V30 540 H 56.1677 -0.988048 2.83157 0
M  V30 541 H 53.7207 -0.479382 1.48767 0
M  V30 542 H 54.4557 -3.00063 1.23015 0
M  V30 543 H 54.2407 -2.57875 2.95369 0
M  V30 544 H 55.7307 -3.40828 2.41301 0
M  V30 545 N 56.1678 -1.49265 -0.50573 0
M  V30 546 C 57.0998 -1.617 -1.62437 0
M  V30 547 C 58.1128 -0.499924 -1.54934 0
M  V30 548 O 59.3018 -0.771785 -1.60953 0
M  V30 549 C 56.4018 -1.5533 -3.01207 0
M  V30 550 C 55.5748 -2.8249 -3.33943 0
M  V30 551 C 54.6338 -2.69238 -4.52103 0
M  V30 552 O 53.6598 -3.43167 -4.5412 0
M  V30 553 N 54.8618 -1.80468 -5.51735 0
M  V30 554 H 57.6268 -2.58177 -1.52199 0
M  V30 555 H 55.1878 -1.46294 -0.693511 0
M  V30 556 H 57.1798 -1.44125 -3.78167 0
M  V30 557 H 55.7498 -0.667297 -3.05395 0
M  V30 558 H 54.9698 -3.08081 -2.45926 0
M  V30 559 H 56.2578 -3.66802 -3.5261 0
M  V30 560 H 55.6558 -1.19653 -5.52901 0
M  V30 561 H 54.2128 -1.75188 -6.27816 0
M  V30 562 N 57.6459 0.756429 -1.3826 0
M  V30 563 C 58.5779 1.87971 -1.31147 0
M  V30 564 C 59.5909 1.61248 -0.224239 0
M  V30 565 O 60.7799 1.71881 -0.481581 0
M  V30 566 C 57.8799 3.23545 -1.00857 0
M  V30 567 C 57.0529 3.77794 -2.20432 0
M  V30 568 C 56.1119 4.91877 -1.86931 0
M  V30 569 O 55.1379 5.06659 -2.59395 0
M  V30 570 N 56.3399 5.74643 -0.822568 0
M  V30 571 H 59.1049 1.94585 -2.2794 0
M  V30 572 H 56.6659 0.936234 -1.32084 0
M  V30 573 H 58.6579 3.97403 -0.765021 0
M  V30 574 H 57.2279 3.12335 -0.128687 0
M  V30 575 H 56.4479 2.95534 -2.6087 0
M  V30 576 H 57.7359 4.10771 -3.00241 0
M  V30 577 H 57.1339 5.65266 -0.221575 0
M  V30 578 H 55.6909 6.48661 -0.638899 0
M  V30 579 N 59.124 1.23083 0.984299 0
M  V30 580 C 60.072 1.00593 2.09723 0
M  V30 581 C 61.066 -0.0538014 1.69315 0
M  V30 582 O 62.272 0.0993719 1.79725 0
M  V30 583 H 58.647 0.30817 0.685956 0
M  V30 584 H 60.618 1.95012 2.2586 0
M  V30 585 C 59.367 0.609601 3.42314 0
M  V30 586 H 58.69 1.41675 3.73856 0
M  V30 587 H 60.13 0.491726 4.21139 0
M  V30 588 C 58.589 -0.681745 3.2993 0
M  V30 589 O 59.119 -1.73192 3.62446 0
M  V30 590 N 57.325 -0.656178 2.83095 0
M  V30 591 H 56.872 0.198759 2.56832 0
M  V30 592 H 56.83 -1.52044 2.75191 0
M  V30 593 N 60.6021 -1.18246 1.0419 0
M  V30 594 C 61.8501 -1.87886 0.744543 0
M  V30 595 C 62.1711 -1.8082 -0.730006 0
M  V30 596 O 61.4411 -1.22736 -1.52685 0
M  V30 597 H 60.0211 -0.695556 0.272417 0
M  V30 598 H 62.6831 -1.43494 1.31892 0
M  V30 599 H 61.7791 -2.9389 1.05049 0
M  V30 600 N 62.0802 -0.821533 -1.34494 0
M  V30 601 C 63.0272 -0.240397 -2.29545 0
M  V30 602 C 63.9972 0.634031 -1.53523 0
M  V30 603 O 65.1822 0.575966 -1.81899 0
M  V30 604 C 62.3222 0.592869 -3.39969 0
M  V30 605 C 61.4352 -0.30365 -4.30932 0
M  V30 606 C 60.5702 0.539049 -5.28458 0
M  V30 607 C 59.6092 -0.356942 -6.11058 0
M  V30 608 N 58.7462 0.446603 -7.00678 0
M  V30 609 H 63.5862 -1.05632 -2.7865 0
M  V30 610 H 61.1232 -0.532413 -1.37127 0
M  V30 611 H 63.0812 1.09129 -4.02675 0
M  V30 612 H 61.7112 1.37392 -2.92102 0
M  V30 613 H 60.7632 -0.920276 -3.691 0
M  V30 614 H 62.0752 -0.992661 -4.88823 0
M  V30 615 H 61.2292 1.102 -5.96608 0
M  V30 616 H 59.9682 1.26157 -4.71101 0
M  V30 617 H 58.9732 -0.932047 -5.41842 0
M  V30 618 H 60.1982 -1.07755 -6.70497 0
M  V30 619 H 58.1442 1.15282 -6.45791 0
M  V30 620 H 58.0612 -0.184048 -7.55776 0
M  V30 621 H 59.3292 0.992352 -7.73158 0
M  V30 622 N 63.5583 1.46682 -0.576371 0
M  V30 623 C 64.9693 1.86112 -0.148091 0
M  V30 624 C 65.3203 1.48073 1.2872 0
M  V30 625 O 64.4453 0.892656 1.97131 0
M  V30 626 C 65.0403 3.37786 -0.261982 0
M  V30 627 C 63.5993 3.76235 0.111384 0
M  V30 628 C 62.7463 2.70713 -0.60083 0
M  V30 629 H 65.6973 1.37927 -0.78497 0
M  V30 630 H 65.7183 3.77007 0.514364 0
M  V30 631 H 65.2303 3.6544 -1.30671 0
M  V30 632 H 63.3313 3.54198 1.15649 0
M  V30 633 H 63.4443 4.78391 -0.26052 0
M  V30 634 H 61.8083 2.54666 -0.0417783 0
M  V30 635 H 62.5913 3.01208 -1.64708 0
M  V30 636 N 65.0364 0.313813 1.54444 0
M  V30 637 C 65.9864 -0.571898 2.20711 0
M  V30 638 C 66.9704 -1.08913 1.18435 0
M  V30 639 O 68.1624 -1.02777 1.44104 0
M  V30 640 C 65.2914 -1.7371 2.96108 0
M  V30 641 C 64.3774 -1.23522 4.05713 0
M  V30 642 N 64.7684 -0.452288 5.03774 0
M  V30 643 C 63.0664 -1.51482 4.19487 0
M  V30 644 C 63.7674 -0.183438 5.81411 0
M  V30 645 N 62.7434 -0.766845 5.38164 0
M  V30 646 H 66.5454 0.0336802 2.93881 0
M  V30 647 H 64.0594 0.119192 1.61962 0
M  V30 648 H 66.0564 -2.38329 3.4206 0
M  V30 649 H 64.7164 -2.34625 2.24458 0
M  V30 650 H 65.7274 -0.0960131 5.17811 0
M  V30 651 H 62.4044 -2.13053 3.59047 0
M  V30 652 H 63.7944 0.446216 6.70417 0
M  V30 653 N 66.5145 -1.57545 0.0417849 0
M  V30 654 C 67.7615 -1.92317 -0.634082 0
M  V30 655 C 68.0895 -0.919334 -1.71402 0
M  V30 656 O 67.3445 0.0698253 -1.95575 0
M  V30 657 C 67.6435 -3.33794 -1.27735 0
M  V30 658 C 67.3095 -4.49716 -0.326543 0
M  V30 659 C 65.9715 -4.81156 -0.0648814 0
M  V30 660 C 68.3235 -5.20182 0.325623 0
M  V30 661 C 65.6515 -5.80414 0.856539 0
M  V30 662 C 68.0035 -6.20424 1.23518 0
M  V30 663 C 66.6675 -6.50298 1.5056 0
M  V30 664 H 65.9375 -0.703736 -0.232027 0
M  V30 665 H 68.5845 -1.91205 0.106259 0
M  V30 666 H 66.8895 -3.31228 -2.09274 0
M  V30 667 H 68.5865 -3.57975 -1.80707 0
M  V30 668 H 65.1765 -4.25176 -0.540665 0
M  V30 669 H 69.3605 -4.96112 0.136546 0
M  V30 670 H 64.6165 -6.019 1.07363 0
M  V30 671 H 68.7905 -6.74141 1.74664 0
M  V30 672 H 66.4175 -7.27025 2.22123 0
M  V30 673 N 67.9926 0.231505 -1.5589 0
M  V30 674 C 69.2226 0.973092 -1.82248 0
M  V30 675 C 69.6306 1.78845 -0.617328 0
M  V30 676 O 68.9736 1.78752 0.423499 0
M  V30 677 C 69.0356 1.94732 -3.02192 0
M  V30 678 C 68.6996 1.31743 -4.37599 0
M  V30 679 C 69.6966 0.712238 -5.14998 0
M  V30 680 C 67.3816 1.33218 -4.84312 0
M  V30 681 C 69.3756 0.130195 -6.37267 0
M  V30 682 C 67.0626 0.746286 -6.06526 0
M  V30 683 C 68.0606 0.146337 -6.82843 0
M  V30 684 O 67.7486 -0.430465 -8.02747 0
M  V30 685 H 67.4806 0.29125 -0.61004 0
M  V30 686 H 70.0346 0.254915 -2.03812 0
M  V30 687 H 68.2646 2.70422 -2.76422 0
M  V30 688 H 69.9536 2.55362 -3.15508 0
M  V30 689 H 70.7196 0.69324 -4.8002 0
M  V30 690 H 66.5986 1.78854 -4.24891 0
M  V30 691 H 70.1426 -0.33871 -6.96777 0
M  V30 692 H 66.0396 0.762663 -6.40979 0
M  V30 693 H 66.8076 -0.323818 -8.17859 0
M  V30 694 N 69.4707 1.49531 0.497807 0
M  V30 695 C 70.7477 1.49682 1.25915 0
M  V30 696 C 71.1277 0.226339 2.09883 0
M  V30 697 O 70.4757 -0.791189 2.14365 0
M  V30 698 C 70.6857 2.77755 2.11313 0
M  V30 699 C 72.0337 3.27371 2.70395 0
M  V30 700 O 73.0577 2.78894 2.21578 0
M  V30 701 O 71.9167 4.11808 3.59272 0
M  V30 702 H 69.0107 0.599228 0.56996 0
M  V30 703 H 71.5567 1.61798 0.511816 0
M  V30 704 H 70.3287 3.61713 1.49264 0
M  V30 705 H 69.9517 2.68515 2.93233 0
M  V30 706 N 70.9488 -0.749086 1.3866 0
M  V30 707 C 71.8958 -1.86291 1.36251 0
M  V30 708 C 72.8658 -1.64578 0.224347 0
M  V30 709 O 74.0508 -1.86181 0.417279 0
M  V30 710 C 71.1908 -3.23644 1.19786 0
M  V30 711 C 70.3038 -3.57158 2.43027 0
M  V30 712 C 69.4388 -4.83838 2.19258 0
M  V30 713 C 68.4778 -5.10152 3.38247 0
M  V30 714 N 67.6148 -6.28029 3.13884 0
M  V30 715 H 72.4548 -1.87685 2.3147 0
M  V30 716 H 69.9918 -0.917287 1.14997 0
M  V30 717 H 71.9498 -4.0291 1.08254 0
M  V30 718 H 70.5798 -3.21566 0.282031 0
M  V30 719 H 69.6318 -2.72701 2.65214 0
M  V30 720 H 70.9438 -3.7253 3.31697 0
M  V30 721 H 70.0978 -5.71057 2.04888 0
M  V30 722 H 68.8368 -4.70614 1.2796 0
M  V30 723 H 67.8418 -4.21401 3.53131 0
M  V30 724 H 69.0668 -5.25271 4.30427 0
M  V30 725 H 67.0128 -6.1612 2.25238 0
M  V30 726 H 66.9298 -6.43922 3.96106 0
M  V30 727 H 68.1978 -7.18124 3.03179 0
M  V30 728 N 72.4269 -1.23603 -0.977757 0
M  V30 729 C 73.3569 -1.04401 -2.0886 0
M  V30 730 C 74.3379 0.0399052 -1.70053 0
M  V30 731 O 75.5229 -0.125246 -1.93796 0
M  V30 732 C 72.6529 -0.637269 -3.41403 0
M  V30 733 C 71.6069 -1.66883 -3.94124 0
M  V30 734 C 70.9329 -1.11745 -5.22893 0
M  V30 735 C 72.2329 -3.06247 -4.23096 0
M  V30 736 H 73.9269 -1.97316 -2.25182 0
M  V30 737 H 71.4729 -0.950096 -1.08209 0
M  V30 738 H 73.4259 -0.48998 -4.18542 0
M  V30 739 H 72.1499 0.327557 -3.24953 0
M  V30 740 H 70.8089 -1.80416 -3.19133 0
M  V30 741 H 70.4569 -0.143527 -5.02795 0
M  V30 742 H 70.1569 -1.80672 -5.59134 0
M  V30 743 H 71.6809 -0.982067 -6.02651 0
M  V30 744 H 73.0949 -2.96001 -4.90975 0
M  V30 745 H 71.4919 -3.72436 -4.70544 0
M  V30 746 H 72.5619 -3.55041 -3.30263 0
M  V30 747 N 73.905 1.17692 -1.04816 0
M  V30 748 C 75.154 1.87192 -0.751132 0
M  V30 749 C 75.467 1.8169 0.724441 0
M  V30 750 O 76.673 2.46625 1.13527 0
M  V30 751 C 75.129 3.35857 -1.29338 0
M  V30 752 C 74.737 3.4987 -2.79812 0
M  V30 753 C 76.481 4.10709 -1.07322 0
M  V30 754 C 74.388 4.92536 -3.27356 0
M  V30 755 H 73.318 0.701162 -0.277288 0
M  V30 756 H 75.969 1.32932 -1.26496 0
M  V30 757 H 74.351 3.89631 -0.707376 0
M  V30 758 H 75.525 3.06332 -3.44235 0
M  V30 759 H 73.84 2.88433 -3.00325 0
M  V30 760 H 76.437 5.15952 -1.4035 0
M  V30 761 H 76.78 4.16299 -0.0108001 0
M  V30 762 H 77.313 3.6313 -1.62423 0
M  V30 763 H 74.052 4.92119 -4.33012 0
M  V30 764 H 73.572 5.3676 -2.67673 0
M  V30 765 H 75.251 5.61288 -3.21815 0
M  V30 766 N 75.3831 0.828654 1.34056 0
M  V30 767 C 76.6291 0.42008 1.98402 0
M  V30 768 C 76.9621 -1.01564 1.65525 0
M  V30 769 O 76.2371 -1.70834 0.929831 0
M  V30 770 C 76.5201 0.62927 3.54559 0
M  V30 771 C 76.3731 2.11152 3.97159 0
M  V30 772 C 77.6921 0.0688756 4.40046 0
M  V30 773 H 74.8111 0.154104 0.720709 0
M  V30 774 H 77.4531 1.04228 1.5886 0
M  V30 775 H 75.6031 0.0996418 3.88372 0
M  V30 776 H 77.2751 2.70522 3.73651 0
M  V30 777 H 75.5181 2.59985 3.47261 0
M  V30 778 H 76.1891 2.20868 5.05887 0
M  V30 779 H 78.6651 0.521458 4.1282 0
M  V30 780 H 77.5411 0.245006 5.48353 0
M  V30 781 H 77.8021 -1.0266 4.30015 0
M  V30 782 N 76.8612 -1.46375 0.584142 0
M  V30 783 C 77.7712 -2.34115 -0.150728 0
M  V30 784 C 78.7872 -1.49838 -0.884567 0
M  V30 785 O 79.9632 -1.82704 -0.847429 0
M  V30 786 C 77.0282 -3.2705 -1.15062 0
M  V30 787 C 76.0892 -4.27228 -0.421293 0
M  V30 788 C 75.3222 -5.15722 -1.37355 0
M  V30 789 O 75.5452 -5.07176 -2.61014 0
M  V30 790 O 74.4792 -5.95383 -0.883355 0
M  V30 791 H 78.3052 -2.98309 0.569708 0
M  V30 792 H 75.8902 -1.45373 0.344535 0
M  V30 793 H 77.7722 -3.84381 -1.72712 0
M  V30 794 H 76.4472 -2.65451 -1.8525 0
M  V30 795 H 75.3542 -3.7358 0.197085 0
M  V30 796 H 76.6872 -4.91616 0.239641 0
M  V30 797 N 78.3393 -0.321999 -1.54275 0
M  V30 798 C 79.5643 0.285791 -2.05422 0
M  V30 799 C 79.9893 1.45124 -1.19669 0
M  V30 800 O 79.3473 1.80132 -0.205441 0
M  V30 801 C 79.3953 0.69956 -3.53749 0
M  V30 802 O 78.4993 1.8021 -3.70942 0
M  V30 803 H 77.8403 0.0518962 -0.661969 0
M  V30 804 H 80.3703 -0.469954 -1.9913 0
M  V30 805 H 80.3803 0.982649 -3.9599 0
M  V30 806 H 79.0553 -0.152864 -4.15619 0
M  V30 807 H 77.6323 1.51794 -3.40607 0
M  V30 808 N 79.8174 1.5752 -0.0501392 0
M  V30 809 C 81.0644 1.9265 0.623874 0
M  V30 810 C 81.3924 0.928411 1.70912 0
M  V30 811 O 80.6474 -0.0594525 1.9561 0
M  V30 812 C 80.9464 3.34467 1.25963 0
M  V30 813 C 80.6124 4.49883 0.302689 0
M  V30 814 C 79.2744 4.81184 0.0393636 0
M  V30 815 C 81.6264 5.20002 -0.353205 0
M  V30 816 C 78.9544 5.79951 -0.887308 0
M  V30 817 C 81.3064 6.1976 -1.26806 0
M  V30 818 C 79.9704 6.49491 -1.54007 0
M  V30 819 H 79.2404 0.704957 0.228292 0
M  V30 820 H 81.8874 1.91146 -0.116398 0
M  V30 821 H 80.1924 3.32333 2.07514 0
M  V30 822 H 81.8894 3.58928 1.78806 0
M  V30 823 H 78.4794 4.25457 0.518109 0
M  V30 824 H 82.6634 4.96033 -0.162854 0
M  V30 825 H 77.9194 6.01322 -1.10553 0
M  V30 826 H 82.0934 6.73205 -1.78236 0
M  V30 827 H 79.7204 7.25837 -2.25976 0
M  V30 828 N 81.2955 -0.223234 1.56011 0
M  V30 829 C 82.2055 -1.29766 1.95443 0
M  V30 830 C 83.2215 -1.51373 0.858028 0
M  V30 831 O 84.3975 -1.64536 1.16146 0
M  V30 832 C 81.4625 -2.62772 2.26167 0
M  V30 833 C 80.5235 -2.49482 3.49367 0
M  V30 834 C 79.7565 -3.76145 3.78616 0
M  V30 835 O 79.9795 -4.79087 3.09568 0
M  V30 836 O 78.9135 -3.73358 4.72109 0
M  V30 837 H 82.7395 -0.99309 2.87004 0
M  V30 838 H 80.3245 -0.425958 1.43199 0
M  V30 839 H 82.2065 -3.41327 2.47131 0
M  V30 840 H 80.8815 -2.92913 1.37781 0
M  V30 841 H 79.7885 -1.69133 3.33684 0
M  V30 842 H 81.1215 -2.2428 4.38131 0
M  V30 843 N 82.7736 -1.49793 -0.48987 0
M  V30 844 C 83.6836 -1.70036 -1.61632 0
M  V30 845 C 84.6996 -0.583102 -1.63939 0
M  V30 846 O 85.8756 -0.859169 -1.82154 0
M  V30 847 C 82.9406 -1.77277 -2.97949 0
M  V30 848 C 82.0016 -3.00918 -3.06181 0
M  V30 849 C 81.2346 -3.07804 -4.35996 0
M  V30 850 O 81.4576 -2.21982 -5.25433 0
M  V30 851 O 80.3916 -4.00369 -4.49431 0
M  V30 852 H 84.2176 -2.65486 -1.47482 0
M  V30 853 H 81.8026 -1.33666 -0.667362 0
M  V30 854 H 83.6846 -1.84329 -3.78947 0
M  V30 855 H 82.3596 -0.850076 -3.12339 0
M  V30 856 H 81.2666 -2.99377 -2.2433 0
M  V30 857 H 82.5996 -3.92704 -2.96723 0
M  V30 858 N 84.2517 0.741722 -1.39055 0
M  V30 859 C 85.2147 1.83733 -1.37021 0
M  V30 860 C 86.2147 1.58542 -0.268534 0
M  V30 861 O 87.4047 1.66067 -0.526076 0
M  V30 862 C 84.5367 3.2141 -1.13617 0
M  V30 863 H 85.7297 1.86941 -2.34506 0
M  V30 864 H 83.2827 0.944676 -1.24521 0
M  V30 865 H 84.0177 3.23865 -0.167863 0
M  V30 866 H 83.8027 3.4109 -1.93391 0
M  V30 867 H 85.2927 4.01477 -1.14918 0
M  V30 868 N 85.7298 1.2412 0.971189 0
M  V30 869 C 87.1408 1.07236 1.52831 0
M  V30 870 C 87.4918 -0.357352 1.92918 0
M  V30 871 O 86.6168 -1.24528 1.76979 0
M  V30 872 C 87.2118 1.94043 2.77728 0
M  V30 873 C 85.7708 1.81394 3.29808 0
M  V30 874 C 84.9178 1.89189 2.02738 0
M  V30 875 H 87.8688 1.37648 0.789864 0
M  V30 876 H 87.8898 1.47066 3.5093 0
M  V30 877 H 87.4018 2.98093 2.4852 0
M  V30 878 H 85.5028 0.801634 3.63874 0
M  V30 879 H 85.6158 2.65294 3.98944 0
M  V30 880 H 83.9798 1.32877 2.17292 0
M  V30 881 H 84.7628 2.94812 1.759 0
M  V30 882 N 87.2079 -1.17134 1.05439 0
M  V30 883 C 88.1379 -2.2342 0.678649 0
M  V30 884 C 89.1189 -1.66971 -0.32476 0
M  V30 885 O 90.3039 -1.93149 -0.201802 0
M  V30 886 C 87.4339 -3.47256 0.0552099 0
M  V30 887 C 86.3879 -4.16543 0.98365 0
M  V30 888 C 85.7139 -5.34231 0.223961 0
M  V30 889 C 87.0139 -4.68495 2.3089 0
M  V30 890 H 88.7079 -2.55105 1.56722 0
M  V30 891 H 86.2539 -1.2262 0.754998 0
M  V30 892 H 88.2069 -4.20828 -0.21946 0
M  V30 893 H 86.9309 -3.14846 -0.868319 0
M  V30 894 H 85.5899 -3.44887 1.24293 0
M  V30 895 H 85.2379 -4.98071 -0.702412 0
M  V30 896 H 84.9379 -5.81527 0.842627 0
M  V30 897 H 86.4619 -6.10585 -0.0433671 0
M  V30 898 H 87.8759 -5.33691 2.09396 0
M  V30 899 H 86.2729 -5.26379 2.88176 0
M  V30 900 H 87.3429 -3.85169 2.94572 0
M  V30 901 N 88.686 -0.835752 -1.33615 0
M  V30 902 C 89.636 -0.238856 -2.26745 0
M  V30 903 C 90.62 0.604343 -1.49119 0
M  V30 904 O 91.812 0.456822 -1.71003 0
M  V30 905 C 88.941 0.587725 -3.38232 0
M  V30 906 C 88.027 -0.266811 -4.2326 0
M  V30 907 N 88.418 -1.34403 -4.87616 0
M  V30 908 C 86.716 -0.0533131 -4.45968 0
M  V30 909 C 87.417 -1.86819 -5.50884 0
M  V30 910 N 86.393 -1.17013 -5.30857 0
M  V30 911 H 90.195 -1.06266 -2.74016 0
M  V30 912 H 87.709 -0.679881 -1.47483 0
M  V30 913 H 89.706 1.03161 -4.03935 0
M  V30 914 H 88.366 1.40954 -2.9251 0
M  V30 915 H 89.377 -1.7269 -4.88261 0
M  V30 916 H 86.054 0.735312 -4.10974 0
M  V30 917 H 87.444 -2.7701 -6.1214 0
M  V30 918 N 90.1641 1.46063 -0.591896 0
M  V30 919 C 91.4101 2.02638 -0.0811191 0
M  V30 920 C 91.7431 1.4613 1.27905 0
M  V30 921 O 91.0181 0.629908 1.84017 0
M  V30 922 C 91.3011 3.60091 -0.0252436 0
M  V30 923 C 91.1541 4.26965 -1.41496 0
M  V30 924 C 92.4731 4.3496 0.670685 0
M  V30 925 H 89.5921 0.73635 -0.0309524 0
M  V30 926 H 92.2341 1.741 -0.760859 0
M  V30 927 H 90.3841 3.84535 0.553624 0
M  V30 928 H 92.0561 4.13756 -2.0397 0
M  V30 929 H 90.2991 3.85971 -1.98011 0
M  V30 930 H 90.9701 5.35781 -1.32825 0
M  V30 931 H 93.4461 4.15716 0.178825 0
M  V30 932 H 92.3221 5.44686 0.678837 0
M  V30 933 H 92.5831 4.06685 1.73379 0
M  V30 934 N 91.6422 0.330177 1.54103 0
M  V30 935 C 92.5752 -0.575477 2.20825 0
M  V30 936 C 93.5532 -1.11064 1.18758 0
M  V30 937 O 94.7372 -1.17341 1.47524 0
M  V30 938 C 91.8642 -1.79032 2.87516 0
M  V30 939 C 90.9102 -1.38581 4.03358 0
M  V30 940 S 91.7432 -0.416911 5.33875 0
M  V30 941 C 92.8992 -1.63889 6.04062 0
M  V30 942 H 93.1322 -0.00872114 2.97299 0
M  V30 943 H 90.6652 0.114254 1.53977 0
M  V30 944 H 92.6232 -2.48734 3.2656 0
M  V30 945 H 91.2842 -2.32827 2.10832 0
M  V30 946 H 90.4772 -2.29123 4.48908 0
M  V30 947 H 90.0792 -0.768419 3.66021 0
M  V30 948 H 92.3712 -2.57536 6.26643 0
M  V30 949 H 93.3142 -1.22542 6.97416 0
M  V30 950 H 93.7222 -1.82887 5.34053 0
M  V30 951 N 93.1203 -1.57491 0.0584922 0
M  V30 952 C 94.3663 -1.93264 -0.614558 0
M  V30 953 C 94.6993 -0.937717 -1.7006 0
M  V30 954 O 93.9743 0.0351652 -1.94468 0
M  V30 955 C 94.2573 -3.3938 -1.20386 0
M  V30 956 C 94.1103 -4.49625 -0.125375 0
M  V30 957 C 95.4293 -3.86039 -2.11334 0
M  V30 958 H 92.5483 -0.702791 -0.221933 0
M  V30 959 H 95.1903 -1.8961 0.12175 0
M  V30 960 H 93.3403 -3.42626 -1.83139 0
M  V30 961 H 95.0123 -4.58506 0.506971 0
M  V30 962 H 93.2553 -4.30354 0.545672 0
M  V30 963 H 93.9263 -5.48967 -0.577861 0
M  V30 964 H 96.4023 -3.84716 -1.58534 0
M  V30 965 H 95.2783 -4.88914 -2.49507 0
M  V30 966 H 95.5393 -3.23215 -3.01636 0
M  V30 967 N 94.5984 0.214957 -1.56127 0
M  V30 968 C 95.8454 0.938372 -1.79446 0
M  V30 969 C 96.1734 1.8407 -0.628378 0
M  V30 970 O 95.4284 1.91837 0.386925 0
M  V30 971 C 95.7274 1.80314 -3.0858 0
M  V30 972 C 95.3934 1.05349 -4.3842 0
M  V30 973 C 94.0554 0.846435 -4.73697 0
M  V30 974 C 96.4074 0.524588 -5.18553 0
M  V30 975 C 93.7354 0.098683 -5.86617 0
M  V30 976 C 96.0874 -0.209853 -6.32252 0
M  V30 977 C 94.7514 -0.428102 -6.66126 0
M  V30 978 H 94.0214 0.343375 -0.656639 0
M  V30 979 H 96.6684 0.206077 -1.90388 0
M  V30 980 H 94.9734 2.6035 -2.92789 0
M  V30 981 H 96.6704 2.36513 -3.23825 0
M  V30 982 H 93.2604 1.22486 -4.10725 0
M  V30 983 H 97.4444 0.672008 -4.91729 0
M  V30 984 H 92.7004 -0.0805753 -6.11347 0
M  V30 985 H 96.8744 -0.627157 -6.9357 0
M  V30 986 H 94.5014 -1.00944 -7.53468 0
M  V30 987 N 96.0765 1.50051 0.48192 0
M  V30 988 C 97.3045 1.64237 1.25832 0
M  V30 989 C 97.7195 0.321336 1.86045 0
M  V30 990 O 97.0765 -0.695478 1.68729 0
M  V30 991 C 97.1275 2.72548 2.37487 0
M  V30 992 O 96.8485 3.99529 1.79745 0
M  V30 993 C 98.3495 2.9761 3.28547 0
M  V30 994 H 95.5695 0.55237 0.380957 0
M  V30 995 H 98.1135 1.96207 0.576467 0
M  V30 996 H 96.2685 2.43303 3.01467 0
M  V30 997 H 96.6825 4.59342 2.5319 0
M  V30 998 H 98.1565 3.77084 4.03127 0
M  V30 999 H 98.6335 2.0826 3.86684 0
M  V30 1000 H 99.2395 3.28345 2.70314 0
M  V30 1001 N 97.5546 -0.734337 1.39446 0
M  V30 1002 C 98.7846 -1.52137 1.39778 0
M  V30 1003 C 99.1926 -1.89198 -0.00929312 0
M  V30 1004 O 98.5356 -1.54666 -0.991168 0
M  V30 1005 C 98.5976 -2.83762 2.20724 0
M  V30 1006 C 98.2616 -2.69131 3.69347 0
M  V30 1007 C 99.2586 -2.37635 4.62413 0
M  V30 1008 C 96.9436 -2.85982 4.1294 0
M  V30 1009 C 98.9376 -2.23172 5.97054 0
M  V30 1010 C 96.6246 -2.71137 5.47657 0
M  V30 1011 C 97.6226 -2.39777 6.39528 0
M  V30 1012 O 97.3106 -2.25026 7.71763 0
M  V30 1013 H 97.0426 -0.476717 0.479288 0
M  V30 1014 H 99.5966 -0.915012 1.83893 0
M  V30 1015 H 97.8266 -3.4666 1.71359 0
M  V30 1016 H 99.5156 -3.45383 2.13226 0
M  V30 1017 H 100.282 -2.24267 4.30034 0
M  V30 1018 H 96.1606 -3.09383 3.41765 0
M  V30 1019 H 99.7046 -1.98617 6.68728 0
M  V30 1020 H 95.6016 -2.84083 5.79626 0
M  V30 1021 H 96.3696 -2.40091 7.82495 0
M  V30 1022 N 99.0327 -1.24633 -0.964593 0
M  V30 1023 C 99.9657 -0.984662 -2.05863 0
M  V30 1024 C 100.944 0.0826554 -1.6239 0
M  V30 1025 O 102.128 -0.0549296 -1.8842 0
M  V30 1026 C 99.2547 -0.486529 -3.35187 0
M  V30 1027 C 98.3007 -1.54286 -3.97615 0
M  V30 1028 S 99.1337 -3.12513 -4.34851 0
M  V30 1029 C 100.29 -2.6441 -5.67308 0
M  V30 1030 H 100.523 -1.91104 -2.27743 0
M  V30 1031 H 98.0557 -1.08052 -1.10291 0
M  V30 1032 H 100.014 -0.205757 -4.09984 0
M  V30 1033 H 98.6747 0.419186 -3.1129 0
M  V30 1034 H 97.8677 -1.14481 -4.90826 0
M  V30 1035 H 97.4697 -1.7738 -3.2926 0
M  V30 1036 H 99.7617 -2.07416 -6.44969 0
M  V30 1037 H 100.705 -3.56222 -6.11973 0
M  V30 1038 H 101.113 -2.04734 -5.26065 0
M  V30 1039 N 100.511 1.16574 -1.06058 0
M  V30 1040 C 101.759 1.86677 -0.77434 0
M  V30 1041 C 102.08 1.81959 0.701147 0
M  V30 1042 O 101.35 1.2515 1.50713 0
M  V30 1043 H 99.9298 0.691134 -0.283449 0
M  V30 1044 H 102.592 1.41378 -1.34158 0
M  V30 1045 H 101.688 2.92181 -1.09711 0
M  V30 1046 N 101.989 0.842826 1.3317 0
M  V30 1047 C 103.219 0.453397 2.01564 0
M  V30 1048 C 103.627 -0.951147 1.63554 0
M  V30 1049 O 102.97 -1.63021 0.846746 0
M  V30 1050 C 103.032 0.499013 3.5602 0
M  V30 1051 C 102.696 1.86037 4.1742 0
M  V30 1052 C 103.693 2.82416 4.36506 0
M  V30 1053 C 101.378 2.15428 4.53757 0
M  V30 1054 C 103.372 4.06346 4.91082 0
M  V30 1055 C 101.059 3.39615 5.0804 0
M  V30 1056 C 102.057 4.3489 5.26649 0
M  V30 1057 O 101.745 5.5688 5.79776 0
M  V30 1058 H 101.477 0.177871 0.652179 0
M  V30 1059 H 104.031 1.13808 1.70988 0
M  V30 1060 H 102.261 -0.242467 3.85939 0
M  V30 1061 H 103.95 0.126852 4.05702 0
M  V30 1062 H 104.716 2.6101 4.08777 0
M  V30 1063 H 100.595 1.42061 4.38565 0
M  V30 1064 H 104.139 4.80722 5.05522 0
M  V30 1065 H 100.036 3.60876 5.352 0
M  V30 1066 H 100.804 5.58674 5.98185 0
M  V30 1067 N 103.467 -1.45747 0.599634 0
M  V30 1068 C 104.715 -2.01893 0.0915472 0
M  V30 1069 C 105.036 -1.47155 -1.27946 0
M  V30 1070 O 104.306 -0.66273 -1.84349 0
M  V30 1071 H 102.886 -0.746363 0.0308524 0
M  V30 1072 H 105.548 -1.78645 0.779237 0
M  V30 1073 H 104.644 -3.1208 0.0353086 0
M  V30 1074 N 104.945 -0.338344 -1.53925 0
M  V30 1075 C 106.194 0.260732 -2.00008 0
M  V30 1076 C 106.507 1.52073 -1.23017 0
M  V30 1077 O 107.713 2.19672 -1.5955 0
M  V30 1078 C 106.169 0.51515 -3.56194 0
M  V30 1079 C 105.777 -0.728645 -4.42035 0
M  V30 1080 C 107.521 1.07337 -4.10706 0
M  V30 1081 C 105.428 -0.445315 -5.89721 0
M  V30 1082 H 104.358 0.101205 -0.747177 0
M  V30 1083 H 107.009 -0.452866 -1.77824 0
M  V30 1084 H 105.391 1.28932 -3.74423 0
M  V30 1085 H 106.565 -1.50352 -4.35581 0
M  V30 1086 H 104.88 -1.20813 -3.98489 0
M  V30 1087 H 107.477 1.30022 -5.18651 0
M  V30 1088 H 107.82 2.0273 -3.63602 0
M  V30 1089 H 108.353 0.360034 -3.96167 0
M  V30 1090 H 105.092 -1.36883 -6.41049 0
M  V30 1091 H 104.612 0.291569 -5.99091 0
M  V30 1092 H 106.291 -0.0606218 -6.46972 0
M  V30 1093 N 106.423 1.57458 -0.0668435 0
M  V30 1094 C 107.671 1.92919 0.602214 0
M  V30 1095 C 107.992 0.947215 1.70449 0
M  V30 1096 O 107.262 -0.00544117 1.95899 0
M  V30 1097 H 105.842 0.71217 0.22544 0
M  V30 1098 H 108.504 1.94508 -0.123535 0
M  V30 1099 H 107.6 2.94589 1.03073 0
M  V30 1100 N 107.901 -0.206675 1.56239 0
M  V30 1101 C 109.129 -0.945345 1.8404 0
M  V30 1102 C 109.544 -1.77336 0.647885 0
M  V30 1103 O 108.901 -1.78425 -0.383511 0
M  V30 1104 C 108.952 -1.8509 3.10522 0
M  V30 1105 O 108.673 -1.05634 4.25174 0
M  V30 1106 C 110.174 -2.70222 3.51418 0
M  V30 1107 H 107.394 -0.276372 0.61144 0
M  V30 1108 H 109.938 -0.217417 2.03341 0
M  V30 1109 H 108.093 -2.53259 2.93153 0
M  V30 1110 H 108.507 -1.67238 4.97124 0
M  V30 1111 H 109.981 -3.29438 4.42916 0
M  V30 1112 H 110.458 -3.43358 2.73864 0
M  V30 1113 H 111.064 -2.07443 3.71278 0
M  V30 1114 N 109.379 -1.50304 -0.473955 0
M  V30 1115 C 110.309 -1.71886 -1.58042 0
M  V30 1116 C 111.29 -0.567799 -1.60344 0
M  V30 1117 O 112.475 -0.806623 -1.76656 0
M  V30 1118 C 109.605 -1.81036 -2.96384 0
M  V30 1119 C 108.559 -2.962 -3.08949 0
M  V30 1120 C 107.885 -2.9049 -4.48909 0
M  V30 1121 C 109.185 -4.36752 -2.86434 0
M  V30 1122 H 110.879 -2.64527 -1.40234 0
M  V30 1123 H 108.425 -1.27295 -0.673201 0
M  V30 1124 H 110.378 -1.94719 -3.73714 0
M  V30 1125 H 109.102 -0.850147 -3.15341 0
M  V30 1126 H 107.761 -2.82164 -2.3405 0
M  V30 1127 H 107.409 -1.92321 -4.64781 0
M  V30 1128 H 107.109 -3.67802 -4.58253 0
M  V30 1129 H 108.633 -3.06218 -5.28264 0
M  V30 1130 H 110.047 -4.5133 -3.53517 0
M  V30 1131 H 108.444 -5.15493 -3.07225 0
M  V30 1132 H 109.514 -4.49321 -1.82316 0
M  V30 1133 N 110.857 0.726932 -1.39834 0
M  V30 1134 C 112.104 1.48664 -1.37496 0
M  V30 1135 C 112.432 1.94482 0.0264678 0
M  V30 1136 O 111.687 1.67692 1.00886 0
M  V30 1137 C 111.986 2.73495 -2.30077 0
M  V30 1138 C 111.652 2.46502 -3.77555 0
M  V30 1139 C 110.314 2.3885 -4.17737 0
M  V30 1140 C 112.666 2.23604 -4.70798 0
M  V30 1141 C 109.994 2.06352 -5.49214 0
M  V30 1142 C 112.346 1.92622 -6.02561 0
M  V30 1143 C 111.01 1.83444 -6.41798 0
M  V30 1144 H 110.28 0.544001 -0.503135 0
M  V30 1145 H 112.927 0.833657 -1.72402 0
M  V30 1146 H 111.232 3.43575 -1.88317 0
M  V30 1147 H 112.929 3.31549 -2.25558 0
M  V30 1148 H 109.519 2.5334 -3.45712 0
M  V30 1149 H 113.703 2.28479 -4.40581 0
M  V30 1150 H 108.959 1.97776 -5.78528 0
M  V30 1151 H 113.133 1.73914 -6.74334 0
M  V30 1152 H 110.76 1.58029 -7.43593 0
M  V30 1153 N 112.336 1.25143 0.95797 0
M  V30 1154 C 113.584 1.09476 1.69881 0
M  V30 1155 C 113.905 -0.365502 1.91544 0
M  V30 1156 O 113.175 -1.25985 1.50015 0
M  V30 1157 H 111.755 0.402128 0.629525 0
M  V30 1158 H 114.417 1.57214 1.15194 0
M  V30 1159 H 113.513 1.60046 2.6794 0
M  V30 1160 N 113.814 -1.1601 1.06675 0
M  V30 1161 C 115.044 -1.90251 0.805497 0
M  V30 1162 C 115.452 -1.77891 -0.64431 0
M  V30 1163 O 114.795 -1.12383 -1.45313 0
M  V30 1164 C 114.857 -3.41419 1.12576 0
M  V30 1165 C 114.521 -3.77564 2.57477 0
M  V30 1166 C 115.518 -3.79161 3.55715 0
M  V30 1167 C 113.203 -4.08079 2.92877 0
M  V30 1168 C 115.197 -4.10767 4.8739 0
M  V30 1169 C 112.884 -4.39351 4.24751 0
M  V30 1170 C 113.882 -4.40675 5.21818 0
M  V30 1171 O 113.57 -4.71202 6.51325 0
M  V30 1172 H 113.302 -0.610018 0.291297 0
M  V30 1173 H 115.856 -1.47958 1.4247 0
M  V30 1174 H 114.086 -3.84079 0.449503 0
M  V30 1175 H 115.775 -3.9694 0.84814 0
M  V30 1176 H 116.541 -3.55693 3.29708 0
M  V30 1177 H 112.42 -4.06211 2.17976 0
M  V30 1178 H 115.964 -4.11715 5.63148 0
M  V30 1179 H 111.861 -4.62285 4.50514 0
M  V30 1180 H 112.629 -4.88996 6.56373 0
M  V30 1181 N 115.292 -0.849877 -1.32721 0
M  V30 1182 C 116.222 -0.306308 -2.31482 0
M  V30 1183 C 117.203 0.591952 -1.59468 0
M  V30 1184 O 118.388 0.513199 -1.87296 0
M  V30 1185 C 115.518 0.510204 -3.43532 0
M  V30 1186 C 114.472 -0.293209 -4.26994 0
M  V30 1187 C 113.798 0.647743 -5.30762 0
M  V30 1188 C 115.098 -1.51634 -4.99804 0
M  V30 1189 H 116.792 -1.13153 -2.77195 0
M  V30 1190 H 114.338 -0.545553 -1.33266 0
M  V30 1191 H 116.291 0.900856 -4.11658 0
M  V30 1192 H 115.015 1.36874 -2.96535 0
M  V30 1193 H 113.674 -0.665555 -3.60508 0
M  V30 1194 H 113.322 1.50299 -4.8002 0
M  V30 1195 H 113.022 0.11422 -5.87489 0
M  V30 1196 H 114.546 1.03567 -6.01753 0
M  V30 1197 H 115.96 -1.19824 -5.60638 0
M  V30 1198 H 114.357 -1.98745 -5.66234 0
M  V30 1199 H 115.427 -2.28018 -4.27943 0
M  V30 1200 N 116.77 1.45427 -0.607355 0
M  V30 1201 C 118.186 1.57283 -0.270985 0
M  V30 1202 C 118.386 1.59875 1.22647 0
M  V30 1203 O 117.442 1.52893 2.00948 0
M  V30 1204 C 118.755 2.85566 -0.941952 0
M  V30 1205 C 120.303 2.9924 -0.917849 0
M  V30 1206 C 120.778 4.30293 -1.56882 0
M  V30 1207 N 122.269 4.37051 -1.5343 0
M  V30 1208 C 123.004 5.37123 -2.00715 0
M  V30 1209 N 122.5 6.43734 -2.56084 0
M  V30 1210 N 124.293 5.28479 -1.91484 0
M  V30 1211 H 116.444 1.41988 -1.57966 0
M  V30 1212 H 118.707 0.67885 -0.661715 0
M  V30 1213 H 118.413 2.8955 -1.99633 0
M  V30 1214 H 118.287 3.74322 -0.465096 0
M  V30 1215 H 120.674 2.94822 0.127984 0
M  V30 1216 H 120.755 2.11895 -1.43297 0
M  V30 1217 H 120.399 4.35469 -2.61398 0
M  V30 1218 H 120.329 5.16454 -1.02873 0
M  V30 1219 H 122.82 3.60615 -1.12982 0
M  V30 1220 H 123.133 7.16341 -2.89958 0
M  V30 1221 H 121.478 6.44485 -2.60122 0
M  V30 1222 H 124.669 4.44098 -1.47967 0
M  V30 1223 H 124.842 6.0632 -2.28648 0
M  V30 1224 N 118.248 0.346503 1.53744 0
M  V30 1225 C 119.525 -0.304532 1.93215 0
M  V30 1226 C 119.905 -1.67993 1.27834 0
M  V30 1227 O 119.253 -2.24411 0.430352 0
M  V30 1228 C 119.463 -0.373852 3.46992 0
M  V30 1229 C 120.811 -0.62329 4.2 0
M  V30 1230 O 121.835 -0.455847 3.53271 0
M  V30 1231 O 120.694 -0.947879 5.38217 0
M  V30 1232 H 117.788 -0.178318 0.807547 0
M  V30 1233 H 120.334 0.397895 1.64969 0
M  V30 1234 H 119.106 0.591224 3.86808 0
M  V30 1235 H 118.729 -1.12294 3.81413 0
M  V30 1236 N 119.726 -1.57421 0.075193 0
M  V30 1237 C 120.973 -1.93618 -0.593146 0
M  V30 1238 C 121.301 -0.955484 -1.69413 0
M  V30 1239 O 120.556 0.0283251 -1.9568 0
M  V30 1240 C 120.855 -3.36428 -1.20626 0
M  V30 1241 C 120.521 -4.50307 -0.231078 0
M  V30 1242 C 119.183 -4.81186 0.0371936 0
M  V30 1243 C 121.535 -5.19374 0.435888 0
M  V30 1244 C 118.863 -5.78466 0.979461 0
M  V30 1245 C 121.215 -6.17665 1.3665 0
M  V30 1246 C 119.879 -6.46958 1.6432 0
M  V30 1247 H 119.149 -0.708499 -0.217047 0
M  V30 1248 H 121.796 -1.90937 0.146793 0
M  V30 1249 H 120.101 -3.35592 -2.02201 0
M  V30 1250 H 121.798 -3.61727 -1.73073 0
M  V30 1251 H 118.388 -4.26227 -0.450357 0
M  V30 1252 H 122.572 -4.95711 0.241748 0
M  V30 1253 H 117.828 -5.99487 1.20106 0
M  V30 1254 H 122.002 -6.70284 1.88924 0
M  V30 1255 H 119.629 -7.2215 2.37494 0
M  V30 1256 N 121.204 0.198386 -1.56346 0
M  V30 1257 C 122.134 1.24865 -1.9731 0
M  V30 1258 C 123.115 1.47651 -0.844576 0
M  V30 1259 O 124.3 1.59444 -1.10866 0
M  V30 1260 C 121.43 2.59358 -2.30977 0
M  V30 1261 C 120.384 2.5119 -3.46537 0
M  V30 1262 C 119.71 3.89926 -3.65871 0
M  V30 1263 C 121.01 2.03977 -4.80823 0
M  V30 1264 H 122.704 0.908252 -2.85291 0
M  V30 1265 H 120.25 0.435462 -1.37258 0
M  V30 1266 H 122.203 3.33011 -2.58228 0
M  V30 1267 H 120.927 2.95132 -1.39874 0
M  V30 1268 H 119.586 1.79993 -3.19371 0
M  V30 1269 H 119.234 4.23046 -2.72105 0
M  V30 1270 H 118.934 3.85336 -4.4361 0
M  V30 1271 H 120.458 4.65205 -3.95495 0
M  V30 1272 H 121.872 2.67386 -5.07127 0
M  V30 1273 H 120.269 2.10397 -5.62008 0
M  V30 1274 H 121.339 0.992861 -4.74626 0
M  V30 1275 N 122.682 1.50554 0.465978 0
M  V30 1276 C 124.098 1.38093 0.800154 0
M  V30 1277 C 124.298 0.440988 1.96615 0
M  V30 1278 O 123.354 -0.114499 2.5224 0
M  V30 1279 C 124.667 2.79565 1.10742 0
M  V30 1280 C 126.215 2.88516 1.21357 0
M  V30 1281 C 126.69 4.30833 1.55393 0
M  V30 1282 N 128.181 4.33807 1.62375 0
M  V30 1283 C 128.916 5.40927 1.90225 0
M  V30 1284 N 128.412 6.58247 2.16062 0
M  V30 1285 N 130.205 5.28376 1.9177 0
M  V30 1286 H 122.356 2.10237 -0.302366 0
M  V30 1287 H 124.619 0.945203 -0.0727746 0
M  V30 1288 H 124.325 3.50208 0.323661 0
M  V30 1289 H 124.199 3.17125 2.04234 0
M  V30 1290 H 126.586 2.1809 1.98799 0
M  V30 1291 H 126.667 2.54492 0.258321 0
M  V30 1292 H 126.311 5.01799 0.784889 0
M  V30 1293 H 126.241 4.62347 2.52076 0
M  V30 1294 H 128.732 3.49212 1.44427 0
M  V30 1295 H 129.045 7.3569 2.36601 0
M  V30 1296 H 127.39 6.61413 2.13444 0
M  V30 1297 H 130.581 4.35715 1.71085 0
M  V30 1298 H 130.754 6.11944 2.13139 0
M  V30 1299 N 124.16 -0.719506 1.40217 0
M  V30 1300 C 125.108 -1.85493 1.40339 0
M  V30 1301 C 126.102 -1.66995 0.284415 0
M  V30 1302 O 127.308 -1.74148 0.455252 0
M  V30 1303 H 123.683 -0.610857 0.438586 0
M  V30 1304 H 125.654 -1.82506 2.36081 0
M  V30 1305 C 124.403 -3.23321 1.27901 0
M  V30 1306 H 123.726 -3.38159 2.1328 0
M  V30 1307 H 125.166 -4.02914 1.32045 0
M  V30 1308 C 123.625 -3.36898 -0.0111355 0
M  V30 1309 O 124.155 -3.89674 -0.975538 0
M  V30 1310 N 122.361 -2.90492 -0.0793393 0
M  V30 1311 H 121.908 -2.47731 0.706183 0
M  V30 1312 H 121.866 -2.99955 -0.942038 0
M  V30 1313 N 125.638 -1.25649 -0.95132 0
M  V30 1314 C 126.884 -1.11766 -1.69941 0
M  V30 1315 C 127.239 0.33735 -1.89419 0
M  V30 1316 O 126.532 1.24491 -1.45645 0
M  V30 1317 C 126.726 -1.80909 -3.08231 0
M  V30 1318 C 126.555 -3.32984 -3.02245 0
M  V30 1319 C 125.325 -4.02247 -3.05819 0
M  V30 1320 C 127.523 -4.29332 -2.83157 0
M  V30 1321 N 125.505 -5.41072 -2.90024 0
M  V30 1322 C 126.876 -5.55265 -2.75828 0
M  V30 1323 C 128.931 -4.19707 -2.67863 0
M  V30 1324 C 127.634 -6.72671 -2.54767 0
M  V30 1325 C 129.66 -5.36809 -2.48173 0
M  V30 1326 C 129.022 -6.61683 -2.41567 0
M  V30 1327 H 125.121 -0.463708 -0.629682 0
M  V30 1328 H 127.705 -1.58796 -1.12659 0
M  V30 1329 H 125.876 -1.36369 -3.63673 0
M  V30 1330 H 127.608 -1.59739 -3.71841 0
M  V30 1331 H 124.363 -3.53531 -3.15139 0
M  V30 1332 H 124.787 -6.13938 -2.85323 0
M  V30 1333 H 129.429 -3.23907 -2.71743 0
M  V30 1334 H 127.147 -7.68577 -2.49629 0
M  V30 1335 H 130.733 -5.31224 -2.37259 0
M  V30 1336 H 129.613 -7.50768 -2.26531 0
M  V30 1337 N 127.117 1.15442 -1.07289 0
M  V30 1338 C 128.365 1.85845 -0.794096 0
M  V30 1339 C 128.686 1.82692 0.681809 0
M  V30 1340 O 127.956 1.26741 1.49377 0
M  V30 1341 H 126.536 0.688089 -0.290763 0
M  V30 1342 H 129.198 1.39947 -1.3565 0
M  V30 1343 H 128.294 2.91001 -1.12804 0
M  V30 1344 N 128.595 0.856903 1.32268 0
M  V30 1345 C 129.844 0.457599 1.96441 0
M  V30 1346 C 130.157 -0.992426 1.68553 0
M  V30 1347 O 131.363 -1.49727 2.26482 0
M  V30 1348 C 129.819 0.767358 3.51624 0
M  V30 1349 C 129.427 2.23326 3.88367 0
M  V30 1350 C 131.171 0.435887 4.22256 0
M  V30 1351 C 129.078 2.48613 5.36606 0
M  V30 1352 H 128.008 0.167387 0.735185 0
M  V30 1353 H 130.659 1.048 1.5063 0
M  V30 1354 H 129.041 0.106367 3.95857 0
M  V30 1355 H 130.215 2.93623 3.55137 0
M  V30 1356 H 128.53 2.52948 3.30766 0
M  V30 1357 H 131.127 0.602202 5.31298 0
M  V30 1358 H 131.47 -0.622672 4.11617 0
M  V30 1359 H 132.003 1.05286 3.83614 0
M  V30 1360 H 128.742 3.53101 5.52268 0
M  V30 1361 H 128.262 1.82896 5.71235 0
M  V30 1362 H 129.941 2.32676 6.03714 0
M  V30 1363 N 130.073 -1.45103 0.615059 0
M  V30 1364 C 130.983 -2.34382 -0.101034 0
M  V30 1365 C 131.999 -1.51681 -0.852585 0
M  V30 1366 O 133.175 -1.8446 -0.808484 0
M  V30 1367 C 130.24 -3.29417 -1.08099 0
M  V30 1368 C 129.301 -4.28025 -0.330577 0
M  V30 1369 C 128.534 -5.1852 -1.26385 0
M  V30 1370 O 128.757 -5.12598 -2.50198 0
M  V30 1371 O 127.691 -5.97122 -0.756866 0
M  V30 1372 H 131.517 -2.97033 0.632855 0
M  V30 1373 H 129.102 -1.4461 0.375293 0
M  V30 1374 H 130.984 -3.87958 -1.6452 0
M  V30 1375 H 129.659 -2.69321 -1.79577 0
M  V30 1376 H 128.566 -3.73078 0.276283 0
M  V30 1377 H 129.899 -4.90997 0.343866 0
M  V30 1378 N 131.551 -0.354651 -1.53558 0
M  V30 1379 C 132.498 0.496968 -2.25386 0
M  V30 1380 C 133.468 1.0865 -1.25636 0
M  V30 1381 O 134.653 1.12104 -1.54394 0
M  V30 1382 C 131.793 1.63637 -3.03837 0
M  V30 1383 C 130.906 1.07307 -4.18461 0
M  V30 1384 C 130.041 2.18068 -4.84376 0
M  V30 1385 C 129.08 1.59147 -5.91049 0
M  V30 1386 N 128.217 2.63695 -6.50699 0
M  V30 1387 H 133.057 -0.122075 -2.9775 0
M  V30 1388 H 130.594 -0.0720154 -1.46924 0
M  V30 1389 H 132.552 2.30734 -3.47589 0
M  V30 1390 H 131.182 2.22623 -2.33749 0
M  V30 1391 H 130.234 0.292708 -3.79272 0
M  V30 1392 H 131.546 0.602193 -4.95152 0
M  V30 1393 H 130.7 2.93007 -5.31255 0
M  V30 1394 H 129.439 2.68504 -4.07133 0
M  V30 1395 H 128.444 0.827175 -5.43542 0
M  V30 1396 H 129.669 1.09549 -6.70206 0
M  V30 1397 H 127.615 3.13365 -5.76315 0
M  V30 1398 H 127.532 2.21263 -7.22896 0
M  V30 1399 H 128.8 3.3837 -7.02229 0
M  V30 1400 N 133.029 1.57378 -0.0835403 0
M  V30 1401 C 134.269 1.95808 0.586381 0
M  V30 1402 C 134.633 0.963706 1.66062 0
M  V30 1403 O 135.834 1.23608 2.38693 0
M  V30 1404 C 134.105 3.38808 1.13771 0
M  V30 1405 S 135.664 3.99225 1.82112 0
M  V30 1406 H 132.482 0.684675 0.191679 0
M  V30 1407 H 135.084 1.94843 -0.160194 0
M  V30 1408 H 133.788 4.08954 0.344197 0
M  V30 1409 H 133.319 3.43344 1.92038 0
M  V30 1410 H 135.334 3.87087 3.10449 0
M  V30 1411 N 134.507 -0.190092 1.56449 0
M  V30 1412 C 135.455 -1.25501 1.95837 0
M  V30 1413 C 136.449 -1.4685 0.844485 0
M  V30 1414 O 137.655 -1.47651 1.02952 0
M  V30 1415 H 134.03 -0.421447 0.622805 0
M  V30 1416 H 136.001 -0.895821 2.84636 0
M  V30 1417 C 134.75 -2.59124 2.31841 0
M  V30 1418 H 134.073 -2.43514 3.17082 0
M  V30 1419 H 135.513 -3.32371 2.6326 0
M  V30 1420 C 133.972 -3.16488 1.15486 0
M  V30 1421 O 134.502 -3.99365 0.432535 0
M  V30 1422 N 132.708 -2.75305 0.930349 0
M  V30 1423 H 132.255 -2.08013 1.51948 0
M  V30 1424 H 132.213 -3.14024 0.153634 0
M  V30 1425 N 135.985 -1.50799 -0.457987 0
M  V30 1426 C 136.948 -1.7005 -1.53674 0
M  V30 1427 C 137.948 -0.570881 -1.50325 0
M  V30 1428 O 139.138 -0.838126 -1.52712 0
M  V30 1429 C 136.27 -1.73788 -2.93276 0
M  V30 1430 H 137.463 -2.66306 -1.37917 0
M  V30 1431 H 135.016 -1.40477 -0.685271 0
M  V30 1432 H 135.751 -0.792717 -3.14462 0
M  V30 1433 H 135.536 -2.55864 -2.97113 0
M  V30 1434 H 137.026 -1.90591 -3.71571 0
M  V30 1435 N 137.463 0.71206 -1.40597 0
M  V30 1436 C 138.426 1.80785 -1.40888 0
M  V30 1437 C 139.426 1.57937 -0.302103 0
M  V30 1438 O 140.616 1.64913 -0.561182 0
M  V30 1439 C 137.748 3.18927 -1.20409 0
M  V30 1440 H 138.941 1.81924 -2.38419 0
M  V30 1441 H 136.494 0.91805 -1.26497 0
M  V30 1442 H 137.229 3.23436 -0.236522 0
M  V30 1443 H 137.014 3.36911 -2.00582 0
M  V30 1444 H 138.504 3.98949 -1.23408 0
M  V30 1445 N 138.941 1.26152 0.944643 0
M  V30 1446 C 140.187 1.11657 1.69294 0
M  V30 1447 C 140.52 -0.339926 1.91202 0
M  V30 1448 O 139.795 -1.24994 1.49019 0
M  V30 1449 C 140.078 1.88236 3.06984 0
M  V30 1450 C 139.931 3.41772 2.92424 0
M  V30 1451 C 141.25 1.67343 4.07043 0
M  V30 1452 H 138.369 0.407004 0.614424 0
M  V30 1453 H 141.011 1.55106 1.09737 0
M  V30 1454 H 139.161 1.51308 3.57824 0
M  V30 1455 H 140.833 3.88433 2.48832 0
M  V30 1456 H 139.076 3.68974 2.28124 0
M  V30 1457 H 139.747 3.90579 3.90067 0
M  V30 1458 H 142.223 1.99509 3.65151 0
M  V30 1459 H 141.099 2.23346 5.01406 0
M  V30 1460 H 141.36 0.617158 4.37771 0
M  V30 1461 N 140.419 -1.14872 1.07899 0
M  V30 1462 C 141.329 -2.2341 0.715915 0
M  V30 1463 C 142.345 -1.71808 -0.275306 0
M  V30 1464 O 143.521 -2.01039 -0.120545 0
M  V30 1465 C 140.586 -3.46474 0.125168 0
M  V30 1466 C 139.647 -4.13039 1.17034 0
M  V30 1467 C 138.88 -5.30229 0.607688 0
M  V30 1468 O 139.103 -5.675 -0.574497 0
M  V30 1469 O 138.037 -5.86444 1.35526 0
M  V30 1470 H 141.863 -2.56808 1.62121 0
M  V30 1471 H 139.448 -1.22702 0.852322 0
M  V30 1472 H 141.33 -4.20917 -0.201729 0
M  V30 1473 H 140.005 -3.14811 -0.753364 0
M  V30 1474 H 138.912 -3.40493 1.54968 0
M  V30 1475 H 140.245 -4.48796 2.02097 0
M  V30 1476 N 141.898 -0.863906 -1.31812 0
M  V30 1477 C 143.314 -0.555004 -1.49639 0
M  V30 1478 C 143.514 0.912266 -1.79666 0
M  V30 1479 O 142.57 1.69479 -1.87171 0
M  V30 1480 C 143.883 -1.44998 -2.63431 0
M  V30 1481 C 145.431 -1.45138 -2.77316 0
M  V30 1482 C 145.906 -2.33179 -3.94197 0
M  V30 1483 N 147.397 -2.31025 -4.01474 0
M  V30 1484 C 148.132 -2.95871 -4.9117 0
M  V30 1485 N 147.628 -3.69863 -5.8581 0
M  V30 1486 N 149.421 -2.85211 -4.84367 0
M  V30 1487 H 141.572 -1.81339 -1.10589 0
M  V30 1488 H 143.835 -0.77505 -0.545895 0
M  V30 1489 H 143.541 -2.49377 -2.48 0
M  V30 1490 H 143.415 -1.14409 -3.59431 0
M  V30 1491 H 145.802 -0.415201 -2.92164 0
M  V30 1492 H 145.883 -1.79747 -1.82001 0
M  V30 1493 H 145.527 -3.3687 -3.80107 0
M  V30 1494 H 145.457 -1.95897 -4.88807 0
M  V30 1495 H 147.948 -1.77238 -3.33759 0
M  V30 1496 H 148.261 -4.16486 -6.50968 0
M  V30 1497 H 146.606 -3.73971 -5.85808 0
M  V30 1498 H 149.797 -2.26948 -4.09405 0
M  V30 1499 H 149.97 -3.36027 -5.54066 0
M  V30 1500 N 143.376 1.44774 -0.622745 0
M  V30 1501 C 144.323 2.30635 0.0871679 0
M  V30 1502 C 145.293 1.42994 0.845097 0
M  V30 1503 O 146.478 1.71907 0.827812 0
M  V30 1504 C 143.618 3.28144 1.06844 0
M  V30 1505 C 142.731 4.30888 0.309809 0
M  V30 1506 C 141.866 5.15494 1.28215 0
M  V30 1507 C 140.905 6.09953 0.512198 0
M  V30 1508 N 140.042 6.87287 1.43458 0
M  V30 1509 H 144.882 2.90803 -0.650974 0
M  V30 1510 H 142.419 1.43286 -0.33281 0
M  V30 1511 H 144.377 3.83157 1.65066 0
M  V30 1512 H 143.007 2.69695 1.77382 0
M  V30 1513 H 142.059 3.78414 -0.388181 0
M  V30 1514 H 143.371 4.97955 -0.290254 0
M  V30 1515 H 142.525 5.74983 1.93596 0
M  V30 1516 H 141.264 4.48481 1.91614 0
M  V30 1517 H 140.269 5.49581 -0.155151 0
M  V30 1518 H 141.494 6.78999 -0.116958 0
M  V30 1519 H 139.44 6.2295 2.05594 0
M  V30 1520 H 139.357 7.50763 0.888335 0
M  V30 1521 H 140.625 7.51306 2.07749 0
M  V30 1522 N 144.854 0.36279 1.53368 0
M  V30 1523 C 145.764 -0.492994 2.29362 0
M  V30 1524 C 146.78 -1.09507 1.35219 0
M  V30 1525 O 147.956 -1.10662 1.68273 0
M  V30 1526 C 145.021 -1.61855 3.066 0
M  V30 1527 C 144.082 -1.04429 4.16405 0
M  V30 1528 C 143.315 -2.11621 4.89951 0
M  V30 1529 O 143.538 -3.32684 4.63333 0
M  V30 1530 O 142.472 -1.74835 5.75948 0
M  V30 1531 H 146.298 0.125331 3.03441 0
M  V30 1532 H 143.883 0.127253 1.48857 0
M  V30 1533 H 145.765 -2.27302 3.54841 0
M  V30 1534 H 144.44 -2.22233 2.3536 0
M  V30 1535 H 143.347 -0.353819 3.72423 0
M  V30 1536 H 144.68 -0.485113 4.89804 0
M  V30 1537 N 146.332 -1.57332 0.0918853 0
M  V30 1538 C 147.264 -2.10869 -0.898168 0
M  V30 1539 C 148.277 -1.04521 -1.24817 0
M  V30 1540 O 149.466 -1.31977 -1.20184 0
M  V30 1541 C 146.566 -2.57083 -2.2082 0
M  V30 1542 C 145.739 -3.87229 -2.03402 0
M  V30 1543 C 144.798 -4.19324 -3.17889 0
M  V30 1544 O 143.824 -4.88598 -2.91994 0
M  V30 1545 N 145.026 -3.74471 -4.43567 0
M  V30 1546 H 147.791 -2.96439 -0.440943 0
M  V30 1547 H 145.352 -1.61631 -0.0933064 0
M  V30 1548 H 147.344 -2.75602 -2.96354 0
M  V30 1549 H 145.914 -1.76541 -2.57977 0
M  V30 1550 H 145.134 -3.7789 -1.12218 0
M  V30 1551 H 146.422 -4.72379 -1.89038 0
M  V30 1552 H 145.82 -3.18546 -4.67488 0
M  V30 1553 H 144.377 -3.98151 -5.16061 0
M  V30 1554 N 147.81 0.181792 -1.56548 0
M  V30 1555 C 148.757 1.22521 -1.95595 0
M  V30 1556 C 149.727 1.4454 -0.818373 0
M  V30 1557 O 150.912 1.57454 -1.07763 0
M  V30 1558 C 148.052 2.56193 -2.31212 0
M  V30 1559 C 147.165 2.41641 -3.58097 0
M  V30 1560 C 146.3 3.68108 -3.82975 0
M  V30 1561 C 145.339 3.48445 -5.03242 0
M  V30 1562 N 144.476 4.66956 -5.24306 0
M  V30 1563 H 149.316 0.885226 -2.84548 0
M  V30 1564 H 146.853 0.425718 -1.40805 0
M  V30 1565 H 148.811 3.34088 -2.49882 0
M  V30 1566 H 147.441 2.88208 -1.45382 0
M  V30 1567 H 146.493 1.54976 -3.474 0
M  V30 1568 H 147.805 2.23052 -4.46149 0
M  V30 1569 H 146.959 4.54441 -4.01956 0
M  V30 1570 H 145.698 3.89666 -2.93278 0
M  V30 1571 H 144.703 2.60499 -4.8417 0
M  V30 1572 H 145.928 3.2832 -5.9446 0
M  V30 1573 H 143.874 4.88752 -4.37559 0
M  V30 1574 H 143.791 4.51242 -6.06561 0
M  V30 1575 H 145.059 5.54602 -5.47756 0
M  V30 1576 N 149.288 1.51039 0.449983 0
M  V30 1577 C 150.565 1.53612 1.21089 0
M  V30 1578 C 150.945 0.292997 2.09057 0
M  V30 1579 O 150.293 -0.72259 2.16774 0
M  V30 1580 C 150.503 2.84337 2.0237 0
M  V30 1581 C 151.851 3.35807 2.59843 0
M  V30 1582 O 152.875 2.85802 2.12593 0
M  V30 1583 O 151.734 4.23029 3.45989 0
M  V30 1584 H 148.828 0.617057 0.550608 0
M  V30 1585 H 151.374 1.63344 0.460082 0
M  V30 1586 H 150.146 3.66278 1.37681 0
M  V30 1587 H 149.769 2.77708 2.84542 0
M  V30 1588 N 150.766 -0.704594 1.40972 0
M  V30 1589 C 152.013 -1.46458 1.39844 0
M  V30 1590 C 152.341 -1.94499 0.00447594 0
M  V30 1591 O 151.596 -1.69275 -0.982057 0
M  V30 1592 C 151.895 -2.698 2.34399 0
M  V30 1593 C 151.561 -2.40464 3.81429 0
M  V30 1594 C 150.223 -2.32174 4.21484 0
M  V30 1595 C 152.575 -2.16086 4.74296 0
M  V30 1596 C 149.903 -1.97589 5.52427 0
M  V30 1597 C 152.255 -1.83011 6.05549 0
M  V30 1598 C 150.919 -1.7321 6.44635 0
M  V30 1599 H 150.189 -0.535927 0.511725 0
M  V30 1600 H 152.836 -0.806124 1.73706 0
M  V30 1601 H 151.141 -3.40536 1.93759 0
M  V30 1602 H 152.838 -3.27919 2.30804 0
M  V30 1603 H 149.428 -2.47808 3.49699 0
M  V30 1604 H 153.612 -2.2144 4.4416 0
M  V30 1605 H 148.868 -1.88547 5.81601 0
M  V30 1606 H 153.042 -1.63164 6.77016 0
M  V30 1607 H 150.669 -1.46179 7.46013 0
M  V30 1608 N 152.244 -1.26651 -0.937939 0
M  V30 1609 C 153.49 -1.12553 -1.687 0
M  V30 1610 C 153.823 0.329782 -1.91379 0
M  V30 1611 O 153.098 1.24202 -1.4968 0
M  V30 1612 C 153.381 -1.89862 -3.05981 0
M  V30 1613 C 153.234 -3.43318 -2.90607 0
M  V30 1614 C 154.553 -1.69499 -4.0615 0
M  V30 1615 H 151.672 -0.410257 -0.612257 0
M  V30 1616 H 154.314 -1.55685 -1.08913 0
M  V30 1617 H 152.464 -1.53204 -3.57017 0
M  V30 1618 H 154.136 -3.89747 -2.46769 0
M  V30 1619 H 152.379 -3.70179 -2.26164 0
M  V30 1620 H 153.05 -3.92642 -3.8799 0
M  V30 1621 H 155.526 -2.01442 -3.64088 0
M  V30 1622 H 154.402 -2.26002 -5.00214 0
M  V30 1623 H 154.663 -0.640365 -4.37438 0
M  V30 1624 N 153.722 1.14298 -1.08507 0
M  V30 1625 C 155.133 1.66926 -0.836227 0
M  V30 1626 C 155.484 1.85576 0.63686 0
M  V30 1627 O 154.609 1.56767 1.49175 0
M  V30 1628 C 155.204 3.03219 -1.51142 0
M  V30 1629 C 153.763 3.52876 -1.30979 0
M  V30 1630 C 152.91 2.2833 -1.57356 0
M  V30 1631 H 155.861 0.983491 -1.24552 0
M  V30 1632 H 155.882 3.68726 -0.939211 0
M  V30 1633 H 155.394 2.89612 -2.58353 0
M  V30 1634 H 153.495 3.71703 -0.258429 0
M  V30 1635 H 153.608 4.33586 -2.03814 0
M  V30 1636 H 151.972 2.34454 -0.995164 0
M  V30 1637 H 152.755 2.17298 -2.65775 0
M  V30 1638 N 155.201 0.870884 1.31352 0
M  V30 1639 C 156.131 0.343096 2.30966 0
M  V30 1640 C 157.112 -0.566507 1.60389 0
M  V30 1641 O 158.297 -0.483336 1.88089 0
M  V30 1642 C 155.427 -0.455487 3.443 0
M  V30 1643 C 154.381 0.361103 4.26474 0
M  V30 1644 C 153.707 -0.563221 5.31725 0
M  V30 1645 C 155.007 1.59566 4.97329 0
M  V30 1646 H 156.701 1.17548 2.75359 0
M  V30 1647 H 154.247 0.566686 1.32381 0
M  V30 1648 H 156.2 -0.83525 4.13039 0
M  V30 1649 H 154.924 -1.32139 2.98675 0
M  V30 1650 H 153.583 0.722825 3.59403 0
M  V30 1651 H 153.231 -1.42643 4.82351 0
M  V30 1652 H 152.931 -0.0207409 5.87596 0
M  V30 1653 H 154.455 -0.939808 6.03324 0
M  V30 1654 H 155.869 1.28728 5.58661 0
M  V30 1655 H 154.266 2.07728 5.63 0
M  V30 1656 H 155.336 2.34798 4.24262 0
M  V30 1657 N 156.679 -1.44442 0.630414 0
M  V30 1658 C 157.909 -2.06115 0.141465 0
M  V30 1659 C 158.317 -1.47179 -1.1889 0
M  V30 1660 O 157.66 -0.588873 -1.74006 0
M  V30 1661 C 157.722 -3.59467 -0.0484355 0
M  V30 1662 C 157.386 -4.40864 1.20366 0
M  V30 1663 C 158.383 -4.74391 2.12719 0
M  V30 1664 C 156.068 -4.8125 1.43887 0
M  V30 1665 C 158.062 -5.47186 3.26904 0
M  V30 1666 C 155.749 -5.53795 2.5837 0
M  V30 1667 C 156.747 -5.86682 3.49705 0
M  V30 1668 O 156.435 -6.57749 4.62191 0
M  V30 1669 H 156.167 -0.671648 0.0765792 0
M  V30 1670 H 158.721 -1.86312 0.864695 0
M  V30 1671 H 156.951 -3.77758 -0.826803 0
M  V30 1672 H 158.64 -4.02909 -0.491849 0
M  V30 1673 H 159.406 -4.43728 1.95781 0
M  V30 1674 H 155.285 -4.55073 0.736853 0
M  V30 1675 H 158.829 -5.72773 3.98217 0
M  V30 1676 H 154.726 -5.83872 2.75251 0
M  V30 1677 H 155.494 -6.76217 4.61164 0
M  V30 1678 N 158.157 -0.370918 -1.53173 0
M  V30 1679 C 159.089 0.507823 -2.23503 0
M  V30 1680 C 160.102 1.04182 -1.251 0
M  V30 1681 O 161.291 0.947286 -1.5129 0
M  V30 1682 C 158.391 1.71447 -2.92334 0
M  V30 1683 C 157.564 1.31105 -4.17289 0
M  V30 1684 C 156.623 2.38035 -4.69282 0
M  V30 1685 O 155.649 2.00204 -5.32829 0
M  V30 1686 N 156.851 3.69697 -4.47554 0
M  V30 1687 H 159.616 -0.0946382 -2.99551 0
M  V30 1688 H 157.177 -0.196358 -1.60705 0
M  V30 1689 H 159.169 2.42469 -3.24023 0
M  V30 1690 H 157.739 2.22368 -2.19707 0
M  V30 1691 H 156.959 0.430462 -3.91843 0
M  V30 1692 H 158.247 1.0179 -4.98514 0
M  V30 1693 H 157.645 4.03205 -3.9679 0
M  V30 1694 H 156.202 4.36807 -4.8378 0
M  V30 1695 N 159.635 1.57281 -0.100228 0
M  V30 1696 C 160.912 1.86014 0.604812 0
M  V30 1697 C 161.292 0.998025 1.86018 0
M  V30 1698 O 160.64 0.0718184 2.28387 0
M  V30 1699 C 160.85 3.36784 0.915278 0
M  V30 1700 C 162.198 4.04957 1.27651 0
M  V30 1701 O 163.222 3.41695 1.00613 0
M  V30 1702 O 162.081 5.16593 1.7831 0
M  V30 1703 H 159.175 0.76942 0.303185 0
M  V30 1704 H 161.721 1.69176 -0.133313 0
M  V30 1705 H 160.493 3.91292 0.0248896 0
M  V30 1706 H 160.116 3.58987 1.70921 0
M  V30 1707 N 161.113 -0.173488 1.56642 0
M  V30 1708 C 162.36 -0.890465 1.81871 0
M  V30 1709 C 162.688 -1.82339 0.67696 0
M  V30 1710 O 161.943 -1.92795 -0.335926 0
M  V30 1711 C 162.242 -1.72069 3.13252 0
M  V30 1712 C 161.908 -0.936878 4.41059 0
M  V30 1713 C 160.57 -0.720545 4.75775 0
M  V30 1714 C 162.922 -0.386919 5.19762 0
M  V30 1715 C 160.25 0.0568829 5.86672 0
M  V30 1716 C 162.602 0.37741 6.31473 0
M  V30 1717 C 161.266 0.604563 6.64757 0
M  V30 1718 H 160.536 -0.325844 0.665512 0
M  V30 1719 H 163.183 -0.155527 1.90867 0
M  V30 1720 H 161.488 -2.52496 2.99588 0
M  V30 1721 H 163.185 -2.27844 3.29982 0
M  V30 1722 H 159.775 -1.11553 4.13828 0
M  V30 1723 H 163.959 -0.541398 4.93338 0
M  V30 1724 H 159.215 0.242635 6.10918 0
M  V30 1725 H 163.389 0.810825 6.91664 0
M  V30 1726 H 161.016 1.20885 7.50527 0
M  V30 1727 N 162.591 -1.51276 -0.441967 0
M  V30 1728 C 163.501 -1.75092 -1.56141 0
M  V30 1729 C 164.517 -0.634963 -1.62001 0
M  V30 1730 O 165.693 -0.916686 -1.79329 0
M  V30 1731 C 162.758 -1.86666 -2.92158 0
M  V30 1732 C 161.819 -3.10506 -2.96453 0
M  V30 1733 C 161.052 -3.21519 -4.25982 0
M  V30 1734 O 161.275 -2.38586 -5.18105 0
M  V30 1735 O 160.209 -4.14465 -4.36466 0
M  V30 1736 H 164.035 -2.70044 -1.38961 0
M  V30 1737 H 161.62 -1.35722 -0.624499 0
M  V30 1738 H 163.502 -1.96292 -3.72891 0
M  V30 1739 H 162.177 -0.949014 -3.09476 0
M  V30 1740 H 161.084 -3.06363 -2.14692 0
M  V30 1741 H 162.417 -4.01945 -2.84079 0
M  V30 1742 N 164.069 0.697108 -1.41344 0
M  V30 1743 C 165.017 1.83237 -1.43272 0
M  V30 1744 C 166.011 1.66522 -0.310947 0
M  V30 1745 O 167.217 1.73402 -0.482899 0
M  V30 1746 H 163.592 0.603802 -0.448249 0
M  V30 1747 H 165.563 1.78727 -2.38954 0
M  V30 1748 C 164.312 3.21245 -1.33029 0
M  V30 1749 H 163.635 3.34723 -2.18633 0
M  V30 1750 H 165.075 4.00763 -1.38439 0
M  V30 1751 C 163.534 3.36873 -0.0424635 0
M  V30 1752 O 164.064 3.91177 0.913421 0
M  V30 1753 N 162.27 2.90581 0.0331145 0
M  V30 1754 H 161.817 2.46577 -0.745506 0
M  V30 1755 H 161.775 3.01416 0.894199 0
M  V30 1756 N 165.547 1.27147 0.931209 0
M  V30 1757 C 166.794 1.13278 1.67852 0
M  V30 1758 C 167.122 -0.32204 1.91815 0
M  V30 1759 O 166.377 -1.25224 1.50391 0
M  V30 1760 C 166.676 1.8579 3.05314 0
M  V30 1761 C 166.342 3.35657 3.01073 0
M  V30 1762 C 165.004 3.76536 2.99623 0
M  V30 1763 C 167.356 4.31299 2.92627 0
M  V30 1764 C 164.684 5.11426 2.87506 0
M  V30 1765 C 167.036 5.66242 2.82051 0
M  V30 1766 C 165.7 6.06418 2.7895 0
M  V30 1767 H 164.97 0.414515 0.614214 0
M  V30 1768 H 167.617 1.57712 1.08624 0
M  V30 1769 H 165.922 1.33854 3.68226 0
M  V30 1770 H 167.619 1.72491 3.62005 0
M  V30 1771 H 164.209 3.03146 3.02986 0
M  V30 1772 H 168.393 4.00692 2.92848 0
M  V30 1773 H 163.649 5.41705 2.83489 0
M  V30 1774 H 167.823 6.40026 2.74481 0
M  V30 1775 H 165.45 7.10895 2.69318 0
M  V30 1776 N 167.025 -1.13721 1.09112 0
M  V30 1777 C 168.255 -1.88499 0.845671 0
M  V30 1778 C 168.663 -1.79218 -0.606432 0
M  V30 1779 O 168.006 -1.1544 -1.42896 0
M  V30 1780 C 168.068 -3.38954 1.19793 0
M  V30 1781 C 167.732 -3.72018 2.65428 0
M  V30 1782 C 168.729 -3.7153 3.63677 0
M  V30 1783 C 166.414 -4.01775 3.01467 0
M  V30 1784 C 168.408 -4.00336 4.95994 0
M  V30 1785 C 166.095 -4.30243 4.33975 0
M  V30 1786 C 167.093 -4.29508 5.31048 0
M  V30 1787 O 166.781 -4.5728 6.61173 0
M  V30 1788 H 166.513 -0.603702 0.304171 0
M  V30 1789 H 169.067 -1.44903 1.45576 0
M  V30 1790 H 167.297 -3.83039 0.530871 0
M  V30 1791 H 168.986 -3.95052 0.932146 0
M  V30 1792 H 169.752 -3.4862 3.37179 0
M  V30 1793 H 165.631 -4.01496 2.26544 0
M  V30 1794 H 169.175 -3.99678 5.71755 0
M  V30 1795 H 165.072 -4.52625 4.60219 0
M  V30 1796 H 165.84 -4.74964 6.66597 0
M  V30 1797 N 168.503 -0.877838 -1.30888 0
M  V30 1798 C 169.731 -0.507414 -2.00581 0
M  V30 1799 C 170.146 0.902216 -1.65848 0
M  V30 1800 O 169.503 1.59225 -0.891831 0
M  V30 1801 C 169.554 -0.664162 -3.55347 0
M  V30 1802 O 169.275 -2.01829 -3.8884 0
M  V30 1803 C 170.776 -0.295787 -4.42312 0
M  V30 1804 H 167.996 -0.196866 -0.641471 0
M  V30 1805 H 170.54 -1.18117 -1.66939 0
M  V30 1806 H 168.695 -0.0378619 -3.87381 0
M  V30 1807 H 169.109 -2.03174 -4.8355 0
M  V30 1808 H 170.583 -0.456388 -5.5011 0
M  V30 1809 H 171.06 0.765663 -4.32475 0
M  V30 1810 H 171.666 -0.898113 -4.15709 0
M  V30 1811 N 169.982 1.44106 -0.638065 0
M  V30 1812 C 171.398 1.56672 -0.304286 0
M  V30 1813 C 171.598 1.6244 1.19228 0
M  V30 1814 O 170.654 1.57121 1.9766 0
M  V30 1815 C 171.967 2.83503 -1.00231 0
M  V30 1816 C 173.515 2.97226 -0.981116 0
M  V30 1817 C 173.99 4.26868 -1.65974 0
M  V30 1818 N 175.481 4.33698 -1.62666 0
M  V30 1819 C 176.216 5.32745 -2.12063 0
M  V30 1820 N 175.712 6.38157 -2.6968 0
M  V30 1821 N 177.505 5.24299 -2.02651 0
M  V30 1822 H 169.656 1.38605 -1.60942 0
M  V30 1823 H 171.919 0.664661 -0.675965 0
M  V30 1824 H 171.625 2.85251 -2.0573 0
M  V30 1825 H 171.499 3.73251 -0.54439 0
M  V30 1826 H 173.886 2.95027 0.0654188 0
M  V30 1827 H 173.967 2.08808 -1.47759 0
M  V30 1828 H 173.611 4.29826 -2.70576 0
M  V30 1829 H 173.541 5.14156 -1.13804 0
M  V30 1830 H 176.032 3.58138 -1.20606 0
M  V30 1831 H 176.345 7.10029 -3.05087 0
M  V30 1832 H 174.69 6.38823 -2.73734 0
M  V30 1833 H 177.881 4.4086 -1.57353 0
M  V30 1834 H 178.054 6.01334 -2.41457 0
M  V30 1835 N 171.46 0.379036 1.52974 0
M  V30 1836 C 172.408 -0.476033 2.27677 0
M  V30 1837 C 173.402 -1.0719 1.31174 0
M  V30 1838 O 174.608 -1.01355 1.48752 0
M  V30 1839 H 170.983 -0.172255 0.732006 0
M  V30 1840 H 172.954 0.175615 2.97883 0
M  V30 1841 C 171.703 -1.5967 3.0887 0
M  V30 1842 H 171.026 -1.1475 3.82978 0
M  V30 1843 H 172.466 -2.16943 3.64296 0
M  V30 1844 C 170.925 -2.54682 2.20542 0
M  V30 1845 O 171.455 -3.57836 1.82527 0
M  V30 1846 N 169.661 -2.24183 1.84907 0
M  V30 1847 H 169.208 -1.40333 2.1602 0
M  V30 1848 H 169.166 -2.88006 1.26096 0
M  V30 1849 N 172.938 -1.57226 0.108567 0
M  V30 1850 C 173.868 -2.17778 -0.84232 0
M  V30 1851 C 174.849 -1.11487 -1.2847 0
M  V30 1852 O 176.034 -1.39681 -1.34918 0
M  V30 1853 C 173.164 -2.76888 -2.09644 0
M  V30 1854 C 172.118 -3.88669 -1.79221 0
M  V30 1855 C 171.444 -4.34541 -3.11574 0
M  V30 1856 C 172.744 -5.11251 -1.06864 0
M  V30 1857 H 174.438 -2.97489 -0.337774 0
M  V30 1858 H 171.984 -1.43097 -0.161025 0
M  V30 1859 H 173.937 -3.17904 -2.76614 0
M  V30 1860 H 172.661 -1.94451 -2.62405 0
M  V30 1861 H 171.32 -3.48213 -1.14644 0
M  V30 1862 H 170.968 -3.48977 -3.62249 0
M  V30 1863 H 170.668 -5.09914 -2.91996 0
M  V30 1864 H 172.192 -4.782 -3.7968 0
M  V30 1865 H 173.606 -5.49352 -1.63968 0
M  V30 1866 H 172.003 -5.9214 -0.974178 0
M  V30 1867 H 173.073 -4.8487 -0.0536168 0
M  V30 1868 N 174.416 0.165178 -1.56732 0
M  V30 1869 C 175.646 0.894919 -1.86212 0
M  V30 1870 C 176.054 1.76066 -0.692627 0
M  V30 1871 O 175.397 1.80387 0.347303 0
M  V30 1872 C 175.459 1.8174 -3.10179 0
M  V30 1873 C 175.123 1.13064 -4.42793 0
M  V30 1874 C 176.12 0.493169 -5.17556 0
M  V30 1875 C 173.805 1.12556 -4.89527 0
M  V30 1876 C 175.799 -0.140209 -6.37246 0
M  V30 1877 C 173.486 0.488366 -6.09145 0
M  V30 1878 C 174.484 -0.143411 -6.82849 0
M  V30 1879 O 174.172 -0.77055 -8.00199 0
M  V30 1880 H 173.904 0.265114 -0.621844 0
M  V30 1881 H 176.458 0.168242 -2.0471 0
M  V30 1882 H 174.688 2.58455 -2.87642 0
M  V30 1883 H 176.377 2.4175 -3.26055 0
M  V30 1884 H 177.143 0.489023 -4.82528 0
M  V30 1885 H 173.022 1.60672 -4.32094 0
M  V30 1886 H 176.566 -0.633932 -6.94714 0
M  V30 1887 H 172.463 0.490116 -6.43637 0
M  V30 1888 H 173.231 -0.670408 -8.1575 0
M  V30 1889 N 175.894 1.51508 0.433938 0
M  V30 1890 C 176.827 1.67756 1.54704 0
M  V30 1891 C 177.805 0.525127 1.53887 0
M  V30 1892 O 178.989 0.749393 1.72963 0
M  V30 1893 C 176.116 1.69424 2.9328 0
M  V30 1894 C 175.162 2.90673 3.12108 0
M  V30 1895 S 175.995 4.51431 2.88046 0
M  V30 1896 C 177.151 4.55849 4.28897 0
M  V30 1897 H 177.384 2.61904 1.40689 0
M  V30 1898 H 174.917 1.41235 0.62386 0
M  V30 1899 H 176.875 1.7107 3.73156 0
M  V30 1900 H 175.536 0.764464 3.04655 0
M  V30 1901 H 174.729 2.88251 4.13434 0
M  V30 1902 H 174.331 2.86786 2.40062 0
M  V30 1903 H 176.623 4.31699 5.22152 0
M  V30 1904 H 177.566 5.57676 4.36351 0
M  V30 1905 H 177.974 3.85137 4.12711 0
M  V30 1906 N 177.372 -0.689602 1.41712 0
M  V30 1907 C 178.788 -1.00093 1.24312 0
M  V30 1908 C 178.988 -2.01036 0.136729 0
M  V30 1909 O 178.044 -2.47562 -0.496918 0
M  V30 1910 C 179.357 -1.51985 2.59463 0
M  V30 1911 C 180.905 -1.63838 2.66695 0
M  V30 1912 C 181.38 -2.1913 4.02177 0
M  V30 1913 N 182.871 -2.26483 4.04054 0
M  V30 1914 C 183.606 -2.70306 5.0569 0
M  V30 1915 N 183.102 -3.13691 6.17713 0
M  V30 1916 N 184.895 -2.69923 4.9305 0
M  V30 1917 H 177.046 -0.0210029 2.1239 0
M  V30 1918 H 179.309 -0.0718733 0.945272 0
M  V30 1919 H 179.015 -0.85269 3.41207 0
M  V30 1920 H 178.889 -2.50103 2.82362 0
M  V30 1921 H 181.276 -2.29664 1.85306 0
M  V30 1922 H 181.357 -0.642492 2.476 0
M  V30 1923 H 181.001 -1.53918 4.84016 0
M  V30 1924 H 180.931 -3.19482 4.18615 0
M  V30 1925 H 183.422 -1.95874 3.23174 0
M  V30 1926 H 183.735 -3.45773 6.9113 0
M  V30 1927 H 182.08 -3.11585 6.21241 0
M  V30 1928 H 185.271 -2.35382 4.04614 0
M  V30 1929 H 185.444 -3.03758 5.72394 0
M  V30 1930 N 178.85 -1.27639 -0.924453 0
M  V30 1931 C 180.099 -1.13549 -1.66702 0
M  V30 1932 C 180.412 0.317487 -1.93006 0
M  V30 1933 O 181.618 0.579333 -2.65247 0
M  V30 1934 C 180.074 -1.98426 -3.00259 0
M  V30 1935 C 179.682 -3.484 -2.81641 0
M  V30 1936 C 181.426 -1.92993 -3.78092 0
M  V30 1937 C 179.333 -4.25464 -4.10773 0
M  V30 1938 H 178.263 -0.421351 -0.625283 0
M  V30 1939 H 180.914 -1.52085 -1.02676 0
M  V30 1940 H 179.296 -1.52736 -3.6536 0
M  V30 1941 H 180.47 -4.01973 -2.25287 0
M  V30 1942 H 178.785 -3.55245 -2.17232 0
M  V30 1943 H 181.382 -2.47844 -4.7379 0
M  V30 1944 H 181.725 -0.904281 -4.0636 0
M  V30 1945 H 182.258 -2.36595 -3.19793 0
M  V30 1946 H 178.997 -5.28566 -3.87683 0
M  V30 1947 H 178.517 -3.76667 -4.66779 0
M  V30 1948 H 180.196 -4.34812 -4.79111 0
M  V30 1949 N 180.328 1.1314 -1.09713 0
M  V30 1950 C 181.744 1.36477 -0.827423 0
M  V30 1951 C 181.944 1.93654 0.556817 0
M  V30 1952 O 181 2.15791 1.31112 0
M  V30 1953 C 182.313 2.31334 -1.92106 0
M  V30 1954 C 183.861 2.44943 -1.94864 0
M  V30 1955 C 184.336 3.4311 -3.0338 0
M  V30 1956 N 185.827 3.50662 -3.02639 0
M  V30 1957 C 186.562 4.2651 -3.83246 0
M  V30 1958 N 186.058 5.05485 -4.73768 0
M  V30 1959 N 187.851 4.2184 -3.71493 0
M  V30 1960 H 180.002 0.743807 -1.9895 0
M  V30 1961 H 182.265 0.389823 -0.864143 0
M  V30 1962 H 181.971 1.96483 -2.91698 0
M  V30 1963 H 181.845 3.31381 -1.80184 0
M  V30 1964 H 184.232 2.79079 -0.959099 0
M  V30 1965 H 184.313 1.4481 -2.10864 0
M  V30 1966 H 183.957 3.09704 -4.02549 0
M  V30 1967 H 183.887 4.43055 -2.84622 0
M  V30 1968 H 186.378 2.94315 -2.37039 0
M  V30 1969 H 186.691 5.60675 -5.3185 0
M  V30 1970 H 185.036 5.04708 -4.77802 0
M  V30 1971 H 188.227 3.5922 -3.00131 0
M  V30 1972 H 188.4 4.80697 -4.3455 0
M  V30 1973 N 181.806 0.884767 1.30421 0
M  V30 1974 C 183.083 0.423185 1.90967 0
M  V30 1975 C 183.463 -1.09605 1.80416 0
M  V30 1976 O 182.811 -1.93126 1.22125 0
M  V30 1977 C 183.021 0.921056 3.36627 0
M  V30 1978 C 184.369 0.955903 4.137 0
M  V30 1979 O 185.393 0.867706 3.4547 0
M  V30 1980 O 184.252 1.08614 5.35598 0
M  V30 1981 H 181.346 0.129369 0.816819 0
M  V30 1982 H 183.892 0.973653 1.3899 0
M  V30 1983 H 182.664 1.96489 3.3839 0
M  V30 1984 H 182.287 0.349741 3.96059 0
M  V30 1985 N 183.284 -1.43765 0.645699 0
M  V30 1986 C 184.232 -2.32516 -0.0624849 0
M  V30 1987 C 185.226 -1.48183 -0.820855 0
M  V30 1988 O 186.432 -1.64439 -0.732106 0
M  V30 1989 H 182.807 -0.750989 -0.0389864 0
M  V30 1990 H 184.778 -2.89979 0.703892 0
M  V30 1991 C 183.527 -3.32389 -1.02044 0
M  V30 1992 H 182.85 -3.97301 -0.446312 0
M  V30 1993 H 184.29 -3.97138 -1.48517 0
M  V30 1994 C 182.749 -2.62416 -2.11281 0
M  V30 1995 O 183.279 -2.434 -3.19561 0
M  V30 1996 N 181.485 -2.21913 -1.87624 0
M  V30 1997 H 181.032 -2.37578 -0.995703 0
M  V30 1998 H 180.99 -1.75424 -2.6091 0
M  V30 1999 N 184.763 -0.387143 -1.52771 0
M  V30 2000 C 186.009 0.188506 -2.02525 0
M  V30 2001 C 186.364 1.44649 -1.26864 0
M  V30 2002 O 185.657 1.88189 -0.359945 0
M  V30 2003 C 185.851 0.512209 -3.53711 0
M  V30 2004 C 185.68 -0.712855 -4.44014 0
M  V30 2005 C 184.45 -1.23147 -4.90064 0
M  V30 2006 C 186.648 -1.58453 -4.89282 0
M  V30 2007 N 184.63 -2.41431 -5.64433 0
M  V30 2008 C 186.001 -2.61381 -5.6221 0
M  V30 2009 C 188.056 -1.60488 -4.71326 0
M  V30 2010 C 186.759 -3.66227 -6.19088 0
M  V30 2011 C 188.785 -2.6424 -5.29085 0
M  V30 2012 C 188.147 -3.6589 -6.01917 0
M  V30 2013 H 184.246 0.0311236 -0.78138 0
M  V30 2014 H 186.83 -0.536548 -1.87161 0
M  V30 2015 H 185.001 1.20632 -3.69192 0
M  V30 2016 H 186.733 1.07482 -3.90166 0
M  V30 2017 H 183.488 -0.792795 -4.66917 0
M  V30 2018 H 183.912 -3.01274 -6.0627 0
M  V30 2019 H 188.554 -0.83247 -4.14524 0
M  V30 2020 H 186.272 -4.44337 -6.74974 0
M  V30 2021 H 189.858 -2.66695 -5.17074 0
M  V30 2022 H 188.738 -4.44855 -6.45813 0
M  V30 2023 N 186.241 1.57166 -0.116904 0
M  V30 2024 C 187.189 2.16457 0.851418 0
M  V30 2025 C 188.183 1.11323 1.27686 0
M  V30 2026 O 189.389 1.2963 1.24884 0
M  V30 2027 H 185.764 0.69271 0.292672 0
M  V30 2028 H 187.735 2.96605 0.32685 0
M  V30 2029 C 186.484 2.77689 2.09246 0
M  V30 2030 H 185.807 3.58285 1.77402 0
M  V30 2031 H 187.247 3.22716 2.7501 0
M  V30 2032 C 185.706 1.74667 2.88085 0
M  V30 2033 O 186.236 1.19877 3.83396 0
M  V30 2034 N 184.442 1.44656 2.52038 0
M  V30 2035 H 183.989 1.89402 1.74599 0
M  V30 2036 H 183.947 0.759675 3.05084 0
M  V30 2037 N 187.719 -0.156864 1.56817 0
M  V30 2038 C 189.135 -0.50916 1.5126 0
M  V30 2039 C 189.335 -1.83897 0.823658 0
M  V30 2040 O 188.391 -2.49469 0.390055 0
M  V30 2041 C 189.704 -0.52857 2.96018 0
M  V30 2042 C 191.252 -0.614771 3.06903 0
M  V30 2043 C 191.727 -0.664938 4.53147 0
M  V30 2044 N 193.218 -0.727433 4.57452 0
M  V30 2045 C 193.953 -0.787067 5.67973 0
M  V30 2046 N 193.449 -0.806649 6.88088 0
M  V30 2047 N 195.242 -0.827195 5.5598 0
M  V30 2048 H 187.393 0.714935 2.00006 0
M  V30 2049 H 189.656 0.259526 0.911784 0
M  V30 2050 H 189.362 0.380154 3.49639 0
M  V30 2051 H 189.236 -1.36998 3.51442 0
M  V30 2052 H 191.623 -1.51392 2.53307 0
M  V30 2053 H 191.704 0.253597 2.5454 0
M  V30 2054 H 191.348 0.230011 5.07379 0
M  V30 2055 H 191.278 -1.54966 5.03282 0
M  V30 2056 H 193.769 -0.719998 3.70978 0
M  V30 2057 H 194.082 -0.853727 7.6807 0
M  V30 2058 H 192.427 -0.774687 6.90669 0
M  V30 2059 H 195.618 -0.808998 4.61056 0
M  V30 2060 H 195.791 -0.870206 6.4213 0
M  V30 2061 N 189.197 -1.51736 -0.425897 0
M  V30 2062 C 190.608 -1.5732 -1.00536 0
M  V30 2063 C 190.959 -0.403537 -1.92005 0
M  V30 2064 O 190.084 0.478256 -2.11049 0
M  V30 2065 C 190.679 -2.85119 -1.8301 0
M  V30 2066 C 189.238 -2.93236 -2.35987 0
M  V30 2067 C 188.385 -2.52098 -1.15508 0
M  V30 2068 H 191.336 -1.57348 -0.206739 0
M  V30 2069 H 191.357 -2.69526 -2.68581 0
M  V30 2070 H 190.869 -3.7023 -1.16411 0
M  V30 2071 H 188.97 -2.12581 -3.06007 0
M  V30 2072 H 189.083 -3.9713 -2.68001 0
M  V30 2073 H 187.447 -2.05558 -1.50393 0
M  V30 2074 H 188.23 -3.39565 -0.505014 0
M  V30 2075 N 190.675 0.682077 -1.42076 0
M  V30 2076 C 191.924 1.43786 -1.41451 0
M  V30 2077 C 192.237 1.95574 -0.0317074 0
M  V30 2078 O 193.443 2.71326 0.0971462 0
M  V30 2079 C 191.899 2.60071 -2.48779 0
M  V30 2080 C 191.507 2.15013 -3.93031 0
M  V30 2081 C 193.251 3.37626 -2.57311 0
M  V30 2082 C 191.158 3.28336 -4.91883 0
M  V30 2083 H 190.088 0.540143 -0.526082 0
M  V30 2084 H 192.739 0.739157 -1.67955 0
M  V30 2085 H 191.121 3.32275 -2.15429 0
M  V30 2086 H 192.295 1.5001 -4.35699 0
M  V30 2087 H 190.61 1.50416 -3.88284 0
M  V30 2088 H 193.207 4.22012 -3.28345 0
M  V30 2089 H 193.55 3.83727 -1.61429 0
M  V30 2090 H 194.083 2.72488 -2.89819 0
M  V30 2091 H 190.822 2.87234 -5.89217 0
M  V30 2092 H 190.342 3.92145 -4.53853 0
M  V30 2093 H 192.021 3.93913 -5.13265 0
M  V30 2094 N 192.153 1.28127 0.917671 0
M  V30 2095 C 193.393 1.163 1.68088 0
M  V30 2096 C 193.757 -0.284515 1.8988 0
M  V30 2097 O 194.958 -0.525413 2.63615 0
M  V30 2098 C 193.229 1.93546 3.00457 0
M  V30 2099 S 194.788 1.98048 3.91564 0
M  V30 2100 H 191.606 0.415005 0.577315 0
M  V30 2101 H 194.208 1.62173 1.09179 0
M  V30 2102 H 192.912 2.97888 2.82295 0
M  V30 2103 H 192.443 1.48207 3.64415 0
M  V30 2104 H 194.458 1.08415 4.84211 0
M  V30 2105 N 193.631 -1.12557 1.10312 0
M  V30 2106 C 194.856 -1.88405 0.867085 0
M  V30 2107 C 195.281 -1.79038 -0.576817 0
M  V30 2108 O 194.639 -1.14439 -1.40618 0
M  V30 2109 C 194.687 -3.3563 1.31851 0
M  V30 2110 O 193.791 -4.09565 0.482734 0
M  V30 2111 H 193.132 -0.585455 0.313271 0
M  V30 2112 H 195.662 -1.42352 1.4696 0
M  V30 2113 H 195.672 -3.86469 1.3079 0
M  V30 2114 H 194.347 -3.41765 2.37001 0
M  V30 2115 H 192.924 -3.68695 0.558448 0
M  V30 2116 N 195.109 -0.891671 -1.2995 0
M  V30 2117 C 196.072 -0.36828 -2.26222 0
M  V30 2118 C 197.072 0.493014 -1.53056 0
M  V30 2119 O 198.262 0.299213 -1.71611 0
M  V30 2120 C 195.394 0.47442 -3.37583 0
M  V30 2121 H 196.587 -1.21844 -2.74033 0
M  V30 2122 H 194.14 -0.669107 -1.41254 0
M  V30 2123 H 194.875 1.34489 -2.95099 0
M  V30 2124 H 194.66 -0.142615 -3.91841 0
M  V30 2125 H 196.15 0.83218 -4.09224 0
M  V30 2126 N 196.587 1.43421 -0.653314 0
M  V30 2127 C 197.998 1.85065 -0.246537 0
M  V30 2128 C 198.349 1.54688 1.2069 0
M  V30 2129 O 197.474 0.995896 1.92122 0
M  V30 2130 C 198.069 3.35922 -0.440666 0
M  V30 2131 C 196.628 3.76297 -0.0882064 0
M  V30 2132 C 195.775 2.67147 -0.743484 0
M  V30 2133 H 198.726 1.33572 -0.856979 0
M  V30 2134 H 198.747 3.79204 0.313798 0
M  V30 2135 H 198.259 3.58 -1.49858 0
M  V30 2136 H 196.36 3.5983 0.96711 0
M  V30 2137 H 196.473 4.76338 -0.513738 0
M  V30 2138 H 194.837 2.54086 -0.176712 0
M  V30 2139 H 195.62 2.92053 -1.80443 0
M  V30 2140 N 198.065 0.39524 1.52563 0
M  V30 2141 C 199.313 -0.184678 2.01254 0
M  V30 2142 C 199.634 -1.46822 1.28329 0
M  V30 2143 O 198.904 -1.91666 0.405094 0
M  V30 2144 H 197.484 -0.0712355 0.743596 0
M  V30 2145 H 200.146 0.528293 1.87603 0
M  V30 2146 H 199.242 -0.390681 3.09645 0
M  V30 2147 N 199.544 -1.57102 0.125237 0
M  V30 2148 C 200.955 -1.82384 -0.399142 0
M  V30 2149 C 201.306 -1.04276 -1.66195 0
M  V30 2150 O 200.431 -0.281269 -2.14564 0
M  V30 2151 C 201.026 -3.30821 -0.730932 0
M  V30 2152 C 199.585 -3.56762 -1.19992 0
M  V30 2153 C 198.732 -2.7649 -0.211792 0
M  V30 2154 H 201.683 -1.54786 0.350277 0
M  V30 2155 H 201.704 -3.4579 -1.58775 0
M  V30 2156 H 201.216 -3.87643 0.188345 0
M  V30 2157 H 199.317 -3.05305 -2.13588 0
M  V30 2158 H 199.43 -4.65317 -1.14093 0
M  V30 2159 H 197.794 -2.4489 -0.700085 0
M  V30 2160 H 198.577 -3.36073 0.700691 0
M  V30 2161 N 201.022 0.148545 -1.56898 0
M  V30 2162 C 201.952 1.18524 -2.01182 0
M  V30 2163 C 202.933 1.4489 -0.891123 0
M  V30 2164 O 204.118 1.55836 -1.15882 0
M  V30 2165 C 201.248 2.51879 -2.39112 0
M  V30 2166 C 200.202 2.40038 -3.54353 0
M  V30 2167 C 199.528 3.78089 -3.78091 0
M  V30 2168 C 200.828 1.88577 -4.87069 0
M  V30 2169 H 202.522 0.817029 -2.88036 0
M  V30 2170 H 200.068 0.391575 -1.38574 0
M  V30 2171 H 202.021 3.24627 -2.68692 0
M  V30 2172 H 200.745 2.90532 -1.49193 0
M  V30 2173 H 199.404 1.69742 -3.24936 0
M  V30 2174 H 199.052 4.14175 -2.85426 0
M  V30 2175 H 198.752 3.71028 -4.55645 0
M  V30 2176 H 200.276 4.52387 -4.10095 0
M  V30 2177 H 201.69 2.51117 -5.15377 0
M  V30 2178 H 200.087 1.9241 -5.68417 0
M  V30 2179 H 201.157 0.84136 -4.77545 0
M  V30 2180 N 202.5 1.5196 0.417844 0
M  V30 2181 C 203.747 1.65591 1.16559 0
M  V30 2182 C 204.075 0.381565 1.90721 0
M  V30 2183 O 203.33 -0.635156 1.85106 0
M  V30 2184 C 203.629 2.82269 2.19223 0
M  V30 2185 C 203.295 4.20819 1.61933 0
M  V30 2186 C 201.957 4.58506 1.46033 0
M  V30 2187 C 204.309 5.07196 1.20008 0
M  V30 2188 C 201.637 5.80257 0.867113 0
M  V30 2189 C 203.989 6.29544 0.621086 0
M  V30 2190 C 202.653 6.65987 0.449144 0
M  V30 2191 H 201.923 0.605939 0.42652 0
M  V30 2192 H 204.57 1.86041 0.45397 0
M  V30 2193 H 202.875 2.56118 2.96498 0
M  V30 2194 H 204.572 2.90012 2.76936 0
M  V30 2195 H 201.162 3.91116 1.7529 0
M  V30 2196 H 205.346 4.7867 1.31105 0
M  V30 2197 H 200.602 6.07124 0.721833 0
M  V30 2198 H 204.776 6.95805 0.287798 0
M  V30 2199 H 202.403 7.60199 -0.012632 0
M  V30 2200 N 203.978 -0.674533 1.42435 0
M  V30 2201 C 205.255 -1.4305 1.33402 0
M  V30 2202 C 205.635 -2.11081 -0.0284674 0
M  V30 2203 O 204.983 -2.03257 -1.04397 0
M  V30 2204 C 205.193 -2.43272 2.50239 0
M  V30 2205 C 206.541 -3.07907 2.92367 0
M  V30 2206 O 207.565 -2.53599 2.50132 0
M  V30 2207 O 206.424 -4.0632 3.65467 0
M  V30 2208 H 203.518 -0.638076 0.526106 0
M  V30 2209 H 206.064 -0.703235 1.54443 0
M  V30 2210 H 204.836 -1.91803 3.41068 0
M  V30 2211 H 204.459 -3.23479 2.31186 0
M  V30 2212 N 205.456 -1.28612 -0.910864 0
M  V30 2213 C 206.386 -1.15326 -2.03032 0
M  V30 2214 C 207.367 -0.0502924 -1.70026 0
M  V30 2215 O 208.552 -0.227797 -1.92859 0
M  V30 2216 C 205.682 -0.817343 -3.37545 0
M  V30 2217 C 204.636 -1.8754 -3.84724 0
M  V30 2218 C 203.962 -1.39305 -5.16235 0
M  V30 2219 C 205.262 -3.28244 -4.06267 0
M  V30 2220 H 206.956 -2.08975 -2.14406 0
M  V30 2221 H 204.502 -1.00612 -1.03021 0
M  V30 2222 H 206.455 -0.711151 -4.15356 0
M  V30 2223 H 205.179 0.154846 -3.26233 0
M  V30 2224 H 203.838 -1.97079 -3.09121 0
M  V30 2225 H 203.486 -0.409846 -5.01328 0
M  V30 2226 H 203.186 -2.10057 -5.48771 0
M  V30 2227 H 204.71 -1.30014 -5.96598 0
M  V30 2228 H 206.124 -3.21611 -4.74594 0
M  V30 2229 H 204.521 -3.96855 -4.5014 0
M  V30 2230 H 205.591 -3.72048 -3.10979 0
M  V30 2231 N 206.934 1.1197 -1.10907 0
M  V30 2232 C 207.867 2.16998 -0.706192 0
M  V30 2233 C 208.845 1.59903 0.294897 0
M  V30 2234 O 210.029 1.87513 0.192636 0
M  V30 2235 C 207.156 3.38673 -0.0427664 0
M  V30 2236 C 206.202 4.14414 -1.00811 0
M  V30 2237 S 207.035 4.72079 -2.52789 0
M  V30 2238 C 208.191 5.97083 -1.87731 0
M  V30 2239 H 208.424 2.50837 -1.59587 0
M  V30 2240 H 205.957 1.23508 -0.926555 0
M  V30 2241 H 207.915 4.09142 0.333668 0
M  V30 2242 H 206.576 3.03105 0.823788 0
M  V30 2243 H 205.769 5.016 -0.491259 0
M  V30 2244 H 205.371 3.49678 -1.3267 0
M  V30 2245 H 207.663 6.66599 -1.21044 0
M  V30 2246 H 208.606 6.53403 -2.72892 0
M  V30 2247 H 209.014 5.4837 -1.33979 0
M  V30 2248 N 208.412 0.89855 1.29475 0
M  V30 2249 C 209.322 0.379974 2.31502 0
M  V30 2250 C 210.338 -0.524695 1.659 0
M  V30 2251 O 211.514 -0.414551 1.97087 0
M  V30 2252 C 208.579 -0.385138 3.44554 0
M  V30 2253 C 207.64 0.550914 4.2575 0
M  V30 2254 C 206.873 -0.177778 5.33404 0
M  V30 2255 O 207.096 -1.40189 5.52904 0
M  V30 2256 O 206.03 0.479106 5.9999 0
M  V30 2257 H 209.856 1.22639 2.77837 0
M  V30 2258 H 207.441 0.662834 1.33891 0
M  V30 2259 H 209.323 -0.817841 4.13388 0
M  V30 2260 H 207.998 -1.20763 3.0033 0
M  V30 2261 H 206.905 1.03271 3.59564 0
M  V30 2262 H 208.238 1.33979 4.73614 0
M  V30 2263 N 209.89 -1.43072 0.660911 0
M  V30 2264 C 211.306 -1.56169 0.329173 0
M  V30 2265 C 211.506 -1.64317 -1.16629 0
M  V30 2266 O 210.562 -1.60245 -1.95135 0
M  V30 2267 C 211.875 -2.81873 1.04729 0
M  V30 2268 C 213.423 -2.95627 1.02828 0
M  V30 2269 C 213.898 -4.24174 1.72744 0
M  V30 2270 N 215.389 -4.31055 1.69545 0
M  V30 2271 C 216.124 -5.29304 2.20511 0
M  V30 2272 N 215.62 -6.33786 2.79799 0
M  V30 2273 N 217.413 -5.21008 2.10966 0
M  V30 2274 H 209.564 -1.36027 1.63127 0
M  V30 2275 H 211.827 -0.653823 0.686454 0
M  V30 2276 H 211.533 -2.81942 2.10242 0
M  V30 2277 H 211.407 -3.72338 0.603702 0
M  V30 2278 H 213.794 -2.95094 -0.0184742 0
M  V30 2279 H 213.875 -2.06431 1.51063 0
M  V30 2280 H 213.519 -4.25467 2.7738 0
M  V30 2281 H 213.449 -5.1228 1.2197 0
M  V30 2282 H 215.94 -3.56174 1.26288 0
M  V30 2283 H 216.253 -7.05086 3.16344 0
M  V30 2284 H 214.598 -6.34387 2.83863 0
M  V30 2285 H 217.789 -4.38301 1.64347 0
M  V30 2286 H 217.962 -5.97416 2.50993 0
M  V30 2287 N 211.368 -0.403325 -1.52352 0
M  V30 2288 C 212.614 0.174605 -2.02047 0
M  V30 2289 C 212.947 1.45282 -1.28867 0
M  V30 2290 O 212.222 1.90483 -0.393257 0
M  V30 2291 C 212.505 0.428238 -3.57545 0
M  V30 2292 C 212.358 -0.866248 -4.4138 0
M  V30 2293 C 213.677 1.21287 -4.23057 0
M  V30 2294 H 210.796 0.0619851 -0.734389 0
M  V30 2295 H 213.438 -0.53565 -1.82293 0
M  V30 2296 H 211.588 1.03327 -3.74507 0
M  V30 2297 H 213.26 -1.50265 -4.3614 0
M  V30 2298 H 211.503 -1.47851 -4.07827 0
M  V30 2299 H 212.174 -0.643249 -5.48239 0
M  V30 2300 H 214.65 0.700703 -4.10158 0
M  V30 2301 H 213.526 1.35909 -5.31808 0
M  V30 2302 H 213.787 2.23193 -3.81625 0
M  V30 2303 N 212.846 1.57033 -0.133567 0
M  V30 2304 C 214.071 2.00475 0.531477 0
M  V30 2305 C 214.496 1.01291 1.58499 0
M  V30 2306 O 213.854 -0.0133279 1.81295 0
M  V30 2307 C 213.902 3.42729 1.12113 0
M  V30 2308 O 213.006 3.46498 2.23636 0
M  V30 2309 H 212.347 0.650876 0.131362 0
M  V30 2310 H 214.877 2.03344 -0.22634 0
M  V30 2311 H 214.887 3.81246 1.4531 0
M  V30 2312 H 213.562 4.14428 0.349557 0
M  V30 2313 H 212.139 3.19811 1.91769 0
M  V30 2314 N 214.325 -0.140222 1.56975 0
M  V30 2315 C 215.602 -0.880769 1.74648 0
M  V30 2316 C 215.982 -1.99036 0.703404 0
M  V30 2317 O 215.33 -2.26821 -0.27648 0
M  V30 2318 C 215.54 -1.417 3.18939 0
M  V30 2319 C 216.888 -1.87774 3.80823 0
M  V30 2320 O 217.912 -1.51427 3.2241 0
M  V30 2321 O 216.771 -2.54827 4.83452 0
M  V30 2322 H 213.865 -0.416713 0.714338 0
M  V30 2323 H 216.411 -0.125618 1.69234 0
M  V30 2324 H 215.183 -0.619902 3.86359 0
M  V30 2325 H 214.806 -2.23546 3.28805 0
M  V30 2326 N 215.803 -1.52179 -0.40978 0
M  V30 2327 C 217.08 -1.56769 -1.16974 0
M  V30 2328 C 217.46 -0.348322 -2.08206 0
M  V30 2329 O 216.808 0.664862 -2.18613 0
M  V30 2330 C 217.018 -2.89603 -1.9476 0
M  V30 2331 C 218.366 -3.42579 -2.50849 0
M  V30 2332 O 219.39 -2.91338 -2.04941 0
M  V30 2333 O 218.249 -4.32054 -3.34652 0
M  V30 2334 H 215.343 -0.631439 -0.534054 0
M  V30 2335 H 217.889 -1.64507 -0.416613 0
M  V30 2336 H 216.661 -3.698 -1.27921 0
M  V30 2337 H 216.284 -2.85155 -2.77079 0
M  V30 2338 N 217.281 0.66697 -1.42791 0
M  V30 2339 C 218.511 1.45294 -1.46878 0
M  V30 2340 C 218.919 1.89027 -0.0809861 0
M  V30 2341 O 218.262 1.59219 0.916246 0
M  V30 2342 C 218.324 2.72908 -2.34012 0
M  V30 2343 C 217.988 2.51203 -3.81767 0
M  V30 2344 C 218.985 2.15302 -4.73224 0
M  V30 2345 C 216.67 2.65954 -4.26115 0
M  V30 2346 C 218.664 1.94431 -6.07022 0
M  V30 2347 C 216.351 2.44699 -5.59969 0
M  V30 2348 C 217.349 2.08992 -6.5024 0
M  V30 2349 O 217.037 1.87948 -7.81621 0
M  V30 2350 H 216.769 0.453306 -0.501487 0
M  V30 2351 H 219.323 0.826232 -1.88049 0
M  V30 2352 H 217.553 3.38089 -1.87703 0
M  V30 2353 H 219.242 3.34816 -2.29462 0
M  V30 2354 H 220.008 2.03495 -4.40244 0
M  V30 2355 H 215.887 2.92724 -3.56137 0
M  V30 2356 H 219.431 1.66484 -6.77443 0
M  V30 2357 H 215.328 2.56105 -5.9252 0
M  V30 2358 H 216.096 2.02483 -7.93059 0
M  V30 2359 N 218.759 1.29093 0.90403 0
M  V30 2360 C 219.707 1.13727 2.02901 0
M  V30 2361 C 220.701 0.0539853 1.69314 0
M  V30 2362 O 221.907 0.213469 1.7873 0
M  V30 2363 H 218.282 0.35117 0.664969 0
M  V30 2364 H 220.253 2.08982 2.13001 0
M  V30 2365 C 219.002 0.826066 3.37745 0
M  V30 2366 H 218.325 1.65164 3.64089 0
M  V30 2367 H 219.765 0.758559 4.17159 0
M  V30 2368 C 218.224 -0.470541 3.33598 0
M  V30 2369 O 218.754 -1.49792 3.72727 0
M  V30 2370 N 216.96 -0.474812 2.86695 0
M  V30 2371 H 216.507 0.361692 2.55048 0
M  V30 2372 H 216.465 -1.34236 2.84303 0
M  V30 2373 N 220.237 -1.11381 1.11499 0
M  V30 2374 C 221.483 -1.83597 0.875423 0
M  V30 2375 C 221.838 -1.83048 -0.592555 0
M  V30 2376 O 221.131 -1.27304 -1.43193 0
M  V30 2377 C 221.325 -3.30026 1.37177 0
M  V30 2378 C 221.154 -3.44837 2.88647 0
M  V30 2379 C 219.924 -3.57825 3.56776 0
M  V30 2380 C 222.122 -3.3907 3.86699 0
M  V30 2381 N 220.104 -3.61113 4.96458 0
M  V30 2382 C 221.475 -3.48986 5.12454 0
M  V30 2383 C 223.53 -3.22605 3.7925 0
M  V30 2384 C 222.233 -3.44135 6.31636 0
M  V30 2385 C 224.259 -3.19072 4.97943 0
M  V30 2386 C 223.621 -3.29559 6.22551 0
M  V30 2387 H 219.72 -0.687044 0.37349 0
M  V30 2388 H 222.304 -1.33265 1.41946 0
M  V30 2389 H 220.475 -3.78874 0.854919 0
M  V30 2390 H 222.207 -3.90153 1.07529 0
M  V30 2391 H 218.962 -3.60414 3.07244 0
M  V30 2392 H 219.386 -3.66394 5.69284 0
M  V30 2393 H 224.028 -3.13382 2.83816 0
M  V30 2394 H 221.746 -3.52126 7.27347 0
M  V30 2395 H 225.332 -3.07498 4.93899 0
M  V30 2396 H 224.212 -3.26815 7.12855 0
M  V30 2397 N 221.715 -0.905404 -1.28997 0
M  V30 2398 C 222.943 -0.549846 -1.9946 0
M  V30 2399 C 223.358 0.866834 -1.67724 0
M  V30 2400 O 222.715 1.57298 -0.925404 0
M  V30 2401 C 222.766 -0.739387 -3.53858 0
M  V30 2402 O 222.487 -2.10031 -3.84472 0
M  V30 2403 C 223.988 -0.389541 -4.41585 0
M  V30 2404 H 221.208 -0.210429 -0.637151 0
M  V30 2405 H 223.752 -1.21632 -1.64396 0
M  V30 2406 H 221.907 -0.120023 -3.87214 0
M  V30 2407 H 222.321 -2.13385 -4.79132 0
M  V30 2408 H 223.795 -0.572972 -5.49018 0
M  V30 2409 H 224.272 0.673756 -4.34001 0
M  V30 2410 H 224.878 -0.986089 -4.1371 0
M  V30 2411 N 223.193 1.4272 -0.668489 0
M  V30 2412 C 224.44 2.01624 -0.18814 0
M  V30 2413 C 224.768 1.5282 1.20317 0
M  V30 2414 O 224.023 0.718323 1.8204 0
M  V30 2415 C 224.322 3.57021 -0.164499 0
M  V30 2416 C 223.988 4.25232 -1.49962 0
M  V30 2417 C 222.65 4.4358 -1.8652 0
M  V30 2418 C 225.002 4.63727 -2.37921 0
M  V30 2419 C 222.33 4.97694 -3.10674 0
M  V30 2420 C 224.682 5.19218 -3.6138 0
M  V30 2421 C 223.346 5.3578 -3.98115 0
M  V30 2422 H 222.616 0.737795 -0.0688454 0
M  V30 2423 H 225.263 1.70991 -0.862225 0
M  V30 2424 H 223.568 3.87285 0.593079 0
M  V30 2425 H 225.265 4.00372 0.224271 0
M  V30 2426 H 221.855 4.11306 -1.20522 0
M  V30 2427 H 226.039 4.4923 -2.10964 0
M  V30 2428 H 221.295 5.08702 -3.39164 0
M  V30 2429 H 225.469 5.4799 -4.29743 0
M  V30 2430 H 223.096 5.77475 -4.94395 0
M  V30 2431 N 224.671 0.411399 1.52136 0
M  V30 2432 C 226.087 0.0623865 1.59478 0
M  V30 2433 C 226.287 -1.42554 1.4241 0
M  V30 2434 O 225.343 -2.19263 1.2522 0
M  V30 2435 C 226.656 0.559331 2.95452 0
M  V30 2436 C 228.204 0.517503 3.08692 0
M  V30 2437 C 228.679 0.990994 4.4715 0
M  V30 2438 N 230.17 0.947908 4.53397 0
M  V30 2439 C 230.905 1.28544 5.58806 0
M  V30 2440 N 230.401 1.69454 6.71757 0
M  V30 2441 N 232.194 1.20526 5.49026 0
M  V30 2442 H 224.345 1.37982 1.61477 0
M  V30 2443 H 226.608 0.566977 0.759764 0
M  V30 2444 H 226.314 1.59938 3.1323 0
M  V30 2445 H 226.188 -0.0298014 3.77188 0
M  V30 2446 H 228.575 -0.513505 2.90598 0
M  V30 2447 H 228.656 1.14272 2.28857 0
M  V30 2448 H 228.3 2.02034 4.65988 0
M  V30 2449 H 228.23 0.34257 5.25485 0
M  V30 2450 H 230.721 0.647157 3.72317 0
M  V30 2451 H 231.034 1.93513 7.48179 0
M  V30 2452 H 229.379 1.73359 6.73032 0
M  V30 2453 H 232.57 0.884505 4.59667 0
M  V30 2454 H 232.743 1.47161 6.31069 0
M  V30 2455 N 226.149 -1.5696 0.141893 0
M  V30 2456 C 227.396 -1.9596 -0.510492 0
M  V30 2457 C 227.724 -1.02648 -1.65208 0
M  V30 2458 O 226.979 -0.0546947 -1.95624 0
M  V30 2459 C 227.278 -3.41242 -1.06249 0
M  V30 2460 C 226.944 -4.50882 -0.0398791 0
M  V30 2461 C 225.606 -4.80595 0.241247 0
M  V30 2462 C 227.958 -5.17058 0.65578 0
M  V30 2463 C 225.286 -5.73792 1.22393 0
M  V30 2464 C 227.638 -6.11313 1.62724 0
M  V30 2465 C 226.302 -6.39407 1.91612 0
M  V30 2466 H 225.572 -0.717068 -0.186802 0
M  V30 2467 H 228.219 -1.90142 0.227643 0
M  V30 2468 H 226.524 -3.43866 -1.87785 0
M  V30 2469 H 228.221 -3.68742 -1.57576 0
M  V30 2470 H 224.811 -4.27754 -0.269174 0
M  V30 2471 H 228.995 -4.94239 0.451779 0
M  V30 2472 H 224.251 -5.93853 1.45424 0
M  V30 2473 H 228.425 -6.61668 2.17183 0
M  V30 2474 H 226.052 -7.11427 2.6791 0
M  V30 2475 N 227.627 0.131896 -1.57047 0
M  V30 2476 C 228.855 0.856461 -1.88341 0
M  V30 2477 C 229.27 1.74042 -0.731757 0
M  V30 2478 O 228.627 1.80051 0.297945 0
M  V30 2479 C 228.678 1.70064 -3.18999 0
M  V30 2480 O 228.399 0.852278 -4.2973 0
M  V30 2481 C 229.9 2.53148 -3.63911 0
M  V30 2482 H 227.12 0.246885 -0.62393 0
M  V30 2483 H 229.664 0.120152 -2.04147 0
M  V30 2484 H 227.819 2.38984 -3.04902 0
M  V30 2485 H 228.233 1.43329 -5.04537 0
M  V30 2486 H 229.707 3.07931 -4.58129 0
M  V30 2487 H 230.184 3.29901 -2.89935 0
M  V30 2488 H 230.79 1.89492 -3.80753 0
M  V30 2489 N 229.106 1.52395 0.401703 0
M  V30 2490 C 230.354 1.66488 1.14569 0
M  V30 2491 C 230.675 0.400897 1.90835 0
M  V30 2492 O 229.945 -0.584415 1.8698 0
M  V30 2493 H 228.525 0.613672 0.425929 0
M  V30 2494 H 231.187 1.89464 0.457093 0
M  V30 2495 H 230.283 2.50942 1.85566 0
M  V30 2496 N 230.584 -0.659388 1.43143 0
M  V30 2497 C 232 -0.974337 1.26407 0
M  V30 2498 C 232.2 -2.007 0.179341 0
M  V30 2499 O 231.256 -2.4856 -0.444295 0
M  V30 2500 C 232.569 -1.46447 2.62628 0
M  V30 2501 C 234.117 -1.58144 2.7011 0
M  V30 2502 C 234.592 -2.1055 4.06734 0
M  V30 2503 N 236.083 -2.17861 4.08767 0
M  V30 2504 C 236.818 -2.59519 5.1131 0
M  V30 2505 N 236.314 -3.00518 6.24228 0
M  V30 2506 N 238.107 -2.59404 4.98664 0
M  V30 2507 H 230.258 0.0240528 2.12386 0
M  V30 2508 H 232.521 -0.0518065 0.946583 0
M  V30 2509 H 232.227 -0.780123 3.42939 0
M  V30 2510 H 232.101 -2.44058 2.87603 0
M  V30 2511 H 234.488 -2.25682 1.90136 0
M  V30 2512 H 234.569 -0.589828 2.48907 0
M  V30 2513 H 234.213 -1.43616 4.87172 0
M  V30 2514 H 234.143 -3.10531 4.25298 0
M  V30 2515 H 236.634 -1.88975 3.27257 0
M  V30 2516 H 236.947 -3.31036 6.98309 0
M  V30 2517 H 235.292 -2.98337 6.2771 0
M  V30 2518 H 238.483 -2.26747 4.09516 0
M  V30 2519 H 238.656 -2.91548 5.78709 0
M  V30 2520 N 232.062 -1.29571 -0.897171 0
M  V30 2521 C 233.308 -1.17863 -1.65034 0
M  V30 2522 C 233.641 0.268729 -1.92332 0
M  V30 2523 O 232.916 1.19378 -1.53555 0
M  V30 2524 C 233.199 -1.995 -2.99786 0
M  V30 2525 C 233.052 -3.5239 -2.79538 0
M  V30 2526 C 234.371 -1.82335 -4.00552 0
M  V30 2527 H 231.49 -0.429528 -0.598895 0
M  V30 2528 H 234.132 -1.59072 -1.03905 0
M  V30 2529 H 232.282 -1.64485 -3.51962 0
M  V30 2530 H 233.954 -3.97401 -2.34244 0
M  V30 2531 H 232.197 -3.77187 -2.14273 0
M  V30 2532 H 232.868 -4.04787 -3.75302 0
M  V30 2533 H 235.344 -2.12924 -3.57495 0
M  V30 2534 H 234.22 -2.41801 -4.92771 0
M  V30 2535 H 234.481 -0.779209 -4.35179 0
M  V30 2536 N 233.54 1.10788 -1.12088 0
M  V30 2537 C 234.789 1.82036 -0.868659 0
M  V30 2538 C 235.102 1.85929 0.607426 0
M  V30 2539 O 236.308 2.53346 0.97613 0
M  V30 2540 C 234.764 3.26951 -1.50435 0
M  V30 2541 C 234.372 3.31367 -3.01496 0
M  V30 2542 C 236.116 4.03053 -1.33225 0
M  V30 2543 C 234.023 4.7072 -3.58017 0
M  V30 2544 H 232.953 0.682108 -0.321318 0
M  V30 2545 H 235.604 1.24618 -1.34694 0
M  V30 2546 H 233.986 3.84343 -0.953735 0
M  V30 2547 H 235.16 2.83819 -3.6302 0
M  V30 2548 H 233.475 2.6875 -3.18061 0
M  V30 2549 H 236.072 5.05981 -1.72878 0
M  V30 2550 H 236.415 4.15387 -0.275529 0
M  V30 2551 H 236.948 3.52066 -1.85188 0
M  V30 2552 H 233.687 4.63585 -4.63432 0
M  V30 2553 H 233.207 5.1865 -3.01268 0
M  V30 2554 H 234.886 5.39685 -3.56859 0
M  V30 2555 N 235.018 0.912232 1.28515 0
M  V30 2556 C 235.965 0.397954 2.27343 0
M  V30 2557 C 236.935 -0.526766 1.57526 0
M  V30 2558 O 238.12 -0.449292 1.85435 0
M  V30 2559 C 235.26 -0.357263 3.43246 0
M  V30 2560 C 234.373 0.599788 4.27816 0
M  V30 2561 C 233.508 -0.173725 5.30916 0
M  V30 2562 C 232.547 0.777039 6.07148 0
M  V30 2563 N 231.684 0.0371398 7.0209 0
M  V30 2564 H 236.524 1.24577 2.70711 0
M  V30 2565 H 234.061 0.625612 1.33133 0
M  V30 2566 H 236.019 -0.8113 4.09236 0
M  V30 2567 H 234.649 -1.16943 3.00872 0
M  V30 2568 H 233.701 1.17235 3.61884 0
M  V30 2569 H 235.013 1.32704 4.80823 0
M  V30 2570 H 234.167 -0.688394 6.02782 0
M  V30 2571 H 232.906 -0.934041 4.78672 0
M  V30 2572 H 231.911 1.3031 5.34134 0
M  V30 2573 H 233.136 1.53689 6.61481 0
M  V30 2574 H 231.082 -0.705213 6.52198 0
M  V30 2575 H 230.999 0.704249 7.52713 0
M  V30 2576 H 232.267 -0.457383 7.78157 0
M  V30 2577 N 236.496 -1.42363 0.676048 0
M  V30 2578 C 237.773 -1.95183 0.127726 0
M  V30 2579 C 238.153 -1.61641 -1.35777 0
M  V30 2580 O 237.501 -0.913216 -2.09458 0
M  V30 2581 C 237.711 -3.46721 0.398199 0
M  V30 2582 C 239.059 -4.23427 0.315383 0
M  V30 2583 O 240.083 -3.54649 0.332016 0
M  V30 2584 O 238.942 -5.45888 0.25865 0
M  V30 2585 H 236.036 -0.826992 0.00359427 0
M  V30 2586 H 238.582 -1.52184 0.750864 0
M  V30 2587 H 237.354 -3.64344 1.4272 0
M  V30 2588 H 236.977 -3.96769 -0.256885 0
M  V30 2589 N 237.974 -0.419461 -1.51915 0
M  V30 2590 C 239.22 0.153166 -2.02221 0
M  V30 2591 C 239.553 1.43907 -1.30401 0
M  V30 2592 O 238.828 1.90055 -0.413438 0
M  V30 2593 C 239.111 0.390291 -3.57979 0
M  V30 2594 C 238.964 -0.913014 -4.40436 0
M  V30 2595 C 240.283 1.16794 -4.2432 0
M  V30 2596 H 237.402 0.0541924 -0.735005 0
M  V30 2597 H 240.044 -0.554955 -1.81715 0
M  V30 2598 H 238.194 0.993491 -3.75582 0
M  V30 2599 H 239.866 -1.54882 -4.34522 0
M  V30 2600 H 238.109 -1.52168 -4.06236 0
M  V30 2601 H 238.78 -0.701361 -5.47526 0
M  V30 2602 H 241.256 0.657161 -4.10878 0
M  V30 2603 H 240.132 1.3026 -5.3322 0
M  V30 2604 H 240.393 2.19132 -3.83971 0
M  V30 2605 N 239.452 1.56882 -0.150215 0
M  V30 2606 C 240.701 1.95403 0.500071 0
M  V30 2607 C 241.014 1.03777 1.658 0
M  V30 2608 O 242.22 1.31889 2.37313 0
M  V30 2609 C 240.676 3.4738 0.941018 0
M  V30 2610 C 240.284 4.47596 -0.190158 0
M  V30 2611 C 242.028 3.9476 1.56091 0
M  V30 2612 C 239.935 5.90787 0.269237 0
M  V30 2613 H 238.865 0.729515 0.190588 0
M  V30 2614 H 241.516 1.81988 -0.235074 0
M  V30 2615 H 239.898 3.56138 1.73152 0
M  V30 2616 H 241.072 4.50536 -0.967157 0
M  V30 2617 H 239.387 4.10151 -0.718666 0
M  V30 2618 H 241.984 4.99181 1.9163 0
M  V30 2619 H 242.327 3.36494 2.45107 0
M  V30 2620 H 242.86 3.88932 0.835249 0
M  V30 2621 H 239.599 6.52879 -0.585621 0
M  V30 2622 H 239.119 5.912 1.01204 0
M  V30 2623 H 240.798 6.42979 0.720176 0
M  V30 2624 N 240.93 -0.123565 1.57115 0
M  V30 2625 C 241.878 -1.17082 2.00984 0
M  V30 2626 C 242.872 -1.43136 0.906009 0
M  V30 2627 O 244.078 -1.43152 1.09121 0
M  V30 2628 H 240.453 -0.394653 0.64012 0
M  V30 2629 H 242.424 -0.774292 2.88179 0
M  V30 2630 C 241.173 -2.49057 2.42623 0
M  V30 2631 H 240.496 -2.29846 3.27125 0
M  V30 2632 H 241.936 -3.20906 2.7712 0
M  V30 2633 C 240.395 -3.11305 1.28805 0
M  V30 2634 O 240.925 -3.97171 0.60153 0
M  V30 2635 N 239.131 -2.71111 1.04628 0
M  V30 2636 H 238.678 -2.01382 1.60634 0
M  V30 2637 H 238.636 -3.1309 0.286685 0
M  V30 2638 N 242.408 -1.52605 -0.393616 0
M  V30 2639 C 243.341 -1.71798 -1.50202 0
M  V30 2640 C 244.319 -0.565743 -1.52441 0
M  V30 2641 O 245.503 -0.794987 -1.70916 0
M  V30 2642 C 242.63 -1.7714 -2.88685 0
M  V30 2643 C 241.676 -2.98845 -3.04292 0
M  V30 2644 S 242.509 -4.58909 -2.75976 0
M  V30 2645 C 243.665 -4.6706 -4.1666 0
M  V30 2646 H 243.898 -2.65542 -1.33696 0
M  V30 2647 H 241.431 -1.42839 -0.586195 0
M  V30 2648 H 243.389 -1.80903 -3.68489 0
M  V30 2649 H 242.05 -0.844969 -3.02521 0
M  V30 2650 H 241.243 -2.99111 -4.05646 0
M  V30 2651 H 240.845 -2.9305 -2.32374 0
M  V30 2652 H 243.137 -4.45391 -5.10523 0
M  V30 2653 H 244.08 -5.6905 -4.21412 0
M  V30 2654 H 244.488 -3.95944 -4.02354 0
M  V30 2655 N 243.887 0.651787 -1.4349 0
M  V30 2656 C 245.135 1.40888 -1.44897 0
M  V30 2657 C 245.456 1.94856 -0.0749086 0
M  V30 2658 O 244.726 1.74518 0.889956 0
M  V30 2659 H 243.306 0.522887 -0.533478 0
M  V30 2660 H 245.968 0.768609 -1.79104 0
M  V30 2661 H 245.064 2.25052 -2.16236 0
M  V30 2662 N 245.365 1.30045 0.890287 0
M  V30 2663 C 246.59 1.21598 1.68014 0
M  V30 2664 C 247.015 -0.218678 1.86825 0
M  V30 2665 O 246.373 -1.15756 1.39536 0
M  V30 2666 C 246.421 1.94434 3.03691 0
M  V30 2667 O 245.525 1.2678 3.92429 0
M  V30 2668 H 244.866 0.420856 0.513592 0
M  V30 2669 H 247.396 1.71775 1.11151 0
M  V30 2670 H 247.406 2.03251 3.5377 0
M  V30 2671 H 246.081 2.98777 2.89318 0
M  V30 2672 H 244.658 1.26282 3.50866 0
M  V30 2673 N 246.843 -1.10192 1.12674 0
M  V30 2674 C 248.073 -1.85713 0.905213 0
M  V30 2675 C 248.481 -1.81056 -0.549108 0
M  V30 2676 O 247.824 -1.19927 -1.39151 0
M  V30 2677 C 247.886 -3.34972 1.30516 0
M  V30 2678 C 247.55 -3.63385 2.77129 0
M  V30 2679 C 248.547 -3.59772 3.75313 0
M  V30 2680 C 246.232 -3.91981 3.14096 0
M  V30 2681 C 248.226 -3.84354 5.08479 0
M  V30 2682 C 245.913 -4.16218 4.47443 0
M  V30 2683 C 246.911 -4.12395 5.44444 0
M  V30 2684 O 246.599 -4.36014 6.75387 0
M  V30 2685 H 246.331 -0.593719 0.323223 0
M  V30 2686 H 248.885 -1.40198 1.50112 0
M  V30 2687 H 247.115 -3.81156 0.652463 0
M  V30 2688 H 248.804 -3.91886 1.05736 0
M  V30 2689 H 249.57 -3.37716 3.48099 0
M  V30 2690 H 245.449 -3.94085 2.39202 0
M  V30 2691 H 248.993 -3.81285 5.84181 0
M  V30 2692 H 244.89 -4.37754 4.74386 0
M  V30 2693 H 245.658 -4.53516 6.8137 0
M  V30 2694 N 248.321 -0.919034 -1.28029 0
M  V30 2695 C 249.269 -0.401753 -2.29104 0
M  V30 2696 C 250.263 0.509354 -1.61561 0
M  V30 2697 O 251.469 0.390014 -1.75724 0
M  V30 2698 H 247.844 -0.111331 -0.743713 0
M  V30 2699 H 249.815 -1.2672 -2.70156 0
M  V30 2700 C 248.564 0.338148 -3.46052 0
M  V30 2701 H 247.887 -0.353732 -3.98232 0
M  V30 2702 H 249.327 0.664653 -4.18758 0
M  V30 2703 C 247.786 1.54798 -2.99231 0
M  V30 2704 O 248.316 2.64696 -3.02157 0
M  V30 2705 N 246.522 1.3968 -2.54829 0
M  V30 2706 H 246.069 0.502698 -2.52647 0
M  V30 2707 H 246.027 2.20755 -2.23863 0
M  V30 2708 N 249.799 1.42003 -0.683588 0
M  V30 2709 C 251.046 2.01413 -0.209514 0
M  V30 2710 C 251.374 1.54088 1.1869 0
M  V30 2711 O 250.629 0.737591 1.81268 0
M  V30 2712 C 250.928 3.56827 -0.202357 0
M  V30 2713 C 250.594 4.23617 -1.54464 0
M  V30 2714 C 249.256 4.41577 -1.91215 0
M  V30 2715 C 251.608 4.61178 -2.42826 0
M  V30 2716 C 248.936 4.9437 -3.15935 0
M  V30 2717 C 251.288 5.15355 -3.66867 0
M  V30 2718 C 249.952 5.31528 -4.03776 0
M  V30 2719 H 249.222 0.737023 -0.0766668 0
M  V30 2720 H 251.869 1.70067 -0.880312 0
M  V30 2721 H 250.174 3.87892 0.551969 0
M  V30 2722 H 251.871 4.00588 0.181793 0
M  V30 2723 H 248.461 4.10004 -1.24877 0
M  V30 2724 H 252.645 4.46968 -2.15717 0
M  V30 2725 H 247.901 5.05076 -3.44541 0
M  V30 2726 H 252.075 5.43402 -4.35531 0
M  V30 2727 H 249.702 5.72199 -5.00492 0
M  V30 2728 N 251.277 0.427512 1.51691 0
M  V30 2729 C 252.207 -0.3796 2.30394 0
M  V30 2730 C 253.188 -1.02982 1.35384 0
M  V30 2731 O 254.373 -1.03534 1.643 0
M  V30 2732 C 251.503 -1.48649 3.1388 0
M  V30 2733 C 250.457 -0.960294 4.17088 0
M  V30 2734 C 249.783 -2.16219 4.89033 0
M  V30 2735 C 251.083 -0.00153679 5.223 0
M  V30 2736 H 252.777 0.277164 2.98114 0
M  V30 2737 H 250.323 0.134739 1.43368 0
M  V30 2738 H 252.276 -2.05826 3.67714 0
M  V30 2739 H 251 -2.1714 2.43962 0
M  V30 2740 H 249.659 -0.410806 3.64291 0
M  V30 2741 H 249.307 -2.83307 4.15628 0
M  V30 2742 H 249.007 -1.81654 5.58816 0
M  V30 2743 H 250.531 -2.73968 5.45687 0
M  V30 2744 H 251.945 -0.482687 5.71264 0
M  V30 2745 H 250.342 0.256199 5.99553 0
M  V30 2746 H 251.412 0.938174 4.75738 0
M  V30 2747 N 252.755 -1.56801 0.158532 0
M  V30 2748 C 254.003 -1.96102 -0.488712 0
M  V30 2749 C 254.324 -1.04498 -1.64636 0
M  V30 2750 O 253.594 -0.108783 -1.95598 0
M  V30 2751 H 252.174 -0.724102 -0.183535 0
M  V30 2752 H 254.836 -1.93457 0.236728 0
M  V30 2753 H 253.932 -3.00097 -0.857219 0
M  V30 2754 N 254.233 0.115231 -1.57178 0
M  V30 2755 C 255.163 1.1423 -2.03651 0
M  V30 2756 C 256.144 1.42967 -0.921655 0
M  V30 2757 O 257.329 1.53343 -1.19162 0
M  V30 2758 C 254.459 2.4675 -2.44401 0
M  V30 2759 C 253.413 2.32467 -3.59365 0
M  V30 2760 C 252.739 3.69984 -3.86026 0
M  V30 2761 C 254.039 1.78203 -4.90959 0
M  V30 2762 H 255.733 0.755749 -2.89705 0
M  V30 2763 H 253.279 0.362093 -1.39373 0
M  V30 2764 H 255.232 3.18854 -2.75517 0
M  V30 2765 H 253.956 2.87302 -1.55322 0
M  V30 2766 H 252.615 1.62811 -3.28463 0
M  V30 2767 H 252.263 4.08028 -2.94147 0
M  V30 2768 H 251.963 3.61279 -4.63412 0
M  V30 2769 H 253.487 4.43587 -4.19599 0
M  V30 2770 H 254.901 2.40128 -5.20587 0
M  V30 2771 H 253.298 1.8031 -5.72371 0
M  V30 2772 H 254.368 0.739876 -4.79222 0
M  V30 2773 N 255.711 1.52812 0.385517 0
M  V30 2774 C 256.674 1.77188 1.45386 0
M  V30 2775 C 257.674 0.641953 1.4743 0
M  V30 2776 O 258.864 0.910033 1.4854 0
M  V30 2777 C 255.996 1.87582 2.8465 0
M  V30 2778 H 257.189 2.72583 1.25054 0
M  V30 2779 H 254.742 1.43586 0.617467 0
M  V30 2780 H 255.477 0.941849 3.10322 0
M  V30 2781 H 255.262 2.69748 2.84567 0
M  V30 2782 H 256.752 2.08102 3.62054 0
M  V30 2783 N 257.189 -0.644168 1.43834 0
M  V30 2784 C 258.152 -1.73857 1.49353 0
M  V30 2785 C 259.152 -1.56315 0.377112 0
M  V30 2786 O 260.342 -1.62048 0.639226 0
M  V30 2787 C 257.474 -3.12819 1.35488 0
M  V30 2788 H 258.667 -1.70342 2.46827 0
M  V30 2789 H 256.22 -0.856652 1.30733 0
M  V30 2790 H 256.955 -3.2194 0.390569 0
M  V30 2791 H 256.74 -3.26958 2.16428 0
M  V30 2792 H 258.23 -3.92606 1.42302 0
M  V30 2793 N 258.668 -1.30515 -0.883378 0
M  V30 2794 C 259.615 -1.17032 -1.98927 0
M  V30 2795 C 260.585 -0.0594241 -1.65994 0
M  V30 2796 O 261.77 -0.229895 -1.8941 0
M  V30 2797 C 258.91 -0.869777 -3.33959 0
M  V30 2798 C 258.023 -2.06271 -3.79574 0
M  V30 2799 C 257.158 -1.70011 -5.03259 0
M  V30 2800 C 256.197 -2.8579 -5.41286 0
M  V30 2801 N 255.334 -2.49816 -6.56153 0
M  V30 2802 H 260.174 -2.1164 -2.09792 0
M  V30 2803 H 257.711 -1.05296 -1.02719 0
M  V30 2804 H 259.669 -0.676138 -4.11685 0
M  V30 2805 H 258.299 0.0394332 -3.22776 0
M  V30 2806 H 257.351 -2.36755 -2.97744 0
M  V30 2807 H 258.663 -2.92971 -4.03694 0
M  V30 2808 H 257.817 -1.47032 -5.88614 0
M  V30 2809 H 256.556 -0.804829 -4.81013 0
M  V30 2810 H 255.561 -3.09434 -4.54456 0
M  V30 2811 H 256.786 -3.76008 -5.65504 0
M  V30 2812 H 254.732 -1.62795 -6.35479 0
M  V30 2813 H 254.649 -3.30048 -6.8015 0
M  V30 2814 H 255.917 -2.30197 -7.44735 0
M  V30 2815 N 260.146 1.09593 -1.13257 0
M  V30 2816 C 261.376 1.85231 -0.915049 0
M  V30 2817 C 261.784 1.81345 0.539498 0
M  V30 2818 O 261.127 1.20664 1.38513 0
M  V30 2819 C 261.189 3.34275 -1.3229 0
M  V30 2820 C 260.853 3.6191 -2.79052 0
M  V30 2821 C 261.85 3.57777 -3.77216 0
M  V30 2822 C 259.535 3.90309 -3.16171 0
M  V30 2823 C 261.529 3.81652 -5.1051 0
M  V30 2824 C 259.216 4.13839 -4.49644 0
M  V30 2825 C 260.214 4.09502 -5.46623 0
M  V30 2826 O 259.902 4.32426 -6.77689 0
M  V30 2827 H 259.634 0.591997 -0.326367 0
M  V30 2828 H 262.188 1.394 -1.50854 0
M  V30 2829 H 260.418 3.80805 -0.672667 0
M  V30 2830 H 262.107 3.9132 -1.07812 0
M  V30 2831 H 262.873 3.35865 -3.49885 0
M  V30 2832 H 258.752 3.92811 -2.41289 0
M  V30 2833 H 262.296 3.78182 -5.86195 0
M  V30 2834 H 258.193 4.35232 -4.767 0
M  V30 2835 H 258.961 4.49896 -6.83766 0
M  V30 2836 N 261.624 0.925811 1.2754 0
M  V30 2837 C 262.901 0.483726 1.89524 0
M  V30 2838 C 263.281 -1.03809 1.83812 0
M  V30 2839 O 262.629 -1.89143 1.28207 0
M  V30 2840 C 262.839 1.02769 3.33526 0
M  V30 2841 C 264.187 1.08703 4.10449 0
M  V30 2842 O 265.211 0.977175 3.42534 0
M  V30 2843 O 264.07 1.25599 5.31871 0
M  V30 2844 H 261.164 0.15529 0.812289 0
M  V30 2845 H 263.71 1.01738 1.35822 0
M  V30 2846 H 262.482 2.07155 3.31967 0
M  V30 2847 H 262.105 0.475567 3.94746 0
M  V30 2848 N 263.102 -1.41638 0.69111 0
M  V30 2849 C 264.012 -2.34588 0.0233487 0
M  V30 2850 C 265.028 -1.55987 -0.770984 0
M  V30 2851 O 266.204 -1.88486 -0.709569 0
M  V30 2852 C 263.269 -3.34684 -0.904851 0
M  V30 2853 C 262.33 -4.29176 -0.103225 0
M  V30 2854 C 261.563 -5.2449 -0.987216 0
M  V30 2855 O 261.786 -5.2514 -2.22674 0
M  V30 2856 O 260.72 -6.00295 -0.439281 0
M  V30 2857 H 264.546 -2.93261 0.789416 0
M  V30 2858 H 262.131 -1.42417 0.45142 0
M  V30 2859 H 264.013 -3.96133 -1.43724 0
M  V30 2860 H 262.688 -2.78461 -1.65049 0
M  V30 2861 H 261.595 -3.71089 0.473655 0
M  V30 2862 H 262.928 -4.88484 0.60365 0
M  V30 2863 N 264.58 -0.43555 -1.51462 0
M  V30 2864 C 265.805 0.132627 -2.06976 0
M  V30 2865 C 266.23 1.35848 -1.30104 0
M  V30 2866 O 265.588 1.78112 -0.338493 0
M  V30 2867 C 265.636 0.43523 -3.57964 0
M  V30 2868 O 264.74 1.52198 -3.83288 0
M  V30 2869 H 264.081 0.00265 -0.663995 0
M  V30 2870 H 266.611 -0.616369 -1.95095 0
M  V30 2871 H 266.621 0.686206 -4.02188 0
M  V30 2872 H 265.296 -0.460739 -4.1334 0
M  V30 2873 H 263.873 1.2611 -3.50928 0
M  V30 2874 N 266.058 1.56714 -0.166846 0
M  V30 2875 C 266.991 2.13577 0.80375 0
M  V30 2876 C 267.969 1.06464 1.22899 0
M  V30 2877 O 269.153 1.34413 1.32157 0
M  V30 2878 C 266.28 2.67168 2.0818 0
M  V30 2879 C 265.326 3.86612 1.80093 0
M  V30 2880 S 266.159 5.26565 0.97416 0
M  V30 2881 C 267.315 5.83558 2.26297 0
M  V30 2882 H 267.548 2.9557 0.320267 0
M  V30 2883 H 265.081 1.54326 0.0477555 0
M  V30 2884 H 267.039 2.98692 2.8159 0
M  V30 2885 H 265.7 1.85269 2.53642 0
M  V30 2886 H 264.893 4.22422 2.7491 0
M  V30 2887 H 264.495 3.55951 1.14781 0
M  V30 2888 H 266.787 5.962 3.21795 0
M  V30 2889 H 267.73 6.80731 1.94962 0
M  V30 2890 H 268.138 5.11944 2.37853 0
M  V30 2891 N 267.536 -0.106894 1.57237 0
M  V30 2892 C 268.952 -0.46078 1.52804 0
M  V30 2893 C 269.152 -1.81184 0.881746 0
M  V30 2894 O 268.208 -2.48102 0.469224 0
M  V30 2895 C 269.521 -0.434127 2.9755 0
M  V30 2896 C 271.069 -0.516821 3.08704 0
M  V30 2897 C 271.544 -0.520436 4.55033 0
M  V30 2898 N 273.035 -0.58153 4.59535 0
M  V30 2899 C 273.77 -0.605973 5.70189 0
M  V30 2900 N 273.266 -0.587331 6.90306 0
M  V30 2901 N 275.059 -0.649895 5.5833 0
M  V30 2902 H 267.21 0.778203 1.9763 0
M  V30 2903 H 269.473 0.288403 0.903066 0
M  V30 2904 H 269.179 0.491197 3.48253 0
M  V30 2905 H 269.053 -1.25748 3.55622 0
M  V30 2906 H 271.44 -1.43256 2.57995 0
M  V30 2907 H 271.521 0.334449 2.53604 0
M  V30 2908 H 271.165 0.391313 5.0639 0
M  V30 2909 H 271.095 -1.38876 5.07958 0
M  V30 2910 H 273.586 -0.60161 3.73081 0
M  V30 2911 H 273.899 -0.60894 7.70397 0
M  V30 2912 H 272.244 -0.554564 6.92784 0
M  V30 2913 H 275.435 -0.661907 4.63397 0
M  V30 2914 H 275.608 -0.665476 6.44574 0
M  V30 2915 N 269.014 -1.53014 -0.377408 0
M  V30 2916 C 270.242 -1.72515 -1.14219 0
M  V30 2917 C 270.657 -0.448735 -1.8339 0
M  V30 2918 O 270.014 0.577592 -1.73119 0
M  V30 2919 C 270.065 -2.8826 -2.18148 0
M  V30 2920 O 269.786 -4.10962 -1.51795 0
M  V30 2921 C 271.287 -3.19536 -3.07264 0
M  V30 2922 H 268.507 -0.577301 -0.342001 0
M  V30 2923 H 271.051 -1.99712 -0.439935 0
M  V30 2924 H 269.206 -2.63492 -2.83991 0
M  V30 2925 H 269.62 -4.75693 -2.20945 0
M  V30 2926 H 271.094 -4.03959 -3.76193 0
M  V30 2927 H 271.571 -2.34403 -3.71419 0
M  V30 2928 H 272.177 -3.46186 -2.47053 0
M  V30 2929 N 270.492 0.636531 -1.44174 0
M  V30 2930 C 271.741 1.39213 -1.45954 0
M  V30 2931 C 272.054 1.95374 -0.0939119 0
M  V30 2932 O 273.26 2.71498 0.0107767 0
M  V30 2933 C 271.716 2.52025 -2.56927 0
M  V30 2934 C 271.324 2.024 -3.99673 0
M  V30 2935 C 273.068 3.29269 -2.67922 0
M  V30 2936 C 270.975 3.12521 -5.0208 0
M  V30 2937 H 269.905 0.523132 -0.542999 0
M  V30 2938 H 272.556 0.685349 -1.70221 0
M  V30 2939 H 270.938 3.25253 -2.25891 0
M  V30 2940 H 272.112 1.36073 -4.40251 0
M  V30 2941 H 270.427 1.37987 -3.92872 0
M  V30 2942 H 273.024 4.11352 -3.41605 0
M  V30 2943 H 273.367 3.78397 -1.73555 0
M  V30 2944 H 273.9 2.63129 -2.98342 0
M  V30 2945 H 270.639 2.68343 -5.98057 0
M  V30 2946 H 270.159 3.77507 -4.66099 0
M  V30 2947 H 271.838 3.77385 -5.25538 0
M  V30 2948 N 271.97 1.30982 0.876444 0
M  V30 2949 C 272.917 1.18085 1.98304 0
M  V30 2950 C 273.887 0.0682263 1.6596 0
M  V30 2951 O 275.072 0.239937 1.89285 0
M  V30 2952 C 272.212 0.887475 3.33493 0
M  V30 2953 C 271.325 2.08281 3.78475 0
M  V30 2954 C 270.46 1.72678 5.0235 0
M  V30 2955 C 269.499 2.88657 5.39762 0
M  V30 2956 N 268.636 2.53292 6.54819 0
M  V30 2957 H 273.476 2.1275 2.08666 0
M  V30 2958 H 271.013 1.05839 1.02159 0
M  V30 2959 H 272.971 0.697961 4.1132 0
M  V30 2960 H 271.601 -0.022315 3.22792 0
M  V30 2961 H 270.653 2.3833 2.96484 0
M  V30 2962 H 271.965 2.95108 4.02135 0
M  V30 2963 H 271.119 1.50151 5.87826 0
M  V30 2964 H 269.858 0.830327 4.8058 0
M  V30 2965 H 268.863 3.1184 4.52809 0
M  V30 2966 H 270.088 3.79002 5.63502 0
M  V30 2967 H 268.034 1.66163 6.34607 0
M  V30 2968 H 267.951 3.3365 6.7839 0
M  V30 2969 H 269.219 2.34143 7.43503 0
M  V30 2970 N 273.449 -1.08991 1.13837 0
M  V30 2971 C 274.726 -1.77863 0.813876 0
M  V30 2972 C 275.106 -1.99375 -0.693746 0
M  V30 2973 O 274.454 -1.59875 -1.63255 0
M  V30 2974 C 274.664 -3.0986 1.60586 0
M  V30 2975 C 276.012 -3.84493 1.8014 0
M  V30 2976 O 277.036 -3.19624 1.57222 0
M  V30 2977 O 275.895 -5.00957 2.18413 0
M  V30 2978 H 272.989 -0.771589 0.297624 0
M  V30 2979 H 275.535 -1.15507 1.24323 0
M  V30 2980 H 274.307 -2.89715 2.63022 0
M  V30 2981 H 273.93 -3.79942 1.17173 0
M  V30 2982 N 274.927 -0.932562 -1.27047 0
M  V30 2983 C 276.173 -0.576412 -1.94436 0
M  V30 2984 C 276.506 0.880891 -1.73072 0
M  V30 2985 O 275.781 1.62905 -1.06264 0
M  V30 2986 C 276.064 -0.909031 -3.48437 0
M  V30 2987 C 275.917 -2.42044 -3.79123 0
M  V30 2988 C 277.236 -0.418341 -4.38107 0
M  V30 2989 H 274.355 -0.210888 -0.706184 0
M  V30 2990 H 276.997 -1.16522 -1.50075 0
M  V30 2991 H 275.147 -0.407947 -3.86352 0
M  V30 2992 H 276.819 -2.99359 -3.50973 0
M  V30 2993 H 275.062 -2.86758 -3.25503 0
M  V30 2994 H 275.733 -2.6037 -4.86736 0
M  V30 2995 H 278.209 -0.847856 -4.0737 0
M  V30 2996 H 277.085 -0.679981 -5.44672 0
M  V30 2997 H 277.346 0.681642 -4.36814 0
M  V30 2998 N 276.405 1.4127 -0.698611 0
M  V30 2999 C 277.335 2.33447 -0.049629 0
M  V30 3000 C 278.316 1.51982 0.763898 0
M  V30 3001 O 279.501 1.80509 0.716257 0
M  V30 3002 C 276.631 3.35828 0.885267 0
M  V30 3003 C 275.585 4.27627 0.178613 0
M  V30 3004 C 274.911 5.20406 1.22807 0
M  V30 3005 C 276.211 5.13459 -0.956933 0
M  V30 3006 H 277.905 2.87966 -0.81951 0
M  V30 3007 H 275.451 1.38461 -0.395538 0
M  V30 3008 H 277.404 3.9924 1.34854 0
M  V30 3009 H 276.128 2.79666 1.68685 0
M  V30 3010 H 274.787 3.65643 -0.26466 0
M  V30 3011 H 274.435 4.60558 2.02226 0
M  V30 3012 H 274.135 5.82661 0.760239 0
M  V30 3013 H 275.659 5.86695 1.69179 0
M  V30 3014 H 277.073 5.70421 -0.573805 0
M  V30 3015 H 275.47 5.8467 -1.35205 0
M  V30 3016 H 276.54 4.50443 -1.79524 0
M  V30 3017 N 277.883 0.443576 1.51229 0
M  V30 3018 C 278.793 -0.370721 2.31652 0
M  V30 3019 C 279.809 -1.02186 1.40833 0
M  V30 3020 O 280.985 -1.01586 1.73903 0
M  V30 3021 C 278.05 -1.45376 3.14749 0
M  V30 3022 C 277.111 -0.822099 4.21355 0
M  V30 3023 C 276.344 -1.85353 5.0048 0
M  V30 3024 O 276.567 -3.07656 4.80316 0
M  V30 3025 O 275.501 -1.4406 5.84406 0
M  V30 3026 H 279.327 0.286002 3.0235 0
M  V30 3027 H 276.912 0.20598 1.47973 0
M  V30 3028 H 278.794 -2.08173 3.66391 0
M  V30 3029 H 277.469 -2.09445 2.46809 0
M  V30 3030 H 276.376 -0.155909 3.73775 0
M  V30 3031 H 277.709 -0.224797 4.91686 0
M  V30 3032 N 279.361 -1.56624 0.175154 0
M  V30 3033 C 280.607 -1.9729 -0.469506 0
M  V30 3034 C 280.94 -1.06128 -1.62636 0
M  V30 3035 O 280.215 -0.109183 -1.94193 0
M  V30 3036 C 280.498 -3.47375 -0.948804 0
M  V30 3037 C 280.351 -4.49317 0.208491 0
M  V30 3038 C 281.67 -4.00652 -1.82116 0
M  V30 3039 H 278.789 -0.717317 -0.16919 0
M  V30 3040 H 281.431 -1.88184 0.262062 0
M  V30 3041 H 279.581 -3.55267 -1.57219 0
M  V30 3042 H 281.253 -4.53482 0.845682 0
M  V30 3043 H 279.496 -4.25121 0.863395 0
M  V30 3044 H 280.167 -5.51741 -0.169059 0
M  V30 3045 H 282.643 -3.95416 -1.2956 0
M  V30 3046 H 281.519 -5.06075 -2.12554 0
M  V30 3047 H 281.78 -3.44699 -2.7683 0
M  V30 3048 N 280.839 0.0985539 -1.57292 0
M  V30 3049 C 282.069 0.815135 -1.8984 0
M  V30 3050 C 282.477 1.7297 -0.766679 0
M  V30 3051 O 281.82 1.81698 0.270483 0
M  V30 3052 C 281.882 1.6842 -3.17608 0
M  V30 3053 C 281.546 0.94182 -4.4719 0
M  V30 3054 C 282.543 0.273212 -5.19182 0
M  V30 3055 C 280.228 0.916927 -4.9386 0
M  V30 3056 C 282.222 -0.410361 -6.36078 0
M  V30 3057 C 279.909 0.229567 -6.10669 0
M  V30 3058 C 280.907 -0.432902 -6.81627 0
M  V30 3059 O 280.595 -1.10925 -7.9621 0
M  V30 3060 H 280.327 0.238501 -0.632529 0
M  V30 3061 H 282.881 0.0812659 -2.05239 0
M  V30 3062 H 281.111 2.46022 -2.98345 0
M  V30 3063 H 282.8 2.27704 -3.36015 0
M  V30 3064 H 283.566 0.283927 -4.84168 0
M  V30 3065 H 279.445 1.42201 -4.3852 0
M  V30 3066 H 282.989 -0.928013 -6.914 0
M  V30 3067 H 278.886 0.216686 -6.45136 0
M  V30 3068 H 279.654 -1.01579 -8.12172 0
M  V30 3069 N 282.317 1.53212 0.369288 0
M  V30 3070 C 283.565 1.68881 1.11012 0
M  V30 3071 C 283.886 0.441285 1.89941 0
M  V30 3072 O 283.156 -0.544623 1.88177 0
M  V30 3073 H 281.736 0.622569 0.412816 0
M  V30 3074 H 284.398 1.90391 0.416802 0
M  V30 3075 H 283.494 2.54822 1.80201 0
M  V30 3076 N 283.795 -0.628877 1.44509 0
M  V30 3077 C 285.023 -1.41554 1.50897 0
M  V30 3078 C 285.438 -1.8832 0.134564 0
M  V30 3079 O 284.795 -1.60969 -0.859965 0
M  V30 3080 C 284.846 -2.63435 2.47556 0
M  V30 3081 O 284.567 -2.18619 3.79654 0
M  V30 3082 C 286.068 -3.56537 2.63431 0
M  V30 3083 H 283.288 -0.434044 0.511709 0
M  V30 3084 H 285.832 -0.768895 1.89495 0
M  V30 3085 H 283.987 -3.24187 2.12089 0
M  V30 3086 H 284.401 -2.97652 4.31861 0
M  V30 3087 H 285.875 -4.38657 3.35088 0
M  V30 3088 H 286.352 -4.05493 1.68738 0
M  V30 3089 H 286.958 -3.01653 2.9981 0
M  V30 3090 N 285.273 -1.31445 -0.869486 0
M  V30 3091 C 286.521 -1.20918 -1.61936 0
M  V30 3092 C 286.842 0.232683 -1.93607 0
M  V30 3093 O 286.112 1.15352 -1.58338 0
M  V30 3094 H 284.692 -0.44454 -0.600328 0
M  V30 3095 H 287.354 -1.64776 -1.0409 0
M  V30 3096 H 286.45 -1.78124 -2.56278 0
M  V30 3097 N 286.751 1.08385 -1.14413 0
M  V30 3098 C 287.997 1.81044 -0.913834 0
M  V30 3099 C 288.33 1.86004 0.558209 0
M  V30 3100 O 287.605 1.33606 1.4135 0
M  V30 3101 C 287.888 3.26648 -1.51569 0
M  V30 3102 C 287.741 3.29895 -3.0576 0
M  V30 3103 C 289.06 4.23629 -1.19273 0
M  V30 3104 H 286.179 0.65727 -0.333414 0
M  V30 3105 H 288.821 1.26896 -1.41412 0
M  V30 3106 H 286.971 3.72889 -1.09023 0
M  V30 3107 H 288.643 2.91977 -3.57137 0
M  V30 3108 H 286.886 2.69163 -3.40197 0
M  V30 3109 H 287.557 4.32516 -3.42977 0
M  V30 3110 H 290.033 3.85727 -1.56057 0
M  V30 3111 H 288.909 5.23822 -1.64017 0
M  V30 3112 H 289.17 4.41968 -0.108068 0
M  V30 3113 N 288.23 0.939286 1.26551 0
M  V30 3114 C 289.193 0.451987 2.24699 0
M  V30 3115 C 290.193 -0.435869 1.5478 0
M  V30 3116 O 291.383 -0.235314 1.72603 0
M  V30 3117 C 288.515 -0.348801 3.39111 0
M  V30 3118 H 289.708 1.3193 2.69322 0
M  V30 3119 H 287.261 0.721072 1.38673 0
M  V30 3120 H 287.996 -1.23444 2.99887 0
M  V30 3121 H 287.781 0.287945 3.91041 0
M  V30 3122 H 289.271 -0.679726 4.12031 0
M  V30 3123 N 289.708 -1.40897 0.706093 0
M  V30 3124 C 290.933 -2.05895 0.249435 0
M  V30 3125 C 291.358 -1.52823 -1.09666 0
M  V30 3126 O 290.716 -0.659589 -1.68876 0
M  V30 3127 C 290.764 -3.59872 0.22904 0
M  V30 3128 O 289.868 -4.04708 -0.792784 0
M  V30 3129 H 289.209 -0.653206 0.119241 0
M  V30 3130 H 291.739 -1.80471 0.96391 0
M  V30 3131 H 291.749 -4.07951 0.0634791 0
M  V30 3132 H 290.424 -3.97866 1.21141 0
M  V30 3133 H 289.001 -3.68111 -0.59572 0
M  V30 3134 N 291.186 -0.45159 -1.50991 0
M  V30 3135 C 292.414 0.108334 -2.06616 0
M  V30 3136 C 292.829 1.35224 -1.31757 0
M  V30 3137 O 292.186 1.78475 -0.381174 0
M  V30 3138 C 292.237 0.41619 -3.59096 0
M  V30 3139 O 291.958 -0.778361 -4.3113 0
M  V30 3140 C 293.459 1.02523 -4.31282 0
M  V30 3141 H 290.679 0.00159995 -0.670998 0
M  V30 3142 H 293.223 -0.634771 -1.94399 0
M  V30 3143 H 291.378 1.10921 -3.71181 0
M  V30 3144 H 291.792 -0.511181 -5.22003 0
M  V30 3145 H 293.266 1.19053 -5.39009 0
M  V30 3146 H 293.743 2.01013 -3.905 0
M  V30 3147 H 294.349 0.371173 -4.23677 0
M  V30 3148 N 292.664 1.56529 -0.183458 0
M  V30 3149 C 294.08 1.58664 0.172554 0
M  V30 3150 C 294.28 1.19925 1.61926 0
M  V30 3151 O 293.336 0.916534 2.35278 0
M  V30 3152 C 294.649 3.00463 -0.119262 0
M  V30 3153 C 296.197 3.12945 -0.0584396 0
M  V30 3154 C 296.672 4.56857 -0.323408 0
M  V30 3155 N 298.163 4.62403 -0.271612 0
M  V30 3156 C 298.898 5.71626 -0.450639 0
M  V30 3157 N 298.394 6.89362 -0.689384 0
M  V30 3158 N 300.187 5.60775 -0.385701 0
M  V30 3159 H 292.338 1.79994 -1.12765 0
M  V30 3160 H 294.601 0.834808 -0.449222 0
M  V30 3161 H 294.307 3.33326 -1.12192 0
M  V30 3162 H 294.181 3.72659 0.583544 0
M  V30 3163 H 296.568 2.79902 0.934805 0
M  V30 3164 H 296.649 2.4316 -0.794144 0
M  V30 3165 H 296.293 4.9061 -1.31392 0
M  V30 3166 H 296.223 5.24816 0.43305 0
M  V30 3167 H 298.714 3.77785 -0.0932256 0
M  V30 3168 H 299.027 7.68489 -0.815113 0
M  V30 3169 H 297.372 6.91196 -0.726142 0
M  V30 3170 H 300.563 4.67674 -0.199687 0
M  V30 3171 H 300.736 6.4584 -0.528646 0
M  V30 3172 N 294.142 -0.090211 1.57342 0
M  V30 3173 C 295.092 -1.11557 1.98844 0
M  V30 3174 C 296.076 -1.35503 0.867624 0
M  V30 3175 O 297.268 -1.36113 1.13148 0
M  V30 3176 C 294.397 -2.43446 2.42051 0
M  V30 3177 C 293.483 -2.22853 3.60828 0
M  V30 3178 N 293.874 -1.72141 4.75606 0
M  V30 3179 C 292.172 -2.53401 3.67021 0
M  V30 3180 C 292.873 -1.65932 5.57531 0
M  V30 3181 N 291.849 -2.11323 5.00843 0
M  V30 3182 H 295.651 -0.716499 2.85032 0
M  V30 3183 H 293.165 -0.297567 1.59651 0
M  V30 3184 H 295.162 -3.17644 2.70014 0
M  V30 3185 H 293.822 -2.84087 1.57241 0
M  V30 3186 H 294.833 -1.41268 4.98261 0
M  V30 3187 H 291.51 -2.97532 2.92884 0
M  V30 3188 H 292.9 -1.27733 6.59647 0
M  V30 3189 N 295.62 -1.53406 -0.361157 0
M  V30 3190 C 296.53 -1.83122 -1.4664 0
M  V30 3191 C 297.546 -0.719943 -1.58407 0
M  V30 3192 O 298.722 -1.01046 -1.74218 0
M  V30 3193 C 295.787 -2.01891 -2.81853 0
M  V30 3194 C 294.848 -3.25784 -2.79577 0
M  V30 3195 C 294.081 -3.43648 -4.0834 0
M  V30 3196 O 294.304 -2.65714 -5.0473 0
M  V30 3197 O 293.238 -4.37018 -4.13883 0
M  V30 3198 H 297.064 -2.7703 -1.24451 0
M  V30 3199 H 294.649 -1.38841 -0.551678 0
M  V30 3200 H 296.531 -2.15782 -3.61962 0
M  V30 3201 H 295.206 -1.11173 -3.0401 0
M  V30 3202 H 294.113 -3.17312 -1.98151 0
M  V30 3203 H 295.446 -4.16439 -2.62373 0
M  V30 3204 N 297.098 0.621204 -1.44841 0
M  V30 3205 C 298.031 1.7459 -1.46947 0
M  V30 3206 C 299.009 1.59273 -0.327238 0
M  V30 3207 O 300.193 1.81021 -0.525706 0
M  V30 3208 C 297.32 3.12274 -1.31159 0
M  V30 3209 C 296.366 3.46216 -2.49072 0
M  V30 3210 S 297.199 3.4258 -4.11581 0
M  V30 3211 C 298.355 4.82867 -3.98233 0
M  V30 3212 H 298.588 1.72538 -2.42111 0
M  V30 3213 H 296.121 0.796683 -1.32259 0
M  V30 3214 H 298.079 3.91722 -1.22737 0
M  V30 3215 H 296.74 3.11855 -0.374885 0
M  V30 3216 H 295.933 4.4643 -2.33915 0
M  V30 3217 H 295.535 2.74253 -2.54286 0
M  V30 3218 H 297.827 5.7234 -3.62537 0
M  V30 3219 H 298.77 5.0308 -4.98313 0
M  V30 3220 H 299.178 4.57908 -3.30121 0
M  V30 3221 N 298.576 1.31904 0.862503 0
M  V30 3222 C 299.824 1.21776 1.61292 0
M  V30 3223 C 300.145 -0.222413 1.93727 0
M  V30 3224 O 299.415 -1.1451 1.58947 0
M  V30 3225 H 297.995 0.447717 0.597962 0
M  V30 3226 H 300.657 1.65326 1.03215 0
M  V30 3227 H 299.753 1.7948 2.5533 0
M  V30 3228 N 300.054 -1.07777 1.14986 0
M  V30 3229 C 301.282 -1.84018 0.945773 0
M  V30 3230 C 301.697 -1.81897 -0.505863 0
M  V30 3231 O 301.054 -1.22726 -1.35072 0
M  V30 3232 C 301.105 -3.31287 1.44677 0
M  V30 3233 O 300.826 -3.33449 2.84154 0
M  V30 3234 C 302.327 -4.24311 1.28355 0
M  V30 3235 H 299.547 -0.580716 0.336169 0
M  V30 3236 H 302.091 -1.36077 1.52654 0
M  V30 3237 H 300.246 -3.76594 0.908625 0
M  V30 3238 H 300.66 -4.25427 3.06777 0
M  V30 3239 H 302.134 -5.2573 1.68261 0
M  V30 3240 H 302.611 -4.38612 0.227184 0
M  V30 3241 H 303.217 -3.84836 1.81056 0
M  V30 3242 N 301.532 -0.945985 -1.26051 0
M  V30 3243 C 302.462 -0.477172 -2.28572 0
M  V30 3244 C 303.443 0.472032 -1.63419 0
M  V30 3245 O 304.628 0.372853 -1.90587 0
M  V30 3246 C 301.758 0.253975 -3.4637 0
M  V30 3247 C 300.712 -0.609135 -4.23643 0
M  V30 3248 C 300.038 0.252252 -5.34105 0
M  V30 3249 C 301.338 -1.8829 -4.8718 0
M  V30 3250 H 303.032 -1.33402 -2.68038 0
M  V30 3251 H 300.578 -0.642904 -1.28852 0
M  V30 3252 H 302.531 0.593016 -4.17207 0
M  V30 3253 H 301.255 1.145 -3.05871 0
M  V30 3254 H 299.914 -0.931138 -3.54578 0
M  V30 3255 H 299.562 1.14278 -4.89846 0
M  V30 3256 H 299.262 -0.32188 -5.86718 0
M  V30 3257 H 300.786 0.586454 -6.07777 0
M  V30 3258 H 302.2 -1.61081 -5.50205 0
M  V30 3259 H 300.597 -2.40199 -5.49931 0
M  V30 3260 H 301.667 -2.59134 -4.09851 0
M  V30 3261 N 303.011 1.40521 -0.713556 0
M  V30 3262 C 304.288 1.94775 -0.17943 0
M  V30 3263 C 304.668 1.65184 1.31444 0
M  V30 3264 O 304.016 0.968429 2.06963 0
M  V30 3265 C 304.226 3.45543 -0.489986 0
M  V30 3266 C 305.574 4.22442 -0.427536 0
M  V30 3267 O 306.598 3.53644 -0.425929 0
M  V30 3268 O 305.457 5.4501 -0.403292 0
M  V30 3269 H 302.551 0.826606 -0.0255192 0
M  V30 3270 H 305.097 1.5014 -0.790949 0
M  V30 3271 H 303.869 3.60432 -1.5233 0
M  V30 3272 H 303.492 3.97311 0.151598 0
M  V30 3273 N 304.489 0.459591 1.5075 0
M  V30 3274 C 305.436 -0.340524 2.28274 0
M  V30 3275 C 306.406 -0.997371 1.32822 0
M  V30 3276 O 307.591 -1.01202 1.61749 0
M  V30 3277 C 304.731 -1.42317 3.14388 0
M  V30 3278 C 303.844 -0.782251 4.24859 0
M  V30 3279 C 302.979 -1.84182 4.98247 0
M  V30 3280 C 302.018 -1.18053 6.00608 0
M  V30 3281 N 301.155 -2.18244 6.67319 0
M  V30 3282 H 305.995 0.326899 2.96202 0
M  V30 3283 H 303.532 0.173057 1.46078 0
M  V30 3284 H 305.49 -2.06241 3.62658 0
M  V30 3285 H 304.12 -2.05992 2.4853 0
M  V30 3286 H 303.172 -0.0307404 3.80388 0
M  V30 3287 H 304.484 -0.259663 4.98124 0
M  V30 3288 H 303.638 -2.55714 5.50177 0
M  V30 3289 H 302.377 -2.39819 4.24662 0
M  V30 3290 H 301.382 -0.450776 5.47949 0
M  V30 3291 H 302.607 -0.631202 6.7616 0
M  V30 3292 H 300.553 -2.72919 5.96533 0
M  V30 3293 H 300.47 -1.70938 7.36421 0
M  V30 3294 H 301.738 -2.89191 7.23871 0
M  V30 3295 N 305.967 -1.56429 0.191757 0
M  V30 3296 C 306.917 -2.15548 -0.743184 0
M  V30 3297 C 307.901 -1.09531 -1.17863 0
M  V30 3298 O 309.093 -1.35602 -1.13759 0
M  V30 3299 C 306.222 -2.81577 -1.96391 0
M  V30 3300 C 305.308 -3.9478 -1.54951 0
M  V30 3301 N 305.699 -4.98677 -0.845876 0
M  V30 3302 C 303.997 -4.06319 -1.83905 0
M  V30 3303 C 304.698 -5.78183 -0.638724 0
M  V30 3304 N 303.674 -5.30495 -1.18643 0
M  V30 3305 H 307.476 -2.9324 -0.196839 0
M  V30 3306 H 304.99 -1.62398 -0.0081603 0
M  V30 3307 H 306.987 -3.22321 -2.64415 0
M  V30 3308 H 305.647 -2.05371 -2.51501 0
M  V30 3309 H 306.658 -5.15464 -0.501704 0
M  V30 3310 H 303.335 -3.41238 -2.40548 0
M  V30 3311 H 304.725 -6.71851 -0.0807929 0
M  V30 3312 N 307.445 0.0818655 -1.57387 0
M  V30 3313 C 308.392 1.09834 -2.0299 0
M  V30 3314 C 309.362 1.39043 -0.908639 0
M  V30 3315 O 310.547 1.50282 -1.17559 0
M  V30 3316 C 307.687 2.40971 -2.47037 0
M  V30 3317 C 306.8 2.18379 -3.7274 0
M  V30 3318 C 305.935 3.43008 -4.0561 0
M  V30 3319 C 304.974 3.15736 -5.24383 0
M  V30 3320 N 304.111 4.32667 -5.52941 0
M  V30 3321 H 308.951 0.702472 -2.89602 0
M  V30 3322 H 306.488 0.33531 -1.43227 0
M  V30 3323 H 308.446 3.1752 -2.70623 0
M  V30 3324 H 307.076 2.78379 -1.63417 0
M  V30 3325 H 306.128 1.32569 -3.56552 0
M  V30 3326 H 307.44 1.94227 -4.59431 0
M  V30 3327 H 306.594 4.27958 -4.30043 0
M  V30 3328 H 305.333 3.70225 -3.17466 0
M  V30 3329 H 304.338 2.2918 -4.99757 0
M  V30 3330 H 305.563 2.8985 -6.14136 0
M  V30 3331 H 303.509 4.59935 -4.67756 0
M  V30 3332 H 303.426 4.11753 -6.34031 0
M  V30 3333 H 304.694 5.18644 -5.81918 0
M  V30 3334 N 308.923 1.53595 0.353017 0
M  V30 3335 C 309.833 1.83897 1.45667 0
M  V30 3336 C 310.849 0.728334 1.58023 0
M  V30 3337 O 312.025 1.01968 1.73679 0
M  V30 3338 C 309.09 2.03383 2.80778 0
M  V30 3339 C 308.151 3.27262 2.77845 0
M  V30 3340 C 307.384 3.45809 4.06512 0
M  V30 3341 O 307.607 2.68387 5.03314 0
M  V30 3342 O 306.541 4.39207 4.11559 0
M  V30 3343 H 310.367 2.77686 1.2298 0
M  V30 3344 H 307.952 1.39132 0.544308 0
M  V30 3345 H 309.834 2.17698 3.60812 0
M  V30 3346 H 308.509 1.12783 3.03417 0
M  V30 3347 H 307.416 3.18359 1.96465 0
M  V30 3348 H 308.749 4.17824 2.60161 0
M  V30 3349 N 310.401 -0.613514 1.45168 0
M  V30 3350 C 311.331 -1.7354 1.56225 0
M  V30 3351 C 312.312 -1.64981 0.41414 0
M  V30 3352 O 313.497 -1.83472 0.636526 0
M  V30 3353 C 310.627 -3.12128 1.52295 0
M  V30 3354 C 309.581 -3.35491 2.65762 0
M  V30 3355 C 308.907 -4.74291 2.46885 0
M  V30 3356 C 310.207 -3.26325 4.0781 0
M  V30 3357 H 311.901 -1.64543 2.50132 0
M  V30 3358 H 309.447 -0.790185 1.20383 0
M  V30 3359 H 311.4 -3.90404 1.58628 0
M  V30 3360 H 310.124 -3.2195 0.549139 0
M  V30 3361 H 308.783 -2.59603 2.58847 0
M  V30 3362 H 308.431 -4.80839 1.47657 0
M  V30 3363 H 308.131 -4.9088 3.22972 0
M  V30 3364 H 309.655 -5.54775 2.55063 0
M  V30 3365 H 311.069 -3.94483 4.16 0
M  V30 3366 H 309.466 -3.54445 4.8424 0
M  V30 3367 H 310.536 -2.23855 4.30136 0
M  V30 3368 N 311.879 -1.3236 -0.855495 0
M  V30 3369 C 312.789 -1.23221 -1.99634 0
M  V30 3370 C 313.805 -0.145983 -1.73387 0
M  V30 3371 O 314.981 -0.366502 -1.98037 0
M  V30 3372 C 312.046 -0.954782 -3.33294 0
M  V30 3373 C 311.107 -2.12937 -3.72769 0
M  V30 3374 C 310.34 -1.86508 -5.00051 0
M  V30 3375 O 310.563 -0.807231 -5.64659 0
M  V30 3376 O 309.497 -2.72591 -5.36636 0
M  V30 3377 H 313.323 -2.19126 -2.1028 0
M  V30 3378 H 310.908 -1.12241 -0.986018 0
M  V30 3379 H 312.79 -0.816519 -4.13414 0
M  V30 3380 H 311.465 -0.0258854 -3.2369 0
M  V30 3381 H 310.372 -2.3231 -2.93228 0
M  V30 3382 H 311.705 -3.04102 -3.87018 0
M  V30 3383 N 313.357 1.07166 -1.15556 0
M  V30 3384 C 314.634 1.76546 -0.842069 0
M  V30 3385 C 315.014 2.00453 0.661939 0
M  V30 3386 O 314.362 1.62452 1.60691 0
M  V30 3387 C 314.572 3.07266 -1.65495 0
M  V30 3388 C 315.92 3.81578 -1.86234 0
M  V30 3389 O 316.944 3.17083 -1.62287 0
M  V30 3390 O 315.803 4.97419 -2.26355 0
M  V30 3391 H 312.897 0.766756 -0.309862 0
M  V30 3392 H 315.443 1.13514 -1.26145 0
M  V30 3393 H 314.215 2.85494 -2.67598 0
M  V30 3394 H 313.838 3.7803 -1.23203 0
M  V30 3395 N 314.835 0.952656 1.25548 0
M  V30 3396 C 315.765 0.489287 2.28316 0
M  V30 3397 C 316.746 -0.463359 1.63667 0
M  V30 3398 O 317.931 -0.36274 1.90782 0
M  V30 3399 C 315.061 -0.235603 3.465 0
M  V30 3400 C 314.015 0.631593 4.23314 0
M  V30 3401 C 313.341 -0.223923 5.34231 0
M  V30 3402 C 314.641 1.90871 4.86174 0
M  V30 3403 H 316.335 1.34822 2.67326 0
M  V30 3404 H 313.881 0.649728 1.28509 0
M  V30 3405 H 315.834 -0.570882 4.17515 0
M  V30 3406 H 314.558 -1.12877 3.06474 0
M  V30 3407 H 313.217 0.949929 3.54079 0
M  V30 3408 H 312.865 -1.11678 4.90446 0
M  V30 3409 H 312.565 0.35299 5.86539 0
M  V30 3410 H 314.089 -0.554214 6.0808 0
M  V30 3411 H 315.503 1.63997 5.49343 0
M  V30 3412 H 313.9 2.43112 5.4865 0
M  V30 3413 H 314.97 2.61304 4.08471 0
M  V30 3414 N 316.313 -1.40141 0.720998 0
M  V30 3415 C 317.559 -2.01084 0.263231 0
M  V30 3416 C 317.892 -1.57052 -1.14229 0
M  V30 3417 O 317.167 -0.793027 -1.77599 0
M  V30 3418 C 317.45 -3.58401 0.349344 0
M  V30 3419 C 317.303 -4.12491 1.79363 0
M  V30 3420 C 318.622 -4.39231 -0.276351 0
M  V30 3421 H 315.741 -0.730572 0.0971228 0
M  V30 3422 H 318.383 -1.66543 0.914518 0
M  V30 3423 H 316.533 -3.87958 -0.205165 0
M  V30 3424 H 318.205 -3.93711 2.40394 0
M  V30 3425 H 316.448 -3.66576 2.31958 0
M  V30 3426 H 317.119 -5.21646 1.80524 0
M  V30 3427 H 319.595 -4.15637 0.196184 0
M  V30 3428 H 318.471 -5.48586 -0.185681 0
M  V30 3429 H 318.732 -4.20643 -1.36059 0
M  V30 3430 N 317.792 -0.46758 -1.50504 0
M  V30 3431 C 318.755 0.317059 -2.26996 0
M  V30 3432 C 319.755 0.923513 -1.31635 0
M  V30 3433 O 320.945 0.793239 -1.55091 0
M  V30 3434 C 318.077 1.45134 -3.08462 0
M  V30 3435 H 319.27 -0.353723 -2.97807 0
M  V30 3436 H 316.823 -0.221545 -1.54722 0
M  V30 3437 H 317.558 2.15728 -2.4214 0
M  V30 3438 H 317.343 1.02232 -3.78538 0
M  V30 3439 H 318.833 2.00493 -3.66323 0
M  V30 3440 N 319.27 1.56325 -0.20005 0
M  V30 3441 C 320.217 2.1932 0.718833 0
M  V30 3442 C 321.187 1.14198 1.20615 0
M  V30 3443 O 322.372 1.42469 1.26914 0
M  V30 3444 C 319.512 2.86041 1.93066 0
M  V30 3445 C 318.625 4.05702 1.48425 0
M  V30 3446 C 317.76 4.60266 2.65196 0
M  V30 3447 C 316.799 5.72273 2.17185 0
M  V30 3448 N 315.936 6.21221 3.27152 0
M  V30 3449 H 320.776 2.97486 0.17489 0
M  V30 3450 H 318.313 1.46911 0.0745794 0
M  V30 3451 H 320.271 3.22897 2.64184 0
M  V30 3452 H 318.901 2.1043 2.44783 0
M  V30 3453 H 317.953 3.74475 0.668755 0
M  V30 3454 H 319.265 4.86699 1.09204 0
M  V30 3455 H 318.419 4.99453 3.4443 0
M  V30 3456 H 317.158 3.78386 3.07693 0
M  V30 3457 H 316.163 5.3261 1.36407 0
M  V30 3458 H 317.388 6.55974 1.75713 0
M  V30 3459 H 315.334 5.42263 3.69171 0
M  V30 3460 H 315.251 6.97284 2.92116 0
M  V30 3461 H 316.519 6.65063 4.06585 0
M  V30 3462 N 320.748 -0.0735177 1.57428 0
M  V30 3463 C 321.995 -0.772999 1.87166 0
M  V30 3464 C 322.323 -1.77665 0.791551 0
M  V30 3465 O 321.578 -1.94541 -0.212636 0
M  V30 3466 C 321.877 -1.51799 3.23561 0
M  V30 3467 C 321.543 -0.654484 4.46125 0
M  V30 3468 C 320.205 -0.416511 4.79394 0
M  V30 3469 C 322.557 -0.0555862 5.2117 0
M  V30 3470 C 319.885 0.429869 5.85123 0
M  V30 3471 C 322.237 0.778239 6.27795 0
M  V30 3472 C 320.901 1.0261 6.59566 0
M  V30 3473 H 320.171 -0.282861 0.684888 0
M  V30 3474 H 322.818 -0.0338272 1.9147 0
M  V30 3475 H 321.123 -2.32932 3.1504 0
M  V30 3476 H 322.82 -2.06397 3.43804 0
M  V30 3477 H 319.41 -0.850091 4.20085 0
M  V30 3478 H 323.594 -0.226558 4.95783 0
M  V30 3479 H 318.85 0.630665 6.08139 0
M  V30 3480 H 323.024 1.24906 6.85107 0
M  V30 3481 H 320.651 1.68371 7.4132 0
M  V30 3482 N 322.226 -1.5378 -0.344866 0
M  V30 3483 C 323.156 -1.84662 -1.42906 0
M  V30 3484 C 324.137 -0.701648 -1.54955 0
M  V30 3485 O 325.322 -0.953438 -1.69184 0
M  V30 3486 C 322.452 -2.05503 -2.79974 0
M  V30 3487 C 321.406 -3.21318 -2.82734 0
M  V30 3488 C 320.732 -3.2749 -4.22675 0
M  V30 3489 C 322.032 -4.59456 -2.48389 0
M  V30 3490 H 323.726 -2.75461 -1.17311 0
M  V30 3491 H 321.272 -1.32542 -0.562896 0
M  V30 3492 H 323.225 -2.25691 -3.55867 0
M  V30 3493 H 321.949 -1.11434 -3.07002 0
M  V30 3494 H 320.608 -3.00984 -2.09294 0
M  V30 3495 H 320.256 -2.31019 -4.4681 0
M  V30 3496 H 319.956 -4.05316 -4.25433 0
M  V30 3497 H 321.48 -3.49887 -5.00412 0
M  V30 3498 H 322.894 -4.79667 -3.13995 0
M  V30 3499 H 321.291 -5.39675 -2.62432 0
M  V30 3500 H 322.361 -4.63155 -1.4358 0
M  V30 3501 N 323.704 0.605807 -1.45491 0
M  V30 3502 C 324.652 1.73754 -1.54636 0
M  V30 3503 C 325.646 1.64207 -0.416219 0
M  V30 3504 O 326.852 1.69979 -0.592199 0
M  V30 3505 H 323.227 0.574073 -0.485741 0
M  V30 3506 H 325.198 1.63169 -2.49837 0
M  V30 3507 C 323.947 3.12135 -1.53189 0
M  V30 3508 H 323.27 3.20141 -2.39478 0
M  V30 3509 H 324.71 3.91147 -1.63645 0
M  V30 3510 C 323.169 3.35921 -0.256616 0
M  V30 3511 O 323.699 3.96194 0.662798 0
M  V30 3512 N 321.905 2.90204 -0.151751 0
M  V30 3513 H 321.452 2.41336 -0.90081 0
M  V30 3514 H 321.41 3.06492 0.700699 0
M  V30 3515 N 325.182 1.32811 0.848464 0
M  V30 3516 C 326.428 1.23907 1.60546 0
M  V30 3517 C 326.761 -0.197161 1.93197 0
M  V30 3518 O 326.036 -1.13596 1.5788 0
M  V30 3519 C 326.319 2.10489 2.92175 0
M  V30 3520 C 326.172 3.62522 2.66266 0
M  V30 3521 C 327.491 1.97075 3.93509 0
M  V30 3522 H 324.61 0.451459 0.58254 0
M  V30 3523 H 327.252 1.62818 0.979296 0
M  V30 3524 H 325.402 1.77434 3.45614 0
M  V30 3525 H 327.074 4.05821 2.19334 0
M  V30 3526 H 325.317 3.84879 2.00126 0
M  V30 3527 H 325.988 4.18437 3.6002 0
M  V30 3528 H 328.464 2.26045 3.49346 0
M  V30 3529 H 327.34 2.59923 4.83457 0
M  V30 3530 H 327.601 0.940186 4.31987 0
M  V30 3531 N 326.66 -1.06551 1.16123 0
M  V30 3532 C 327.57 -2.17484 0.879662 0
M  V30 3533 C 328.586 -1.73377 -0.147104 0
M  V30 3534 O 329.762 -2.01379 0.0289128 0
M  V30 3535 C 326.827 -3.44591 0.381829 0
M  V30 3536 C 325.888 -4.0322 1.4735 0
M  V30 3537 C 325.121 -5.24261 0.999324 0
M  V30 3538 O 325.344 -5.70198 -0.151957 0
M  V30 3539 O 324.278 -5.74775 1.78653 0
M  V30 3540 H 328.104 -2.44075 1.80724 0
M  V30 3541 H 325.689 -1.16042 0.940992 0
M  V30 3542 H 327.571 -4.21254 0.111053 0
M  V30 3543 H 326.246 -3.19532 -0.51777 0
M  V30 3544 H 325.153 -3.2806 1.79798 0
M  V30 3545 H 326.486 -4.32568 2.34831 0
M  V30 3546 N 328.138 -0.959301 -1.25041 0
M  V30 3547 C 329.101 -0.487677 -2.23952 0
M  V30 3548 C 330.101 0.41119 -1.55454 0
M  V30 3549 O 331.291 0.207825 -1.72956 0
M  V30 3550 C 328.423 0.294807 -3.39623 0
M  V30 3551 H 329.616 -1.36198 -2.67189 0
M  V30 3552 H 327.169 -0.743042 -1.37508 0
M  V30 3553 H 327.904 1.18658 -3.01813 0
M  V30 3554 H 327.689 -0.35012 -3.90534 0
M  V30 3555 H 329.179 0.614089 -4.1306 0
M  V30 3556 N 329.616 1.39756 -0.72842 0
M  V30 3557 C 330.579 2.29012 -0.0927297 0
M  V30 3558 C 331.579 1.45992 0.674025 0
M  V30 3559 O 332.769 1.66749 0.50402 0
M  V30 3560 C 329.901 3.29396 0.878137 0
M  V30 3561 H 331.094 2.86729 -0.879011 0
M  V30 3562 H 328.647 1.48293 -0.493847 0
M  V30 3563 H 329.382 2.76722 1.69101 0
M  V30 3564 H 329.167 3.907 0.331051 0
M  V30 3565 H 330.657 3.96199 1.3197 0
M  V30 3566 N 331.094 0.475555 1.50254 0
M  V30 3567 C 332.027 -0.362381 2.25304 0
M  V30 3568 C 333.005 -0.992393 1.28803 0
M  V30 3569 O 334.189 -1.02746 1.58036 0
M  V30 3570 C 331.316 -1.50813 3.03271 0
M  V30 3571 C 330.362 -0.995044 4.1473 0
M  V30 3572 S 331.195 0.0938436 5.35418 0
M  V30 3573 C 332.351 -1.05567 6.16933 0
M  V30 3574 H 332.584 0.274686 2.96028 0
M  V30 3575 H 330.117 0.260495 1.52187 0
M  V30 3576 H 332.075 -2.16476 3.48781 0
M  V30 3577 H 330.736 -2.11672 2.32064 0
M  V30 3578 H 329.929 -1.85293 4.68703 0
M  V30 3579 H 329.531 -0.416052 3.71679 0
M  V30 3580 H 331.823 -1.96636 6.48337 0
M  V30 3581 H 332.766 -0.555109 7.05921 0
M  V30 3582 H 333.174 -1.31151 5.49053 0
M  V30 3583 N 332.573 -1.56217 0.208337 0
M  V30 3584 C 333.819 -1.98242 -0.427552 0
M  V30 3585 C 334.152 -1.09554 -1.60348 0
M  V30 3586 O 333.427 -0.15035 -1.93918 0
M  V30 3587 C 333.71 -3.4931 -0.874907 0
M  V30 3588 C 333.563 -4.48773 0.303751 0
M  V30 3589 C 334.882 -4.04424 -1.73577 0
M  V30 3590 H 332.001 -0.720744 -0.153936 0
M  V30 3591 H 334.643 -1.87586 0.30192 0
M  V30 3592 H 332.793 -3.58522 -1.49648 0
M  V30 3593 H 334.465 -4.51586 0.941682 0
M  V30 3594 H 332.708 -4.23194 0.953375 0
M  V30 3595 H 333.379 -5.51976 -0.0519883 0
M  V30 3596 H 335.855 -3.98075 -1.21143 0
M  V30 3597 H 334.731 -5.1047 -2.01771 0
M  V30 3598 H 334.992 -3.50494 -2.69456 0
M  V30 3599 N 334.051 0.0651679 -1.57465 0
M  V30 3600 C 335.298 0.763063 -1.87573 0
M  V30 3601 C 335.626 1.77242 -0.800961 0
M  V30 3602 O 334.881 1.94651 0.202316 0
M  V30 3603 C 335.18 1.50081 -3.24362 0
M  V30 3604 C 334.846 0.630816 -4.46466 0
M  V30 3605 C 333.508 0.391082 -4.79608 0
M  V30 3606 C 335.86 0.0279465 -5.21193 0
M  V30 3607 C 333.188 -0.460894 -5.84887 0
M  V30 3608 C 335.54 -0.811522 -6.27373 0
M  V30 3609 C 334.204 -1.06106 -6.59013 0
M  V30 3610 H 333.474 0.279224 -0.686378 0
M  V30 3611 H 336.121 0.0236726 -1.91485 0
M  V30 3612 H 334.426 2.31258 -3.16271 0
M  V30 3613 H 336.123 2.04571 -3.44894 0
M  V30 3614 H 332.713 0.8278 -4.2053 0
M  V30 3615 H 336.897 0.200262 -4.95896 0
M  V30 3616 H 332.153 -0.662907 -6.07796 0
M  V30 3617 H 336.327 -1.28537 -6.84435 0
M  V30 3618 H 333.954 -1.723 -7.40417 0
M  V30 3619 N 335.529 1.53961 0.336706 0
M  V30 3620 C 336.777 1.71197 1.07405 0
M  V30 3621 C 337.098 0.481475 1.88962 0
M  V30 3622 O 336.368 -0.504585 1.8929 0
M  V30 3623 H 334.948 0.631185 0.399517 0
M  V30 3624 H 337.61 1.91232 0.376323 0
M  V30 3625 H 336.706 2.58587 1.74755 0
M  V30 3626 N 337.007 -0.598083 1.45811 0
M  V30 3627 C 337.94 -1.7223 1.49706 0
M  V30 3628 C 338.918 -1.58732 0.352535 0
M  V30 3629 O 340.102 -1.80162 0.554438 0
M  V30 3630 C 337.229 -3.10148 1.3611 0
M  V30 3631 C 336.275 -3.42209 2.54549 0
M  V30 3632 S 337.108 -3.35989 4.16979 0
M  V30 3633 C 338.264 -4.76471 4.05865 0
M  V30 3634 H 338.497 -1.68665 2.44826 0
M  V30 3635 H 336.03 -0.775541 1.33509 0
M  V30 3636 H 337.988 -3.8972 1.28953 0
M  V30 3637 H 336.649 -3.11219 0.424451 0
M  V30 3638 H 335.842 -4.42652 2.40988 0
M  V30 3639 H 335.444 -2.70173 2.58617 0
M  V30 3640 H 337.736 -5.665 3.71596 0
M  V30 3641 H 338.679 -4.95089 5.06253 0
M  V30 3642 H 339.087 -4.52599 3.37364 0
M  V30 3643 N 338.485 -1.33259 -0.841409 0
M  V30 3644 C 339.733 -1.24326 -1.59334 0
M  V30 3645 C 340.054 0.191564 -1.94057 0
M  V30 3646 O 339.324 1.11967 -1.60749 0
M  V30 3647 H 337.904 -0.457174 -0.590763 0
M  V30 3648 H 340.566 -1.66947 -1.00571 0
M  V30 3649 H 339.662 -1.8352 -2.52442 0
M  V30 3650 N 339.963 1.05934 -1.16686 0
M  V30 3651 C 341.21 1.788 -0.950622 0
M  V30 3652 C 341.538 1.87384 0.521305 0
M  V30 3653 O 340.793 1.36438 1.40297 0
M  V30 3654 C 341.092 3.23105 -1.52767 0
M  V30 3655 C 340.758 3.34594 -3.02254 0
M  V30 3656 C 339.42 3.37437 -3.43059 0
M  V30 3657 C 341.772 3.36219 -3.98254 0
M  V30 3658 C 339.1 3.39525 -4.78477 0
M  V30 3659 C 341.452 3.39845 -5.33562 0
M  V30 3660 C 340.116 3.40971 -5.73842 0
M  V30 3661 H 339.386 0.654275 -0.347857 0
M  V30 3662 H 342.033 1.24555 -1.45459 0
M  V30 3663 H 340.338 3.80227 -0.94524 0
M  V30 3664 H 342.035 3.7809 -1.336 0
M  V30 3665 H 338.625 3.3309 -2.6972 0
M  V30 3666 H 342.809 3.33231 -3.67792 0
M  V30 3667 H 338.065 3.38703 -5.09009 0
M  V30 3668 H 342.239 3.4005 -6.07733 0
M  V30 3669 H 339.866 3.42342 -6.78753 0
M  V30 3670 N 341.441 0.965919 1.2453 0
M  V30 3671 C 342.404 0.499547 2.2369 0
M  V30 3672 C 343.404 -0.40294 1.5567 0
M  V30 3673 O 344.594 -0.19865 1.73064 0
M  V30 3674 C 341.726 -0.276792 3.39774 0
M  V30 3675 H 342.919 1.37613 2.66463 0
M  V30 3676 H 340.472 0.750324 1.37112 0
M  V30 3677 H 341.207 -1.17055 3.02438 0
M  V30 3678 H 340.992 0.370826 3.90343 0
M  V30 3679 H 342.482 -0.592175 4.1338 0
M  V30 3680 N 342.919 -1.39368 0.735821 0
M  V30 3681 C 344.147 -2.04795 0.294393 0
M  V30 3682 C 344.562 -1.55478 -1.07107 0
M  V30 3683 O 343.919 -0.720038 -1.67695 0
M  V30 3684 C 343.97 -3.6035 0.288071 0
M  V30 3685 O 343.691 -4.07852 1.59963 0
M  V30 3686 C 345.192 -4.42976 -0.169422 0
M  V30 3687 H 342.412 -0.658571 0.128551 0
M  V30 3688 H 344.956 -1.78399 0.999701 0
M  V30 3689 H 343.111 -3.85645 -0.368355 0
M  V30 3690 H 343.525 -5.02181 1.51375 0
M  V30 3691 H 344.999 -5.51864 -0.122687 0
M  V30 3692 H 345.476 -4.22068 -1.21472 0
M  V30 3693 H 346.082 -4.22832 0.457469 0
M  V30 3694 N 344.397 -0.483516 -1.5 0
M  V30 3695 C 345.345 0.318061 -2.30415 0
M  V30 3696 C 346.339 0.978988 -1.38247 0
M  V30 3697 O 347.545 0.908673 -1.55381 0
M  V30 3698 H 343.92 0.121419 -0.742133 0
M  V30 3699 H 345.891 -0.380403 -2.95965 0
M  V30 3700 C 344.64 1.38013 -3.19136 0
M  V30 3701 H 343.963 0.880952 -3.89973 0
M  V30 3702 H 345.403 1.91332 -3.78375 0
M  V30 3703 C 343.862 2.38884 -2.37563 0
M  V30 3704 O 344.392 3.44412 -2.06744 0
M  V30 3705 N 342.598 2.10912 -1.99911 0
M  V30 3706 H 342.145 1.25118 -2.25174 0
M  V30 3707 H 342.103 2.78635 -1.45636 0
M  V30 3708 N 345.875 1.56104 -0.216619 0
M  V30 3709 C 347.1 2.0301 0.424462 0
M  V30 3710 C 347.525 1.0955 1.52907 0
M  V30 3711 O 346.883 0.0827914 1.81111 0
M  V30 3712 C 346.931 3.4819 0.937883 0
M  V30 3713 O 346.035 3.57865 2.04955 0
M  V30 3714 H 345.376 0.656925 0.0966755 0
M  V30 3715 H 347.906 2.01859 -0.33381 0
M  V30 3716 H 347.916 3.88413 1.24897 0
M  V30 3717 H 346.591 4.15699 0.129387 0
M  V30 3718 H 345.168 3.29527 1.74546 0
M  V30 3719 N 347.353 -0.0568162 1.57498 0
M  V30 3720 C 348.286 -1.09817 2.00039 0
M  V30 3721 C 349.264 -1.3674 0.879819 0
M  V30 3722 O 350.448 -1.49863 1.14338 0
M  V30 3723 C 347.575 -2.43924 2.34986 0
M  V30 3724 C 346.621 -2.33039 3.57204 0
M  V30 3725 S 347.454 -1.7102 5.07457 0
M  V30 3726 C 348.61 -3.06674 5.45621 0
M  V30 3727 H 348.843 -0.735701 2.88053 0
M  V30 3728 H 346.376 -0.265871 1.52094 0
M  V30 3729 H 348.334 -3.2106 2.55795 0
M  V30 3730 H 346.995 -2.77327 1.47474 0
M  V30 3731 H 346.188 -3.31973 3.79223 0
M  V30 3732 H 345.79 -1.64043 3.36104 0
M  V30 3733 H 348.082 -4.03 5.44608 0
M  V30 3734 H 349.025 -2.8942 6.46252 0
M  V30 3735 H 349.433 -3.07969 4.73091 0
M  V30 3736 N 348.832 -1.54138 -0.328536 0
M  V30 3737 C 349.78 -1.83894 -1.42428 0
M  V30 3738 C 350.774 -0.710478 -1.53781 0
M  V30 3739 O 351.98 -0.894062 -1.56226 0
M  V30 3740 H 348.355 -0.582837 -0.475189 0
M  V30 3741 H 350.326 -2.75537 -1.14552 0
M  V30 3742 C 349.075 -2.07866 -2.78724 0
M  V30 3743 H 348.398 -2.94158 -2.7076 0
M  V30 3744 H 349.838 -2.32644 -3.54476 0
M  V30 3745 C 348.297 -0.868689 -3.25508 0
M  V30 3746 O 348.827 -0.0754908 -4.01629 0
M  V30 3747 N 347.033 -0.681711 -2.82491 0
M  V30 3748 H 346.58 -1.32838 -2.20708 0
M  V30 3749 H 346.538 0.126374 -3.14146 0
M  V30 3750 N 350.31 0.590341 -1.46126 0
M  V30 3751 C 351.559 1.34499 -1.50309 0
M  V30 3752 C 351.872 1.94977 -0.156021 0
M  V30 3753 O 353.078 2.71395 -0.0756037 0
M  V30 3754 C 351.534 2.43723 -2.64815 0
M  V30 3755 C 351.142 1.89582 -4.0591 0
M  V30 3756 C 352.886 3.20579 -2.78262 0
M  V30 3757 C 350.793 2.9639 -5.11769 0
M  V30 3758 H 349.723 0.505593 -0.559368 0
M  V30 3759 H 352.374 0.630848 -1.72315 0
M  V30 3760 H 350.756 3.17902 -2.36124 0
M  V30 3761 H 351.93 1.21997 -4.44357 0
M  V30 3762 H 350.245 1.25418 -3.97063 0
M  V30 3763 H 352.842 4.00276 -3.54519 0
M  V30 3764 H 353.185 3.72684 -1.85505 0
M  V30 3765 H 353.718 2.53505 -3.06562 0
M  V30 3766 H 350.457 2.49181 -6.06291 0
M  V30 3767 H 349.977 3.62487 -4.77873 0
M  V30 3768 H 351.656 3.60474 -5.37278 0
M  V30 3769 N 351.788 1.33704 0.83433 0
M  V30 3770 C 353.199 1.22813 1.4062 0
M  V30 3771 C 353.55 -0.151107 1.95617 0
M  V30 3772 O 352.675 -1.05092 1.89168 0
M  V30 3773 C 353.27 2.22355 2.55624 0
M  V30 3774 C 351.829 2.1529 3.08751 0
M  V30 3775 C 350.976 2.09589 1.8157 0
M  V30 3776 H 353.927 1.45236 0.639702 0
M  V30 3777 H 353.948 1.83391 3.33389 0
M  V30 3778 H 353.46 3.22728 2.15566 0
M  V30 3779 H 351.561 1.18235 3.53343 0
M  V30 3780 H 351.674 3.06038 3.68616 0
M  V30 3781 H 350.038 1.55134 2.02004 0
M  V30 3782 H 350.821 3.11777 1.43701 0
M  V30 3783 N 353.266 -1.05314 1.17247 0
M  V30 3784 C 354.229 -2.112 0.890357 0
M  V30 3785 C 355.229 -1.60359 -0.118943 0
M  V30 3786 O 356.419 -1.73833 0.113086 0
M  V30 3787 C 353.551 -3.39266 0.333422 0
M  V30 3788 H 354.744 -2.37659 1.82916 0
M  V30 3789 H 352.297 -1.21538 0.982758 0
M  V30 3790 H 353.032 -3.18462 -0.612587 0
M  V30 3791 H 352.817 -3.77477 1.06082 0
M  V30 3792 H 354.307 -4.17315 0.154322 0
M  V30 3793 N 354.744 -0.972509 -1.24016 0
M  V30 3794 C 355.674 -0.525548 -2.27509 0
M  V30 3795 C 356.655 0.437262 -1.64384 0
M  V30 3796 O 357.84 0.332343 -1.91335 0
M  V30 3797 C 354.97 0.180448 -3.46831 0
M  V30 3798 C 353.924 -0.698859 -4.22256 0
M  V30 3799 C 353.25 0.138903 -5.3452 0
M  V30 3800 C 354.55 -1.98582 -4.83076 0
M  V30 3801 H 356.244 -1.39058 -2.65148 0
M  V30 3802 H 353.79 -0.67009 -1.27459 0
M  V30 3803 H 355.743 0.504387 -4.18371 0
M  V30 3804 H 354.467 1.07987 -3.08231 0
M  V30 3805 H 353.126 -1.00614 -3.52523 0
M  V30 3806 H 352.774 1.03862 -4.9216 0
M  V30 3807 H 352.474 -0.446259 -5.85903 0
M  V30 3808 H 353.998 0.457404 -6.08884 0
M  V30 3809 H 355.412 -1.72715 -5.46665 0
M  V30 3810 H 353.809 -2.5181 -5.44713 0
M  V30 3811 H 354.879 -2.67769 -4.04262 0
M  V30 3812 N 356.222 1.38976 -0.743202 0
M  V30 3813 C 357.468 2.0064 -0.295189 0
M  V30 3814 C 357.801 1.5885 1.11716 0
M  V30 3815 O 357.076 0.821181 1.76315 0
M  V30 3816 C 357.359 3.578 -0.406318 0
M  V30 3817 C 357.212 4.09586 -1.85903 0
M  V30 3818 C 358.531 4.39616 0.206439 0
M  V30 3819 H 355.65 0.728935 -0.108733 0
M  V30 3820 H 358.292 1.65067 -0.940897 0
M  V30 3821 H 356.442 3.88235 0.143419 0
M  V30 3822 H 358.114 3.89837 -2.46627 0
M  V30 3823 H 356.357 3.6284 -2.3776 0
M  V30 3824 H 357.028 5.18708 -1.888 0
M  V30 3825 H 359.504 4.15273 -0.262283 0
M  V30 3826 H 358.38 5.48812 0.0983819 0
M  V30 3827 H 358.641 4.22754 1.2935 0
M  V30 3828 N 357.7 0.491464 1.49741 0
M  V30 3829 C 358.948 -0.0563141 2.02022 0
M  V30 3830 C 359.269 -1.38363 1.37407 0
M  V30 3831 O 358.539 -1.88702 0.526166 0
M  V30 3832 H 357.119 -0.0238014 0.746621 0
M  V30 3833 H 359.781 0.646533 1.83864 0
M  V30 3834 H 358.877 -0.192967 3.11503 0
M  V30 3835 N 359.178 -1.55987 0.224894 0
M  V30 3836 C 360.125 -2.20436 -0.68385 0
M  V30 3837 C 361.095 -1.16102 -1.18783 0
M  V30 3838 O 362.28 -1.4447 -1.24632 0
M  V30 3839 C 359.42 -2.89076 -1.88491 0
M  V30 3840 C 358.533 -4.08012 -1.41951 0
M  V30 3841 C 357.668 -4.64426 -2.5784 0
M  V30 3842 C 356.707 -5.75656 -2.08053 0
M  V30 3843 N 355.844 -6.26347 -3.17227 0
M  V30 3844 H 360.684 -2.97727 -0.12754 0
M  V30 3845 H 358.221 -1.47011 -0.0511978 0
M  V30 3846 H 360.179 -3.27059 -2.59014 0
M  V30 3847 H 358.809 -2.14298 -2.41405 0
M  V30 3848 H 357.861 -3.75492 -0.609095 0
M  V30 3849 H 359.173 -4.88375 -1.01447 0
M  V30 3850 H 358.327 -5.04869 -3.3644 0
M  V30 3851 H 357.066 -3.83233 -3.01635 0
M  V30 3852 H 356.071 -5.34712 -1.27916 0
M  V30 3853 H 357.296 -6.58686 -1.65255 0
M  V30 3854 H 355.242 -5.48067 -3.60497 0
M  V30 3855 H 355.159 -7.01843 -2.80986 0
M  V30 3856 H 356.427 -6.71447 -3.95953 0
M  V30 3857 N 360.656 0.0484629 -1.57525 0
M  V30 3858 C 361.904 0.741657 -1.88 0
M  V30 3859 C 362.225 1.76918 -0.820054 0
M  V30 3860 O 361.495 1.95335 0.148661 0
M  V30 3861 H 360.075 0.276908 -0.69378 0
M  V30 3862 H 362.737 0.019013 -1.94891 0
M  V30 3863 H 361.833 1.24336 -2.86264 0
M  V30 3864 N 362.134 1.5431 0.320358 0
M  V30 3865 C 363.374 1.74395 1.0661 0
M  V30 3866 C 363.738 0.508602 1.85141 0
M  V30 3867 O 364.939 0.586856 2.62316 0
M  V30 3868 C 363.21 2.98619 1.96371 0
M  V30 3869 S 364.769 3.39621 2.77854 0
M  V30 3870 H 361.587 0.613204 0.359863 0
M  V30 3871 H 364.189 1.9249 0.341727 0
M  V30 3872 H 362.893 3.86673 1.3752 0
M  V30 3873 H 362.424 2.83055 2.73209 0
M  V30 3874 H 364.439 2.95172 3.98858 0
M  V30 3875 N 363.613 -0.582584 1.46437 0
M  V30 3876 C 364.543 -1.70187 1.59871 0
M  V30 3877 C 365.524 -1.64066 0.449042 0
M  V30 3878 O 366.709 -1.82081 0.6753 0
M  V30 3879 C 363.839 -3.08827 1.58881 0
M  V30 3880 C 362.793 -3.29779 2.72819 0
M  V30 3881 C 362.119 -4.68947 2.5689 0
M  V30 3882 C 363.419 -3.17601 4.1464 0
M  V30 3883 H 365.113 -1.592 2.53566 0
M  V30 3884 H 362.659 -0.764472 1.22032 0
M  V30 3885 H 364.612 -3.86951 1.66873 0
M  V30 3886 H 363.336 -3.20713 0.617306 0
M  V30 3887 H 361.995 -2.54054 2.64296 0
M  V30 3888 H 361.643 -4.77599 1.57823 0
M  V30 3889 H 361.343 -4.83919 3.33312 0
M  V30 3890 H 362.867 -5.4924 2.66773 0
M  V30 3891 H 364.281 -3.8557 4.24274 0
M  V30 3892 H 362.678 -3.44094 4.9165 0
M  V30 3893 H 363.748 -2.14681 4.34788 0
M  V30 3894 N 365.091 -1.34144 -0.827227 0
M  V30 3895 C 366.34 -1.25602 -1.5782 0
M  V30 3896 C 366.653 0.173445 -1.94829 0
M  V30 3897 O 367.859 0.380984 -2.68814 0
M  V30 3898 C 366.315 -2.20151 -2.84713 0
M  V30 3899 C 365.923 -3.68331 -2.55021 0
M  V30 3900 C 367.667 -2.20508 -3.62735 0
M  V30 3901 C 365.574 -4.54762 -3.78082 0
M  V30 3902 H 364.504 -0.466573 -0.592306 0
M  V30 3903 H 367.155 -1.59283 -0.911116 0
M  V30 3904 H 365.537 -1.79417 -3.53023 0
M  V30 3905 H 366.711 -4.17577 -1.94849 0
M  V30 3906 H 365.026 -3.7038 -1.90283 0
M  V30 3907 H 367.623 -2.82306 -4.54101 0
M  V30 3908 H 367.966 -1.20322 -3.98533 0
M  V30 3909 H 368.499 -2.59664 -3.01362 0
M  V30 3910 H 365.238 -5.55867 -3.47407 0
M  V30 3911 H 364.758 -4.10254 -4.37552 0
M  V30 3912 H 366.437 -4.69153 -4.45538 0
M  V30 3913 N 366.569 1.04691 -1.17803 0
M  V30 3914 C 367.499 2.14494 -0.92275 0
M  V30 3915 C 368.48 1.69546 0.137179 0
M  V30 3916 O 369.665 1.94195 -0.0141108 0
M  V30 3917 C 366.795 3.44491 -0.440803 0
M  V30 3918 C 365.749 4.03031 -1.4405 0
M  V30 3919 C 365.075 5.28432 -0.81631 0
M  V30 3920 C 366.375 4.39932 -2.81527 0
M  V30 3921 H 368.069 2.36107 -1.84103 0
M  V30 3922 H 365.615 1.1347 -0.886599 0
M  V30 3923 H 367.568 4.2066 -0.249602 0
M  V30 3924 H 366.292 3.22546 0.513025 0
M  V30 3925 H 364.951 3.28937 -1.61853 0
M  V30 3926 H 364.599 5.02792 0.144511 0
M  V30 3927 H 364.299 5.68559 -1.48371 0
M  V30 3928 H 365.823 6.07284 -0.635496 0
M  V30 3929 H 367.237 5.07113 -2.67412 0
M  V30 3930 H 365.634 4.9109 -3.44892 0
M  V30 3931 H 366.704 3.50045 -3.35554 0
M  V30 3932 N 368.047 0.979072 1.23499 0
M  V30 3933 C 369.272 0.664845 1.96455 0
M  V30 3934 C 369.697 -0.761287 1.72006 0
M  V30 3935 O 369.055 -1.51837 0.990713 0
M  V30 3936 C 369.103 0.959479 3.47601 0
M  V30 3937 O 368.207 0.0508168 4.12369 0
M  V30 3938 H 367.548 0.250185 0.615064 0
M  V30 3939 H 370.078 1.31231 1.5697 0
M  V30 3940 H 370.088 0.895642 3.98048 0
M  V30 3941 H 368.763 1.99876 3.64723 0
M  V30 3942 H 367.34 0.16895 3.72517 0
M  V30 3943 N 369.525 -1.3858 0.750561 0
M  V30 3944 C 370.802 -1.94231 0.231009 0
M  V30 3945 C 371.182 -1.68611 -1.27018 0
M  V30 3946 O 370.53 -1.02296 -2.04323 0
M  V30 3947 C 370.74 -3.44123 0.581428 0
M  V30 3948 C 372.088 -4.2116 0.539389 0
M  V30 3949 O 373.112 -3.52391 0.519541 0
M  V30 3950 O 371.971 -5.43749 0.54765 0
M  V30 3951 H 369.065 -0.825639 0.0474263 0
M  V30 3952 H 371.611 -1.4799 0.830478 0
M  V30 3953 H 370.383 -3.56267 1.61833 0
M  V30 3954 H 370.006 -3.97573 -0.0462047 0
M  V30 3955 N 371.003 -0.499398 -1.49478 0
M  V30 3956 C 371.913 0.284489 -2.32869 0
M  V30 3957 C 372.929 0.968885 -1.44529 0
M  V30 3958 O 374.105 0.95062 -1.77553 0
M  V30 3959 C 371.17 1.33594 -3.19928 0
M  V30 3960 C 370.231 0.665149 -4.24116 0
M  V30 3961 C 369.464 1.6665 -5.07014 0
M  V30 3962 O 369.687 2.89618 -4.91404 0
M  V30 3963 O 368.621 1.22271 -5.8935 0
M  V30 3964 H 372.447 -0.39802 -3.01081 0
M  V30 3965 H 370.032 -0.260758 -1.47107 0
M  V30 3966 H 371.914 1.94431 -3.73864 0
M  V30 3967 H 370.589 2.0014 -2.54412 0
M  V30 3968 H 369.496 0.0170769 -3.74096 0
M  V30 3969 H 370.829 0.0421555 -4.92182 0
M  V30 3970 N 372.481 1.55866 -0.233164 0
M  V30 3971 C 373.411 2.23783 0.666599 0
M  V30 3972 C 374.392 1.21343 1.19205 0
M  V30 3973 O 375.577 1.4996 1.23392 0
M  V30 3974 C 372.707 2.92671 1.86978 0
M  V30 3975 C 371.661 4.01682 1.47768 0
M  V30 3976 C 370.987 4.57926 2.76058 0
M  V30 3977 C 372.287 5.18126 0.658993 0
M  V30 3978 H 373.981 2.99232 0.100306 0
M  V30 3979 H 371.527 1.43924 0.046804 0
M  V30 3980 H 373.48 3.3888 2.50476 0
M  V30 3981 H 372.204 2.14688 2.46123 0
M  V30 3982 H 370.863 3.56222 0.866106 0
M  V30 3983 H 370.511 3.76659 3.33372 0
M  V30 3984 H 370.211 5.31505 2.50552 0
M  V30 3985 H 371.735 5.06859 3.40479 0
M  V30 3986 H 373.149 5.60644 1.19795 0
M  V30 3987 H 371.546 5.98009 0.500552 0
M  V30 3988 H 372.616 4.83763 -0.331856 0
M  V30 3989 N 373.959 -0.0401083 1.57549 0
M  V30 3990 C 374.907 -1.06264 2.06908 0
M  V30 3991 C 375.901 -1.38132 0.980608 0
M  V30 3992 O 377.107 -1.37167 1.16556 0
M  V30 3993 H 373.482 -0.360166 0.660139 0
M  V30 3994 H 375.453 -0.620445 2.91878 0
M  V30 3995 C 374.202 -2.35846 2.55483 0
M  V30 3996 H 373.525 -2.12183 3.38849 0
M  V30 3997 H 374.965 -3.05765 2.93741 0
M  V30 3998 C 373.424 -3.0404 1.45126 0
M  V30 3999 O 373.954 -3.93424 0.811216 0
M  V30 4000 N 372.16 -2.65184 1.18852 0
M  V30 4001 H 371.707 -1.92584 1.71083 0
M  V30 4002 H 371.665 -3.1113 0.452244 0
M  V30 4003 N 375.437 -1.54477 -0.31217 0
M  V30 4004 C 376.387 -1.81037 -1.38598 0
M  V30 4005 C 377.371 -0.666941 -1.46426 0
M  V30 4006 O 378.563 -0.927269 -1.50767 0
M  V30 4007 C 375.692 -2.05127 -2.75277 0
M  V30 4008 C 374.778 -3.25624 -2.71716 0
M  V30 4009 N 375.169 -4.46428 -2.37773 0
M  V30 4010 C 373.467 -3.27427 -3.02833 0
M  V30 4011 C 374.168 -5.28406 -2.43232 0
M  V30 4012 N 373.144 -4.6586 -2.80135 0
M  V30 4013 H 376.946 -2.7201 -1.11301 0
M  V30 4014 H 374.46 -1.53826 -0.520705 0
M  V30 4015 H 376.457 -2.22299 -3.52688 0
M  V30 4016 H 375.117 -1.15416 -3.03495 0
M  V30 4017 H 376.128 -4.73227 -2.1042 0
M  V30 4018 H 372.805 -2.47786 -3.36018 0
M  V30 4019 H 374.195 -6.34903 -2.19882 0
M  V30 4020 N 376.915 0.57481 -1.46744 0
M  V30 4021 C 378.143 1.35856 -1.56047 0
M  V30 4022 C 378.558 1.87691 -0.204365 0
M  V30 4023 O 377.915 1.64049 0.79963 0
M  V30 4024 C 377.966 2.54066 -2.57163 0
M  V30 4025 O 377.687 2.04377 -3.87507 0
M  V30 4026 C 379.188 3.46514 -2.76483 0
M  V30 4027 H 376.408 0.414754 -0.527466 0
M  V30 4028 H 378.952 0.698035 -1.92218 0
M  V30 4029 H 377.107 3.16092 -2.23974 0
M  V30 4030 H 377.521 2.81419 -4.4261 0
M  V30 4031 H 378.995 4.25919 -3.51137 0
M  V30 4032 H 379.472 3.98951 -1.83671 0
M  V30 4033 H 380.078 2.90318 -3.10799 0
M  V30 4034 N 378.394 1.34581 0.820102 0
M  V30 4035 C 379.619 1.30333 1.61332 0
M  V30 4036 C 380.044 -0.119339 1.87721 0
M  V30 4037 O 379.402 -1.08197 1.45475 0
M  V30 4038 C 379.45 2.10258 2.92957 0
M  V30 4039 O 378.554 1.47404 3.85157 0
M  V30 4040 H 377.895 0.447488 0.490561 0
M  V30 4041 H 380.425 1.77425 1.01889 0
M  V30 4042 H 380.435 2.21718 3.42498 0
M  V30 4043 H 379.11 3.13693 2.73074 0
M  V30 4044 H 377.687 1.44703 3.43679 0
M  V30 4045 N 379.872 -1.04064 1.18357 0
M  V30 4046 C 380.802 -2.14001 0.934113 0
M  V30 4047 C 381.783 -1.69616 -0.128186 0
M  V30 4048 O 382.968 -1.94185 0.0244093 0
M  V30 4049 C 380.098 -3.44253 0.459066 0
M  V30 4050 C 379.052 -4.02261 1.46185 0
M  V30 4051 C 378.378 -5.27992 0.844322 0
M  V30 4052 C 379.678 -4.38432 2.83856 0
M  V30 4053 H 381.372 -2.35127 1.85352 0
M  V30 4054 H 378.918 -1.12998 0.892604 0
M  V30 4055 H 380.871 -4.20522 0.271907 0
M  V30 4056 H 379.595 -3.22813 -0.495912 0
M  V30 4057 H 378.254 -3.28074 1.63595 0
M  V30 4058 H 377.902 -5.02862 -0.117845 0
M  V30 4059 H 377.602 -5.67765 1.51384 0
M  V30 4060 H 379.126 -6.06938 0.667693 0
M  V30 4061 H 380.54 -5.05688 2.70098 0
M  V30 4062 H 378.937 -4.89254 3.47491 0
M  V30 4063 H 380.007 -3.4826 3.37406 0
M  V30 4064 N 381.35 -0.985608 -1.22978 0
M  V30 4065 C 382.596 -0.65836 -1.91816 0
M  V30 4066 C 382.929 0.806692 -1.76653 0
M  V30 4067 O 382.204 1.58252 -1.13078 0
M  V30 4068 C 382.487 -1.056 -3.44268 0
M  V30 4069 C 382.34 -2.57906 -3.68516 0
M  V30 4070 C 383.659 -0.603781 -4.35939 0
M  V30 4071 H 380.778 -0.24065 -0.696604 0
M  V30 4072 H 383.42 -1.22783 -1.44998 0
M  V30 4073 H 381.57 -0.571445 -3.84274 0
M  V30 4074 H 383.242 -3.13976 -3.3796 0
M  V30 4075 H 381.485 -3.00305 -3.13048 0
M  V30 4076 H 382.156 -2.80779 -4.75255 0
M  V30 4077 H 384.632 -1.01987 -4.03408 0
M  V30 4078 H 383.508 -0.910383 -5.41298 0
M  V30 4079 H 383.769 0.495761 -4.39312 0
M  V30 4080 N 382.828 1.3818 -0.7579 0
M  V30 4081 C 383.758 2.33027 -0.148597 0
M  V30 4082 C 384.739 1.55085 0.69875 0
M  V30 4083 O 385.924 1.83384 0.639053 0
M  V30 4084 C 383.054 3.3928 0.742034 0
M  V30 4085 C 382.008 4.28 -0.00291946 0
M  V30 4086 C 381.334 5.25146 1.00625 0
M  V30 4087 C 382.634 5.08938 -1.17385 0
M  V30 4088 H 384.328 2.84231 -0.940909 0
M  V30 4089 H 381.874 1.36659 -0.453908 0
M  V30 4090 H 383.827 4.046 1.17799 0
M  V30 4091 H 382.551 2.86569 1.56671 0
M  V30 4092 H 381.21 3.64192 -0.419504 0
M  V30 4093 H 380.858 4.68721 1.8251 0
M  V30 4094 H 380.558 5.85361 0.512428 0
M  V30 4095 H 382.082 5.93342 1.44143 0
M  V30 4096 H 383.496 5.67474 -0.815224 0
M  V30 4097 H 381.893 5.7841 -1.59882 0
M  V30 4098 H 382.963 4.42424 -1.98468 0
M  V30 4099 N 384.306 0.507319 1.49211 0
M  V30 4100 C 385.554 -0.0348839 2.0207 0
M  V30 4101 C 385.875 -1.36898 1.38866 0
M  V30 4102 O 385.145 -1.88133 0.546151 0
M  V30 4103 H 383.725 -0.0158812 0.746831 0
M  V30 4104 H 386.387 0.665998 1.83168 0
M  V30 4105 H 385.483 -0.159917 3.1169 0
M  V30 4106 N 385.784 -1.5574 0.241426 0
M  V30 4107 C 386.747 -2.19877 -0.647063 0
M  V30 4108 C 387.747 -1.16642 -1.10686 0
M  V30 4109 O 388.937 -1.41757 -1.01245 0
M  V30 4110 C 386.069 -2.83797 -1.88871 0
M  V30 4111 H 387.262 -2.99772 -0.087574 0
M  V30 4112 H 384.815 -1.56298 -0.00813574 0
M  V30 4113 H 385.55 -2.07824 -2.48957 0
M  V30 4114 H 385.335 -3.59414 -1.56728 0
M  V30 4115 H 386.825 -3.32898 -2.52129 0
M  V30 4116 N 387.262 0.0317525 -1.57568 0
M  V30 4117 C 388.678 0.38735 -1.54828 0
M  V30 4118 C 388.878 1.7677 -0.967187 0
M  V30 4119 O 387.934 2.45581 -0.587063 0
M  V30 4120 C 389.247 0.291667 -2.99282 0
M  V30 4121 C 390.795 0.368946 -3.10818 0
M  V30 4122 C 391.27 0.302741 -4.56998 0
M  V30 4123 N 392.761 0.361617 -4.61786 0
M  V30 4124 C 393.496 0.333238 -5.72431 0
M  V30 4125 N 392.992 0.257308 -6.92322 0
M  V30 4126 N 394.785 0.382769 -5.60795 0
M  V30 4127 H 386.936 -0.871609 -1.93692 0
M  V30 4128 H 389.199 -0.331161 -0.888277 0
M  V30 4129 H 388.905 -0.656794 -3.45513 0
M  V30 4130 H 388.779 1.08638 -3.61217 0
M  V30 4131 H 391.166 1.30784 -2.64536 0
M  V30 4132 H 391.247 -0.455066 -2.5172 0
M  V30 4133 H 390.891 -0.632473 -5.03947 0
M  V30 4134 H 390.821 1.14482 -5.14005 0
M  V30 4135 H 393.312 0.422923 -3.75526 0
M  V30 4136 H 393.625 0.24068 -7.72425 0
M  V30 4137 H 391.97 0.223396 -6.94641 0
M  V30 4138 H 395.161 0.44006 -4.66027 0
M  V30 4139 H 395.334 0.357184 -6.47015 0
M  V30 4140 N 388.74 1.54641 0.303973 0
M  V30 4141 C 389.67 1.88386 1.3796 0
M  V30 4142 C 390.651 0.742485 1.5304 0
M  V30 4143 O 391.836 0.997959 1.66597 0
M  V30 4144 C 388.966 2.12854 2.74427 0
M  V30 4145 C 387.92 3.28702 2.74115 0
M  V30 4146 C 387.246 3.38582 4.13844 0
M  V30 4147 C 388.546 4.65881 2.3612 0
M  V30 4148 H 390.24 2.78474 1.09966 0
M  V30 4149 H 387.786 1.33988 0.527556 0
M  V30 4150 H 389.739 2.35047 3.49758 0
M  V30 4151 H 388.463 1.19535 3.03939 0
M  V30 4152 H 387.122 3.06428 2.0124 0
M  V30 4153 H 386.77 2.42784 4.40528 0
M  V30 4154 H 386.47 4.16453 4.14537 0
M  V30 4155 H 387.994 3.63031 4.90959 0
M  V30 4156 H 389.408 4.87823 3.01167 0
M  V30 4157 H 387.805 5.46444 2.48031 0
M  V30 4158 H 388.875 4.66799 1.3125 0
M  V30 4159 N 390.218 -0.567019 1.47046 0
M  V30 4160 C 391.443 -1.3551 1.57009 0
M  V30 4161 C 391.868 -1.86841 0.217259 0
M  V30 4162 O 391.226 -1.62435 -0.805268 0
M  V30 4163 C 391.274 -2.50777 2.5912 0
M  V30 4164 O 390.378 -3.52706 2.13711 0
M  V30 4165 H 389.719 -0.402919 0.52778 0
M  V30 4166 H 392.249 -0.686241 1.92748 0
M  V30 4167 H 392.259 -2.97481 2.79229 0
M  V30 4168 H 390.934 -2.12771 3.57353 0
M  V30 4169 H 389.511 -3.12374 2.03659 0
M  V30 4170 N 391.696 -1.35014 -0.812953 0
M  V30 4171 C 392.944 -1.27678 -1.56661 0
M  V30 4172 C 393.265 0.150359 -1.94419 0
M  V30 4173 O 392.535 1.08532 -1.63088 0
M  V30 4174 H 391.115 -0.469602 -0.580933 0
M  V30 4175 H 393.777 -1.69043 -0.970076 0
M  V30 4176 H 392.873 -1.88833 -2.48492 0
M  V30 4177 N 393.175 1.03435 -1.18907 0
M  V30 4178 C 394.138 2.09756 -0.923844 0
M  V30 4179 C 395.138 1.60528 0.093416 0
M  V30 4180 O 396.328 1.73631 -0.140727 0
M  V30 4181 C 393.46 3.38692 -0.387354 0
M  V30 4182 H 394.653 2.34719 -1.86674 0
M  V30 4183 H 392.206 1.19959 -1.00197 0
M  V30 4184 H 392.941 3.19396 0.561845 0
M  V30 4185 H 392.726 3.75742 -1.12074 0
M  V30 4186 H 394.216 4.17016 -0.220694 0
M  V30 4187 N 394.653 0.992116 1.22453 0
M  V30 4188 C 395.881 0.685944 1.95198 0
M  V30 4189 C 396.296 -0.749233 1.73297 0
M  V30 4190 O 395.653 -1.50549 1.03156 0
M  V30 4191 C 395.704 0.981395 3.47924 0
M  V30 4192 O 395.425 2.36018 3.6909 0
M  V30 4193 C 396.926 0.692815 4.37853 0
M  V30 4194 H 394.146 0.253821 0.621141 0
M  V30 4195 H 396.69 1.32668 1.55626 0
M  V30 4196 H 394.845 0.386481 3.85467 0
M  V30 4197 H 395.259 2.45884 4.63294 0
M  V30 4198 H 396.733 0.949818 5.43767 0
M  V30 4199 H 397.21 -0.373181 4.37612 0
M  V30 4200 H 397.816 1.26874 4.05935 0
M  V30 4201 N 396.131 -1.37776 0.765217 0
M  V30 4202 C 397.38 -1.99092 0.323307 0
M  V30 4203 C 397.693 -1.61434 -1.10446 0
M  V30 4204 O 398.899 -2.15805 -1.64743 0
M  V30 4205 C 397.355 -3.56019 0.527098 0
M  V30 4206 C 396.963 -4.0262 1.96471 0
M  V30 4207 C 398.707 -4.2424 0.148483 0
M  V30 4208 C 396.614 -5.52233 2.11644 0
M  V30 4209 H 395.544 -0.744846 0.117137 0
M  V30 4210 H 398.195 -1.57391 0.943417 0
M  V30 4211 H 396.577 -3.95667 -0.162372 0
M  V30 4212 H 397.751 -3.74234 2.68859 0
M  V30 4213 H 396.066 -3.47161 2.29931 0
M  V30 4214 H 398.663 -5.34159 0.240456 0
M  V30 4215 H 399.006 -4.06446 -0.900422 0
M  V30 4216 H 399.539 -3.89872 0.79025 0
M  V30 4217 H 396.278 -5.74945 3.1483 0
M  V30 4218 H 395.798 -5.82324 1.4373 0
M  V30 4219 H 397.477 -6.18106 1.91193 0
M  V30 4220 N 397.609 -0.515225 -1.4894 0
M  V30 4221 C 399.025 -0.172099 -1.58669 0
M  V30 4222 C 399.225 1.32405 -1.51892 0
M  V30 4223 O 398.281 2.10116 -1.40027 0
M  V30 4224 C 399.594 -0.761533 -2.90897 0
M  V30 4225 C 401.142 -0.728926 -3.04394 0
M  V30 4226 C 401.617 -1.29667 -4.39261 0
M  V30 4227 N 403.108 -1.25799 -4.4579 0
M  V30 4228 C 403.843 -1.66733 -5.48623 0
M  V30 4229 N 403.339 -2.15327 -6.58488 0
M  V30 4230 N 405.132 -1.58061 -5.39419 0
M  V30 4231 H 397.283 -1.48778 -1.51588 0
M  V30 4232 H 399.546 -0.617968 -0.718901 0
M  V30 4233 H 399.252 -1.81136 -3.01468 0
M  V30 4234 H 399.126 -0.230106 -3.76497 0
M  V30 4235 H 401.513 0.312098 -2.93445 0
M  V30 4236 H 401.594 -1.29766 -2.20442 0
M  V30 4237 H 401.238 -2.33655 -4.50963 0
M  V30 4238 H 401.168 -0.703752 -5.21876 0
M  V30 4239 H 403.659 -0.902102 -3.66975 0
M  V30 4240 H 403.972 -2.44594 -7.33071 0
M  V30 4241 H 402.317 -2.19311 -6.59491 0
M  V30 4242 H 405.508 -1.19906 -4.52482 0
M  V30 4243 H 405.681 -1.90284 -6.19432 0
M  V30 4244 N 399.087 1.5561 -0.249682 0
M  V30 4245 C 400.336 1.98187 0.37479 0
M  V30 4246 C 400.649 1.14111 1.58865 0
M  V30 4247 O 401.855 1.46714 2.28445 0
M  V30 4248 C 400.311 3.52661 0.718192 0
M  V30 4249 C 399.919 4.45481 -0.474428 0
M  V30 4250 C 401.663 4.03888 1.3067 0
M  V30 4251 C 399.57 5.91303 -0.107026 0
M  V30 4252 H 398.5 0.740159 0.143808 0
M  V30 4253 H 401.151 1.80125 -0.350336 0
M  V30 4254 H 399.533 3.66429 1.50152 0
M  V30 4255 H 400.707 4.43473 -1.25172 0
M  V30 4256 H 399.022 4.04751 -0.978052 0
M  V30 4257 H 401.619 5.10358 1.59496 0
M  V30 4258 H 401.962 3.51401 2.23211 0
M  V30 4259 H 402.495 3.93457 0.586211 0
M  V30 4260 H 399.234 6.47833 -0.999642 0
M  V30 4261 H 398.754 5.9644 0.634013 0
M  V30 4262 H 400.433 6.46258 0.309807 0
M  V30 4263 N 400.565 -0.0233959 1.57583 0
M  V30 4264 C 401.812 -0.713063 1.8953 0
M  V30 4265 C 402.14 -1.75056 0.847673 0
M  V30 4266 O 401.395 -1.95119 -0.150636 0
M  V30 4267 C 401.694 -1.41428 3.28227 0
M  V30 4268 C 401.36 -0.512222 4.47981 0
M  V30 4269 C 400.022 -0.263785 4.80476 0
M  V30 4270 C 402.374 0.110248 5.21083 0
M  V30 4271 C 399.702 0.615804 5.83459 0
M  V30 4272 C 402.054 0.977573 6.25001 0
M  V30 4273 C 400.718 1.23542 6.55968 0
M  V30 4274 H 399.988 -0.260928 0.69354 0
M  V30 4275 H 402.635 0.0271047 1.91481 0
M  V30 4276 H 400.94 -2.22791 3.22291 0
M  V30 4277 H 402.637 -1.95355 3.50196 0
M  V30 4278 H 399.227 -0.716013 4.22577 0
M  V30 4279 H 403.411 -0.0687137 4.96252 0
M  V30 4280 H 398.667 0.82382 6.05824 0
M  V30 4281 H 402.841 1.46638 6.80786 0
M  V30 4282 H 400.468 1.91871 7.35588 0
M  V30 4283 N 402.043 -1.548 -0.295768 0
M  V30 4284 C 402.99 -1.86113 -1.36494 0
M  V30 4285 C 403.96 -0.7105 -1.50137 0
M  V30 4286 O 405.145 -0.959626 -1.64912 0
M  V30 4287 C 402.285 -2.11861 -2.72413 0
M  V30 4288 C 401.398 -3.39471 -2.67177 0
M  V30 4289 C 400.533 -3.55035 -3.95125 0
M  V30 4290 C 399.572 -4.76418 -3.84308 0
M  V30 4291 N 398.709 -4.8876 -5.04042 0
M  V30 4292 H 403.549 -2.77314 -1.09091 0
M  V30 4293 H 401.086 -1.37315 -0.52753 0
M  V30 4294 H 403.044 -2.24786 -3.51464 0
M  V30 4295 H 401.674 -1.2392 -2.98066 0
M  V30 4296 H 400.726 -3.35139 -1.79962 0
M  V30 4297 H 402.038 -4.28646 -2.55076 0
M  V30 4298 H 401.192 -3.67653 -4.82614 0
M  V30 4299 H 399.931 -2.64002 -4.10066 0
M  V30 4300 H 398.936 -4.63827 -2.95202 0
M  V30 4301 H 400.161 -5.68863 -3.70906 0
M  V30 4302 H 398.107 -4.00652 -5.19436 0
M  V30 4303 H 398.024 -5.71945 -4.94384 0
M  V30 4304 H 399.292 -5.0574 -5.93167 0
M  V30 4305 N 403.521 0.559213 -1.47345 0
M  V30 4306 C 404.471 1.66192 -1.5609 0
M  V30 4307 C 405.455 1.55323 -0.419957 0
M  V30 4308 O 406.647 1.63839 -0.669762 0
M  V30 4309 C 403.776 3.0497 -1.57634 0
M  V30 4310 C 402.862 3.2105 -2.77106 0
M  V30 4311 N 403.253 3.07203 -4.01821 0
M  V30 4312 C 401.551 3.52046 -2.73825 0
M  V30 4313 C 402.252 3.25919 -4.81821 0
M  V30 4314 N 401.228 3.52161 -4.14106 0
M  V30 4315 H 405.03 1.54052 -2.5029 0
M  V30 4316 H 402.544 0.763914 -1.43311 0
M  V30 4317 H 404.541 3.84142 -1.61989 0
M  V30 4318 H 403.201 3.18224 -0.645281 0
M  V30 4319 H 404.212 2.84572 -4.32711 0
M  V30 4320 H 400.889 3.71839 -1.89848 0
M  V30 4321 H 402.279 3.20198 -5.90697 0
M  V30 4322 N 404.999 1.35443 0.805782 0
M  V30 4323 C 405.947 1.28465 1.93906 0
M  V30 4324 C 406.941 0.17943 1.68447 0
M  V30 4325 O 408.147 0.345459 1.76654 0
M  V30 4326 H 404.522 0.399528 0.637088 0
M  V30 4327 H 406.493 2.24206 1.96912 0
M  V30 4328 C 405.242 1.07432 3.30687 0
M  V30 4329 H 404.565 1.91716 3.50835 0
M  V30 4330 H 406.005 1.06591 4.10383 0
M  V30 4331 C 404.464 -0.22179 3.36169 0
M  V30 4332 O 404.994 -1.21731 3.82811 0
M  V30 4333 N 403.2 -0.260841 2.89427 0
M  V30 4334 H 402.747 0.549884 2.51663 0
M  V30 4335 H 402.705 -1.12777 2.93477 0
M  V30 4336 N 406.477 -1.02803 1.19454 0
M  V30 4337 C 407.425 -2.13213 0.929673 0
M  V30 4338 C 408.419 -1.69011 -0.114806 0
M  V30 4339 O 409.625 -1.79967 0.0345147 0
M  V30 4340 H 406 -0.69662 0.28324 0
M  V30 4341 H 407.971 -2.32744 1.86743 0
M  V30 4342 C 406.72 -3.4429 0.485797 0
M  V30 4343 H 406.043 -3.7872 1.28105 0
M  V30 4344 H 407.483 -4.22638 0.339582 0
M  V30 4345 C 405.942 -3.27258 -0.800244 0
M  V30 4346 O 406.472 -3.55967 -1.86146 0
M  V30 4347 N 404.678 -2.80545 -0.75781 0
M  V30 4348 H 404.225 -2.57382 0.106039 0
M  V30 4349 H 404.183 -2.6953 -1.61867 0
M  V30 4350 N 407.956 -0.998596 -1.21925 0
M  V30 4351 C 409.184 -0.696286 -1.94832 0
M  V30 4352 C 409.599 0.740032 -1.73692 0
M  V30 4353 O 408.956 1.5 -1.03953 0
M  V30 4354 C 409.007 -0.999833 -3.47398 0
M  V30 4355 O 408.728 -2.37972 -3.67833 0
M  V30 4356 C 410.229 -0.716025 -4.37479 0
M  V30 4357 H 407.449 -0.257111 -0.619786 0
M  V30 4358 H 409.993 -1.33491 -1.54921 0
M  V30 4359 H 408.148 -0.406918 -3.85257 0
M  V30 4360 H 408.562 -2.48338 -4.61983 0
M  V30 4361 H 410.036 -0.978642 -5.43256 0
M  V30 4362 H 410.513 0.349968 -4.37803 0
M  V30 4363 H 411.119 -1.29025 -4.05256 0
M  V30 4364 N 409.434 1.37368 -0.772513 0
M  V30 4365 C 410.366 2.28899 -0.117502 0
M  V30 4366 C 411.379 1.4867 0.663405 0
M  V30 4367 O 412.568 1.71314 0.501372 0
M  V30 4368 C 409.668 3.2788 0.857192 0
M  V30 4369 C 408.841 4.37207 0.129938 0
M  V30 4370 C 407.9 5.16257 1.01811 0
M  V30 4371 O 406.926 5.67159 0.481601 0
M  V30 4372 N 408.128 5.31058 2.3443 0
M  V30 4373 H 410.893 2.85752 -0.903662 0
M  V30 4374 H 408.454 1.49353 -0.62493 0
M  V30 4375 H 410.446 3.77647 1.45482 0
M  V30 4376 H 409.016 2.7179 1.54432 0
M  V30 4377 H 408.236 3.88827 -0.648605 0
M  V30 4378 H 409.524 5.07434 -0.372559 0
M  V30 4379 H 408.922 4.91287 2.80452 0
M  V30 4380 H 407.479 5.84131 2.89197 0
M  V30 4381 N 410.912 0.523116 1.48665 0
M  V30 4382 C 412.137 -0.0117284 2.07397 0
M  V30 4383 C 412.562 -1.28031 1.37803 0
M  V30 4384 O 411.92 -1.75836 0.441762 0
M  V30 4385 C 411.968 -0.225786 3.59892 0
M  V30 4386 O 411.072 -1.29592 3.91509 0
M  V30 4387 H 410.413 0.0360673 0.66302 0
M  V30 4388 H 412.943 0.729066 1.9117 0
M  V30 4389 H 412.953 -0.450552 4.05505 0
M  V30 4390 H 411.628 0.700944 4.09951 0
M  V30 4391 H 410.205 -1.05436 3.57684 0
M  V30 4392 N 412.39 -1.55475 0.257931 0
M  V30 4393 C 413.32 -2.24815 -0.630912 0
M  V30 4394 C 414.301 -1.23224 -1.17259 0
M  V30 4395 O 415.486 -1.51904 -1.20991 0
M  V30 4396 C 412.616 -2.95609 -1.82298 0
M  V30 4397 C 411.57 -4.03982 -1.41359 0
M  V30 4398 C 410.896 -4.6226 -2.68738 0
M  V30 4399 C 412.196 -5.19109 -0.57648 0
M  V30 4400 H 413.89 -2.99354 -0.0526878 0
M  V30 4401 H 411.436 -1.4398 -0.023901 0
M  V30 4402 H 413.389 -3.42822 -2.45054 0
M  V30 4403 H 412.113 -2.18577 -2.42676 0
M  V30 4404 H 410.772 -3.57555 -0.809324 0
M  V30 4405 H 410.42 -3.81915 -3.27338 0
M  V30 4406 H 410.12 -5.35424 -2.42065 0
M  V30 4407 H 411.644 -5.12212 -3.32372 0
M  V30 4408 H 413.058 -5.62479 -1.10861 0
M  V30 4409 H 411.455 -5.98729 -0.405351 0
M  V30 4410 H 412.525 -4.83174 0.408776 0
M  V30 4411 N 413.868 0.0150385 -1.57593 0
M  V30 4412 C 414.778 1.02791 -2.10882 0
M  V30 4413 C 415.794 1.38702 -1.0506 0
M  V30 4414 O 416.97 1.47739 -1.36877 0
M  V30 4415 C 414.035 2.30568 -2.58919 0
M  V30 4416 C 413.096 2.01108 -3.79281 0
M  V30 4417 C 412.329 3.22794 -4.25018 0
M  V30 4418 O 412.552 4.33959 -3.70183 0
M  V30 4419 O 411.486 3.07672 -5.17322 0
M  V30 4420 H 415.312 0.604973 -2.97613 0
M  V30 4421 H 412.897 0.23292 -1.47573 0
M  V30 4422 H 414.779 3.05662 -2.90084 0
M  V30 4423 H 413.454 2.72129 -1.75293 0
M  V30 4424 H 412.361 1.23537 -3.53114 0
M  V30 4425 H 413.694 1.64394 -4.63935 0
M  V30 4426 N 415.346 1.54954 0.287554 0
M  V30 4427 C 416.293 1.86834 1.35505 0
M  V30 4428 C 417.263 0.718452 1.49758 0
M  V30 4429 O 418.448 0.968358 1.644 0
M  V30 4430 C 415.588 2.13303 2.71286 0
M  V30 4431 C 414.701 3.40883 2.65373 0
M  V30 4432 C 413.836 3.57125 3.93236 0
M  V30 4433 C 412.875 4.78449 3.81776 0
M  V30 4434 N 412.012 4.91426 5.01443 0
M  V30 4435 H 416.852 2.77889 1.07619 0
M  V30 4436 H 414.389 1.37593 0.520241 0
M  V30 4437 H 416.347 2.26646 3.50267 0
M  V30 4438 H 414.977 1.25499 2.97405 0
M  V30 4439 H 414.029 3.36088 1.78182 0
M  V30 4440 H 415.341 4.29993 2.52799 0
M  V30 4441 H 414.495 3.70207 4.80658 0
M  V30 4442 H 413.234 2.66173 4.0866 0
M  V30 4443 H 412.239 4.65386 2.92738 0
M  V30 4444 H 413.464 5.70822 3.67884 0
M  V30 4445 H 411.41 4.03401 5.17304 0
M  V30 4446 H 411.327 5.74559 4.91343 0
M  V30 4447 H 412.595 5.08879 5.90477 0
M  V30 4448 N 416.824 -0.551391 1.4764 0
M  V30 4449 C 417.754 -1.66757 1.63445 0
M  V30 4450 C 418.735 -1.63077 0.483742 0
M  V30 4451 O 419.92 -1.80607 0.71377 0
M  V30 4452 C 417.05 -3.05387 1.65396 0
M  V30 4453 C 416.004 -3.23918 2.79752 0
M  V30 4454 C 415.33 -4.63393 2.66779 0
M  V30 4455 C 416.63 -3.08735 4.21284 0
M  V30 4456 H 418.324 -1.53786 2.56886 0
M  V30 4457 H 415.87 -0.738415 1.23626 0
M  V30 4458 H 417.823 -3.83325 1.75043 0
M  V30 4459 H 416.547 -3.19332 0.685195 0
M  V30 4460 H 415.206 -2.48391 2.69625 0
M  V30 4461 H 414.854 -4.74144 1.67918 0
M  V30 4462 H 414.554 -4.7674 3.43501 0
M  V30 4463 H 416.078 -5.43458 2.78364 0
M  V30 4464 H 417.492 -3.76484 4.32357 0
M  V30 4465 H 415.889 -3.33588 4.98838 0
M  V30 4466 H 416.959 -2.0541 4.39243 0
M  V30 4467 N 418.302 -1.35869 -0.798587 0
M  V30 4468 C 419.232 -1.32118 -1.92528 0
M  V30 4469 C 420.213 -0.194209 -1.68988 0
M  V30 4470 O 421.398 -0.390426 -1.90235 0
M  V30 4471 C 418.528 -1.10047 -3.29404 0
M  V30 4472 C 417.482 -2.19471 -3.67446 0
M  V30 4473 C 416.808 -1.82555 -5.02571 0
M  V30 4474 C 418.108 -3.61495 -3.76987 0
M  V30 4475 H 419.802 -2.26394 -1.95924 0
M  V30 4476 H 417.348 -1.08981 -0.94123 0
M  V30 4477 H 419.301 -1.06061 -4.07835 0
M  V30 4478 H 418.025 -0.122195 -3.26371 0
M  V30 4479 H 416.684 -2.22568 -2.91306 0
M  V30 4480 H 416.332 -0.833249 -4.9605 0
M  V30 4481 H 416.032 -2.5581 -5.28995 0
M  V30 4482 H 417.556 -1.80108 -5.83432 0
M  V30 4483 H 418.97 -3.60676 -4.4563 0
M  V30 4484 H 417.367 -4.33577 -4.14887 0
M  V30 4485 H 418.437 -3.97065 -2.78329 0
M  V30 4486 N 419.78 1.02168 -1.19998 0
M  V30 4487 C 421.196 1.27969 -0.953737 0
M  V30 4488 C 421.396 1.98079 0.369703 0
M  V30 4489 O 420.452 2.27306 1.09947 0
M  V30 4490 C 421.765 2.11971 -2.13281 0
M  V30 4491 C 423.313 2.25255 -2.17323 0
M  V30 4492 C 423.788 3.12632 -3.34702 0
M  V30 4493 N 425.279 3.2022 -3.34684 0
M  V30 4494 C 426.014 3.88039 -4.22153 0
M  V30 4495 N 425.51 4.58027 -5.19791 0
M  V30 4496 N 427.303 3.84511 -4.10009 0
M  V30 4497 H 419.454 0.550794 -2.05134 0
M  V30 4498 H 421.717 0.305683 -0.897364 0
M  V30 4499 H 421.423 1.67785 -3.09097 0
M  V30 4500 H 421.297 3.12699 -2.10949 0
M  V30 4501 H 423.684 2.68667 -1.22073 0
M  V30 4502 H 423.765 1.24053 -2.23706 0
M  V30 4503 H 423.409 2.69926 -4.30235 0
M  V30 4504 H 423.339 4.13909 -3.25556 0
M  V30 4505 H 425.83 2.70382 -2.64012 0
M  V30 4506 H 426.143 5.07429 -5.82868 0
M  V30 4507 H 424.488 4.56869 -5.23733 0
M  V30 4508 H 427.679 3.28978 -3.33003 0
M  V30 4509 H 427.852 4.3709 -4.78389 0
M  V30 4510 N 421.258 1.00505 1.21394 0
M  V30 4511 C 422.535 0.603277 1.86064 0
M  V30 4512 C 422.915 -0.919095 1.90042 0
M  V30 4513 O 422.263 -1.80607 1.39977 0
M  V30 4514 C 422.473 1.23772 3.26315 0
M  V30 4515 C 423.821 1.34586 4.02705 0
M  V30 4516 O 424.845 1.19304 3.35626 0
M  V30 4517 O 423.704 1.59169 5.22807 0
M  V30 4518 H 420.798 0.206634 0.800769 0
M  V30 4519 H 423.344 1.1017 1.29076 0
M  V30 4520 H 422.116 2.27848 3.18121 0
M  V30 4521 H 421.739 0.725648 3.90922 0
M  V30 4522 N 422.737 -1.36956 0.779787 0
M  V30 4523 C 423.7 -2.2851 0.177662 0
M  V30 4524 C 424.7 -1.48393 -0.619377 0
M  V30 4525 O 425.89 -1.68505 -0.441785 0
M  V30 4526 C 423.022 -3.32428 -0.755279 0
M  V30 4527 H 424.215 -2.83269 0.984823 0
M  V30 4528 H 421.768 -1.46358 0.548544 0
M  V30 4529 H 422.503 -2.82808 -1.58714 0
M  V30 4530 H 422.288 -3.91659 -0.185817 0
M  V30 4531 H 423.778 -4.00824 -1.17174 0
M  V30 4532 N 424.215 -0.530993 -1.48385 0
M  V30 4533 C 425.461 0.00274135 -2.028 0
M  V30 4534 C 425.794 1.33838 -1.40716 0
M  V30 4535 O 425.069 1.86465 -0.553277 0
M  V30 4536 C 425.352 0.123676 -3.59888 0
M  V30 4537 C 425.205 -1.2372 -4.3245 0
M  V30 4538 C 426.524 0.849967 -4.31814 0
M  V30 4539 H 423.643 -0.000477758 -0.737 0
M  V30 4540 H 426.285 -0.688217 -1.77098 0
M  V30 4541 H 424.435 0.712157 -3.81917 0
M  V30 4542 H 426.107 -1.86687 -4.21836 0
M  V30 4543 H 424.35 -1.81882 -3.93829 0
M  V30 4544 H 425.021 -1.10557 -5.40815 0
M  V30 4545 H 427.497 0.350572 -4.14621 0
M  V30 4546 H 426.373 0.903486 -5.41413 0
M  V30 4547 H 426.634 1.90047 -3.99167 0
M  V30 4548 N 425.693 1.55336 -0.266172 0
M  V30 4549 C 426.942 1.98574 0.353749 0
M  V30 4550 C 427.255 1.15789 1.57646 0
M  V30 4551 O 428.461 1.49129 2.26876 0
M  V30 4552 C 426.917 3.53403 0.680747 0
M  V30 4553 C 426.525 4.44953 -0.52165 0
M  V30 4554 C 428.269 4.05251 1.26379 0
M  V30 4555 C 426.176 5.91156 -0.169736 0
M  V30 4556 H 425.106 0.741643 0.135949 0
M  V30 4557 H 427.757 1.79743 -0.369421 0
M  V30 4558 H 426.139 3.68001 1.46257 0
M  V30 4559 H 427.313 4.42121 -1.29869 0
M  V30 4560 H 425.628 4.03691 -1.02093 0
M  V30 4561 H 428.225 5.12021 1.54074 0
M  V30 4562 H 428.568 3.53749 2.19471 0
M  V30 4563 H 429.101 3.94057 0.544447 0
M  V30 4564 H 425.84 6.46736 -1.0683 0
M  V30 4565 H 425.36 5.97079 0.570717 0
M  V30 4566 H 427.039 6.4655 0.241245 0
M  V30 4567 N 427.171 -0.0066808 1.57599 0
M  V30 4568 C 428.401 -0.703066 1.94269 0
M  V30 4569 C 428.809 -1.68206 0.866222 0
M  V30 4570 O 428.152 -1.82966 -0.164087 0
M  V30 4571 C 428.214 -1.49616 3.26887 0
M  V30 4572 C 427.878 -0.679494 4.5192 0
M  V30 4573 C 428.875 0.0299508 5.19891 0
M  V30 4574 C 426.56 -0.627433 4.98366 0
M  V30 4575 C 428.554 0.780514 6.32603 0
M  V30 4576 C 426.241 0.126861 6.10968 0
M  V30 4577 C 427.239 0.829574 6.77943 0
M  V30 4578 O 426.927 1.57157 7.88389 0
M  V30 4579 H 426.659 -0.201217 0.645359 0
M  V30 4580 H 429.213 0.0385326 2.05364 0
M  V30 4581 H 427.443 -2.28209 3.12182 0
M  V30 4582 H 429.132 -2.07726 3.48719 0
M  V30 4583 H 429.898 -0.00115963 4.85 0
M  V30 4584 H 425.777 -1.16392 4.46065 0
M  V30 4585 H 429.321 1.32954 6.84813 0
M  V30 4586 H 425.218 0.159815 6.45302 0
M  V30 4587 H 425.986 1.48758 8.04868 0
M  V30 4588 N 428.649 -1.55105 -0.279332 0
M  V30 4589 C 429.897 -1.75066 -1.00977 0
M  V30 4590 C 430.218 -0.551276 -1.87045 0
M  V30 4591 O 429.488 0.433984 -1.91032 0
M  V30 4592 H 428.068 -0.645578 -0.375816 0
M  V30 4593 H 430.73 -1.92497 -0.305089 0
M  V30 4594 H 429.826 -2.64894 -1.65038 0
M  V30 4595 N 430.127 0.543554 -1.4793 0
M  V30 4596 C 431.059 1.665 -1.57513 0
M  V30 4597 C 432.072 1.56156 -0.460333 0
M  V30 4598 O 433.261 1.62865 -0.730573 0
M  V30 4599 C 430.361 3.05063 -1.47614 0
M  V30 4600 C 429.534 3.41024 -2.739 0
M  V30 4601 C 428.593 4.58809 -2.57645 0
M  V30 4602 O 427.619 4.62707 -3.31498 0
M  V30 4603 N 428.821 5.56149 -1.66368 0
M  V30 4604 H 431.586 1.5872 -2.5422 0
M  V30 4605 H 429.147 0.730517 -1.44482 0
M  V30 4606 H 431.139 3.81712 -1.34455 0
M  V30 4607 H 429.709 3.06994 -0.589359 0
M  V30 4608 H 428.929 2.53687 -3.01723 0
M  V30 4609 H 430.217 3.61831 -3.57709 0
M  V30 4610 H 429.615 5.55767 -1.05543 0
M  V30 4611 H 428.172 6.32071 -1.59154 0
M  V30 4612 N 431.605 1.3629 0.791371 0
M  V30 4613 C 433.016 1.27225 1.36641 0
M  V30 4614 C 433.367 -0.0887968 1.95999 0
M  V30 4615 O 432.492 -0.990207 1.92416 0
M  V30 4616 C 433.087 2.30375 2.48421 0
M  V30 4617 C 431.646 2.25004 3.01746 0
M  V30 4618 C 430.793 2.15259 1.7481 0
M  V30 4619 H 433.744 1.47198 0.593173 0
M  V30 4620 H 433.765 1.93905 3.27385 0
M  V30 4621 H 433.277 3.29422 2.05189 0
M  V30 4622 H 431.378 1.29417 3.49403 0
M  V30 4623 H 431.491 3.1761 3.58693 0
M  V30 4624 H 429.855 1.61482 1.96966 0
M  V30 4625 H 430.638 3.16191 1.33709 0
M  V30 4626 N 433.083 -1.0153 1.20538 0
M  V30 4627 C 434.499 -1.27461 0.96051 0
M  V30 4628 C 434.699 -1.98273 -0.359193 0
M  V30 4629 O 433.755 -2.27886 -1.0874 0
M  V30 4630 C 435.068 -2.10837 2.14402 0
M  V30 4631 C 436.616 -2.24099 2.18515 0
M  V30 4632 C 437.091 -3.10852 3.36355 0
M  V30 4633 N 438.582 -3.18441 3.36377 0
M  V30 4634 C 439.317 -3.85795 4.24205 0
M  V30 4635 N 438.813 -4.55264 5.22213 0
M  V30 4636 N 440.606 -3.82331 4.12043 0
M  V30 4637 H 432.757 -0.539907 2.05423 0
M  V30 4638 H 435.02 -0.30092 0.898972 0
M  V30 4639 H 434.726 -1.66144 3.09983 0
M  V30 4640 H 434.6 -3.11576 2.12604 0
M  V30 4641 H 436.987 -2.68016 1.23497 0
M  V30 4642 H 437.068 -1.22865 2.24361 0
M  V30 4643 H 436.712 -2.6764 4.31661 0
M  V30 4644 H 436.642 -4.12177 3.27746 0
M  V30 4645 H 439.133 -2.68978 2.65442 0
M  V30 4646 H 439.446 -5.04331 5.85551 0
M  V30 4647 H 437.791 -4.54085 5.26148 0
M  V30 4648 H 440.982 -3.27207 3.34743 0
M  V30 4649 H 441.155 -4.34547 4.807 0
M  V30 4650 N 434.561 -1.01147 -1.20859 0
M  V30 4651 C 435.789 -0.716911 -1.94082 0
M  V30 4652 C 436.204 0.721568 -1.74467 0
M  V30 4653 O 435.561 1.48889 -1.05539 0
M  V30 4654 C 435.612 -1.03662 -3.46318 0
M  V30 4655 O 435.333 -2.4186 -3.65288 0
M  V30 4656 C 436.834 -0.762386 -4.36695 0
M  V30 4657 H 434.054 -0.26367 -0.617024 0
M  V30 4658 H 436.598 -1.35127 -1.53496 0
M  V30 4659 H 434.753 -0.447757 -3.84804 0
M  V30 4660 H 435.167 -2.53224 -4.59323 0
M  V30 4661 H 436.641 -1.03621 -5.42187 0
M  V30 4662 H 437.118 0.303514 -4.3815 0
M  V30 4663 H 437.724 -1.33316 -4.03865 0
M  V30 4664 N 436.039 1.36541 -0.78704 0
M  V30 4665 C 437.455 1.52571 -0.46844 0
M  V30 4666 C 437.655 1.7415 1.01361 0
M  V30 4667 O 436.711 1.77163 1.79915 0
M  V30 4668 C 438.024 2.71299 -1.29682 0
M  V30 4669 C 439.572 2.85169 -1.29027 0
M  V30 4670 C 440.047 4.06898 -2.10233 0
M  V30 4671 N 441.538 4.1404 -2.07666 0
M  V30 4672 C 442.273 5.07301 -2.67271 0
M  V30 4673 N 441.769 6.06021 -3.35724 0
M  V30 4674 N 443.562 4.99898 -2.57018 0
M  V30 4675 H 435.713 1.20788 -1.74711 0
M  V30 4676 H 437.976 0.589364 -0.742532 0
M  V30 4677 H 437.682 2.61868 -2.34773 0
M  V30 4678 H 437.556 3.6539 -0.936479 0
M  V30 4679 H 439.943 2.94062 -0.247284 0
M  V30 4680 H 440.024 1.91992 -1.69035 0
M  V30 4681 H 439.668 3.98766 -3.1456 0
M  V30 4682 H 439.598 4.99218 -1.67597 0
M  V30 4683 H 442.089 3.43357 -1.57843 0
M  V30 4684 H 442.402 6.73741 -3.78541 0
M  V30 4685 H 440.747 6.06253 -3.39826 0
M  V30 4686 H 443.938 4.21724 -2.03142 0
M  V30 4687 H 444.111 5.72392 -3.03761 0
M  V30 4688 N 437.518 0.538854 1.48102 0
M  V30 4689 C 438.934 0.19732 1.58376 0
M  V30 4690 C 439.134 -1.29971 1.5398 0
M  V30 4691 O 438.19 -2.07861 1.43352 0
M  V30 4692 C 439.503 0.807716 2.89649 0
M  V30 4693 C 441.051 0.77726 3.03196 0
M  V30 4694 C 441.526 1.36639 4.37143 0
M  V30 4695 N 443.017 1.32875 4.43732 0
M  V30 4696 C 443.752 1.7544 5.45901 0
M  V30 4697 N 443.248 2.25776 6.54979 0
M  V30 4698 N 445.041 1.66623 5.36836 0
M  V30 4699 H 437.192 1.5117 1.49202 0
M  V30 4700 H 439.455 0.629327 0.708979 0
M  V30 4701 H 439.161 1.85909 2.98548 0
M  V30 4702 H 439.035 0.289975 3.76084 0
M  V30 4703 H 441.422 -0.265374 2.93904 0
M  V30 4704 H 441.503 1.33256 2.18349 0
M  V30 4705 H 441.147 2.408 4.47189 0
M  V30 4706 H 441.077 0.786689 5.20691 0
M  V30 4707 H 443.568 0.96037 3.65493 0
M  V30 4708 H 443.881 2.56226 7.29087 0
M  V30 4709 H 442.226 2.29775 6.55918 0
M  V30 4710 H 445.417 1.27089 4.50517 0
M  V30 4711 H 445.59 2.00115 6.16326 0
M  V30 4712 N 438.996 -1.55193 0.274407 0
M  V30 4713 C 439.959 -2.212 -0.600279 0
M  V30 4714 C 440.959 -1.18963 -1.08187 0
M  V30 4715 O 442.149 -1.43873 -0.982158 0
M  V30 4716 C 439.281 -2.87739 -1.82809 0
M  V30 4717 H 440.474 -2.9989 -0.0239682 0
M  V30 4718 H 438.027 -1.5628 0.0250192 0
M  V30 4719 H 438.762 -2.13058 -2.44493 0
M  V30 4720 H 438.547 -3.62658 -1.49069 0
M  V30 4721 H 440.037 -3.38171 -2.45011 0
M  V30 4722 N 440.474 -0.00167713 -1.576 0
M  V30 4723 C 441.72 0.67819 -1.91761 0
M  V30 4724 C 442.075 1.71288 -0.876256 0
M  V30 4725 O 441.368 1.91276 0.111333 0
M  V30 4726 C 441.562 1.36189 -3.30435 0
M  V30 4727 C 441.391 0.394938 -4.47962 0
M  V30 4728 C 440.161 0.00472875 -5.053 0
M  V30 4729 C 442.359 -0.339521 -5.13178 0
M  V30 4730 N 440.341 -0.960257 -6.06343 0
M  V30 4731 C 441.712 -1.15914 -6.09068 0
M  V30 4732 C 443.767 -0.403177 -4.96265 0
M  V30 4733 C 442.47 -2.03661 -6.89866 0
M  V30 4734 C 444.496 -1.26788 -5.77649 0
M  V30 4735 C 443.858 -2.07535 -6.73134 0
M  V30 4736 H 439.957 0.221317 -0.750028 0
M  V30 4737 H 442.541 -0.0624182 -1.946 0
M  V30 4738 H 440.712 2.07278 -3.28467 0
M  V30 4739 H 442.444 1.99658 -3.52021 0
M  V30 4740 H 439.199 0.373452 -4.72125 0
M  V30 4741 H 439.623 -1.43817 -6.61548 0
M  V30 4742 H 444.265 0.206818 -4.22294 0
M  V30 4743 H 441.983 -2.65727 -7.63161 0
M  V30 4744 H 445.569 -1.32107 -5.66603 0
M  V30 4745 H 444.449 -2.73363 -7.35012 0
M  V30 4746 N 441.952 1.55251 0.271103 0
M  V30 4747 C 442.899 1.88261 1.33516 0
M  V30 4748 C 443.869 0.734296 1.48988 0
M  V30 4749 O 445.054 0.985741 1.63364 0
M  V30 4750 C 442.194 2.16168 2.69008 0
M  V30 4751 C 441.307 3.43678 2.61743 0
M  V30 4752 C 440.442 3.61276 3.89427 0
M  V30 4753 C 439.481 4.82472 3.7668 0
M  V30 4754 N 438.618 4.96717 4.96202 0
M  V30 4755 H 443.458 2.79015 1.04665 0
M  V30 4756 H 440.995 1.38137 0.505618 0
M  V30 4757 H 442.953 2.30349 3.47844 0
M  V30 4758 H 441.583 1.28646 2.96057 0
M  V30 4759 H 440.635 3.37959 1.74607 0
M  V30 4760 H 441.947 4.3265 2.48224 0
M  V30 4761 H 441.101 3.75284 4.76704 0
M  V30 4762 H 439.84 2.70492 4.05814 0
M  V30 4763 H 438.845 4.68465 2.87786 0
M  V30 4764 H 440.07 5.74692 3.61809 0
M  V30 4765 H 438.016 4.08865 5.12997 0
M  V30 4766 H 437.933 5.79738 4.85222 0
M  V30 4767 H 439.201 5.15113 5.85046 0
M  V30 4768 N 443.43 -0.535701 1.48216 0
M  V30 4769 C 444.377 -1.64083 1.62312 0
M  V30 4770 C 445.347 -1.59448 0.465365 0
M  V30 4771 O 446.532 -1.77959 0.688135 0
M  V30 4772 C 443.672 -3.0236 1.66349 0
M  V30 4773 C 442.785 -3.17273 2.93193 0
M  V30 4774 C 441.92 -4.46075 2.88427 0
M  V30 4775 C 440.959 -4.54496 4.1 0
M  V30 4776 N 440.096 -5.7468 4.03345 0
M  V30 4777 H 444.936 -1.51374 2.5669 0
M  V30 4778 H 442.473 -0.737059 1.27302 0
M  V30 4779 H 444.431 -3.82461 1.66672 0
M  V30 4780 H 443.061 -3.13854 0.754672 0
M  V30 4781 H 442.113 -2.30462 3.02641 0
M  V30 4782 H 443.425 -3.19357 3.83162 0
M  V30 4783 H 442.579 -5.3446 2.87119 0
M  V30 4784 H 441.318 -4.46504 1.96177 0
M  V30 4785 H 440.323 -3.64519 4.11589 0
M  V30 4786 H 441.548 -4.5581 5.03402 0
M  V30 4787 H 439.494 -5.76017 3.13912 0
M  V30 4788 H 439.411 -5.78234 4.87013 0
M  V30 4789 H 440.679 -6.65367 4.06087 0
M  V30 4790 N 444.908 -1.36708 -0.784132 0
M  V30 4791 C 446.157 -1.30559 -1.53744 0
M  V30 4792 C 446.47 0.111374 -1.95283 0
M  V30 4793 O 447.676 0.29527 -2.6989 0
M  V30 4794 C 446.132 -2.29098 -2.77565 0
M  V30 4795 C 445.74 -3.76258 -2.43174 0
M  V30 4796 C 447.484 -2.31936 -3.55536 0
M  V30 4797 C 445.391 -4.6656 -3.63422 0
M  V30 4798 H 444.321 -0.48518 -0.577162 0
M  V30 4799 H 446.972 -1.62101 -0.859981 0
M  V30 4800 H 445.354 -1.90557 -3.47137 0
M  V30 4801 H 446.528 -4.23565 -1.81465 0
M  V30 4802 H 444.843 -3.76246 -1.78403 0
M  V30 4803 H 447.44 -2.9661 -4.44889 0
M  V30 4804 H 447.783 -1.3294 -3.94503 0
M  V30 4805 H 448.316 -2.6912 -2.92949 0
M  V30 4806 H 445.055 -5.66638 -3.29547 0
M  V30 4807 H 444.575 -4.23966 -4.24279 0
M  V30 4808 H 446.254 -4.8309 -4.30387 0
M  V30 4809 N 446.386 1.0089 -1.21074 0
M  V30 4810 C 447.316 2.1145 -0.990523 0
M  V30 4811 C 448.297 1.69897 0.0831699 0
M  V30 4812 O 449.482 1.94052 -0.0758853 0
M  V30 4813 C 446.612 3.42914 -0.550177 0
M  V30 4814 C 445.566 3.98244 -1.56799 0
M  V30 4815 C 444.892 5.25568 -0.984013 0
M  V30 4816 C 446.192 4.30752 -2.95381 0
M  V30 4817 H 447.886 2.3013 -1.91521 0
M  V30 4818 H 445.432 1.10592 -0.92225 0
M  V30 4819 H 447.385 4.19653 -0.383305 0
M  V30 4820 H 446.109 3.24014 0.41015 0
M  V30 4821 H 444.768 3.23621 -1.72236 0
M  V30 4822 H 444.416 5.02998 -0.0155216 0
M  V30 4823 H 444.116 5.63551 -1.66384 0
M  V30 4824 H 445.64 6.04955 -0.828378 0
M  V30 4825 H 447.054 4.98349 -2.8341 0
M  V30 4826 H 445.451 4.79869 -3.60341 0
M  V30 4827 H 446.521 3.39192 -3.46521 0
M  V30 4828 N 447.864 1.01787 1.20321 0
M  V30 4829 C 449.113 0.703249 1.89043 0
M  V30 4830 C 449.426 -0.770445 1.79787 0
M  V30 4831 O 450.632 -1.19767 2.43656 0
M  V30 4832 C 449.088 1.20749 3.3904 0
M  V30 4833 C 448.696 2.70817 3.56878 0
M  V30 4834 C 450.44 0.968352 4.13308 0
M  V30 4835 C 448.347 3.14716 5.00708 0
M  V30 4836 H 447.277 0.259354 0.707991 0
M  V30 4837 H 449.928 1.23072 1.36108 0
M  V30 4838 H 448.31 0.607989 3.91305 0
M  V30 4839 H 449.484 3.36327 3.14993 0
M  V30 4840 H 447.799 2.92888 2.95983 0
M  V30 4841 H 450.396 1.27173 5.19356 0
M  V30 4842 H 450.739 -0.095149 4.16191 0
M  V30 4843 H 451.272 1.53129 3.67146 0
M  V30 4844 H 448.011 4.20347 5.02979 0
M  V30 4845 H 447.531 2.53927 5.43398 0
M  V30 4846 H 449.21 3.07426 5.69296 0
M  V30 4847 N 449.342 -1.36122 0.79427 0
M  V30 4848 C 450.272 -2.32551 0.210328 0
M  V30 4849 C 451.253 -1.56884 -0.657386 0
M  V30 4850 O 452.438 -1.85014 -0.590207 0
M  V30 4851 C 449.568 -3.41128 -0.651819 0
M  V30 4852 C 448.522 -4.27842 0.116395 0
M  V30 4853 C 447.848 -5.2763 -0.86666 0
M  V30 4854 C 449.148 -5.05647 1.30837 0
M  V30 4855 H 450.842 -2.81636 1.01594 0
M  V30 4856 H 448.388 -1.35407 0.489981 0
M  V30 4857 H 450.341 -4.07581 -1.07031 0
M  V30 4858 H 449.065 -2.90622 -1.49019 0
M  V30 4859 H 447.724 -3.62952 0.515915 0
M  V30 4860 H 447.372 -4.73395 -1.70019 0
M  V30 4861 H 447.072 -5.86514 -0.35705 0
M  V30 4862 H 448.596 -5.96955 -1.28361 0
M  V30 4863 H 450.01 -5.65113 0.965393 0
M  V30 4864 H 448.407 -5.73967 1.75161 0
M  V30 4865 H 449.477 -4.37006 2.10128 0
M  V30 4866 N 450.82 -0.546701 -1.47814 0
M  V30 4867 C 452.066 -0.0187684 -2.02791 0
M  V30 4868 C 452.399 1.32338 -1.42128 0
M  V30 4869 O 451.674 1.85867 -0.573023 0
M  V30 4870 C 451.957 0.0854985 -3.59998 0
M  V30 4871 C 451.81 -1.283 -4.31114 0
M  V30 4872 C 453.129 0.80412 -4.32691 0
M  V30 4873 H 450.248 -0.0082946 -0.736953 0
M  V30 4874 H 452.89 -0.706962 -1.76358 0
M  V30 4875 H 451.04 0.671609 -3.82651 0
M  V30 4876 H 452.712 -1.91151 -4.19832 0
M  V30 4877 H 450.955 -1.86049 -3.91878 0
M  V30 4878 H 451.626 -1.16287 -5.39612 0
M  V30 4879 H 454.102 0.306576 -4.14969 0
M  V30 4880 H 452.978 0.846011 -5.42341 0
M  V30 4881 H 453.239 1.85802 -4.01161 0
M  V30 4882 N 452.299 1.55045 -0.282633 0
M  V30 4883 C 453.209 2.26491 0.61147 0
M  V30 4884 C 454.225 1.29348 1.16384 0
M  V30 4885 O 455.401 1.62298 1.19253 0
M  V30 4886 C 452.466 2.97779 1.77563 0
M  V30 4887 C 451.527 4.10418 1.25919 0
M  V30 4888 C 450.76 4.78297 2.36786 0
M  V30 4889 O 450.983 4.45426 3.56303 0
M  V30 4890 O 449.917 5.66089 2.04517 0
M  V30 4891 H 453.743 3.03683 0.0324615 0
M  V30 4892 H 451.328 1.49317 -0.0497576 0
M  V30 4893 H 453.21 3.42554 2.45427 0
M  V30 4894 H 451.885 2.23498 2.34159 0
M  V30 4895 H 450.792 3.70082 0.546797 0
M  V30 4896 H 452.125 4.86622 0.738887 0
M  V30 4897 N 453.777 0.010035 1.57597 0
M  V30 4898 C 455.025 -0.671371 1.90623 0
M  V30 4899 C 455.346 -1.73753 0.885151 0
M  V30 4900 O 454.616 -1.95752 -0.0760611 0
M  V30 4901 H 453.196 -0.250968 0.703579 0
M  V30 4902 H 455.858 0.0533325 1.94827 0
M  V30 4903 H 454.954 -1.13626 2.90681 0
M  V30 4904 N 455.255 -1.55392 -0.262866 0
M  V30 4905 C 456.501 -1.76737 -0.99458 0
M  V30 4906 C 456.834 -0.572453 -1.85571 0
M  V30 4907 O 456.109 0.429732 -1.89693 0
M  V30 4908 C 456.392 -3.07824 -1.8686 0
M  V30 4909 C 456.245 -4.3769 -1.03672 0
M  V30 4910 C 457.564 -3.35021 -2.85393 0
M  V30 4911 H 454.683 -0.643005 -0.360157 0
M  V30 4912 H 457.325 -1.88126 -0.266216 0
M  V30 4913 H 455.475 -2.98245 -2.48962 0
M  V30 4914 H 457.147 -4.59238 -0.43563 0
M  V30 4915 H 455.39 -4.32461 -0.340513 0
M  V30 4916 H 456.061 -5.25759 -1.6817 0
M  V30 4917 H 458.537 -3.44458 -2.33426 0
M  V30 4918 H 457.413 -4.27989 -3.43681 0
M  V30 4919 H 457.674 -2.55153 -3.61039 0
M  V30 4920 N 456.733 0.527833 -1.48498 0
M  V30 4921 C 457.963 1.30633 -1.60058 0
M  V30 4922 C 458.371 1.87394 -0.260786 0
M  V30 4923 O 457.714 1.67227 0.760317 0
M  V30 4924 C 457.776 2.49361 -2.58958 0
M  V30 4925 C 457.44 2.13671 -4.03972 0
M  V30 4926 C 458.437 1.69217 -4.91591 0
M  V30 4927 C 456.122 2.24129 -4.49524 0
M  V30 4928 C 458.116 1.35689 -6.2279 0
M  V30 4929 C 455.803 1.90212 -5.80743 0
M  V30 4930 C 456.801 1.46063 -6.67199 0
M  V30 4931 O 456.489 1.12593 -7.95976 0
M  V30 4932 H 456.221 0.403444 -0.54241 0
M  V30 4933 H 458.775 0.643233 -1.95068 0
M  V30 4934 H 457.005 3.18659 -2.19073 0
M  V30 4935 H 458.694 3.11421 -2.6033 0
M  V30 4936 H 459.46 1.60607 -4.57636 0
M  V30 4937 H 455.339 2.57447 -3.82416 0
M  V30 4938 H 458.883 1.01157 -6.90227 0
M  V30 4939 H 454.78 1.98464 -6.14233 0
M  V30 4940 H 455.548 1.25972 -8.08748 0
M  V30 4941 N 458.211 1.37122 0.776871 0
M  V30 4942 C 459.436 1.354 1.57104 0
M  V30 4943 C 459.861 -0.0595562 1.88006 0
M  V30 4944 O 459.219 -1.03514 1.48844 0
M  V30 4945 C 459.267 2.19472 2.8612 0
M  V30 4946 O 458.371 1.59582 3.80273 0
M  V30 4947 H 457.712 0.462869 0.476076 0
M  V30 4948 H 460.242 1.80577 0.961932 0
M  V30 4949 H 460.252 2.32502 3.35271 0
M  V30 4950 H 458.927 3.22222 2.62956 0
M  V30 4951 H 457.504 1.55564 3.38902 0
M  V30 4952 N 459.689 -1.00246 1.21608 0
M  V30 4953 C 460.622 -2.08794 0.920892 0
M  V30 4954 C 461.6 -1.62059 -0.132552 0
M  V30 4955 O 462.784 -1.885 -0.0030366 0
M  V30 4956 C 459.911 -3.36525 0.383226 0
M  V30 4957 C 458.957 -4.02172 1.41987 0
M  V30 4958 S 459.79 -4.44256 2.98994 0
M  V30 4959 C 460.946 -5.7517 2.4684 0
M  V30 4960 H 461.179 -2.33511 1.8401 0
M  V30 4961 H 458.712 -1.13562 1.04609 0
M  V30 4962 H 460.67 -4.10423 0.0795871 0
M  V30 4963 H 459.331 -3.09854 -0.514711 0
M  V30 4964 H 458.524 -4.94114 0.993335 0
M  V30 4965 H 458.126 -3.34559 1.67171 0
M  V30 4966 H 460.418 -6.51042 1.87484 0
M  V30 4967 H 461.361 -6.22638 3.37235 0
M  V30 4968 H 461.769 -5.32112 1.88461 0
M  V30 4969 N 461.167 -1.02423 -1.1978 0
M  V30 4970 C 462.077 -0.610919 -2.26506 0
M  V30 4971 C 463.093 0.355152 -1.70337 0
M  V30 4972 O 464.269 0.214195 -2.00258 0
M  V30 4973 C 461.334 0.0365921 -3.46681 0
M  V30 4974 C 460.395 -0.976389 -4.18049 0
M  V30 4975 C 459.628 -0.359683 -5.32487 0
M  V30 4976 O 459.851 0.838601 -5.64202 0
M  V30 4977 O 458.785 -1.08022 -5.92127 0
M  V30 4978 H 462.611 -1.49965 -2.64091 0
M  V30 4979 H 460.196 -0.794156 -1.26545 0
M  V30 4980 H 462.078 0.39786 -4.19518 0
M  V30 4981 H 460.753 0.899398 -3.10954 0
M  V30 4982 H 459.66 -1.38916 -3.47352 0
M  V30 4983 H 460.993 -1.80941 -4.57735 0
M  V30 4984 N 462.645 1.35699 -0.801477 0
M  V30 4985 C 463.893 1.9852 -0.37871 0
M  V30 4986 C 464.214 1.63907 1.05638 0
M  V30 4987 O 463.484 0.919013 1.73006 0
M  V30 4988 H 462.064 0.734322 -0.137042 0
M  V30 4989 H 464.726 1.65697 -1.02619 0
M  V30 4990 H 463.822 3.08382 -0.480284 0
M  V30 4991 N 464.123 0.554532 1.47522 0
M  V30 4992 C 465.348 0.0322661 2.07375 0
M  V30 4993 C 465.773 -1.25079 1.40488 0
M  V30 4994 O 465.131 -1.74859 0.47896 0
M  V30 4995 C 465.179 -0.149397 3.6029 0
M  V30 4996 O 464.283 -1.21259 3.9417 0
M  V30 4997 H 463.624 0.0501228 0.662106 0
M  V30 4998 H 466.154 0.769452 1.8958 0
M  V30 4999 H 466.164 -0.364437 4.06369 0
M  V30 5000 H 464.839 0.787743 4.08372 0
M  V30 5001 H 463.416 -0.97825 3.5984 0
M  V30 5002 N 465.601 -1.54893 0.290851 0
M  V30 5003 C 466.85 -1.99111 -0.322113 0
M  V30 5004 C 467.163 -1.18283 -1.55784 0
M  V30 5005 O 468.369 -1.5272 -2.24475 0
M  V30 5006 C 466.825 -3.54442 -0.624438 0
M  V30 5007 C 466.433 -4.44066 0.592373 0
M  V30 5008 C 468.177 -4.07211 -1.19916 0
M  V30 5009 C 466.084 -5.90812 0.263762 0
M  V30 5010 H 465.014 -0.743712 -0.124133 0
M  V30 5011 H 467.665 -1.79132 0.39797 0
M  V30 5012 H 466.047 -3.70281 -1.40384 0
M  V30 5013 H 467.221 -4.39999 1.36886 0
M  V30 5014 H 465.536 -4.02015 1.08502 0
M  V30 5015 H 468.133 -5.14407 -1.45909 0
M  V30 5016 H 468.476 -3.57196 -2.13815 0
M  V30 5017 H 469.009 -3.94873 -0.481687 0
M  V30 5018 H 465.748 -6.44955 1.17105 0
M  V30 5019 H 465.268 -5.97911 -0.475655 0
M  V30 5020 H 466.947 -6.46852 -0.138354 0
M  V30 5021 N 467.08 -0.0183926 -1.57589 0
M  V30 5022 C 468.326 0.663543 -1.91638 0
M  V30 5023 C 468.659 1.72392 -0.894134 0
M  V30 5024 O 467.934 1.94316 0.0846449 0
M  V30 5025 C 468.217 1.28984 -3.36207 0
M  V30 5026 C 468.07 0.239761 -4.49161 0
M  V30 5027 C 469.389 2.2109 -3.80536 0
M  V30 5028 H 466.508 0.239746 -0.696915 0
M  V30 5029 H 469.15 -0.073456 -1.89858 0
M  V30 5030 H 467.3 1.91799 -3.37854 0
M  V30 5031 H 468.972 -0.390119 -4.59647 0
M  V30 5032 H 467.215 -0.435972 -4.31604 0
M  V30 5033 H 467.886 0.717383 -5.47319 0
M  V30 5034 H 470.362 1.68273 -3.80557 0
M  V30 5035 H 469.238 2.61869 -4.82406 0
M  V30 5036 H 469.499 3.09764 -3.15434 0
M  V30 5037 N 468.558 1.5553 0.254621 0
M  V30 5038 C 469.508 1.86057 1.31783 0
M  V30 5039 C 470.492 0.720827 1.4385 0
M  V30 5040 O 471.684 0.982586 1.47222 0
M  V30 5041 C 468.813 2.15203 2.67475 0
M  V30 5042 C 467.899 3.35484 2.59444 0
M  V30 5043 N 468.29 4.54945 2.2104 0
M  V30 5044 C 466.588 3.38441 2.90472 0
M  V30 5045 C 467.289 5.3707 2.23453 0
M  V30 5046 N 466.265 4.75936 2.62652 0
M  V30 5047 H 470.067 2.75953 1.01129 0
M  V30 5048 H 467.581 1.55653 0.463255 0
M  V30 5049 H 469.578 2.35235 3.44195 0
M  V30 5050 H 468.238 1.26601 2.99002 0
M  V30 5051 H 469.249 4.8071 1.92712 0
M  V30 5052 H 465.926 2.60087 3.2659 0
M  V30 5053 H 467.316 6.42626 1.96166 0
M  V30 5054 N 470.036 -0.519951 1.48776 0
M  V30 5055 C 470.966 -1.63253 1.66945 0
M  V30 5056 C 471.947 -1.62014 0.518224 0
M  V30 5057 O 473.132 -1.79053 0.751919 0
M  V30 5058 C 470.262 -3.0181 1.71836 0
M  V30 5059 C 469.216 -3.17911 2.8656 0
M  V30 5060 C 468.542 -4.5763 2.76548 0
M  V30 5061 C 469.842 -2.99729 4.27738 0
M  V30 5062 H 471.536 -1.48302 2.6009 0
M  V30 5063 H 469.082 -0.712026 1.25165 0
M  V30 5064 H 471.035 -3.79525 1.83135 0
M  V30 5065 H 469.759 -3.17806 0.752775 0
M  V30 5066 H 468.418 -2.42616 2.74833 0
M  V30 5067 H 468.066 -4.70476 1.77937 0
M  V30 5068 H 467.766 -4.69346 3.53536 0
M  V30 5069 H 469.29 -5.37431 2.89828 0
M  V30 5070 H 470.704 -3.67228 4.40246 0
M  V30 5071 H 469.101 -3.22932 5.05801 0
M  V30 5072 H 470.171 -1.96047 4.43502 0
M  V30 5073 N 471.514 -1.37532 -0.769588 0
M  V30 5074 C 472.925 -1.29382 -1.346 0
M  V30 5075 C 473.276 0.0576039 -1.96115 0
M  V30 5076 O 472.401 0.95947 -1.93967 0
M  V30 5077 C 472.996 -2.34298 -2.44724 0
M  V30 5078 C 471.555 -2.29776 -2.98128 0
M  V30 5079 C 470.702 -2.18013 -1.71364 0
M  V30 5080 H 473.653 -1.48123 -0.56968 0
M  V30 5081 H 473.674 -1.99089 -3.24259 0
M  V30 5082 H 473.186 -3.32645 -1.99922 0
M  V30 5083 H 471.287 -1.34959 -3.47299 0
M  V30 5084 H 471.4 -3.23276 -3.53595 0
M  V30 5085 H 469.764 -1.64595 -1.94372 0
M  V30 5086 H 470.547 -3.18278 -1.28662 0
M  V30 5087 N 472.992 0.995999 -1.22138 0
M  V30 5088 C 473.924 2.08745 -0.946485 0
M  V30 5089 C 474.937 1.62633 0.0737356 0
M  V30 5090 O 476.126 1.77782 -0.159886 0
M  V30 5091 C 473.226 3.36516 -0.401305 0
M  V30 5092 C 472.399 4.11672 -1.47801 0
M  V30 5093 C 471.458 5.17728 -0.940461 0
M  V30 5094 O 470.484 5.45482 -1.62596 0
M  V30 5095 N 471.686 5.80005 0.239723 0
M  V30 5096 H 474.451 2.32908 -1.88611 0
M  V30 5097 H 472.012 1.16152 -1.12785 0
M  V30 5098 H 474.004 4.04691 -0.0270837 0
M  V30 5099 H 472.574 3.0944 0.443354 0
M  V30 5100 H 471.794 3.38171 -2.02568 0
M  V30 5101 H 473.082 4.58657 -2.20253 0
M  V30 5102 H 472.48 5.5982 0.813518 0
M  V30 5103 H 471.037 6.4943 0.555361 0
M  V30 5104 N 474.47 1.03057 1.19235 0
M  V30 5105 C 475.719 0.72326 1.88287 0
M  V30 5106 C 476.032 -0.751333 1.80594 0
M  V30 5107 O 477.238 -1.17176 2.44912 0
M  V30 5108 C 475.694 1.24338 3.3774 0
M  V30 5109 C 475.302 2.74587 3.53986 0
M  V30 5110 C 477.046 1.01213 4.12257 0
M  V30 5111 C 474.953 3.20009 4.97341 0
M  V30 5112 H 473.883 0.266848 0.705201 0
M  V30 5113 H 476.534 1.24509 1.34795 0
M  V30 5114 H 474.916 0.649457 3.90638 0
M  V30 5115 H 476.09 3.39649 3.11408 0
M  V30 5116 H 474.405 2.9601 2.9286 0
M  V30 5117 H 477.002 1.32675 5.17978 0
M  V30 5118 H 477.345 -0.051001 4.16269 0
M  V30 5119 H 477.878 1.57014 3.65501 0
M  V30 5120 H 474.617 4.25659 4.98493 0
M  V30 5121 H 474.137 2.59676 5.40674 0
M  V30 5122 H 475.816 3.13447 5.66003 0
M  V30 5123 N 475.948 -1.35272 0.808662 0
M  V30 5124 C 477.197 -1.97963 0.386483 0
M  V30 5125 C 477.51 -1.64866 -1.05255 0
M  V30 5126 O 478.716 -2.20937 -1.57794 0
M  V30 5127 C 477.172 -3.54162 0.640096 0
M  V30 5128 C 476.78 -3.96166 2.0918 0
M  V30 5129 C 478.524 -4.23553 0.283376 0
M  V30 5130 C 476.431 -5.4522 2.29106 0
M  V30 5131 H 475.361 -0.740742 0.140774 0
M  V30 5132 H 478.012 -1.5431 0.993012 0
M  V30 5133 H 476.394 -3.95983 -0.0364117 0
M  V30 5134 H 477.568 -3.65491 2.80629 0
M  V30 5135 H 475.883 -3.3967 2.40859 0
M  V30 5136 H 478.48 -5.33124 0.410273 0
M  V30 5137 H 478.823 -4.09105 -0.770659 0
M  V30 5138 H 479.356 -3.8716 0.913884 0
M  V30 5139 H 476.095 -5.64638 3.32962 0
M  V30 5140 H 475.615 -5.77457 1.62184 0
M  V30 5141 H 477.294 -6.1171 2.1076 0
M  V30 5142 N 477.426 -0.562348 -1.47226 0
M  V30 5143 C 478.389 0.172056 -2.28553 0
M  V30 5144 C 479.389 0.837928 -1.37242 0
M  V30 5145 O 480.579 0.693001 -1.59822 0
M  V30 5146 C 477.711 1.25223 -3.17068 0
M  V30 5147 H 478.904 -0.542401 -2.94954 0
M  V30 5148 H 476.457 -0.319493 -1.53 0
M  V30 5149 H 477.192 1.99892 -2.55369 0
M  V30 5150 H 476.977 0.779515 -3.84273 0
M  V30 5151 H 478.467 1.76791 -3.78332 0
M  V30 5152 N 478.904 1.54736 -0.299062 0
M  V30 5153 C 479.834 2.26409 0.571085 0
M  V30 5154 C 480.815 1.2629 1.13951 0
M  V30 5155 O 482 1.55059 1.16921 0
M  V30 5156 C 479.13 3.00338 1.74396 0
M  V30 5157 C 478.084 4.07588 1.30599 0
M  V30 5158 C 477.41 4.69222 2.56387 0
M  V30 5159 C 478.71 5.20455 0.438645 0
M  V30 5160 H 480.404 2.99388 -0.0266991 0
M  V30 5161 H 477.95 1.43993 -0.0142812 0
M  V30 5162 H 479.903 3.49198 2.35878 0
M  V30 5163 H 478.627 2.24934 2.36796 0
M  V30 5164 H 477.286 3.59575 0.71424 0
M  V30 5165 H 476.934 3.9046 3.17097 0
M  V30 5166 H 476.634 5.41653 2.27784 0
M  V30 5167 H 478.158 5.20844 3.18675 0
M  V30 5168 H 479.572 5.65221 0.959085 0
M  V30 5169 H 477.969 5.99594 0.246466 0
M  V30 5170 H 479.039 4.8192 -0.536738 0
M  V30 5171 N 480.382 0.0267497 1.57577 0
M  V30 5172 C 481.329 -0.955894 2.10075 0
M  V30 5173 C 482.299 -1.32453 1.00226 0
M  V30 5174 O 483.484 -1.41826 1.27632 0
M  V30 5175 C 480.624 -2.2338 2.6305 0
M  V30 5176 C 479.737 -1.92183 3.86898 0
M  V30 5177 C 478.872 -3.14251 4.28275 0
M  V30 5178 C 477.911 -2.78862 5.44888 0
M  V30 5179 N 477.048 -3.93548 5.81433 0
M  V30 5180 H 481.888 -0.501303 2.93753 0
M  V30 5181 H 479.425 -0.235847 1.45197 0
M  V30 5182 H 481.383 -2.98124 2.91853 0
M  V30 5183 H 480.013 -2.6646 1.82205 0
M  V30 5184 H 479.065 -1.07692 3.64838 0
M  V30 5185 H 480.377 -1.62117 4.7172 0
M  V30 5186 H 479.531 -3.97317 4.58502 0
M  V30 5187 H 478.27 -3.47476 3.42215 0
M  V30 5188 H 477.275 -1.94208 5.14357 0
M  V30 5189 H 478.5 -2.46855 6.32645 0
M  V30 5190 H 476.446 -4.2662 4.98328 0
M  V30 5191 H 476.363 -3.67098 6.6089 0
M  V30 5192 H 477.631 -4.77325 6.16264 0
M  V30 5193 N 481.861 -1.55662 -0.24637 0
M  V30 5194 C 482.808 -1.90361 -1.30504 0
M  V30 5195 C 483.778 -0.757905 -1.47801 0
M  V30 5196 O 484.963 -1.01161 -1.61775 0
M  V30 5197 C 482.103 -2.2042 -2.65535 0
M  V30 5198 C 481.216 -3.47799 -2.56242 0
M  V30 5199 C 480.351 -3.67426 -3.8363 0
M  V30 5200 C 479.39 -4.88403 -3.68956 0
M  V30 5201 N 478.527 -5.04548 -4.88237 0
M  V30 5202 H 483.367 -2.80645 -1.00213 0
M  V30 5203 H 480.904 -1.38924 -0.483577 0
M  V30 5204 H 482.862 -2.35853 -3.44135 0
M  V30 5205 H 481.492 -1.3334 -2.93973 0
M  V30 5206 H 480.544 -3.40694 -1.69208 0
M  V30 5207 H 481.856 -4.36544 -2.4131 0
M  V30 5208 H 481.01 -3.82821 -4.70673 0
M  V30 5209 H 479.749 -2.76914 -4.01459 0
M  V30 5210 H 478.754 -4.72984 -2.80296 0
M  V30 5211 H 479.979 -5.80375 -3.52621 0
M  V30 5212 H 477.925 -4.16974 -5.06427 0
M  V30 5213 H 477.842 -5.87384 -4.75937 0
M  V30 5214 H 479.11 -5.24355 -5.76777 0
M  V30 5215 N 483.339 0.512053 -1.4905 0
M  V30 5216 C 484.286 1.6148 -1.64902 0
M  V30 5217 C 485.256 1.58687 -0.490673 0
M  V30 5218 O 486.441 1.76842 -0.71636 0
M  V30 5219 C 483.581 2.99676 -1.71139 0
M  V30 5220 C 482.694 3.12568 -2.98203 0
M  V30 5221 C 481.829 4.4143 -2.95487 0
M  V30 5222 C 480.868 4.47916 -4.17179 0
M  V30 5223 N 480.005 5.68191 -4.12437 0
M  V30 5224 H 484.845 1.47271 -2.59066 0
M  V30 5225 H 482.382 0.716713 -1.28459 0
M  V30 5226 H 484.34 3.79761 -1.72736 0
M  V30 5227 H 482.97 3.12614 -0.804508 0
M  V30 5228 H 482.022 2.25618 -3.06269 0
M  V30 5229 H 483.334 3.1322 -3.88194 0
M  V30 5230 H 482.488 5.29825 -2.95585 0
M  V30 5231 H 481.227 4.43326 -2.03256 0
M  V30 5232 H 480.232 3.57925 -4.17337 0
M  V30 5233 H 481.457 4.47744 -5.1059 0
M  V30 5234 H 479.403 5.7095 -3.23036 0
M  V30 5235 H 479.32 5.70413 -4.96151 0
M  V30 5236 H 480.588 6.58823 -4.16621 0
M  V30 5237 N 484.817 1.37938 0.762283 0
M  V30 5238 C 486.047 1.36685 1.54922 0
M  V30 5239 C 486.455 -0.0474099 1.89141 0
M  V30 5240 O 485.798 -1.02213 1.52638 0
M  V30 5241 C 485.86 2.14963 2.88152 0
M  V30 5242 C 485.524 3.6385 2.76518 0
M  V30 5243 C 486.521 4.57531 2.46904 0
M  V30 5244 C 484.206 4.07095 2.94243 0
M  V30 5245 C 486.2 5.92436 2.35156 0
M  V30 5246 C 483.887 5.42083 2.82116 0
M  V30 5247 C 484.885 6.34567 2.52614 0
M  V30 5248 O 484.573 7.67073 2.40529 0
M  V30 5249 H 484.305 0.469586 0.486276 0
M  V30 5250 H 486.859 1.82012 0.951876 0
M  V30 5251 H 485.089 1.6434 3.50042 0
M  V30 5252 H 486.778 2.06224 3.49609 0
M  V30 5253 H 487.544 4.25428 2.32886 0
M  V30 5254 H 483.423 3.35462 3.16206 0
M  V30 5255 H 486.967 6.64591 2.12049 0
M  V30 5256 H 482.864 5.73785 2.95704 0
M  V30 5257 H 483.632 7.77499 2.55807 0
M  V30 5258 N 486.295 -0.989507 1.22664 0
M  V30 5259 C 487.242 -2.08024 0.999733 0
M  V30 5260 C 488.212 -1.65909 -0.0797047 0
M  V30 5261 O 489.397 -1.90669 0.0705715 0
M  V30 5262 C 486.537 -3.40067 0.587234 0
M  V30 5263 C 485.65 -3.95505 1.73781 0
M  V30 5264 C 484.785 -5.15722 1.27297 0
M  V30 5265 C 483.824 -5.63305 2.39488 0
M  V30 5266 N 482.961 -6.74758 1.94026 0
M  V30 5267 H 487.801 -2.26768 1.9334 0
M  V30 5268 H 485.338 -1.11171 0.963297 0
M  V30 5269 H 487.296 -4.15899 0.329227 0
M  V30 5270 H 485.926 -3.21314 -0.309426 0
M  V30 5271 H 484.978 -3.16513 2.11006 0
M  V30 5272 H 486.29 -4.26797 2.58158 0
M  V30 5273 H 485.444 -5.98854 0.972546 0
M  V30 5274 H 484.183 -4.86061 0.399445 0
M  V30 5275 H 483.188 -4.78759 2.70315 0
M  V30 5276 H 484.413 -5.94988 3.27362 0
M  V30 5277 H 482.359 -6.46874 1.09041 0
M  V30 5278 H 482.276 -7.05386 2.71968 0
M  V30 5279 H 483.544 -7.61387 1.67062 0
M  V30 5280 N 487.773 -1.03688 -1.18687 0
M  V30 5281 C 488.736 -0.629115 -2.20397 0
M  V30 5282 C 489.736 0.311495 -1.57754 0
M  V30 5283 O 490.926 0.0974107 -1.73927 0
M  V30 5284 C 488.058 0.0782231 -3.4081 0
M  V30 5285 H 489.251 -1.52915 -2.57987 0
M  V30 5286 H 486.804 -0.828988 -1.32505 0
M  V30 5287 H 487.539 0.992233 -3.08748 0
M  V30 5288 H 487.324 -0.597776 -3.87517 0
M  V30 5289 H 488.814 0.350156 -4.16129 0
M  V30 5290 N 489.251 1.34841 -0.815825 0
M  V30 5291 C 490.481 2.02436 -0.412695 0
M  V30 5292 C 490.889 1.61604 0.983906 0
M  V30 5293 O 490.232 0.813729 1.64694 0
M  V30 5294 C 490.294 3.56953 -0.427182 0
M  V30 5295 C 489.958 4.21083 -1.77589 0
M  V30 5296 C 490.955 4.42107 -2.73564 0
M  V30 5297 C 488.64 4.58006 -2.06243 0
M  V30 5298 C 490.634 4.99169 -3.9637 0
M  V30 5299 C 488.321 5.1478 -3.2931 0
M  V30 5300 C 489.319 5.35304 -4.24191 0
M  V30 5301 O 489.007 5.90878 -5.45086 0
M  V30 5302 H 488.739 0.655631 -0.164695 0
M  V30 5303 H 491.293 1.73246 -1.1034 0
M  V30 5304 H 489.523 3.85372 0.320175 0
M  V30 5305 H 491.212 4.05875 -0.0450875 0
M  V30 5306 H 491.978 4.13953 -2.52721 0
M  V30 5307 H 487.857 4.41339 -1.33196 0
M  V30 5308 H 491.401 5.15105 -4.70439 0
M  V30 5309 H 487.298 5.42362 -3.5002 0
M  V30 5310 H 488.066 6.0932 -5.46508 0
M  V30 5311 N 490.729 0.570148 1.46925 0
M  V30 5312 C 491.659 -0.158274 2.32963 0
M  V30 5313 C 492.64 -0.896093 1.44583 0
M  V30 5314 O 493.825 -0.874022 1.7342 0
M  V30 5315 C 490.955 -1.18055 3.26619 0
M  V30 5316 C 489.909 -0.558379 4.24342 0
M  V30 5317 C 489.235 -1.68623 5.07415 0
M  V30 5318 C 490.535 0.496295 5.19937 0
M  V30 5319 H 492.229 0.560046 2.94115 0
M  V30 5320 H 489.775 0.270775 1.41431 0
M  V30 5321 H 491.728 -1.69841 3.85658 0
M  V30 5322 H 490.452 -1.92899 2.63548 0
M  V30 5323 H 489.111 -0.0617157 3.66548 0
M  V30 5324 H 488.759 -2.42402 4.40738 0
M  V30 5325 H 488.459 -1.27564 5.73586 0
M  V30 5326 H 489.983 -2.20709 5.69315 0
M  V30 5327 H 491.397 0.0640052 5.73264 0
M  V30 5328 H 489.794 0.82649 5.94381 0
M  V30 5329 H 490.864 1.38735 4.6463 0
M  V30 5330 N 492.207 -1.54576 0.307264 0
M  V30 5331 C 493.437 -2.04378 -0.302158 0
M  V30 5332 C 493.845 -1.18381 -1.47589 0
M  V30 5333 O 493.188 -0.20352 -1.82569 0
M  V30 5334 C 493.25 -3.50133 -0.815305 0
M  V30 5335 C 492.914 -4.56401 0.233977 0
M  V30 5336 C 493.911 -5.08884 1.06456 0
M  V30 5337 C 491.596 -5.0088 0.377478 0
M  V30 5338 C 493.59 -6.04394 2.02452 0
M  V30 5339 C 491.277 -5.96208 1.34088 0
M  V30 5340 C 492.275 -6.47849 2.16288 0
M  V30 5341 O 491.963 -7.41308 3.10994 0
M  V30 5342 H 491.695 -0.672502 -0.0686839 0
M  V30 5343 H 494.249 -2.00484 0.446682 0
M  V30 5344 H 492.479 -3.51371 -1.61478 0
M  V30 5345 H 494.168 -3.83098 -1.34129 0
M  V30 5346 H 494.934 -4.75311 0.964596 0
M  V30 5347 H 490.813 -4.60309 -0.252405 0
M  V30 5348 H 494.357 -6.44626 2.66652 0
M  V30 5349 H 490.254 -6.29198 1.44154 0
M  V30 5350 H 491.022 -7.5913 3.06045 0
M  V30 5351 N 493.685 -0.035106 -1.57561 0
M  V30 5352 C 494.934 0.641604 -1.91223 0
M  V30 5353 C 495.247 1.72944 -0.913761 0
M  V30 5354 O 496.453 2.46321 -1.14185 0
M  V30 5355 C 494.909 1.19249 -3.3957 0
M  V30 5356 C 494.517 0.137616 -4.47789 0
M  V30 5357 C 496.261 1.84537 -3.82291 0
M  V30 5358 C 494.168 0.700478 -5.87237 0
M  V30 5359 H 493.098 0.243417 -0.713627 0
M  V30 5360 H 495.749 -0.101382 -1.8322 0
M  V30 5361 H 494.131 1.98728 -3.42525 0
M  V30 5362 H 495.305 -0.635153 -4.56402 0
M  V30 5363 H 493.62 -0.416855 -4.14308 0
M  V30 5364 H 496.217 2.27616 -4.83834 0
M  V30 5365 H 496.56 2.69054 -3.17672 0
M  V30 5366 H 497.093 1.11739 -3.81784 0
M  V30 5367 H 493.832 -0.106693 -6.55413 0
M  V30 5368 H 493.352 1.4416 -5.82218 0
M  V30 5369 H 495.031 1.18837 -6.35993 0
M  V30 5370 N 495.163 1.55791 0.238111 0
M  V30 5371 C 496.44 1.68798 0.98826 0
M  V30 5372 C 496.82 0.577562 2.03045 0
M  V30 5373 O 496.168 -0.41778 2.24648 0
M  V30 5374 C 496.378 3.09454 1.61367 0
M  V30 5375 C 497.726 3.68335 2.11221 0
M  V30 5376 O 498.75 3.1231 1.71292 0
M  V30 5377 O 497.609 4.6657 2.84561 0
M  V30 5378 H 494.703 0.686881 0.460568 0
M  V30 5379 H 497.249 1.68118 0.231202 0
M  V30 5380 H 496.021 3.81726 0.860295 0
M  V30 5381 H 495.644 3.14182 2.4367 0
M  V30 5382 N 496.642 -0.504142 1.49319 0
M  V30 5383 C 497.552 -1.63248 1.68486 0
M  V30 5384 C 498.568 -1.64488 0.567432 0
M  V30 5385 O 499.744 -1.82966 0.841749 0
M  V30 5386 C 496.809 -2.99627 1.74426 0
M  V30 5387 C 495.87 -3.09039 2.97982 0
M  V30 5388 C 495.103 -4.38913 3.0363 0
M  V30 5389 O 495.326 -5.27528 2.16958 0
M  V30 5390 O 494.26 -4.53231 3.96062 0
M  V30 5391 H 498.086 -1.50008 2.64067 0
M  V30 5392 H 495.671 -0.680086 1.33023 0
M  V30 5393 H 497.553 -3.80689 1.80705 0
M  V30 5394 H 496.228 -3.13136 0.820233 0
M  V30 5395 H 495.135 -2.27177 2.97223 0
M  V30 5396 H 496.468 -3.00456 3.89855 0
M  V30 5397 N 498.12 -1.38341 -0.754957 0
M  V30 5398 C 499.083 -1.35262 -1.85032 0
M  V30 5399 C 500.083 -0.253393 -1.58791 0
M  V30 5400 O 501.273 -0.510205 -1.66561 0
M  V30 5401 C 498.405 -1.10544 -3.22479 0
M  V30 5402 H 499.598 -2.32712 -1.8917 0
M  V30 5403 H 497.151 -1.23614 -0.956515 0
M  V30 5404 H 497.886 -0.136952 -3.24011 0
M  V30 5405 H 497.671 -1.90127 -3.4292 0
M  V30 5406 H 499.161 -1.11082 -4.02555 0
M  V30 5407 N 499.598 0.982988 -1.23187 0
M  V30 5408 C 500.548 2.05962 -0.977942 0
M  V30 5409 C 501.532 1.60725 0.0751148 0
M  V30 5410 O 502.724 1.76471 -0.136683 0
M  V30 5411 C 499.853 3.38564 -0.568276 0
M  V30 5412 C 498.939 3.90407 -1.6566 0
M  V30 5413 N 499.33 4.15359 -2.88635 0
M  V30 5414 C 497.628 4.18915 -1.53058 0
M  V30 5415 C 498.329 4.57642 -3.5908 0
M  V30 5416 N 497.305 4.6192 -2.86584 0
M  V30 5417 H 501.107 2.23208 -1.91195 0
M  V30 5418 H 498.621 1.16555 -1.13087 0
M  V30 5419 H 500.618 4.15276 -0.36764 0
M  V30 5420 H 499.278 3.22712 0.358713 0
M  V30 5421 H 500.289 4.03258 -3.24966 0
M  V30 5422 H 496.966 4.12081 -0.670506 0
M  V30 5423 H 498.356 4.85488 -4.6449 0
M  V30 5424 N 501.076 1.04316 1.18135 0
M  V30 5425 C 502.301 0.768047 1.92655 0
M  V30 5426 C 502.726 -0.66904 1.758 0
M  V30 5427 O 502.084 -1.46372 1.06981 0
M  V30 5428 C 502.132 1.14239 3.42026 0
M  V30 5429 O 501.236 0.269333 4.1152 0
M  V30 5430 H 500.577 0.282436 0.600937 0
M  V30 5431 H 503.107 1.39367 1.49793 0
M  V30 5432 H 503.117 1.10538 3.92741 0
M  V30 5433 H 501.792 2.18928 3.53615 0
M  V30 5434 H 500.369 0.366175 3.71098 0
M  V30 5435 N 502.554 -1.34406 0.822964 0
M  V30 5436 C 503.803 -1.97542 0.407458 0
M  V30 5437 C 504.116 -1.65973 -1.035 0
M  V30 5438 O 505.322 -2.22598 -1.55442 0
M  V30 5439 C 503.778 -3.53463 0.677623 0
M  V30 5440 C 503.386 -3.93925 2.1337 0
M  V30 5441 C 505.13 -4.23229 0.328284 0
M  V30 5442 C 503.037 -5.42759 2.34876 0
M  V30 5443 H 501.967 -0.739207 0.148623 0
M  V30 5444 H 504.618 -1.53248 1.00932 0
M  V30 5445 H 503 -3.96 0.00558965 0
M  V30 5446 H 504.174 -3.62494 2.8449 0
M  V30 5447 H 502.489 -3.37097 2.44448 0
M  V30 5448 H 505.086 -5.32659 0.466794 0
M  V30 5449 H 505.429 -4.09899 -0.727224 0
M  V30 5450 H 505.962 -3.86169 0.954896 0
M  V30 5451 H 502.701 -5.61075 3.38932 0
M  V30 5452 H 502.221 -5.75704 1.68299 0
M  V30 5453 H 503.9 -6.0944 2.17236 0
M  V30 5454 N 504.032 -0.577932 -1.46621 0
M  V30 5455 C 505.28 -0.061566 -2.02006 0
M  V30 5456 C 505.601 1.30117 -1.4524 0
M  V30 5457 O 504.871 1.85313 -0.63529 0
M  V30 5458 H 503.451 -0.0197692 -0.746738 0
M  V30 5459 H 506.113 -0.752631 -1.79782 0
M  V30 5460 H 505.209 0.0110238 -3.12098 0
M  V30 5461 N 505.51 1.54411 -0.315457 0
M  V30 5462 C 506.473 2.22713 0.54142 0
M  V30 5463 C 507.473 1.2179 1.04995 0
M  V30 5464 O 508.663 1.46426 0.943667 0
M  V30 5465 C 505.795 2.92485 1.75116 0
M  V30 5466 H 506.988 2.99849 -0.0555508 0
M  V30 5467 H 504.541 1.56159 -0.0664453 0
M  V30 5468 H 505.276 2.19466 2.38758 0
M  V30 5469 H 505.061 3.66483 1.39401 0
M  V30 5470 H 506.551 3.44548 2.35959 0
M  V30 5471 N 506.988 0.0434614 1.5754 0
M  V30 5472 C 508.234 -0.632971 1.92669 0
M  V30 5473 C 508.567 -1.70947 0.921446 0
M  V30 5474 O 507.842 -1.94426 -0.0537202 0
M  V30 5475 C 508.125 -1.23619 3.38216 0
M  V30 5476 C 507.978 -0.168274 4.49485 0
M  V30 5477 C 509.297 -2.15008 3.84005 0
M  V30 5478 H 506.416 -0.228629 0.700641 0
M  V30 5479 H 509.058 0.103651 1.89717 0
M  V30 5480 H 507.208 -1.864 3.40863 0
M  V30 5481 H 508.88 0.463196 4.58969 0
M  V30 5482 H 507.123 0.504581 4.30855 0
M  V30 5483 H 507.794 -0.630218 5.48391 0
M  V30 5484 H 510.27 -1.62198 3.83185 0
M  V30 5485 H 509.146 -2.54161 4.86511 0
M  V30 5486 H 509.407 -3.04707 3.20322 0
M  V30 5487 N 508.466 -1.55915 -0.229846 0
M  V30 5488 C 509.714 -1.7819 -0.953565 0
M  V30 5489 C 510.035 -0.610504 -1.85197 0
M  V30 5490 O 509.305 0.372988 -1.92316 0
M  V30 5491 H 507.885 -0.657208 -0.355087 0
M  V30 5492 H 510.547 -1.9337 -0.243693 0
M  V30 5493 H 509.643 -2.70011 -1.56527 0
M  V30 5494 N 509.944 0.496216 -1.49584 0
M  V30 5495 C 511.355 1.07765 -1.52459 0
M  V30 5496 C 511.706 1.93679 -0.31353 0
M  V30 5497 O 510.831 2.08588 0.576186 0
M  V30 5498 C 511.426 1.96111 -2.76271 0
M  V30 5499 C 509.985 2.49409 -2.81908 0
M  V30 5500 C 509.132 1.27142 -2.46435 0
M  V30 5501 H 512.083 0.279914 -1.56212 0
M  V30 5502 H 512.104 2.80862 -2.56704 0
M  V30 5503 H 511.616 1.33555 -3.64396 0
M  V30 5504 H 509.717 3.1559 -1.98074 0
M  V30 5505 H 509.83 2.86234 -3.84196 0
M  V30 5506 H 508.194 1.59818 -1.98319 0
M  V30 5507 H 508.977 0.662866 -3.3684 0
M  V30 5508 N 511.423 1.38739 0.74761 0
M  V30 5509 C 512.651 1.38521 1.53686 0
M  V30 5510 C 513.066 -0.0235129 1.88785 0
M  V30 5511 O 512.423 -0.991662 1.53207 0
M  V30 5512 C 512.474 2.24641 2.83229 0
M  V30 5513 O 512.195 3.60026 2.49625 0
M  V30 5514 C 513.696 2.32669 3.77333 0
M  V30 5515 H 510.916 0.473589 0.475347 0
M  V30 5516 H 513.46 1.82395 0.924786 0
M  V30 5517 H 511.615 1.84213 3.40799 0
M  V30 5518 H 512.029 4.05435 3.3275 0
M  V30 5519 H 513.503 2.97201 4.65162 0
M  V30 5520 H 513.98 1.3421 4.18192 0
M  V30 5521 H 514.586 2.73512 3.25685 0
M  V30 5522 N 512.901 -0.976442 1.23707 0
M  V30 5523 C 514.149 -1.71487 1.06942 0
M  V30 5524 C 514.47 -1.9098 -0.393897 0
M  V30 5525 O 513.74 -1.48128 -1.28198 0
M  V30 5526 H 512.32 -0.635425 0.392739 0
M  V30 5527 H 514.982 -1.17515 1.55487 0
M  V30 5528 H 514.078 -2.70286 1.56051 0
M  V30 5529 N 514.379 -1.04941 -1.1758 0
M  V30 5530 C 515.795 -0.770282 -1.39781 0
M  V30 5531 C 515.995 0.636417 -1.91186 0
M  V30 5532 O 515.051 1.39923 -2.10185 0
M  V30 5533 C 516.364 -1.82376 -2.3908 0
M  V30 5534 C 517.912 -1.84569 -2.52791 0
M  V30 5535 C 518.387 -2.88933 -3.55361 0
M  V30 5536 N 519.878 -2.8788 -3.62877 0
M  V30 5537 C 520.613 -3.65282 -4.41992 0
M  V30 5538 N 520.109 -4.52461 -5.24643 0
M  V30 5539 N 521.902 -3.53732 -4.36841 0
M  V30 5540 H 514.053 -1.95705 -0.825438 0
M  V30 5541 H 516.316 -0.847284 -0.425222 0
M  V30 5542 H 516.022 -2.83323 -2.08376 0
M  V30 5543 H 515.896 -1.66327 -3.38549 0
M  V30 5544 H 518.283 -0.842879 -2.82807 0
M  V30 5545 H 518.364 -2.04696 -1.53406 0
M  V30 5546 H 518.008 -3.89398 -3.26085 0
M  V30 5547 H 517.938 -2.66059 -4.54445 0
M  V30 5548 H 520.429 -2.24666 -3.03864 0
M  V30 5549 H 520.742 -5.08211 -5.82187 0
M  V30 5550 H 519.087 -4.56524 -5.24033 0
M  V30 5551 H 522.278 -2.85021 -3.71323 0
M  V30 5552 H 522.451 -4.14302 -4.98255 0
M  V30 5553 N 515.857 1.33968 -0.830081 0
M  V30 5554 C 517.105 1.97672 -0.420734 0
M  V30 5555 C 517.426 1.66111 1.02138 0
M  V30 5556 O 516.696 0.955503 1.71017 0
M  V30 5557 H 515.276 0.73125 -0.152587 0
M  V30 5558 H 517.938 1.63483 -1.0611 0
M  V30 5559 H 517.034 3.07294 -0.545588 0
M  V30 5560 N 517.335 0.585699 1.46312 0
M  V30 5561 C 518.581 0.0725284 2.0267 0
M  V30 5562 C 518.914 -1.28523 1.45586 0
M  V30 5563 O 518.189 -1.84283 0.622101 0
M  V30 5564 C 518.472 0.0099788 3.60099 0
M  V30 5565 C 518.325 1.39685 4.27561 0
M  V30 5566 C 519.644 -0.689117 4.34671 0
M  V30 5567 H 516.763 0.0278307 0.736474 0
M  V30 5568 H 519.405 0.753472 1.74421 0
M  V30 5569 H 517.555 -0.56992 3.84297 0
M  V30 5570 H 519.227 2.02215 4.14617 0
M  V30 5571 H 517.47 1.96374 3.86807 0
M  V30 5572 H 518.141 1.30553 5.36339 0
M  V30 5573 H 520.617 -0.196446 4.15636 0
M  V30 5574 H 519.493 -0.701921 5.44393 0
M  V30 5575 H 519.754 -1.75101 4.05946 0
M  V30 5576 N 518.813 -1.54241 0.323641 0
M  V30 5577 C 520.041 -2.04985 -0.280871 0
M  V30 5578 C 520.456 -1.19978 -1.45777 0
M  V30 5579 O 519.813 -0.230471 -1.81039 0
M  V30 5580 C 519.864 -3.54353 -0.715258 0
M  V30 5581 O 519.585 -4.36132 0.414817 0
M  V30 5582 C 521.086 -4.21189 -1.38257 0
M  V30 5583 H 518.306 -0.66851 -0.0577502 0
M  V30 5584 H 520.85 -1.99029 0.469852 0
M  V30 5585 H 519.005 -3.60596 -1.41596 0
M  V30 5586 H 519.419 -5.2445 0.0725227 0
M  V30 5587 H 520.893 -5.27154 -1.63745 0
M  V30 5588 H 521.37 -3.72307 -2.32989 0
M  V30 5589 H 521.976 -4.19085 -0.724447 0
M  V30 5590 N 520.291 -0.0518155 -1.57515 0
M  V30 5591 C 521.201 0.937539 -2.15052 0
M  V30 5592 C 522.217 1.34121 -1.10849 0
M  V30 5593 O 523.393 1.418 -1.4302 0
M  V30 5594 C 520.458 2.19379 -2.68466 0
M  V30 5595 C 519.519 1.84841 -3.87469 0
M  V30 5596 C 518.752 3.04477 -4.38326 0
M  V30 5597 O 518.975 4.17868 -3.88256 0
M  V30 5598 O 517.909 2.85453 -5.29906 0
M  V30 5599 H 521.735 0.478201 -2.99912 0
M  V30 5600 H 519.32 0.17012 -1.48428 0
M  V30 5601 H 521.202 2.93084 -3.02787 0
M  V30 5602 H 519.877 2.64449 -1.86677 0
M  V30 5603 H 518.784 1.08449 -3.58036 0
M  V30 5604 H 520.117 1.44569 -4.7049 0
M  V30 5605 N 521.769 1.56035 0.221574 0
M  V30 5606 C 523.016 1.79047 0.94597 0
M  V30 5607 C 523.344 0.62057 1.84334 0
M  V30 5608 O 522.599 -0.395053 1.91671 0
M  V30 5609 C 522.898 3.07813 1.8162 0
M  V30 5610 C 522.564 4.3797 1.07206 0
M  V30 5611 C 521.226 4.73334 0.866508 0
M  V30 5612 C 523.578 5.18326 0.546565 0
M  V30 5613 C 520.906 5.8657 0.123549 0
M  V30 5614 C 523.258 6.32335 -0.18305 0
M  V30 5615 C 521.922 6.66301 -0.399861 0
M  V30 5616 H 521.192 0.655178 0.346155 0
M  V30 5617 H 523.839 1.90299 0.214146 0
M  V30 5618 H 522.144 2.91682 2.61589 0
M  V30 5619 H 523.841 3.2282 2.37884 0
M  V30 5620 H 520.431 4.10202 1.24226 0
M  V30 5621 H 524.615 4.9144 0.692847 0
M  V30 5622 H 519.871 6.11376 -0.0546591 0
M  V30 5623 H 524.045 6.9383 -0.59775 0
M  V30 5624 H 521.672 7.53889 -0.977489 0
M  V30 5625 N 523.247 -0.488276 1.49845 0
M  V30 5626 C 524.494 -1.24157 1.59973 0
M  V30 5627 C 524.822 -1.92293 0.292182 0
M  V30 5628 O 524.077 -1.81942 -0.720813 0
M  V30 5629 C 524.376 -2.32152 2.71735 0
M  V30 5630 C 524.042 -1.81387 4.12807 0
M  V30 5631 C 522.704 -1.67262 4.51195 0
M  V30 5632 C 525.056 -1.43537 5.01045 0
M  V30 5633 C 522.384 -1.13685 5.7558 0
M  V30 5634 C 524.736 -0.914081 6.25961 0
M  V30 5635 C 523.4 -0.759327 6.63167 0
M  V30 5636 H 522.67 -0.454322 0.585383 0
M  V30 5637 H 525.317 -0.540261 1.83721 0
M  V30 5638 H 523.622 -3.08122 2.42008 0
M  V30 5639 H 525.319 -2.90164 2.76778 0
M  V30 5640 H 521.909 -1.93344 3.82513 0
M  V30 5641 H 526.093 -1.53292 4.72033 0
M  V30 5642 H 521.349 -1.00426 6.03096 0
M  V30 5643 H 525.523 -0.612066 6.93705 0
M  V30 5644 H 523.15 -0.342002 7.5943 0
M  V30 5645 N 524.725 -1.39134 -0.740242 0
M  V30 5646 C 525.973 -1.35803 -1.49673 0
M  V30 5647 C 526.294 0.0470897 -1.94943 0
M  V30 5648 O 525.564 0.997347 -1.68611 0
M  V30 5649 H 524.144 -0.499736 -0.555224 0
M  V30 5650 H 526.806 -1.73947 -0.879107 0
M  V30 5651 H 525.902 -2.0174 -2.38133 0
M  V30 5652 N 526.204 0.969867 -1.24223 0
M  V30 5653 C 527.134 2.08191 -1.05729 0
M  V30 5654 C 528.115 1.70075 0.0290765 0
M  V30 5655 O 529.3 1.93712 -0.137583 0
M  V30 5656 C 526.43 3.40991 -0.658995 0
M  V30 5657 C 525.384 3.93054 -1.69389 0
M  V30 5658 C 524.71 5.22171 -1.15072 0
M  V30 5659 C 526.01 4.21137 -3.08935 0
M  V30 5660 H 527.704 2.23921 -1.98746 0
M  V30 5661 H 525.25 1.07602 -0.956967 0
M  V30 5662 H 527.203 4.18221 -0.51662 0
M  V30 5663 H 525.927 3.25155 0.30686 0
M  V30 5664 H 524.586 3.17977 -1.82444 0
M  V30 5665 H 524.234 5.02694 -0.175539 0
M  V30 5666 H 523.934 5.57973 -1.84229 0
M  V30 5667 H 525.458 6.02013 -1.02042 0
M  V30 5668 H 526.872 4.8908 -2.99121 0
M  V30 5669 H 525.269 4.68163 -3.75425 0
M  V30 5670 H 526.339 3.27996 -3.57137 0
M  V30 5671 N 527.682 1.05563 1.17022 0
M  V30 5672 C 528.959 0.68165 1.83338 0
M  V30 5673 C 529.339 -0.837665 1.93769 0
M  V30 5674 O 528.687 -1.74507 1.47511 0
M  V30 5675 C 528.897 1.375 3.20772 0
M  V30 5676 C 530.245 1.51545 3.96635 0
M  V30 5677 O 531.269 1.33431 3.30264 0
M  V30 5678 O 530.128 1.812 5.15586 0
M  V30 5679 H 527.222 0.240412 0.791285 0
M  V30 5680 H 529.768 1.15545 1.24288 0
M  V30 5681 H 528.54 2.41135 3.08171 0
M  V30 5682 H 528.163 0.890798 3.87493 0
M  V30 5683 N 529.16 -1.33526 0.837174 0
M  V30 5684 C 530.571 -1.80182 0.489017 0
M  V30 5685 C 530.922 -1.69285 -0.991826 0
M  V30 5686 O 530.047 -1.24113 -1.77271 0
M  V30 5687 C 530.642 -3.27149 0.880866 0
M  V30 5688 C 529.201 -3.71828 0.584872 0
M  V30 5689 C 528.348 -2.54974 1.09011 0
M  V30 5690 H 531.299 -1.21071 1.02603 0
M  V30 5691 H 531.32 -3.80024 0.190239 0
M  V30 5692 H 530.832 -3.35048 1.95869 0
M  V30 5693 H 528.933 -3.69457 -0.48295 0
M  V30 5694 H 529.046 -4.65366 1.13892 0
M  V30 5695 H 527.41 -2.4952 0.511047 0
M  V30 5696 H 528.193 -2.65637 2.17467 0
M  V30 5697 N 530.638 -0.59345 -1.46 0
M  V30 5698 C 531.588 0.154751 -2.27474 0
M  V30 5699 C 532.572 0.851849 -1.365 0
M  V30 5700 O 533.764 0.744171 -1.60596 0
M  V30 5701 C 530.893 1.16079 -3.2308 0
M  V30 5702 C 529.979 0.465256 -4.2154 0
M  V30 5703 N 530.37 -0.485197 -5.03467 0
M  V30 5704 C 528.668 0.714634 -4.40237 0
M  V30 5705 C 529.369 -0.892709 -5.74809 0
M  V30 5706 N 528.345 -0.239511 -5.43072 0
M  V30 5707 H 532.147 -0.57546 -2.88211 0
M  V30 5708 H 529.661 -0.416046 -1.5698 0
M  V30 5709 H 531.658 1.71108 -3.80168 0
M  V30 5710 H 530.318 1.89171 -2.63903 0
M  V30 5711 H 531.329 -0.861258 -5.10689 0
M  V30 5712 H 528.006 1.43131 -3.92199 0
M  V30 5713 H 529.396 -1.67581 -6.50666 0
M  V30 5714 N 532.116 1.54067 -0.331816 0
M  V30 5715 C 533.026 2.28322 0.539104 0
M  V30 5716 C 534.042 1.32985 1.1221 0
M  V30 5717 O 535.218 1.6601 1.1403 0
M  V30 5718 C 532.283 3.03277 1.68 0
M  V30 5719 C 531.344 4.14216 1.12798 0
M  V30 5720 C 530.577 4.85588 2.2145 0
M  V30 5721 O 530.8 4.56536 3.41952 0
M  V30 5722 O 529.734 5.72309 1.86404 0
M  V30 5723 H 533.56 3.03632 -0.0641692 0
M  V30 5724 H 531.145 1.49083 -0.0972365 0
M  V30 5725 H 533.027 3.50189 2.34405 0
M  V30 5726 H 531.702 2.30834 2.2693 0
M  V30 5727 H 530.609 3.71635 0.428782 0
M  V30 5728 H 531.942 4.88727 0.583698 0
M  V30 5729 N 533.594 0.0601682 1.57485 0
M  V30 5730 C 534.84 -0.612501 1.93329 0
M  V30 5731 C 535.173 -1.6996 0.939526 0
M  V30 5732 O 534.448 -1.94472 -0.0330957 0
M  V30 5733 C 534.731 -1.20025 3.39508 0
M  V30 5734 C 534.584 -0.12059 4.49638 0
M  V30 5735 C 535.903 -2.10923 3.86264 0
M  V30 5736 H 533.022 -0.221185 0.703027 0
M  V30 5737 H 535.664 0.123768 1.89596 0
M  V30 5738 H 533.814 -1.82774 3.42821 0
M  V30 5739 H 535.486 0.51185 4.58452 0
M  V30 5740 H 533.729 0.550251 4.30296 0
M  V30 5741 H 534.4 -0.572019 5.49028 0
M  V30 5742 H 536.876 -1.58124 3.84884 0
M  V30 5743 H 535.752 -2.48987 4.8918 0
M  V30 5744 H 536.013 -3.01292 3.23536 0
M  V30 5745 N 535.072 -1.5615 -0.213296 0
M  V30 5746 C 536.349 -1.70349 -0.961281 0
M  V30 5747 C 536.729 -0.609791 -2.02101 0
M  V30 5748 O 536.077 0.381987 -2.25285 0
M  V30 5749 C 536.287 -3.11982 -1.56424 0
M  V30 5750 C 537.635 -3.71649 -2.05334 0
M  V30 5751 O 538.659 -3.14995 -1.66302 0
M  V30 5752 O 537.518 -4.71038 -2.77102 0
M  V30 5753 H 534.612 -0.694121 -0.449582 0
M  V30 5754 H 537.158 -1.68464 -0.204426 0
M  V30 5755 H 535.93 -3.83046 -0.799457 0
M  V30 5756 H 535.553 -3.18019 -2.38641 0
M  V30 5757 N 536.55 0.480323 -1.50102 0
M  V30 5758 C 537.796 1.23489 -1.60867 0
M  V30 5759 C 538.129 1.91809 -0.303827 0
M  V30 5760 O 537.404 1.81694 0.694092 0
M  V30 5761 C 537.687 2.28578 -2.78252 0
M  V30 5762 C 537.54 1.64624 -4.18592 0
M  V30 5763 C 538.859 3.2997 -2.91218 0
M  V30 5764 H 535.978 0.447605 -0.585507 0
M  V30 5765 H 538.62 0.530005 -1.82458 0
M  V30 5766 H 536.77 2.88697 -2.59974 0
M  V30 5767 H 538.442 1.08173 -4.48438 0
M  V30 5768 H 536.685 0.949645 -4.23278 0
M  V30 5769 H 537.356 2.40946 -4.96638 0
M  V30 5770 H 539.832 2.79864 -3.07921 0
M  V30 5771 H 538.708 4.00839 -3.74993 0
M  V30 5772 H 538.969 3.93541 -2.0144 0
M  V30 5773 N 538.028 1.39524 0.732853 0
M  V30 5774 C 538.958 1.41153 1.86005 0
M  V30 5775 C 539.939 0.274614 1.67869 0
M  V30 5776 O 541.124 0.480745 1.88155 0
M  V30 5777 C 538.254 1.25638 3.23778 0
M  V30 5778 C 537.208 2.36752 3.56556 0
M  V30 5779 C 536.534 2.06326 4.93289 0
M  V30 5780 C 537.834 3.79069 3.5931 0
M  V30 5781 H 539.528 2.35484 1.84899 0
M  V30 5782 H 537.074 1.13348 0.888162 0
M  V30 5783 H 539.027 1.25398 4.0231 0
M  V30 5784 H 537.751 0.277772 3.25417 0
M  V30 5785 H 536.41 2.36213 2.80355 0
M  V30 5786 H 536.058 1.06897 4.9151 0
M  V30 5787 H 535.758 2.80757 5.16187 0
M  V30 5788 H 537.282 2.07739 5.74175 0
M  V30 5789 H 538.696 3.81526 4.27914 0
M  V30 5790 H 537.093 4.52878 3.93728 0
M  V30 5791 H 538.163 4.09893 2.59068 0
M  V30 5792 N 539.506 -0.963266 1.24736 0
M  V30 5793 C 540.439 -2.05758 0.986852 0
M  V30 5794 C 541.417 -1.62398 -0.0809272 0
M  V30 5795 O 542.601 -1.88414 0.0569347 0
M  V30 5796 C 539.728 -3.35135 0.490095 0
M  V30 5797 C 538.774 -3.97451 1.54709 0
M  V30 5798 S 539.607 -4.34519 3.12976 0
M  V30 5799 C 540.763 -5.67026 2.65014 0
M  V30 5800 H 540.996 -2.27539 1.91346 0
M  V30 5801 H 538.529 -1.10176 1.08169 0
M  V30 5802 H 540.487 -4.09962 0.21012 0
M  V30 5803 H 539.148 -3.11335 -0.415873 0
M  V30 5804 H 538.341 -4.90704 1.15003 0
M  V30 5805 H 537.943 -3.29071 1.77731 0
M  V30 5806 H 540.235 -6.44748 2.08102 0
M  V30 5807 H 541.178 -6.11594 3.56873 0
M  V30 5808 H 541.586 -5.25847 2.05294 0
M  V30 5809 N 540.985 -1.06182 -1.16461 0
M  V30 5810 C 542.233 -0.776326 -1.86595 0
M  V30 5811 C 542.554 0.69921 -1.82033 0
M  V30 5812 O 541.824 1.50579 -1.2531 0
M  V30 5813 H 540.404 -0.284184 -0.690832 0
M  V30 5814 H 543.066 -1.34308 -1.41235 0
M  V30 5815 H 542.162 -1.10022 -2.92064 0
M  V30 5816 N 542.463 1.3308 -0.844243 0
M  V30 5817 C 543.691 2.01808 -0.456203 0
M  V30 5818 C 544.106 1.63498 0.944131 0
M  V30 5819 O 543.463 0.85102 1.61443 0
M  V30 5820 C 543.514 3.56922 -0.573513 0
M  V30 5821 O 543.235 3.93851 -1.91868 0
M  V30 5822 C 544.736 4.42922 -0.183125 0
M  V30 5823 H 541.956 0.646273 -0.180477 0
M  V30 5824 H 544.5 1.69891 -1.1383 0
M  V30 5825 H 542.655 3.87352 0.0607367 0
M  V30 5826 H 543.069 4.88564 -1.90802 0
M  V30 5827 H 544.543 5.51093 -0.316241 0
M  V30 5828 H 545.02 4.30386 0.875477 0
M  V30 5829 H 545.626 4.1786 -0.792027 0
M  V30 5830 N 543.941 0.601185 1.45683 0
M  V30 5831 C 545.188 0.0938811 2.02282 0
M  V30 5832 C 545.516 -1.27315 1.47041 0
M  V30 5833 O 544.771 -1.85193 0.632623 0
M  V30 5834 C 545.07 -0.00222425 3.574 0
M  V30 5835 C 544.736 1.29963 4.31764 0
M  V30 5836 C 543.398 1.65625 4.51798 0
M  V30 5837 C 545.75 2.1603 4.74321 0
M  V30 5838 C 543.078 2.87119 5.11644 0
M  V30 5839 C 545.43 3.36766 5.3551 0
M  V30 5840 C 544.094 3.72689 5.53768 0
M  V30 5841 H 543.364 0.0343535 0.740203 0
M  V30 5842 H 546.011 0.781522 1.74827 0
M  V30 5843 H 544.316 -0.773096 3.84097 0
M  V30 5844 H 546.013 -0.410794 3.9889 0
M  V30 5845 H 542.603 1.01204 4.1648 0
M  V30 5846 H 546.787 1.89778 4.58582 0
M  V30 5847 H 542.043 3.15065 5.2397 0
M  V30 5848 H 546.217 4.03713 5.67441 0
M  V30 5849 H 543.844 4.66918 5.99909 0
M  V30 5850 N 545.419 -1.53889 0.339982 0
M  V30 5851 C 546.647 -2.05271 -0.259114 0
M  V30 5852 C 547.062 -1.21517 -1.44496 0
M  V30 5853 O 546.419 -0.24966 -1.80784 0
M  V30 5854 C 546.47 -3.55092 -0.677634 0
M  V30 5855 O 546.191 -4.35667 0.461051 0
M  V30 5856 C 547.692 -4.22631 -1.33782 0
M  V30 5857 H 544.912 -0.669085 -0.0506566 0
M  V30 5858 H 547.456 -1.9852 0.490935 0
M  V30 5859 H 545.611 -3.62077 -1.37763 0
M  V30 5860 H 546.025 -5.24343 0.128144 0
M  V30 5861 H 547.499 -5.28861 -1.58145 0
M  V30 5862 H 547.976 -3.74758 -2.29027 0
M  V30 5863 H 548.582 -4.19829 -0.679957 0
M  V30 5864 N 546.897 -0.0685191 -1.57451 0
M  V30 5865 C 547.844 0.899861 -2.12535 0
M  V30 5866 C 548.814 1.29749 -1.03703 0
M  V30 5867 O 549.999 1.38392 -1.31348 0
M  V30 5868 C 547.139 2.16328 -2.6888 0
M  V30 5869 C 546.252 1.81857 -3.91857 0
M  V30 5870 C 545.387 3.02786 -4.36457 0
M  V30 5871 C 544.426 2.64317 -5.5209 0
M  V30 5872 N 543.563 3.77994 -5.91663 0
M  V30 5873 H 548.403 0.423243 -2.94979 0
M  V30 5874 H 545.94 0.197268 -1.45771 0
M  V30 5875 H 547.898 2.90281 -2.99655 0
M  V30 5876 H 546.528 2.61536 -1.89206 0
M  V30 5877 H 545.58 0.979808 -3.67565 0
M  V30 5878 H 546.892 1.49553 -4.75852 0
M  V30 5879 H 546.046 3.85021 -4.68875 0
M  V30 5880 H 544.785 3.38281 -3.51308 0
M  V30 5881 H 543.79 1.80503 -5.19325 0
M  V30 5882 H 545.015 2.29995 -6.38967 0
M  V30 5883 H 542.961 4.13258 -5.09464 0
M  V30 5884 H 542.878 3.49447 -6.7039 0
M  V30 5885 H 544.146 4.60818 -6.28703 0
M  V30 5886 N 548.375 1.56261 0.205012 0
M  V30 5887 C 549.6 1.84491 0.947512 0
M  V30 5888 C 550.025 0.650894 1.76479 0
M  V30 5889 O 549.383 -0.40035 1.76824 0
M  V30 5890 C 549.431 3.10863 1.82747 0
M  V30 5891 O 548.535 2.90719 2.925 0
M  V30 5892 H 547.876 0.607783 0.267386 0
M  V30 5893 H 550.406 2.03485 0.213323 0
M  V30 5894 H 550.416 3.41399 2.23407 0
M  V30 5895 H 549.091 3.97392 1.2269 0
M  V30 5896 H 547.668 2.71457 2.55667 0
M  V30 5897 N 549.853 -0.472356 1.50355 0
M  V30 5898 C 551.1 -1.22453 1.61281 0
M  V30 5899 C 551.428 -1.91972 0.31256 0
M  V30 5900 O 550.683 -1.82696 -0.701475 0
M  V30 5901 C 550.982 -2.29257 2.74182 0
M  V30 5902 C 550.648 -1.76999 4.14708 0
M  V30 5903 C 549.31 -1.62467 4.52944 0
M  V30 5904 C 551.662 -1.38215 5.0254 0
M  V30 5905 C 548.99 -1.07574 5.76754 0
M  V30 5906 C 551.342 -0.847638 6.26895 0
M  V30 5907 C 550.006 -0.688946 6.63935 0
M  V30 5908 H 549.276 -0.448087 0.590168 0
M  V30 5909 H 551.923 -0.520744 1.84284 0
M  V30 5910 H 550.228 -3.05538 2.45263 0
M  V30 5911 H 551.925 -2.87212 2.7984 0
M  V30 5912 H 548.515 -1.89276 3.84542 0
M  V30 5913 H 552.699 -1.48276 4.73633 0
M  V30 5914 H 547.955 -0.940237 6.04127 0
M  V30 5915 H 552.129 -0.538455 6.94315 0
M  V30 5916 H 549.756 -0.261435 7.5975 0
M  V30 5917 N 551.331 -1.39911 -0.725443 0
M  V30 5918 C 552.579 -1.37382 -1.48224 0
M  V30 5919 C 552.9 0.0264107 -1.94982 0
M  V30 5920 O 552.17 0.979408 -1.6966 0
M  V30 5921 H 550.75 -0.505596 -0.549892 0
M  V30 5922 H 553.412 -1.7487 -0.860608 0
M  V30 5923 H 552.508 -2.04254 -2.3598 0
M  V30 5924 N 552.809 0.956637 -1.25245 0
M  V30 5925 C 553.772 2.03457 -1.05537 0
M  V30 5926 C 554.772 1.60798 -0.00886317 0
M  V30 5927 O 555.962 1.72384 -0.250865 0
M  V30 5928 C 553.094 3.35543 -0.601965 0
M  V30 5929 H 554.287 2.22372 -2.01223 0
M  V30 5930 H 551.84 1.13344 -1.07623 0
M  V30 5931 H 552.575 3.22323 0.357584 0
M  V30 5932 H 552.36 3.67854 -1.35743 0
M  V30 5933 H 553.85 4.14769 -0.485454 0
M  V30 5934 N 554.287 1.06798 1.15896 0
M  V30 5935 C 555.512 0.808739 1.90982 0
M  V30 5936 C 555.937 -0.6316 1.77179 0
M  V30 5937 O 555.295 -1.4407 1.10061 0
M  V30 5938 C 555.343 1.21468 3.39526 0
M  V30 5939 O 554.447 0.356562 4.10856 0
M  V30 5940 H 553.788 0.29512 0.594811 0
M  V30 5941 H 556.318 1.42513 1.46804 0
M  V30 5942 H 556.328 1.18844 3.90308 0
M  V30 5943 H 555.003 2.26379 3.48891 0
M  V30 5944 H 553.58 0.444808 3.70238 0
M  V30 5945 N 555.766 -1.3263 0.851289 0
M  V30 5946 C 557.014 -1.96978 0.452128 0
M  V30 5947 C 557.335 -1.67715 -0.99482 0
M  V30 5948 O 556.605 -0.98259 -1.69476 0
M  V30 5949 H 555.185 -0.72873 0.164202 0
M  V30 5950 H 557.847 -1.61774 1.08698 0
M  V30 5951 H 556.943 -3.06387 0.594407 0
M  V30 5952 N 557.244 -0.608902 -1.45362 0
M  V30 5953 C 558.492 -0.104401 -2.0183 0
M  V30 5954 C 558.813 1.27007 -1.47967 0
M  V30 5955 O 558.083 1.83924 -0.674455 0
M  V30 5956 H 556.663 -0.0356042 -0.746151 0
M  V30 5957 H 559.325 -0.790596 -1.78145 0
M  V30 5958 H 558.421 -0.0551793 -3.12051 0
M  V30 5959 N 558.722 1.53707 -0.348139 0
M  V30 5960 C 559.952 2.05108 0.247864 0
M  V30 5961 C 560.36 1.22252 1.44399 0
M  V30 5962 O 559.703 0.251853 1.81965 0
M  V30 5963 C 559.765 3.52171 0.722187 0
M  V30 5964 C 559.429 4.5562 -0.354902 0
M  V30 5965 C 560.426 5.05883 -1.19911 0
M  V30 5966 C 558.111 4.99703 -0.510145 0
M  V30 5967 C 560.105 5.98814 -2.18406 0
M  V30 5968 C 557.792 5.92443 -1.49848 0
M  V30 5969 C 558.79 6.41887 -2.33389 0
M  V30 5970 O 558.478 7.32802 -3.3054 0
M  V30 5971 H 558.21 0.674086 0.0508296 0
M  V30 5972 H 560.764 1.99229 -0.49968 0
M  V30 5973 H 558.994 3.55529 1.52105 0
M  V30 5974 H 560.683 3.8652 1.23925 0
M  V30 5975 H 561.449 4.72586 -1.09028 0
M  V30 5976 H 557.328 4.60816 0.130274 0
M  V30 5977 H 560.872 6.3733 -2.83649 0
M  V30 5978 H 556.769 6.25155 -1.60786 0
M  V30 5979 H 557.537 7.50749 -3.26064 0
M  V30 5980 N 560.2 0.0768682 1.57412 0
M  V30 5981 C 561.449 -0.590679 1.92857 0
M  V30 5982 C 561.762 -1.70461 0.959293 0
M  V30 5983 O 562.968 -2.43207 1.20675 0
M  V30 5984 C 561.424 -1.10204 3.42612 0
M  V30 5985 C 561.032 -0.0188447 4.47996 0
M  V30 5986 C 562.776 -1.74336 3.87049 0
M  V30 5987 C 560.683 -0.544536 5.88888 0
M  V30 5988 H 559.613 -0.224411 0.71983 0
M  V30 5989 H 562.264 0.149924 1.82887 0
M  V30 5990 H 560.646 -1.89577 3.47673 0
M  V30 5991 H 561.82 0.755936 4.54557 0
M  V30 5992 H 560.135 0.526555 4.13057 0
M  V30 5993 H 562.732 -2.14708 4.89699 0
M  V30 5994 H 563.075 -2.60537 3.24694 0
M  V30 5995 H 563.608 -1.01577 3.84613 0
M  V30 5996 H 560.347 0.280426 6.549 0
M  V30 5997 H 559.867 -1.28673 5.85836 0
M  V30 5998 H 561.546 -1.01933 6.3892 0
M  V30 5999 N 561.678 -1.56367 -0.196722 0
M  V30 6000 C 562.641 -1.93561 -1.22746 0
M  V30 6001 C 563.641 -0.816566 -1.38524 0
M  V30 6002 O 564.831 -1.084 -1.36363 0
M  V30 6003 C 561.963 -2.20823 -2.59712 0
M  V30 6004 H 563.156 -2.85774 -0.909586 0
M  V30 6005 H 560.709 -1.50032 -0.438174 0
M  V30 6006 H 561.444 -1.31243 -2.96557 0
M  V30 6007 H 561.229 -3.02368 -2.49632 0
M  V30 6008 H 562.719 -2.50608 -3.34044 0
M  V30 6009 N 563.156 0.464375 -1.50603 0
M  V30 6010 C 564.404 1.21356 -1.61608 0
M  V30 6011 C 564.725 1.92329 -0.321643 0
M  V30 6012 O 563.995 1.84403 0.661232 0
M  V30 6013 H 562.575 0.45094 -0.595535 0
M  V30 6014 H 565.237 0.535046 -1.87412 0
M  V30 6015 H 564.333 1.95783 -2.43054 0
M  V30 6016 N 564.634 1.40294 0.718013 0
M  V30 6017 C 566.05 1.2227 1.02577 0
M  V30 6018 C 566.25 0.0961976 2.0127 0
M  V30 6019 O 565.306 -0.546695 2.46511 0
M  V30 6020 C 566.619 2.56348 1.57182 0
M  V30 6021 C 568.167 2.6334 1.69178 0
M  V30 6022 C 568.642 3.9768 2.27188 0
M  V30 6023 N 570.133 3.99409 2.34578 0
M  V30 6024 C 570.868 5.00141 2.8044 0
M  V30 6025 N 570.364 6.11268 3.26073 0
M  V30 6026 N 572.157 4.87511 2.79802 0
M  V30 6027 H 564.308 2.12304 0.0637899 0
M  V30 6028 H 566.571 0.943632 0.0909036 0
M  V30 6029 H 566.277 3.3942 0.921262 0
M  V30 6030 H 566.151 2.77266 2.55741 0
M  V30 6031 H 568.538 1.80641 2.33351 0
M  V30 6032 H 568.619 2.46255 0.692247 0
M  V30 6033 H 568.263 4.80817 1.63638 0
M  V30 6034 H 568.193 4.12093 3.27852 0
M  V30 6035 H 570.684 3.19162 2.02346 0
M  V30 6036 H 570.997 6.84023 3.59628 0
M  V30 6037 H 569.342 6.14837 3.24038 0
M  V30 6038 H 572.533 3.9979 2.43487 0
M  V30 6039 H 572.706 5.66158 3.15228 0
M  V30 6040 N 566.112 -0.949982 1.2575 0
M  V30 6041 C 567.059 -2.04738 1.06541 0
M  V30 6042 C 568.029 -1.66078 -0.0268818 0
M  V30 6043 O 569.214 -1.90348 0.131196 0
M  V30 6044 C 566.354 -3.38027 0.695127 0
M  V30 6045 C 565.467 -3.89776 1.86276 0
M  V30 6046 C 564.602 -5.11411 1.4364 0
M  V30 6047 C 563.641 -5.554 2.57287 0
M  V30 6048 N 562.778 -6.68244 2.15395 0
M  V30 6049 H 567.618 -2.20502 2.00457 0
M  V30 6050 H 565.155 -1.0805 0.998178 0
M  V30 6051 H 567.113 -4.14641 0.461375 0
M  V30 6052 H 565.743 -3.22135 -0.207046 0
M  V30 6053 H 564.795 -3.0964 2.20969 0
M  V30 6054 H 566.107 -4.18368 2.71606 0
M  V30 6055 H 565.261 -5.95457 1.16257 0
M  V30 6056 H 564 -4.84545 0.553879 0
M  V30 6057 H 563.005 -4.69916 2.85409 0
M  V30 6058 H 564.23 -5.84272 3.46125 0
M  V30 6059 H 562.176 -6.43078 1.29565 0
M  V30 6060 H 562.093 -6.96377 2.94272 0
M  V30 6061 H 563.361 -7.55687 1.91201 0
M  V30 6062 N 567.59 -1.07411 -1.15328 0
M  V30 6063 C 568.867 -0.710732 -1.82231 0
M  V30 6064 C 569.247 0.806732 -1.95077 0
M  V30 6065 O 568.595 1.72139 -1.50268 0
M  V30 6066 C 568.805 -1.42586 -3.18544 0
M  V30 6067 C 570.153 -1.57836 -3.94174 0
M  V30 6068 O 571.177 -1.38669 -3.281 0
M  V30 6069 O 570.036 -1.8938 -5.12638 0
M  V30 6070 H 567.13 -0.25297 -0.78736 0
M  V30 6071 H 569.676 -1.17508 -1.22434 0
M  V30 6072 H 568.448 -2.46008 -3.04296 0
M  V30 6073 H 568.071 -0.952332 -3.86026 0
M  V30 6074 N 569.068 1.32177 -0.85831 0
M  V30 6075 C 569.998 2.31282 -0.321041 0
M  V30 6076 C 570.979 1.59841 0.581786 0
M  V30 6077 O 572.164 1.87619 0.501262 0
M  V30 6078 C 569.294 3.4385 0.48832 0
M  V30 6079 C 568.248 4.26799 -0.320391 0
M  V30 6080 C 567.574 5.31164 0.613934 0
M  V30 6081 C 568.874 4.98829 -1.54813 0
M  V30 6082 H 570.568 2.76469 -1.14915 0
M  V30 6083 H 568.114 1.32916 -0.554028 0
M  V30 6084 H 570.067 4.12224 0.874626 0
M  V30 6085 H 568.791 2.97401 1.34983 0
M  V30 6086 H 567.45 3.60077 -0.688497 0
M  V30 6087 H 567.098 4.80967 1.47239 0
M  V30 6088 H 566.798 5.8755 0.0768097 0
M  V30 6089 H 568.322 6.024 0.997336 0
M  V30 6090 H 569.736 5.59864 -1.23392 0
M  V30 6091 H 568.133 5.64957 -2.02346 0
M  V30 6092 H 569.203 4.26483 -2.30739 0
M  V30 6093 N 570.547 0.616602 1.45037 0
M  V30 6094 C 571.793 0.115501 2.02471 0
M  V30 6095 C 572.126 -1.25406 1.4828 0
M  V30 6096 O 571.401 -1.82922 0.661051 0
M  V30 6097 C 571.684 0.0863588 3.59996 0
M  V30 6098 C 571.537 1.48723 4.24501 0
M  V30 6099 C 572.856 -0.596762 4.36035 0
M  V30 6100 H 569.975 0.0434461 0.735718 0
M  V30 6101 H 572.617 0.7903 1.72784 0
M  V30 6102 H 570.767 -0.488277 3.85419 0
M  V30 6103 H 572.439 2.10964 4.10234 0
M  V30 6104 H 570.682 2.04534 3.82555 0
M  V30 6105 H 571.353 1.419 5.3345 0
M  V30 6106 H 573.829 -0.10824 4.15959 0
M  V30 6107 H 572.705 -0.586289 5.4576 0
M  V30 6108 H 572.966 -1.66451 4.09569 0
M  V30 6109 N 572.025 -1.5352 0.356285 0
M  V30 6110 C 573.302 -1.93405 -0.292223 0
M  V30 6111 C 573.682 -1.28901 -1.67176 0
M  V30 6112 O 573.03 -0.444632 -2.24132 0
M  V30 6113 C 573.24 -3.47223 -0.35175 0
M  V30 6114 C 574.588 -4.20389 -0.596534 0
M  V30 6115 O 575.612 -3.53554 -0.433344 0
M  V30 6116 O 574.471 -5.3881 -0.913589 0
M  V30 6117 H 571.565 -0.808666 -0.173172 0
M  V30 6118 H 574.111 -1.64713 0.408391 0
M  V30 6119 H 572.883 -3.86423 0.615841 0
M  V30 6120 H 572.506 -3.8212 -1.09864 0
M  V30 6121 N 573.503 -0.0852151 -1.57369 0
M  V30 6122 C 574.733 0.588605 -1.98038 0
M  V30 6123 C 575.141 1.62869 -0.962817 0
M  V30 6124 O 574.484 1.83611 0.057134 0
M  V30 6125 C 574.546 1.30303 -3.35054 0
M  V30 6126 C 574.21 0.414855 -4.55113 0
M  V30 6127 C 575.207 -0.333011 -5.18832 0
M  V30 6128 C 572.892 0.335804 -5.01176 0
M  V30 6129 C 574.886 -1.14801 -6.26976 0
M  V30 6130 C 572.573 -0.482857 -6.09189 0
M  V30 6131 C 573.571 -1.22342 -6.71953 0
M  V30 6132 O 573.259 -2.02855 -7.77885 0
M  V30 6133 H 572.991 0.163249 -0.655992 0
M  V30 6134 H 575.545 -0.1582 -2.0479 0
M  V30 6135 H 573.775 2.0962 -3.24956 0
M  V30 6136 H 575.464 1.87041 -3.60237 0
M  V30 6137 H 576.23 -0.281611 -4.84182 0
M  V30 6138 H 572.109 0.901869 -4.52092 0
M  V30 6139 H 575.653 -1.72654 -6.75897 0
M  V30 6140 H 571.55 -0.535773 -6.43273 0
M  V30 6141 H 572.318 -1.95432 -7.94826 0
M  V30 6142 N 574.981 1.5647 0.188427 0
M  V30 6143 C 575.911 1.98101 1.23606 0
M  V30 6144 C 576.892 0.853961 1.47111 0
M  V30 6145 O 578.077 1.11879 1.58735 0
M  V30 6146 C 575.207 2.32624 2.57882 0
M  V30 6147 C 574.161 3.48129 2.48978 0
M  V30 6148 C 573.487 3.68347 3.87588 0
M  V30 6149 C 574.787 4.82112 2.00911 0
M  V30 6150 H 576.481 2.85864 0.890068 0
M  V30 6151 H 574.027 1.37532 0.426714 0
M  V30 6152 H 575.98 2.60343 3.3136 0
M  V30 6153 H 574.704 1.41751 2.94235 0
M  V30 6154 H 573.363 3.20511 1.77956 0
M  V30 6155 H 573.011 2.74793 4.21305 0
M  V30 6156 H 572.711 4.46055 3.82503 0
M  V30 6157 H 574.235 3.98449 4.62678 0
M  V30 6158 H 575.649 5.08819 2.64151 0
M  V30 6159 H 574.046 5.63337 2.06814 0
M  V30 6160 H 575.116 4.75249 0.96262 0
M  V30 6161 N 576.459 -0.456382 1.50847 0
M  V30 6162 C 577.875 -0.791345 1.386 0
M  V30 6163 C 578.075 -1.9633 0.453498 0
M  V30 6164 O 577.131 -2.52308 -0.0984353 0
M  V30 6165 C 578.444 -1.08959 2.80265 0
M  V30 6166 C 579.992 -1.19517 2.89283 0
M  V30 6167 C 580.467 -1.52647 4.31814 0
M  V30 6168 N 581.958 -1.59609 4.34832 0
M  V30 6169 C 582.693 -1.86777 5.42127 0
M  V30 6170 N 582.189 -2.11866 6.59609 0
M  V30 6171 N 583.982 -1.88402 5.29586 0
M  V30 6172 H 576.133 0.315746 2.1004 0
M  V30 6173 H 578.396 0.0787916 0.94472 0
M  V30 6174 H 578.102 -0.301355 3.50407 0
M  V30 6175 H 577.976 -2.02211 3.18419 0
M  V30 6176 H 580.363 -1.97406 2.19351 0
M  V30 6177 H 580.444 -0.242111 2.54652 0
M  V30 6178 H 580.088 -0.752922 5.02288 0
M  V30 6179 H 580.018 -2.49127 4.63943 0
M  V30 6180 H 582.509 -1.42201 3.50125 0
M  V30 6181 H 582.822 -2.31912 7.37182 0
M  V30 6182 H 581.167 -2.09228 6.62758 0
M  V30 6183 H 584.358 -1.68307 4.36795 0
M  V30 6184 H 584.531 -2.09238 6.13289 0
M  V30 6185 N 577.937 -1.40673 -0.710563 0
M  V30 6186 C 579.183 -1.39428 -1.47267 0
M  V30 6187 C 579.516 0.00182129 -1.942 0
M  V30 6188 O 578.791 0.971387 -1.68506 0
M  V30 6189 C 579.074 -2.38812 -2.6952 0
M  V30 6190 C 578.927 -3.87467 -2.28449 0
M  V30 6191 C 580.246 -2.3566 -3.71689 0
M  V30 6192 H 577.365 -0.507768 -0.534173 0
M  V30 6193 H 580.007 -1.71843 -0.810547 0
M  V30 6194 H 578.157 -2.113 -3.26013 0
M  V30 6195 H 579.829 -4.25825 -1.77399 0
M  V30 6196 H 578.072 -4.03058 -1.60395 0
M  V30 6197 H 578.743 -4.5253 -3.16103 0
M  V30 6198 H 581.219 -2.6004 -3.24836 0
M  V30 6199 H 580.095 -3.07237 -4.54859 0
M  V30 6200 H 580.356 -1.36996 -4.20339 0
M  V30 6201 N 579.415 0.9433 -1.26252 0
M  V30 6202 C 580.365 2.02746 -1.04297 0
M  V30 6203 C 581.349 1.60882 0.0239435 0
M  V30 6204 O 582.541 1.75947 -0.192757 0
M  V30 6205 C 579.67 3.36585 -0.6757 0
M  V30 6206 C 578.756 3.84939 -1.77996 0
M  V30 6207 N 579.147 4.05966 -3.01704 0
M  V30 6208 C 577.445 4.13833 -1.66308 0
M  V30 6209 C 578.146 4.45987 -3.73458 0
M  V30 6210 N 577.122 4.52569 -3.01135 0
M  V30 6211 H 580.924 2.17012 -1.98199 0
M  V30 6212 H 578.438 1.12898 -1.16738 0
M  V30 6213 H 580.435 4.13896 -0.499571 0
M  V30 6214 H 579.095 3.2369 0.255863 0
M  V30 6215 H 580.106 3.92716 -3.37631 0
M  V30 6216 H 576.783 4.09739 -0.801267 0
M  V30 6217 H 578.173 4.70465 -4.79701 0
M  V30 6218 N 580.893 1.08022 1.14757 0
M  V30 6219 C 582.118 0.82895 1.90114 0
M  V30 6220 C 582.543 -0.612772 1.77839 0
M  V30 6221 O 581.901 -1.42895 1.11583 0
M  V30 6222 C 581.949 1.25062 3.38219 0
M  V30 6223 O 581.053 0.400119 4.10454 0
M  V30 6224 H 580.394 0.301412 0.591648 0
M  V30 6225 H 582.924 1.44062 1.45284 0
M  V30 6226 H 582.934 1.22977 3.89025 0
M  V30 6227 H 581.609 2.30067 3.46471 0
M  V30 6228 H 580.186 0.484052 3.69745 0
M  V30 6229 N 582.371 -1.3172 0.865308 0
M  V30 6230 C 583.321 -2.26157 0.289305 0
M  V30 6231 C 584.305 -1.50428 -0.570977 0
M  V30 6232 O 585.497 -1.71978 -0.418617 0
M  V30 6233 C 582.626 -3.39457 -0.512237 0
M  V30 6234 C 581.712 -4.22561 0.361028 0
M  V30 6235 N 582.103 -4.84501 1.45231 0
M  V30 6236 C 580.401 -4.45739 0.152641 0
M  V30 6237 C 581.102 -5.46586 1.99043 0
M  V30 6238 N 580.078 -5.28119 1.28809 0
M  V30 6239 H 583.88 -2.71581 1.12344 0
M  V30 6240 H 581.394 -1.45932 0.712565 0
M  V30 6241 H 583.391 -4.06133 -0.941379 0
M  V30 6242 H 582.051 -2.95577 -1.34404 0
M  V30 6243 H 583.062 -4.84293 1.83524 0
M  V30 6244 H 579.739 -4.1251 -0.643583 0
M  V30 6245 H 581.129 -6.05817 2.90577 0
M  V30 6246 N 583.85 -0.624285 -1.44708 0
M  V30 6247 C 585.075 -0.131171 -2.06985 0
M  V30 6248 C 585.5 1.18234 -1.46295 0
M  V30 6249 O 584.858 1.72375 -0.561842 0
M  V30 6250 C 584.906 -0.0226724 -3.60593 0
M  V30 6251 O 584.01 1.02314 -3.99507 0
M  V30 6252 H 583.351 -0.0816556 -0.65896 0
M  V30 6253 H 585.88 -0.859027 -1.85693 0
M  V30 6254 H 585.891 0.170138 -4.07645 0
M  V30 6255 H 584.566 -0.981685 -4.04148 0
M  V30 6256 H 583.143 0.805452 -3.64097 0
M  V30 6257 N 585.328 1.53329 -0.364422 0
M  V30 6258 C 586.291 2.24323 0.470292 0
M  V30 6259 C 587.291 1.25068 1.01067 0
M  V30 6260 O 588.481 1.49354 0.896605 0
M  V30 6261 C 585.613 2.97908 1.65722 0
M  V30 6262 H 586.806 2.9952 -0.150917 0
M  V30 6263 H 584.359 1.55868 -0.116092 0
M  V30 6264 H 585.094 2.2695 2.31655 0
M  V30 6265 H 584.879 3.70732 1.27671 0
M  V30 6266 H 586.369 3.5188 2.24878 0
M  V30 6267 N 586.806 0.0935595 1.57322 0
M  V30 6268 C 588.052 -0.571355 1.94585 0
M  V30 6269 C 588.385 -1.67929 0.975366 0
M  V30 6270 O 587.66 -1.94498 0.00816206 0
M  V30 6271 C 587.943 -1.12797 3.41978 0
M  V30 6272 C 587.796 -0.0251881 4.49793 0
M  V30 6273 C 589.115 -2.02682 3.90651 0
M  V30 6274 H 586.234 -0.206223 0.70756 0
M  V30 6275 H 588.876 0.163956 1.89291 0
M  V30 6276 H 587.026 -1.75461 3.4662 0
M  V30 6277 H 588.698 0.608979 4.57263 0
M  V30 6278 H 586.941 0.641399 4.29032 0
M  V30 6279 H 587.612 -0.455433 5.50118 0
M  V30 6280 H 590.088 -1.49925 3.88152 0
M  V30 6281 H 588.964 -2.38555 4.94351 0
M  V30 6282 H 589.225 -2.94362 3.29854 0
M  V30 6283 N 588.284 -1.56567 -0.180126 0
M  V30 6284 C 589.514 -1.85349 -0.912647 0
M  V30 6285 C 589.922 -0.675795 -1.76719 0
M  V30 6286 O 589.265 0.3645 -1.80047 0
M  V30 6287 C 589.327 -3.08431 -1.84691 0
M  V30 6288 C 588.991 -4.41694 -1.17284 0
M  V30 6289 C 589.988 -5.17062 -0.542532 0
M  V30 6290 C 587.673 -4.8843 -1.17223 0
M  V30 6291 C 589.667 -6.37351 0.0793953 0
M  V30 6292 C 587.354 -6.08652 -0.54647 0
M  V30 6293 C 588.352 -6.82955 0.0782458 0
M  V30 6294 O 588.04 -8.00897 0.694158 0
M  V30 6295 H 587.772 -0.619286 -0.271036 0
M  V30 6296 H 590.326 -2.0454 -0.187768 0
M  V30 6297 H 588.556 -2.85163 -2.61188 0
M  V30 6298 H 590.245 -3.23733 -2.44851 0
M  V30 6299 H 591.011 -4.8204 -0.535045 0
M  V30 6300 H 586.89 -4.30542 -1.64788 0
M  V30 6301 H 590.434 -6.95287 0.567612 0
M  V30 6302 H 586.331 -6.4314 -0.55151 0
M  V30 6303 H 587.099 -8.16352 0.592537 0
M  V30 6304 N 589.762 0.448376 -1.51087 0
M  V30 6305 C 590.725 1.52588 -1.71025 0
M  V30 6306 C 591.725 1.49958 -0.580442 0
M  V30 6307 O 592.915 1.52176 -0.847833 0
M  V30 6308 C 590.047 2.92163 -1.75652 0
M  V30 6309 H 591.24 1.36218 -2.67179 0
M  V30 6310 H 588.793 0.676313 -1.4091 0
M  V30 6311 H 589.528 3.13951 -0.812724 0
M  V30 6312 H 589.313 2.95478 -2.57751 0
M  V30 6313 H 590.803 3.70349 -1.92953 0
M  V30 6314 N 591.24 1.41047 0.703093 0
M  V30 6315 C 592.465 1.43537 1.49706 0
M  V30 6316 C 592.89 0.0401853 1.88057 0
M  V30 6317 O 592.248 -0.954785 1.54122 0
M  V30 6318 C 592.296 2.3433 2.74084 0
M  V30 6319 O 591.4 1.79515 3.71279 0
M  V30 6320 H 590.741 0.487454 0.450871 0
M  V30 6321 H 593.271 1.85422 0.86486 0
M  V30 6322 H 593.281 2.49947 3.22476 0
M  V30 6323 H 591.956 3.35708 2.45506 0
M  V30 6324 H 590.533 1.7331 3.30179 0
M  V30 6325 N 592.718 -0.936591 1.26751 0
M  V30 6326 C 593.943 -1.72288 1.15462 0
M  V30 6327 C 594.368 -1.85915 -0.285887 0
M  V30 6328 O 593.726 -1.35272 -1.20711 0
M  V30 6329 C 593.774 -3.10503 1.83359 0
M  V30 6330 O 592.878 -3.96745 1.1255 0
M  V30 6331 H 592.219 -0.52843 0.402067 0
M  V30 6332 H 594.749 -1.17271 1.67656 0
M  V30 6333 H 594.759 -3.60867 1.90365 0
M  V30 6334 H 593.434 -2.99901 2.88153 0
M  V30 6335 H 592.011 -3.55191 1.13551 0
M  V30 6336 N 594.196 -1.08629 -1.14182 0
M  V30 6337 C 595.129 -0.662329 -2.18377 0
M  V30 6338 C 596.107 0.327054 -1.59277 0
M  V30 6339 O 597.291 0.230376 -1.87087 0
M  V30 6340 C 594.418 0.0254765 -3.3869 0
M  V30 6341 C 593.464 -0.924414 -4.16361 0
M  V30 6342 S 594.297 -2.43226 -4.77076 0
M  V30 6343 C 595.453 -1.75663 -6.00744 0
M  V30 6344 H 595.686 -1.54501 -2.54001 0
M  V30 6345 H 593.219 -0.901484 -1.2535 0
M  V30 6346 H 595.177 0.416032 -4.08386 0
M  V30 6347 H 593.838 0.884689 -3.01384 0
M  V30 6348 H 593.031 -0.390099 -5.02488 0
M  V30 6349 H 592.633 -1.25598 -3.5228 0
M  V30 6350 H 594.925 -1.07589 -6.68903 0
M  V30 6351 H 595.868 -2.59673 -6.58768 0
M  V30 6352 H 596.276 -1.22903 -5.50958 0
M  V30 6353 N 595.674 1.31259 -0.872281 0
M  V30 6354 C 596.899 2.0133 -0.498099 0
M  V30 6355 C 597.324 1.65031 0.902568 0
M  V30 6356 O 596.682 0.860164 1.59596 0
M  V30 6357 C 596.73 3.54411 -0.665205 0
M  V30 6358 O 595.834 4.11347 0.294473 0
M  V30 6359 H 595.175 0.633844 -0.197832 0
M  V30 6360 H 597.705 1.67402 -1.17633 0
M  V30 6361 H 597.715 4.04147 -0.559373 0
M  V30 6362 H 596.39 3.80171 -1.68651 0
M  V30 6363 H 594.967 3.72624 0.143403 0
M  V30 6364 N 597.152 0.631951 1.44375 0
M  V30 6365 C 598.563 0.219036 1.85411 0
M  V30 6366 C 598.914 -1.22974 1.52879 0
M  V30 6367 O 598.039 -1.93579 0.967266 0
M  V30 6368 C 598.634 0.39075 3.36539 0
M  V30 6369 C 597.193 0.0323351 3.76386 0
M  V30 6370 C 596.34 0.703744 2.68221 0
M  V30 6371 H 599.291 0.837056 1.3483 0
M  V30 6372 H 599.312 -0.370056 3.78696 0
M  V30 6373 H 598.824 1.44527 3.60185 0
M  V30 6374 H 596.925 -1.02042 3.58355 0
M  V30 6375 H 597.038 0.442969 4.77048 0
M  V30 6376 H 595.402 0.138974 2.54321 0
M  V30 6377 H 596.185 1.76088 2.947 0
M  V30 6378 N 598.631 -1.53133 0.372548 0
M  V30 6379 C 600.042 -1.86404 -0.105155 0
M  V30 6380 C 600.393 -1.29289 -1.47576 0
M  V30 6381 O 599.518 -0.617646 -2.07398 0
M  V30 6382 C 600.113 -3.38223 -0.197588 0
M  V30 6383 C 598.672 -3.71266 -0.619556 0
M  V30 6384 C 597.819 -2.76353 0.228919 0
M  V30 6385 H 600.77 -1.47282 0.591077 0
M  V30 6386 H 600.791 -3.66577 -1.01987 0
M  V30 6387 H 600.303 -3.79763 0.800099 0
M  V30 6388 H 598.404 -3.35287 -1.62522 0
M  V30 6389 H 598.517 -4.77515 -0.389332 0
M  V30 6390 H 596.881 -2.52888 -0.303271 0
M  V30 6391 H 597.664 -3.20728 1.22428 0
M  V30 6392 N 600.109 -0.101901 -1.5727 0
M  V30 6393 C 601.358 0.559922 -1.93772 0
M  V30 6394 C 601.671 1.68913 -0.98629 0
M  V30 6395 O 602.877 2.41256 -1.24529 0
M  V30 6396 C 601.333 1.04739 -3.44322 0
M  V30 6397 C 600.941 -0.05243 -4.47969 0
M  V30 6398 C 602.685 1.68157 -3.89774 0
M  V30 6399 C 600.592 0.450781 -5.8968 0
M  V30 6400 H 599.522 0.212931 -0.723309 0
M  V30 6401 H 602.173 -0.179001 -1.82625 0
M  V30 6402 H 600.555 1.84021 -3.50645 0
M  V30 6403 H 601.729 -0.828157 -4.53297 0
M  V30 6404 H 600.044 -0.592202 -4.12167 0
M  V30 6405 H 602.641 2.0689 -4.93052 0
M  V30 6406 H 602.984 2.55338 -3.28798 0
M  V30 6407 H 603.517 0.954453 -3.8618 0
M  V30 6408 H 600.256 -0.38458 -6.54371 0
M  V30 6409 H 599.776 1.19336 -5.87809 0
M  V30 6410 H 601.455 0.917555 -6.40461 0
M  V30 6411 N 601.587 1.56661 0.17182 0
M  V30 6412 C 602.55 1.9549 1.19651 0
M  V30 6413 C 603.55 0.838501 1.37207 0
M  V30 6414 O 604.74 1.10556 1.34622 0
M  V30 6415 C 601.872 2.24927 2.56166 0
M  V30 6416 H 603.065 2.87184 0.864007 0
M  V30 6417 H 600.618 1.50711 0.41425 0
M  V30 6418 H 601.353 1.35944 2.94431 0
M  V30 6419 H 601.138 3.06301 2.4479 0
M  V30 6420 H 602.628 2.55891 3.30014 0
M  V30 6421 N 603.065 -0.440357 1.51323 0
M  V30 6422 C 603.975 -1.55955 1.75258 0
M  V30 6423 C 604.991 -1.61933 0.636687 0
M  V30 6424 O 606.167 -1.79231 0.918593 0
M  V30 6425 C 603.232 -2.9196 1.86977 0
M  V30 6426 C 602.293 -2.96122 3.10822 0
M  V30 6427 C 601.526 -4.2564 3.21973 0
M  V30 6428 O 601.749 -5.17851 2.39137 0
M  V30 6429 O 600.683 -4.36025 4.14929 0
M  V30 6430 H 604.509 -1.38673 2.70191 0
M  V30 6431 H 602.094 -0.623055 1.35788 0
M  V30 6432 H 603.976 -3.72682 1.96688 0
M  V30 6433 H 602.651 -3.09375 0.952307 0
M  V30 6434 H 601.558 -2.14366 3.06591 0
M  V30 6435 H 602.891 -2.83651 4.02247 0
M  V30 6436 N 604.543 -1.41418 -0.695603 0
M  V30 6437 C 605.475 -1.39195 -1.82092 0
M  V30 6438 C 606.488 -0.294132 -1.60121 0
M  V30 6439 O 607.677 -0.555854 -1.69625 0
M  V30 6440 C 604.777 -1.14828 -3.18854 0
M  V30 6441 C 603.95 -2.36649 -3.67853 0
M  V30 6442 C 603.009 -2.08139 -4.83285 0
M  V30 6443 O 602.035 -2.81177 -4.94902 0
M  V30 6444 N 603.237 -1.07162 -5.70523 0
M  V30 6445 H 606.002 -2.36185 -1.84491 0
M  V30 6446 H 603.563 -1.3603 -0.877923 0
M  V30 6447 H 605.555 -0.937075 -3.93702 0
M  V30 6448 H 604.125 -0.264358 -3.1148 0
M  V30 6449 H 603.345 -2.73472 -2.83913 0
M  V30 6450 H 604.633 -3.17816 -3.97329 0
M  V30 6451 H 604.031 -0.467124 -5.63768 0
M  V30 6452 H 602.588 -0.920311 -6.4527 0
M  V30 6453 N 606.021 0.929856 -1.27246 0
M  V30 6454 C 607.27 1.67182 -1.12842 0
M  V30 6455 C 607.583 1.9287 0.325666 0
M  V30 6456 O 608.789 2.64999 0.590572 0
M  V30 6457 C 607.245 3.01097 -1.97151 0
M  V30 6458 C 606.853 2.83115 -3.47203 0
M  V30 6459 C 608.597 3.78907 -1.91389 0
M  V30 6460 C 606.504 4.12573 -4.23719 0
M  V30 6461 H 605.434 0.627064 -0.418697 0
M  V30 6462 H 608.085 1.0332 -1.51649 0
M  V30 6463 H 606.467 3.66004 -1.51186 0
M  V30 6464 H 607.641 2.26989 -4.01015 0
M  V30 6465 H 605.956 2.18736 -3.54321 0
M  V30 6466 H 608.553 4.74837 -2.45834 0
M  V30 6467 H 608.896 4.0674 -0.887047 0
M  V30 6468 H 609.429 3.20794 -2.35237 0
M  V30 6469 H 606.168 3.8992 -5.26918 0
M  V30 6470 H 605.688 4.68371 -3.74685 0
M  V30 6471 H 607.367 4.8095 -4.32777 0
M  V30 6472 N 607.499 1.09233 1.13605 0
M  V30 6473 C 608.748 0.82205 1.84188 0
M  V30 6474 C 609.061 -0.654548 1.84323 0
M  V30 6475 O 610.267 -1.04029 2.50779 0
M  V30 6476 C 608.723 1.42066 3.30674 0
M  V30 6477 C 608.331 2.92965 3.38933 0
M  V30 6478 C 610.075 1.22924 4.06313 0
M  V30 6479 C 607.982 3.45922 4.79679 0
M  V30 6480 H 606.912 0.303854 0.690064 0
M  V30 6481 H 609.563 1.31479 1.28006 0
M  V30 6482 H 607.945 0.855613 3.86646 0
M  V30 6483 H 609.119 3.55679 2.92966 0
M  V30 6484 H 607.434 3.11118 2.76757 0
M  V30 6485 H 610.031 1.59945 5.10217 0
M  V30 6486 H 610.374 0.169726 4.15954 0
M  V30 6487 H 610.907 1.76168 3.56665 0
M  V30 6488 H 607.646 4.51484 4.75229 0
M  V30 6489 H 607.166 2.87971 5.26149 0
M  V30 6490 H 608.845 3.43009 5.48592 0
M  V30 6491 N 608.977 -1.30795 0.87923 0
M  V30 6492 C 610.393 -1.48981 0.57243 0
M  V30 6493 C 610.593 -1.80719 -0.891236 0
M  V30 6494 O 609.649 -1.89136 -1.67283 0
M  V30 6495 C 610.962 -2.61721 1.48063 0
M  V30 6496 C 612.51 -2.75603 1.48365 0
M  V30 6497 C 612.985 -3.91449 2.37763 0
M  V30 6498 N 614.476 -3.98751 2.35695 0
M  V30 6499 C 615.211 -4.87684 3.01583 0
M  V30 6500 N 614.707 -5.81454 3.76674 0
M  V30 6501 N 616.5 -4.81005 2.90844 0
M  V30 6502 H 608.651 -1.08465 1.82617 0
M  V30 6503 H 610.914 -0.536813 0.781368 0
M  V30 6504 H 610.62 -2.45073 2.52254 0
M  V30 6505 H 610.494 -3.58071 1.18596 0
M  V30 6506 H 612.881 -2.9166 0.44927 0
M  V30 6507 H 612.962 -1.79891 1.81859 0
M  V30 6508 H 612.606 -3.76149 3.41283 0
M  V30 6509 H 612.536 -4.86487 2.01589 0
M  V30 6510 H 615.027 -3.31668 1.81121 0
M  V30 6511 H 615.34 -6.46063 4.24054 0
M  V30 6512 H 613.685 -5.81403 3.80782 0
M  V30 6513 H 616.876 -4.06728 2.31711 0
M  V30 6514 H 617.049 -5.50107 3.42471 0
M  V30 6515 N 610.455 -0.639598 -1.44038 0
M  V30 6516 C 611.68 -0.153117 -2.06834 0
M  V30 6517 C 612.105 1.16676 -1.47541 0
M  V30 6518 O 611.463 1.71769 -0.580093 0
M  V30 6519 C 611.511 -0.0609169 -3.60549 0
M  V30 6520 O 610.615 0.98071 -4.00569 0
M  V30 6521 H 609.956 -0.0886402 -0.658057 0
M  V30 6522 H 612.486 -0.878674 -1.84771 0
M  V30 6523 H 612.496 0.126892 -4.07803 0
M  V30 6524 H 611.171 -1.0245 -4.03084 0
M  V30 6525 H 609.748 0.766789 -3.64931 0
M  V30 6526 N 611.933 1.52934 -0.380664 0
M  V30 6527 C 612.863 2.29118 0.450268 0
M  V30 6528 C 613.844 1.32153 1.07096 0
M  V30 6529 O 615.029 1.61038 1.08537 0
M  V30 6530 C 612.159 3.09161 1.58231 0
M  V30 6531 C 611.113 4.13938 1.0881 0
M  V30 6532 C 610.439 4.82153 2.31155 0
M  V30 6533 C 611.739 5.22048 0.162146 0
M  V30 6534 H 613.433 2.98826 -0.185361 0
M  V30 6535 H 610.979 1.43715 -0.0905886 0
M  V30 6536 H 612.932 3.61211 2.17036 0
M  V30 6537 H 611.656 2.3717 2.2454 0
M  V30 6538 H 610.315 3.62855 0.522633 0
M  V30 6539 H 609.963 4.06719 2.95953 0
M  V30 6540 H 609.663 5.52966 1.98752 0
M  V30 6541 H 611.187 5.37004 2.90618 0
M  V30 6542 H 612.601 5.6951 0.658126 0
M  V30 6543 H 610.998 6.00057 -0.0717122 0
M  V30 6544 H 612.068 4.78398 -0.791438 0
M  V30 6545 N 613.412 0.11024 1.57214 0
M  V30 6546 C 614.359 -0.843195 2.14846 0
M  V30 6547 C 615.329 -1.26954 1.07107 0
M  V30 6548 O 616.514 -1.34861 1.34971 0
M  V30 6549 C 613.654 -2.09123 2.74521 0
M  V30 6550 C 612.767 -1.71404 3.96541 0
M  V30 6551 C 611.902 -2.91107 4.44331 0
M  V30 6552 C 610.941 -2.49586 5.58903 0
M  V30 6553 N 610.078 -3.62175 6.01477 0
M  V30 6554 H 614.918 -0.344886 2.95998 0
M  V30 6555 H 612.455 -0.15855 1.46243 0
M  V30 6556 H 614.413 -2.82234 3.07246 0
M  V30 6557 H 613.043 -2.56427 1.96074 0
M  V30 6558 H 612.095 -0.88201 3.70033 0
M  V30 6559 H 613.407 -1.36884 4.7965 0
M  V30 6560 H 612.561 -3.72454 4.78919 0
M  V30 6561 H 611.3 -3.28848 3.60153 0
M  V30 6562 H 610.305 -1.6667 5.23929 0
M  V30 6563 H 611.53 -2.12973 6.4484 0
M  V30 6564 H 609.476 -3.99605 5.20242 0
M  V30 6565 H 609.393 -3.3155 6.79419 0
M  V30 6566 H 610.661 -4.43987 6.407 0
M  V30 6567 N 614.89 -1.56749 -0.16351 0
M  V30 6568 C 615.82 -2.00042 -1.20438 0
M  V30 6569 C 616.801 -0.877256 -1.45733 0
M  V30 6570 O 617.986 -1.1439 -1.56935 0
M  V30 6571 C 615.116 -2.36697 -2.54149 0
M  V30 6572 C 614.07 -3.52046 -2.43408 0
M  V30 6573 C 613.396 -3.74466 -3.81679 0
M  V30 6574 C 614.696 -4.85247 -1.93216 0
M  V30 6575 H 616.39 -2.87244 -0.844477 0
M  V30 6576 H 613.936 -1.38194 -0.40478 0
M  V30 6577 H 615.889 -2.65582 -3.27176 0
M  V30 6578 H 614.613 -1.46414 -2.91943 0
M  V30 6579 H 613.272 -3.23301 -1.72834 0
M  V30 6580 H 612.92 -2.81461 -4.1688 0
M  V30 6581 H 612.62 -4.52084 -3.75359 0
M  V30 6582 H 614.144 -4.0576 -4.5628 0
M  V30 6583 H 615.558 -5.12957 -2.56023 0
M  V30 6584 H 613.955 -5.66556 -1.97825 0
M  V30 6585 H 615.025 -4.7672 -0.88689 0
M  V30 6586 N 616.368 0.432326 -1.51554 0
M  V30 6587 C 617.617 1.17831 -1.63703 0
M  V30 6588 C 617.93 1.92229 -0.36156 0
M  V30 6589 O 619.136 2.69069 -0.362495 0
M  V30 6590 C 617.592 2.14318 -2.89129 0
M  V30 6591 C 617.2 1.45544 -4.23699 0
M  V30 6592 C 618.944 2.89319 -3.10636 0
M  V30 6593 C 616.851 2.40545 -5.4027 0
M  V30 6594 H 615.781 0.443533 -0.60975 0
M  V30 6595 H 618.432 0.444878 -1.78026 0
M  V30 6596 H 616.814 2.91117 -2.68452 0
M  V30 6597 H 617.988 0.742693 -4.54775 0
M  V30 6598 H 616.303 0.826772 -4.0811 0
M  V30 6599 H 618.9 3.60495 -3.94902 0
M  V30 6600 H 619.243 3.50951 -2.23918 0
M  V30 6601 H 619.776 2.19625 -3.31677 0
M  V30 6602 H 616.515 1.83594 -6.29264 0
M  V30 6603 H 616.035 3.09859 -5.13563 0
M  V30 6604 H 617.714 3.01569 -5.72421 0
M  V30 6605 N 617.846 1.41785 0.688094 0
M  V30 6606 C 618.779 1.38643 1.81255 0
M  V30 6607 C 619.757 0.252583 1.60626 0
M  V30 6608 O 620.941 0.440691 1.83276 0
M  V30 6609 C 618.068 1.16449 3.18053 0
M  V30 6610 C 617.114 2.32651 3.57457 0
M  V30 6611 S 617.947 3.95152 3.61407 0
M  V30 6612 C 619.103 3.75275 5.00919 0
M  V30 6613 H 619.336 2.33799 1.83644 0
M  V30 6614 H 616.869 1.28398 0.857513 0
M  V30 6615 H 618.827 1.0433 3.97021 0
M  V30 6616 H 617.488 0.229002 3.13264 0
M  V30 6617 H 616.681 2.12835 4.56856 0
M  V30 6618 H 616.283 2.41215 2.85817 0
M  V30 6619 H 618.575 3.35443 5.88629 0
M  V30 6620 H 619.518 4.74302 5.25778 0
M  V30 6621 H 619.926 3.08401 4.7281 0
M  V30 6622 N 619.324 -0.923095 1.27737 0
M  V30 6623 C 620.572 -1.66797 1.14119 0
M  V30 6624 C 620.893 -1.92479 -0.312541 0
M  V30 6625 O 620.163 -1.53432 -1.218 0
M  V30 6626 H 618.743 -0.618196 0.419336 0
M  V30 6627 H 621.405 -1.10815 1.60331 0
M  V30 6628 H 620.501 -2.63424 1.67374 0
M  V30 6629 N 620.802 -1.09834 -1.13024 0
M  V30 6630 C 621.732 -0.763451 -2.20666 0
M  V30 6631 C 622.713 0.260778 -1.68089 0
M  V30 6632 O 623.898 0.127915 -1.93778 0
M  V30 6633 C 621.028 -0.187744 -3.46792 0
M  V30 6634 C 619.982 -1.14196 -4.12484 0
M  V30 6635 C 619.308 -0.427755 -5.32986 0
M  V30 6636 C 620.608 -2.48607 -4.59338 0
M  V30 6637 H 622.302 -1.66347 -2.48936 0
M  V30 6638 H 619.848 -0.801261 -1.19649 0
M  V30 6639 H 621.801 0.0586375 -4.21359 0
M  V30 6640 H 620.525 0.747485 -3.17931 0
M  V30 6641 H 619.184 -1.37369 -3.3989 0
M  V30 6642 H 618.832 0.511747 -5.0039 0
M  V30 6643 H 618.532 -1.06403 -5.77886 0
M  V30 6644 H 620.056 -0.189772 -6.10305 0
M  V30 6645 H 621.47 -2.29618 -5.25308 0
M  V30 6646 H 619.867 -3.08062 -5.14993 0
M  V30 6647 H 620.937 -3.09062 -3.73642 0
M  V30 6648 N 622.28 1.30327 -0.886154 0
M  V30 6649 C 623.557 1.90922 -0.425217 0
M  V30 6650 C 623.937 1.80533 1.09413 0
M  V30 6651 O 623.285 1.2233 1.92996 0
M  V30 6652 C 623.495 3.36529 -0.924638 0
M  V30 6653 C 624.843 4.13598 -0.960305 0
M  V30 6654 O 625.867 3.45377 -0.871382 0
M  V30 6655 O 624.726 5.35482 -1.09184 0
M  V30 6656 H 621.82 0.81668 -0.130238 0
M  V30 6657 H 624.366 1.38886 -0.975132 0
M  V30 6658 H 623.138 3.38181 -1.96849 0
M  V30 6659 H 622.761 3.96021 -0.353955 0
M  V30 6660 N 623.758 0.647228 1.43697 0
M  V30 6661 C 625.006 0.157876 2.01482 0
M  V30 6662 C 625.327 -1.23039 1.51282 0
M  V30 6663 O 624.597 -1.82071 0.722982 0
M  V30 6664 H 623.177 0.0553745 0.744945 0
M  V30 6665 H 625.839 0.83755 1.75986 0
M  V30 6666 H 624.935 0.137895 3.11795 0
M  V30 6667 N 625.236 -1.5273 0.388769 0
M  V30 6668 C 626.464 -2.05992 -0.193677 0
M  V30 6669 C 626.879 -1.26053 -1.40557 0
M  V30 6670 O 626.236 -0.307049 -1.79898 0
M  V30 6671 C 626.287 -3.57068 -0.564321 0
M  V30 6672 O 626.008 -4.3398 0.599422 0
M  V30 6673 C 627.509 -4.26674 -1.20269 0
M  V30 6674 H 624.729 -0.670358 -0.0293445 0
M  V30 6675 H 627.273 -1.96857 0.553844 0
M  V30 6676 H 625.428 -3.66277 -1.26174 0
M  V30 6677 H 625.842 -5.2367 0.294895 0
M  V30 6678 H 627.316 -5.33625 -1.4124 0
M  V30 6679 H 627.793 -3.81854 -2.16989 0
M  V30 6680 H 628.399 -4.2178 -0.546047 0
M  V30 6681 N 626.714 -0.118576 -1.57153 0
M  V30 6682 C 627.942 0.54726 -1.99531 0
M  V30 6683 C 628.357 1.60251 -0.998246 0
M  V30 6684 O 627.714 1.82498 0.00893106 0
M  V30 6685 C 627.765 1.17378 -3.41913 0
M  V30 6686 O 627.486 0.160703 -4.37805 0
M  V30 6687 C 628.987 1.92297 -3.9942 0
M  V30 6688 H 626.207 0.144919 -0.655164 0
M  V30 6689 H 628.751 -0.20479 -2.03472 0
M  V30 6690 H 626.906 1.87661 -3.38913 0
M  V30 6691 H 627.32 0.61586 -5.20872 0
M  V30 6692 H 628.794 2.31462 -5.01128 0
M  V30 6693 H 629.271 2.79801 -3.38538 0
M  V30 6694 H 629.877 1.26777 -4.05965 0
M  V30 6695 N 628.193 1.56834 0.155195 0
M  V30 6696 C 629.125 1.94235 1.21677 0
M  V30 6697 C 630.138 0.83724 1.39621 0
M  V30 6698 O 631.327 1.11567 1.39338 0
M  V30 6699 C 628.427 2.19402 2.58294 0
M  V30 6700 C 627.6 3.50671 2.61436 0
M  V30 6701 C 626.659 3.64475 3.79532 0
M  V30 6702 O 625.685 4.36945 3.64784 0
M  V30 6703 N 626.887 3.00526 4.96653 0
M  V30 6704 H 629.652 2.85901 0.898932 0
M  V30 6705 H 627.213 1.58185 0.34483 0
M  V30 6706 H 629.205 2.25886 3.35794 0
M  V30 6707 H 627.775 1.34042 2.82403 0
M  V30 6708 H 626.995 3.55702 1.69912 0
M  V30 6709 H 628.283 4.3702 2.60559 0
M  V30 6710 H 627.681 2.41549 5.11538 0
M  V30 6711 H 626.238 3.12583 5.71958 0
M  V30 6712 N 629.671 -0.424282 1.51781 0
M  V30 6713 C 630.919 -1.17028 1.64769 0
M  V30 6714 C 631.24 -1.91409 0.372523 0
M  V30 6715 O 630.51 -1.86091 -0.612108 0
M  V30 6716 H 629.09 -0.434992 0.607282 0
M  V30 6717 H 631.752 -0.485169 1.88765 0
M  V30 6718 H 630.848 -1.8927 2.4816 0
M  V30 6719 N 631.149 -1.42148 -0.680565 0
M  V30 6720 C 632.079 -1.4796 -1.80638 0
M  V30 6721 C 633.06 -0.336728 -1.66734 0
M  V30 6722 O 634.245 -0.550247 -1.86242 0
M  V30 6723 C 631.375 -1.37569 -3.18892 0
M  V30 6724 C 630.329 -2.49823 -3.47524 0
M  V30 6725 C 629.655 -2.24491 -4.85291 0
M  V30 6726 C 630.955 -3.92144 -3.44994 0
M  V30 6727 H 632.649 -2.42184 -1.76032 0
M  V30 6728 H 630.195 -1.16566 -0.845481 0
M  V30 6729 H 632.148 -1.40243 -3.97379 0
M  V30 6730 H 630.872 -0.398357 -3.24162 0
M  V30 6731 H 629.531 -2.46455 -2.71395 0
M  V30 6732 H 629.179 -1.25066 -4.87204 0
M  V30 6733 H 628.879 -2.99722 -5.05411 0
M  V30 6734 H 630.403 -2.28906 -5.66069 0
M  V30 6735 H 631.817 -3.97145 -4.13459 0
M  V30 6736 H 630.214 -4.67179 -3.76648 0
M  V30 6737 H 631.284 -4.19225 -2.43676 0
M  V30 6738 N 632.627 0.916307 -1.28225 0
M  V30 6739 C 633.559 2.02303 -1.07732 0
M  V30 6740 C 634.572 1.62773 -0.0298421 0
M  V30 6741 O 635.761 1.76406 -0.272626 0
M  V30 6742 C 632.861 3.33282 -0.614504 0
M  V30 6743 C 632.034 4.01439 -1.73682 0
M  V30 6744 C 631.093 5.10698 -1.26781 0
M  V30 6745 O 630.119 5.34038 -1.96958 0
M  V30 6746 N 631.321 5.80355 -0.129624 0
M  V30 6747 H 634.086 2.20442 -2.03041 0
M  V30 6748 H 631.647 1.08744 -1.19943 0
M  V30 6749 H 633.639 4.03699 -0.284397 0
M  V30 6750 H 632.209 3.11633 0.245664 0
M  V30 6751 H 631.429 3.24604 -2.23665 0
M  V30 6752 H 632.717 4.43721 -2.48976 0
M  V30 6753 H 632.115 5.6386 0.455847 0
M  V30 6754 H 630.672 6.51647 0.141224 0
M  V30 6755 N 634.105 1.10431 1.1244 0
M  V30 6756 C 635.521 0.836096 1.35947 0
M  V30 6757 C 635.721 -0.544475 1.94004 0
M  V30 6758 O 634.777 -1.29735 2.16622 0
M  V30 6759 C 636.09 1.93575 2.30107 0
M  V30 6760 C 637.638 1.9642 2.43697 0
M  V30 6761 C 638.113 3.05559 3.41171 0
M  V30 6762 N 639.604 3.04865 3.48728 0
M  V30 6763 C 640.339 3.85954 4.24061 0
M  V30 6764 N 639.835 4.76977 5.02458 0
M  V30 6765 N 641.628 3.74172 4.19466 0
M  V30 6766 H 633.779 1.9942 0.731124 0
M  V30 6767 H 636.042 0.866607 0.384312 0
M  V30 6768 H 635.748 2.92943 1.94621 0
M  V30 6769 H 635.622 1.8229 3.30227 0
M  V30 6770 H 638.009 0.97685 2.78463 0
M  V30 6771 H 638.09 2.11782 1.43465 0
M  V30 6772 H 637.734 4.04513 3.07135 0
M  V30 6773 H 637.664 2.87438 4.41234 0
M  V30 6774 H 640.155 2.38908 2.92799 0
M  V30 6775 H 640.468 5.35409 5.57277 0
M  V30 6776 H 638.813 4.81006 5.01655 0
M  V30 6777 H 642.004 3.02412 3.57302 0
M  V30 6778 H 642.177 4.37602 4.77921 0
M  V30 6779 N 635.583 -1.29855 0.893053 0
M  V30 6780 C 636.829 -1.96116 0.516349 0
M  V30 6781 C 637.162 -1.70281 -0.933695 0
M  V30 6782 O 636.437 -1.01205 -1.66096 0
M  V30 6783 C 636.72 -3.51068 0.801455 0
M  V30 6784 C 636.573 -3.86387 2.30272 0
M  V30 6785 C 637.892 -4.39186 0.283423 0
M  V30 6786 H 635.011 -0.712335 0.189072 0
M  V30 6787 H 637.653 -1.53587 1.11852 0
M  V30 6788 H 635.803 -3.87424 0.288949 0
M  V30 6789 H 637.475 -3.60012 2.88425 0
M  V30 6790 H 635.718 -3.34167 2.76613 0
M  V30 6791 H 636.389 -4.94512 2.45279 0
M  V30 6792 H 638.865 -4.09785 0.722187 0
M  V30 6793 H 637.741 -5.46505 0.512169 0
M  V30 6794 H 638.002 -4.34511 -0.815643 0
M  V30 6795 N 637.061 -0.65484 -1.43351 0
M  V30 6796 C 637.993 0.0744757 -2.29079 0
M  V30 6797 C 639.006 0.7855 -1.42596 0
M  V30 6798 O 640.195 0.642986 -1.66517 0
M  V30 6799 C 637.295 1.12859 -3.19556 0
M  V30 6800 C 636.468 0.495381 -4.34586 0
M  V30 6801 C 635.527 1.44659 -5.05925 0
M  V30 6802 O 634.553 0.954567 -5.61139 0
M  V30 6803 N 635.755 2.78051 -5.09576 0
M  V30 6804 H 638.52 -0.661346 -2.92312 0
M  V30 6805 H 636.081 -0.497744 -1.54059 0
M  V30 6806 H 638.073 1.76577 -3.64147 0
M  V30 6807 H 636.643 1.76636 -2.57912 0
M  V30 6808 H 635.863 -0.32092 -3.92892 0
M  V30 6809 H 637.151 0.0534203 -5.08772 0
M  V30 6810 H 636.549 3.20584 -4.66093 0
M  V30 6811 H 635.106 3.37068 -5.57878 0
M  V30 6812 N 638.539 1.52521 -0.396863 0
M  V30 6813 C 639.471 2.24333 0.469814 0
M  V30 6814 C 640.484 1.2685 1.02043 0
M  V30 6815 O 641.673 1.52876 0.92147 0
M  V30 6816 C 638.773 2.95202 1.66461 0
M  V30 6817 C 637.946 4.19454 1.24003 0
M  V30 6818 C 637.005 4.73255 2.30036 0
M  V30 6819 O 636.031 5.36151 1.91131 0
M  V30 6820 N 637.233 4.53765 3.62047 0
M  V30 6821 H 639.998 2.99347 -0.145468 0
M  V30 6822 H 637.559 1.60348 -0.223606 0
M  V30 6823 H 639.551 3.28092 2.36934 0
M  V30 6824 H 638.121 2.2345 2.18607 0
M  V30 6825 H 637.341 3.92517 0.363892 0
M  V30 6826 H 638.629 5.0017 0.933135 0
M  V30 6827 H 638.027 4.03576 3.96412 0
M  V30 6828 H 636.584 4.91124 4.28533 0
M  V30 6829 N 640.017 0.126909 1.57088 0
M  V30 6830 C 640.947 -0.816847 2.18746 0
M  V30 6831 C 641.928 -1.27161 1.12979 0
M  V30 6832 O 643.113 -1.33279 1.41246 0
M  V30 6833 C 640.243 -2.06398 2.79315 0
M  V30 6834 C 639.197 -1.74673 3.90735 0
M  V30 6835 C 638.523 -3.06482 4.38147 0
M  V30 6836 C 639.823 -1.0089 5.12463 0
M  V30 6837 H 641.517 -0.303032 2.97863 0
M  V30 6838 H 639.063 -0.144314 1.43275 0
M  V30 6839 H 641.016 -2.72885 3.2111 0
M  V30 6840 H 639.74 -2.60118 1.975 0
M  V30 6841 H 638.399 -1.10572 3.49527 0
M  V30 6842 H 638.047 -3.58152 3.5318 0
M  V30 6843 H 637.747 -2.86025 5.13287 0
M  V30 6844 H 639.271 -3.74073 4.82599 0
M  V30 6845 H 640.685 -1.57546 5.51228 0
M  V30 6846 H 639.082 -0.905006 5.93237 0
M  V30 6847 H 640.152 0.00297335 4.849 0
M  V30 6848 N 641.495 -1.56914 -0.146875 0
M  V30 6849 C 642.458 -1.97368 -1.16526 0
M  V30 6850 C 643.458 -0.860223 -1.35856 0
M  V30 6851 O 644.648 -1.12684 -1.32846 0
M  V30 6852 C 641.78 -2.28974 -2.52555 0
M  V30 6853 H 642.973 -2.88523 -0.818209 0
M  V30 6854 H 640.526 -1.5135 -0.390221 0
M  V30 6855 H 641.261 -1.40611 -2.92231 0
M  V30 6856 H 641.046 -3.10157 -2.39886 0
M  V30 6857 H 642.536 -2.61109 -3.25902 0
M  V30 6858 N 642.974 0.416227 -1.52004 0
M  V30 6859 C 643.921 1.50666 -1.74838 0
M  V30 6860 C 644.891 1.55245 -0.590599 0
M  V30 6861 O 646.076 1.71928 -0.827374 0
M  V30 6862 C 643.216 2.88185 -1.89851 0
M  V30 6863 C 642.329 2.92971 -3.17478 0
M  V30 6864 C 641.464 4.21745 -3.22962 0
M  V30 6865 C 640.503 4.20478 -4.4482 0
M  V30 6866 N 639.64 5.40811 -4.47736 0
M  V30 6867 H 644.48 1.30498 -2.67907 0
M  V30 6868 H 642.017 0.633568 -1.32757 0
M  V30 6869 H 643.975 3.68007 -1.96537 0
M  V30 6870 H 642.605 3.06865 -1.00169 0
M  V30 6871 H 641.657 2.05684 -3.19997 0
M  V30 6872 H 642.969 2.87899 -4.07328 0
M  V30 6873 H 642.123 5.09954 -3.28682 0
M  V30 6874 H 640.862 4.29503 -2.31038 0
M  V30 6875 H 639.867 3.30659 -4.39254 0
M  V30 6876 H 641.092 4.14366 -5.38031 0
M  V30 6877 H 639.038 5.4925 -3.58692 0
M  V30 6878 H 638.955 5.37705 -5.31422 0
M  V30 6879 H 640.223 6.30993 -4.57676 0
M  V30 6880 N 644.452 1.42507 0.673017 0
M  V30 6881 C 645.4 1.46362 1.80779 0
M  V30 6882 C 646.394 0.339166 1.6597 0
M  V30 6883 O 647.6 0.512262 1.72557 0
M  V30 6884 H 643.975 0.458433 0.596107 0
M  V30 6885 H 645.946 2.41953 1.74646 0
M  V30 6886 C 644.695 1.38462 3.18941 0
M  V30 6887 H 644.018 2.24283 3.30964 0
M  V30 6888 H 645.458 1.45221 3.98355 0
M  V30 6889 C 643.917 0.0996354 3.36753 0
M  V30 6890 O 644.447 -0.846894 3.92671 0
M  V30 6891 N 642.653 0.016211 2.90595 0
M  V30 6892 H 642.2 0.78725 2.45276 0
M  V30 6893 H 642.158 -0.84291 3.0289 0
M  V30 6894 N 645.93 -0.909495 1.28709 0
M  V30 6895 C 647.158 -1.69272 1.18973 0
M  V30 6896 C 647.573 -1.87123 -0.251048 0
M  V30 6897 O 646.93 -1.40127 -1.16922 0
M  V30 6898 C 646.981 -3.08257 1.88839 0
M  V30 6899 O 646.702 -2.91228 3.27289 0
M  V30 6900 C 648.203 -4.02642 1.85457 0
M  V30 6901 H 645.423 -0.528999 0.412797 0
M  V30 6902 H 647.967 -1.13803 1.69909 0
M  V30 6903 H 646.122 -3.6053 1.41762 0
M  V30 6904 H 646.536 -3.79223 3.6234 0
M  V30 6905 H 648.01 -4.97613 2.38925 0
M  V30 6906 H 648.487 -4.31327 0.827893 0
M  V30 6907 H 649.093 -3.56298 2.32233 0
M  V30 6908 N 647.408 -1.11026 -1.11852 0
M  V30 6909 C 648.824 -0.843294 -1.35502 0
M  V30 6910 C 649.024 0.534179 -1.9429 0
M  V30 6911 O 648.08 1.28585 -2.17307 0
M  V30 6912 C 649.393 -1.94793 -2.29077 0
M  V30 6913 C 650.941 -1.97709 -2.42652 0
M  V30 6914 C 651.416 -3.07364 -3.39546 0
M  V30 6915 N 652.907 -3.0671 -3.47107 0
M  V30 6916 C 653.642 -3.88197 -4.22008 0
M  V30 6917 N 653.138 -4.79635 -4.99922 0
M  V30 6918 N 654.931 -3.76391 -4.17476 0
M  V30 6919 H 647.082 -1.99805 -0.720538 0
M  V30 6920 H 649.345 -0.868633 -0.379711 0
M  V30 6921 H 649.051 -2.93971 -1.93065 0
M  V30 6922 H 648.925 -1.84039 -3.29256 0
M  V30 6923 H 651.312 -0.991604 -2.77941 0
M  V30 6924 H 651.393 -2.1254 -1.4234 0
M  V30 6925 H 651.037 -4.06136 -3.04985 0
M  V30 6926 H 650.967 -2.89774 -4.39703 0
M  V30 6927 H 653.458 -2.40457 -2.91528 0
M  V30 6928 H 653.771 -5.38357 -5.54429 0
M  V30 6929 H 652.116 -4.8366 -4.99097 0
M  V30 6930 H 655.307 -3.04303 -3.55693 0
M  V30 6931 H 655.48 -4.40131 -4.75593 0
M  V30 6932 N 648.886 1.2938 -0.899927 0
M  V30 6933 C 650.116 1.99402 -0.540601 0
M  V30 6934 C 650.524 1.67534 0.87914 0
M  V30 6935 O 649.867 0.916821 1.59186 0
M  V30 6936 C 649.929 3.53514 -0.653326 0
M  V30 6937 C 649.593 4.08937 -2.04009 0
M  V30 6938 C 650.59 4.23815 -3.01126 0
M  V30 6939 C 648.275 4.43962 -2.34953 0
M  V30 6940 C 650.269 4.72951 -4.27313 0
M  V30 6941 C 647.956 4.92795 -3.61382 0
M  V30 6942 C 648.954 5.07244 -4.57376 0
M  V30 6943 O 648.642 5.55017 -5.8156 0
M  V30 6944 H 648.374 0.64383 -0.206057 0
M  V30 6945 H 650.928 1.65878 -1.21134 0
M  V30 6946 H 649.158 3.86628 0.0744449 0
M  V30 6947 H 650.847 4.04767 -0.303118 0
M  V30 6948 H 651.613 3.97043 -2.78535 0
M  V30 6949 H 647.492 4.31974 -1.60994 0
M  V30 6950 H 651.036 4.84144 -5.02245 0
M  V30 6951 H 646.933 5.19004 -3.83804 0
M  V30 6952 H 647.701 5.73331 -5.84153 0
M  V30 6953 N 650.364 0.662433 1.43002 0
M  V30 6954 C 651.611 0.179591 2.01702 0
M  V30 6955 C 651.939 -1.20964 1.52309 0
M  V30 6956 O 651.194 -1.82343 0.7106 0
M  V30 6957 C 651.493 0.149363 3.57088 0
M  V30 6958 C 651.159 1.48158 4.25864 0
M  V30 6959 C 649.821 1.84638 4.44367 0
M  V30 6960 C 652.173 2.35953 4.64732 0
M  V30 6961 C 649.501 3.08561 4.99006 0
M  V30 6962 C 651.853 3.59176 5.20745 0
M  V30 6963 C 650.517 3.95841 5.37463 0
M  V30 6964 H 649.787 0.0657172 0.73808 0
M  V30 6965 H 652.434 0.854968 1.71355 0
M  V30 6966 H 650.739 -0.609491 3.8703 0
M  V30 6967 H 652.436 -0.241241 4.00274 0
M  V30 6968 H 649.026 1.18777 4.11813 0
M  V30 6969 H 653.21 2.09058 4.50121 0
M  V30 6970 H 648.466 3.37005 5.10135 0
M  V30 6971 H 652.64 4.27417 5.49807 0
M  V30 6972 H 650.267 4.91942 5.79566 0
M  V30 6973 N 651.842 -1.52309 0.404946 0
M  V30 6974 C 653.258 -1.59503 0.0556255 0
M  V30 6975 C 653.458 -1.41805 -1.43156 0
M  V30 6976 O 652.514 -1.2429 -2.19792 0
M  V30 6977 C 653.827 -2.95687 0.546801 0
M  V30 6978 C 655.375 -3.08909 0.504413 0
M  V30 6979 C 655.85 -4.47566 0.97203 0
M  V30 6980 N 657.341 -4.53795 0.928679 0
M  V30 6981 C 658.076 -5.59346 1.26174 0
M  V30 6982 N 657.572 -6.72469 1.66604 0
M  V30 6983 N 659.365 -5.49532 1.18198 0
M  V30 6984 H 651.516 -1.6206 1.37296 0
M  V30 6985 H 653.779 -0.762161 0.563751 0
M  V30 6986 H 653.485 -3.13905 1.58609 0
M  V30 6987 H 653.359 -3.77172 -0.0457905 0
M  V30 6988 H 655.746 -2.90378 -0.525819 0
M  V30 6989 H 655.827 -2.2934 1.13301 0
M  V30 6990 H 655.471 -4.6684 2.00057 0
M  V30 6991 H 655.401 -5.25625 0.320292 0
M  V30 6992 H 657.892 -3.72588 0.631369 0
M  V30 6993 H 658.205 -7.48993 1.9034 0
M  V30 6994 H 656.55 -6.73761 1.70504 0
M  V30 6995 H 659.741 -4.60038 0.865011 0
M  V30 6996 H 659.914 -6.31687 1.44485 0
M  V30 6997 N 653.32 -0.135238 -1.57019 0
M  V30 6998 C 654.252 0.839675 -2.13265 0
M  V30 6999 C 655.265 1.21887 -1.07923 0
M  V30 7000 O 656.454 1.16499 -1.35241 0
M  V30 7001 C 653.554 2.13647 -2.63075 0
M  V30 7002 C 652.727 1.92646 -3.92691 0
M  V30 7003 C 651.786 3.06205 -4.27931 0
M  V30 7004 O 650.812 2.78409 -4.96465 0
M  V30 7005 N 652.014 4.33072 -3.86561 0
M  V30 7006 H 654.779 0.359026 -2.97542 0
M  V30 7007 H 652.34 0.0486979 -1.61827 0
M  V30 7008 H 654.332 2.88641 -2.8367 0
M  V30 7009 H 652.902 2.5301 -1.83588 0
M  V30 7010 H 652.122 1.01754 -3.80841 0
M  V30 7011 H 653.41 1.75939 -4.77413 0
M  V30 7012 H 652.808 4.58526 -3.31316 0
M  V30 7013 H 651.365 5.04885 -4.12231 0
M  V30 7014 N 654.798 1.5699 0.138552 0
M  V30 7015 C 656.214 1.51844 0.491472 0
M  V30 7016 C 656.414 0.845063 1.82923 0
M  V30 7017 O 655.47 0.419143 2.48997 0
M  V30 7018 C 656.783 2.96615 0.493987 0
M  V30 7019 C 658.331 3.076 0.578913 0
M  V30 7020 C 658.806 4.53893 0.612009 0
M  V30 7021 N 660.297 4.5827 0.673997 0
M  V30 7022 C 661.032 5.68852 0.720729 0
M  V30 7023 N 660.528 6.88982 0.726292 0
M  V30 7024 N 662.321 5.56908 0.762253 0
M  V30 7025 H 654.472 1.99158 -0.738228 0
M  V30 7026 H 656.735 0.908693 -0.270149 0
M  V30 7027 H 656.441 3.49172 -0.420933 0
M  V30 7028 H 656.315 3.53017 1.32887 0
M  V30 7029 H 658.702 2.55057 1.48425 0
M  V30 7030 H 658.783 2.54227 -0.283286 0
M  V30 7031 H 658.427 5.07076 -0.289208 0
M  V30 7032 H 658.357 5.05057 1.49082 0
M  V30 7033 H 660.848 3.71793 0.676654 0
M  V30 7034 H 661.161 7.69014 0.764032 0
M  V30 7035 H 659.506 6.91526 0.69403 0
M  V30 7036 H 662.697 4.61969 0.755135 0
M  V30 7037 H 662.87 6.43102 0.795207 0
M  V30 7038 N 656.276 -0.40816 1.52223 0
M  V30 7039 C 657.206 -1.5042 1.78595 0
M  V30 7040 C 658.187 -1.57723 0.636974 0
M  V30 7041 O 659.372 -1.72982 0.882664 0
M  V30 7042 C 656.502 -2.88232 1.93751 0
M  V30 7043 C 655.456 -2.95779 3.09352 0
M  V30 7044 C 654.782 -4.35855 3.09732 0
M  V30 7045 C 656.082 -2.67175 4.48793 0
M  V30 7046 H 657.776 -1.28601 2.70374 0
M  V30 7047 H 655.322 -0.617221 1.30101 0
M  V30 7048 H 657.275 -3.64895 2.10783 0
M  V30 7049 H 655.999 -3.11347 0.986443 0
M  V30 7050 H 654.658 -2.21561 2.92072 0
M  V30 7051 H 654.306 -4.55981 2.12346 0
M  V30 7052 H 654.006 -4.41829 3.87377 0
M  V30 7053 H 655.53 -5.14451 3.28895 0
M  V30 7054 H 656.944 -3.3356 4.66273 0
M  V30 7055 H 655.341 -2.84523 5.28362 0
M  V30 7056 H 656.411 -1.62609 4.56822 0
M  V30 7057 N 657.755 -1.42862 -0.66545 0
M  V30 7058 C 658.687 -1.43026 -1.79098 0
M  V30 7059 C 659.7 -0.32803 -1.59461 0
M  V30 7060 O 660.889 -0.591709 -1.68407 0
M  V30 7061 C 657.989 -1.21566 -3.16346 0
M  V30 7062 C 657.162 -2.44399 -3.62751 0
M  V30 7063 C 656.221 -2.18344 -4.78761 0
M  V30 7064 O 655.247 -2.91611 -4.88827 0
M  V30 7065 N 656.449 -1.1924 -5.68122 0
M  V30 7066 H 659.214 -2.40045 -1.79439 0
M  V30 7067 H 656.775 -1.37861 -0.848872 0
M  V30 7068 H 658.767 -1.02037 -3.91625 0
M  V30 7069 H 657.337 -0.330368 -3.10849 0
M  V30 7070 H 656.557 -2.79433 -2.78048 0
M  V30 7071 H 657.845 -3.26173 -3.90498 0
M  V30 7072 H 657.243 -0.586603 -5.6265 0
M  V30 7073 H 655.8 -1.05698 -6.43173 0
M  V30 7074 N 659.233 0.902656 -1.29189 0
M  V30 7075 C 660.143 2.03946 -1.15944 0
M  V30 7076 C 661.159 1.738 -0.0833803 0
M  V30 7077 O 662.335 1.9923 -0.29487 0
M  V30 7078 C 659.4 3.36519 -0.834006 0
M  V30 7079 C 658.461 3.80203 -1.9936 0
M  V30 7080 C 657.694 5.06449 -1.68359 0
M  V30 7081 O 657.917 5.67202 -0.603141 0
M  V30 7082 O 656.851 5.46114 -2.53067 0
M  V30 7083 H 660.677 2.18043 -2.11403 0
M  V30 7084 H 658.262 1.02584 -1.08613 0
M  V30 7085 H 660.144 4.16089 -0.666949 0
M  V30 7086 H 658.819 3.23573 0.0908245 0
M  V30 7087 H 657.726 3.01413 -2.21588 0
M  V30 7088 H 659.059 3.97729 -2.89952 0
M  V30 7089 N 660.711 1.11618 1.11262 0
M  V30 7090 C 661.644 0.719995 2.16544 0
M  V30 7091 C 662.622 -0.28471 1.60088 0
M  V30 7092 O 663.806 -0.180693 1.87632 0
M  V30 7093 C 660.933 0.0643302 3.38639 0
M  V30 7094 C 659.979 1.03448 4.13764 0
M  V30 7095 S 660.812 2.55789 4.70459 0
M  V30 7096 C 661.968 1.91529 5.95875 0
M  V30 7097 H 662.201 1.61181 2.49816 0
M  V30 7098 H 659.734 0.934401 1.22916 0
M  V30 7099 H 661.692 -0.307609 4.09346 0
M  V30 7100 H 660.353 -0.804471 3.03623 0
M  V30 7101 H 659.546 0.523188 5.01277 0
M  V30 7102 H 659.148 1.34893 3.48826 0
M  V30 7103 H 661.44 1.25286 6.65815 0
M  V30 7104 H 662.383 2.77047 6.51652 0
M  V30 7105 H 662.791 1.37468 5.47506 0
M  V30 7106 N 662.189 -1.289 0.906776 0
M  V30 7107 C 663.437 -1.94883 0.535266 0
M  V30 7108 C 663.758 -1.71784 -0.922791 0
M  V30 7109 O 663.028 -1.05359 -1.65156 0
M  V30 7110 H 661.608 -0.721109 0.194962 0
M  V30 7111 H 664.27 -1.57018 1.15461 0
M  V30 7112 H 663.366 -3.03591 0.723821 0
M  V30 7113 N 663.667 -0.670007 -1.42649 0
M  V30 7114 C 664.914 -0.190286 -2.01604 0
M  V30 7115 C 665.242 1.20155 -1.52948 0
M  V30 7116 O 664.497 1.81964 -0.72026 0
M  V30 7117 C 664.796 -0.168298 -3.57004 0
M  V30 7118 C 664.462 -1.50415 -4.25072 0
M  V30 7119 C 663.124 -1.86992 -4.43382 0
M  V30 7120 C 665.476 -2.38414 -4.63474 0
M  V30 7121 C 662.804 -3.11203 -4.97363 0
M  V30 7122 C 665.156 -3.61933 -5.18833 0
M  V30 7123 C 663.82 -3.98685 -5.35356 0
M  V30 7124 H 663.09 -0.0696305 -0.737721 0
M  V30 7125 H 665.737 -0.864044 -1.70899 0
M  V30 7126 H 664.042 0.588958 -3.87348 0
M  V30 7127 H 665.739 0.22001 -4.00396 0
M  V30 7128 H 662.329 -1.20959 -4.11177 0
M  V30 7129 H 666.513 -2.11442 -4.49006 0
M  V30 7130 H 661.769 -3.39705 -5.08341 0
M  V30 7131 H 665.943 -4.30326 -5.47533 0
M  V30 7132 H 663.57 -4.95009 -5.76949 0
M  V30 7133 N 665.145 1.52092 -0.413018 0
M  V30 7134 C 666.394 2.01041 0.16287 0
M  V30 7135 C 666.707 1.30288 1.45892 0
M  V30 7136 O 667.913 1.70075 2.11629 0
M  V30 7137 C 666.369 3.58283 0.340806 0
M  V30 7138 C 665.977 4.37955 -0.943377 0
M  V30 7139 C 667.721 4.15452 0.871774 0
M  V30 7140 C 665.628 5.86847 -0.732417 0
M  V30 7141 H 664.558 0.751224 0.0646414 0
M  V30 7142 H 667.209 1.75404 -0.539059 0
M  V30 7143 H 665.591 3.80266 1.10516 0
M  V30 7144 H 666.765 4.2773 -1.71418 0
M  V30 7145 H 665.08 3.92122 -1.40105 0
M  V30 7146 H 667.677 5.24375 1.0457 0
M  V30 7147 H 668.02 3.73057 1.84755 0
M  V30 7148 H 668.553 3.97452 0.166377 0
M  V30 7149 H 665.292 6.33609 -1.67986 0
M  V30 7150 H 664.812 5.998 -0.000980058 0
M  V30 7151 H 666.491 6.45906 -0.376105 0
M  V30 7152 N 666.623 0.143563 1.56945 0
M  V30 7153 C 667.872 -0.50835 1.95189 0
M  V30 7154 C 668.185 -1.66239 1.03073 0
M  V30 7155 O 669.391 -2.3787 1.30882 0
M  V30 7156 C 667.847 -0.955735 3.46978 0
M  V30 7157 C 667.455 0.171183 4.47673 0
M  V30 7158 C 669.199 -1.57763 3.94095 0
M  V30 7159 C 667.106 -0.294279 5.90667 0
M  V30 7160 H 666.036 -0.193679 0.728701 0
M  V30 7161 H 668.687 0.227357 1.82086 0
M  V30 7162 H 667.069 -1.7466 3.55401 0
M  V30 7163 H 668.243 0.948049 4.50942 0
M  V30 7164 H 666.558 0.701273 4.10452 0
M  V30 7165 H 669.155 -1.93745 4.98364 0
M  V30 7166 H 669.498 -2.46531 3.35452 0
M  V30 7167 H 670.031 -0.851728 3.88575 0
M  V30 7168 H 666.77 0.557939 6.53121 0
M  V30 7169 H 666.29 -1.0371 5.90766 0
M  V30 7170 H 667.969 -0.747426 6.42668 0
M  V30 7171 N 668.101 -1.57061 -0.130224 0
M  V30 7172 C 669.331 -1.88159 -0.853217 0
M  V30 7173 C 669.739 -0.731675 -1.7448 0
M  V30 7174 O 669.082 0.307035 -1.81116 0
M  V30 7175 C 669.144 -3.1415 -1.74785 0
M  V30 7176 C 668.808 -4.45202 -1.03173 0
M  V30 7177 C 669.805 -5.18526 -0.377759 0
M  V30 7178 C 667.49 -4.91912 -1.01624 0
M  V30 7179 C 669.484 -6.36775 0.282123 0
M  V30 7180 C 667.171 -6.10082 -0.352555 0
M  V30 7181 C 668.169 -6.82361 0.295483 0
M  V30 7182 O 667.857 -7.98284 0.948606 0
M  V30 7183 H 667.589 -0.627596 -0.251197 0
M  V30 7184 H 670.143 -2.05034 -0.1226 0
M  V30 7185 H 668.373 -2.93328 -2.51983 0
M  V30 7186 H 670.062 -3.31359 -2.34427 0
M  V30 7187 H 670.828 -4.83498 -0.381417 0
M  V30 7188 H 666.707 -4.35566 -1.51007 0
M  V30 7189 H 670.251 -6.93129 0.788525 0
M  V30 7190 H 666.148 -6.44569 -0.346621 0
M  V30 7191 H 666.916 -8.14054 0.851954 0
M  V30 7192 N 669.579 0.400081 -1.52437 0
M  V30 7193 C 670.827 1.14392 -1.6661 0
M  V30 7194 C 671.148 1.90792 -0.402927 0
M  V30 7195 O 670.418 1.87042 0.582425 0
M  V30 7196 H 668.998 0.425275 -0.614125 0
M  V30 7197 H 671.66 0.455076 -1.89513 0
M  V30 7198 H 670.756 1.85298 -2.51139 0
M  V30 7199 N 671.057 1.43213 0.657864 0
M  V30 7200 C 672.005 1.48271 1.79216 0
M  V30 7201 C 672.999 0.35675 1.65601 0
M  V30 7202 O 674.205 0.530535 1.72004 0
M  V30 7203 H 670.58 0.464729 0.591211 0
M  V30 7204 H 672.551 2.43792 1.7207 0
M  V30 7205 C 671.3 1.41837 3.17455 0
M  V30 7206 H 670.623 2.27781 3.28567 0
M  V30 7207 H 672.063 1.49438 3.96793 0
M  V30 7208 C 670.522 0.135347 3.36628 0
M  V30 7209 O 671.052 -0.805199 3.93547 0
M  V30 7210 N 669.258 0.0470316 2.90562 0
M  V30 7211 H 668.805 0.813221 2.44427 0
M  V30 7212 H 668.763 -0.810737 3.03767 0
M  V30 7213 N 672.536 -0.895792 1.29666 0
M  V30 7214 C 673.446 -2.03329 1.17024 0
M  V30 7215 C 674.462 -1.73753 0.0925962 0
M  V30 7216 O 675.638 -1.99071 0.305431 0
M  V30 7217 C 672.703 -3.36072 0.851841 0
M  V30 7218 C 671.764 -3.7914 2.01373 0
M  V30 7219 C 670.997 -5.05549 1.71043 0
M  V30 7220 O 671.22 -5.66874 0.633213 0
M  V30 7221 O 670.154 -5.44764 2.5596 0
M  V30 7222 H 673.98 -2.16918 2.12556 0
M  V30 7223 H 671.565 -1.02007 1.09156 0
M  V30 7224 H 673.447 -4.15729 0.689006 0
M  V30 7225 H 672.122 -3.23616 -0.0736634 0
M  V30 7226 H 671.029 -3.00233 2.23183 0
M  V30 7227 H 672.362 -3.96186 2.92058 0
M  V30 7228 N 674.014 -1.12206 -1.10668 0
M  V30 7229 C 674.962 -0.782918 -2.19028 0
M  V30 7230 C 675.956 0.229175 -1.67843 0
M  V30 7231 O 677.162 0.0876295 -1.79787 0
M  V30 7232 H 673.537 -0.235339 -0.714227 0
M  V30 7233 H 675.508 -1.70527 -2.44874 0
M  V30 7234 C 674.257 -0.25116 -3.46792 0
M  V30 7235 H 673.58 -1.02123 -3.86537 0
M  V30 7236 H 675.02 -0.0521409 -4.23968 0
M  V30 7237 C 673.479 1.02037 -3.21076 0
M  V30 7238 O 674.009 2.09862 -3.42522 0
M  V30 7239 N 672.215 0.946348 -2.74759 0
M  V30 7240 H 671.762 0.068777 -2.57508 0
M  V30 7241 H 671.72 1.79775 -2.57931 0
M  V30 7242 N 675.492 1.28418 -0.913599 0
M  V30 7243 C 676.455 2.25564 -0.406624 0
M  V30 7244 C 677.455 1.5387 0.466965 0
M  V30 7245 O 678.645 1.72094 0.270042 0
M  V30 7246 C 675.777 3.38339 0.417053 0
M  V30 7247 H 676.97 2.71926 -1.26477 0
M  V30 7248 H 674.523 1.40098 -0.692986 0
M  V30 7249 H 675.258 2.97339 1.29461 0
M  V30 7250 H 675.043 3.91542 -0.209102 0
M  V30 7251 H 676.533 4.10578 0.762602 0
M  V30 7252 N 676.97 0.677563 1.42291 0
M  V30 7253 C 678.195 0.207901 2.06355 0
M  V30 7254 C 678.62 -1.12723 1.50583 0
M  V30 7255 O 677.978 -1.70171 0.62543 0
M  V30 7256 C 678.026 0.156489 3.6026 0
M  V30 7257 O 677.13 -0.874162 4.03029 0
M  V30 7258 H 676.471 0.106056 0.655475 0
M  V30 7259 H 679.001 0.927354 1.82377 0
M  V30 7260 H 679.011 -0.0187258 4.07996 0
M  V30 7261 H 677.686 1.13101 4.00226 0
M  V30 7262 H 676.263 -0.669764 3.66836 0
M  V30 7263 N 678.448 -1.51871 0.421078 0
M  V30 7264 C 679.694 -2.02237 -0.151014 0
M  V30 7265 C 680.027 -1.30554 -1.43768 0
M  V30 7266 O 679.302 -0.41546 -1.90011 0
M  V30 7267 C 679.585 -3.5802 -0.386482 0
M  V30 7268 C 679.438 -4.40339 0.9177 0
M  V30 7269 C 680.757 -4.24444 -1.16342 0
M  V30 7270 H 677.876 -0.735062 -0.0534102 0
M  V30 7271 H 680.518 -1.81656 0.556888 0
M  V30 7272 H 678.668 -3.75688 -0.989494 0
M  V30 7273 H 680.34 -4.34357 1.55344 0
M  V30 7274 H 678.583 -4.06073 1.526 0
M  V30 7275 H 679.254 -5.47451 0.707187 0
M  V30 7276 H 681.73 -4.10948 -0.652788 0
M  V30 7277 H 680.606 -5.33358 -1.29693 0
M  V30 7278 H 680.867 -3.84204 -2.18724 0
M  V30 7279 N 679.926 -0.151884 -1.56866 0
M  V30 7280 C 681.172 0.498742 -1.96572 0
M  V30 7281 C 681.505 1.64194 -1.03702 0
M  V30 7282 O 680.78 1.94334 -0.0803432 0
M  V30 7283 C 681.063 1.00027 -3.45929 0
M  V30 7284 C 680.916 -0.141767 -4.49577 0
M  V30 7285 C 682.235 1.88044 -3.97904 0
M  V30 7286 H 679.354 0.17982 -0.714726 0
M  V30 7287 H 681.996 -0.234097 -1.88552 0
M  V30 7288 H 680.146 1.62476 -3.52894 0
M  V30 7289 H 681.818 -0.778269 -4.54687 0
M  V30 7290 H 680.061 -0.80019 -4.26356 0
M  V30 7291 H 680.732 0.250947 -5.51429 0
M  V30 7292 H 683.208 1.35416 -3.93449 0
M  V30 7293 H 682.084 2.20043 -5.02864 0
M  V30 7294 H 682.345 2.81916 -3.40552 0
M  V30 7295 N 681.404 1.57128 0.121893 0
M  V30 7296 C 682.815 1.73902 0.679348 0
M  V30 7297 C 683.166 0.770135 1.80453 0
M  V30 7298 O 682.291 -0.0576083 2.16323 0
M  V30 7299 C 682.886 3.15328 1.2391 0
M  V30 7300 C 681.445 3.33618 1.74288 0
M  V30 7301 C 680.592 2.6978 0.641414 0
M  V30 7302 H 683.543 1.58359 -0.104 0
M  V30 7303 H 683.564 3.16718 2.10879 0
M  V30 7304 H 683.076 3.85821 0.419957 0
M  V30 7305 H 681.177 2.68162 2.58689 0
M  V30 7306 H 681.29 4.4176 1.85432 0
M  V30 7307 H 679.654 2.30935 1.0743 0
M  V30 7308 H 680.437 3.42895 -0.166707 0
M  V30 7309 N 682.882 -0.391992 1.52647 0
M  V30 7310 C 683.812 -1.48517 1.8018 0
M  V30 7311 C 684.793 -1.57039 0.653667 0
M  V30 7312 O 685.978 -1.72036 0.900962 0
M  V30 7313 C 683.108 -2.86161 1.96797 0
M  V30 7314 C 682.062 -2.92481 3.12472 0
M  V30 7315 C 681.388 -4.32546 3.14338 0
M  V30 7316 C 682.688 -2.624 4.51601 0
M  V30 7317 H 684.382 -1.25726 2.71723 0
M  V30 7318 H 681.928 -0.603387 1.30749 0
M  V30 7319 H 683.881 -3.62639 2.14641 0
M  V30 7320 H 682.605 -3.10283 1.01941 0
M  V30 7321 H 681.264 -2.18451 2.94406 0
M  V30 7322 H 680.912 -4.53703 2.1717 0
M  V30 7323 H 680.612 -4.37695 3.92042 0
M  V30 7324 H 682.136 -5.10934 3.34333 0
M  V30 7325 H 683.55 -3.28596 4.69785 0
M  V30 7326 H 681.947 -2.78903 5.3135 0
M  V30 7327 H 683.017 -1.57754 4.58521 0
M  V30 7328 N 684.36 -1.4356 -0.65026 0
M  V30 7329 C 685.29 -1.51758 -1.77459 0
M  V30 7330 C 686.271 -0.372019 -1.65982 0
M  V30 7331 O 687.456 -0.589627 -1.85033 0
M  V30 7332 C 684.586 -1.44302 -3.15902 0
M  V30 7333 C 683.54 -2.57138 -3.42146 0
M  V30 7334 C 682.866 -2.34735 -4.8042 0
M  V30 7335 C 684.166 -3.99373 -3.36598 0
M  V30 7336 H 685.86 -2.45863 -1.70855 0
M  V30 7337 H 683.406 -1.18333 -0.820566 0
M  V30 7338 H 685.359 -1.48641 -3.94314 0
M  V30 7339 H 684.083 -0.467026 -3.23244 0
M  V30 7340 H 682.742 -2.52157 -2.66106 0
M  V30 7341 H 682.39 -1.35372 -4.84441 0
M  V30 7342 H 682.09 -3.10375 -4.9894 0
M  V30 7343 H 683.614 -2.40862 -5.61086 0
M  V30 7344 H 685.028 -4.05826 -4.04942 0
M  V30 7345 H 683.425 -4.75063 -3.66654 0
M  V30 7346 H 684.495 -4.243 -2.34729 0
M  V30 7347 N 685.838 0.888903 -1.30139 0
M  V30 7348 C 686.768 2.01046 -1.18755 0
M  V30 7349 C 687.749 1.69916 -0.0791438 0
M  V30 7350 O 688.934 1.92445 -0.260498 0
M  V30 7351 C 686.064 3.36109 -0.874518 0
M  V30 7352 C 685.018 3.81486 -1.94043 0
M  V30 7353 C 684.344 5.13796 -1.48047 0
M  V30 7354 C 685.644 4.00637 -3.35093 0
M  V30 7355 H 687.338 2.10828 -2.12584 0
M  V30 7356 H 684.884 1.01298 -1.02346 0
M  V30 7357 H 686.837 4.14089 -0.781548 0
M  V30 7358 H 685.561 3.26449 0.0994519 0
M  V30 7359 H 684.22 3.05731 -2.02297 0
M  V30 7360 H 683.868 5.0056 -0.494878 0
M  V30 7361 H 683.568 5.45127 -2.19341 0
M  V30 7362 H 685.092 5.94305 -1.40121 0
M  V30 7363 H 686.506 4.69067 -3.2962 0
M  V30 7364 H 684.903 4.43339 -4.04438 0
M  V30 7365 H 685.973 3.0462 -3.77273 0
M  V30 7366 N 687.317 1.12792 1.10072 0
M  V30 7367 C 688.547 0.907189 1.85617 0
M  V30 7368 C 688.955 -0.547181 1.81115 0
M  V30 7369 O 688.298 -1.39024 1.20075 0
M  V30 7370 C 688.36 1.30872 3.34832 0
M  V30 7371 C 688.024 2.77516 3.6309 0
M  V30 7372 C 689.021 3.75696 3.59373 0
M  V30 7373 C 686.706 3.14513 3.91646 0
M  V30 7374 C 688.7 5.08888 3.83812 0
M  V30 7375 C 686.387 4.47886 4.15742 0
M  V30 7376 C 687.385 5.44882 4.11816 0
M  V30 7377 O 687.073 6.7585 4.35295 0
M  V30 7378 H 686.805 0.323855 0.593375 0
M  V30 7379 H 689.359 1.50262 1.40038 0
M  V30 7380 H 687.589 0.656518 3.81086 0
M  V30 7381 H 689.278 1.06153 3.91773 0
M  V30 7382 H 690.044 3.48458 3.37345 0
M  V30 7383 H 685.923 2.39622 3.93831 0
M  V30 7384 H 689.467 5.84586 3.80663 0
M  V30 7385 H 685.364 4.74851 4.37249 0
M  V30 7386 H 686.132 6.81853 4.52791 0
M  V30 7387 N 688.795 -1.27931 0.920396 0
M  V30 7388 C 689.728 -2.2537 0.358285 0
M  V30 7389 C 690.706 -1.53328 -0.541242 0
M  V30 7390 O 691.89 -1.82196 -0.483399 0
M  V30 7391 C 689.017 -3.35178 -0.487193 0
M  V30 7392 C 688.063 -4.25079 0.347881 0
M  V30 7393 S 688.896 -5.05792 1.75883 0
M  V30 7394 C 690.052 -6.19089 0.920832 0
M  V30 7395 H 690.285 -2.72701 1.18413 0
M  V30 7396 H 687.818 -1.36474 0.722088 0
M  V30 7397 H 689.776 -3.98895 -0.96916 0
M  V30 7398 H 688.437 -2.865 -1.28749 0
M  V30 7399 H 687.63 -5.03113 -0.298912 0
M  V30 7400 H 687.232 -3.66119 0.763748 0
M  V30 7401 H 689.524 -6.77326 0.15349 0
M  V30 7402 H 690.467 -6.8803 1.67394 0
M  V30 7403 H 690.875 -5.62573 0.466069 0
M  V30 7404 N 690.273 -0.685099 -1.4193 0
M  V30 7405 C 691.684 -0.287699 -1.8447 0
M  V30 7406 C 692.035 1.17215 -1.57338 0
M  V30 7407 O 691.16 1.89856 -1.03845 0
M  V30 7408 C 691.755 -0.515385 -3.34857 0
M  V30 7409 C 690.314 -0.172006 -3.76007 0
M  V30 7410 C 689.461 -0.802808 -2.65425 0
M  V30 7411 H 692.412 -0.88652 -1.3163 0
M  V30 7412 H 692.433 0.229251 -3.79809 0
M  V30 7413 H 691.945 -1.57796 -3.54573 0
M  V30 7414 H 690.046 0.886716 -3.61895 0
M  V30 7415 H 690.159 -0.619717 -4.75075 0
M  V30 7416 H 688.523 -0.233267 -2.5363 0
M  V30 7417 H 689.306 -1.86904 -2.87961 0
M  V30 7418 N 691.751 1.51645 -0.429126 0
M  V30 7419 C 692.999 2.01616 0.139802 0
M  V30 7420 C 693.32 1.31568 1.43927 0
M  V30 7421 O 692.59 0.447688 1.90716 0
M  V30 7422 H 691.17 0.744998 0.054654 0
M  V30 7423 H 693.832 1.8638 -0.569952 0
M  V30 7424 H 692.928 3.10439 0.321609 0
M  V30 7425 N 693.229 0.160201 1.56784 0
M  V30 7426 C 694.176 -0.774416 2.1742 0
M  V30 7427 C 695.146 -1.23483 1.11091 0
M  V30 7428 O 696.331 -1.30499 1.39193 0
M  V30 7429 C 693.471 -2.00283 2.81035 0
M  V30 7430 C 692.584 -1.58701 4.01793 0
M  V30 7431 C 691.719 -2.76824 4.53367 0
M  V30 7432 C 690.758 -2.31679 5.66561 0
M  V30 7433 N 689.895 -3.42856 6.12694 0
M  V30 7434 H 694.735 -0.250542 2.96945 0
M  V30 7435 H 692.272 -0.111943 1.46673 0
M  V30 7436 H 694.23 -2.72316 3.16069 0
M  V30 7437 H 692.86 -2.5006 2.04132 0
M  V30 7438 H 691.912 -0.76384 3.72652 0
M  V30 7439 H 693.224 -1.21555 4.83762 0
M  V30 7440 H 692.378 -3.57029 4.90525 0
M  V30 7441 H 691.117 -3.17223 3.70433 0
M  V30 7442 H 690.122 -1.49917 5.28966 0
M  V30 7443 H 691.347 -1.9235 6.5129 0
M  V30 7444 H 689.293 -3.82852 5.32692 0
M  V30 7445 H 689.21 -3.09767 6.89624 0
M  V30 7446 H 690.478 -4.23379 6.545 0
M  V30 7447 N 694.707 -1.5719 -0.113559 0
M  V30 7448 C 695.953 -1.85412 -0.821597 0
M  V30 7449 C 696.286 -0.746722 -1.7927 0
M  V30 7450 O 695.561 0.246971 -1.92926 0
M  V30 7451 C 695.844 -3.24233 -1.56669 0
M  V30 7452 C 695.697 -4.45578 -0.614823 0
M  V30 7453 C 697.016 -3.60697 -2.52161 0
M  V30 7454 H 694.135 -0.674406 -0.29723 0
M  V30 7455 H 696.777 -1.89807 -0.085694 0
M  V30 7456 H 694.927 -3.20617 -2.19401 0
M  V30 7457 H 696.599 -4.613 0.00407137 0
M  V30 7458 H 694.842 -4.33738 0.0732332 0
M  V30 7459 H 695.513 -5.39395 -1.17292 0
M  V30 7460 H 697.989 -3.65139 -1.99532 0
M  V30 7461 H 696.865 -4.58798 -3.01323 0
M  V30 7462 H 697.126 -2.88403 -3.35076 0
M  V30 7463 N 696.185 0.383891 -1.52853 0
M  V30 7464 C 697.148 1.45197 -1.77343 0
M  V30 7465 C 698.148 1.47362 -0.643522 0
M  V30 7466 O 699.338 1.48443 -0.911613 0
M  V30 7467 C 696.47 2.8445 -1.87885 0
M  V30 7468 H 697.663 1.24764 -2.72716 0
M  V30 7469 H 695.216 0.615939 -1.43652 0
M  V30 7470 H 695.951 3.10222 -0.94515 0
M  V30 7471 H 695.736 2.8428 -2.70051 0
M  V30 7472 H 697.226 3.61832 -2.08488 0
M  V30 7473 N 697.663 1.43903 0.642637 0
M  V30 7474 C 698.626 1.49538 1.73698 0
M  V30 7475 C 699.626 0.378776 1.56275 0
M  V30 7476 O 700.816 0.64095 1.6198 0
M  V30 7477 C 697.948 1.35821 3.12675 0
M  V30 7478 H 699.141 2.47008 1.70079 0
M  V30 7479 H 696.694 1.30824 0.85526 0
M  V30 7480 H 697.429 0.393994 3.21898 0
M  V30 7481 H 697.214 2.16776 3.26727 0
M  V30 7482 H 698.704 1.4272 3.92455 0
M  V30 7483 N 699.141 -0.881989 1.30609 0
M  V30 7484 C 700.388 -1.63405 1.19604 0
M  V30 7485 C 700.716 -1.92905 -0.248574 0
M  V30 7486 O 699.971 -1.55062 -1.19391 0
M  V30 7487 C 700.27 -2.97999 1.97311 0
M  V30 7488 C 699.936 -2.88039 3.46907 0
M  V30 7489 C 698.598 -2.85029 3.877 0
M  V30 7490 C 700.95 -2.75948 4.42156 0
M  V30 7491 C 698.278 -2.67772 5.2203 0
M  V30 7492 C 700.63 -2.60228 5.76597 0
M  V30 7493 C 699.294 -2.55595 6.16626 0
M  V30 7494 H 698.564 -0.597941 0.437662 0
M  V30 7495 H 701.211 -1.02524 1.61744 0
M  V30 7496 H 699.516 -3.62847 1.47815 0
M  V30 7497 H 701.213 -3.55156 1.86186 0
M  V30 7498 H 697.803 -2.91192 3.14492 0
M  V30 7499 H 701.987 -2.77337 4.1158 0
M  V30 7500 H 697.243 -2.62601 5.52133 0
M  V30 7501 H 701.417 -2.49847 6.50038 0
M  V30 7502 H 699.044 -2.41981 7.20659 0
M  V30 7503 N 700.619 -1.13374 -1.09472 0
M  V30 7504 C 701.582 -0.813639 -2.14272 0
M  V30 7505 C 702.582 0.176677 -1.59826 0
M  V30 7506 O 703.772 -0.0503441 -1.74127 0
M  V30 7507 C 700.904 -0.210897 -3.40247 0
M  V30 7508 H 702.097 -1.74229 -2.44099 0
M  V30 7509 H 699.65 -0.938304 -1.25002 0
M  V30 7510 H 700.385 0.726998 -3.16046 0
M  V30 7511 H 700.17 -0.924048 -3.81056 0
M  V30 7512 H 701.66 -0.00377603 -4.176 0
M  V30 7513 N 702.098 1.27442 -0.927168 0
M  V30 7514 C 703.514 1.46754 -0.627329 0
M  V30 7515 C 703.714 1.83902 0.823549 0
M  V30 7516 O 702.77 1.95215 1.60148 0
M  V30 7517 C 704.083 2.56045 -1.57674 0
M  V30 7518 C 705.631 2.69906 -1.58491 0
M  V30 7519 C 706.106 3.82355 -2.52128 0
M  V30 7520 N 707.597 3.89728 -2.50332 0
M  V30 7521 C 708.332 4.76155 -3.19475 0
M  V30 7522 N 707.828 5.67073 -3.97995 0
M  V30 7523 N 709.621 4.6988 -3.08496 0
M  V30 7524 H 701.772 1.01613 -1.86517 0
M  V30 7525 H 704.035 0.507443 -0.800753 0
M  V30 7526 H 703.741 2.35542 -2.61176 0
M  V30 7527 H 703.615 3.53423 -1.31804 0
M  V30 7528 H 706.002 2.89792 -0.557208 0
M  V30 7529 H 706.083 1.73018 -1.8841 0
M  V30 7530 H 705.727 3.63224 -3.55008 0
M  V30 7531 H 705.657 4.7867 -2.19505 0
M  V30 7532 H 708.148 3.24717 -1.93306 0
M  V30 7533 H 708.461 6.2988 -4.4774 0
M  V30 7534 H 706.806 5.6687 -4.02098 0
M  V30 7535 H 709.997 3.97848 -2.46646 0
M  V30 7536 H 710.17 5.37017 -3.62652 0
M  V30 7537 N 703.576 0.692616 1.41565 0
M  V30 7538 C 704.526 0.00231847 2.28 0
M  V30 7539 C 705.51 -0.755793 1.42044 0
M  V30 7540 O 706.702 -0.631772 1.65341 0
M  V30 7541 C 703.831 -0.935468 3.30309 0
M  V30 7542 C 702.917 -0.173761 4.23744 0
M  V30 7543 N 703.308 0.830872 4.98929 0
M  V30 7544 C 701.606 -0.409666 4.44115 0
M  V30 7545 C 702.307 1.28656 5.67294 0
M  V30 7546 N 701.283 0.613053 5.40132 0
M  V30 7547 H 705.085 0.772635 2.83562 0
M  V30 7548 H 702.599 0.523198 1.53741 0
M  V30 7549 H 704.596 -1.44513 3.91052 0
M  V30 7550 H 703.256 -1.70542 2.76307 0
M  V30 7551 H 704.267 1.21101 5.03542 0
M  V30 7552 H 700.944 -1.15773 4.01127 0
M  V30 7553 H 702.334 2.12006 6.37576 0
M  V30 7554 N 705.054 -1.51416 0.437162 0
M  V30 7555 C 705.987 -2.24309 -0.419602 0
M  V30 7556 C 706.965 -1.26236 -1.02485 0
M  V30 7557 O 708.149 -1.5537 -1.06735 0
M  V30 7558 C 705.276 -2.99335 -1.58482 0
M  V30 7559 C 704.322 -4.12064 -1.10027 0
M  V30 7560 S 705.155 -5.35483 -0.0424476 0
M  V30 7561 C 706.311 -6.14047 -1.21234 0
M  V30 7562 H 706.544 -2.96632 0.199259 0
M  V30 7563 H 704.077 -1.528 0.22168 0
M  V30 7564 H 706.035 -3.43159 -2.25282 0
M  V30 7565 H 704.696 -2.26602 -2.17509 0
M  V30 7566 H 703.889 -4.63836 -1.97161 0
M  V30 7567 H 703.491 -3.70499 -0.510507 0
M  V30 7568 H 705.783 -6.43123 -2.13072 0
M  V30 7569 H 706.726 -7.04279 -0.734582 0
M  V30 7570 H 707.134 -5.45538 -1.45082 0
M  V30 7571 N 706.532 -0.168513 -1.56696 0
M  V30 7572 C 707.462 0.758563 -2.20835 0
M  V30 7573 C 708.443 1.24121 -1.1631 0
M  V30 7574 O 709.628 1.29487 -1.4473 0
M  V30 7575 C 706.758 1.9892 -2.8469 0
M  V30 7576 C 705.712 1.64252 -3.95228 0
M  V30 7577 C 705.038 2.94757 -4.46119 0
M  V30 7578 C 706.338 0.872675 -5.14958 0
M  V30 7579 H 708.032 0.223953 -2.98561 0
M  V30 7580 H 705.578 0.106277 -1.43607 0
M  V30 7581 H 707.531 2.64275 -3.28233 0
M  V30 7582 H 706.255 2.5479 -2.04327 0
M  V30 7583 H 704.914 1.01266 -3.52336 0
M  V30 7584 H 704.562 3.48662 -3.62552 0
M  V30 7585 H 704.262 2.72316 -5.2069 0
M  V30 7586 H 705.786 3.61147 -4.92347 0
M  V30 7587 H 707.2 1.42875 -5.55211 0
M  V30 7588 H 705.597 0.747402 -5.95428 0
M  V30 7589 H 706.667 -0.131535 -4.84722 0
M  V30 7590 N 708.01 1.57248 0.105221 0
M  V30 7591 C 708.92 2.04653 1.14693 0
M  V30 7592 C 709.936 0.969488 1.44489 0
M  V30 7593 O 711.112 1.28196 1.55331 0
M  V30 7594 C 708.177 2.45297 2.45011 0
M  V30 7595 C 707.238 3.67148 2.22489 0
M  V30 7596 C 706.471 4.05844 3.46592 0
M  V30 7597 O 706.694 3.44736 4.54437 0
M  V30 7598 O 705.628 4.98862 3.36779 0
M  V30 7599 H 709.454 2.93663 0.774336 0
M  V30 7600 H 707.039 1.45998 0.31701 0
M  V30 7601 H 708.921 2.72112 3.21766 0
M  V30 7602 H 707.596 1.59429 2.81717 0
M  V30 7603 H 706.503 3.45463 1.43547 0
M  V30 7604 H 707.836 4.53764 1.9068 0
M  V30 7605 N 709.488 -0.375779 1.53054 0
M  V30 7606 C 710.435 -1.45978 1.78771 0
M  V30 7607 C 711.405 -1.53625 0.631552 0
M  V30 7608 O 712.59 -1.69674 0.872667 0
M  V30 7609 C 709.73 -2.8305 1.97425 0
M  V30 7610 C 708.843 -2.84451 3.25134 0
M  V30 7611 C 707.978 -4.13034 3.34031 0
M  V30 7612 C 707.017 -4.08536 4.55812 0
M  V30 7613 N 706.154 -5.2875 4.61918 0
M  V30 7614 H 710.994 -1.23349 2.71273 0
M  V30 7615 H 708.531 -0.598147 1.3439 0
M  V30 7616 H 710.489 -3.62666 2.06225 0
M  V30 7617 H 709.119 -3.04101 1.0827 0
M  V30 7618 H 708.171 -1.97127 3.25338 0
M  V30 7619 H 709.483 -2.76998 4.14818 0
M  V30 7620 H 708.637 -5.0106 3.42087 0
M  V30 7621 H 707.376 -4.23226 2.42345 0
M  V30 7622 H 706.381 -3.18897 4.47867 0
M  V30 7623 H 707.606 -3.99955 5.48828 0
M  V30 7624 H 705.552 -5.39547 3.73129 0
M  V30 7625 H 705.469 -5.23426 5.45492 0
M  V30 7626 H 706.737 -6.18637 4.74245 0
M  V30 7627 N 710.966 -1.44241 -0.634997 0
M  V30 7628 C 711.913 -1.5081 -1.74714 0
M  V30 7629 C 712.883 -0.356147 -1.62237 0
M  V30 7630 O 714.068 -0.565848 -1.82216 0
M  V30 7631 C 711.208 -1.45458 -3.12947 0
M  V30 7632 C 710.321 -2.70998 -3.36428 0
M  V30 7633 C 709.456 -2.57507 -4.64611 0
M  V30 7634 C 708.495 -3.78229 -4.81258 0
M  V30 7635 N 707.632 -3.63438 -6.00714 0
M  V30 7636 H 712.472 -2.45832 -1.68436 0
M  V30 7637 H 710.009 -1.2201 -0.821706 0
M  V30 7638 H 711.967 -1.40347 -3.92885 0
M  V30 7639 H 710.597 -0.540058 -3.1825 0
M  V30 7640 H 709.649 -2.86312 -2.50458 0
M  V30 7641 H 710.961 -3.60619 -3.44609 0
M  V30 7642 H 710.115 -2.50207 -5.52703 0
M  V30 7643 H 708.854 -1.65441 -4.58782 0
M  V30 7644 H 707.859 -3.85918 -3.91596 0
M  V30 7645 H 709.084 -4.71327 -4.88904 0
M  V30 7646 H 707.03 -2.7412 -5.95982 0
M  V30 7647 H 706.947 -4.46672 -6.09934 0
M  V30 7648 H 708.215 -3.60022 -6.91378 0
M  V30 7649 N 712.444 0.87505 -1.31075 0
M  V30 7650 C 713.693 1.62245 -1.19831 0
M  V30 7651 C 714.006 1.94078 0.24357 0
M  V30 7652 O 715.212 2.67265 0.477646 0
M  V30 7653 C 713.668 2.92464 -2.09744 0
M  V30 7654 C 713.276 2.68134 -3.58898 0
M  V30 7655 C 715.02 3.70449 -2.07287 0
M  V30 7656 C 712.927 3.9423 -4.40836 0
M  V30 7657 H 711.857 0.608741 -0.444916 0
M  V30 7658 H 714.508 0.967947 -1.55894 0
M  V30 7659 H 712.89 3.59262 -1.66574 0
M  V30 7660 H 714.064 2.09776 -4.10281 0
M  V30 7661 H 712.379 2.03511 -3.6328 0
M  V30 7662 H 714.976 4.63983 -2.65752 0
M  V30 7663 H 715.319 4.02611 -1.05876 0
M  V30 7664 H 715.852 3.10528 -2.48631 0
M  V30 7665 H 712.591 3.67221 -5.42982 0
M  V30 7666 H 712.111 4.52058 -3.94213 0
M  V30 7667 H 713.79 4.62162 -4.52786 0
M  V30 7668 N 713.922 1.13953 1.08869 0
M  V30 7669 C 715.17 0.903023 1.80803 0
M  V30 7670 C 715.491 -0.572151 1.86417 0
M  V30 7671 O 714.761 -1.41589 1.35386 0
M  V30 7672 H 713.341 0.331099 0.669614 0
M  V30 7673 H 716.003 1.43719 1.31647 0
M  V30 7674 H 715.099 1.29881 2.83791 0
M  V30 7675 N 715.4 -1.26948 0.933913 0
M  V30 7676 C 716.646 -1.94374 0.57848 0
M  V30 7677 C 716.979 -1.73166 -0.879048 0
M  V30 7678 O 716.254 -1.06438 -1.62792 0
M  V30 7679 C 716.537 -3.4834 0.912739 0
M  V30 7680 C 716.39 -3.78866 2.42448 0
M  V30 7681 C 717.709 -4.38062 0.423003 0
M  V30 7682 H 714.828 -0.705959 0.211639 0
M  V30 7683 H 717.47 -1.49951 1.16682 0
M  V30 7684 H 715.62 -3.86309 0.412058 0
M  V30 7685 H 717.292 -3.50654 2.99733 0
M  V30 7686 H 715.535 -3.25198 2.87104 0
M  V30 7687 H 716.206 -4.86458 2.60887 0
M  V30 7688 H 718.682 -4.0728 0.852191 0
M  V30 7689 H 717.558 -5.44599 0.685776 0
M  V30 7690 H 717.819 -4.36886 -0.676994 0
M  V30 7691 N 716.879 -0.700114 -1.41195 0
M  V30 7692 C 718.125 -0.233351 -2.01453 0
M  V30 7693 C 718.458 1.16548 -1.55339 0
M  V30 7694 O 717.733 1.78756 -0.766575 0
M  V30 7695 C 718.016 -0.2961 -3.58881 0
M  V30 7696 C 717.869 -1.7322 -4.15108 0
M  V30 7697 C 719.188 0.341525 -4.38773 0
M  V30 7698 H 716.307 -0.0862667 -0.731934 0
M  V30 7699 H 718.949 -0.889693 -1.67882 0
M  V30 7700 H 717.099 0.262736 -3.87611 0
M  V30 7701 H 718.771 -2.34523 -3.97236 0
M  V30 7702 H 717.014 -2.2649 -3.69979 0
M  V30 7703 H 717.685 -1.7276 -5.24269 0
M  V30 7704 H 720.161 -0.134461 -4.15883 0
M  V30 7705 H 719.037 0.267098 -5.4825 0
M  V30 7706 H 719.298 1.42289 -4.18577 0
M  V30 7707 N 718.357 1.51182 -0.445186 0
M  V30 7708 C 719.603 2.02452 0.11882 0
M  V30 7709 C 719.936 1.32824 1.41673 0
M  V30 7710 O 719.211 0.445637 1.89326 0
M  V30 7711 C 719.494 3.5859 0.329475 0
M  V30 7712 C 719.347 4.38823 -0.987638 0
M  V30 7713 C 720.666 4.26241 1.09575 0
M  V30 7714 H 717.785 0.735819 0.0417092 0
M  V30 7715 H 720.427 1.80747 -0.585718 0
M  V30 7716 H 718.577 3.77214 0.9296 0
M  V30 7717 H 720.249 4.3183 -1.62235 0
M  V30 7718 H 718.492 4.03594 -1.59041 0
M  V30 7719 H 719.163 5.46257 -0.794192 0
M  V30 7720 H 721.639 4.11934 0.587328 0
M  V30 7721 H 720.515 5.35354 1.21191 0
M  V30 7722 H 720.776 3.87635 2.12584 0
M  V30 7723 N 719.835 0.176821 1.56605 0
M  V30 7724 C 721.081 -0.467406 1.9734 0
M  V30 7725 C 721.414 -1.62523 1.06301 0
M  V30 7726 O 720.689 -1.94182 0.11125 0
M  V30 7727 C 720.972 -0.945106 3.47476 0
M  V30 7728 C 720.825 0.213273 4.49294 0
M  V30 7729 C 722.144 -1.8169 4.00845 0
M  V30 7730 H 719.263 -0.168426 0.717497 0
M  V30 7731 H 721.905 0.264065 1.88156 0
M  V30 7732 H 720.055 -1.56841 3.55434 0
M  V30 7733 H 721.727 0.850508 4.53392 0
M  V30 7734 H 719.97 0.867918 4.25029 0
M  V30 7735 H 720.641 -0.163187 5.51759 0
M  V30 7736 H 723.117 -1.29139 3.95553 0
M  V30 7737 H 721.993 -2.12015 5.06301 0
M  V30 7738 H 722.254 -2.76463 3.44994 0
M  V30 7739 N 721.313 -1.57302 -0.09688 0
M  V30 7740 C 722.561 -1.8563 -0.799117 0
M  V30 7741 C 722.882 -0.765263 -1.79356 0
M  V30 7742 O 722.152 0.208657 -1.94786 0
M  V30 7743 H 720.732 -0.684937 -0.298111 0
M  V30 7744 H 723.394 -1.9474 -0.0789341 0
M  V30 7745 H 722.49 -2.82305 -1.3308 0
M  V30 7746 N 722.791 0.367657 -1.53252 0
M  V30 7747 C 724.038 1.11052 -1.69333 0
M  V30 7748 C 724.366 1.89363 -0.444064 0
M  V30 7749 O 723.621 1.87094 0.573953 0
M  V30 7750 C 723.92 2.09825 -2.89324 0
M  V30 7751 C 723.586 1.4801 -4.25915 0
M  V30 7752 C 722.248 1.30879 -4.6306 0
M  V30 7753 C 724.6 1.03268 -5.10867 0
M  V30 7754 C 721.928 0.675868 -5.82794 0
M  V30 7755 C 724.28 0.41377 -6.31245 0
M  V30 7756 C 722.944 0.229939 -6.67104 0
M  V30 7757 H 722.214 0.406367 -0.619634 0
M  V30 7758 H 724.861 0.392558 -1.87433 0
M  V30 7759 H 723.166 2.87917 -2.65728 0
M  V30 7760 H 724.863 2.67252 -2.98961 0
M  V30 7761 H 721.453 1.62336 -3.96667 0
M  V30 7762 H 725.637 1.15297 -4.82722 0
M  V30 7763 H 720.893 0.521833 -6.09169 0
M  V30 7764 H 725.067 0.0588768 -6.96375 0
M  V30 7765 H 722.694 -0.262562 -7.59746 0
M  V30 7766 N 724.269 1.44576 0.627338 0
M  V30 7767 C 725.68 1.42266 1.20902 0
M  V30 7768 C 726.031 0.139964 1.957 0
M  V30 7769 O 725.156 -0.759489 2.02634 0
M  V30 7770 C 725.751 2.57727 2.19914 0
M  V30 7771 C 724.31 2.58599 2.73502 0
M  V30 7772 C 723.457 2.34145 1.48564 0
M  V30 7773 H 726.408 1.53102 0.417791 0
M  V30 7774 H 726.429 2.30697 3.02588 0
M  V30 7775 H 725.941 3.51068 1.65447 0
M  V30 7776 H 724.042 1.6921 3.31962 0
M  V30 7777 H 724.155 3.57205 3.19282 0
M  V30 7778 H 722.519 1.83313 1.76829 0
M  V30 7779 H 723.302 3.29606 0.959935 0
M  V30 7780 N 725.747 -0.868086 1.31537 0
M  V30 7781 C 726.71 -1.95703 1.19302 0
M  V30 7782 C 727.71 -1.60355 0.119612 0
M  V30 7783 O 728.9 -1.70247 0.36902 0
M  V30 7784 C 726.032 -3.30599 0.831684 0
M  V30 7785 H 727.225 -2.07982 2.16064 0
M  V30 7786 H 724.778 -1.05661 1.15176 0
M  V30 7787 H 725.513 -3.2402 -0.134694 0
M  V30 7788 H 725.298 -3.57629 1.60761 0
M  V30 7789 H 726.788 -4.10439 0.770026 0
M  V30 7790 N 727.225 -1.14528 -1.08264 0
M  V30 7791 C 728.453 -0.937964 -1.84418 0
M  V30 7792 C 728.868 0.51357 -1.81681 0
M  V30 7793 O 728.225 1.35591 -1.22153 0
M  V30 7794 C 728.276 -1.43272 -3.31897 0
M  V30 7795 O 727.997 -2.82738 -3.34651 0
M  V30 7796 C 729.498 -1.26555 -4.24851 0
M  V30 7797 H 726.718 -0.333704 -0.582136 0
M  V30 7798 H 729.262 -1.52076 -1.36723 0
M  V30 7799 H 727.417 -0.892653 -3.76975 0
M  V30 7800 H 727.831 -3.04971 -4.26724 0
M  V30 7801 H 729.305 -1.66031 -5.26439 0
M  V30 7802 H 729.782 -0.208589 -4.38704 0
M  V30 7803 H 730.388 -1.79423 -3.856 0
M  V30 7804 N 728.703 1.26451 -0.940633 0
M  V30 7805 C 730.114 1.75726 -0.630653 0
M  V30 7806 C 730.465 1.76631 0.854167 0
M  V30 7807 O 729.59 1.37807 1.66848 0
M  V30 7808 C 730.185 3.19114 -1.13805 0
M  V30 7809 C 728.744 3.66005 -0.878497 0
M  V30 7810 C 727.891 2.45505 -1.28928 0
M  V30 7811 H 730.842 1.12535 -1.119 0
M  V30 7812 H 730.863 3.77311 -0.491625 0
M  V30 7813 H 730.375 3.18424 -2.21874 0
M  V30 7814 H 728.476 3.72126 0.187833 0
M  V30 7815 H 728.589 4.54844 -1.50512 0
M  V30 7816 H 726.953 2.4467 -0.707713 0
M  V30 7817 H 727.736 2.47516 -2.37888 0
M  V30 7818 N 730.181 0.707592 1.40822 0
M  V30 7819 C 731.111 0.0644925 2.33411 0
M  V30 7820 C 732.092 -0.754205 1.52466 0
M  V30 7821 O 733.277 -0.704749 1.80961 0
M  V30 7822 C 730.407 -0.863865 3.36385 0
M  V30 7823 C 729.361 -0.15138 4.27732 0
M  V30 7824 C 728.687 -1.19491 5.21177 0
M  V30 7825 C 729.987 0.989607 5.12839 0
M  V30 7826 H 731.681 0.837829 2.87438 0
M  V30 7827 H 729.227 0.404346 1.38207 0
M  V30 7828 H 731.18 -1.32309 4.0009 0
M  V30 7829 H 729.904 -1.66901 2.80734 0
M  V30 7830 H 728.563 0.287937 3.65467 0
M  V30 7831 H 728.211 -1.9929 4.61836 0
M  V30 7832 H 727.911 -0.723123 5.83134 0
M  V30 7833 H 729.435 -1.6544 5.8776 0
M  V30 7834 H 730.849 0.610114 5.70044 0
M  V30 7835 H 729.246 1.38926 5.83798 0
M  V30 7836 H 730.316 1.82389 4.49291 0
M  V30 7837 N 731.66 -1.50943 0.453197 0
M  V30 7838 C 732.623 -2.26684 -0.338705 0
M  V30 7839 C 733.623 -1.30748 -0.936032 0
M  V30 7840 O 734.813 -1.54327 -0.808002 0
M  V30 7841 C 731.945 -3.07063 -1.48071 0
M  V30 7842 H 733.138 -2.98131 0.325289 0
M  V30 7843 H 730.691 -1.54926 0.206771 0
M  V30 7844 H 731.426 -2.4007 -2.18029 0
M  V30 7845 H 731.211 -3.77545 -1.0584 0
M  V30 7846 H 732.701 -3.64393 -2.0398 0
M  V30 7847 N 733.138 -0.185124 -1.56509 0
M  V30 7848 C 734.048 0.751908 -2.22224 0
M  V30 7849 C 735.064 1.24244 -1.21817 0
M  V30 7850 O 736.24 1.29169 -1.54523 0
M  V30 7851 C 733.305 1.95837 -2.86092 0
M  V30 7852 C 732.366 1.51337 -4.01741 0
M  V30 7853 C 731.599 2.66233 -4.62554 0
M  V30 7854 O 731.822 3.8346 -4.22273 0
M  V30 7855 O 730.756 2.39517 -5.52191 0
M  V30 7856 H 734.582 0.222304 -3.02885 0
M  V30 7857 H 732.167 0.0437141 -1.49336 0
M  V30 7858 H 734.049 2.66368 -3.26536 0
M  V30 7859 H 732.724 2.47677 -2.08417 0
M  V30 7860 H 731.631 0.777155 -3.65939 0
M  V30 7861 H 732.964 1.04175 -4.81049 0
M  V30 7862 N 734.616 1.57351 0.0885366 0
M  V30 7863 C 735.579 2.01557 1.09121 0
M  V30 7864 C 736.579 0.910052 1.3257 0
M  V30 7865 O 737.769 1.17537 1.28572 0
M  V30 7866 C 734.901 2.38189 2.43883 0
M  V30 7867 H 736.094 2.91361 0.710562 0
M  V30 7868 H 733.647 1.52694 0.333779 0
M  V30 7869 H 734.382 1.5136 2.86811 0
M  V30 7870 H 734.167 3.18846 2.28209 0
M  V30 7871 H 735.657 2.73025 3.15986 0
M  V30 7872 N 736.094 -0.359525 1.53444 0
M  V30 7873 C 737.51 -0.701599 1.43352 0
M  V30 7874 C 737.71 -1.93049 0.577439 0
M  V30 7875 O 736.766 -2.52423 0.0622224 0
M  V30 7876 C 738.079 -0.90915 2.86627 0
M  V30 7877 C 739.627 -1.00878 2.96298 0
M  V30 7878 C 740.102 -1.24876 4.40647 0
M  V30 7879 N 741.593 -1.31632 4.44103 0
M  V30 7880 C 742.328 -1.51922 5.52908 0
M  V30 7881 N 741.824 -1.69489 6.71748 0
M  V30 7882 N 743.617 -1.54341 5.40496 0
M  V30 7883 H 735.768 0.448685 2.07607 0
M  V30 7884 H 738.031 0.138713 0.937797 0
M  V30 7885 H 737.737 -0.0778997 3.51614 0
M  V30 7886 H 737.611 -1.81551 3.30634 0
M  V30 7887 H 739.998 -1.83057 2.31461 0
M  V30 7888 H 740.079 -0.0796721 2.55676 0
M  V30 7889 H 739.723 -0.431961 5.0606 0
M  V30 7890 H 739.653 -2.19118 4.78848 0
M  V30 7891 H 742.144 -1.19646 3.5846 0
M  V30 7892 H 742.457 -1.84561 7.50438 0
M  V30 7893 H 740.802 -1.66655 6.74723 0
M  V30 7894 H 743.993 -1.40188 4.46615 0
M  V30 7895 H 744.166 -1.69812 6.25354 0
M  V30 7896 N 737.572 -1.44907 -0.619662 0
M  V30 7897 C 738.535 -1.52282 -1.71297 0
M  V30 7898 C 739.535 -0.40359 -1.55653 0
M  V30 7899 O 740.725 -0.666638 -1.6094 0
M  V30 7900 C 737.857 -1.40778 -3.10474 0
M  V30 7901 H 739.05 -2.49683 -1.66128 0
M  V30 7902 H 736.603 -1.32168 -0.834339 0
M  V30 7903 H 737.338 -0.445156 -3.2123 0
M  V30 7904 H 737.123 -2.21947 -3.23237 0
M  V30 7905 H 738.613 -1.48946 -3.90135 0
M  V30 7906 N 739.05 0.861098 -1.31996 0
M  V30 7907 C 740.466 1.14827 -1.10846 0
M  V30 7908 C 740.666 2.0117 0.11528 0
M  V30 7909 O 739.722 2.39423 0.802048 0
M  V30 7910 C 741.035 1.83183 -2.38462 0
M  V30 7911 C 742.583 1.95847 -2.44158 0
M  V30 7912 C 743.058 2.67617 -3.71679 0
M  V30 7913 N 744.549 2.75147 -3.72624 0
M  V30 7914 C 745.284 3.31314 -4.67994 0
M  V30 7915 N 744.78 3.88343 -5.73726 0
M  V30 7916 N 746.573 3.29356 -4.55501 0
M  V30 7917 H 738.724 0.285951 -2.10466 0
M  V30 7918 H 740.987 0.189303 -0.928907 0
M  V30 7919 H 740.693 1.27193 -3.27895 0
M  V30 7920 H 740.567 2.83393 -2.48935 0
M  V30 7921 H 742.954 2.50999 -1.55189 0
M  V30 7922 H 743.035 0.94653 -2.37644 0
M  V30 7923 H 742.679 2.13131 -4.61018 0
M  V30 7924 H 742.609 3.69237 -3.75462 0
M  V30 7925 H 745.1 2.34682 -2.96197 0
M  V30 7926 H 745.413 4.29338 -6.42564 0
M  V30 7927 H 743.758 3.86693 -5.77489 0
M  V30 7928 H 746.949 2.84047 -3.72069 0
M  V30 7929 H 747.122 3.7283 -5.30001 0
M  V30 7930 N 740.528 1.15101 1.07655 0
M  V30 7931 C 741.775 0.923974 1.80191 0
M  V30 7932 C 742.103 -0.549065 1.86589 0
M  V30 7933 O 741.358 -1.42307 1.3434 0
M  V30 7934 C 741.657 1.47954 3.25337 0
M  V30 7935 C 741.323 2.97253 3.39044 0
M  V30 7936 C 739.985 3.38012 3.42493 0
M  V30 7937 C 742.337 3.93219 3.42094 0
M  V30 7938 C 739.665 4.73384 3.4659 0
M  V30 7939 C 742.017 5.28458 3.47728 0
M  V30 7940 C 740.681 5.68717 3.49453 0
M  V30 7941 H 739.951 0.338106 0.659367 0
M  V30 7942 H 742.598 1.43594 1.26701 0
M  V30 7943 H 740.903 0.888691 3.81588 0
M  V30 7944 H 742.6 1.27972 3.80032 0
M  V30 7945 H 739.19 2.64746 3.37057 0
M  V30 7946 H 743.374 3.62805 3.38654 0
M  V30 7947 H 738.63 5.03925 3.46222 0
M  V30 7948 H 742.804 6.02618 3.49034 0
M  V30 7949 H 740.431 6.73596 3.5238 0
M  V30 7950 N 742.006 -1.2595 0.947325 0
M  V30 7951 C 743.246 -1.95218 0.605743 0
M  V30 7952 C 743.61 -1.72624 -0.84054 0
M  V30 7953 O 744.811 -2.35748 -1.29136 0
M  V30 7954 C 743.082 -3.44654 0.94596 0
M  V30 7955 S 744.641 -4.32922 0.715849 0
M  V30 7956 H 741.459 -0.675159 0.222894 0
M  V30 7957 H 744.061 -1.52766 1.21995 0
M  V30 7958 H 742.765 -3.586 1.99585 0
M  V30 7959 H 742.296 -3.92082 0.321718 0
M  V30 7960 H 744.311 -4.94445 -0.416959 0
M  V30 7961 N 743.484 -0.715051 -1.40445 0
M  V30 7962 C 744.73 -0.254705 -2.01194 0
M  V30 7963 C 745.063 1.14894 -1.56567 0
M  V30 7964 O 744.338 1.77933 -0.785491 0
M  V30 7965 C 744.621 -0.334148 -3.58546 0
M  V30 7966 C 744.474 -1.77613 -4.13248 0
M  V30 7967 C 745.793 0.294968 -4.3911 0
M  V30 7968 H 742.912 -0.094025 -0.730978 0
M  V30 7969 H 745.554 -0.907449 -1.66929 0
M  V30 7970 H 743.704 0.221609 -3.87867 0
M  V30 7971 H 745.376 -2.38723 -3.94727 0
M  V30 7972 H 743.619 -2.30402 -3.67556 0
M  V30 7973 H 744.29 -1.78311 -5.22407 0
M  V30 7974 H 746.766 -0.178563 -4.15717 0
M  V30 7975 H 745.642 0.208934 -5.48502 0
M  V30 7976 H 745.903 1.37841 -4.20062 0
M  V30 7977 N 744.962 1.50701 -0.461195 0
M  V30 7978 C 746.187 2.07171 0.0974773 0
M  V30 7979 C 746.612 1.32391 1.3362 0
M  V30 7980 O 745.97 0.368676 1.77512 0
M  V30 7981 C 746.018 3.58651 0.374409 0
M  V30 7982 O 745.122 3.85816 1.4567 0
M  V30 7983 H 744.463 0.663944 -0.00862047 0
M  V30 7984 H 746.993 1.94021 -0.649394 0
M  V30 7985 H 747.003 4.03295 0.617843 0
M  V30 7986 H 745.678 4.12498 -0.530829 0
M  V30 7987 H 744.255 3.53018 1.20136 0
M  V30 7988 N 746.441 0.193421 1.56409 0
M  V30 7989 C 747.404 -0.714371 2.17783 0
M  V30 7990 C 748.404 -1.1422 1.13183 0
M  V30 7991 O 749.594 -1.05557 1.38576 0
M  V30 7992 C 746.726 -1.97509 2.77855 0
M  V30 7993 H 747.919 -0.179714 2.99361 0
M  V30 7994 H 745.472 -0.0561944 1.56199 0
M  V30 7995 H 746.207 -2.5523 2.0007 0
M  V30 7996 H 745.992 -1.67706 3.54425 0
M  V30 7997 H 747.482 -2.62246 3.24987 0
M  V30 7998 N 747.919 -1.57396 -0.0801906 0
M  V30 7999 C 748.882 -2.02133 -1.0805 0
M  V30 8000 C 749.882 -0.91707 -1.32085 0
M  V30 8001 O 751.072 -1.18217 -1.27947 0
M  V30 8002 C 748.204 -2.39479 -2.42616 0
M  V30 8003 H 749.397 -2.91733 -0.6951 0
M  V30 8004 H 746.95 -1.52869 -0.325677 0
M  V30 8005 H 747.685 -1.52879 -2.86004 0
M  V30 8006 H 747.47 -3.20052 -2.26515 0
M  V30 8007 H 748.96 -2.74697 -3.14534 0
M  V30 8008 N 749.397 0.351382 -1.53633 0
M  V30 8009 C 750.347 1.4316 -1.77452 0
M  V30 8010 C 751.331 1.48076 -0.62946 0
M  V30 8011 O 752.523 1.53078 -0.888599 0
M  V30 8012 C 749.652 2.80409 -1.98055 0
M  V30 8013 C 748.738 2.79915 -3.18604 0
M  V30 8014 N 749.129 2.49057 -4.40232 0
M  V30 8015 C 747.427 3.11067 -3.19614 0
M  V30 8016 C 748.128 2.566 -5.22045 0
M  V30 8017 N 747.104 2.919 -4.5858 0
M  V30 8018 H 750.906 1.18188 -2.69089 0
M  V30 8019 H 748.42 0.559684 -1.52451 0
M  V30 8020 H 750.417 3.58231 -2.13251 0
M  V30 8021 H 749.077 3.06334 -1.07655 0
M  V30 8022 H 750.088 2.22395 -4.67719 0
M  V30 8023 H 746.765 3.42215 -2.39154 0
M  V30 8024 H 748.155 2.35968 -6.29101 0
M  V30 8025 N 750.875 1.45233 0.611969 0
M  V30 8026 C 752.103 1.52539 1.39784 0
M  V30 8027 C 752.518 0.156533 1.8815 0
M  V30 8028 O 751.875 -0.84112 1.61961 0
M  V30 8029 C 751.926 2.50614 2.60528 0
M  V30 8030 O 751.647 3.8218 2.14173 0
M  V30 8031 C 753.148 2.67574 3.53439 0
M  V30 8032 H 750.368 0.51674 0.428043 0
M  V30 8033 H 752.912 1.90379 0.746727 0
M  V30 8034 H 751.067 2.15858 3.2169 0
M  V30 8035 H 751.481 4.35305 2.92592 0
M  V30 8036 H 752.955 3.40184 4.34717 0
M  V30 8037 H 753.432 1.73458 4.03496 0
M  V30 8038 H 754.038 3.0331 2.98133 0
M  V30 8039 N 752.353 -0.854086 1.3245 0
M  V30 8040 C 753.769 -1.14238 1.11453 0
M  V30 8041 C 753.969 -2.01228 -0.10461 0
M  V30 8042 O 753.025 -2.39845 -0.789339 0
M  V30 8043 C 754.338 -1.81916 2.39431 0
M  V30 8044 C 755.886 -1.94549 2.45193 0
M  V30 8045 C 756.361 -2.65642 3.73093 0
M  V30 8046 N 757.852 -2.73167 3.74078 0
M  V30 8047 C 758.587 -3.28828 4.69744 0
M  V30 8048 N 758.083 -3.85295 5.75778 0
M  V30 8049 N 759.876 -3.26936 4.57241 0
M  V30 8050 H 752.027 -0.274786 2.10615 0
M  V30 8051 H 754.29 -0.184375 0.929898 0
M  V30 8052 H 753.996 -1.25452 3.28565 0
M  V30 8053 H 753.87 -2.82068 2.50434 0
M  V30 8054 H 756.257 -2.50172 1.56518 0
M  V30 8055 H 756.338 -0.933914 2.38142 0
M  V30 8056 H 755.982 -2.10683 4.62142 0
M  V30 8057 H 755.912 -3.6724 3.77415 0
M  V30 8058 H 758.403 -2.33108 2.97438 0
M  V30 8059 H 758.716 -4.25925 6.44832 0
M  V30 8060 H 757.061 -3.83625 5.79531 0
M  V30 8061 H 760.252 -2.8207 3.7357 0
M  V30 8062 H 760.425 -3.70014 5.31971 0
M  V30 8063 N 753.831 -1.1567 -1.07043 0
M  V30 8064 C 754.741 -0.870435 -2.17855 0
M  V30 8065 C 755.757 0.154452 -1.73313 0
M  V30 8066 O 756.933 -0.0203759 -2.0139 0
M  V30 8067 C 753.998 -0.367219 -3.4475 0
M  V30 8068 C 753.059 -1.45639 -4.03841 0
M  V30 8069 C 752.292 -0.977092 -5.2468 0
M  V30 8070 O 752.515 0.176127 -5.70128 0
M  V30 8071 O 751.449 -1.76215 -5.75527 0
M  V30 8072 H 755.275 -1.79687 -2.44839 0
M  V30 8073 H 752.86 -0.936064 -1.1644 0
M  V30 8074 H 754.742 -0.0931947 -4.21297 0
M  V30 8075 H 753.417 0.53131 -3.1931 0
M  V30 8076 H 752.324 -1.78406 -3.28819 0
M  V30 8077 H 753.657 -2.32995 -4.3356 0
M  V30 8078 N 755.309 1.25446 -0.953992 0
M  V30 8079 C 756.242 2.24341 -0.417912 0
M  V30 8080 C 757.22 1.54709 0.5004 0
M  V30 8081 O 758.404 1.83414 0.434923 0
M  V30 8082 C 755.531 3.36352 0.398155 0
M  V30 8083 C 754.577 4.24007 -0.460461 0
M  V30 8084 S 755.41 5.00951 -1.89231 0
M  V30 8085 C 756.566 6.1643 -1.08465 0
M  V30 8086 H 756.799 2.69465 -1.25602 0
M  V30 8087 H 754.332 1.34512 -0.758018 0
M  V30 8088 H 756.29 4.01325 0.863059 0
M  V30 8089 H 754.951 2.89813 1.21108 0
M  V30 8090 H 754.144 5.03728 0.165415 0
M  V30 8091 H 753.746 3.63965 -0.860549 0
M  V30 8092 H 756.038 6.76681 -0.333017 0
M  V30 8093 H 756.981 6.8335 -1.85577 0
M  V30 8094 H 757.389 5.61139 -0.615062 0
M  V30 8095 N 756.787 0.722489 1.40064 0
M  V30 8096 C 757.717 0.0892452 2.33329 0
M  V30 8097 C 758.698 -0.737992 1.53257 0
M  V30 8098 O 759.883 -0.685516 1.81698 0
M  V30 8099 C 757.013 -0.828139 3.37282 0
M  V30 8100 C 755.967 -0.106005 4.27869 0
M  V30 8101 C 755.293 -1.13957 5.22415 0
M  V30 8102 C 756.593 1.04395 5.11761 0
M  V30 8103 H 758.287 0.868269 2.86534 0
M  V30 8104 H 755.833 0.418982 1.3777 0
M  V30 8105 H 757.786 -1.28058 4.01471 0
M  V30 8106 H 756.51 -1.63914 2.82489 0
M  V30 8107 H 755.169 0.326683 3.65142 0
M  V30 8108 H 754.817 -1.9438 4.63924 0
M  V30 8109 H 754.517 -0.661233 5.83868 0
M  V30 8110 H 756.041 -1.59197 5.89482 0
M  V30 8111 H 757.455 0.670541 5.69365 0
M  V30 8112 H 755.852 1.4511 5.82291 0
M  V30 8113 H 756.922 1.87144 4.47331 0
M  V30 8114 N 758.265 -1.50454 0.469181 0
M  V30 8115 C 759.542 -1.9504 -0.147955 0
M  V30 8116 C 759.922 -1.40946 -1.57154 0
M  V30 8117 O 759.27 -0.609663 -2.20217 0
M  V30 8118 C 759.48 -3.48875 -0.0932198 0
M  V30 8119 C 760.828 -4.23655 -0.283056 0
M  V30 8120 O 761.852 -3.55795 -0.169892 0
M  V30 8121 O 760.711 -5.44102 -0.511396 0
M  V30 8122 H 757.805 -0.819283 -0.11271 0
M  V30 8123 H 760.351 -1.6123 0.529446 0
M  V30 8124 H 759.123 -3.80791 0.900784 0
M  V30 8125 H 758.746 -3.89217 -0.812161 0
M  V30 8126 N 759.743 -0.201713 -1.56304 0
M  V30 8127 C 760.971 0.440723 -2.02152 0
M  V30 8128 C 761.386 1.54735 -1.08179 0
M  V30 8129 O 760.743 1.82289 -0.0878196 0
M  V30 8130 C 760.794 0.990884 -3.47655 0
M  V30 8131 O 760.515 -0.0715937 -4.38041 0
M  V30 8132 C 762.016 1.70854 -4.09052 0
M  V30 8133 H 759.236 0.109987 -0.661924 0
M  V30 8134 H 761.78 -0.312358 -2.021 0
M  V30 8135 H 759.935 1.69432 -3.48384 0
M  V30 8136 H 760.349 0.338892 -5.23404 0
M  V30 8137 H 761.823 2.04572 -5.12693 0
M  V30 8138 H 762.3 2.61462 -3.52894 0
M  V30 8139 H 762.906 1.0508 -4.12114 0
M  V30 8140 N 761.222 1.57436 0.0718424 0
M  V30 8141 C 762.468 1.87525 0.772149 0
M  V30 8142 C 762.801 0.79399 1.77227 0
M  V30 8143 O 762.076 -0.195733 1.93513 0
M  V30 8144 C 762.359 3.28272 1.48018 0
M  V30 8145 C 762.212 4.47052 0.49647 0
M  V30 8146 C 763.531 3.67256 2.42509 0
M  V30 8147 H 760.65 0.682049 0.279245 0
M  V30 8148 H 763.292 1.89967 0.03534 0
M  V30 8149 H 761.442 3.26321 2.10824 0
M  V30 8150 H 763.114 4.61127 -0.126375 0
M  V30 8151 H 761.357 4.33392 -0.188205 0
M  V30 8152 H 762.028 5.42315 1.02949 0
M  V30 8153 H 764.504 3.70301 1.89781 0
M  V30 8154 H 763.38 4.66626 2.89053 0
M  V30 8155 H 763.641 2.97186 3.27312 0
M  V30 8156 N 762.7 -0.34323 1.53817 0
M  V30 8157 C 763.63 -1.42709 1.84814 0
M  V30 8158 C 764.611 -1.5488 0.703297 0
M  V30 8159 O 765.796 -1.69082 0.955237 0
M  V30 8160 C 762.926 -2.79756 2.05801 0
M  V30 8161 C 761.88 -2.82392 3.21619 0
M  V30 8162 C 761.206 -4.22326 3.2794 0
M  V30 8163 C 762.506 -2.479 4.59721 0
M  V30 8164 H 764.2 -1.17018 2.75585 0
M  V30 8165 H 761.746 -0.561485 1.32602 0
M  V30 8166 H 763.699 -3.55627 2.26069 0
M  V30 8167 H 762.423 -3.06883 1.11761 0
M  V30 8168 H 761.082 -2.08974 3.01207 0
M  V30 8169 H 760.73 -4.46564 2.31494 0
M  V30 8170 H 760.43 -4.25001 4.05768 0
M  V30 8171 H 761.954 -5.00039 3.50419 0
M  V30 8172 H 763.368 -3.13484 4.80001 0
M  V30 8173 H 761.765 -2.61857 5.39954 0
M  V30 8174 H 762.835 -1.43087 4.63308 0
M  V30 8175 N 764.178 -1.45556 -0.604258 0
M  V30 8176 C 765.088 -1.57025 -1.74299 0
M  V30 8177 C 766.104 -0.45456 -1.67958 0
M  V30 8178 O 767.28 -0.715711 -1.88254 0
M  V30 8179 C 764.345 -1.53702 -3.10768 0
M  V30 8180 C 763.406 -2.76335 -3.28538 0
M  V30 8181 C 762.639 -2.73161 -4.58496 0
M  V30 8182 O 762.862 -1.80678 -5.41028 0
M  V30 8183 O 761.796 -3.64409 -4.79051 0
M  V30 8184 H 765.622 -2.53284 -1.67573 0
M  V30 8185 H 763.207 -1.28104 -0.768745 0
M  V30 8186 H 765.089 -1.54468 -3.92068 0
M  V30 8187 H 763.764 -0.605957 -3.17978 0
M  V30 8188 H 762.671 -2.8113 -2.46813 0
M  V30 8189 H 764.004 -3.68578 -3.26207 0
M  V30 8190 N 765.656 0.84705 -1.32902 0
M  V30 8191 C 766.619 1.9378 -1.224 0
M  V30 8192 C 767.619 1.60144 -0.145108 0
M  V30 8193 O 768.809 1.69638 -0.396058 0
M  V30 8194 C 765.941 3.29234 -0.884174 0
M  V30 8195 H 767.134 2.04518 -2.19345 0
M  V30 8196 H 764.687 1.03816 -1.16842 0
M  V30 8197 H 765.422 3.24193 0.0831277 0
M  V30 8198 H 765.207 3.55026 -1.6643 0
M  V30 8199 H 766.697 4.09162 -0.835226 0
M  V30 8200 N 767.134 1.16236 1.06428 0
M  V30 8201 C 768.064 0.890807 2.1584 0
M  V30 8202 C 769.045 -0.162333 1.69324 0
M  V30 8203 O 770.23 -0.0147191 1.94194 0
M  V30 8204 C 767.36 0.389615 3.45108 0
M  V30 8205 C 766.314 1.38051 4.05125 0
M  V30 8206 C 765.64 0.737773 5.29586 0
M  V30 8207 C 766.94 2.74965 4.44062 0
M  V30 8208 H 768.634 1.80577 2.38814 0
M  V30 8209 H 766.18 0.869657 1.14774 0
M  V30 8210 H 768.133 0.187127 4.20984 0
M  V30 8211 H 766.857 -0.560851 3.21748 0
M  V30 8212 H 765.516 1.56952 3.31303 0
M  V30 8213 H 765.164 -0.219135 5.02522 0
M  V30 8214 H 764.864 1.39914 5.70699 0
M  V30 8215 H 766.388 0.545275 6.0816 0
M  V30 8216 H 767.802 2.59855 5.11027 0
M  V30 8217 H 766.199 3.37563 4.96156 0
M  V30 8218 H 767.269 3.30321 3.54987 0
M  V30 8219 N 768.612 -1.24939 0.960631 0
M  V30 8220 C 769.889 -1.88118 0.535807 0
M  V30 8221 C 770.269 -1.86605 -0.987009 0
M  V30 8222 O 769.617 -1.33375 -1.85536 0
M  V30 8223 C 769.827 -3.30565 1.11927 0
M  V30 8224 C 771.175 -4.07296 1.19981 0
M  V30 8225 O 772.199 -3.39709 1.07126 0
M  V30 8226 O 771.058 -5.28206 1.40218 0
M  V30 8227 H 768.152 -0.807698 0.177631 0
M  V30 8228 H 770.698 -1.32964 1.05445 0
M  V30 8229 H 769.47 -3.26128 2.16231 0
M  V30 8230 H 769.093 -3.93284 0.584245 0
M  V30 8231 N 770.09 -0.729906 -1.39679 0
M  V30 8232 C 771 -0.0880322 -2.34435 0
M  V30 8233 C 772.016 0.727674 -1.58053 0
M  V30 8234 O 773.192 0.657321 -1.90371 0
M  V30 8235 C 770.257 0.812211 -3.37052 0
M  V30 8236 C 769.318 -0.0151681 -4.29297 0
M  V30 8237 C 768.551 0.842202 -5.27013 0
M  V30 8238 O 768.774 2.08108 -5.31081 0
M  V30 8239 O 767.708 0.27357 -6.01278 0
M  V30 8240 H 771.534 -0.869989 -2.90972 0
M  V30 8241 H 769.119 -0.490522 -1.41118 0
M  V30 8242 H 771.001 1.32745 -3.99946 0
M  V30 8243 H 769.676 1.57307 -2.82907 0
M  V30 8244 H 768.583 -0.575811 -3.69642 0
M  V30 8245 H 769.916 -0.738129 -4.86634 0
M  V30 8246 N 771.568 1.50203 -0.477153 0
M  V30 8247 C 772.501 2.25343 0.359983 0
M  V30 8248 C 773.479 1.28909 0.991022 0
M  V30 8249 O 774.663 1.58146 1.02578 0
M  V30 8250 C 771.79 3.03431 1.5049 0
M  V30 8251 C 770.836 4.14836 0.99063 0
M  V30 8252 S 771.669 5.35407 -0.0995413 0
M  V30 8253 C 772.825 6.17045 1.04911 0
M  V30 8254 H 773.058 2.95999 -0.277836 0
M  V30 8255 H 770.591 1.52159 -0.262115 0
M  V30 8256 H 772.549 3.49012 2.16105 0
M  V30 8257 H 771.21 2.32289 2.11425 0
M  V30 8258 H 770.403 4.689 1.84794 0
M  V30 8259 H 770.005 3.71723 0.412097 0
M  V30 8260 H 772.297 6.48546 1.95946 0
M  V30 8261 H 773.24 7.05979 0.547596 0
M  V30 8262 H 773.648 5.49193 1.30567 0
M  V30 8263 N 773.046 0.209999 1.56195 0
M  V30 8264 C 774.294 -0.423974 1.97603 0
M  V30 8265 C 774.615 -1.61112 1.09854 0
M  V30 8266 O 773.885 -1.95134 0.173032 0
M  V30 8267 H 772.465 -0.159629 0.729745 0
M  V30 8268 H 775.127 0.300205 1.92574 0
M  V30 8269 H 774.223 -0.75809 3.02753 0
M  V30 8270 N 774.524 -1.57472 -0.0634922 0
M  V30 8271 C 775.801 -1.78736 -0.794538 0
M  V30 8272 C 776.181 -0.799645 -1.95369 0
M  V30 8273 O 775.529 0.165521 -2.279 0
M  V30 8274 C 775.739 -3.25471 -1.25975 0
M  V30 8275 C 777.087 -3.89528 -1.68976 0
M  V30 8276 O 778.111 -3.29412 -1.35521 0
M  V30 8277 O 776.97 -4.95305 -2.30944 0
M  V30 8278 H 774.064 -0.733813 -0.381376 0
M  V30 8279 H 776.61 -1.69646 -0.0429258 0
M  V30 8280 H 775.382 -3.88922 -0.430721 0
M  V30 8281 H 775.005 -3.39317 -2.07243 0
M  V30 8282 N 776.003 0.335068 -1.53997 0
M  V30 8283 C 776.933 1.41727 -1.85568 0
M  V30 8284 C 777.914 1.54505 -0.7115 0
M  V30 8285 O 779.099 1.68573 -0.964191 0
M  V30 8286 C 776.229 2.7866 -2.07282 0
M  V30 8287 C 775.183 2.80682 -3.23112 0
M  V30 8288 C 774.509 4.20581 -3.30175 0
M  V30 8289 C 775.809 2.45458 -4.61029 0
M  V30 8290 H 777.503 1.15555 -2.76202 0
M  V30 8291 H 775.049 0.554445 -1.32898 0
M  V30 8292 H 777.002 3.54423 -2.27952 0
M  V30 8293 H 775.726 3.06286 -1.13387 0
M  V30 8294 H 774.385 2.07373 -3.02311 0
M  V30 8295 H 774.033 4.4533 -2.33859 0
M  V30 8296 H 773.733 4.22843 -4.08016 0
M  V30 8297 H 775.257 4.98174 -3.53066 0
M  V30 8298 H 776.671 3.10934 -4.81656 0
M  V30 8299 H 775.068 2.5899 -5.41336 0
M  V30 8300 H 776.138 1.40628 -4.6406 0
M  V30 8301 N 777.481 1.45874 0.596531 0
M  V30 8302 C 778.411 1.5824 1.71705 0
M  V30 8303 C 779.392 0.433366 1.64487 0
M  V30 8304 O 780.577 0.657895 1.82717 0
M  V30 8305 C 777.707 1.55927 3.10329 0
M  V30 8306 C 776.661 2.69659 3.32367 0
M  V30 8307 C 775.987 2.52403 4.71377 0
M  V30 8308 C 777.287 4.11591 3.21544 0
M  V30 8309 H 778.981 2.52035 1.61613 0
M  V30 8310 H 776.527 1.21297 0.776082 0
M  V30 8311 H 778.48 1.63173 3.88526 0
M  V30 8312 H 777.204 0.586674 3.21288 0
M  V30 8313 H 775.863 2.61859 2.56564 0
M  V30 8314 H 775.511 1.53258 4.79083 0
M  V30 8315 H 775.211 3.28679 4.87077 0
M  V30 8316 H 776.735 2.6152 5.5176 0
M  V30 8317 H 778.149 4.20576 3.89601 0
M  V30 8318 H 776.546 4.88344 3.4877 0
M  V30 8319 H 777.616 4.32719 2.1882 0
M  V30 8320 N 778.959 -0.83999 1.33349 0
M  V30 8321 C 779.891 -1.95678 1.19344 0
M  V30 8322 C 780.904 -1.62322 0.124692 0
M  V30 8323 O 782.093 -1.74516 0.375012 0
M  V30 8324 C 779.193 -3.29133 0.807771 0
M  V30 8325 C 778.366 -3.9063 1.96792 0
M  V30 8326 C 777.425 -5.02438 1.56341 0
M  V30 8327 O 776.451 -5.21646 2.27759 0
M  V30 8328 N 777.653 -5.78612 0.467767 0
M  V30 8329 H 780.418 -2.08229 2.15548 0
M  V30 8330 H 777.979 -1.01566 1.26079 0
M  V30 8331 H 779.971 -4.01355 0.519282 0
M  V30 8332 H 778.541 -3.12535 -0.063555 0
M  V30 8333 H 777.761 -3.11011 2.4221 0
M  V30 8334 H 779.049 -4.2845 2.74422 0
M  V30 8335 H 778.447 -5.65559 -0.126324 0
M  V30 8336 H 777.004 -6.51362 0.238945 0
M  V30 8337 N 780.437 -1.16799 -1.0581 0
M  V30 8338 C 781.367 -0.902241 -2.15364 0
M  V30 8339 C 782.348 0.153351 -1.69407 0
M  V30 8340 O 783.533 0.00442032 -1.94199 0
M  V30 8341 C 780.663 -0.407911 -3.44896 0
M  V30 8342 C 779.617 -1.40197 -4.04387 0
M  V30 8343 C 778.943 -0.765848 -5.29187 0
M  V30 8344 C 780.243 -2.77316 -4.42598 0
M  V30 8345 H 781.937 -1.81841 -2.37853 0
M  V30 8346 H 779.483 -0.875731 -1.14311 0
M  V30 8347 H 781.436 -0.20945 -4.20879 0
M  V30 8348 H 780.16 0.54378 -3.22041 0
M  V30 8349 H 778.819 -1.58707 -3.30466 0
M  V30 8350 H 778.467 0.192482 -5.02632 0
M  V30 8351 H 778.167 -1.42939 -5.69949 0
M  V30 8352 H 779.691 -0.577519 -6.07863 0
M  V30 8353 H 781.105 -2.62561 -5.09642 0
M  V30 8354 H 779.502 -3.4019 -4.94359 0
M  V30 8355 H 780.572 -3.32199 -3.53231 0
M  V30 8356 N 781.915 1.24427 -0.967243 0
M  V30 8357 C 782.862 2.25398 -0.496419 0
M  V30 8358 C 783.832 1.59667 0.457781 0
M  V30 8359 O 785.017 1.87213 0.368246 0
M  V30 8360 C 782.157 3.44474 0.207693 0
M  V30 8361 C 781.27 4.24804 -0.785221 0
M  V30 8362 C 780.405 5.31169 -0.0572631 0
M  V30 8363 C 779.444 6.03195 -1.04027 0
M  V30 8364 N 778.581 7.01265 -0.34235 0
M  V30 8365 H 783.421 2.65039 -1.36229 0
M  V30 8366 H 780.958 1.30288 -0.682902 0
M  V30 8367 H 782.916 4.12376 0.632612 0
M  V30 8368 H 781.546 3.05672 1.03752 0
M  V30 8369 H 780.598 3.56445 -1.32858 0
M  V30 8370 H 781.91 4.74599 -1.53483 0
M  V30 8371 H 781.064 6.05205 0.425674 0
M  V30 8372 H 779.803 4.8228 0.725047 0
M  V30 8373 H 778.808 5.27964 -1.53409 0
M  V30 8374 H 780.033 6.54173 -1.82302 0
M  V30 8375 H 777.979 6.54648 0.420993 0
M  V30 8376 H 777.896 7.48939 -1.03084 0
M  V30 8377 H 779.164 7.7941 0.118634 0
M  V30 8378 N 783.393 0.737304 1.3929 0
M  V30 8379 C 784.623 0.296143 2.04467 0
M  V30 8380 C 785.031 -1.0748 1.55707 0
M  V30 8381 O 784.374 -1.69082 0.718123 0
M  V30 8382 C 784.436 0.222161 3.58813 0
M  V30 8383 C 784.1 1.53195 4.30558 0
M  V30 8384 C 785.097 2.47809 4.57041 0
M  V30 8385 C 782.782 1.79688 4.6906 0
M  V30 8386 C 784.776 3.67147 5.21039 0
M  V30 8387 C 782.463 2.99304 5.32785 0
M  V30 8388 C 783.461 3.92855 5.58708 0
M  V30 8389 O 783.149 5.1037 6.2111 0
M  V30 8390 H 782.881 0.126896 0.663983 0
M  V30 8391 H 785.435 1.00242 1.79278 0
M  V30 8392 H 783.665 -0.540239 3.82908 0
M  V30 8393 H 785.354 -0.187311 4.05468 0
M  V30 8394 H 786.12 2.28611 4.2774 0
M  V30 8395 H 781.999 1.07716 4.48239 0
M  V30 8396 H 785.543 4.40183 5.41188 0
M  V30 8397 H 781.44 3.18401 5.61508 0
M  V30 8398 H 782.208 5.10735 6.39603 0
M  V30 8399 N 784.871 -1.49948 0.485112 0
M  V30 8400 C 786.096 -2.073 -0.0645059 0
M  V30 8401 C 786.521 -1.345 -1.31497 0
M  V30 8402 O 785.879 -0.39687 -1.76903 0
M  V30 8403 C 785.927 -3.59201 -0.317304 0
M  V30 8404 O 785.031 -3.88085 -1.39514 0
M  V30 8405 H 784.372 -0.663723 0.0191822 0
M  V30 8406 H 786.902 -1.92963 0.680179 0
M  V30 8407 H 786.912 -4.04227 -0.553604 0
M  V30 8408 H 785.587 -4.11602 0.596387 0
M  V30 8409 H 784.164 -3.54885 -1.14504 0
M  V30 8410 N 786.349 -0.21828 -1.56081 0
M  V30 8411 C 787.765 0.137168 -1.59009 0
M  V30 8412 C 787.965 1.59215 -1.23503 0
M  V30 8413 O 787.021 2.33178 -0.968716 0
M  V30 8414 C 788.334 -0.186162 -3.00123 0
M  V30 8415 C 789.882 -0.128135 -3.12738 0
M  V30 8416 C 790.357 -0.425094 -4.56023 0
M  V30 8417 N 791.848 -0.374547 -4.61683 0
M  V30 8418 C 792.583 -0.57786 -5.70481 0
M  V30 8419 N 792.079 -0.842771 -6.87655 0
M  V30 8420 N 793.872 -0.510521 -5.59777 0
M  V30 8421 H 786.023 -1.16746 -1.77437 0
M  V30 8422 H 788.286 -0.467706 -0.824594 0
M  V30 8423 H 787.992 -1.19589 -3.30744 0
M  V30 8424 H 787.866 0.500388 -3.73866 0
M  V30 8425 H 790.253 0.872224 -2.81915 0
M  V30 8426 H 790.334 -0.848112 -2.41331 0
M  V30 8427 H 789.978 -1.42288 -4.87562 0
M  V30 8428 H 789.908 0.316038 -5.25651 0
M  V30 8429 H 792.399 -0.177356 -3.77484 0
M  V30 8430 H 792.712 -0.986095 -7.66483 0
M  V30 8431 H 791.057 -0.879929 -6.89407 0
M  V30 8432 H 794.248 -0.303813 -4.67113 0
M  V30 8433 H 794.421 -0.672378 -6.44502 0
M  V30 8434 N 787.827 1.57504 0.0551401 0
M  V30 8435 C 788.777 2.0128 1.071 0
M  V30 8436 C 789.761 0.897592 1.33537 0
M  V30 8437 O 790.953 1.16151 1.33558 0
M  V30 8438 C 788.082 2.47414 2.37994 0
M  V30 8439 C 787.168 3.65703 2.14761 0
M  V30 8440 N 787.559 4.79323 1.61504 0
M  V30 8441 C 785.857 3.72574 2.45162 0
M  V30 8442 C 786.558 5.61089 1.53472 0
M  V30 8443 N 785.534 5.05426 2.00114 0
M  V30 8444 H 789.336 2.86558 0.652829 0
M  V30 8445 H 786.85 1.60274 0.26193 0
M  V30 8446 H 788.847 2.77023 3.11551 0
M  V30 8447 H 787.507 1.6353 2.80514 0
M  V30 8448 H 788.518 5.01284 1.30134 0
M  V30 8449 H 785.195 2.99439 2.90934 0
M  V30 8450 H 786.585 6.62328 1.13008 0
M  V30 8451 N 789.305 -0.326896 1.54172 0
M  V30 8452 C 790.252 -1.40216 1.83325 0
M  V30 8453 C 791.222 -1.51538 0.680107 0
M  V30 8454 O 792.407 -1.66811 0.926206 0
M  V30 8455 C 789.547 -2.76626 2.0633 0
M  V30 8456 C 788.66 -2.73963 3.34019 0
M  V30 8457 C 787.795 -4.02198 3.47002 0
M  V30 8458 C 786.834 -3.93828 4.68578 0
M  V30 8459 N 785.971 -5.13787 4.78506 0
M  V30 8460 H 790.811 -1.14656 2.7506 0
M  V30 8461 H 788.348 -0.555089 1.36225 0
M  V30 8462 H 790.306 -3.55922 2.17659 0
M  V30 8463 H 788.936 -3.00503 1.1789 0
M  V30 8464 H 787.988 -1.86677 3.31445 0
M  V30 8465 H 789.3 -2.6366 4.2342 0
M  V30 8466 H 788.454 -4.89923 3.57855 0
M  V30 8467 H 787.193 -4.15302 2.55687 0
M  V30 8468 H 786.198 -3.04487 4.57786 0
M  V30 8469 H 787.423 -3.82292 5.61275 0
M  V30 8470 H 785.369 -5.27403 3.90105 0
M  V30 8471 H 785.286 -5.05807 5.61868 0
M  V30 8472 H 786.554 -6.03236 4.93686 0
M  V30 8473 N 790.784 -1.46188 -0.588786 0
M  V30 8474 C 791.731 -1.56292 -1.69828 0
M  V30 8475 C 792.701 -0.407581 -1.61022 0
M  V30 8476 O 793.886 -0.623532 -1.80324 0
M  V30 8477 C 791.026 -1.55341 -3.08161 0
M  V30 8478 C 790.139 -2.81564 -3.27636 0
M  V30 8479 C 789.274 -2.72158 -4.56183 0
M  V30 8480 C 788.313 -3.93348 -4.68981 0
M  V30 8481 N 787.45 -3.82365 -5.88848 0
M  V30 8482 H 792.29 -2.51066 -1.6053 0
M  V30 8483 H 789.827 -1.24562 -0.782474 0
M  V30 8484 H 791.785 -1.52776 -3.88221 0
M  V30 8485 H 790.415 -0.641034 -3.16371 0
M  V30 8486 H 789.467 -2.94136 -2.41223 0
M  V30 8487 H 790.779 -3.714 -3.32962 0
M  V30 8488 H 789.933 -2.67665 -5.44464 0
M  V30 8489 H 788.672 -1.79953 -4.53286 0
M  V30 8490 H 787.677 -3.98181 -3.7912 0
M  V30 8491 H 788.902 -4.86643 -4.73662 0
M  V30 8492 H 786.848 -2.92942 -5.86959 0
M  V30 8493 H 786.765 -4.65851 -5.95415 0
M  V30 8494 H 788.033 -3.81836 -6.79575 0
M  V30 8495 N 792.262 0.832906 -1.33792 0
M  V30 8496 C 793.487 1.62568 -1.28788 0
M  V30 8497 C 793.912 1.87599 0.137246 0
M  V30 8498 O 793.27 1.44436 1.0958 0
M  V30 8499 C 793.318 2.9495 -2.07453 0
M  V30 8500 O 792.422 3.86546 -1.43722 0
M  V30 8501 H 791.763 0.494809 -0.442787 0
M  V30 8502 H 794.293 1.03578 -1.76445 0
M  V30 8503 H 794.303 3.44599 -2.1844 0
M  V30 8504 H 792.978 2.76055 -3.11073 0
M  V30 8505 H 791.555 3.45044 -1.41417 0
M  V30 8506 N 793.74 1.17359 1.05189 0
M  V30 8507 C 794.703 0.892604 2.11105 0
M  V30 8508 C 795.703 -0.117236 1.60372 0
M  V30 8509 O 796.893 0.114936 1.7382 0
M  V30 8510 C 794.025 0.337032 3.3923 0
M  V30 8511 H 795.218 1.83169 2.37464 0
M  V30 8512 H 792.771 0.984051 1.21434 0
M  V30 8513 H 793.506 -0.609198 3.18527 0
M  V30 8514 H 793.291 1.06484 3.77364 0
M  V30 8515 H 794.781 0.158763 4.17298 0
M  V30 8516 N 795.218 -1.23913 0.973828 0
M  V30 8517 C 796.634 -1.44325 0.681363 0
M  V30 8518 C 796.834 -1.86832 -0.754728 0
M  V30 8519 O 795.89 -2.01024 -1.52793 0
M  V30 8520 C 797.203 -2.50017 1.67069 0
M  V30 8521 C 798.751 -2.63838 1.68399 0
M  V30 8522 C 799.226 -3.72734 2.66145 0
M  V30 8523 N 800.717 -3.80169 2.64624 0
M  V30 8524 C 801.452 -4.6397 3.36927 0
M  V30 8525 N 800.948 -5.51911 4.18767 0
M  V30 8526 N 802.741 -4.58106 3.25722 0
M  V30 8527 H 794.892 -0.946204 1.9016 0
M  V30 8528 H 797.155 -0.477374 0.819035 0
M  V30 8529 H 796.861 -2.25686 2.69738 0
M  V30 8530 H 796.735 -3.48287 1.4483 0
M  V30 8531 H 799.122 -2.87524 0.664379 0
M  V30 8532 H 799.203 -1.65906 1.94702 0
M  V30 8533 H 798.847 -3.49797 3.68245 0
M  V30 8534 H 798.777 -4.70193 2.3712 0
M  V30 8535 H 801.268 -3.17319 2.05224 0
M  V30 8536 H 801.581 -6.12828 4.70809 0
M  V30 8537 H 799.926 -5.51556 4.2286 0
M  V30 8538 H 803.117 -3.8842 2.61242 0
M  V30 8539 H 803.29 -5.23188 3.82333 0
M  V30 8540 N 796.696 -0.74468 -1.38897 0
M  V30 8541 C 798.107 -0.36568 -1.83084 0
M  V30 8542 C 798.458 1.10436 -1.62168 0
M  V30 8543 O 797.583 1.85281 -1.11804 0
M  V30 8544 C 798.178 -0.656946 -3.3237 0
M  V30 8545 C 796.737 -0.331329 -3.74939 0
M  V30 8546 C 795.884 -0.914661 -2.61781 0
M  V30 8547 H 798.835 -0.941551 -1.27752 0
M  V30 8548 H 798.856 0.0679546 -3.80439 0
M  V30 8549 H 798.368 -1.72693 -3.47561 0
M  V30 8550 H 796.469 0.732426 -3.6533 0
M  V30 8551 H 796.582 -0.820655 -4.72019 0
M  V30 8552 H 794.946 -0.34063 -2.52412 0
M  V30 8553 H 795.729 -1.98949 -2.79775 0
M  V30 8554 N 798.174 1.49689 -0.493057 0
M  V30 8555 C 799.084 2.32746 0.294358 0
M  V30 8556 C 800.1 1.44117 0.975003 0
M  V30 8557 O 801.276 1.77149 0.958138 0
M  V30 8558 C 798.341 3.19358 1.34949 0
M  V30 8559 C 797.402 4.2383 0.683122 0
M  V30 8560 C 796.635 5.06303 1.68798 0
M  V30 8561 O 796.858 4.90172 2.91698 0
M  V30 8562 O 795.792 5.88826 1.24768 0
M  V30 8563 H 799.618 3.01247 -0.385254 0
M  V30 8564 H 797.203 1.47216 -0.254519 0
M  V30 8565 H 799.085 3.73037 1.96014 0
M  V30 8566 H 797.76 2.53561 2.01217 0
M  V30 8567 H 796.667 3.74086 0.0329351 0
M  V30 8568 H 798 4.9216 0.0630192 0
M  V30 8569 N 799.652 0.226554 1.55963 0
M  V30 8570 C 800.582 -0.676079 2.23498 0
M  V30 8571 C 801.563 -1.19718 1.20837 0
M  V30 8572 O 802.748 -1.24027 1.49436 0
M  V30 8573 C 799.878 -1.88217 2.91876 0
M  V30 8574 C 798.832 -1.4947 4.01052 0
M  V30 8575 C 798.158 -2.77997 4.56751 0
M  V30 8576 C 799.458 -0.680951 5.17842 0
M  V30 8577 H 801.152 -0.112989 2.99187 0
M  V30 8578 H 798.698 -0.0529046 1.43903 0
M  V30 8579 H 800.651 -2.51911 3.37815 0
M  V30 8580 H 799.375 -2.47031 2.13643 0
M  V30 8581 H 798.034 -0.881199 3.55852 0
M  V30 8582 H 797.682 -3.34966 3.75243 0
M  V30 8583 H 797.382 -2.52803 5.30438 0
M  V30 8584 H 798.906 -3.42625 5.05411 0
M  V30 8585 H 800.32 -1.22171 5.60131 0
M  V30 8586 H 798.717 -0.525898 5.97791 0
M  V30 8587 H 799.787 0.311346 4.83899 0
M  V30 8588 N 801.13 -1.57531 -0.0467866 0
M  V30 8589 C 802.36 -1.92417 -0.752279 0
M  V30 8590 C 802.768 -0.823134 -1.70356 0
M  V30 8591 O 802.111 0.210598 -1.82489 0
M  V30 8592 C 802.173 -3.22974 -1.57887 0
M  V30 8593 C 801.837 -4.50045 -0.794285 0
M  V30 8594 C 802.834 -5.19799 -0.102368 0
M  V30 8595 C 800.519 -4.96608 -0.754061 0
M  V30 8596 C 802.513 -6.34385 0.619267 0
M  V30 8597 C 800.2 -6.11093 -0.0286682 0
M  V30 8598 C 801.198 -6.79835 0.656772 0
M  V30 8599 O 800.886 -7.92133 1.37042 0
M  V30 8600 H 800.618 -0.640029 -0.217576 0
M  V30 8601 H 803.172 -2.05395 -0.0137438 0
M  V30 8602 H 801.402 -3.06273 -2.3608 0
M  V30 8603 H 803.091 -3.43319 -2.16533 0
M  V30 8604 H 803.857 -4.8484 -0.124589 0
M  V30 8605 H 799.736 -4.42958 -1.27706 0
M  V30 8606 H 803.28 -6.87975 1.15483 0
M  V30 8607 H 799.177 -6.455 -0.00446214 0
M  V30 8608 H 799.945 -8.08394 1.28227 0
M  V30 8609 N 802.608 0.318715 -1.54344 0
M  V30 8610 C 803.885 1.07461 -1.63437 0
M  V30 8611 C 804.265 2.05771 -0.47131 0
M  V30 8612 O 803.613 2.22175 0.53391 0
M  V30 8613 C 803.823 1.77224 -3.00654 0
M  V30 8614 C 805.171 2.30069 -3.56866 0
M  V30 8615 O 806.195 1.87284 -3.0299 0
M  V30 8616 O 805.054 3.08412 -4.51159 0
M  V30 8617 H 802.148 0.495627 -0.66203 0
M  V30 8618 H 804.694 0.318218 -1.6669 0
M  V30 8619 H 803.466 1.05742 -3.76742 0
M  V30 8620 H 803.089 2.59662 -3.01101 0
M  V30 8621 N 804.086 1.46499 0.581025 0
M  V30 8622 C 804.996 1.59778 1.71779 0
M  V30 8623 C 806.012 0.481223 1.67213 0
M  V30 8624 O 807.188 0.74557 1.87091 0
M  V30 8625 C 804.253 1.58626 3.08283 0
M  V30 8626 C 803.314 2.81527 3.241 0
M  V30 8627 C 802.547 2.80421 4.54092 0
M  V30 8628 O 802.77 1.89262 5.38085 0
M  V30 8629 O 801.704 3.71984 4.73193 0
M  V30 8630 H 805.53 2.55918 1.63523 0
M  V30 8631 H 803.115 1.29311 0.748267 0
M  V30 8632 H 804.997 1.60686 3.89561 0
M  V30 8633 H 803.672 0.656467 3.16973 0
M  V30 8634 H 802.579 2.85021 2.42309 0
M  V30 8635 H 803.912 3.73721 3.20302 0
M  V30 8636 N 805.565 -0.825799 1.34232 0
M  V30 8637 C 806.793 -1.61363 1.29497 0
M  V30 8638 C 807.208 -1.88341 -0.131536 0
M  V30 8639 O 806.565 -1.47279 -1.07773 0
M  V30 8640 C 806.616 -2.95623 2.08061 0
M  V30 8641 O 806.337 -2.69824 3.45147 0
M  V30 8642 C 807.838 -3.90032 2.10688 0
M  V30 8643 H 805.058 -0.501676 0.445603 0
M  V30 8644 H 807.602 -1.02767 1.76803 0
M  V30 8645 H 805.757 -3.50785 1.64404 0
M  V30 8646 H 806.171 -3.55412 3.85723 0
M  V30 8647 H 807.645 -4.81411 2.70087 0
M  V30 8648 H 808.122 -4.25188 1.10052 0
M  V30 8649 H 808.728 -3.40807 2.54422 0
M  V30 8650 N 807.043 -1.17915 -1.04565 0
M  V30 8651 C 808.268 -0.996749 -1.81878 0
M  V30 8652 C 808.693 0.450169 -1.82634 0
M  V30 8653 O 808.051 1.32268 -1.23995 0
M  V30 8654 C 808.099 -1.55005 -3.25585 0
M  V30 8655 O 807.203 -0.76804 -4.05185 0
M  V30 8656 H 806.544 -0.353456 -0.562108 0
M  V30 8657 H 809.074 -1.56557 -1.31723 0
M  V30 8658 H 809.084 -1.57503 -3.76373 0
M  V30 8659 H 807.759 -2.60327 -3.2435 0
M  V30 8660 H 806.336 -0.81498 -3.63885 0
M  V30 8661 N 808.521 1.23394 -0.980386 0
M  V30 8662 C 809.768 1.91809 -0.649261 0
M  V30 8663 C 810.096 1.765 0.817197 0
M  V30 8664 O 809.351 1.11979 1.60497 0
M  V30 8665 C 809.65 3.43542 -0.985588 0
M  V30 8666 C 809.316 3.79031 -2.44225 0
M  V30 8667 C 807.978 3.88429 -2.84035 0
M  V30 8668 C 810.33 3.96145 -3.38702 0
M  V30 8669 C 807.658 4.12368 -4.17336 0
M  V30 8670 C 810.01 4.21583 -4.71646 0
M  V30 8671 C 808.674 4.29203 -5.11215 0
M  V30 8672 H 807.944 0.70188 -0.237581 0
M  V30 8673 H 810.591 1.4642 -1.23424 0
M  V30 8674 H 808.896 3.90503 -0.318521 0
M  V30 8675 H 810.593 3.94708 -0.707596 0
M  V30 8676 H 807.183 3.7229 -2.12362 0
M  V30 8677 H 811.367 3.88274 -3.09123 0
M  V30 8678 H 806.623 4.1649 -4.47601 0
M  V30 8679 H 810.797 4.33769 -5.4481 0
M  V30 8680 H 808.424 4.47505 -6.14527 0
M  V30 8681 N 809.999 0.752036 1.385 0
M  V30 8682 C 810.909 0.125318 2.34265 0
M  V30 8683 C 811.925 -0.702437 1.59191 0
M  V30 8684 O 813.101 -0.626951 1.91393 0
M  V30 8685 C 810.166 -0.758486 3.38301 0
M  V30 8686 C 809.227 0.0834636 4.29219 0
M  V30 8687 C 808.46 -0.758252 5.28286 0
M  V30 8688 O 808.683 -1.99632 5.34325 0
M  V30 8689 O 807.617 -0.177878 6.01637 0
M  V30 8690 H 811.443 0.91617 2.89551 0
M  V30 8691 H 809.028 0.512911 1.4032 0
M  V30 8692 H 810.91 -1.26365 4.02007 0
M  V30 8693 H 809.585 -1.52786 2.85374 0
M  V30 8694 H 808.492 0.634545 3.68679 0
M  V30 8695 H 809.825 0.815455 4.85398 0
M  V30 8696 N 811.477 -1.49425 0.500989 0
M  V30 8697 C 812.407 -2.31971 -0.266775 0
M  V30 8698 C 813.388 -1.40245 -0.962563 0
M  V30 8699 O 814.573 -1.69154 -0.953968 0
M  V30 8700 C 811.703 -3.20757 -1.33163 0
M  V30 8701 C 810.657 -4.21275 -0.75572 0
M  V30 8702 C 809.983 -4.98997 -1.92109 0
M  V30 8703 C 811.283 -5.21686 0.253213 0
M  V30 8704 H 812.977 -2.96408 0.422237 0
M  V30 8705 H 810.523 -1.4254 0.204505 0
M  V30 8706 H 812.476 -3.77315 -1.87646 0
M  V30 8707 H 811.2 -2.54263 -2.04983 0
M  V30 8708 H 809.859 -3.65861 -0.232637 0
M  V30 8709 H 809.507 -4.28951 -2.62698 0
M  V30 8710 H 809.207 -5.67011 -1.54182 0
M  V30 8711 H 810.731 -5.584 -2.47026 0
M  V30 8712 H 812.145 -5.72939 -0.203483 0
M  V30 8713 H 810.542 -5.9759 0.548322 0
M  V30 8714 H 811.612 -4.70596 1.16909 0
M  V30 8715 N 812.955 -0.234822 -1.55841 0
M  V30 8716 C 813.865 0.680828 -2.24504 0
M  V30 8717 C 814.881 1.20306 -1.25708 0
M  V30 8718 O 816.057 1.24188 -1.58554 0
M  V30 8719 C 813.122 1.86636 -2.92178 0
M  V30 8720 C 812.183 1.3848 -4.06352 0
M  V30 8721 C 811.416 2.51382 -4.70789 0
M  V30 8722 O 811.639 3.69831 -4.34259 0
M  V30 8723 O 810.573 2.21828 -5.59532 0
M  V30 8724 H 814.399 0.12583 -3.03439 0
M  V30 8725 H 811.984 -0.00381817 -1.494 0
M  V30 8726 H 813.866 2.55845 -3.34845 0
M  V30 8727 H 812.541 2.40921 -2.16192 0
M  V30 8728 H 811.448 0.660341 -3.68226 0
M  V30 8729 H 812.781 0.888177 -4.8412 0
M  V30 8730 N 814.433 1.57553 0.0384317 0
M  V30 8731 C 815.71 1.79977 0.766002 0
M  V30 8732 C 816.09 0.830625 1.94072 0
M  V30 8733 O 815.438 -0.129243 2.28134 0
M  V30 8734 C 815.648 3.27434 1.20781 0
M  V30 8735 C 816.996 3.92167 1.62758 0
M  V30 8736 O 818.02 3.31527 1.30263 0
M  V30 8737 O 816.879 4.98917 2.23035 0
M  V30 8738 H 813.973 0.739787 0.369654 0
M  V30 8739 H 816.519 1.69693 0.0159312 0
M  V30 8740 H 815.291 3.89558 0.368792 0
M  V30 8741 H 814.914 3.42571 2.01819 0
M  V30 8742 O 815.95 -0.181452 1.60477 0
M  V30 8743 H 816.641 -0.819067 1.75531 0
M  V30 END ATOM
M  V30 BEGIN BOND
M  V30 END BOND
M  V30 END CTAB
M  END
$$$$
