drugbank_target|Q9NWZ3 Interleukin-1 receptor-associated kinase 4 (DB08590; DB12010)
 OpenBabel12092120513D

  0  0  0     0  0            999 V3000
M  V30 BEGIN CTAB
M  V30 COUNTS 7213 7282 0 0 0
M  V30 BEGIN ATOM
M  V30 1 H -0.908 1.98254 -0.117106 0
M  V30 2 N 0 1.576 0 0
M  V30 3 C 0.933 2.03868 1.02534 0
M  V30 4 C 1.911 0.928543 1.3348 0
M  V30 5 O 3.095 1.19667 1.45644 0
M  V30 6 C 0.222 2.43627 2.35294 0
M  V30 7 C -0.732 3.65373 2.2001 0
M  V30 8 S 0.101 5.13292 1.52614 0
M  V30 9 C 1.257 5.56322 2.86805 0
M  V30 10 H 1.49 2.90518 0.631377 0
M  V30 11 H -0.977 1.52953 0.210867 0
M  V30 12 H 0.981 2.67203 3.11629 0
M  V30 13 H -0.358 1.57376 2.7183 0
M  V30 14 H -1.165 3.90944 3.18086 0
M  V30 15 H -1.563 3.418 1.51819 0
M  V30 16 H 0.729 5.58782 3.83104 0
M  V30 17 H 1.672 6.56266 2.65933 0
M  V30 18 H 2.08 4.83886 2.90714 0
M  V30 19 N 1.4781 -0.272755 1.55222 0
M  V30 20 C 2.4261 -1.35705 1.88909 0
M  V30 21 C 3.4201 -1.5112 0.765456 0
M  V30 22 O 4.6261 -1.52901 0.949802 0
M  V30 23 H 1.0011 -0.453868 0.59959 0
M  V30 24 H 2.9721 -1.04544 2.79487 0
M  V30 25 C 1.7211 -2.71049 2.17779 0
M  V30 26 H 1.0441 -2.59979 3.03728 0
M  V30 27 H 2.4841 -3.45858 2.45272 0
M  V30 28 C 0.9431 -3.22165 0.985473 0
M  V30 29 O 1.4731 -4.01096 0.220233 0
M  V30 30 N -0.3209 -2.7985 0.783108 0
M  V30 31 H -0.7739 -2.15775 1.40708 0
M  V30 32 H -0.8159 -3.14397 -0.0130392 0
M  V30 33 N 2.9562 -1.48159 -0.537278 0
M  V30 34 C 3.9032 -1.62138 -1.64256 0
M  V30 35 C 4.8732 -0.463668 -1.59497 0
M  V30 36 O 6.0582 -0.686241 -1.78032 0
M  V30 37 C 3.1982 -1.66028 -3.02537 0
M  V30 38 C 2.3112 -2.92855 -3.17585 0
M  V30 39 C 1.4462 -2.87952 -4.46382 0
M  V30 40 C 0.4852 -4.09516 -4.54932 0
M  V30 41 N -0.3778 -4.02733 -5.75109 0
M  V30 42 H 4.4622 -2.56529 -1.51647 0
M  V30 43 H 1.9992 -1.27224 -0.738414 0
M  V30 44 H 3.9572 -1.66265 -3.82638 0
M  V30 45 H 2.5872 -0.751331 -3.13934 0
M  V30 46 H 1.6392 -3.02395 -2.30784 0
M  V30 47 H 2.9512 -3.82822 -3.19764 0
M  V30 48 H 2.1052 -2.8655 -5.34765 0
M  V30 49 H 0.8442 -1.95702 -4.46712 0
M  V30 50 H -0.1508 -4.11201 -3.64957 0
M  V30 51 H 1.0742 -5.02917 -4.56346 0
M  V30 52 H -0.9798 -3.13299 -5.76351 0
M  V30 53 H -1.0628 -4.86397 -5.78752 0
M  V30 54 H 0.2052 -4.05379 -6.65799 0
M  V30 55 N 4.4343 0.785586 -1.36625 0
M  V30 56 C 5.8453 1.36101 -1.27803 0
M  V30 57 C 6.1963 1.96035 0.0804875 0
M  V30 58 O 5.3213 1.92834 0.982042 0
M  V30 59 C 5.9163 2.47442 -2.31426 0
M  V30 60 C 4.4753 3.00789 -2.26281 0
M  V30 61 C 3.6223 1.73896 -2.15999 0
M  V30 62 H 6.5733 0.586928 -1.47448 0
M  V30 63 H 6.5943 3.2656 -1.95291 0
M  V30 64 H 6.1063 2.03791 -3.30289 0
M  V30 65 H 4.2073 3.48851 -1.30896 0
M  V30 66 H 4.3203 3.57343 -3.19128 0
M  V30 67 H 2.6843 1.9628 -1.62316 0
M  V30 68 H 3.4673 1.32368 -3.16755 0
M  V30 69 N 5.9124 1.20967 1.01018 0
M  V30 70 C 7.1614 1.01796 1.74128 0
M  V30 71 C 7.4744 -0.449691 1.90361 0
M  V30 72 O 8.6804 -0.76068 2.60626 0
M  V30 73 C 7.1364 1.7727 3.13215 0
M  V30 74 C 6.7444 3.28171 3.04972 0
M  V30 75 C 8.4884 1.66489 3.90489 0
M  V30 76 C 6.3954 3.96156 4.39107 0
M  V30 77 H 5.3254 0.377276 0.652824 0
M  V30 78 H 7.9764 1.44651 1.12909 0
M  V30 79 H 6.3584 1.27205 3.75013 0
M  V30 80 H 7.5324 3.85499 2.52443 0
M  V30 81 H 5.8474 3.39437 2.41188 0
M  V30 82 H 8.4444 2.14617 4.89738 0
M  V30 83 H 8.7874 0.6222 4.11624 0
M  V30 84 H 9.3204 2.14003 3.35332 0
M  V30 85 H 6.0594 5.00604 4.23174 0
M  V30 86 H 5.5794 3.43617 4.91617 0
M  V30 87 H 7.2584 4.00774 5.07926 0
M  V30 88 N 7.3905 -1.2043 1.01659 0
M  V30 89 C 8.6185 -1.93777 0.725132 0
M  V30 90 C 9.0335 -1.74772 -0.714166 0
M  V30 91 O 8.3905 -1.06169 -1.4844 0
M  V30 92 C 8.4415 -3.45876 1.05129 0
M  V30 93 O 8.1625 -3.6426 2.43406 0
M  V30 94 C 9.6635 -4.36368 0.780891 0
M  V30 95 H 6.8835 -0.615901 0.266284 0
M  V30 96 H 9.4275 -1.52922 1.35776 0
M  V30 97 H 7.5825 -3.8461 0.464065 0
M  V30 98 H 7.9965 -4.58246 2.55169 0
M  V30 99 H 9.4705 -5.41743 1.05918 0
M  V30 100 H 9.9475 -4.38275 -0.284937 0
M  V30 101 H 10.5535 -4.03296 1.35027 0
M  V30 102 N 8.8686 -0.792821 -1.36206 0
M  V30 103 C 10.2796 -0.429513 -1.81692 0
M  V30 104 C 10.6306 1.04695 -1.65932 0
M  V30 105 O 9.7556 1.81256 -1.18218 0
M  V30 106 C 10.3506 -0.772831 -3.29868 0
M  V30 107 C 8.9096 -0.462307 -3.7355 0
M  V30 108 C 8.0566 -1.00569 -2.5842 0
M  V30 109 H 11.0076 -0.985672 -1.24379 0
M  V30 110 H 11.0286 -0.0651928 -3.80444 0
M  V30 111 H 10.5406 -1.84747 -3.41307 0
M  V30 112 H 8.6416 0.604158 -3.67669 0
M  V30 113 H 8.7546 -0.985299 -4.68859 0
M  V30 114 H 7.1186 -0.428734 -2.51066 0
M  V30 115 H 7.9016 -2.08616 -2.72643 0
M  V30 116 N 10.3467 1.47872 -0.545128 0
M  V30 117 C 11.5717 2.07391 -0.0190611 0
M  V30 118 C 11.9967 1.39688 1.25971 0
M  V30 119 O 11.3547 0.467816 1.7516 0
M  V30 120 C 11.4027 3.60188 0.172335 0
M  V30 121 O 10.5067 3.9339 1.23766 0
M  V30 122 H 9.8477 0.662411 -0.0459059 0
M  V30 123 H 12.3777 1.90066 -0.757365 0
M  V30 124 H 12.3877 4.06129 0.390305 0
M  V30 125 H 11.0627 4.08865 -0.761725 0
M  V30 126 H 9.6397 3.5921 1.00114 0
M  V30 127 N 11.8248 0.280983 1.55075 0
M  V30 128 C 13.0528 -0.337293 2.04132 0
M  V30 129 C 13.4678 -1.4903 1.15912 0
M  V30 130 O 12.8248 -1.81606 0.180459 0
M  V30 131 C 12.8758 -0.812706 3.52246 0
M  V30 132 O 12.5968 0.294387 4.3711 0
M  V30 133 C 14.0978 -1.4982 4.17216 0
M  V30 134 H 11.3178 -0.0761638 0.666663 0
M  V30 135 H 13.8618 0.414787 2.00249 0
M  V30 136 H 12.0168 -1.51486 3.56554 0
M  V30 137 H 12.4308 -0.0721325 5.2445 0
M  V30 138 H 13.9048 -1.7822 5.22438 0
M  V30 139 H 14.3818 -2.43168 3.65741 0
M  V30 140 H 14.9878 -0.839742 4.16927 0
M  V30 141 N 13.3029 -1.57598 0.00835791 0
M  V30 142 C 14.5329 -1.94931 -0.684496 0
M  V30 143 C 14.9409 -0.882233 -1.67372 0
M  V30 144 O 14.2839 0.146621 -1.83114 0
M  V30 145 C 14.3459 -3.283 -1.4649 0
M  V30 146 C 14.0099 -4.52548 -0.63634 0
M  V30 147 C 15.0069 -5.19839 0.0795586 0
M  V30 148 C 12.6919 -4.98942 -0.579849 0
M  V30 149 C 14.6859 -6.3183 0.840843 0
M  V30 150 C 12.3729 -6.10819 0.185155 0
M  V30 151 C 13.3709 -6.77121 0.894227 0
M  V30 152 O 13.0589 -7.86853 1.64673 0
M  V30 153 H 12.7909 -0.647249 -0.19505 0
M  V30 154 H 15.3449 -2.05318 0.0581272 0
M  V30 155 H 13.5749 -3.14345 -2.2522 0
M  V30 156 H 15.2639 -3.50685 -2.04389 0
M  V30 157 H 16.0299 -4.84979 0.0451202 0
M  V30 158 H 11.9089 -4.47155 -1.1213 0
M  V30 159 H 15.4529 -6.83513 1.39483 0
M  V30 160 H 11.3499 -6.4512 0.221384 0
M  V30 161 H 12.1179 -8.03412 1.56432 0
M  V30 162 N 14.781 0.264519 -1.55364 0
M  V30 163 C 16.027 0.99646 -1.76631 0
M  V30 164 C 16.36 1.85632 -0.570478 0
M  V30 165 O 15.635 1.89647 0.43175 0
M  V30 166 C 15.918 1.87187 -3.07625 0
M  V30 167 C 15.771 1.04138 -4.37579 0
M  V30 168 C 17.09 2.85749 -3.34717 0
M  V30 169 H 14.209 0.360841 -0.642622 0
M  V30 170 H 16.851 0.268218 -1.88097 0
M  V30 171 H 15.001 2.49279 -2.9798 0
M  V30 172 H 16.673 0.440517 -4.59192 0
M  V30 173 H 14.916 0.345115 -4.32425 0
M  V30 174 H 15.587 1.68729 -5.2558 0
M  V30 175 H 18.063 2.33793 -3.4421 0
M  V30 176 H 16.939 3.44136 -4.27623 0
M  V30 177 H 17.2 3.61311 -2.54768 0
M  V30 178 N 16.2591 1.48442 0.529413 0
M  V30 179 C 17.6751 1.34575 0.858004 0
M  V30 180 C 17.8751 0.3572 1.98309 0
M  V30 181 O 16.9311 -0.221379 2.51528 0
M  V30 182 C 18.2441 2.74617 1.22499 0
M  V30 183 C 19.7921 2.83109 1.33484 0
M  V30 184 C 20.2671 4.23854 1.73526 0
M  V30 185 N 21.7581 4.2653 1.80628 0
M  V30 186 C 22.4931 5.32372 2.12997 0
M  V30 187 N 21.9891 6.48491 2.43786 0
M  V30 188 N 23.7821 5.19766 2.14008 0
M  V30 189 H 15.9331 2.1133 -0.212925 0
M  V30 190 H 18.1961 0.947439 -0.0326199 0
M  V30 191 H 17.9021 3.4852 0.471905 0
M  V30 192 H 17.7761 3.08177 2.17501 0
M  V30 193 H 20.1631 2.09462 2.0787 0
M  V30 194 H 20.2441 2.53168 0.366027 0
M  V30 195 H 19.8881 4.98018 0.997013 0
M  V30 196 H 19.8181 4.5124 2.71459 0
M  V30 197 H 22.3091 3.42772 1.59108 0
M  V30 198 H 22.6221 7.24993 2.67592 0
M  V30 199 H 20.9671 6.51765 2.41304 0
M  V30 200 H 24.1581 4.28066 1.89412 0
M  V30 201 H 24.3311 6.02354 2.38902 0
M  V30 202 N 17.7372 -0.778329 1.37039 0
M  V30 203 C 18.9772 -1.54973 1.33276 0
M  V30 204 C 19.3412 -1.91816 -0.0839376 0
M  V30 205 O 20.5422 -2.6767 -0.246228 0
M  V30 206 C 18.8132 -2.78517 2.23971 0
M  V30 207 S 20.3722 -3.6865 2.37997 0
M  V30 208 H 17.1902 -0.530639 0.473226 0
M  V30 209 H 19.7922 -0.915806 1.72723 0
M  V30 210 H 18.4962 -2.4952 3.25835 0
M  V30 211 H 18.0272 -3.46875 1.85584 0
M  V30 212 H 20.0422 -4.70182 1.58567 0
M  V30 213 N 19.2153 -1.21501 -1.00376 0
M  V30 214 C 20.1453 -0.999478 -2.11028 0
M  V30 215 C 21.1263 0.0759671 -1.6993 0
M  V30 216 O 22.3113 -0.0841106 -1.94018 0
M  V30 217 C 19.4413 -0.564709 -3.42678 0
M  V30 218 C 18.3953 -1.58486 -3.97576 0
M  V30 219 C 17.7213 -1.00628 -5.25146 0
M  V30 220 C 19.0213 -2.97204 -4.29496 0
M  V30 221 H 20.7153 -1.92495 -2.29317 0
M  V30 222 H 18.2613 -0.92693 -1.102 0
M  V30 223 H 20.2143 -0.401091 -4.19487 0
M  V30 224 H 18.9383 0.396411 -3.24185 0
M  V30 225 H 17.5973 -1.73606 -3.22888 0
M  V30 226 H 17.2453 -0.0368439 -5.02987 0
M  V30 227 H 16.9453 -1.68771 -5.62841 0
M  V30 228 H 18.4693 -0.854015 -6.04598 0
M  V30 229 H 19.8833 -2.8552 -4.97143 0
M  V30 230 H 18.2803 -3.62372 -4.78338 0
M  V30 231 H 19.3503 -3.47956 -3.3772 0
M  V30 232 N 20.6934 1.19889 -1.02296 0
M  V30 233 C 21.6414 2.24938 -0.592081 0
M  V30 234 C 22.6354 1.65257 0.372357 0
M  V30 235 O 23.8414 1.78371 0.241583 0
M  V30 236 H 20.2164 0.731787 -0.173182 0
M  V30 237 H 22.1874 2.58603 -1.48885 0
M  V30 238 C 20.9364 3.47668 0.047351 0
M  V30 239 H 20.2594 3.93875 -0.685772 0
M  V30 240 H 21.6994 4.22852 0.311862 0
M  V30 241 C 20.1584 3.11136 1.29212 0
M  V30 242 O 20.6884 3.2325 2.38479 0
M  V30 243 N 18.8944 2.65625 1.17863 0
M  V30 244 H 18.4414 2.55968 0.289493 0
M  V30 245 H 18.3994 2.41553 2.01245 0
M  V30 246 N 22.1715 0.800033 1.35784 0
M  V30 247 C 23.4175 0.377901 1.99248 0
M  V30 248 C 23.7505 -1.05052 1.63333 0
M  V30 249 O 23.0255 -1.72768 0.893385 0
M  V30 250 C 23.3085 0.553922 3.55814 0
M  V30 251 C 23.1615 2.0268 4.01548 0
M  V30 252 C 24.4805 -0.0244802 4.40093 0
M  V30 253 H 21.5995 0.138782 0.723815 0
M  V30 254 H 24.2415 1.00835 1.61035 0
M  V30 255 H 22.3915 0.0172398 3.88496 0
M  V30 256 H 24.0635 2.62536 3.79305 0
M  V30 257 H 22.3065 2.5256 3.52698 0
M  V30 258 H 22.9775 2.10087 5.10458 0
M  V30 259 H 25.4535 0.433775 4.13833 0
M  V30 260 H 24.3295 0.128637 5.48749 0
M  V30 261 H 24.5905 -1.11758 4.27741 0
M  V30 262 N 23.6496 -1.47581 0.552962 0
M  V30 263 C 24.8976 -2.02082 0.0272703 0
M  V30 264 C 25.2186 -1.4301 -1.32563 0
M  V30 265 O 24.4886 -0.603745 -1.86365 0
M  V30 266 H 23.0686 -0.746966 0.00709182 0
M  V30 267 H 25.7306 -1.81033 0.722008 0
M  V30 268 H 24.8266 -3.12034 -0.0639951 0
M  V30 269 N 25.1277 -0.289203 -1.54924 0
M  V30 270 C 26.0577 0.58549 -2.2604 0
M  V30 271 C 27.0387 1.14753 -1.25562 0
M  V30 272 O 28.2237 1.17906 -1.54311 0
M  V30 273 C 25.3537 1.76305 -2.99222 0
M  V30 274 C 24.3077 1.33191 -4.06748 0
M  V30 275 C 23.6337 2.5937 -4.6758 0
M  V30 276 C 24.9337 0.471775 -5.20165 0
M  V30 277 H 26.6277 -0.00763532 -2.99399 0
M  V30 278 H 24.1737 -0.00511229 -1.43999 0
M  V30 279 H 26.1267 2.38097 -3.47689 0
M  V30 280 H 24.8507 2.38223 -2.23422 0
M  V30 281 H 23.5097 0.737121 -3.59113 0
M  V30 282 H 23.1577 3.19576 -3.88433 0
M  V30 283 H 22.8577 2.31228 -5.40192 0
M  V30 284 H 24.3817 3.21985 -5.18804 0
M  V30 285 H 25.7957 0.995056 -5.64599 0
M  V30 286 H 24.1927 0.284639 -5.99425 0
M  V30 287 H 25.2627 -0.506041 -4.82252 0
M  V30 288 N 26.6058 1.57591 -0.0167156 0
M  V30 289 C 27.8548 1.90461 0.663877 0
M  V30 290 C 28.1678 0.893515 1.73999 0
M  V30 291 O 29.3738 1.11302 2.47637 0
M  V30 292 C 27.8298 3.38155 1.23204 0
M  V30 293 C 27.4378 4.47597 0.189866 0
M  V30 294 C 29.1818 3.80111 1.88986 0
M  V30 295 C 27.0888 5.86379 0.768964 0
M  V30 296 H 26.0188 0.710738 0.251729 0
M  V30 297 H 28.6698 1.83326 -0.0799926 0
M  V30 298 H 27.0518 3.40182 2.02712 0
M  V30 299 H 28.2258 4.57112 -0.581846 0
M  V30 300 H 26.5408 4.14766 -0.368475 0
M  V30 301 H 29.1378 4.81145 2.33247 0
M  V30 302 H 29.4808 3.14511 2.72743 0
M  V30 303 H 30.0138 3.80454 1.16187 0
M  V30 304 H 26.7528 6.55493 -0.0301957 0
M  V30 305 H 26.2728 5.80496 1.50945 0
M  V30 306 H 27.9518 6.34563 1.26251 0
M  V30 307 N 28.0839 -0.256276 1.55502 0
M  V30 308 C 29.4999 -0.604325 1.47716 0
M  V30 309 C 29.6999 -1.88763 0.705039 0
M  V30 310 O 28.7559 -2.51445 0.230613 0
M  V30 311 C 30.0689 -0.715756 2.92057 0
M  V30 312 C 31.6169 -0.808706 3.02372 0
M  V30 313 C 32.0919 -0.951777 4.48001 0
M  V30 314 N 33.5829 -1.01688 4.519 0
M  V30 315 C 34.3179 -1.14668 5.61817 0
M  V30 316 N 33.8139 -1.24261 6.81565 0
M  V30 317 N 35.6069 -1.1791 5.49594 0
M  V30 318 H 27.7579 0.586291 2.04148 0
M  V30 319 H 30.0209 0.201015 0.926443 0
M  V30 320 H 29.7269 0.157027 3.51349 0
M  V30 321 H 29.6009 -1.59071 3.42018 0
M  V30 322 H 31.9879 -1.67195 2.43166 0
M  V30 323 H 32.0689 0.0912063 2.55637 0
M  V30 324 H 31.7129 -0.0931291 5.07815 0
M  V30 325 H 31.6429 -1.86659 4.92408 0
M  V30 326 H 34.1339 -0.954468 3.65648 0
M  V30 327 H 34.4469 -1.34046 7.61086 0
M  V30 328 H 32.7919 -1.21236 6.84344 0
M  V30 329 H 35.9829 -1.10057 4.54978 0
M  V30 330 H 36.1559 -1.27681 6.35296 0
M  V30 331 N 29.562 -1.4872 -0.521534 0
M  V30 332 C 30.509 -1.63871 -1.62527 0
M  V30 333 C 31.479 -0.480559 -1.58996 0
M  V30 334 O 32.664 -0.705085 -1.77294 0
M  V30 335 C 29.804 -1.69227 -3.00759 0
M  V30 336 C 28.917 -2.96207 -3.14461 0
M  V30 337 C 28.052 -2.92671 -4.43303 0
M  V30 338 C 27.091 -4.14318 -4.50563 0
M  V30 339 N 26.228 -4.0881 -5.70805 0
M  V30 340 H 31.068 -2.58123 -1.48918 0
M  V30 341 H 28.605 -1.28 -0.724878 0
M  V30 342 H 30.563 -1.70314 -3.80853 0
M  V30 343 H 29.193 -0.784586 -3.1312 0
M  V30 344 H 28.245 -3.04826 -2.27564 0
M  V30 345 H 29.557 -3.86192 -3.15686 0
M  V30 346 H 28.711 -2.92206 -5.31696 0
M  V30 347 H 27.45 -2.00429 -4.44612 0
M  V30 348 H 26.455 -4.15049 -3.60575 0
M  V30 349 H 27.68 -5.07729 -4.50986 0
M  V30 350 H 25.626 -3.19394 -5.72995 0
M  V30 351 H 25.543 -4.92509 -5.7356 0
M  V30 352 H 26.811 -4.12418 -6.61462 0
M  V30 353 N 31.0401 0.771051 -1.3745 0
M  V30 354 C 31.9701 1.89827 -1.3597 0
M  V30 355 C 32.9511 1.68562 -0.228216 0
M  V30 356 O 34.1361 1.8941 -0.428675 0
M  V30 357 C 31.2661 3.2712 -1.16662 0
M  V30 358 C 30.2201 3.6295 -2.2683 0
M  V30 359 C 29.5461 4.98791 -1.92644 0
M  V30 360 C 30.8461 3.69627 -3.69017 0
M  V30 361 H 32.5401 1.91323 -2.30295 0
M  V30 362 H 30.0861 0.919082 -1.10855 0
M  V30 363 H 32.0391 4.05615 -1.14256 0
M  V30 364 H 30.7631 3.26059 -0.187926 0
M  V30 365 H 29.4221 2.86763 -2.28392 0
M  V30 366 H 29.0701 4.94271 -0.933021 0
M  V30 367 H 28.7701 5.23733 -2.66416 0
M  V30 368 H 30.2941 5.79685 -1.91826 0
M  V30 369 H 31.7081 4.38273 -3.69581 0
M  V30 370 H 30.1051 4.06067 -4.41848 0
M  V30 371 H 31.1751 2.70273 -4.02592 0
M  V30 372 N 32.5182 1.22032 0.997298 0
M  V30 373 C 33.7432 1.06921 1.77715 0
M  V30 374 C 34.1682 -0.376226 1.84299 0
M  V30 375 O 33.5262 -1.27165 1.29223 0
M  V30 376 C 33.5742 1.67996 3.19076 0
M  V30 377 O 32.6782 0.930653 4.01762 0
M  V30 378 H 32.0192 0.375814 0.547412 0
M  V30 379 H 34.5492 1.61737 1.25309 0
M  V30 380 H 34.5592 1.72538 3.69723 0
M  V30 381 H 33.2342 2.73182 3.13599 0
M  V30 382 H 31.8112 0.960917 3.60307 0
M  V30 383 N 33.9963 -1.19345 1.0293 0
M  V30 384 C 35.2733 -1.84811 0.640642 0
M  V30 385 C 35.6533 -1.91855 -0.88062 0
M  V30 386 O 35.0013 -1.43587 -1.7775 0
M  V30 387 C 35.2113 -3.23755 1.30321 0
M  V30 388 C 36.5593 -3.99912 1.42673 0
M  V30 389 O 37.5833 -3.33155 1.26041 0
M  V30 390 O 36.4423 -5.19494 1.6967 0
M  V30 391 H 33.5363 -0.796443 0.222726 0
M  V30 392 H 36.0823 -1.26831 1.12748 0
M  V30 393 H 34.8543 -3.13466 2.34211 0
M  V30 394 H 34.4773 -3.89381 0.804261 0
M  V30 395 N 35.4744 -0.807222 -1.35358 0
M  V30 396 C 36.7214 -0.387888 -1.9875 0
M  V30 397 C 37.0494 1.04509 -1.64037 0
M  V30 398 O 36.3044 1.73986 -0.895946 0
M  V30 399 C 36.6034 -0.519036 -3.53611 0
M  V30 400 C 36.2694 -1.91542 -4.08194 0
M  V30 401 C 34.9314 -2.29745 -4.22813 0
M  V30 402 C 37.2834 -2.82896 -4.37744 0
M  V30 403 C 34.6114 -3.58668 -4.643 0
M  V30 404 C 36.9634 -4.11265 -4.8067 0
M  V30 405 C 35.6274 -4.49466 -4.93494 0
M  V30 406 H 34.8974 -0.141938 -0.727279 0
M  V30 407 H 37.5444 -1.02814 -1.6156 0
M  V30 408 H 35.8494 0.204658 -3.91265 0
M  V30 409 H 37.5464 -0.175345 -4.00616 0
M  V30 410 H 34.1364 -1.60862 -3.97268 0
M  V30 411 H 38.3204 -2.54629 -4.26002 0
M  V30 412 H 33.5764 -3.88113 -4.72418 0
M  V30 413 H 37.7504 -4.82153 -5.02496 0
M  V30 414 H 35.3774 -5.49418 -5.25399 0
M  V30 415 N 36.9525 1.47285 -0.560781 0
M  V30 416 C 38.2015 2.01668 -0.035895 0
M  V30 417 C 38.5145 1.44021 1.32353 0
M  V30 418 O 39.7205 1.90088 1.93853 0
M  V30 419 C 38.1765 3.59897 -0.0136659 0
M  V30 420 C 37.7845 4.26536 -1.37006 0
M  V30 421 C 39.5285 4.22017 0.458425 0
M  V30 422 C 37.4355 5.76782 -1.30675 0
M  V30 423 H 36.3655 0.753938 -0.00964879 0
M  V30 424 H 39.0165 1.69243 -0.709166 0
M  V30 425 H 37.3985 3.89301 0.725325 0
M  V30 426 H 38.5725 4.0877 -2.12705 0
M  V30 427 H 36.8875 3.76419 -1.78038 0
M  V30 428 H 39.4845 5.32124 0.524247 0
M  V30 429 H 39.8275 3.89437 1.4712 0
M  V30 430 H 40.3605 3.97159 -0.225818 0
M  V30 431 H 37.0995 6.13988 -2.29564 0
M  V30 432 H 36.6195 5.96875 -0.591622 0
M  V30 433 H 38.2985 6.39063 -1.01033 0
M  V30 434 N 38.4306 0.297415 1.54768 0
M  V30 435 C 39.7076 -0.365847 1.92148 0
M  V30 436 C 40.0876 -1.71975 1.22424 0
M  V30 437 O 39.4356 -2.25666 0.358739 0
M  V30 438 C 39.6456 -0.484056 3.45627 0
M  V30 439 C 40.9936 -0.756594 4.17805 0
M  V30 440 O 42.0176 -0.568007 3.51642 0
M  V30 441 O 40.8766 -1.11863 5.34929 0
M  V30 442 H 37.9706 -0.203919 0.801465 0
M  V30 443 H 40.5166 0.34521 1.66152 0
M  V30 444 H 39.2886 0.467865 3.88493 0
M  V30 445 H 38.9116 -1.24372 3.77647 0
M  V30 446 N 39.9087 -1.5758 0.0250728 0
M  V30 447 C 41.3197 -1.79476 -0.514323 0
M  V30 448 C 41.6707 -0.934956 -1.72491 0
M  V30 449 O 40.7957 -0.144245 -2.15919 0
M  V30 450 C 41.3907 -3.25503 -0.939842 0
M  V30 451 C 39.9497 -3.48408 -1.42438 0
M  V30 452 C 39.0967 -2.74583 -0.387201 0
M  V30 453 H 42.0477 -1.567 0.25113 0
M  V30 454 H 42.0687 -3.34992 -1.80445 0
M  V30 455 H 41.5807 -3.88056 -0.0585628 0
M  V30 456 H 39.6817 -2.91103 -2.32572 0
M  V30 457 H 39.7947 -4.57119 -1.43455 0
M  V30 458 H 38.1587 -2.39942 -0.854409 0
M  V30 459 H 38.9417 -3.39849 0.485543 0
M  V30 460 N 41.3868 0.248026 -1.55636 0
M  V30 461 C 42.3188 1.32993 -1.8667 0
M  V30 462 C 43.3318 1.44345 -0.752877 0
M  V30 463 O 44.5208 1.45715 -1.03098 0
M  V30 464 C 41.6208 2.70863 -2.03682 0
M  V30 465 C 40.7938 2.81792 -3.34532 0
M  V30 466 C 39.8528 4.005 -3.41301 0
M  V30 467 O 38.8788 3.9008 -4.14519 0
M  V30 468 N 40.0808 5.13618 -2.70512 0
M  V30 469 H 42.8458 1.06707 -2.8006 0
M  V30 470 H 40.4068 0.438129 -1.55859 0
M  V30 471 H 42.3988 3.48612 -2.05553 0
M  V30 472 H 40.9688 2.89862 -1.17041 0
M  V30 473 H 40.1888 1.90729 -3.44987 0
M  V30 474 H 41.4768 2.86043 -4.20781 0
M  V30 475 H 40.8748 5.24975 -2.10755 0
M  V30 476 H 39.4318 5.89505 -2.78077 0
M  V30 477 N 42.8649 1.48995 0.513639 0
M  V30 478 C 43.7749 1.67443 1.64317 0
M  V30 479 C 44.7909 0.556947 1.64846 0
M  V30 480 O 45.9669 0.830082 1.83498 0
M  V30 481 C 43.0319 1.72515 3.00732 0
M  V30 482 C 42.0929 2.96009 3.1093 0
M  V30 483 C 41.3259 3.00829 4.40837 0
M  V30 484 O 41.5489 2.13594 5.28898 0
M  V30 485 O 40.4829 3.93168 4.55744 0
M  V30 486 H 44.3089 2.63106 1.51687 0
M  V30 487 H 41.8939 1.32588 0.688543 0
M  V30 488 H 43.7759 1.78277 3.81831 0
M  V30 489 H 42.4509 0.800278 3.13651 0
M  V30 490 H 41.3579 2.9577 2.29065 0
M  V30 491 H 42.6909 3.87934 3.02933 0
M  V30 492 N 44.343 -0.763751 1.37857 0
M  V30 493 C 45.591 -1.51957 1.33243 0
M  V30 494 C 45.912 -1.94835 -0.0801709 0
M  V30 495 O 45.182 -1.66894 -1.02582 0
M  V30 496 H 43.762 -0.563626 0.49024 0
M  V30 497 H 46.424 -0.908504 1.7243 0
M  V30 498 H 45.52 -2.41523 1.97669 0
M  V30 499 N 45.8211 -1.22559 -0.990812 0
M  V30 500 C 47.0671 -1.06303 -1.73411 0
M  V30 501 C 47.4221 0.397442 -1.8825 0
M  V30 502 O 46.7151 1.29062 -1.41611 0
M  V30 503 C 46.9091 -1.71011 -3.13831 0
M  V30 504 C 46.7381 -3.232 -3.12685 0
M  V30 505 C 45.5081 -3.92314 -3.18461 0
M  V30 506 C 47.7061 -4.20107 -2.96673 0
M  V30 507 N 45.6881 -5.31571 -3.07091 0
M  V30 508 C 47.0591 -5.46208 -2.93354 0
M  V30 509 C 49.1141 -4.10973 -2.8108 0
M  V30 510 C 47.8171 -6.64225 -2.76039 0
M  V30 511 C 49.8431 -5.28642 -2.65126 0
M  V30 512 C 49.2051 -6.53663 -2.62496 0
M  V30 513 H 45.3041 -0.443441 -0.644115 0
M  V30 514 H 47.8881 -1.55131 -1.17654 0
M  V30 515 H 46.0591 -1.2473 -3.67827 0
M  V30 516 H 47.7911 -1.47828 -3.76735 0
M  V30 517 H 44.5461 -3.43326 -3.26227 0
M  V30 518 H 44.9701 -6.0455 -3.0471 0
M  V30 519 H 49.6121 -3.15098 -2.8191 0
M  V30 520 H 47.3301 -7.60246 -2.73954 0
M  V30 521 H 50.9161 -5.23407 -2.54039 0
M  V30 522 H 49.7961 -7.43182 -2.50302 0
M  V30 523 N 47.2992 1.18797 -1.03562 0
M  V30 524 C 48.2462 2.22253 -0.622259 0
M  V30 525 C 49.2162 1.61987 0.36736 0
M  V30 526 O 50.4012 1.88986 0.262492 0
M  V30 527 C 47.5412 3.45097 0.0138462 0
M  V30 528 C 46.6542 4.19722 -1.02263 0
M  V30 529 C 45.7892 5.30009 -0.355573 0
M  V30 530 C 44.8282 5.96399 -1.37749 0
M  V30 531 N 43.9652 6.98234 -0.735766 0
M  V30 532 H 48.8052 2.56968 -1.50903 0
M  V30 533 H 46.3422 1.26245 -0.755017 0
M  V30 534 H 48.3002 4.15279 0.399948 0
M  V30 535 H 46.9302 3.11018 0.864158 0
M  V30 536 H 45.9822 3.48418 -1.52673 0
M  V30 537 H 47.2942 4.65227 -1.79903 0
M  V30 538 H 46.4482 6.0664 0.0850095 0
M  V30 539 H 45.1872 4.85592 0.452967 0
M  V30 540 H 44.1922 5.18512 -1.82826 0
M  V30 541 H 45.4172 6.42899 -2.18764 0
M  V30 542 H 43.3632 6.55979 0.0525597 0
M  V30 543 H 43.2802 7.41965 -1.44995 0
M  V30 544 H 44.5482 7.78845 -0.31941 0
M  V30 545 N 48.7773 0.814389 1.34928 0
M  V30 546 C 49.7243 0.22822 2.29669 0
M  V30 547 C 50.6943 -0.642164 1.53184 0
M  V30 548 O 51.8793 -0.585605 1.81591 0
M  V30 549 C 49.0193 -0.61089 3.3965 0
M  V30 550 C 48.1323 0.280792 4.31086 0
M  V30 551 C 47.2673 -0.567067 5.28165 0
M  V30 552 C 46.3063 0.324531 6.11239 0
M  V30 553 N 45.4433 -0.483756 7.00431 0
M  V30 554 H 50.2833 1.04153 2.79206 0
M  V30 555 H 47.8203 0.525133 1.37407 0
M  V30 556 H 49.7783 -1.11263 4.0209 0
M  V30 557 H 48.4083 -1.38939 2.91369 0
M  V30 558 H 47.4603 0.900688 3.69583 0
M  V30 559 H 48.7723 0.966723 4.89342 0
M  V30 560 H 47.9263 -1.13363 5.96015 0
M  V30 561 H 46.6653 -1.28654 4.70425 0
M  V30 562 H 45.6703 0.903298 5.42329 0
M  V30 563 H 46.8953 1.04198 6.71059 0
M  V30 564 H 44.8413 -1.18706 6.45171 0
M  V30 565 H 44.7583 0.143965 7.55863 0
M  V30 566 H 46.0263 -1.03334 7.7262 0
M  V30 567 N 50.2554 -1.46986 0.568584 0
M  V30 568 C 51.1854 -2.32946 -0.160753 0
M  V30 569 C 52.1664 -1.44487 -0.897631 0
M  V30 570 O 53.3514 -1.73327 -0.875867 0
M  V30 571 C 50.4814 -3.26494 -1.18403 0
M  V30 572 C 49.4354 -4.24282 -0.562895 0
M  V30 573 C 48.7614 -5.07236 -1.69163 0
M  V30 574 C 50.0614 -5.19989 0.490761 0
M  V30 575 H 51.7554 -2.94175 0.556916 0
M  V30 576 H 49.3014 -1.4146 0.26927 0
M  V30 577 H 51.2544 -3.85477 -1.70251 0
M  V30 578 H 49.9784 -2.63343 -1.93179 0
M  V30 579 H 48.6374 -3.66541 -0.0656164 0
M  V30 580 H 48.2854 -4.4048 -2.42871 0
M  V30 581 H 47.9854 -5.7345 -1.28174 0
M  V30 582 H 49.5094 -5.6908 -2.21314 0
M  V30 583 H 50.9234 -5.73271 0.0579047 0
M  V30 584 H 49.3204 -5.94469 0.820165 0
M  V30 585 H 50.3904 -4.64777 1.3824 0
M  V30 586 N 51.7335 -0.305618 -1.54608 0
M  V30 587 C 52.6965 0.555591 -2.22364 0
M  V30 588 C 53.6965 1.05768 -1.21119 0
M  V30 589 O 54.8865 0.952972 -1.45822 0
M  V30 590 C 52.0185 1.76974 -2.91364 0
M  V30 591 H 53.2115 -0.0364572 -2.99878 0
M  V30 592 H 50.7645 -0.0565007 -1.56198 0
M  V30 593 H 51.4995 2.40151 -2.17941 0
M  V30 594 H 51.2845 1.41732 -3.65588 0
M  V30 595 H 52.7745 2.38148 -3.43038 0
M  V30 596 N 53.2116 1.57565 -0.0334293 0
M  V30 597 C 54.4576 1.92262 0.645226 0
M  V30 598 C 54.7906 0.910543 1.71531 0
M  V30 599 O 54.0656 -0.066099 1.94388 0
M  V30 600 C 54.3486 3.37422 1.2577 0
M  V30 601 C 54.2016 4.49369 0.196891 0
M  V30 602 C 55.5206 3.82628 2.17449 0
M  V30 603 H 52.6396 0.699171 0.233085 0
M  V30 604 H 55.2816 1.89779 -0.0915694 0
M  V30 605 H 53.4316 3.39669 1.88566 0
M  V30 606 H 55.1036 4.59254 -0.433962 0
M  V30 607 H 53.3466 4.31168 -0.477137 0
M  V30 608 H 54.0176 5.47978 0.665124 0
M  V30 609 H 56.4936 3.82145 1.64634 0
M  V30 610 H 55.3696 4.84883 2.57254 0
M  V30 611 H 55.6306 3.18376 3.0674 0
M  V30 612 N 54.6897 -0.239769 1.55765 0
M  V30 613 C 55.6527 -1.28038 1.90103 0
M  V30 614 C 56.6527 -1.40723 0.778055 0
M  V30 615 O 57.8427 -1.39301 1.04599 0
M  V30 616 C 54.9747 -2.65702 2.13577 0
M  V30 617 H 56.1677 -0.988048 2.83157 0
M  V30 618 H 53.7207 -0.479382 1.48767 0
M  V30 619 H 54.4557 -3.00063 1.23015 0
M  V30 620 H 54.2407 -2.57875 2.95369 0
M  V30 621 H 55.7307 -3.40828 2.41301 0
M  V30 622 N 56.1678 -1.49265 -0.50573 0
M  V30 623 C 57.4168 -1.57761 -1.25675 0
M  V30 624 C 57.7298 -0.267371 -1.93764 0
M  V30 625 O 58.9358 -0.230827 -2.70517 0
M  V30 626 C 57.3918 -2.78332 -2.28165 0
M  V30 627 C 56.9998 -4.16096 -1.66037 0
M  V30 628 C 58.7438 -2.96155 -3.04125 0
M  V30 629 C 56.6508 -5.27895 -2.6661 0
M  V30 630 H 55.5808 -0.587391 -0.472745 0
M  V30 631 H 58.2318 -1.75644 -0.53118 0
M  V30 632 H 56.6138 -2.53934 -3.03865 0
M  V30 633 H 57.7878 -4.50612 -0.963622 0
M  V30 634 H 56.1028 -4.03591 -1.02484 0
M  V30 635 H 58.6998 -3.76849 -3.79327 0
M  V30 636 H 59.0428 -2.06534 -3.61455 0
M  V30 637 H 59.5758 -3.2057 -2.35541 0
M  V30 638 H 56.3148 -6.1956 -2.14068 0
M  V30 639 H 55.8348 -4.97839 -3.34539 0
M  V30 640 H 57.5138 -5.57031 -3.29129 0
M  V30 641 N 57.6459 0.756429 -1.3826 0
M  V30 642 C 58.5929 1.87011 -1.35261 0
M  V30 643 C 59.5629 1.64695 -0.215616 0
M  V30 644 O 60.7479 1.864 -0.407399 0
M  V30 645 C 57.8879 3.24275 -1.18068 0
M  V30 646 C 57.0009 3.58442 -2.41129 0
M  V30 647 C 56.1359 4.84994 -2.16689 0
M  V30 648 C 55.1749 5.11939 -3.35537 0
M  V30 649 N 54.3119 6.29685 -3.10549 0
M  V30 650 H 59.1519 1.8891 -2.30472 0
M  V30 651 H 56.6889 0.923373 -1.14509 0
M  V30 652 H 58.6469 4.03479 -1.06116 0
M  V30 653 H 57.2769 3.21711 -0.264973 0
M  V30 654 H 56.3289 2.74103 -2.63764 0
M  V30 655 H 57.6409 3.74283 -3.29717 0
M  V30 656 H 56.7949 5.72135 -2.01857 0
M  V30 657 H 55.5339 4.71286 -1.25462 0
M  V30 658 H 54.5389 4.23268 -3.50891 0
M  V30 659 H 55.7639 5.27546 -4.27635 0
M  V30 660 H 53.7099 6.17306 -2.21967 0
M  V30 661 H 53.6269 6.46014 -3.92686 0
M  V30 662 H 54.8949 7.19722 -2.99367 0
M  V30 663 N 59.124 1.23083 0.984299 0
M  V30 664 C 60.071 1.00854 2.07598 0
M  V30 665 C 61.041 -0.0726709 1.65941 0
M  V30 666 O 62.226 0.0786535 1.90638 0
M  V30 667 C 59.366 0.601645 3.39815 0
M  V30 668 C 58.479 1.75456 3.94765 0
M  V30 669 C 57.614 1.29482 5.15177 0
M  V30 670 C 56.653 2.41873 5.62284 0
M  V30 671 N 55.79 1.96885 6.73929 0
M  V30 672 H 60.63 1.943 2.25946 0
M  V30 673 H 58.167 0.968001 1.10762 0
M  V30 674 H 60.125 0.346854 4.15756 0
M  V30 675 H 58.755 -0.295803 3.21442 0
M  V30 676 H 57.807 2.12346 3.15616 0
M  V30 677 H 59.119 2.59965 4.25699 0
M  V30 678 H 58.273 0.997923 5.98437 0
M  V30 679 H 57.012 0.420046 4.85888 0
M  V30 680 H 56.017 2.72342 4.77608 0
M  V30 681 H 57.242 3.29881 5.93595 0
M  V30 682 H 55.188 1.11782 6.46406 0
M  V30 683 H 55.105 2.74956 7.04227 0
M  V30 684 H 56.373 1.70289 7.60672 0
M  V30 685 N 60.6021 -1.18246 1.0419 0
M  V30 686 C 62.0131 -1.69914 0.773698 0
M  V30 687 C 62.3641 -1.83085 -0.705297 0
M  V30 688 O 61.4891 -1.51123 -1.5489 0
M  V30 689 C 62.0841 -3.08619 1.39784 0
M  V30 690 C 60.6431 -3.57494 1.17792 0
M  V30 691 C 59.7901 -2.34013 1.48773 0
M  V30 692 H 62.7411 -1.02904 1.20816 0
M  V30 693 H 62.7621 -3.71958 0.801714 0
M  V30 694 H 62.2741 -2.99001 2.47426 0
M  V30 695 H 60.3751 -3.72406 0.120295 0
M  V30 696 H 60.4881 -4.40852 1.87581 0
M  V30 697 H 58.8521 -2.37986 0.907463 0
M  V30 698 H 59.6351 -2.27013 2.57527 0
M  V30 699 N 62.0802 -0.821533 -1.34494 0
M  V30 700 C 63.3052 -0.420873 -2.03085 0
M  V30 701 C 63.7302 0.964915 -1.61465 0
M  V30 702 O 63.0882 1.62763 -0.798607 0
M  V30 703 C 63.1362 -0.529414 -3.56693 0
M  V30 704 O 62.2402 0.451302 -4.09923 0
M  V30 705 H 61.5812 -0.173489 -0.640935 0
M  V30 706 H 64.1112 -1.11157 -1.71771 0
M  V30 707 H 64.1212 -0.404671 -4.05988 0
M  V30 708 H 62.7962 -1.54014 -3.86332 0
M  V30 709 H 61.3732 0.285558 -3.71805 0
M  V30 710 N 63.5583 1.46682 -0.576371 0
M  V30 711 C 64.8063 2.02013 -0.0594163 0
M  V30 712 C 65.1273 1.45101 1.30271 0
M  V30 713 O 64.3973 0.633317 1.8538 0
M  V30 714 H 62.9773 0.746759 -0.0189745 0
M  V30 715 H 65.6393 1.79862 -0.750717 0
M  V30 716 H 64.7353 3.12097 0.014345 0
M  V30 717 N 65.0364 0.313813 1.54444 0
M  V30 718 C 66.3134 -0.345447 1.92525 0
M  V30 719 C 66.6934 -1.70667 1.24242 0
M  V30 720 O 66.0414 -2.25273 0.382654 0
M  V30 721 C 66.2514 -0.44737 3.46121 0
M  V30 722 C 67.5994 -0.712238 4.18584 0
M  V30 723 O 68.6234 -0.530678 3.52225 0
M  V30 724 O 67.4824 -1.06183 5.36085 0
M  V30 725 H 64.5764 -0.195407 0.803583 0
M  V30 726 H 67.1224 0.362813 1.65776 0
M  V30 727 H 65.8944 0.509043 3.87975 0
M  V30 728 H 65.5174 -1.20359 3.78945 0
M  V30 729 N 66.5145 -1.57545 0.0417849 0
M  V30 730 C 67.7915 -1.83642 -0.673433 0
M  V30 731 C 68.1715 -0.928298 -1.89594 0
M  V30 732 O 67.5195 0.0129955 -2.28496 0
M  V30 733 C 67.7295 -3.33155 -1.03964 0
M  V30 734 C 69.0775 -3.99941 -1.42592 0
M  V30 735 O 70.1015 -3.37725 -1.13226 0
M  V30 736 O 68.9605 -5.09619 -1.9736 0
M  V30 737 H 66.0545 -0.757638 -0.331533 0
M  V30 738 H 68.6005 -1.69554 0.070433 0
M  V30 739 H 67.3725 -3.9093 -0.170098 0
M  V30 740 H 66.9955 -3.52396 -1.84126 0
M  V30 741 N 67.9926 0.231505 -1.5589 0
M  V30 742 C 69.4086 0.580748 -1.48659 0
M  V30 743 C 69.6086 1.87617 -0.73498 0
M  V30 744 O 68.6646 2.51046 -0.270586 0
M  V30 745 C 69.9776 0.669202 -2.93159 0
M  V30 746 C 71.5256 0.760499 -3.03621 0
M  V30 747 C 72.0006 0.880383 -4.49459 0
M  V30 748 N 73.4916 0.944861 -4.53461 0
M  V30 749 C 74.2266 1.05716 -5.63571 0
M  V30 750 N 73.7226 1.13403 -6.83456 0
M  V30 751 N 75.5156 1.09152 -5.514 0
M  V30 752 H 67.6666 -0.618695 -2.03189 0
M  V30 753 H 69.9296 -0.215728 -0.923128 0
M  V30 754 H 69.6356 -0.212904 -3.51055 0
M  V30 755 H 69.5096 1.5361 -3.44505 0
M  V30 756 H 71.8966 1.63305 -2.45796 0
M  V30 757 H 71.9776 -0.131864 -2.5546 0
M  V30 758 H 71.6216 0.0123284 -5.07899 0
M  V30 759 H 71.5516 1.78802 -4.95316 0
M  V30 760 H 74.0426 0.896176 -3.6712 0
M  V30 761 H 74.3556 1.21921 -7.63122 0
M  V30 762 H 72.7006 1.10333 -6.86186 0
M  V30 763 H 75.8916 1.02805 -4.56671 0
M  V30 764 H 76.0646 1.17558 -6.37247 0
M  V30 765 N 69.4707 1.49531 0.497807 0
M  V30 766 C 70.7007 1.62657 1.27382 0
M  V30 767 C 71.1087 0.298488 1.86831 0
M  V30 768 O 70.4517 -0.72647 1.68725 0
M  V30 769 C 70.5137 2.6393 2.44093 0
M  V30 770 C 70.1777 4.08195 2.05489 0
M  V30 771 C 71.1747 4.949 1.59279 0
M  V30 772 C 68.8597 4.53948 2.15026 0
M  V30 773 C 70.8537 6.25397 1.23113 0
M  V30 774 C 68.5407 5.84458 1.78473 0
M  V30 775 C 69.5387 6.70006 1.32591 0
M  V30 776 O 69.2267 7.98083 0.965327 0
M  V30 777 H 68.9587 0.550429 0.392434 0
M  V30 778 H 71.5127 1.96325 0.603801 0
M  V30 779 H 69.7427 2.25449 3.14181 0
M  V30 780 H 71.4317 2.66552 3.06113 0
M  V30 781 H 72.1977 4.60779 1.51354 0
M  V30 782 H 68.0767 3.87525 2.4969 0
M  V30 783 H 71.6207 6.92125 0.872299 0
M  V30 784 H 67.5177 6.18107 1.86048 0
M  V30 785 H 68.2857 8.11122 1.09652 0
M  V30 786 N 70.9488 -0.749086 1.3866 0
M  V30 787 C 71.8968 -1.88428 1.36373 0
M  V30 788 C 72.8908 -1.67561 0.248929 0
M  V30 789 O 74.0968 -1.75074 0.41821 0
M  V30 790 H 70.4718 -0.620023 0.42553 0
M  V30 791 H 72.4428 -1.87473 2.32156 0
M  V30 792 C 71.1918 -3.25961 1.21014 0
M  V30 793 H 70.5148 -3.42607 2.06059 0
M  V30 794 H 71.9548 -4.05625 1.23469 0
M  V30 795 C 70.4138 -3.36799 -0.0825941 0
M  V30 796 O 70.9438 -3.87517 -1.05797 0
M  V30 797 N 69.1498 -2.90258 -0.140939 0
M  V30 798 H 68.6968 -2.49174 0.653477 0
M  V30 799 H 68.6548 -2.97889 -1.00545 0
M  V30 800 N 72.4269 -1.23603 -0.977757 0
M  V30 801 C 73.3589 -0.977369 -2.07317 0
M  V30 802 C 74.3719 0.0495845 -1.62724 0
M  V30 803 O 75.5609 -0.186261 -1.77526 0
M  V30 804 C 72.6609 -0.451216 -3.35883 0
M  V30 805 C 71.8339 -1.53896 -4.09432 0
M  V30 806 C 70.8929 -1.01721 -5.16274 0
M  V30 807 O 69.9189 -1.70676 -5.43009 0
M  V30 808 N 71.1209 0.153594 -5.80297 0
M  V30 809 H 73.8859 -1.92047 -2.30082 0
M  V30 810 H 71.4469 -1.14497 -1.14465 0
M  V30 811 H 73.4389 -0.0871574 -4.04606 0
M  V30 812 H 72.0089 0.397368 -3.10064 0
M  V30 813 H 71.2289 -2.07566 -3.35127 0
M  V30 814 H 72.5169 -2.27037 -4.55337 0
M  V30 815 H 71.9149 0.730323 -5.60966 0
M  V30 816 H 70.4719 0.458892 -6.50183 0
M  V30 817 N 73.905 1.17692 -1.04816 0
M  V30 818 C 75.152 1.87859 -0.75599 0
M  V30 819 C 75.48 1.80812 0.716752 0
M  V30 820 O 74.735 1.20819 1.53952 0
M  V30 821 C 75.034 3.37462 -1.17703 0
M  V30 822 C 74.7 3.64713 -2.65133 0
M  V30 823 C 73.362 3.71859 -3.05408 0
M  V30 824 C 75.714 3.76492 -3.60421 0
M  V30 825 C 73.042 3.88271 -4.39843 0
M  V30 826 C 75.394 3.94421 -4.94585 0
M  V30 827 C 74.058 3.99806 -5.3452 0
M  V30 828 H 73.328 0.687425 -0.276636 0
M  V30 829 H 75.975 1.39255 -1.31455 0
M  V30 830 H 74.28 3.88097 -0.537395 0
M  V30 831 H 75.977 3.90109 -0.928218 0
M  V30 832 H 72.567 3.59772 -2.32942 0
M  V30 833 H 76.751 3.70295 -3.30447 0
M  V30 834 H 72.007 3.90687 -4.70291 0
M  V30 835 H 76.181 4.02477 -5.68318 0
M  V30 836 H 73.808 4.12276 -6.38696 0
M  V30 837 N 75.3831 0.828654 1.34056 0
M  V30 838 C 76.3331 0.226828 2.26869 0
M  V30 839 C 77.3171 -0.612243 1.48796 0
M  V30 840 O 78.5091 -0.465884 1.70759 0
M  V30 841 C 75.6381 -0.605654 3.37915 0
M  V30 842 C 74.7241 0.244361 4.23395 0
M  V30 843 N 75.1151 1.31815 4.88322 0
M  V30 844 C 73.4131 0.0296616 4.4599 0
M  V30 845 C 74.1141 1.83895 5.51867 0
M  V30 846 N 73.0901 1.14196 5.3147 0
M  V30 847 H 76.8921 1.04811 2.74576 0
M  V30 848 H 74.4061 0.67205 1.47842 0
M  V30 849 H 76.4031 -1.05302 4.03382 0
M  V30 850 H 75.0631 -1.42504 2.91758 0
M  V30 851 H 76.0741 1.70099 4.8917 0
M  V30 852 H 72.7511 -0.757097 4.10578 0
M  V30 853 H 74.1411 2.7376 6.136 0
M  V30 854 N 76.8612 -1.46375 0.584142 0
M  V30 855 C 78.1102 -2.01585 0.0679741 0
M  V30 856 C 78.4232 -1.46109 -1.30045 0
M  V30 857 O 79.6292 -1.93148 -1.90804 0
M  V30 858 C 78.0852 -3.5983 0.0709207 0
M  V30 859 C 77.6932 -4.24303 1.43775 0
M  V30 860 C 79.4372 -4.22693 -0.391228 0
M  V30 861 C 77.3442 -5.74631 1.39834 0
M  V30 862 H 76.2742 -0.753689 0.0216421 0
M  V30 863 H 78.9252 -1.68093 0.736001 0
M  V30 864 H 77.3072 -3.90405 -0.663299 0
M  V30 865 H 78.4812 -4.05335 2.19181 0
M  V30 866 H 76.7962 -3.73539 1.84004 0
M  V30 867 H 79.3932 -5.3289 -0.439524 0
M  V30 868 H 79.7362 -3.91728 -1.40906 0
M  V30 869 H 80.2692 -3.96749 0.288974 0
M  V30 870 H 77.0082 -6.10258 2.39303 0
M  V30 871 H 76.5282 -5.95858 0.686505 0
M  V30 872 H 78.2072 -6.37375 1.11187 0
M  V30 873 N 78.3393 -0.321999 -1.54275 0
M  V30 874 C 79.7553 0.0306999 -1.5957 0
M  V30 875 C 79.9553 1.50614 -1.33857 0
M  V30 876 O 79.0113 2.2619 -1.12223 0
M  V30 877 C 80.3243 -0.386122 -2.98211 0
M  V30 878 C 81.8723 -0.336647 -3.11184 0
M  V30 879 C 82.3473 -0.728607 -4.52167 0
M  V30 880 N 83.8383 -0.681952 -4.58152 0
M  V30 881 C 84.5733 -0.957449 -5.6535 0
M  V30 882 N 84.0693 -1.3 -6.80494 0
M  V30 883 N 85.8623 -0.883113 -5.55119 0
M  V30 884 H 78.0133 -1.28332 -1.69247 0
M  V30 885 H 80.2763 -0.521716 -0.791528 0
M  V30 886 H 79.9823 -1.41404 -3.22022 0
M  V30 887 H 79.8563 0.249662 -3.76373 0
M  V30 888 H 82.2433 0.682058 -2.8711 0
M  V30 889 H 82.3243 -1.00734 -2.3513 0
M  V30 890 H 81.9683 -1.74522 -4.76974 0
M  V30 891 H 81.8983 -0.0356152 -5.26588 0
M  V30 892 H 84.3893 -0.428985 -3.75457 0
M  V30 893 H 84.7023 -1.49563 -7.58189 0
M  V30 894 H 83.0473 -1.33824 -6.81994 0
M  V30 895 H 86.2383 -0.615001 -4.64042 0
M  V30 896 H 86.4113 -1.10118 -6.38575 0
M  V30 897 N 79.8174 1.5752 -0.0501392 0
M  V30 898 C 81.2334 1.56631 0.306402 0
M  V30 899 C 81.4334 1.0577 1.71508 0
M  V30 900 O 80.4894 0.713837 2.422 0
M  V30 901 C 81.8024 3.00393 0.135811 0
M  V30 902 C 83.3504 3.12315 0.206993 0
M  V30 903 C 83.8254 4.57954 0.064944 0
M  V30 904 N 85.3164 4.63041 0.121254 0
M  V30 905 C 86.0514 5.73389 0.0354381 0
M  V30 906 N 85.5474 6.92724 -0.102666 0
M  V30 907 N 87.3404 5.62026 0.090946 0
M  V30 908 H 79.4914 1.88903 -0.971046 0
M  V30 909 H 81.7544 0.869876 -0.376855 0
M  V30 910 H 81.4604 3.41635 -0.835384 0
M  V30 911 H 81.3344 3.66373 0.897275 0
M  V30 912 H 83.7214 2.70973 1.16866 0
M  V30 913 H 83.8024 2.49016 -0.585208 0
M  V30 914 H 83.4464 4.99981 -0.893394 0
M  V30 915 H 83.3764 5.19258 0.876277 0
M  V30 916 H 85.8674 3.77216 0.227284 0
M  V30 917 H 86.1804 7.72633 -0.160882 0
M  V30 918 H 84.5254 6.94864 -0.137737 0
M  V30 919 H 87.7164 4.67684 0.197388 0
M  V30 920 H 87.8894 6.47997 0.0206089 0
M  V30 921 N 81.2955 -0.223234 1.56011 0
M  V30 922 C 82.5425 -0.947875 1.78946 0
M  V30 923 C 82.8705 -1.844 0.618608 0
M  V30 924 O 82.1255 -1.91629 -0.397093 0
M  V30 925 C 82.4245 -1.81948 3.0762 0
M  V30 926 C 82.0905 -1.07672 4.37856 0
M  V30 927 C 80.7525 -0.871544 4.73242 0
M  V30 928 C 83.1045 -0.552081 5.18268 0
M  V30 929 C 80.4325 -0.129791 5.86556 0
M  V30 930 C 82.7845 0.17632 6.32354 0
M  V30 931 C 81.4485 0.39277 6.66343 0
M  V30 932 H 80.7185 -0.346852 0.654809 0
M  V30 933 H 83.3655 -0.216171 1.90276 0
M  V30 934 H 81.6705 -2.61899 2.91404 0
M  V30 935 H 83.3675 -2.38227 3.22566 0
M  V30 936 H 79.9575 -1.24662 4.1007 0
M  V30 937 H 84.1415 -0.698076 4.91366 0
M  V30 938 H 79.3975 0.048153 6.11381 0
M  V30 939 H 83.5715 0.590367 6.93893 0
M  V30 940 H 81.1985 0.969466 7.53993 0
M  V30 941 N 82.7736 -1.49793 -0.48987 0
M  V30 942 C 83.6836 -1.70036 -1.61632 0
M  V30 943 C 84.6996 -0.583102 -1.63939 0
M  V30 944 O 85.8756 -0.859169 -1.82154 0
M  V30 945 C 82.9406 -1.77277 -2.97949 0
M  V30 946 C 82.0016 -3.00918 -3.06181 0
M  V30 947 C 81.2346 -3.07804 -4.35996 0
M  V30 948 O 81.4576 -2.21982 -5.25433 0
M  V30 949 O 80.3916 -4.00369 -4.49431 0
M  V30 950 H 84.2176 -2.65486 -1.47482 0
M  V30 951 H 81.8026 -1.33666 -0.667362 0
M  V30 952 H 83.6846 -1.84329 -3.78947 0
M  V30 953 H 82.3596 -0.850076 -3.12339 0
M  V30 954 H 81.2666 -2.99377 -2.2433 0
M  V30 955 H 82.5996 -3.92704 -2.96723 0
M  V30 956 N 84.2517 0.741722 -1.39055 0
M  V30 957 C 85.2147 1.83733 -1.37021 0
M  V30 958 C 86.2147 1.58542 -0.268534 0
M  V30 959 O 87.4047 1.66067 -0.526076 0
M  V30 960 C 84.5367 3.2141 -1.13617 0
M  V30 961 H 85.7297 1.86941 -2.34506 0
M  V30 962 H 83.2827 0.944676 -1.24521 0
M  V30 963 H 84.0177 3.23865 -0.167863 0
M  V30 964 H 83.8027 3.4109 -1.93391 0
M  V30 965 H 85.2927 4.01477 -1.14918 0
M  V30 966 N 85.7298 1.2412 0.971189 0
M  V30 967 C 86.6598 1.05508 2.08304 0
M  V30 968 C 87.6408 -0.0308864 1.70072 0
M  V30 969 O 88.8258 0.135521 1.93727 0
M  V30 970 C 85.9558 0.655365 3.4106 0
M  V30 971 C 84.9098 1.68971 3.93234 0
M  V30 972 C 84.2358 1.14516 5.22293 0
M  V30 973 C 85.5358 3.08487 4.21465 0
M  V30 974 H 87.2298 1.98507 2.24132 0
M  V30 975 H 84.7758 0.955821 1.07704 0
M  V30 976 H 86.7288 0.51217 4.18276 0
M  V30 977 H 85.4528 -0.31032 3.25122 0
M  V30 978 H 84.1118 1.82106 3.18171 0
M  V30 979 H 83.7598 0.170189 5.02712 0
M  V30 980 H 83.4598 1.83635 5.58168 0
M  V30 981 H 84.9838 1.01401 6.02121 0
M  V30 982 H 86.3978 2.98601 4.89398 0
M  V30 983 H 84.7948 3.74926 4.68562 0
M  V30 984 H 85.8648 3.56787 3.28376 0
M  V30 985 N 87.2079 -1.17134 1.05439 0
M  V30 986 C 88.1379 -2.2342 0.678649 0
M  V30 987 C 89.1189 -1.66971 -0.32476 0
M  V30 988 O 90.3039 -1.93149 -0.201802 0
M  V30 989 C 87.4339 -3.47256 0.0552099 0
M  V30 990 C 86.3879 -4.16543 0.98365 0
M  V30 991 C 85.7139 -5.34231 0.223961 0
M  V30 992 C 87.0139 -4.68495 2.3089 0
M  V30 993 H 88.7079 -2.55105 1.56722 0
M  V30 994 H 86.2539 -1.2262 0.754998 0
M  V30 995 H 88.2069 -4.20828 -0.21946 0
M  V30 996 H 86.9309 -3.14846 -0.868319 0
M  V30 997 H 85.5899 -3.44887 1.24293 0
M  V30 998 H 85.2379 -4.98071 -0.702412 0
M  V30 999 H 84.9379 -5.81527 0.842627 0
M  V30 1000 H 86.4619 -6.10585 -0.0433671 0
M  V30 1001 H 87.8759 -5.33691 2.09396 0
M  V30 1002 H 86.2729 -5.26379 2.88176 0
M  V30 1003 H 87.3429 -3.85169 2.94572 0
M  V30 1004 N 88.686 -0.835752 -1.33615 0
M  V30 1005 C 89.618 -0.224151 -2.28101 0
M  V30 1006 C 90.631 0.593331 -1.51603 0
M  V30 1007 O 91.82 0.420911 -1.73466 0
M  V30 1008 C 88.92 0.703309 -3.31522 0
M  V30 1009 C 88.093 -0.0741528 -4.37337 0
M  V30 1010 C 87.152 0.776176 -5.20444 0
M  V30 1011 O 86.178 0.216506 -5.68788 0
M  V30 1012 N 87.38 2.09401 -5.41416 0
M  V30 1013 H 90.145 -1.03598 -2.81225 0
M  V30 1014 H 87.706 -0.69392 -1.46275 0
M  V30 1015 H 89.698 1.27707 -3.84022 0
M  V30 1016 H 88.268 1.41585 -2.78698 0
M  V30 1017 H 87.488 -0.82928 -3.85378 0
M  V30 1018 H 88.776 -0.608863 -5.05144 0
M  V30 1019 H 88.174 2.57229 -5.03835 0
M  V30 1020 H 86.731 2.61633 -5.96985 0
M  V30 1021 N 90.1641 1.46063 -0.591896 0
M  V30 1022 C 91.3921 2.06717 -0.0868936 0
M  V30 1023 C 91.8071 1.43916 1.22203 0
M  V30 1024 O 91.1641 0.547698 1.74088 0
M  V30 1025 C 91.2151 3.6142 0.0758725 0
M  V30 1026 O 90.9361 4.21874 -1.18126 0
M  V30 1027 C 92.4371 4.39025 0.61416 0
M  V30 1028 H 89.6571 0.668162 -0.0616518 0
M  V30 1029 H 92.2011 1.8755 -0.815175 0
M  V30 1030 H 90.3561 3.79983 0.754413 0
M  V30 1031 H 90.7701 5.14861 -1.00092 0
M  V30 1032 H 92.2441 5.4783 0.677193 0
M  V30 1033 H 92.7211 4.07708 1.63312 0
M  V30 1034 H 93.3271 4.2529 -0.0298142 0
M  V30 1035 N 91.6422 0.330177 1.54103 0
M  V30 1036 C 92.8902 -0.269871 2.0029 0
M  V30 1037 C 93.2112 -1.52133 1.21986 0
M  V30 1038 O 92.4812 -1.93212 0.323438 0
M  V30 1039 H 91.0612 -0.10271 0.739905 0
M  V30 1040 H 93.7232 0.448249 1.89675 0
M  V30 1041 H 92.8192 -0.52166 3.07709 0
M  V30 1042 N 93.1203 -1.57491 0.0584922 0
M  V30 1043 C 94.0673 -2.11958 -0.913376 0
M  V30 1044 C 95.0373 -1.02875 -1.30407 0
M  V30 1045 O 96.2223 -1.30464 -1.39226 0
M  V30 1046 C 93.3623 -2.67497 -2.18035 0
M  V30 1047 C 92.4753 -3.90691 -1.84349 0
M  V30 1048 C 91.6103 -4.3452 -3.05559 0
M  V30 1049 C 90.6493 -5.50395 -2.67827 0
M  V30 1050 N 89.7863 -5.89244 -3.81754 0
M  V30 1051 H 94.6263 -2.94704 -0.442017 0
M  V30 1052 H 92.1633 -1.45643 -0.206545 0
M  V30 1053 H 94.1213 -2.978 -2.92183 0
M  V30 1054 H 92.7513 -1.87537 -2.62735 0
M  V30 1055 H 91.8033 -3.66934 -1.00319 0
M  V30 1056 H 93.1153 -4.7489 -1.5258 0
M  V30 1057 H 92.2693 -4.66414 -3.87998 0
M  V30 1058 H 91.0083 -3.49147 -3.40511 0
M  V30 1059 H 90.0133 -5.18165 -1.83806 0
M  V30 1060 H 91.2383 -6.3749 -2.34059 0
M  V30 1061 H 89.1843 -5.06823 -4.16493 0
M  V30 1062 H 89.1013 -6.68151 -3.53708 0
M  V30 1063 H 90.3693 -6.25756 -4.64811 0
M  V30 1064 N 94.5984 0.214957 -1.56127 0
M  V30 1065 C 95.8234 0.95924 -1.83884 0
M  V30 1066 C 96.2484 1.7689 -0.639644 0
M  V30 1067 O 95.6064 1.76566 0.411601 0
M  V30 1068 C 95.6544 1.84723 -3.09693 0
M  V30 1069 O 94.7584 2.94346 -2.8885 0
M  V30 1070 H 94.0994 0.27125 -0.606069 0
M  V30 1071 H 96.6294 0.226276 -2.03345 0
M  V30 1072 H 96.6394 2.25576 -3.39969 0
M  V30 1073 H 95.3144 1.25218 -3.96602 0
M  V30 1074 H 93.8914 2.57391 -2.69823 0
M  V30 1075 N 96.0765 1.50051 0.48192 0
M  V30 1076 C 97.4875 1.5348 1.06305 0
M  V30 1077 C 97.8385 0.331997 1.93371 0
M  V30 1078 O 96.9635 -0.556256 2.09129 0
M  V30 1079 C 97.5585 2.7813 1.93466 0
M  V30 1080 C 96.1175 2.84275 2.46707 0
M  V30 1081 C 95.2645 2.47637 1.24785 0
M  V30 1082 H 98.2155 1.56472 0.264995 0
M  V30 1083 H 98.2365 2.59372 2.78399 0
M  V30 1084 H 97.7485 3.65654 1.30072 0
M  V30 1085 H 95.8495 2.01077 3.13686 0
M  V30 1086 H 95.9625 3.8691 2.82555 0
M  V30 1087 H 94.3265 1.99835 1.57918 0
M  V30 1088 H 95.1095 3.37457 0.630694 0
M  V30 1089 N 97.5546 -0.734337 1.39446 0
M  V30 1090 C 98.7826 -1.52358 1.39981 0
M  V30 1091 C 99.1976 -1.88799 -0.0054975 0
M  V30 1092 O 98.5546 -1.54146 -0.976998 0
M  V30 1093 C 98.6056 -2.81072 2.27333 0
M  V30 1094 O 98.3266 -2.46178 3.62392 0
M  V30 1095 C 99.8276 -3.75096 2.36259 0
M  V30 1096 H 97.0476 -0.470806 0.478103 0
M  V30 1097 H 99.5916 -0.907339 1.83269 0
M  V30 1098 H 97.7466 -3.39026 1.87457 0
M  V30 1099 H 98.1606 -3.28866 4.08592 0
M  V30 1100 H 99.6346 -4.62305 3.01626 0
M  V30 1101 H 100.112 -4.16892 1.38194 0
M  V30 1102 H 100.718 -3.23061 2.76608 0
M  V30 1103 N 99.0327 -1.24633 -0.964593 0
M  V30 1104 C 100.258 -1.11596 -1.74818 0
M  V30 1105 C 100.683 0.32723 -1.85232 0
M  V30 1106 O 100.041 1.23695 -1.32549 0
M  V30 1107 C 100.089 -1.76397 -3.1451 0
M  V30 1108 O 99.1927 -1.03685 -3.99153 0
M  V30 1109 H 98.5337 -0.390196 -0.537255 0
M  V30 1110 H 101.064 -1.65002 -1.20977 0
M  V30 1111 H 101.074 -1.8228 -3.65018 0
M  V30 1112 H 99.7487 -2.81401 -3.06246 0
M  V30 1113 H 98.3257 -1.05611 -3.57632 0
M  V30 1114 N 100.511 1.16574 -1.06058 0
M  V30 1115 C 101.421 2.2452 -0.680282 0
M  V30 1116 C 102.437 1.71348 0.302604 0
M  V30 1117 O 103.613 2.00822 0.152513 0
M  V30 1118 C 100.678 3.46629 -0.0700315 0
M  V30 1119 C 99.7388 4.14849 -1.10448 0
M  V30 1120 C 98.9718 5.31129 -0.523256 0
M  V30 1121 O 99.1948 5.66514 0.664709 0
M  V30 1122 O 98.1288 5.88526 -1.26179 0
M  V30 1123 H 101.955 2.59355 -1.58015 0
M  V30 1124 H 99.5398 1.24043 -0.832694 0
M  V30 1125 H 101.422 4.20543 0.268667 0
M  V30 1126 H 100.097 3.13573 0.803353 0
M  V30 1127 H 99.0038 3.42916 -1.49532 0
M  V30 1128 H 100.337 4.51954 -1.94931 0
M  V30 1129 N 101.989 0.842826 1.3317 0
M  V30 1130 C 102.919 0.294028 2.31641 0
M  V30 1131 C 103.9 -0.600401 1.59151 0
M  V30 1132 O 105.085 -0.523124 1.87022 0
M  V30 1133 C 102.215 -0.528416 3.43257 0
M  V30 1134 C 101.169 0.27056 4.27144 0
M  V30 1135 C 100.495 -0.675881 5.30411 0
M  V30 1136 C 101.795 1.48981 5.00602 0
M  V30 1137 H 103.489 1.11681 2.77791 0
M  V30 1138 H 101.035 0.538478 1.33553 0
M  V30 1139 H 102.988 -0.922674 4.11175 0
M  V30 1140 H 101.712 -1.38445 2.95805 0
M  V30 1141 H 100.371 0.646427 3.60856 0
M  V30 1142 H 100.019 -1.52842 4.79216 0
M  V30 1143 H 99.7189 -0.145374 5.8742 0
M  V30 1144 H 101.243 -1.06757 6.01195 0
M  V30 1145 H 102.657 1.16849 5.61266 0
M  V30 1146 H 101.054 1.95739 5.6728 0
M  V30 1147 H 102.124 2.25746 4.29147 0
M  V30 1148 N 103.467 -1.45747 0.599634 0
M  V30 1149 C 104.397 -2.33235 -0.111306 0
M  V30 1150 C 105.378 -1.46359 -0.866781 0
M  V30 1151 O 106.563 -1.75146 -0.838904 0
M  V30 1152 C 103.693 -3.28932 -1.11451 0
M  V30 1153 C 102.647 -4.25381 -0.472772 0
M  V30 1154 C 101.973 -5.1071 -1.58365 0
M  V30 1155 C 103.273 -5.18831 0.600948 0
M  V30 1156 H 104.967 -2.92927 0.61919 0
M  V30 1157 H 102.513 -1.40857 0.299215 0
M  V30 1158 H 104.466 -3.89002 -1.62036 0
M  V30 1159 H 103.19 -2.67381 -1.8755 0
M  V30 1160 H 101.849 -3.66598 0.0121472 0
M  V30 1161 H 101.497 -4.45533 -2.33473 0
M  V30 1162 H 101.197 -5.7604 -1.15982 0
M  V30 1163 H 102.721 -5.73647 -2.09194 0
M  V30 1164 H 104.135 -5.73019 0.179491 0
M  V30 1165 H 102.532 -5.92595 0.946076 0
M  V30 1166 H 103.602 -4.6174 1.48068 0
M  V30 1167 N 104.945 -0.338344 -1.53925 0
M  V30 1168 C 106.192 0.259758 -2.00827 0
M  V30 1169 C 106.52 1.50973 -1.22628 0
M  V30 1170 O 105.775 1.93379 -0.300509 0
M  V30 1171 C 106.074 0.62448 -3.51902 0
M  V30 1172 C 105.74 -0.528006 -4.47798 0
M  V30 1173 C 104.402 -0.844298 -4.73735 0
M  V30 1174 C 106.754 -1.30143 -5.0469 0
M  V30 1175 C 104.082 -1.93648 -5.53821 0
M  V30 1176 C 106.434 -2.38382 -5.85967 0
M  V30 1177 C 105.098 -2.70576 -6.10201 0
M  V30 1178 H 104.368 0.0950523 -0.734878 0
M  V30 1179 H 107.015 -0.465182 -1.85764 0
M  V30 1180 H 105.32 1.43006 -3.64769 0
M  V30 1181 H 107.017 1.09905 -3.85645 0
M  V30 1182 H 103.607 -0.271421 -4.2774 0
M  V30 1183 H 107.791 -1.07033 -4.84621 0
M  V30 1184 H 103.047 -2.19021 -5.70824 0
M  V30 1185 H 107.221 -2.98746 -6.29066 0
M  V30 1186 H 104.848 -3.55333 -6.72044 0
M  V30 1187 N 106.423 1.57458 -0.0668435 0
M  V30 1188 C 107.7 1.8469 0.644132 0
M  V30 1189 C 108.08 0.958343 1.88093 0
M  V30 1190 O 107.428 0.0233579 2.28488 0
M  V30 1191 C 107.638 3.34767 0.986509 0
M  V30 1192 C 108.986 4.02159 1.36212 0
M  V30 1193 O 110.01 3.39484 1.07839 0
M  V30 1194 O 108.869 5.12694 1.89227 0
M  V30 1195 H 105.963 0.762816 0.319437 0
M  V30 1196 H 108.509 1.6942 -0.0973986 0
M  V30 1197 H 107.281 3.91151 0.107883 0
M  V30 1198 H 106.904 3.55281 1.78497 0
M  V30 1199 N 107.901 -0.206675 1.56239 0
M  V30 1200 C 109.147 -0.925733 1.81113 0
M  V30 1201 C 109.502 -1.81368 0.642135 0
M  V30 1202 O 108.795 -1.88126 -0.363211 0
M  V30 1203 C 108.989 -1.78675 3.09532 0
M  V30 1204 C 108.818 -0.98365 4.3881 0
M  V30 1205 C 107.588 -0.672661 5.00803 0
M  V30 1206 C 109.786 -0.341847 5.13163 0
M  V30 1207 N 107.768 0.150283 6.13716 0
M  V30 1208 C 109.139 0.343815 6.19046 0
M  V30 1209 C 111.194 -0.256392 4.97239 0
M  V30 1210 C 109.897 1.10678 7.10734 0
M  V30 1211 C 111.923 0.493142 5.8934 0
M  V30 1212 C 111.285 1.16729 6.94661 0
M  V30 1213 H 107.384 -0.318524 0.714189 0
M  V30 1214 H 109.968 -0.195378 1.93717 0
M  V30 1215 H 108.139 -2.4888 2.98183 0
M  V30 1216 H 109.871 -2.44441 3.22538 0
M  V30 1217 H 106.626 -0.994294 4.63045 0
M  V30 1218 H 107.05 0.551026 6.74754 0
M  V30 1219 H 111.692 -0.763249 4.15854 0
M  V30 1220 H 109.41 1.6251 7.91591 0
M  V30 1221 H 112.996 0.560465 5.79094 0
M  V30 1222 H 111.876 1.738 7.64698 0
M  V30 1223 N 109.379 -1.50304 -0.473955 0
M  V30 1224 C 110.627 -1.60832 -1.22382 0
M  V30 1225 C 110.948 -0.30939 -1.9253 0
M  V30 1226 O 110.218 0.67296 -1.83978 0
M  V30 1227 H 108.798 -0.592652 -0.454723 0
M  V30 1228 H 111.46 -1.87068 -0.546968 0
M  V30 1229 H 110.556 -2.41803 -1.97327 0
M  V30 1230 N 110.857 0.726932 -1.39834 0
M  V30 1231 C 112.085 1.51613 -1.40787 0
M  V30 1232 C 112.5 1.88799 -0.00451505 0
M  V30 1233 O 111.857 1.54662 0.968809 0
M  V30 1234 C 111.908 2.79863 -2.28821 0
M  V30 1235 O 111.629 2.44253 -3.63692 0
M  V30 1236 C 113.13 3.73837 -2.38245 0
M  V30 1237 H 110.35 0.468264 -0.480593 0
M  V30 1238 H 112.894 0.897607 -1.83748 0
M  V30 1239 H 111.049 3.38027 -1.89252 0
M  V30 1240 H 111.463 3.26695 -4.1033 0
M  V30 1241 H 112.937 4.60699 -3.04073 0
M  V30 1242 H 113.414 4.16153 -1.40403 0
M  V30 1243 H 114.02 3.21589 -2.78317 0
M  V30 1244 N 112.336 1.25143 0.95797 0
M  V30 1245 C 113.564 1.12424 1.73691 0
M  V30 1246 C 113.979 -0.322304 1.86029 0
M  V30 1247 O 113.336 -1.22186 1.35561 0
M  V30 1248 C 113.387 1.76933 3.15241 0
M  V30 1249 O 113.108 3.15932 3.03511 0
M  V30 1250 C 114.609 1.6995 4.09429 0
M  V30 1251 H 111.829 0.3923 0.544373 0
M  V30 1252 H 114.373 1.6544 1.20207 0
M  V30 1253 H 112.528 1.27895 3.6568 0
M  V30 1254 H 112.942 3.47598 3.9278 0
M  V30 1255 H 114.416 2.19753 5.06372 0
M  V30 1256 H 114.893 0.662619 4.34173 0
M  V30 1257 H 115.499 2.18461 3.64904 0
M  V30 1258 N 113.814 -1.1601 1.06675 0
M  V30 1259 C 114.762 -2.22586 0.675157 0
M  V30 1260 C 115.756 -1.66525 -0.310766 0
M  V30 1261 O 116.962 -1.79145 -0.175215 0
M  V30 1262 H 113.337 -0.724855 0.200223 0
M  V30 1263 H 115.308 -2.52899 1.58381 0
M  V30 1264 C 114.057 -3.47604 0.0817162 0
M  V30 1265 H 113.38 -3.91058 0.831484 0
M  V30 1266 H 114.82 -4.23718 -0.154708 0
M  V30 1267 C 113.279 -3.15718 -1.17576 0
M  V30 1268 O 113.809 -3.31878 -2.26318 0
M  V30 1269 N 112.015 -2.69816 -1.07923 0
M  V30 1270 H 111.562 -2.56866 -0.194293 0
M  V30 1271 H 111.52 -2.48855 -1.92141 0
M  V30 1272 N 115.292 -0.849877 -1.32721 0
M  V30 1273 C 116.532 -0.457146 -1.99222 0
M  V30 1274 C 116.896 0.968038 -1.6581 0
M  V30 1275 O 118.097 1.46507 -2.25364 0
M  V30 1276 C 116.368 -0.683966 -3.50794 0
M  V30 1277 S 117.927 -0.388095 -4.3708 0
M  V30 1278 H 114.745 -0.171464 -0.690015 0
M  V30 1279 H 117.347 -1.10155 -1.61512 0
M  V30 1280 H 116.051 -1.72038 -3.726 0
M  V30 1281 H 115.582 -0.0258086 -3.93392 0
M  V30 1282 H 117.597 0.787791 -4.89906 0
M  V30 1283 N 116.77 1.45427 -0.607355 0
M  V30 1284 C 117.998 2.06614 -0.108814 0
M  V30 1285 C 118.413 1.45204 1.2067 0
M  V30 1286 O 117.77 0.566132 1.73497 0
M  V30 1287 C 117.821 3.61481 0.0375347 0
M  V30 1288 O 117.542 4.20598 -1.22593 0
M  V30 1289 C 119.043 4.39652 0.567561 0
M  V30 1290 H 116.263 0.66747 -0.0687351 0
M  V30 1291 H 118.807 1.86675 -0.835022 0
M  V30 1292 H 116.962 3.80762 0.714068 0
M  V30 1293 H 117.376 5.1377 -1.05547 0
M  V30 1294 H 118.85 5.48518 0.61905 0
M  V30 1295 H 119.327 4.09417 1.58978 0
M  V30 1296 H 119.933 4.25234 -0.0749202 0
M  V30 1297 N 118.248 0.346503 1.53744 0
M  V30 1298 C 119.494 -0.249473 2.0126 0
M  V30 1299 C 119.827 -1.49965 1.23386 0
M  V30 1300 O 119.102 -1.91811 0.32229 0
M  V30 1301 C 119.385 -0.560643 3.55709 0
M  V30 1302 C 119.238 0.701836 4.44291 0
M  V30 1303 C 120.557 -1.36905 4.18264 0
M  V30 1304 H 117.676 -0.0891987 0.731582 0
M  V30 1305 H 120.318 0.467624 1.84156 0
M  V30 1306 H 118.468 -1.17156 3.70414 0
M  V30 1307 H 120.14 1.33974 4.41417 0
M  V30 1308 H 118.383 1.32612 4.13033 0
M  V30 1309 H 119.054 0.43933 5.50249 0
M  V30 1310 H 121.53 -0.852448 4.07275 0
M  V30 1311 H 120.406 -1.55553 5.26398 0
M  V30 1312 H 120.667 -2.37203 3.73078 0
M  V30 1313 N 119.726 -1.57421 0.075193 0
M  V30 1314 C 120.974 -1.93236 -0.591974 0
M  V30 1315 C 121.295 -0.956241 -1.69944 0
M  V30 1316 O 120.565 -0.00494792 -1.95899 0
M  V30 1317 H 119.145 -0.713355 -0.22166 0
M  V30 1318 H 121.807 -1.9444 0.133848 0
M  V30 1319 H 120.903 -2.95131 -1.01509 0
M  V30 1320 N 121.204 0.198386 -1.56346 0
M  V30 1321 C 122.481 0.944982 -1.71258 0
M  V30 1322 C 122.861 2.0151 -0.629048 0
M  V30 1323 O 122.209 2.25639 0.360473 0
M  V30 1324 C 122.419 1.5344 -3.1346 0
M  V30 1325 C 123.767 2.01778 -3.73591 0
M  V30 1326 O 124.791 1.63288 -3.16568 0
M  V30 1327 O 123.65 2.72594 -4.73661 0
M  V30 1328 H 120.744 0.442939 -0.69838 0
M  V30 1329 H 123.29 0.188342 -1.68652 0
M  V30 1330 H 122.062 0.762869 -3.83792 0
M  V30 1331 H 121.685 2.35596 -3.20282 0
M  V30 1332 N 122.682 1.50554 0.465978 0
M  V30 1333 C 123.612 1.72722 1.57128 0
M  V30 1334 C 124.593 0.576294 1.6004 0
M  V30 1335 O 125.778 0.81598 1.76225 0
M  V30 1336 C 122.908 1.82605 2.95419 0
M  V30 1337 C 121.862 2.97835 3.07373 0
M  V30 1338 C 121.188 2.92867 4.47363 0
M  V30 1339 C 122.488 4.38265 2.84114 0
M  V30 1340 H 124.182 2.65267 1.38829 0
M  V30 1341 H 121.728 1.2765 0.666441 0
M  V30 1342 H 123.681 1.96698 3.72677 0
M  V30 1343 H 122.405 0.866858 3.14886 0
M  V30 1344 H 121.064 2.83401 2.3255 0
M  V30 1345 H 120.712 1.94783 4.63755 0
M  V30 1346 H 120.412 3.70227 4.56296 0
M  V30 1347 H 121.936 3.09015 5.26633 0
M  V30 1348 H 123.35 4.53198 3.51118 0
M  V30 1349 H 121.747 5.17115 3.04487 0
M  V30 1350 H 122.817 4.50281 1.7993 0
M  V30 1351 N 124.16 -0.719506 1.40217 0
M  V30 1352 C 125.406 -1.48152 1.38488 0
M  V30 1353 C 125.739 -1.94195 -0.0141867 0
M  V30 1354 O 125.014 -1.67884 -0.982096 0
M  V30 1355 C 125.297 -2.71035 2.37091 0
M  V30 1356 C 125.15 -2.30912 3.86005 0
M  V30 1357 C 126.469 -3.73182 2.33288 0
M  V30 1358 H 123.588 -0.537395 0.504357 0
M  V30 1359 H 126.23 -0.821472 1.71324 0
M  V30 1360 H 124.38 -3.27352 2.0922 0
M  V30 1361 H 126.052 -1.80107 4.24687 0
M  V30 1362 H 124.295 -1.62958 4.02029 0
M  V30 1363 H 124.966 -3.18978 4.50508 0
M  V30 1364 H 127.442 -3.26485 2.57966 0
M  V30 1365 H 126.318 -4.56806 3.04334 0
M  V30 1366 H 126.579 -4.21202 1.34317 0
M  V30 1367 N 125.638 -1.25649 -0.95132 0
M  V30 1368 C 126.915 -1.01361 -1.67288 0
M  V30 1369 C 127.295 0.459135 -2.06046 0
M  V30 1370 O 126.643 1.43723 -1.7764 0
M  V30 1371 C 126.853 -1.95256 -2.89268 0
M  V30 1372 C 128.201 -2.23289 -3.61147 0
M  V30 1373 O 129.225 -1.93041 -2.99355 0
M  V30 1374 O 128.084 -2.74741 -4.72419 0
M  V30 1375 H 125.178 -0.38464 -0.732107 0
M  V30 1376 H 127.724 -1.36817 -1.00395 0
M  V30 1377 H 126.496 -2.94685 -2.57442 0
M  V30 1378 H 126.119 -1.60218 -3.6389 0
M  V30 1379 N 127.117 1.15442 -1.07289 0
M  V30 1380 C 128.047 2.22312 -0.714107 0
M  V30 1381 C 129.028 1.67467 0.298155 0
M  V30 1382 O 130.213 1.93445 0.171048 0
M  V30 1383 C 127.343 3.47124 -0.110448 0
M  V30 1384 C 126.297 4.14926 -1.04979 0
M  V30 1385 C 125.623 5.33807 -0.308924 0
M  V30 1386 C 126.923 4.64762 -2.38314 0
M  V30 1387 H 128.617 2.5258 -1.6076 0
M  V30 1388 H 126.163 1.21404 -0.77441 0
M  V30 1389 H 128.116 4.21124 0.152482 0
M  V30 1390 H 126.84 3.16187 0.81812 0
M  V30 1391 H 125.499 3.42866 -1.29764 0
M  V30 1392 H 125.147 4.99126 0.623084 0
M  V30 1393 H 124.847 5.80113 -0.935036 0
M  V30 1394 H 126.371 6.10576 -0.0537771 0
M  V30 1395 H 127.785 5.30292 -2.1786 0
M  V30 1396 H 126.182 5.21728 -2.96514 0
M  V30 1397 H 127.252 3.80434 -3.00663 0
M  V30 1398 N 128.595 0.856903 1.32268 0
M  V30 1399 C 129.525 0.31858 2.31316 0
M  V30 1400 C 130.506 -0.583487 1.59779 0
M  V30 1401 O 131.691 -0.503259 1.87566 0
M  V30 1402 C 128.821 -0.491979 3.43798 0
M  V30 1403 C 127.775 0.315849 4.26833 0
M  V30 1404 C 127.101 -0.619586 5.31098 0
M  V30 1405 C 128.401 1.54282 4.98993 0
M  V30 1406 H 130.095 1.14621 2.76591 0
M  V30 1407 H 127.641 0.552613 1.32974 0
M  V30 1408 H 129.594 -0.879012 4.1213 0
M  V30 1409 H 128.318 -1.35299 2.97257 0
M  V30 1410 H 126.977 0.684664 3.6015 0
M  V30 1411 H 126.625 -1.47751 4.8081 0
M  V30 1412 H 126.325 -0.0830621 5.87541 0
M  V30 1413 H 127.849 -1.00375 6.02293 0
M  V30 1414 H 129.263 1.22796 5.59995 0
M  V30 1415 H 127.66 2.01745 5.65172 0
M  V30 1416 H 128.73 2.30285 4.26728 0
M  V30 1417 N 130.073 -1.45103 0.615059 0
M  V30 1418 C 131.322 -2.01396 0.110718 0
M  V30 1419 C 131.635 -1.48834 -1.26916 0
M  V30 1420 O 132.841 -1.97152 -1.86664 0
M  V30 1421 C 131.297 -3.59599 0.14723 0
M  V30 1422 C 130.905 -4.21158 1.52743 0
M  V30 1423 C 132.649 -4.23428 -0.30148 0
M  V30 1424 C 130.556 -5.71535 1.51992 0
M  V30 1425 H 129.486 -0.753061 0.0376241 0
M  V30 1426 H 132.137 -1.66494 0.77149 0
M  V30 1427 H 130.519 -3.91724 -0.580339 0
M  V30 1428 H 131.693 -4.00594 2.2773 0
M  V30 1429 H 130.008 -3.69552 1.91886 0
M  V30 1430 H 132.605 -5.33703 -0.326392 0
M  V30 1431 H 132.948 -3.94629 -1.32565 0
M  V30 1432 H 133.481 -3.96047 0.373065 0
M  V30 1433 H 130.22 -6.05044 2.52193 0
M  V30 1434 H 129.74 -5.94268 0.81274 0
M  V30 1435 H 131.419 -6.34873 1.24681 0
M  V30 1436 N 131.551 -0.354651 -1.53558 0
M  V30 1437 C 132.483 0.5315 -2.22952 0
M  V30 1438 C 133.496 1.05503 -1.23988 0
M  V30 1439 O 134.685 0.963279 -1.50277 0
M  V30 1440 C 131.785 1.74538 -2.90499 0
M  V30 1441 C 130.958 1.35524 -4.15875 0
M  V30 1442 C 130.017 2.42999 -4.66731 0
M  V30 1443 O 129.043 2.05844 -5.30676 0
M  V30 1444 N 130.245 3.74423 -4.43608 0
M  V30 1445 H 133.01 -0.0628615 -2.99634 0
M  V30 1446 H 130.571 -0.179302 -1.60904 0
M  V30 1447 H 132.563 2.45892 -3.21433 0
M  V30 1448 H 131.133 2.24686 -2.17336 0
M  V30 1449 H 130.353 0.471998 -3.91364 0
M  V30 1450 H 131.641 1.07071 -4.97406 0
M  V30 1451 H 131.039 4.07391 -3.92491 0
M  V30 1452 H 129.596 4.41913 -4.7912 0
M  V30 1453 N 133.029 1.57378 -0.0835403 0
M  V30 1454 C 133.977 2.14602 0.89714 0
M  V30 1455 C 134.971 1.08589 1.30018 0
M  V30 1456 O 136.177 1.26952 1.27606 0
M  V30 1457 H 132.552 0.686346 0.3073 0
M  V30 1458 H 134.523 2.95845 0.38969 0
M  V30 1459 C 133.272 2.73188 2.15089 0
M  V30 1460 H 132.595 3.54442 1.84962 0
M  V30 1461 H 134.035 3.1681 2.81793 0
M  V30 1462 C 132.494 1.68517 2.91725 0
M  V30 1463 O 133.024 1.11718 3.85852 0
M  V30 1464 N 131.23 1.39277 2.55049 0
M  V30 1465 H 130.777 1.85655 1.78577 0
M  V30 1466 H 130.735 0.694791 3.06627 0
M  V30 1467 N 134.507 -0.190092 1.56449 0
M  V30 1468 C 135.417 -1.25591 1.98152 0
M  V30 1469 C 136.433 -1.49519 0.889944 0
M  V30 1470 O 137.609 -1.62036 1.19609 0
M  V30 1471 C 134.674 -2.57916 2.3169 0
M  V30 1472 C 133.735 -2.42015 3.5458 0
M  V30 1473 C 132.968 -3.6803 3.8651 0
M  V30 1474 O 133.191 -4.72413 3.1966 0
M  V30 1475 O 132.125 -3.6326 4.79923 0
M  V30 1476 H 135.951 -0.931988 2.89046 0
M  V30 1477 H 133.536 -0.395488 1.4407 0
M  V30 1478 H 135.418 -3.36008 2.54316 0
M  V30 1479 H 134.093 -2.89925 1.43963 0
M  V30 1480 H 133 -1.62017 3.37196 0
M  V30 1481 H 134.333 -2.14937 4.4279 0
M  V30 1482 N 135.985 -1.50799 -0.457987 0
M  V30 1483 C 137.232 -1.62442 -1.20908 0
M  V30 1484 C 137.56 -0.330865 -1.91665 0
M  V30 1485 O 136.815 0.68401 -1.83357 0
M  V30 1486 C 137.114 -2.76358 -2.2663 0
M  V30 1487 C 136.78 -4.16378 -1.73033 0
M  V30 1488 C 135.442 -4.54473 -1.58138 0
M  V30 1489 C 137.794 -5.03836 -1.33413 0
M  V30 1490 C 135.122 -5.77754 -1.02065 0
M  V30 1491 C 137.474 -6.27676 -0.78778 0
M  V30 1492 C 136.138 -6.64562 -0.625561 0
M  V30 1493 H 135.408 -0.594417 -0.442435 0
M  V30 1494 H 138.055 -1.84772 -0.503136 0
M  V30 1495 H 136.36 -2.48167 -3.03184 0
M  V30 1496 H 138.057 -2.82568 -2.84528 0
M  V30 1497 H 134.647 -3.86331 -1.85598 0
M  V30 1498 H 138.831 -4.75026 -1.4375 0
M  V30 1499 H 134.087 -6.04997 -0.882547 0
M  V30 1500 H 138.261 -6.94797 -0.472177 0
M  V30 1501 H 135.888 -7.59965 -0.188926 0
M  V30 1502 N 137.463 0.71206 -1.40597 0
M  V30 1503 C 138.71 1.47197 -1.39065 0
M  V30 1504 C 139.038 1.94499 0.00583891 0
M  V30 1505 O 138.293 1.68752 0.99102 0
M  V30 1506 C 138.592 2.71039 -2.32965 0
M  V30 1507 C 138.258 2.42484 -3.80148 0
M  V30 1508 C 136.92 2.34406 -4.20247 0
M  V30 1509 C 139.272 2.18598 -4.73143 0
M  V30 1510 C 136.6 2.00516 -5.51371 0
M  V30 1511 C 138.952 1.8622 -6.0457 0
M  V30 1512 C 137.616 1.76626 -6.43708 0
M  V30 1513 H 136.886 0.538634 -0.508876 0
M  V30 1514 H 139.533 0.815325 -1.73276 0
M  V30 1515 H 137.838 3.41558 -1.91951 0
M  V30 1516 H 139.535 3.29138 -2.29061 0
M  V30 1517 H 136.125 2.49659 -3.4838 0
M  V30 1518 H 140.309 2.23793 -4.42979 0
M  V30 1519 H 135.565 1.91628 -5.80593 0
M  V30 1520 H 139.739 1.66752 -6.76141 0
M  V30 1521 H 137.366 1.50133 -7.45228 0
M  V30 1522 N 138.941 1.26152 0.944643 0
M  V30 1523 C 139.904 1.07474 2.0244 0
M  V30 1524 C 140.904 0.0242064 1.60782 0
M  V30 1525 O 142.094 0.267302 1.72137 0
M  V30 1526 C 139.226 0.633956 3.34953 0
M  V30 1527 H 140.419 2.03336 2.20442 0
M  V30 1528 H 137.972 1.087 1.12312 0
M  V30 1529 H 138.707 -0.326811 3.22649 0
M  V30 1530 H 138.492 1.39247 3.66542 0
M  V30 1531 H 139.982 0.52501 4.14287 0
M  V30 1532 N 140.419 -1.14872 1.07899 0
M  V30 1533 C 141.83 -1.67367 0.827363 0
M  V30 1534 C 142.181 -1.85236 -0.646693 0
M  V30 1535 O 141.306 -1.55974 -1.50004 0
M  V30 1536 C 141.901 -3.04016 1.49532 0
M  V30 1537 C 140.46 -3.53566 1.29106 0
M  V30 1538 C 139.607 -2.29161 1.56143 0
M  V30 1539 H 142.558 -0.990083 1.24028 0
M  V30 1540 H 142.579 -3.69219 0.919643 0
M  V30 1541 H 142.091 -2.90978 2.56814 0
M  V30 1542 H 140.192 -3.71835 0.238713 0
M  V30 1543 H 140.305 -4.34661 2.01511 0
M  V30 1544 H 138.669 -2.34978 0.982717 0
M  V30 1545 H 139.452 -2.18705 2.64619 0
M  V30 1546 N 141.898 -0.863906 -1.31812 0
M  V30 1547 C 142.861 -0.320212 -2.26952 0
M  V30 1548 C 143.861 0.525369 -1.51975 0
M  V30 1549 O 145.051 0.335547 -1.70938 0
M  V30 1550 C 142.183 0.545919 -3.365 0
M  V30 1551 H 143.376 -1.16004 -2.76556 0
M  V30 1552 H 140.929 -0.638995 -1.42641 0
M  V30 1553 H 141.664 1.40718 -2.92179 0
M  V30 1554 H 141.449 -0.0594674 -3.92055 0
M  V30 1555 H 142.939 0.918796 -4.07367 0
M  V30 1556 N 143.376 1.44774 -0.622745 0
M  V30 1557 C 144.601 2.06999 -0.128968 0
M  V30 1558 C 145.026 1.4617 1.1839 0
M  V30 1559 O 144.384 0.560007 1.72434 0
M  V30 1560 C 144.432 3.60595 -0.0188351 0
M  V30 1561 O 143.536 3.99398 1.02739 0
M  V30 1562 H 142.877 0.659047 -0.0809544 0
M  V30 1563 H 145.407 1.85784 -0.85705 0
M  V30 1564 H 145.417 4.07627 0.174476 0
M  V30 1565 H 144.092 4.04252 -0.977384 0
M  V30 1566 H 142.669 3.64011 0.809326 0
M  V30 1567 N 144.854 0.36279 1.53368 0
M  V30 1568 C 145.784 -0.476976 2.28576 0
M  V30 1569 C 146.765 -1.08631 1.30894 0
M  V30 1570 O 147.95 -1.10409 1.59761 0
M  V30 1571 C 145.08 -1.61828 3.07293 0
M  V30 1572 C 144.034 -1.13633 4.1264 0
M  V30 1573 C 143.36 -2.36766 4.79423 0
M  V30 1574 C 144.66 -0.223061 5.21823 0
M  V30 1575 H 146.354 0.150474 2.99022 0
M  V30 1576 H 143.9 0.0738103 1.43811 0
M  V30 1577 H 145.853 -2.21237 3.58653 0
M  V30 1578 H 144.577 -2.27292 2.34533 0
M  V30 1579 H 143.236 -0.564945 3.62221 0
M  V30 1580 H 142.884 -3.0068 4.03238 0
M  V30 1581 H 142.584 -2.05192 5.50609 0
M  V30 1582 H 144.108 -2.96865 5.33576 0
M  V30 1583 H 145.522 -0.724545 5.68703 0
M  V30 1584 H 143.919 0.001678 6.001 0
M  V30 1585 H 144.989 0.735553 4.79289 0
M  V30 1586 N 146.332 -1.57332 0.0918853 0
M  V30 1587 C 147.262 -2.16872 -0.865371 0
M  V30 1588 C 148.243 -1.10118 -1.29646 0
M  V30 1589 O 149.428 -1.38242 -1.36392 0
M  V30 1590 C 146.558 -2.74649 -2.12569 0
M  V30 1591 C 145.512 -3.86747 -1.83333 0
M  V30 1592 C 144.838 -4.31212 -3.16166 0
M  V30 1593 C 146.138 -5.10089 -1.1228 0
M  V30 1594 H 147.832 -2.97114 -0.369307 0
M  V30 1595 H 145.378 -1.42918 -0.176194 0
M  V30 1596 H 147.331 -3.14952 -2.7997 0
M  V30 1597 H 146.055 -1.91657 -2.64452 0
M  V30 1598 H 144.714 -3.46978 -1.18331 0
M  V30 1599 H 144.362 -3.45115 -3.6593 0
M  V30 1600 H 144.062 -5.06788 -2.97388 0
M  V30 1601 H 145.586 -4.74146 -3.84731 0
M  V30 1602 H 147 -5.47582 -1.69785 0
M  V30 1603 H 145.397 -5.91073 -1.03693 0
M  V30 1604 H 146.467 -4.84786 -0.105041 0
M  V30 1605 N 147.81 0.181792 -1.56548 0
M  V30 1606 C 148.74 1.22765 -1.98623 0
M  V30 1607 C 149.721 1.46747 -0.860189 0
M  V30 1608 O 150.906 1.58259 -1.12551 0
M  V30 1609 C 148.036 2.56894 -2.33715 0
M  V30 1610 C 146.99 2.475 -3.49182 0
M  V30 1611 C 146.316 3.86023 -3.69986 0
M  V30 1612 C 147.616 1.98866 -4.82959 0
M  V30 1613 H 149.31 0.877942 -2.86239 0
M  V30 1614 H 146.856 0.42088 -1.37712 0
M  V30 1615 H 148.809 3.30253 -2.61746 0
M  V30 1616 H 147.533 2.93632 -1.42997 0
M  V30 1617 H 146.192 1.76596 -3.21262 0
M  V30 1618 H 145.84 4.20136 -2.76576 0
M  V30 1619 H 145.54 3.80609 -4.47672 0
M  V30 1620 H 147.064 4.60984 -4.00407 0
M  V30 1621 H 148.478 2.61992 -5.09934 0
M  V30 1622 H 146.875 2.04424 -5.64208 0
M  V30 1623 H 147.945 0.942465 -4.75653 0
M  V30 1624 N 149.288 1.51039 0.449983 0
M  V30 1625 C 150.699 1.557 1.03026 0
M  V30 1626 C 151.05 0.372939 1.92623 0
M  V30 1627 O 150.175 -0.511771 2.10261 0
M  V30 1628 C 150.77 2.82171 1.87523 0
M  V30 1629 C 149.329 2.89444 2.40622 0
M  V30 1630 C 148.476 2.50228 1.19504 0
M  V30 1631 H 151.427 1.56999 0.231745 0
M  V30 1632 H 151.448 2.65219 2.72835 0
M  V30 1633 H 150.96 3.68331 1.22286 0
M  V30 1634 H 149.061 2.07685 3.0935 0
M  V30 1635 H 149.174 3.92816 2.74285 0
M  V30 1636 H 147.538 2.03139 1.53644 0
M  V30 1637 H 148.321 3.38719 0.558972 0
M  V30 1638 N 150.766 -0.704594 1.40972 0
M  V30 1639 C 152.043 -1.45847 1.30338 0
M  V30 1640 C 152.423 -2.10973 -0.0732344 0
M  V30 1641 O 151.771 -2.00997 -1.08685 0
M  V30 1642 C 151.981 -2.48525 2.45023 0
M  V30 1643 C 153.329 -3.1404 2.8577 0
M  V30 1644 O 154.353 -2.58848 2.44696 0
M  V30 1645 O 153.212 -4.13981 3.56766 0
M  V30 1646 H 150.306 -0.649092 0.512454 0
M  V30 1647 H 152.852 -0.735836 1.52917 0
M  V30 1648 H 151.624 -1.98994 3.36923 0
M  V30 1649 H 151.247 -3.2831 2.24272 0
M  V30 1650 N 152.244 -1.26651 -0.937939 0
M  V30 1651 C 153.207 -1.08546 -2.01867 0
M  V30 1652 C 154.207 -0.0327327 -1.60767 0
M  V30 1653 O 155.397 -0.276427 -1.71993 0
M  V30 1654 C 152.529 -0.651711 -3.34613 0
M  V30 1655 H 153.722 -2.04502 -2.1936 0
M  V30 1656 H 151.275 -1.09294 -1.11734 0
M  V30 1657 H 152.01 0.309696 -3.22818 0
M  V30 1658 H 151.795 -1.41189 -3.65798 0
M  V30 1659 H 153.285 -0.546973 -4.14002 0
M  V30 1660 N 153.722 1.14298 -1.08507 0
M  V30 1661 C 154.968 1.85633 -0.816581 0
M  V30 1662 C 155.301 1.82784 0.656021 0
M  V30 1663 O 154.576 1.25926 1.48233 0
M  V30 1664 C 154.859 3.34223 -1.34041 0
M  V30 1665 C 154.712 3.45639 -2.87843 0
M  V30 1666 C 156.031 4.29356 -0.9665 0
M  V30 1667 H 153.15 0.67402 -0.298104 0
M  V30 1668 H 155.792 1.34214 -1.34487 0
M  V30 1669 H 153.942 3.78144 -0.89104 0
M  V30 1670 H 155.614 3.10498 -3.41158 0
M  V30 1671 H 153.857 2.86817 -3.25451 0
M  V30 1672 H 154.528 4.50089 -3.19569 0
M  V30 1673 H 157.004 3.93457 -1.35391 0
M  V30 1674 H 155.88 5.3178 -1.3602 0
M  V30 1675 H 156.141 4.41919 0.126362 0
M  V30 1676 N 155.201 0.870884 1.31352 0
M  V30 1677 C 156.612 0.534714 1.78879 0
M  V30 1678 C 156.963 -0.948423 1.71754 0
M  V30 1679 O 156.088 -1.74055 1.28584 0
M  V30 1680 C 156.683 0.963839 3.24801 0
M  V30 1681 C 155.242 0.679311 3.70219 0
M  V30 1682 C 154.389 1.15465 2.52117 0
M  V30 1683 H 157.34 1.05651 1.18421 0
M  V30 1684 H 157.361 0.286892 3.79417 0
M  V30 1685 H 156.873 2.04332 3.29955 0
M  V30 1686 H 154.974 -0.388769 3.70566 0
M  V30 1687 H 155.087 1.25698 4.62317 0
M  V30 1688 H 153.451 0.574383 2.48139 0
M  V30 1689 H 154.234 2.24157 2.60016 0
M  V30 1690 N 156.679 -1.44442 0.630414 0
M  V30 1691 C 157.626 -2.30678 -0.0749355 0
M  V30 1692 C 158.596 -1.4344 -0.837502 0
M  V30 1693 O 159.781 -1.72343 -0.818684 0
M  V30 1694 C 156.921 -3.28706 -1.05103 0
M  V30 1695 C 156.034 -4.31046 -0.286954 0
M  V30 1696 C 155.169 -5.16167 -1.2548 0
M  V30 1697 C 154.208 -6.10216 -0.479843 0
M  V30 1698 N 153.345 -6.88039 -1.39811 0
M  V30 1699 H 158.185 -2.90454 0.666386 0
M  V30 1700 H 155.722 -1.43107 0.340404 0
M  V30 1701 H 157.68 -3.84027 -1.63031 0
M  V30 1702 H 156.31 -2.70632 -1.75949 0
M  V30 1703 H 155.362 -3.78203 0.408243 0
M  V30 1704 H 156.674 -4.97794 0.316657 0
M  V30 1705 H 155.828 -5.76002 -1.90544 0
M  V30 1706 H 154.567 -4.49491 -1.89233 0
M  V30 1707 H 153.572 -5.49491 0.184295 0
M  V30 1708 H 154.797 -6.78928 0.152965 0
M  V30 1709 H 152.743 -6.24032 -2.02287 0
M  V30 1710 H 152.66 -7.51223 -0.848508 0
M  V30 1711 H 153.928 -7.52397 -2.03762 0
M  V30 1712 N 158.157 -0.370918 -1.53173 0
M  V30 1713 C 159.385 0.217704 -2.05751 0
M  V30 1714 C 159.8 1.42018 -1.24404 0
M  V30 1715 O 159.157 1.80245 -0.286033 0
M  V30 1716 C 159.208 0.605954 -3.56385 0
M  V30 1717 O 158.929 -0.548734 -4.3465 0
M  V30 1718 C 160.43 1.2524 -4.25241 0
M  V30 1719 H 157.65 0.0371659 -0.66997 0
M  V30 1720 H 160.194 -0.530832 -1.9749 0
M  V30 1721 H 158.349 1.3044 -3.6478 0
M  V30 1722 H 158.763 -0.23376 -5.23979 0
M  V30 1723 H 160.237 1.47458 -5.3194 0
M  V30 1724 H 160.714 2.2143 -3.79296 0
M  V30 1725 H 161.32 0.595233 -4.21114 0
M  V30 1726 N 159.635 1.57281 -0.100228 0
M  V30 1727 C 160.598 2.13158 0.842398 0
M  V30 1728 C 161.598 1.06202 1.20738 0
M  V30 1729 O 162.788 1.32066 1.13597 0
M  V30 1730 C 159.92 2.65639 2.13655 0
M  V30 1731 H 161.113 2.97766 0.357114 0
M  V30 1732 H 158.666 1.5559 0.148823 0
M  V30 1733 H 159.401 1.84566 2.66657 0
M  V30 1734 H 159.186 3.43844 1.88451 0
M  V30 1735 H 160.676 3.08846 2.81077 0
M  V30 1736 N 161.113 -0.173488 1.56642 0
M  V30 1737 C 162.061 -1.23417 1.97157 0
M  V30 1738 C 163.055 -1.45946 0.860013 0
M  V30 1739 O 164.261 -1.46551 1.04512 0
M  V30 1740 H 160.636 -0.414818 0.62724 0
M  V30 1741 H 162.607 -0.865582 2.8557 0
M  V30 1742 C 161.356 -2.5665 2.34576 0
M  V30 1743 H 160.679 -2.40137 3.19647 0
M  V30 1744 H 162.119 -3.2956 2.6677 0
M  V30 1745 C 160.578 -3.15245 1.18836 0
M  V30 1746 O 161.108 -3.98883 0.474869 0
M  V30 1747 N 159.314 -2.74303 0.959497 0
M  V30 1748 H 158.861 -2.0639 1.54146 0
M  V30 1749 H 158.819 -3.13844 0.186932 0
M  V30 1750 N 162.591 -1.51276 -0.441967 0
M  V30 1751 C 163.819 -1.67516 -1.21434 0
M  V30 1752 C 164.234 -0.37055 -1.85128 0
M  V30 1753 O 163.591 0.650498 -1.70513 0
M  V30 1754 C 163.642 -2.78748 -2.30177 0
M  V30 1755 O 163.363 -4.04154 -1.69089 0
M  V30 1756 C 164.864 -3.06217 -3.20541 0
M  V30 1757 H 162.084 -0.562276 -0.366178 0
M  V30 1758 H 164.628 -1.97666 -0.524244 0
M  V30 1759 H 162.783 -2.5121 -2.94911 0
M  V30 1760 H 163.197 -4.65894 -2.40922 0
M  V30 1761 H 164.671 -3.8764 -3.92987 0
M  V30 1762 H 165.148 -2.18439 -3.81026 0
M  V30 1763 H 165.754 -3.35397 -2.61513 0
M  V30 1764 N 164.069 0.697108 -1.41344 0
M  V30 1765 C 164.999 1.82353 -1.45841 0
M  V30 1766 C 165.98 1.67115 -0.317247 0
M  V30 1767 O 167.165 1.86871 -0.528474 0
M  V30 1768 C 164.295 3.20476 -1.33838 0
M  V30 1769 C 163.249 3.50415 -2.4575 0
M  V30 1770 C 162.575 4.87878 -2.18813 0
M  V30 1771 C 163.875 3.49546 -3.88091 0
M  V30 1772 H 165.569 1.78846 -2.40113 0
M  V30 1773 H 163.115 0.859028 -1.15571 0
M  V30 1774 H 165.068 3.98988 -1.35596 0
M  V30 1775 H 163.792 3.24604 -0.360498 0
M  V30 1776 H 162.451 2.74253 -2.43271 0
M  V30 1777 H 162.099 4.8863 -1.19371 0
M  V30 1778 H 161.799 5.08875 -2.93803 0
M  V30 1779 H 163.323 5.68702 -2.22284 0
M  V30 1780 H 164.737 4.18066 -3.92293 0
M  V30 1781 H 163.134 3.82075 -4.62751 0
M  V30 1782 H 164.204 2.48552 -4.16353 0
M  V30 1783 N 165.547 1.27147 0.931209 0
M  V30 1784 C 166.958 1.12044 1.49342 0
M  V30 1785 C 167.309 -0.295795 1.93957 0
M  V30 1786 O 166.434 -1.18835 1.80852 0
M  V30 1787 C 167.029 2.02781 2.71414 0
M  V30 1788 C 165.588 1.91794 3.2387 0
M  V30 1789 C 164.735 1.95543 1.96617 0
M  V30 1790 H 167.686 1.40091 0.745672 0
M  V30 1791 H 167.707 1.58156 3.46074 0
M  V30 1792 H 167.219 3.05848 2.38911 0
M  V30 1793 H 165.32 0.916992 3.6114 0
M  V30 1794 H 165.433 2.77852 3.90302 0
M  V30 1795 H 163.797 1.39722 2.12955 0
M  V30 1796 H 164.58 3.00259 1.66432 0
M  V30 1797 N 167.025 -1.13721 1.09112 0
M  V30 1798 C 168.25 -1.89314 0.847053 0
M  V30 1799 C 168.675 -1.78416 -0.595774 0
M  V30 1800 O 168.033 -1.12942 -1.41823 0
M  V30 1801 C 168.081 -3.3701 1.28284 0
M  V30 1802 O 167.185 -4.10054 0.439267 0
M  V30 1803 H 166.526 -0.588745 0.307044 0
M  V30 1804 H 169.056 -1.43902 1.45442 0
M  V30 1805 H 169.066 -3.87834 1.26683 0
M  V30 1806 H 167.741 -3.4426 2.33363 0
M  V30 1807 H 166.318 -3.69266 0.519312 0
M  V30 1808 N 168.503 -0.877838 -1.30888 0
M  V30 1809 C 169.45 -0.337538 -2.28318 0
M  V30 1810 C 170.42 0.568346 -1.56074 0
M  V30 1811 O 171.605 0.498298 -1.84178 0
M  V30 1812 C 168.745 0.448142 -3.42178 0
M  V30 1813 C 167.858 -0.48615 -4.29256 0
M  V30 1814 C 166.993 0.314427 -5.30269 0
M  V30 1815 C 166.032 -0.615791 -6.08995 0
M  V30 1816 N 165.169 0.14902 -7.01942 0
M  V30 1817 H 170.009 -1.17356 -2.73919 0
M  V30 1818 H 167.546 -0.590094 -1.34745 0
M  V30 1819 H 169.504 0.919517 -4.06941 0
M  V30 1820 H 168.134 1.24879 -2.97666 0
M  V30 1821 H 167.186 -1.076 -3.64865 0
M  V30 1822 H 168.498 -1.19909 -4.84173 0
M  V30 1823 H 167.652 0.847969 -6.00745 0
M  V30 1824 H 166.391 1.06062 -4.76027 0
M  V30 1825 H 165.396 -1.16102 -5.37401 0
M  V30 1826 H 166.621 -1.36097 -6.65323 0
M  V30 1827 H 164.567 0.877884 -6.50099 0
M  V30 1828 H 164.484 -0.504433 -7.54315 0
M  V30 1829 H 165.752 0.663537 -7.76671 0
M  V30 1830 N 169.982 1.44106 -0.638065 0
M  V30 1831 C 170.892 2.34513 0.0637334 0
M  V30 1832 C 171.908 1.53018 0.828346 0
M  V30 1833 O 173.084 1.85723 0.779036 0
M  V30 1834 C 170.149 3.31095 1.02844 0
M  V30 1835 C 169.21 4.28497 0.26244 0
M  V30 1836 C 168.443 5.20465 1.1812 0
M  V30 1837 O 168.666 5.16514 2.42011 0
M  V30 1838 O 167.6 5.98251 0.661774 0
M  V30 1839 H 171.426 2.95989 -0.68003 0
M  V30 1840 H 169.011 1.43994 -0.398252 0
M  V30 1841 H 170.893 3.90526 1.58327 0
M  V30 1842 H 169.568 2.72144 1.7527 0
M  V30 1843 H 168.475 3.72592 -0.335602 0
M  V30 1844 H 169.808 4.90388 -0.421936 0
M  V30 1845 N 171.46 0.379036 1.52974 0
M  V30 1846 C 172.423 -0.448865 2.24762 0
M  V30 1847 C 173.423 -0.998689 1.26027 0
M  V30 1848 O 174.613 -0.882313 1.50203 0
M  V30 1849 C 171.745 -1.62872 2.99476 0
M  V30 1850 H 172.938 0.179491 2.99362 0
M  V30 1851 H 170.491 0.13096 1.5575 0
M  V30 1852 H 171.226 -2.29479 2.29151 0
M  V30 1853 H 171.011 -1.24128 3.71934 0
M  V30 1854 H 172.501 -2.2151 3.5401 0
M  V30 1855 N 172.938 -1.57226 0.108567 0
M  V30 1856 C 174.187 -1.94008 -0.551703 0
M  V30 1857 C 174.5 -0.993442 -1.68494 0
M  V30 1858 O 175.706 -1.25551 -2.40726 0
M  V30 1859 C 174.162 -3.44763 -1.03279 0
M  V30 1860 C 173.77 -4.47943 0.0714193 0
M  V30 1861 C 175.514 -3.90483 -1.66503 0
M  V30 1862 C 173.421 -5.89865 -0.425779 0
M  V30 1863 H 172.351 -0.724206 -0.209863 0
M  V30 1864 H 175.002 -1.82547 0.186741 0
M  V30 1865 H 173.384 -3.51422 -1.82533 0
M  V30 1866 H 174.558 -4.52942 0.847365 0
M  V30 1867 H 172.873 -4.11913 0.609669 0
M  V30 1868 H 175.47 -4.93925 -2.04798 0
M  V30 1869 H 175.813 -3.29877 -2.53942 0
M  V30 1870 H 176.346 -3.86581 -0.938074 0
M  V30 1871 H 173.085 -6.54202 0.412316 0
M  V30 1872 H 172.605 -5.88309 -1.16843 0
M  V30 1873 H 174.284 -6.40844 -0.890397 0
M  V30 1874 N 174.416 0.165178 -1.56732 0
M  V30 1875 C 175.644 0.896218 -1.86482 0
M  V30 1876 C 176.059 1.75555 -0.694675 0
M  V30 1877 O 175.416 1.79379 0.33607 0
M  V30 1878 C 175.467 1.76792 -3.1532 0
M  V30 1879 O 175.188 0.943239 -4.27825 0
M  V30 1880 C 176.689 2.6081 -3.58459 0
M  V30 1881 H 173.909 0.260064 -0.618553 0
M  V30 1882 H 176.453 0.163428 -2.03846 0
M  V30 1883 H 174.608 2.45398 -2.99764 0
M  V30 1884 H 175.022 1.53998 -5.01383 0
M  V30 1885 H 176.496 3.17579 -4.51495 0
M  V30 1886 H 176.973 3.35977 -2.82872 0
M  V30 1887 H 177.579 1.97526 -3.76648 0
M  V30 1888 N 175.894 1.51508 0.433938 0
M  V30 1889 C 177.14 1.64588 1.18484 0
M  V30 1890 C 177.473 0.362666 1.90784 0
M  V30 1891 O 176.748 -0.637892 1.83742 0
M  V30 1892 C 177.031 2.85149 2.19913 0
M  V30 1893 C 176.884 4.23456 1.51674 0
M  V30 1894 C 178.203 3.01227 3.20858 0
M  V30 1895 H 175.322 0.598994 0.429389 0
M  V30 1896 H 177.964 1.84002 0.473647 0
M  V30 1897 H 176.114 2.68729 2.80566 0
M  V30 1898 H 177.786 4.51552 0.943322 0
M  V30 1899 H 176.029 4.25998 0.819035 0
M  V30 1900 H 176.7 5.03812 2.2556 0
M  V30 1901 H 179.176 3.16382 2.70263 0
M  V30 1902 H 178.052 3.87141 3.89118 0
M  V30 1903 H 178.313 2.13447 3.8716 0
M  V30 1904 N 177.372 -0.689602 1.41712 0
M  V30 1905 C 178.304 -1.815 1.39966 0
M  V30 1906 C 179.317 -1.59995 0.300917 0
M  V30 1907 O 180.506 -1.69387 0.563039 0
M  V30 1908 C 177.606 -3.18364 1.16179 0
M  V30 1909 C 176.779 -3.66847 2.38206 0
M  V30 1910 C 175.838 -4.82398 2.10186 0
M  V30 1911 O 174.864 -4.93706 2.83272 0
M  V30 1912 N 176.066 -5.70064 1.0958 0
M  V30 1913 H 178.831 -1.83488 2.36965 0
M  V30 1914 H 176.392 -0.872149 1.36401 0
M  V30 1915 H 178.384 -3.93301 0.953756 0
M  V30 1916 H 176.954 -3.11365 0.27756 0
M  V30 1917 H 176.174 -2.82751 2.74673 0
M  V30 1918 H 177.462 -3.95978 3.19498 0
M  V30 1919 H 176.86 -5.63565 0.491019 0
M  V30 1920 H 175.417 -6.44874 0.947656 0
M  V30 1921 N 178.85 -1.27639 -0.924453 0
M  V30 1922 C 179.782 -1.06442 -2.02985 0
M  V30 1923 C 180.795 -0.0194771 -1.62788 0
M  V30 1924 O 181.984 -0.261388 -1.76576 0
M  V30 1925 C 179.084 -0.59327 -3.33667 0
M  V30 1926 C 178.257 -1.71123 -4.02537 0
M  V30 1927 C 177.316 -1.23527 -5.11495 0
M  V30 1928 O 176.342 -1.93553 -5.35281 0
M  V30 1929 N 177.544 -0.0926678 -5.80426 0
M  V30 1930 H 180.309 -2.01633 -2.2173 0
M  V30 1931 H 177.87 -1.19248 -1.09505 0
M  V30 1932 H 179.862 -0.258686 -4.03872 0
M  V30 1933 H 178.432 0.265502 -3.1147 0
M  V30 1934 H 177.652 -2.21593 -3.26022 0
M  V30 1935 H 178.94 -2.46145 -4.45298 0
M  V30 1936 H 178.338 0.491741 -5.63559 0
M  V30 1937 H 176.895 0.182714 -6.51544 0
M  V30 1938 N 180.328 1.1314 -1.09713 0
M  V30 1939 C 181.275 2.18642 -0.739196 0
M  V30 1940 C 182.245 1.63706 0.280978 0
M  V30 1941 O 183.43 1.90111 0.161946 0
M  V30 1942 C 180.57 3.44685 -0.169102 0
M  V30 1943 C 179.683 4.13711 -1.24367 0
M  V30 1944 C 178.818 5.27379 -0.636019 0
M  V30 1945 C 177.857 5.88259 -1.69169 0
M  V30 1946 N 176.994 6.93352 -1.10485 0
M  V30 1947 H 181.834 2.48607 -1.64312 0
M  V30 1948 H 179.371 1.22066 -0.820875 0
M  V30 1949 H 181.329 4.16815 0.179256 0
M  V30 1950 H 179.959 3.15161 0.698079 0
M  V30 1951 H 179.011 3.39835 -1.70927 0
M  V30 1952 H 180.323 4.55037 -2.04311 0
M  V30 1953 H 179.477 6.06238 -0.236677 0
M  V30 1954 H 178.216 4.8731 0.194928 0
M  V30 1955 H 177.221 5.08092 -2.10055 0
M  V30 1956 H 178.446 6.30399 -2.52536 0
M  V30 1957 H 176.392 6.55335 -0.295234 0
M  V30 1958 H 176.309 7.33236 -1.84121 0
M  V30 1959 H 177.577 7.76057 -0.73181 0
M  V30 1960 N 181.806 0.884767 1.30421 0
M  V30 1961 C 182.738 0.308655 2.27112 0
M  V30 1962 C 183.751 -0.536655 1.53701 0
M  V30 1963 O 184.94 -0.35624 1.74909 0
M  V30 1964 C 182.04 -0.579782 3.33904 0
M  V30 1965 C 181.213 0.236417 4.36761 0
M  V30 1966 C 180.272 -0.582482 5.22966 0
M  V30 1967 O 179.298 -0.00525502 5.692 0
M  V30 1968 N 180.5 -1.89163 5.48815 0
M  V30 1969 H 183.265 1.13964 2.77186 0
M  V30 1970 H 180.826 0.747731 1.43599 0
M  V30 1971 H 182.818 -1.13366 3.88497 0
M  V30 1972 H 181.388 -1.31144 2.83761 0
M  V30 1973 H 180.608 0.97174 3.82035 0
M  V30 1974 H 181.896 0.795924 5.02536 0
M  V30 1975 H 181.294 -2.38352 5.13035 0
M  V30 1976 H 179.851 -2.39296 6.06284 0
M  V30 1977 N 183.284 -1.43765 0.645699 0
M  V30 1978 C 184.217 -2.2798 -0.100072 0
M  V30 1979 C 185.195 -1.39391 -0.837194 0
M  V30 1980 O 186.379 -1.68833 -0.838306 0
M  V30 1981 C 183.506 -3.18643 -1.14823 0
M  V30 1982 C 182.552 -4.2344 -0.510009 0
M  V30 1983 S 183.385 -5.30761 0.710824 0
M  V30 1984 C 184.541 -6.24992 -0.33699 0
M  V30 1985 H 184.774 -2.90884 0.614322 0
M  V30 1986 H 182.307 -1.48166 0.434304 0
M  V30 1987 H 184.265 -3.71424 -1.74799 0
M  V30 1988 H 182.926 -2.54932 -1.8349 0
M  V30 1989 H 182.119 -4.86948 -1.29991 0
M  V30 1990 H 181.721 -3.73997 0.0154577 0
M  V30 1991 H 184.013 -6.66691 -1.20537 0
M  V30 1992 H 184.956 -7.07612 0.262879 0
M  V30 1993 H 185.364 -5.60517 -0.669425 0
M  V30 1994 N 184.763 -0.387143 -1.52771 0
M  V30 1995 C 186.174 0.0873634 -1.86495 0
M  V30 1996 C 186.525 1.46336 -1.30691 0
M  V30 1997 O 185.65 2.068 -0.637409 0
M  V30 1998 C 186.245 0.165305 -3.38396 0
M  V30 1999 C 184.804 0.584101 -3.7184 0
M  V30 2000 C 183.951 -0.255279 -2.76122 0
M  V30 2001 H 186.902 -0.605104 -1.46711 0
M  V30 2002 H 186.923 0.984848 -3.67534 0
M  V30 2003 H 186.435 -0.836301 -3.78982 0
M  V30 2004 H 184.536 1.59315 -3.36823 0
M  V30 2005 H 184.649 0.343749 -4.77865 0
M  V30 2006 H 183.013 0.279126 -2.53166 0
M  V30 2007 H 183.796 -1.25482 -3.19545 0
M  V30 2008 N 186.241 1.57166 -0.116904 0
M  V30 2009 C 187.488 1.95123 0.541603 0
M  V30 2010 C 187.816 1.00006 1.6682 0
M  V30 2011 O 187.071 0.0235658 1.95686 0
M  V30 2012 C 187.37 3.39508 1.11664 0
M  V30 2013 C 187.036 4.50762 0.111606 0
M  V30 2014 C 185.698 4.80918 -0.164758 0
M  V30 2015 C 188.05 5.18036 -0.573438 0
M  V30 2016 C 185.378 5.75666 -1.13249 0
M  V30 2017 C 187.73 6.13824 -1.52978 0
M  V30 2018 C 186.394 6.42374 -1.81415 0
M  V30 2019 H 185.664 0.714005 0.198187 0
M  V30 2020 H 188.311 1.9048 -0.197365 0
M  V30 2021 H 186.616 3.40835 1.93232 0
M  V30 2022 H 188.313 3.66189 1.63422 0
M  V30 2023 H 184.903 4.27272 0.337192 0
M  V30 2024 H 189.087 4.94896 -0.373092 0
M  V30 2025 H 184.343 5.96092 -1.35958 0
M  V30 2026 H 188.517 6.65039 -2.06629 0
M  V30 2027 H 186.144 7.15599 -2.56557 0
M  V30 2028 N 187.719 -0.156864 1.56817 0
M  V30 2029 C 188.959 -0.877453 1.84608 0
M  V30 2030 C 189.323 -1.78791 0.699845 0
M  V30 2031 O 190.524 -2.5472 0.858553 0
M  V30 2032 C 188.795 -1.63992 3.17555 0
M  V30 2033 S 190.354 -2.40729 3.66872 0
M  V30 2034 H 187.172 -0.293612 0.647544 0
M  V30 2035 H 189.774 -0.138099 1.95012 0
M  V30 2036 H 188.478 -0.962363 3.98957 0
M  V30 2037 H 188.009 -2.42038 3.10131 0
M  V30 2038 H 190.024 -3.65725 3.3535 0
M  V30 2039 N 189.197 -1.51736 -0.425897 0
M  V30 2040 C 190.474 -1.55519 -1.1863 0
M  V30 2041 C 190.854 -0.326219 -2.08564 0
M  V30 2042 O 190.202 0.688012 -2.17896 0
M  V30 2043 C 190.412 -2.87521 -1.9782 0
M  V30 2044 C 191.76 -3.39899 -2.54468 0
M  V30 2045 O 192.784 -2.89148 -2.08019 0
M  V30 2046 O 191.643 -4.2848 -3.39215 0
M  V30 2047 H 188.737 -0.625739 -0.540721 0
M  V30 2048 H 191.283 -1.64055 -0.434038 0
M  V30 2049 H 190.055 -3.68422 -1.31836 0
M  V30 2050 H 189.678 -2.822 -2.80088 0
M  V30 2051 N 190.675 0.682077 -1.42076 0
M  V30 2052 C 191.622 1.79578 -1.44984 0
M  V30 2053 C 192.592 1.6332 -0.302614 0
M  V30 2054 O 193.777 1.83978 -0.505633 0
M  V30 2055 C 190.917 3.1756 -1.35091 0
M  V30 2056 C 190.03 3.45156 -2.59791 0
M  V30 2057 C 189.165 4.72826 -2.42093 0
M  V30 2058 C 188.204 4.93433 -3.62202 0
M  V30 2059 N 187.341 6.12338 -3.43491 0
M  V30 2060 H 192.181 1.76427 -2.40161 0
M  V30 2061 H 189.718 0.861376 -1.19242 0
M  V30 2062 H 191.676 3.97287 -1.27354 0
M  V30 2063 H 190.306 3.19854 -0.435133 0
M  V30 2064 H 189.358 2.59736 -2.77923 0
M  V30 2065 H 190.67 3.5628 -3.49094 0
M  V30 2066 H 189.824 5.60631 -2.319 0
M  V30 2067 H 188.563 4.63973 -1.50268 0
M  V30 2068 H 187.568 4.04073 -3.72834 0
M  V30 2069 H 188.793 5.04136 -4.54998 0
M  V30 2070 H 186.739 6.04672 -2.54377 0
M  V30 2071 H 186.656 6.2429 -4.26377 0
M  V30 2072 H 187.924 7.02841 -3.37097 0
M  V30 2073 N 192.153 1.28127 0.917671 0
M  V30 2074 C 193.43 1.05761 1.64542 0
M  V30 2075 C 193.81 -0.404344 2.07191 0
M  V30 2076 O 193.158 -1.38963 1.81388 0
M  V30 2077 C 193.368 2.02857 2.83989 0
M  V30 2078 C 194.716 2.32786 3.551 0
M  V30 2079 O 195.74 2.0091 2.94132 0
M  V30 2080 O 194.599 2.87169 4.64969 0
M  V30 2081 H 191.693 0.403916 0.721652 0
M  V30 2082 H 194.239 1.39431 0.967322 0
M  V30 2083 H 193.011 3.01407 2.49538 0
M  V30 2084 H 192.634 1.69809 3.59514 0
M  V30 2085 N 193.631 -1.12557 1.10312 0
M  V30 2086 C 195.047 -1.36036 0.834649 0
M  V30 2087 C 195.247 -1.93946 -0.546539 0
M  V30 2088 O 194.303 -2.16484 -1.29966 0
M  V30 2089 C 195.616 -2.30312 1.9333 0
M  V30 2090 C 197.164 -2.43906 1.9616 0
M  V30 2091 C 197.639 -3.41496 3.05195 0
M  V30 2092 N 199.13 -3.49053 3.04494 0
M  V30 2093 C 199.865 -4.24471 3.85502 0
M  V30 2094 N 199.361 -5.02966 4.76442 0
M  V30 2095 N 201.154 -4.19864 3.73725 0
M  V30 2096 H 193.305 -0.733246 1.99342 0
M  V30 2097 H 195.568 -0.385234 0.866198 0
M  V30 2098 H 195.274 -1.94933 2.92735 0
M  V30 2099 H 195.148 -3.30421 1.81939 0
M  V30 2100 H 197.535 -2.78567 0.973886 0
M  V30 2101 H 197.616 -1.4369 2.11629 0
M  V30 2102 H 197.26 -3.07565 4.04186 0
M  V30 2103 H 197.19 -4.41539 2.86968 0
M  V30 2104 H 199.681 -2.93053 2.38596 0
M  V30 2105 H 199.994 -5.57846 5.34815 0
M  V30 2106 H 198.339 -5.02167 4.80472 0
M  V30 2107 H 201.53 -3.57623 3.02032 0
M  V30 2108 H 201.703 -4.78386 4.37093 0
M  V30 2109 N 195.109 -0.891671 -1.2995 0
M  V30 2110 C 196.337 -0.52866 -2.00032 0
M  V30 2111 C 196.752 0.884574 -1.66795 0
M  V30 2112 O 196.109 1.5827 -0.908669 0
M  V30 2113 C 196.16 -0.701814 -3.54622 0
M  V30 2114 O 195.881 -2.05942 -3.86678 0
M  V30 2115 C 197.382 -0.342683 -4.41973 0
M  V30 2116 H 194.602 -0.203659 -0.639347 0
M  V30 2117 H 197.146 -1.19881 -1.65677 0
M  V30 2118 H 195.301 -0.0789468 -3.8732 0
M  V30 2119 H 195.715 -2.08291 -4.81368 0
M  V30 2120 H 197.189 -0.514709 -5.49595 0
M  V30 2121 H 197.666 0.71975 -4.33262 0
M  V30 2122 H 198.272 -0.942154 -4.14733 0
M  V30 2123 N 196.587 1.43421 -0.653314 0
M  V30 2124 C 197.517 2.33487 0.0246656 0
M  V30 2125 C 198.498 1.49475 0.811863 0
M  V30 2126 O 199.683 1.78139 0.773322 0
M  V30 2127 C 196.813 3.32841 0.99166 0
M  V30 2128 C 195.767 4.26842 0.314568 0
M  V30 2129 C 195.093 5.16236 1.39302 0
M  V30 2130 C 196.393 5.16243 -0.793095 0
M  V30 2131 H 198.087 2.90427 -0.727481 0
M  V30 2132 H 195.633 1.39649 -0.351287 0
M  V30 2133 H 197.586 3.94747 1.47487 0
M  V30 2134 H 196.31 2.74158 1.77497 0
M  V30 2135 H 194.969 3.663 -0.148199 0
M  V30 2136 H 194.617 4.53891 2.16776 0
M  V30 2137 H 194.317 5.79948 0.945223 0
M  V30 2138 H 195.841 5.81015 1.87759 0
M  V30 2139 H 197.255 5.71958 -0.392039 0
M  V30 2140 H 195.652 5.88676 -1.16536 0
M  V30 2141 H 196.722 4.55927 -1.65103 0
M  V30 2142 N 198.065 0.39524 1.52563 0
M  V30 2143 C 198.998 -0.4813 2.23067 0
M  V30 2144 C 199.976 -1.05927 1.23362 0
M  V30 2145 O 201.16 -1.10979 1.52368 0
M  V30 2146 C 198.287 -1.66676 2.9485 0
M  V30 2147 C 197.333 -1.21348 4.08873 0
M  V30 2148 S 198.166 -0.190102 5.35162 0
M  V30 2149 C 199.322 -1.38121 6.1047 0
M  V30 2150 H 199.555 0.117381 2.97068 0
M  V30 2151 H 197.088 0.179458 1.53354 0
M  V30 2152 H 199.046 -2.3466 3.36816 0
M  V30 2153 H 197.707 -2.23676 2.20518 0
M  V30 2154 H 196.9 -2.09877 4.58222 0
M  V30 2155 H 196.502 -0.612486 3.68951 0
M  V30 2156 H 198.794 -2.30726 6.37002 0
M  V30 2157 H 199.737 -0.928521 7.01986 0
M  V30 2158 H 200.145 -1.60071 5.41329 0
M  V30 2159 N 199.544 -1.57102 0.125237 0
M  V30 2160 C 200.772 -1.99761 -0.538797 0
M  V30 2161 C 201.187 -1.00503 -1.59827 0
M  V30 2162 O 200.544 0.00119474 -1.825 0
M  V30 2163 C 200.595 -3.42408 -1.15927 0
M  V30 2164 O 200.316 -4.37869 -0.142143 0
M  V30 2165 C 201.817 -4.00232 -1.90602 0
M  V30 2166 H 199.037 -0.655772 -0.14214 0
M  V30 2167 H 201.581 -2.03383 0.213413 0
M  V30 2168 H 199.736 -3.39706 -1.86223 0
M  V30 2169 H 200.15 -5.21128 -0.593775 0
M  V30 2170 H 201.624 -5.02105 -2.29335 0
M  V30 2171 H 202.101 -3.39721 -2.78363 0
M  V30 2172 H 202.707 -4.06499 -1.25055 0
M  V30 2173 N 201.022 0.148545 -1.56898 0
M  V30 2174 C 202.433 0.708766 -1.72723 0
M  V30 2175 C 202.784 1.81734 -0.739395 0
M  V30 2176 O 201.909 2.16194 0.0943169 0
M  V30 2177 C 202.504 1.29245 -3.13179 0
M  V30 2178 C 201.063 1.79925 -3.30611 0
M  V30 2179 C 200.21 0.687111 -2.68652 0
M  V30 2180 H 203.161 -0.0771063 -1.58513 0
M  V30 2181 H 203.182 2.16224 -3.13093 0
M  V30 2182 H 202.694 0.485382 -3.85053 0
M  V30 2183 H 200.795 2.63203 -2.63732 0
M  V30 2184 H 200.908 1.92903 -4.38549 0
M  V30 2185 H 199.272 1.11335 -2.29078 0
M  V30 2186 H 200.055 -0.108483 -3.43129 0
M  V30 2187 N 202.5 1.5196 0.417844 0
M  V30 2188 C 203.746 1.65836 1.16732 0
M  V30 2189 C 204.079 0.382881 1.90388 0
M  V30 2190 O 203.354 -0.618368 1.84408 0
M  V30 2191 C 203.637 2.87466 2.16876 0
M  V30 2192 C 203.49 4.25041 1.47174 0
M  V30 2193 C 204.809 3.04613 3.17646 0
M  V30 2194 H 201.928 0.603515 0.423011 0
M  V30 2195 H 204.57 1.84494 0.454105 0
M  V30 2196 H 202.72 2.71689 2.777 0
M  V30 2197 H 204.392 4.52527 0.895376 0
M  V30 2198 H 202.635 4.26843 0.773806 0
M  V30 2199 H 203.306 5.06176 2.20204 0
M  V30 2200 H 205.782 3.1923 2.66892 0
M  V30 2201 H 204.658 3.91247 3.8499 0
M  V30 2202 H 204.919 2.17541 3.84874 0
M  V30 2203 N 203.978 -0.674533 1.42435 0
M  V30 2204 C 204.91 -1.80005 1.41883 0
M  V30 2205 C 205.923 -1.59667 0.31787 0
M  V30 2206 O 207.112 -1.68781 0.580973 0
M  V30 2207 C 204.212 -3.17114 1.19549 0
M  V30 2208 C 203.385 -3.64299 2.42084 0
M  V30 2209 C 202.444 -4.80142 2.15291 0
M  V30 2210 O 201.47 -4.90673 2.88493 0
M  V30 2211 N 202.672 -5.68869 1.1562 0
M  V30 2212 H 205.437 -1.80964 2.38898 0
M  V30 2213 H 202.998 -0.857633 1.37318 0
M  V30 2214 H 204.99 -3.92267 0.995417 0
M  V30 2215 H 203.56 -3.11053 0.310569 0
M  V30 2216 H 202.78 -2.79822 2.77657 0
M  V30 2217 H 204.068 -3.92567 3.23679 0
M  V30 2218 H 203.466 -5.63012 0.550765 0
M  V30 2219 H 202.023 -6.43833 1.016 0
M  V30 2220 N 205.456 -1.28612 -0.910864 0
M  V30 2221 C 206.404 -1.1265 -2.03501 0
M  V30 2222 C 207.398 -0.0450054 -1.6934 0
M  V30 2223 O 208.604 -0.203988 -1.7884 0
M  V30 2224 H 204.979 -0.347639 -0.666822 0
M  V30 2225 H 206.95 -2.07849 -2.14106 0
M  V30 2226 C 205.699 -0.808143 -3.38178 0
M  V30 2227 H 205.022 -1.63231 -3.6496 0
M  V30 2228 H 206.462 -0.736426 -4.17556 0
M  V30 2229 C 204.921 0.488226 -3.33344 0
M  V30 2230 O 205.451 1.51766 -3.71927 0
M  V30 2231 N 203.657 0.490009 -2.86439 0
M  V30 2232 H 203.204 -0.348161 -2.55236 0
M  V30 2233 H 203.162 1.35741 -2.83587 0
M  V30 2234 N 206.934 1.1197 -1.10907 0
M  V30 2235 C 207.864 2.19928 -0.784473 0
M  V30 2236 C 208.845 1.6833 0.244726 0
M  V30 2237 O 210.03 1.93892 0.109418 0
M  V30 2238 C 207.16 3.46597 -0.220827 0
M  V30 2239 C 206.114 4.11376 -1.18127 0
M  V30 2240 C 205.44 5.32554 -0.478594 0
M  V30 2241 C 206.74 4.56945 -2.52979 0
M  V30 2242 H 208.434 2.47337 -1.68715 0
M  V30 2243 H 205.98 1.18879 -0.812642 0
M  V30 2244 H 207.933 4.21396 0.0184278 0
M  V30 2245 H 206.657 3.1863 0.717113 0
M  V30 2246 H 205.316 3.38564 -1.40606 0
M  V30 2247 H 204.964 5.00856 0.463976 0
M  V30 2248 H 204.664 5.76844 -1.11912 0
M  V30 2249 H 206.188 6.10096 -0.248 0
M  V30 2250 H 207.602 5.23093 -2.3462 0
M  V30 2251 H 205.999 5.1203 -3.12962 0
M  V30 2252 H 207.069 3.70676 -3.12614 0
M  V30 2253 N 208.412 0.89855 1.29475 0
M  V30 2254 C 209.322 0.379974 2.31502 0
M  V30 2255 C 210.338 -0.524695 1.659 0
M  V30 2256 O 211.514 -0.414551 1.97087 0
M  V30 2257 C 208.579 -0.385138 3.44554 0
M  V30 2258 C 207.64 0.550914 4.2575 0
M  V30 2259 C 206.873 -0.177778 5.33404 0
M  V30 2260 O 207.096 -1.40189 5.52904 0
M  V30 2261 O 206.03 0.479106 5.9999 0
M  V30 2262 H 209.856 1.22639 2.77837 0
M  V30 2263 H 207.441 0.662834 1.33891 0
M  V30 2264 H 209.323 -0.817841 4.13388 0
M  V30 2265 H 207.998 -1.20763 3.0033 0
M  V30 2266 H 206.905 1.03271 3.59564 0
M  V30 2267 H 208.238 1.33979 4.73614 0
M  V30 2268 N 209.89 -1.43072 0.660911 0
M  V30 2269 C 210.822 -2.29108 -0.0647641 0
M  V30 2270 C 211.835 -1.42928 -0.779448 0
M  V30 2271 O 213.024 -1.66788 -0.635921 0
M  V30 2272 C 210.124 -3.20032 -1.11503 0
M  V30 2273 C 209.297 -4.34792 -0.476955 0
M  V30 2274 C 208.356 -5.06534 -1.42513 0
M  V30 2275 O 207.382 -5.61538 -0.930771 0
M  V30 2276 N 208.584 -5.1075 -2.75889 0
M  V30 2277 H 211.349 -2.92029 0.673731 0
M  V30 2278 H 208.91 -1.53846 0.50427 0
M  V30 2279 H 210.902 -3.64892 -1.75032 0
M  V30 2280 H 209.472 -2.58658 -1.75541 0
M  V30 2281 H 208.692 -3.92752 0.337572 0
M  V30 2282 H 209.98 -5.0879 -0.0318525 0
M  V30 2283 H 209.378 -4.67447 -3.18606 0
M  V30 2284 H 207.935 -5.59302 -3.347 0
M  V30 2285 N 211.368 -0.403325 -1.52352 0
M  V30 2286 C 212.593 0.176499 -2.06648 0
M  V30 2287 C 213.018 1.38577 -1.27193 0
M  V30 2288 O 212.376 1.7879 -0.300637 0
M  V30 2289 C 212.424 0.511061 -3.5696 0
M  V30 2290 O 211.528 1.60294 -3.79973 0
M  V30 2291 H 210.869 0.0167337 -0.663789 0
M  V30 2292 H 213.399 -0.574848 -1.96359 0
M  V30 2293 H 213.409 0.771362 -4.00642 0
M  V30 2294 H 212.084 -0.37296 -4.14224 0
M  V30 2295 H 210.661 1.33526 -3.48174 0
M  V30 2296 N 212.846 1.57033 -0.133567 0
M  V30 2297 C 214.076 1.99754 0.527429 0
M  V30 2298 C 214.484 1.01245 1.59832 0
M  V30 2299 O 213.827 -0.000645496 1.837 0
M  V30 2300 C 213.889 3.38903 1.19939 0
M  V30 2301 C 213.553 4.56174 0.274709 0
M  V30 2302 C 214.55 5.17563 -0.492398 0
M  V30 2303 C 212.235 5.01972 0.18153 0
M  V30 2304 C 214.229 6.2315 -1.34027 0
M  V30 2305 C 211.916 6.07416 -0.669958 0
M  V30 2306 C 212.914 6.67874 -1.42947 0
M  V30 2307 O 212.602 7.71279 -2.2668 0
M  V30 2308 H 212.334 0.660702 0.142999 0
M  V30 2309 H 214.888 2.04207 -0.221099 0
M  V30 2310 H 213.118 3.31248 1.99528 0
M  V30 2311 H 214.807 3.65818 1.75875 0
M  V30 2312 H 215.573 4.83087 -0.430367 0
M  V30 2313 H 211.452 4.54652 0.762422 0
M  V30 2314 H 214.996 6.70268 -1.93357 0
M  V30 2315 H 210.893 6.41321 -0.73333 0
M  V30 2316 H 211.661 7.88441 -2.1978 0
M  V30 2317 N 214.325 -0.140222 1.56975 0
M  V30 2318 C 215.258 -1.20266 1.93936 0
M  V30 2319 C 216.236 -1.41212 0.806099 0
M  V30 2320 O 217.42 -1.55713 1.06234 0
M  V30 2321 C 214.547 -2.56037 2.21726 0
M  V30 2322 C 213.593 -2.51646 3.44349 0
M  V30 2323 S 214.426 -1.97678 4.97678 0
M  V30 2324 C 215.582 -3.35165 5.28597 0
M  V30 2325 H 215.815 -0.887358 2.83749 0
M  V30 2326 H 213.348 -0.346119 1.50471 0
M  V30 2327 H 215.306 -3.34167 2.38416 0
M  V30 2328 H 213.967 -2.84755 1.32566 0
M  V30 2329 H 213.16 -3.51608 3.61092 0
M  V30 2330 H 212.762 -1.81628 3.26936 0
M  V30 2331 H 215.054 -4.31302 5.2248 0
M  V30 2332 H 215.997 -3.23269 6.30002 0
M  V30 2333 H 216.405 -3.32614 4.56101 0
M  V30 2334 N 215.803 -1.52179 -0.40978 0
M  V30 2335 C 217.214 -1.58377 -0.988615 0
M  V30 2336 C 217.565 -0.423879 -1.91566 0
M  V30 2337 O 216.69 0.455844 -2.11544 0
M  V30 2338 C 217.285 -2.87044 -1.79976 0
M  V30 2339 C 215.844 -2.95722 -2.32863 0
M  V30 2340 C 214.991 -2.53309 -1.12828 0
M  V30 2341 H 217.942 -1.57558 -0.190039 0
M  V30 2342 H 217.963 -2.7236 -2.65707 0
M  V30 2343 H 217.475 -3.71444 -1.12478 0
M  V30 2344 H 215.576 -2.15814 -3.03735 0
M  V30 2345 H 215.689 -3.99951 -2.63773 0
M  V30 2346 H 214.053 -2.07142 -1.48204 0
M  V30 2347 H 214.836 -3.40082 -0.46897 0
M  V30 2348 N 217.281 0.66697 -1.42791 0
M  V30 2349 C 218.692 1.2478 -1.38877 0
M  V30 2350 C 219.043 1.96012 -0.0859426 0
M  V30 2351 O 218.168 2.00463 0.815081 0
M  V30 2352 C 218.763 2.26938 -2.51564 0
M  V30 2353 C 217.322 2.80529 -2.50959 0
M  V30 2354 C 216.469 1.54965 -2.29959 0
M  V30 2355 H 219.42 0.459853 -1.51892 0
M  V30 2356 H 219.441 3.08834 -2.22265 0
M  V30 2357 H 218.953 1.75065 -3.46372 0
M  V30 2358 H 217.054 3.36502 -1.59991 0
M  V30 2359 H 217.167 3.29012 -3.48265 0
M  V30 2360 H 215.531 1.81817 -1.78366 0
M  V30 2361 H 216.314 1.05047 -3.26833 0
M  V30 2362 N 218.759 1.29093 0.90403 0
M  V30 2363 C 220.036 1.075 1.63411 0
M  V30 2364 C 220.416 -0.382346 2.07609 0
M  V30 2365 O 219.764 -1.37031 1.82851 0
M  V30 2366 C 219.974 2.05858 2.81822 0
M  V30 2367 C 221.322 2.36539 3.52611 0
M  V30 2368 O 222.346 2.04019 2.91984 0
M  V30 2369 O 221.205 2.92085 4.61897 0
M  V30 2370 H 218.299 0.411547 0.717327 0
M  V30 2371 H 220.845 1.40449 0.952479 0
M  V30 2372 H 219.617 3.04037 2.46327 0
M  V30 2373 H 219.24 1.73613 3.57693 0
M  V30 2374 N 220.237 -1.11381 1.11499 0
M  V30 2375 C 221.462 -1.87475 0.887019 0
M  V30 2376 C 221.887 -1.79639 -0.557796 0
M  V30 2377 O 221.245 -1.15924 -1.39396 0
M  V30 2378 C 221.293 -3.34213 1.35403 0
M  V30 2379 O 220.397 -4.0903 0.526146 0
M  V30 2380 H 219.738 -0.582099 0.319463 0
M  V30 2381 H 222.268 -1.40785 1.48461 0
M  V30 2382 H 222.278 -3.8506 1.34881 0
M  V30 2383 H 220.953 -3.39232 2.40612 0
M  V30 2384 H 219.53 -3.68082 0.597522 0
M  V30 2385 N 221.715 -0.905404 -1.28997 0
M  V30 2386 C 222.94 -0.549175 -1.99997 0
M  V30 2387 C 223.365 0.860276 -1.67275 0
M  V30 2388 O 222.723 1.57355 -0.900502 0
M  V30 2389 C 222.771 -0.755185 -3.52604 0
M  V30 2390 O 221.875 0.189692 -4.11964 0
M  V30 2391 H 221.216 -0.213899 -0.628604 0
M  V30 2392 H 223.746 -1.21856 -1.64354 0
M  V30 2393 H 223.756 -0.662045 -4.02593 0
M  V30 2394 H 222.431 -1.78271 -3.75755 0
M  V30 2395 H 221.008 0.0485257 -3.72868 0
M  V30 2396 N 223.193 1.4272 -0.668489 0
M  V30 2397 C 224.418 2.06484 -0.194758 0
M  V30 2398 C 224.843 1.49862 1.13679 0
M  V30 2399 O 224.201 0.614582 1.70565 0
M  V30 2400 C 224.249 3.60353 -0.133546 0
M  V30 2401 O 223.353 4.02464 0.899806 0
M  V30 2402 H 222.694 0.656137 -0.10188 0
M  V30 2403 H 225.224 1.82964 -0.915722 0
M  V30 2404 H 225.234 4.07976 0.0447041 0
M  V30 2405 H 223.909 4.00938 -1.1055 0
M  V30 2406 H 222.486 3.66402 0.693109 0
M  V30 2407 N 224.671 0.411399 1.52136 0
M  V30 2408 C 226.082 -0.0576826 1.86611 0
M  V30 2409 C 226.433 -1.44238 1.33003 0
M  V30 2410 O 225.558 -2.05759 0.670228 0
M  V30 2411 C 226.153 -0.111448 3.38617 0
M  V30 2412 C 224.712 -0.52487 3.72723 0
M  V30 2413 C 223.859 0.299176 2.75681 0
M  V30 2414 H 226.81 0.628368 1.4573 0
M  V30 2415 H 226.831 -0.926252 3.69054 0
M  V30 2416 H 226.343 0.896488 3.77604 0
M  V30 2417 H 224.444 -1.53936 3.39315 0
M  V30 2418 H 224.557 -0.267681 4.78352 0
M  V30 2419 H 222.921 -0.238814 2.53578 0
M  V30 2420 H 223.704 1.3055 3.17508 0
M  V30 2421 N 226.149 -1.5696 0.141893 0
M  V30 2422 C 227.059 -2.20066 -0.812905 0
M  V30 2423 C 228.075 -1.18344 -1.27557 0
M  V30 2424 O 229.251 -1.50902 -1.33381 0
M  V30 2425 C 226.316 -2.80583 -2.03652 0
M  V30 2426 C 225.377 -3.97414 -1.62359 0
M  V30 2427 C 224.61 -4.55036 -2.78887 0
M  V30 2428 O 224.833 -4.11538 -3.94959 0
M  V30 2429 O 223.767 -5.45376 -2.54653 0
M  V30 2430 H 227.593 -3.02157 -0.305746 0
M  V30 2431 H 225.178 -1.49159 -0.0848799 0
M  V30 2432 H 227.06 -3.19067 -2.75272 0
M  V30 2433 H 225.735 -2.01508 -2.5333 0
M  V30 2434 H 224.642 -3.63656 -0.877775 0
M  V30 2435 H 225.975 -4.77994 -1.17401 0
M  V30 2436 N 227.627 0.131896 -1.57047 0
M  V30 2437 C 228.575 1.18146 -2.0036 0
M  V30 2438 C 229.569 1.43614 -0.898406 0
M  V30 2439 O 230.775 1.43729 -1.08361 0
M  V30 2440 H 227.15 0.398042 -0.638018 0
M  V30 2441 H 229.121 0.789564 -2.87765 0
M  V30 2442 C 227.87 2.50341 -2.41298 0
M  V30 2443 H 227.193 2.31578 -3.25902 0
M  V30 2444 H 228.633 3.22371 -2.75414 0
M  V30 2445 C 227.092 3.11984 -1.27153 0
M  V30 2446 O 227.622 3.97484 -0.580459 0
M  V30 2447 N 225.828 2.71662 -1.03189 0
M  V30 2448 H 225.375 2.02231 -1.59564 0
M  V30 2449 H 225.333 3.13238 -0.270077 0
M  V30 2450 N 229.106 1.52395 0.401703 0
M  V30 2451 C 230.053 1.76268 1.48991 0
M  V30 2452 C 231.023 0.605386 1.54675 0
M  V30 2453 O 232.208 0.843742 1.7113 0
M  V30 2454 C 229.348 1.92592 2.86361 0
M  V30 2455 C 228.461 3.20259 2.89928 0
M  V30 2456 C 227.596 3.26972 4.18644 0
M  V30 2457 C 226.635 4.48812 4.16214 0
M  V30 2458 N 225.772 4.52877 5.36514 0
M  V30 2459 H 230.612 2.6914 1.27935 0
M  V30 2460 H 228.149 1.33355 0.620871 0
M  V30 2461 H 230.107 2.0004 3.66115 0
M  V30 2462 H 228.737 1.03093 3.05895 0
M  V30 2463 H 227.789 3.21945 2.02621 0
M  V30 2464 H 229.101 4.10056 2.83999 0
M  V30 2465 H 228.255 3.33533 5.06794 0
M  V30 2466 H 226.994 2.35126 4.27278 0
M  V30 2467 H 225.999 4.4239 3.26453 0
M  V30 2468 H 227.224 5.41961 4.09213 0
M  V30 2469 H 225.17 3.63917 5.45802 0
M  V30 2470 H 225.087 5.36529 5.32609 0
M  V30 2471 H 226.355 4.63676 6.26597 0
M  V30 2472 N 230.584 -0.659388 1.43143 0
M  V30 2473 C 231.809 -1.45221 1.48073 0
M  V30 2474 C 232.234 -1.87845 0.097995 0
M  V30 2475 O 231.592 -1.56985 -0.90694 0
M  V30 2476 C 231.64 -2.66748 2.42647 0
M  V30 2477 O 230.744 -3.65583 1.90848 0
M  V30 2478 H 230.085 -0.435669 0.501088 0
M  V30 2479 H 232.615 -0.807432 1.87994 0
M  V30 2480 H 232.625 -3.14637 2.59745 0
M  V30 2481 H 231.3 -2.35067 3.43098 0
M  V30 2482 H 229.877 -3.24693 1.83381 0
M  V30 2483 N 232.062 -1.29571 -0.897171 0
M  V30 2484 C 232.992 -1.17473 -2.01798 0
M  V30 2485 C 233.973 -0.068323 -1.69963 0
M  V30 2486 O 235.158 -0.248239 -1.92607 0
M  V30 2487 C 232.288 -0.853099 -3.36659 0
M  V30 2488 C 231.242 -1.9161 -3.82713 0
M  V30 2489 C 230.568 -1.44773 -5.14728 0
M  V30 2490 C 231.868 -3.32535 -4.02763 0
M  V30 2491 H 233.562 -2.11237 -2.12177 0
M  V30 2492 H 231.108 -1.01699 -1.01948 0
M  V30 2493 H 233.061 -0.755165 -4.14578 0
M  V30 2494 H 231.785 0.120236 -3.26379 0
M  V30 2495 H 230.444 -2.00346 -3.07013 0
M  V30 2496 H 230.092 -0.462995 -5.00865 0
M  V30 2497 H 229.792 -2.15865 -5.46513 0
M  V30 2498 H 231.316 -1.36334 -5.95185 0
M  V30 2499 H 232.73 -3.26626 -4.71156 0
M  V30 2500 H 231.127 -4.01607 -4.45905 0
M  V30 2501 H 232.197 -3.75326 -3.07016 0
M  V30 2502 N 233.54 1.10788 -1.12088 0
M  V30 2503 C 234.45 2.20599 -0.798338 0
M  V30 2504 C 235.466 1.72712 0.21135 0
M  V30 2505 O 236.642 2.01348 0.0458477 0
M  V30 2506 C 233.707 3.45771 -0.253674 0
M  V30 2507 C 232.768 4.08411 -1.32283 0
M  V30 2508 C 232.001 5.27608 -0.80406 0
M  V30 2509 O 232.224 5.69241 0.363478 0
M  V30 2510 O 231.158 5.8101 -1.57198 0
M  V30 2511 H 234.984 2.50614 -1.7154 0
M  V30 2512 H 232.569 1.19454 -0.897275 0
M  V30 2513 H 234.451 4.21376 0.0453691 0
M  V30 2514 H 233.126 3.1739 0.636005 0
M  V30 2515 H 232.033 3.34507 -1.67499 0
M  V30 2516 H 233.366 4.40986 -2.18614 0
M  V30 2517 N 235.018 0.912232 1.28515 0
M  V30 2518 C 236.264 0.545405 1.95328 0
M  V30 2519 C 236.597 -0.908313 1.71649 0
M  V30 2520 O 235.872 -1.64575 1.03659 0
M  V30 2521 C 236.155 0.853483 3.4984 0
M  V30 2522 C 236.008 2.35982 3.82926 0
M  V30 2523 C 237.327 0.348589 4.38717 0
M  V30 2524 H 234.446 0.199626 0.709449 0
M  V30 2525 H 237.088 1.1412 1.5191 0
M  V30 2526 H 235.238 0.34643 3.86952 0
M  V30 2527 H 236.91 2.93738 3.55691 0
M  V30 2528 H 235.153 2.81543 3.30024 0
M  V30 2529 H 235.824 2.52593 4.90816 0
M  V30 2530 H 238.3 0.78294 4.08668 0
M  V30 2531 H 237.176 0.593242 5.45685 0
M  V30 2532 H 237.437 -0.751049 4.35674 0
M  V30 2533 N 236.496 -1.42363 0.676048 0
M  V30 2534 C 237.721 -2.06377 0.205705 0
M  V30 2535 C 238.146 -1.50463 -1.12883 0
M  V30 2536 O 237.504 -0.623619 -1.70237 0
M  V30 2537 C 237.552 -3.60277 0.152655 0
M  V30 2538 O 236.656 -4.02935 -0.87845 0
M  V30 2539 H 235.997 -0.655588 0.105359 0
M  V30 2540 H 238.527 -1.82475 0.925412 0
M  V30 2541 H 238.537 -4.07993 -0.0230675 0
M  V30 2542 H 237.212 -4.00346 1.12675 0
M  V30 2543 H 235.789 -3.66764 -0.673668 0
M  V30 2544 N 237.974 -0.419461 -1.51915 0
M  V30 2545 C 239.251 0.211999 -1.94448 0
M  V30 2546 C 239.631 1.61703 -1.35703 0
M  V30 2547 O 238.979 2.22102 -0.536931 0
M  V30 2548 C 239.189 0.207872 -3.4838 0
M  V30 2549 C 240.537 0.422192 -4.22496 0
M  V30 2550 O 241.561 0.286778 -3.55044 0
M  V30 2551 O 240.42 0.690009 -5.42126 0
M  V30 2552 H 237.514 0.139586 -0.815135 0
M  V30 2553 H 240.06 -0.476151 -1.62883 0
M  V30 2554 H 238.832 -0.775102 -3.83546 0
M  V30 2555 H 238.455 0.939688 -3.86336 0
M  V30 2556 N 239.452 1.56882 -0.150215 0
M  V30 2557 C 240.68 2.00593 0.506948 0
M  V30 2558 C 241.095 1.03033 1.58208 0
M  V30 2559 O 240.452 0.0278396 1.82479 0
M  V30 2560 C 240.503 3.44209 1.10465 0
M  V30 2561 O 240.224 4.3804 0.0724636 0
M  V30 2562 C 241.725 4.03214 1.84211 0
M  V30 2563 H 238.945 0.65795 0.13169 0
M  V30 2564 H 241.489 2.03018 -0.245743 0
M  V30 2565 H 239.644 3.42625 1.80795 0
M  V30 2566 H 240.058 5.22007 0.510793 0
M  V30 2567 H 241.532 5.0569 2.21318 0
M  V30 2568 H 242.009 3.44107 2.72923 0
M  V30 2569 H 242.615 4.08437 1.18572 0
M  V30 2570 N 240.93 -0.123565 1.57115 0
M  V30 2571 C 242.346 -0.476961 1.52306 0
M  V30 2572 C 242.546 -1.82109 0.86248 0
M  V30 2573 O 241.602 -2.48586 0.442884 0
M  V30 2574 C 242.915 -0.465661 2.97073 0
M  V30 2575 C 244.463 -0.549534 3.08138 0
M  V30 2576 C 244.938 -0.568669 4.54456 0
M  V30 2577 N 246.429 -0.630237 4.58892 0
M  V30 2578 C 247.164 -0.666415 5.69514 0
M  V30 2579 N 246.66 -0.660514 6.89644 0
M  V30 2580 N 248.453 -0.709077 5.5761 0
M  V30 2581 H 240.604 0.757198 1.98445 0
M  V30 2582 H 242.867 0.278808 0.906074 0
M  V30 2583 H 242.573 0.454232 3.48754 0
M  V30 2584 H 242.447 -1.29513 3.54269 0
M  V30 2585 H 244.834 -1.45985 2.56461 0
M  V30 2586 H 244.915 0.307532 2.53945 0
M  V30 2587 H 244.559 0.337581 5.06777 0
M  V30 2588 H 244.489 -1.44256 5.06456 0
M  V30 2589 H 246.98 -0.641146 3.72421 0
M  V30 2590 H 247.293 -0.690616 7.69708 0
M  V30 2591 H 245.638 -0.628012 6.92157 0
M  V30 2592 H 248.829 -0.711019 4.62668 0
M  V30 2593 H 249.002 -0.733804 6.43832 0
M  V30 2594 N 242.408 -1.52605 -0.393616 0
M  V30 2595 C 243.655 -1.67424 -1.1391 0
M  V30 2596 C 243.983 -0.411859 -1.90089 0
M  V30 2597 O 243.238 0.605626 -1.86093 0
M  V30 2598 C 243.537 -2.85721 -2.14705 0
M  V30 2599 C 243.203 -4.23342 -1.55218 0
M  V30 2600 C 241.865 -4.60771 -1.3872 0
M  V30 2601 C 244.217 -5.09041 -1.11924 0
M  V30 2602 C 241.545 -5.81563 -0.774689 0
M  V30 2603 C 243.897 -6.30452 -0.520853 0
M  V30 2604 C 242.561 -6.66617 -0.343134 0
M  V30 2605 H 241.831 -0.612648 -0.416826 0
M  V30 2606 H 244.478 -1.8674 -0.424315 0
M  V30 2607 H 242.783 -2.60803 -2.92385 0
M  V30 2608 H 244.48 -2.94382 -2.72288 0
M  V30 2609 H 241.07 -3.93855 -1.69045 0
M  V30 2610 H 245.254 -4.80695 -1.23473 0
M  V30 2611 H 240.51 -6.08196 -0.625154 0
M  V30 2612 H 244.684 -6.96175 -0.177065 0
M  V30 2613 H 242.311 -7.60083 0.133571 0
M  V30 2614 N 243.887 0.651787 -1.4349 0
M  V30 2615 C 244.837 1.75783 -1.45205 0
M  V30 2616 C 245.821 1.57679 -0.320328 0
M  V30 2617 O 247.013 1.67767 -0.564211 0
M  V30 2618 C 244.142 3.14377 -1.3792 0
M  V30 2619 C 243.228 3.38023 -2.56127 0
M  V30 2620 N 243.619 3.32135 -3.81471 0
M  V30 2621 C 241.917 3.68747 -2.50882 0
M  V30 2622 C 242.618 3.55902 -4.60118 0
M  V30 2623 N 241.594 3.77783 -3.90872 0
M  V30 2624 H 245.396 1.69657 -2.39987 0
M  V30 2625 H 242.91 0.853508 -1.38163 0
M  V30 2626 H 244.907 3.93666 -1.37231 0
M  V30 2627 H 243.567 3.21683 -0.441596 0
M  V30 2628 H 244.578 3.11515 -4.13738 0
M  V30 2629 H 241.255 3.8316 -1.65816 0
M  V30 2630 H 242.645 3.57116 -5.69138 0
M  V30 2631 N 245.365 1.30045 0.890287 0
M  V30 2632 C 246.59 1.21598 1.68014 0
M  V30 2633 C 247.015 -0.218678 1.86825 0
M  V30 2634 O 246.373 -1.15756 1.39536 0
M  V30 2635 C 246.421 1.94434 3.03691 0
M  V30 2636 O 245.525 1.2678 3.92429 0
M  V30 2637 H 244.866 0.420856 0.513592 0
M  V30 2638 H 247.396 1.71775 1.11151 0
M  V30 2639 H 247.406 2.03251 3.5377 0
M  V30 2640 H 246.081 2.98777 2.89318 0
M  V30 2641 H 244.658 1.26282 3.50866 0
M  V30 2642 N 246.843 -1.10192 1.12674 0
M  V30 2643 C 248.09 -1.82205 0.883606 0
M  V30 2644 C 248.418 -1.8532 -0.590492 0
M  V30 2645 O 247.673 -1.31137 -1.45264 0
M  V30 2646 C 247.972 -3.28552 1.4067 0
M  V30 2647 C 247.638 -3.45582 2.89627 0
M  V30 2648 C 246.3 -3.49937 3.30299 0
M  V30 2649 C 248.652 -3.50768 3.85501 0
M  V30 2650 C 245.98 -3.57049 4.65546 0
M  V30 2651 C 248.332 -3.59414 5.20581 0
M  V30 2652 C 246.996 -3.62034 5.60792 0
M  V30 2653 H 246.266 -0.666735 0.323334 0
M  V30 2654 H 248.913 -1.29868 1.40736 0
M  V30 2655 H 247.218 -3.83473 0.80347 0
M  V30 2656 H 248.915 -3.82788 1.19475 0
M  V30 2657 H 245.505 -3.42871 2.57172 0
M  V30 2658 H 249.689 -3.46651 3.55171 0
M  V30 2659 H 244.945 -3.57361 4.96088 0
M  V30 2660 H 249.119 -3.62371 5.94693 0
M  V30 2661 H 246.746 -3.67298 6.6558 0
M  V30 2662 N 248.321 -0.919034 -1.28029 0
M  V30 2663 C 249.546 -0.570357 -1.99403 0
M  V30 2664 C 249.971 0.842486 -1.68178 0
M  V30 2665 O 249.329 1.56391 -0.917141 0
M  V30 2666 C 249.377 -0.792541 -3.51783 0
M  V30 2667 O 248.481 0.145988 -4.12142 0
M  V30 2668 H 247.822 -0.220555 -0.6263 0
M  V30 2669 H 250.352 -1.23592 -1.63053 0
M  V30 2670 H 250.362 -0.704708 -4.01868 0
M  V30 2671 H 249.037 -1.82247 -3.73844 0
M  V30 2672 H 247.614 0.00897528 -3.72899 0
M  V30 2673 N 249.799 1.42003 -0.683588 0
M  V30 2674 C 251.046 2.01413 -0.209514 0
M  V30 2675 C 251.374 1.54088 1.1869 0
M  V30 2676 O 250.629 0.737591 1.81268 0
M  V30 2677 C 250.928 3.56827 -0.202357 0
M  V30 2678 C 250.594 4.23617 -1.54464 0
M  V30 2679 C 249.256 4.41577 -1.91215 0
M  V30 2680 C 251.608 4.61178 -2.42826 0
M  V30 2681 C 248.936 4.9437 -3.15935 0
M  V30 2682 C 251.288 5.15355 -3.66867 0
M  V30 2683 C 249.952 5.31528 -4.03776 0
M  V30 2684 H 249.222 0.737023 -0.0766668 0
M  V30 2685 H 251.869 1.70067 -0.880312 0
M  V30 2686 H 250.174 3.87892 0.551969 0
M  V30 2687 H 251.871 4.00588 0.181793 0
M  V30 2688 H 248.461 4.10004 -1.24877 0
M  V30 2689 H 252.645 4.46968 -2.15717 0
M  V30 2690 H 247.901 5.05076 -3.44541 0
M  V30 2691 H 252.075 5.43402 -4.35531 0
M  V30 2692 H 249.702 5.72199 -5.00492 0
M  V30 2693 N 251.277 0.427512 1.51691 0
M  V30 2694 C 252.507 -0.140986 2.06118 0
M  V30 2695 C 252.915 -1.37854 1.29588 0
M  V30 2696 O 252.258 -1.80411 0.346036 0
M  V30 2697 C 252.32 -0.538276 3.55447 0
M  V30 2698 C 251.984 0.591095 4.53161 0
M  V30 2699 C 252.981 1.46027 4.98971 0
M  V30 2700 C 250.666 0.769028 4.96378 0
M  V30 2701 C 252.66 2.49216 5.8666 0
M  V30 2702 C 250.347 1.80421 5.83859 0
M  V30 2703 C 251.345 2.66417 6.28897 0
M  V30 2704 O 251.033 3.68159 7.14643 0
M  V30 2705 H 250.765 -0.0157455 0.675817 0
M  V30 2706 H 253.319 0.602495 1.96365 0
M  V30 2707 H 251.549 -1.33432 3.6295 0
M  V30 2708 H 253.238 -1.0368 3.92435 0
M  V30 2709 H 254.004 1.33429 4.66285 0
M  V30 2710 H 249.883 0.109273 4.6087 0
M  V30 2711 H 253.427 3.16372 6.21735 0
M  V30 2712 H 249.324 1.93042 6.15959 0
M  V30 2713 H 250.092 3.64622 7.32798 0
M  V30 2714 N 252.755 -1.56801 0.158532 0
M  V30 2715 C 253.665 -2.20916 -0.789518 0
M  V30 2716 C 254.681 -1.1969 -1.26294 0
M  V30 2717 O 255.857 -1.52308 -1.31773 0
M  V30 2718 C 252.922 -2.82727 -2.00665 0
M  V30 2719 C 251.983 -3.99114 -1.58134 0
M  V30 2720 C 251.216 -4.57968 -2.74045 0
M  V30 2721 O 251.439 -4.15704 -3.90572 0
M  V30 2722 O 250.373 -5.48047 -2.48855 0
M  V30 2723 H 254.199 -3.02464 -0.273681 0
M  V30 2724 H 251.784 -1.4924 -0.0690548 0
M  V30 2725 H 253.666 -3.21968 -2.71872 0
M  V30 2726 H 252.341 -2.04184 -2.51179 0
M  V30 2727 H 251.248 -3.64567 -0.839155 0
M  V30 2728 H 252.581 -4.79212 -1.12325 0
M  V30 2729 N 254.233 0.115231 -1.57178 0
M  V30 2730 C 255.163 1.1423 -2.03651 0
M  V30 2731 C 256.144 1.42967 -0.921655 0
M  V30 2732 O 257.329 1.53343 -1.19162 0
M  V30 2733 C 254.459 2.4675 -2.44401 0
M  V30 2734 C 253.413 2.32467 -3.59365 0
M  V30 2735 C 252.739 3.69984 -3.86026 0
M  V30 2736 C 254.039 1.78203 -4.90959 0
M  V30 2737 H 255.733 0.755749 -2.89705 0
M  V30 2738 H 253.279 0.362093 -1.39373 0
M  V30 2739 H 255.232 3.18854 -2.75517 0
M  V30 2740 H 253.956 2.87302 -1.55322 0
M  V30 2741 H 252.615 1.62811 -3.28463 0
M  V30 2742 H 252.263 4.08028 -2.94147 0
M  V30 2743 H 251.963 3.61279 -4.63412 0
M  V30 2744 H 253.487 4.43587 -4.19599 0
M  V30 2745 H 254.901 2.40128 -5.20587 0
M  V30 2746 H 253.298 1.8031 -5.72371 0
M  V30 2747 H 254.368 0.739876 -4.79222 0
M  V30 2748 N 255.711 1.52812 0.385517 0
M  V30 2749 C 256.658 1.77838 1.47113 0
M  V30 2750 C 257.628 0.621757 1.54024 0
M  V30 2751 O 258.813 0.861846 1.70226 0
M  V30 2752 C 255.953 1.95618 2.84302 0
M  V30 2753 C 255.066 3.23316 2.86515 0
M  V30 2754 C 254.201 3.31394 4.15152 0
M  V30 2755 C 253.24 4.53201 4.1143 0
M  V30 2756 N 252.377 4.58542 5.3168 0
M  V30 2757 H 257.217 2.70482 1.25073 0
M  V30 2758 H 254.754 1.34006 0.606692 0
M  V30 2759 H 256.712 2.03912 3.63972 0
M  V30 2760 H 255.342 1.06331 3.04784 0
M  V30 2761 H 254.394 3.24076 1.99195 0
M  V30 2762 H 255.706 4.13045 2.79634 0
M  V30 2763 H 254.86 3.3889 5.03228 0
M  V30 2764 H 253.599 2.39645 4.24761 0
M  V30 2765 H 252.604 4.45827 3.21742 0
M  V30 2766 H 253.829 5.46271 4.03442 0
M  V30 2767 H 251.775 3.69686 5.41912 0
M  V30 2768 H 251.692 5.42148 5.26889 0
M  V30 2769 H 252.96 4.70296 6.21644 0
M  V30 2770 N 257.189 -0.644168 1.43834 0
M  V30 2771 C 258.137 -1.77793 1.49974 0
M  V30 2772 C 259.131 -1.65253 0.372536 0
M  V30 2773 O 260.337 -1.7149 0.546924 0
M  V30 2774 H 256.712 -0.58675 0.47035 0
M  V30 2775 H 258.683 -1.69736 2.45423 0
M  V30 2776 C 257.432 -3.16087 1.4486 0
M  V30 2777 H 256.755 -3.26378 2.30905 0
M  V30 2778 H 258.195 -3.95349 1.53217 0
M  V30 2779 C 256.654 -3.36484 0.167463 0
M  V30 2780 O 257.184 -3.94298 -0.767609 0
M  V30 2781 N 255.39 -2.90504 0.0747556 0
M  V30 2782 H 254.937 -2.4364 0.836507 0
M  V30 2783 H 254.895 -3.04527 -0.781714 0
M  V30 2784 N 258.668 -1.30515 -0.883378 0
M  V30 2785 C 259.914 -1.19607 -1.63774 0
M  V30 2786 C 260.247 0.248314 -1.92606 0
M  V30 2787 O 259.522 1.17742 -1.54813 0
M  V30 2788 C 259.805 -2.02669 -2.97653 0
M  V30 2789 C 259.658 -3.55335 -2.75784 0
M  V30 2790 C 260.977 -1.86573 -3.98596 0
M  V30 2791 H 258.096 -0.435856 -0.594305 0
M  V30 2792 H 260.738 -1.60165 -1.02212 0
M  V30 2793 H 258.888 -1.68208 -3.50197 0
M  V30 2794 H 260.56 -3.99863 -2.30016 0
M  V30 2795 H 258.803 -3.79438 -2.1026 0
M  V30 2796 H 259.474 -4.08745 -3.70988 0
M  V30 2797 H 261.95 -2.16703 -3.55217 0
M  V30 2798 H 260.826 -2.47014 -4.90179 0
M  V30 2799 H 261.087 -0.825321 -4.34328 0
M  V30 2800 N 260.146 1.09593 -1.13257 0
M  V30 2801 C 261.374 1.855 -0.916378 0
M  V30 2802 C 261.789 1.81069 0.534738 0
M  V30 2803 O 261.146 1.20562 1.37007 0
M  V30 2804 C 261.197 3.33546 -1.39388 0
M  V30 2805 O 260.918 3.37927 -2.78813 0
M  V30 2806 C 262.419 4.26299 -1.21588 0
M  V30 2807 H 259.639 0.585991 -0.326887 0
M  V30 2808 H 262.183 1.38488 -1.5047 0
M  V30 2809 H 260.338 3.77992 -0.848597 0
M  V30 2810 H 260.752 4.30254 -2.9997 0
M  V30 2811 H 262.226 5.28341 -1.59876 0
M  V30 2812 H 262.703 4.38918 -0.157376 0
M  V30 2813 H 263.309 3.87668 -1.7491 0
M  V30 2814 N 261.624 0.925811 1.2754 0
M  V30 2815 C 262.572 0.413897 2.28888 0
M  V30 2816 C 263.566 -0.500779 1.61829 0
M  V30 2817 O 264.772 -0.38069 1.75928 0
M  V30 2818 H 261.147 0.115274 0.743112 0
M  V30 2819 H 263.118 1.28151 2.69481 0
M  V30 2820 C 261.867 -0.319792 3.46226 0
M  V30 2821 H 261.19 0.374846 3.98039 0
M  V30 2822 H 262.63 -0.642435 4.19105 0
M  V30 2823 C 261.089 -1.53209 3.00048 0
M  V30 2824 O 261.619 -2.6309 3.03557 0
M  V30 2825 N 259.825 -1.38326 2.55566 0
M  V30 2826 H 259.372 -0.489292 2.5291 0
M  V30 2827 H 259.33 -2.19564 2.25031 0
M  V30 2828 N 263.102 -1.41638 0.69111 0
M  V30 2829 C 264.05 -2.32597 0.0115199 0
M  V30 2830 C 265.044 -1.5072 -0.773296 0
M  V30 2831 O 266.25 -1.66685 -0.67942 0
M  V30 2832 H 262.625 -0.751849 -0.0150746 0
M  V30 2833 H 264.596 -2.87593 0.795791 0
M  V30 2834 C 263.345 -3.35467 -0.914172 0
M  V30 2835 H 262.668 -3.9852 -0.319687 0
M  V30 2836 H 264.108 -4.01662 -1.35808 0
M  V30 2837 C 262.567 -2.69004 -2.02826 0
M  V30 2838 O 263.097 -2.53444 -3.11655 0
M  V30 2839 N 261.303 -2.2777 -1.80469 0
M  V30 2840 H 260.85 -2.40626 -0.919615 0
M  V30 2841 H 260.808 -1.83635 -2.55197 0
M  V30 2842 N 264.58 -0.43555 -1.51462 0
M  V30 2843 C 265.827 0.131514 -2.02072 0
M  V30 2844 C 266.155 1.42868 -1.31981 0
M  V30 2845 O 265.41 1.91076 -0.422883 0
M  V30 2846 C 265.709 0.39942 -3.55161 0
M  V30 2847 C 265.375 -0.81172 -4.43533 0
M  V30 2848 C 264.037 -1.14387 -4.67407 0
M  V30 2849 C 266.389 -1.61976 -4.95392 0
M  V30 2850 C 263.717 -2.28477 -5.40384 0
M  V30 2851 C 266.069 -2.75164 -5.6962 0
M  V30 2852 C 264.733 -3.08835 -5.91758 0
M  V30 2853 H 264.003 0.0481244 -0.739436 0
M  V30 2854 H 266.65 -0.58238 -1.8243 0
M  V30 2855 H 264.955 1.19519 -3.73125 0
M  V30 2856 H 266.652 0.85157 -3.91854 0
M  V30 2857 H 263.242 -0.542898 -4.25148 0
M  V30 2858 H 267.426 -1.37637 -4.76833 0
M  V30 2859 H 262.682 -2.5488 -5.55739 0
M  V30 2860 H 266.856 -3.38147 -6.08793 0
M  V30 2861 H 264.483 -3.97353 -6.48086 0
M  V30 2862 N 266.058 1.56714 -0.166846 0
M  V30 2863 C 267.335 1.88412 0.525373 0
M  V30 2864 C 267.715 1.07602 1.81618 0
M  V30 2865 O 267.063 0.168621 2.27877 0
M  V30 2866 C 267.273 3.40363 0.771613 0
M  V30 2867 C 268.621 4.10007 1.1036 0
M  V30 2868 O 269.645 3.45655 0.860304 0
M  V30 2869 O 268.504 5.2369 1.56239 0
M  V30 2870 H 265.598 0.781587 0.270278 0
M  V30 2871 H 268.144 1.68458 -0.204946 0
M  V30 2872 H 266.916 3.91046 -0.141093 0
M  V30 2873 H 266.539 3.65914 1.55541 0
M  V30 2874 N 267.536 -0.106894 1.57237 0
M  V30 2875 C 268.446 -1.14911 2.0453 0
M  V30 2876 C 269.462 -1.44592 0.96795 0
M  V30 2877 O 270.638 -1.55468 1.2803 0
M  V30 2878 C 267.703 -2.45272 2.45036 0
M  V30 2879 C 266.764 -2.22879 3.66911 0
M  V30 2880 C 265.997 -3.47024 4.05475 0
M  V30 2881 O 266.22 -4.54804 3.44252 0
M  V30 2882 O 265.154 -3.3731 4.98504 0
M  V30 2883 H 268.98 -0.777461 2.9358 0
M  V30 2884 H 266.565 -0.318563 1.45964 0
M  V30 2885 H 268.447 -3.22055 2.71769 0
M  V30 2886 H 267.122 -2.81886 1.59129 0
M  V30 2887 H 266.029 -1.43915 3.45311 0
M  V30 2888 H 267.362 -1.91163 4.53561 0
M  V30 2889 N 269.014 -1.53014 -0.377408 0
M  V30 2890 C 270.43 -1.42523 -0.718281 0
M  V30 2891 C 270.63 -0.55487 -1.9371 0
M  V30 2892 O 269.686 -0.0327593 -2.52479 0
M  V30 2893 C 270.999 -2.85546 -0.942539 0
M  V30 2894 C 272.547 -2.95101 -1.04329 0
M  V30 2895 C 273.022 -4.3916 -1.3001 0
M  V30 2896 N 274.513 -4.42536 -1.36806 0
M  V30 2897 C 275.248 -5.51097 -1.58364 0
M  V30 2898 N 274.744 -6.69724 -1.77317 0
M  V30 2899 N 276.537 -5.38657 -1.60638 0
M  V30 2900 H 268.688 -2.08116 0.424426 0
M  V30 2901 H 270.951 -0.939352 0.127759 0
M  V30 2902 H 270.657 -3.51499 -0.118929 0
M  V30 2903 H 270.531 -3.28493 -1.85397 0
M  V30 2904 H 272.918 -2.29309 -1.85745 0
M  V30 2905 H 272.999 -2.55566 -0.109505 0
M  V30 2906 H 272.643 -5.05521 -0.490991 0
M  V30 2907 H 272.573 -4.76258 -2.24691 0
M  V30 2908 H 275.064 -3.57039 -1.23821 0
M  V30 2909 H 275.377 -7.48233 -1.93306 0
M  V30 2910 H 273.722 -6.72732 -1.74518 0
M  V30 2911 H 276.913 -4.44948 -1.45391 0
M  V30 2912 H 277.086 -6.2333 -1.77098 0
M  V30 2913 N 270.492 0.636531 -1.44174 0
M  V30 2914 C 271.903 1.21806 -1.41493 0
M  V30 2915 C 272.254 1.95785 -0.1275 0
M  V30 2916 O 271.379 2.02147 0.772376 0
M  V30 2917 C 271.974 2.21551 -2.56321 0
M  V30 2918 C 270.533 2.75143 -2.56853 0
M  V30 2919 C 269.68 1.50052 -2.33195 0
M  V30 2920 H 272.631 0.427531 -1.52833 0
M  V30 2921 H 272.652 3.0405 -2.28765 0
M  V30 2922 H 272.164 1.67679 -3.50008 0
M  V30 2923 H 270.265 3.33033 -1.67093 0
M  V30 2924 H 270.378 3.2155 -3.55165 0
M  V30 2925 H 268.742 1.77993 -1.82183 0
M  V30 2926 H 269.525 0.980903 -3.28988 0
M  V30 2927 N 271.97 1.30982 0.876444 0
M  V30 2928 C 273.219 1.19658 1.62373 0
M  V30 2929 C 273.532 -0.245636 1.94052 0
M  V30 2930 O 274.738 -0.48049 2.67214 0
M  V30 2931 C 273.194 2.09433 2.92687 0
M  V30 2932 C 272.802 3.58613 2.68516 0
M  V30 2933 C 274.546 2.06893 3.70669 0
M  V30 2934 C 272.453 4.40416 3.94699 0
M  V30 2935 H 271.383 0.444268 0.609214 0
M  V30 2936 H 274.034 1.55791 0.969605 0
M  V30 2937 H 272.416 1.66191 3.59439 0
M  V30 2938 H 273.59 4.10058 2.10212 0
M  V30 2939 H 271.905 3.63063 2.03898 0
M  V30 2940 H 274.502 2.65258 4.64265 0
M  V30 2941 H 274.845 1.05448 4.02724 0
M  V30 2942 H 275.378 2.48301 3.10792 0
M  V30 2943 H 272.117 5.42591 3.67798 0
M  V30 2944 H 271.637 3.93731 4.52477 0
M  V30 2945 H 273.316 4.52294 4.62644 0
M  V30 2946 N 273.449 -1.08991 1.13837 0
M  V30 2947 C 274.674 -1.85551 0.926585 0
M  V30 2948 C 275.099 -1.80782 -0.519566 0
M  V30 2949 O 274.457 -1.18855 -1.36906 0
M  V30 2950 C 274.505 -3.31266 1.42462 0
M  V30 2951 O 273.609 -4.07822 0.612789 0
M  V30 2952 H 272.95 -0.575192 0.331738 0
M  V30 2953 H 275.48 -1.37604 1.51414 0
M  V30 2954 H 275.49 -3.82112 1.43019 0
M  V30 2955 H 274.165 -3.34052 2.47754 0
M  V30 2956 H 272.742 -3.66731 0.675463 0
M  V30 2957 N 274.927 -0.932562 -1.27047 0
M  V30 2958 C 276.173 -0.576412 -1.94436 0
M  V30 2959 C 276.506 0.880891 -1.73072 0
M  V30 2960 O 275.781 1.62905 -1.06264 0
M  V30 2961 C 276.064 -0.909031 -3.48437 0
M  V30 2962 C 275.917 -2.42044 -3.79123 0
M  V30 2963 C 277.236 -0.418341 -4.38107 0
M  V30 2964 H 274.355 -0.210888 -0.706184 0
M  V30 2965 H 276.997 -1.16522 -1.50075 0
M  V30 2966 H 275.147 -0.407947 -3.86352 0
M  V30 2967 H 276.819 -2.99359 -3.50973 0
M  V30 2968 H 275.062 -2.86758 -3.25503 0
M  V30 2969 H 275.733 -2.6037 -4.86736 0
M  V30 2970 H 278.209 -0.847856 -4.0737 0
M  V30 2971 H 277.085 -0.679981 -5.44672 0
M  V30 2972 H 277.346 0.681642 -4.36814 0
M  V30 2973 N 276.405 1.4127 -0.698611 0
M  V30 2974 C 277.653 2.00782 -0.230409 0
M  V30 2975 C 277.974 1.5562 1.17505 0
M  V30 2976 O 277.244 0.78815 1.79346 0
M  V30 2977 H 275.824 0.742464 -0.0821944 0
M  V30 2978 H 278.486 1.72852 -0.90045 0
M  V30 2979 H 277.582 3.11095 -0.25021 0
M  V30 2980 N 277.883 0.443576 1.51229 0
M  V30 2981 C 279.131 -0.120557 2.0174 0
M  V30 2982 C 279.452 -1.42665 1.32935 0
M  V30 2983 O 278.722 -1.9028 0.465866 0
M  V30 2984 H 277.302 -0.0475426 0.745486 0
M  V30 2985 H 279.964 0.587711 1.85828 0
M  V30 2986 H 279.06 -0.291972 3.10731 0
M  V30 2987 N 279.361 -1.56624 0.175154 0
M  V30 2988 C 280.309 -2.19468 -0.770495 0
M  V30 2989 C 281.303 -1.15985 -1.23466 0
M  V30 2990 O 282.509 -1.34176 -1.19987 0
M  V30 2991 H 278.884 -0.703095 -0.266761 0
M  V30 2992 H 280.855 -2.97613 -0.216542 0
M  V30 2993 C 279.604 -2.85264 -1.98796 0
M  V30 2994 H 278.927 -3.64623 -1.63983 0
M  V30 2995 H 280.367 -3.327 -2.62843 0
M  V30 2996 C 278.826 -1.85239 -2.81404 0
M  V30 2997 O 279.356 -1.34024 -3.78682 0
M  V30 2998 N 277.562 -1.53911 -2.46495 0
M  V30 2999 H 277.109 -1.95751 -1.67449 0
M  V30 3000 H 277.067 -0.872382 -3.02054 0
M  V30 3001 N 280.839 0.0985539 -1.57292 0
M  V30 3002 C 281.786 1.11981 -2.01814 0
M  V30 3003 C 282.756 1.39999 -0.89384 0
M  V30 3004 O 283.941 1.5152 -1.15958 0
M  V30 3005 C 281.081 2.43577 -2.44467 0
M  V30 3006 C 280.194 2.2232 -3.70402 0
M  V30 3007 C 279.329 3.4729 -4.01949 0
M  V30 3008 C 278.368 3.2128 -5.21005 0
M  V30 3009 N 277.505 4.38507 -5.48321 0
M  V30 3010 H 282.345 0.733149 -2.88841 0
M  V30 3011 H 279.882 0.350482 -1.42864 0
M  V30 3012 H 281.84 3.20373 -2.6724 0
M  V30 3013 H 280.47 2.80097 -1.60455 0
M  V30 3014 H 279.522 1.36343 -3.55126 0
M  V30 3015 H 280.834 1.99089 -4.57345 0
M  V30 3016 H 279.988 4.32495 -4.25479 0
M  V30 3017 H 278.727 3.73572 -3.13521 0
M  V30 3018 H 277.732 2.34468 -4.97298 0
M  V30 3019 H 278.957 2.96348 -6.11028 0
M  V30 3020 H 276.903 4.64871 -4.62851 0
M  V30 3021 H 276.82 4.18455 -6.29628 0
M  V30 3022 H 278.088 5.24787 -5.76385 0
M  V30 3023 N 282.317 1.53212 0.369288 0
M  V30 3024 C 283.25 1.74166 1.4745 0
M  V30 3025 C 284.228 0.589923 1.51521 0
M  V30 3026 O 285.412 0.822078 1.69629 0
M  V30 3027 C 282.539 1.81711 2.8583 0
M  V30 3028 C 281.585 3.03649 2.99499 0
M  V30 3029 S 282.418 4.63242 2.6864 0
M  V30 3030 C 283.574 4.7363 4.09177 0
M  V30 3031 H 283.807 2.67636 1.29454 0
M  V30 3032 H 281.34 1.43754 0.563396 0
M  V30 3033 H 283.298 1.86743 3.65564 0
M  V30 3034 H 281.959 0.89299 3.01139 0
M  V30 3035 H 281.152 3.05526 4.00836 0
M  V30 3036 H 280.754 2.9671 2.27683 0
M  V30 3037 H 283.046 4.53456 5.03372 0
M  V30 3038 H 283.989 5.75682 4.12306 0
M  V30 3039 H 284.397 4.02295 3.96004 0
M  V30 3040 N 283.795 -0.628877 1.44509 0
M  V30 3041 C 285.043 -1.38565 1.4712 0
M  V30 3042 C 285.364 -1.94712 0.105899 0
M  V30 3043 O 284.634 -1.75912 -0.862079 0
M  V30 3044 H 283.214 -0.514333 0.541729 0
M  V30 3045 H 285.876 -0.740018 1.80305 0
M  V30 3046 H 284.972 -2.21583 2.19789 0
M  V30 3047 N 285.273 -1.31445 -0.869486 0
M  V30 3048 C 286.183 -1.21097 -2.0093 0
M  V30 3049 C 287.199 -0.127584 -1.73532 0
M  V30 3050 O 288.375 -0.345477 -1.98415 0
M  V30 3051 C 285.44 -0.919378 -3.34288 0
M  V30 3052 C 284.501 -2.08971 -3.75006 0
M  V30 3053 C 283.734 -1.81194 -5.02001 0
M  V30 3054 O 283.957 -0.747296 -5.65484 0
M  V30 3055 O 282.891 -2.66883 -5.39497 0
M  V30 3056 H 286.717 -2.16883 -2.12592 0
M  V30 3057 H 284.302 -1.11189 -0.997868 0
M  V30 3058 H 286.184 -0.772625 -4.14257 0
M  V30 3059 H 284.859 0.00844772 -3.23699 0
M  V30 3060 H 283.766 -2.29187 -2.95676 0
M  V30 3061 H 285.099 -2.9998 -3.90221 0
M  V30 3062 N 286.751 1.08385 -1.14413 0
M  V30 3063 C 287.999 1.80419 -0.910679 0
M  V30 3064 C 288.32 1.86658 0.564243 0
M  V30 3065 O 287.59 1.35985 1.41014 0
M  V30 3066 H 286.17 0.668204 -0.333934 0
M  V30 3067 H 288.832 1.31037 -1.44275 0
M  V30 3068 H 287.928 2.83238 -1.31082 0
M  V30 3069 N 288.23 0.939286 1.26551 0
M  V30 3070 C 289.478 0.58469 1.93457 0
M  V30 3071 C 289.799 -0.878774 1.74076 0
M  V30 3072 O 289.069 -1.62421 1.09528 0
M  V30 3073 H 287.649 0.21325 0.715914 0
M  V30 3074 H 290.311 1.1942 1.54029 0
M  V30 3075 H 289.407 0.800849 3.0165 0
M  V30 3076 N 289.708 -1.40897 0.706093 0
M  V30 3077 C 290.955 -2.01054 0.241531 0
M  V30 3078 C 291.283 -1.55956 -1.16223 0
M  V30 3079 O 290.538 -0.766336 -1.80072 0
M  V30 3080 C 290.837 -3.5646 0.259099 0
M  V30 3081 C 290.503 -4.21106 1.61184 0
M  V30 3082 C 289.165 -4.38479 1.98216 0
M  V30 3083 C 291.517 -4.57256 2.50132 0
M  V30 3084 C 288.845 -4.89282 3.2376 0
M  V30 3085 C 291.197 -5.09454 3.7502 0
M  V30 3086 C 289.861 -5.25037 4.12181 0
M  V30 3087 H 289.131 -0.73571 0.0883825 0
M  V30 3088 H 291.778 -1.68645 0.907257 0
M  V30 3089 H 290.083 -3.88721 -0.490189 0
M  V30 3090 H 291.78 -4.00826 -0.11804 0
M  V30 3091 H 288.37 -4.07966 1.31384 0
M  V30 3092 H 292.554 -4.43479 2.228 0
M  V30 3093 H 287.81 -4.99531 3.52532 0
M  V30 3094 H 291.984 -5.36404 4.44121 0
M  V30 3095 H 289.611 -5.64164 5.09532 0
M  V30 3096 N 291.186 -0.45159 -1.50991 0
M  V30 3097 C 292.434 0.109857 -2.01801 0
M  V30 3098 C 292.755 1.41958 -1.3369 0
M  V30 3099 O 292.025 1.9003 -0.475951 0
M  V30 3100 H 290.605 0.0435884 -0.745727 0
M  V30 3101 H 293.267 -0.597557 -1.85514 0
M  V30 3102 H 292.363 0.275489 -3.10882 0
M  V30 3103 N 292.664 1.56529 -0.183458 0
M  V30 3104 C 293.91 1.97537 0.459036 0
M  V30 3105 C 294.243 1.06989 1.62071 0
M  V30 3106 O 293.518 0.11948 1.94133 0
M  V30 3107 C 293.801 3.47874 0.930368 0
M  V30 3108 C 293.654 4.492 -0.232317 0
M  V30 3109 C 294.973 4.01612 1.79989 0
M  V30 3110 H 292.092 0.718204 0.165383 0
M  V30 3111 H 294.734 1.88042 -0.272038 0
M  V30 3112 H 292.884 3.56095 1.55333 0
M  V30 3113 H 294.556 4.53027 -0.86972 0
M  V30 3114 H 292.799 4.24657 -0.885928 0
M  V30 3115 H 293.47 5.51823 0.139796 0
M  V30 3116 H 295.946 3.96097 1.27461 0
M  V30 3117 H 294.822 5.07195 2.09867 0
M  V30 3118 H 295.083 3.46163 2.74998 0
M  V30 3119 N 294.142 -0.090211 1.57342 0
M  V30 3120 C 295.388 -0.793982 1.86611 0
M  V30 3121 C 295.721 -1.78142 0.773252 0
M  V30 3122 O 294.996 -1.93271 -0.218304 0
M  V30 3123 C 295.279 -1.51839 3.26523 0
M  V30 3124 C 295.132 -0.548609 4.46442 0
M  V30 3125 C 296.451 -2.46779 3.64401 0
M  V30 3126 H 293.57 -0.287186 0.678744 0
M  V30 3127 H 296.212 -0.0575076 1.89913 0
M  V30 3128 H 294.362 -2.14617 3.23839 0
M  V30 3129 H 296.034 0.0725513 4.61243 0
M  V30 3130 H 294.277 0.137614 4.33582 0
M  V30 3131 H 294.948 -1.09271 5.41076 0
M  V30 3132 H 297.424 -1.94089 3.68061 0
M  V30 3133 H 296.3 -2.94479 4.63221 0
M  V30 3134 H 296.561 -3.30758 2.93346 0
M  V30 3135 N 295.62 -1.53406 -0.361157 0
M  V30 3136 C 296.85 -1.73465 -1.1222 0
M  V30 3137 C 297.258 -0.465486 -1.83384 0
M  V30 3138 O 296.601 0.571611 -1.7458 0
M  V30 3139 C 296.663 -2.84834 -2.19339 0
M  V30 3140 C 296.327 -4.25038 -1.67903 0
M  V30 3141 C 297.324 -5.07231 -1.14074 0
M  V30 3142 C 295.009 -4.71464 -1.73282 0
M  V30 3143 C 297.003 -6.33942 -0.663068 0
M  V30 3144 C 294.69 -5.98153 -1.25127 0
M  V30 3145 C 295.688 -6.79223 -0.717296 0
M  V30 3146 O 295.376 -8.03533 -0.242865 0
M  V30 3147 H 295.108 -0.583526 -0.341283 0
M  V30 3148 H 297.662 -2.00964 -0.424591 0
M  V30 3149 H 295.892 -2.5282 -2.92607 0
M  V30 3150 H 297.581 -2.9303 -2.80871 0
M  V30 3151 H 298.347 -4.72534 -1.09254 0
M  V30 3152 H 294.226 -4.08432 -2.13786 0
M  V30 3153 H 297.77 -6.97167 -0.245612 0
M  V30 3154 H 293.667 -6.32347 -1.29642 0
M  V30 3155 H 294.435 -8.177 -0.361786 0
M  V30 3156 N 297.098 0.621204 -1.44841 0
M  V30 3157 C 298.045 1.73267 -1.5247 0
M  V30 3158 C 299.015 1.6189 -0.371611 0
M  V30 3159 O 300.2 1.81668 -0.58321 0
M  V30 3160 C 297.34 3.11545 -1.48438 0
M  V30 3161 C 296.453 3.33827 -2.74196 0
M  V30 3162 C 295.588 4.62133 -2.61929 0
M  V30 3163 C 294.627 4.77627 -3.82804 0
M  V30 3164 N 293.764 5.97219 -3.69153 0
M  V30 3165 H 298.604 1.66082 -2.47428 0
M  V30 3166 H 296.141 0.810026 -1.22788 0
M  V30 3167 H 298.099 3.91528 -1.4409 0
M  V30 3168 H 296.729 3.1772 -0.570402 0
M  V30 3169 H 295.781 2.47715 -2.88689 0
M  V30 3170 H 297.093 3.41153 -3.6389 0
M  V30 3171 H 296.247 5.50291 -2.5547 0
M  V30 3172 H 294.986 4.57182 -1.69811 0
M  V30 3173 H 293.991 3.87896 -3.89637 0
M  V30 3174 H 295.216 4.84385 -4.75971 0
M  V30 3175 H 293.162 5.93339 -2.79794 0
M  V30 3176 H 293.079 6.05644 -4.52472 0
M  V30 3177 H 294.347 6.87912 -3.66603 0
M  V30 3178 N 298.576 1.31904 0.862503 0
M  V30 3179 C 299.824 1.21776 1.61292 0
M  V30 3180 C 300.145 -0.222413 1.93727 0
M  V30 3181 O 299.415 -1.1451 1.58947 0
M  V30 3182 H 297.995 0.447717 0.597962 0
M  V30 3183 H 300.657 1.65326 1.03215 0
M  V30 3184 H 299.753 1.7948 2.5533 0
M  V30 3185 N 300.054 -1.07777 1.14986 0
M  V30 3186 C 301.284 -1.83752 0.944402 0
M  V30 3187 C 301.692 -1.8218 -0.51058 0
M  V30 3188 O 301.035 -1.22852 -1.36576 0
M  V30 3189 C 301.097 -3.32128 1.37592 0
M  V30 3190 C 300.761 -3.57425 2.84775 0
M  V30 3191 C 301.758 -3.5173 3.8286 0
M  V30 3192 C 299.443 -3.8523 3.2234 0
M  V30 3193 C 301.437 -3.73482 5.16517 0
M  V30 3194 C 299.124 -4.06634 4.56171 0
M  V30 3195 C 300.122 -4.00754 5.53069 0
M  V30 3196 O 299.81 -4.2159 6.84483 0
M  V30 3197 H 299.542 -0.58673 0.335744 0
M  V30 3198 H 302.096 -1.36982 1.53052 0
M  V30 3199 H 300.326 -3.79686 0.733165 0
M  V30 3200 H 302.015 -3.89555 1.14024 0
M  V30 3201 H 302.781 -3.30256 3.55184 0
M  V30 3202 H 298.66 -3.88923 2.47508 0
M  V30 3203 H 302.204 -3.68808 5.92137 0
M  V30 3204 H 298.101 -4.27593 4.83564 0
M  V30 3205 H 298.869 -4.38961 6.90837 0
M  V30 3206 N 301.532 -0.945985 -1.26051 0
M  V30 3207 C 302.778 -0.597002 -1.93814 0
M  V30 3208 C 303.111 0.862484 -1.73997 0
M  V30 3209 O 302.386 1.61769 -1.07986 0
M  V30 3210 C 302.669 -0.945937 -3.47454 0
M  V30 3211 C 302.522 -2.46052 -3.76535 0
M  V30 3212 C 303.841 -0.464785 -4.37639 0
M  V30 3213 H 300.96 -0.218366 -0.703907 0
M  V30 3214 H 303.602 -1.18107 -1.48831 0
M  V30 3215 H 301.752 -0.448902 -3.85898 0
M  V30 3216 H 303.424 -3.03065 -3.47778 0
M  V30 3217 H 301.667 -2.90194 -3.22444 0
M  V30 3218 H 302.338 -2.65517 -4.83947 0
M  V30 3219 H 304.814 -0.891016 -4.06448 0
M  V30 3220 H 303.69 -0.737712 -5.4392 0
M  V30 3221 H 303.951 0.635274 -4.37512 0
M  V30 3222 N 303.011 1.40521 -0.713556 0
M  V30 3223 C 303.959 2.32549 -0.0485227 0
M  V30 3224 C 304.953 1.51931 0.74922 0
M  V30 3225 O 306.159 1.67745 0.652816 0
M  V30 3226 H 302.534 0.751994 0.00311138 0
M  V30 3227 H 304.505 2.86291 -0.841443 0
M  V30 3228 C 303.254 3.36879 0.860687 0
M  V30 3229 H 302.577 3.98978 0.256246 0
M  V30 3230 H 304.017 4.03772 1.294 0
M  V30 3231 C 302.476 2.72197 1.9852 0
M  V30 3232 O 303.006 2.5837 3.07584 0
M  V30 3233 N 301.212 2.30612 1.76823 0
M  V30 3234 H 300.759 2.42059 0.881217 0
M  V30 3235 H 300.717 1.87672 2.52243 0
M  V30 3236 N 304.489 0.459591 1.5075 0
M  V30 3237 C 305.437 -0.354678 2.2988 0
M  V30 3238 C 306.431 -1.00086 1.36672 0
M  V30 3239 O 307.637 -0.933277 1.53915 0
M  V30 3240 H 304.012 -0.13321 0.740107 0
M  V30 3241 H 305.983 0.333269 2.96533 0
M  V30 3242 C 304.732 -1.43073 3.169 0
M  V30 3243 H 304.055 -0.942882 3.88523 0
M  V30 3244 H 305.495 -1.97328 3.75284 0
M  V30 3245 C 303.954 -2.42633 2.33732 0
M  V30 3246 O 304.484 -3.47658 2.01238 0
M  V30 3247 N 302.69 -2.14066 1.9653 0
M  V30 3248 H 302.237 -1.28685 2.23155 0
M  V30 3249 H 302.195 -2.80917 1.41185 0
M  V30 3250 N 305.967 -1.56429 0.191757 0
M  V30 3251 C 307.195 -2.01867 -0.453586 0
M  V30 3252 C 307.61 -1.07191 -1.5542 0
M  V30 3253 O 306.967 -0.0762108 -1.82341 0
M  V30 3254 C 307.018 -3.47017 -1.013 0
M  V30 3255 O 306.739 -4.38078 0.0437005 0
M  V30 3256 C 308.24 -4.07956 -1.73456 0
M  V30 3257 H 305.46 -0.661211 -0.114199 0
M  V30 3258 H 308.004 -2.02295 0.299483 0
M  V30 3259 H 306.159 -3.47298 -1.71647 0
M  V30 3260 H 306.573 -5.23178 -0.372212 0
M  V30 3261 H 308.047 -5.1138 -2.07833 0
M  V30 3262 H 308.524 -3.51222 -2.63704 0
M  V30 3263 H 309.13 -4.11437 -1.07702 0
M  V30 3264 N 307.445 0.0818655 -1.57387 0
M  V30 3265 C 308.673 0.796108 -1.9097 0
M  V30 3266 C 309.088 1.71626 -0.786757 0
M  V30 3267 O 308.445 1.80908 0.240513 0
M  V30 3268 C 308.496 1.59829 -3.24248 0
M  V30 3269 O 308.217 0.715131 -4.32224 0
M  V30 3270 C 309.718 2.41442 -3.7178 0
M  V30 3271 H 306.938 0.22691 -0.631469 0
M  V30 3272 H 309.482 0.0551439 -2.04426 0
M  V30 3273 H 307.637 2.29163 -3.12351 0
M  V30 3274 H 308.051 1.27205 -5.08841 0
M  V30 3275 H 309.525 2.932 -4.67694 0
M  V30 3276 H 310.002 3.2051 -3.00283 0
M  V30 3277 H 310.608 1.77283 -3.86589 0
M  V30 3278 N 308.923 1.53595 0.353017 0
M  V30 3279 C 310.169 1.70638 1.09593 0
M  V30 3280 C 310.502 0.463286 1.88593 0
M  V30 3281 O 309.777 -0.539597 1.86865 0
M  V30 3282 C 310.06 2.96406 2.04489 0
M  V30 3283 C 309.913 4.30901 1.29014 0
M  V30 3284 C 311.232 3.17812 3.0444 0
M  V30 3285 H 308.351 0.620913 0.397034 0
M  V30 3286 H 310.993 1.86254 0.375446 0
M  V30 3287 H 309.143 2.83223 2.65927 0
M  V30 3288 H 310.815 4.55917 0.702638 0
M  V30 3289 H 309.058 4.29741 0.592071 0
M  V30 3290 H 309.729 5.1506 1.98537 0
M  V30 3291 H 312.205 3.30263 2.53112 0
M  V30 3292 H 311.081 4.07223 3.6805 0
M  V30 3293 H 311.342 2.33669 3.75301 0
M  V30 3294 N 310.401 -0.613514 1.45168 0
M  V30 3295 C 311.364 -1.7065 1.53007 0
M  V30 3296 C 312.364 -1.5548 0.410184 0
M  V30 3297 O 313.554 -1.60656 0.673455 0
M  V30 3298 C 310.686 -3.09875 1.42093 0
M  V30 3299 H 311.879 -1.65068 2.50385 0
M  V30 3300 H 309.432 -0.828728 1.32521 0
M  V30 3301 H 310.167 -3.21039 0.458769 0
M  V30 3302 H 309.952 -3.22293 2.23315 0
M  V30 3303 H 311.442 -3.895 1.50598 0
M  V30 3304 N 311.879 -1.3236 -0.855495 0
M  V30 3305 C 313.125 -1.23054 -1.612 0
M  V30 3306 C 313.458 0.207404 -1.93089 0
M  V30 3307 O 312.733 1.14432 -1.57275 0
M  V30 3308 C 313.016 -2.08937 -2.93287 0
M  V30 3309 C 312.869 -3.61105 -2.68185 0
M  V30 3310 C 314.188 -1.94986 -3.94549 0
M  V30 3311 H 311.307 -0.448364 -0.584926 0
M  V30 3312 H 313.949 -1.62297 -0.987917 0
M  V30 3313 H 312.099 -1.75599 -3.46551 0
M  V30 3314 H 313.771 -4.04652 -2.21483 0
M  V30 3315 H 312.014 -3.83813 -2.02164 0
M  V30 3316 H 312.685 -4.16522 -3.62234 0
M  V30 3317 H 315.161 -2.24189 -3.5054 0
M  V30 3318 H 314.037 -2.57356 -4.84829 0
M  V30 3319 H 314.298 -0.917263 -4.3248 0
M  V30 3320 N 313.357 1.07166 -1.15556 0
M  V30 3321 C 314.304 2.14417 -0.854055 0
M  V30 3322 C 315.274 1.64965 0.193806 0
M  V30 3323 O 316.459 1.90703 0.0609443 0
M  V30 3324 C 313.599 3.43304 -0.351574 0
M  V30 3325 C 312.712 4.06537 -1.46123 0
M  V30 3326 C 311.847 5.23266 -0.914677 0
M  V30 3327 C 310.886 5.78464 -2.00114 0
M  V30 3328 N 310.023 6.86521 -1.47083 0
M  V30 3329 H 314.863 2.39548 -1.77259 0
M  V30 3330 H 312.4 1.17543 -0.884425 0
M  V30 3331 H 314.358 4.17179 -0.0419409 0
M  V30 3332 H 312.988 3.18419 0.530037 0
M  V30 3333 H 312.04 3.30297 -1.88701 0
M  V30 3334 H 313.352 4.43567 -2.28144 0
M  V30 3335 H 312.506 6.04131 -0.557698 0
M  V30 3336 H 311.245 4.87658 -0.0636583 0
M  V30 3337 H 310.25 4.96243 -2.36692 0
M  V30 3338 H 311.475 6.16126 -2.85597 0
M  V30 3339 H 309.421 6.52849 -0.642198 0
M  V30 3340 H 309.338 7.22446 -2.22729 0
M  V30 3341 H 310.606 7.71087 -1.14215 0
M  V30 3342 N 314.835 0.952656 1.25548 0
M  V30 3343 C 315.782 0.47008 2.25962 0
M  V30 3344 C 316.752 -0.476384 1.59122 0
M  V30 3345 O 317.937 -0.39007 1.8677 0
M  V30 3346 C 315.077 -0.247881 3.44209 0
M  V30 3347 C 314.19 0.735591 4.25691 0
M  V30 3348 C 313.325 -0.0047306 5.312 0
M  V30 3349 C 312.364 0.969805 6.04368 0
M  V30 3350 N 311.501 0.260486 7.01617 0
M  V30 3351 H 316.341 1.33126 2.66611 0
M  V30 3352 H 313.878 0.66765 1.31076 0
M  V30 3353 H 315.836 -0.680695 4.1161 0
M  V30 3354 H 314.466 -1.07312 3.0444 0
M  V30 3355 H 313.518 1.28689 3.57971 0
M  V30 3356 H 314.83 1.47934 4.76358 0
M  V30 3357 H 313.984 -0.496275 6.04667 0
M  V30 3358 H 312.723 -0.781282 4.81401 0
M  V30 3359 H 311.728 1.47237 5.29718 0
M  V30 3360 H 312.953 1.74655 6.56256 0
M  V30 3361 H 310.899 -0.497364 6.54112 0
M  V30 3362 H 310.816 0.943362 7.50091 0
M  V30 3363 H 312.084 -0.209587 7.79218 0
M  V30 3364 N 316.313 -1.40141 0.720998 0
M  V30 3365 C 317.243 -2.33339 0.0867621 0
M  V30 3366 C 318.224 -1.53178 -0.739622 0
M  V30 3367 O 319.409 -1.81625 -0.687449 0
M  V30 3368 C 316.539 -3.37194 -0.831728 0
M  V30 3369 C 315.493 -4.27857 -0.110558 0
M  V30 3370 C 314.819 -5.22294 -1.14513 0
M  V30 3371 C 316.119 -5.11872 1.0385 0
M  V30 3372 H 317.813 -2.86626 0.865219 0
M  V30 3373 H 315.359 -1.37814 0.417516 0
M  V30 3374 H 317.312 -4.01335 -1.28485 0
M  V30 3375 H 316.036 -2.82314 -1.64214 0
M  V30 3376 H 314.695 -3.65176 0.322797 0
M  V30 3377 H 314.343 -4.63717 -1.94874 0
M  V30 3378 H 314.043 -5.83797 -0.667446 0
M  V30 3379 H 315.567 -5.89312 -1.59824 0
M  V30 3380 H 316.981 -5.69436 0.664482 0
M  V30 3381 H 315.378 -5.82445 1.4449 0
M  V30 3382 H 316.448 -4.4753 1.86668 0
M  V30 3383 N 317.792 -0.46758 -1.50504 0
M  V30 3384 C 318.755 0.317059 -2.26996 0
M  V30 3385 C 319.755 0.923513 -1.31635 0
M  V30 3386 O 320.945 0.793239 -1.55091 0
M  V30 3387 C 318.077 1.45134 -3.08462 0
M  V30 3388 H 319.27 -0.353723 -2.97807 0
M  V30 3389 H 316.823 -0.221545 -1.54722 0
M  V30 3390 H 317.558 2.15728 -2.4214 0
M  V30 3391 H 317.343 1.02232 -3.78538 0
M  V30 3392 H 318.833 2.00493 -3.66323 0
M  V30 3393 N 319.27 1.56325 -0.20005 0
M  V30 3394 C 320.233 2.18084 0.705132 0
M  V30 3395 C 321.233 1.13666 1.1374 0
M  V30 3396 O 322.423 1.39023 1.04968 0
M  V30 3397 C 319.555 2.78689 1.96329 0
M  V30 3398 H 320.748 2.99435 0.167023 0
M  V30 3399 H 318.301 1.56221 0.0495725 0
M  V30 3400 H 319.036 2.0115 2.5438 0
M  V30 3401 H 318.821 3.55133 1.66202 0
M  V30 3402 H 320.311 3.26096 2.60866 0
M  V30 3403 N 320.748 -0.0735177 1.57428 0
M  V30 3404 C 321.681 -1.11932 1.98863 0
M  V30 3405 C 322.659 -1.37666 0.865266 0
M  V30 3406 O 323.843 -1.51068 1.12742 0
M  V30 3407 C 320.97 -2.46403 2.32386 0
M  V30 3408 C 320.016 -2.36815 3.54713 0
M  V30 3409 S 320.849 -1.76392 5.05614 0
M  V30 3410 C 322.005 -3.12444 5.42337 0
M  V30 3411 H 322.238 -0.766212 2.87257 0
M  V30 3412 H 319.771 -0.281987 1.51803 0
M  V30 3413 H 321.729 -3.23755 2.52375 0
M  V30 3414 H 320.39 -2.78876 1.44524 0
M  V30 3415 H 319.583 -3.35977 3.7568 0
M  V30 3416 H 319.185 -1.67598 3.34345 0
M  V30 3417 H 321.477 -4.08753 5.40303 0
M  V30 3418 H 322.42 -2.96258 6.43146 0
M  V30 3419 H 322.828 -3.1297 4.69798 0
M  V30 3420 N 322.226 -1.5378 -0.344866 0
M  V30 3421 C 323.472 -1.71216 -1.08687 0
M  V30 3422 C 323.805 -0.473281 -1.88345 0
M  V30 3423 O 323.08 0.52968 -1.87149 0
M  V30 3424 C 323.363 -2.97486 -2.02914 0
M  V30 3425 C 323.216 -4.31579 -1.26727 0
M  V30 3426 C 324.535 -3.19422 -3.0275 0
M  V30 3427 H 321.654 -0.62301 -0.393735 0
M  V30 3428 H 324.296 -1.8645 -0.365563 0
M  V30 3429 H 322.446 -2.84629 -2.64421 0
M  V30 3430 H 324.118 -4.56284 -0.67845 0
M  V30 3431 H 322.361 -4.30049 -0.569273 0
M  V30 3432 H 323.032 -5.16106 -1.95803 0
M  V30 3433 H 325.508 -3.316 -2.51357 0
M  V30 3434 H 324.384 -4.09169 -3.65885 0
M  V30 3435 H 324.645 -2.35656 -3.74057 0
M  V30 3436 N 323.704 0.605807 -1.45491 0
M  V30 3437 C 324.981 1.36522 -1.40075 0
M  V30 3438 C 325.361 2.10976 -0.0722744 0
M  V30 3439 O 324.709 2.08007 0.945808 0
M  V30 3440 C 324.919 2.31056 -2.61561 0
M  V30 3441 C 326.267 2.93608 -3.06724 0
M  V30 3442 O 327.291 2.41376 -2.61946 0
M  V30 3443 O 326.15 3.88421 -3.84437 0
M  V30 3444 H 323.244 0.612248 -0.555951 0
M  V30 3445 H 325.79 0.628747 -1.57623 0
M  V30 3446 H 324.562 1.75311 -3.49831 0
M  V30 3447 H 324.185 3.12081 -2.46356 0
M  V30 3448 N 325.182 1.32811 0.848464 0
M  V30 3449 C 326.431 1.23075 1.59798 0
M  V30 3450 C 326.744 -0.204419 1.94529 0
M  V30 3451 O 327.95 -0.423701 2.68173 0
M  V30 3452 C 326.406 2.15594 2.88179 0
M  V30 3453 C 326.014 3.64228 2.60849 0
M  V30 3454 C 327.758 2.14709 3.66197 0
M  V30 3455 C 325.665 4.48689 3.85269 0
M  V30 3456 H 324.595 0.457091 0.599653 0
M  V30 3457 H 327.246 1.57813 0.936342 0
M  V30 3458 H 325.628 1.73778 3.55833 0
M  V30 3459 H 326.802 4.14424 2.01467 0
M  V30 3460 H 325.117 3.67306 1.96151 0
M  V30 3461 H 327.714 2.75046 4.58534 0
M  V30 3462 H 328.057 1.13966 4.00397 0
M  V30 3463 H 328.59 2.54837 3.05455 0
M  V30 3464 H 325.329 5.5027 3.56207 0
M  V30 3465 H 324.849 4.03241 4.44024 0
M  V30 3466 H 326.528 4.62006 4.52946 0
M  V30 3467 N 326.66 -1.06551 1.16123 0
M  V30 3468 C 327.888 -1.83005 0.965237 0
M  V30 3469 C 328.303 -1.82423 -0.486542 0
M  V30 3470 O 327.66 -1.24152 -1.33763 0
M  V30 3471 C 327.711 -3.29733 1.48183 0
M  V30 3472 O 327.432 -3.30416 2.87674 0
M  V30 3473 C 328.933 -4.22926 1.32848 0
M  V30 3474 H 326.153 -0.577118 0.342309 0
M  V30 3475 H 328.697 -1.3445 1.54089 0
M  V30 3476 H 326.852 -3.75609 0.948517 0
M  V30 3477 H 327.266 -4.22149 3.11272 0
M  V30 3478 H 328.74 -5.23916 1.73827 0
M  V30 3479 H 329.217 -4.38346 0.273692 0
M  V30 3480 H 329.823 -3.82894 1.85127 0
M  V30 3481 N 328.138 -0.959301 -1.25041 0
M  V30 3482 C 329.366 -0.633949 -1.96948 0
M  V30 3483 C 329.781 0.794916 -1.7125 0
M  V30 3484 O 329.138 1.53231 -0.991287 0
M  V30 3485 C 329.189 -0.888805 -3.50403 0
M  V30 3486 O 328.91 -2.26149 -3.75218 0
M  V30 3487 C 330.411 -0.576482 -4.39536 0
M  V30 3488 H 327.631 -0.237263 -0.627652 0
M  V30 3489 H 330.175 -1.28495 -1.59089 0
M  V30 3490 H 328.33 -0.284145 -3.86357 0
M  V30 3491 H 328.744 -2.33514 -4.6965 0
M  V30 3492 H 330.218 -0.805314 -5.46094 0
M  V30 3493 H 330.695 0.489075 -4.36468 0
M  V30 3494 H 331.301 -1.16067 -4.09156 0
M  V30 3495 N 329.616 1.39756 -0.72842 0
M  V30 3496 C 330.526 2.34444 -0.0855374 0
M  V30 3497 C 331.542 1.57976 0.729356 0
M  V30 3498 O 332.718 1.90301 0.659346 0
M  V30 3499 C 329.783 3.36965 0.815798 0
M  V30 3500 C 328.844 4.29299 -0.0105996 0
M  V30 3501 C 328.077 5.26923 0.84781 0
M  V30 3502 O 328.3 5.30859 2.08673 0
M  V30 3503 O 327.234 6.01249 0.279969 0
M  V30 3504 H 331.06 2.91065 -0.866892 0
M  V30 3505 H 328.645 1.4117 -0.48902 0
M  V30 3506 H 330.527 3.99804 1.33171 0
M  V30 3507 H 329.202 2.82739 1.57608 0
M  V30 3508 H 328.109 3.69703 -0.571877 0
M  V30 3509 H 329.442 4.86712 -0.73295 0
M  V30 3510 N 331.094 0.475555 1.50254 0
M  V30 3511 C 332.004 -0.321501 2.32387 0
M  V30 3512 C 333.02 -0.991755 1.42969 0
M  V30 3513 O 334.196 -0.978747 1.76018 0
M  V30 3514 C 331.261 -1.38667 3.17762 0
M  V30 3515 C 330.322 -0.732538 4.23004 0
M  V30 3516 C 329.555 -1.74695 5.04299 0
M  V30 3517 O 329.778 -2.97399 4.86734 0
M  V30 3518 O 328.712 -1.31631 5.8733 0
M  V30 3519 H 332.538 0.350071 3.01676 0
M  V30 3520 H 330.123 0.237321 1.47503 0
M  V30 3521 H 332.005 -2.00354 3.70724 0
M  V30 3522 H 330.68 -2.04163 2.51196 0
M  V30 3523 H 329.587 -0.0765902 3.74022 0
M  V30 3524 H 330.92 -0.120452 4.92053 0
M  V30 3525 N 332.573 -1.56217 0.208337 0
M  V30 3526 C 333.503 -2.22694 -0.702116 0
M  V30 3527 C 334.484 -1.19432 -1.2112 0
M  V30 3528 O 335.669 -1.47978 -1.25762 0
M  V30 3529 C 332.799 -2.8966 -1.9161 0
M  V30 3530 C 331.753 -3.9928 -1.5414 0
M  V30 3531 C 331.079 -4.53476 -2.83308 0
M  V30 3532 C 332.379 -5.17012 -0.741339 0
M  V30 3533 H 334.073 -2.99034 -0.147898 0
M  V30 3534 H 331.619 -1.43831 -0.0696951 0
M  V30 3535 H 333.572 -3.34852 -2.55836 0
M  V30 3536 H 332.296 -2.10746 -2.49507 0
M  V30 3537 H 330.955 -3.54799 -0.922668 0
M  V30 3538 H 330.603 -3.71308 -3.39322 0
M  V30 3539 H 330.303 -5.27451 -2.58976 0
M  V30 3540 H 331.827 -5.01378 -3.485 0
M  V30 3541 H 333.241 -5.58667 -1.28699 0
M  V30 3542 H 331.638 -5.97137 -0.595627 0
M  V30 3543 H 332.708 -4.8423 0.254851 0
M  V30 3544 N 334.051 0.0651679 -1.57465 0
M  V30 3545 C 334.998 1.07675 -2.04144 0
M  V30 3546 C 335.968 1.38071 -0.923335 0
M  V30 3547 O 337.153 1.49026 -1.19146 0
M  V30 3548 C 334.293 2.38337 -2.49579 0
M  V30 3549 C 333.406 2.14413 -3.75035 0
M  V30 3550 C 332.541 3.38686 -4.09225 0
M  V30 3551 C 331.58 3.10156 -5.27702 0
M  V30 3552 N 330.717 4.26778 -5.57499 0
M  V30 3553 H 335.557 0.671716 -2.90331 0
M  V30 3554 H 333.094 0.3201 -1.43575 0
M  V30 3555 H 335.052 3.14632 -2.73975 0
M  V30 3556 H 333.682 2.7663 -1.6636 0
M  V30 3557 H 332.734 1.2878 -3.57939 0
M  V30 3558 H 334.046 1.89344 -4.61466 0
M  V30 3559 H 333.2 4.23373 -4.34558 0
M  V30 3560 H 331.939 3.66837 -3.21374 0
M  V30 3561 H 330.944 2.23866 -5.02159 0
M  V30 3562 H 332.169 2.8332 -6.17176 0
M  V30 3563 H 330.115 4.54948 -4.72608 0
M  V30 3564 H 330.032 4.05005 -6.38362 0
M  V30 3565 H 331.3 5.12443 -5.87386 0
M  V30 3566 N 335.529 1.53961 0.336706 0
M  V30 3567 C 336.461 1.78751 1.4346 0
M  V30 3568 C 337.474 0.669019 1.48418 0
M  V30 3569 O 338.663 0.945884 1.51378 0
M  V30 3570 C 335.763 1.87844 2.82078 0
M  V30 3571 C 334.936 3.17854 3.00479 0
M  V30 3572 C 333.995 3.17816 4.19379 0
M  V30 3573 O 333.021 3.91511 4.13168 0
M  V30 3574 N 334.223 2.40669 5.2826 0
M  V30 3575 H 336.988 2.73493 1.22563 0
M  V30 3576 H 334.549 1.53096 0.526625 0
M  V30 3577 H 336.541 1.85261 3.59806 0
M  V30 3578 H 335.111 1.00257 2.96086 0
M  V30 3579 H 334.331 3.33504 2.10163 0
M  V30 3580 H 335.619 4.03718 3.0966 0
M  V30 3581 H 335.017 1.8036 5.36178 0
M  V30 3582 H 333.574 2.43877 6.04456 0
M  V30 3583 N 337.007 -0.598083 1.45811 0
M  V30 3584 C 337.939 -1.72231 1.51225 0
M  V30 3585 C 338.952 -1.57757 0.402059 0
M  V30 3586 O 340.141 -1.65464 0.669624 0
M  V30 3587 C 337.241 -3.10331 1.3619 0
M  V30 3588 C 336.414 -3.50955 2.61054 0
M  V30 3589 C 335.473 -4.68055 2.40439 0
M  V30 3590 O 334.499 -4.74691 3.14097 0
M  V30 3591 N 335.701 -5.61941 1.45612 0
M  V30 3592 H 338.466 -1.68046 2.48154 0
M  V30 3593 H 336.027 -0.783637 1.41671 0
M  V30 3594 H 338.019 -3.86439 1.20195 0
M  V30 3595 H 336.589 -3.0897 0.475015 0
M  V30 3596 H 335.809 -2.64711 2.92099 0
M  V30 3597 H 337.097 -3.74858 3.44034 0
M  V30 3598 H 336.495 -5.59301 0.848431 0
M  V30 3599 H 335.052 -6.37542 1.35585 0
M  V30 3600 N 338.485 -1.33259 -0.841409 0
M  V30 3601 C 339.732 -1.24572 -1.5965 0
M  V30 3602 C 340.06 0.189137 -1.93578 0
M  V30 3603 O 339.315 1.14566 -1.5866 0
M  V30 3604 C 339.614 -2.06381 -2.9179 0
M  V30 3605 C 339.28 -3.556 -2.77235 0
M  V30 3606 C 337.942 -3.96282 -2.72973 0
M  V30 3607 C 340.294 -4.50433 -2.62221 0
M  V30 3608 C 337.622 -5.30017 -2.51592 0
M  V30 3609 C 339.974 -5.84327 -2.42374 0
M  V30 3610 C 338.638 -6.24194 -2.36512 0
M  V30 3611 H 337.908 -0.455842 -0.5842 0
M  V30 3612 H 340.555 -1.6482 -0.975016 0
M  V30 3613 H 338.86 -1.58903 -3.5813 0
M  V30 3614 H 340.557 -1.97019 -3.49263 0
M  V30 3615 H 337.147 -3.23298 -2.81384 0
M  V30 3616 H 341.331 -4.19914 -2.64549 0
M  V30 3617 H 336.587 -5.59947 -2.45499 0
M  V30 3618 H 340.761 -6.57414 -2.29739 0
M  V30 3619 H 338.388 -7.27759 -2.19706 0
M  V30 3620 N 339.963 1.05934 -1.16686 0
M  V30 3621 C 341.24 1.75643 -0.860747 0
M  V30 3622 C 341.62 2.01144 0.640641 0
M  V30 3623 O 340.968 1.64147 1.58959 0
M  V30 3624 C 341.178 3.05493 -1.68745 0
M  V30 3625 C 342.526 3.79581 -1.90271 0
M  V30 3626 O 343.55 3.15344 -1.65641 0
M  V30 3627 O 342.409 4.9499 -2.31618 0
M  V30 3628 H 339.503 0.763426 -0.317977 0
M  V30 3629 H 342.049 1.1217 -1.27342 0
M  V30 3630 H 340.821 2.8264 -2.70611 0
M  V30 3631 H 340.444 3.76702 -1.27206 0
M  V30 3632 N 341.441 0.965919 1.2453 0
M  V30 3633 C 342.373 0.452465 2.2469 0
M  V30 3634 C 343.386 -0.437821 1.56802 0
M  V30 3635 O 344.575 -0.244283 1.76821 0
M  V30 3636 C 341.675 -0.366258 3.36915 0
M  V30 3637 C 340.848 0.513701 4.34373 0
M  V30 3638 C 339.907 -0.248716 5.25612 0
M  V30 3639 O 338.933 0.356745 5.68081 0
M  V30 3640 N 340.135 -1.53877 5.59734 0
M  V30 3641 H 342.9 1.31361 2.69378 0
M  V30 3642 H 340.461 0.837541 1.38553 0
M  V30 3643 H 342.453 -0.884297 3.94921 0
M  V30 3644 H 341.023 -1.12832 2.91526 0
M  V30 3645 H 340.243 1.21273 3.75082 0
M  V30 3646 H 341.531 1.11391 4.96457 0
M  V30 3647 H 340.929 -2.05243 5.27154 0
M  V30 3648 H 339.486 -2.00254 6.20275 0
M  V30 3649 N 342.919 -1.39368 0.735821 0
M  V30 3650 C 343.829 -2.34395 0.0979693 0
M  V30 3651 C 344.845 -1.58361 -0.720968 0
M  V30 3652 O 346.021 -1.90648 -0.649245 0
M  V30 3653 C 343.086 -3.37393 -0.797916 0
M  V30 3654 C 342.147 -4.29287 0.0333662 0
M  V30 3655 C 341.38 -5.27365 -0.819854 0
M  V30 3656 O 341.603 -5.31959 -2.05855 0
M  V30 3657 O 340.537 -6.01389 -0.248079 0
M  V30 3658 H 344.363 -2.90601 0.882315 0
M  V30 3659 H 341.948 -1.40909 0.4965 0
M  V30 3660 H 343.83 -4.00505 -1.31048 0
M  V30 3661 H 342.505 -2.83571 -1.56106 0
M  V30 3662 H 341.412 -3.69395 0.591475 0
M  V30 3663 H 342.745 -4.86317 0.758752 0
M  V30 3664 N 344.397 -0.483516 -1.5 0
M  V30 3665 C 345.646 0.0689102 -2.01582 0
M  V30 3666 C 345.959 1.39655 -1.36952 0
M  V30 3667 O 347.165 2.03465 -1.79762 0
M  V30 3668 C 345.621 0.173302 -3.59483 0
M  V30 3669 C 345.229 -1.14665 -4.33077 0
M  V30 3670 C 346.973 0.677024 -4.19066 0
M  V30 3671 C 344.88 -1.00537 -5.82792 0
M  V30 3672 H 343.81 0.0295277 -0.753422 0
M  V30 3673 H 346.461 -0.620295 -1.72698 0
M  V30 3674 H 344.843 0.926569 -3.85007 0
M  V30 3675 H 346.017 -1.91184 -4.19268 0
M  V30 3676 H 344.332 -1.58244 -3.85159 0
M  V30 3677 H 346.929 0.799952 -5.28682 0
M  V30 3678 H 347.272 1.67151 -3.81269 0
M  V30 3679 H 347.805 -0.0192083 -3.97795 0
M  V30 3680 H 344.544 -1.9736 -6.25083 0
M  V30 3681 H 344.064 -0.280776 -5.99142 0
M  V30 3682 H 345.743 -0.677 -6.43448 0
M  V30 3683 N 345.875 1.56104 -0.216619 0
M  V30 3684 C 346.822 2.2007 0.695531 0
M  V30 3685 C 347.792 1.15471 1.19397 0
M  V30 3686 O 348.977 1.43807 1.25396 0
M  V30 3687 C 346.117 2.88073 1.90021 0
M  V30 3688 C 345.23 4.07253 1.44113 0
M  V30 3689 C 344.365 4.63052 2.603 0
M  V30 3690 C 343.404 5.74545 2.11103 0
M  V30 3691 N 342.541 6.24656 3.20545 0
M  V30 3692 H 347.381 2.97655 0.143327 0
M  V30 3693 H 344.918 1.46982 0.0589934 0
M  V30 3694 H 346.876 3.25681 2.60745 0
M  V30 3695 H 345.506 2.13015 2.42538 0
M  V30 3696 H 344.558 3.75164 0.628999 0
M  V30 3697 H 345.87 4.8783 1.04036 0
M  V30 3698 H 345.024 5.03078 3.39113 0
M  V30 3699 H 343.763 3.81628 3.03663 0
M  V30 3700 H 342.768 5.34027 1.3075 0
M  V30 3701 H 343.993 6.57801 1.68746 0
M  V30 3702 H 341.939 5.46148 3.63399 0
M  V30 3703 H 341.856 7.00343 2.84704 0
M  V30 3704 H 343.124 6.69338 3.99508 0
M  V30 3705 N 347.353 -0.0568162 1.57498 0
M  V30 3706 C 348.599 -0.75422 1.88253 0
M  V30 3707 C 348.932 -1.76461 0.810865 0
M  V30 3708 O 348.207 -1.93691 -0.177259 0
M  V30 3709 C 348.49 -1.44878 3.2967 0
M  V30 3710 C 348.343 -0.453789 4.47505 0
M  V30 3711 C 349.662 -2.38994 3.69554 0
M  V30 3712 H 346.781 -0.272724 0.684683 0
M  V30 3713 H 349.423 -0.0172113 1.89992 0
M  V30 3714 H 347.573 -2.077 3.28318 0
M  V30 3715 H 349.245 0.170371 4.60985 0
M  V30 3716 H 347.488 0.229552 4.33192 0
M  V30 3717 H 348.159 -0.977699 5.43273 0
M  V30 3718 H 350.635 -1.86239 3.72095 0
M  V30 3719 H 349.511 -2.84587 4.69363 0
M  V30 3720 H 349.772 -3.24461 3.00296 0
M  V30 3721 N 348.832 -1.54138 -0.328536 0
M  V30 3722 C 349.765 -1.78014 -1.4278 0
M  V30 3723 C 350.743 -0.629889 -1.49904 0
M  V30 3724 O 351.927 -0.866763 -1.6739 0
M  V30 3725 C 349.054 -1.89225 -2.80912 0
M  V30 3726 C 348.1 -3.11483 -2.91343 0
M  V30 3727 S 348.933 -4.70201 -2.56263 0
M  V30 3728 C 350.089 -4.84312 -3.96476 0
M  V30 3729 H 350.322 -2.70974 -1.22313 0
M  V30 3730 H 347.855 -1.45197 -0.525084 0
M  V30 3731 H 349.813 -1.9637 -3.60485 0
M  V30 3732 H 348.474 -0.972518 -2.98665 0
M  V30 3733 H 347.667 -3.16046 -3.92595 0
M  V30 3734 H 347.269 -3.02642 -2.19736 0
M  V30 3735 H 349.561 -4.66643 -4.91173 0
M  V30 3736 H 350.504 -5.86411 -3.96898 0
M  V30 3737 H 350.912 -4.12652 -3.85199 0
M  V30 3738 N 350.31 0.590341 -1.46126 0
M  V30 3739 C 351.273 1.68194 -1.55703 0
M  V30 3740 C 352.273 1.54808 -0.434868 0
M  V30 3741 O 353.463 1.59564 -0.698928 0
M  V30 3742 C 350.595 3.07575 -1.47005 0
M  V30 3743 H 351.788 1.61064 -2.52979 0
M  V30 3744 H 349.341 0.807541 -1.33823 0
M  V30 3745 H 350.076 3.20268 -0.509785 0
M  V30 3746 H 349.861 3.187 -2.28414 0
M  V30 3747 H 351.351 3.87055 -1.56776 0
M  V30 3748 N 351.788 1.33704 0.83433 0
M  V30 3749 C 352.735 1.24335 1.94447 0
M  V30 3750 C 353.705 0.120991 1.65659 0
M  V30 3751 O 354.89 0.300035 1.88426 0
M  V30 3752 C 352.03 0.993124 3.30501 0
M  V30 3753 C 351.143 2.20217 3.71657 0
M  V30 3754 C 350.278 1.88572 4.96602 0
M  V30 3755 C 349.317 3.05683 5.30306 0
M  V30 3756 N 348.454 2.73997 6.46429 0
M  V30 3757 H 353.294 2.1928 2.01792 0
M  V30 3758 H 350.831 1.09035 0.987404 0
M  V30 3759 H 352.789 0.828467 4.08892 0
M  V30 3760 H 351.419 0.0803902 3.227 0
M  V30 3761 H 350.471 2.47642 2.88752 0
M  V30 3762 H 351.783 3.07752 3.92543 0
M  V30 3763 H 350.937 1.68776 5.82752 0
M  V30 3764 H 349.676 0.982799 4.77695 0
M  V30 3765 H 348.681 3.26088 4.42659 0
M  V30 3766 H 349.906 3.96737 5.51159 0
M  V30 3767 H 347.852 1.86268 6.28999 0
M  V30 3768 H 347.769 3.55064 6.67432 0
M  V30 3769 H 349.037 2.57679 7.35678 0
M  V30 3770 N 353.266 -1.05314 1.17247 0
M  V30 3771 C 354.506 -1.79869 0.970898 0
M  V30 3772 C 354.87 -1.85594 -0.491808 0
M  V30 3773 O 356.071 -2.56229 -0.812409 0
M  V30 3774 C 354.342 -3.19937 1.59295 0
M  V30 3775 S 355.901 -4.10986 1.53741 0
M  V30 3776 H 352.719 -0.61949 0.348931 0
M  V30 3777 H 355.321 -1.26368 1.49169 0
M  V30 3778 H 354.025 -3.13372 2.65003 0
M  V30 3779 H 353.556 -3.78515 1.07191 0
M  V30 3780 H 355.571 -4.93203 0.544537 0
M  V30 3781 N 354.744 -0.972509 -1.24016 0
M  V30 3782 C 355.676 -0.464375 -2.24446 0
M  V30 3783 C 356.689 0.4295 -1.57032 0
M  V30 3784 O 357.878 0.234902 -1.76948 0
M  V30 3785 C 354.978 0.348385 -3.37105 0
M  V30 3786 C 354.151 -0.53673 -4.34094 0
M  V30 3787 C 353.21 0.220838 -5.25736 0
M  V30 3788 O 352.236 -0.386867 -5.67884 0
M  V30 3789 N 353.438 1.50907 -5.60542 0
M  V30 3790 H 356.203 -1.32788 -2.68677 0
M  V30 3791 H 353.764 -0.844877 -1.38107 0
M  V30 3792 H 355.756 0.863341 -3.95384 0
M  V30 3793 H 354.326 1.11285 -2.92121 0
M  V30 3794 H 353.546 -1.23261 -3.74433 0
M  V30 3795 H 354.834 -1.14022 -4.95859 0
M  V30 3796 H 354.232 2.02444 -5.28236 0
M  V30 3797 H 352.789 1.96962 -6.21329 0
M  V30 3798 N 356.222 1.38976 -0.743202 0
M  V30 3799 C 357.172 2.27843 -0.084513 0
M  V30 3800 C 358.156 1.44677 0.704094 0
M  V30 3801 O 359.348 1.67511 0.571755 0
M  V30 3802 C 356.477 3.33466 0.815781 0
M  V30 3803 C 355.563 4.24095 0.0208844 0
M  V30 3804 N 355.954 4.95609 -1.0102 0
M  V30 3805 C 354.252 4.45303 0.249293 0
M  V30 3806 C 354.953 5.62287 -1.49024 0
M  V30 3807 N 353.929 5.37571 -0.807377 0
M  V30 3808 H 357.731 2.80593 -0.87436 0
M  V30 3809 H 355.245 1.51755 -0.578283 0
M  V30 3810 H 357.242 3.96008 1.30321 0
M  V30 3811 H 355.902 2.82276 1.6047 0
M  V30 3812 H 356.913 4.98849 -1.39176 0
M  V30 3813 H 353.59 4.0504 1.01237 0
M  V30 3814 H 354.98 6.29519 -2.34853 0
M  V30 3815 N 357.7 0.491464 1.49741 0
M  V30 3816 C 358.61 -0.296835 2.32715 0
M  V30 3817 C 359.626 -0.976536 1.44013 0
M  V30 3818 O 360.802 -0.960023 1.77047 0
M  V30 3819 C 357.867 -1.35288 3.19215 0
M  V30 3820 C 356.928 -0.687632 4.23757 0
M  V30 3821 C 356.161 -1.69336 5.06123 0
M  V30 3822 O 356.384 -2.92219 4.89861 0
M  V30 3823 O 355.318 -1.25394 5.88693 0
M  V30 3824 H 359.144 0.382048 3.01287 0
M  V30 3825 H 356.729 0.252953 1.47243 0
M  V30 3826 H 358.611 -1.96411 3.72828 0
M  V30 3827 H 357.286 -2.01487 2.53347 0
M  V30 3828 H 356.193 -0.0369159 3.74082 0
M  V30 3829 H 357.526 -0.0682566 4.92153 0
M  V30 3830 N 359.178 -1.55987 0.224894 0
M  V30 3831 C 360.126 -2.21808 -0.700283 0
M  V30 3832 C 361.12 -1.19854 -1.19714 0
M  V30 3833 O 362.326 -1.37925 -1.15658 0
M  V30 3834 H 358.701 -0.711226 -0.244258 0
M  V30 3835 H 360.672 -2.98152 -0.121749 0
M  V30 3836 C 359.421 -2.91444 -1.8962 0
M  V30 3837 H 358.744 -3.69655 -1.52299 0
M  V30 3838 H 360.184 -3.40894 -2.52125 0
M  V30 3839 C 358.643 -1.94098 -2.75368 0
M  V30 3840 O 359.173 -1.46004 -3.74227 0
M  V30 3841 N 357.379 -1.61675 -2.41474 0
M  V30 3842 H 356.926 -2.00979 -1.61137 0
M  V30 3843 H 356.884 -0.968036 -2.99126 0
M  V30 3844 N 360.656 0.0484629 -1.57525 0
M  V30 3845 C 361.586 1.0549 -2.08313 0
M  V30 3846 C 362.567 1.38929 -0.981463 0
M  V30 3847 O 363.752 1.48151 -1.25558 0
M  V30 3848 C 360.882 2.36162 -2.54646 0
M  V30 3849 C 359.836 2.17016 -3.68901 0
M  V30 3850 C 359.162 3.53278 -4.01371 0
M  V30 3851 C 360.462 1.57219 -4.98076 0
M  V30 3852 H 362.156 0.632195 -2.92649 0
M  V30 3853 H 359.702 0.302654 -1.40784 0
M  V30 3854 H 361.655 3.06882 -2.88793 0
M  V30 3855 H 360.379 2.80456 -1.67368 0
M  V30 3856 H 359.038 1.48733 -3.35073 0
M  V30 3857 H 358.686 3.95185 -3.11188 0
M  V30 3858 H 358.386 3.41299 -4.78318 0
M  V30 3859 H 359.91 4.25391 -4.38035 0
M  V30 3860 H 361.324 2.17832 -5.30304 0
M  V30 3861 H 359.721 1.55871 -5.79503 0
M  V30 3862 H 360.791 0.535956 -4.81929 0
M  V30 3863 N 362.134 1.5431 0.320358 0
M  V30 3864 C 363.38 1.72924 1.05949 0
M  V30 3865 C 363.713 0.503185 1.87568 0
M  V30 3866 O 362.988 -0.499839 1.87968 0
M  V30 3867 C 363.271 3.00676 1.98156 0
M  V30 3868 C 363.124 4.3354 1.19845 0
M  V30 3869 C 364.443 3.24198 2.9763 0
M  V30 3870 H 361.562 0.629195 0.383774 0
M  V30 3871 H 364.204 1.87008 0.335854 0
M  V30 3872 H 362.354 2.888 2.59859 0
M  V30 3873 H 364.026 4.57305 0.605773 0
M  V30 3874 H 362.269 4.309 0.500784 0
M  V30 3875 H 362.94 5.19156 1.87567 0
M  V30 3876 H 365.416 3.35557 2.4605 0
M  V30 3877 H 364.292 4.14938 3.59329 0
M  V30 3878 H 364.553 2.41577 3.7026 0
M  V30 3879 N 363.613 -0.582584 1.46437 0
M  V30 3880 C 364.523 -1.71949 1.59595 0
M  V30 3881 C 365.539 -1.67264 0.479443 0
M  V30 3882 O 366.715 -1.87171 0.743579 0
M  V30 3883 C 363.78 -3.08452 1.58298 0
M  V30 3884 C 362.841 -3.244 2.81182 0
M  V30 3885 C 362.074 -4.54391 2.79937 0
M  V30 3886 O 362.297 -5.38287 1.8869 0
M  V30 3887 O 361.231 -4.73588 3.71481 0
M  V30 3888 H 365.057 -1.63795 2.55744 0
M  V30 3889 H 362.642 -0.749643 1.29231 0
M  V30 3890 H 364.524 -3.89732 1.60271 0
M  V30 3891 H 363.199 -3.17043 0.653094 0
M  V30 3892 H 362.106 -2.42613 2.84763 0
M  V30 3893 H 363.439 -3.20699 3.7338 0
M  V30 3894 N 365.091 -1.34144 -0.827227 0
M  V30 3895 C 366.021 -1.28005 -1.95287 0
M  V30 3896 C 367.002 -0.158321 -1.69362 0
M  V30 3897 O 368.187 -0.349987 -1.9102 0
M  V30 3898 C 365.317 -1.03036 -3.31664 0
M  V30 3899 C 364.271 -2.11628 -3.72019 0
M  V30 3900 C 363.597 -1.71854 -5.0633 0
M  V30 3901 C 364.897 -3.53417 -3.8457 0
M  V30 3902 H 366.591 -2.22187 -2.00682 0
M  V30 3903 H 364.137 -1.0696 -0.964135 0
M  V30 3904 H 366.09 -0.973863 -4.09993 0
M  V30 3905 H 364.814 -0.0529391 -3.26557 0
M  V30 3906 H 363.473 -2.16339 -2.95961 0
M  V30 3907 H 363.121 -0.727841 -4.97706 0
M  V30 3908 H 362.821 -2.44531 -5.34302 0
M  V30 3909 H 364.345 -1.67692 -5.87122 0
M  V30 3910 H 365.759 -3.51142 -4.5318 0
M  V30 3911 H 364.156 -4.24679 -4.2399 0
M  V30 3912 H 365.226 -3.91072 -2.86689 0
M  V30 3913 N 366.569 1.04691 -1.17803 0
M  V30 3914 C 367.499 2.14494 -0.92275 0
M  V30 3915 C 368.48 1.69546 0.137179 0
M  V30 3916 O 369.665 1.94195 -0.0141108 0
M  V30 3917 C 366.795 3.44491 -0.440803 0
M  V30 3918 C 365.749 4.03031 -1.4405 0
M  V30 3919 C 365.075 5.28432 -0.81631 0
M  V30 3920 C 366.375 4.39932 -2.81527 0
M  V30 3921 H 368.069 2.36107 -1.84103 0
M  V30 3922 H 365.615 1.1347 -0.886599 0
M  V30 3923 H 367.568 4.2066 -0.249602 0
M  V30 3924 H 366.292 3.22546 0.513025 0
M  V30 3925 H 364.951 3.28937 -1.61853 0
M  V30 3926 H 364.599 5.02792 0.144511 0
M  V30 3927 H 364.299 5.68559 -1.48371 0
M  V30 3928 H 365.823 6.07284 -0.635496 0
M  V30 3929 H 367.237 5.07113 -2.67412 0
M  V30 3930 H 365.634 4.9109 -3.44892 0
M  V30 3931 H 366.704 3.50045 -3.35554 0
M  V30 3932 N 368.047 0.979072 1.23499 0
M  V30 3933 C 369.295 0.645941 1.91499 0
M  V30 3934 C 369.616 -0.822948 1.76784 0
M  V30 3935 O 368.886 -1.58854 1.14639 0
M  V30 3936 H 367.466 0.235919 0.708767 0
M  V30 3937 H 370.128 1.2426 1.50152 0
M  V30 3938 H 369.224 0.896411 2.9895 0
M  V30 3939 N 369.525 -1.3858 0.750561 0
M  V30 3940 C 370.772 -2.00184 0.305373 0
M  V30 3941 C 371.1 -1.59575 -1.11203 0
M  V30 3942 O 370.355 -0.823236 -1.77542 0
M  V30 3943 C 370.654 -3.55455 0.372373 0
M  V30 3944 C 370.32 -4.15765 1.745 0
M  V30 3945 C 368.982 -4.31951 2.12065 0
M  V30 3946 C 371.334 -4.49067 2.64553 0
M  V30 3947 C 368.662 -4.78734 3.39162 0
M  V30 3948 C 371.014 -4.97265 3.91038 0
M  V30 3949 C 369.678 -5.11658 4.28676 0
M  V30 3950 H 368.948 -0.732526 0.111744 0
M  V30 3951 H 371.595 -1.65673 0.960451 0
M  V30 3952 H 369.9 -3.90084 -0.366272 0
M  V30 3953 H 371.597 -4.00999 0.00953918 0
M  V30 3954 H 368.187 -4.03579 1.44297 0
M  V30 3955 H 372.371 -4.36166 2.36796 0
M  V30 3956 H 367.627 -4.88062 3.68246 0
M  V30 3957 H 371.801 -5.22003 4.60962 0
M  V30 3958 H 369.428 -5.47668 5.27222 0
M  V30 3959 N 371.003 -0.499398 -1.49478 0
M  V30 3960 C 372.228 0.044722 -2.07352 0
M  V30 3961 C 372.653 1.30207 -1.35749 0
M  V30 3962 O 372.011 1.76516 -0.413732 0
M  V30 3963 C 372.059 0.283013 -3.59488 0
M  V30 3964 O 371.163 1.35804 -3.89398 0
M  V30 3965 H 370.504 -0.0255147 -0.66351 0
M  V30 3966 H 373.034 -0.698561 -1.92305 0
M  V30 3967 H 373.044 0.515007 -4.04737 0
M  V30 3968 H 371.719 -0.635636 -4.11014 0
M  V30 3969 H 370.296 1.11113 -3.55961 0
M  V30 3970 N 372.481 1.55866 -0.233164 0
M  V30 3971 C 373.706 2.03449 0.402906 0
M  V30 3972 C 374.131 1.11166 1.51736 0
M  V30 3973 O 373.489 0.101996 1.81013 0
M  V30 3974 C 373.537 3.49165 0.9009 0
M  V30 3975 O 372.641 3.60019 2.01147 0
M  V30 3976 H 371.982 0.657913 0.0897025 0
M  V30 3977 H 374.512 2.01493 -0.355201 0
M  V30 3978 H 374.522 3.89716 1.2077 0
M  V30 3979 H 373.197 4.15813 0.0852889 0
M  V30 3980 H 371.774 3.3136 1.71042 0
M  V30 3981 N 373.959 -0.0401083 1.57549 0
M  V30 3982 C 375.236 -0.767917 1.79896 0
M  V30 3983 C 375.616 -1.9416 0.82856 0
M  V30 3984 O 374.964 -2.2812 -0.131671 0
M  V30 3985 C 375.174 -1.2113 3.27305 0
M  V30 3986 C 376.522 -1.63175 3.91994 0
M  V30 3987 O 377.546 -1.30616 3.31388 0
M  V30 3988 O 376.405 -2.23565 4.98679 0
M  V30 3989 H 373.499 -0.370441 0.739393 0
M  V30 3990 H 376.045 -0.017737 1.69691 0
M  V30 3991 H 374.817 -0.372937 3.89519 0
M  V30 3992 H 374.44 -2.02183 3.42356 0
M  V30 3993 N 375.437 -1.54477 -0.31217 0
M  V30 3994 C 376.685 -1.72884 -1.04668 0
M  V30 3995 C 377.006 -0.511477 -1.88173 0
M  V30 3996 O 376.276 0.474407 -1.90069 0
M  V30 3997 H 374.856 -0.637461 -0.389425 0
M  V30 3998 H 377.518 -1.91807 -0.345852 0
M  V30 3999 H 376.614 -2.61334 -1.70619 0
M  V30 4000 N 376.915 0.57481 -1.46744 0
M  V30 4001 C 378.192 1.3352 -1.4294 0
M  V30 4002 C 378.572 2.10775 -0.117009 0
M  V30 4003 O 377.92 2.09966 0.901474 0
M  V30 4004 C 378.13 2.25456 -2.66403 0
M  V30 4005 C 379.478 2.87035 -3.12883 0
M  V30 4006 O 380.502 2.35766 -2.67007 0
M  V30 4007 O 379.361 3.80179 -3.92589 0
M  V30 4008 H 376.455 0.600318 -0.568812 0
M  V30 4009 H 379.001 0.595171 -1.58921 0
M  V30 4010 H 377.773 1.67851 -3.53471 0
M  V30 4011 H 377.396 3.06785 -2.52921 0
M  V30 4012 N 378.394 1.34581 0.820102 0
M  V30 4013 C 379.671 1.17675 1.56244 0
M  V30 4014 C 380.051 -0.249541 2.0962 0
M  V30 4015 O 379.399 -1.25125 1.91196 0
M  V30 4016 C 379.609 2.23364 2.6816 0
M  V30 4017 C 380.957 2.58485 3.36854 0
M  V30 4018 O 381.981 2.22175 2.78418 0
M  V30 4019 O 380.84 3.20868 4.42386 0
M  V30 4020 H 377.934 0.456333 0.689702 0
M  V30 4021 H 380.48 1.46222 0.861231 0
M  V30 4022 H 379.252 3.19087 2.26493 0
M  V30 4023 H 378.875 1.96009 3.45928 0
M  V30 4024 N 379.872 -1.04064 1.18357 0
M  V30 4025 C 380.802 -2.14001 0.934113 0
M  V30 4026 C 381.783 -1.69616 -0.128186 0
M  V30 4027 O 382.968 -1.94185 0.0244093 0
M  V30 4028 C 380.098 -3.44253 0.459066 0
M  V30 4029 C 379.052 -4.02261 1.46185 0
M  V30 4030 C 378.378 -5.27992 0.844322 0
M  V30 4031 C 379.678 -4.38432 2.83856 0
M  V30 4032 H 381.372 -2.35127 1.85352 0
M  V30 4033 H 378.918 -1.12998 0.892604 0
M  V30 4034 H 380.871 -4.20522 0.271907 0
M  V30 4035 H 379.595 -3.22813 -0.495912 0
M  V30 4036 H 378.254 -3.28074 1.63595 0
M  V30 4037 H 377.902 -5.02862 -0.117845 0
M  V30 4038 H 377.602 -5.67765 1.51384 0
M  V30 4039 H 379.126 -6.06938 0.667693 0
M  V30 4040 H 380.54 -5.05688 2.70098 0
M  V30 4041 H 378.937 -4.89254 3.47491 0
M  V30 4042 H 380.007 -3.4826 3.37406 0
M  V30 4043 N 381.35 -0.985608 -1.22978 0
M  V30 4044 C 382.59 -0.665487 -1.93263 0
M  V30 4045 C 382.954 0.78706 -1.75127 0
M  V30 4046 O 384.155 1.21826 -2.39608 0
M  V30 4047 C 382.426 -1.0515 -3.41582 0
M  V30 4048 S 383.985 -0.848637 -4.30516 0
M  V30 4049 H 380.803 -0.24355 -0.667985 0
M  V30 4050 H 383.405 -1.26635 -1.48942 0
M  V30 4051 H 382.109 -2.10517 -3.52293 0
M  V30 4052 H 381.64 -0.442134 -3.90908 0
M  V30 4053 H 383.655 0.264717 -4.95493 0
M  V30 4054 N 382.828 1.3818 -0.7579 0
M  V30 4055 C 383.758 2.33027 -0.148597 0
M  V30 4056 C 384.739 1.55085 0.69875 0
M  V30 4057 O 385.924 1.83384 0.639053 0
M  V30 4058 C 383.054 3.3928 0.742034 0
M  V30 4059 C 382.008 4.28 -0.00291946 0
M  V30 4060 C 381.334 5.25146 1.00625 0
M  V30 4061 C 382.634 5.08938 -1.17385 0
M  V30 4062 H 384.328 2.84231 -0.940909 0
M  V30 4063 H 381.874 1.36659 -0.453908 0
M  V30 4064 H 383.827 4.046 1.17799 0
M  V30 4065 H 382.551 2.86569 1.56671 0
M  V30 4066 H 381.21 3.64192 -0.419504 0
M  V30 4067 H 380.858 4.68721 1.8251 0
M  V30 4068 H 380.558 5.85361 0.512428 0
M  V30 4069 H 382.082 5.93342 1.44143 0
M  V30 4070 H 383.496 5.67474 -0.815224 0
M  V30 4071 H 381.893 5.7841 -1.59882 0
M  V30 4072 H 382.963 4.42424 -1.98468 0
M  V30 4073 N 384.306 0.507319 1.49211 0
M  V30 4074 C 385.552 -0.0350047 2.0277 0
M  V30 4075 C 385.885 -1.3606 1.38569 0
M  V30 4076 O 385.16 -1.87321 0.523542 0
M  V30 4077 C 385.443 -0.180916 3.59645 0
M  V30 4078 C 385.296 1.16825 4.34364 0
M  V30 4079 C 386.615 -0.918558 4.30407 0
M  V30 4080 H 383.734 -0.0112473 0.736914 0
M  V30 4081 H 386.376 0.659956 1.7817 0
M  V30 4082 H 384.526 -0.772826 3.80736 0
M  V30 4083 H 386.198 1.79952 4.24753 0
M  V30 4084 H 384.441 1.75594 3.96673 0
M  V30 4085 H 385.112 1.01939 5.42506 0
M  V30 4086 H 387.588 -0.41649 4.1401 0
M  V30 4087 H 386.464 -0.989505 5.39907 0
M  V30 4088 H 386.725 -1.96373 3.96093 0
M  V30 4089 N 385.784 -1.5574 0.241426 0
M  V30 4090 C 387.014 -2.02913 -0.38857 0
M  V30 4091 C 387.422 -1.12014 -1.52478 0
M  V30 4092 O 386.765 -0.125903 -1.83268 0
M  V30 4093 C 386.827 -3.4636 -0.963075 0
M  V30 4094 C 386.491 -4.56982 0.0401916 0
M  V30 4095 C 387.488 -5.12941 0.847766 0
M  V30 4096 C 385.173 -5.0203 0.164699 0
M  V30 4097 C 387.167 -6.12437 1.76636 0
M  V30 4098 C 384.854 -6.01358 1.0868 0
M  V30 4099 C 385.852 -6.5644 1.88616 0
M  V30 4100 O 385.54 -7.53831 2.79273 0
M  V30 4101 H 385.272 -0.668983 -0.0971452 0
M  V30 4102 H 387.826 -2.02198 0.361248 0
M  V30 4103 H 386.056 -3.44206 -1.76235 0
M  V30 4104 H 387.745 -3.77065 -1.50257 0
M  V30 4105 H 388.511 -4.78974 0.762133 0
M  V30 4106 H 384.39 -4.58824 -0.447411 0
M  V30 4107 H 387.934 -6.55355 2.39071 0
M  V30 4108 H 383.831 -6.34746 1.17338 0
M  V30 4109 H 384.599 -7.71428 2.73572 0
M  V30 4110 N 387.262 0.0317525 -1.57568 0
M  V30 4111 C 388.508 0.724175 -1.8943 0
M  V30 4112 C 388.841 1.75149 -0.838836 0
M  V30 4113 O 388.116 1.93948 0.146422 0
M  V30 4114 C 388.399 1.39615 -3.31933 0
M  V30 4115 C 388.252 0.382537 -4.4817 0
M  V30 4116 C 389.571 2.33084 -3.73309 0
M  V30 4117 H 386.69 0.261797 -0.688935 0
M  V30 4118 H 389.332 -0.013017 -1.89996 0
M  V30 4119 H 387.482 2.02451 -3.31581 0
M  V30 4120 H 389.154 -0.243689 -4.60656 0
M  V30 4121 H 387.397 -0.29844 -4.32772 0
M  V30 4122 H 388.068 0.891145 -5.44759 0
M  V30 4123 H 390.544 1.80295 -3.7501 0
M  V30 4124 H 389.42 2.77084 -4.73831 0
M  V30 4125 H 389.681 3.19643 -3.05419 0
M  V30 4126 N 388.74 1.54641 0.303973 0
M  V30 4127 C 389.97 1.77511 1.05705 0
M  V30 4128 C 390.378 0.533228 1.81531 0
M  V30 4129 O 389.721 -0.506423 1.76582 0
M  V30 4130 C 389.783 2.92779 2.08617 0
M  V30 4131 C 389.447 4.30977 1.52013 0
M  V30 4132 C 390.444 5.11115 0.9517 0
M  V30 4133 C 388.129 4.77571 1.55665 0
M  V30 4134 C 390.123 6.35966 0.427327 0
M  V30 4135 C 387.81 6.02384 1.02841 0
M  V30 4136 C 388.808 6.81417 0.464713 0
M  V30 4137 O 388.496 8.03881 -0.0555283 0
M  V30 4138 H 388.228 0.59579 0.319391 0
M  V30 4139 H 390.782 2.02401 0.349712 0
M  V30 4140 H 389.012 2.63506 2.83022 0
M  V30 4141 H 390.701 3.03252 2.69802 0
M  V30 4142 H 391.467 4.76264 0.916407 0
M  V30 4143 H 387.346 4.16085 1.9848 0
M  V30 4144 H 390.89 6.97599 -0.0133062 0
M  V30 4145 H 386.787 6.36723 1.06084 0
M  V30 4146 H 387.555 8.18479 0.0580522 0
M  V30 4147 N 390.218 -0.567019 1.47046 0
M  V30 4148 C 391.151 -1.69016 1.53326 0
M  V30 4149 C 392.129 -1.57949 0.386126 0
M  V30 4150 O 393.313 -1.78945 0.592529 0
M  V30 4151 C 390.44 -3.07191 1.42658 0
M  V30 4152 C 389.486 -3.36733 2.6175 0
M  V30 4153 S 390.319 -3.27069 4.24012 0
M  V30 4154 C 391.475 -4.67755 4.1588 0
M  V30 4155 H 391.708 -1.63434 2.48348 0
M  V30 4156 H 389.241 -0.747048 1.35124 0
M  V30 4157 H 391.199 -3.86897 1.37191 0
M  V30 4158 H 389.86 -3.10249 0.490369 0
M  V30 4159 H 389.053 -4.37441 2.50323 0
M  V30 4160 H 388.655 -2.64627 2.64289 0
M  V30 4161 H 390.947 -5.58491 3.83529 0
M  V30 4162 H 391.89 -4.84239 5.16641 0
M  V30 4163 H 392.298 -4.45341 3.46889 0
M  V30 4164 N 391.696 -1.35014 -0.812953 0
M  V30 4165 C 393.107 -1.25035 -1.38648 0
M  V30 4166 C 393.458 0.119967 -1.95833 0
M  V30 4167 O 392.583 1.02069 -1.90816 0
M  V30 4168 C 393.178 -2.26394 -2.52054 0
M  V30 4169 C 391.737 -2.20175 -3.05287 0
M  V30 4170 C 390.884 -2.12451 -1.78213 0
M  V30 4171 H 393.835 -1.46235 -0.616516 0
M  V30 4172 H 393.856 -1.88672 -3.30429 0
M  V30 4173 H 393.368 -3.26116 -2.10404 0
M  V30 4174 H 391.469 -1.23841 -3.51417 0
M  V30 4175 H 391.582 -3.11863 -3.63701 0
M  V30 4176 H 389.946 -1.58328 -1.9951 0
M  V30 4177 H 390.729 -3.14024 -1.38723 0
M  V30 4178 N 393.175 1.03435 -1.18907 0
M  V30 4179 C 394.123 2.13703 -0.918353 0
M  V30 4180 C 395.117 1.68947 0.123767 0
M  V30 4181 O 396.323 1.79983 -0.0249701 0
M  V30 4182 H 392.698 0.698112 -0.279542 0
M  V30 4183 H 394.669 2.33731 -1.85506 0
M  V30 4184 C 393.418 3.44542 -0.467532 0
M  V30 4185 H 392.741 3.79394 -1.26095 0
M  V30 4186 H 394.181 4.22812 -0.317164 0
M  V30 4187 C 392.64 3.26829 0.817588 0
M  V30 4188 O 393.17 3.54975 1.88031 0
M  V30 4189 N 391.376 2.80139 0.772677 0
M  V30 4190 H 390.923 2.57434 -0.0923883 0
M  V30 4191 H 390.881 2.68668 1.63294 0
M  V30 4192 N 394.653 0.992116 1.22453 0
M  V30 4193 C 395.901 0.666215 1.90804 0
M  V30 4194 C 396.222 -0.804152 1.77647 0
M  V30 4195 O 395.492 -1.57629 1.16318 0
M  V30 4196 H 394.072 0.243423 0.706225 0
M  V30 4197 H 396.734 1.25845 1.48825 0
M  V30 4198 H 395.83 0.928069 2.97982 0
M  V30 4199 N 396.131 -1.37776 0.765217 0
M  V30 4200 C 397.356 -2.04651 0.336537 0
M  V30 4201 C 397.781 -1.57337 -1.03086 0
M  V30 4202 O 397.139 -0.730621 -1.65927 0
M  V30 4203 C 397.187 -3.58577 0.381468 0
M  V30 4204 O 396.291 -4.07706 -0.62042 0
M  V30 4205 H 395.632 -0.64756 0.146838 0
M  V30 4206 H 398.162 -1.76221 1.03959 0
M  V30 4207 H 398.172 -4.07314 0.236448 0
M  V30 4208 H 396.847 -3.9237 1.37907 0
M  V30 4209 H 395.424 -3.70306 -0.439056 0
M  V30 4210 N 397.609 -0.515225 -1.4894 0
M  V30 4211 C 398.539 0.244628 -2.32215 0
M  V30 4212 C 399.52 0.949136 -1.41157 0
M  V30 4213 O 400.705 0.937783 -1.70057 0
M  V30 4214 C 397.835 1.30096 -3.22013 0
M  V30 4215 C 396.789 0.715486 -4.21977 0
M  V30 4216 C 396.115 1.87339 -5.00808 0
M  V30 4217 C 397.415 -0.302982 -5.2142 0
M  V30 4218 H 399.109 -0.450501 -2.95991 0
M  V30 4219 H 396.655 -0.218098 -1.42339 0
M  V30 4220 H 398.608 1.84037 -3.79089 0
M  V30 4221 H 397.332 2.02547 -2.56207 0
M  V30 4222 H 395.991 0.197715 -3.66066 0
M  V30 4223 H 395.639 2.58592 -4.31438 0
M  V30 4224 H 395.339 1.48764 -5.68457 0
M  V30 4225 H 396.863 2.41686 -5.60732 0
M  V30 4226 H 398.277 0.148802 -5.73107 0
M  V30 4227 H 396.674 -0.60532 -5.97039 0
M  V30 4228 H 397.744 -1.21395 -4.69459 0
M  V30 4229 N 399.087 1.5561 -0.249682 0
M  V30 4230 C 400.017 2.24477 0.642826 0
M  V30 4231 C 400.998 1.22601 1.17911 0
M  V30 4232 O 402.183 1.5126 1.21795 0
M  V30 4233 C 399.313 2.94638 1.83863 0
M  V30 4234 C 398.267 4.03227 1.435 0
M  V30 4235 C 397.593 4.60828 2.71186 0
M  V30 4236 C 398.893 5.18796 0.604002 0
M  V30 4237 H 400.587 2.99321 0.0685625 0
M  V30 4238 H 398.133 1.43965 0.0315363 0
M  V30 4239 H 400.086 3.41517 2.46868 0
M  V30 4240 H 398.81 2.17287 2.43832 0
M  V30 4241 H 397.469 3.57121 0.828275 0
M  V30 4242 H 397.117 3.80174 3.29358 0
M  V30 4243 H 396.817 5.34132 2.44901 0
M  V30 4244 H 398.341 5.10442 3.35084 0
M  V30 4245 H 399.755 5.61883 1.13842 0
M  V30 4246 H 398.152 5.98506 0.437097 0
M  V30 4247 H 399.222 4.83384 -0.383147 0
M  V30 4248 N 400.565 -0.0233959 1.57583 0
M  V30 4249 C 401.842 -0.748794 1.807 0
M  V30 4250 C 402.222 -1.9327 0.849106 0
M  V30 4251 O 401.57 -2.28247 -0.107468 0
M  V30 4252 C 401.78 -1.17651 3.28571 0
M  V30 4253 C 403.128 -1.59008 3.93702 0
M  V30 4254 O 404.152 -1.27094 3.32755 0
M  V30 4255 O 403.011 -2.18264 5.01022 0
M  V30 4256 H 400.105 -0.362578 0.743281 0
M  V30 4257 H 402.651 0.000261958 1.697 0
M  V30 4258 H 401.423 -0.331603 3.89892 0
M  V30 4259 H 401.046 -1.98541 3.44481 0
M  V30 4260 N 402.043 -1.548 -0.295768 0
M  V30 4261 C 403.459 -1.4613 -0.641722 0
M  V30 4262 C 403.659 -0.656771 -1.90496 0
M  V30 4263 O 402.715 -0.166547 -2.5195 0
M  V30 4264 C 404.028 -2.90141 -0.789852 0
M  V30 4265 C 405.576 -3.00216 -0.885396 0
M  V30 4266 C 406.051 -4.45434 -1.06548 0
M  V30 4267 N 407.542 -4.49166 -1.13156 0
M  V30 4268 C 408.277 -5.58717 -1.28929 0
M  V30 4269 N 407.773 -6.78182 -1.41567 0
M  V30 4270 N 409.566 -5.46415 -1.31859 0
M  V30 4271 H 401.717 -2.05574 0.534147 0
M  V30 4272 H 403.98 -0.931259 0.177372 0
M  V30 4273 H 403.686 -3.51635 0.0675598 0
M  V30 4274 H 403.56 -3.37859 -1.67724 0
M  V30 4275 H 405.947 -2.38833 -1.73329 0
M  V30 4276 H 406.028 -2.55787 0.0261185 0
M  V30 4277 H 405.672 -5.07413 -0.222335 0
M  V30 4278 H 405.602 -4.87499 -1.9913 0
M  V30 4279 H 408.093 -3.631 -1.04721 0
M  V30 4280 H 408.406 -7.57428 -1.53372 0
M  V30 4281 H 406.751 -6.81037 -1.38613 0
M  V30 4282 H 409.942 -4.5203 -1.21601 0
M  V30 4283 H 410.115 -6.31841 -1.43808 0
M  V30 4284 N 403.521 0.559213 -1.47345 0
M  V30 4285 C 404.451 1.67622 -1.62558 0
M  V30 4286 C 405.432 1.63331 -0.475087 0
M  V30 4287 O 406.617 1.80983 -0.704182 0
M  V30 4288 C 403.747 3.0626 -1.63774 0
M  V30 4289 C 402.701 3.25397 -2.7803 0
M  V30 4290 C 402.027 4.64801 -2.64318 0
M  V30 4291 C 403.327 3.10965 -4.19641 0
M  V30 4292 H 405.021 1.55146 -2.56067 0
M  V30 4293 H 402.567 0.744961 -1.23233 0
M  V30 4294 H 404.52 3.84247 -1.73008 0
M  V30 4295 H 403.244 3.1969 -0.66825 0
M  V30 4296 H 401.903 2.49817 -2.68304 0
M  V30 4297 H 401.551 4.75028 -1.65401 0
M  V30 4298 H 401.251 4.78555 -3.40968 0
M  V30 4299 H 402.775 5.44926 -2.75478 0
M  V30 4300 H 404.189 3.78772 -4.30354 0
M  V30 4301 H 402.586 3.36229 -4.97062 0
M  V30 4302 H 403.656 2.07736 -4.38148 0
M  V30 4303 N 404.999 1.35443 0.805782 0
M  V30 4304 C 406.224 1.32037 1.59941 0
M  V30 4305 C 406.649 -0.0994215 1.87837 0
M  V30 4306 O 406.007 -1.06648 1.46615 0
M  V30 4307 C 406.055 2.13354 2.90711 0
M  V30 4308 O 405.159 1.5148 3.83572 0
M  V30 4309 H 404.5 0.452666 0.485787 0
M  V30 4310 H 407.03 1.78496 1.00002 0
M  V30 4311 H 407.04 2.25338 3.40128 0
M  V30 4312 H 405.715 3.16572 2.69732 0
M  V30 4313 H 404.292 1.4834 3.42125 0
M  V30 4314 N 406.477 -1.02803 1.19454 0
M  V30 4315 C 407.717 -1.77769 1.00883 0
M  V30 4316 C 408.081 -1.86596 -0.45233 0
M  V30 4317 O 409.282 -2.57895 -0.757877 0
M  V30 4318 C 407.553 -3.16486 1.66046 0
M  V30 4319 S 409.112 -4.07632 1.62424 0
M  V30 4320 H 405.93 -0.611949 0.361993 0
M  V30 4321 H 408.532 -1.23175 1.51816 0
M  V30 4322 H 407.236 -3.0768 2.7159 0
M  V30 4323 H 406.767 -3.76156 1.15196 0
M  V30 4324 H 408.782 -4.91937 0.64903 0
M  V30 4325 N 407.956 -0.998596 -1.21925 0
M  V30 4326 C 408.886 -0.573688 -2.26343 0
M  V30 4327 C 409.867 0.402296 -1.65274 0
M  V30 4328 O 411.052 0.291683 -1.91997 0
M  V30 4329 C 408.182 0.106839 -3.47136 0
M  V30 4330 C 407.136 -0.788269 -4.20678 0
M  V30 4331 C 406.462 0.0254927 -5.34694 0
M  V30 4332 C 407.762 -2.08784 -4.78755 0
M  V30 4333 H 409.456 -1.44651 -2.62138 0
M  V30 4334 H 407.002 -0.696975 -1.26009 0
M  V30 4335 H 408.955 0.415531 -4.19346 0
M  V30 4336 H 407.679 1.01424 -3.10452 0
M  V30 4337 H 406.338 -1.08069 -3.50309 0
M  V30 4338 H 405.986 0.933989 -4.94253 0
M  V30 4339 H 405.686 -0.570437 -5.84825 0
M  V30 4340 H 407.21 0.328147 -6.09718 0
M  V30 4341 H 408.624 -1.84272 -5.42878 0
M  V30 4342 H 407.021 -2.63307 -5.39249 0
M  V30 4343 H 408.091 -2.76284 -3.98491 0
M  V30 4344 N 409.434 1.37368 -0.772513 0
M  V30 4345 C 410.711 1.93839 -0.26188 0
M  V30 4346 C 411.091 1.7061 1.24319 0
M  V30 4347 O 410.439 1.05534 2.02669 0
M  V30 4348 C 410.649 3.43154 -0.636102 0
M  V30 4349 C 411.997 4.20249 -0.606324 0
M  V30 4350 O 413.021 3.5152 -0.575538 0
M  V30 4351 O 411.88 5.42809 -0.634086 0
M  V30 4352 H 408.974 0.82478 -0.0605555 0
M  V30 4353 H 411.52 1.4665 -0.853917 0
M  V30 4354 H 410.292 3.53647 -1.6748 0
M  V30 4355 H 409.915 3.97596 -0.0170516 0
M  V30 4356 N 410.912 0.523116 1.48665 0
M  V30 4357 C 412.16 -0.0134497 2.02096 0
M  V30 4358 C 412.481 -1.35418 1.40311 0
M  V30 4359 O 411.751 -1.87543 0.566074 0
M  V30 4360 H 410.331 -0.00795915 0.746958 0
M  V30 4361 H 412.993 0.685388 1.82451 0
M  V30 4362 H 412.089 -0.126849 3.11842 0
M  V30 4363 N 412.39 -1.55475 0.257931 0
M  V30 4364 C 413.618 -2.03609 -0.367559 0
M  V30 4365 C 414.033 -1.13687 -1.50734 0
M  V30 4366 O 413.39 -0.153479 -1.81853 0
M  V30 4367 C 413.441 -3.51001 -0.864908 0
M  V30 4368 O 413.162 -4.37499 0.229465 0
M  V30 4369 C 414.663 -4.14946 -1.55997 0
M  V30 4370 H 411.883 -0.665459 -0.0860521 0
M  V30 4371 H 414.427 -2.00843 0.385014 0
M  V30 4372 H 412.582 -3.54266 -1.56762 0
M  V30 4373 H 412.996 -5.24286 -0.14998 0
M  V30 4374 H 414.47 -5.19735 -1.85956 0
M  V30 4375 H 414.947 -3.6209 -2.4857 0
M  V30 4376 H 415.553 -4.15635 -0.901543 0
M  V30 4377 N 413.868 0.0150385 -1.57593 0
M  V30 4378 C 415.279 0.559832 -1.78109 0
M  V30 4379 C 415.63 1.74814 -0.890756 0
M  V30 4380 O 414.755 2.16216 -0.0892482 0
M  V30 4381 C 415.35 1.02238 -3.23006 0
M  V30 4382 C 413.909 1.51258 -3.44671 0
M  V30 4383 C 413.056 0.456955 -2.73509 0
M  V30 4384 H 416.007 -0.211169 -1.57289 0
M  V30 4385 H 416.028 1.88912 -3.30292 0
M  V30 4386 H 415.54 0.157302 -3.87781 0
M  V30 4387 H 413.641 2.39905 -2.8509 0
M  V30 4388 H 413.754 1.55042 -4.5332 0
M  V30 4389 H 412.118 0.915196 -2.37689 0
M  V30 4390 H 412.901 -0.398896 -3.40975 0
M  V30 4391 N 415.346 1.54954 0.287554 0
M  V30 4392 C 416.757 1.65732 0.859634 0
M  V30 4393 C 417.108 0.574767 1.87592 0
M  V30 4394 O 416.233 -0.286299 2.14498 0
M  V30 4395 C 416.828 3.00438 1.56597 0
M  V30 4396 C 415.387 3.13292 2.08627 0
M  V30 4397 C 414.534 2.61473 0.923416 0
M  V30 4398 H 417.485 1.5857 0.0642338 0
M  V30 4399 H 417.506 2.92613 2.43224 0
M  V30 4400 H 417.018 3.79207 0.826053 0
M  V30 4401 H 415.119 2.39268 2.85625 0
M  V30 4402 H 415.232 4.19647 2.31157 0
M  V30 4403 H 413.596 2.18264 1.31275 0
M  V30 4404 H 414.379 3.42733 0.197241 0
M  V30 4405 N 416.824 -0.551391 1.4764 0
M  V30 4406 C 417.754 -1.66757 1.63445 0
M  V30 4407 C 418.735 -1.63077 0.483742 0
M  V30 4408 O 419.92 -1.80607 0.71377 0
M  V30 4409 C 417.05 -3.05387 1.65396 0
M  V30 4410 C 416.004 -3.23918 2.79752 0
M  V30 4411 C 415.33 -4.63393 2.66779 0
M  V30 4412 C 416.63 -3.08735 4.21284 0
M  V30 4413 H 418.324 -1.53786 2.56886 0
M  V30 4414 H 415.87 -0.738415 1.23626 0
M  V30 4415 H 417.823 -3.83325 1.75043 0
M  V30 4416 H 416.547 -3.19332 0.685195 0
M  V30 4417 H 415.206 -2.48391 2.69625 0
M  V30 4418 H 414.854 -4.74144 1.67918 0
M  V30 4419 H 414.554 -4.7674 3.43501 0
M  V30 4420 H 416.078 -5.43458 2.78364 0
M  V30 4421 H 417.492 -3.76484 4.32357 0
M  V30 4422 H 415.889 -3.33588 4.98838 0
M  V30 4423 H 416.959 -2.0541 4.39243 0
M  V30 4424 N 418.302 -1.35869 -0.798587 0
M  V30 4425 C 419.527 -1.32883 -1.59238 0
M  V30 4426 C 419.952 0.0894587 -1.87887 0
M  V30 4427 O 419.31 1.05869 -1.47178 0
M  V30 4428 C 419.358 -2.14892 -2.89575 0
M  V30 4429 O 418.462 -1.53512 -3.82763 0
M  V30 4430 H 417.803 -0.455236 -0.48338 0
M  V30 4431 H 420.333 -1.79024 -0.990539 0
M  V30 4432 H 420.343 -2.27139 -3.38928 0
M  V30 4433 H 419.018 -3.17998 -2.68049 0
M  V30 4434 H 417.595 -1.50153 -3.41334 0
M  V30 4435 N 419.78 1.02168 -1.19998 0
M  V30 4436 C 421.026 1.7606 -1.01855 0
M  V30 4437 C 421.381 1.87178 0.445222 0
M  V30 4438 O 420.674 1.3828 1.32624 0
M  V30 4439 C 420.868 3.18081 -1.62969 0
M  V30 4440 C 420.697 3.20809 -3.15137 0
M  V30 4441 C 419.467 3.28342 -3.84083 0
M  V30 4442 C 421.665 3.07268 -4.1242 0
M  V30 4443 N 419.647 3.2052 -5.23584 0
M  V30 4444 C 421.018 3.0716 -5.38566 0
M  V30 4445 C 423.073 2.91448 -4.03686 0
M  V30 4446 C 421.776 2.92853 -6.56985 0
M  V30 4447 C 423.802 2.78494 -5.21723 0
M  V30 4448 C 423.164 2.79046 -6.46771 0
M  V30 4449 H 419.263 0.655192 -0.426905 0
M  V30 4450 H 421.847 1.21564 -1.52087 0
M  V30 4451 H 420.018 3.70882 -1.15329 0
M  V30 4452 H 421.75 3.80375 -1.38192 0
M  V30 4453 H 418.505 3.34859 -3.34913 0
M  V30 4454 H 418.929 3.19997 -5.96599 0
M  V30 4455 H 423.571 2.89838 -3.07821 0
M  V30 4456 H 421.289 2.93213 -7.53028 0
M  V30 4457 H 424.875 2.67278 -5.16773 0
M  V30 4458 H 423.755 2.69134 -7.36571 0
M  V30 4459 N 421.258 1.00505 1.21394 0
M  V30 4460 C 422.208 0.536503 2.21598 0
M  V30 4461 C 423.192 -0.401914 1.55799 0
M  V30 4462 O 424.384 -0.226757 1.75541 0
M  V30 4463 C 421.513 -0.135446 3.43033 0
M  V30 4464 C 420.599 0.823992 4.16018 0
M  V30 4465 N 420.99 1.97683 4.6557 0
M  V30 4466 C 419.288 0.642387 4.4135 0
M  V30 4467 C 419.989 2.58003 5.21354 0
M  V30 4468 N 418.965 1.86162 5.1073 0
M  V30 4469 H 422.767 1.41557 2.57563 0
M  V30 4470 H 420.281 0.868878 1.37202 0
M  V30 4471 H 422.278 -0.488584 4.14027 0
M  V30 4472 H 420.938 -1.01049 3.08576 0
M  V30 4473 H 421.949 2.3572 4.61147 0
M  V30 4474 H 418.626 -0.185578 4.17087 0
M  V30 4475 H 420.016 3.555 5.70149 0
M  V30 4476 N 422.737 -1.36956 0.779787 0
M  V30 4477 C 423.67 -2.27896 0.117681 0
M  V30 4478 C 424.648 -1.46736 -0.700523 0
M  V30 4479 O 425.832 -1.76055 -0.673568 0
M  V30 4480 C 422.959 -3.28136 -0.839296 0
M  V30 4481 C 422.005 -4.26373 -0.10409 0
M  V30 4482 S 422.838 -5.2157 1.21348 0
M  V30 4483 C 423.994 -6.25359 0.260249 0
M  V30 4484 H 424.227 -2.83704 0.888778 0
M  V30 4485 H 421.76 -1.43352 0.57355 0
M  V30 4486 H 423.718 -3.86394 -1.38601 0
M  V30 4487 H 422.379 -2.7126 -1.58356 0
M  V30 4488 H 421.572 -4.97121 -0.82986 0
M  V30 4489 H 421.174 -3.72147 0.371858 0
M  V30 4490 H 423.466 -6.75145 -0.564435 0
M  V30 4491 H 424.409 -7.01885 0.936135 0
M  V30 4492 H 424.817 -5.64345 -0.132127 0
M  V30 4493 N 424.215 -0.530993 -1.48385 0
M  V30 4494 C 425.631 -0.188919 -1.58478 0
M  V30 4495 C 425.831 1.30786 -1.53288 0
M  V30 4496 O 424.887 2.08619 -1.42248 0
M  V30 4497 C 426.2 -0.792343 -2.90073 0
M  V30 4498 C 427.748 -0.76117 -3.03604 0
M  V30 4499 C 428.223 -1.34319 -4.37861 0
M  V30 4500 N 429.714 -1.3052 -4.44431 0
M  V30 4501 C 430.449 -1.72543 -5.46824 0
M  V30 4502 N 429.945 -2.22299 -6.56167 0
M  V30 4503 N 431.738 -1.63773 -5.37712 0
M  V30 4504 H 423.889 -1.50377 -1.50002 0
M  V30 4505 H 426.152 -0.625559 -0.712306 0
M  V30 4506 H 425.858 -1.84323 -2.99529 0
M  V30 4507 H 425.732 -0.270026 -3.76232 0
M  V30 4508 H 428.119 0.280957 -2.93759 0
M  V30 4509 H 428.2 -1.32097 -2.19053 0
M  V30 4510 H 427.844 -2.38425 -4.4846 0
M  V30 4511 H 427.774 -0.759064 -5.21101 0
M  V30 4512 H 430.265 -0.940973 -3.65997 0
M  V30 4513 H 430.578 -2.52356 -7.30436 0
M  V30 4514 H 428.923 -2.26293 -6.57127 0
M  V30 4515 H 432.114 -1.24698 -4.51185 0
M  V30 4516 H 432.287 -1.96844 -6.17379 0
M  V30 4517 N 425.693 1.55336 -0.266172 0
M  V30 4518 C 426.933 2.01303 0.354459 0
M  V30 4519 C 427.297 1.15046 1.53715 0
M  V30 4520 O 428.498 1.50554 2.22681 0
M  V30 4521 C 426.769 3.49748 0.735579 0
M  V30 4522 S 428.328 4.1771 1.34401 0
M  V30 4523 H 425.146 0.702333 0.110674 0
M  V30 4524 H 427.748 1.91653 -0.385916 0
M  V30 4525 H 426.452 4.10181 -0.134196 0
M  V30 4526 H 425.983 3.63364 1.50764 0
M  V30 4527 H 427.998 4.20594 2.63278 0
M  V30 4528 N 427.171 -0.0066808 1.57599 0
M  V30 4529 C 428.118 -1.00024 2.08 0
M  V30 4530 C 429.088 -1.34549 0.973943 0
M  V30 4531 O 430.273 -1.44502 1.24595 0
M  V30 4532 C 427.413 -2.2891 2.58252 0
M  V30 4533 C 426.526 -2.00346 3.82734 0
M  V30 4534 C 425.661 -3.23265 4.21513 0
M  V30 4535 C 424.7 -2.90357 5.3885 0
M  V30 4536 N 423.837 -4.05793 5.72954 0
M  V30 4537 H 428.677 -0.563499 2.92624 0
M  V30 4538 H 426.214 -0.266592 1.44664 0
M  V30 4539 H 428.172 -3.04247 2.85464 0
M  V30 4540 H 426.802 -2.70265 1.76512 0
M  V30 4541 H 425.854 -1.15406 3.62471 0
M  V30 4542 H 427.166 -1.72086 4.68175 0
M  V30 4543 H 426.32 -4.06953 4.49971 0
M  V30 4544 H 425.059 -3.54657 3.34768 0
M  V30 4545 H 424.064 -2.05075 5.10122 0
M  V30 4546 H 425.289 -2.60219 6.27266 0
M  V30 4547 H 423.235 -4.37094 4.89167 0
M  V30 4548 H 423.152 -3.81034 6.52954 0
M  V30 4549 H 424.42 -4.90289 6.06001 0
M  V30 4550 N 428.649 -1.55105 -0.279332 0
M  V30 4551 C 429.898 -1.74618 -1.00952 0
M  V30 4552 C 430.211 -0.551096 -1.87676 0
M  V30 4553 O 431.417 -0.628507 -2.64125 0
M  V30 4554 C 429.873 -3.09025 -1.84476 0
M  V30 4555 C 429.481 -4.36081 -1.0265 0
M  V30 4556 C 431.225 -3.37891 -2.56963 0
M  V30 4557 C 429.132 -5.6153 -1.85576 0
M  V30 4558 H 428.062 -0.650868 -0.38064 0
M  V30 4559 H 430.713 -1.81569 -0.265475 0
M  V30 4560 H 429.095 -2.96095 -2.62952 0
M  V30 4561 H 430.269 -4.59909 -0.286354 0
M  V30 4562 H 428.584 -4.14312 -0.416464 0
M  V30 4563 H 431.181 -4.28822 -3.19399 0
M  V30 4564 H 431.524 -2.57737 -3.26921 0
M  V30 4565 H 432.057 -3.5189 -1.85522 0
M  V30 4566 H 428.796 -6.44413 -1.2005 0
M  V30 4567 H 428.316 -5.41854 -2.57204 0
M  V30 4568 H 429.995 -5.99594 -2.43096 0
M  V30 4569 N 430.127 0.543554 -1.4793 0
M  V30 4570 C 431.09 1.63156 -1.60975 0
M  V30 4571 C 432.09 1.53346 -0.483899 0
M  V30 4572 O 433.28 1.5726 -0.749339 0
M  V30 4573 C 430.412 3.02743 -1.56716 0
M  V30 4574 H 431.605 1.52934 -2.57975 0
M  V30 4575 H 429.158 0.764557 -1.36324 0
M  V30 4576 H 429.893 3.18484 -0.611418 0
M  V30 4577 H 429.678 3.11272 -2.38438 0
M  V30 4578 H 431.168 3.81871 -1.6901 0
M  V30 4579 N 431.605 1.3629 0.791371 0
M  V30 4580 C 432.537 1.26321 1.91248 0
M  V30 4581 C 433.55 0.18313 1.61767 0
M  V30 4582 O 434.739 0.437682 1.73051 0
M  V30 4583 C 431.839 0.925901 3.26007 0
M  V30 4584 C 431.012 2.10746 3.83281 0
M  V30 4585 C 430.071 1.74352 4.96475 0
M  V30 4586 O 429.097 2.46416 5.13096 0
M  V30 4587 N 430.299 0.676058 5.7655 0
M  V30 4588 H 433.064 2.22915 2.00323 0
M  V30 4589 H 430.625 1.29659 0.969546 0
M  V30 4590 H 432.617 0.663636 3.99222 0
M  V30 4591 H 431.187 0.0491581 3.12561 0
M  V30 4592 H 430.407 2.53264 3.02077 0
M  V30 4593 H 431.695 2.8969 4.18279 0
M  V30 4594 H 431.093 0.0776467 5.65647 0
M  V30 4595 H 429.65 0.473612 6.50077 0
M  V30 4596 N 433.083 -1.0153 1.20538 0
M  V30 4597 C 434.331 -1.74803 1.01432 0
M  V30 4598 C 434.652 -1.8963 -0.454456 0
M  V30 4599 O 433.922 -1.43975 -1.32846 0
M  V30 4600 H 432.502 -0.647598 0.372324 0
M  V30 4601 H 435.164 -1.22402 1.5167 0
M  V30 4602 H 434.26 -2.75114 1.47373 0
M  V30 4603 N 434.561 -1.01147 -1.20859 0
M  V30 4604 C 435.524 -0.582224 -2.21682 0
M  V30 4605 C 436.524 0.344887 -1.57058 0
M  V30 4606 O 437.714 0.134281 -1.73682 0
M  V30 4607 C 434.846 0.150496 -3.40568 0
M  V30 4608 H 436.039 -1.47408 -2.61172 0
M  V30 4609 H 433.592 -0.800695 -1.34233 0
M  V30 4610 H 434.327 1.0575 -3.06574 0
M  V30 4611 H 434.112 -0.515444 -3.88697 0
M  V30 4612 H 435.602 0.438344 -4.15293 0
M  V30 4613 N 436.039 1.36541 -0.78704 0
M  V30 4614 C 437.002 2.28413 -0.189778 0
M  V30 4615 C 438.002 1.48719 0.611499 0
M  V30 4616 O 439.192 1.68737 0.432842 0
M  V30 4617 C 436.324 3.32824 0.737638 0
M  V30 4618 H 437.517 2.82743 -0.999831 0
M  V30 4619 H 435.07 1.46065 -0.556298 0
M  V30 4620 H 435.805 2.83646 1.57212 0
M  V30 4621 H 435.59 3.91752 0.165044 0
M  V30 4622 H 437.08 4.0144 1.15047 0
M  V30 4623 N 437.518 0.538854 1.48102 0
M  V30 4624 C 438.466 -0.232325 2.31437 0
M  V30 4625 C 439.46 -0.927004 1.41785 0
M  V30 4626 O 440.666 -0.850378 1.58646 0
M  V30 4627 H 437.041 -0.0937916 0.746128 0
M  V30 4628 H 439.012 0.489986 2.9435 0
M  V30 4629 C 437.761 -1.26074 3.24038 0
M  V30 4630 H 437.084 -0.735609 3.92974 0
M  V30 4631 H 438.524 -1.77157 3.85216 0
M  V30 4632 C 436.983 -2.29902 2.46265 0
M  V30 4633 O 437.513 -3.36502 2.19384 0
M  V30 4634 N 435.719 -2.03348 2.07601 0
M  V30 4635 H 435.266 -1.16675 2.29662 0
M  V30 4636 H 435.224 -2.73038 1.55877 0
M  V30 4637 N 438.996 -1.55193 0.274407 0
M  V30 4638 C 440.244 -1.99187 -0.341902 0
M  V30 4639 C 440.565 -1.16422 -1.56431 0
M  V30 4640 O 439.835 -0.253573 -1.94252 0
M  V30 4641 H 438.415 -0.735721 -0.129317 0
M  V30 4642 H 441.077 -1.91168 0.379578 0
M  V30 4643 H 440.173 -3.05629 -0.632253 0
M  V30 4644 N 440.474 -0.00167713 -1.576 0
M  V30 4645 C 441.723 0.682021 -1.89819 0
M  V30 4646 C 442.036 1.74844 -0.876871 0
M  V30 4647 O 443.242 2.48688 -1.08934 0
M  V30 4648 C 441.698 1.26425 -3.36964 0
M  V30 4649 C 441.306 0.232568 -4.47396 0
M  V30 4650 C 443.05 1.92604 -3.78291 0
M  V30 4651 C 440.957 0.824882 -5.85619 0
M  V30 4652 H 439.887 0.258499 -0.708304 0
M  V30 4653 H 442.538 -0.0624957 -1.83394 0
M  V30 4654 H 440.92 2.05949 -3.38232 0
M  V30 4655 H 442.094 -0.5382 -4.57646 0
M  V30 4656 H 440.409 -0.32888 -4.15099 0
M  V30 4657 H 443.006 2.37827 -4.78897 0
M  V30 4658 H 443.349 2.75732 -3.11894 0
M  V30 4659 H 443.882 1.19812 -3.79328 0
M  V30 4660 H 440.621 0.0323542 -6.55492 0
M  V30 4661 H 440.141 1.56477 -5.79029 0
M  V30 4662 H 441.82 1.32301 -6.33329 0
M  V30 4663 N 441.952 1.55251 0.271103 0
M  V30 4664 C 442.9 1.89054 1.35504 0
M  V30 4665 C 443.894 0.767064 1.51038 0
M  V30 4666 O 445.1 0.951429 1.528 0
M  V30 4667 H 441.475 0.600072 0.45323 0
M  V30 4668 H 443.446 2.79598 1.04247 0
M  V30 4669 C 442.195 2.18068 2.70817 0
M  V30 4670 H 441.518 3.04005 2.59656 0
M  V30 4671 H 442.958 2.4564 3.45597 0
M  V30 4672 C 441.417 0.988901 3.2206 0
M  V30 4673 O 441.947 0.224501 4.01072 0
M  V30 4674 N 440.153 0.786085 2.79766 0
M  V30 4675 H 439.7 1.40937 2.15626 0
M  V30 4676 H 439.658 -0.00969349 3.14399 0
M  V30 4677 N 443.43 -0.535701 1.48216 0
M  V30 4678 C 444.677 -1.29183 1.55942 0
M  V30 4679 C 445.005 -1.93125 0.230857 0
M  V30 4680 O 444.26 -1.79556 -0.778331 0
M  V30 4681 C 444.559 -2.4068 2.64212 0
M  V30 4682 C 444.225 -1.94428 4.06827 0
M  V30 4683 C 442.887 -1.81532 4.45645 0
M  V30 4684 C 445.239 -1.59405 4.96225 0
M  V30 4685 C 442.567 -1.31939 5.71672 0
M  V30 4686 C 444.919 -1.11276 6.22736 0
M  V30 4687 C 443.583 -0.969924 6.60416 0
M  V30 4688 H 442.853 -0.472715 0.570632 0
M  V30 4689 H 445.5 -0.598437 1.81909 0
M  V30 4690 H 443.805 -3.15666 2.32083 0
M  V30 4691 H 445.502 -2.98822 2.67407 0
M  V30 4692 H 442.092 -2.05415 3.76168 0
M  V30 4693 H 446.276 -1.68231 4.66917 0
M  V30 4694 H 441.532 -1.19562 5.99596 0
M  V30 4695 H 445.706 -0.832453 6.91407 0
M  V30 4696 H 443.333 -0.583436 7.57958 0
M  V30 4697 N 444.908 -1.36708 -0.784132 0
M  V30 4698 C 445.838 -1.34153 -1.91116 0
M  V30 4699 C 446.819 -0.212121 -1.68772 0
M  V30 4700 O 448.004 -0.410581 -1.8981 0
M  V30 4701 C 445.134 -1.13535 -3.28218 0
M  V30 4702 C 444.088 -2.23356 -3.65097 0
M  V30 4703 C 443.414 -1.87875 -5.00607 0
M  V30 4704 C 444.714 -3.65473 -3.73131 0
M  V30 4705 H 446.408 -2.28459 -1.93512 0
M  V30 4706 H 443.954 -1.09973 -0.929618 0
M  V30 4707 H 445.907 -1.10381 -4.06687 0
M  V30 4708 H 444.631 -0.156804 -3.26223 0
M  V30 4709 H 443.29 -2.25645 -2.88929 0
M  V30 4710 H 442.938 -0.885814 -4.95139 0
M  V30 4711 H 442.638 -2.61406 -5.26252 0
M  V30 4712 H 444.162 -1.86286 -5.81489 0
M  V30 4713 H 445.576 -3.65382 -4.41779 0
M  V30 4714 H 443.973 -4.37953 -4.10265 0
M  V30 4715 H 445.043 -3.99995 -2.74102 0
M  V30 4716 N 446.386 1.0089 -1.21074 0
M  V30 4717 C 447.336 2.0799 -0.934034 0
M  V30 4718 C 448.32 1.60529 0.10919 0
M  V30 4719 O 449.512 1.76722 -0.0992198 0
M  V30 4720 C 446.641 3.39693 -0.496334 0
M  V30 4721 C 445.727 3.93833 -1.57341 0
M  V30 4722 N 446.118 4.21388 -2.7976 0
M  V30 4723 C 444.416 4.22067 -1.44137 0
M  V30 4724 C 445.117 4.65156 -3.49292 0
M  V30 4725 N 444.093 4.67895 -2.76722 0
M  V30 4726 H 447.895 2.27213 -1.86417 0
M  V30 4727 H 445.409 1.18927 -1.10589 0
M  V30 4728 H 447.406 4.15962 -0.279471 0
M  V30 4729 H 446.066 3.21879 0.427084 0
M  V30 4730 H 447.077 4.10061 -3.1634 0
M  V30 4731 H 443.754 4.1341 -0.582947 0
M  V30 4732 H 445.144 4.95231 -4.54088 0
M  V30 4733 N 447.864 1.01787 1.20321 0
M  V30 4734 C 448.774 0.598898 2.26827 0
M  V30 4735 C 449.79 -0.36418 1.70146 0
M  V30 4736 O 450.966 -0.224812 2.00141 0
M  V30 4737 C 448.031 -0.0549769 3.46656 0
M  V30 4738 C 447.092 0.954205 4.18561 0
M  V30 4739 C 446.325 0.331439 5.3267 0
M  V30 4740 O 446.548 -0.86851 5.63749 0
M  V30 4741 O 445.482 1.0488 5.92692 0
M  V30 4742 H 449.308 1.48562 2.64883 0
M  V30 4743 H 446.893 0.787434 1.26964 0
M  V30 4744 H 448.775 -0.420102 4.19301 0
M  V30 4745 H 447.45 -0.915876 3.10473 0
M  V30 4746 H 446.357 1.37072 3.48083 0
M  V30 4747 H 447.69 1.78511 4.58688 0
M  V30 4748 N 449.342 -1.36122 0.79427 0
M  V30 4749 C 450.29 -2.31871 0.184023 0
M  V30 4750 C 451.284 -1.56041 -0.659365 0
M  V30 4751 O 452.49 -1.71266 -0.553906 0
M  V30 4752 H 448.865 -0.750896 0.0407373 0
M  V30 4753 H 450.836 -2.80898 1.00693 0
M  V30 4754 C 449.585 -3.41324 -0.662813 0
M  V30 4755 H 448.908 -3.99793 -0.0231944 0
M  V30 4756 H 450.348 -4.10629 -1.05639 0
M  V30 4757 C 448.807 -2.83308 -1.82313 0
M  V30 4758 O 449.337 -2.75863 -2.91997 0
M  V30 4759 N 447.543 -2.40529 -1.63077 0
M  V30 4760 H 447.09 -2.46785 -0.738591 0
M  V30 4761 H 447.048 -2.02059 -2.40872 0
M  V30 4762 N 450.82 -0.546701 -1.47814 0
M  V30 4763 C 451.77 0.227042 -2.26867 0
M  V30 4764 C 452.754 0.894844 -1.33721 0
M  V30 4765 O 453.946 0.794887 -1.58147 0
M  V30 4766 C 451.075 1.26299 -3.19223 0
M  V30 4767 C 450.161 0.59913 -4.19847 0
M  V30 4768 N 450.552 -0.324777 -5.04756 0
M  V30 4769 C 448.85 0.854331 -4.37741 0
M  V30 4770 C 449.551 -0.709386 -5.77358 0
M  V30 4771 N 448.527 -0.0666153 -5.43559 0
M  V30 4772 H 452.329 -0.483476 -2.89896 0
M  V30 4773 H 449.843 -0.365893 -1.58224 0
M  V30 4774 H 451.84 1.83116 -3.74532 0
M  V30 4775 H 450.5 1.97471 -2.57751 0
M  V30 4776 H 451.511 -0.698351 -5.1317 0
M  V30 4777 H 448.188 1.55536 -3.87447 0
M  V30 4778 H 449.578 -1.46796 -6.55668 0
M  V30 4779 N 452.299 1.55045 -0.282633 0
M  V30 4780 C 453.249 2.19514 0.616249 0
M  V30 4781 C 454.233 1.16216 1.11277 0
M  V30 4782 O 455.425 1.42004 1.05659 0
M  V30 4783 C 452.554 2.92548 1.7964 0
M  V30 4784 C 451.64 4.03142 1.31671 0
M  V30 4785 N 452.031 5.0276 0.553695 0
M  V30 4786 C 450.329 4.1635 1.59903 0
M  V30 4787 C 451.03 5.80923 0.30054 0
M  V30 4788 N 450.006 5.3651 0.875116 0
M  V30 4789 H 453.808 2.93889 0.0255363 0
M  V30 4790 H 451.322 1.62169 -0.0865362 0
M  V30 4791 H 453.319 3.37188 2.45173 0
M  V30 4792 H 451.979 2.19685 2.39099 0
M  V30 4793 H 452.99 5.17512 0.20032 0
M  V30 4794 H 449.667 3.54682 2.20243 0
M  V30 4795 H 451.057 6.7118 -0.311053 0
M  V30 4796 N 453.777 0.010035 1.57597 0
M  V30 4797 C 455.026 -0.671945 1.90178 0
M  V30 4798 C 455.339 -1.74376 0.886131 0
M  V30 4799 O 456.545 -2.48107 1.10252 0
M  V30 4800 C 455.001 -1.24636 3.3763 0
M  V30 4801 C 454.609 -0.208838 4.47513 0
M  V30 4802 C 456.353 -1.90595 3.79307 0
M  V30 4803 C 454.26 -0.793814 5.86048 0
M  V30 4804 H 453.19 -0.25474 0.709665 0
M  V30 4805 H 455.841 0.0722206 1.83358 0
M  V30 4806 H 454.223 -2.04152 3.3932 0
M  V30 4807 H 455.397 0.562463 4.57354 0
M  V30 4808 H 453.712 0.350889 4.14919 0
M  V30 4809 H 456.309 -2.35284 4.80151 0
M  V30 4810 H 456.652 -2.74074 3.13352 0
M  V30 4811 H 457.185 -1.17798 3.79958 0
M  V30 4812 H 453.924 0.00240855 6.555 0
M  V30 4813 H 453.444 -1.53404 5.79851 0
M  V30 4814 H 455.123 -1.2894 6.34022 0
M  V30 4815 N 455.255 -1.55392 -0.262866 0
M  V30 4816 C 456.205 -1.85355 -1.32768 0
M  V30 4817 C 457.189 -0.713188 -1.44231 0
M  V30 4818 O 458.381 -0.974765 -1.47741 0
M  V30 4819 C 455.51 -2.13781 -2.68612 0
M  V30 4820 C 454.596 -3.34104 -2.61219 0
M  V30 4821 N 454.987 -4.53766 -2.2345 0
M  V30 4822 C 453.285 -3.36895 -2.92263 0
M  V30 4823 C 453.986 -5.35877 -2.26298 0
M  V30 4824 N 452.962 -4.74536 -2.65172 0
M  V30 4825 H 456.764 -2.75413 -1.02591 0
M  V30 4826 H 454.278 -1.55405 -0.471503 0
M  V30 4827 H 456.275 -2.33407 -3.45437 0
M  V30 4828 H 454.935 -1.25013 -2.99669 0
M  V30 4829 H 455.946 -4.79682 -1.95258 0
M  V30 4830 H 452.623 -2.58351 -3.27965 0
M  V30 4831 H 454.013 -6.41577 -1.99572 0
M  V30 4832 N 456.733 0.527833 -1.48498 0
M  V30 4833 C 458.149 0.856571 -1.34666 0
M  V30 4834 C 458.349 1.98271 -0.35931 0
M  V30 4835 O 457.405 2.51551 0.218703 0
M  V30 4836 C 458.718 1.22207 -2.74747 0
M  V30 4837 C 460.266 1.33183 -2.83251 0
M  V30 4838 C 460.741 1.73075 -4.24039 0
M  V30 4839 N 462.232 1.80174 -4.26722 0
M  V30 4840 C 462.967 2.1243 -5.32598 0
M  V30 4841 N 462.463 2.43096 -6.4875 0
M  V30 4842 N 464.256 2.13454 -5.19994 0
M  V30 4843 H 456.407 -0.215174 -2.11307 0
M  V30 4844 H 458.67 -0.0336281 -0.947403 0
M  V30 4845 H 458.376 0.468195 -3.4857 0
M  V30 4846 H 458.25 2.17173 -3.08409 0
M  V30 4847 H 460.637 2.07647 -2.09683 0
M  V30 4848 H 460.718 0.363333 -2.53206 0
M  V30 4849 H 460.362 0.991712 -4.98124 0
M  V30 4850 H 460.292 2.70979 -4.51529 0
M  V30 4851 H 462.783 1.58744 -3.42942 0
M  V30 4852 H 463.096 2.6682 -7.25277 0
M  V30 4853 H 461.441 2.40611 -6.52021 0
M  V30 4854 H 464.632 1.88956 -4.28268 0
M  V30 4855 H 464.805 2.38261 -6.02608 0
M  V30 4856 N 458.211 1.37122 0.776871 0
M  V30 4857 C 459.488 1.22586 1.52421 0
M  V30 4858 C 459.868 -0.182726 2.10308 0
M  V30 4859 O 459.216 -1.18979 1.9508 0
M  V30 4860 C 459.426 2.31782 2.60918 0
M  V30 4861 C 460.774 2.69071 3.2846 0
M  V30 4862 O 461.798 2.3092 2.71209 0
M  V30 4863 O 460.657 3.3478 4.31954 0
M  V30 4864 H 457.751 0.478045 0.674835 0
M  V30 4865 H 460.297 1.48888 0.814275 0
M  V30 4866 H 459.069 3.26131 2.16227 0
M  V30 4867 H 458.692 2.06916 3.39517 0
M  V30 4868 N 459.689 -1.00246 1.21608 0
M  V30 4869 C 460.938 -1.73476 1.02902 0
M  V30 4870 C 461.251 -1.90643 -0.437561 0
M  V30 4871 O 462.457 -2.61105 -0.74407 0
M  V30 4872 C 460.913 -3.12079 1.79261 0
M  V30 4873 C 460.521 -3.02877 3.30106 0
M  V30 4874 C 462.265 -3.89421 1.68972 0
M  V30 4875 C 460.172 -4.36575 3.98944 0
M  V30 4876 H 459.102 -0.650408 0.381425 0
M  V30 4877 H 461.753 -1.11985 1.45367 0
M  V30 4878 H 460.135 -3.74196 1.2959 0
M  V30 4879 H 461.309 -2.49983 3.87098 0
M  V30 4880 H 459.624 -2.39022 3.40965 0
M  V30 4881 H 462.221 -4.88362 2.17731 0
M  V30 4882 H 462.564 -4.1122 0.648397 0
M  V30 4883 H 463.097 -3.33963 2.16133 0
M  V30 4884 H 459.836 -4.19978 5.03288 0
M  V30 4885 H 459.356 -4.8942 3.4674 0
M  V30 4886 H 461.035 -5.05364 4.04 0
M  V30 4887 N 461.167 -1.02423 -1.1978 0
M  V30 4888 C 462.114 -0.601023 -2.22837 0
M  V30 4889 C 463.084 0.382801 -1.61629 0
M  V30 4890 O 464.269 0.280514 -1.88727 0
M  V30 4891 C 461.409 0.0467755 -3.45068 0
M  V30 4892 C 460.522 -0.98253 -4.20678 0
M  V30 4893 C 459.657 -0.304982 -5.30324 0
M  V30 4894 C 458.696 -1.32052 -5.97686 0
M  V30 4895 N 457.833 -0.669105 -6.98904 0
M  V30 4896 H 462.673 -1.48444 -2.58396 0
M  V30 4897 H 460.21 -0.742936 -1.2696 0
M  V30 4898 H 462.168 0.439556 -4.14878 0
M  V30 4899 H 460.798 0.893796 -3.10179 0
M  V30 4900 H 459.85 -1.49341 -3.49859 0
M  V30 4901 H 461.162 -1.75455 -4.66923 0
M  V30 4902 H 460.316 0.142893 -6.06532 0
M  V30 4903 H 459.055 0.499283 -4.85138 0
M  V30 4904 H 458.06 -1.7787 -5.20233 0
M  V30 4905 H 459.285 -2.1262 -6.44957 0
M  V30 4906 H 457.231 0.115152 -6.55899 0
M  V30 4907 H 457.148 -1.37908 -7.43315 0
M  V30 4908 H 458.416 -0.245076 -7.79115 0
M  V30 4909 N 462.645 1.35699 -0.801477 0
M  V30 4910 C 463.87 2.03687 -0.390678 0
M  V30 4911 C 464.295 1.60015 0.988778 0
M  V30 4912 O 463.653 0.774357 1.63931 0
M  V30 4913 C 463.701 3.57439 -0.476404 0
M  V30 4914 O 462.805 4.09208 0.512106 0
M  V30 4915 H 462.146 0.64344 -0.163956 0
M  V30 4916 H 464.676 1.73403 -1.08594 0
M  V30 4917 H 464.686 4.06544 -0.344357 0
M  V30 4918 H 463.361 3.88576 -1.48262 0
M  V30 4919 H 461.938 3.7134 0.340721 0
M  V30 4920 N 464.123 0.554532 1.47522 0
M  V30 4921 C 465.086 -0.184174 2.28459 0
M  V30 4922 C 466.086 -0.845195 1.36796 0
M  V30 4923 O 467.276 -0.701467 1.59452 0
M  V30 4924 C 464.408 -1.26903 3.16399 0
M  V30 4925 H 465.601 0.526751 2.95238 0
M  V30 4926 H 463.154 0.311375 1.53167 0
M  V30 4927 H 463.889 -2.01244 2.54306 0
M  V30 4928 H 463.674 -0.799883 3.83854 0
M  V30 4929 H 465.164 -1.78794 3.77389 0
M  V30 4930 N 465.601 -1.54893 0.290851 0
M  V30 4931 C 466.549 -2.24579 -0.605576 0
M  V30 4932 C 467.543 -1.24824 -1.14522 0
M  V30 4933 O 468.749 -1.42706 -1.09704 0
M  V30 4934 H 465.124 -0.720946 -0.213872 0
M  V30 4935 H 467.095 -2.984 0.0048173 0
M  V30 4936 C 465.844 -2.99224 -1.77088 0
M  V30 4937 H 465.167 -3.75782 -1.36484 0
M  V30 4938 H 466.607 -3.51281 -2.3744 0
M  V30 4939 C 465.066 -2.05602 -2.66888 0
M  V30 4940 O 465.596 -1.61745 -3.67698 0
M  V30 4941 N 463.802 -1.71771 -2.34399 0
M  V30 4942 H 463.349 -2.07633 -1.52468 0
M  V30 4943 H 463.307 -1.09403 -2.94751 0
M  V30 4944 N 467.08 -0.0183926 -1.57589 0
M  V30 4945 C 468.329 0.66185 -1.90532 0
M  V30 4946 C 468.642 1.73904 -0.895366 0
M  V30 4947 O 469.848 2.47518 -1.11566 0
M  V30 4948 C 468.304 1.22844 -3.38286 0
M  V30 4949 C 467.912 0.185103 -4.47617 0
M  V30 4950 C 469.656 1.88581 -3.80312 0
M  V30 4951 C 467.563 0.762723 -5.86461 0
M  V30 4952 H 466.493 0.250972 -0.711006 0
M  V30 4953 H 469.144 -0.0819435 -1.83317 0
M  V30 4954 H 467.526 2.0235 -3.40398 0
M  V30 4955 H 468.7 -0.58671 -4.5705 0
M  V30 4956 H 467.015 -0.372889 -4.14727 0
M  V30 4957 H 469.612 2.32735 -4.81392 0
M  V30 4958 H 469.955 2.72408 -3.14801 0
M  V30 4959 H 470.488 1.15782 -3.80578 0
M  V30 4960 H 467.227 -0.0371713 -6.55489 0
M  V30 4961 H 466.747 1.50327 -5.80656 0
M  V30 4962 H 468.426 1.25576 -6.34697 0
M  V30 4963 N 468.558 1.5553 0.254621 0
M  V30 4964 C 469.488 1.9268 1.31897 0
M  V30 4965 C 470.469 0.790797 1.506 0
M  V30 4966 O 471.654 1.05045 1.63337 0
M  V30 4967 C 468.784 2.21477 2.67517 0
M  V30 4968 C 467.738 3.37256 2.63519 0
M  V30 4969 C 467.064 3.51576 4.02862 0
M  V30 4970 C 468.364 4.73157 2.21179 0
M  V30 4971 H 470.058 2.81832 1.01051 0
M  V30 4972 H 467.604 1.35599 0.484662 0
M  V30 4973 H 469.557 2.46055 3.42104 0
M  V30 4974 H 468.281 1.29144 2.99982 0
M  V30 4975 H 466.94 3.12675 1.9139 0
M  V30 4976 H 466.588 2.56676 4.32581 0
M  V30 4977 H 466.288 4.2943 4.01078 0
M  V30 4978 H 467.812 3.78467 4.79161 0
M  V30 4979 H 469.226 4.97158 2.85494 0
M  V30 4980 H 467.623 5.54058 2.30521 0
M  V30 4981 H 468.693 4.70739 1.16332 0
M  V30 4982 N 470.036 -0.519951 1.48776 0
M  V30 4983 C 470.966 -1.63253 1.66945 0
M  V30 4984 C 471.947 -1.62014 0.518224 0
M  V30 4985 O 473.132 -1.79053 0.751919 0
M  V30 4986 C 470.262 -3.0181 1.71836 0
M  V30 4987 C 469.216 -3.17911 2.8656 0
M  V30 4988 C 468.542 -4.5763 2.76548 0
M  V30 4989 C 469.842 -2.99729 4.27738 0
M  V30 4990 H 471.536 -1.48302 2.6009 0
M  V30 4991 H 469.082 -0.712026 1.25165 0
M  V30 4992 H 471.035 -3.79525 1.83135 0
M  V30 4993 H 469.759 -3.17806 0.752775 0
M  V30 4994 H 468.418 -2.42616 2.74833 0
M  V30 4995 H 468.066 -4.70476 1.77937 0
M  V30 4996 H 467.766 -4.69346 3.53536 0
M  V30 4997 H 469.29 -5.37431 2.89828 0
M  V30 4998 H 470.704 -3.67228 4.40246 0
M  V30 4999 H 469.101 -3.22932 5.05801 0
M  V30 5000 H 470.171 -1.96047 4.43502 0
M  V30 5001 N 471.514 -1.37532 -0.769588 0
M  V30 5002 C 472.791 -1.23392 -1.51768 0
M  V30 5003 C 473.171 0.17157 -2.10402 0
M  V30 5004 O 472.519 1.17943 -1.95708 0
M  V30 5005 C 472.729 -2.33163 -2.59685 0
M  V30 5006 C 474.077 -2.70809 -3.27028 0
M  V30 5007 O 475.101 -2.32355 -2.69981 0
M  V30 5008 O 473.96 -3.37066 -4.30173 0
M  V30 5009 H 471.054 -0.481617 -0.67229 0
M  V30 5010 H 473.6 -1.49318 -0.806368 0
M  V30 5011 H 472.372 -3.27273 -2.14494 0
M  V30 5012 H 471.995 -2.08713 -3.38415 0
M  V30 5013 N 472.992 0.995999 -1.22138 0
M  V30 5014 C 473.902 2.11985 -1.00496 0
M  V30 5015 C 474.918 1.7394 0.0457701 0
M  V30 5016 O 476.094 2.00868 -0.146273 0
M  V30 5017 C 473.159 3.41779 -0.582086 0
M  V30 5018 C 472.22 3.93943 -1.70608 0
M  V30 5019 C 471.453 5.17542 -1.30328 0
M  V30 5020 O 471.676 5.70114 -0.180743 0
M  V30 5021 O 470.61 5.63382 -2.11861 0
M  V30 5022 H 474.436 2.33123 -1.94647 0
M  V30 5023 H 472.021 1.10358 -1.00705 0
M  V30 5024 H 473.903 4.1989 -0.356467 0
M  V30 5025 H 472.578 3.22007 0.330592 0
M  V30 5026 H 471.485 3.17019 -1.98619 0
M  V30 5027 H 472.818 4.18141 -2.59651 0
M  V30 5028 N 474.47 1.03057 1.19235 0
M  V30 5029 C 475.433 0.617418 2.20727 0
M  V30 5030 C 476.433 -0.319856 1.57587 0
M  V30 5031 O 477.623 -0.106633 1.73873 0
M  V30 5032 C 474.755 -0.096296 3.40764 0
M  V30 5033 H 475.948 1.51544 2.58794 0
M  V30 5034 H 473.501 0.821949 1.32942 0
M  V30 5035 H 474.236 -1.00859 3.08217 0
M  V30 5036 H 474.021 0.577217 3.87828 0
M  V30 5037 H 475.511 -0.372219 4.15938 0
M  V30 5038 N 475.948 -1.35272 0.808662 0
M  V30 5039 C 477.195 -1.98709 0.390003 0
M  V30 5040 C 477.523 -1.64148 -1.04335 0
M  V30 5041 O 476.778 -0.897797 -1.73891 0
M  V30 5042 C 477.077 -3.53556 0.522798 0
M  V30 5043 C 476.743 -4.0799 1.91977 0
M  V30 5044 C 475.405 -4.22568 2.30195 0
M  V30 5045 C 477.757 -4.37442 2.83361 0
M  V30 5046 C 475.085 -4.63918 3.59162 0
M  V30 5047 C 477.437 -4.80232 4.11776 0
M  V30 5048 C 476.101 -4.93016 4.49991 0
M  V30 5049 H 475.371 -0.727127 0.142712 0
M  V30 5050 H 478.018 -1.6145 1.02985 0
M  V30 5051 H 476.323 -3.91287 -0.200494 0
M  V30 5052 H 478.02 -4.00598 0.179608 0
M  V30 5053 H 474.61 -3.97096 1.61284 0
M  V30 5054 H 478.794 -4.25731 2.55083 0
M  V30 5055 H 474.05 -4.72005 3.88615 0
M  V30 5056 H 478.224 -5.01982 4.82687 0
M  V30 5057 H 475.851 -5.24814 5.49976 0
M  V30 5058 N 477.426 -0.562348 -1.47226 0
M  V30 5059 C 478.654 -0.0452275 -2.06851 0
M  V30 5060 C 479.069 1.25078 -1.41424 0
M  V30 5061 O 478.426 1.75156 -0.512513 0
M  V30 5062 C 478.477 0.148674 -3.61194 0
M  V30 5063 O 478.198 -1.09602 -4.24169 0
M  V30 5064 C 479.699 0.702488 -4.37699 0
M  V30 5065 H 476.919 -0.0481775 -0.669268 0
M  V30 5066 H 479.463 -0.777223 -1.89155 0
M  V30 5067 H 477.618 0.830817 -3.78386 0
M  V30 5068 H 478.032 -0.896982 -5.16773 0
M  V30 5069 H 479.506 0.78743 -5.46355 0
M  V30 5070 H 479.983 1.71493 -4.04335 0
M  V30 5071 H 480.589 0.0558772 -4.25263 0
M  V30 5072 N 478.904 1.54736 -0.299062 0
M  V30 5073 C 479.867 2.22127 0.565012 0
M  V30 5074 C 480.867 1.20669 1.06281 0
M  V30 5075 O 482.057 1.45417 0.959145 0
M  V30 5076 C 479.189 2.90611 1.78208 0
M  V30 5077 H 480.382 2.99891 -0.0237448 0
M  V30 5078 H 477.935 1.5622 -0.0498788 0
M  V30 5079 H 478.67 2.16921 2.41072 0
M  V30 5080 H 478.455 3.64984 1.43281 0
M  V30 5081 H 479.945 3.42026 2.396 0
M  V30 5082 N 480.382 0.0267497 1.57577 0
M  V30 5083 C 481.329 -0.955894 2.10075 0
M  V30 5084 C 482.299 -1.32453 1.00226 0
M  V30 5085 O 483.484 -1.41826 1.27632 0
M  V30 5086 C 480.624 -2.2338 2.6305 0
M  V30 5087 C 479.737 -1.92183 3.86898 0
M  V30 5088 C 478.872 -3.14251 4.28275 0
M  V30 5089 C 477.911 -2.78862 5.44888 0
M  V30 5090 N 477.048 -3.93548 5.81433 0
M  V30 5091 H 481.888 -0.501303 2.93753 0
M  V30 5092 H 479.425 -0.235847 1.45197 0
M  V30 5093 H 481.383 -2.98124 2.91853 0
M  V30 5094 H 480.013 -2.6646 1.82205 0
M  V30 5095 H 479.065 -1.07692 3.64838 0
M  V30 5096 H 480.377 -1.62117 4.7172 0
M  V30 5097 H 479.531 -3.97317 4.58502 0
M  V30 5098 H 478.27 -3.47476 3.42215 0
M  V30 5099 H 477.275 -1.94208 5.14357 0
M  V30 5100 H 478.5 -2.46855 6.32645 0
M  V30 5101 H 476.446 -4.2662 4.98328 0
M  V30 5102 H 476.363 -3.67098 6.6089 0
M  V30 5103 H 477.631 -4.77325 6.16264 0
M  V30 5104 N 481.861 -1.55662 -0.24637 0
M  V30 5105 C 483.11 -1.7672 -0.972254 0
M  V30 5106 C 483.423 -0.59078 -1.86465 0
M  V30 5107 O 484.629 -0.684391 -2.62732 0
M  V30 5108 C 483.085 -3.12869 -1.7788 0
M  V30 5109 C 482.693 -4.38161 -0.933768 0
M  V30 5110 C 484.437 -3.43265 -2.49738 0
M  V30 5111 C 482.344 -5.6534 -1.73623 0
M  V30 5112 H 481.274 -0.658795 -0.366749 0
M  V30 5113 H 483.925 -1.82092 -0.226902 0
M  V30 5114 H 482.307 -3.01606 -2.56612 0
M  V30 5115 H 483.481 -4.60413 -0.188736 0
M  V30 5116 H 481.796 -4.15102 -0.328488 0
M  V30 5117 H 484.393 -4.35501 -3.10231 0
M  V30 5118 H 484.736 -2.64614 -3.2138 0
M  V30 5119 H 485.269 -3.55746 -1.78016 0
M  V30 5120 H 482.008 -6.46814 -1.06354 0
M  V30 5121 H 481.528 -5.47188 -2.45653 0
M  V30 5122 H 483.207 -6.04616 -2.30323 0
M  V30 5123 N 483.339 0.512053 -1.4905 0
M  V30 5124 C 484.564 1.2959 -1.6193 0
M  V30 5125 C 484.989 1.85906 -0.286454 0
M  V30 5126 O 484.347 1.65312 0.744426 0
M  V30 5127 C 484.395 2.40987 -2.68249 0
M  V30 5128 O 483.499 3.44531 -2.26654 0
M  V30 5129 H 482.84 0.383053 -0.542371 0
M  V30 5130 H 485.37 0.614231 -1.95162 0
M  V30 5131 H 485.38 2.86913 -2.90078 0
M  V30 5132 H 484.055 1.99361 -3.65004 0
M  V30 5133 H 482.632 3.046 -2.15112 0
M  V30 5134 N 484.817 1.37938 0.762283 0
M  V30 5135 C 486.094 1.24196 1.51112 0
M  V30 5136 C 486.474 -0.160409 2.1049 0
M  V30 5137 O 485.822 -1.16904 1.96331 0
M  V30 5138 C 486.032 2.34537 2.58445 0
M  V30 5139 C 487.38 2.7254 3.25588 0
M  V30 5140 O 488.404 2.33783 2.68745 0
M  V30 5141 O 487.263 3.39343 4.28379 0
M  V30 5142 H 484.357 0.485175 0.669727 0
M  V30 5143 H 486.903 1.49743 0.798438 0
M  V30 5144 H 485.675 3.28406 2.12756 0
M  V30 5145 H 485.298 2.10505 3.37303 0
M  V30 5146 N 486.295 -0.989507 1.22664 0
M  V30 5147 C 487.542 -1.72953 1.05325 0
M  V30 5148 C 487.87 -1.90104 -0.411168 0
M  V30 5149 O 487.125 -1.44386 -1.32103 0
M  V30 5150 C 487.424 -3.13649 1.71345 0
M  V30 5151 C 487.09 -3.16403 3.21248 0
M  V30 5152 C 485.752 -3.16862 3.62149 0
M  V30 5153 C 488.104 -3.12428 4.17179 0
M  V30 5154 C 485.432 -3.11051 4.97458 0
M  V30 5155 C 487.784 -3.08159 5.52468 0
M  V30 5156 C 486.448 -3.06935 5.92746 0
M  V30 5157 H 485.718 -0.632881 0.385412 0
M  V30 5158 H 488.365 -1.15863 1.52473 0
M  V30 5159 H 486.67 -3.74069 1.16532 0
M  V30 5160 H 488.367 -3.69658 1.55416 0
M  V30 5161 H 484.957 -3.16798 2.88682 0
M  V30 5162 H 489.141 -3.11221 3.86595 0
M  V30 5163 H 484.397 -3.0845 5.27891 0
M  V30 5164 H 488.571 -3.04039 6.26525 0
M  V30 5165 H 486.198 -3.02186 6.97558 0
M  V30 5166 N 487.773 -1.03688 -1.18687 0
M  V30 5167 C 489.021 -0.736572 -1.88199 0
M  V30 5168 C 489.342 0.737665 -1.80509 0
M  V30 5169 O 488.612 1.53204 -1.22088 0
M  V30 5170 H 487.192 -0.269466 -0.696704 0
M  V30 5171 H 489.854 -1.31282 -1.44052 0
M  V30 5172 H 488.95 -1.03802 -2.94332 0
M  V30 5173 N 489.251 1.34841 -0.815825 0
M  V30 5174 C 490.181 2.32187 -0.247298 0
M  V30 5175 C 491.162 1.5791 0.632344 0
M  V30 5176 O 492.347 1.8593 0.560698 0
M  V30 5177 C 489.477 3.42122 0.597466 0
M  V30 5178 C 488.431 4.27602 -0.184446 0
M  V30 5179 C 487.757 5.28942 0.782609 0
M  V30 5180 C 489.057 5.03502 -1.38865 0
M  V30 5181 H 490.751 2.79985 -1.06061 0
M  V30 5182 H 488.297 1.34611 -0.511461 0
M  V30 5183 H 490.25 4.09232 1.00533 0
M  V30 5184 H 488.974 2.92956 1.44376 0
M  V30 5185 H 487.633 3.62085 -0.573592 0
M  V30 5186 H 487.281 4.7604 1.62466 0
M  V30 5187 H 486.981 5.87008 0.263695 0
M  V30 5188 H 488.505 5.98922 1.18848 0
M  V30 5189 H 489.919 5.63506 -1.05518 0
M  V30 5190 H 488.316 5.71108 -1.8427 0
M  V30 5191 H 489.386 4.33608 -2.17054 0
M  V30 5192 N 490.729 0.570148 1.46925 0
M  V30 5193 C 491.692 -0.159933 2.28641 0
M  V30 5194 C 492.692 -0.830638 1.37685 0
M  V30 5195 O 493.882 -0.684516 1.60187 0
M  V30 5196 C 491.014 -1.2354 3.17727 0
M  V30 5197 H 492.207 0.558035 2.94662 0
M  V30 5198 H 489.76 0.327603 1.52828 0
M  V30 5199 H 490.495 -1.98535 2.56426 0
M  V30 5200 H 490.28 -0.759125 3.84681 0
M  V30 5201 H 491.77 -1.74782 3.79264 0
M  V30 5202 N 492.207 -1.54576 0.307264 0
M  V30 5203 C 493.623 -1.59534 -0.0459251 0
M  V30 5204 C 493.823 -1.32414 -1.51884 0
M  V30 5205 O 492.879 -1.1006 -2.27251 0
M  V30 5206 C 494.192 -2.98566 0.357649 0
M  V30 5207 C 495.74 -3.11491 0.306937 0
M  V30 5208 C 496.215 -4.52842 0.685427 0
M  V30 5209 N 497.706 -4.58782 0.638203 0
M  V30 5210 C 498.441 -5.66238 0.903458 0
M  V30 5211 N 497.937 -6.81703 1.23501 0
M  V30 5212 N 499.73 -5.55937 0.830102 0
M  V30 5213 H 491.881 -1.70464 1.26712 0
M  V30 5214 H 494.144 -0.79647 0.514139 0
M  V30 5215 H 493.85 -3.23356 1.38325 0
M  V30 5216 H 493.724 -3.76117 -0.285565 0
M  V30 5217 H 496.111 -2.86446 -0.709424 0
M  V30 5218 H 496.192 -2.36081 0.984861 0
M  V30 5219 H 495.836 -4.78618 1.69963 0
M  V30 5220 H 495.766 -5.26598 -0.0146346 0
M  V30 5221 H 498.257 -3.75849 0.393138 0
M  V30 5222 H 498.57 -7.59582 1.42322 0
M  V30 5223 H 496.915 -6.8324 1.27311 0
M  V30 5224 H 500.106 -4.64608 0.570693 0
M  V30 5225 H 500.279 -6.39597 1.04019 0
M  V30 5226 N 493.685 -0.035106 -1.57561 0
M  V30 5227 C 494.648 0.929819 -2.09492 0
M  V30 5228 C 495.648 1.25026 -1.01119 0
M  V30 5229 O 496.838 1.18961 -1.27255 0
M  V30 5230 C 493.97 2.24457 -2.56577 0
M  V30 5231 H 495.163 0.479935 -2.96035 0
M  V30 5232 H 492.716 0.213033 -1.54841 0
M  V30 5233 H 493.451 2.74061 -1.73382 0
M  V30 5234 H 493.236 2.02508 -3.35757 0
M  V30 5235 H 494.726 2.93607 -2.96959 0
M  V30 5236 N 495.163 1.55791 0.238111 0
M  V30 5237 C 496.388 1.8244 0.986432 0
M  V30 5238 C 496.813 0.613314 1.7782 0
M  V30 5239 O 496.171 -0.437767 1.75935 0
M  V30 5240 C 496.219 3.06917 1.893 0
M  V30 5241 O 495.323 2.84449 2.98601 0
M  V30 5242 H 494.664 0.601975 0.280218 0
M  V30 5243 H 497.194 2.02987 0.256437 0
M  V30 5244 H 497.204 3.36583 2.30598 0
M  V30 5245 H 495.879 3.947 1.31091 0
M  V30 5246 H 494.456 2.65972 2.61368 0
M  V30 5247 N 496.642 -0.504142 1.49319 0
M  V30 5248 C 497.552 -1.63248 1.68486 0
M  V30 5249 C 498.568 -1.64488 0.567432 0
M  V30 5250 O 499.744 -1.82966 0.841749 0
M  V30 5251 C 496.809 -2.99627 1.74426 0
M  V30 5252 C 495.87 -3.09039 2.97982 0
M  V30 5253 C 495.103 -4.38913 3.0363 0
M  V30 5254 O 495.326 -5.27528 2.16958 0
M  V30 5255 O 494.26 -4.53231 3.96062 0
M  V30 5256 H 498.086 -1.50008 2.64067 0
M  V30 5257 H 495.671 -0.680086 1.33023 0
M  V30 5258 H 497.553 -3.80689 1.80705 0
M  V30 5259 H 496.228 -3.13136 0.820233 0
M  V30 5260 H 495.135 -2.27177 2.97223 0
M  V30 5261 H 496.468 -3.00456 3.89855 0
M  V30 5262 N 498.12 -1.38341 -0.754957 0
M  V30 5263 C 499.067 -1.3546 -1.86867 0
M  V30 5264 C 500.037 -0.217369 -1.64672 0
M  V30 5265 O 501.222 -0.409383 -1.86356 0
M  V30 5266 C 498.362 -1.18413 -3.24149 0
M  V30 5267 C 497.475 -2.41511 -3.58185 0
M  V30 5268 C 496.61 -2.17205 -4.84763 0
M  V30 5269 C 495.649 -3.36081 -5.11582 0
M  V30 5270 N 494.786 -3.11219 -6.29354 0
M  V30 5271 H 499.626 -2.30672 -1.88664 0
M  V30 5272 H 497.163 -1.14607 -0.922154 0
M  V30 5273 H 499.121 -1.06545 -4.03366 0
M  V30 5274 H 497.751 -0.268397 -3.21682 0
M  V30 5275 H 496.803 -2.64056 -2.73822 0
M  V30 5276 H 498.115 -3.30115 -3.73932 0
M  V30 5277 H 497.269 -2.02465 -5.7192 0
M  V30 5278 H 496.008 -1.25964 -4.71152 0
M  V30 5279 H 495.013 -3.51341 -4.22894 0
M  V30 5280 H 496.238 -4.28196 -5.27091 0
M  V30 5281 H 494.184 -2.22624 -6.17069 0
M  V30 5282 H 494.101 -3.93373 -6.45596 0
M  V30 5283 H 495.369 -3.00132 -7.19403 0
M  V30 5284 N 499.598 0.982988 -1.23187 0
M  V30 5285 C 500.845 1.72392 -1.06241 0
M  V30 5286 C 501.173 1.9032 0.40108 0
M  V30 5287 O 500.428 1.45084 1.31336 0
M  V30 5288 C 500.727 3.12736 -1.73006 0
M  V30 5289 C 500.393 3.14695 -3.22921 0
M  V30 5290 C 499.055 3.14937 -3.63824 0
M  V30 5291 C 501.407 3.10211 -4.1883 0
M  V30 5292 C 498.735 3.08408 -4.99101 0
M  V30 5293 C 501.087 3.05224 -5.54095 0
M  V30 5294 C 499.751 3.03787 -5.94365 0
M  V30 5295 H 499.021 0.630829 -0.388762 0
M  V30 5296 H 501.668 1.15053 -1.53085 0
M  V30 5297 H 499.973 3.73446 -1.18514 0
M  V30 5298 H 501.67 3.68828 -1.57374 0
M  V30 5299 H 498.26 3.15262 -2.90358 0
M  V30 5300 H 502.444 3.09166 -3.8824 0
M  V30 5301 H 497.7 3.05646 -5.29519 0
M  V30 5302 H 501.874 3.00712 -6.28128 0
M  V30 5303 H 499.501 2.98483 -6.99151 0
M  V30 5304 N 501.076 1.04316 1.18135 0
M  V30 5305 C 502.039 0.640794 2.2006 0
M  V30 5306 C 503.039 -0.303124 1.57917 0
M  V30 5307 O 504.229 -0.0881855 1.73977 0
M  V30 5308 C 501.361 -0.060148 3.40847 0
M  V30 5309 H 502.554 1.54281 2.57172 0
M  V30 5310 H 500.107 0.836004 1.32063 0
M  V30 5311 H 500.842 -0.975845 3.0927 0
M  V30 5312 H 500.627 0.618319 3.87194 0
M  V30 5313 H 502.117 -0.328082 4.16309 0
M  V30 5314 N 502.554 -1.34406 0.822964 0
M  V30 5315 C 503.486 -2.28305 0.202375 0
M  V30 5316 C 504.499 -1.5103 -0.60777 0
M  V30 5317 O 505.688 -1.73057 -0.437444 0
M  V30 5318 C 502.788 -3.30836 -0.734911 0
M  V30 5319 C 501.961 -4.37388 0.0324177 0
M  V30 5320 C 501.02 -5.1968 -0.825803 0
M  V30 5321 O 500.046 -5.68556 -0.270771 0
M  V30 5322 N 501.248 -5.39393 -2.14558 0
M  V30 5323 H 504.013 -2.82201 1.00909 0
M  V30 5324 H 501.574 -1.4693 0.67993 0
M  V30 5325 H 503.566 -3.82786 -1.31365 0
M  V30 5326 H 502.136 -2.77334 -1.44238 0
M  V30 5327 H 501.356 -3.86152 0.792469 0
M  V30 5328 H 502.644 -5.05702 0.560633 0
M  V30 5329 H 502.042 -5.01357 -2.62025 0
M  V30 5330 H 500.599 -5.94461 -2.67318 0
M  V30 5331 N 504.032 -0.577932 -1.46621 0
M  V30 5332 C 505.26 -0.0671642 -2.06791 0
M  V30 5333 C 505.675 1.23571 -1.42743 0
M  V30 5334 O 505.032 1.74602 -0.531062 0
M  V30 5335 C 505.083 0.110357 -3.61332 0
M  V30 5336 O 504.804 -1.14095 -4.22982 0
M  V30 5337 C 506.305 0.656025 -4.38419 0
M  V30 5338 H 503.525 -0.0552732 -0.66872 0
M  V30 5339 H 506.069 -0.797242 -1.8832 0
M  V30 5340 H 504.224 0.790637 -3.79246 0
M  V30 5341 H 504.638 -0.951742 -5.15793 0
M  V30 5342 H 506.112 0.729438 -5.47159 0
M  V30 5343 H 506.589 1.67195 -4.06131 0
M  V30 5344 H 507.195 0.0107692 -4.25299 0
M  V30 5345 N 505.51 1.54411 -0.315457 0
M  V30 5346 C 506.756 2.00716 0.289972 0
M  V30 5347 C 507.089 1.2034 1.5242 0
M  V30 5348 O 506.364 0.283579 1.92422 0
M  V30 5349 C 506.647 3.54507 0.632196 0
M  V30 5350 C 506.5 4.45615 -0.61218 0
M  V30 5351 C 507.819 4.15421 1.45305 0
M  V30 5352 H 504.938 0.729637 0.10392 0
M  V30 5353 H 507.58 1.8506 -0.430427 0
M  V30 5354 H 505.73 3.67979 1.24595 0
M  V30 5355 H 507.402 4.44026 -1.25053 0
M  V30 5356 H 505.645 4.15621 -1.24264 0
M  V30 5357 H 506.316 5.51022 -0.328379 0
M  V30 5358 H 508.792 4.05474 0.934331 0
M  V30 5359 H 507.668 5.23157 1.66127 0
M  V30 5360 H 507.929 3.68223 2.44671 0
M  V30 5361 N 506.988 0.0434614 1.5754 0
M  V30 5362 C 507.921 -0.968729 2.06618 0
M  V30 5363 C 508.899 -1.30868 0.965 0
M  V30 5364 O 510.083 -1.42288 1.23638 0
M  V30 5365 C 507.21 -2.28486 2.50023 0
M  V30 5366 C 506.256 -2.09851 3.71302 0
M  V30 5367 S 507.089 -1.38401 5.17306 0
M  V30 5368 C 508.245 -2.71354 5.64019 0
M  V30 5369 H 508.478 -0.551021 2.92149 0
M  V30 5370 H 506.011 -0.168607 1.53477 0
M  V30 5371 H 507.969 -3.04142 2.75695 0
M  V30 5372 H 506.63 -2.67387 1.64812 0
M  V30 5373 H 505.823 -3.07184 3.99567 0
M  V30 5374 H 505.425 -1.42336 3.45856 0
M  V30 5375 H 507.717 -3.67549 5.69134 0
M  V30 5376 H 508.66 -2.47734 6.6335 0
M  V30 5377 H 509.068 -2.77259 4.91719 0
M  V30 5378 N 508.466 -1.55915 -0.229846 0
M  V30 5379 C 509.694 -1.82617 -0.972562 0
M  V30 5380 C 510.109 -0.621488 -1.78278 0
M  V30 5381 O 509.466 0.409956 -1.77836 0
M  V30 5382 C 509.517 -3.0774 -1.89679 0
M  V30 5383 O 509.238 -4.23559 -1.11934 0
M  V30 5384 C 510.739 -3.47368 -2.75409 0
M  V30 5385 H 507.959 -0.60727 -0.285419 0
M  V30 5386 H 510.503 -2.02996 -0.247579 0
M  V30 5387 H 508.658 -2.89361 -2.57583 0
M  V30 5388 H 509.072 -4.94586 -1.74599 0
M  V30 5389 H 510.546 -4.37977 -3.35977 0
M  V30 5390 H 511.023 -2.68737 -3.47386 0
M  V30 5391 H 511.629 -3.68158 -2.12931 0
M  V30 5392 N 509.944 0.496216 -1.49584 0
M  V30 5393 C 511.169 1.27865 -1.63295 0
M  V30 5394 C 511.594 1.85592 -0.306156 0
M  V30 5395 O 510.952 1.66092 0.726851 0
M  V30 5396 C 511 2.38128 -2.7079 0
M  V30 5397 O 510.104 3.42108 -2.30296 0
M  V30 5398 H 509.445 0.377279 -0.546403 0
M  V30 5399 H 511.975 0.593497 -1.95803 0
M  V30 5400 H 511.985 2.8382 -2.93104 0
M  V30 5401 H 510.66 1.95479 -3.67098 0
M  V30 5402 H 509.237 3.02301 -2.18331 0
M  V30 5403 N 511.423 1.38739 0.74761 0
M  V30 5404 C 512.839 1.20067 1.05148 0
M  V30 5405 C 513.039 0.0534835 2.01429 0
M  V30 5406 O 512.095 -0.59886 2.45296 0
M  V30 5407 C 513.408 2.52957 1.62584 0
M  V30 5408 C 514.956 2.59692 1.74726 0
M  V30 5409 C 515.431 3.92772 2.35573 0
M  V30 5410 N 516.922 3.94343 2.42997 0
M  V30 5411 C 517.657 4.9408 2.90985 0
M  V30 5412 N 517.153 6.04214 3.38965 0
M  V30 5413 N 518.946 4.81466 2.9008 0
M  V30 5414 H 511.097 2.12121 0.108808 0
M  V30 5415 H 513.36 0.941491 0.110899 0
M  V30 5416 H 513.066 3.37389 0.993051 0
M  V30 5417 H 512.94 2.71779 2.61565 0
M  V30 5418 H 515.327 1.75651 2.3713 0
M  V30 5419 H 515.408 2.44731 0.744326 0
M  V30 5420 H 515.052 4.77238 1.738 0
M  V30 5421 H 514.982 4.05046 3.36519 0
M  V30 5422 H 517.473 3.14799 2.0907 0
M  V30 5423 H 517.786 6.76241 3.74056 0
M  V30 5424 H 516.131 6.07825 3.37007 0
M  V30 5425 H 519.322 3.94535 2.51912 0
M  V30 5426 H 519.495 5.59344 3.27166 0
M  V30 5427 N 512.901 -0.976442 1.23707 0
M  V30 5428 C 514.15 -1.71254 1.06559 0
M  V30 5429 C 514.463 -1.91528 -0.397024 0
M  V30 5430 O 515.669 -2.62625 -0.688518 0
M  V30 5431 C 514.125 -3.08207 1.8584 0
M  V30 5432 C 513.733 -2.95806 3.36456 0
M  V30 5433 C 515.477 -3.85749 1.77194 0
M  V30 5434 C 513.384 -4.28015 4.08114 0
M  V30 5435 H 512.314 -0.642171 0.395136 0
M  V30 5436 H 514.965 -1.08877 1.4771 0
M  V30 5437 H 513.347 -3.71363 1.37498 0
M  V30 5438 H 514.521 -2.41716 3.92314 0
M  V30 5439 H 512.836 -2.31736 3.45959 0
M  V30 5440 H 515.433 -4.83633 2.28041 0
M  V30 5441 H 515.776 -4.09752 0.735477 0
M  V30 5442 H 516.309 -3.29303 2.23169 0
M  V30 5443 H 513.048 -4.09208 5.12083 0
M  V30 5444 H 512.568 -4.81955 3.57043 0
M  V30 5445 H 514.247 -4.96681 4.14629 0
M  V30 5446 N 514.379 -1.04941 -1.1758 0
M  V30 5447 C 515.625 -0.759112 -1.88057 0
M  V30 5448 C 515.958 0.711918 -1.8068 0
M  V30 5449 O 515.233 1.52035 -1.21308 0
M  V30 5450 C 515.516 -1.237 -3.38187 0
M  V30 5451 C 515.369 -2.77078 -3.54327 0
M  V30 5452 C 516.688 -0.834014 -4.32125 0
M  V30 5453 H 513.807 -0.277237 -0.682868 0
M  V30 5454 H 516.449 -1.30296 -1.38286 0
M  V30 5455 H 514.599 -0.774337 -3.80705 0
M  V30 5456 H 516.271 -3.31449 -3.20842 0
M  V30 5457 H 514.514 -3.16477 -2.96689 0
M  V30 5458 H 515.185 -3.05577 -4.59703 0
M  V30 5459 H 517.661 -1.23228 -3.97434 0
M  V30 5460 H 516.537 -1.19603 -5.35711 0
M  V30 5461 H 516.798 0.262195 -4.41322 0
M  V30 5462 N 515.857 1.33968 -0.830081 0
M  V30 5463 C 517.105 1.97672 -0.420734 0
M  V30 5464 C 517.426 1.66111 1.02138 0
M  V30 5465 O 516.696 0.955503 1.71017 0
M  V30 5466 H 515.276 0.73125 -0.152587 0
M  V30 5467 H 517.938 1.63483 -1.0611 0
M  V30 5468 H 517.034 3.07294 -0.545588 0
M  V30 5469 N 517.335 0.585699 1.46312 0
M  V30 5470 C 518.563 0.0781299 2.06752 0
M  V30 5471 C 518.978 -1.22812 1.43396 0
M  V30 5472 O 518.335 -1.74318 0.540314 0
M  V30 5473 C 518.386 -0.0911927 3.61385 0
M  V30 5474 O 518.107 1.16336 4.22371 0
M  V30 5475 C 519.608 -0.632765 4.38761 0
M  V30 5476 H 516.828 0.0588188 0.668417 0
M  V30 5477 H 519.372 0.807218 1.87894 0
M  V30 5478 H 517.527 -0.770514 3.7966 0
M  V30 5479 H 517.941 0.979082 5.15281 0
M  V30 5480 H 519.415 -0.70041 5.47538 0
M  V30 5481 H 519.892 -1.65039 4.07012 0
M  V30 5482 H 520.498 0.0117856 4.25298 0
M  V30 5483 N 518.813 -1.54241 0.323641 0
M  V30 5484 C 520.041 -2.04985 -0.280871 0
M  V30 5485 C 520.456 -1.19978 -1.45777 0
M  V30 5486 O 519.813 -0.230471 -1.81039 0
M  V30 5487 C 519.864 -3.54353 -0.715258 0
M  V30 5488 O 519.585 -4.36132 0.414817 0
M  V30 5489 C 521.086 -4.21189 -1.38257 0
M  V30 5490 H 518.306 -0.66851 -0.0577502 0
M  V30 5491 H 520.85 -1.99029 0.469852 0
M  V30 5492 H 519.005 -3.60596 -1.41596 0
M  V30 5493 H 519.419 -5.2445 0.0725227 0
M  V30 5494 H 520.893 -5.27154 -1.63745 0
M  V30 5495 H 521.37 -3.72307 -2.32989 0
M  V30 5496 H 521.976 -4.19085 -0.724447 0
M  V30 5497 N 520.291 -0.0518155 -1.57515 0
M  V30 5498 C 521.254 0.907547 -2.10467 0
M  V30 5499 C 522.254 1.23947 -1.02439 0
M  V30 5500 O 523.444 1.17604 -1.2851 0
M  V30 5501 C 520.576 2.21723 -2.58944 0
M  V30 5502 H 521.769 0.44851 -2.96527 0
M  V30 5503 H 519.322 0.196598 -1.55059 0
M  V30 5504 H 520.057 2.72206 -1.76279 0
M  V30 5505 H 519.842 1.98935 -3.37886 0
M  V30 5506 H 521.332 2.90441 -3.00056 0
M  V30 5507 N 521.769 1.56035 0.221574 0
M  V30 5508 C 522.999 1.82864 0.961468 0
M  V30 5509 C 523.407 0.628703 1.78449 0
M  V30 5510 O 522.75 -0.412109 1.79018 0
M  V30 5511 C 522.812 3.03425 1.92804 0
M  V30 5512 C 522.476 4.38429 1.28954 0
M  V30 5513 C 523.473 5.15441 0.679431 0
M  V30 5514 C 521.158 4.85151 1.30131 0
M  V30 5515 C 523.152 6.37337 0.0896148 0
M  V30 5516 C 520.839 6.06989 0.707651 0
M  V30 5517 C 521.837 6.82923 0.102855 0
M  V30 5518 O 521.525 8.02456 -0.48157 0
M  V30 5519 H 521.257 0.611883 0.28736 0
M  V30 5520 H 523.811 2.0397 0.241932 0
M  V30 5521 H 522.041 2.78138 2.68656 0
M  V30 5522 H 523.73 3.17127 2.53348 0
M  V30 5523 H 524.496 4.80452 0.662661 0
M  V30 5524 H 520.375 4.26021 1.76145 0
M  V30 5525 H 523.919 6.96547 -0.383069 0
M  V30 5526 H 519.816 6.41451 0.721834 0
M  V30 5527 H 520.584 8.17636 -0.375887 0
M  V30 5528 N 523.247 -0.488276 1.49845 0
M  V30 5529 C 524.18 -1.60651 1.62069 0
M  V30 5530 C 525.158 -1.5568 0.469308 0
M  V30 5531 O 526.342 -1.75553 0.686551 0
M  V30 5532 C 523.469 -2.99197 1.58741 0
M  V30 5533 C 522.515 -3.22385 2.79232 0
M  V30 5534 S 523.348 -3.04133 4.40753 0
M  V30 5535 C 524.504 -4.45052 4.4009 0
M  V30 5536 H 524.737 -1.50039 2.56662 0
M  V30 5537 H 522.27 -0.674371 1.38894 0
M  V30 5538 H 524.228 -3.79081 1.57506 0
M  V30 5539 H 522.889 -3.07213 0.654136 0
M  V30 5540 H 522.082 -4.23557 2.73159 0
M  V30 5541 H 521.684 -2.50245 2.77945 0
M  V30 5542 H 523.976 -5.37375 4.12594 0
M  V30 5543 H 524.919 -4.56172 5.41583 0
M  V30 5544 H 525.327 -4.26327 3.70008 0
M  V30 5545 N 524.725 -1.39134 -0.740242 0
M  V30 5546 C 525.688 -1.37217 -1.83587 0
M  V30 5547 C 526.688 -0.270221 -1.58513 0
M  V30 5548 O 527.878 -0.527843 -1.6601 0
M  V30 5549 C 525.01 -1.13959 -3.21288 0
M  V30 5550 H 526.203 -2.34705 -1.86691 0
M  V30 5551 H 523.756 -1.24622 -0.94335 0
M  V30 5552 H 524.491 -0.17131 -3.23847 0
M  V30 5553 H 524.276 -1.93754 -3.40884 0
M  V30 5554 H 525.766 -1.15346 -4.01354 0
M  V30 5555 N 526.204 0.969867 -1.24223 0
M  V30 5556 C 527.615 1.52717 -1.07399 0
M  V30 5557 C 527.966 1.92956 0.355298 0
M  V30 5558 O 527.091 1.77112 1.2434 0
M  V30 5559 C 527.686 2.77521 -1.94339 0
M  V30 5560 C 526.245 3.29615 -1.81744 0
M  V30 5561 C 525.392 2.02537 -1.89405 0
M  V30 5562 H 528.343 0.788399 -1.37732 0
M  V30 5563 H 528.364 3.50773 -1.47439 0
M  V30 5564 H 527.876 2.48203 -2.98357 0
M  V30 5565 H 525.977 3.63789 -0.805505 0
M  V30 5566 H 526.09 3.98661 -2.65718 0
M  V30 5567 H 524.454 2.17151 -1.33108 0
M  V30 5568 H 525.237 1.75587 -2.94999 0
M  V30 5569 N 527.682 1.05563 1.17022 0
M  V30 5570 C 528.592 0.670758 2.24807 0
M  V30 5571 C 529.608 -0.309865 1.71219 0
M  V30 5572 O 530.784 -0.161025 2.00755 0
M  V30 5573 C 527.849 0.055337 3.46656 0
M  V30 5574 C 526.91 1.08688 4.15314 0
M  V30 5575 C 526.143 0.500736 5.31346 0
M  V30 5576 O 526.366 -0.688718 5.66227 0
M  V30 5577 O 525.3 1.23683 5.89055 0
M  V30 5578 H 529.126 1.56914 2.60023 0
M  V30 5579 H 526.711 0.827428 1.24395 0
M  V30 5580 H 528.593 -0.286492 4.20425 0
M  V30 5581 H 527.268 -0.816638 3.13229 0
M  V30 5582 H 526.175 1.48077 3.43546 0
M  V30 5583 H 527.508 1.93014 4.52777 0
M  V30 5584 N 529.16 -1.33526 0.837174 0
M  V30 5585 C 530.123 -2.27551 0.274421 0
M  V30 5586 C 531.123 -1.50886 -0.555881 0
M  V30 5587 O 532.313 -1.70227 -0.369918 0
M  V30 5588 C 529.445 -3.35332 -0.613605 0
M  V30 5589 H 530.638 -2.78837 1.10408 0
M  V30 5590 H 528.191 -1.439 0.610126 0
M  V30 5591 H 528.926 -2.89285 -1.46577 0
M  V30 5592 H 528.711 -3.92095 -0.0195341 0
M  V30 5593 H 530.201 -4.05433 -1.00068 0
M  V30 5594 N 530.638 -0.59345 -1.46 0
M  V30 5595 C 531.568 0.121192 -2.33185 0
M  V30 5596 C 532.549 0.872977 -1.4599 0
M  V30 5597 O 533.734 0.846321 -1.74789 0
M  V30 5598 C 530.864 1.12844 -3.28456 0
M  V30 5599 C 529.818 0.4908 -4.25177 0
M  V30 5600 C 529.144 1.60529 -5.10034 0
M  V30 5601 C 530.444 -0.578949 -5.19081 0
M  V30 5602 H 532.138 -0.606767 -2.93187 0
M  V30 5603 H 529.684 -0.293242 -1.40983 0
M  V30 5604 H 531.637 1.63684 -3.88311 0
M  V30 5605 H 530.361 1.88681 -2.66584 0
M  V30 5606 H 529.02 0.00339328 -3.666 0
M  V30 5607 H 528.668 2.35359 -4.44539 0
M  V30 5608 H 528.368 1.18422 -5.75543 0
M  V30 5609 H 529.892 2.11623 -5.72755 0
M  V30 5610 H 531.306 -0.155199 -5.7309 0
M  V30 5611 H 529.703 -0.920947 -5.92991 0
M  V30 5612 H 530.773 -1.46109 -4.62364 0
M  V30 5613 N 532.116 1.54067 -0.331816 0
M  V30 5614 C 533.532 1.59587 0.0205388 0
M  V30 5615 C 533.732 1.34813 1.49759 0
M  V30 5616 O 532.788 1.13661 2.25471 0
M  V30 5617 C 534.101 2.97959 -0.405103 0
M  V30 5618 C 535.649 3.10964 -0.356454 0
M  V30 5619 C 536.124 4.51694 -0.757384 0
M  V30 5620 N 537.615 4.57709 -0.71111 0
M  V30 5621 C 538.35 5.64729 -0.993427 0
M  V30 5622 N 537.846 6.79652 -1.3433 0
M  V30 5623 N 539.639 5.54546 -0.918442 0
M  V30 5624 H 531.79 1.68426 -1.29407 0
M  V30 5625 H 534.053 0.78819 -0.526745 0
M  V30 5626 H 533.759 3.21115 -1.43451 0
M  V30 5627 H 533.633 3.76524 0.225692 0
M  V30 5628 H 536.02 2.87538 0.663763 0
M  V30 5629 H 536.101 2.34484 -1.02229 0
M  V30 5630 H 535.745 4.75853 -1.77555 0
M  V30 5631 H 535.675 5.26555 -0.0691444 0
M  V30 5632 H 538.166 3.75176 -0.452883 0
M  V30 5633 H 538.479 7.57221 -1.54388 0
M  V30 5634 H 536.824 6.81128 -1.38164 0
M  V30 5635 H 540.015 4.63641 -0.644536 0
M  V30 5636 H 540.188 6.37861 -1.14181 0
M  V30 5637 N 533.594 0.0601682 1.57485 0
M  V30 5638 C 534.842 -0.610386 1.92662 0
M  V30 5639 C 535.163 -1.70849 0.939981 0
M  V30 5640 O 534.433 -1.95895 -0.0137455 0
M  V30 5641 H 533.013 -0.228457 0.711208 0
M  V30 5642 H 535.675 0.115288 1.94559 0
M  V30 5643 H 534.771 -1.0432 2.94149 0
M  V30 5644 N 535.072 -1.5615 -0.213296 0
M  V30 5645 C 535.982 -1.96265 -1.28519 0
M  V30 5646 C 536.998 -0.86765 -1.50824 0
M  V30 5647 O 538.174 -1.17191 -1.63793 0
M  V30 5648 C 535.239 -2.27836 -2.61327 0
M  V30 5649 C 534.3 -3.50949 -2.47252 0
M  V30 5650 C 533.533 -3.81004 -3.73727 0
M  V30 5651 O 533.756 -3.12612 -4.77106 0
M  V30 5652 O 532.69 -4.74477 -3.70344 0
M  V30 5653 H 536.516 -2.87631 -0.974795 0
M  V30 5654 H 534.101 -1.43467 -0.416832 0
M  V30 5655 H 535.983 -2.49299 -3.39747 0
M  V30 5656 H 534.658 -1.39643 -2.9203 0
M  V30 5657 H 533.565 -3.34754 -1.67004 0
M  V30 5658 H 534.898 -4.39551 -2.21486 0
M  V30 5659 N 536.55 0.480323 -1.50102 0
M  V30 5660 C 537.799 1.22979 -1.59872 0
M  V30 5661 C 538.112 1.93282 -0.30022 0
M  V30 5662 O 539.318 2.70086 -0.276709 0
M  V30 5663 C 537.774 2.23408 -2.82164 0
M  V30 5664 C 537.382 1.5895 -4.18854 0
M  V30 5665 C 539.126 2.99055 -3.01275 0
M  V30 5666 C 537.033 2.57611 -5.32344 0
M  V30 5667 H 535.963 0.462707 -0.59533 0
M  V30 5668 H 538.614 0.501291 -1.7652 0
M  V30 5669 H 536.996 2.99511 -2.59055 0
M  V30 5670 H 538.17 0.887 -4.52182 0
M  V30 5671 H 536.485 0.956191 -4.05273 0
M  V30 5672 H 539.082 3.72876 -3.83233 0
M  V30 5673 H 539.425 3.57897 -2.12639 0
M  V30 5674 H 539.958 2.30066 -3.24522 0
M  V30 5675 H 536.697 2.03521 -6.23105 0
M  V30 5676 H 536.217 3.26041 -5.03445 0
M  V30 5677 H 537.896 3.19627 -5.62537 0
M  V30 5678 N 538.028 1.39524 0.732853 0
M  V30 5679 C 539.256 1.40143 1.52209 0
M  V30 5680 C 539.671 -0.00348836 1.888 0
M  V30 5681 O 539.028 -0.975357 1.5425 0
M  V30 5682 C 539.079 2.27632 2.8083 0
M  V30 5683 O 538.8 3.62654 2.45792 0
M  V30 5684 C 540.301 2.36658 3.74844 0
M  V30 5685 H 537.521 0.478604 0.470297 0
M  V30 5686 H 540.065 1.83366 0.905388 0
M  V30 5687 H 538.22 1.87818 3.38826 0
M  V30 5688 H 538.634 4.08941 3.28431 0
M  V30 5689 H 540.108 3.02118 4.61984 0
M  V30 5690 H 540.585 1.38638 4.16745 0
M  V30 5691 H 541.191 2.76951 3.22766 0
M  V30 5692 N 539.506 -0.963266 1.24736 0
M  V30 5693 C 540.917 -1.52145 1.08207 0
M  V30 5694 C 541.268 -1.93142 -0.345061 0
M  V30 5695 O 540.393 -1.77769 -1.23399 0
M  V30 5696 C 540.988 -2.76486 1.95808 0
M  V30 5697 C 539.547 -3.28646 1.8349 0
M  V30 5698 C 538.694 -2.01529 1.90476 0
M  V30 5699 H 541.645 -0.781083 1.38148 0
M  V30 5700 H 541.666 -3.49986 1.49297 0
M  V30 5701 H 541.178 -2.46617 2.99669 0
M  V30 5702 H 539.279 -3.63357 0.824787 0
M  V30 5703 H 539.392 -3.97246 2.67829 0
M  V30 5704 H 537.756 -2.16442 1.34258 0
M  V30 5705 H 538.539 -1.7402 2.95926 0
M  V30 5706 N 540.985 -1.06182 -1.16461 0
M  V30 5707 C 541.932 -0.671613 -2.20812 0
M  V30 5708 C 542.902 0.331186 -1.62765 0
M  V30 5709 O 544.087 0.22033 -1.89524 0
M  V30 5710 C 541.227 -0.063029 -3.45042 0
M  V30 5711 C 540.34 -1.11587 -4.1734 0
M  V30 5712 C 539.475 -0.473546 -5.29085 0
M  V30 5713 C 538.514 -1.51 -5.93182 0
M  V30 5714 N 537.651 -0.891118 -6.96422 0
M  V30 5715 H 542.491 -1.56589 -2.53542 0
M  V30 5716 H 540.028 -0.782951 -1.24532 0
M  V30 5717 H 541.986 0.307344 -4.16066 0
M  V30 5718 H 540.616 0.794663 -3.12866 0
M  V30 5719 H 539.668 -1.60396 -3.44931 0
M  V30 5720 H 540.98 -1.90221 -4.61104 0
M  V30 5721 H 540.134 -0.0501432 -6.06679 0
M  V30 5722 H 538.873 0.344687 -4.8648 0
M  V30 5723 H 537.878 -1.94331 -5.14311 0
M  V30 5724 H 539.103 -2.33031 -6.37866 0
M  V30 5725 H 537.049 -0.0935753 -6.55933 0
M  V30 5726 H 536.966 -1.61486 -7.38551 0
M  V30 5727 H 538.234 -0.492822 -7.77941 0
M  V30 5728 N 542.463 1.3308 -0.844243 0
M  V30 5729 C 543.688 2.02341 -0.455282 0
M  V30 5730 C 544.113 1.6308 0.93737 0
M  V30 5731 O 543.471 0.826118 1.61385 0
M  V30 5732 C 543.519 3.55743 -0.58988 0
M  V30 5733 O 542.623 4.1063 0.38166 0
M  V30 5734 H 541.964 0.637898 -0.184343 0
M  V30 5735 H 544.494 1.6986 -1.14056 0
M  V30 5736 H 544.504 4.05243 -0.473522 0
M  V30 5737 H 543.179 3.83662 -1.60549 0
M  V30 5738 H 541.756 3.72236 0.22241 0
M  V30 5739 N 543.941 0.601185 1.45683 0
M  V30 5740 C 545.218 0.0261659 1.95582 0
M  V30 5741 C 545.598 -1.4399 1.5437 0
M  V30 5742 O 544.946 -2.13919 0.80318 0
M  V30 5743 C 545.156 0.217557 3.48321 0
M  V30 5744 C 546.504 0.0950076 4.24494 0
M  V30 5745 O 547.528 0.147345 3.55895 0
M  V30 5746 O 546.387 -0.025261 5.46494 0
M  V30 5747 H 543.481 -0.0393688 0.826062 0
M  V30 5748 H 546.027 0.670798 1.55879 0
M  V30 5749 H 544.799 1.23601 3.71266 0
M  V30 5750 H 544.422 -0.46264 3.94899 0
M  V30 5751 N 545.419 -1.53889 0.339982 0
M  V30 5752 C 546.668 -2.00035 -0.258604 0
M  V30 5753 C 546.981 -1.23179 -1.51942 0
M  V30 5754 O 548.187 -1.59784 -2.19503 0
M  V30 5755 C 546.643 -3.56249 -0.511359 0
M  V30 5756 C 546.251 -4.41957 0.733349 0
M  V30 5757 C 547.995 -4.1082 -1.069 0
M  V30 5758 C 545.902 -5.89673 0.451591 0
M  V30 5759 H 544.832 -0.747284 -0.10041 0
M  V30 5760 H 547.483 -1.77776 0.454758 0
M  V30 5761 H 545.865 -3.7456 -1.28533 0
M  V30 5762 H 547.039 -4.35421 1.50815 0
M  V30 5763 H 545.354 -3.9836 1.21237 0
M  V30 5764 H 547.951 -5.18789 -1.2947 0
M  V30 5765 H 548.294 -3.63817 -2.02343 0
M  V30 5766 H 548.827 -3.96205 -0.355817 0
M  V30 5767 H 545.566 -6.40903 1.37565 0
M  V30 5768 H 545.086 -5.99122 -0.285193 0
M  V30 5769 H 546.765 -6.46965 0.0675067 0
M  V30 5770 N 546.897 -0.0685191 -1.57451 0
M  V30 5771 C 548.127 0.609577 -1.97402 0
M  V30 5772 C 548.535 1.63882 -0.945489 0
M  V30 5773 O 547.878 1.8354 0.0766052 0
M  V30 5774 C 547.94 1.3385 -3.33653 0
M  V30 5775 C 547.604 0.463103 -4.54648 0
M  V30 5776 C 548.601 -0.277964 -5.19156 0
M  V30 5777 C 546.286 0.388941 -5.00792 0
M  V30 5778 C 548.28 -1.08145 -6.28159 0
M  V30 5779 C 545.967 -0.418217 -6.09667 0
M  V30 5780 C 546.965 -1.15208 -6.73213 0
M  V30 5781 O 546.653 -1.94594 -7.79993 0
M  V30 5782 H 546.385 0.170197 -0.654224 0
M  V30 5783 H 548.939 -0.13647 -2.04946 0
M  V30 5784 H 547.169 2.13055 -3.22714 0
M  V30 5785 H 548.858 1.90851 -3.58233 0
M  V30 5786 H 549.624 -0.230241 -4.84453 0
M  V30 5787 H 545.503 0.949769 -4.5111 0
M  V30 5788 H 549.047 -1.65476 -6.7769 0
M  V30 5789 H 544.944 -0.467515 -6.43805 0
M  V30 5790 H 545.712 -1.8699 -7.96854 0
M  V30 5791 N 548.375 1.56261 0.205012 0
M  V30 5792 C 549.6 1.84491 0.947512 0
M  V30 5793 C 550.025 0.650894 1.76479 0
M  V30 5794 O 549.383 -0.40035 1.76824 0
M  V30 5795 C 549.431 3.10863 1.82747 0
M  V30 5796 O 548.535 2.90719 2.925 0
M  V30 5797 H 547.876 0.607783 0.267386 0
M  V30 5798 H 550.406 2.03485 0.213323 0
M  V30 5799 H 550.416 3.41399 2.23407 0
M  V30 5800 H 549.091 3.97392 1.2269 0
M  V30 5801 H 547.668 2.71457 2.55667 0
M  V30 5802 N 549.853 -0.472356 1.50355 0
M  V30 5803 C 551.1 -1.22453 1.61281 0
M  V30 5804 C 551.428 -1.91972 0.31256 0
M  V30 5805 O 550.683 -1.82696 -0.701475 0
M  V30 5806 C 550.982 -2.29257 2.74182 0
M  V30 5807 C 550.648 -1.76999 4.14708 0
M  V30 5808 C 549.31 -1.62467 4.52944 0
M  V30 5809 C 551.662 -1.38215 5.0254 0
M  V30 5810 C 548.99 -1.07574 5.76754 0
M  V30 5811 C 551.342 -0.847638 6.26895 0
M  V30 5812 C 550.006 -0.688946 6.63935 0
M  V30 5813 H 549.276 -0.448087 0.590168 0
M  V30 5814 H 551.923 -0.520744 1.84284 0
M  V30 5815 H 550.228 -3.05538 2.45263 0
M  V30 5816 H 551.925 -2.87212 2.7984 0
M  V30 5817 H 548.515 -1.89276 3.84542 0
M  V30 5818 H 552.699 -1.48276 4.73633 0
M  V30 5819 H 547.955 -0.940237 6.04127 0
M  V30 5820 H 552.129 -0.538455 6.94315 0
M  V30 5821 H 549.756 -0.261435 7.5975 0
M  V30 5822 N 551.331 -1.39911 -0.725443 0
M  V30 5823 C 552.579 -1.37382 -1.48224 0
M  V30 5824 C 552.9 0.0264107 -1.94982 0
M  V30 5825 O 552.17 0.979408 -1.6966 0
M  V30 5826 H 550.75 -0.505596 -0.549892 0
M  V30 5827 H 553.412 -1.7487 -0.860608 0
M  V30 5828 H 552.508 -2.04254 -2.3598 0
M  V30 5829 N 552.809 0.956637 -1.25245 0
M  V30 5830 C 554.055 1.70352 -1.10036 0
M  V30 5831 C 554.388 1.90869 0.358156 0
M  V30 5832 O 553.663 1.47819 1.26411 0
M  V30 5833 C 553.946 3.08766 -1.85298 0
M  V30 5834 C 553.799 2.95672 -3.38966 0
M  V30 5835 C 555.118 4.08622 -1.63451 0
M  V30 5836 H 552.237 0.618279 -0.401123 0
M  V30 5837 H 554.879 1.11212 -1.54051 0
M  V30 5838 H 553.029 3.59252 -1.47887 0
M  V30 5839 H 554.701 2.52527 -3.86041 0
M  V30 5840 H 552.944 2.31634 -3.6678 0
M  V30 5841 H 553.615 3.93776 -3.86839 0
M  V30 5842 H 556.091 3.67038 -1.96015 0
M  V30 5843 H 554.967 5.03514 -2.18551 0
M  V30 5844 H 555.228 4.3834 -0.575357 0
M  V30 5845 N 554.287 1.06798 1.15896 0
M  V30 5846 C 555.533 0.788934 1.86825 0
M  V30 5847 C 555.866 -0.683084 1.8179 0
M  V30 5848 O 555.141 -1.50086 1.23711 0
M  V30 5849 C 555.424 1.29065 3.36176 0
M  V30 5850 C 555.277 2.8268 3.49874 0
M  V30 5851 C 556.596 0.902655 4.30744 0
M  V30 5852 H 553.715 0.288066 0.678371 0
M  V30 5853 H 556.357 1.32479 1.36195 0
M  V30 5854 H 554.507 0.834806 3.79425 0
M  V30 5855 H 556.179 3.36511 3.15528 0
M  V30 5856 H 554.422 3.21157 2.91617 0
M  V30 5857 H 555.093 3.12852 4.54783 0
M  V30 5858 H 557.569 1.29535 3.95424 0
M  V30 5859 H 556.445 1.28111 5.3374 0
M  V30 5860 H 556.706 -0.191951 4.41683 0
M  V30 5861 N 555.766 -1.3263 0.851289 0
M  V30 5862 C 556.696 -2.31449 0.308771 0
M  V30 5863 C 557.677 -1.59531 -0.590255 0
M  V30 5864 O 558.862 -1.87351 -0.511205 0
M  V30 5865 C 555.992 -3.43586 -0.506548 0
M  V30 5866 C 554.946 -4.26963 0.297753 0
M  V30 5867 C 554.272 -5.30831 -0.642094 0
M  V30 5868 C 555.572 -4.99643 1.52166 0
M  V30 5869 H 557.266 -2.77074 1.13447 0
M  V30 5870 H 554.812 -1.33207 0.546971 0
M  V30 5871 H 556.765 -4.11754 -0.896474 0
M  V30 5872 H 555.489 -2.96681 -1.36558 0
M  V30 5873 H 554.148 -3.60437 0.669391 0
M  V30 5874 H 553.796 -4.8018 -1.49788 0
M  V30 5875 H 553.496 -5.87501 -0.107968 0
M  V30 5876 H 555.02 -6.01862 -1.02927 0
M  V30 5877 H 556.434 -5.6051 1.20421 0
M  V30 5878 H 554.831 -5.66022 1.99347 0
M  V30 5879 H 555.901 -4.27701 2.28474 0
M  V30 5880 N 557.244 -0.608902 -1.45362 0
M  V30 5881 C 558.174 0.0964526 -2.33301 0
M  V30 5882 C 559.155 0.857444 -1.46908 0
M  V30 5883 O 560.34 0.827735 -1.75676 0
M  V30 5884 C 557.47 1.09354 -3.29635 0
M  V30 5885 C 556.424 0.445676 -4.25673 0
M  V30 5886 C 555.75 1.5511 -5.11708 0
M  V30 5887 C 557.05 -0.633972 -5.18438 0
M  V30 5888 H 558.744 -0.637829 -2.92527 0
M  V30 5889 H 556.29 -0.308178 -1.40664 0
M  V30 5890 H 558.243 1.59556 -3.90025 0
M  V30 5891 H 556.967 1.85843 -2.6857 0
M  V30 5892 H 555.626 -0.0354897 -3.66583 0
M  V30 5893 H 555.274 2.30631 -4.4701 0
M  V30 5894 H 554.974 1.12311 -5.76767 0
M  V30 5895 H 556.498 2.05537 -5.74967 0
M  V30 5896 H 557.912 -0.215974 -5.72893 0
M  V30 5897 H 556.309 -0.983789 -5.91981 0
M  V30 5898 H 557.379 -1.51005 -4.60788 0
M  V30 5899 N 558.722 1.53707 -0.348139 0
M  V30 5900 C 559.632 2.28881 0.514857 0
M  V30 5901 C 560.648 1.34168 1.10793 0
M  V30 5902 O 561.824 1.6721 1.12262 0
M  V30 5903 C 558.889 3.05042 1.64774 0
M  V30 5904 C 557.95 4.15389 1.08398 0
M  V30 5905 C 557.183 4.87909 2.16287 0
M  V30 5906 O 557.406 4.60137 3.3709 0
M  V30 5907 O 556.34 5.74254 1.80323 0
M  V30 5908 H 560.166 3.03547 -0.0963699 0
M  V30 5909 H 557.751 1.48972 -0.113043 0
M  V30 5910 H 559.633 3.52656 2.30677 0
M  V30 5911 H 558.308 2.33228 2.24469 0
M  V30 5912 H 557.215 3.72068 0.389341 0
M  V30 5913 H 558.548 4.89318 0.531829 0
M  V30 5914 N 560.2 0.0768682 1.57412 0
M  V30 5915 C 561.449 -0.590679 1.92857 0
M  V30 5916 C 561.762 -1.70461 0.959293 0
M  V30 5917 O 562.968 -2.43207 1.20675 0
M  V30 5918 C 561.424 -1.10204 3.42612 0
M  V30 5919 C 561.032 -0.0188447 4.47996 0
M  V30 5920 C 562.776 -1.74336 3.87049 0
M  V30 5921 C 560.683 -0.544536 5.88888 0
M  V30 5922 H 559.613 -0.224411 0.71983 0
M  V30 5923 H 562.264 0.149924 1.82887 0
M  V30 5924 H 560.646 -1.89577 3.47673 0
M  V30 5925 H 561.82 0.755936 4.54557 0
M  V30 5926 H 560.135 0.526555 4.13057 0
M  V30 5927 H 562.732 -2.14708 4.89699 0
M  V30 5928 H 563.075 -2.60537 3.24694 0
M  V30 5929 H 563.608 -1.01577 3.84613 0
M  V30 5930 H 560.347 0.280426 6.549 0
M  V30 5931 H 559.867 -1.28673 5.85836 0
M  V30 5932 H 561.546 -1.01933 6.3892 0
M  V30 5933 N 561.678 -1.56367 -0.196722 0
M  V30 5934 C 562.927 -1.79724 -0.915539 0
M  V30 5935 C 563.24 -0.649804 -1.84491 0
M  V30 5936 O 564.446 -0.767631 -2.60422 0
M  V30 5937 C 562.902 -3.18369 -1.67836 0
M  V30 5938 C 562.51 -4.4091 -0.793897 0
M  V30 5939 C 564.254 -3.51037 -2.38691 0
M  V30 5940 C 562.161 -5.70577 -1.55549 0
M  V30 5941 H 561.091 -0.67013 -0.345604 0
M  V30 5942 H 563.742 -1.82721 -0.168856 0
M  V30 5943 H 562.124 -3.09617 -2.46887 0
M  V30 5944 H 563.298 -4.60781 -0.042163 0
M  V30 5945 H 561.613 -4.15937 -0.19626 0
M  V30 5946 H 564.21 -4.4515 -2.96219 0
M  V30 5947 H 564.553 -2.74704 -3.12799 0
M  V30 5948 H 565.086 -3.61229 -1.66608 0
M  V30 5949 H 561.825 -6.49871 -0.857226 0
M  V30 5950 H 561.345 -5.54726 -2.2812 0
M  V30 5951 H 563.024 -6.11637 -2.10971 0
M  V30 5952 N 563.156 0.464375 -1.50603 0
M  V30 5953 C 564.384 1.23907 -1.65695 0
M  V30 5954 C 564.799 1.85658 -0.343027 0
M  V30 5955 O 564.156 1.69529 0.675739 0
M  V30 5956 C 564.207 2.3429 -2.75301 0
M  V30 5957 O 563.928 1.7507 -4.01599 0
M  V30 5958 C 565.429 3.25051 -3.01424 0
M  V30 5959 H 562.649 0.374485 -0.556778 0
M  V30 5960 H 565.193 0.55353 -1.96866 0
M  V30 5961 H 563.348 2.98607 -2.46804 0
M  V30 5962 H 563.762 2.47812 -4.62266 0
M  V30 5963 H 565.236 3.98699 -3.81763 0
M  V30 5964 H 565.713 3.84227 -2.12758 0
M  V30 5965 H 566.319 2.66463 -3.31477 0
M  V30 5966 N 564.634 1.40294 0.718013 0
M  V30 5967 C 565.882 1.38167 1.47494 0
M  V30 5968 C 566.203 -0.01607 1.94993 0
M  V30 5969 O 565.473 -0.970396 1.70177 0
M  V30 5970 H 564.053 0.508505 0.547203 0
M  V30 5971 H 566.715 1.75324 0.851322 0
M  V30 5972 H 565.811 2.05503 2.34894 0
M  V30 5973 N 566.112 -0.949982 1.2575 0
M  V30 5974 C 567.042 -2.06483 1.09028 0
M  V30 5975 C 568.023 -1.701 -0.00201532 0
M  V30 5976 O 569.208 -1.93469 0.168383 0
M  V30 5977 C 566.338 -3.39899 0.71316 0
M  V30 5978 C 565.292 -3.90309 1.75621 0
M  V30 5979 C 564.618 -5.20274 1.23365 0
M  V30 5980 C 565.918 -4.16169 3.15596 0
M  V30 5981 H 567.612 -2.20731 2.02283 0
M  V30 5982 H 565.158 -1.06066 0.973964 0
M  V30 5983 H 567.111 -4.17346 0.58309 0
M  V30 5984 H 565.835 -3.25602 -0.255091 0
M  V30 5985 H 564.494 -3.15035 1.8748 0
M  V30 5986 H 564.142 -5.02351 0.255491 0
M  V30 5987 H 563.842 -5.54971 1.93082 0
M  V30 5988 H 565.366 -6.00314 1.11607 0
M  V30 5989 H 566.78 -4.84259 3.06864 0
M  V30 5990 H 565.177 -4.62131 3.82825 0
M  V30 5991 H 566.247 -3.22273 3.6231 0
M  V30 5992 N 567.59 -1.07411 -1.15328 0
M  V30 5993 C 569.001 -0.820261 -1.67716 0
M  V30 5994 C 569.352 0.654539 -1.8496 0
M  V30 5995 O 568.477 1.50664 -1.55337 0
M  V30 5996 C 569.072 -1.48242 -3.04647 0
M  V30 5997 C 567.631 -1.27606 -3.5411 0
M  V30 5998 C 566.778 -1.5517 -2.29821 0
M  V30 5999 H 569.729 -1.23608 -0.995332 0
M  V30 6000 H 569.75 -0.903984 -3.69606 0
M  V30 6001 H 569.262 -2.55578 -2.92064 0
M  V30 6002 H 567.363 -0.222948 -3.71932 0
M  V30 6003 H 567.476 -1.99667 -4.35511 0
M  V30 6004 H 565.84 -0.972747 -2.35393 0
M  V30 6005 H 566.623 -2.63689 -2.19824 0
M  V30 6006 N 569.068 1.32177 -0.85831 0
M  V30 6007 C 570.031 2.27086 -0.310588 0
M  V30 6008 C 571.031 1.51751 0.531806 0
M  V30 6009 O 572.221 1.70794 0.34279 0
M  V30 6010 C 569.353 3.36266 0.560179 0
M  V30 6011 H 570.546 2.77045 -1.1483 0
M  V30 6012 H 568.099 1.42911 -0.632942 0
M  V30 6013 H 568.834 2.9158 1.41956 0
M  V30 6014 H 568.619 3.92077 -0.0428473 0
M  V30 6015 H 570.109 4.06974 0.936056 0
M  V30 6016 N 570.547 0.616602 1.45037 0
M  V30 6017 C 571.793 0.115501 2.02471 0
M  V30 6018 C 572.126 -1.25406 1.4828 0
M  V30 6019 O 571.401 -1.82922 0.661051 0
M  V30 6020 C 571.684 0.0863588 3.59996 0
M  V30 6021 C 571.537 1.48723 4.24501 0
M  V30 6022 C 572.856 -0.596762 4.36035 0
M  V30 6023 H 569.975 0.0434461 0.735718 0
M  V30 6024 H 572.617 0.7903 1.72784 0
M  V30 6025 H 570.767 -0.488277 3.85419 0
M  V30 6026 H 572.439 2.10964 4.10234 0
M  V30 6027 H 570.682 2.04534 3.82555 0
M  V30 6028 H 571.353 1.419 5.3345 0
M  V30 6029 H 573.829 -0.10824 4.15959 0
M  V30 6030 H 572.705 -0.586289 5.4576 0
M  V30 6031 H 572.966 -1.66451 4.09569 0
M  V30 6032 N 572.025 -1.5352 0.356285 0
M  V30 6033 C 573.302 -1.93405 -0.292223 0
M  V30 6034 C 573.682 -1.28901 -1.67176 0
M  V30 6035 O 573.03 -0.444632 -2.24132 0
M  V30 6036 C 573.24 -3.47223 -0.35175 0
M  V30 6037 C 574.588 -4.20389 -0.596534 0
M  V30 6038 O 575.612 -3.53554 -0.433344 0
M  V30 6039 O 574.471 -5.3881 -0.913589 0
M  V30 6040 H 571.565 -0.808666 -0.173172 0
M  V30 6041 H 574.111 -1.64713 0.408391 0
M  V30 6042 H 572.883 -3.86423 0.615841 0
M  V30 6043 H 572.506 -3.8212 -1.09864 0
M  V30 6044 N 573.503 -0.0852151 -1.57369 0
M  V30 6045 C 574.413 0.891712 -2.16992 0
M  V30 6046 C 575.429 1.3174 -1.13669 0
M  V30 6047 O 576.605 1.38735 -1.45995 0
M  V30 6048 C 573.67 2.13635 -2.73059 0
M  V30 6049 C 572.731 1.7658 -3.91303 0
M  V30 6050 C 571.964 2.95111 -4.44686 0
M  V30 6051 O 572.187 4.09539 -3.97032 0
M  V30 6052 O 571.121 2.74149 -5.35841 0
M  V30 6053 H 574.947 0.414477 -3.00858 0
M  V30 6054 H 572.532 0.138598 -1.48756 0
M  V30 6055 H 574.414 2.86595 -3.08935 0
M  V30 6056 H 573.089 2.6043 -1.92244 0
M  V30 6057 H 571.996 1.00831 -3.60255 0
M  V30 6058 H 573.329 1.34557 -4.7345 0
M  V30 6059 N 574.981 1.5647 0.188427 0
M  V30 6060 C 575.931 1.91479 1.23774 0
M  V30 6061 C 576.915 0.78119 1.40664 0
M  V30 6062 O 578.107 1.04414 1.42922 0
M  V30 6063 C 575.236 2.26354 2.58106 0
M  V30 6064 C 574.322 3.46186 2.44981 0
M  V30 6065 N 574.713 4.63911 2.01546 0
M  V30 6066 C 573.011 3.50456 2.75856 0
M  V30 6067 C 573.712 5.46064 2.00472 0
M  V30 6068 N 572.688 4.86648 2.42229 0
M  V30 6069 H 576.49 2.79994 0.893339 0
M  V30 6070 H 574.004 1.57477 0.39682 0
M  V30 6071 H 576.001 2.49622 3.33908 0
M  V30 6072 H 574.661 1.39168 2.93364 0
M  V30 6073 H 575.672 4.88451 1.7215 0
M  V30 6074 H 572.349 2.73704 3.15265 0
M  V30 6075 H 573.739 6.50368 1.68734 0
M  V30 6076 N 576.459 -0.456382 1.50847 0
M  V30 6077 C 577.875 -0.791345 1.386 0
M  V30 6078 C 578.075 -1.9633 0.453498 0
M  V30 6079 O 577.131 -2.52308 -0.0984353 0
M  V30 6080 C 578.444 -1.08959 2.80265 0
M  V30 6081 C 579.992 -1.19517 2.89283 0
M  V30 6082 C 580.467 -1.52647 4.31814 0
M  V30 6083 N 581.958 -1.59609 4.34832 0
M  V30 6084 C 582.693 -1.86777 5.42127 0
M  V30 6085 N 582.189 -2.11866 6.59609 0
M  V30 6086 N 583.982 -1.88402 5.29586 0
M  V30 6087 H 576.133 0.315746 2.1004 0
M  V30 6088 H 578.396 0.0787916 0.94472 0
M  V30 6089 H 578.102 -0.301355 3.50407 0
M  V30 6090 H 577.976 -2.02211 3.18419 0
M  V30 6091 H 580.363 -1.97406 2.19351 0
M  V30 6092 H 580.444 -0.242111 2.54652 0
M  V30 6093 H 580.088 -0.752922 5.02288 0
M  V30 6094 H 580.018 -2.49127 4.63943 0
M  V30 6095 H 582.509 -1.42201 3.50125 0
M  V30 6096 H 582.822 -2.31912 7.37182 0
M  V30 6097 H 581.167 -2.09228 6.62758 0
M  V30 6098 H 584.358 -1.68307 4.36795 0
M  V30 6099 H 584.531 -2.09238 6.13289 0
M  V30 6100 N 577.937 -1.40673 -0.710563 0
M  V30 6101 C 578.847 -1.43663 -1.85467 0
M  V30 6102 C 579.863 -0.328721 -1.70867 0
M  V30 6103 O 581.039 -0.574098 -1.93044 0
M  V30 6104 C 578.104 -1.30226 -3.21313 0
M  V30 6105 C 577.165 -2.51204 -3.48131 0
M  V30 6106 C 576.398 -2.38398 -4.77495 0
M  V30 6107 O 576.621 -1.40048 -5.5294 0
M  V30 6108 O 575.555 -3.2787 -5.04762 0
M  V30 6109 H 579.381 -2.40156 -1.859 0
M  V30 6110 H 576.966 -1.22049 -0.861652 0
M  V30 6111 H 578.848 -1.2496 -4.02446 0
M  V30 6112 H 577.523 -0.368419 -3.21597 0
M  V30 6113 H 576.43 -2.62048 -2.66987 0
M  V30 6114 H 577.763 -3.43366 -3.52648 0
M  V30 6115 N 579.415 0.9433 -1.26252 0
M  V30 6116 C 580.826 1.50404 -1.10614 0
M  V30 6117 C 581.177 1.93666 0.31429 0
M  V30 6118 O 580.302 1.79709 1.20555 0
M  V30 6119 C 580.897 2.73336 -2.00182 0
M  V30 6120 C 579.456 3.25686 -1.88695 0
M  V30 6121 C 578.603 1.98474 -1.93658 0
M  V30 6122 H 581.554 0.759006 -1.39373 0
M  V30 6123 H 581.575 3.47567 -1.54847 0
M  V30 6124 H 581.087 2.41818 -3.03555 0
M  V30 6125 H 579.188 3.61998 -0.882489 0
M  V30 6126 H 579.301 3.92935 -2.74115 0
M  V30 6127 H 577.665 2.14278 -1.37684 0
M  V30 6128 H 578.448 1.6929 -2.98657 0
M  V30 6129 N 580.893 1.08022 1.14757 0
M  V30 6130 C 581.825 0.664566 2.19354 0
M  V30 6131 C 582.838 -0.286374 1.60261 0
M  V30 6132 O 584.027 -0.0746362 1.78344 0
M  V30 6133 C 581.127 -0.0434634 3.38872 0
M  V30 6134 C 580.3 0.925381 4.27499 0
M  V30 6135 C 579.359 0.253398 5.2559 0
M  V30 6136 O 578.385 0.896581 5.62094 0
M  V30 6137 N 579.587 -0.998263 5.71852 0
M  V30 6138 H 582.352 1.56438 2.55631 0
M  V30 6139 H 579.913 0.965788 1.29939 0
M  V30 6140 H 581.905 -0.503857 4.01551 0
M  V30 6141 H 580.475 -0.845321 3.00954 0
M  V30 6142 H 579.695 1.56472 3.61815 0
M  V30 6143 H 580.983 1.58203 4.8358 0
M  V30 6144 H 580.381 -1.54063 5.44317 0
M  V30 6145 H 578.938 -1.40222 6.36538 0
M  V30 6146 N 582.371 -1.3172 0.865308 0
M  V30 6147 C 583.301 -2.31109 0.333302 0
M  V30 6148 C 584.282 -1.60148 -0.573301 0
M  V30 6149 O 585.467 -1.87882 -0.491305 0
M  V30 6150 C 582.597 -3.44104 -0.470078 0
M  V30 6151 C 581.551 -4.26623 0.343021 0
M  V30 6152 C 580.877 -5.31482 -0.585756 0
M  V30 6153 C 582.177 -4.98001 1.57456 0
M  V30 6154 H 583.871 -2.75855 1.1638 0
M  V30 6155 H 581.417 -1.3262 0.561069 0
M  V30 6156 H 583.37 -4.12682 -0.852752 0
M  V30 6157 H 582.094 -2.98112 -1.33404 0
M  V30 6158 H 580.753 -3.59707 0.707583 0
M  V30 6159 H 580.401 -4.81741 -1.44686 0
M  V30 6160 H 580.101 -5.87582 -0.0456494 0
M  V30 6161 H 581.625 -6.0292 -0.965375 0
M  V30 6162 H 583.039 -5.59201 1.26359 0
M  V30 6163 H 581.436 -5.63876 2.05339 0
M  V30 6164 H 582.506 -4.25253 2.32997 0
M  V30 6165 N 583.85 -0.624285 -1.44708 0
M  V30 6166 C 584.779 0.0717025 -2.3339 0
M  V30 6167 C 585.76 0.841814 -1.47809 0
M  V30 6168 O 586.946 0.809056 -1.76544 0
M  V30 6169 C 584.076 1.05852 -3.30776 0
M  V30 6170 C 583.029 0.400503 -4.26122 0
M  V30 6171 C 582.356 1.49674 -5.13324 0
M  V30 6172 C 583.656 -0.688924 -5.17737 0
M  V30 6173 H 585.35 -0.668819 -2.91834 0
M  V30 6174 H 582.896 -0.32308 -1.40329 0
M  V30 6175 H 584.849 1.5541 -3.91696 0
M  V30 6176 H 583.572 1.82984 -2.70526 0
M  V30 6177 H 582.231 -0.0743687 -3.66525 0
M  V30 6178 H 581.88 2.25877 -4.49431 0
M  V30 6179 H 581.58 1.06188 -5.77926 0
M  V30 6180 H 583.104 1.99427 -5.77115 0
M  V30 6181 H 584.518 -0.276724 -5.72632 0
M  V30 6182 H 582.915 -1.04652 -5.90904 0
M  V30 6183 H 583.985 -1.55884 -4.5916 0
M  V30 6184 N 585.328 1.53329 -0.364422 0
M  V30 6185 C 586.258 2.28627 0.474543 0
M  V30 6186 C 587.239 1.31009 1.08492 0
M  V30 6187 O 588.424 1.59878 1.10239 0
M  V30 6188 C 585.554 3.07465 1.61501 0
M  V30 6189 C 584.508 4.1276 1.13194 0
M  V30 6190 C 583.834 4.79674 2.36255 0
M  V30 6191 C 585.134 5.21847 0.217507 0
M  V30 6192 H 586.828 2.99005 -0.153656 0
M  V30 6193 H 584.374 1.43803 -0.0753406 0
M  V30 6194 H 586.327 3.58889 2.20855 0
M  V30 6195 H 585.051 2.34775 2.27042 0
M  V30 6196 H 583.71 3.62281 0.56109 0
M  V30 6197 H 583.358 4.03557 3.00251 0
M  V30 6198 H 583.058 5.50827 2.04606 0
M  V30 6199 H 584.582 5.33892 2.96297 0
M  V30 6200 H 585.996 5.6878 0.718493 0
M  V30 6201 H 584.393 6.00099 -0.00806408 0
M  V30 6202 H 585.463 4.7921 -0.740653 0
M  V30 6203 N 586.806 0.0935595 1.57322 0
M  V30 6204 C 588.083 -0.612692 1.85756 0
M  V30 6205 C 588.463 -1.86439 0.99013 0
M  V30 6206 O 587.811 -2.28416 0.0621362 0
M  V30 6207 C 588.021 -0.929547 3.36393 0
M  V30 6208 C 589.369 -1.29366 4.04413 0
M  V30 6209 O 590.393 -1.02061 3.41265 0
M  V30 6210 O 589.252 -1.80498 5.15832 0
M  V30 6211 H 586.346 -0.306444 0.768128 0
M  V30 6212 H 588.892 0.126141 1.69231 0
M  V30 6213 H 587.664 -0.0414766 3.91278 0
M  V30 6214 H 587.287 -1.72441 3.5826 0
M  V30 6215 N 588.284 -1.56567 -0.180126 0
M  V30 6216 C 589.533 -1.80685 -0.896426 0
M  V30 6217 C 589.846 -0.669335 -1.83791 0
M  V30 6218 O 591.052 -0.795209 -2.59593 0
M  V30 6219 C 589.508 -3.20132 -1.6445 0
M  V30 6220 C 589.116 -4.41727 -0.747088 0
M  V30 6221 C 590.86 -3.53549 -2.34955 0
M  V30 6222 C 588.767 -5.72195 -1.49489 0
M  V30 6223 H 587.697 -0.673758 -0.338477 0
M  V30 6224 H 590.348 -1.8289 -0.149467 0
M  V30 6225 H 588.73 -3.12218 -2.43589 0
M  V30 6226 H 589.904 -4.608 0.00671129 0
M  V30 6227 H 588.219 -4.16122 -0.152134 0
M  V30 6228 H 590.816 -4.48267 -2.91481 0
M  V30 6229 H 591.159 -2.78006 -3.09868 0
M  V30 6230 H 591.692 -3.62976 -1.62768 0
M  V30 6231 H 588.431 -6.50743 -0.788251 0
M  V30 6232 H 587.951 -5.57115 -2.22224 0
M  V30 6233 H 589.63 -6.1384 -2.04472 0
M  V30 6234 N 589.762 0.448376 -1.51087 0
M  V30 6235 C 590.709 1.54341 -1.71603 0
M  V30 6236 C 591.679 1.56463 -0.557536 0
M  V30 6237 O 592.864 1.73644 -0.79072 0
M  V30 6238 C 590.004 2.92148 -1.83695 0
M  V30 6239 C 589.117 2.99639 -3.11192 0
M  V30 6240 C 588.252 4.285 -3.13944 0
M  V30 6241 C 587.291 4.29819 -4.35801 0
M  V30 6242 N 586.428 5.50186 -4.36164 0
M  V30 6243 H 591.268 1.36151 -2.65079 0
M  V30 6244 H 588.805 0.661585 -1.31383 0
M  V30 6245 H 590.763 3.72093 -1.88687 0
M  V30 6246 H 589.393 3.0892 -0.936374 0
M  V30 6247 H 588.445 2.12425 -3.15562 0
M  V30 6248 H 589.757 2.96474 -4.01129 0
M  V30 6249 H 588.911 5.16811 -3.17791 0
M  V30 6250 H 587.65 4.34307 -2.21876 0
M  V30 6251 H 586.655 3.39902 -4.32142 0
M  V30 6252 H 587.88 4.25685 -5.29121 0
M  V30 6253 H 585.826 5.56735 -3.46961 0
M  V30 6254 H 585.743 5.48856 -5.19897 0
M  V30 6255 H 587.011 6.40559 -4.44189 0
M  V30 6256 N 591.24 1.41047 0.703093 0
M  V30 6257 C 592.15 1.44645 1.84703 0
M  V30 6258 C 593.166 0.337778 1.7069 0
M  V30 6259 O 594.342 0.584327 1.92737 0
M  V30 6260 C 591.407 1.31928 3.20618 0
M  V30 6261 C 590.468 2.53047 3.46794 0
M  V30 6262 C 589.701 2.40927 4.76224 0
M  V30 6263 O 589.924 1.42978 5.5219 0
M  V30 6264 O 588.858 3.30543 5.03016 0
M  V30 6265 H 592.684 2.41139 1.84624 0
M  V30 6266 H 590.269 1.22504 0.855167 0
M  V30 6267 H 592.151 1.27092 4.01778 0
M  V30 6268 H 590.826 0.385469 3.21397 0
M  V30 6269 H 589.733 2.6346 2.65593 0
M  V30 6270 H 591.066 3.45231 3.50822 0
M  V30 6271 N 592.718 -0.936591 1.26751 0
M  V30 6272 C 593.628 -2.06949 1.10496 0
M  V30 6273 C 594.644 -1.7396 0.037271 0
M  V30 6274 O 595.82 -1.99941 0.241944 0
M  V30 6275 C 592.885 -3.38612 0.744491 0
M  V30 6276 C 591.946 -3.85355 1.89209 0
M  V30 6277 C 591.179 -5.10735 1.54873 0
M  V30 6278 O 591.402 -5.68602 0.452546 0
M  V30 6279 O 590.336 -5.52632 2.38499 0
M  V30 6280 H 594.162 -2.23571 2.05547 0
M  V30 6281 H 591.747 -1.05428 1.05855 0
M  V30 6282 H 593.629 -4.17711 0.556396 0
M  V30 6283 H 592.304 -3.23218 -0.176582 0
M  V30 6284 H 591.211 -3.07182 2.13518 0
M  V30 6285 H 592.544 -4.05277 2.79305 0
M  V30 6286 N 594.196 -1.08629 -1.14182 0
M  V30 6287 C 595.445 -0.812271 -1.84621 0
M  V30 6288 C 595.758 0.664313 -1.83973 0
M  V30 6289 O 596.964 1.05357 -2.50224 0
M  V30 6290 C 595.42 -1.4031 -3.31423 0
M  V30 6291 C 595.028 -2.91164 -3.40481 0
M  V30 6292 C 596.772 -1.20767 -4.06959 0
M  V30 6293 C 594.679 -3.43373 -4.81507 0
M  V30 6294 H 593.609 -0.30019 -0.691666 0
M  V30 6295 H 596.26 -1.30798 -1.28701 0
M  V30 6296 H 594.642 -0.835096 -3.87094 0
M  V30 6297 H 595.816 -3.5412 -2.94848 0
M  V30 6298 H 594.131 -3.09646 -2.78403 0
M  V30 6299 H 596.728 -1.57237 -5.11058 0
M  V30 6300 H 597.071 -0.147664 -4.16038 0
M  V30 6301 H 597.604 -1.74274 -3.57594 0
M  V30 6302 H 594.343 -4.48958 -4.77616 0
M  V30 6303 H 593.863 -2.85176 -5.27669 0
M  V30 6304 H 595.542 -3.40095 -5.50404 0
M  V30 6305 N 595.674 1.31259 -0.872281 0
M  V30 6306 C 596.584 2.32221 -0.333255 0
M  V30 6307 C 597.6 1.6481 0.558013 0
M  V30 6308 O 598.776 1.96212 0.454175 0
M  V30 6309 C 595.841 3.43708 0.454479 0
M  V30 6310 C 594.902 4.26774 -0.465024 0
M  V30 6311 C 594.135 5.32937 0.28521 0
M  V30 6312 O 594.358 5.49968 1.513 0
M  V30 6313 O 593.292 6.00834 -0.358126 0
M  V30 6314 H 597.118 2.80252 -1.17016 0
M  V30 6315 H 594.703 1.352 -0.635724 0
M  V30 6316 H 596.585 4.11656 0.900963 0
M  V30 6317 H 595.26 2.97836 1.26789 0
M  V30 6318 H 594.167 3.61571 -0.960055 0
M  V30 6319 H 595.5 4.76217 -1.2441 0
M  V30 6320 N 597.152 0.631951 1.44375 0
M  V30 6321 C 598.429 0.067646 1.95483 0
M  V30 6322 C 598.809 -1.40683 1.57389 0
M  V30 6323 O 598.157 -2.12167 0.848375 0
M  V30 6324 C 598.367 0.291392 3.47781 0
M  V30 6325 C 599.715 0.185028 4.24197 0
M  V30 6326 O 600.739 0.222803 3.55503 0
M  V30 6327 O 599.598 0.0906642 5.46425 0
M  V30 6328 H 596.692 -0.0218379 0.826712 0
M  V30 6329 H 599.238 0.703711 1.54421 0
M  V30 6330 H 598.01 1.31449 3.68561 0
M  V30 6331 H 597.633 -0.378772 3.95792 0
M  V30 6332 N 598.631 -1.53133 0.372548 0
M  V30 6333 C 599.541 -2.29671 -0.478379 0
M  V30 6334 C 600.557 -1.35913 -1.08644 0
M  V30 6335 O 601.733 -1.68975 -1.09588 0
M  V30 6336 C 598.798 -3.07625 -1.599 0
M  V30 6337 C 597.859 -4.17061 -1.01776 0
M  V30 6338 C 597.092 -4.91289 -2.08497 0
M  V30 6339 O 597.315 -4.65442 -3.29727 0
M  V30 6340 O 596.249 -5.7705 -1.71164 0
M  V30 6341 H 600.075 -3.03355 0.144649 0
M  V30 6342 H 597.66 -1.48773 0.136729 0
M  V30 6343 H 599.542 -3.56281 -2.25038 0
M  V30 6344 H 598.217 -2.3677 -2.2073 0
M  V30 6345 H 597.124 -3.72641 -0.330098 0
M  V30 6346 H 598.457 -4.90102 -0.453915 0
M  V30 6347 N 600.109 -0.101901 -1.5727 0
M  V30 6348 C 601.019 0.868647 -2.17926 0
M  V30 6349 C 602.035 1.30527 -1.1506 0
M  V30 6350 O 603.211 1.37178 -1.47459 0
M  V30 6351 C 600.276 2.10727 -2.75309 0
M  V30 6352 C 599.337 1.7242 -3.93154 0
M  V30 6353 C 598.57 2.90377 -4.47791 0
M  V30 6354 O 598.793 4.05305 -4.01353 0
M  V30 6355 O 597.727 2.6845 -5.38719 0
M  V30 6356 H 601.553 0.382544 -3.01281 0
M  V30 6357 H 599.138 0.122812 -1.48894 0
M  V30 6358 H 601.02 2.83303 -3.11958 0
M  V30 6359 H 599.695 2.58376 -1.94996 0
M  V30 6360 H 598.602 0.970039 -3.61305 0
M  V30 6361 H 599.935 1.29528 -4.74851 0
M  V30 6362 N 601.587 1.56661 0.17182 0
M  V30 6363 C 602.534 1.96371 1.21273 0
M  V30 6364 C 603.504 0.82756 1.44016 0
M  V30 6365 O 604.689 1.08764 1.56764 0
M  V30 6366 C 601.829 2.32838 2.54716 0
M  V30 6367 C 600.942 3.59628 2.39356 0
M  V30 6368 C 600.077 3.85311 3.65662 0
M  V30 6369 C 599.116 5.0545 3.45234 0
M  V30 6370 N 598.253 5.27268 4.63608 0
M  V30 6371 H 603.093 2.85106 0.86709 0
M  V30 6372 H 600.63 1.41073 0.416744 0
M  V30 6373 H 602.588 2.52004 3.3249 0
M  V30 6374 H 601.218 1.47214 2.87277 0
M  V30 6375 H 600.27 3.4838 1.52761 0
M  V30 6376 H 601.582 4.4756 2.20207 0
M  V30 6377 H 600.736 4.04841 4.51872 0
M  V30 6378 H 599.475 2.95753 3.8779 0
M  V30 6379 H 598.48 4.85819 2.5741 0
M  V30 6380 H 599.705 5.96538 3.24529 0
M  V30 6381 H 597.651 4.40662 4.85956 0
M  V30 6382 H 597.568 6.09422 4.4737 0
M  V30 6383 H 598.836 5.51277 5.51103 0
M  V30 6384 N 603.065 -0.440357 1.51323 0
M  V30 6385 C 604.293 -1.21255 1.67645 0
M  V30 6386 C 604.708 -1.85088 0.37252 0
M  V30 6387 O 604.065 -1.70582 -0.648683 0
M  V30 6388 C 604.116 -2.29881 2.78993 0
M  V30 6389 O 603.837 -1.68659 4.04334 0
M  V30 6390 C 605.338 -3.20214 3.06558 0
M  V30 6391 H 602.558 -0.36558 0.562666 0
M  V30 6392 H 605.102 -0.52214 1.97722 0
M  V30 6393 H 603.257 -2.94643 2.51524 0
M  V30 6394 H 603.671 -2.40426 4.6615 0
M  V30 6395 H 605.145 -3.92575 3.88058 0
M  V30 6396 H 605.622 -3.80794 2.18844 0
M  V30 6397 H 606.228 -2.61156 3.35675 0
M  V30 6398 N 604.543 -1.41418 -0.695603 0
M  V30 6399 C 605.792 -1.40073 -1.4513 0
M  V30 6400 C 606.105 -0.0130439 -1.95596 0
M  V30 6401 O 607.311 0.123032 -2.71221 0
M  V30 6402 C 605.767 -2.46286 -2.62433 0
M  V30 6403 C 605.375 -3.90962 -2.18753 0
M  V30 6404 C 607.119 -2.54077 -3.40066 0
M  V30 6405 C 605.026 -4.88728 -3.33015 0
M  V30 6406 H 603.956 -0.520903 -0.545138 0
M  V30 6407 H 606.607 -1.67242 -0.75515 0
M  V30 6408 H 604.989 -2.12248 -3.34315 0
M  V30 6409 H 606.163 -4.34248 -1.54161 0
M  V30 6410 H 604.478 -3.86831 -1.54114 0
M  V30 6411 H 607.075 -3.24303 -4.25125 0
M  V30 6412 H 607.418 -1.5776 -3.8525 0
M  V30 6413 H 607.951 -2.87206 -2.75241 0
M  V30 6414 H 604.69 -5.86449 -2.92844 0
M  V30 6415 H 604.21 -4.50091 -3.96457 0
M  V30 6416 H 605.889 -5.09483 -3.98793 0
M  V30 6417 N 606.021 0.929856 -1.27246 0
M  V30 6418 C 606.931 2.0636 -1.11592 0
M  V30 6419 C 607.947 1.73938 -0.046496 0
M  V30 6420 O 609.123 1.9981 -0.252544 0
M  V30 6421 C 606.188 3.38213 -0.762437 0
M  V30 6422 C 605.249 3.84346 -1.9125 0
M  V30 6423 C 604.482 5.09906 -1.57579 0
M  V30 6424 O 604.705 5.68354 -0.482694 0
M  V30 6425 O 603.639 5.51359 -2.41426 0
M  V30 6426 H 607.465 2.22478 -2.0673 0
M  V30 6427 H 605.05 1.04865 -1.06413 0
M  V30 6428 H 606.932 4.1741 -0.57854 0
M  V30 6429 H 605.607 3.23307 0.159439 0
M  V30 6430 H 604.514 3.06045 -2.15144 0
M  V30 6431 H 605.847 4.0379 -2.81451 0
M  V30 6432 N 607.499 1.09233 1.13605 0
M  V30 6433 C 608.776 0.739633 1.81077 0
M  V30 6434 C 609.156 -0.775595 1.96336 0
M  V30 6435 O 608.504 -1.69726 1.52988 0
M  V30 6436 C 608.714 1.47636 3.16235 0
M  V30 6437 C 610.062 1.64087 3.91613 0
M  V30 6438 O 611.086 1.43871 3.25852 0
M  V30 6439 O 609.945 1.97511 5.0956 0
M  V30 6440 H 607.039 0.265464 0.783236 0
M  V30 6441 H 609.585 1.19441 1.20549 0
M  V30 6442 H 608.357 2.50818 3.00344 0
M  V30 6443 H 607.98 1.01362 3.84462 0
M  V30 6444 N 608.977 -1.30795 0.87923 0
M  V30 6445 C 610.207 -2.00237 0.50881 0
M  V30 6446 C 610.615 -1.66115 -0.905682 0
M  V30 6447 O 609.958 -0.89138 -1.60624 0
M  V30 6448 C 610.02 -3.54508 0.597003 0
M  V30 6449 C 609.684 -4.12131 1.97477 0
M  V30 6450 C 610.681 -4.28552 2.94346 0
M  V30 6451 C 608.366 -4.47644 2.2786 0
M  V30 6452 C 610.36 -4.79689 4.19735 0
M  V30 6453 C 608.047 -4.98481 3.53496 0
M  V30 6454 C 609.045 -5.14456 4.49248 0
M  V30 6455 O 608.733 -5.64199 5.72656 0
M  V30 6456 H 608.465 -0.647026 0.195788 0
M  V30 6457 H 611.019 -1.67785 1.1848 0
M  V30 6458 H 609.249 -3.86461 -0.135945 0
M  V30 6459 H 610.938 -4.05198 0.238684 0
M  V30 6460 H 611.704 -4.01424 2.72183 0
M  V30 6461 H 607.583 -4.34481 1.54102 0
M  V30 6462 H 611.127 -4.92073 4.9448 0
M  V30 6463 H 607.024 -5.25044 3.75498 0
M  V30 6464 H 607.792 -5.82551 5.74957 0
M  V30 6465 N 610.455 -0.639598 -1.44038 0
M  V30 6466 C 611.704 -0.144885 -2.01179 0
M  V30 6467 C 612.017 1.24372 -1.50967 0
M  V30 6468 O 613.223 1.83291 -2.00292 0
M  V30 6469 C 611.679 -0.208244 -3.59297 0
M  V30 6470 C 611.287 -1.59869 -4.18504 0
M  V30 6471 C 613.031 0.229568 -4.23879 0
M  V30 6472 C 610.938 -1.61671 -5.68873 0
M  V30 6473 H 609.868 -0.0504005 -0.752314 0
M  V30 6474 H 612.519 -0.799639 -1.65161 0
M  V30 6475 H 610.901 0.513767 -3.92653 0
M  V30 6476 H 612.075 -2.34496 -3.96671 0
M  V30 6477 H 610.39 -1.98131 -3.66242 0
M  V30 6478 H 612.987 0.235758 -5.3418 0
M  V30 6479 H 613.33 1.25848 -3.96822 0
M  V30 6480 H 613.863 -0.440233 -3.95357 0
M  V30 6481 H 610.602 -2.62427 -6.00677 0
M  V30 6482 H 610.122 -0.913489 -5.92803 0
M  V30 6483 H 611.801 -1.35439 -6.32665 0
M  V30 6484 N 611.933 1.52934 -0.380664 0
M  V30 6485 C 613.21 1.93845 0.261417 0
M  V30 6486 C 613.59 1.31544 1.65104 0
M  V30 6487 O 612.938 0.480234 2.23397 0
M  V30 6488 C 613.148 3.47739 0.296466 0
M  V30 6489 C 614.496 4.21284 0.529578 0
M  V30 6490 O 615.52 3.54199 0.377041 0
M  V30 6491 O 614.379 5.40195 0.827753 0
M  V30 6492 H 611.473 0.811318 0.160285 0
M  V30 6493 H 614.019 1.64042 -0.434544 0
M  V30 6494 H 612.791 3.85395 -0.67724 0
M  V30 6495 H 612.414 3.8382 1.0377 0
M  V30 6496 N 613.412 0.11024 1.57214 0
M  V30 6497 C 614.359 -0.843195 2.14846 0
M  V30 6498 C 615.329 -1.26954 1.07107 0
M  V30 6499 O 616.514 -1.34861 1.34971 0
M  V30 6500 C 613.654 -2.09123 2.74521 0
M  V30 6501 C 612.767 -1.71404 3.96541 0
M  V30 6502 C 611.902 -2.91107 4.44331 0
M  V30 6503 C 610.941 -2.49586 5.58903 0
M  V30 6504 N 610.078 -3.62175 6.01477 0
M  V30 6505 H 614.918 -0.344886 2.95998 0
M  V30 6506 H 612.455 -0.15855 1.46243 0
M  V30 6507 H 614.413 -2.82234 3.07246 0
M  V30 6508 H 613.043 -2.56427 1.96074 0
M  V30 6509 H 612.095 -0.88201 3.70033 0
M  V30 6510 H 613.407 -1.36884 4.7965 0
M  V30 6511 H 612.561 -3.72454 4.78919 0
M  V30 6512 H 611.3 -3.28848 3.60153 0
M  V30 6513 H 610.305 -1.6667 5.23929 0
M  V30 6514 H 611.53 -2.12973 6.4484 0
M  V30 6515 H 609.476 -3.99605 5.20242 0
M  V30 6516 H 609.393 -3.3155 6.79419 0
M  V30 6517 H 610.661 -4.43987 6.407 0
M  V30 6518 N 614.89 -1.56749 -0.16351 0
M  V30 6519 C 615.837 -1.97011 -1.2023 0
M  V30 6520 C 616.807 -0.835186 -1.43575 0
M  V30 6521 O 617.992 -1.09594 -1.56185 0
M  V30 6522 C 615.132 -2.34186 -2.53478 0
M  V30 6523 C 614.245 -3.60893 -2.37446 0
M  V30 6524 C 613.38 -3.87245 -3.63614 0
M  V30 6525 C 612.419 -5.07274 -3.42548 0
M  V30 6526 N 611.556 -5.29719 -4.60806 0
M  V30 6527 H 616.396 -2.85562 -0.851958 0
M  V30 6528 H 613.933 -1.41292 -0.409257 0
M  V30 6529 H 615.891 -2.53764 -3.31149 0
M  V30 6530 H 614.521 -1.48736 -2.86492 0
M  V30 6531 H 613.573 -3.49185 -1.50911 0
M  V30 6532 H 614.885 -4.48722 -2.1783 0
M  V30 6533 H 614.039 -4.07232 -4.49719 0
M  V30 6534 H 612.778 -2.97806 -3.86216 0
M  V30 6535 H 611.783 -4.87177 -2.5483 0
M  V30 6536 H 613.008 -5.98251 -3.2136 0
M  V30 6537 H 610.954 -4.43233 -4.83612 0
M  V30 6538 H 610.871 -6.11786 -4.44132 0
M  V30 6539 H 612.139 -5.54192 -5.48171 0
M  V30 6540 N 616.368 0.432326 -1.51554 0
M  V30 6541 C 617.301 1.54525 -1.6792 0
M  V30 6542 C 618.279 1.53831 -0.526764 0
M  V30 6543 O 619.463 1.72884 -0.751233 0
M  V30 6544 C 616.59 2.931 -1.69736 0
M  V30 6545 C 615.636 3.11799 -2.91005 0
M  V30 6546 S 616.469 2.87565 -4.51737 0
M  V30 6547 C 617.625 4.28412 -4.56305 0
M  V30 6548 H 617.858 1.4041 -2.62054 0
M  V30 6549 H 615.391 0.622357 -1.41301 0
M  V30 6550 H 617.349 3.72974 -1.71467 0
M  V30 6551 H 616.01 3.04574 -0.767705 0
M  V30 6552 H 615.203 4.13127 -2.8869 0
M  V30 6553 H 614.805 2.39757 -2.87041 0
M  V30 6554 H 617.097 5.21692 -4.32254 0
M  V30 6555 H 618.04 4.35758 -5.58141 0
M  V30 6556 H 618.448 4.12301 -3.85576 0
M  V30 6557 N 617.846 1.41785 0.688094 0
M  V30 6558 C 618.794 1.44436 1.82321 0
M  V30 6559 C 619.788 0.321544 1.6632 0
M  V30 6560 O 620.994 0.493931 1.73091 0
M  V30 6561 H 617.369 0.452084 0.600936 0
M  V30 6562 H 619.34 2.40087 1.77202 0
M  V30 6563 C 618.089 1.35071 3.20392 0
M  V30 6564 H 617.412 2.2076 3.33324 0
M  V30 6565 H 618.852 1.40988 3.99873 0
M  V30 6566 C 617.311 0.0639127 3.36839 0
M  V30 6567 O 617.841 -0.888495 3.91751 0
M  V30 6568 N 616.047 -0.0146114 2.90596 0
M  V30 6569 H 615.594 0.761191 2.46097 0
M  V30 6570 H 615.552 -0.874988 3.01979 0
M  V30 6571 N 619.324 -0.923095 1.27737 0
M  V30 6572 C 620.601 -1.64989 1.05062 0
M  V30 6573 C 620.981 -2.07018 -0.413124 0
M  V30 6574 O 620.329 -1.80797 -1.39731 0
M  V30 6575 C 620.539 -2.84847 2.01652 0
M  V30 6576 C 621.887 -3.56083 2.31279 0
M  V30 6577 O 622.911 -2.94981 1.99662 0
M  V30 6578 O 621.77 -4.66182 2.85196 0
M  V30 6579 H 618.864 -0.723357 0.400853 0
M  V30 6580 H 621.41 -0.973224 1.3902 0
M  V30 6581 H 620.182 -2.50814 3.00347 0
M  V30 6582 H 619.805 -3.60231 1.68284 0
M  V30 6583 N 620.802 -1.09834 -1.13024 0
M  V30 6584 C 621.765 -0.745058 -2.16752 0
M  V30 6585 C 622.765 0.227435 -1.59183 0
M  V30 6586 O 623.955 0.0050786 -1.74199 0
M  V30 6587 C 621.087 -0.102543 -3.40746 0
M  V30 6588 H 622.28 -1.66375 -2.49518 0
M  V30 6589 H 619.833 -0.898061 -1.27924 0
M  V30 6590 H 620.568 0.827177 -3.13573 0
M  V30 6591 H 620.353 -0.80235 -3.83803 0
M  V30 6592 H 621.843 0.129082 -4.174 0
M  V30 6593 N 622.28 1.30327 -0.886154 0
M  V30 6594 C 623.557 1.90922 -0.425217 0
M  V30 6595 C 623.937 1.80533 1.09413 0
M  V30 6596 O 623.285 1.2233 1.92996 0
M  V30 6597 C 623.495 3.36529 -0.924638 0
M  V30 6598 C 624.843 4.13598 -0.960305 0
M  V30 6599 O 625.867 3.45377 -0.871382 0
M  V30 6600 O 624.726 5.35482 -1.09184 0
M  V30 6601 H 621.82 0.81668 -0.130238 0
M  V30 6602 H 624.366 1.38886 -0.975132 0
M  V30 6603 H 623.138 3.38181 -1.96849 0
M  V30 6604 H 622.761 3.96021 -0.353955 0
M  V30 6605 N 623.758 0.647228 1.43697 0
M  V30 6606 C 624.983 0.164083 2.0675 0
M  V30 6607 C 625.408 -1.15892 1.48158 0
M  V30 6608 O 624.766 -1.71459 0.589194 0
M  V30 6609 C 624.814 0.0800368 3.60511 0
M  V30 6610 O 623.918 -0.959453 4.01084 0
M  V30 6611 H 623.259 0.0921288 0.657578 0
M  V30 6612 H 625.789 0.88846 1.84303 0
M  V30 6613 H 625.799 -0.105263 4.07864 0
M  V30 6614 H 624.474 1.04586 4.02535 0
M  V30 6615 H 623.051 -0.747425 3.65333 0
M  V30 6616 N 625.236 -1.5273 0.388769 0
M  V30 6617 C 626.464 -2.05992 -0.193677 0
M  V30 6618 C 626.879 -1.26053 -1.40557 0
M  V30 6619 O 626.236 -0.307049 -1.79898 0
M  V30 6620 C 626.287 -3.57068 -0.564321 0
M  V30 6621 O 626.008 -4.3398 0.599422 0
M  V30 6622 C 627.509 -4.26674 -1.20269 0
M  V30 6623 H 624.729 -0.670358 -0.0293445 0
M  V30 6624 H 627.273 -1.96857 0.553844 0
M  V30 6625 H 625.428 -3.66277 -1.26174 0
M  V30 6626 H 625.842 -5.2367 0.294895 0
M  V30 6627 H 627.316 -5.33625 -1.4124 0
M  V30 6628 H 627.793 -3.81854 -2.16989 0
M  V30 6629 H 628.399 -4.2178 -0.546047 0
M  V30 6630 N 626.714 -0.118576 -1.57153 0
M  V30 6631 C 627.939 0.550582 -1.99958 0
M  V30 6632 C 628.364 1.59458 -0.997736 0
M  V30 6633 O 627.722 1.81274 0.0306269 0
M  V30 6634 C 627.77 1.15379 -3.41643 0
M  V30 6635 O 626.874 2.26932 -3.44348 0
M  V30 6636 H 626.215 0.137567 -0.649593 0
M  V30 6637 H 628.745 -0.206926 -2.03551 0
M  V30 6638 H 628.755 1.48942 -3.79843 0
M  V30 6639 H 627.43 0.389087 -4.14076 0
M  V30 6640 H 626.007 1.94812 -3.17967 0
M  V30 6641 N 628.193 1.56834 0.155195 0
M  V30 6642 C 629.439 1.83169 0.870467 0
M  V30 6643 C 629.772 0.698929 1.81187 0
M  V30 6644 O 629.047 -0.298035 1.92203 0
M  V30 6645 C 629.33 3.19965 1.65211 0
M  V30 6646 C 629.183 4.43792 0.732744 0
M  V30 6647 C 630.502 3.53885 2.61636 0
M  V30 6648 H 627.621 0.666288 0.315006 0
M  V30 6649 H 630.263 1.89513 0.135988 0
M  V30 6650 H 628.413 3.14687 2.27825 0
M  V30 6651 H 630.085 4.61148 0.118236 0
M  V30 6652 H 628.328 4.3378 0.0417906 0
M  V30 6653 H 628.999 5.36095 1.31552 0
M  V30 6654 H 631.475 3.5972 2.09143 0
M  V30 6655 H 630.351 4.50648 3.13381 0
M  V30 6656 H 630.612 2.79418 3.42605 0
M  V30 6657 N 629.671 -0.424282 1.51781 0
M  V30 6658 C 630.581 -1.54087 1.76902 0
M  V30 6659 C 631.597 -1.61249 0.653826 0
M  V30 6660 O 632.773 -1.78247 0.937552 0
M  V30 6661 C 629.838 -2.8996 1.90063 0
M  V30 6662 C 628.899 -2.92809 3.13945 0
M  V30 6663 C 628.132 -4.22201 3.26469 0
M  V30 6664 O 628.355 -5.15286 2.44616 0
M  V30 6665 O 627.289 -4.31599 4.1953 0
M  V30 6666 H 631.115 -1.358 2.71647 0
M  V30 6667 H 628.7 -0.608618 1.36441 0
M  V30 6668 H 630.582 -3.70575 2.0063 0
M  V30 6669 H 629.257 -3.08347 0.985067 0
M  V30 6670 H 628.164 -2.11102 3.08847 0
M  V30 6671 H 629.497 -2.79369 4.05233 0
M  V30 6672 N 631.149 -1.42148 -0.680565 0
M  V30 6673 C 632.112 -1.4488 -1.77602 0
M  V30 6674 C 633.112 -0.337209 -1.57224 0
M  V30 6675 O 634.302 -0.597778 -1.63622 0
M  V30 6676 C 631.434 -1.27483 -3.16166 0
M  V30 6677 H 632.627 -2.42412 -1.76568 0
M  V30 6678 H 630.18 -1.28511 -0.889645 0
M  V30 6679 H 630.915 -0.30851 -3.22829 0
M  V30 6680 H 630.7 -2.08037 -3.3236 0
M  V30 6681 H 632.19 -1.32265 -3.96101 0
M  V30 6682 N 632.627 0.916307 -1.28225 0
M  V30 6683 C 633.56 2.01954 -1.06254 0
M  V30 6684 C 634.538 1.62587 0.0205983 0
M  V30 6685 O 635.722 1.88073 -0.126824 0
M  V30 6686 C 632.849 3.33086 -0.614141 0
M  V30 6687 C 631.895 3.91435 -1.69354 0
M  V30 6688 S 632.728 4.22603 -3.28887 0
M  V30 6689 C 633.884 5.568 -2.85876 0
M  V30 6690 H 634.117 2.20281 -1.99659 0
M  V30 6691 H 631.65 1.06085 -1.12184 0
M  V30 6692 H 633.608 4.089 -0.36213 0
M  V30 6693 H 632.269 3.12664 0.300036 0
M  V30 6694 H 631.462 4.86098 -1.33136 0
M  V30 6695 H 631.064 3.22248 -1.89821 0
M  V30 6696 H 633.356 6.3658 -2.31888 0
M  V30 6697 H 634.299 5.97927 -3.79326 0
M  V30 6698 H 634.707 5.17865 -2.24669 0
M  V30 6699 N 634.105 1.10431 1.1244 0
M  V30 6700 C 635.335 0.867612 1.87499 0
M  V30 6701 C 635.743 -0.585475 1.79913 0
M  V30 6702 O 635.086 -1.41539 1.171 0
M  V30 6703 C 635.148 1.2374 3.37533 0
M  V30 6704 C 634.812 2.69751 3.68895 0
M  V30 6705 C 635.809 3.67988 3.67261 0
M  V30 6706 C 633.494 3.06135 3.98229 0
M  V30 6707 C 635.488 5.00632 3.9452 0
M  V30 6708 C 633.175 4.38967 4.25149 0
M  V30 6709 C 634.173 5.36025 4.23281 0
M  V30 6710 O 633.861 6.66465 4.49533 0
M  V30 6711 H 633.593 0.311196 0.600111 0
M  V30 6712 H 636.147 1.47257 1.43194 0
M  V30 6713 H 634.377 0.575537 3.82393 0
M  V30 6714 H 636.066 0.978187 3.93937 0
M  V30 6715 H 636.832 3.41224 3.44661 0
M  V30 6716 H 632.711 2.31214 3.98825 0
M  V30 6717 H 636.255 5.7638 3.92978 0
M  V30 6718 H 632.152 4.6547 4.47223 0
M  V30 6719 H 632.92 6.72095 4.67152 0
M  V30 6720 N 635.583 -1.29855 0.893053 0
M  V30 6721 C 636.808 -2.00512 0.530066 0
M  V30 6722 C 637.233 -1.66446 -0.876199 0
M  V30 6723 O 636.591 -0.885446 -1.58207 0
M  V30 6724 C 636.639 -3.53308 0.721505 0
M  V30 6725 O 635.743 -4.11764 -0.228994 0
M  V30 6726 H 635.084 -0.630617 0.207891 0
M  V30 6727 H 637.614 -1.6551 1.20282 0
M  V30 6728 H 637.624 -4.03206 0.623599 0
M  V30 6729 H 636.299 -3.77439 1.74678 0
M  V30 6730 H 634.876 -3.72805 -0.0841034 0
M  V30 6731 N 637.061 -0.65484 -1.43351 0
M  V30 6732 C 638.307 -0.169142 -2.02093 0
M  V30 6733 C 638.64 1.21431 -1.51553 0
M  V30 6734 O 637.915 1.81105 -0.709317 0
M  V30 6735 C 638.198 -0.181775 -3.59641 0
M  V30 6736 C 638.051 -1.59926 -4.20409 0
M  V30 6737 C 639.37 0.480945 -4.37464 0
M  V30 6738 H 636.489 -0.0629371 -0.734308 0
M  V30 6739 H 639.131 -0.835833 -1.70628 0
M  V30 6740 H 637.281 0.385918 -3.86578 0
M  V30 6741 H 638.953 -2.21766 -4.04497 0
M  V30 6742 H 637.196 -2.14605 -3.76998 0
M  V30 6743 H 637.867 -1.55994 -5.295 0
M  V30 6744 H 640.343 -0.00208273 -4.161 0
M  V30 6745 H 639.219 0.441384 -5.47122 0
M  V30 6746 H 639.48 1.55533 -4.13838 0
M  V30 6747 N 638.539 1.52521 -0.396863 0
M  V30 6748 C 639.502 2.2527 0.422604 0
M  V30 6749 C 640.502 1.27184 0.983913 0
M  V30 6750 O 641.692 1.51222 0.864723 0
M  V30 6751 C 638.824 3.01356 1.59365 0
M  V30 6752 H 640.017 2.99133 -0.214416 0
M  V30 6753 H 637.57 1.55587 -0.149128 0
M  V30 6754 H 638.305 2.31813 2.26789 0
M  V30 6755 H 638.09 3.73357 1.19779 0
M  V30 6756 H 639.58 3.56571 2.17363 0
M  V30 6757 N 640.017 0.126909 1.57088 0
M  V30 6758 C 641.242 -0.53997 2.00248 0
M  V30 6759 C 641.667 -1.58927 1.00618 0
M  V30 6760 O 641.025 -1.81288 -0.0210131 0
M  V30 6761 C 641.073 -1.13565 3.4225 0
M  V30 6762 O 640.177 -2.25103 3.45547 0
M  V30 6763 H 639.518 -0.13412 0.650314 0
M  V30 6764 H 642.048 0.217718 2.03438 0
M  V30 6765 H 642.058 -1.46925 3.80627 0
M  V30 6766 H 640.733 -0.367122 4.14277 0
M  V30 6767 H 639.31 -1.93123 3.18995 0
M  V30 6768 N 641.495 -1.56914 -0.146875 0
M  V30 6769 C 642.427 -1.94878 -1.20645 0
M  V30 6770 C 643.44 -0.844633 -1.39175 0
M  V30 6771 O 644.629 -1.12304 -1.38744 0
M  V30 6772 C 641.729 -2.20769 -2.57127 0
M  V30 6773 C 640.902 -3.52053 -2.59572 0
M  V30 6774 C 639.961 -3.66482 -3.77594 0
M  V30 6775 O 638.987 -4.38873 -3.62462 0
M  V30 6776 N 640.189 -3.03156 -4.95052 0
M  V30 6777 H 642.954 -2.86374 -0.883757 0
M  V30 6778 H 640.515 -1.58366 -0.336436 0
M  V30 6779 H 642.507 -2.27664 -3.34591 0
M  V30 6780 H 641.077 -1.35538 -2.81688 0
M  V30 6781 H 640.297 -3.56598 -1.68023 0
M  V30 6782 H 641.585 -4.38396 -2.58238 0
M  V30 6783 H 640.983 -2.44258 -5.10249 0
M  V30 6784 H 639.54 -3.15611 -5.70292 0
M  V30 6785 N 642.974 0.416227 -1.52004 0
M  V30 6786 C 644.214 1.17307 -1.67387 0
M  V30 6787 C 644.578 1.87959 -0.39183 0
M  V30 6788 O 645.779 2.65472 -0.421671 0
M  V30 6789 C 644.05 2.14661 -2.85754 0
M  V30 6790 S 645.609 2.98549 -3.21581 0
M  V30 6791 H 642.427 0.397505 -0.5895 0
M  V30 6792 H 645.029 0.461431 -1.89976 0
M  V30 6793 H 643.733 1.61431 -3.77317 0
M  V30 6794 H 643.264 2.90375 -2.65417 0
M  V30 6795 H 645.279 4.16536 -2.69652 0
M  V30 6796 N 644.452 1.42507 0.673017 0
M  V30 6797 C 645.382 1.48916 1.79851 0
M  V30 6798 C 646.363 0.345566 1.66553 0
M  V30 6799 O 647.548 0.560116 1.85947 0
M  V30 6800 C 644.678 1.39258 3.18158 0
M  V30 6801 C 643.632 2.51662 3.46194 0
M  V30 6802 C 642.958 2.27062 4.84094 0
M  V30 6803 C 644.258 3.93968 3.42909 0
M  V30 6804 H 645.952 2.43114 1.74745 0
M  V30 6805 H 643.498 1.17013 0.839288 0
M  V30 6806 H 645.451 1.42349 3.96629 0
M  V30 6807 H 644.175 0.415542 3.23946 0
M  V30 6808 H 642.834 2.47891 2.70084 0
M  V30 6809 H 642.482 1.27648 4.86534 0
M  V30 6810 H 642.182 3.02398 5.03815 0
M  V30 6811 H 643.706 2.31905 5.64847 0
M  V30 6812 H 645.12 3.99332 4.11347 0
M  V30 6813 H 643.517 4.6917 3.74165 0
M  V30 6814 H 644.587 4.20512 2.41449 0
M  V30 6815 N 645.93 -0.909495 1.28709 0
M  V30 6816 C 646.88 -1.9991 1.09636 0
M  V30 6817 C 647.864 -1.60889 0.01872 0
M  V30 6818 O 649.056 -1.75374 0.239338 0
M  V30 6819 C 646.185 -3.34675 0.764702 0
M  V30 6820 C 645.271 -3.80085 1.8814 0
M  V30 6821 N 645.662 -3.97824 3.12361 0
M  V30 6822 C 643.96 -4.09278 1.77221 0
M  V30 6823 C 644.661 -4.35928 3.85151 0
M  V30 6824 N 643.637 -4.44426 3.13028 0
M  V30 6825 H 647.439 -2.11681 2.03883 0
M  V30 6826 H 644.953 -1.09763 1.1969 0
M  V30 6827 H 646.95 -4.12426 0.609132 0
M  V30 6828 H 645.61 -3.24255 -0.169952 0
M  V30 6829 H 646.621 -3.83626 3.47925 0
M  V30 6830 H 643.298 -4.0747 0.909621 0
M  V30 6831 H 644.688 -4.57581 4.92006 0
M  V30 6832 N 647.408 -1.11026 -1.11852 0
M  V30 6833 C 648.318 -0.777252 -2.2135 0
M  V30 6834 C 649.334 0.227821 -1.72502 0
M  V30 6835 O 650.51 0.0650587 -2.01295 0
M  V30 6836 C 647.575 -0.220668 -3.45997 0
M  V30 6837 C 646.636 -1.2838 -4.09655 0
M  V30 6838 C 645.869 -0.753678 -5.28352 0
M  V30 6839 O 646.092 0.417779 -5.68868 0
M  V30 6840 O 645.026 -1.51647 -5.82483 0
M  V30 6841 H 648.852 -1.69141 -2.5224 0
M  V30 6842 H 646.437 -0.885836 -1.20305 0
M  V30 6843 H 648.319 0.0855756 -4.21313 0
M  V30 6844 H 646.994 0.666262 -3.16769 0
M  V30 6845 H 645.901 -1.64299 -3.3609 0
M  V30 6846 H 647.234 -2.14396 -4.43052 0
M  V30 6847 N 648.886 1.2938 -0.899927 0
M  V30 6848 C 649.833 2.27713 -0.376243 0
M  V30 6849 C 650.803 1.57016 0.541774 0
M  V30 6850 O 651.988 1.84997 0.466966 0
M  V30 6851 C 649.128 3.42889 0.39 0
M  V30 6852 C 648.241 4.28369 -0.558938 0
M  V30 6853 C 647.376 5.30726 0.224379 0
M  V30 6854 C 646.415 6.07862 -0.719068 0
M  V30 6855 N 645.552 7.02094 0.0298569 0
M  V30 6856 H 650.392 2.71888 -1.21988 0
M  V30 6857 H 647.929 1.33724 -0.612879 0
M  V30 6858 H 649.887 4.08443 0.850314 0
M  V30 6859 H 648.517 2.99743 1.19809 0
M  V30 6860 H 647.569 3.62986 -1.13777 0
M  V30 6861 H 648.881 4.82068 -1.2811 0
M  V30 6862 H 648.035 6.02098 0.745881 0
M  V30 6863 H 646.774 4.77759 0.979674 0
M  V30 6864 H 645.779 5.35353 -1.25207 0
M  V30 6865 H 647.004 6.62917 -1.4737 0
M  V30 6866 H 644.95 6.51496 0.767415 0
M  V30 6867 H 644.867 7.5335 -0.632391 0
M  V30 6868 H 646.135 7.77685 0.531615 0
M  V30 6869 N 650.364 0.662433 1.43002 0
M  V30 6870 C 651.311 -0.0235324 2.30788 0
M  V30 6871 C 652.281 -0.805342 1.4527 0
M  V30 6872 O 653.466 -0.78009 1.74124 0
M  V30 6873 C 650.606 -0.977545 3.30965 0
M  V30 6874 C 649.719 -0.190865 4.31578 0
M  V30 6875 C 648.854 -1.13951 5.18834 0
M  V30 6876 C 647.893 -0.343796 6.11134 0
M  V30 6877 N 647.03 -1.2445 6.90982 0
M  V30 6878 H 651.87 0.730921 2.88897 0
M  V30 6879 H 649.407 0.372197 1.42313 0
M  V30 6880 H 651.365 -1.54437 3.87563 0
M  V30 6881 H 649.995 -1.69877 2.74484 0
M  V30 6882 H 649.047 0.492388 3.772 0
M  V30 6883 H 650.359 0.427464 4.96965 0
M  V30 6884 H 649.513 -1.77666 5.80103 0
M  V30 6885 H 648.252 -1.79174 4.53595 0
M  V30 6886 H 647.257 0.30665 5.48944 0
M  V30 6887 H 648.482 0.304161 6.78419 0
M  V30 6888 H 646.428 -1.88336 6.28383 0
M  V30 6889 H 646.345 -0.680959 7.52927 0
M  V30 6890 H 647.613 -1.86952 7.56749 0
M  V30 6891 N 651.842 -1.52309 0.404946 0
M  V30 6892 C 652.79 -2.28452 -0.437321 0
M  V30 6893 C 653.784 -1.32975 -1.04948 0
M  V30 6894 O 654.99 -1.50451 -0.988159 0
M  V30 6895 H 651.365 -0.734824 -0.159805 0
M  V30 6896 H 653.336 -2.97542 0.22615 0
M  V30 6897 C 652.085 -3.11536 -1.54404 0
M  V30 6898 H 651.408 -3.84871 -1.08233 0
M  V30 6899 H 652.848 -3.67926 -2.10729 0
M  V30 6900 C 651.307 -2.24833 -2.50902 0
M  V30 6901 O 651.837 -1.88574 -3.54687 0
M  V30 6902 N 650.043 -1.88685 -2.21012 0
M  V30 6903 H 649.59 -2.18371 -1.36646 0
M  V30 6904 H 649.548 -1.30966 -2.85824 0
M  V30 6905 N 653.32 -0.135238 -1.57019 0
M  V30 6906 C 654.267 0.808908 -2.1616 0
M  V30 6907 C 655.237 1.25234 -1.09113 0
M  V30 6908 O 656.422 1.32697 -1.37099 0
M  V30 6909 C 653.562 2.04729 -2.77813 0
M  V30 6910 C 652.675 1.65074 -3.99218 0
M  V30 6911 C 651.81 2.84002 -4.48906 0
M  V30 6912 C 650.849 2.40663 -5.62803 0
M  V30 6913 N 649.986 3.5256 -6.07162 0
M  V30 6914 H 654.826 0.297751 -2.96509 0
M  V30 6915 H 652.363 0.135264 -1.46477 0
M  V30 6916 H 654.321 2.7731 -3.11697 0
M  V30 6917 H 652.951 2.53275 -2.00128 0
M  V30 6918 H 652.003 0.823029 -3.7139 0
M  V30 6919 H 653.315 1.29236 -4.81767 0
M  V30 6920 H 652.469 3.64788 -4.84783 0
M  V30 6921 H 651.208 3.23076 -3.65339 0
M  V30 6922 H 650.213 1.58314 -5.26514 0
M  V30 6923 H 651.438 2.02687 -6.48147 0
M  V30 6924 H 649.384 3.91278 -5.26534 0
M  V30 6925 H 649.301 3.20699 -6.84608 0
M  V30 6926 H 650.569 4.33738 -6.47682 0
M  V30 6927 N 654.798 1.5699 0.138552 0
M  V30 6928 C 656.214 1.51844 0.491472 0
M  V30 6929 C 656.414 0.845063 1.82923 0
M  V30 6930 O 655.47 0.419143 2.48997 0
M  V30 6931 C 656.783 2.96615 0.493987 0
M  V30 6932 C 658.331 3.076 0.578913 0
M  V30 6933 C 658.806 4.53893 0.612009 0
M  V30 6934 N 660.297 4.5827 0.673997 0
M  V30 6935 C 661.032 5.68852 0.720729 0
M  V30 6936 N 660.528 6.88982 0.726292 0
M  V30 6937 N 662.321 5.56908 0.762253 0
M  V30 6938 H 654.472 1.99158 -0.738228 0
M  V30 6939 H 656.735 0.908693 -0.270149 0
M  V30 6940 H 656.441 3.49172 -0.420933 0
M  V30 6941 H 656.315 3.53017 1.32887 0
M  V30 6942 H 658.702 2.55057 1.48425 0
M  V30 6943 H 658.783 2.54227 -0.283286 0
M  V30 6944 H 658.427 5.07076 -0.289208 0
M  V30 6945 H 658.357 5.05057 1.49082 0
M  V30 6946 H 660.848 3.71793 0.676654 0
M  V30 6947 H 661.161 7.69014 0.764032 0
M  V30 6948 H 659.506 6.91526 0.69403 0
M  V30 6949 H 662.697 4.61969 0.755135 0
M  V30 6950 H 662.87 6.43102 0.795207 0
M  V30 6951 N 656.276 -0.40816 1.52223 0
M  V30 6952 C 657.687 -0.986929 1.58482 0
M  V30 6953 C 658.038 -1.91521 0.425917 0
M  V30 6954 O 657.163 -2.11593 -0.453593 0
M  V30 6955 C 657.758 -1.7967 2.87235 0
M  V30 6956 C 656.317 -2.32549 2.9597 0
M  V30 6957 C 655.464 -1.12558 2.53428 0
M  V30 6958 H 658.415 -0.188362 1.57578 0
M  V30 6959 H 658.436 -2.65417 2.72642 0
M  V30 6960 H 657.948 -1.12082 3.71563 0
M  V30 6961 H 656.049 -3.03505 2.16137 0
M  V30 6962 H 656.162 -2.63348 4.00231 0
M  V30 6963 H 654.526 -1.47984 2.07299 0
M  V30 6964 H 655.309 -0.465351 3.40131 0
M  V30 6965 N 657.755 -1.42862 -0.66545 0
M  V30 6966 C 659.032 -1.3431 -1.42197 0
M  V30 6967 C 659.412 0.0150265 -2.11095 0
M  V30 6968 O 658.76 1.03101 -2.03918 0
M  V30 6969 C 658.97 -2.51783 -2.41674 0
M  V30 6970 C 660.318 -2.94321 -3.0604 0
M  V30 6971 O 661.342 -2.51741 -2.52001 0
M  V30 6972 O 660.201 -3.68047 -4.03985 0
M  V30 6973 H 657.295 -0.530159 -0.634713 0
M  V30 6974 H 659.841 -1.54888 -0.693386 0
M  V30 6975 H 658.613 -3.42282 -1.89627 0
M  V30 6976 H 658.236 -2.33241 -3.22001 0
M  V30 6977 N 659.233 0.902656 -1.29189 0
M  V30 6978 C 660.482 1.6475 -1.16362 0
M  V30 6979 C 660.795 1.93517 0.284682 0
M  V30 6980 O 662.001 2.66192 0.534229 0
M  V30 6981 C 660.457 2.96848 -2.03493 0
M  V30 6982 C 660.065 2.75687 -3.5313 0
M  V30 6983 C 661.809 3.74762 -1.99383 0
M  V30 6984 C 659.716 4.03492 -4.32375 0
M  V30 6985 H 658.646 0.618041 -0.431904 0
M  V30 6986 H 661.297 1.0008 -1.53806 0
M  V30 6987 H 659.679 3.62715 -1.58916 0
M  V30 6988 H 660.853 2.18431 -4.05739 0
M  V30 6989 H 659.168 2.11171 -3.58881 0
M  V30 6990 H 661.765 4.69515 -2.5585 0
M  V30 6991 H 662.108 4.04767 -0.973123 0
M  V30 6992 H 662.641 3.15732 -2.41988 0
M  V30 6993 H 659.38 3.78656 -5.3507 0
M  V30 6994 H 658.9 4.60318 -3.84535 0
M  V30 6995 H 660.579 4.71662 -4.42881 0
M  V30 6996 N 660.711 1.11618 1.11262 0
M  V30 6997 C 661.658 0.7762 2.17356 0
M  V30 6998 C 662.628 -0.253152 1.6416 0
M  V30 6999 O 663.813 -0.129655 1.90359 0
M  V30 7000 C 660.953 0.227581 3.44349 0
M  V30 7001 C 660.066 1.31372 4.1154 0
M  V30 7002 C 659.201 0.72544 5.26223 0
M  V30 7003 C 658.24 1.7913 5.85302 0
M  V30 7004 N 657.377 1.22237 6.91377 0
M  V30 7005 H 662.217 1.68508 2.45783 0
M  V30 7006 H 659.754 0.841475 1.20655 0
M  V30 7007 H 661.712 -0.108483 4.17059 0
M  V30 7008 H 660.342 -0.644486 3.16301 0
M  V30 7009 H 659.394 1.7667 3.36885 0
M  V30 7010 H 660.706 2.12005 4.51504 0
M  V30 7011 H 659.86 0.339541 6.05749 0
M  V30 7012 H 658.599 -0.112188 4.87571 0
M  V30 7013 H 657.604 2.18648 5.04453 0
M  V30 7014 H 658.829 2.63199 6.26022 0
M  V30 7015 H 656.775 0.406423 6.5474 0
M  V30 7016 H 656.692 1.9654 7.30006 0
M  V30 7017 H 657.96 0.863426 7.74703 0
M  V30 7018 N 662.189 -1.289 0.906776 0
M  V30 7019 C 663.136 -2.2751 0.388313 0
M  V30 7020 C 664.106 -1.57301 -0.533439 0
M  V30 7021 O 665.291 -1.85243 -0.457148 0
M  V30 7022 C 662.431 -3.43091 -0.37181 0
M  V30 7023 C 661.544 -4.28066 0.581647 0
M  V30 7024 C 660.679 -5.30837 -0.19623 0
M  V30 7025 C 659.718 -6.07472 0.751294 0
M  V30 7026 N 658.855 -7.021 0.00737727 0
M  V30 7027 H 663.695 -2.71237 1.23428 0
M  V30 7028 H 661.232 -1.33397 0.619962 0
M  V30 7029 H 663.19 -4.08888 -0.828641 0
M  V30 7030 H 661.82 -3.00374 -1.18218 0
M  V30 7031 H 660.872 -3.62378 1.157 0
M  V30 7032 H 662.184 -4.81382 1.30665 0
M  V30 7033 H 661.338 -6.02485 -0.71394 0
M  V30 7034 H 660.077 -4.78272 -0.954324 0
M  V30 7035 H 659.082 -5.34682 1.28044 0
M  V30 7036 H 660.307 -6.62126 1.50883 0
M  V30 7037 H 658.253 -6.51894 -0.732854 0
M  V30 7038 H 658.17 -7.53004 0.672334 0
M  V30 7039 H 659.438 -7.77956 -0.490365 0
M  V30 7040 N 663.667 -0.670007 -1.42649 0
M  V30 7041 C 664.913 -0.190568 -2.01903 0
M  V30 7042 C 665.246 1.19817 -1.52832 0
M  V30 7043 O 664.521 1.80342 -0.728485 0
M  V30 7044 C 664.804 -0.21991 -3.59428 0
M  V30 7045 C 664.657 -1.64376 -4.18689 0
M  V30 7046 C 665.976 0.434519 -4.3795 0
M  V30 7047 H 663.095 -0.0707219 -0.733599 0
M  V30 7048 H 665.737 -0.853883 -1.69732 0
M  V30 7049 H 663.887 0.344894 -3.86966 0
M  V30 7050 H 665.559 -2.26044 -4.02122 0
M  V30 7051 H 663.802 -2.18591 -3.747 0
M  V30 7052 H 664.473 -1.61601 -5.27815 0
M  V30 7053 H 666.949 -0.0462156 -4.16074 0
M  V30 7054 H 665.825 0.38333 -5.4756 0
M  V30 7055 H 666.086 1.51135 -4.15464 0
M  V30 7056 N 665.145 1.52092 -0.413018 0
M  V30 7057 C 666.077 2.24819 0.445994 0
M  V30 7058 C 667.09 1.27925 1.00692 0
M  V30 7059 O 668.279 1.53845 0.905204 0
M  V30 7060 C 665.379 2.96951 1.6332 0
M  V30 7061 C 664.552 4.20746 1.19548 0
M  V30 7062 C 663.611 4.75668 2.25003 0
M  V30 7063 O 662.637 5.38148 1.85434 0
M  V30 7064 N 663.839 4.57579 3.57214 0
M  V30 7065 H 666.604 2.99176 -0.177209 0
M  V30 7066 H 664.165 1.60102 -0.240601 0
M  V30 7067 H 666.157 3.30586 2.33441 0
M  V30 7068 H 664.727 2.25756 2.16225 0
M  V30 7069 H 663.947 3.92881 0.32224 0
M  V30 7070 H 665.235 5.01132 0.880033 0
M  V30 7071 H 664.633 4.07758 3.92109 0
M  V30 7072 H 663.19 4.95642 4.23299 0
M  V30 7073 N 666.623 0.143563 1.56945 0
M  V30 7074 C 667.555 -0.828353 2.13708 0
M  V30 7075 C 668.568 -1.21313 1.08568 0
M  V30 7076 O 669.757 -1.1578 1.35857 0
M  V30 7077 C 666.857 -2.12248 2.64204 0
M  V30 7078 C 666.03 -1.90561 3.93707 0
M  V30 7079 C 665.089 -3.03931 4.29549 0
M  V30 7080 O 664.115 -2.75772 4.97934 0
M  V30 7081 N 665.317 -4.31016 3.88852 0
M  V30 7082 H 668.082 -0.343242 2.97728 0
M  V30 7083 H 665.643 -0.0401152 1.6185 0
M  V30 7084 H 667.635 -2.87132 2.85197 0
M  V30 7085 H 666.205 -2.52033 1.84928 0
M  V30 7086 H 665.425 -0.997327 3.81375 0
M  V30 7087 H 666.713 -1.73405 4.78339 0
M  V30 7088 H 666.111 -4.56762 3.33743 0
M  V30 7089 H 664.668 -5.02691 4.14903 0
M  V30 7090 N 668.101 -1.57061 -0.130224 0
M  V30 7091 C 669.031 -2.02552 -1.16168 0
M  V30 7092 C 670.012 -0.907971 -1.4384 0
M  V30 7093 O 671.197 -1.17693 -1.54473 0
M  V30 7094 C 668.327 -2.42035 -2.49071 0
M  V30 7095 C 667.281 -3.5713 -2.35886 0
M  V30 7096 C 666.607 -3.82478 -3.7365 0
M  V30 7097 C 667.907 -4.89236 -1.8288 0
M  V30 7098 H 669.601 -2.8897 -0.783359 0
M  V30 7099 H 667.147 -1.39021 -0.375376 0
M  V30 7100 H 669.1 -2.72462 -3.21469 0
M  V30 7101 H 667.824 -1.52573 -2.88771 0
M  V30 7102 H 666.483 -3.26895 -1.65938 0
M  V30 7103 H 666.131 -2.9024 -4.10816 0
M  V30 7104 H 665.831 -4.59944 -3.65685 0
M  V30 7105 H 667.355 -4.15347 -4.47571 0
M  V30 7106 H 668.769 -5.18272 -2.45085 0
M  V30 7107 H 667.166 -5.70624 -1.85763 0
M  V30 7108 H 668.236 -4.78494 -0.785571 0
M  V30 7109 N 669.579 0.400081 -1.52437 0
M  V30 7110 C 670.509 1.4947 -1.7939 0
M  V30 7111 C 671.49 1.57383 -0.645329 0
M  V30 7112 O 672.675 1.72511 -0.891826 0
M  V30 7113 C 669.805 2.87201 -1.95276 0
M  V30 7114 C 668.759 2.94134 -3.10917 0
M  V30 7115 C 668.085 4.34207 -3.1204 0
M  V30 7116 C 669.385 2.64791 -4.50203 0
M  V30 7117 H 671.079 1.27165 -2.71052 0
M  V30 7118 H 668.625 0.610312 -1.30427 0
M  V30 7119 H 670.578 3.63772 -2.12715 0
M  V30 7120 H 669.302 3.10819 -1.00294 0
M  V30 7121 H 667.961 2.20009 -2.93243 0
M  V30 7122 H 667.609 4.54848 -2.14761 0
M  V30 7123 H 667.309 4.39768 -3.89715 0
M  V30 7124 H 668.833 5.127 -3.31619 0
M  V30 7125 H 670.247 3.31083 -4.68035 0
M  V30 7126 H 668.644 2.81717 -5.29864 0
M  V30 7127 H 669.714 1.60184 -4.57678 0
M  V30 7128 N 671.057 1.43213 0.657864 0
M  V30 7129 C 671.989 1.43974 1.78337 0
M  V30 7130 C 673.002 0.336482 1.59285 0
M  V30 7131 O 674.191 0.600631 1.68091 0
M  V30 7132 C 671.291 1.23242 3.15697 0
M  V30 7133 C 670.464 2.46319 3.61449 0
M  V30 7134 C 669.523 2.2088 4.77597 0
M  V30 7135 O 668.549 2.942 4.87273 0
M  V30 7136 N 669.751 1.22251 5.67481 0
M  V30 7137 H 672.516 2.40993 1.78164 0
M  V30 7138 H 670.077 1.3831 0.841549 0
M  V30 7139 H 672.069 1.04113 3.91079 0
M  V30 7140 H 670.639 0.346849 3.1067 0
M  V30 7141 H 669.859 2.80904 2.76563 0
M  V30 7142 H 671.147 3.28239 3.88763 0
M  V30 7143 H 670.545 0.616433 5.62331 0
M  V30 7144 H 669.102 1.09107 6.42603 0
M  V30 7145 N 672.536 -0.895792 1.29666 0
M  V30 7146 C 673.446 -2.03329 1.17024 0
M  V30 7147 C 674.462 -1.73753 0.0925962 0
M  V30 7148 O 675.638 -1.99071 0.305431 0
M  V30 7149 C 672.703 -3.36072 0.851841 0
M  V30 7150 C 671.764 -3.7914 2.01373 0
M  V30 7151 C 670.997 -5.05549 1.71043 0
M  V30 7152 O 671.22 -5.66874 0.633213 0
M  V30 7153 O 670.154 -5.44764 2.5596 0
M  V30 7154 H 673.98 -2.16918 2.12556 0
M  V30 7155 H 671.565 -1.02007 1.09156 0
M  V30 7156 H 673.447 -4.15729 0.689006 0
M  V30 7157 H 672.122 -3.23616 -0.0736634 0
M  V30 7158 H 671.029 -3.00233 2.23183 0
M  V30 7159 H 672.362 -3.96186 2.92058 0
M  V30 7160 N 674.014 -1.12206 -1.10668 0
M  V30 7161 C 674.947 -0.731468 -2.16159 0
M  V30 7162 C 675.925 0.276216 -1.60237 0
M  V30 7163 O 677.109 0.17074 -1.87725 0
M  V30 7164 C 674.236 -0.0822882 -3.386 0
M  V30 7165 C 673.282 -1.05641 -4.1321 0
M  V30 7166 S 674.115 -2.58281 -4.69096 0
M  V30 7167 C 675.271 -1.94686 -5.94851 0
M  V30 7168 H 675.504 -1.62504 -2.48957 0
M  V30 7169 H 673.037 -0.940906 -1.22419 0
M  V30 7170 H 674.995 0.285896 -4.09503 0
M  V30 7171 H 673.656 0.788358 -3.04046 0
M  V30 7172 H 672.849 -0.549764 -5.00993 0
M  V30 7173 H 672.451 -1.36741 -3.48106 0
M  V30 7174 H 674.743 -1.28815 -6.65141 0
M  V30 7175 H 675.686 -2.80499 -6.50174 0
M  V30 7176 H 676.094 -1.40369 -5.46769 0
M  V30 7177 N 675.492 1.28418 -0.913599 0
M  V30 7178 C 676.72 1.99106 -0.562536 0
M  V30 7179 C 677.135 1.68273 0.856137 0
M  V30 7180 O 676.492 0.935401 1.56705 0
M  V30 7181 C 676.543 3.5338 -0.761903 0
M  V30 7182 O 676.264 3.83127 -2.12475 0
M  V30 7183 C 677.765 4.41328 -0.417651 0
M  V30 7184 H 674.985 0.635798 -0.214481 0
M  V30 7185 H 677.529 1.63618 -1.22676 0
M  V30 7186 H 675.684 3.8713 -0.144676 0
M  V30 7187 H 676.098 4.77763 -2.16431 0
M  V30 7188 H 677.572 5.48642 -0.607919 0
M  V30 7189 H 678.049 4.34422 0.646108 0
M  V30 7190 H 678.655 4.13074 -1.01241 0
M  V30 7191 N 676.97 0.677563 1.42291 0
M  V30 7192 C 677.933 0.0101085 2.29198 0
M  V30 7193 C 678.933 -0.726219 1.43467 0
M  V30 7194 O 680.123 -0.563807 1.64824 0
M  V30 7195 C 677.255 -0.996316 3.26016 0
M  V30 7196 H 678.448 0.775071 2.89711 0
M  V30 7197 H 676.001 0.440065 1.49977 0
M  V30 7198 H 676.736 -1.78967 2.70446 0
M  V30 7199 H 676.521 -0.471687 3.89253 0
M  V30 7200 H 678.011 -1.46167 3.91184 0
M  V30 7201 N 678.448 -1.51871 0.421078 0
M  V30 7202 C 679.673 -2.0684 -0.152371 0
M  V30 7203 C 680.098 -1.28802 -1.37083 0
M  V30 7204 O 679.456 -0.321482 -1.78427 0
M  V30 7205 C 679.504 -3.57532 -0.469368 0
M  V30 7206 O 678.608 -3.81818 -1.55848 0
M  V30 7207 H 677.949 -0.663939 -0.00898586 0
M  V30 7208 H 680.479 -1.95674 0.597724 0
M  V30 7209 H 680.489 -4.01515 -0.724553 0
M  V30 7210 H 679.164 -4.13761 0.421276 0
M  V30 7211 H 677.741 -3.49709 -1.29453 0
M  V30 7212 O 679.965 -0.292728 -1.58825 0
M  V30 7213 H 680.656 0.273626 -1.91758 0
M  V30 END ATOM
M  V30 BEGIN BOND
M  V30 END BOND
M  V30 END CTAB
M  END
$$$$
