drugbank_target|Q9NWT6 Hypoxia-inducible factor 1-alpha inhibitor (DB01694; DB08263)
 OpenBabel12092120223D

  0  0  0     0  0            999 V3000
M  V30 BEGIN CTAB
M  V30 COUNTS 5581 5663 0 0 0
M  V30 BEGIN ATOM
M  V30 1 H -0.908 1.98254 -0.117106 0
M  V30 2 N 0 1.576 0 0
M  V30 3 C 0.933 2.03868 1.02534 0
M  V30 4 C 1.911 0.928543 1.3348 0
M  V30 5 O 3.095 1.19667 1.45644 0
M  V30 6 C 0.222 2.43627 2.35294 0
M  V30 7 C -0.732 3.65373 2.2001 0
M  V30 8 S 0.101 5.13292 1.52614 0
M  V30 9 C 1.257 5.56322 2.86805 0
M  V30 10 H 1.49 2.90518 0.631377 0
M  V30 11 H -0.977 1.52953 0.210867 0
M  V30 12 H 0.981 2.67203 3.11629 0
M  V30 13 H -0.358 1.57376 2.7183 0
M  V30 14 H -1.165 3.90944 3.18086 0
M  V30 15 H -1.563 3.418 1.51819 0
M  V30 16 H 0.729 5.58782 3.83104 0
M  V30 17 H 1.672 6.56266 2.65933 0
M  V30 18 H 2.08 4.83886 2.90714 0
M  V30 19 N 1.4781 -0.272755 1.55222 0
M  V30 20 C 2.4411 -1.32041 1.87344 0
M  V30 21 C 3.4411 -1.42342 0.74803 0
M  V30 22 O 4.6311 -1.41488 1.0162 0
M  V30 23 C 1.7631 -2.70173 2.07893 0
M  V30 24 H 2.9561 -1.04789 2.80997 0
M  V30 25 H 0.5091 -0.51083 1.47717 0
M  V30 26 H 1.2441 -3.02605 1.16622 0
M  V30 27 H 1.0291 -2.64082 2.89833 0
M  V30 28 H 2.5191 -3.45869 2.34017 0
M  V30 29 N 2.9562 -1.48159 -0.537278 0
M  V30 30 C 3.9192 -1.61665 -1.62472 0
M  V30 31 C 4.9192 -0.490395 -1.5314 0
M  V30 32 O 6.1092 -0.755998 -1.5694 0
M  V30 33 C 3.2412 -1.57997 -3.02076 0
M  V30 34 H 4.4342 -2.58621 -1.51839 0
M  V30 35 H 1.9872 -1.36647 -0.758771 0
M  V30 36 H 2.7222 -0.624913 -3.18222 0
M  V30 37 H 2.5072 -2.39755 -3.10258 0
M  V30 38 H 3.9972 -1.70627 -3.81151 0
M  V30 39 N 4.4343 0.785586 -1.36625 0
M  V30 40 C 5.6623 1.57448 -1.3423 0
M  V30 41 C 6.0773 1.88649 0.0755653 0
M  V30 42 O 5.4343 1.50414 1.03354 0
M  V30 43 C 5.4853 2.89316 -2.16745 0
M  V30 44 O 5.2063 2.59459 -3.53005 0
M  V30 45 C 6.7073 3.83606 -2.22174 0
M  V30 46 H 3.9273 0.488226 -0.4603 0
M  V30 47 H 6.4713 0.974733 -1.79775 0
M  V30 48 H 4.6263 3.4575 -1.74745 0
M  V30 49 H 5.0403 3.43804 -3.96105 0
M  V30 50 H 6.5143 4.73181 -2.8426 0
M  V30 51 H 6.9913 4.21734 -1.22627 0
M  V30 52 H 7.5973 3.33104 -2.64427 0
M  V30 53 N 5.9124 1.20967 1.01018 0
M  V30 54 C 6.8754 0.965918 2.07853 0
M  V30 55 C 7.8754 -0.0610545 1.60684 0
M  V30 56 O 9.0654 0.175681 1.73312 0
M  V30 57 C 6.1974 0.455513 3.37843 0
M  V30 58 H 7.3904 1.91365 2.3091 0
M  V30 59 H 4.9434 1.02594 1.17916 0
M  V30 60 H 5.6784 -0.497381 3.20463 0
M  V30 61 H 5.4634 1.19622 3.73407 0
M  V30 62 H 6.9534 0.304667 4.16487 0
M  V30 63 N 7.3905 -1.2043 1.01659 0
M  V30 64 C 8.3535 -2.21433 0.591616 0
M  V30 65 C 9.3535 -1.57203 -0.338226 0
M  V30 66 O 10.5435 -1.73737 -0.126918 0
M  V30 67 C 7.6755 -3.40628 -0.136058 0
M  V30 68 H 8.8685 -2.60545 1.48514 0
M  V30 69 H 6.4215 -1.33893 0.806379 0
M  V30 70 H 7.1565 -3.07019 -1.04449 0
M  V30 71 H 6.9415 -3.88475 0.531917 0
M  V30 72 H 8.4315 -4.15475 -0.420735 0
M  V30 73 N 8.8686 -0.792821 -1.36206 0
M  V30 74 C 9.7786 -0.194808 -2.3379 0
M  V30 75 C 10.7946 0.654869 -1.61206 0
M  V30 76 O 11.9706 0.569856 -1.9317 0
M  V30 77 C 9.0356 0.657721 -3.40404 0
M  V30 78 C 8.0966 -0.210849 -4.28782 0
M  V30 79 C 7.3296 0.601086 -5.30304 0
M  V30 80 O 7.5526 1.83682 -5.40016 0
M  V30 81 O 6.4866 -0.000808277 -6.019 0
M  V30 82 H 10.3126 -1.00172 -2.86704 0
M  V30 83 H 7.8976 -0.554341 -1.38735 0
M  V30 84 H 9.7796 1.14375 -4.05581 0
M  V30 85 H 8.4546 1.44247 -2.89784 0
M  V30 86 H 7.3616 -0.743714 -3.66633 0
M  V30 87 H 8.6946 -0.959195 -4.82763 0
M  V30 88 N 10.3467 1.47872 -0.545128 0
M  V30 89 C 11.3097 2.28337 0.198717 0
M  V30 90 C 12.3097 1.36255 0.853888 0
M  V30 91 O 13.4997 1.59003 0.711606 0
M  V30 92 C 10.6317 3.15585 1.28915 0
M  V30 93 H 11.8247 2.95567 -0.507941 0
M  V30 94 H 9.3777 1.53362 -0.301616 0
M  V30 95 H 10.1127 2.53019 2.02859 0
M  V30 96 H 9.8977 3.83337 0.824309 0
M  V30 97 H 11.3877 3.76243 1.81194 0
M  V30 98 N 11.8248 0.280983 1.55075 0
M  V30 99 C 13.0708 -0.33461 2.00021 0
M  V30 100 C 13.4038 -1.55063 1.16915 0
M  V30 101 O 12.6788 -1.93006 0.240646 0
M  V30 102 C 12.9618 -0.711007 3.53011 0
M  V30 103 C 12.8148 0.512766 4.46868 0
M  V30 104 C 14.1338 -1.54522 4.12081 0
M  V30 105 H 11.2528 -0.120147 0.727141 0
M  V30 106 H 13.8948 0.389097 1.85973 0
M  V30 107 H 12.0448 -1.32761 3.65112 0
M  V30 108 H 13.7168 1.15131 4.46702 0
M  V30 109 H 11.9598 1.14975 4.18286 0
M  V30 110 H 12.6308 0.205556 5.51617 0
M  V30 111 H 15.1068 -1.02442 4.03293 0
M  V30 112 H 13.9828 -1.77739 5.19327 0
M  V30 113 H 14.2438 -2.52813 3.62682 0
M  V30 114 N 13.3029 -1.57598 0.00835791 0
M  V30 115 C 14.2659 -2.07884 -0.965242 0
M  V30 116 C 15.2659 -0.989825 -1.26725 0
M  V30 117 O 16.4559 -1.25218 -1.21104 0
M  V30 118 C 13.5879 -2.52731 -2.28779 0
M  V30 119 H 14.7809 -2.95178 -0.530112 0
M  V30 120 H 12.3339 -1.54458 -0.239283 0
M  V30 121 H 13.0689 -1.68705 -2.76964 0
M  V30 122 H 12.8539 -3.32272 -2.08177 0
M  V30 123 H 14.3439 -2.91933 -2.98605 0
M  V30 124 N 14.781 0.264519 -1.55364 0
M  V30 125 C 16.006 1.01726 -1.80739 0
M  V30 126 C 16.431 1.78836 -0.583044 0
M  V30 127 O 15.789 1.75167 0.467566 0
M  V30 128 C 15.837 1.94482 -3.03659 0
M  V30 129 O 14.941 3.03386 -2.7934 0
M  V30 130 H 14.282 0.290395 -0.597132 0
M  V30 131 H 16.812 0.290854 -2.02522 0
M  V30 132 H 16.822 2.36278 -3.32621 0
M  V30 133 H 15.497 1.37772 -3.92418 0
M  V30 134 H 14.074 2.65844 -2.61498 0
M  V30 135 N 16.2591 1.48442 0.529413 0
M  V30 136 C 17.5071 1.56179 1.28267 0
M  V30 137 C 17.8281 0.237721 1.93546 0
M  V30 138 O 17.0981 -0.740779 1.81354 0
M  V30 139 H 15.6781 0.575367 0.476405 0
M  V30 140 H 18.3401 1.84909 0.61602 0
M  V30 141 H 17.4361 2.34312 2.06165 0
M  V30 142 N 17.7372 -0.778329 1.37039 0
M  V30 143 C 18.9622 -1.57248 1.35233 0
M  V30 144 C 19.3872 -1.87999 -0.0615568 0
M  V30 145 O 18.7452 -1.48734 -1.03672 0
M  V30 146 C 18.7932 -2.86353 2.19167 0
M  V30 147 O 17.8972 -3.80442 1.59178 0
M  V30 148 H 17.2382 -0.476569 0.462362 0
M  V30 149 H 19.7682 -0.963853 1.80474 0
M  V30 150 H 19.7782 -3.35519 2.32145 0
M  V30 151 H 18.4532 -2.63299 3.21942 0
M  V30 152 H 17.0302 -3.39067 1.55203 0
M  V30 153 N 19.2153 -1.21501 -1.00376 0
M  V30 154 C 20.4633 -1.03095 -1.73827 0
M  V30 155 C 20.7843 0.436341 -1.90055 0
M  V30 156 O 20.0543 1.31466 -1.45236 0
M  V30 157 H 18.6343 -0.378487 -0.644016 0
M  V30 158 H 21.2963 -1.52831 -1.20949 0
M  V30 159 H 20.3923 -1.49991 -2.73695 0
M  V30 160 N 20.6934 1.19889 -1.02296 0
M  V30 161 C 21.6034 2.26571 -0.608508 0
M  V30 162 C 22.6194 1.70299 0.356964 0
M  V30 163 O 23.7954 2.00235 0.216326 0
M  V30 164 C 20.8604 3.46677 0.0402814 0
M  V30 165 C 19.9214 4.18153 -0.97194 0
M  V30 166 C 19.1544 5.32525 -0.354016 0
M  V30 167 O 19.3774 5.64112 0.844604 0
M  V30 168 O 18.3114 5.92242 -1.07391 0
M  V30 169 H 22.1374 2.64251 -1.49684 0
M  V30 170 H 19.7224 1.26629 -0.792809 0
M  V30 171 H 21.6044 4.19475 0.402324 0
M  V30 172 H 20.2794 3.10858 0.902707 0
M  V30 173 H 19.1864 3.47499 -1.38546 0
M  V30 174 H 20.5194 4.57927 -1.80454 0
M  V30 175 N 22.1715 0.800033 1.35784 0
M  V30 176 C 23.5825 0.439142 1.81462 0
M  V30 177 C 23.9335 -1.03813 1.66485 0
M  V30 178 O 23.0585 -1.80626 1.19177 0
M  V30 179 C 23.6535 0.790314 3.29453 0
M  V30 180 C 22.2125 0.482111 3.733 0
M  V30 181 C 21.3595 1.01938 2.57883 0
M  V30 182 H 24.3105 0.992254 1.23855 0
M  V30 183 H 24.3315 0.0853677 3.80404 0
M  V30 184 H 23.8435 1.86554 3.40322 0
M  V30 185 H 21.9445 -0.584652 3.67984 0
M  V30 186 H 22.0575 1.01015 4.6833 0
M  V30 187 H 20.4215 0.442043 2.50835 0
M  V30 188 H 21.2045 2.10059 2.71533 0
M  V30 189 N 23.6496 -1.47581 0.552962 0
M  V30 190 C 25.0656 -1.5818 0.212424 0
M  V30 191 C 25.2656 -1.55213 -1.28496 0
M  V30 192 O 24.3216 -1.45329 -2.06484 0
M  V30 193 C 25.6346 -2.88865 0.835318 0
M  V30 194 C 27.1826 -3.0244 0.806156 0
M  V30 195 C 27.6576 -4.35819 1.40804 0
M  V30 196 N 29.1486 -4.42444 1.37103 0
M  V30 197 C 29.8836 -5.44202 1.80641 0
M  V30 198 N 29.3796 -6.52795 2.32015 0
M  V30 199 N 31.1726 -5.35222 1.71738 0
M  V30 200 H 23.3236 -1.47753 1.52587 0
M  V30 201 H 25.5866 -0.702941 0.636064 0
M  V30 202 H 25.2926 -2.9676 1.88749 0
M  V30 203 H 25.1666 -3.7579 0.325848 0
M  V30 204 H 27.5536 -2.94144 -0.237317 0
M  V30 205 H 27.6346 -2.17068 1.35334 0
M  V30 206 H 27.2786 -4.44871 2.45056 0
M  V30 207 H 27.2086 -5.19916 0.836338 0
M  V30 208 H 29.6996 -3.6456 0.995202 0
M  V30 209 H 30.0126 -7.26609 2.63171 0
M  V30 210 H 28.3576 -6.53696 2.36023 0
M  V30 211 H 31.5486 -4.49284 1.31382 0
M  V30 212 H 31.7216 -6.14389 2.05987 0
M  V30 213 N 25.1277 -0.289203 -1.54924 0
M  V30 214 C 26.0377 0.601863 -2.26748 0
M  V30 215 C 27.0537 1.15834 -1.2984 0
M  V30 216 O 28.2297 1.18564 -1.62802 0
M  V30 217 C 25.2947 1.76299 -2.98529 0
M  V30 218 C 24.3557 1.24178 -4.10948 0
M  V30 219 C 23.5887 2.34757 -4.79296 0
M  V30 220 O 23.8117 3.54411 -4.46933 0
M  V30 221 O 22.7457 2.02115 -5.66951 0
M  V30 222 H 26.5717 0.0195879 -3.03694 0
M  V30 223 H 24.1567 -0.0560868 -1.49295 0
M  V30 224 H 26.0387 2.43973 -3.43592 0
M  V30 225 H 24.7137 2.33209 -2.24488 0
M  V30 226 H 23.6207 0.531104 -3.70311 0
M  V30 227 H 24.9537 0.718252 -4.86931 0
M  V30 228 N 26.6058 1.57591 -0.0167156 0
M  V30 229 C 27.5158 2.1291 0.98521 0
M  V30 230 C 28.5318 1.07834 1.36557 0
M  V30 231 O 29.7078 1.39826 1.44951 0
M  V30 232 C 26.7728 2.63512 2.25305 0
M  V30 233 C 25.8338 3.83256 1.93426 0
M  V30 234 C 25.0668 4.31435 3.14165 0
M  V30 235 O 25.2898 3.78851 4.26413 0
M  V30 236 O 24.2238 5.23416 2.97186 0
M  V30 237 H 28.0498 2.98772 0.544888 0
M  V30 238 H 25.6348 1.48012 0.203141 0
M  V30 239 H 27.5168 2.96183 2.99756 0
M  V30 240 H 26.1918 1.8074 2.68542 0
M  V30 241 H 25.0988 3.55531 1.16398 0
M  V30 242 H 26.4318 4.67153 1.55013 0
M  V30 243 N 28.0839 -0.256276 1.55502 0
M  V30 244 C 29.0469 -1.30047 1.88734 0
M  V30 245 C 30.0469 -1.4154 0.763086 0
M  V30 246 O 31.2369 -1.40403 1.03115 0
M  V30 247 C 28.3689 -2.67953 2.10747 0
M  V30 248 H 29.5619 -1.01802 2.82093 0
M  V30 249 H 27.1149 -0.495134 1.4825 0
M  V30 250 H 27.8499 -3.01351 1.19825 0
M  V30 251 H 27.6349 -2.60993 2.92617 0
M  V30 252 H 29.1249 -3.43368 2.37673 0
M  V30 253 N 29.562 -1.4872 -0.521534 0
M  V30 254 C 30.81 -1.56857 -1.27437 0
M  V30 255 C 31.131 -0.247982 -1.93417 0
M  V30 256 O 30.401 0.731151 -1.81744 0
M  V30 257 H 28.981 -0.577885 -0.473347 0
M  V30 258 H 31.643 -1.85233 -0.606205 0
M  V30 259 H 30.739 -2.35402 -2.0492 0
M  V30 260 N 31.0401 0.771051 -1.3745 0
M  V30 261 C 32.0031 1.86598 -1.33093 0
M  V30 262 C 33.0031 1.59076 -0.234845 0
M  V30 263 O 34.1931 1.67145 -0.490732 0
M  V30 264 C 31.3251 3.23747 -1.06773 0
M  V30 265 H 32.5181 1.91873 -2.30488 0
M  V30 266 H 30.0711 0.970876 -1.2249 0
M  V30 267 H 30.8061 3.24148 -0.099129 0
M  V30 268 H 30.5911 3.45115 -1.86112 0
M  V30 269 H 32.0811 4.03824 -1.06377 0
M  V30 270 N 32.5182 1.22032 0.997298 0
M  V30 271 C 33.4482 1.01065 2.10495 0
M  V30 272 C 34.4292 -0.0669542 1.69968 0
M  V30 273 O 35.6142 0.0943987 1.9397 0
M  V30 274 C 32.7442 0.582874 3.42374 0
M  V30 275 C 31.6982 1.60592 3.96729 0
M  V30 276 C 31.0242 1.03412 5.24605 0
M  V30 277 C 32.3242 2.99478 4.27914 0
M  V30 278 H 34.0182 1.93708 2.28292 0
M  V30 279 H 31.5642 0.932761 1.09707 0
M  V30 280 H 33.5172 0.423332 4.19268 0
M  V30 281 H 32.2412 -0.379213 3.24391 0
M  V30 282 H 30.9002 1.75316 3.21963 0
M  V30 283 H 30.5482 0.063518 5.0296 0
M  V30 284 H 30.2482 1.71754 5.61938 0
M  V30 285 H 31.7722 0.886066 6.04137 0
M  V30 286 H 33.1862 2.88153 4.95622 0
M  V30 287 H 31.5832 3.64903 4.76409 0
M  V30 288 H 32.6532 3.49742 3.3587 0
M  V30 289 N 33.9963 -1.19345 1.0293 0
M  V30 290 C 35.2443 -1.88665 0.724574 0
M  V30 291 C 35.5653 -1.80036 -0.749144 0
M  V30 292 O 34.8353 -1.2111 -1.53978 0
M  V30 293 H 33.4153 -0.698406 0.265025 0
M  V30 294 H 36.0773 -1.44885 1.30362 0
M  V30 295 H 35.1733 -2.94987 1.01926 0
M  V30 296 N 35.4744 -0.807222 -1.35358 0
M  V30 297 C 36.8854 -0.44876 -1.81226 0
M  V30 298 C 37.2364 1.02929 -1.67033 0
M  V30 299 O 36.3614 1.79991 -1.20133 0
M  V30 300 C 36.9564 -0.807774 -3.2903 0
M  V30 301 C 35.5154 -0.501901 -3.73039 0
M  V30 302 C 34.6624 -1.03304 -2.57339 0
M  V30 303 H 37.6134 -0.998808 -1.23327 0
M  V30 304 H 37.6344 -0.10554 -3.80354 0
M  V30 305 H 37.1464 -1.88357 -3.39328 0
M  V30 306 H 35.2474 0.565128 -3.68289 0
M  V30 307 H 35.3604 -1.03497 -4.67787 0
M  V30 308 H 33.7244 -0.455339 -2.50597 0
M  V30 309 H 34.5074 -2.11496 -2.70415 0
M  V30 310 N 36.9525 1.47285 -0.560781 0
M  V30 311 C 37.9155 2.28535 0.174488 0
M  V30 312 C 38.9155 1.37153 0.839388 0
M  V30 313 O 40.1055 1.59748 0.694702 0
M  V30 314 C 37.2375 3.16934 1.25561 0
M  V30 315 H 38.4305 2.95012 -0.539262 0
M  V30 316 H 35.9835 1.53034 -0.317865 0
M  V30 317 H 36.7185 2.55157 2.00164 0
M  V30 318 H 36.5035 3.8419 0.783604 0
M  V30 319 H 37.9935 3.78143 1.77193 0
M  V30 320 N 38.4306 0.297415 1.54768 0
M  V30 321 C 39.6766 -0.306263 2.01081 0
M  V30 322 C 40.0316 -1.518 1.18214 0
M  V30 323 O 39.3246 -1.89967 0.249613 0
M  V30 324 C 39.5186 -0.717561 3.50123 0
M  V30 325 C 39.3476 0.45277 4.47415 0
M  V30 326 C 38.1176 0.943651 4.9641 0
M  V30 327 C 40.3156 1.29657 4.97688 0
M  V30 328 N 38.2976 2.08112 5.77549 0
M  V30 329 C 39.6686 2.28158 5.76493 0
M  V30 330 C 41.7236 1.32735 4.79881 0
M  V30 331 C 40.4266 3.29509 6.39387 0
M  V30 332 C 42.4526 2.32943 5.43591 0
M  V30 333 C 41.8146 3.30174 6.22225 0
M  V30 334 H 37.9136 -0.0766274 0.778237 0
M  V30 335 H 40.4976 0.426515 1.89971 0
M  V30 336 H 38.6686 -1.41952 3.6153 0
M  V30 337 H 40.4006 -1.30047 3.83236 0
M  V30 338 H 37.1556 0.51922 4.70745 0
M  V30 339 H 37.5796 2.65414 6.22803 0
M  V30 340 H 42.2216 0.589375 4.18672 0
M  V30 341 H 39.9396 4.04228 6.99732 0
M  V30 342 H 43.5256 2.36094 5.31743 0
M  V30 343 H 42.4056 4.06445 6.7065 0
M  V30 344 N 39.9087 -1.5758 0.0250728 0
M  V30 345 C 41.1857 -1.82917 -0.692873 0
M  V30 346 C 41.5657 -0.908137 -1.90568 0
M  V30 347 O 40.9137 0.0372298 -2.2847 0
M  V30 348 C 41.1237 -3.32034 -1.07492 0
M  V30 349 C 42.4717 -3.98406 -1.46826 0
M  V30 350 O 43.4957 -3.36505 -1.16801 0
M  V30 351 O 42.3547 -5.07497 -2.02754 0
M  V30 352 H 39.4487 -0.754079 -0.33955 0
M  V30 353 H 41.9947 -1.69619 0.0524456 0
M  V30 354 H 40.7667 -3.90728 -0.211552 0
M  V30 355 H 40.3897 -3.50424 -1.87854 0
M  V30 356 N 41.3868 0.248026 -1.55636 0
M  V30 357 C 42.2968 1.32859 -1.93354 0
M  V30 358 C 43.3128 1.52719 -0.833838 0
M  V30 359 O 44.4888 1.66363 -1.13513 0
M  V30 360 C 41.5538 2.66337 -2.21958 0
M  V30 361 C 40.6148 2.55008 -3.45354 0
M  V30 362 C 39.8478 3.82121 -3.72584 0
M  V30 363 O 40.0708 4.83951 -3.01907 0
M  V30 364 O 39.0048 3.80822 -4.6611 0
M  V30 365 H 42.8308 1.03862 -2.85388 0
M  V30 366 H 40.4158 0.448686 -1.42503 0
M  V30 367 H 42.2978 3.45216 -2.4167 0
M  V30 368 H 40.9728 2.95068 -1.33103 0
M  V30 369 H 39.8798 1.7442 -3.30951 0
M  V30 370 H 41.2128 2.31222 -4.34508 0
M  V30 371 N 42.8649 1.48995 0.513639 0
M  V30 372 C 44.0899 1.61792 1.29762 0
M  V30 373 C 44.5149 0.284475 1.85936 0
M  V30 374 O 43.8729 -0.746185 1.65232 0
M  V30 375 C 43.9209 2.67993 2.41272 0
M  V30 376 O 43.0249 2.26287 3.44772 0
M  V30 377 H 42.3659 0.541963 0.38363 0
M  V30 378 H 44.8959 1.95097 0.616307 0
M  V30 379 H 44.9059 2.89772 2.87221 0
M  V30 380 H 43.5809 3.64791 1.9975 0
M  V30 381 H 42.1579 2.14788 3.04829 0
M  V30 382 N 44.343 -0.763751 1.37857 0
M  V30 383 C 45.275 -1.88664 1.30148 0
M  V30 384 C 46.288 -1.61365 0.215685 0
M  V30 385 O 47.477 -1.72134 0.472459 0
M  V30 386 C 44.577 -3.24075 0.991396 0
M  V30 387 C 43.75 -3.78958 2.18426 0
M  V30 388 C 42.809 -4.92862 1.8432 0
M  V30 389 O 41.835 -5.08027 2.56704 0
M  V30 390 N 43.037 -5.75071 0.792081 0
M  V30 391 H 45.802 -1.95791 2.26905 0
M  V30 392 H 43.363 -0.943226 1.31586 0
M  V30 393 H 45.355 -3.97804 0.743935 0
M  V30 394 H 43.925 -3.12399 0.112122 0
M  V30 395 H 43.145 -2.96913 2.59299 0
M  V30 396 H 44.433 -4.12357 2.98058 0
M  V30 397 H 43.831 -5.65375 0.191595 0
M  V30 398 H 42.388 -6.48991 0.60449 0
M  V30 399 N 45.8211 -1.22559 -0.990812 0
M  V30 400 C 46.7511 -1.0218 -2.09956 0
M  V30 401 C 47.7321 0.0579394 -1.70001 0
M  V30 402 O 48.9171 -0.104684 -1.93918 0
M  V30 403 C 46.0471 -0.601023 -3.4206 0
M  V30 404 C 45.0011 -1.62694 -3.95872 0
M  V30 405 C 44.3271 -1.06193 -5.24049 0
M  V30 406 C 45.6271 -3.01743 -4.2632 0
M  V30 407 H 47.3211 -1.94916 -2.27262 0
M  V30 408 H 44.8671 -0.938566 -1.09211 0
M  V30 409 H 46.8201 -0.445561 -4.19038 0
M  V30 410 H 45.5441 0.362005 -3.24588 0
M  V30 411 H 44.2031 -1.77021 -3.21028 0
M  V30 412 H 43.8511 -0.0901903 -5.02919 0
M  V30 413 H 43.5511 -1.74732 -5.61019 0
M  V30 414 H 45.0751 -0.918092 -6.03658 0
M  V30 415 H 46.4891 -2.90777 -4.94087 0
M  V30 416 H 44.8861 -3.67425 -4.74467 0
M  V30 417 H 45.9561 -3.51518 -3.34011 0
M  V30 418 N 47.2992 1.18797 -1.03562 0
M  V30 419 C 48.7152 1.40671 -0.753917 0
M  V30 420 C 48.9152 1.9043 0.658686 0
M  V30 421 O 47.9712 2.08538 1.42366 0
M  V30 422 C 49.2842 2.41192 -1.79574 0
M  V30 423 C 50.8322 2.54928 -1.81606 0
M  V30 424 C 51.3072 3.58709 -2.84766 0
M  V30 425 N 52.7982 3.66212 -2.83625 0
M  V30 426 C 53.5332 4.46225 -3.60098 0
M  V30 427 N 53.0292 5.29888 -4.46308 0
M  V30 428 N 54.8222 4.40939 -3.4861 0
M  V30 429 H 46.9732 0.848221 -1.94728 0
M  V30 430 H 49.2362 0.435081 -0.842264 0
M  V30 431 H 48.9422 2.11669 -2.80872 0
M  V30 432 H 48.8162 3.40467 -1.62365 0
M  V30 433 H 51.2032 2.83771 -0.809817 0
M  V30 434 H 51.2842 1.55784 -2.02891 0
M  V30 435 H 50.9282 3.30607 -3.85566 0
M  V30 436 H 50.8582 4.57519 -2.60737 0
M  V30 437 H 53.3492 3.06466 -2.21105 0
M  V30 438 H 53.6622 5.88078 -5.01382 0
M  V30 439 H 52.0072 5.29326 -4.50377 0
M  V30 440 H 55.1982 3.74624 -2.80668 0
M  V30 441 H 55.3712 5.03056 -4.08459 0
M  V30 442 N 48.7773 0.814389 1.34928 0
M  V30 443 C 50.0023 0.410097 2.03305 0
M  V30 444 C 50.4273 -0.973464 1.60951 0
M  V30 445 O 49.7853 -1.63185 0.789964 0
M  V30 446 C 49.8333 0.51049 3.56968 0
M  V30 447 O 48.9373 -0.473035 4.09678 0
M  V30 448 H 48.2783 0.170088 0.641846 0
M  V30 449 H 50.8083 1.10244 1.72358 0
M  V30 450 H 50.8183 0.383135 4.06197 0
M  V30 451 H 49.4933 1.51963 3.87144 0
M  V30 452 H 48.0703 -0.305272 3.71648 0
M  V30 453 N 50.2554 -1.46986 0.568584 0
M  V30 454 C 51.4854 -2.0653 0.0539173 0
M  V30 455 C 51.8934 -1.42004 -1.25026 0
M  V30 456 O 51.2364 -0.514541 -1.76347 0
M  V30 457 C 51.2984 -3.58938 -0.200854 0
M  V30 458 C 50.9624 -4.45572 1.01559 0
M  V30 459 C 51.9594 -4.82986 1.92407 0
M  V30 460 C 49.6444 -4.8692 1.23346 0
M  V30 461 C 51.6384 -5.60559 3.03402 0
M  V30 462 C 49.3254 -5.64255 2.34649 0
M  V30 463 C 50.3234 -6.00986 3.24507 0
M  V30 464 O 50.0114 -6.76761 4.33878 0
M  V30 465 H 49.7434 -0.674292 0.0480234 0
M  V30 466 H 52.2974 -1.89812 0.784896 0
M  V30 467 H 50.5274 -3.73911 -0.986279 0
M  V30 468 H 52.2164 -4.0046 -0.662294 0
M  V30 469 H 52.9824 -4.51633 1.76785 0
M  V30 470 H 48.8614 -4.57789 0.543178 0
M  V30 471 H 52.4054 -5.89147 3.73565 0
M  V30 472 H 48.3024 -5.95021 2.5024 0
M  V30 473 H 49.0704 -6.95168 4.32068 0
M  V30 474 N 51.7335 -0.305618 -1.54608 0
M  V30 475 C 52.9585 0.307562 -2.05107 0
M  V30 476 C 53.3835 1.46385 -1.18123 0
M  V30 477 O 52.7415 1.8034 -0.186324 0
M  V30 478 C 52.7895 0.73704 -3.52987 0
M  V30 479 O 51.8935 1.84134 -3.6901 0
M  V30 480 H 51.2345 0.0589143 -0.661381 0
M  V30 481 H 53.7645 -0.448807 -1.99617 0
M  V30 482 H 53.7745 1.02459 -3.94925 0
M  V30 483 H 52.4495 -0.108773 -4.15758 0
M  V30 484 H 51.0265 1.55398 -3.38978 0
M  V30 485 N 53.2116 1.57565 -0.0334293 0
M  V30 486 C 54.4586 1.91978 0.644272 0
M  V30 487 C 54.7866 0.910231 1.71887 0
M  V30 488 O 54.0416 -0.0801961 1.95536 0
M  V30 489 C 54.3406 3.33112 1.29504 0
M  V30 490 C 54.0066 4.49537 0.350388 0
M  V30 491 C 52.6686 4.81115 0.0903974 0
M  V30 492 C 55.0206 5.20347 -0.298032 0
M  V30 493 C 52.3486 5.8086 -0.825746 0
M  V30 494 C 54.7006 6.2107 -1.20226 0
M  V30 495 C 53.3646 6.51088 -1.4711 0
M  V30 496 H 52.6346 0.702496 0.235756 0
M  V30 497 H 55.2816 1.91259 -0.0961176 0
M  V30 498 H 53.5866 3.30113 2.11028 0
M  V30 499 H 55.2836 3.57011 1.82603 0
M  V30 500 H 51.8736 4.24883 0.563205 0
M  V30 501 H 56.0576 4.96178 -0.110234 0
M  V30 502 H 51.3136 6.02461 -1.04169 0
M  V30 503 H 55.4876 6.75057 -1.71086 0
M  V30 504 H 53.1146 7.28193 -2.18264 0
M  V30 505 N 54.6897 -0.239769 1.55765 0
M  V30 506 C 56.1007 -0.808263 1.68297 0
M  V30 507 C 56.4517 -1.85736 0.632181 0
M  V30 508 O 55.5767 -2.15277 -0.220204 0
M  V30 509 C 56.1717 -1.47284 3.05111 0
M  V30 510 C 54.7307 -1.98895 3.19559 0
M  V30 511 C 53.8777 -0.842575 2.64189 0
M  V30 512 H 56.8287 -0.0154422 1.58692 0
M  V30 513 H 56.8497 -2.34111 2.99954 0
M  V30 514 H 56.3617 -0.709053 3.81568 0
M  V30 515 H 54.4627 -2.78132 2.47938 0
M  V30 516 H 54.5757 -2.18143 4.26556 0
M  V30 517 H 52.9397 -1.24501 2.22197 0
M  V30 518 H 53.7227 -0.0917552 3.43177 0
M  V30 519 N 56.1678 -1.49265 -0.50573 0
M  V30 520 C 57.3958 -1.62215 -1.28429 0
M  V30 521 C 57.8108 -0.291697 -1.86533 0
M  V30 522 O 57.1678 0.722233 -1.67601 0
M  V30 523 C 57.2188 -2.68735 -2.41793 0
M  V30 524 O 56.9398 -3.96619 -1.86078 0
M  V30 525 C 58.4408 -2.92346 -3.3324 0
M  V30 526 H 55.6608 -0.546239 -0.389697 0
M  V30 527 H 58.2048 -1.95265 -0.607609 0
M  V30 528 H 56.3598 -2.38476 -3.053 0
M  V30 529 H 56.7738 -4.55256 -2.60465 0
M  V30 530 H 58.2478 -3.70623 -4.09075 0
M  V30 531 H 58.7248 -2.02081 -3.89948 0
M  V30 532 H 59.3308 -3.24003 -2.75503 0
M  V30 533 N 57.6459 0.756429 -1.3826 0
M  V30 534 C 59.0619 1.0591 -1.19395 0
M  V30 535 C 59.2619 2.01459 -0.0406567 0
M  V30 536 O 58.3179 2.44909 0.614467 0
M  V30 537 C 59.6309 1.64191 -2.51916 0
M  V30 538 C 61.1789 1.76376 -2.58574 0
M  V30 539 C 61.6539 2.38069 -3.91264 0
M  V30 540 N 63.1449 2.45503 -3.92788 0
M  V30 541 C 63.8799 2.94126 -4.92217 0
M  V30 542 N 63.3759 3.42805 -6.02043 0
M  V30 543 N 65.1689 2.9314 -4.7961 0
M  V30 544 H 57.3199 0.122313 -2.12048 0
M  V30 545 H 59.5829 0.116892 -0.940766 0
M  V30 546 H 59.2889 1.01451 -3.3675 0
M  V30 547 H 59.1629 2.6329 -2.70108 0
M  V30 548 H 61.5499 2.38244 -1.74137 0
M  V30 549 H 61.6309 0.759894 -2.44252 0
M  V30 550 H 61.2749 1.76835 -4.76121 0
M  V30 551 H 61.2049 3.39091 -4.02895 0
M  V30 552 H 63.6959 2.1107 -3.13461 0
M  V30 553 H 64.0089 3.78354 -6.73846 0
M  V30 554 H 62.3539 3.4087 -6.05667 0
M  V30 555 H 65.5449 2.54419 -3.92923 0
M  V30 556 H 65.7179 3.30721 -5.5725 0
M  V30 557 N 59.124 1.23083 0.984299 0
M  V30 558 C 60.535 1.05609 1.5396 0
M  V30 559 C 60.886 -0.377793 1.92528 0
M  V30 560 O 60.011 -1.26398 1.75649 0
M  V30 561 C 60.606 1.91087 2.7977 0
M  V30 562 C 59.165 1.77885 3.31713 0
M  V30 563 C 58.312 1.87028 2.04733 0
M  V30 564 H 61.263 1.36802 0.804419 0
M  V30 565 H 61.284 1.43336 3.5247 0
M  V30 566 H 60.796 2.9544 2.51668 0
M  V30 567 H 58.897 0.762995 3.64704 0
M  V30 568 H 59.01 2.61047 4.01735 0
M  V30 569 H 57.374 1.30565 2.18689 0
M  V30 570 H 58.157 2.92929 1.79017 0
M  V30 571 N 60.6021 -1.18246 1.0419 0
M  V30 572 C 61.8511 -1.87588 0.741194 0
M  V30 573 C 62.1641 -1.81303 -0.734066 0
M  V30 574 O 63.3701 -2.46019 -1.14834 0
M  V30 575 C 61.8261 -3.36538 1.27555 0
M  V30 576 C 61.4341 -3.51349 2.77953 0
M  V30 577 C 63.1781 -4.11273 1.05143 0
M  V30 578 C 61.0851 -4.94265 3.2474 0
M  V30 579 H 60.0151 -0.702622 0.273565 0
M  V30 580 H 62.6661 -1.33601 1.25789 0
M  V30 581 H 61.0481 -3.9 0.686703 0
M  V30 582 H 62.2221 -3.08153 3.42605 0
M  V30 583 H 60.5371 -2.90022 2.98791 0
M  V30 584 H 63.1341 -5.16689 1.37611 0
M  V30 585 H 63.4771 -4.16298 -0.0112774 0
M  V30 586 H 64.0101 -3.63987 1.60495 0
M  V30 587 H 60.7491 -4.94408 4.30396 0
M  V30 588 H 60.2691 -5.38172 2.64823 0
M  V30 589 H 61.9481 -5.62987 3.18834 0
M  V30 590 N 62.0802 -0.821533 -1.34494 0
M  V30 591 C 63.4912 -0.467956 -1.8074 0
M  V30 592 C 63.8422 1.01151 -1.68116 0
M  V30 593 O 62.9672 1.78707 -1.22036 0
M  V30 594 C 63.5622 -0.842627 -3.28154 0
M  V30 595 C 62.1212 -0.541439 -3.72485 0
M  V30 596 C 61.2682 -1.06028 -2.56229 0
M  V30 597 H 64.2192 -1.01183 -1.22261 0
M  V30 598 H 64.2402 -0.145876 -3.8022 0
M  V30 599 H 63.7522 -1.91945 -3.37311 0
M  V30 600 H 61.8532 0.526034 -3.68868 0
M  V30 601 H 61.9662 -1.08453 -4.66663 0
M  V30 602 H 60.3302 -0.481892 -2.501 0
M  V30 603 H 61.1132 -2.14352 -2.68157 0
M  V30 604 N 63.5583 1.46682 -0.576371 0
M  V30 605 C 64.9743 1.57822 -0.237562 0
M  V30 606 C 65.1743 1.57237 1.26011 0
M  V30 607 O 64.2303 1.48596 2.04146 0
M  V30 608 C 65.5433 2.87499 -0.881168 0
M  V30 609 C 67.0913 3.01119 -0.85417 0
M  V30 610 C 67.5663 4.33524 -1.4772 0
M  V30 611 N 69.0573 4.40207 -1.44125 0
M  V30 612 C 69.7923 5.4126 -1.89276 0
M  V30 613 N 69.2883 6.49021 -2.42371 0
M  V30 614 N 71.0813 5.32422 -1.80231 0
M  V30 615 H 63.2323 1.45306 -1.54919 0
M  V30 616 H 65.4953 0.692733 -0.647167 0
M  V30 617 H 65.2013 2.9372 -1.93447 0
M  V30 618 H 65.0753 3.75224 -0.385592 0
M  V30 619 H 67.4623 2.94485 0.190491 0
M  V30 620 H 67.5433 2.14887 -1.3877 0
M  V30 621 H 67.1873 4.40916 -2.52103 0
M  V30 622 H 67.1173 5.1852 -0.918947 0
M  V30 623 H 69.6083 3.62931 -1.05307 0
M  V30 624 H 69.9213 7.2233 -2.74698 0
M  V30 625 H 68.2663 6.49858 -2.46393 0
M  V30 626 H 71.4573 4.47137 -1.38514 0
M  V30 627 H 71.6303 6.11034 -2.15735 0
M  V30 628 N 65.0364 0.313813 1.54444 0
M  V30 629 C 65.9664 -0.549454 2.26943 0
M  V30 630 C 66.9474 -1.12741 1.27372 0
M  V30 631 O 68.1324 -1.15436 1.56167 0
M  V30 632 C 65.2624 -1.71523 3.01989 0
M  V30 633 C 64.2164 -1.26703 4.08816 0
M  V30 634 C 63.5424 -2.51898 4.71647 0
M  V30 635 C 64.8424 -0.388962 5.2085 0
M  V30 636 H 66.5364 0.0552661 2.99349 0
M  V30 637 H 64.0824 0.0280207 1.43973 0
M  V30 638 H 66.0354 -2.32535 3.51433 0
M  V30 639 H 64.7594 -2.34639 2.27183 0
M  V30 640 H 63.4184 -0.679896 3.6024 0
M  V30 641 H 63.0664 -3.13356 3.93468 0
M  V30 642 H 62.7664 -2.22605 5.43802 0
M  V30 643 H 64.2904 -3.1369 5.23861 0
M  V30 644 H 65.7044 -0.905107 5.6611 0
M  V30 645 H 64.1014 -0.18924 5.99802 0
M  V30 646 H 65.1714 0.582699 4.81386 0
M  V30 647 N 66.5145 -1.57545 0.0417849 0
M  V30 648 C 67.7395 -1.97035 -0.647455 0
M  V30 649 C 68.1645 -0.918775 -1.64135 0
M  V30 650 O 67.5225 0.119006 -1.80909 0
M  V30 651 C 67.5705 -3.35609 -1.31905 0
M  V30 652 O 66.6745 -3.3287 -2.43457 0
M  V30 653 H 66.0155 -0.64211 -0.169086 0
M  V30 654 H 68.5455 -2.04318 0.107399 0
M  V30 655 H 68.5555 -3.72126 -1.67291 0
M  V30 656 H 67.2305 -4.11685 -0.590586 0
M  V30 657 H 65.8075 -3.08087 -2.10088 0
M  V30 658 N 67.9926 0.231505 -1.5589 0
M  V30 659 C 68.9246 1.31006 -1.8807 0
M  V30 660 C 69.9376 1.43539 -0.768145 0
M  V30 661 O 71.1266 1.44614 -1.04638 0
M  V30 662 C 68.2266 2.68688 -2.06543 0
M  V30 663 C 67.3996 2.78228 -3.37502 0
M  V30 664 C 66.4586 3.96857 -3.4553 0
M  V30 665 O 65.4846 3.85662 -4.18633 0
M  V30 666 N 66.6866 5.1072 -2.75944 0
M  V30 667 H 69.4516 1.03731 -2.81176 0
M  V30 668 H 67.0126 0.421573 -1.56315 0
M  V30 669 H 69.0046 3.46412 -2.09239 0
M  V30 670 H 67.5746 2.88605 -1.20109 0
M  V30 671 H 66.7946 1.87059 -3.46991 0
M  V30 672 H 68.0826 2.81564 -4.23791 0
M  V30 673 H 67.4806 5.2271 -2.16311 0
M  V30 674 H 66.0376 5.86523 -2.84314 0
M  V30 675 N 69.4707 1.49531 0.497807 0
M  V30 676 C 70.6957 1.63159 1.28039 0
M  V30 677 C 71.1207 0.30418 1.85624 0
M  V30 678 O 70.4787 -0.728618 1.66015 0
M  V30 679 C 70.5267 2.70537 2.38416 0
M  V30 680 O 69.6307 2.29931 3.42353 0
M  V30 681 H 68.9717 0.546001 0.377861 0
M  V30 682 H 71.5017 1.9574 0.59558 0
M  V30 683 H 71.5117 2.92802 2.84132 0
M  V30 684 H 70.1867 3.6689 1.95869 0
M  V30 685 H 68.7637 2.18009 3.02533 0
M  V30 686 N 70.9488 -0.749086 1.3866 0
M  V30 687 C 72.2258 -1.4992 1.25632 0
M  V30 688 C 72.6058 -2.10633 -0.140317 0
M  V30 689 O 71.9538 -1.97437 -1.15025 0
M  V30 690 C 72.1638 -2.56195 2.36992 0
M  V30 691 C 73.5118 -3.22972 2.75634 0
M  V30 692 O 74.5358 -2.66502 2.36337 0
M  V30 693 O 73.3948 -4.25122 3.43415 0
M  V30 694 H 70.4888 -0.665067 0.491544 0
M  V30 695 H 73.0348 -0.784113 1.50498 0
M  V30 696 H 71.8068 -2.09612 3.30422 0
M  V30 697 H 71.4298 -3.35279 2.13714 0
M  V30 698 N 72.4269 -1.23603 -0.977757 0
M  V30 699 C 73.8379 -1.06424 -1.53398 0
M  V30 700 C 74.1889 0.367578 -1.92726 0
M  V30 701 O 73.3139 1.25465 -1.76316 0
M  V30 702 C 73.9089 -1.92568 -2.78753 0
M  V30 703 C 72.4679 -1.79642 -3.30765 0
M  V30 704 C 71.6149 -1.88111 -2.03739 0
M  V30 705 H 74.5659 -1.37227 -0.797152 0
M  V30 706 H 74.5869 -1.45203 -3.51705 0
M  V30 707 H 74.0989 -2.96771 -2.50098 0
M  V30 708 H 72.1999 -0.782325 -3.64294 0
M  V30 709 H 72.3129 -2.63174 -4.00345 0
M  V30 710 H 70.6769 -1.31723 -2.17994 0
M  V30 711 H 71.4599 -2.93875 -1.77461 0
M  V30 712 N 73.905 1.17692 -1.04816 0
M  V30 713 C 75.321 1.39863 -0.768794 0
M  V30 714 C 75.521 1.91118 0.638451 0
M  V30 715 O 74.577 2.10036 1.40146 0
M  V30 716 C 75.89 2.39274 -1.82122 0
M  V30 717 C 77.438 2.52987 -1.843 0
M  V30 718 C 77.913 3.55669 -2.88555 0
M  V30 719 N 79.404 3.63183 -2.87493 0
M  V30 720 C 80.139 4.42381 -3.64811 0
M  V30 721 N 79.635 5.25125 -4.51903 0
M  V30 722 N 81.428 4.37217 -3.53267 0
M  V30 723 H 73.579 0.82752 -1.95617 0
M  V30 724 H 75.842 0.426123 -0.846831 0
M  V30 725 H 75.548 2.08678 -2.83102 0
M  V30 726 H 75.422 3.38725 -1.65967 0
M  V30 727 H 77.809 2.82896 -0.839869 0
M  V30 728 H 77.89 1.53623 -2.04532 0
M  V30 729 H 77.534 3.26499 -3.89051 0
M  V30 730 H 77.464 4.54728 -2.65575 0
M  V30 731 H 79.955 3.04103 -2.24343 0
M  V30 732 H 80.268 5.82728 -5.07591 0
M  V30 733 H 78.613 5.24519 -4.55966 0
M  V30 734 H 81.804 3.71626 -2.84625 0
M  V30 735 H 81.977 4.98696 -4.13771 0
M  V30 736 N 75.3831 0.828654 1.34056 0
M  V30 737 C 76.3461 0.259927 2.27721 0
M  V30 738 C 77.3461 -0.565478 1.50529 0
M  V30 739 O 78.5361 -0.38075 1.69988 0
M  V30 740 C 75.6681 -0.634944 3.34935 0
M  V30 741 H 76.8611 1.0863 2.79534 0
M  V30 742 H 74.4141 0.600951 1.44285 0
M  V30 743 H 75.1491 -1.48416 2.88346 0
M  V30 744 H 74.9341 -0.0444999 3.92075 0
M  V30 745 H 76.4241 -1.02648 4.04788 0
M  V30 746 N 76.8612 -1.46375 0.584142 0
M  V30 747 C 77.7712 -2.34115 -0.150728 0
M  V30 748 C 78.7872 -1.49838 -0.884567 0
M  V30 749 O 79.9632 -1.82704 -0.847429 0
M  V30 750 C 77.0282 -3.2705 -1.15062 0
M  V30 751 C 76.0892 -4.27228 -0.421293 0
M  V30 752 C 75.3222 -5.15722 -1.37355 0
M  V30 753 O 75.5452 -5.07176 -2.61014 0
M  V30 754 O 74.4792 -5.95383 -0.883355 0
M  V30 755 H 78.3052 -2.98309 0.569708 0
M  V30 756 H 75.8902 -1.45373 0.344535 0
M  V30 757 H 77.7722 -3.84381 -1.72712 0
M  V30 758 H 76.4472 -2.65451 -1.8525 0
M  V30 759 H 75.3542 -3.7358 0.197085 0
M  V30 760 H 76.6872 -4.91616 0.239641 0
M  V30 761 N 78.3393 -0.321999 -1.54275 0
M  V30 762 C 79.2493 0.553631 -2.27974 0
M  V30 763 C 80.2653 1.13054 -1.32268 0
M  V30 764 O 81.4413 1.15084 -1.6528 0
M  V30 765 C 78.5063 1.69927 -3.02201 0
M  V30 766 C 77.5673 1.15433 -4.1349 0
M  V30 767 C 76.8003 2.24537 -4.84168 0
M  V30 768 O 77.0233 3.44852 -4.5435 0
M  V30 769 O 75.9573 1.90044 -5.7111 0
M  V30 770 H 79.7833 -0.0448345 -3.03667 0
M  V30 771 H 77.3683 -0.0877418 -1.49142 0
M  V30 772 H 79.2503 2.3663 -3.48689 0
M  V30 773 H 77.9253 2.28395 -2.29385 0
M  V30 774 H 76.8323 0.452436 -3.71354 0
M  V30 775 H 78.1653 0.614805 -4.88345 0
M  V30 776 N 79.8174 1.5752 -0.0501392 0
M  V30 777 C 80.7474 2.14502 0.922566 0
M  V30 778 C 81.7284 1.06642 1.3252 0
M  V30 779 O 82.9134 1.34577 1.4001 0
M  V30 780 C 80.0434 2.68916 2.19776 0
M  V30 781 C 78.9974 3.8175 1.93523 0
M  V30 782 C 78.3234 4.22677 3.27487 0
M  V30 783 C 79.6234 5.06932 1.25765 0
M  V30 784 H 81.3174 2.9603 0.447952 0
M  V30 785 H 78.8634 1.42401 0.214024 0
M  V30 786 H 80.8164 3.07419 2.88222 0
M  V30 787 H 79.5404 1.84578 2.69441 0
M  V30 788 H 78.1994 3.43718 1.27489 0
M  V30 789 H 77.8474 3.35291 3.74952 0
M  V30 790 H 77.5474 4.98725 3.1072 0
M  V30 791 H 79.0714 4.63779 3.97166 0
M  V30 792 H 80.4854 5.42888 1.84244 0
M  V30 793 H 78.8824 5.88116 1.19328 0
M  V30 794 H 79.9524 4.84337 0.233536 0
M  V30 795 N 81.2955 -0.223234 1.56011 0
M  V30 796 C 82.5445 -0.945912 1.78144 0
M  V30 797 C 82.8575 -1.85567 0.618396 0
M  V30 798 O 84.0635 -2.61688 0.723318 0
M  V30 799 C 82.5195 -1.73216 3.15475 0
M  V30 800 C 82.1275 -0.868619 4.39499 0
M  V30 801 C 83.8715 -2.44615 3.46935 0
M  V30 802 C 81.7785 -1.65212 5.67855 0
M  V30 803 H 80.7085 -0.356929 0.664167 0
M  V30 804 H 83.3595 -0.199845 1.82409 0
M  V30 805 H 81.7415 -2.52107 3.05382 0
M  V30 806 H 82.9155 -0.120366 4.60643 0
M  V30 807 H 81.2305 -0.26683 4.15544 0
M  V30 808 H 83.8275 -3.03732 4.40058 0
M  V30 809 H 84.1705 -3.17417 2.69355 0
M  V30 810 H 84.7035 -1.72715 3.58349 0
M  V30 811 H 81.4425 -0.967407 6.48322 0
M  V30 812 H 80.9625 -2.37503 5.50774 0
M  V30 813 H 82.6415 -2.21322 6.07968 0
M  V30 814 N 82.7736 -1.49793 -0.48987 0
M  V30 815 C 83.6836 -1.70036 -1.61632 0
M  V30 816 C 84.6996 -0.583102 -1.63939 0
M  V30 817 O 85.8756 -0.859169 -1.82154 0
M  V30 818 C 82.9406 -1.77277 -2.97949 0
M  V30 819 C 82.0016 -3.00918 -3.06181 0
M  V30 820 C 81.2346 -3.07804 -4.35996 0
M  V30 821 O 81.4576 -2.21982 -5.25433 0
M  V30 822 O 80.3916 -4.00369 -4.49431 0
M  V30 823 H 84.2176 -2.65486 -1.47482 0
M  V30 824 H 81.8026 -1.33666 -0.667362 0
M  V30 825 H 83.6846 -1.84329 -3.78947 0
M  V30 826 H 82.3596 -0.850076 -3.12339 0
M  V30 827 H 81.2666 -2.99377 -2.2433 0
M  V30 828 H 82.5996 -3.92704 -2.96723 0
M  V30 829 N 84.2517 0.741722 -1.39055 0
M  V30 830 C 85.1997 1.87702 -1.3737 0
M  V30 831 C 86.1937 1.67427 -0.257812 0
M  V30 832 O 87.3997 1.7485 -0.427489 0
M  V30 833 H 83.7747 0.617757 -0.428812 0
M  V30 834 H 85.7457 1.86239 -2.33147 0
M  V30 835 C 84.4947 3.25315 -1.22741 0
M  V30 836 H 83.8177 3.41509 -2.07873 0
M  V30 837 H 85.2577 4.04964 -1.25618 0
M  V30 838 C 83.7167 3.36838 0.0647316 0
M  V30 839 O 84.2467 3.88073 1.03741 0
M  V30 840 N 82.4527 2.90329 0.125544 0
M  V30 841 H 81.9997 2.48823 -0.666682 0
M  V30 842 H 81.9577 2.98418 0.989639 0
M  V30 843 N 85.7298 1.2412 0.971189 0
M  V30 844 C 86.6398 1.04747 2.09917 0
M  V30 845 C 87.6558 -0.0107162 1.73997 0
M  V30 846 O 88.8318 0.186714 2.00533 0
M  V30 847 C 85.8968 0.650828 3.40537 0
M  V30 848 C 84.9578 1.7851 3.90426 0
M  V30 849 C 84.1908 1.40729 5.14812 0
M  V30 850 O 84.4138 0.29557 5.69634 0
M  V30 851 O 83.3478 2.23168 5.58999 0
M  V30 852 H 87.1738 1.99304 2.29154 0
M  V30 853 H 84.7588 1.02908 1.08307 0
M  V30 854 H 86.6408 0.440992 4.19086 0
M  V30 855 H 85.3158 -0.265649 3.22608 0
M  V30 856 H 84.2228 2.04966 3.12953 0
M  V30 857 H 85.5558 2.68023 4.12825 0
M  V30 858 N 87.2079 -1.17134 1.05439 0
M  V30 859 C 88.1179 -2.24878 0.668365 0
M  V30 860 C 89.1339 -1.71186 -0.311687 0
M  V30 861 O 90.3099 -2.00738 -0.163161 0
M  V30 862 C 87.3749 -3.46662 0.051648 0
M  V30 863 C 86.4359 -4.15429 1.08246 0
M  V30 864 C 85.6689 -5.31399 0.495082 0
M  V30 865 O 85.8919 -5.66153 -0.694743 0
M  V30 866 O 84.8259 -5.89187 1.23056 0
M  V30 867 H 88.6519 -2.60189 1.56637 0
M  V30 868 H 86.2369 -1.24482 0.826104 0
M  V30 869 H 88.1189 -4.20394 -0.290966 0
M  V30 870 H 86.7939 -3.13142 -0.819971 0
M  V30 871 H 85.7009 -3.43704 1.47711 0
M  V30 872 H 87.0339 -4.52982 1.92532 0
M  V30 873 N 88.686 -0.835752 -1.33615 0
M  V30 874 C 90.097 -0.487099 -1.80234 0
M  V30 875 C 90.448 0.993627 -1.69179 0
M  V30 876 O 89.573 1.77403 -1.23924 0
M  V30 877 C 90.168 -0.877385 -3.27242 0
M  V30 878 C 88.727 -0.580915 -3.7189 0
M  V30 879 C 87.874 -1.0874 -2.5509 0
M  V30 880 H 90.825 -1.02474 -1.2118 0
M  V30 881 H 90.846 -0.186195 -3.80044 0
M  V30 882 H 90.358 -1.95512 -3.35256 0
M  V30 883 H 88.459 0.486881 -3.69405 0
M  V30 884 H 88.572 -1.13396 -4.65487 0
M  V30 885 H 86.936 -0.508392 -2.49575 0
M  V30 886 H 87.719 -2.17184 -2.65868 0
M  V30 887 N 90.1641 1.46063 -0.591896 0
M  V30 888 C 91.4101 2.02638 -0.0811191 0
M  V30 889 C 91.7431 1.4613 1.27905 0
M  V30 890 O 91.0181 0.629908 1.84017 0
M  V30 891 C 91.3011 3.60091 -0.0252436 0
M  V30 892 C 91.1541 4.26965 -1.41496 0
M  V30 893 C 92.4731 4.3496 0.670685 0
M  V30 894 H 89.5921 0.73635 -0.0309524 0
M  V30 895 H 92.2341 1.741 -0.760859 0
M  V30 896 H 90.3841 3.84535 0.553624 0
M  V30 897 H 92.0561 4.13756 -2.0397 0
M  V30 898 H 90.2991 3.85971 -1.98011 0
M  V30 899 H 90.9701 5.35781 -1.32825 0
M  V30 900 H 93.4461 4.15716 0.178825 0
M  V30 901 H 92.3221 5.44686 0.678837 0
M  V30 902 H 92.5831 4.06685 1.73379 0
M  V30 903 N 91.6422 0.330177 1.54103 0
M  V30 904 C 92.8882 -0.270806 2.00984 0
M  V30 905 C 93.2212 -1.51265 1.21789 0
M  V30 906 O 92.4962 -1.92142 0.301927 0
M  V30 907 C 92.7792 -0.598339 3.55094 0
M  V30 908 C 92.6322 0.654674 4.4501 0
M  V30 909 C 93.9512 -1.41334 4.16789 0
M  V30 910 H 91.0702 -0.0969531 0.730595 0
M  V30 911 H 93.7122 0.448066 1.84641 0
M  V30 912 H 91.8622 -1.21078 3.69151 0
M  V30 913 H 93.5342 1.29285 4.42813 0
M  V30 914 H 91.7772 1.28224 4.14416 0
M  V30 915 H 92.4482 0.380944 5.50684 0
M  V30 916 H 94.9242 -0.895597 4.06347 0
M  V30 917 H 93.8002 -1.61127 5.24718 0
M  V30 918 H 94.0612 -2.41146 3.70541 0
M  V30 919 N 93.1203 -1.57491 0.0584922 0
M  V30 920 C 94.0503 -2.14988 -0.911178 0
M  V30 921 C 95.0313 -1.07343 -1.31952 0
M  V30 922 O 96.2163 -1.35318 -1.39294 0
M  V30 923 C 93.3463 -2.70078 -2.18347 0
M  V30 924 C 92.3003 -3.82771 -1.91495 0
M  V30 925 C 91.6263 -4.24408 -3.25241 0
M  V30 926 C 92.9263 -5.07592 -1.23075 0
M  V30 927 H 94.6203 -2.96263 -0.432246 0
M  V30 928 H 92.1663 -1.42512 -0.206469 0
M  V30 929 H 94.1193 -3.08943 -2.86587 0
M  V30 930 H 92.8433 -1.86005 -2.68458 0
M  V30 931 H 91.5023 -3.44389 -1.25664 0
M  V30 932 H 91.1503 -3.37275 -3.73168 0
M  V30 933 H 90.8503 -5.00366 -3.08071 0
M  V30 934 H 92.3743 -4.65879 -3.94701 0
M  V30 935 H 93.7883 -5.43857 -1.81362 0
M  V30 936 H 92.1853 -5.88741 -1.16207 0
M  V30 937 H 93.2553 -4.84454 -0.207847 0
M  V30 938 N 94.5984 0.214957 -1.56127 0
M  V30 939 C 95.8264 0.955092 -1.83536 0
M  V30 940 C 96.2414 1.77677 -0.638472 0
M  V30 941 O 95.5984 1.78219 0.392968 0
M  V30 942 C 95.6494 1.86734 -3.09536 0
M  V30 943 O 95.3704 1.07887 -4.24608 0
M  V30 944 C 96.8714 2.72082 -3.4998 0
M  V30 945 H 94.0914 0.279611 -0.609966 0
M  V30 946 H 96.6354 0.228197 -2.03223 0
M  V30 947 H 94.7904 2.5481 -2.91806 0
M  V30 948 H 95.2044 1.69872 -4.9623 0
M  V30 949 H 96.6784 3.31782 -4.41163 0
M  V30 950 H 97.1554 3.44806 -2.7204 0
M  V30 951 H 97.7614 2.09409 -3.70173 0
M  V30 952 N 96.0765 1.50051 0.48192 0
M  V30 953 C 97.3535 1.51009 1.2432 0
M  V30 954 C 97.7335 0.248587 2.09631 0
M  V30 955 O 97.0815 -0.768409 2.15192 0
M  V30 956 C 97.2915 2.79981 2.08355 0
M  V30 957 C 98.6395 3.3022 2.66908 0
M  V30 958 O 99.6635 2.81228 2.18607 0
M  V30 959 O 98.5225 4.15595 3.54884 0
M  V30 960 H 95.6165 0.605239 0.563573 0
M  V30 961 H 98.1625 1.62332 0.494627 0
M  V30 962 H 96.9345 3.63275 1.45419 0
M  V30 963 H 96.5575 2.7161 2.90368 0
M  V30 964 N 97.5546 -0.734337 1.39446 0
M  V30 965 C 98.7826 -1.52358 1.39981 0
M  V30 966 C 99.1976 -1.88799 -0.0054975 0
M  V30 967 O 98.5546 -1.54146 -0.976998 0
M  V30 968 C 98.6056 -2.81072 2.27333 0
M  V30 969 O 98.3266 -2.46178 3.62392 0
M  V30 970 C 99.8276 -3.75096 2.36259 0
M  V30 971 H 97.0476 -0.470806 0.478103 0
M  V30 972 H 99.5916 -0.907339 1.83269 0
M  V30 973 H 97.7466 -3.39026 1.87457 0
M  V30 974 H 98.1606 -3.28866 4.08592 0
M  V30 975 H 99.6346 -4.62305 3.01626 0
M  V30 976 H 100.112 -4.16892 1.38194 0
M  V30 977 H 100.718 -3.23061 2.76608 0
M  V30 978 N 99.0327 -1.24633 -0.964593 0
M  V30 979 C 99.9807 -1.03917 -2.08096 0
M  V30 980 C 100.975 0.0268581 -1.69379 0
M  V30 981 O 102.181 -0.127952 -1.79545 0
M  V30 982 H 98.5557 -0.319044 -0.680966 0
M  V30 983 H 100.527 -1.98581 -2.22729 0
M  V30 984 C 99.2757 -0.663983 -3.41301 0
M  V30 985 H 98.5987 -1.47605 -3.71555 0
M  V30 986 H 100.039 -0.558663 -4.20303 0
M  V30 987 C 98.4977 0.629169 -3.30973 0
M  V30 988 O 99.0277 1.67404 -3.65156 0
M  V30 989 N 97.2337 0.611057 -2.84103 0
M  V30 990 H 96.7807 -0.239593 -2.56483 0
M  V30 991 H 96.7387 1.47647 -2.77575 0
M  V30 992 N 100.511 1.16574 -1.06058 0
M  V30 993 C 101.441 2.23057 -0.690488 0
M  V30 994 C 102.422 1.67141 0.315901 0
M  V30 995 O 103.607 1.93253 0.191556 0
M  V30 996 C 100.737 3.47222 -0.073625 0
M  V30 997 C 99.6908 4.16016 -1.00573 0
M  V30 998 C 99.0168 5.34104 -0.252289 0
M  V30 999 C 100.317 4.67264 -2.33371 0
M  V30 1000 H 102.011 2.54271 -1.58072 0
M  V30 1001 H 99.5568 1.22218 -0.76149 0
M  V30 1002 H 101.51 4.20939 0.19714 0
M  V30 1003 H 100.234 3.15302 0.85161 0
M  V30 1004 H 98.8928 3.44223 -1.2612 0
M  V30 1005 H 98.5408 4.98437 0.675988 0
M  V30 1006 H 98.2408 5.81072 -0.873455 0
M  V30 1007 H 99.7648 6.10599 0.0109857 0
M  V30 1008 H 101.179 5.32573 -2.12223 0
M  V30 1009 H 99.5758 5.24843 -2.90963 0
M  V30 1010 H 100.646 3.83602 -2.96611 0
M  V30 1011 N 101.989 0.842826 1.3317 0
M  V30 1012 C 103.235 0.441099 1.97945 0
M  V30 1013 C 103.568 -0.998024 1.66593 0
M  V30 1014 O 102.843 -1.69839 0.947898 0
M  V30 1015 C 103.126 0.666841 3.53872 0
M  V30 1016 C 102.979 2.15352 3.94897 0
M  V30 1017 C 104.298 0.115544 4.39948 0
M  V30 1018 H 101.417 0.161739 0.719034 0
M  V30 1019 H 104.059 1.05907 1.57746 0
M  V30 1020 H 102.209 0.140828 3.88245 0
M  V30 1021 H 103.881 2.7447 3.70761 0
M  V30 1022 H 102.124 2.63653 3.44484 0
M  V30 1023 H 102.795 2.26221 5.03516 0
M  V30 1024 H 105.271 0.565213 4.12243 0
M  V30 1025 H 104.147 0.303152 5.48062 0
M  V30 1026 H 104.408 -0.980935 4.3108 0
M  V30 1027 N 103.467 -1.45747 0.599634 0
M  V30 1028 C 104.697 -2.06369 0.0977132 0
M  V30 1029 C 105.105 -1.44624 -1.21985 0
M  V30 1030 O 104.448 -0.551831 -1.75216 0
M  V30 1031 C 104.51 -3.59284 -0.124673 0
M  V30 1032 C 104.174 -4.43318 1.10987 0
M  V30 1033 C 105.171 -4.78796 2.02609 0
M  V30 1034 C 102.856 -4.84194 1.33647 0
M  V30 1035 C 104.85 -5.53997 3.15224 0
M  V30 1036 C 102.537 -5.5915 2.46565 0
M  V30 1037 C 103.535 -5.93968 3.37182 0
M  V30 1038 O 103.223 -6.67405 4.48136 0
M  V30 1039 H 102.955 -0.673122 0.0623153 0
M  V30 1040 H 105.509 -1.88104 0.824981 0
M  V30 1041 H 103.739 -3.75919 -0.906745 0
M  V30 1042 H 105.428 -4.01775 -0.577201 0
M  V30 1043 H 106.194 -4.47781 1.86325 0
M  V30 1044 H 102.073 -4.56534 0.64016 0
M  V30 1045 H 105.617 -5.81091 3.85978 0
M  V30 1046 H 101.514 -5.89579 2.62805 0
M  V30 1047 H 102.282 -6.85847 4.46717 0
M  V30 1048 N 104.945 -0.338344 -1.53925 0
M  V30 1049 C 106.356 0.146651 -1.86123 0
M  V30 1050 C 106.707 1.5042 -1.2597 0
M  V30 1051 O 105.832 2.08723 -0.571294 0
M  V30 1052 C 106.427 0.272879 -3.37699 0
M  V30 1053 C 104.986 0.702103 -3.69794 0
M  V30 1054 C 104.133 -0.167304 -2.76795 0
M  V30 1055 H 107.084 -0.558123 -1.48562 0
M  V30 1056 H 107.105 1.10128 -3.64214 0
M  V30 1057 H 106.617 -0.715307 -3.81451 0
M  V30 1058 H 104.718 1.6995 -3.31584 0
M  V30 1059 H 104.831 0.495604 -4.7653 0
M  V30 1060 H 103.195 0.359527 -2.5215 0
M  V30 1061 H 103.978 -1.15253 -3.23375 0
M  V30 1062 N 106.423 1.57458 -0.0668435 0
M  V30 1063 C 107.386 2.11323 0.887422 0
M  V30 1064 C 108.386 1.03618 1.22964 0
M  V30 1065 O 109.576 1.29626 1.16373 0
M  V30 1066 C 106.708 2.61048 2.19242 0
M  V30 1067 H 107.901 2.96942 0.420194 0
M  V30 1068 H 105.454 1.55239 0.181793 0
M  V30 1069 H 106.189 1.78868 2.70512 0
M  V30 1070 H 105.974 3.39769 1.95702 0
M  V30 1071 H 107.464 3.02814 2.87565 0
M  V30 1072 N 107.901 -0.206675 1.56239 0
M  V30 1073 C 108.831 -1.25909 1.96645 0
M  V30 1074 C 109.812 -1.48097 0.836734 0
M  V30 1075 O 110.997 -1.6003 1.10019 0
M  V30 1076 C 108.127 -2.6058 2.29599 0
M  V30 1077 C 107.081 -2.53024 3.452 0
M  V30 1078 C 106.407 -3.91861 3.63798 0
M  V30 1079 C 107.707 -2.06524 4.79734 0
M  V30 1080 H 109.401 -0.923369 2.84806 0
M  V30 1081 H 106.947 -0.442735 1.37025 0
M  V30 1082 H 108.9 -3.34375 2.56459 0
M  V30 1083 H 107.624 -2.95869 1.38307 0
M  V30 1084 H 106.283 -1.81684 3.18412 0
M  V30 1085 H 105.931 -4.24483 2.69857 0
M  V30 1086 H 105.631 -3.87683 4.4156 0
M  V30 1087 H 107.155 -4.67296 3.93022 0
M  V30 1088 H 108.569 -2.70072 5.05702 0
M  V30 1089 H 106.966 -2.13374 5.60885 0
M  V30 1090 H 108.036 -1.01802 4.74093 0
M  V30 1091 N 109.379 -1.50304 -0.473955 0
M  V30 1092 C 110.326 -1.68959 -1.57231 0
M  V30 1093 C 111.296 -0.530899 -1.57387 0
M  V30 1094 O 112.481 -0.761133 -1.74961 0
M  V30 1095 C 109.621 -1.7871 -2.95223 0
M  V30 1096 C 108.734 -3.06061 -3.04878 0
M  V30 1097 C 107.869 -3.06626 -4.33767 0
M  V30 1098 C 106.908 -4.28443 -4.37154 0
M  V30 1099 N 106.045 -4.26763 -5.5751 0
M  V30 1100 H 110.885 -2.6273 -1.40631 0
M  V30 1101 H 108.422 -1.30241 -0.683789 0
M  V30 1102 H 110.38 -1.82344 -3.75242 0
M  V30 1103 H 109.01 -0.883806 -3.10465 0
M  V30 1104 H 108.062 -3.11911 -2.17751 0
M  V30 1105 H 109.374 -3.96039 -3.0324 0
M  V30 1106 H 108.528 -3.08973 -5.22131 0
M  V30 1107 H 107.267 -2.14473 -4.3801 0
M  V30 1108 H 106.272 -4.2631 -3.47188 0
M  V30 1109 H 107.497 -5.2182 -4.34605 0
M  V30 1110 H 105.443 -3.37462 -5.62544 0
M  V30 1111 H 105.36 -5.10507 -5.57601 0
M  V30 1112 H 106.628 -4.33253 -6.48006 0
M  V30 1113 N 110.857 0.726932 -1.39834 0
M  V30 1114 C 112.103 1.48771 -1.38704 0
M  V30 1115 C 112.458 1.92394 0.0146387 0
M  V30 1116 O 111.751 1.64474 0.982797 0
M  V30 1117 C 111.945 2.73495 -2.30077 0
M  V30 1118 C 111.774 2.42068 -3.78989 0
M  V30 1119 C 110.544 2.33966 -4.4787 0
M  V30 1120 C 112.742 2.0708 -4.70768 0
M  V30 1121 N 110.724 1.95095 -5.82075 0
M  V30 1122 C 112.095 1.78719 -5.93683 0
M  V30 1123 C 114.15 1.93618 -4.58712 0
M  V30 1124 C 112.853 1.3825 -7.05889 0
M  V30 1125 C 114.879 1.54553 -5.70848 0
M  V30 1126 C 114.241 1.27082 -6.92842 0
M  V30 1127 H 110.34 0.542919 -0.562817 0
M  V30 1128 H 112.924 0.84408 -1.75452 0
M  V30 1129 H 111.095 3.35625 -1.95474 0
M  V30 1130 H 112.827 3.39755 -2.19883 0
M  V30 1131 H 109.582 2.51331 -4.0141 0
M  V30 1132 H 110.006 1.7823 -6.53118 0
M  V30 1133 H 114.648 2.13522 -3.64922 0
M  V30 1134 H 112.366 1.17088 -7.99572 0
M  V30 1135 H 115.952 1.44731 -5.6351 0
M  V30 1136 H 114.832 0.973069 -7.78139 0
M  V30 1137 N 112.336 1.25143 0.95797 0
M  V30 1138 C 113.613 1.00472 1.67823 0
M  V30 1139 C 113.993 -0.470056 2.058 0
M  V30 1140 O 113.341 -1.44663 1.76875 0
M  V30 1141 C 113.551 1.9372 2.90299 0
M  V30 1142 C 114.899 2.21371 3.62326 0
M  V30 1143 O 115.923 1.91451 3.00375 0
M  V30 1144 O 114.782 2.72231 4.7387 0
M  V30 1145 H 111.876 0.380752 0.734137 0
M  V30 1146 H 114.422 1.36283 1.01119 0
M  V30 1147 H 113.194 2.93316 2.59001 0
M  V30 1148 H 112.817 1.58286 3.64735 0
M  V30 1149 N 113.814 -1.1601 1.06675 0
M  V30 1150 C 114.744 -2.22688 0.702307 0
M  V30 1151 C 115.725 -1.67306 -0.307032 0
M  V30 1152 O 116.91 -1.93352 -0.181305 0
M  V30 1153 C 114.04 -3.47178 0.092038 0
M  V30 1154 C 112.994 -4.15477 1.02777 0
M  V30 1155 C 112.32 -5.33963 0.28061 0
M  V30 1156 C 113.62 -4.66019 2.35846 0
M  V30 1157 H 115.314 -2.53429 1.59419 0
M  V30 1158 H 112.86 -1.21813 0.767961 0
M  V30 1159 H 114.813 -4.21037 -0.174814 0
M  V30 1160 H 113.537 -3.15749 -0.834877 0
M  V30 1161 H 112.196 -3.43549 1.27944 0
M  V30 1162 H 111.844 -4.98788 -0.649545 0
M  V30 1163 H 111.544 -5.806 0.904258 0
M  V30 1164 H 113.068 -6.10596 0.021396 0
M  V30 1165 H 114.482 -5.3144 2.15045 0
M  V30 1166 H 112.879 -5.23293 2.93743 0
M  V30 1167 H 113.949 -3.82023 2.98641 0
M  V30 1168 N 115.292 -0.849877 -1.32721 0
M  V30 1169 C 116.202 -0.293791 -2.32753 0
M  V30 1170 C 117.218 0.585906 -1.63839 0
M  V30 1171 O 118.394 0.487413 -1.95413 0
M  V30 1172 C 115.459 0.512752 -3.42887 0
M  V30 1173 C 114.52 -0.39252 -4.27502 0
M  V30 1174 C 113.753 0.375625 -5.32377 0
M  V30 1175 O 113.976 1.60613 -5.4732 0
M  V30 1176 O 112.91 -0.256094 -6.01355 0
M  V30 1177 H 116.736 -1.12242 -2.82197 0
M  V30 1178 H 114.321 -0.612685 -1.36259 0
M  V30 1179 H 116.203 0.970704 -4.10067 0
M  V30 1180 H 114.878 1.31826 -2.95641 0
M  V30 1181 H 113.785 -0.898547 -3.63149 0
M  V30 1182 H 115.118 -1.16309 -4.7826 0
M  V30 1183 N 116.77 1.45427 -0.607355 0
M  V30 1184 C 118 2.06314 -0.108656 0
M  V30 1185 C 118.408 1.45269 1.21217 0
M  V30 1186 O 117.751 0.561115 1.74921 0
M  V30 1187 C 117.813 3.59345 0.105618 0
M  V30 1188 C 117.477 4.42723 -1.13337 0
M  V30 1189 C 118.474 4.77715 -2.05145 0
M  V30 1190 C 116.159 4.83478 -1.36213 0
M  V30 1191 C 118.153 5.52317 -3.18158 0
M  V30 1192 C 115.84 5.57835 -2.49527 0
M  V30 1193 C 116.838 5.92171 -3.40327 0
M  V30 1194 O 116.526 6.65019 -4.51669 0
M  V30 1195 H 116.258 0.672782 -0.0658842 0
M  V30 1196 H 118.812 1.87664 -0.834945 0
M  V30 1197 H 117.042 3.76394 0.886796 0
M  V30 1198 H 118.731 4.02076 0.555886 0
M  V30 1199 H 119.497 4.46787 -1.88697 0
M  V30 1200 H 115.376 4.56188 -0.664362 0
M  V30 1201 H 118.92 5.79036 -3.89054 0
M  V30 1202 H 114.817 5.88177 -2.65928 0
M  V30 1203 H 115.585 6.83469 -4.50348 0
M  V30 1204 N 118.248 0.346503 1.53744 0
M  V30 1205 C 119.178 -0.501193 2.28058 0
M  V30 1206 C 120.159 -1.10014 1.29734 0
M  V30 1207 O 121.344 -1.12097 1.58581 0
M  V30 1208 C 118.474 -1.65078 3.05559 0
M  V30 1209 C 117.428 -1.18003 4.11411 0
M  V30 1210 C 116.754 -2.41837 4.76884 0
M  V30 1211 C 118.054 -0.278394 5.21558 0
M  V30 1212 H 119.748 0.11875 2.99164 0
M  V30 1213 H 117.294 0.0585531 1.43881 0
M  V30 1214 H 119.247 -2.25028 3.56287 0
M  V30 1215 H 117.971 -2.29767 2.32109 0
M  V30 1216 H 116.63 -0.603331 3.61601 0
M  V30 1217 H 116.278 -3.0494 4.00026 0
M  V30 1218 H 115.978 -2.1102 5.48402 0
M  V30 1219 H 117.502 -3.02508 5.30397 0
M  V30 1220 H 118.916 -0.784823 5.67903 0
M  V30 1221 H 117.313 -0.0619707 6.00068 0
M  V30 1222 H 118.383 0.684677 4.80042 0
M  V30 1223 N 119.726 -1.57421 0.075193 0
M  V30 1224 C 120.658 -2.09904 -0.920483 0
M  V30 1225 C 121.671 -1.03191 -1.25918 0
M  V30 1226 O 122.86 -1.30695 -1.21577 0
M  V30 1227 C 119.96 -2.54726 -2.23534 0
M  V30 1228 C 119.133 -3.8505 -2.07498 0
M  V30 1229 C 118.192 -4.15929 -3.22319 0
M  V30 1230 O 117.218 -4.85474 -2.9716 0
M  V30 1231 N 118.42 -3.69745 -4.47514 0
M  V30 1232 H 121.185 -2.95954 -0.472359 0
M  V30 1233 H 118.746 -1.61523 -0.110444 0
M  V30 1234 H 120.738 -2.72443 -2.9926 0
M  V30 1235 H 119.308 -1.73795 -2.59835 0
M  V30 1236 H 118.528 -3.76679 -1.16219 0
M  V30 1237 H 119.816 -4.70348 -1.94038 0
M  V30 1238 H 119.214 -3.13569 -4.7084 0
M  V30 1239 H 117.771 -3.92655 -5.20255 0
M  V30 1240 N 121.204 0.198386 -1.56346 0
M  V30 1241 C 122.114 1.2664 -1.97483 0
M  V30 1242 C 123.13 1.49989 -0.882002 0
M  V30 1243 O 124.306 1.62668 -1.18748 0
M  V30 1244 C 121.371 2.59141 -2.30319 0
M  V30 1245 C 120.432 2.43892 -3.53292 0
M  V30 1246 C 119.665 3.70074 -3.84553 0
M  V30 1247 O 119.888 4.74101 -3.1715 0
M  V30 1248 O 118.822 3.658 -4.7799 0
M  V30 1249 H 122.648 0.947304 -2.88548 0
M  V30 1250 H 120.233 0.403123 -1.43859 0
M  V30 1251 H 122.115 3.37352 -2.5253 0
M  V30 1252 H 120.79 2.90684 -1.42423 0
M  V30 1253 H 119.697 1.63803 -3.36332 0
M  V30 1254 H 121.03 2.17282 -4.41644 0
M  V30 1255 N 122.682 1.50554 0.465978 0
M  V30 1256 C 123.63 1.70324 1.58406 0
M  V30 1257 C 124.624 0.569139 1.59553 0
M  V30 1258 O 125.83 0.749776 1.63641 0
M  V30 1259 H 122.205 0.537688 0.525734 0
M  V30 1260 H 124.176 2.64104 1.38894 0
M  V30 1261 C 122.925 1.81928 2.96307 0
M  V30 1262 H 122.248 2.68586 2.96144 0
M  V30 1263 H 123.688 1.99784 3.73982 0
M  V30 1264 C 122.147 0.572095 3.32007 0
M  V30 1265 O 122.677 -0.286416 4.00678 0
M  V30 1266 N 120.883 0.424606 2.87481 0
M  V30 1267 H 120.43 1.12427 2.31771 0
M  V30 1268 H 120.388 -0.408697 3.11732 0
M  V30 1269 N 124.16 -0.719506 1.40217 0
M  V30 1270 C 125.409 -1.47486 1.37589 0
M  V30 1271 C 125.722 -1.9559 -0.0201568 0
M  V30 1272 O 126.928 -2.70973 -0.169049 0
M  V30 1273 C 125.384 -2.66575 2.41796 0
M  V30 1274 C 124.992 -2.25358 3.87192 0
M  V30 1275 C 126.736 -3.4433 2.48269 0
M  V30 1276 C 124.643 -3.41262 4.83005 0
M  V30 1277 H 123.573 -0.553901 0.511576 0
M  V30 1278 H 126.224 -0.783427 1.65936 0
M  V30 1279 H 124.606 -3.3787 2.06543 0
M  V30 1280 H 125.78 -1.61509 4.31569 0
M  V30 1281 H 124.095 -1.60657 3.84159 0
M  V30 1282 H 126.692 -4.30569 3.17041 0
M  V30 1283 H 127.035 -3.87872 1.51198 0
M  V30 1284 H 127.568 -2.80076 2.82493 0
M  V30 1285 H 124.307 -3.02755 5.81394 0
M  V30 1286 H 123.827 -4.0404 4.43297 0
M  V30 1287 H 125.506 -4.07383 5.02641 0
M  V30 1288 N 125.638 -1.25649 -0.95132 0
M  V30 1289 C 126.886 -1.10375 -1.69298 0
M  V30 1290 C 127.207 0.355339 -1.91735 0
M  V30 1291 O 126.477 1.25188 -1.50681 0
M  V30 1292 H 125.057 -0.405461 -0.627384 0
M  V30 1293 H 127.719 -1.57823 -1.14358 0
M  V30 1294 H 126.815 -1.61465 -2.67087 0
M  V30 1295 N 127.117 1.15442 -1.07289 0
M  V30 1296 C 128.065 2.22225 -0.686952 0
M  V30 1297 C 129.059 1.66688 0.30193 0
M  V30 1298 O 130.265 1.79236 0.165712 0
M  V30 1299 H 126.64 0.723783 -0.204064 0
M  V30 1300 H 128.611 2.52056 -1.5972 0
M  V30 1301 C 127.36 3.47556 -0.100149 0
M  V30 1302 H 126.683 3.90612 -0.852211 0
M  V30 1303 H 128.123 4.23794 0.132235 0
M  V30 1304 C 126.582 3.16337 1.159 0
M  V30 1305 O 127.112 3.33074 2.24555 0
M  V30 1306 N 125.318 2.70385 1.06491 0
M  V30 1307 H 124.865 2.56966 0.180668 0
M  V30 1308 H 124.823 2.49871 1.90819 0
M  V30 1309 N 128.595 0.856903 1.32268 0
M  V30 1310 C 129.843 0.460474 1.96784 0
M  V30 1311 C 130.164 -0.987701 1.68135 0
M  V30 1312 O 129.434 -1.69058 0.989765 0
M  V30 1313 H 128.014 0.167289 0.728027 0
M  V30 1314 H 130.676 1.09383 1.61312 0
M  V30 1315 H 129.772 0.60739 3.06133 0
M  V30 1316 N 130.073 -1.45103 0.615059 0
M  V30 1317 C 131.35 -1.95549 0.0448276 0
M  V30 1318 C 131.73 -1.55737 -1.4251 0
M  V30 1319 O 131.078 -0.823556 -2.13143 0
M  V30 1320 C 131.288 -3.48098 0.250785 0
M  V30 1321 C 132.636 -4.24384 0.135509 0
M  V30 1322 O 133.66 -3.55738 0.181299 0
M  V30 1323 O 132.519 -5.46493 0.0268878 0
M  V30 1324 H 129.613 -0.8264 -0.0314845 0
M  V30 1325 H 132.159 -1.55232 0.685642 0
M  V30 1326 H 130.931 -3.7007 1.27139 0
M  V30 1327 H 130.554 -3.95323 -0.424937 0
M  V30 1328 N 131.551 -0.354651 -1.53558 0
M  V30 1329 C 132.798 0.238443 -2.01091 0
M  V30 1330 C 133.126 1.49663 -1.24222 0
M  V30 1331 O 132.381 1.93049 -0.321003 0
M  V30 1332 C 132.68 0.587121 -3.52545 0
M  V30 1333 C 132.346 -0.575472 -4.47213 0
M  V30 1334 C 131.008 -0.894497 -4.72813 0
M  V30 1335 C 133.36 -1.35489 -5.03281 0
M  V30 1336 C 130.688 -1.99511 -5.51736 0
M  V30 1337 C 133.04 -2.44583 -5.83405 0
M  V30 1338 C 131.704 -2.77033 -6.07296 0
M  V30 1339 H 130.974 0.0872526 -0.735845 0
M  V30 1340 H 133.621 -0.484859 -1.8526 0
M  V30 1341 H 131.926 1.39129 -3.66265 0
M  V30 1342 H 133.623 1.05809 -3.86789 0
M  V30 1343 H 130.213 -0.316774 -4.27428 0
M  V30 1344 H 134.397 -1.12167 -4.83459 0
M  V30 1345 H 129.653 -2.25063 -5.68469 0
M  V30 1346 H 133.827 -3.05401 -6.25862 0
M  V30 1347 H 131.454 -3.6244 -6.68237 0
M  V30 1348 N 133.029 1.57378 -0.0835403 0
M  V30 1349 C 134.254 1.98682 0.594987 0
M  V30 1350 C 134.679 0.961969 1.61641 0
M  V30 1351 O 134.037 -0.0709989 1.81161 0
M  V30 1352 C 134.085 3.38988 1.2296 0
M  V30 1353 O 133.189 3.39208 2.34546 0
M  V30 1354 H 132.53 0.646368 0.152002 0
M  V30 1355 H 135.06 2.03961 -0.161533 0
M  V30 1356 H 135.07 3.76431 1.57366 0
M  V30 1357 H 133.745 4.13107 0.481228 0
M  V30 1358 H 132.322 3.13548 2.01846 0
M  V30 1359 N 134.507 -0.190092 1.56449 0
M  V30 1360 C 135.753 -0.911052 1.81184 0
M  V30 1361 C 136.086 -1.82699 0.658396 0
M  V30 1362 O 135.361 -1.91491 -0.340775 0
M  V30 1363 C 135.644 -1.72297 3.16205 0
M  V30 1364 C 135.497 -0.831419 4.42049 0
M  V30 1365 C 136.816 -2.69454 3.47969 0
M  V30 1366 H 133.935 -0.32977 0.659106 0
M  V30 1367 H 136.577 -0.178169 1.89163 0
M  V30 1368 H 134.727 -2.34778 3.09534 0
M  V30 1369 H 136.399 -0.220929 4.60771 0
M  V30 1370 H 134.642 -0.138406 4.33579 0
M  V30 1371 H 135.313 -1.43461 5.33032 0
M  V30 1372 H 137.789 -2.17104 3.54972 0
M  V30 1373 H 136.665 -3.23342 4.43555 0
M  V30 1374 H 136.926 -3.48744 2.71717 0
M  V30 1375 N 135.985 -1.50799 -0.457987 0
M  V30 1376 C 137.215 -1.65977 -1.23025 0
M  V30 1377 C 137.623 -0.347918 -1.85974 0
M  V30 1378 O 136.966 0.68148 -1.70592 0
M  V30 1379 C 137.028 -2.70309 -2.3701 0
M  V30 1380 C 136.692 -4.135 -1.94594 0
M  V30 1381 C 137.689 -4.98949 -1.46101 0
M  V30 1382 C 135.374 -4.5949 -2.02915 0
M  V30 1383 C 137.368 -6.28442 -1.06489 0
M  V30 1384 C 135.055 -5.88984 -1.62914 0
M  V30 1385 C 136.053 -6.73286 -1.1478 0
M  V30 1386 O 135.741 -8.00362 -0.75339 0
M  V30 1387 H 135.473 -0.56064 -0.377702 0
M  V30 1388 H 138.027 -1.97857 -0.551537 0
M  V30 1389 H 136.257 -2.337 -3.08093 0
M  V30 1390 H 137.946 -2.74574 -2.98938 0
M  V30 1391 H 138.712 -4.6463 -1.39084 0
M  V30 1392 H 134.591 -3.94009 -2.39328 0
M  V30 1393 H 138.135 -6.94194 -0.688488 0
M  V30 1394 H 134.032 -6.22822 -1.69595 0
M  V30 1395 H 134.8 -8.13744 -0.88108 0
M  V30 1396 N 137.463 0.71206 -1.40597 0
M  V30 1397 C 138.688 1.50617 -1.42581 0
M  V30 1398 C 139.113 1.88079 -0.0282102 0
M  V30 1399 O 138.471 1.53511 0.964579 0
M  V30 1400 C 138.519 2.7557 -2.3258 0
M  V30 1401 O 137.623 3.72414 -1.77148 0
M  V30 1402 H 136.964 0.453966 -0.484573 0
M  V30 1403 H 139.494 0.876649 -1.84868 0
M  V30 1404 H 139.504 3.2406 -2.47889 0
M  V30 1405 H 138.179 2.47639 -3.34138 0
M  V30 1406 H 136.756 3.31276 -1.71204 0
M  V30 1407 N 138.941 1.26152 0.944643 0
M  V30 1408 C 139.904 1.07474 2.0244 0
M  V30 1409 C 140.904 0.0242064 1.60782 0
M  V30 1410 O 142.094 0.267302 1.72137 0
M  V30 1411 C 139.226 0.633956 3.34953 0
M  V30 1412 H 140.419 2.03336 2.20442 0
M  V30 1413 H 137.972 1.087 1.12312 0
M  V30 1414 H 138.707 -0.326811 3.22649 0
M  V30 1415 H 138.492 1.39247 3.66542 0
M  V30 1416 H 139.982 0.52501 4.14287 0
M  V30 1417 N 140.419 -1.14872 1.07899 0
M  V30 1418 C 141.644 -1.90202 0.826926 0
M  V30 1419 C 142.069 -1.77774 -0.614664 0
M  V30 1420 O 141.427 -1.11431 -1.43013 0
M  V30 1421 C 141.475 -3.38352 1.24702 0
M  V30 1422 O 140.579 -4.10497 0.39575 0
M  V30 1423 H 139.92 -0.591968 0.300782 0
M  V30 1424 H 142.45 -1.45437 1.43907 0
M  V30 1425 H 142.46 -3.89156 1.22563 0
M  V30 1426 H 141.135 -3.46715 2.29698 0
M  V30 1427 H 139.712 -3.69796 0.480117 0
M  V30 1428 N 141.898 -0.863906 -1.31812 0
M  V30 1429 C 143.126 -0.486111 -2.01108 0
M  V30 1430 C 143.541 0.919755 -1.64882 0
M  V30 1431 O 142.898 1.60162 -0.874893 0
M  V30 1432 C 142.949 -0.626435 -3.56031 0
M  V30 1433 O 142.67 -1.97693 -3.90959 0
M  V30 1434 C 144.171 -0.248857 -4.42601 0
M  V30 1435 H 141.391 -0.190052 -0.643523 0
M  V30 1436 H 143.935 -1.1634 -1.68182 0
M  V30 1437 H 142.09 0.00322717 -3.874 0
M  V30 1438 H 142.504 -1.98034 -4.85678 0
M  V30 1439 H 143.978 -0.398016 -5.50563 0
M  V30 1440 H 144.455 0.811489 -4.31638 0
M  V30 1441 H 145.061 -0.853971 -4.16638 0
M  V30 1442 N 143.376 1.44774 -0.622745 0
M  V30 1443 C 144.326 2.2774 0.108889 0
M  V30 1444 C 145.31 1.38189 0.824175 0
M  V30 1445 O 146.502 1.62063 0.711664 0
M  V30 1446 C 143.631 3.25353 1.09546 0
M  V30 1447 C 142.717 4.22392 0.380232 0
M  V30 1448 N 143.108 5.02388 -0.586535 0
M  V30 1449 C 141.406 4.41588 0.625792 0
M  V30 1450 C 142.107 5.72894 -1.00834 0
M  V30 1451 N 141.083 5.42479 -0.348878 0
M  V30 1452 H 144.885 2.86993 -0.63341 0
M  V30 1453 H 142.399 1.5611 -0.447589 0
M  V30 1454 H 144.396 3.83538 1.63414 0
M  V30 1455 H 143.056 2.6766 1.83815 0
M  V30 1456 H 144.067 5.0885 -0.963975 0
M  V30 1457 H 140.744 3.95003 1.352 0
M  V30 1458 H 142.134 6.47158 -1.80656 0
M  V30 1459 N 144.854 0.36279 1.53368 0
M  V30 1460 C 145.801 -0.485008 2.25646 0
M  V30 1461 C 146.771 -1.07982 1.2621 0
M  V30 1462 O 147.956 -1.11284 1.54986 0
M  V30 1463 C 145.096 -1.62023 3.04701 0
M  V30 1464 C 144.209 -1.05086 4.19024 0
M  V30 1465 C 143.344 -2.15496 4.85525 0
M  V30 1466 C 142.383 -1.5601 5.91884 0
M  V30 1467 N 141.52 -2.60241 6.52088 0
M  V30 1468 H 146.36 0.137864 2.97681 0
M  V30 1469 H 143.897 0.0798061 1.46883 0
M  V30 1470 H 145.855 -2.28887 3.48807 0
M  V30 1471 H 144.485 -2.2138 2.34927 0
M  V30 1472 H 143.537 -0.27259 3.79422 0
M  V30 1473 H 144.849 -0.575926 4.95464 0
M  V30 1474 H 144.003 -2.90186 5.32801 0
M  V30 1475 H 142.742 -2.66341 4.08551 0
M  V30 1476 H 141.747 -0.798338 5.43973 0
M  V30 1477 H 142.972 -1.05994 6.70777 0
M  V30 1478 H 140.918 -3.10304 5.77968 0
M  V30 1479 H 140.835 -2.17426 7.24059 0
M  V30 1480 H 142.103 -3.34641 7.04014 0
M  V30 1481 N 146.332 -1.57332 0.0918853 0
M  V30 1482 C 147.579 -1.94236 -0.572577 0
M  V30 1483 C 147.907 -0.973398 -1.6839 0
M  V30 1484 O 147.162 0.00756912 -1.95699 0
M  V30 1485 C 147.461 -3.37689 -1.17051 0
M  V30 1486 C 147.127 -4.50527 -0.183304 0
M  V30 1487 C 145.789 -4.81119 0.0882276 0
M  V30 1488 C 148.141 -5.18883 0.49095 0
M  V30 1489 C 145.469 -5.77395 1.04076 0
M  V30 1490 C 147.821 -6.1618 1.43193 0
M  V30 1491 C 146.485 -6.45179 1.71173 0
M  V30 1492 H 145.755 -0.710762 -0.209521 0
M  V30 1493 H 148.402 -1.9077 0.167036 0
M  V30 1494 H 146.707 -3.37718 -1.9863 0
M  V30 1495 H 148.404 -3.63543 -1.69227 0
M  V30 1496 H 144.994 -4.26681 -0.405124 0
M  V30 1497 H 149.178 -4.95427 0.294312 0
M  V30 1498 H 144.434 -5.98179 1.26457 0
M  V30 1499 H 148.608 -6.68243 1.96023 0
M  V30 1500 H 146.235 -7.1959 2.4514 0
M  V30 1501 N 147.81 0.181792 -1.56548 0
M  V30 1502 C 148.74 1.22765 -1.98623 0
M  V30 1503 C 149.721 1.46747 -0.860189 0
M  V30 1504 O 150.906 1.58259 -1.12551 0
M  V30 1505 C 148.036 2.56894 -2.33715 0
M  V30 1506 C 146.99 2.475 -3.49182 0
M  V30 1507 C 146.316 3.86023 -3.69986 0
M  V30 1508 C 147.616 1.98866 -4.82959 0
M  V30 1509 H 149.31 0.877942 -2.86239 0
M  V30 1510 H 146.856 0.42088 -1.37712 0
M  V30 1511 H 148.809 3.30253 -2.61746 0
M  V30 1512 H 147.533 2.93632 -1.42997 0
M  V30 1513 H 146.192 1.76596 -3.21262 0
M  V30 1514 H 145.84 4.20136 -2.76576 0
M  V30 1515 H 145.54 3.80609 -4.47672 0
M  V30 1516 H 147.064 4.60984 -4.00407 0
M  V30 1517 H 148.478 2.61992 -5.09934 0
M  V30 1518 H 146.875 2.04424 -5.64208 0
M  V30 1519 H 147.945 0.942465 -4.75653 0
M  V30 1520 N 149.288 1.51039 0.449983 0
M  V30 1521 C 150.518 1.66627 1.22143 0
M  V30 1522 C 150.926 0.357776 1.85786 0
M  V30 1523 O 150.269 -0.672424 1.70951 0
M  V30 1524 C 150.331 2.71562 2.35573 0
M  V30 1525 C 149.995 4.14526 1.92399 0
M  V30 1526 C 150.992 4.99717 1.43453 0
M  V30 1527 C 148.677 4.60559 2.00475 0
M  V30 1528 C 150.671 6.28998 1.03155 0
M  V30 1529 C 148.358 5.8984 1.59788 0
M  V30 1530 C 149.356 6.73886 1.11208 0
M  V30 1531 O 149.044 8.0075 0.710935 0
M  V30 1532 H 148.776 0.562635 0.374724 0
M  V30 1533 H 151.33 1.98146 0.541036 0
M  V30 1534 H 149.56 2.3533 3.06849 0
M  V30 1535 H 151.249 2.76156 2.97478 0
M  V30 1536 H 152.015 4.65361 1.36618 0
M  V30 1537 H 147.894 3.95273 2.37235 0
M  V30 1538 H 151.438 6.9455 0.651663 0
M  V30 1539 H 147.335 6.23713 1.66289 0
M  V30 1540 H 148.103 8.142 0.837913 0
M  V30 1541 N 150.766 -0.704594 1.40972 0
M  V30 1542 C 151.996 -1.49138 1.42974 0
M  V30 1543 C 152.404 -1.89175 0.0308406 0
M  V30 1544 O 151.747 -1.56734 -0.958138 0
M  V30 1545 C 151.809 -2.79016 2.26694 0
M  V30 1546 C 151.473 -2.61236 3.74973 0
M  V30 1547 C 152.47 -2.27773 4.67349 0
M  V30 1548 C 150.155 -2.77158 4.18914 0
M  V30 1549 C 152.149 -2.10457 6.01653 0
M  V30 1550 C 149.836 -2.59459 5.53285 0
M  V30 1551 C 150.834 -2.26158 6.4447 0
M  V30 1552 O 150.522 -2.08605 7.76363 0
M  V30 1553 H 150.254 -0.466443 0.489292 0
M  V30 1554 H 152.808 -0.8758 1.85793 0
M  V30 1555 H 151.038 -3.42947 1.78673 0
M  V30 1556 H 152.727 -3.40782 2.20504 0
M  V30 1557 H 153.493 -2.15095 4.34694 0
M  V30 1558 H 149.372 -3.02064 3.48251 0
M  V30 1559 H 152.916 -1.84387 6.72791 0
M  V30 1560 H 148.813 -2.71725 5.85522 0
M  V30 1561 H 149.581 -2.23439 7.87412 0
M  V30 1562 N 152.244 -1.26651 -0.937939 0
M  V30 1563 C 153.521 -1.0313 -1.66204 0
M  V30 1564 C 153.901 0.437256 -2.06522 0
M  V30 1565 O 153.249 1.41831 -1.79154 0
M  V30 1566 C 153.459 -1.98314 -2.87181 0
M  V30 1567 C 154.807 -2.27107 -3.58758 0
M  V30 1568 O 155.831 -1.96205 -2.97291 0
M  V30 1569 O 154.69 -2.79736 -4.69479 0
M  V30 1570 H 151.784 -0.392384 -0.727986 0
M  V30 1571 H 154.33 -1.37874 -0.989382 0
M  V30 1572 H 153.102 -2.97399 -2.54302 0
M  V30 1573 H 152.725 -1.64068 -3.6217 0
M  V30 1574 N 153.722 1.14298 -1.08507 0
M  V30 1575 C 154.632 2.23027 -0.727753 0
M  V30 1576 C 155.648 1.71952 0.26619 0
M  V30 1577 O 156.824 2.011 0.109882 0
M  V30 1578 C 153.889 3.46403 -0.143541 0
M  V30 1579 C 152.95 4.12413 -1.19223 0
M  V30 1580 C 152.183 5.29899 -0.635798 0
M  V30 1581 O 152.406 5.67796 0.544393 0
M  V30 1582 O 151.34 5.85717 -1.38634 0
M  V30 1583 H 155.166 2.55945 -1.63481 0
M  V30 1584 H 152.751 1.22248 -0.858817 0
M  V30 1585 H 154.633 4.21018 0.179404 0
M  V30 1586 H 153.308 3.15206 0.736659 0
M  V30 1587 H 152.215 3.39667 -1.56772 0
M  V30 1588 H 153.548 4.47718 -2.04474 0
M  V30 1589 N 155.201 0.870884 1.31352 0
M  V30 1590 C 156.148 0.325425 2.28494 0
M  V30 1591 C 157.118 -0.576615 1.5577 0
M  V30 1592 O 158.303 -0.508059 1.83911 0
M  V30 1593 C 155.443 -0.466283 3.41935 0
M  V30 1594 C 154.556 0.463378 4.29508 0
M  V30 1595 C 153.691 -0.342544 5.30094 0
M  V30 1596 C 152.73 0.583486 6.09313 0
M  V30 1597 N 151.867 -0.186244 7.01853 0
M  V30 1598 H 156.707 1.15901 2.74538 0
M  V30 1599 H 154.244 0.58294 1.35056 0
M  V30 1600 H 156.202 -0.941085 4.06447 0
M  V30 1601 H 154.832 -1.26456 2.97 0
M  V30 1602 H 153.884 1.05663 3.65431 0
M  V30 1603 H 155.196 1.1734 4.84802 0
M  V30 1604 H 154.35 -0.879816 6.00287 0
M  V30 1605 H 153.089 -1.08585 4.75458 0
M  V30 1606 H 152.094 1.13251 5.3801 0
M  V30 1607 H 153.319 1.32566 6.66035 0
M  V30 1608 H 151.265 -0.912348 6.49625 0
M  V30 1609 H 151.182 0.464422 7.54572 0
M  V30 1610 H 152.45 -0.704716 7.76308 0
M  V30 1611 N 156.679 -1.44442 0.630414 0
M  V30 1612 C 157.626 -2.30678 -0.0749355 0
M  V30 1613 C 158.596 -1.4344 -0.837502 0
M  V30 1614 O 159.781 -1.72343 -0.818684 0
M  V30 1615 C 156.921 -3.28706 -1.05103 0
M  V30 1616 C 156.034 -4.31046 -0.286954 0
M  V30 1617 C 155.169 -5.16167 -1.2548 0
M  V30 1618 C 154.208 -6.10216 -0.479843 0
M  V30 1619 N 153.345 -6.88039 -1.39811 0
M  V30 1620 H 158.185 -2.90454 0.666386 0
M  V30 1621 H 155.722 -1.43107 0.340404 0
M  V30 1622 H 157.68 -3.84027 -1.63031 0
M  V30 1623 H 156.31 -2.70632 -1.75949 0
M  V30 1624 H 155.362 -3.78203 0.408243 0
M  V30 1625 H 156.674 -4.97794 0.316657 0
M  V30 1626 H 155.828 -5.76002 -1.90544 0
M  V30 1627 H 154.567 -4.49491 -1.89233 0
M  V30 1628 H 153.572 -5.49491 0.184295 0
M  V30 1629 H 154.797 -6.78928 0.152965 0
M  V30 1630 H 152.743 -6.24032 -2.02287 0
M  V30 1631 H 152.66 -7.51223 -0.848508 0
M  V30 1632 H 153.928 -7.52397 -2.03762 0
M  V30 1633 N 158.157 -0.370918 -1.53173 0
M  V30 1634 C 159.09 0.516727 -2.22273 0
M  V30 1635 C 160.068 1.07877 -1.21661 0
M  V30 1636 O 161.252 1.13389 -1.50583 0
M  V30 1637 C 158.379 1.71346 -2.92161 0
M  V30 1638 C 157.425 1.27838 -4.0689 0
M  V30 1639 S 158.258 0.275217 -5.34792 0
M  V30 1640 C 159.414 1.47816 -6.08195 0
M  V30 1641 H 159.647 -0.0701054 -2.97217 0
M  V30 1642 H 157.18 -0.155038 -1.5362 0
M  V30 1643 H 159.138 2.39988 -3.3304 0
M  V30 1644 H 157.799 2.27156 -2.16931 0
M  V30 1645 H 156.992 2.17141 -4.54825 0
M  V30 1646 H 156.594 0.671105 -3.6793 0
M  V30 1647 H 158.886 2.40831 -6.33251 0
M  V30 1648 H 159.829 1.04008 -7.0042 0
M  V30 1649 H 160.237 1.68663 -5.38714 0
M  V30 1650 N 159.635 1.57281 -0.100228 0
M  V30 1651 C 160.598 2.13158 0.842398 0
M  V30 1652 C 161.598 1.06202 1.20738 0
M  V30 1653 O 162.788 1.32066 1.13597 0
M  V30 1654 C 159.92 2.65639 2.13655 0
M  V30 1655 H 161.113 2.97766 0.357114 0
M  V30 1656 H 158.666 1.5559 0.148823 0
M  V30 1657 H 159.401 1.84566 2.66657 0
M  V30 1658 H 159.186 3.43844 1.88451 0
M  V30 1659 H 160.676 3.08846 2.81077 0
M  V30 1660 N 161.113 -0.173488 1.56642 0
M  V30 1661 C 162.061 -1.23417 1.97157 0
M  V30 1662 C 163.055 -1.45946 0.860013 0
M  V30 1663 O 164.261 -1.46551 1.04512 0
M  V30 1664 H 160.636 -0.414818 0.62724 0
M  V30 1665 H 162.607 -0.865582 2.8557 0
M  V30 1666 C 161.356 -2.5665 2.34576 0
M  V30 1667 H 160.679 -2.40137 3.19647 0
M  V30 1668 H 162.119 -3.2956 2.6677 0
M  V30 1669 C 160.578 -3.15245 1.18836 0
M  V30 1670 O 161.108 -3.98883 0.474869 0
M  V30 1671 N 159.314 -2.74303 0.959497 0
M  V30 1672 H 158.861 -2.0639 1.54146 0
M  V30 1673 H 158.819 -3.13844 0.186932 0
M  V30 1674 N 162.591 -1.51276 -0.441967 0
M  V30 1675 C 163.838 -1.63715 -1.19179 0
M  V30 1676 C 164.166 -0.351175 -1.91303 0
M  V30 1677 O 163.421 0.664524 -1.84072 0
M  V30 1678 C 163.72 -2.78746 -2.23686 0
M  V30 1679 C 163.386 -4.18189 -1.68607 0
M  V30 1680 C 162.048 -4.56125 -1.53308 0
M  V30 1681 C 164.4 -5.05222 -1.28062 0
M  V30 1682 C 161.728 -5.78804 -0.959317 0
M  V30 1683 C 164.08 -6.28476 -0.721162 0
M  V30 1684 C 162.744 -6.65188 -0.55504 0
M  V30 1685 H 162.014 -0.599076 -0.436106 0
M  V30 1686 H 164.661 -1.85296 -0.48351 0
M  V30 1687 H 162.966 -2.51369 -3.00535 0
M  V30 1688 H 164.663 -2.8557 -2.81515 0
M  V30 1689 H 161.253 -3.88277 -1.8149 0
M  V30 1690 H 165.437 -4.76524 -1.38704 0
M  V30 1691 H 160.693 -6.05899 -0.81833 0
M  V30 1692 H 164.867 -6.95259 -0.398458 0
M  V30 1693 H 162.494 -7.60123 -0.108311 0
M  V30 1694 N 164.069 0.697108 -1.41344 0
M  V30 1695 C 165.001 1.8224 -1.39001 0
M  V30 1696 C 166.014 1.60152 -0.292428 0
M  V30 1697 O 167.203 1.69684 -0.554048 0
M  V30 1698 C 164.303 3.18976 -1.14489 0
M  V30 1699 C 163.476 3.68105 -2.36258 0
M  V30 1700 C 162.535 4.83506 -2.07625 0
M  V30 1701 O 161.561 4.95201 -2.8065 0
M  V30 1702 N 162.763 5.70637 -1.06555 0
M  V30 1703 H 165.528 1.84742 -2.35988 0
M  V30 1704 H 163.089 0.87937 -1.35936 0
M  V30 1705 H 165.081 3.93801 -0.932885 0
M  V30 1706 H 163.651 3.11508 -0.261043 0
M  V30 1707 H 162.871 2.84204 -2.7317 0
M  V30 1708 H 164.159 3.97667 -3.17393 0
M  V30 1709 H 163.557 5.63817 -0.461125 0
M  V30 1710 H 162.114 6.45368 -0.913444 0
M  V30 1711 N 165.547 1.27147 0.931209 0
M  V30 1712 C 166.495 1.09398 2.05268 0
M  V30 1713 C 167.489 0.0180591 1.6939 0
M  V30 1714 O 168.695 0.17551 1.79142 0
M  V30 1715 H 165.07 0.336986 0.672268 0
M  V30 1716 H 167.041 2.04416 2.17386 0
M  V30 1717 C 165.79 0.75424 3.39421 0
M  V30 1718 H 165.113 1.57404 3.67511 0
M  V30 1719 H 166.553 0.669903 4.18674 0
M  V30 1720 C 165.012 -0.541197 3.32525 0
M  V30 1721 O 165.542 -1.57664 3.69466 0
M  V30 1722 N 163.748 -0.535517 2.85623 0
M  V30 1723 H 163.295 0.307511 2.55758 0
M  V30 1724 H 163.253 -1.40236 2.81392 0
M  V30 1725 N 167.025 -1.13721 1.09112 0
M  V30 1726 C 168.272 -1.84924 0.825192 0
M  V30 1727 C 168.6 -1.83347 -0.649151 0
M  V30 1728 O 167.855 -1.26449 -1.49362 0
M  V30 1729 C 168.154 -3.32861 1.30146 0
M  V30 1730 C 167.82 -3.54621 2.78486 0
M  V30 1731 C 166.482 -3.60268 3.18999 0
M  V30 1732 C 168.834 -3.62855 3.74146 0
M  V30 1733 C 166.162 -3.71679 4.53951 0
M  V30 1734 C 168.514 -3.75793 5.08883 0
M  V30 1735 C 167.178 -3.79692 5.4899 0
M  V30 1736 H 166.448 -0.676684 0.301959 0
M  V30 1737 H 169.095 -1.3428 1.36533 0
M  V30 1738 H 167.4 -3.85835 0.681064 0
M  V30 1739 H 169.097 -3.86395 1.07236 0
M  V30 1740 H 165.687 -3.50879 2.46134 0
M  V30 1741 H 169.871 -3.57775 3.43963 0
M  V30 1742 H 165.127 -3.72963 4.84467 0
M  V30 1743 H 169.301 -3.81107 5.82864 0
M  V30 1744 H 166.928 -3.88287 6.53558 0
M  V30 1745 N 168.503 -0.877838 -1.30888 0
M  V30 1746 C 169.45 -0.337538 -2.28318 0
M  V30 1747 C 170.42 0.568346 -1.56074 0
M  V30 1748 O 171.605 0.498298 -1.84178 0
M  V30 1749 C 168.745 0.448142 -3.42178 0
M  V30 1750 C 167.858 -0.48615 -4.29256 0
M  V30 1751 C 166.993 0.314427 -5.30269 0
M  V30 1752 C 166.032 -0.615791 -6.08995 0
M  V30 1753 N 165.169 0.14902 -7.01942 0
M  V30 1754 H 170.009 -1.17356 -2.73919 0
M  V30 1755 H 167.546 -0.590094 -1.34745 0
M  V30 1756 H 169.504 0.919517 -4.06941 0
M  V30 1757 H 168.134 1.24879 -2.97666 0
M  V30 1758 H 167.186 -1.076 -3.64865 0
M  V30 1759 H 168.498 -1.19909 -4.84173 0
M  V30 1760 H 167.652 0.847969 -6.00745 0
M  V30 1761 H 166.391 1.06062 -4.76027 0
M  V30 1762 H 165.396 -1.16102 -5.37401 0
M  V30 1763 H 166.621 -1.36097 -6.65323 0
M  V30 1764 H 164.567 0.877884 -6.50099 0
M  V30 1765 H 164.484 -0.504433 -7.54315 0
M  V30 1766 H 165.752 0.663537 -7.76671 0
M  V30 1767 N 169.982 1.44106 -0.638065 0
M  V30 1768 C 171.393 1.85316 -0.226894 0
M  V30 1769 C 171.744 1.53399 1.22324 0
M  V30 1770 O 170.869 0.975463 1.93167 0
M  V30 1771 C 171.464 3.3637 -0.405013 0
M  V30 1772 C 170.023 3.76369 -0.0482902 0
M  V30 1773 C 169.17 2.67921 -0.715108 0
M  V30 1774 H 172.121 1.34474 -0.842764 0
M  V30 1775 H 172.142 3.7885 0.354 0
M  V30 1776 H 171.654 3.59569 -1.46053 0
M  V30 1777 H 169.755 3.58784 1.00522 0
M  V30 1778 H 169.868 4.76856 -0.463187 0
M  V30 1779 H 168.232 2.54259 -0.149753 0
M  V30 1780 H 169.015 2.93951 -1.77335 0
M  V30 1781 N 171.46 0.379036 1.52974 0
M  V30 1782 C 172.876 0.0285448 1.59574 0
M  V30 1783 C 173.076 -1.45542 1.39355 0
M  V30 1784 O 172.132 -2.2187 1.20541 0
M  V30 1785 C 173.445 0.496535 2.96572 0
M  V30 1786 C 174.993 0.451909 3.0972 0
M  V30 1787 C 175.468 0.895924 4.49152 0
M  V30 1788 N 176.959 0.851522 4.55306 0
M  V30 1789 C 177.694 1.16661 5.61407 0
M  V30 1790 N 177.19 1.55166 6.752 0
M  V30 1791 N 178.983 1.08853 5.51459 0
M  V30 1792 H 171.134 1.34525 1.64367 0
M  V30 1793 H 173.397 0.550733 0.771619 0
M  V30 1794 H 173.103 1.53258 3.16552 0
M  V30 1795 H 172.977 -0.109802 3.7704 0
M  V30 1796 H 175.364 -0.575029 2.89443 0
M  V30 1797 H 175.445 1.09392 2.3123 0
M  V30 1798 H 175.089 1.92104 4.70168 0
M  V30 1799 H 175.019 0.23103 5.26093 0
M  V30 1800 H 177.51 0.568038 3.73606 0
M  V30 1801 H 177.823 1.776 7.52116 0
M  V30 1802 H 176.168 1.59044 6.76557 0
M  V30 1803 H 179.359 0.786803 4.6144 0
M  V30 1804 H 179.532 1.33742 6.34048 0
M  V30 1805 N 172.938 -1.57226 0.108567 0
M  V30 1806 C 174.163 -1.99604 -0.563303 0
M  V30 1807 C 174.588 -0.987563 -1.6009 0
M  V30 1808 O 173.946 0.0421687 -1.81251 0
M  V30 1809 C 173.994 -3.40902 -1.17552 0
M  V30 1810 O 173.098 -3.42896 -2.2912 0
M  V30 1811 H 172.439 -0.648704 -0.1417 0
M  V30 1812 H 174.969 -2.03679 0.193961 0
M  V30 1813 H 174.979 -3.78886 -1.51357 0
M  V30 1814 H 173.654 -4.1382 -0.415445 0
M  V30 1815 H 172.231 -3.1672 -1.96832 0
M  V30 1816 N 174.416 0.165178 -1.56732 0
M  V30 1817 C 175.364 1.22369 -1.97809 0
M  V30 1818 C 176.358 1.45488 -0.867741 0
M  V30 1819 O 177.564 1.45995 -1.05288 0
M  V30 1820 H 173.939 0.411486 -0.629431 0
M  V30 1821 H 175.91 0.850425 -2.86025 0
M  V30 1822 C 174.659 2.55403 -2.35934 0
M  V30 1823 H 173.982 2.38438 -3.20916 0
M  V30 1824 H 175.422 3.2814 -2.68514 0
M  V30 1825 C 173.881 3.14611 -1.20506 0
M  V30 1826 O 174.411 3.98626 -0.496016 0
M  V30 1827 N 172.617 2.7379 -0.97403 0
M  V30 1828 H 172.164 2.0557 -1.55238 0
M  V30 1829 H 172.122 3.1374 -0.203573 0
M  V30 1830 N 175.894 1.51508 0.433938 0
M  V30 1831 C 177.31 1.39759 0.770682 0
M  V30 1832 C 177.51 0.482594 1.95636 0
M  V30 1833 O 176.566 -0.0609691 2.52426 0
M  V30 1834 C 177.879 2.81851 1.04787 0
M  V30 1835 C 179.427 2.91025 1.1521 0
M  V30 1836 C 179.902 4.34032 1.46219 0
M  V30 1837 N 181.393 4.37154 1.53136 0
M  V30 1838 C 182.128 5.4484 1.78709 0
M  V30 1839 N 181.624 6.62682 2.02051 0
M  V30 1840 N 183.417 5.32324 1.80519 0
M  V30 1841 H 175.568 2.09548 -0.346892 0
M  V30 1842 H 177.831 0.943446 -0.0928074 0
M  V30 1843 H 177.537 3.50815 0.249304 0
M  V30 1844 H 177.411 3.21386 1.97461 0
M  V30 1845 H 179.798 2.22257 1.94128 0
M  V30 1846 H 179.879 2.54983 0.204281 0
M  V30 1847 H 179.523 5.03351 0.678274 0
M  V30 1848 H 179.453 4.6759 2.42212 0
M  V30 1849 H 181.944 3.52197 1.36987 0
M  V30 1850 H 182.257 7.40543 2.20943 0
M  V30 1851 H 180.602 6.65791 1.99366 0
M  V30 1852 H 183.793 4.39246 1.61805 0
M  V30 1853 H 183.966 6.16328 2.00111 0
M  V30 1854 N 177.372 -0.689602 1.41712 0
M  V30 1855 C 178.282 -1.83314 1.46401 0
M  V30 1856 C 179.298 -1.7036 0.35405 0
M  V30 1857 O 180.474 -1.92171 0.602692 0
M  V30 1858 C 177.539 -3.19344 1.34982 0
M  V30 1859 C 176.6 -3.44363 2.56344 0
M  V30 1860 C 175.833 -4.73904 2.45461 0
M  V30 1861 O 176.056 -5.508 1.48241 0
M  V30 1862 O 174.99 -4.99839 3.35328 0
M  V30 1863 H 178.816 -1.82314 2.42889 0
M  V30 1864 H 176.401 -0.843438 1.23315 0
M  V30 1865 H 178.283 -4.00547 1.3092 0
M  V30 1866 H 176.958 -3.21014 0.41612 0
M  V30 1867 H 175.865 -2.63067 2.65982 0
M  V30 1868 H 177.198 -3.47512 3.48563 0
M  V30 1869 N 178.85 -1.27639 -0.924453 0
M  V30 1870 C 179.76 -1.12466 -2.05885 0
M  V30 1871 C 180.776 -0.053869 -1.73917 0
M  V30 1872 O 181.952 -0.261012 -1.99702 0
M  V30 1873 C 179.017 -0.776768 -3.37886 0
M  V30 1874 C 178.078 -1.92878 -3.83532 0
M  V30 1875 C 177.311 -1.59739 -5.09234 0
M  V30 1876 O 177.534 -0.506782 -5.68144 0
M  V30 1877 O 176.468 -2.43761 -5.50331 0
M  V30 1878 H 180.294 -2.07671 -2.21599 0
M  V30 1879 H 177.879 -1.06857 -1.04413 0
M  V30 1880 H 179.761 -0.596229 -4.17161 0
M  V30 1881 H 178.436 0.145732 -3.23372 0
M  V30 1882 H 177.343 -2.1644 -3.0513 0
M  V30 1883 H 178.676 -2.8316 -4.02593 0
M  V30 1884 N 180.328 1.1314 -1.09713 0
M  V30 1885 C 181.261 2.17735 -0.683137 0
M  V30 1886 C 182.239 1.59582 0.311841 0
M  V30 1887 O 183.423 1.87298 0.212514 0
M  V30 1888 C 180.55 3.38699 -0.00684324 0
M  V30 1889 C 179.596 4.1546 -0.964102 0
M  V30 1890 S 180.429 4.74733 -2.47767 0
M  V30 1891 C 181.585 5.9904 -1.81387 0
M  V30 1892 H 181.818 2.52515 -1.56918 0
M  V30 1893 H 179.351 1.24484 -0.913404 0
M  V30 1894 H 181.309 4.08765 0.377044 0
M  V30 1895 H 179.97 3.02214 0.85589 0
M  V30 1896 H 179.163 5.02093 -0.43803 0
M  V30 1897 H 178.765 3.51066 -1.28953 0
M  V30 1898 H 181.057 6.67846 -1.13967 0
M  V30 1899 H 182 6.56261 -2.65947 0
M  V30 1900 H 182.408 5.4976 -1.28155 0
M  V30 1901 N 181.806 0.884767 1.30421 0
M  V30 1902 C 182.753 0.349642 2.28136 0
M  V30 1903 C 183.723 -0.560061 1.56373 0
M  V30 1904 O 184.908 -0.488524 1.8444 0
M  V30 1905 C 182.048 -0.42999 3.42411 0
M  V30 1906 C 181.161 0.508907 4.28992 0
M  V30 1907 C 180.296 -0.286301 5.30428 0
M  V30 1908 C 179.335 0.648079 6.08659 0
M  V30 1909 N 178.472 -0.111792 7.02011 0
M  V30 1910 H 183.312 1.18807 2.73293 0
M  V30 1911 H 180.849 0.597231 1.3443 0
M  V30 1912 H 182.807 -0.897923 4.07423 0
M  V30 1913 H 181.437 -1.23299 2.98324 0
M  V30 1914 H 180.489 1.09533 3.64289 0
M  V30 1915 H 181.801 1.22475 4.8353 0
M  V30 1916 H 180.955 -0.816098 6.01186 0
M  V30 1917 H 179.694 -1.03536 4.76583 0
M  V30 1918 H 178.699 1.18951 5.36778 0
M  V30 1919 H 179.924 1.39623 6.64592 0
M  V30 1920 H 177.87 -0.843395 6.50556 0
M  V30 1921 H 177.787 0.544429 7.54037 0
M  V30 1922 H 179.055 -0.622339 7.77012 0
M  V30 1923 N 183.284 -1.43765 0.645699 0
M  V30 1924 C 184.531 -2.01898 0.15604 0
M  V30 1925 C 184.859 -1.50887 -1.22733 0
M  V30 1926 O 184.114 -0.689271 -1.8316 0
M  V30 1927 C 184.413 -3.57238 0.107679 0
M  V30 1928 C 184.079 -4.27564 1.43178 0
M  V30 1929 C 182.741 -4.46492 1.7944 0
M  V30 1930 C 185.093 -4.67454 2.30513 0
M  V30 1931 C 182.421 -5.02573 3.02716 0
M  V30 1932 C 184.773 -5.24901 3.53074 0
M  V30 1933 C 183.437 -5.42046 3.89541 0
M  V30 1934 H 182.707 -0.738797 0.057099 0
M  V30 1935 H 185.354 -1.72341 0.834912 0
M  V30 1936 H 183.659 -3.86293 -0.654618 0
M  V30 1937 H 185.356 -3.99965 -0.287938 0
M  V30 1938 H 181.946 -4.13171 1.13963 0
M  V30 1939 H 186.13 -4.5253 2.0379 0
M  V30 1940 H 181.386 -5.14033 3.31028 0
M  V30 1941 H 185.56 -5.54758 4.20971 0
M  V30 1942 H 183.187 -5.85268 4.85145 0
M  V30 1943 N 184.763 -0.387143 -1.52771 0
M  V30 1944 C 185.713 0.465942 -2.23188 0
M  V30 1945 C 186.697 1.03138 -1.23496 0
M  V30 1946 O 187.889 0.957845 -1.48843 0
M  V30 1947 C 185.018 1.59384 -3.04059 0
M  V30 1948 C 184.104 1.04024 -4.11144 0
M  V30 1949 N 184.495 0.211416 -5.05358 0
M  V30 1950 C 182.793 1.31295 -4.26237 0
M  V30 1951 C 183.494 -0.0941698 -5.81624 0
M  V30 1952 N 182.47 0.509207 -5.4121 0
M  V30 1953 H 186.272 -0.173856 -2.93385 0
M  V30 1954 H 183.786 -0.19633 -1.61209 0
M  V30 1955 H 185.783 2.21738 -3.53041 0
M  V30 1956 H 184.443 2.23648 -2.35397 0
M  V30 1957 H 185.454 -0.151151 -5.17679 0
M  V30 1958 H 182.131 1.95679 -3.68803 0
M  V30 1959 H 183.521 -0.765572 -6.67524 0
M  V30 1960 N 186.241 1.57166 -0.116904 0
M  V30 1961 C 187.151 2.18745 0.847812 0
M  V30 1962 C 188.167 1.163 1.29423 0
M  V30 1963 O 189.343 1.48761 1.35765 0
M  V30 1964 C 186.408 2.77307 2.0809 0
M  V30 1965 C 185.469 3.94781 1.68661 0
M  V30 1966 C 184.702 4.50541 2.86091 0
M  V30 1967 O 184.925 4.05202 4.01456 0
M  V30 1968 O 183.859 5.41256 2.63298 0
M  V30 1969 H 187.685 3.01632 0.353778 0
M  V30 1970 H 185.27 1.49005 0.108599 0
M  V30 1971 H 187.152 3.14647 2.80313 0
M  V30 1972 H 185.827 1.97452 2.56504 0
M  V30 1973 H 184.734 3.62214 0.935518 0
M  V30 1974 H 186.067 4.76065 1.24991 0
M  V30 1975 N 187.719 -0.156864 1.56817 0
M  V30 1976 C 188.966 -0.871125 1.82805 0
M  V30 1977 C 189.294 -1.81611 0.696262 0
M  V30 1978 O 188.549 -1.93141 -0.315459 0
M  V30 1979 C 188.848 -1.68737 3.1506 0
M  V30 1980 C 188.514 -0.890045 4.42028 0
M  V30 1981 C 187.176 -0.670042 4.76512 0
M  V30 1982 C 189.528 -0.331769 5.20143 0
M  V30 1983 C 186.856 0.119104 5.86579 0
M  V30 1984 C 189.208 0.444365 6.31037 0
M  V30 1985 C 187.872 0.675035 6.64078 0
M  V30 1986 H 187.142 -0.318767 0.668931 0
M  V30 1987 H 189.789 -0.135274 1.91022 0
M  V30 1988 H 188.094 -2.49304 3.0225 0
M  V30 1989 H 189.791 -2.24331 3.3238 0
M  V30 1990 H 186.381 -1.07157 4.14988 0
M  V30 1991 H 190.565 -0.489043 4.93885 0
M  V30 1992 H 185.821 0.307417 6.10627 0
M  V30 1993 H 189.995 0.884139 6.90765 0
M  V30 1994 H 187.622 1.28839 7.49203 0
M  V30 1995 N 189.197 -1.51736 -0.425897 0
M  V30 1996 C 190.443 -1.65214 -1.1761 0
M  V30 1997 C 190.776 -0.372778 -1.90589 0
M  V30 1998 O 190.051 0.628139 -1.84078 0
M  V30 1999 C 190.334 -2.86312 -2.18398 0
M  V30 2000 C 190.187 -4.24254 -1.49426 0
M  V30 2001 C 191.506 -3.02925 -3.19256 0
M  V30 2002 H 188.625 -0.601263 -0.426206 0
M  V30 2003 H 191.267 -1.8425 -0.463882 0
M  V30 2004 H 189.417 -2.70213 -2.79137 0
M  V30 2005 H 191.089 -4.52046 -0.919362 0
M  V30 2006 H 189.332 -4.26426 -0.796432 0
M  V30 2007 H 190.003 -5.05001 -2.22885 0
M  V30 2008 H 192.479 -3.1781 -2.68581 0
M  V30 2009 H 191.355 -3.89199 -3.8706 0
M  V30 2010 H 191.616 -2.15497 -3.86023 0
M  V30 2011 N 190.675 0.682077 -1.42076 0
M  V30 2012 C 191.585 1.82535 -1.47371 0
M  V30 2013 C 192.601 1.7017 -0.363079 0
M  V30 2014 O 193.777 1.91848 -0.612875 0
M  V30 2015 C 190.842 3.18624 -1.36674 0
M  V30 2016 C 189.903 3.42999 -2.58167 0
M  V30 2017 C 189.136 4.72595 -2.4797 0
M  V30 2018 O 189.359 5.50006 -1.5116 0
M  V30 2019 O 188.293 4.98054 -3.37974 0
M  V30 2020 H 192.119 1.81023 -2.43853 0
M  V30 2021 H 189.704 0.836887 -1.2376 0
M  V30 2022 H 191.586 3.99847 -1.33043 0
M  V30 2023 H 190.261 3.20789 -0.433138 0
M  V30 2024 H 189.168 2.61653 -2.67373 0
M  V30 2025 H 190.501 3.45659 -3.50401 0
M  V30 2026 N 192.153 1.28127 0.917671 0
M  V30 2027 C 193.1 1.11717 2.0196 0
M  V30 2028 C 194.07 0.0153929 1.66093 0
M  V30 2029 O 195.255 0.179596 1.89953 0
M  V30 2030 C 192.395 0.780927 3.36148 0
M  V30 2031 C 191.508 1.96135 3.84909 0
M  V30 2032 C 190.643 1.56609 5.0759 0
M  V30 2033 C 189.682 2.71339 5.48673 0
M  V30 2034 N 188.819 2.32332 6.62545 0
M  V30 2035 H 193.659 2.06003 2.15329 0
M  V30 2036 H 191.196 1.02535 1.05475 0
M  V30 2037 H 193.154 0.56675 4.13333 0
M  V30 2038 H 191.784 -0.124998 3.22558 0
M  V30 2039 H 190.836 2.28777 3.03916 0
M  V30 2040 H 192.148 2.82165 4.1132 0
M  V30 2041 H 191.302 1.31374 5.92305 0
M  V30 2042 H 190.041 0.677014 4.82978 0
M  V30 2043 H 189.046 2.97276 4.62501 0
M  V30 2044 H 190.271 3.60882 5.75274 0
M  V30 2045 H 188.217 1.45889 6.39572 0
M  V30 2046 H 188.134 3.11899 6.88662 0
M  V30 2047 H 189.402 2.10371 7.50576 0
M  V30 2048 N 193.631 -1.12557 1.10312 0
M  V30 2049 C 194.561 -2.20341 0.772798 0
M  V30 2050 C 195.542 -1.68198 -0.25365 0
M  V30 2051 O 196.727 -1.93831 -0.119699 0
M  V30 2052 C 193.857 -3.46709 0.202443 0
M  V30 2053 C 192.811 -4.11996 1.15943 0
M  V30 2054 C 192.137 -5.328 0.450345 0
M  V30 2055 C 193.437 -4.5828 2.50552 0
M  V30 2056 H 195.131 -2.48229 1.674 0
M  V30 2057 H 192.677 -1.19308 0.806326 0
M  V30 2058 H 194.63 -4.2138 -0.0407752 0
M  V30 2059 H 193.354 -3.18245 -0.734001 0
M  V30 2060 H 192.013 -3.39305 1.38808 0
M  V30 2061 H 191.661 -5.00602 -0.490531 0
M  V30 2062 H 191.361 -5.7743 1.08851 0
M  V30 2063 H 192.885 -6.10219 0.215642 0
M  V30 2064 H 194.299 -5.2433 2.31843 0
M  V30 2065 H 192.696 -5.13683 3.10242 0
M  V30 2066 H 193.766 -3.72329 3.10643 0
M  V30 2067 N 195.109 -0.891671 -1.2995 0
M  V30 2068 C 196.041 -0.320695 -2.26945 0
M  V30 2069 C 197.054 0.528497 -1.53983 0
M  V30 2070 O 198.243 0.346959 -1.75096 0
M  V30 2071 C 195.343 0.562066 -3.34207 0
M  V30 2072 C 194.516 -0.259576 -4.36629 0
M  V30 2073 C 193.575 0.554739 -5.23268 0
M  V30 2074 O 192.601 -0.0249311 -5.69195 0
M  V30 2075 N 193.803 1.8625 -5.4981 0
M  V30 2076 H 196.568 -1.15432 -2.76578 0
M  V30 2077 H 194.129 -0.755336 -1.432 0
M  V30 2078 H 196.121 1.11304 -3.89093 0
M  V30 2079 H 194.691 1.29637 -2.84452 0
M  V30 2080 H 193.911 -0.991986 -3.81514 0
M  V30 2081 H 195.199 -0.822564 -5.02107 0
M  V30 2082 H 194.597 2.35628 -5.14292 0
M  V30 2083 H 193.154 2.36078 -6.07545 0
M  V30 2084 N 196.587 1.43421 -0.653314 0
M  V30 2085 C 197.864 1.95361 -0.0966581 0
M  V30 2086 C 198.244 1.59461 1.38331 0
M  V30 2087 O 197.592 0.879777 2.10884 0
M  V30 2088 C 197.802 3.47311 -0.342988 0
M  V30 2089 C 199.15 4.23875 -0.24798 0
M  V30 2090 O 200.174 3.55133 -0.275553 0
M  V30 2091 O 199.033 5.4623 -0.171771 0
M  V30 2092 H 196.127 0.826945 0.00956291 0
M  V30 2093 H 198.673 1.5336 -0.726558 0
M  V30 2094 H 197.445 3.66569 -1.36906 0
M  V30 2095 H 197.068 3.9631 0.319975 0
M  V30 2096 N 198.065 0.39524 1.52563 0
M  V30 2097 C 199.314 -0.186321 2.00838 0
M  V30 2098 C 199.627 -1.47402 1.28577 0
M  V30 2099 O 200.833 -2.13599 1.67593 0
M  V30 2100 C 199.289 -0.382595 3.57861 0
M  V30 2101 C 198.897 0.892202 4.39026 0
M  V30 2102 C 200.641 -0.9202 4.14406 0
M  V30 2103 C 198.548 0.66388 5.87662 0
M  V30 2104 H 197.478 -0.0734041 0.750418 0
M  V30 2105 H 200.129 0.518552 1.76021 0
M  V30 2106 H 198.511 -1.14946 3.7895 0
M  V30 2107 H 199.685 1.66414 4.29701 0
M  V30 2108 H 198 1.35519 3.9373 0
M  V30 2109 H 200.597 -1.10683 5.23119 0
M  V30 2110 H 200.94 -1.89096 3.70875 0
M  V30 2111 H 201.473 -0.212751 3.97231 0
M  V30 2112 H 198.212 1.6058 6.35527 0
M  V30 2113 H 197.732 -0.0690193 5.9976 0
M  V30 2114 H 199.411 0.300699 6.46301 0
M  V30 2115 N 199.544 -1.57102 0.125237 0
M  V30 2116 C 200.476 -2.12726 -0.853237 0
M  V30 2117 C 201.489 -1.07145 -1.22571 0
M  V30 2118 O 202.678 -1.34497 -1.17358 0
M  V30 2119 C 199.778 -2.61709 -2.15317 0
M  V30 2120 C 198.951 -3.91456 -1.95143 0
M  V30 2121 C 198.01 -4.25973 -3.08923 0
M  V30 2122 O 197.036 -4.94682 -2.81564 0
M  V30 2123 N 198.238 -3.83795 -4.35524 0
M  V30 2124 H 201.003 -2.97307 -0.377964 0
M  V30 2125 H 198.564 -1.61792 -0.0590011 0
M  V30 2126 H 200.556 -2.81826 -2.90441 0
M  V30 2127 H 199.126 -1.81974 -2.54174 0
M  V30 2128 H 198.346 -3.80185 -1.04177 0
M  V30 2129 H 199.634 -4.76283 -1.78976 0
M  V30 2130 H 199.032 -3.2839 -4.60626 0
M  V30 2131 H 197.589 -4.09008 -5.07499 0
M  V30 2132 N 201.022 0.148545 -1.56898 0
M  V30 2133 C 201.954 1.20852 -1.9475 0
M  V30 2134 C 202.967 1.39265 -0.843152 0
M  V30 2135 O 204.156 1.38864 -1.12156 0
M  V30 2136 C 201.256 2.57362 -2.20495 0
M  V30 2137 C 200.429 2.59947 -3.51776 0
M  V30 2138 C 199.488 3.77984 -3.6608 0
M  V30 2139 O 198.514 3.62929 -4.38487 0
M  V30 2140 N 199.716 4.95375 -3.02629 0
M  V30 2141 H 202.481 0.886804 -2.86279 0
M  V30 2142 H 200.042 0.338121 -1.5833 0
M  V30 2143 H 202.034 3.34833 -2.27307 0
M  V30 2144 H 200.604 2.81832 -1.35238 0
M  V30 2145 H 199.824 1.68403 -3.56419 0
M  V30 2146 H 201.112 2.58704 -4.38121 0
M  V30 2147 H 200.51 5.10509 -2.43715 0
M  V30 2148 H 199.067 5.70627 -3.15004 0
M  V30 2149 N 202.5 1.5196 0.417844 0
M  V30 2150 C 203.916 1.40569 0.755816 0
M  V30 2151 C 204.116 0.503316 1.95113 0
M  V30 2152 O 203.172 -0.0341925 2.52477 0
M  V30 2153 C 204.485 2.82947 1.01791 0
M  V30 2154 C 206.033 2.92231 1.12116 0
M  V30 2155 C 206.508 4.35559 1.41608 0
M  V30 2156 N 207.999 4.38753 1.48491 0
M  V30 2157 C 208.734 5.46705 1.7292 0
M  V30 2158 N 208.23 6.64788 1.95011 0
M  V30 2159 N 210.023 5.34209 1.74863 0
M  V30 2160 H 202.174 2.09168 -0.369098 0
M  V30 2161 H 204.437 0.942409 -0.102809 0
M  V30 2162 H 204.143 3.5106 0.212081 0
M  V30 2163 H 204.017 3.23462 1.94042 0
M  V30 2164 H 206.404 2.24304 1.9176 0
M  V30 2165 H 206.485 2.55185 0.177225 0
M  V30 2166 H 206.129 5.04042 0.624848 0
M  V30 2167 H 206.059 4.70133 2.37239 0
M  V30 2168 H 208.55 3.5363 1.33244 0
M  V30 2169 H 208.863 7.42845 2.13076 0
M  V30 2170 H 207.208 6.67869 1.92293 0
M  V30 2171 H 210.399 4.40937 1.57137 0
M  V30 2172 H 210.572 6.18415 1.93563 0
M  V30 2173 N 203.978 -0.674533 1.42435 0
M  V30 2174 C 205.226 -1.43175 1.42637 0
M  V30 2175 C 205.547 -1.94951 0.0438992 0
M  V30 2176 O 204.817 -1.7308 -0.917607 0
M  V30 2177 H 203.397 -0.531307 0.525092 0
M  V30 2178 H 206.059 -0.797006 1.77859 0
M  V30 2179 H 205.155 -2.28463 2.12629 0
M  V30 2180 N 205.456 -1.28612 -0.910864 0
M  V30 2181 C 206.704 -1.15705 -1.65701 0
M  V30 2182 C 207.025 0.29416 -1.92769 0
M  V30 2183 O 206.295 1.20331 -1.54588 0
M  V30 2184 H 204.875 -0.425216 -0.614167 0
M  V30 2185 H 207.537 -1.61381 -1.0928 0
M  V30 2186 H 206.633 -1.6988 -2.61815 0
M  V30 2187 N 206.934 1.1197 -1.10907 0
M  V30 2188 C 207.844 2.21433 -0.774896 0
M  V30 2189 C 208.86 1.72478 0.229657 0
M  V30 2190 O 210.036 2.01288 0.0672008 0
M  V30 2191 C 207.101 3.4602 -0.216986 0
M  V30 2192 C 206.162 4.09791 -1.27944 0
M  V30 2193 C 205.395 5.28431 -0.748055 0
M  V30 2194 O 205.618 5.68823 0.423833 0
M  V30 2195 O 204.552 5.82644 -1.51027 0
M  V30 2196 H 208.378 2.5242 -1.68873 0
M  V30 2197 H 205.963 1.20399 -0.884555 0
M  V30 2198 H 207.845 4.21304 0.090059 0
M  V30 2199 H 206.52 3.16698 0.669633 0
M  V30 2200 H 205.427 3.36265 -1.63941 0
M  V30 2201 H 206.76 4.4328 -2.13925 0
M  V30 2202 N 208.412 0.89855 1.29475 0
M  V30 2203 C 209.322 0.379974 2.31502 0
M  V30 2204 C 210.338 -0.524695 1.659 0
M  V30 2205 O 211.514 -0.414551 1.97087 0
M  V30 2206 C 208.579 -0.385138 3.44554 0
M  V30 2207 C 207.64 0.550914 4.2575 0
M  V30 2208 C 206.873 -0.177778 5.33404 0
M  V30 2209 O 207.096 -1.40189 5.52904 0
M  V30 2210 O 206.03 0.479106 5.9999 0
M  V30 2211 H 209.856 1.22639 2.77837 0
M  V30 2212 H 207.441 0.662834 1.33891 0
M  V30 2213 H 209.323 -0.817841 4.13388 0
M  V30 2214 H 207.998 -1.20763 3.0033 0
M  V30 2215 H 206.905 1.03271 3.59564 0
M  V30 2216 H 208.238 1.33979 4.73614 0
M  V30 2217 N 209.89 -1.43072 0.660911 0
M  V30 2218 C 211.306 -1.56169 0.329173 0
M  V30 2219 C 211.506 -1.64317 -1.16629 0
M  V30 2220 O 210.562 -1.60245 -1.95135 0
M  V30 2221 C 211.875 -2.81873 1.04729 0
M  V30 2222 C 213.423 -2.95627 1.02828 0
M  V30 2223 C 213.898 -4.24174 1.72744 0
M  V30 2224 N 215.389 -4.31055 1.69545 0
M  V30 2225 C 216.124 -5.29304 2.20511 0
M  V30 2226 N 215.62 -6.33786 2.79799 0
M  V30 2227 N 217.413 -5.21008 2.10966 0
M  V30 2228 H 209.564 -1.36027 1.63127 0
M  V30 2229 H 211.827 -0.653823 0.686454 0
M  V30 2230 H 211.533 -2.81942 2.10242 0
M  V30 2231 H 211.407 -3.72338 0.603702 0
M  V30 2232 H 213.794 -2.95094 -0.0184742 0
M  V30 2233 H 213.875 -2.06431 1.51063 0
M  V30 2234 H 213.519 -4.25467 2.7738 0
M  V30 2235 H 213.449 -5.1228 1.2197 0
M  V30 2236 H 215.94 -3.56174 1.26288 0
M  V30 2237 H 216.253 -7.05086 3.16344 0
M  V30 2238 H 214.598 -6.34387 2.83863 0
M  V30 2239 H 217.789 -4.38301 1.64347 0
M  V30 2240 H 217.962 -5.97416 2.50993 0
M  V30 2241 N 211.368 -0.403325 -1.52352 0
M  V30 2242 C 212.298 0.416205 -2.29761 0
M  V30 2243 C 213.279 1.05123 -1.33728 0
M  V30 2244 O 214.464 1.06134 -1.62632 0
M  V30 2245 C 211.594 1.53624 -3.11475 0
M  V30 2246 C 210.548 1.02653 -4.15507 0
M  V30 2247 C 209.874 2.23971 -4.85532 0
M  V30 2248 C 211.174 0.08463 -5.22231 0
M  V30 2249 H 212.868 -0.229701 -2.98518 0
M  V30 2250 H 210.414 -0.111913 -1.43564 0
M  V30 2251 H 212.367 2.1165 -3.64393 0
M  V30 2252 H 211.091 2.20994 -2.40477 0
M  V30 2253 H 209.75 0.46871 -3.63591 0
M  V30 2254 H 209.398 2.89883 -4.11068 0
M  V30 2255 H 209.098 1.90521 -5.55856 0
M  V30 2256 H 210.622 2.82614 -5.41259 0
M  V30 2257 H 212.036 0.573509 -5.70424 0
M  V30 2258 H 210.433 -0.160783 -5.99885 0
M  V30 2259 H 211.503 -0.86237 -4.7717 0
M  V30 2260 N 212.846 1.57033 -0.133567 0
M  V30 2261 C 214.076 1.99754 0.527429 0
M  V30 2262 C 214.484 1.01245 1.59832 0
M  V30 2263 O 213.827 -0.000645496 1.837 0
M  V30 2264 C 213.889 3.38903 1.19939 0
M  V30 2265 C 213.553 4.56174 0.274709 0
M  V30 2266 C 214.55 5.17563 -0.492398 0
M  V30 2267 C 212.235 5.01972 0.18153 0
M  V30 2268 C 214.229 6.2315 -1.34027 0
M  V30 2269 C 211.916 6.07416 -0.669958 0
M  V30 2270 C 212.914 6.67874 -1.42947 0
M  V30 2271 O 212.602 7.71279 -2.2668 0
M  V30 2272 H 212.334 0.660702 0.142999 0
M  V30 2273 H 214.888 2.04207 -0.221099 0
M  V30 2274 H 213.118 3.31248 1.99528 0
M  V30 2275 H 214.807 3.65818 1.75875 0
M  V30 2276 H 215.573 4.83087 -0.430367 0
M  V30 2277 H 211.452 4.54652 0.762422 0
M  V30 2278 H 214.996 6.70268 -1.93357 0
M  V30 2279 H 210.893 6.41321 -0.73333 0
M  V30 2280 H 211.661 7.88441 -2.1978 0
M  V30 2281 N 214.325 -0.140222 1.56975 0
M  V30 2282 C 215.255 -1.17456 2.01808 0
M  V30 2283 C 216.236 -1.44415 0.898794 0
M  V30 2284 O 217.421 -1.5522 1.16707 0
M  V30 2285 C 214.551 -2.50607 2.40444 0
M  V30 2286 C 213.505 -2.38155 3.55621 0
M  V30 2287 C 212.831 -3.76078 3.80091 0
M  V30 2288 C 214.131 -1.85991 4.88062 0
M  V30 2289 H 215.825 -0.801743 2.88466 0
M  V30 2290 H 213.371 -0.38422 1.38779 0
M  V30 2291 H 215.324 -3.23197 2.7041 0
M  V30 2292 H 214.048 -2.89737 1.50732 0
M  V30 2293 H 212.707 -1.68016 3.25832 0
M  V30 2294 H 212.355 -4.12656 2.87618 0
M  V30 2295 H 212.055 -3.68606 4.57606 0
M  V30 2296 H 213.579 -4.50206 4.12488 0
M  V30 2297 H 214.993 -2.4838 5.16701 0
M  V30 2298 H 213.39 -1.89393 5.6943 0
M  V30 2299 H 214.46 -0.816023 4.77984 0
M  V30 2300 N 215.803 -1.52179 -0.40978 0
M  V30 2301 C 216.735 -1.71703 -1.51825 0
M  V30 2302 C 217.748 -0.597445 -1.51441 0
M  V30 2303 O 218.937 -0.872582 -1.55719 0
M  V30 2304 C 216.037 -1.74171 -2.90719 0
M  V30 2305 C 215.21 -3.03156 -3.15302 0
M  V30 2306 C 214.269 -2.97445 -4.34065 0
M  V30 2307 O 213.295 -3.71352 -4.31377 0
M  V30 2308 N 214.497 -2.15191 -5.39141 0
M  V30 2309 H 217.262 -2.67334 -1.35472 0
M  V30 2310 H 214.823 -1.50409 -0.599069 0
M  V30 2311 H 216.815 -1.67884 -3.68235 0
M  V30 2312 H 215.385 -0.860166 -3.00533 0
M  V30 2313 H 214.605 -3.23097 -2.25836 0
M  V30 2314 H 215.893 -3.88484 -3.28569 0
M  V30 2315 H 215.291 -1.54573 -5.44173 0
M  V30 2316 H 213.848 -2.1476 -6.15403 0
M  V30 2317 N 217.281 0.66697 -1.42791 0
M  V30 2318 C 218.213 1.7925 -1.42836 0
M  V30 2319 C 219.226 1.59496 -0.326333 0
M  V30 2320 O 220.415 1.6847 -0.589916 0
M  V30 2321 C 217.515 3.16476 -1.21229 0
M  V30 2322 C 216.688 3.63011 -2.44013 0
M  V30 2323 C 215.747 4.78993 -2.17834 0
M  V30 2324 O 214.773 4.89137 -2.91091 0
M  V30 2325 N 215.975 5.68248 -1.18635 0
M  V30 2326 H 218.74 1.79695 -2.39854 0
M  V30 2327 H 216.301 0.850338 -1.37771 0
M  V30 2328 H 218.293 3.91734 -1.01621 0
M  V30 2329 H 216.863 3.10884 -0.32706 0
M  V30 2330 H 216.083 2.78346 -2.79137 0
M  V30 2331 H 217.371 3.90845 -3.25757 0
M  V30 2332 H 216.769 5.62712 -0.580615 0
M  V30 2333 H 215.326 6.43285 -1.05013 0
M  V30 2334 N 218.759 1.29093 0.90403 0
M  V30 2335 C 219.987 1.19689 1.68766 0
M  V30 2336 C 220.402 -0.243113 1.87228 0
M  V30 2337 O 219.759 -1.16326 1.40621 0
M  V30 2338 C 219.81 1.90144 3.07453 0
M  V30 2339 O 219.531 3.2852 2.89838 0
M  V30 2340 C 221.032 1.87162 4.01852 0
M  V30 2341 H 218.252 0.415035 0.527244 0
M  V30 2342 H 220.796 1.7039 1.13082 0
M  V30 2343 H 218.951 1.43289 3.59926 0
M  V30 2344 H 219.365 3.63944 3.77684 0
M  V30 2345 H 220.839 2.41032 4.96596 0
M  V30 2346 H 221.316 0.84617 4.30972 0
M  V30 2347 H 221.922 2.33741 3.5531 0
M  V30 2348 N 220.237 -1.11381 1.11499 0
M  V30 2349 C 221.167 -2.19509 0.796125 0
M  V30 2350 C 222.148 -1.68458 -0.235796 0
M  V30 2351 O 223.333 -1.93947 -0.0991344 0
M  V30 2352 C 220.463 -3.46475 0.239205 0
M  V30 2353 C 219.417 -4.10744 1.20307 0
M  V30 2354 C 218.743 -5.32293 0.50683 0
M  V30 2355 C 220.043 -4.55597 2.55399 0
M  V30 2356 H 221.737 -2.46439 1.70024 0
M  V30 2357 H 219.283 -1.18446 0.818935 0
M  V30 2358 H 221.236 -4.214 0.00392006 0
M  V30 2359 H 219.96 -3.19006 -0.700206 0
M  V30 2360 H 218.619 -3.37813 1.42399 0
M  V30 2361 H 218.267 -5.01095 -0.437408 0
M  V30 2362 H 217.967 -5.76243 1.1497 0
M  V30 2363 H 219.491 -6.09956 0.280351 0
M  V30 2364 H 220.905 -5.21841 2.37391 0
M  V30 2365 H 219.302 -5.10363 3.15673 0
M  V30 2366 H 220.372 -3.69013 3.14575 0
M  V30 2367 N 221.715 -0.905404 -1.28997 0
M  V30 2368 C 222.663 -0.377431 -2.29517 0
M  V30 2369 C 223.657 0.526461 -1.61012 0
M  V30 2370 O 224.863 0.40863 -1.753 0
M  V30 2371 H 221.238 -0.103437 -0.744852 0
M  V30 2372 H 223.209 -1.23848 -2.71485 0
M  V30 2373 C 221.958 0.374833 -3.45674 0
M  V30 2374 H 221.281 -0.311474 -3.98585 0
M  V30 2375 H 222.721 0.70903 -4.1803 0
M  V30 2376 C 221.18 1.57963 -2.97572 0
M  V30 2377 O 221.71 2.67886 -2.99333 0
M  V30 2378 N 219.916 1.42375 -2.53333 0
M  V30 2379 H 219.463 0.529466 -2.521 0
M  V30 2380 H 219.421 2.23117 -2.21509 0
M  V30 2381 N 223.193 1.4272 -0.668489 0
M  V30 2382 C 224.47 1.95248 -0.117373 0
M  V30 2383 C 224.85 1.60919 1.36632 0
M  V30 2384 O 224.198 0.902095 2.09939 0
M  V30 2385 C 224.408 3.46927 -0.379806 0
M  V30 2386 C 225.756 4.23588 -0.292923 0
M  V30 2387 O 226.78 3.5482 -0.313204 0
M  V30 2388 O 225.639 5.46017 -0.229697 0
M  V30 2389 H 222.733 0.827 0.00079152 0
M  V30 2390 H 225.279 1.52581 -0.742783 0
M  V30 2391 H 224.051 3.65096 -1.40786 0
M  V30 2392 H 223.674 3.96627 0.277923 0
M  V30 2393 N 224.671 0.411399 1.52136 0
M  V30 2394 C 225.899 -0.163076 2.06256 0
M  V30 2395 C 226.314 -1.3867 1.28125 0
M  V30 2396 O 225.671 -1.79423 0.333721 0
M  V30 2397 C 225.722 -0.511252 3.57867 0
M  V30 2398 O 225.443 0.66378 4.33042 0
M  V30 2399 C 226.944 -1.13921 4.28412 0
M  V30 2400 H 224.164 -0.0193897 0.67072 0
M  V30 2401 H 226.708 0.583007 1.96013 0
M  V30 2402 H 224.863 -1.20723 3.6811 0
M  V30 2403 H 225.277 0.372601 5.23175 0
M  V30 2404 H 226.751 -1.33302 5.35663 0
M  V30 2405 H 227.228 -2.11296 3.85033 0
M  V30 2406 H 227.834 -0.483373 4.22544 0
M  V30 2407 N 226.149 -1.5696 0.141893 0
M  V30 2408 C 227.395 -1.9625 -0.511248 0
M  V30 2409 C 227.728 -1.02654 -1.64851 0
M  V30 2410 O 227.003 -0.0679676 -1.94381 0
M  V30 2411 C 227.286 -3.45285 -1.02227 0
M  V30 2412 C 227.139 -4.49658 0.113138 0
M  V30 2413 C 228.458 -3.96698 -1.90574 0
M  V30 2414 H 225.577 -0.713567 -0.184367 0
M  V30 2415 H 228.219 -1.88698 0.222087 0
M  V30 2416 H 226.369 -3.51852 -1.64719 0
M  V30 2417 H 228.041 -4.55174 0.749302 0
M  V30 2418 H 226.284 -4.26857 0.773026 0
M  V30 2419 H 226.955 -5.51258 -0.286053 0
M  V30 2420 H 229.431 -3.92578 -1.37918 0
M  V30 2421 H 228.307 -5.01453 -2.2324 0
M  V30 2422 H 228.568 -3.3875 -2.84079 0
M  V30 2423 N 227.627 0.131896 -1.57047 0
M  V30 2424 C 228.875 0.840269 -1.83804 0
M  V30 2425 C 229.196 1.81017 -0.72512 0
M  V30 2426 O 228.466 1.94272 0.251995 0
M  V30 2427 H 227.046 0.313294 -0.678127 0
M  V30 2428 H 229.708 0.122294 -1.94516 0
M  V30 2429 H 228.804 1.39335 -2.79271 0
M  V30 2430 N 229.106 1.52395 0.401703 0
M  V30 2431 C 230.522 1.41363 0.740864 0
M  V30 2432 C 230.722 0.523982 1.94568 0
M  V30 2433 O 229.778 -0.00741204 2.52499 0
M  V30 2434 C 231.091 2.84011 0.987847 0
M  V30 2435 C 232.639 2.93404 1.09011 0
M  V30 2436 C 233.114 4.37036 1.3698 0
M  V30 2437 N 234.605 4.40304 1.43829 0
M  V30 2438 C 235.34 5.48508 1.67112 0
M  V30 2439 N 234.836 6.66819 1.87949 0
M  V30 2440 N 236.629 5.36034 1.69187 0
M  V30 2441 H 228.78 2.08765 -0.391262 0
M  V30 2442 H 231.043 0.941265 -0.112798 0
M  V30 2443 H 230.749 3.51265 0.174835 0
M  V30 2444 H 230.623 3.25502 1.906 0
M  V30 2445 H 233.01 2.26325 1.8937 0
M  V30 2446 H 233.091 2.55359 0.15015 0
M  V30 2447 H 232.735 5.04676 0.571353 0
M  V30 2448 H 232.665 4.72623 2.3224 0
M  V30 2449 H 235.156 3.55024 1.29486 0
M  V30 2450 H 235.469 7.45063 2.05185 0
M  V30 2451 H 233.814 6.6987 1.85199 0
M  V30 2452 H 237.005 4.42579 1.52451 0
M  V30 2453 H 237.178 6.20434 1.86993 0
M  V30 2454 N 230.584 -0.659388 1.43143 0
M  V30 2455 C 231.531 -1.77249 1.47822 0
M  V30 2456 C 232.501 -1.62818 0.328558 0
M  V30 2457 O 233.686 -1.83151 0.534838 0
M  V30 2458 C 230.826 -3.15371 1.40126 0
M  V30 2459 C 229.939 -3.4098 2.65249 0
M  V30 2460 C 229.074 -4.68915 2.49584 0
M  V30 2461 C 228.113 -4.87608 3.70006 0
M  V30 2462 N 227.25 -6.06796 3.53189 0
M  V30 2463 H 232.09 -1.72584 2.42938 0
M  V30 2464 H 229.627 -0.842297 1.20598 0
M  V30 2465 H 231.585 -3.9521 1.33659 0
M  V30 2466 H 230.215 -3.19121 0.485964 0
M  V30 2467 H 229.267 -2.55282 2.8202 0
M  V30 2468 H 230.579 -3.50681 3.54717 0
M  V30 2469 H 229.733 -5.56871 2.4079 0
M  V30 2470 H 228.472 -4.61524 1.5763 0
M  V30 2471 H 227.477 -3.9809 3.79215 0
M  V30 2472 H 228.702 -4.96834 4.62961 0
M  V30 2473 H 226.648 -6.00549 2.63965 0
M  V30 2474 H 226.565 -6.17428 4.36255 0
M  V30 2475 H 227.833 -6.9739 3.48236 0
M  V30 2476 N 232.062 -1.29571 -0.897171 0
M  V30 2477 C 233.311 -1.1706 -1.64256 0
M  V30 2478 C 233.624 0.276476 -1.93636 0
M  V30 2479 O 234.83 0.52294 -2.66416 0
M  V30 2480 C 233.286 -2.0475 -2.95982 0
M  V30 2481 C 232.894 -3.54295 -2.74187 0
M  V30 2482 C 234.638 -2.0097 -3.73914 0
M  V30 2483 C 232.545 -4.34081 -4.01656 0
M  V30 2484 H 231.475 -0.43452 -0.616205 0
M  V30 2485 H 234.126 -1.54229 -0.994268 0
M  V30 2486 H 232.508 -1.60452 -3.62038 0
M  V30 2487 H 233.682 -4.06662 -2.1671 0
M  V30 2488 H 231.997 -3.59773 -2.09648 0
M  V30 2489 H 234.594 -2.57838 -4.68427 0
M  V30 2490 H 234.937 -0.990273 -4.0435 0
M  V30 2491 H 235.47 -2.43325 -3.14703 0
M  V30 2492 H 232.209 -5.36671 -3.76384 0
M  V30 2493 H 231.729 -3.86483 -4.58684 0
M  V30 2494 H 233.408 -4.44877 -4.69781 0
M  V30 2495 N 233.54 1.10788 -1.12088 0
M  V30 2496 C 234.786 1.82942 -0.875226 0
M  V30 2497 C 235.119 1.84779 0.597538 0
M  V30 2498 O 234.394 1.30578 1.44152 0
M  V30 2499 C 234.677 3.29789 -1.44606 0
M  V30 2500 C 234.53 3.36307 -2.98693 0
M  V30 2501 C 235.849 4.26064 -1.10261 0
M  V30 2502 H 232.968 0.664195 -0.319397 0
M  V30 2503 H 235.61 1.29867 -1.38689 0
M  V30 2504 H 233.76 3.75118 -1.01089 0
M  V30 2505 H 235.432 2.99487 -3.50864 0
M  V30 2506 H 233.675 2.76318 -3.34411 0
M  V30 2507 H 234.346 4.39694 -3.33726 0
M  V30 2508 H 236.822 3.88951 -1.4784 0
M  V30 2509 H 235.698 5.27183 -1.52869 0
M  V30 2510 H 235.959 4.42098 -0.0142953 0
M  V30 2511 N 235.018 0.912232 1.28515 0
M  V30 2512 C 235.951 0.343928 2.25593 0
M  V30 2513 C 236.929 -0.550994 1.5298 0
M  V30 2514 O 238.113 -0.494991 1.81885 0
M  V30 2515 C 235.24 -0.508525 3.34861 0
M  V30 2516 C 234.286 0.320808 4.25292 0
M  V30 2517 S 235.119 1.72658 5.06902 0
M  V30 2518 C 236.275 0.881394 6.19663 0
M  V30 2519 H 236.508 1.16674 2.73449 0
M  V30 2520 H 234.041 0.713384 1.36931 0
M  V30 2521 H 235.999 -0.994539 3.9827 0
M  V30 2522 H 234.66 -1.30571 2.85675 0
M  V30 2523 H 233.853 -0.330941 5.02912 0
M  V30 2524 H 233.455 0.74042 3.66598 0
M  V30 2525 H 235.747 0.110359 6.7741 0
M  V30 2526 H 236.69 1.63009 6.89082 0
M  V30 2527 H 237.098 0.430239 5.62858 0
M  V30 2528 N 236.496 -1.42363 0.676048 0
M  V30 2529 C 237.773 -1.95183 0.127726 0
M  V30 2530 C 238.153 -1.61641 -1.35777 0
M  V30 2531 O 237.501 -0.913216 -2.09458 0
M  V30 2532 C 237.711 -3.46721 0.398199 0
M  V30 2533 C 239.059 -4.23427 0.315383 0
M  V30 2534 O 240.083 -3.54649 0.332016 0
M  V30 2535 O 238.942 -5.45888 0.25865 0
M  V30 2536 H 236.036 -0.826992 0.00359427 0
M  V30 2537 H 238.582 -1.52184 0.750864 0
M  V30 2538 H 237.354 -3.64344 1.4272 0
M  V30 2539 H 236.977 -3.96769 -0.256885 0
M  V30 2540 N 237.974 -0.419461 -1.51915 0
M  V30 2541 C 239.221 0.152939 -2.01922 0
M  V30 2542 C 239.549 1.4426 -1.30458 0
M  V30 2543 O 238.804 1.91514 -0.402593 0
M  V30 2544 C 239.103 0.437067 -3.54717 0
M  V30 2545 C 238.769 -0.764632 -4.44369 0
M  V30 2546 C 237.431 -1.09423 -4.68594 0
M  V30 2547 C 239.783 -1.56713 -4.97082 0
M  V30 2548 C 237.111 -2.22732 -5.42777 0
M  V30 2549 C 239.463 -2.69107 -5.72507 0
M  V30 2550 C 238.127 -3.02541 -5.95 0
M  V30 2551 H 237.397 0.0559644 -0.738884 0
M  V30 2552 H 240.044 -0.562998 -1.83037 0
M  V30 2553 H 238.349 1.23469 -3.71837 0
M  V30 2554 H 240.046 0.893083 -3.90928 0
M  V30 2555 H 236.636 -0.497775 -4.257 0
M  V30 2556 H 240.82 -1.32571 -4.78266 0
M  V30 2557 H 236.076 -2.48971 -5.58411 0
M  V30 2558 H 240.25 -3.31671 -6.12346 0
M  V30 2559 H 237.877 -3.90457 -6.52264 0
M  V30 2560 N 239.452 1.56882 -0.150215 0
M  V30 2561 C 240.382 2.19935 0.784284 0
M  V30 2562 C 241.363 1.14854 1.25469 0
M  V30 2563 O 242.548 1.43209 1.31168 0
M  V30 2564 C 239.678 2.82349 2.02229 0
M  V30 2565 C 238.632 3.93285 1.68853 0
M  V30 2566 C 237.958 4.42649 2.99944 0
M  V30 2567 C 239.258 5.13904 0.932714 0
M  V30 2568 H 240.952 2.9828 0.258781 0
M  V30 2569 H 238.498 1.43473 0.123029 0
M  V30 2570 H 240.451 3.25126 2.68088 0
M  V30 2571 H 239.175 2.0134 2.57157 0
M  V30 2572 H 237.834 3.5113 1.05371 0
M  V30 2573 H 237.482 3.58458 3.52869 0
M  V30 2574 H 237.182 5.17476 2.78374 0
M  V30 2575 H 238.706 4.88099 3.66868 0
M  V30 2576 H 240.12 5.53506 1.49345 0
M  V30 2577 H 238.517 5.94515 0.81684 0
M  V30 2578 H 239.587 4.84842 -0.0749568 0
M  V30 2579 N 240.93 -0.123565 1.57115 0
M  V30 2580 C 242.178 -0.83051 1.84247 0
M  V30 2581 C 242.499 -1.80629 0.73471 0
M  V30 2582 O 241.769 -1.94403 -0.241688 0
M  V30 2583 H 240.349 -0.309694 0.679778 0
M  V30 2584 H 243.011 -0.111976 1.94578 0
M  V30 2585 H 242.107 -1.37852 2.80006 0
M  V30 2586 N 242.408 -1.52605 -0.393616 0
M  V30 2587 C 243.655 -1.67424 -1.1391 0
M  V30 2588 C 243.983 -0.411859 -1.90089 0
M  V30 2589 O 243.238 0.605626 -1.86093 0
M  V30 2590 C 243.537 -2.85721 -2.14705 0
M  V30 2591 C 243.203 -4.23342 -1.55218 0
M  V30 2592 C 241.865 -4.60771 -1.3872 0
M  V30 2593 C 244.217 -5.09041 -1.11924 0
M  V30 2594 C 241.545 -5.81563 -0.774689 0
M  V30 2595 C 243.897 -6.30452 -0.520853 0
M  V30 2596 C 242.561 -6.66617 -0.343134 0
M  V30 2597 H 241.831 -0.612648 -0.416826 0
M  V30 2598 H 244.478 -1.8674 -0.424315 0
M  V30 2599 H 242.783 -2.60803 -2.92385 0
M  V30 2600 H 244.48 -2.94382 -2.72288 0
M  V30 2601 H 241.07 -3.93855 -1.69045 0
M  V30 2602 H 245.254 -4.80695 -1.23473 0
M  V30 2603 H 240.51 -6.08196 -0.625154 0
M  V30 2604 H 244.684 -6.96175 -0.177065 0
M  V30 2605 H 242.311 -7.60083 0.133571 0
M  V30 2606 N 243.887 0.651787 -1.4349 0
M  V30 2607 C 244.835 1.78586 -1.49029 0
M  V30 2608 C 245.829 1.65448 -0.363767 0
M  V30 2609 O 247.035 1.71777 -0.537821 0
M  V30 2610 H 243.41 0.589236 -0.467231 0
M  V30 2611 H 245.381 1.71035 -2.44519 0
M  V30 2612 C 244.13 3.16851 -1.43181 0
M  V30 2613 H 243.453 3.27598 -2.29171 0
M  V30 2614 H 244.893 3.96156 -1.51118 0
M  V30 2615 C 243.352 3.36568 -0.149616 0
M  V30 2616 O 243.882 3.93885 0.788509 0
M  V30 2617 N 242.088 2.90539 -0.0593484 0
M  V30 2618 H 241.635 2.4408 -0.823575 0
M  V30 2619 H 241.593 3.04108 0.797853 0
M  V30 2620 N 245.365 1.30045 0.890287 0
M  V30 2621 C 246.611 1.19747 1.64415 0
M  V30 2622 C 246.966 -0.246591 1.90813 0
M  V30 2623 O 246.259 -1.174 1.51419 0
M  V30 2624 C 246.453 1.95409 2.99249 0
M  V30 2625 C 246.282 3.47025 2.86013 0
M  V30 2626 C 245.052 4.1638 2.86279 0
M  V30 2627 C 247.25 4.42353 2.62351 0
M  V30 2628 N 245.232 5.54293 2.63879 0
M  V30 2629 C 246.603 5.67792 2.49022 0
M  V30 2630 C 248.658 4.32009 2.47533 0
M  V30 2631 C 247.361 6.8406 2.22383 0
M  V30 2632 C 249.387 5.48038 2.22279 0
M  V30 2633 C 248.749 6.72455 2.09722 0
M  V30 2634 H 244.848 0.493223 0.60684 0
M  V30 2635 H 247.432 1.6399 1.04954 0
M  V30 2636 H 245.603 1.53565 3.56752 0
M  V30 2637 H 247.335 1.77298 3.63796 0
M  V30 2638 H 244.09 3.68164 2.97913 0
M  V30 2639 H 244.514 6.26852 2.55706 0
M  V30 2640 H 249.156 3.36503 2.55979 0
M  V30 2641 H 246.874 7.79612 2.12675 0
M  V30 2642 H 250.46 5.41939 2.11643 0
M  V30 2643 H 249.34 7.60722 1.90453 0
M  V30 2644 N 246.843 -1.10192 1.12674 0
M  V30 2645 C 247.791 -2.18694 0.792196 0
M  V30 2646 C 248.785 -1.67938 -0.222058 0
M  V30 2647 O 249.991 -1.79822 -0.0800074 0
M  V30 2648 H 246.366 -0.713223 0.238364 0
M  V30 2649 H 248.337 -2.44149 1.71564 0
M  V30 2650 C 247.086 -3.46682 0.265859 0
M  V30 2651 H 246.409 -3.86101 1.03761 0
M  V30 2652 H 247.849 -4.23942 0.0701128 0
M  V30 2653 C 246.308 -3.21506 -1.00675 0
M  V30 2654 O 246.838 -3.43408 -2.08408 0
M  V30 2655 N 245.044 -2.75158 -0.934692 0
M  V30 2656 H 244.591 -2.57535 -0.0578604 0
M  V30 2657 H 244.549 -2.58691 -1.7868 0
M  V30 2658 N 248.321 -0.919034 -1.28029 0
M  V30 2659 C 249.567 -0.565221 -1.95389 0
M  V30 2660 C 249.922 0.882325 -1.70976 0
M  V30 2661 O 249.215 1.61988 -1.02325 0
M  V30 2662 C 249.409 -0.816855 -3.4794 0
M  V30 2663 C 249.238 -2.28731 -3.87185 0
M  V30 2664 C 248.008 -2.93841 -4.11079 0
M  V30 2665 C 250.206 -3.26415 -3.97439 0
M  V30 2666 N 248.188 -4.31129 -4.37037 0
M  V30 2667 C 249.559 -4.48884 -4.27672 0
M  V30 2668 C 251.614 -3.21742 -3.79982 0
M  V30 2669 C 250.317 -5.67268 -4.42266 0
M  V30 2670 C 252.343 -4.39431 -3.95796 0
M  V30 2671 C 251.705 -5.60675 -4.26407 0
M  V30 2672 H 247.804 -0.256797 -0.738633 0
M  V30 2673 H 250.388 -1.18386 -1.54573 0
M  V30 2674 H 248.559 -0.227445 -3.87733 0
M  V30 2675 H 250.291 -0.426542 -4.02446 0
M  V30 2676 H 247.046 -2.44547 -4.05578 0
M  V30 2677 H 247.47 -5.02127 -4.5409 0
M  V30 2678 H 252.112 -2.29079 -3.55363 0
M  V30 2679 H 249.83 -6.60406 -4.65714 0
M  V30 2680 H 253.416 -4.37323 -3.83719 0
M  V30 2681 H 252.296 -6.50223 -4.38383 0
M  V30 2682 N 249.799 1.42003 -0.683588 0
M  V30 2683 C 251.048 2.00638 -0.206681 0
M  V30 2684 C 251.361 1.5472 1.19671 0
M  V30 2685 O 252.567 2.05833 1.77045 0
M  V30 2686 C 251.023 3.58487 -0.318632 0
M  V30 2687 C 250.631 4.1339 -1.72663 0
M  V30 2688 C 252.375 4.24384 0.0991141 0
M  V30 2689 C 250.282 5.63633 -1.79087 0
M  V30 2690 H 249.212 0.750408 -0.0735107 0
M  V30 2691 H 251.863 1.62624 -0.850048 0
M  V30 2692 H 250.245 3.94047 0.392781 0
M  V30 2693 H 251.419 3.89273 -2.46583 0
M  V30 2694 H 249.734 3.59976 -2.09299 0
M  V30 2695 H 252.331 5.34652 0.0713833 0
M  V30 2696 H 252.674 4.00505 1.13586 0
M  V30 2697 H 253.207 3.93816 -0.561599 0
M  V30 2698 H 249.946 5.92323 -2.80774 0
M  V30 2699 H 249.466 5.89714 -1.09535 0
M  V30 2700 H 251.145 6.28201 -1.5483 0
M  V30 2701 N 251.277 0.427512 1.51691 0
M  V30 2702 C 252.225 -0.403359 2.29076 0
M  V30 2703 C 253.219 -1.02962 1.34518 0
M  V30 2704 O 254.425 -0.965715 1.51901 0
M  V30 2705 H 250.8 -0.148879 0.737115 0
M  V30 2706 H 252.771 0.270295 2.97173 0
M  V30 2707 C 251.52 -1.49763 3.13794 0
M  V30 2708 H 250.843 -1.02508 3.86435 0
M  V30 2709 H 252.283 -2.05244 3.71014 0
M  V30 2710 C 250.742 -2.47536 2.28533 0
M  V30 2711 O 251.272 -3.51848 1.93819 0
M  V30 2712 N 249.478 -2.18187 1.91945 0
M  V30 2713 H 249.025 -1.33389 2.20375 0
M  V30 2714 H 248.983 -2.83848 1.35195 0
M  V30 2715 N 252.755 -1.56801 0.158532 0
M  V30 2716 C 253.702 -2.17337 -0.776729 0
M  V30 2717 C 254.672 -1.1096 -1.23601 0
M  V30 2718 O 255.857 -1.39054 -1.30647 0
M  V30 2719 C 252.997 -2.80822 -2.00582 0
M  V30 2720 C 252.11 -4.01624 -1.59129 0
M  V30 2721 C 251.245 -4.53072 -2.77306 0
M  V30 2722 C 250.284 -5.66314 -2.32282 0
M  V30 2723 N 249.421 -6.12329 -3.43508 0
M  V30 2724 H 254.261 -2.96918 -0.253701 0
M  V30 2725 H 251.798 -1.46661 -0.113504 0
M  V30 2726 H 253.756 -3.15779 -2.72652 0
M  V30 2727 H 252.386 -2.03866 -2.50277 0
M  V30 2728 H 251.438 -3.72571 -0.767806 0
M  V30 2729 H 252.75 -4.83633 -1.2207 0
M  V30 2730 H 251.904 -4.90145 -3.57551 0
M  V30 2731 H 250.643 -3.70095 -3.17617 0
M  V30 2732 H 249.648 -5.28806 -1.5048 0
M  V30 2733 H 250.873 -6.51085 -1.93043 0
M  V30 2734 H 248.819 -5.32284 -3.83418 0
M  V30 2735 H 248.736 -6.89293 -3.105 0
M  V30 2736 H 250.004 -6.5405 -4.24075 0
M  V30 2737 N 254.233 0.115231 -1.57178 0
M  V30 2738 C 255.165 1.16694 -1.97269 0
M  V30 2739 C 256.178 1.37445 -0.872502 0
M  V30 2740 O 257.367 1.36454 -1.15077 0
M  V30 2741 C 254.467 2.52627 -2.25905 0
M  V30 2742 C 253.64 2.52427 -3.57211 0
M  V30 2743 C 252.699 3.70134 -3.74016 0
M  V30 2744 O 251.725 3.53546 -4.46087 0
M  V30 2745 N 252.927 4.88844 -3.13068 0
M  V30 2746 H 255.692 0.82588 -2.88096 0
M  V30 2747 H 253.253 0.304461 -1.59011 0
M  V30 2748 H 255.245 3.29937 -2.34359 0
M  V30 2749 H 253.815 2.789 -1.41186 0
M  V30 2750 H 253.035 1.60805 -3.5991 0
M  V30 2751 H 254.323 2.49353 -4.43509 0
M  V30 2752 H 253.721 5.05225 -2.54489 0
M  V30 2753 H 252.278 5.63817 -3.27037 0
M  V30 2754 N 255.711 1.52812 0.385517 0
M  V30 2755 C 256.643 1.74096 1.49074 0
M  V30 2756 C 257.656 0.621462 1.50472 0
M  V30 2757 O 258.845 0.897245 1.54311 0
M  V30 2758 C 255.945 1.78774 2.87911 0
M  V30 2759 C 255.118 3.08134 3.10439 0
M  V30 2760 C 254.177 3.04313 4.29278 0
M  V30 2761 O 253.203 3.78168 4.25415 0
M  V30 2762 N 254.405 2.23741 5.35649 0
M  V30 2763 H 257.17 2.69455 1.31202 0
M  V30 2764 H 254.731 1.51343 0.575065 0
M  V30 2765 H 256.723 1.73721 3.65518 0
M  V30 2766 H 255.293 0.907869 2.99126 0
M  V30 2767 H 254.513 3.26649 2.20667 0
M  V30 2768 H 255.801 3.93662 3.22347 0
M  V30 2769 H 255.199 1.63211 5.41645 0
M  V30 2770 H 253.756 2.24524 6.11909 0
M  V30 2771 N 257.189 -0.644168 1.43834 0
M  V30 2772 C 258.437 -1.40117 1.45642 0
M  V30 2773 C 258.758 -1.94814 0.0852413 0
M  V30 2774 O 258.028 -1.74988 -0.880688 0
M  V30 2775 H 256.608 -0.52005 0.536243 0
M  V30 2776 H 259.27 -0.7591 1.7951 0
M  V30 2777 H 258.366 -2.23902 2.17427 0
M  V30 2778 N 258.668 -1.30515 -0.883378 0
M  V30 2779 C 259.615 -1.17032 -1.98927 0
M  V30 2780 C 260.585 -0.0594241 -1.65994 0
M  V30 2781 O 261.77 -0.229895 -1.8941 0
M  V30 2782 C 258.91 -0.869777 -3.33959 0
M  V30 2783 C 258.023 -2.06271 -3.79574 0
M  V30 2784 C 257.158 -1.70011 -5.03259 0
M  V30 2785 C 256.197 -2.8579 -5.41286 0
M  V30 2786 N 255.334 -2.49816 -6.56153 0
M  V30 2787 H 260.174 -2.1164 -2.09792 0
M  V30 2788 H 257.711 -1.05296 -1.02719 0
M  V30 2789 H 259.669 -0.676138 -4.11685 0
M  V30 2790 H 258.299 0.0394332 -3.22776 0
M  V30 2791 H 257.351 -2.36755 -2.97744 0
M  V30 2792 H 258.663 -2.92971 -4.03694 0
M  V30 2793 H 257.817 -1.47032 -5.88614 0
M  V30 2794 H 256.556 -0.804829 -4.81013 0
M  V30 2795 H 255.561 -3.09434 -4.54456 0
M  V30 2796 H 256.786 -3.76008 -5.65504 0
M  V30 2797 H 254.732 -1.62795 -6.35479 0
M  V30 2798 H 254.649 -3.30048 -6.8015 0
M  V30 2799 H 255.917 -2.30197 -7.44735 0
M  V30 2800 N 260.146 1.09593 -1.13257 0
M  V30 2801 C 261.562 1.33775 -0.870423 0
M  V30 2802 C 261.762 1.95327 0.494926 0
M  V30 2803 O 260.818 2.19853 1.2418 0
M  V30 2804 C 262.131 2.25106 -1.99369 0
M  V30 2805 C 263.679 2.3862 -2.02558 0
M  V30 2806 C 264.154 3.33285 -3.14142 0
M  V30 2807 N 265.645 3.40857 -3.13641 0
M  V30 2808 C 266.38 4.14101 -3.96621 0
M  V30 2809 N 265.876 4.90157 -4.8961 0
M  V30 2810 N 267.669 4.09808 -3.84726 0
M  V30 2811 H 259.82 0.680136 -2.01216 0
M  V30 2812 H 262.083 0.362133 -0.876107 0
M  V30 2813 H 261.789 1.87103 -2.97801 0
M  V30 2814 H 261.663 3.25481 -1.90635 0
M  V30 2815 H 264.05 2.75887 -1.0474 0
M  V30 2816 H 264.131 1.38028 -2.15364 0
M  V30 2817 H 263.775 2.96741 -4.12198 0
M  V30 2818 H 263.705 4.33776 -2.98574 0
M  V30 2819 H 266.196 2.86624 -2.46282 0
M  V30 2820 H 266.509 5.4347 -5.49418 0
M  V30 2821 H 264.854 4.89251 -4.93617 0
M  V30 2822 H 268.045 3.4949 -3.11408 0
M  V30 2823 H 268.218 4.66629 -4.49623 0
M  V30 2824 N 261.624 0.925811 1.2754 0
M  V30 2825 C 262.872 0.564138 1.94067 0
M  V30 2826 C 263.193 -0.897188 1.73134 0
M  V30 2827 O 262.463 -1.63573 1.07799 0
M  V30 2828 H 261.043 0.205645 0.718136 0
M  V30 2829 H 263.705 1.1778 1.55287 0
M  V30 2830 H 262.801 0.76881 3.02483 0
M  V30 2831 N 263.102 -1.41638 0.69111 0
M  V30 2832 C 264.348 -2.02104 0.229258 0
M  V30 2833 C 264.703 -1.53741 -1.15678 0
M  V30 2834 O 263.996 -0.736849 -1.76865 0
M  V30 2835 C 264.19 -3.56714 0.221277 0
M  V30 2836 C 264.019 -4.20083 1.605 0
M  V30 2837 C 262.789 -4.54566 2.20676 0
M  V30 2838 C 264.987 -4.46587 2.55078 0
M  V30 2839 N 262.969 -5.03199 3.5166 0
M  V30 2840 C 264.34 -4.96946 3.70735 0
M  V30 2841 C 266.395 -4.28593 2.53401 0
M  V30 2842 C 265.098 -5.31203 4.8499 0
M  V30 2843 C 267.124 -4.63936 3.66765 0
M  V30 2844 C 266.486 -5.14463 4.81152 0
M  V30 2845 H 262.585 -0.771256 0.12918 0
M  V30 2846 H 265.169 -1.72251 0.907626 0
M  V30 2847 H 263.34 -3.86051 -0.426562 0
M  V30 2848 H 265.072 -4.03896 -0.254983 0
M  V30 2849 H 261.827 -4.4087 1.73005 0
M  V30 2850 H 262.251 -5.31926 4.18789 0
M  V30 2851 H 266.893 -3.88771 1.66184 0
M  V30 2852 H 264.611 -5.69951 5.72871 0
M  V30 2853 H 268.197 -4.51677 3.66714 0
M  V30 2854 H 267.077 -5.41299 5.67419 0
M  V30 2855 N 264.58 -0.43555 -1.51462 0
M  V30 2856 C 265.828 0.131254 -2.01673 0
M  V30 2857 C 266.149 1.43368 -1.32177 0
M  V30 2858 O 265.419 1.90524 -0.455769 0
M  V30 2859 H 263.999 0.0514954 -0.745223 0
M  V30 2860 H 266.661 -0.577847 -1.86137 0
M  V30 2861 H 265.757 0.308446 -3.10572 0
M  V30 2862 N 266.058 1.56714 -0.166846 0
M  V30 2863 C 266.99 2.14914 0.796537 0
M  V30 2864 C 268.003 1.10357 1.19688 0
M  V30 2865 O 269.192 1.37561 1.13751 0
M  V30 2866 C 266.292 2.67326 2.08303 0
M  V30 2867 C 265.465 3.96493 1.84696 0
M  V30 2868 C 264.524 4.34014 2.97521 0
M  V30 2869 O 263.55 5.01973 2.6835 0
M  V30 2870 N 264.752 3.95208 4.25196 0
M  V30 2871 H 267.517 2.98205 0.299006 0
M  V30 2872 H 265.078 1.61892 0.0160839 0
M  V30 2873 H 267.07 2.89428 2.82867 0
M  V30 2874 H 265.64 1.88649 2.4926 0
M  V30 2875 H 264.86 3.82814 0.940602 0
M  V30 2876 H 266.148 4.8086 1.66285 0
M  V30 2877 H 265.546 3.40487 4.51758 0
M  V30 2878 H 264.103 4.2232 4.96477 0
M  V30 2879 N 267.536 -0.106894 1.57237 0
M  V30 2880 C 268.466 -1.13148 2.04254 0
M  V30 2881 C 269.447 -1.42476 0.929224 0
M  V30 2882 O 270.632 -1.52709 1.19973 0
M  V30 2883 C 267.762 -2.4545 2.45706 0
M  V30 2884 C 266.716 -2.30558 3.60592 0
M  V30 2885 C 266.042 -3.67931 3.87983 0
M  V30 2886 C 267.342 -1.75597 4.91897 0
M  V30 2887 H 269.036 -0.740374 2.90101 0
M  V30 2888 H 266.582 -0.354696 1.39563 0
M  V30 2889 H 268.535 -3.17389 2.77205 0
M  V30 2890 H 267.259 -2.86475 1.56843 0
M  V30 2891 H 265.918 -1.61067 3.29322 0
M  V30 2892 H 265.566 -4.06462 2.96306 0
M  V30 2893 H 265.266 -3.58817 4.65322 0
M  V30 2894 H 266.79 -4.41356 4.21945 0
M  V30 2895 H 268.204 -2.37364 5.21854 0
M  V30 2896 H 266.601 -1.77272 5.73319 0
M  V30 2897 H 267.671 -0.714451 4.79608 0
M  V30 2898 N 269.014 -1.53014 -0.377408 0
M  V30 2899 C 270.242 -1.72515 -1.14219 0
M  V30 2900 C 270.657 -0.448735 -1.8339 0
M  V30 2901 O 270.014 0.577592 -1.73119 0
M  V30 2902 C 270.065 -2.8826 -2.18148 0
M  V30 2903 O 269.786 -4.10962 -1.51795 0
M  V30 2904 C 271.287 -3.19536 -3.07264 0
M  V30 2905 H 268.507 -0.577301 -0.342001 0
M  V30 2906 H 271.051 -1.99712 -0.439935 0
M  V30 2907 H 269.206 -2.63492 -2.83991 0
M  V30 2908 H 269.62 -4.75693 -2.20945 0
M  V30 2909 H 271.094 -4.03959 -3.76193 0
M  V30 2910 H 271.571 -2.34403 -3.71419 0
M  V30 2911 H 272.177 -3.46186 -2.47053 0
M  V30 2912 N 270.492 0.636531 -1.44174 0
M  V30 2913 C 271.717 1.42847 -1.50364 0
M  V30 2914 C 272.142 1.87665 -0.127867 0
M  V30 2915 O 271.5 1.58408 0.88185 0
M  V30 2916 C 271.548 2.62854 -2.4686 0
M  V30 2917 O 270.652 3.62501 -1.9664 0
M  V30 2918 H 269.993 0.427642 -0.507955 0
M  V30 2919 H 272.523 0.777422 -1.89255 0
M  V30 2920 H 272.533 3.10465 -2.64718 0
M  V30 2921 H 271.208 2.29578 -3.46795 0
M  V30 2922 H 269.785 3.21735 -1.88523 0
M  V30 2923 N 271.97 1.30982 0.876444 0
M  V30 2924 C 272.918 1.18006 2.00443 0
M  V30 2925 C 273.912 0.0898871 1.69161 0
M  V30 2926 O 275.118 0.251333 1.78237 0
M  V30 2927 H 271.493 0.365196 0.65737 0
M  V30 2928 H 273.464 2.13453 2.0852 0
M  V30 2929 C 272.213 0.897521 3.35916 0
M  V30 2930 H 271.536 1.7285 3.60504 0
M  V30 2931 H 272.976 0.846874 4.15456 0
M  V30 2932 C 271.435 -0.399674 3.34521 0
M  V30 2933 O 271.965 -1.41852 3.7582 0
M  V30 2934 N 270.171 -0.413893 2.87637 0
M  V30 2935 H 269.718 0.41571 2.54224 0
M  V30 2936 H 269.676 -1.28175 2.87086 0
M  V30 2937 N 273.449 -1.08991 1.13837 0
M  V30 2938 C 274.379 -2.17771 0.842507 0
M  V30 2939 C 275.36 -1.6892 -0.20001 0
M  V30 2940 O 276.545 -1.94113 -0.0579731 0
M  V30 2941 C 273.675 -3.4589 0.312644 0
M  V30 2942 C 272.629 -4.08099 1.28992 0
M  V30 2943 C 271.955 -5.31098 0.619623 0
M  V30 2944 C 273.255 -4.50077 2.65005 0
M  V30 2945 H 274.949 -2.42777 1.75213 0
M  V30 2946 H 272.495 -1.16682 0.843875 0
M  V30 2947 H 274.448 -4.21297 0.0933043 0
M  V30 2948 H 273.172 -3.20419 -0.632382 0
M  V30 2949 H 271.831 -3.34717 1.49533 0
M  V30 2950 H 271.479 -5.0191 -0.33102 0
M  V30 2951 H 271.179 -5.73674 1.27167 0
M  V30 2952 H 272.703 -6.09224 0.409669 0
M  V30 2953 H 274.117 -5.16688 2.48407 0
M  V30 2954 H 272.514 -5.03553 3.26427 0
M  V30 2955 H 273.584 -3.62257 3.22332 0
M  V30 2956 N 274.927 -0.932562 -1.27047 0
M  V30 2957 C 275.857 -0.452902 -2.29066 0
M  V30 2958 C 276.838 0.489338 -1.62909 0
M  V30 2959 O 278.023 0.393046 -1.90181 0
M  V30 2960 C 275.153 0.290698 -3.46081 0
M  V30 2961 C 274.107 -0.564168 -4.24265 0
M  V30 2962 C 273.433 0.308886 -5.33807 0
M  V30 2963 C 274.733 -1.83112 -4.89149 0
M  V30 2964 H 276.427 -1.30552 -2.69437 0
M  V30 2965 H 273.973 -0.629201 -1.29526 0
M  V30 2966 H 275.926 0.637233 -4.16554 0
M  V30 2967 H 274.65 1.17738 -3.0464 0
M  V30 2968 H 273.309 -0.893477 -3.55545 0
M  V30 2969 H 272.957 1.19467 -4.88607 0
M  V30 2970 H 272.657 -0.259633 -5.87026 0
M  V30 2971 H 274.181 0.650884 -6.07121 0
M  V30 2972 H 275.595 -1.55236 -5.51883 0
M  V30 2973 H 273.992 -2.34353 -5.52448 0
M  V30 2974 H 275.062 -2.54772 -4.12576 0
M  V30 2975 N 276.405 1.4127 -0.698611 0
M  V30 2976 C 277.335 2.33447 -0.049629 0
M  V30 2977 C 278.316 1.51982 0.763898 0
M  V30 2978 O 279.501 1.80509 0.716257 0
M  V30 2979 C 276.631 3.35828 0.885267 0
M  V30 2980 C 275.585 4.27627 0.178613 0
M  V30 2981 C 274.911 5.20406 1.22807 0
M  V30 2982 C 276.211 5.13459 -0.956933 0
M  V30 2983 H 277.905 2.87966 -0.81951 0
M  V30 2984 H 275.451 1.38461 -0.395538 0
M  V30 2985 H 277.404 3.9924 1.34854 0
M  V30 2986 H 276.128 2.79666 1.68685 0
M  V30 2987 H 274.787 3.65643 -0.26466 0
M  V30 2988 H 274.435 4.60558 2.02226 0
M  V30 2989 H 274.135 5.82661 0.760239 0
M  V30 2990 H 275.659 5.86695 1.69179 0
M  V30 2991 H 277.073 5.70421 -0.573805 0
M  V30 2992 H 275.47 5.8467 -1.35205 0
M  V30 2993 H 276.54 4.50443 -1.79524 0
M  V30 2994 N 277.883 0.443576 1.51229 0
M  V30 2995 C 279.132 -0.122332 2.01329 0
M  V30 2996 C 279.445 -1.43237 1.33201 0
M  V30 2997 O 280.651 -2.0816 1.74304 0
M  V30 2998 C 279.107 -0.268551 3.58897 0
M  V30 2999 C 278.715 1.03142 4.35965 0
M  V30 3000 C 280.459 -0.787894 4.17124 0
M  V30 3001 C 278.366 0.850504 5.85252 0
M  V30 3002 H 277.296 -0.0494929 0.752374 0
M  V30 3003 H 279.947 0.574289 1.74282 0
M  V30 3004 H 278.329 -1.02832 3.82415 0
M  V30 3005 H 279.503 1.80001 4.24189 0
M  V30 3006 H 277.818 1.47977 3.89219 0
M  V30 3007 H 280.415 -0.939841 5.26375 0
M  V30 3008 H 280.758 -1.77201 3.76703 0
M  V30 3009 H 281.291 -0.0862669 3.97706 0
M  V30 3010 H 278.03 1.80718 6.30096 0
M  V30 3011 H 277.55 0.121825 5.99676 0
M  V30 3012 H 279.229 0.506163 6.45017 0
M  V30 3013 N 279.361 -1.56624 0.175154 0
M  V30 3014 C 280.609 -1.96609 -0.467885 0
M  V30 3015 C 280.93 -1.06238 -1.63519 0
M  V30 3016 O 280.2 -0.129523 -1.95471 0
M  V30 3017 H 278.78 -0.726008 -0.175845 0
M  V30 3018 H 281.442 -1.93195 0.257234 0
M  V30 3019 H 280.538 -3.00989 -0.825342 0
M  V30 3020 N 280.839 0.0985539 -1.57292 0
M  V30 3021 C 281.772 1.15082 -1.97057 0
M  V30 3022 C 282.75 1.39025 -0.843255 0
M  V30 3023 O 283.934 1.52842 -1.10325 0
M  V30 3024 C 281.061 2.50069 -2.28437 0
M  V30 3025 C 280.107 2.42428 -3.509 0
M  V30 3026 S 280.94 1.84414 -5.02744 0
M  V30 3027 C 282.096 3.21032 -5.37298 0
M  V30 3028 H 282.329 0.811815 -2.86002 0
M  V30 3029 H 279.862 0.306102 -1.51335 0
M  V30 3030 H 281.82 3.27729 -2.47192 0
M  V30 3031 H 280.481 2.8114 -1.40069 0
M  V30 3032 H 279.674 3.41911 -3.70288 0
M  V30 3033 H 279.276 1.72896 -3.31637 0
M  V30 3034 H 281.568 4.17297 -5.33731 0
M  V30 3035 H 282.511 3.06452 -6.38352 0
M  V30 3036 H 282.919 3.20404 -4.64759 0
M  V30 3037 N 282.317 1.53212 0.369288 0
M  V30 3038 C 283.227 1.82342 1.47609 0
M  V30 3039 C 284.243 0.711532 1.58787 0
M  V30 3040 O 285.419 1.0012 1.74751 0
M  V30 3041 C 282.484 2.00393 2.8292 0
M  V30 3042 C 281.545 3.24297 2.81301 0
M  V30 3043 C 280.778 3.41478 4.10157 0
M  V30 3044 O 281.001 2.63033 5.06132 0
M  V30 3045 O 279.935 4.34817 4.16194 0
M  V30 3046 H 283.761 2.76366 1.25918 0
M  V30 3047 H 281.346 1.38547 0.559034 0
M  V30 3048 H 283.228 2.13859 3.63101 0
M  V30 3049 H 281.903 1.09559 3.04596 0
M  V30 3050 H 280.81 3.16257 1.99831 0
M  V30 3051 H 282.143 4.15041 2.64578 0
M  V30 3052 N 283.795 -0.628877 1.44509 0
M  V30 3053 C 285.043 -1.38565 1.4712 0
M  V30 3054 C 285.364 -1.94712 0.105899 0
M  V30 3055 O 284.634 -1.75912 -0.862079 0
M  V30 3056 H 283.214 -0.514333 0.541729 0
M  V30 3057 H 285.876 -0.740018 1.80305 0
M  V30 3058 H 284.972 -2.21583 2.19789 0
M  V30 3059 N 285.273 -1.31445 -0.869486 0
M  V30 3060 C 286.221 -1.19067 -1.99814 0
M  V30 3061 C 287.215 -0.0988569 -1.69111 0
M  V30 3062 O 288.421 -0.260781 -1.78101 0
M  V30 3063 H 284.796 -0.368677 -0.655425 0
M  V30 3064 H 286.767 -2.14555 -2.07385 0
M  V30 3065 C 285.516 -0.915323 -3.35436 0
M  V30 3066 H 284.839 -1.74759 -3.59582 0
M  V30 3067 H 286.279 -0.868895 -4.15001 0
M  V30 3068 C 284.738 0.381928 -3.34728 0
M  V30 3069 O 285.268 1.39857 -3.76567 0
M  V30 3070 N 283.474 0.398633 -2.87853 0
M  V30 3071 H 283.021 -0.429186 -2.54 0
M  V30 3072 H 282.979 1.26651 -2.87762 0
M  V30 3073 N 286.751 1.08385 -1.14413 0
M  V30 3074 C 287.997 1.81044 -0.913834 0
M  V30 3075 C 288.33 1.86004 0.558209 0
M  V30 3076 O 287.605 1.33606 1.4135 0
M  V30 3077 C 287.888 3.26648 -1.51569 0
M  V30 3078 C 287.741 3.29895 -3.0576 0
M  V30 3079 C 289.06 4.23629 -1.19273 0
M  V30 3080 H 286.179 0.65727 -0.333414 0
M  V30 3081 H 288.821 1.26896 -1.41412 0
M  V30 3082 H 286.971 3.72889 -1.09023 0
M  V30 3083 H 288.643 2.91977 -3.57137 0
M  V30 3084 H 286.886 2.69163 -3.40197 0
M  V30 3085 H 287.557 4.32516 -3.42977 0
M  V30 3086 H 290.033 3.85727 -1.56057 0
M  V30 3087 H 288.909 5.23822 -1.64017 0
M  V30 3088 H 289.17 4.41968 -0.108068 0
M  V30 3089 N 288.23 0.939286 1.26551 0
M  V30 3090 C 289.458 0.602536 1.97932 0
M  V30 3091 C 289.873 -0.82206 1.69964 0
M  V30 3092 O 289.23 -1.54789 0.966784 0
M  V30 3093 C 289.281 0.832946 3.51773 0
M  V30 3094 O 289.002 2.20151 3.78768 0
M  V30 3095 C 290.503 0.506483 4.40397 0
M  V30 3096 H 287.723 0.227248 0.631347 0
M  V30 3097 H 290.267 1.25948 1.61113 0
M  V30 3098 H 288.422 0.222644 3.8676 0
M  V30 3099 H 288.836 2.26013 4.73306 0
M  V30 3100 H 290.31 0.718333 5.47306 0
M  V30 3101 H 290.787 -0.558451 4.35635 0
M  V30 3102 H 291.393 1.09543 4.10951 0
M  V30 3103 N 289.708 -1.40897 0.706093 0
M  V30 3104 C 291.119 -1.84023 0.315052 0
M  V30 3105 C 291.47 -1.5906 -1.14866 0
M  V30 3106 O 290.595 -1.06651 -1.88293 0
M  V30 3107 C 291.19 -3.34055 0.565038 0
M  V30 3108 C 289.749 -3.7571 0.227806 0
M  V30 3109 C 288.896 -2.64204 0.842122 0
M  V30 3110 H 291.847 -1.303 0.905963 0
M  V30 3111 H 291.868 -3.80107 -0.172843 0
M  V30 3112 H 291.38 -3.52192 1.63042 0
M  V30 3113 H 289.481 -3.63172 -0.832895 0
M  V30 3114 H 289.594 -4.74103 0.690174 0
M  V30 3115 H 287.958 -2.53255 0.270893 0
M  V30 3116 H 288.741 -2.85155 1.91158 0
M  V30 3117 N 291.186 -0.45159 -1.50991 0
M  V30 3118 C 292.149 0.341117 -2.26647 0
M  V30 3119 C 293.149 0.937422 -1.30649 0
M  V30 3120 O 294.339 0.809644 -1.54241 0
M  V30 3121 C 291.471 1.48398 -3.06905 0
M  V30 3122 H 292.664 -0.322117 -2.98165 0
M  V30 3123 H 290.217 -0.205122 -1.54948 0
M  V30 3124 H 290.952 2.18284 -2.39838 0
M  V30 3125 H 290.737 1.06241 -3.77432 0
M  V30 3126 H 292.227 2.04367 -3.64176 0
M  V30 3127 N 292.664 1.56529 -0.183458 0
M  V30 3128 C 293.614 2.1515 0.754605 0
M  V30 3129 C 294.598 1.08904 1.18443 0
M  V30 3130 O 295.79 1.34997 1.14476 0
M  V30 3131 C 292.919 2.80531 1.97881 0
M  V30 3132 C 292.005 3.93952 1.57043 0
M  V30 3133 N 292.396 4.98221 0.87231 0
M  V30 3134 C 290.694 4.05338 1.86057 0
M  V30 3135 C 291.395 5.77836 0.669377 0
M  V30 3136 N 290.371 5.29858 1.21454 0
M  V30 3137 H 294.173 2.93132 0.212387 0
M  V30 3138 H 291.687 1.62391 0.0167725 0
M  V30 3139 H 293.684 3.20914 2.6612 0
M  V30 3140 H 292.344 2.04035 2.52586 0
M  V30 3141 H 293.355 5.15191 0.529033 0
M  V30 3142 H 290.032 3.39957 2.42354 0
M  V30 3143 H 291.422 6.71799 0.116422 0
M  V30 3144 N 294.142 -0.090211 1.57342 0
M  V30 3145 C 295.372 -0.805055 1.90269 0
M  V30 3146 C 295.78 -1.72561 0.775842 0
M  V30 3147 O 295.123 -1.81839 -0.260843 0
M  V30 3148 C 295.185 -1.66734 3.18497 0
M  V30 3149 C 294.849 -0.918092 4.47683 0
M  V30 3150 C 295.846 -0.245674 5.19319 0
M  V30 3151 C 293.531 -0.890724 4.94339 0
M  V30 3152 C 295.525 0.444088 6.35851 0
M  V30 3153 C 293.212 -0.197179 6.10782 0
M  V30 3154 C 294.21 0.469044 6.81388 0
M  V30 3155 O 293.898 1.15146 7.95611 0
M  V30 3156 H 293.63 -0.235143 0.633785 0
M  V30 3157 H 296.184 -0.0703805 2.05279 0
M  V30 3158 H 294.414 -2.44437 2.99646 0
M  V30 3159 H 296.103 -2.25919 3.37217 0
M  V30 3160 H 296.869 -0.258246 4.84312 0
M  V30 3161 H 292.748 -1.39873 4.39268 0
M  V30 3162 H 296.292 0.964667 6.90898 0
M  V30 3163 H 292.189 -0.18247 6.45242 0
M  V30 3164 H 292.957 1.05885 8.11622 0
M  V30 3165 N 295.62 -1.53406 -0.361157 0
M  V30 3166 C 296.897 -1.60411 -1.11927 0
M  V30 3167 C 297.277 -0.414385 -2.06993 0
M  V30 3168 O 296.625 0.594976 -2.20618 0
M  V30 3169 C 296.835 -2.95652 -1.85448 0
M  V30 3170 C 298.183 -3.50386 -2.39823 0
M  V30 3171 O 299.207 -2.97711 -1.95568 0
M  V30 3172 O 298.066 -4.42482 -3.20737 0
M  V30 3173 H 295.16 -0.64811 -0.513695 0
M  V30 3174 H 297.706 -1.65749 -0.364065 0
M  V30 3175 H 296.478 -3.73682 -1.16091 0
M  V30 3176 H 296.101 -2.93825 -2.67866 0
M  V30 3177 N 297.098 0.621204 -1.44841 0
M  V30 3178 C 298.008 1.7612 -1.5498 0
M  V30 3179 C 299.024 1.68477 -0.434927 0
M  V30 3180 O 300.2 1.89076 -0.693693 0
M  V30 3181 C 297.265 3.1254 -1.50065 0
M  V30 3182 C 296.326 3.31741 -2.72482 0
M  V30 3183 C 295.559 4.61653 -2.67792 0
M  V30 3184 O 295.782 5.431 -1.74352 0
M  V30 3185 O 294.716 4.83271 -3.58794 0
M  V30 3186 H 298.542 1.70518 -2.51311 0
M  V30 3187 H 296.127 0.783643 -1.27198 0
M  V30 3188 H 298.009 3.93844 -1.49882 0
M  V30 3189 H 296.684 3.18663 -0.568806 0
M  V30 3190 H 295.591 2.50077 -2.7823 0
M  V30 3191 H 296.924 3.30486 -3.64746 0
M  V30 3192 N 298.576 1.31904 0.862503 0
M  V30 3193 C 299.508 1.16005 1.97675 0
M  V30 3194 C 300.521 0.0971234 1.6251 0
M  V30 3195 O 301.71 0.345337 1.75128 0
M  V30 3196 C 298.81 0.751791 3.30456 0
M  V30 3197 C 297.983 1.90133 3.93914 0
M  V30 3198 C 297.042 1.4779 5.05019 0
M  V30 3199 O 296.068 2.18872 5.25437 0
M  V30 3200 N 297.27 0.369491 5.79323 0
M  V30 3201 H 300.035 2.11982 2.11857 0
M  V30 3202 H 297.596 1.24337 1.03691 0
M  V30 3203 H 299.588 0.451084 4.02178 0
M  V30 3204 H 298.158 -0.116593 3.12382 0
M  V30 3205 H 297.378 2.36896 3.15078 0
M  V30 3206 H 298.666 2.67111 4.33047 0
M  V30 3207 H 298.064 -0.222299 5.65263 0
M  V30 3208 H 296.621 0.128354 6.51674 0
M  V30 3209 N 300.054 -1.07777 1.14986 0
M  V30 3210 C 300.986 -2.14769 0.800436 0
M  V30 3211 C 301.999 -1.61739 -0.185595 0
M  V30 3212 O 303.188 -1.78462 0.0370358 0
M  V30 3213 C 300.288 -3.38481 0.168533 0
M  V30 3214 C 299.461 -4.20876 1.1909 0
M  V30 3215 C 298.52 -5.22976 0.581575 0
M  V30 3216 O 297.546 -5.55388 1.24633 0
M  V30 3217 N 298.748 -5.76976 -0.638706 0
M  V30 3218 H 301.513 -2.45348 1.72118 0
M  V30 3219 H 299.074 -1.23645 1.04515 0
M  V30 3220 H 301.066 -4.03916 -0.251764 0
M  V30 3221 H 299.636 -3.05651 -0.655467 0
M  V30 3222 H 298.856 -3.51322 1.78791 0
M  V30 3223 H 300.144 -4.7274 1.88133 0
M  V30 3224 H 299.542 -5.52886 -1.19723 0
M  V30 3225 H 298.099 -6.44061 -1.00142 0
M  V30 3226 N 301.532 -0.945985 -1.26051 0
M  V30 3227 C 302.48 -0.450259 -2.282 0
M  V30 3228 C 303.474 0.47497 -1.62605 0
M  V30 3229 O 304.68 0.352653 -1.76512 0
M  V30 3230 H 301.055 -0.127081 -0.741184 0
M  V30 3231 H 303.026 -1.32422 -2.67408 0
M  V30 3232 C 301.775 0.26467 -3.46691 0
M  V30 3233 H 301.098 -0.438123 -3.97392 0
M  V30 3234 H 302.538 0.575678 -4.20074 0
M  V30 3235 C 300.997 1.48416 -3.02447 0
M  V30 3236 O 301.527 2.58227 -3.07704 0
M  V30 3237 N 299.733 1.34243 -2.57735 0
M  V30 3238 H 299.28 0.448994 -2.53657 0
M  V30 3239 H 299.238 2.15957 -2.28495 0
M  V30 3240 N 303.011 1.40521 -0.713556 0
M  V30 3241 C 304.258 2.00923 -0.25219 0
M  V30 3242 C 304.586 1.56571 1.15395 0
M  V30 3243 O 303.841 0.775874 1.79663 0
M  V30 3244 C 304.14 3.56317 -0.278 0
M  V30 3245 C 303.806 4.20246 -1.63415 0
M  V30 3246 C 302.468 4.37422 -2.00538 0
M  V30 3247 C 304.82 4.55923 -2.52554 0
M  V30 3248 C 302.148 4.87558 -3.2635 0
M  V30 3249 C 304.5 5.07458 -3.77716 0
M  V30 3250 C 303.164 5.22843 -4.14959 0
M  V30 3251 H 302.434 0.735231 -0.0922829 0
M  V30 3252 H 305.081 1.68161 -0.916188 0
M  V30 3253 H 303.386 3.88976 0.469567 0
M  V30 3254 H 305.083 4.00883 0.0967819 0
M  V30 3255 H 301.673 4.07263 -1.33546 0
M  V30 3256 H 305.857 4.42291 -2.25149 0
M  V30 3257 H 301.113 4.97654 -3.55176 0
M  V30 3258 H 305.287 5.34041 -4.4696 0
M  V30 3259 H 302.914 5.61454 -5.12516 0
M  V30 3260 N 304.489 0.459591 1.5075 0
M  V30 3261 C 305.736 -0.0993495 2.02256 0
M  V30 3262 C 306.064 -1.40751 1.34237 0
M  V30 3263 O 305.319 -1.90379 0.453228 0
M  V30 3264 C 305.618 -0.342866 3.55752 0
M  V30 3265 C 305.284 0.88218 4.42186 0
M  V30 3266 C 303.946 1.21808 4.65528 0
M  V30 3267 C 306.298 1.69837 4.92752 0
M  V30 3268 C 303.626 2.37045 5.36681 0
M  V30 3269 C 305.978 2.84192 5.65171 0
M  V30 3270 C 304.642 3.1821 5.8677 0
M  V30 3271 H 303.912 -0.0363545 0.740108 0
M  V30 3272 H 306.559 0.611329 1.8148 0
M  V30 3273 H 304.864 -1.13567 3.7498 0
M  V30 3274 H 306.561 -0.789121 3.93159 0
M  V30 3275 H 303.151 0.610467 4.2423 0
M  V30 3276 H 307.335 1.45205 4.74583 0
M  V30 3277 H 302.591 2.63689 5.51614 0
M  V30 3278 H 306.765 3.4779 6.03337 0
M  V30 3279 H 304.392 4.07613 6.41682 0
M  V30 3280 N 305.967 -1.56429 0.191757 0
M  V30 3281 C 306.93 -2.17707 -0.716688 0
M  V30 3282 C 307.93 -1.13061 -1.14341 0
M  V30 3283 O 309.12 -1.38464 -1.05704 0
M  V30 3284 C 306.252 -2.77644 -1.97804 0
M  V30 3285 H 307.445 -2.99342 -0.1829 0
M  V30 3286 H 304.998 -1.56193 -0.0578566 0
M  V30 3287 H 305.733 -1.99799 -2.55443 0
M  V30 3288 H 305.518 -3.54246 -1.68083 0
M  V30 3289 H 307.008 -3.24708 -2.62592 0
M  V30 3290 N 307.445 0.0818655 -1.57387 0
M  V30 3291 C 308.377 1.12484 -1.997 0
M  V30 3292 C 309.39 1.35564 -0.90146 0
M  V30 3293 O 310.579 1.33982 -1.17945 0
M  V30 3294 C 307.679 2.47778 -2.31213 0
M  V30 3295 C 306.852 2.44793 -3.62485 0
M  V30 3296 C 305.911 3.62117 -3.81782 0
M  V30 3297 O 304.937 3.44005 -4.53486 0
M  V30 3298 N 306.139 4.82094 -3.23367 0
M  V30 3299 H 308.904 0.764585 -2.89783 0
M  V30 3300 H 306.465 0.270664 -1.59621 0
M  V30 3301 H 308.457 3.24891 -2.41304 0
M  V30 3302 H 307.027 2.75843 -1.4707 0
M  V30 3303 H 306.247 1.53134 -3.6324 0
M  V30 3304 H 307.535 2.39889 -4.48699 0
M  V30 3305 H 306.933 4.99713 -2.65148 0
M  V30 3306 H 305.49 5.56753 -3.38923 0
M  V30 3307 N 308.923 1.53595 0.353017 0
M  V30 3308 C 310.172 1.69603 1.09168 0
M  V30 3309 C 310.485 0.460925 1.90092 0
M  V30 3310 O 311.691 0.501774 2.66823 0
M  V30 3311 C 310.147 2.99872 1.9901 0
M  V30 3312 C 309.755 4.30687 1.23339 0
M  V30 3313 C 311.499 3.25246 2.72792 0
M  V30 3314 C 309.406 5.52036 2.12156 0
M  V30 3315 H 308.336 0.631966 0.411261 0
M  V30 3316 H 310.987 1.80096 0.351802 0
M  V30 3317 H 309.369 2.83212 2.7678 0
M  V30 3318 H 310.543 4.58019 0.505456 0
M  V30 3319 H 308.858 4.11853 0.613663 0
M  V30 3320 H 311.455 4.13095 3.39495 0
M  V30 3321 H 311.798 2.41846 3.38846 0
M  V30 3322 H 312.331 3.42638 2.021 0
M  V30 3323 H 309.07 6.37951 1.50659 0
M  V30 3324 H 308.59 5.28966 2.82764 0
M  V30 3325 H 310.269 5.87313 2.71427 0
M  V30 3326 N 310.401 -0.613514 1.45168 0
M  V30 3327 C 311.348 -1.72456 1.53387 0
M  V30 3328 C 312.318 -1.6169 0.380191 0
M  V30 3329 O 313.503 -1.81356 0.592836 0
M  V30 3330 C 310.643 -3.10753 1.50088 0
M  V30 3331 C 309.756 -3.32368 2.75963 0
M  V30 3332 C 308.891 -4.60737 2.64376 0
M  V30 3333 C 307.93 -4.7559 3.85332 0
M  V30 3334 N 307.067 -5.95253 3.72315 0
M  V30 3335 H 311.907 -1.64768 2.48305 0
M  V30 3336 H 309.444 -0.803503 1.23216 0
M  V30 3337 H 311.402 -3.90758 1.46164 0
M  V30 3338 H 310.032 -3.17413 0.587243 0
M  V30 3339 H 309.084 -2.4618 2.89999 0
M  V30 3340 H 310.396 -3.39218 3.65695 0
M  V30 3341 H 309.55 -5.48928 2.58385 0
M  V30 3342 H 308.289 -4.56275 1.72233 0
M  V30 3343 H 307.294 -3.85824 3.91688 0
M  V30 3344 H 308.519 -4.81854 4.78533 0
M  V30 3345 H 306.465 -5.91847 2.82937 0
M  V30 3346 H 306.382 -6.03236 4.55677 0
M  V30 3347 H 307.65 -6.85958 3.70246 0
M  V30 3348 N 311.879 -1.3236 -0.855495 0
M  V30 3349 C 313.127 -1.22629 -1.60644 0
M  V30 3350 C 313.448 0.212136 -1.93843 0
M  V30 3351 O 312.718 1.13666 -1.59552 0
M  V30 3352 H 311.298 -0.450882 -0.595579 0
M  V30 3353 H 313.96 -1.65871 -1.02337 0
M  V30 3354 H 313.056 -1.80832 -2.54374 0
M  V30 3355 N 313.357 1.07166 -1.15556 0
M  V30 3356 C 314.587 1.83248 -0.954133 0
M  V30 3357 C 314.995 1.82449 0.500911 0
M  V30 3358 O 314.338 1.23575 1.35923 0
M  V30 3359 C 314.4 3.31393 -1.39351 0
M  V30 3360 C 314.064 3.5591 -2.86666 0
M  V30 3361 C 315.061 3.49695 -3.8472 0
M  V30 3362 C 312.746 3.83515 -3.24379 0
M  V30 3363 C 314.74 3.70737 -5.18491 0
M  V30 3364 C 312.427 4.04209 -4.58321 0
M  V30 3365 C 313.425 3.97815 -5.55186 0
M  V30 3366 O 313.113 4.17954 -6.86709 0
M  V30 3367 H 312.845 0.584941 -0.338851 0
M  V30 3368 H 315.399 1.36169 -1.53777 0
M  V30 3369 H 313.629 3.79292 -0.75329 0
M  V30 3370 H 315.318 3.88945 -1.16089 0
M  V30 3371 H 316.084 3.28368 -3.56931 0
M  V30 3372 H 311.963 3.87605 -2.49567 0
M  V30 3373 H 315.507 3.65663 -5.94085 0
M  V30 3374 H 311.404 4.25023 -4.85825 0
M  V30 3375 H 312.172 4.35291 -6.93155 0
M  V30 3376 N 314.835 0.952656 1.25548 0
M  V30 3377 C 315.782 0.47008 2.25962 0
M  V30 3378 C 316.752 -0.476384 1.59122 0
M  V30 3379 O 317.937 -0.39007 1.8677 0
M  V30 3380 C 315.077 -0.247881 3.44209 0
M  V30 3381 C 314.19 0.735591 4.25691 0
M  V30 3382 C 313.325 -0.0047306 5.312 0
M  V30 3383 C 312.364 0.969805 6.04368 0
M  V30 3384 N 311.501 0.260486 7.01617 0
M  V30 3385 H 316.341 1.33126 2.66611 0
M  V30 3386 H 313.878 0.66765 1.31076 0
M  V30 3387 H 315.836 -0.680695 4.1161 0
M  V30 3388 H 314.466 -1.07312 3.0444 0
M  V30 3389 H 313.518 1.28689 3.57971 0
M  V30 3390 H 314.83 1.47934 4.76358 0
M  V30 3391 H 313.984 -0.496275 6.04667 0
M  V30 3392 H 312.723 -0.781282 4.81401 0
M  V30 3393 H 311.728 1.47237 5.29718 0
M  V30 3394 H 312.953 1.74655 6.56256 0
M  V30 3395 H 310.899 -0.497364 6.54112 0
M  V30 3396 H 310.816 0.943362 7.50091 0
M  V30 3397 H 312.084 -0.209587 7.79218 0
M  V30 3398 N 316.313 -1.40141 0.720998 0
M  V30 3399 C 317.729 -1.54632 0.395113 0
M  V30 3400 C 317.929 -1.69115 -1.09555 0
M  V30 3401 O 316.985 -1.68377 -1.88163 0
M  V30 3402 C 318.298 -2.77177 1.1659 0
M  V30 3403 C 319.846 -2.91 1.15274 0
M  V30 3404 C 320.321 -4.16465 1.90579 0
M  V30 3405 N 321.812 -4.23476 1.87675 0
M  V30 3406 C 322.547 -5.19475 2.42762 0
M  V30 3407 N 322.043 -6.21348 3.06428 0
M  V30 3408 N 323.836 -5.11592 2.32874 0
M  V30 3409 H 315.987 -1.28986 1.68749 0
M  V30 3410 H 318.25 -0.62412 0.713567 0
M  V30 3411 H 317.956 -2.72771 2.22011 0
M  V30 3412 H 317.83 -3.69442 0.76108 0
M  V30 3413 H 320.217 -2.94907 0.106702 0
M  V30 3414 H 320.298 -1.99838 1.59682 0
M  V30 3415 H 319.942 -4.1332 2.95176 0
M  V30 3416 H 319.872 -5.06646 1.43587 0
M  V30 3417 H 322.363 -3.50497 1.41281 0
M  V30 3418 H 322.676 -6.91034 3.45965 0
M  V30 3419 H 321.021 -6.21777 3.10514 0
M  V30 3420 H 324.212 -4.30936 1.82789 0
M  V30 3421 H 324.385 -5.86233 2.76106 0
M  V30 3422 N 317.792 -0.46758 -1.50504 0
M  V30 3423 C 319.032 0.0874114 -2.04213 0
M  V30 3424 C 319.396 1.37301 -1.34211 0
M  V30 3425 O 320.597 2.01015 -1.78456 0
M  V30 3426 C 318.868 0.270571 -3.56374 0
M  V30 3427 S 320.427 0.784623 -4.31728 0
M  V30 3428 H 317.245 0.0176153 -0.710782 0
M  V30 3429 H 319.847 -0.633915 -1.84937 0
M  V30 3430 H 318.551 -0.670942 -4.04878 0
M  V30 3431 H 318.082 1.01811 -3.79997 0
M  V30 3432 H 320.097 2.05849 -4.51487 0
M  V30 3433 N 319.27 1.56325 -0.20005 0
M  V30 3434 C 320.519 1.96895 0.437652 0
M  V30 3435 C 320.832 1.08999 1.62415 0
M  V30 3436 O 322.038 1.39372 2.32997 0
M  V30 3437 C 320.494 3.50198 0.830025 0
M  V30 3438 C 320.102 4.46765 -0.332461 0
M  V30 3439 C 321.846 3.99526 1.43453 0
M  V30 3440 C 319.753 5.91344 0.0811468 0
M  V30 3441 H 318.683 0.735209 0.167282 0
M  V30 3442 H 321.334 1.81148 -0.292853 0
M  V30 3443 H 319.716 3.61467 1.61734 0
M  V30 3444 H 320.89 4.47231 -1.11 0
M  V30 3445 H 319.205 4.07657 -0.848789 0
M  V30 3446 H 321.802 5.05025 1.75652 0
M  V30 3447 H 322.145 3.44122 2.34277 0
M  V30 3448 H 322.678 3.91393 0.71109 0
M  V30 3449 H 319.417 6.50685 -0.793033 0
M  V30 3450 H 318.937 5.94121 0.823445 0
M  V30 3451 H 320.616 6.44945 0.515252 0
M  V30 3452 N 320.748 -0.0735177 1.57428 0
M  V30 3453 C 321.678 -1.0879 2.06608 0
M  V30 3454 C 322.659 -1.40473 0.959237 0
M  V30 3455 O 323.844 -1.5013 1.23185 0
M  V30 3456 C 320.974 -2.40183 2.50857 0
M  V30 3457 C 319.928 -2.22858 3.65402 0
M  V30 3458 C 319.254 -3.59619 3.957 0
M  V30 3459 C 320.554 -1.65123 4.95511 0
M  V30 3460 H 322.248 -0.678673 2.91607 0
M  V30 3461 H 319.794 -0.325013 1.40284 0
M  V30 3462 H 321.747 -3.11437 2.83874 0
M  V30 3463 H 320.471 -2.83083 1.62885 0
M  V30 3464 H 319.13 -1.54045 3.32664 0
M  V30 3465 H 318.778 -4.00086 3.04861 0
M  V30 3466 H 318.478 -3.48866 4.72828 0
M  V30 3467 H 320.002 -4.32306 4.31212 0
M  V30 3468 H 321.416 -2.26241 5.26771 0
M  V30 3469 H 319.813 -1.65071 5.7695 0
M  V30 3470 H 320.883 -0.612559 4.81015 0
M  V30 3471 N 322.226 -1.5378 -0.344866 0
M  V30 3472 C 323.473 -1.70963 -1.08526 0
M  V30 3473 C 323.801 -0.472126 -1.88683 0
M  V30 3474 O 323.056 0.546116 -1.87926 0
M  V30 3475 C 323.355 -2.92407 -2.05506 0
M  V30 3476 C 323.021 -4.28066 -1.41671 0
M  V30 3477 C 321.683 -4.64951 -1.2399 0
M  V30 3478 C 324.035 -5.12344 -0.956726 0
M  V30 3479 C 321.363 -5.83733 -0.589277 0
M  V30 3480 C 323.715 -6.3179 -0.320015 0
M  V30 3481 C 322.379 -6.67372 -0.130881 0
M  V30 3482 H 321.649 -0.625598 -0.397124 0
M  V30 3483 H 324.296 -1.87995 -0.36469 0
M  V30 3484 H 322.601 -2.69973 -2.8394 0
M  V30 3485 H 324.298 -3.02895 -2.62784 0
M  V30 3486 H 320.888 -3.99034 -1.56429 0
M  V30 3487 H 325.072 -4.8438 -1.08118 0
M  V30 3488 H 320.328 -6.09877 -0.431344 0
M  V30 3489 H 324.502 -6.96386 0.0445072 0
M  V30 3490 H 322.129 -7.59273 0.375318 0
M  V30 3491 N 323.704 0.605807 -1.45491 0
M  V30 3492 C 325.115 1.18777 -1.44045 0
M  V30 3493 C 325.466 1.95471 -0.169001 0
M  V30 3494 O 324.591 2.0374 0.729324 0
M  V30 3495 C 325.186 2.16064 -2.60963 0
M  V30 3496 C 323.745 2.69633 -2.62631 0
M  V30 3497 C 322.892 1.45072 -2.36325 0
M  V30 3498 H 325.843 0.395017 -1.53705 0
M  V30 3499 H 325.864 2.9913 -2.35163 0
M  V30 3500 H 325.376 1.60217 -3.53486 0
M  V30 3501 H 323.477 3.29414 -1.74119 0
M  V30 3502 H 323.59 3.13944 -3.61906 0
M  V30 3503 H 321.954 1.74089 -1.85917 0
M  V30 3504 H 322.737 0.910899 -3.30995 0
M  V30 3505 N 325.182 1.32811 0.848464 0
M  V30 3506 C 326.593 1.21315 1.41914 0
M  V30 3507 C 326.944 -0.171847 1.95446 0
M  V30 3508 O 326.069 -1.07093 1.88043 0
M  V30 3509 C 326.664 2.19631 2.57968 0
M  V30 3510 C 325.223 2.12003 3.11017 0
M  V30 3511 C 324.37 2.07651 1.83783 0
M  V30 3512 H 327.321 1.44549 0.655071 0
M  V30 3513 H 327.342 1.79845 3.35315 0
M  V30 3514 H 326.854 3.20423 2.18976 0
M  V30 3515 H 324.955 1.14481 3.54577 0
M  V30 3516 H 325.068 3.02111 3.71841 0
M  V30 3517 H 323.432 1.52983 2.03638 0
M  V30 3518 H 324.215 3.10235 1.47 0
M  V30 3519 N 326.66 -1.06551 1.16123 0
M  V30 3520 C 327.937 -1.76097 0.85142 0
M  V30 3521 C 328.317 -2.00802 -0.6513 0
M  V30 3522 O 327.665 -1.63302 -1.59827 0
M  V30 3523 C 327.875 -3.06384 1.67122 0
M  V30 3524 C 329.223 -3.80585 1.88255 0
M  V30 3525 O 330.247 -3.16218 1.63966 0
M  V30 3526 O 329.106 -4.96212 2.2899 0
M  V30 3527 H 326.2 -0.765102 0.313923 0
M  V30 3528 H 328.746 -1.12844 1.26745 0
M  V30 3529 H 327.518 -2.84071 2.69108 0
M  V30 3530 H 327.141 -3.77371 1.25206 0
M  V30 3531 N 328.138 -0.959301 -1.25041 0
M  V30 3532 C 329.07 -0.440543 -2.24926 0
M  V30 3533 C 330.083 0.446131 -1.56568 0
M  V30 3534 O 331.272 0.253657 -1.76689 0
M  V30 3535 C 328.372 0.38412 -3.36716 0
M  V30 3536 C 327.545 -0.490658 -4.34639 0
M  V30 3537 C 326.604 0.276587 -5.25473 0
M  V30 3538 O 325.63 -0.326614 -5.68262 0
M  V30 3539 N 326.832 1.56844 -5.5891 0
M  V30 3540 H 329.597 -1.29931 -2.70071 0
M  V30 3541 H 327.158 -0.830181 -1.38995 0
M  V30 3542 H 329.15 0.905228 -3.94446 0
M  V30 3543 H 327.72 1.14377 -2.90924 0
M  V30 3544 H 326.94 -1.19282 -3.7572 0
M  V30 3545 H 328.228 -1.08756 -4.97041 0
M  V30 3546 H 327.626 2.08036 -5.26059 0
M  V30 3547 H 326.183 2.03541 -6.19205 0
M  V30 3548 N 329.616 1.39756 -0.72842 0
M  V30 3549 C 330.863 2.00645 -0.273487 0
M  V30 3550 C 331.191 1.57786 1.13727 0
M  V30 3551 O 330.446 0.794886 1.7883 0
M  V30 3552 C 330.745 3.56002 -0.315776 0
M  V30 3553 C 330.411 4.18489 -1.67863 0
M  V30 3554 C 329.073 4.3527 -2.05166 0
M  V30 3555 C 331.425 4.53219 -2.57375 0
M  V30 3556 C 328.753 4.84069 -3.31503 0
M  V30 3557 C 331.105 5.03423 -3.83077 0
M  V30 3558 C 329.769 5.18413 -4.20481 0
M  V30 3559 H 329.039 0.734211 -0.100076 0
M  V30 3560 H 331.686 1.6718 -0.933972 0
M  V30 3561 H 329.991 3.89452 0.428285 0
M  V30 3562 H 331.688 4.00963 0.0542575 0
M  V30 3563 H 328.278 4.05824 -1.37858 0
M  V30 3564 H 332.462 4.39878 -2.29827 0
M  V30 3565 H 327.718 4.93859 -3.60435 0
M  V30 3566 H 331.892 5.2927 -4.52599 0
M  V30 3567 H 329.519 5.55987 -5.18443 0
M  V30 3568 N 331.094 0.475555 1.50254 0
M  V30 3569 C 332.004 -0.321501 2.32387 0
M  V30 3570 C 333.02 -0.991755 1.42969 0
M  V30 3571 O 334.196 -0.978747 1.76018 0
M  V30 3572 C 331.261 -1.38667 3.17762 0
M  V30 3573 C 330.322 -0.732538 4.23004 0
M  V30 3574 C 329.555 -1.74695 5.04299 0
M  V30 3575 O 329.778 -2.97399 4.86734 0
M  V30 3576 O 328.712 -1.31631 5.8733 0
M  V30 3577 H 332.538 0.350071 3.01676 0
M  V30 3578 H 330.123 0.237321 1.47503 0
M  V30 3579 H 332.005 -2.00354 3.70724 0
M  V30 3580 H 330.68 -2.04163 2.51196 0
M  V30 3581 H 329.587 -0.0765902 3.74022 0
M  V30 3582 H 330.92 -0.120452 4.92053 0
M  V30 3583 N 332.573 -1.56217 0.208337 0
M  V30 3584 C 333.813 -1.99849 -0.428927 0
M  V30 3585 C 334.177 -1.09262 -1.57879 0
M  V30 3586 O 335.378 -1.42185 -2.28116 0
M  V30 3587 C 333.649 -3.46777 -0.864879 0
M  V30 3588 S 335.208 -4.12434 -1.49811 0
M  V30 3589 H 332.026 -0.697742 -0.136665 0
M  V30 3590 H 334.628 -1.92953 0.314519 0
M  V30 3591 H 333.332 -4.10396 -0.0181326 0
M  V30 3592 H 332.863 -3.57518 -1.64147 0
M  V30 3593 H 334.878 -4.10532 -2.78707 0
M  V30 3594 N 334.051 0.0651679 -1.57465 0
M  V30 3595 C 334.981 1.07693 -2.07182 0
M  V30 3596 C 335.962 1.39962 -0.966673 0
M  V30 3597 O 337.147 1.49475 -1.2398 0
M  V30 3598 C 334.277 2.3885 -2.52127 0
M  V30 3599 C 333.231 2.20917 -3.66579 0
M  V30 3600 C 332.557 3.57515 -3.97601 0
M  V30 3601 C 333.857 1.62493 -4.9638 0
M  V30 3602 H 335.551 0.663199 -2.91962 0
M  V30 3603 H 333.097 0.317569 -1.40455 0
M  V30 3604 H 335.05 3.09928 -2.85522 0
M  V30 3605 H 333.774 2.82215 -1.64384 0
M  V30 3606 H 332.433 1.52279 -3.33477 0
M  V30 3607 H 332.081 3.98463 -3.06979 0
M  V30 3608 H 331.781 3.46353 -4.74672 0
M  V30 3609 H 333.305 4.30013 -4.33499 0
M  V30 3610 H 334.719 2.23445 -5.27963 0
M  V30 3611 H 333.116 1.62009 -5.77818 0
M  V30 3612 H 334.186 0.587041 -4.81333 0
M  V30 3613 N 335.529 1.53961 0.336706 0
M  V30 3614 C 336.759 1.75229 1.09446 0
M  V30 3615 C 337.167 0.494602 1.82621 0
M  V30 3616 O 336.51 -0.543764 1.75468 0
M  V30 3617 C 336.572 2.88288 2.1478 0
M  V30 3618 C 336.236 4.27656 1.6112 0
M  V30 3619 C 337.233 5.08981 1.0599 0
M  V30 3620 C 334.918 4.74161 1.6576 0
M  V30 3621 C 336.912 6.34916 0.562129 0
M  V30 3622 C 334.599 6.00067 1.15595 0
M  V30 3623 C 335.597 6.80278 0.609147 0
M  V30 3624 O 335.285 8.03818 0.114999 0
M  V30 3625 H 335.017 0.588881 0.331956 0
M  V30 3626 H 337.571 2.01614 0.392566 0
M  V30 3627 H 335.801 2.57443 2.88548 0
M  V30 3628 H 337.49 2.97461 2.76174 0
M  V30 3629 H 338.256 4.74213 1.01722 0
M  V30 3630 H 334.135 4.11781 2.07261 0
M  V30 3631 H 337.679 6.9747 0.134668 0
M  V30 3632 H 333.576 6.3433 1.19566 0
M  V30 3633 H 334.344 8.18172 0.231651 0
M  V30 3634 N 337.007 -0.598083 1.45811 0
M  V30 3635 C 338.418 -1.18011 1.44673 0
M  V30 3636 C 338.769 -1.95378 0.179364 0
M  V30 3637 O 337.894 -2.04124 -0.718509 0
M  V30 3638 C 338.489 -2.14677 2.62105 0
M  V30 3639 C 337.048 -2.68236 2.64057 0
M  V30 3640 C 336.195 -1.43816 2.37091 0
M  V30 3641 H 339.146 -0.38686 1.53913 0
M  V30 3642 H 339.167 -2.97878 2.36746 0
M  V30 3643 H 338.679 -1.5834 3.5433 0
M  V30 3644 H 336.78 -3.28486 1.75864 0
M  V30 3645 H 336.893 -3.12021 3.63566 0
M  V30 3646 H 335.257 -1.731 1.86838 0
M  V30 3647 H 336.04 -0.893333 3.31473 0
M  V30 3648 N 338.485 -1.33259 -0.841409 0
M  V30 3649 C 339.715 -1.2742 -1.62628 0
M  V30 3650 C 340.123 0.157604 -1.88542 0
M  V30 3651 O 339.466 1.10938 -1.46419 0
M  V30 3652 C 339.528 -1.97797 -3.00194 0
M  V30 3653 C 339.192 -3.47109 -2.97261 0
M  V30 3654 C 340.189 -4.42358 -2.73159 0
M  V30 3655 C 337.874 -3.89247 -3.17478 0
M  V30 3656 C 339.868 -5.77718 -2.69296 0
M  V30 3657 C 337.555 -5.24713 -3.13241 0
M  V30 3658 C 338.553 -6.1876 -2.89181 0
M  V30 3659 O 338.241 -7.51745 -2.84843 0
M  V30 3660 H 337.973 -0.440436 -0.512827 0
M  V30 3661 H 340.527 -1.76153 -1.05638 0
M  V30 3662 H 338.757 -1.43652 -3.59028 0
M  V30 3663 H 340.446 -1.8549 -3.61038 0
M  V30 3664 H 341.212 -4.11127 -2.57294 0
M  V30 3665 H 337.091 -3.16456 -3.35226 0
M  V30 3666 H 340.635 -6.51097 -2.50436 0
M  V30 3667 H 336.532 -5.55569 -3.28654 0
M  V30 3668 H 337.3 -7.61262 -3.00702 0
M  V30 3669 N 339.963 1.05934 -1.16686 0
M  V30 3670 C 341.374 1.60263 -0.957745 0
M  V30 3671 C 341.725 1.89789 0.49745 0
M  V30 3672 O 340.85 1.67401 1.37135 0
M  V30 3673 C 341.445 2.91172 -1.73218 0
M  V30 3674 C 340.004 3.42188 -1.56794 0
M  V30 3675 C 339.151 2.16028 -1.73859 0
M  V30 3676 H 342.102 0.888392 -1.31504 0
M  V30 3677 H 342.123 3.60744 -1.21014 0
M  V30 3678 H 341.635 2.6965 -2.79124 0
M  V30 3679 H 339.736 3.68762 -0.533437 0
M  V30 3680 H 339.849 4.17273 -2.35414 0
M  V30 3681 H 338.213 2.26426 -1.16633 0
M  V30 3682 H 338.996 1.96985 -2.81161 0
M  V30 3683 N 341.441 0.965919 1.2453 0
M  V30 3684 C 342.687 0.62776 1.92839 0
M  V30 3685 C 343.02 -0.834694 1.75347 0
M  V30 3686 O 342.295 -1.60031 1.10546 0
M  V30 3687 C 342.578 1.00109 3.45905 0
M  V30 3688 C 342.431 2.52011 3.72573 0
M  V30 3689 C 343.75 0.53435 4.36844 0
M  V30 3690 H 340.869 0.229537 0.700344 0
M  V30 3691 H 343.511 1.2046 1.46933 0
M  V30 3692 H 341.661 0.510238 3.85135 0
M  V30 3693 H 343.333 3.08559 3.42912 0
M  V30 3694 H 341.576 2.95287 3.17786 0
M  V30 3695 H 342.247 2.73183 4.79661 0
M  V30 3696 H 344.723 0.955565 4.04979 0
M  V30 3697 H 343.599 0.824152 5.42678 0
M  V30 3698 H 343.86 -0.565589 4.38467 0
M  V30 3699 N 342.919 -1.39368 0.735821 0
M  V30 3700 C 343.869 -2.27885 0.0724287 0
M  V30 3701 C 344.853 -1.44301 -0.711756 0
M  V30 3702 O 346.045 -1.67206 -0.58063 0
M  V30 3703 C 343.174 -3.33029 -0.833454 0
M  V30 3704 C 342.26 -4.24078 -0.0433749 0
M  V30 3705 N 342.651 -4.96138 0.983903 0
M  V30 3706 C 340.949 -4.45164 -0.272905 0
M  V30 3707 C 341.65 -5.63069 1.4604 0
M  V30 3708 N 340.626 -5.37991 0.778857 0
M  V30 3709 H 344.428 -2.81052 0.859467 0
M  V30 3710 H 341.942 -1.5206 0.570227 0
M  V30 3711 H 343.939 -3.95311 -1.32419 0
M  V30 3712 H 342.599 -2.81421 -1.61964 0
M  V30 3713 H 343.61 -4.9958 1.36528 0
M  V30 3714 H 340.287 -4.04497 -1.03383 0
M  V30 3715 H 341.677 -6.30755 2.31511 0
M  V30 3716 N 344.397 -0.483516 -1.5 0
M  V30 3717 C 345.347 0.32306 -2.257 0
M  V30 3718 C 346.331 0.950755 -1.29805 0
M  V30 3719 O 347.523 0.861247 -1.54634 0
M  V30 3720 C 344.652 1.39724 -3.13579 0
M  V30 3721 C 343.738 0.776663 -4.16928 0
M  V30 3722 N 344.129 -0.1104 -5.0568 0
M  V30 3723 C 342.427 1.03922 -4.33724 0
M  V30 3724 C 343.128 -0.46387 -5.79848 0
M  V30 3725 N 342.104 0.163987 -5.43353 0
M  V30 3726 H 345.906 -0.360086 -2.91686 0
M  V30 3727 H 343.42 -0.298456 -1.59634 0
M  V30 3728 H 345.417 1.98837 -3.66428 0
M  V30 3729 H 344.077 2.08225 -2.49143 0
M  V30 3730 H 345.088 -0.480069 -5.1567 0
M  V30 3731 H 341.765 1.71829 -3.80501 0
M  V30 3732 H 343.155 -1.18854 -6.61304 0
M  V30 3733 N 345.875 1.56104 -0.216619 0
M  V30 3734 C 347.286 1.844 0.292128 0
M  V30 3735 C 347.637 1.13788 1.59833 0
M  V30 3736 O 346.762 0.405888 2.12559 0
M  V30 3737 C 347.357 3.3452 0.53681 0
M  V30 3738 C 345.916 3.63151 0.989876 0
M  V30 3739 C 345.063 2.77255 0.0502302 0
M  V30 3740 H 348.014 1.52481 -0.439926 0
M  V30 3741 H 348.035 3.54459 1.38345 0
M  V30 3742 H 347.547 3.85885 -0.414031 0
M  V30 3743 H 345.648 3.17238 1.95425 0
M  V30 3744 H 345.761 4.71177 0.867698 0
M  V30 3745 H 344.125 2.48555 0.556117 0
M  V30 3746 H 344.908 3.31416 -0.89544 0
M  V30 3747 N 347.353 -0.0568162 1.57498 0
M  V30 3748 C 348.593 -0.758273 1.89815 0
M  V30 3749 C 348.957 -1.73978 0.812132 0
M  V30 3750 O 350.158 -2.48744 1.01881 0
M  V30 3751 C 348.429 -1.43465 3.27342 0
M  V30 3752 S 349.988 -2.1691 3.81439 0
M  V30 3753 H 346.806 -0.251836 0.664906 0
M  V30 3754 H 349.408 -0.0137997 1.95495 0
M  V30 3755 H 348.112 -0.706693 4.0427 0
M  V30 3756 H 347.643 -2.21825 3.24896 0
M  V30 3757 H 349.658 -3.43658 3.5793 0
M  V30 3758 N 348.832 -1.54138 -0.328536 0
M  V30 3759 C 350.109 -1.62749 -1.08499 0
M  V30 3760 C 350.489 -0.458198 -2.06067 0
M  V30 3761 O 349.837 0.548046 -2.2183 0
M  V30 3762 C 350.047 -2.99519 -1.79135 0
M  V30 3763 C 351.395 -3.55394 -2.32337 0
M  V30 3764 O 352.419 -3.01792 -1.89209 0
M  V30 3765 O 351.278 -4.49186 -3.11279 0
M  V30 3766 H 348.372 -0.65886 -0.499832 0
M  V30 3767 H 350.918 -1.66484 -0.328826 0
M  V30 3768 H 349.69 -3.76061 -1.08139 0
M  V30 3769 H 349.313 -2.99441 -2.61574 0
M  V30 3770 N 350.31 0.590341 -1.46126 0
M  V30 3771 C 351.726 0.912917 -1.30912 0
M  V30 3772 C 351.926 1.99616 -0.274893 0
M  V30 3773 O 350.982 2.50397 0.325197 0
M  V30 3774 C 352.295 1.3375 -2.69317 0
M  V30 3775 C 353.843 1.45077 -2.77348 0
M  V30 3776 C 354.318 1.90904 -4.16317 0
M  V30 3777 N 355.809 1.9811 -4.18696 0
M  V30 3778 C 356.544 2.34828 -5.23109 0
M  V30 3779 N 356.04 2.70393 -6.37856 0
M  V30 3780 N 357.833 2.35317 -5.10473 0
M  V30 3781 H 349.984 -0.125358 -2.1203 0
M  V30 3782 H 352.247 0.00658481 -0.947977 0
M  V30 3783 H 351.953 0.615614 -3.4627 0
M  V30 3784 H 351.827 2.30058 -2.9892 0
M  V30 3785 H 354.214 2.16353 -2.00687 0
M  V30 3786 H 354.295 0.4704 -2.51438 0
M  V30 3787 H 353.939 1.20209 -4.9347 0
M  V30 3788 H 353.869 2.89886 -4.39629 0
M  V30 3789 H 356.36 1.73146 -3.359 0
M  V30 3790 H 356.673 2.97341 -7.13308 0
M  V30 3791 H 355.018 2.68048 -6.41229 0
M  V30 3792 H 358.209 2.0695 -4.19868 0
M  V30 3793 H 358.382 2.63605 -5.9196 0
M  V30 3794 N 351.788 1.33704 0.83433 0
M  V30 3795 C 352.72 1.20172 1.9517 0
M  V30 3796 C 353.733 0.131572 1.62267 0
M  V30 3797 O 354.922 0.382406 1.74356 0
M  V30 3798 C 352.022 0.821716 3.28787 0
M  V30 3799 C 351.195 1.98446 3.89792 0
M  V30 3800 C 350.254 1.58469 5.01771 0
M  V30 3801 O 349.28 2.29968 5.20676 0
M  V30 3802 N 350.482 0.492291 5.78409 0
M  V30 3803 H 353.247 2.16429 2.07313 0
M  V30 3804 H 350.808 1.26509 1.0103 0
M  V30 3805 H 352.8 0.536291 4.01131 0
M  V30 3806 H 351.37 -0.0503058 3.1256 0
M  V30 3807 H 350.59 2.43526 3.09982 0
M  V30 3808 H 351.878 2.76236 4.27283 0
M  V30 3809 H 351.276 -0.102349 5.65607 0
M  V30 3810 H 349.833 0.266555 6.51255 0
M  V30 3811 N 353.266 -1.05314 1.17247 0
M  V30 3812 C 354.491 -1.82509 0.985148 0
M  V30 3813 C 354.916 -1.82343 -0.461788 0
M  V30 3814 O 354.274 -1.23151 -1.33055 0
M  V30 3815 C 354.322 -3.26566 1.52929 0
M  V30 3816 O 353.426 -4.05666 0.742225 0
M  V30 3817 H 352.767 -0.564347 0.349869 0
M  V30 3818 H 355.297 -1.32718 1.55715 0
M  V30 3819 H 355.307 -3.77369 1.55103 0
M  V30 3820 H 353.982 -3.26001 2.58256 0
M  V30 3821 H 352.559 -3.64397 0.791794 0
M  V30 3822 N 354.744 -0.972509 -1.24016 0
M  V30 3823 C 355.676 -0.464375 -2.24446 0
M  V30 3824 C 356.689 0.4295 -1.57032 0
M  V30 3825 O 357.878 0.234902 -1.76948 0
M  V30 3826 C 354.978 0.348385 -3.37105 0
M  V30 3827 C 354.151 -0.53673 -4.34094 0
M  V30 3828 C 353.21 0.220838 -5.25736 0
M  V30 3829 O 352.236 -0.386867 -5.67884 0
M  V30 3830 N 353.438 1.50907 -5.60542 0
M  V30 3831 H 356.203 -1.32788 -2.68677 0
M  V30 3832 H 353.764 -0.844877 -1.38107 0
M  V30 3833 H 355.756 0.863341 -3.95384 0
M  V30 3834 H 354.326 1.11285 -2.92121 0
M  V30 3835 H 353.546 -1.23261 -3.74433 0
M  V30 3836 H 354.834 -1.14022 -4.95859 0
M  V30 3837 H 354.232 2.02444 -5.28236 0
M  V30 3838 H 352.789 1.96962 -6.21329 0
M  V30 3839 N 356.222 1.38976 -0.743202 0
M  V30 3840 C 357.468 2.0064 -0.295189 0
M  V30 3841 C 357.801 1.5885 1.11716 0
M  V30 3842 O 357.076 0.821181 1.76315 0
M  V30 3843 C 357.359 3.578 -0.406318 0
M  V30 3844 C 357.212 4.09586 -1.85903 0
M  V30 3845 C 358.531 4.39616 0.206439 0
M  V30 3846 H 355.65 0.728935 -0.108733 0
M  V30 3847 H 358.292 1.65067 -0.940897 0
M  V30 3848 H 356.442 3.88235 0.143419 0
M  V30 3849 H 358.114 3.89837 -2.46627 0
M  V30 3850 H 356.357 3.6284 -2.3776 0
M  V30 3851 H 357.028 5.18708 -1.888 0
M  V30 3852 H 359.504 4.15273 -0.262283 0
M  V30 3853 H 358.38 5.48812 0.0983819 0
M  V30 3854 H 358.641 4.22754 1.2935 0
M  V30 3855 N 357.7 0.491464 1.49741 0
M  V30 3856 C 358.977 -0.118984 1.95238 0
M  V30 3857 C 359.357 -1.55044 1.43264 0
M  V30 3858 O 358.705 -2.19287 0.642287 0
M  V30 3859 C 358.915 -0.0414187 3.48975 0
M  V30 3860 C 360.263 -0.220133 4.24029 0
M  V30 3861 O 361.287 -0.117055 3.56008 0
M  V30 3862 O 360.146 -0.430567 5.44801 0
M  V30 3863 H 357.24 -0.100536 0.820866 0
M  V30 3864 H 359.786 0.553322 1.60426 0
M  V30 3865 H 358.558 0.957214 3.79412 0
M  V30 3866 H 358.181 -0.754292 3.9038 0
M  V30 3867 N 359.178 -1.55987 0.224894 0
M  V30 3868 C 360.425 -1.9839 -0.4059 0
M  V30 3869 C 360.753 -1.11261 -1.59535 0
M  V30 3870 O 360.008 -0.158314 -1.95059 0
M  V30 3871 C 360.307 -3.46394 -0.880106 0
M  V30 3872 C 359.973 -4.5046 0.19918 0
M  V30 3873 C 358.635 -4.7864 0.495661 0
M  V30 3874 C 360.987 -5.12855 0.928939 0
M  V30 3875 C 358.315 -5.66497 1.52636 0
M  V30 3876 C 360.667 -6.01828 1.949 0
M  V30 3877 C 359.331 -6.28351 2.25236 0
M  V30 3878 H 358.601 -0.725961 -0.148529 0
M  V30 3879 H 361.248 -1.88668 0.328113 0
M  V30 3880 H 359.553 -3.53337 -1.69294 0
M  V30 3881 H 361.25 -3.76577 -1.37808 0
M  V30 3882 H 357.84 -4.28579 -0.0420526 0
M  V30 3883 H 362.024 -4.9115 0.713129 0
M  V30 3884 H 357.28 -5.8531 1.76698 0
M  V30 3885 H 361.454 -6.49225 2.51951 0
M  V30 3886 H 359.081 -6.96226 3.05244 0
M  V30 3887 N 360.656 0.0484629 -1.57525 0
M  V30 3888 C 361.933 0.777447 -1.79486 0
M  V30 3889 C 362.313 1.94597 -0.818251 0
M  V30 3890 O 361.661 2.28047 0.143767 0
M  V30 3891 C 361.871 1.22864 -3.26658 0
M  V30 3892 C 363.219 1.65251 -3.91123 0
M  V30 3893 O 364.243 1.32372 -3.3069 0
M  V30 3894 O 363.102 2.26207 -4.97486 0
M  V30 3895 H 360.196 0.374357 -0.737419 0
M  V30 3896 H 362.742 0.0267359 -1.69679 0
M  V30 3897 H 361.514 0.393589 -3.89316 0
M  V30 3898 H 361.137 2.03996 -3.41279 0
M  V30 3899 N 362.134 1.5431 0.320358 0
M  V30 3900 C 363.082 1.84647 1.4145 0
M  V30 3901 C 364.076 0.718624 1.53402 0
M  V30 3902 O 365.282 0.902335 1.5575 0
M  V30 3903 H 361.657 0.585349 0.472091 0
M  V30 3904 H 363.628 2.7614 1.13089 0
M  V30 3905 C 362.377 2.09341 2.77617 0
M  V30 3906 H 361.7 2.9559 2.69196 0
M  V30 3907 H 363.14 2.3452 3.53237 0
M  V30 3908 C 361.599 0.885939 3.25043 0
M  V30 3909 O 362.129 0.0967891 4.01583 0
M  V30 3910 N 360.335 0.696682 2.82125 0
M  V30 3911 H 359.882 1.34006 2.2 0
M  V30 3912 H 359.84 -0.109712 3.14209 0
M  V30 3913 N 363.613 -0.582584 1.46437 0
M  V30 3914 C 365.024 -1.1647 1.45916 0
M  V30 3915 C 365.375 -1.95177 0.200077 0
M  V30 3916 O 364.5 -2.04874 -0.696819 0
M  V30 3917 C 365.095 -2.11885 2.64367 0
M  V30 3918 C 363.654 -2.65421 2.66887 0
M  V30 3919 C 362.801 -1.41294 2.38603 0
M  V30 3920 H 365.752 -0.370514 1.54314 0
M  V30 3921 H 365.773 -2.9535 2.39892 0
M  V30 3922 H 365.285 -1.54573 3.5599 0
M  V30 3923 H 363.386 -3.26602 1.79338 0
M  V30 3924 H 363.499 -3.08147 3.66854 0
M  V30 3925 H 361.863 -1.71109 1.88663 0
M  V30 3926 H 362.646 -0.858125 3.32402 0
M  V30 3927 N 365.091 -1.34144 -0.827227 0
M  V30 3928 C 366.368 -1.16844 -1.56865 0
M  V30 3929 C 366.748 0.260654 -2.09485 0
M  V30 3930 O 366.096 1.26138 -1.9053 0
M  V30 3931 C 366.306 -2.21939 -2.6934 0
M  V30 3932 C 367.654 -2.56695 -3.3822 0
M  V30 3933 O 368.678 -2.20695 -2.79593 0
M  V30 3934 O 367.537 -3.18518 -4.44082 0
M  V30 3935 H 364.631 -0.452669 -0.692112 0
M  V30 3936 H 367.177 -1.45763 -0.868973 0
M  V30 3937 H 365.949 -3.17882 -2.28182 0
M  V30 3938 H 365.572 -1.94172 -3.46962 0
M  V30 3939 N 366.569 1.04691 -1.17803 0
M  V30 3940 C 367.799 1.81183 -0.992788 0
M  V30 3941 C 368.207 1.8347 0.462098 0
M  V30 3942 O 367.55 1.2643 1.33271 0
M  V30 3943 C 367.612 3.28363 -1.46349 0
M  V30 3944 C 367.276 3.49749 -2.94151 0
M  V30 3945 C 368.273 3.41456 -3.92051 0
M  V30 3946 C 365.958 3.76548 -3.32441 0
M  V30 3947 C 367.952 3.59656 -5.26238 0
M  V30 3948 C 365.639 3.94396 -4.66792 0
M  V30 3949 C 366.637 3.8595 -5.635 0
M  V30 3950 O 366.325 4.03294 -6.9542 0
M  V30 3951 H 366.057 0.577622 -0.351182 0
M  V30 3952 H 368.611 1.32876 -1.5663 0
M  V30 3953 H 366.841 3.77609 -0.833574 0
M  V30 3954 H 368.53 3.86395 -1.24313 0
M  V30 3955 H 369.296 3.20723 -3.63815 0
M  V30 3956 H 365.175 3.82224 -2.57732 0
M  V30 3957 H 368.719 3.52979 -6.01707 0
M  V30 3958 H 364.616 4.14622 -4.94731 0
M  V30 3959 H 365.384 4.2049 -7.02232 0
M  V30 3960 N 368.047 0.979072 1.23499 0
M  V30 3961 C 368.957 0.526431 2.28617 0
M  V30 3962 C 369.973 -0.418126 1.68901 0
M  V30 3963 O 371.149 -0.288372 1.99325 0
M  V30 3964 C 368.214 -0.165235 3.46306 0
M  V30 3965 C 367.275 0.82056 4.21385 0
M  V30 3966 C 366.508 0.161807 5.33455 0
M  V30 3967 O 366.731 -1.04742 5.60701 0
M  V30 3968 O 365.665 0.859708 5.95729 0
M  V30 3969 H 369.491 1.4006 2.69475 0
M  V30 3970 H 367.076 0.746643 1.29405 0
M  V30 3971 H 368.958 -0.553287 4.17752 0
M  V30 3972 H 367.633 -1.01419 3.07402 0
M  V30 3973 H 366.54 1.25929 3.52268 0
M  V30 3974 H 367.873 1.63828 4.64135 0
M  V30 3975 N 369.525 -1.3858 0.750561 0
M  V30 3976 C 370.941 -1.53759 0.427824 0
M  V30 3977 C 371.141 -1.71401 -1.05943 0
M  V30 3978 O 370.197 -1.72331 -1.84549 0
M  V30 3979 C 371.51 -2.74642 1.22443 0
M  V30 3980 C 373.058 -2.88489 1.2142 0
M  V30 3981 C 373.533 -4.12329 1.9937 0
M  V30 3982 N 375.024 -4.194 1.96616 0
M  V30 3983 C 375.759 -5.14209 2.53727 0
M  V30 3984 N 375.255 -6.14709 3.19539 0
M  V30 3985 N 377.048 -5.06537 2.43673 0
M  V30 3986 H 369.199 -1.25377 1.71447 0
M  V30 3987 H 371.462 -0.608844 0.726645 0
M  V30 3988 H 371.168 -2.68 2.27747 0
M  V30 3989 H 371.042 -3.67745 0.839273 0
M  V30 3990 H 373.429 -2.94614 0.169232 0
M  V30 3991 H 373.51 -1.96406 1.63885 0
M  V30 3992 H 373.154 -4.06966 3.03877 0
M  V30 3993 H 373.084 -5.03486 1.54302 0
M  V30 3994 H 375.575 -3.47421 1.48684 0
M  V30 3995 H 375.888 -6.8354 3.60545 0
M  V30 3996 H 374.233 -6.1505 3.23633 0
M  V30 3997 H 377.424 -4.26962 1.91889 0
M  V30 3998 H 377.597 -5.80245 2.88479 0
M  V30 3999 N 371.003 -0.499398 -1.49478 0
M  V30 4000 C 372.25 0.0456899 -2.02448 0
M  V30 4001 C 372.578 1.37142 -1.37921 0
M  V30 4002 O 371.833 1.89111 -0.503544 0
M  V30 4003 C 372.132 0.248424 -3.56536 0
M  V30 4004 C 371.798 -0.999107 -4.39692 0
M  V30 4005 C 370.46 -1.34108 -4.62135 0
M  V30 4006 C 372.812 -1.82842 -4.88076 0
M  V30 4007 C 370.14 -2.51191 -5.30208 0
M  V30 4008 C 372.492 -2.99076 -5.57437 0
M  V30 4009 C 371.156 -3.33655 -5.78127 0
M  V30 4010 H 370.426 0.0167191 -0.740811 0
M  V30 4011 H 373.073 -0.65923 -1.79795 0
M  V30 4012 H 371.378 1.03586 -3.77859 0
M  V30 4013 H 373.075 0.684605 -3.95113 0
M  V30 4014 H 369.665 -0.722729 -4.22463 0
M  V30 4015 H 373.849 -1.57737 -4.70566 0
M  V30 4016 H 369.105 -2.78221 -5.44429 0
M  V30 4017 H 373.279 -3.63664 -5.93904 0
M  V30 4018 H 370.906 -4.24483 -6.30649 0
M  V30 4019 N 372.481 1.55866 -0.233164 0
M  V30 4020 C 373.892 1.847 0.272554 0
M  V30 4021 C 374.243 1.15477 1.58617 0
M  V30 4022 O 373.368 0.42841 2.12117 0
M  V30 4023 C 373.963 3.35071 0.501299 0
M  V30 4024 C 372.522 3.6418 0.951304 0
M  V30 4025 C 371.669 2.77292 0.0208209 0
M  V30 4026 H 374.62 1.52005 -0.456074 0
M  V30 4027 H 374.641 3.55906 1.34577 0
M  V30 4028 H 374.153 3.85424 -0.454936 0
M  V30 4029 H 372.254 3.19293 1.92049 0
M  V30 4030 H 372.367 4.72071 0.817675 0
M  V30 4031 H 370.731 2.49131 0.529723 0
M  V30 4032 H 371.514 3.30448 -0.93054 0
M  V30 4033 N 373.959 -0.0401083 1.57549 0
M  V30 4034 C 374.907 -1.06264 2.06908 0
M  V30 4035 C 375.901 -1.38132 0.980608 0
M  V30 4036 O 377.107 -1.37167 1.16556 0
M  V30 4037 H 373.482 -0.360166 0.660139 0
M  V30 4038 H 375.453 -0.620445 2.91878 0
M  V30 4039 C 374.202 -2.35846 2.55483 0
M  V30 4040 H 373.525 -2.12183 3.38849 0
M  V30 4041 H 374.965 -3.05765 2.93741 0
M  V30 4042 C 373.424 -3.0404 1.45126 0
M  V30 4043 O 373.954 -3.93424 0.811216 0
M  V30 4044 N 372.16 -2.65184 1.18852 0
M  V30 4045 H 371.707 -1.92584 1.71083 0
M  V30 4046 H 371.665 -3.1113 0.452244 0
M  V30 4047 N 375.437 -1.54477 -0.31217 0
M  V30 4048 C 376.684 -1.73227 -1.04875 0
M  V30 4049 C 377.012 -0.512042 -1.87639 0
M  V30 4050 O 376.267 0.506131 -1.89042 0
M  V30 4051 C 376.566 -2.967 -1.99258 0
M  V30 4052 C 376.232 -4.30974 -1.32559 0
M  V30 4053 C 374.894 -4.67477 -1.141 0
M  V30 4054 C 377.246 -5.14258 -0.847835 0
M  V30 4055 C 374.574 -5.84852 -0.465326 0
M  V30 4056 C 376.926 -6.32327 -0.185931 0
M  V30 4057 C 375.59 -6.67499 0.0107077 0
M  V30 4058 H 374.86 -0.633881 -0.383765 0
M  V30 4059 H 377.507 -1.88727 -0.324731 0
M  V30 4060 H 375.812 -2.75935 -2.7815 0
M  V30 4061 H 377.509 -3.08401 -2.563 0
M  V30 4062 H 374.099 -4.02262 -1.4793 0
M  V30 4063 H 378.283 -4.86565 -0.978192 0
M  V30 4064 H 373.539 -6.10654 -0.301883 0
M  V30 4065 H 377.713 -6.96135 0.192211 0
M  V30 4066 H 375.34 -7.58306 0.536287 0
M  V30 4067 N 376.915 0.57481 -1.46744 0
M  V30 4068 C 377.847 1.69804 -1.53946 0
M  V30 4069 C 378.86 1.57098 -0.427106 0
M  V30 4070 O 380.049 1.64378 -0.695863 0
M  V30 4071 C 377.149 3.08125 -1.4111 0
M  V30 4072 C 376.322 3.46757 -2.66605 0
M  V30 4073 C 375.381 4.6417 -2.47855 0
M  V30 4074 O 374.407 4.69634 -3.21609 0
M  V30 4075 N 375.609 5.59553 -1.54534 0
M  V30 4076 H 378.374 1.64077 -2.50796 0
M  V30 4077 H 375.935 0.761 -1.429 0
M  V30 4078 H 377.927 3.84478 -1.26328 0
M  V30 4079 H 376.497 3.08175 -0.524109 0
M  V30 4080 H 375.717 2.6003 -2.96274 0
M  V30 4081 H 377.005 3.69337 -3.49954 0
M  V30 4082 H 376.403 5.57881 -0.937304 0
M  V30 4083 H 374.96 6.35304 -1.45711 0
M  V30 4084 N 378.394 1.34581 0.820102 0
M  V30 4085 C 379.342 1.26401 1.95258 0
M  V30 4086 C 380.336 0.161553 1.68628 0
M  V30 4087 O 381.542 0.326703 1.7701 0
M  V30 4088 H 377.917 0.392749 0.64129 0
M  V30 4089 H 379.888 2.22105 1.99279 0
M  V30 4090 C 378.637 1.03919 3.31807 0
M  V30 4091 H 377.96 1.87984 3.52848 0
M  V30 4092 H 379.4 1.02232 4.11491 0
M  V30 4093 C 377.859 -0.257433 3.35915 0
M  V30 4094 O 378.389 -1.25784 3.81499 0
M  V30 4095 N 376.595 -0.291524 2.89134 0
M  V30 4096 H 376.142 0.523161 2.52232 0
M  V30 4097 H 376.1 -1.15883 2.92264 0
M  V30 4098 N 379.872 -1.04064 1.18357 0
M  V30 4099 C 381.118 -1.77528 0.980397 0
M  V30 4100 C 381.451 -1.87948 -0.48879 0
M  V30 4101 O 380.726 -1.3876 -1.36293 0
M  V30 4102 C 381.009 -3.20797 1.63588 0
M  V30 4103 C 380.862 -3.1832 3.17793 0
M  V30 4104 C 382.181 -4.18911 1.34914 0
M  V30 4105 H 379.3 -0.644443 0.357578 0
M  V30 4106 H 381.942 -1.2156 1.46024 0
M  V30 4107 H 380.092 -3.68586 1.22788 0
M  V30 4108 H 381.764 -2.78521 3.67728 0
M  V30 4109 H 380.007 -2.56351 3.49952 0
M  V30 4110 H 380.678 -4.19489 3.58794 0
M  V30 4111 H 383.154 -3.7967 1.70265 0
M  V30 4112 H 382.03 -5.17374 1.83346 0
M  V30 4113 H 382.291 -4.41262 0.272027 0
M  V30 4114 N 381.35 -0.985608 -1.22978 0
M  V30 4115 C 382.596 -0.65836 -1.91816 0
M  V30 4116 C 382.929 0.806692 -1.76653 0
M  V30 4117 O 382.204 1.58252 -1.13078 0
M  V30 4118 C 382.487 -1.056 -3.44268 0
M  V30 4119 C 382.34 -2.57906 -3.68516 0
M  V30 4120 C 383.659 -0.603781 -4.35939 0
M  V30 4121 H 380.778 -0.24065 -0.696604 0
M  V30 4122 H 383.42 -1.22783 -1.44998 0
M  V30 4123 H 381.57 -0.571445 -3.84274 0
M  V30 4124 H 383.242 -3.13976 -3.3796 0
M  V30 4125 H 381.485 -3.00305 -3.13048 0
M  V30 4126 H 382.156 -2.80779 -4.75255 0
M  V30 4127 H 384.632 -1.01987 -4.03408 0
M  V30 4128 H 383.508 -0.910383 -5.41298 0
M  V30 4129 H 383.769 0.495761 -4.39312 0
M  V30 4130 N 382.828 1.3818 -0.7579 0
M  V30 4131 C 384.076 1.99624 -0.315361 0
M  V30 4132 C 384.397 1.60464 1.10799 0
M  V30 4133 O 383.667 0.863507 1.75842 0
M  V30 4134 H 382.247 0.73831 -0.113611 0
M  V30 4135 H 384.909 1.68878 -0.972952 0
M  V30 4136 H 384.005 3.09754 -0.381931 0
M  V30 4137 N 384.306 0.507319 1.49211 0
M  V30 4138 C 385.536 -0.0315292 2.06576 0
M  V30 4139 C 385.944 -1.30791 1.36713 0
M  V30 4140 O 385.287 -1.78324 0.441181 0
M  V30 4141 C 385.349 -0.349104 3.57801 0
M  V30 4142 C 385.013 0.830475 4.49391 0
M  V30 4143 C 386.01 1.72271 4.90529 0
M  V30 4144 C 383.695 1.03107 4.91604 0
M  V30 4145 C 385.689 2.79964 5.72625 0
M  V30 4146 C 383.376 2.11116 5.73475 0
M  V30 4147 C 384.374 2.99379 6.1389 0
M  V30 4148 O 384.062 4.05523 6.94123 0
M  V30 4149 H 383.794 0.0201002 0.675701 0
M  V30 4150 H 386.348 0.705737 1.92895 0
M  V30 4151 H 384.578 -1.14005 3.69513 0
M  V30 4152 H 386.267 -0.827319 3.97379 0
M  V30 4153 H 387.033 1.57958 4.58557 0
M  V30 4154 H 382.912 0.353417 4.59643 0
M  V30 4155 H 386.456 3.48884 6.04091 0
M  V30 4156 H 382.353 2.25421 6.0486 0
M  V30 4157 H 383.121 4.02953 7.1244 0
M  V30 4158 N 385.784 -1.5574 0.241426 0
M  V30 4159 C 386.694 -2.2479 -0.671305 0
M  V30 4160 C 387.71 -1.26217 -1.19772 0
M  V30 4161 O 388.886 -1.59079 -1.23514 0
M  V30 4162 C 385.951 -2.92966 -1.85396 0
M  V30 4163 C 385.012 -4.06935 -1.36756 0
M  V30 4164 C 384.245 -4.71851 -2.49384 0
M  V30 4165 O 384.468 -4.35823 -3.67987 0
M  V30 4166 O 383.402 -5.60467 -2.19454 0
M  V30 4167 H 387.228 -3.0349 -0.112966 0
M  V30 4168 H 384.813 -1.49397 0.0101513 0
M  V30 4169 H 386.695 -3.35927 -2.54423 0
M  V30 4170 H 385.37 -2.17211 -2.40002 0
M  V30 4171 H 384.277 -3.68503 -0.644726 0
M  V30 4172 H 385.61 -4.84492 -0.867647 0
M  V30 4173 N 387.262 0.0317525 -1.57568 0
M  V30 4174 C 388.49 0.734949 -1.93407 0
M  V30 4175 C 388.905 1.69036 -0.84096 0
M  V30 4176 O 388.262 1.81582 0.182836 0
M  V30 4177 C 388.313 1.49432 -3.29169 0
M  V30 4178 O 388.034 0.577261 -4.3428 0
M  V30 4179 C 389.535 2.29492 -3.79273 0
M  V30 4180 H 386.755 0.206706 -0.638368 0
M  V30 4181 H 389.299 -0.00992046 -2.04498 0
M  V30 4182 H 387.454 2.1911 -3.19483 0
M  V30 4183 H 387.868 1.10952 -5.1263 0
M  V30 4184 H 389.342 2.78172 -4.76785 0
M  V30 4185 H 389.819 3.10794 -3.10328 0
M  V30 4186 H 390.425 1.64894 -3.92033 0
M  V30 4187 N 388.74 1.54641 0.303973 0
M  V30 4188 C 389.986 1.74038 1.04109 0
M  V30 4189 C 390.319 0.523051 1.87024 0
M  V30 4190 O 389.594 -0.479874 1.88487 0
M  V30 4191 C 389.877 3.02761 1.94955 0
M  V30 4192 C 389.73 4.34787 1.1524 0
M  V30 4193 C 391.049 3.27336 2.94175 0
M  V30 4194 H 388.168 0.63323 0.377079 0
M  V30 4195 H 390.81 1.87354 0.316001 0
M  V30 4196 H 388.96 2.9154 2.56782 0
M  V30 4197 H 390.632 4.57922 0.557236 0
M  V30 4198 H 388.875 4.31407 0.455053 0
M  V30 4199 H 389.546 5.21116 1.8205 0
M  V30 4200 H 392.022 3.38148 2.42477 0
M  V30 4201 H 390.898 4.18726 3.54908 0
M  V30 4202 H 391.159 2.45491 3.67677 0
M  V30 4203 N 390.218 -0.567019 1.47046 0
M  V30 4204 C 391.464 -1.32658 1.53394 0
M  V30 4205 C 391.797 -1.93254 0.19148 0
M  V30 4206 O 391.072 -1.77338 -0.798844 0
M  V30 4207 C 391.355 -2.44412 2.64452 0
M  V30 4208 C 391.208 -1.88749 4.08282 0
M  V30 4209 C 392.527 -3.46387 2.71485 0
M  V30 4210 H 389.646 -0.48098 0.558415 0
M  V30 4211 H 392.288 -0.635481 1.79058 0
M  V30 4212 H 390.438 -3.03363 2.427 0
M  V30 4213 H 392.11 -1.34134 4.41368 0
M  V30 4214 H 390.353 -1.19481 4.17021 0
M  V30 4215 H 391.024 -2.69491 4.81745 0
M  V30 4216 H 393.5 -2.9734 2.91081 0
M  V30 4217 H 392.376 -4.2202 3.50985 0
M  V30 4218 H 392.637 -4.04616 1.78153 0
M  V30 4219 N 391.696 -1.35014 -0.812953 0
M  V30 4220 C 392.944 -1.27678 -1.56661 0
M  V30 4221 C 393.265 0.150359 -1.94419 0
M  V30 4222 O 392.535 1.08532 -1.63088 0
M  V30 4223 H 391.115 -0.469602 -0.580933 0
M  V30 4224 H 393.777 -1.69043 -0.970076 0
M  V30 4225 H 392.873 -1.88833 -2.48492 0
M  V30 4226 N 393.175 1.03435 -1.18907 0
M  V30 4227 C 394.586 1.58195 -0.991523 0
M  V30 4228 C 394.937 1.90801 0.457081 0
M  V30 4229 O 394.062 1.70272 1.33553 0
M  V30 4230 C 394.657 2.87432 -1.79355 0
M  V30 4231 C 393.216 3.38785 -1.64017 0
M  V30 4232 C 392.363 2.12292 -1.78402 0
M  V30 4233 H 395.314 0.860299 -1.33359 0
M  V30 4234 H 395.335 3.58096 -1.28638 0
M  V30 4235 H 394.847 2.63669 -2.84781 0
M  V30 4236 H 392.948 3.67547 -0.611536 0
M  V30 4237 H 393.061 4.12186 -2.44212 0
M  V30 4238 H 391.425 2.23901 -1.2141 0
M  V30 4239 H 392.208 1.90977 -2.85277 0
M  V30 4240 N 394.653 0.992116 1.22453 0
M  V30 4241 C 395.901 0.666215 1.90804 0
M  V30 4242 C 396.222 -0.804152 1.77647 0
M  V30 4243 O 395.492 -1.57629 1.16318 0
M  V30 4244 H 394.072 0.243423 0.706225 0
M  V30 4245 H 396.734 1.25845 1.48825 0
M  V30 4246 H 395.83 0.928069 2.97982 0
M  V30 4247 N 396.131 -1.37776 0.765217 0
M  V30 4248 C 397.408 -1.93975 0.251596 0
M  V30 4249 C 397.788 -1.69949 -1.25222 0
M  V30 4250 O 397.136 -1.04457 -2.03226 0
M  V30 4251 C 397.346 -3.43487 0.617895 0
M  V30 4252 C 398.694 -4.20564 0.584029 0
M  V30 4253 O 399.718 -3.5182 0.556888 0
M  V30 4254 O 398.577 -5.43138 0.605291 0
M  V30 4255 H 395.671 -0.82509 0.0561806 0
M  V30 4256 H 398.217 -1.47101 0.846128 0
M  V30 4257 H 396.989 -3.5453 1.65602 0
M  V30 4258 H 396.612 -3.976 -0.00403411 0
M  V30 4259 N 397.609 -0.515225 -1.4894 0
M  V30 4260 C 398.855 0.0242508 -2.02785 0
M  V30 4261 C 399.188 1.35323 -1.39289 0
M  V30 4262 O 398.463 1.87041 -0.533469 0
M  V30 4263 C 398.746 0.16184 -3.59736 0
M  V30 4264 C 398.599 -1.19127 -4.33738 0
M  V30 4265 C 399.918 0.895719 -4.30888 0
M  V30 4266 H 397.037 0.00733914 -0.736963 0
M  V30 4267 H 399.679 -0.669395 -1.77818 0
M  V30 4268 H 397.829 0.752624 -3.8114 0
M  V30 4269 H 399.501 -1.82202 -4.23792 0
M  V30 4270 H 397.744 -1.77695 -3.95736 0
M  V30 4271 H 398.415 -1.04815 -5.41957 0
M  V30 4272 H 400.891 0.394528 -4.14225 0
M  V30 4273 H 399.767 0.960859 -5.40425 0
M  V30 4274 H 400.028 1.9427 -3.97129 0
M  V30 4275 N 399.087 1.5561 -0.249682 0
M  V30 4276 C 400.017 2.24477 0.642826 0
M  V30 4277 C 400.998 1.22601 1.17911 0
M  V30 4278 O 402.183 1.5126 1.21795 0
M  V30 4279 C 399.313 2.94638 1.83863 0
M  V30 4280 C 398.267 4.03227 1.435 0
M  V30 4281 C 397.593 4.60828 2.71186 0
M  V30 4282 C 398.893 5.18796 0.604002 0
M  V30 4283 H 400.587 2.99321 0.0685625 0
M  V30 4284 H 398.133 1.43965 0.0315363 0
M  V30 4285 H 400.086 3.41517 2.46868 0
M  V30 4286 H 398.81 2.17287 2.43832 0
M  V30 4287 H 397.469 3.57121 0.828275 0
M  V30 4288 H 397.117 3.80174 3.29358 0
M  V30 4289 H 396.817 5.34132 2.44901 0
M  V30 4290 H 398.341 5.10442 3.35084 0
M  V30 4291 H 399.755 5.61883 1.13842 0
M  V30 4292 H 398.152 5.98506 0.437097 0
M  V30 4293 H 399.222 4.83384 -0.383147 0
M  V30 4294 N 400.565 -0.0233959 1.57583 0
M  V30 4295 C 401.795 -0.723631 1.93513 0
M  V30 4296 C 402.203 -1.69115 0.848333 0
M  V30 4297 O 401.546 -1.82781 -0.183484 0
M  V30 4298 C 401.608 -1.53075 3.25282 0
M  V30 4299 C 401.272 -0.727388 4.51174 0
M  V30 4300 C 402.269 -0.0251924 5.19894 0
M  V30 4301 C 399.954 -0.680256 4.97672 0
M  V30 4302 C 401.948 0.713374 6.33395 0
M  V30 4303 C 399.635 0.0620523 6.11068 0
M  V30 4304 C 400.633 0.757622 6.78785 0
M  V30 4305 O 400.321 1.48787 7.90011 0
M  V30 4306 H 400.053 -0.208051 0.643188 0
M  V30 4307 H 402.607 0.0167489 2.05393 0
M  V30 4308 H 400.837 -2.31508 3.09744 0
M  V30 4309 H 402.526 -2.11413 3.46496 0
M  V30 4310 H 403.292 -0.0526003 4.84971 0
M  V30 4311 H 399.171 -1.21116 4.44805 0
M  V30 4312 H 402.715 1.25683 6.86185 0
M  V30 4313 H 398.612 0.0913634 6.45435 0
M  V30 4314 H 399.38 1.40213 8.06401 0
M  V30 4315 N 402.043 -1.548 -0.295768 0
M  V30 4316 C 403.292 -1.73538 -1.02798 0
M  V30 4317 C 403.605 -0.531159 -1.8825 0
M  V30 4318 O 404.811 -0.600458 -2.64777 0
M  V30 4319 C 403.267 -3.07051 -1.87744 0
M  V30 4320 C 402.875 -4.34968 -1.07269 0
M  V30 4321 C 404.619 -3.35146 -2.60533 0
M  V30 4322 C 402.526 -5.5953 -1.91521 0
M  V30 4323 H 401.456 -0.646794 -0.387522 0
M  V30 4324 H 404.107 -1.81278 -0.284718 0
M  V30 4325 H 402.489 -2.93289 -2.66078 0
M  V30 4326 H 403.663 -4.5958 -0.335117 0
M  V30 4327 H 401.978 -4.13847 -0.460384 0
M  V30 4328 H 404.575 -4.2541 -3.23929 0
M  V30 4329 H 404.918 -2.54255 -3.29636 0
M  V30 4330 H 405.451 -3.49902 -1.89244 0
M  V30 4331 H 402.19 -6.43103 -1.26878 0
M  V30 4332 H 401.71 -5.39096 -2.62937 0
M  V30 4333 H 403.389 -5.96982 -2.49442 0
M  V30 4334 N 403.521 0.559213 -1.47345 0
M  V30 4335 C 404.932 1.14134 -1.47751 0
M  V30 4336 C 405.283 1.94834 -0.231103 0
M  V30 4337 O 404.408 2.05957 0.664137 0
M  V30 4338 C 405.003 2.07653 -2.67705 0
M  V30 4339 C 403.562 2.61141 -2.71076 0
M  V30 4340 C 402.709 1.3748 -2.40821 0
M  V30 4341 H 405.66 0.345917 -1.54884 0
M  V30 4342 H 405.681 2.91497 -2.44561 0
M  V30 4343 H 405.193 1.4889 -3.58404 0
M  V30 4344 H 403.294 3.23707 -1.84511 0
M  V30 4345 H 403.407 3.02272 -3.7171 0
M  V30 4346 H 401.771 1.68086 -1.91362 0
M  V30 4347 H 402.554 0.805135 -3.33725 0
M  V30 4348 N 404.999 1.35443 0.805782 0
M  V30 4349 C 405.932 1.22783 1.92353 0
M  V30 4350 C 406.91 0.115543 1.62189 0
M  V30 4351 O 408.094 0.283778 1.86352 0
M  V30 4352 C 405.221 0.890746 3.26777 0
M  V30 4353 C 404.267 2.01519 3.75889 0
M  V30 4354 S 405.1 3.63101 3.93596 0
M  V30 4355 C 406.256 3.31472 5.30921 0
M  V30 4356 H 406.489 2.17394 2.02798 0
M  V30 4357 H 404.022 1.20669 0.963245 0
M  V30 4358 H 405.98 0.703068 4.04434 0
M  V30 4359 H 404.641 -0.0373152 3.14078 0
M  V30 4360 H 403.834 1.7335 4.7325 0
M  V30 4361 H 403.436 2.16124 3.05231 0
M  V30 4362 H 405.728 2.8435 6.1494 0
M  V30 4363 H 406.671 4.28036 5.64084 0
M  V30 4364 H 407.079 2.67221 4.97246 0
M  V30 4365 N 406.477 -1.02803 1.19454 0
M  V30 4366 C 407.707 -1.79581 1.02149 0
M  V30 4367 C 408.115 -1.84182 -0.432851 0
M  V30 4368 O 407.458 -1.28534 -1.31243 0
M  V30 4369 C 407.52 -3.25993 1.51554 0
M  V30 4370 C 407.184 -3.45025 2.99678 0
M  V30 4371 C 408.181 -3.35175 3.97434 0
M  V30 4372 C 405.866 -3.71212 3.38389 0
M  V30 4373 C 407.86 -3.51238 5.31893 0
M  V30 4374 C 405.547 -3.8692 4.73008 0
M  V30 4375 C 406.545 -3.76936 5.69569 0
M  V30 4376 O 406.233 -3.92179 7.01748 0
M  V30 4377 H 405.965 -0.571962 0.360327 0
M  V30 4378 H 408.519 -1.30367 1.58725 0
M  V30 4379 H 406.749 -3.76235 0.893543 0
M  V30 4380 H 408.438 -3.84368 1.30444 0
M  V30 4381 H 409.204 -3.14895 3.68872 0
M  V30 4382 H 405.083 -3.78075 2.6378 0
M  V30 4383 H 408.627 -3.43362 6.07247 0
M  V30 4384 H 404.524 -4.06699 5.01265 0
M  V30 4385 H 405.292 -4.09265 7.08833 0
M  V30 4386 N 407.956 -0.998596 -1.21925 0
M  V30 4387 C 409.202 -0.688337 -1.91399 0
M  V30 4388 C 409.557 0.771805 -1.76241 0
M  V30 4389 O 408.85 1.55153 -1.1242 0
M  V30 4390 C 409.044 -1.03648 -3.42041 0
M  V30 4391 C 408.873 -2.52892 -3.71855 0
M  V30 4392 C 407.643 -3.19389 -3.91559 0
M  V30 4393 C 409.841 -3.5103 -3.75875 0
M  V30 4394 N 407.823 -4.5805 -4.08734 0
M  V30 4395 C 409.194 -4.75174 -3.98259 0
M  V30 4396 C 411.249 -3.45257 -3.58751 0
M  V30 4397 C 409.952 -5.94247 -4.05294 0
M  V30 4398 C 411.978 -4.63712 -3.67049 0
M  V30 4399 C 411.34 -5.86658 -3.89887 0
M  V30 4400 H 407.439 -0.303251 -0.720807 0
M  V30 4401 H 410.023 -1.27977 -1.46731 0
M  V30 4402 H 408.194 -0.473569 -3.85502 0
M  V30 4403 H 409.926 -0.681619 -3.98919 0
M  V30 4404 H 406.681 -2.69846 -3.89205 0
M  V30 4405 H 407.105 -5.29989 -4.21237 0
M  V30 4406 H 411.747 -2.51215 -3.40075 0
M  V30 4407 H 409.465 -6.88687 -4.22772 0
M  V30 4408 H 413.051 -4.6084 -3.5513 0
M  V30 4409 H 411.931 -6.76786 -3.96144 0
M  V30 4410 N 409.434 1.37368 -0.772513 0
M  V30 4411 C 410.68 2.00423 -0.3467 0
M  V30 4412 C 411.035 1.60224 1.06518 0
M  V30 4413 O 410.328 0.838712 1.72268 0
M  V30 4414 C 410.522 3.54817 -0.428876 0
M  V30 4415 C 410.351 4.10011 -1.84719 0
M  V30 4416 C 409.121 4.40927 -2.46803 0
M  V30 4417 C 411.319 4.30955 -2.80681 0
M  V30 4418 N 409.301 4.8184 -3.80399 0
M  V30 4419 C 410.672 4.74486 -3.99078 0
M  V30 4420 C 412.727 4.1309 -2.77958 0
M  V30 4421 C 411.43 5.02023 -5.15136 0
M  V30 4422 C 413.456 4.41764 -3.9319 0
M  V30 4423 C 412.818 4.85535 -5.10328 0
M  V30 4424 H 408.917 0.762413 -0.173927 0
M  V30 4425 H 411.501 1.66666 -1.00651 0
M  V30 4426 H 409.672 3.87881 0.200757 0
M  V30 4427 H 411.404 4.04696 0.0190668 0
M  V30 4428 H 408.159 4.30033 -1.98415 0
M  V30 4429 H 408.583 5.06604 -4.49089 0
M  V30 4430 H 413.225 3.7842 -1.88568 0
M  V30 4431 H 410.943 5.35582 -6.05126 0
M  V30 4432 H 414.529 4.29528 -3.92425 0
M  V30 4433 H 413.409 5.07296 -5.98013 0
M  V30 4434 N 410.912 0.523116 1.48665 0
M  V30 4435 C 411.862 -0.263106 2.26477 0
M  V30 4436 C 412.846 -0.916005 1.32281 0
M  V30 4437 O 414.038 -0.819946 1.56863 0
M  V30 4438 C 411.167 -1.31361 3.17174 0
M  V30 4439 C 410.253 -0.665849 4.1884 0
M  V30 4440 N 410.644 0.244434 5.05209 0
M  V30 4441 C 408.942 -0.923863 4.36326 0
M  V30 4442 C 409.643 0.617443 5.78414 0
M  V30 4443 N 408.619 -0.0198686 5.43596 0
M  V30 4444 H 412.421 0.437295 2.90629 0
M  V30 4445 H 409.935 0.340675 1.58787 0
M  V30 4446 H 411.932 -1.89052 3.71571 0
M  V30 4447 H 410.592 -2.01546 2.54576 0
M  V30 4448 H 411.603 0.616621 5.14216 0
M  V30 4449 H 408.28 -1.6168 3.84923 0
M  V30 4450 H 409.67 1.36346 6.57921 0
M  V30 4451 N 412.39 -1.55475 0.257931 0
M  V30 4452 C 413.34 -2.18506 -0.651094 0
M  V30 4453 C 414.324 -1.14431 -1.13112 0
M  V30 4454 O 415.516 -1.40305 -1.07905 0
M  V30 4455 C 412.645 -2.89653 -1.84272 0
M  V30 4456 C 411.731 -4.00996 -1.38068 0
M  V30 4457 N 412.122 -5.01816 -0.633609 0
M  V30 4458 C 410.42 -4.13753 -1.66506 0
M  V30 4459 C 411.121 -5.80371 -0.392922 0
M  V30 4460 N 410.097 -5.3505 -0.960359 0
M  V30 4461 H 413.899 -2.93811 -0.0722883 0
M  V30 4462 H 411.413 -1.62286 0.0607256 0
M  V30 4463 H 413.41 -3.33245 -2.50506 0
M  V30 4464 H 412.07 -2.15854 -2.42564 0
M  V30 4465 H 413.081 -5.17128 -0.282626 0
M  V30 4466 H 409.758 -3.51133 -2.25858 0
M  V30 4467 H 411.148 -6.7159 0.204235 0
M  V30 4468 N 413.868 0.0150385 -1.57593 0
M  V30 4469 C 415.117 0.702115 -1.89085 0
M  V30 4470 C 415.43 1.75764 -0.858277 0
M  V30 4471 O 416.636 2.49829 -1.0629 0
M  V30 4472 C 415.092 1.29992 -3.35604 0
M  V30 4473 C 414.7 0.280007 -4.47124 0
M  V30 4474 C 416.444 1.96606 -3.76227 0
M  V30 4475 C 414.351 0.886949 -5.84711 0
M  V30 4476 H 413.281 0.265997 -0.705522 0
M  V30 4477 H 415.932 -0.0430408 -1.8345 0
M  V30 4478 H 414.314 2.09525 -3.36029 0
M  V30 4479 H 415.488 -0.489631 -4.58191 0
M  V30 4480 H 413.803 -0.284835 -4.15425 0
M  V30 4481 H 416.4 2.42893 -4.76347 0
M  V30 4482 H 416.743 2.79024 -3.08952 0
M  V30 4483 H 417.276 1.23828 -3.78036 0
M  V30 4484 H 414.015 0.101876 -6.55421 0
M  V30 4485 H 413.535 1.6261 -5.77337 0
M  V30 4486 H 415.214 1.39011 -6.3189 0
M  V30 4487 N 415.346 1.54954 0.287554 0
M  V30 4488 C 416.256 1.8991 1.37736 0
M  V30 4489 C 417.272 0.794701 1.54792 0
M  V30 4490 O 418.448 1.09243 1.69198 0
M  V30 4491 C 415.513 2.15108 2.71899 0
M  V30 4492 C 414.574 3.38752 2.63715 0
M  V30 4493 C 413.807 3.62739 3.91479 0
M  V30 4494 O 414.03 2.89492 4.91478 0
M  V30 4495 O 412.964 4.56267 3.92561 0
M  V30 4496 H 416.79 2.82652 1.11092 0
M  V30 4497 H 414.375 1.41315 0.484807 0
M  V30 4498 H 416.257 2.32806 3.51254 0
M  V30 4499 H 414.932 1.25551 2.9836 0
M  V30 4500 H 413.839 3.26405 1.82786 0
M  V30 4501 H 415.172 4.28483 2.42205 0
M  V30 4502 N 416.824 -0.551391 1.4764 0
M  V30 4503 C 418.049 -1.33837 1.58437 0
M  V30 4504 C 418.474 -1.866 0.237063 0
M  V30 4505 O 417.832 -1.6328 -0.787994 0
M  V30 4506 C 417.88 -2.48014 2.61766 0
M  V30 4507 O 416.984 -3.50419 2.1744 0
M  V30 4508 H 416.325 -0.397299 0.532024 0
M  V30 4509 H 418.855 -0.665759 1.93465 0
M  V30 4510 H 418.865 -2.94503 2.82369 0
M  V30 4511 H 417.54 -2.08969 3.5959 0
M  V30 4512 H 416.117 -3.10196 2.06961 0
M  V30 4513 N 418.302 -1.35869 -0.798587 0
M  V30 4514 C 419.232 -1.32118 -1.92528 0
M  V30 4515 C 420.213 -0.194209 -1.68988 0
M  V30 4516 O 421.398 -0.390426 -1.90235 0
M  V30 4517 C 418.528 -1.10047 -3.29404 0
M  V30 4518 C 417.482 -2.19471 -3.67446 0
M  V30 4519 C 416.808 -1.82555 -5.02571 0
M  V30 4520 C 418.108 -3.61495 -3.76987 0
M  V30 4521 H 419.802 -2.26394 -1.95924 0
M  V30 4522 H 417.348 -1.08981 -0.94123 0
M  V30 4523 H 419.301 -1.06061 -4.07835 0
M  V30 4524 H 418.025 -0.122195 -3.26371 0
M  V30 4525 H 416.684 -2.22568 -2.91306 0
M  V30 4526 H 416.332 -0.833249 -4.9605 0
M  V30 4527 H 416.032 -2.5581 -5.28995 0
M  V30 4528 H 417.556 -1.80108 -5.83432 0
M  V30 4529 H 418.97 -3.60676 -4.4563 0
M  V30 4530 H 417.367 -4.33577 -4.14887 0
M  V30 4531 H 418.437 -3.97065 -2.78329 0
M  V30 4532 N 419.78 1.02168 -1.19998 0
M  V30 4533 C 420.71 2.12488 -0.96804 0
M  V30 4534 C 421.691 1.69799 0.101185 0
M  V30 4535 O 422.876 1.94121 -0.0552993 0
M  V30 4536 C 420.006 3.43479 -0.513776 0
M  V30 4537 C 418.96 3.99884 -1.52566 0
M  V30 4538 C 418.286 5.26582 -0.928214 0
M  V30 4539 C 419.586 4.33861 -2.90795 0
M  V30 4540 H 421.28 2.32149 -1.89069 0
M  V30 4541 H 418.826 1.11564 -0.910468 0
M  V30 4542 H 420.779 4.20036 -0.338774 0
M  V30 4543 H 419.503 3.23561 0.444493 0
M  V30 4544 H 418.162 3.25429 -1.68794 0
M  V30 4545 H 417.81 5.02986 0.0378289 0
M  V30 4546 H 417.51 5.65284 -1.60397 0
M  V30 4547 H 419.034 6.05799 -0.764167 0
M  V30 4548 H 420.448 5.01327 -2.78109 0
M  V30 4549 H 418.845 4.83664 -3.55231 0
M  V30 4550 H 419.915 3.42848 -3.42904 0
M  V30 4551 N 421.258 1.00505 1.21394 0
M  V30 4552 C 422.206 0.558623 2.25792 0
M  V30 4553 C 423.2 -0.396848 1.64686 0
M  V30 4554 O 424.406 -0.268035 1.77993 0
M  V30 4555 H 420.781 0.1623 0.734277 0
M  V30 4556 H 422.752 1.4503 2.60785 0
M  V30 4557 C 421.501 -0.0989574 3.47559 0
M  V30 4558 H 420.824 0.627225 3.94849 0
M  V30 4559 H 422.264 -0.3746 4.22342 0
M  V30 4560 C 420.723 -1.33817 3.09184 0
M  V30 4561 O 421.253 -2.43252 3.19674 0
M  V30 4562 N 419.459 -1.21793 2.63846 0
M  V30 4563 H 419.006 -0.32746 2.5551 0
M  V30 4564 H 418.964 -2.04809 2.38539 0
M  V30 4565 N 422.737 -1.36956 0.779787 0
M  V30 4566 C 423.985 -1.99097 0.347079 0
M  V30 4567 C 424.306 -1.62206 -1.08232 0
M  V30 4568 O 423.576 -0.891373 -1.74446 0
M  V30 4569 H 422.156 -0.736409 0.125342 0
M  V30 4570 H 424.818 -1.67308 0.999696 0
M  V30 4571 H 423.914 -3.09107 0.431162 0
M  V30 4572 N 424.215 -0.530993 -1.48385 0
M  V30 4573 C 425.463 0.00273189 -2.021 0
M  V30 4574 C 425.784 1.34672 -1.41027 0
M  V30 4575 O 425.054 1.8724 -0.576012 0
M  V30 4576 H 423.634 0.00399774 -0.746989 0
M  V30 4577 H 426.296 -0.695054 -1.82085 0
M  V30 4578 H 425.392 0.11031 -3.11905 0
M  V30 4579 N 425.693 1.55336 -0.266172 0
M  V30 4580 C 426.942 1.98574 0.353749 0
M  V30 4581 C 427.255 1.15789 1.57646 0
M  V30 4582 O 428.461 1.49129 2.26876 0
M  V30 4583 C 426.917 3.53403 0.680747 0
M  V30 4584 C 426.525 4.44953 -0.52165 0
M  V30 4585 C 428.269 4.05251 1.26379 0
M  V30 4586 C 426.176 5.91156 -0.169736 0
M  V30 4587 H 425.106 0.741643 0.135949 0
M  V30 4588 H 427.757 1.79743 -0.369421 0
M  V30 4589 H 426.139 3.68001 1.46257 0
M  V30 4590 H 427.313 4.42121 -1.29869 0
M  V30 4591 H 425.628 4.03691 -1.02093 0
M  V30 4592 H 428.225 5.12021 1.54074 0
M  V30 4593 H 428.568 3.53749 2.19471 0
M  V30 4594 H 429.101 3.94057 0.544447 0
M  V30 4595 H 425.84 6.46736 -1.0683 0
M  V30 4596 H 425.36 5.97079 0.570717 0
M  V30 4597 H 427.039 6.4655 0.241245 0
M  V30 4598 N 427.171 -0.0066808 1.57599 0
M  V30 4599 C 428.399 -0.704087 1.94551 0
M  V30 4600 C 428.814 -1.67677 0.867746 0
M  V30 4601 O 428.171 -1.8185 -0.153925 0
M  V30 4602 C 428.222 -1.44177 3.31505 0
M  V30 4603 O 427.943 -0.508097 4.35144 0
M  V30 4604 C 429.444 -2.23429 3.82876 0
M  V30 4605 H 426.664 -0.196523 0.641576 0
M  V30 4606 H 429.208 0.042453 2.04456 0
M  V30 4607 H 427.363 -2.13999 3.22929 0
M  V30 4608 H 427.777 -1.02782 5.14331 0
M  V30 4609 H 429.251 -2.70552 4.8115 0
M  V30 4610 H 429.728 -3.05818 3.15233 0
M  V30 4611 H 430.334 -1.58636 3.94607 0
M  V30 4612 N 428.649 -1.55105 -0.279332 0
M  V30 4613 C 429.898 -1.74618 -1.00952 0
M  V30 4614 C 430.211 -0.551096 -1.87676 0
M  V30 4615 O 431.417 -0.628507 -2.64125 0
M  V30 4616 C 429.873 -3.09025 -1.84476 0
M  V30 4617 C 429.481 -4.36081 -1.0265 0
M  V30 4618 C 431.225 -3.37891 -2.56963 0
M  V30 4619 C 429.132 -5.6153 -1.85576 0
M  V30 4620 H 428.062 -0.650868 -0.38064 0
M  V30 4621 H 430.713 -1.81569 -0.265475 0
M  V30 4622 H 429.095 -2.96095 -2.62952 0
M  V30 4623 H 430.269 -4.59909 -0.286354 0
M  V30 4624 H 428.584 -4.14312 -0.416464 0
M  V30 4625 H 431.181 -4.28822 -3.19399 0
M  V30 4626 H 431.524 -2.57737 -3.26921 0
M  V30 4627 H 432.057 -3.5189 -1.85522 0
M  V30 4628 H 428.796 -6.44413 -1.2005 0
M  V30 4629 H 428.316 -5.41854 -2.57204 0
M  V30 4630 H 429.995 -5.99594 -2.43096 0
M  V30 4631 N 430.127 0.543554 -1.4793 0
M  V30 4632 C 431.355 1.32516 -1.58894 0
M  V30 4633 C 431.77 1.87215 -0.244131 0
M  V30 4634 O 431.127 1.65709 0.764652 0
M  V30 4635 C 431.178 2.48554 -2.62494 0
M  V30 4636 O 430.899 1.96112 -3.91755 0
M  V30 4637 C 432.4 3.40572 -2.8377 0
M  V30 4638 H 429.62 0.403472 -0.536145 0
M  V30 4639 H 432.164 0.657106 -1.93655 0
M  V30 4640 H 430.319 3.1127 -2.30629 0
M  V30 4641 H 430.733 2.71967 -4.4848 0
M  V30 4642 H 432.207 4.18375 -3.60093 0
M  V30 4643 H 432.684 3.94965 -1.92092 0
M  V30 4644 H 433.29 2.8366 -3.16887 0
M  V30 4645 N 431.605 1.3629 0.791371 0
M  V30 4646 C 432.851 1.30605 1.55146 0
M  V30 4647 C 433.184 -0.115042 1.93859 0
M  V30 4648 O 432.459 -1.06798 1.62556 0
M  V30 4649 C 432.742 2.22692 2.82985 0
M  V30 4650 C 432.595 3.73489 2.50651 0
M  V30 4651 C 433.914 2.13588 3.84796 0
M  V30 4652 H 431.033 0.475761 0.562868 0
M  V30 4653 H 433.675 1.66825 0.909358 0
M  V30 4654 H 431.825 1.91933 3.37778 0
M  V30 4655 H 433.497 4.14758 2.01924 0
M  V30 4656 H 431.74 3.93021 1.83622 0
M  V30 4657 H 432.411 4.3333 3.41949 0
M  V30 4658 H 434.887 2.40659 3.39445 0
M  V30 4659 H 433.763 2.80195 4.71998 0
M  V30 4660 H 434.024 1.12256 4.27611 0
M  V30 4661 N 433.083 -1.0153 1.20538 0
M  V30 4662 C 434.031 -2.12215 0.952235 0
M  V30 4663 C 435.025 -1.69123 -0.0968735 0
M  V30 4664 O 436.231 -1.7992 0.0536006 0
M  V30 4665 H 432.606 -0.693576 0.290613 0
M  V30 4666 H 434.577 -2.3075 1.89201 0
M  V30 4667 C 433.326 -3.43755 0.522287 0
M  V30 4668 H 432.649 -3.7734 1.32115 0
M  V30 4669 H 434.089 -4.22254 0.384389 0
M  V30 4670 C 432.548 -3.28088 -0.765489 0
M  V30 4671 O 433.078 -3.57921 -1.8236 0
M  V30 4672 N 431.284 -2.81333 -0.728011 0
M  V30 4673 H 430.831 -2.57255 0.133332 0
M  V30 4674 H 430.789 -2.71232 -1.58999 0
M  V30 4675 N 434.561 -1.01147 -1.20859 0
M  V30 4676 C 435.808 -0.697865 -1.90095 0
M  V30 4677 C 436.136 0.772014 -1.78522 0
M  V30 4678 O 435.391 1.57595 -1.16027 0
M  V30 4679 C 435.69 -1.0727 -3.40922 0
M  V30 4680 C 435.356 -2.53792 -3.72693 0
M  V30 4681 C 434.018 -2.93829 -3.81075 0
M  V30 4682 C 436.37 -3.48674 -3.87397 0
M  V30 4683 C 433.698 -4.27696 -4.01613 0
M  V30 4684 C 436.05 -4.82223 -4.09444 0
M  V30 4685 C 434.714 -5.21973 -4.16054 0
M  V30 4686 H 433.984 -0.255367 -0.695607 0
M  V30 4687 H 436.631 -1.27111 -1.43231 0
M  V30 4688 H 434.936 -0.417799 -3.89566 0
M  V30 4689 H 436.633 -0.807818 -3.92779 0
M  V30 4690 H 433.223 -2.21768 -3.66765 0
M  V30 4691 H 437.407 -3.18904 -3.80281 0
M  V30 4692 H 432.663 -4.58055 -4.04964 0
M  V30 4693 H 436.837 -5.55672 -4.19763 0
M  V30 4694 H 434.464 -6.25717 -4.31721 0
M  V30 4695 N 436.039 1.36541 -0.78704 0
M  V30 4696 C 437.285 2.00044 -0.367938 0
M  V30 4697 C 437.64 1.61345 1.04812 0
M  V30 4698 O 436.933 0.856936 1.71368 0
M  V30 4699 C 437.127 3.54343 -0.466485 0
M  V30 4700 C 436.956 4.08029 -1.89058 0
M  V30 4701 C 435.726 4.38284 -2.51466 0
M  V30 4702 C 437.924 4.27954 -2.85236 0
M  V30 4703 N 435.906 4.77778 -3.85488 0
M  V30 4704 C 437.277 4.70227 -4.04088 0
M  V30 4705 C 439.332 4.10119 -2.82324 0
M  V30 4706 C 438.035 4.96532 -5.20432 0
M  V30 4707 C 440.061 4.37569 -3.97854 0
M  V30 4708 C 439.423 4.80095 -5.15449 0
M  V30 4709 H 435.522 0.760525 -0.182004 0
M  V30 4710 H 438.106 1.65589 -1.02413 0
M  V30 4711 H 436.277 3.88072 0.159606 0
M  V30 4712 H 438.009 4.04693 -0.0238577 0
M  V30 4713 H 434.764 4.27905 -2.02965 0
M  V30 4714 H 435.188 5.01813 -4.54437 0
M  V30 4715 H 439.83 3.76399 -1.92571 0
M  V30 4716 H 437.548 5.29134 -6.10773 0
M  V30 4717 H 441.134 4.25341 -3.96958 0
M  V30 4718 H 440.014 5.00925 -6.0336 0
M  V30 4719 N 437.518 0.538854 1.48102 0
M  V30 4720 C 438.748 0.0122958 2.06596 0
M  V30 4721 C 439.156 -1.27861 1.39457 0
M  V30 4722 O 438.499 -1.77348 0.478907 0
M  V30 4723 C 438.561 -0.273131 3.58461 0
M  V30 4724 C 438.225 0.92561 4.47528 0
M  V30 4725 C 439.222 1.82637 4.86765 0
M  V30 4726 C 436.907 1.13511 4.89306 0
M  V30 4727 C 438.901 2.92047 5.66558 0
M  V30 4728 C 436.588 2.23233 5.68868 0
M  V30 4729 C 437.586 3.12333 6.07402 0
M  V30 4730 O 437.274 4.20155 6.85365 0
M  V30 4731 H 437.006 0.0344283 0.675123 0
M  V30 4732 H 439.56 0.746494 1.91355 0
M  V30 4733 H 437.79 -1.06141 3.71848 0
M  V30 4734 H 439.479 -0.742842 3.99045 0
M  V30 4735 H 440.245 1.67649 4.55103 0
M  V30 4736 H 436.124 0.450835 4.5879 0
M  V30 4737 H 439.668 3.6162 5.96554 0
M  V30 4738 H 435.565 2.38201 5.99942 0
M  V30 4739 H 436.333 4.17975 7.03732 0
M  V30 4740 N 438.996 -1.55193 0.274407 0
M  V30 4741 C 439.943 -2.225 -0.613374 0
M  V30 4742 C 440.913 -1.19823 -1.15029 0
M  V30 4743 O 442.098 -1.48362 -1.19973 0
M  V30 4744 C 439.238 -2.94927 -1.79199 0
M  V30 4745 C 438.351 -4.12322 -1.28899 0
M  V30 4746 C 437.486 -4.72394 -2.42934 0
M  V30 4747 C 436.525 -5.81984 -1.89634 0
M  V30 4748 N 435.662 -6.36123 -2.9714 0
M  V30 4749 H 440.502 -2.97982 -0.032756 0
M  V30 4750 H 438.039 -1.47099 -0.00440146 0
M  V30 4751 H 439.997 -3.35134 -2.48478 0
M  V30 4752 H 438.627 -2.2187 -2.34465 0
M  V30 4753 H 437.679 -3.7724 -0.489327 0
M  V30 4754 H 438.991 -4.91355 -0.858587 0
M  V30 4755 H 438.145 -5.15317 -3.20208 0
M  V30 4756 H 436.884 -3.92636 -2.8929 0
M  V30 4757 H 435.889 -5.38511 -1.1084 0
M  V30 4758 H 437.114 -6.6361 -1.44215 0
M  V30 4759 H 435.06 -5.59259 -3.42878 0
M  V30 4760 H 434.977 -7.10427 -2.58515 0
M  V30 4761 H 436.245 -6.83704 -3.74391 0
M  V30 4762 N 440.474 -0.00167713 -1.576 0
M  V30 4763 C 441.722 0.681471 -1.90264 0
M  V30 4764 C 442.043 1.7422 -0.875924 0
M  V30 4765 O 441.313 1.95709 0.0864412 0
M  V30 4766 H 439.893 0.254696 -0.702239 0
M  V30 4767 H 442.555 -0.0429996 -1.94853 0
M  V30 4768 H 441.651 1.15166 -2.90075 0
M  V30 4769 N 441.952 1.55251 0.271103 0
M  V30 4770 C 442.915 1.87484 1.31842 0
M  V30 4771 C 443.915 0.749545 1.42262 0
M  V30 4772 O 445.105 1.01771 1.4138 0
M  V30 4773 C 442.237 2.0818 2.69951 0
M  V30 4774 H 443.43 2.81108 1.0449 0
M  V30 4775 H 440.983 1.47771 0.509258 0
M  V30 4776 H 441.718 1.16944 3.02481 0
M  V30 4777 H 441.503 2.90114 2.63774 0
M  V30 4778 H 442.993 2.34385 3.4562 0
M  V30 4779 N 443.43 -0.535701 1.48216 0
M  V30 4780 C 444.841 -1.11769 1.49548 0
M  V30 4781 C 445.192 -1.94442 0.26207 0
M  V30 4782 O 444.317 -2.06987 -0.631287 0
M  V30 4783 C 444.912 -2.03367 2.70975 0
M  V30 4784 C 443.471 -2.56795 2.75196 0
M  V30 4785 C 442.618 -1.33631 2.42977 0
M  V30 4786 H 445.569 -0.321232 1.55415 0
M  V30 4787 H 445.59 -2.87569 2.49167 0
M  V30 4788 H 445.102 -1.43169 3.60727 0
M  V30 4789 H 443.203 -3.20731 1.89638 0
M  V30 4790 H 443.316 -2.9632 3.76472 0
M  V30 4791 H 441.68 -1.6502 1.94012 0
M  V30 4792 H 442.463 -0.75194 3.34964 0
M  V30 4793 N 444.908 -1.36708 -0.784132 0
M  V30 4794 C 446.136 -1.34398 -1.57305 0
M  V30 4795 C 446.551 0.0735577 -1.88657 0
M  V30 4796 O 445.908 1.03193 -1.50524 0
M  V30 4797 C 445.959 -2.17053 -2.89085 0
M  V30 4798 O 445.68 -3.53281 -2.59083 0
M  V30 4799 C 447.181 -2.22583 -3.83369 0
M  V30 4800 H 444.401 -0.460819 -0.487736 0
M  V30 4801 H 446.945 -1.79879 -0.972819 0
M  V30 4802 H 445.1 -1.75113 -3.45564 0
M  V30 4803 H 445.514 -3.9647 -3.43383 0
M  V30 4804 H 446.988 -2.84763 -4.72878 0
M  V30 4805 H 447.465 -1.23075 -4.21603 0
M  V30 4806 H 448.071 -2.64781 -3.32823 0
M  V30 4807 N 446.386 1.0089 -1.21074 0
M  V30 4808 C 447.797 1.56056 -1.02486 0
M  V30 4809 C 448.148 1.91728 0.416506 0
M  V30 4810 O 447.273 1.73066 1.29912 0
M  V30 4811 C 447.868 2.83563 -1.85411 0
M  V30 4812 C 446.427 3.3523 -1.71166 0
M  V30 4813 C 445.574 2.0846 -1.82865 0
M  V30 4814 H 448.525 0.831818 -1.35154 0
M  V30 4815 H 448.546 3.55286 -1.36205 0
M  V30 4816 H 448.058 2.57569 -2.9031 0
M  V30 4817 H 446.159 3.66167 -0.689361 0
M  V30 4818 H 446.272 4.06913 -2.52901 0
M  V30 4819 H 444.636 2.21275 -1.26132 0
M  V30 4820 H 445.419 1.84883 -2.89263 0
M  V30 4821 N 447.864 1.01787 1.20321 0
M  V30 4822 C 448.811 0.589197 2.23153 0
M  V30 4823 C 449.781 -0.391367 1.61423 0
M  V30 4824 O 450.966 -0.290518 1.88575 0
M  V30 4825 C 448.106 -0.0650747 3.45039 0
M  V30 4826 C 447.219 0.960207 4.21194 0
M  V30 4827 C 446.354 0.276854 5.30478 0
M  V30 4828 C 445.393 1.2888 5.98378 0
M  V30 4829 N 444.53 0.632031 6.99249 0
M  V30 4830 H 449.37 1.47071 2.59179 0
M  V30 4831 H 446.907 0.736192 1.27352 0
M  V30 4832 H 448.865 -0.461552 4.14639 0
M  V30 4833 H 447.495 -0.910233 3.09701 0
M  V30 4834 H 446.547 1.47484 3.50646 0
M  V30 4835 H 447.859 1.72977 4.67847 0
M  V30 4836 H 447.013 -0.175056 6.06447 0
M  V30 4837 H 445.752 -0.525004 4.84866 0
M  V30 4838 H 444.757 1.75109 5.21169 0
M  V30 4839 H 445.982 2.09196 6.46076 0
M  V30 4840 H 443.928 -0.149935 6.55829 0
M  V30 4841 H 443.845 1.33964 7.44036 0
M  V30 4842 H 445.113 0.203755 7.79234 0
M  V30 4843 N 449.342 -1.36122 0.79427 0
M  V30 4844 C 450.758 -1.5232 0.476525 0
M  V30 4845 C 450.958 -1.74685 -1.00436 0
M  V30 4846 O 450.014 -1.78115 -1.78973 0
M  V30 4847 C 451.327 -2.70607 1.31119 0
M  V30 4848 C 452.875 -2.8448 1.30537 0
M  V30 4849 C 453.35 -4.05778 2.12387 0
M  V30 4850 N 454.841 -4.12933 2.09859 0
M  V30 4851 C 455.576 -5.05876 2.69957 0
M  V30 4852 N 455.072 -6.04232 3.38934 0
M  V30 4853 N 456.865 -4.98528 2.59665 0
M  V30 4854 H 449.016 -1.1986 1.75349 0
M  V30 4855 H 451.279 -0.585418 0.745647 0
M  V30 4856 H 450.985 -2.60619 2.36158 0
M  V30 4857 H 450.859 -3.64888 0.955843 0
M  V30 4858 H 453.246 -2.93927 0.262876 0
M  V30 4859 H 453.327 -1.91093 1.70051 0
M  V30 4860 H 452.971 -3.97092 3.1667 0
M  V30 4861 H 452.901 -4.98323 1.70242 0
M  V30 4862 H 455.392 -3.42515 1.59662 0
M  V30 4863 H 455.705 -6.71724 3.82109 0
M  V30 4864 H 454.05 -6.04443 3.43036 0
M  V30 4865 H 457.241 -4.20641 2.05375 0
M  V30 4866 H 457.414 -5.70773 3.06793 0
M  V30 4867 N 450.82 -0.546701 -1.47814 0
M  V30 4868 C 452.069 -0.0166497 -2.01693 0
M  V30 4869 C 452.382 1.33721 -1.42752 0
M  V30 4870 O 453.588 1.95658 -1.8823 0
M  V30 4871 C 452.044 0.0206769 -3.59894 0
M  V30 4872 C 451.652 -1.3293 -4.27824 0
M  V30 4873 C 453.396 0.498674 -4.21561 0
M  V30 4874 C 451.303 -1.25165 -5.78003 0
M  V30 4875 H 450.233 -0.0024541 -0.753996 0
M  V30 4876 H 452.884 -0.692984 -1.69912 0
M  V30 4877 H 451.266 0.76244 -3.88591 0
M  V30 4878 H 452.44 -2.08795 -4.10781 0
M  V30 4879 H 450.755 -1.74438 -3.78101 0
M  V30 4880 H 453.352 0.575 -5.31599 0
M  V30 4881 H 453.695 1.5083 -3.88016 0
M  V30 4882 H 454.228 -0.18791 -3.97356 0
M  V30 4883 H 450.967 -2.23695 -6.1615 0
M  V30 4884 H 450.487 -0.53464 -5.97412 0
M  V30 4885 H 452.166 -0.949299 -6.39998 0
M  V30 4886 N 452.299 1.55045 -0.282633 0
M  V30 4887 C 453.209 2.26491 0.61147 0
M  V30 4888 C 454.225 1.29348 1.16384 0
M  V30 4889 O 455.401 1.62298 1.19253 0
M  V30 4890 C 452.466 2.97779 1.77563 0
M  V30 4891 C 451.527 4.10418 1.25919 0
M  V30 4892 C 450.76 4.78297 2.36786 0
M  V30 4893 O 450.983 4.45426 3.56303 0
M  V30 4894 O 449.917 5.66089 2.04517 0
M  V30 4895 H 453.743 3.03683 0.0324615 0
M  V30 4896 H 451.328 1.49317 -0.0497576 0
M  V30 4897 H 453.21 3.42554 2.45427 0
M  V30 4898 H 451.885 2.23498 2.34159 0
M  V30 4899 H 450.792 3.70082 0.546797 0
M  V30 4900 H 452.125 4.86622 0.738887 0
M  V30 4901 N 453.777 0.010035 1.57597 0
M  V30 4902 C 455.007 -0.682422 1.95004 0
M  V30 4903 C 455.415 -1.67278 0.884014 0
M  V30 4904 O 454.758 -1.83129 -0.144672 0
M  V30 4905 C 454.82 -1.46141 3.28456 0
M  V30 4906 C 454.484 -0.631523 4.52615 0
M  V30 4907 C 455.481 0.0850905 5.1983 0
M  V30 4908 C 453.166 -0.574539 4.99003 0
M  V30 4909 C 455.16 0.847566 6.3174 0
M  V30 4910 C 452.847 0.191655 6.10799 0
M  V30 4911 C 453.845 0.901432 6.77025 0
M  V30 4912 O 453.533 1.65511 7.86677 0
M  V30 4913 H 453.265 -0.194361 0.647456 0
M  V30 4914 H 455.819 0.060312 2.05311 0
M  V30 4915 H 454.049 -2.24885 3.14585 0
M  V30 4916 H 455.738 -2.04016 3.50902 0
M  V30 4917 H 456.504 0.0502812 4.84974 0
M  V30 4918 H 452.383 -1.11654 4.47274 0
M  V30 4919 H 455.927 1.4021 6.83364 0
M  V30 4920 H 451.824 0.228249 6.45096 0
M  V30 4921 H 452.592 1.57287 8.03245 0
M  V30 4922 N 455.255 -1.55392 -0.262866 0
M  V30 4923 C 456.666 -1.67079 -0.833158 0
M  V30 4924 C 457.017 -0.604539 -1.86654 0
M  V30 4925 O 456.142 0.252138 -2.14926 0
M  V30 4926 C 456.737 -3.02891 -1.51797 0
M  V30 4927 C 455.296 -3.16571 -2.03617 0
M  V30 4928 C 454.443 -2.62909 -0.881701 0
M  V30 4929 H 457.394 -1.58652 -0.0389986 0
M  V30 4930 H 457.415 -2.96445 -2.38538 0
M  V30 4931 H 456.927 -3.80473 -0.765619 0
M  V30 4932 H 455.028 -2.43782 -2.81782 0
M  V30 4933 H 455.141 -4.23271 -2.24452 0
M  V30 4934 H 453.505 -2.20324 -1.27786 0
M  V30 4935 H 454.288 -3.43003 -0.14269 0
M  V30 4936 N 456.733 0.527833 -1.48498 0
M  V30 4937 C 457.663 1.64136 -1.66077 0
M  V30 4938 C 458.644 1.62286 -0.509625 0
M  V30 4939 O 459.829 1.79449 -0.742413 0
M  V30 4940 C 456.959 3.02717 -1.70234 0
M  V30 4941 C 455.913 3.19426 -2.8487 0
M  V30 4942 C 455.239 4.5909 -2.74118 0
M  V30 4943 C 456.539 3.01993 -4.26142 0
M  V30 4944 H 458.233 1.4968 -2.593 0
M  V30 4945 H 455.779 0.718654 -1.24785 0
M  V30 4946 H 457.732 3.80491 -1.8112 0
M  V30 4947 H 456.456 3.18201 -0.735911 0
M  V30 4948 H 455.115 2.4407 -2.73542 0
M  V30 4949 H 454.763 4.71413 -1.7544 0
M  V30 4950 H 454.463 4.71214 -3.51042 0
M  V30 4951 H 455.987 5.3896 -2.86974 0
M  V30 4952 H 457.401 3.69558 -4.38292 0
M  V30 4953 H 455.798 3.2561 -5.04082 0
M  V30 4954 H 456.868 1.98396 -4.42456 0
M  V30 4955 N 458.211 1.37122 0.776871 0
M  V30 4956 C 459.158 1.3247 1.88998 0
M  V30 4957 C 460.128 0.191143 1.64997 0
M  V30 4958 O 461.313 0.379683 1.86984 0
M  V30 4959 C 458.453 1.13241 3.25992 0
M  V30 4960 C 457.566 2.35782 3.61982 0
M  V30 4961 C 456.701 2.09465 4.88158 0
M  V30 4962 C 455.74 3.279 5.16864 0
M  V30 4963 N 454.877 3.01167 6.34226 0
M  V30 4964 H 459.717 2.27642 1.9231 0
M  V30 4965 H 457.254 1.13125 0.94027 0
M  V30 4966 H 459.212 1.00115 4.0501 0
M  V30 4967 H 457.842 0.217186 3.22069 0
M  V30 4968 H 456.894 2.59666 2.77989 0
M  V30 4969 H 458.206 3.24125 3.79137 0
M  V30 4970 H 457.36 1.93341 5.75069 0
M  V30 4971 H 456.099 1.18452 4.73097 0
M  V30 4972 H 455.104 3.44569 4.2843 0
M  V30 4973 H 456.329 4.19757 5.33836 0
M  V30 4974 H 454.275 2.12779 6.20533 0
M  V30 4975 H 454.192 3.83052 6.51772 0
M  V30 4976 H 455.46 2.88649 7.24087 0
M  V30 4977 N 459.689 -1.00246 1.21608 0
M  V30 4978 C 460.652 -2.07233 0.979133 0
M  V30 4979 C 461.652 -1.6072 -0.0508219 0
M  V30 4980 O 462.842 -1.73196 0.186712 0
M  V30 4981 C 459.974 -3.37546 0.477016 0
M  V30 4982 H 461.167 -2.29687 1.92831 0
M  V30 4983 H 458.72 -1.17261 1.03342 0
M  V30 4984 H 459.455 -3.20773 -0.476966 0
M  V30 4985 H 459.24 -3.72638 1.21997 0
M  V30 4986 H 460.73 -4.16285 0.331181 0
M  V30 4987 N 461.167 -1.02423 -1.1978 0
M  V30 4988 C 462.117 -0.571689 -2.20716 0
M  V30 4989 C 463.101 0.377077 -1.56419 0
M  V30 4990 O 464.293 0.198801 -1.7588 0
M  V30 4991 C 461.422 0.0808555 -3.43205 0
M  V30 4992 C 460.508 -0.890073 -4.14655 0
M  V30 4993 N 460.899 -2.05065 -4.62366 0
M  V30 4994 C 459.197 -0.71252 -4.40272 0
M  V30 4995 C 459.898 -2.66264 -5.17183 0
M  V30 4996 N 458.874 -1.94264 -5.07703 0
M  V30 4997 H 462.676 -1.45636 -2.55279 0
M  V30 4998 H 460.19 -0.890596 -1.35802 0
M  V30 4999 H 462.187 0.422654 -4.14752 0
M  V30 5000 H 460.847 0.961274 -3.10144 0
M  V30 5001 H 461.858 -2.43026 -4.57339 0
M  V30 5002 H 458.535 0.119199 -4.1733 0
M  V30 5003 H 459.925 -3.64526 -5.64421 0
M  V30 5004 N 462.645 1.35699 -0.801477 0
M  V30 5005 C 463.577 2.28598 -0.166028 0
M  V30 5006 C 464.59 1.50044 0.631721 0
M  V30 5007 O 465.779 1.72339 0.464921 0
M  V30 5008 C 462.879 3.29625 0.787451 0
M  V30 5009 C 462.052 4.37384 0.037171 0
M  V30 5010 C 461.111 5.183 0.908375 0
M  V30 5011 O 460.137 5.68053 0.361189 0
M  V30 5012 N 461.339 5.35912 2.23112 0
M  V30 5013 H 464.104 2.83771 -0.964071 0
M  V30 5014 H 461.665 1.47994 -0.656469 0
M  V30 5015 H 463.657 3.80648 1.37439 0
M  V30 5016 H 462.227 2.75004 1.48632 0
M  V30 5017 H 461.447 3.87364 -0.730935 0
M  V30 5018 H 462.735 5.0653 -0.480109 0
M  V30 5019 H 462.133 4.97125 2.69968 0
M  V30 5020 H 460.69 5.90133 2.76741 0
M  V30 5021 N 464.123 0.554532 1.47522 0
M  V30 5022 C 465.07 -0.19466 2.29978 0
M  V30 5023 C 466.04 -0.910882 1.38896 0
M  V30 5024 O 467.225 -0.907102 1.67858 0
M  V30 5025 C 464.365 -1.22035 3.22802 0
M  V30 5026 C 463.478 -0.510474 4.28973 0
M  V30 5027 C 462.613 -1.52123 5.08952 0
M  V30 5028 C 461.652 -0.796173 6.069 0
M  V30 5029 N 460.789 -1.75363 6.79847 0
M  V30 5030 H 465.629 0.51461 2.93523 0
M  V30 5031 H 463.166 0.265607 1.44682 0
M  V30 5032 H 465.124 -1.8276 3.7504 0
M  V30 5033 H 463.754 -1.89769 2.61127 0
M  V30 5034 H 462.806 0.211234 3.79813 0
M  V30 5035 H 464.118 0.0576503 4.98767 0
M  V30 5036 H 463.272 -2.20207 5.65326 0
M  V30 5037 H 462.011 -2.12327 4.39054 0
M  V30 5038 H 461.016 -0.101388 5.49707 0
M  V30 5039 H 462.241 -0.199911 6.78806 0
M  V30 5040 H 460.187 -2.3443 6.12682 0
M  V30 5041 H 460.104 -1.23759 7.45801 0
M  V30 5042 H 461.372 -2.4257 7.40797 0
M  V30 5043 N 465.601 -1.54893 0.290851 0
M  V30 5044 C 466.847 -2.0023 -0.321867 0
M  V30 5045 C 467.18 -1.179 -1.54316 0
M  V30 5046 O 466.455 -0.25293 -1.92848 0
M  V30 5047 C 466.738 -3.53456 -0.688515 0
M  V30 5048 C 466.591 -4.46532 0.541209 0
M  V30 5049 C 467.91 -4.13057 -1.51895 0
M  V30 5050 H 465.029 -0.727891 -0.115515 0
M  V30 5051 H 467.671 -1.85722 0.400931 0
M  V30 5052 H 465.821 -3.6595 -1.30433 0
M  V30 5053 H 467.493 -4.4596 1.17973 0
M  V30 5054 H 465.736 -4.17545 1.17636 0
M  V30 5055 H 466.407 -5.51475 0.240675 0
M  V30 5056 H 468.883 -4.03937 -0.99872 0
M  V30 5057 H 467.759 -5.20448 -1.74429 0
M  V30 5058 H 468.02 -3.64284 -2.50498 0
M  V30 5059 N 467.08 -0.0183926 -1.57589 0
M  V30 5060 C 468.043 0.951986 -2.08494 0
M  V30 5061 C 469.043 1.26092 -0.997874 0
M  V30 5062 O 470.233 1.20304 -1.25987 0
M  V30 5063 C 467.365 2.27165 -2.54182 0
M  V30 5064 H 468.558 0.511307 -2.95509 0
M  V30 5065 H 466.111 0.229444 -1.54607 0
M  V30 5066 H 466.846 2.75884 -1.70465 0
M  V30 5067 H 466.631 2.06057 -3.33591 0
M  V30 5068 H 468.121 2.9674 -2.93828 0
M  V30 5069 N 468.558 1.5553 0.254621 0
M  V30 5070 C 469.807 1.76202 0.981612 0
M  V30 5071 C 470.12 0.580883 1.86776 0
M  V30 5072 O 471.326 0.670448 2.63092 0
M  V30 5073 C 469.782 3.11921 1.79537 0
M  V30 5074 C 469.39 4.37659 0.956991 0
M  V30 5075 C 471.134 3.41936 2.51555 0
M  V30 5076 C 469.041 5.64411 1.76619 0
M  V30 5077 H 467.971 0.656841 0.370237 0
M  V30 5078 H 470.622 1.81969 0.236556 0
M  V30 5079 H 469.004 3.00241 2.58208 0
M  V30 5080 H 470.178 4.60307 0.21315 0
M  V30 5081 H 468.493 4.14922 0.350497 0
M  V30 5082 H 471.09 4.33849 3.12536 0
M  V30 5083 H 471.433 2.62905 3.22779 0
M  V30 5084 H 471.966 3.54797 1.799 0
M  V30 5085 H 468.705 6.46241 1.09783 0
M  V30 5086 H 468.225 5.45877 2.48551 0
M  V30 5087 H 469.904 6.03386 2.33527 0
M  V30 5088 N 470.036 -0.519951 1.48776 0
M  V30 5089 C 470.969 -1.64053 1.58625 0
M  V30 5090 C 471.947 -1.5664 0.43618 0
M  V30 5091 O 473.131 -1.76969 0.649159 0
M  V30 5092 C 470.258 -3.02497 1.52359 0
M  V30 5093 C 469.304 -3.28235 2.72331 0
M  V30 5094 S 470.137 -3.13414 4.34203 0
M  V30 5095 C 471.293 -4.54287 4.30551 0
M  V30 5096 H 471.526 -1.5545 2.53422 0
M  V30 5097 H 469.059 -0.703681 1.37433 0
M  V30 5098 H 471.017 -3.82336 1.4943 0
M  V30 5099 H 469.678 -3.08531 0.588824 0
M  V30 5100 H 468.871 -4.29256 2.64113 0
M  V30 5101 H 468.473 -2.56085 2.72574 0
M  V30 5102 H 470.765 -5.46006 4.01103 0
M  V30 5103 H 471.708 -4.67558 5.31785 0
M  V30 5104 H 472.116 -4.34079 3.60881 0
M  V30 5105 N 471.514 -1.37532 -0.769588 0
M  V30 5106 C 472.93 -1.18379 -1.07045 0
M  V30 5107 C 473.13 -0.0214312 -2.01489 0
M  V30 5108 O 472.186 0.637809 -2.44312 0
M  V30 5109 C 473.499 -2.50338 -1.66588 0
M  V30 5110 C 475.047 -2.56879 -1.78835 0
M  V30 5111 C 475.522 -3.88974 -2.41792 0
M  V30 5112 N 477.013 -3.90428 -2.4924 0
M  V30 5113 C 477.748 -4.89388 -2.98809 0
M  V30 5114 N 477.244 -5.98745 -3.48535 0
M  V30 5115 N 479.037 -4.76791 -2.97703 0
M  V30 5116 H 471.188 -2.11921 -0.142541 0
M  V30 5117 H 473.451 -0.939608 -0.125863 0
M  V30 5118 H 473.157 -3.35767 -1.0466 0
M  V30 5119 H 473.031 -2.67583 -2.65856 0
M  V30 5120 H 475.418 -1.71856 -2.39895 0
M  V30 5121 H 475.499 -2.43516 -0.783166 0
M  V30 5122 H 475.143 -4.74412 -1.81371 0
M  V30 5123 H 475.073 -3.99641 -3.4292 0
M  V30 5124 H 477.564 -3.11433 -2.14052 0
M  V30 5125 H 477.877 -6.70205 -3.84767 0
M  V30 5126 H 476.222 -6.02387 -3.46634 0
M  V30 5127 H 479.413 -3.90478 -2.58157 0
M  V30 5128 H 479.586 -5.54069 -3.36024 0
M  V30 5129 N 472.992 0.995999 -1.22138 0
M  V30 5130 C 473.94 2.10673 -0.985876 0
M  V30 5131 C 474.934 1.69255 0.0699553 0
M  V30 5132 O 476.14 1.79812 -0.0822176 0
M  V30 5133 H 472.515 0.688865 -0.30161 0
M  V30 5134 H 474.486 2.27711 -1.92848 0
M  V30 5135 C 473.235 3.42881 -0.576909 0
M  V30 5136 H 472.558 3.75191 -1.38101 0
M  V30 5137 H 473.998 4.21589 -0.451518 0
M  V30 5138 C 472.457 3.29265 0.713196 0
M  V30 5139 O 472.987 3.60777 1.76643 0
M  V30 5140 N 471.193 2.82456 0.683162 0
M  V30 5141 H 470.74 2.5701 -0.174242 0
M  V30 5142 H 470.698 2.73727 1.54663 0
M  V30 5143 N 474.47 1.03057 1.19235 0
M  V30 5144 C 475.719 0.72326 1.88287 0
M  V30 5145 C 476.032 -0.751333 1.80594 0
M  V30 5146 O 477.238 -1.17176 2.44912 0
M  V30 5147 C 475.694 1.24338 3.3774 0
M  V30 5148 C 475.302 2.74587 3.53986 0
M  V30 5149 C 477.046 1.01213 4.12257 0
M  V30 5150 C 474.953 3.20009 4.97341 0
M  V30 5151 H 473.883 0.266848 0.705201 0
M  V30 5152 H 476.534 1.24509 1.34795 0
M  V30 5153 H 474.916 0.649457 3.90638 0
M  V30 5154 H 476.09 3.39649 3.11408 0
M  V30 5155 H 474.405 2.9601 2.9286 0
M  V30 5156 H 477.002 1.32675 5.17978 0
M  V30 5157 H 477.345 -0.051001 4.16269 0
M  V30 5158 H 477.878 1.57014 3.65501 0
M  V30 5159 H 474.617 4.25659 4.98493 0
M  V30 5160 H 474.137 2.59676 5.40674 0
M  V30 5161 H 475.816 3.13447 5.66003 0
M  V30 5162 N 475.948 -1.35272 0.808662 0
M  V30 5163 C 476.858 -2.33546 0.222079 0
M  V30 5164 C 477.874 -1.6196 -0.636011 0
M  V30 5165 O 479.05 -1.93822 -0.547274 0
M  V30 5166 C 476.115 -3.41148 -0.61795 0
M  V30 5167 C 475.176 -4.28507 0.260875 0
M  V30 5168 C 474.409 -5.3097 -0.539156 0
M  V30 5169 O 474.632 -5.42123 -1.77367 0
M  V30 5170 O 473.566 -6.01858 0.0710526 0
M  V30 5171 H 477.392 -2.85515 1.03512 0
M  V30 5172 H 474.977 -1.38079 0.570495 0
M  V30 5173 H 476.859 -4.06889 -1.09634 0
M  V30 5174 H 475.534 -2.91447 -1.40855 0
M  V30 5175 H 474.441 -3.6574 0.786451 0
M  V30 5176 H 475.774 -4.81611 1.01547 0
M  V30 5177 N 477.426 -0.562348 -1.47226 0
M  V30 5178 C 478.373 0.182461 -2.30078 0
M  V30 5179 C 479.343 0.903503 -1.39377 0
M  V30 5180 O 480.528 0.898188 -1.68337 0
M  V30 5181 C 477.668 1.20322 -3.23445 0
M  V30 5182 C 476.781 0.487717 -4.29238 0
M  V30 5183 C 475.916 1.49422 -5.09752 0
M  V30 5184 C 474.955 0.763976 -6.07314 0
M  V30 5185 N 474.092 1.71755 -6.80768 0
M  V30 5186 H 478.932 -0.530169 -2.93246 0
M  V30 5187 H 476.469 -0.273276 -1.44539 0
M  V30 5188 H 478.427 1.80768 -3.76004 0
M  V30 5189 H 477.057 1.88382 -2.6213 0
M  V30 5190 H 476.109 -0.231374 -3.79696 0
M  V30 5191 H 477.421 -0.0841003 -4.98729 0
M  V30 5192 H 476.575 2.17206 -5.66486 0
M  V30 5193 H 475.314 2.09995 -4.40174 0
M  V30 5194 H 474.319 0.0722344 -5.49753 0
M  V30 5195 H 475.544 0.16391 -6.78902 0
M  V30 5196 H 473.49 2.31177 -6.13916 0
M  V30 5197 H 473.407 1.19802 -7.46447 0
M  V30 5198 H 474.675 2.38638 -7.42073 0
M  V30 5199 N 478.904 1.54736 -0.299062 0
M  V30 5200 C 479.837 2.1962 0.619851 0
M  V30 5201 C 480.815 1.16496 1.13434 0
M  V30 5202 O 481.999 1.4513 1.2029 0
M  V30 5203 C 479.126 2.8385 1.84788 0
M  V30 5204 C 478.172 4.00484 1.46679 0
M  V30 5205 S 479.005 5.32926 0.524389 0
M  V30 5206 C 480.161 6.00638 1.76026 0
M  V30 5207 H 480.394 2.97221 0.0686177 0
M  V30 5208 H 477.927 1.54176 -0.0832085 0
M  V30 5209 H 479.885 3.21483 2.55263 0
M  V30 5210 H 478.546 2.06099 2.37028 0
M  V30 5211 H 477.739 4.44201 2.38121 0
M  V30 5212 H 477.341 3.64398 0.842008 0
M  V30 5213 H 479.633 6.21327 2.70109 0
M  V30 5214 H 480.576 6.94805 1.36569 0
M  V30 5215 H 480.984 5.3026 1.93609 0
M  V30 5216 N 480.382 0.0267497 1.57577 0
M  V30 5217 C 481.312 -0.954308 2.13108 0
M  V30 5218 C 482.293 -1.34088 1.04663 0
M  V30 5219 O 483.478 -1.41992 1.32484 0
M  V30 5220 C 480.608 -2.23744 2.65624 0
M  V30 5221 C 479.562 -1.99168 3.78835 0
M  V30 5222 C 478.888 -3.33726 4.17769 0
M  V30 5223 C 480.188 -1.33277 5.0501 0
M  V30 5224 H 481.882 -0.491848 2.95332 0
M  V30 5225 H 479.428 -0.23514 1.42067 0
M  V30 5226 H 481.381 -2.92754 3.03106 0
M  V30 5227 H 480.105 -2.72151 1.80558 0
M  V30 5228 H 478.764 -1.32577 3.41788 0
M  V30 5229 H 478.412 -3.79888 3.29688 0
M  V30 5230 H 478.112 -3.18089 4.94058 0
M  V30 5231 H 479.636 -4.04008 4.57832 0
M  V30 5232 H 481.05 -1.92283 5.40093 0
M  V30 5233 H 479.447 -1.28045 5.8628 0
M  V30 5234 H 480.517 -0.305411 4.83937 0
M  V30 5235 N 481.861 -1.55662 -0.24637 0
M  V30 5236 C 483.109 -1.77168 -0.972411 0
M  V30 5237 C 483.43 -0.590827 -1.85834 0
M  V30 5238 O 482.7 0.393365 -1.9191 0
M  V30 5239 H 481.28 -0.653405 -0.362038 0
M  V30 5240 H 483.942 -1.93101 -0.264189 0
M  V30 5241 H 483.038 -2.68335 -1.59382 0
M  V30 5242 N 483.339 0.512053 -1.4905 0
M  V30 5243 C 484.249 1.64139 -1.67617 0
M  V30 5244 C 485.265 1.64786 -0.558701 0
M  V30 5245 O 486.441 1.8341 -0.832034 0
M  V30 5246 C 483.506 3.00548 -1.72835 0
M  V30 5247 C 482.567 3.10615 -2.96339 0
M  V30 5248 C 481.8 4.40517 -3.01298 0
M  V30 5249 O 482.023 5.28671 -2.14157 0
M  V30 5250 O 480.957 4.55325 -3.93653 0
M  V30 5251 H 484.783 1.51407 -2.63267 0
M  V30 5252 H 482.368 0.687131 -1.32661 0
M  V30 5253 H 484.25 3.81641 -1.78683 0
M  V30 5254 H 482.925 3.13566 -0.803616 0
M  V30 5255 H 481.832 2.2875 -2.96014 0
M  V30 5256 H 483.165 3.0252 -3.88256 0
M  V30 5257 N 484.817 1.37938 0.762283 0
M  V30 5258 C 485.78 1.34279 1.85747 0
M  V30 5259 C 486.78 0.244969 1.58923 0
M  V30 5260 O 487.97 0.501365 1.66829 0
M  V30 5261 C 485.102 1.08833 3.23061 0
M  V30 5262 H 486.295 2.31705 1.90401 0
M  V30 5263 H 483.848 1.23105 0.963057 0
M  V30 5264 H 484.583 0.119767 3.24079 0
M  V30 5265 H 484.368 1.88306 3.43923 0
M  V30 5266 H 485.858 1.08946 4.03138 0
M  V30 5267 N 486.295 -0.989507 1.22664 0
M  V30 5268 C 487.225 -2.09847 1.02404 0
M  V30 5269 C 488.206 -1.70007 -0.0561303 0
M  V30 5270 O 489.391 -1.93906 0.106748 0
M  V30 5271 C 486.521 -3.41996 0.604663 0
M  V30 5272 C 485.475 -3.95699 1.63115 0
M  V30 5273 C 484.801 -5.23936 1.0675 0
M  V30 5274 C 486.101 -4.25999 3.02196 0
M  V30 5275 H 487.795 -2.27054 1.95158 0
M  V30 5276 H 485.341 -1.09111 0.939727 0
M  V30 5277 H 487.294 -4.1899 0.45002 0
M  V30 5278 H 486.018 -3.24626 -0.35855 0
M  V30 5279 H 484.677 -3.2084 1.77362 0
M  V30 5280 H 484.325 -5.02909 0.0955422 0
M  V30 5281 H 484.025 -5.60833 1.75328 0
M  V30 5282 H 485.549 -6.0356 0.924516 0
M  V30 5283 H 486.963 -4.93777 2.91303 0
M  V30 5284 H 485.36 -4.74076 3.67929 0
M  V30 5285 H 486.43 -3.33636 3.51873 0
M  V30 5286 N 487.773 -1.03688 -1.18687 0
M  V30 5287 C 489.021 -0.736572 -1.88199 0
M  V30 5288 C 489.342 0.737665 -1.80509 0
M  V30 5289 O 488.612 1.53204 -1.22088 0
M  V30 5290 H 487.192 -0.269466 -0.696704 0
M  V30 5291 H 489.854 -1.31282 -1.44052 0
M  V30 5292 H 488.95 -1.03802 -2.94332 0
M  V30 5293 N 489.251 1.34841 -0.815825 0
M  V30 5294 C 490.199 2.31549 -0.220888 0
M  V30 5295 C 491.193 1.5707 0.634457 0
M  V30 5296 O 492.399 1.72125 0.526589 0
M  V30 5297 H 488.774 0.750153 -0.0526782 0
M  V30 5298 H 490.745 2.7926 -1.05149 0
M  V30 5299 C 489.494 3.42335 0.608427 0
M  V30 5300 H 488.817 3.9978 -0.0404121 0
M  V30 5301 H 490.257 4.12258 0.990931 0
M  V30 5302 C 488.716 2.86173 1.77782 0
M  V30 5303 O 489.246 2.80474 2.87571 0
M  V30 5304 N 487.452 2.43093 1.59229 0
M  V30 5305 H 486.999 2.47928 0.699237 0
M  V30 5306 H 486.957 2.05866 2.37627 0
M  V30 5307 N 490.729 0.570148 1.46925 0
M  V30 5308 C 492.14 0.1402 1.86173 0
M  V30 5309 C 492.491 -1.29347 1.47526 0
M  V30 5310 O 491.616 -1.97508 0.884292 0
M  V30 5311 C 492.211 0.247661 3.37894 0
M  V30 5312 C 490.77 -0.127332 3.76185 0
M  V30 5313 C 489.917 0.589349 2.70965 0
M  V30 5314 H 492.868 0.779117 1.38259 0
M  V30 5315 H 492.889 -0.530341 3.76786 0
M  V30 5316 H 492.401 1.29121 3.65991 0
M  V30 5317 H 490.502 -1.17149 3.53704 0
M  V30 5318 H 490.615 0.240238 4.78497 0
M  V30 5319 H 488.979 0.0309824 2.54681 0
M  V30 5320 H 489.762 1.6343 3.01903 0
M  V30 5321 N 492.207 -1.54576 0.307264 0
M  V30 5322 C 493.139 -2.21212 -0.599807 0
M  V30 5323 C 494.152 -1.20685 -1.09266 0
M  V30 5324 O 495.341 -1.47244 -1.00903 0
M  V30 5325 C 492.441 -2.84994 -1.83389 0
M  V30 5326 C 491.614 -4.11511 -1.48248 0
M  V30 5327 C 490.673 -4.59038 -2.57237 0
M  V30 5328 O 489.699 -5.24095 -2.22065 0
M  V30 5329 N 490.901 -4.31884 -3.87887 0
M  V30 5330 H 493.666 -2.99686 -0.0293075 0
M  V30 5331 H 491.227 -1.61379 0.129738 0
M  V30 5332 H 493.219 -3.1372 -2.5566 0
M  V30 5333 H 491.789 -2.10324 -2.31263 0
M  V30 5334 H 491.009 -3.89728 -0.592122 0
M  V30 5335 H 492.297 -4.93879 -1.22316 0
M  V30 5336 H 491.695 -3.79778 -4.19268 0
M  V30 5337 H 490.252 -4.65304 -4.56438 0
M  V30 5338 N 493.685 -0.035106 -1.57561 0
M  V30 5339 C 494.595 0.960295 -2.14046 0
M  V30 5340 C 495.611 1.3529 -1.0942 0
M  V30 5341 O 496.787 1.43309 -1.41508 0
M  V30 5342 C 493.852 2.22214 -2.66124 0
M  V30 5343 C 492.913 1.8894 -3.85487 0
M  V30 5344 C 492.146 3.09109 -4.35072 0
M  V30 5345 O 492.369 4.21963 -3.83802 0
M  V30 5346 O 491.303 2.91058 -5.26848 0
M  V30 5347 H 495.129 0.509983 -2.99387 0
M  V30 5348 H 492.714 0.185853 -1.48239 0
M  V30 5349 H 494.596 2.96279 -2.99661 0
M  V30 5350 H 493.271 2.66414 -1.83862 0
M  V30 5351 H 492.178 1.12241 -3.56865 0
M  V30 5352 H 493.511 1.49551 -4.6893 0
M  V30 5353 N 495.163 1.55791 0.238111 0
M  V30 5354 C 496.409 1.78297 0.966337 0
M  V30 5355 C 496.742 0.601903 1.84637 0
M  V30 5356 O 496.017 -0.399499 1.90353 0
M  V30 5357 C 496.3 3.10758 1.81939 0
M  V30 5358 C 496.153 4.39283 0.966958 0
M  V30 5359 C 497.472 3.39519 2.80027 0
M  V30 5360 H 494.591 0.648654 0.349882 0
M  V30 5361 H 497.233 1.88525 0.236253 0
M  V30 5362 H 495.383 3.02168 2.44185 0
M  V30 5363 H 497.055 4.59873 0.362514 0
M  V30 5364 H 495.298 4.32948 0.271669 0
M  V30 5365 H 495.969 5.28368 1.59784 0
M  V30 5366 H 498.445 3.48128 2.27917 0
M  V30 5367 H 497.321 4.33402 3.36829 0
M  V30 5368 H 497.582 2.60864 3.56934 0
M  V30 5369 N 496.642 -0.504142 1.49319 0
M  V30 5370 C 497.89 -1.25598 1.58334 0
M  V30 5371 C 498.211 -1.93114 0.270538 0
M  V30 5372 O 497.481 -1.82585 -0.709891 0
M  V30 5373 H 496.061 -0.466571 0.58337 0
M  V30 5374 H 498.723 -0.584547 1.85928 0
M  V30 5375 H 497.819 -2.02159 2.37778 0
M  V30 5376 N 498.12 -1.38341 -0.754957 0
M  V30 5377 C 499.531 -1.30803 -1.3322 0
M  V30 5378 C 499.882 0.0368 -1.96165 0
M  V30 5379 O 499.007 0.938844 -1.94974 0
M  V30 5380 C 499.602 -2.3688 -2.42225 0
M  V30 5381 C 498.161 -2.32925 -2.95674 0
M  V30 5382 C 497.308 -2.19819 -1.69042 0
M  V30 5383 H 500.259 -1.48719 -0.553937 0
M  V30 5384 H 500.28 -2.02517 -3.22129 0
M  V30 5385 H 499.792 -3.34747 -1.96383 0
M  V30 5386 H 497.893 -1.38635 -3.45848 0
M  V30 5387 H 498.006 -3.27008 -3.50146 0
M  V30 5388 H 496.37 -1.66648 -1.92615 0
M  V30 5389 H 497.153 -3.19625 -1.25279 0
M  V30 5390 N 499.598 0.982988 -1.23187 0
M  V30 5391 C 500.528 2.09301 -1.03515 0
M  V30 5392 C 501.509 1.70035 0.0471136 0
M  V30 5393 O 502.694 1.93847 -0.117029 0
M  V30 5394 C 499.824 3.4167 -0.622791 0
M  V30 5395 C 498.778 3.94828 -1.65211 0
M  V30 5396 C 498.104 5.23362 -1.09527 0
M  V30 5397 C 499.404 4.2439 -3.04451 0
M  V30 5398 H 501.098 2.26016 -1.96359 0
M  V30 5399 H 498.644 1.08611 -0.945501 0
M  V30 5400 H 500.597 4.18746 -0.472233 0
M  V30 5401 H 499.321 3.24811 0.341329 0
M  V30 5402 H 497.98 3.19895 -1.79061 0
M  V30 5403 H 497.628 5.02852 -0.122211 0
M  V30 5404 H 497.328 5.59895 -1.783 0
M  V30 5405 H 498.852 6.03062 -0.956511 0
M  V30 5406 H 500.266 4.92225 -2.93917 0
M  V30 5407 H 498.663 4.72118 -3.70438 0
M  V30 5408 H 499.733 3.31765 -3.53638 0
M  V30 5409 N 501.076 1.04316 1.18135 0
M  V30 5410 C 502.006 0.657299 2.24058 0
M  V30 5411 C 502.987 -0.340678 1.66654 0
M  V30 5412 O 504.172 -0.220223 1.92947 0
M  V30 5413 C 501.302 0.0220715 3.47293 0
M  V30 5414 C 500.256 0.943857 4.17463 0
M  V30 5415 C 499.582 0.172973 5.3442 0
M  V30 5416 C 500.882 2.26409 4.70677 0
M  V30 5417 H 502.576 1.5428 2.56589 0
M  V30 5418 H 500.122 0.743263 1.23335 0
M  V30 5419 H 502.075 -0.259607 4.206 0
M  V30 5420 H 500.799 -0.898323 3.14003 0
M  V30 5421 H 499.458 1.20996 3.46057 0
M  V30 5422 H 499.106 -0.749907 4.97379 0
M  V30 5423 H 498.806 0.787098 5.82304 0
M  V30 5424 H 500.33 -0.101628 6.10515 0
M  V30 5425 H 501.744 2.04294 5.35665 0
M  V30 5426 H 500.141 2.8314 5.29105 0
M  V30 5427 H 501.211 2.90883 3.87962 0
M  V30 5428 N 502.554 -1.34406 0.822964 0
M  V30 5429 C 503.502 -2.31428 0.233165 0
M  V30 5430 C 504.496 -1.57404 -0.626118 0
M  V30 5431 O 505.702 -1.72402 -0.517453 0
M  V30 5432 H 502.077 -0.749863 0.0566557 0
M  V30 5433 H 504.048 -2.78699 1.06628 0
M  V30 5434 C 502.797 -3.42653 -0.590264 0
M  V30 5435 H 502.12 -3.99753 0.0616129 0
M  V30 5436 H 503.56 -4.12778 -0.969054 0
M  V30 5437 C 502.019 -2.87112 -1.76262 0
M  V30 5438 O 502.549 -2.81995 -2.8608 0
M  V30 5439 N 500.755 -2.43934 -1.57938 0
M  V30 5440 H 500.302 -2.48296 -0.686078 0
M  V30 5441 H 500.26 -2.07123 -2.36532 0
M  V30 5442 N 504.032 -0.577932 -1.46621 0
M  V30 5443 C 505.26 -0.0671642 -2.06791 0
M  V30 5444 C 505.675 1.23571 -1.42743 0
M  V30 5445 O 505.032 1.74602 -0.531062 0
M  V30 5446 C 505.083 0.110357 -3.61332 0
M  V30 5447 O 504.804 -1.14095 -4.22982 0
M  V30 5448 C 506.305 0.656025 -4.38419 0
M  V30 5449 H 503.525 -0.0552732 -0.66872 0
M  V30 5450 H 506.069 -0.797242 -1.8832 0
M  V30 5451 H 504.224 0.790637 -3.79246 0
M  V30 5452 H 504.638 -0.951742 -5.15793 0
M  V30 5453 H 506.112 0.729438 -5.47159 0
M  V30 5454 H 506.589 1.67195 -4.06131 0
M  V30 5455 H 507.195 0.0107692 -4.25299 0
M  V30 5456 N 505.51 1.54411 -0.315457 0
M  V30 5457 C 506.443 2.20265 0.596522 0
M  V30 5458 C 507.421 1.17693 1.12192 0
M  V30 5459 O 508.605 1.46397 1.18744 0
M  V30 5460 C 505.732 2.85794 1.81767 0
M  V30 5461 C 504.778 4.02017 1.42424 0
M  V30 5462 S 505.611 5.33452 0.467836 0
M  V30 5463 C 506.767 6.02471 1.69645 0
M  V30 5464 H 507 2.97277 0.0370896 0
M  V30 5465 H 504.533 1.54079 -0.0995562 0
M  V30 5466 H 506.491 3.24172 2.51839 0
M  V30 5467 H 505.152 2.08601 2.34828 0
M  V30 5468 H 504.345 4.46701 2.33396 0
M  V30 5469 H 503.947 3.65271 0.803311 0
M  V30 5470 H 506.239 6.24157 2.63504 0
M  V30 5471 H 507.182 6.96215 1.29192 0
M  V30 5472 H 507.59 5.32284 1.87974 0
M  V30 5473 N 506.988 0.0434614 1.5754 0
M  V30 5474 C 508.237 -0.631454 1.91561 0
M  V30 5475 C 508.55 -1.72457 0.92292 0
M  V30 5476 O 509.756 -2.45712 1.15489 0
M  V30 5477 C 508.212 -1.17447 3.40197 0
M  V30 5478 C 507.82 -0.113867 4.47855 0
M  V30 5479 C 509.564 -1.82507 3.83264 0
M  V30 5480 C 507.471 -0.669326 5.876 0
M  V30 5481 H 506.401 -0.239629 0.714908 0
M  V30 5482 H 509.052 0.111097 1.83163 0
M  V30 5483 H 507.434 -1.96909 3.43574 0
M  V30 5484 H 508.608 0.659348 4.56058 0
M  V30 5485 H 506.923 0.438821 4.14081 0
M  V30 5486 H 509.52 -2.25047 4.85034 0
M  V30 5487 H 509.863 -2.67365 3.19095 0
M  V30 5488 H 510.396 -1.09712 3.82372 0
M  V30 5489 H 507.135 0.141449 6.55347 0
M  V30 5490 H 506.655 -1.4107 5.82974 0
M  V30 5491 H 508.334 -1.15463 6.36614 0
M  V30 5492 N 508.466 -1.55915 -0.229846 0
M  V30 5493 C 509.413 -1.91734 -1.28478 0
M  V30 5494 C 510.383 -0.773539 -1.46988 0
M  V30 5495 O 511.568 -1.02871 -1.60693 0
M  V30 5496 C 508.708 -2.23224 -2.63182 0
M  V30 5497 C 507.821 -3.50497 -2.52539 0
M  V30 5498 C 506.956 -3.71474 -3.79711 0
M  V30 5499 C 505.995 -4.92289 -3.63755 0
M  V30 5500 N 505.132 -5.09698 -4.82858 0
M  V30 5501 H 509.972 -2.81692 -0.972308 0
M  V30 5502 H 507.509 -1.39429 -0.468815 0
M  V30 5503 H 509.467 -2.3949 -3.41614 0
M  V30 5504 H 508.097 -1.36451 -2.92542 0
M  V30 5505 H 507.149 -3.4247 -1.65585 0
M  V30 5506 H 508.461 -4.39079 -2.36666 0
M  V30 5507 H 507.615 -3.87791 -4.66586 0
M  V30 5508 H 506.354 -2.81157 -3.985 0
M  V30 5509 H 505.359 -4.7593 -2.75264 0
M  V30 5510 H 506.584 -5.84083 -3.46445 0
M  V30 5511 H 504.53 -4.22322 -5.01976 0
M  V30 5512 H 504.447 -5.92399 -4.69681 0
M  V30 5513 H 505.715 -5.30443 -5.71183 0
M  V30 5514 N 509.944 0.496216 -1.49584 0
M  V30 5515 C 511.192 1.24756 -1.58998 0
M  V30 5516 C 511.513 1.92968 -0.280775 0
M  V30 5517 O 510.783 1.82959 0.700198 0
M  V30 5518 H 509.363 0.463471 -0.585836 0
M  V30 5519 H 512.025 0.574678 -1.86235 0
M  V30 5520 H 511.121 2.00895 -2.38847 0
M  V30 5521 N 511.423 1.38739 0.74761 0
M  V30 5522 C 512.839 1.20067 1.05148 0
M  V30 5523 C 513.039 0.0534835 2.01429 0
M  V30 5524 O 512.095 -0.59886 2.45296 0
M  V30 5525 C 513.408 2.52957 1.62584 0
M  V30 5526 C 514.956 2.59692 1.74726 0
M  V30 5527 C 515.431 3.92772 2.35573 0
M  V30 5528 N 516.922 3.94343 2.42997 0
M  V30 5529 C 517.657 4.9408 2.90985 0
M  V30 5530 N 517.153 6.04214 3.38965 0
M  V30 5531 N 518.946 4.81466 2.9008 0
M  V30 5532 H 511.097 2.12121 0.108808 0
M  V30 5533 H 513.36 0.941491 0.110899 0
M  V30 5534 H 513.066 3.37389 0.993051 0
M  V30 5535 H 512.94 2.71779 2.61565 0
M  V30 5536 H 515.327 1.75651 2.3713 0
M  V30 5537 H 515.408 2.44731 0.744326 0
M  V30 5538 H 515.052 4.77238 1.738 0
M  V30 5539 H 514.982 4.05046 3.36519 0
M  V30 5540 H 517.473 3.14799 2.0907 0
M  V30 5541 H 517.786 6.76241 3.74056 0
M  V30 5542 H 516.131 6.07825 3.37007 0
M  V30 5543 H 519.322 3.94535 2.51912 0
M  V30 5544 H 519.495 5.59344 3.27166 0
M  V30 5545 N 512.901 -0.976442 1.23707 0
M  V30 5546 C 514.131 -1.75087 1.09673 0
M  V30 5547 C 514.539 -1.85852 -0.354344 0
M  V30 5548 O 513.882 -1.33985 -1.25673 0
M  V30 5549 C 513.944 -3.19272 1.65245 0
M  V30 5550 C 513.608 -3.32004 3.14042 0
M  V30 5551 C 514.605 -3.18017 4.11292 0
M  V30 5552 C 512.29 -3.56525 3.53829 0
M  V30 5553 C 514.284 -3.28363 5.46312 0
M  V30 5554 C 511.971 -3.6651 4.88993 0
M  V30 5555 C 512.969 -3.52439 5.85043 0
M  V30 5556 O 512.657 -3.62063 7.1775 0
M  V30 5557 H 512.389 -0.556164 0.384262 0
M  V30 5558 H 514.943 -1.23518 1.64111 0
M  V30 5559 H 513.173 -3.72107 1.05231 0
M  V30 5560 H 514.862 -3.7849 1.46629 0
M  V30 5561 H 515.628 -2.98966 3.81896 0
M  V30 5562 H 511.507 -3.66547 2.79579 0
M  V30 5563 H 515.051 -3.17297 6.21263 0
M  V30 5564 H 510.948 -3.85072 5.18063 0
M  V30 5565 H 511.716 -3.78833 7.25553 0
M  V30 5566 N 514.379 -1.04941 -1.1758 0
M  V30 5567 C 515.327 -0.64204 -2.23563 0
M  V30 5568 C 516.321 0.335453 -1.66045 0
M  V30 5569 O 517.527 0.20179 -1.78865 0
M  V30 5570 H 513.902 -0.18944 -0.727748 0
M  V30 5571 H 515.873 -1.54609 -2.55223 0
M  V30 5572 C 514.622 -0.0301051 -3.47687 0
M  V30 5573 H 513.945 -0.773339 -3.92249 0
M  V30 5574 H 515.385 0.217592 -4.23441 0
M  V30 5575 C 513.844 1.2225 -3.13937 0
M  V30 5576 O 514.374 2.3122 -3.28482 0
M  V30 5577 N 512.58 1.11917 -2.68185 0
M  V30 5578 H 512.127 0.232403 -2.5655 0
M  V30 5579 H 512.085 1.95814 -2.45976 0
M  V30 5580 O 515.896 1.29495 -0.96506 0
M  V30 5581 H 516.587 1.84082 -0.602793 0
M  V30 END ATOM
M  V30 BEGIN BOND
M  V30 END BOND
M  V30 END CTAB
M  END
$$$$
