drugbank_target|Q9NXE4 Sphingomyelin phosphodiesterase 4 (DB00144)
 OpenBabel12092120083D

  0  0  0     0  0            999 V3000
M  V30 BEGIN CTAB
M  V30 COUNTS 13167 13364 0 0 0
M  V30 BEGIN ATOM
M  V30 1 H -0.908 1.98254 -0.117106 0
M  V30 2 N 0 1.576 0 0
M  V30 3 C 0.933 2.03868 1.02534 0
M  V30 4 C 1.911 0.928543 1.3348 0
M  V30 5 O 3.095 1.19667 1.45644 0
M  V30 6 C 0.222 2.43627 2.35294 0
M  V30 7 C -0.732 3.65373 2.2001 0
M  V30 8 S 0.101 5.13292 1.52614 0
M  V30 9 C 1.257 5.56322 2.86805 0
M  V30 10 H 1.49 2.90518 0.631377 0
M  V30 11 H -0.977 1.52953 0.210867 0
M  V30 12 H 0.981 2.67203 3.11629 0
M  V30 13 H -0.358 1.57376 2.7183 0
M  V30 14 H -1.165 3.90944 3.18086 0
M  V30 15 H -1.563 3.418 1.51819 0
M  V30 16 H 0.729 5.58782 3.83104 0
M  V30 17 H 1.672 6.56266 2.65933 0
M  V30 18 H 2.08 4.83886 2.90714 0
M  V30 19 N 1.4781 -0.272755 1.55222 0
M  V30 20 C 2.4411 -1.32041 1.87344 0
M  V30 21 C 3.4411 -1.42342 0.74803 0
M  V30 22 O 4.6311 -1.41488 1.0162 0
M  V30 23 C 1.7631 -2.70173 2.07893 0
M  V30 24 H 2.9561 -1.04789 2.80997 0
M  V30 25 H 0.5091 -0.51083 1.47717 0
M  V30 26 H 1.2441 -3.02605 1.16622 0
M  V30 27 H 1.0291 -2.64082 2.89833 0
M  V30 28 H 2.5191 -3.45869 2.34017 0
M  V30 29 N 2.9562 -1.48159 -0.537278 0
M  V30 30 C 4.2032 -1.55804 -1.29349 0
M  V30 31 C 4.5312 -0.228802 -1.9315 0
M  V30 32 O 3.7862 0.780242 -1.79473 0
M  V30 33 C 4.0852 -2.63956 -2.40961 0
M  V30 34 C 3.7512 -4.0662 -1.94861 0
M  V30 35 C 2.4132 -4.45452 -1.82006 0
M  V30 36 C 4.7652 -4.96055 -1.59933 0
M  V30 37 C 2.0932 -5.71531 -1.32547 0
M  V30 38 C 4.4452 -6.22617 -1.11939 0
M  V30 39 C 3.1092 -6.60312 -0.976951 0
M  V30 40 H 2.3792 -0.570129 -0.473322 0
M  V30 41 H 5.0262 -1.81845 -0.600372 0
M  V30 42 H 3.3312 -2.31747 -3.15912 0
M  V30 43 H 5.0282 -2.67089 -2.99107 0
M  V30 44 H 1.6182 -3.75949 -2.05815 0
M  V30 45 H 5.8022 -4.66738 -1.68728 0
M  V30 46 H 1.0582 -5.99468 -1.202 0
M  V30 47 H 5.2322 -6.91318 -0.839811 0
M  V30 48 H 2.8592 -7.57895 -0.591501 0
M  V30 49 N 4.4343 0.785586 -1.36625 0
M  V30 50 C 5.8453 1.36101 -1.27803 0
M  V30 51 C 6.1963 1.96035 0.0804875 0
M  V30 52 O 5.3213 1.92834 0.982042 0
M  V30 53 C 5.9163 2.47442 -2.31426 0
M  V30 54 C 4.4753 3.00789 -2.26281 0
M  V30 55 C 3.6223 1.73896 -2.15999 0
M  V30 56 H 6.5733 0.586928 -1.47448 0
M  V30 57 H 6.5943 3.2656 -1.95291 0
M  V30 58 H 6.1063 2.03791 -3.30289 0
M  V30 59 H 4.2073 3.48851 -1.30896 0
M  V30 60 H 4.3203 3.57343 -3.19128 0
M  V30 61 H 2.6843 1.9628 -1.62316 0
M  V30 62 H 3.4673 1.32368 -3.16755 0
M  V30 63 N 5.9124 1.20967 1.01018 0
M  V30 64 C 6.8624 0.93182 2.08089 0
M  V30 65 C 7.8464 -0.110898 1.60517 0
M  V30 66 O 9.0384 0.0973392 1.76732 0
M  V30 67 C 6.1674 0.492719 3.39746 0
M  V30 68 C 5.2534 1.56922 3.94 0
M  V30 69 N 5.6444 2.79312 4.21686 0
M  V30 70 C 3.9424 1.43688 4.2222 0
M  V30 71 C 4.6434 3.48797 4.65527 0
M  V30 72 N 3.6194 2.76224 4.68189 0
M  V30 73 H 7.4214 1.86175 2.27412 0
M  V30 74 H 4.9354 1.10463 1.19045 0
M  V30 75 H 6.9324 0.275044 4.15992 0
M  V30 76 H 5.5924 -0.430509 3.21833 0
M  V30 77 H 6.6034 3.15903 4.10397 0
M  V30 78 H 3.2804 0.578548 4.13472 0
M  V30 79 H 4.6704 4.53561 4.95714 0
M  V30 80 N 7.3905 -1.2043 1.01659 0
M  V30 81 C 8.3205 -2.25466 0.607226 0
M  V30 82 C 9.3015 -1.65853 -0.377716 0
M  V30 83 O 10.4865 -1.92409 -0.263149 0
M  V30 84 C 7.6165 -3.47256 -0.0552949 0
M  V30 85 C 6.5705 -4.19462 0.850632 0
M  V30 86 C 5.8965 -5.34673 0.0538859 0
M  V30 87 C 7.1965 -4.75603 2.15868 0
M  V30 88 H 8.8905 -2.59962 1.48526 0
M  V30 89 H 6.4365 -1.2496 0.715605 0
M  V30 90 H 8.3895 -4.19917 -0.353233 0
M  V30 91 H 7.1135 -3.11924 -0.968045 0
M  V30 92 H 5.7725 -3.48667 1.13257 0
M  V30 93 H 5.4205 -4.95585 -0.860514 0
M  V30 94 H 5.1205 -5.83913 0.657192 0
M  V30 95 H 6.6445 -6.10138 -0.237598 0
M  V30 96 H 8.0585 -5.40083 1.92311 0
M  V30 97 H 6.4555 -5.3528 2.71284 0
M  V30 98 H 7.5255 -3.94346 2.82169 0
M  V30 99 N 8.8686 -0.792821 -1.36206 0
M  V30 100 C 9.8006 -0.151469 -2.28699 0
M  V30 101 C 10.8136 0.641262 -1.49638 0
M  V30 102 O 12.0026 0.475885 -1.72039 0
M  V30 103 C 9.1026 0.808424 -3.29117 0
M  V30 104 C 8.2756 0.0650202 -4.37352 0
M  V30 105 C 7.3346 0.941358 -5.17711 0
M  V30 106 O 6.3606 0.397352 -5.67811 0
M  V30 107 N 7.5626 2.2652 -5.3448 0
M  V30 108 H 10.3276 -0.945982 -2.84379 0
M  V30 109 H 7.8886 -0.647032 -1.48409 0
M  V30 110 H 9.8806 1.3986 -3.79765 0
M  V30 111 H 8.4506 1.5038 -2.74052 0
M  V30 112 H 7.6706 -0.706255 -3.87822 0
M  V30 113 H 8.9586 -0.447847 -5.06825 0
M  V30 114 H 8.3566 2.73128 -4.95396 0
M  V30 115 H 6.9136 2.80493 -5.88359 0
M  V30 116 N 10.3467 1.47872 -0.545128 0
M  V30 117 C 11.2787 2.27869 0.246621 0
M  V30 118 C 12.2917 1.36282 0.890561 0
M  V30 119 O 13.4807 1.61207 0.766449 0
M  V30 120 C 10.5807 3.10159 1.36582 0
M  V30 121 C 9.7537 4.29627 0.820954 0
M  V30 122 C 8.8127 4.93607 1.82314 0
M  V30 123 O 7.8387 5.52366 1.37406 0
M  V30 124 N 9.0407 4.87211 3.15603 0
M  V30 125 H 11.8057 2.96459 -0.439539 0
M  V30 126 H 9.3667 1.57367 -0.380421 0
M  V30 127 H 11.3587 3.49829 2.03474 0
M  V30 128 H 9.9287 2.43891 1.9554 0
M  V30 129 H 9.1487 3.94192 -0.0244032 0
M  V30 130 H 10.4367 5.06928 0.436063 0
M  V30 131 H 9.8347 4.40651 3.54744 0
M  V30 132 H 8.3917 5.30937 3.78087 0
M  V30 133 N 11.8248 0.280983 1.55075 0
M  V30 134 C 13.2358 -0.215629 1.85451 0
M  V30 135 C 13.5868 -1.54991 1.203 0
M  V30 136 O 12.7118 -2.10699 0.493435 0
M  V30 137 C 13.3068 -0.398026 3.36454 0
M  V30 138 C 11.8658 -0.838866 3.66933 0
M  V30 139 C 11.0128 0.064458 2.77225 0
M  V30 140 H 13.9638 0.502601 1.50531 0
M  V30 141 H 13.9848 -1.23569 3.59876 0
M  V30 142 H 13.4968 0.573241 3.83843 0
M  V30 143 H 11.5978 -1.8214 3.25048 0
M  V30 144 H 11.7108 -0.672123 4.74362 0
M  V30 145 H 10.0748 -0.452863 2.50642 0
M  V30 146 H 10.8578 1.03172 3.2743 0
M  V30 147 N 13.3029 -1.57598 0.00835791 0
M  V30 148 C 14.5279 -1.95617 -0.689103 0
M  V30 149 C 14.9529 -0.883753 -1.66046 0
M  V30 150 O 14.3109 0.157352 -1.80616 0
M  V30 151 C 14.3589 -3.32736 -1.38994 0
M  V30 152 O 13.4629 -3.27631 -2.50463 0
M  V30 153 H 12.8039 -0.638379 -0.182668 0
M  V30 154 H 15.3339 -2.045 0.064036 0
M  V30 155 H 15.3439 -3.68494 -1.75147 0
M  V30 156 H 14.0189 -4.1034 -0.677778 0
M  V30 157 H 12.5959 -3.03561 -2.16576 0
M  V30 158 N 14.781 0.264519 -1.55364 0
M  V30 159 C 16.028 0.994986 -1.7637 0
M  V30 160 C 16.356 1.85976 -0.5695 0
M  V30 161 O 15.611 1.90509 0.44776 0
M  V30 162 C 15.91 1.9004 -3.02687 0
M  V30 163 C 15.576 1.19243 -4.34847 0
M  V30 164 C 14.238 0.996709 -4.70764 0
M  V30 165 C 16.59 0.689296 -5.16622 0
M  V30 166 C 13.918 0.285261 -5.86006 0
M  V30 167 C 16.27 -0.00860079 -6.32599 0
M  V30 168 C 14.934 -0.215963 -6.67151 0
M  V30 169 H 14.204 0.364091 -0.645383 0
M  V30 170 H 16.851 0.266543 -1.89636 0
M  V30 171 H 15.156 2.69533 -2.84357 0
M  V30 172 H 16.853 2.46695 -3.16137 0
M  V30 173 H 13.443 1.3549 -4.06621 0
M  V30 174 H 17.627 0.828108 -4.89342 0
M  V30 175 H 12.883 0.113961 -6.11294 0
M  V30 176 H 17.057 -0.406186 -6.95214 0
M  V30 177 H 14.684 -0.769217 -7.56298 0
M  V30 178 N 16.2591 1.48442 0.529413 0
M  V30 179 C 17.1891 1.65902 1.64313 0
M  V30 180 C 18.1701 0.507897 1.6234 0
M  V30 181 O 19.3551 0.740503 1.79528 0
M  V30 182 C 16.4851 1.69911 3.02898 0
M  V30 183 C 15.4391 2.8453 3.19729 0
M  V30 184 C 14.7651 2.73629 4.59381 0
M  V30 185 C 16.0651 4.25821 3.02447 0
M  V30 186 H 17.7591 2.5914 1.49955 0
M  V30 187 H 15.3051 1.24709 0.719982 0
M  V30 188 H 17.2581 1.80715 3.80684 0
M  V30 189 H 15.9821 0.732524 3.18279 0
M  V30 190 H 14.6411 2.73283 2.44361 0
M  V30 191 H 14.2891 1.74938 4.71599 0
M  V30 192 H 13.9891 3.50541 4.71588 0
M  V30 193 H 15.5131 2.86401 5.39265 0
M  V30 194 H 16.9271 4.37898 3.70024 0
M  V30 195 H 15.3241 5.03735 3.26146 0
M  V30 196 H 16.3941 4.42244 1.98867 0
M  V30 197 N 17.7372 -0.778329 1.37039 0
M  V30 198 C 18.6672 -1.90546 1.34962 0
M  V30 199 C 19.6482 -1.68681 0.219274 0
M  V30 200 O 20.8332 -1.89634 0.418624 0
M  V30 201 C 17.9632 -3.27734 1.14925 0
M  V30 202 C 16.9172 -3.64147 2.24902 0
M  V30 203 C 16.2432 -4.99806 1.89996 0
M  V30 204 C 17.5432 -3.71579 3.67051 0
M  V30 205 H 19.2372 -1.92541 2.29277 0
M  V30 206 H 16.7832 -0.924948 1.10366 0
M  V30 207 H 18.7362 -4.06215 1.12104 0
M  V30 208 H 17.4602 -3.26154 0.170631 0
M  V30 209 H 16.1192 -2.8797 2.26868 0
M  V30 210 H 15.7672 -4.94759 0.906796 0
M  V30 211 H 15.4672 -5.25139 2.63634 0
M  V30 212 H 16.9912 -5.80694 1.88749 0
M  V30 213 H 18.4052 -4.40227 3.67251 0
M  V30 214 H 16.8022 -4.08405 4.39688 0
M  V30 215 H 17.8722 -2.72404 4.01154 0
M  V30 216 N 19.2153 -1.21501 -1.00376 0
M  V30 217 C 20.1783 -0.976927 -2.07337 0
M  V30 218 C 21.1783 0.0525322 -1.60714 0
M  V30 219 O 22.3683 -0.184869 -1.73216 0
M  V30 220 C 19.5003 -0.473423 -3.37597 0
M  V30 221 H 20.6933 -1.92587 -2.29892 0
M  V30 222 H 18.2463 -1.03217 -1.17371 0
M  V30 223 H 18.9813 0.480379 -3.20722 0
M  V30 224 H 18.7663 -1.216 -3.72768 0
M  V30 225 H 20.2563 -0.32675 -4.1632 0
M  V30 226 N 20.6934 1.19889 -1.02296 0
M  V30 227 C 21.9184 1.9393 -0.735237 0
M  V30 228 C 22.3434 1.74639 0.698782 0
M  V30 229 O 21.7014 1.04481 1.48167 0
M  V30 230 C 21.7494 3.43916 -1.08417 0
M  V30 231 O 20.8534 4.11917 -0.199446 0
M  V30 232 H 20.1944 0.605645 -0.272196 0
M  V30 233 H 22.7244 1.52137 -1.36804 0
M  V30 234 H 22.7344 3.9456 -1.03856 0
M  V30 235 H 21.4094 3.5728 -2.12894 0
M  V30 236 H 19.9864 3.71666 -0.303136 0
M  V30 237 N 22.1715 0.800033 1.35784 0
M  V30 238 C 23.1015 0.220184 2.3246 0
M  V30 239 C 24.0825 -0.65073 1.57161 0
M  V30 240 O 25.2675 -0.582359 1.85263 0
M  V30 241 C 22.3975 -0.637353 3.41402 0
M  V30 242 C 21.3515 0.134531 4.27789 0
M  V30 243 C 20.6775 -0.844285 5.27992 0
M  V30 244 C 21.9775 1.32979 5.05088 0
M  V30 245 H 23.6715 1.02787 2.81203 0
M  V30 246 H 21.2175 0.495717 1.35199 0
M  V30 247 H 23.1705 -1.05302 4.08031 0
M  V30 248 H 21.8945 -1.47785 2.91251 0
M  V30 249 H 20.5535 0.531296 3.6273 0
M  V30 250 H 20.2015 -1.68011 4.74111 0
M  V30 251 H 19.9015 -0.332184 5.8666 0
M  V30 252 H 21.4255 -1.2583 5.97494 0
M  V30 253 H 22.8395 0.98934 5.64699 0
M  V30 254 H 21.2365 1.77593 5.7322 0
M  V30 255 H 22.3065 2.11978 4.36111 0
M  V30 256 N 23.6496 -1.47581 0.552962 0
M  V30 257 C 24.5966 -2.29957 -0.197108 0
M  V30 258 C 25.5666 -1.38799 -0.912359 0
M  V30 259 O 26.7516 -1.67761 -0.908888 0
M  V30 260 C 23.8916 -3.22672 -1.22379 0
M  V30 261 C 23.0046 -4.28919 -0.515038 0
M  V30 262 C 22.1396 -5.0879 -1.52664 0
M  V30 263 C 21.1786 -6.06815 -0.802631 0
M  V30 264 N 20.3156 -6.7966 -1.76086 0
M  V30 265 H 25.1556 -2.93578 0.511486 0
M  V30 266 H 22.6926 -1.4471 0.264067 0
M  V30 267 H 24.6506 -3.74845 -1.83159 0
M  V30 268 H 23.2806 -2.60925 -1.90047 0
M  V30 269 H 22.3326 -3.79835 0.207192 0
M  V30 270 H 23.6446 -4.98773 0.0523425 0
M  V30 271 H 22.7986 -5.65091 -2.20809 0
M  V30 272 H 21.5376 -4.38828 -2.12794 0
M  V30 273 H 20.5426 -5.49695 -0.107238 0
M  V30 274 H 21.7676 -6.78784 -0.207135 0
M  V30 275 H 19.7136 -6.12432 -2.35081 0
M  V30 276 H 19.6306 -7.45669 -1.24552 0
M  V30 277 H 20.8986 -7.40538 -2.43359 0
M  V30 278 N 25.1277 -0.289203 -1.54924 0
M  V30 279 C 26.0907 0.579144 -2.21762 0
M  V30 280 C 27.0907 1.07047 -1.1999 0
M  V30 281 O 28.2807 0.968384 -1.44803 0
M  V30 282 C 25.4127 1.80055 -2.8947 0
M  V30 283 H 26.6057 -0.00464908 -2.999 0
M  V30 284 H 24.1587 -0.0399306 -1.56249 0
M  V30 285 H 24.8937 2.42449 -2.15381 0
M  V30 286 H 24.6787 1.45602 -3.64064 0
M  V30 287 H 26.1687 2.41773 -3.40493 0
M  V30 288 N 26.6058 1.57591 -0.0167156 0
M  V30 289 C 27.8828 1.82547 0.702564 0
M  V30 290 C 28.2628 0.898018 1.91047 0
M  V30 291 O 27.6108 -0.0493456 2.28447 0
M  V30 292 C 27.8208 3.31459 1.09251 0
M  V30 293 C 29.1688 3.97622 1.48937 0
M  V30 294 O 30.1928 3.35881 1.18584 0
M  V30 295 O 29.0518 5.06415 2.05442 0
M  V30 296 H 26.1458 0.752268 0.343544 0
M  V30 297 H 28.6918 1.69644 -0.0434495 0
M  V30 298 H 27.4638 3.9061 0.23227 0
M  V30 299 H 27.0868 3.49422 1.89709 0
M  V30 300 N 28.0839 -0.256276 1.55502 0
M  V30 301 C 29.3089 -1.00766 1.81276 0
M  V30 302 C 29.7339 -1.78524 0.59252 0
M  V30 303 O 29.0919 -1.75413 -0.45827 0
M  V30 304 C 29.1399 -1.92869 3.04687 0
M  V30 305 O 28.2439 -3.019 2.80945 0
M  V30 306 H 27.5849 -0.287224 0.598664 0
M  V30 307 H 30.1149 -0.280109 2.02674 0
M  V30 308 H 30.1249 -2.34511 3.33869 0
M  V30 309 H 28.7999 -1.35689 3.93143 0
M  V30 310 H 27.3769 -2.64454 2.62904 0
M  V30 311 N 29.562 -1.4872 -0.521534 0
M  V30 312 C 30.811 -1.56419 -1.27341 0
M  V30 313 C 31.124 -0.246805 -1.94037 0
M  V30 314 O 32.33 -0.202122 -2.70747 0
M  V30 315 C 30.786 -2.75896 -2.31105 0
M  V30 316 C 30.394 -4.14311 -1.70441 0
M  V30 317 C 32.138 -2.92913 -3.07249 0
M  V30 318 C 30.045 -5.25038 -2.72194 0
M  V30 319 H 28.975 -0.582344 -0.478949 0
M  V30 320 H 31.626 -1.75071 -0.549779 0
M  V30 321 H 30.008 -2.50697 -3.06541 0
M  V30 322 H 31.182 -4.49564 -1.01136 0
M  V30 323 H 29.497 -4.02482 -1.06759 0
M  V30 324 H 32.094 -3.72805 -3.83302 0
M  V30 325 H 32.437 -2.02689 -3.63625 0
M  V30 326 H 32.97 -3.18054 -2.38928 0
M  V30 327 H 29.709 -6.17255 -2.20627 0
M  V30 328 H 29.229 -4.94263 -3.39801 0
M  V30 329 H 30.908 -5.53508 -3.35019 0
M  V30 330 N 31.0401 0.771051 -1.3745 0
M  V30 331 C 31.9881 1.90574 -1.33358 0
M  V30 332 C 32.9821 1.67936 -0.22224 0
M  V30 333 O 34.1881 1.75717 -0.390304 0
M  V30 334 H 30.5631 0.626714 -0.415612 0
M  V30 335 H 32.5341 1.91142 -2.29144 0
M  V30 336 C 31.2831 3.27845 -1.15813 0
M  V30 337 H 30.6061 3.45842 -2.00583 0
M  V30 338 H 32.0461 4.07538 -1.17 0
M  V30 339 C 30.5051 3.36625 0.136165 0
M  V30 340 O 31.0351 3.85785 1.11949 0
M  V30 341 N 29.2411 2.89997 0.187099 0
M  V30 342 H 28.7881 2.50182 -0.613753 0
M  V30 343 H 28.7461 2.96252 1.05272 0
M  V30 344 N 32.5182 1.22032 0.997298 0
M  V30 345 C 33.4652 0.986467 2.08656 0
M  V30 346 C 34.4352 -0.0902671 1.65855 0
M  V30 347 O 35.6202 0.0584294 1.90711 0
M  V30 348 C 32.7602 0.565569 3.40434 0
M  V30 349 C 31.8732 1.71259 3.96604 0
M  V30 350 C 31.0082 1.24011 5.16522 0
M  V30 351 C 30.0472 2.35896 5.64818 0
M  V30 352 N 29.1842 1.89726 6.7598 0
M  V30 353 H 34.0242 1.91892 2.27994 0
M  V30 354 H 31.5612 0.956199 1.11782 0
M  V30 355 H 33.5192 0.302738 4.161 0
M  V30 356 H 32.1492 -0.329879 3.2111 0
M  V30 357 H 31.2012 2.08986 3.17851 0
M  V30 358 H 32.5132 2.55436 4.28432 0
M  V30 359 H 31.6672 0.934395 5.99461 0
M  V30 360 H 30.4062 0.368487 4.86306 0
M  V30 361 H 29.4112 2.67261 4.8047 0
M  V30 362 H 30.6362 3.23567 5.97061 0
M  V30 363 H 28.5822 1.0492 6.47555 0
M  V30 364 H 28.4992 2.67471 7.07103 0
M  V30 365 H 29.7672 1.62211 7.62435 0
M  V30 366 N 33.9963 -1.19345 1.0293 0
M  V30 367 C 35.4073 -1.70725 0.755633 0
M  V30 368 C 35.7583 -1.82326 -0.724676 0
M  V30 369 O 34.8833 -1.49471 -1.56484 0
M  V30 370 C 35.4783 -3.10084 1.36503 0
M  V30 371 C 34.0373 -3.58723 1.13994 0
M  V30 372 C 33.1843 -2.35577 1.46283 0
M  V30 373 H 36.1353 -1.0418 1.19718 0
M  V30 374 H 36.1563 -3.72787 0.762217 0
M  V30 375 H 35.6683 -3.01609 2.44241 0
M  V30 376 H 33.7693 -3.72512 0.0807901 0
M  V30 377 H 33.8823 -4.42816 1.82894 0
M  V30 378 H 32.2463 -2.38935 0.88217 0
M  V30 379 H 33.0293 -2.29731 2.55105 0
M  V30 380 N 35.4744 -0.807222 -1.35358 0
M  V30 381 C 36.7214 -0.387888 -1.9875 0
M  V30 382 C 37.0494 1.04509 -1.64037 0
M  V30 383 O 36.3044 1.73986 -0.895946 0
M  V30 384 C 36.6034 -0.519036 -3.53611 0
M  V30 385 C 36.2694 -1.91542 -4.08194 0
M  V30 386 C 34.9314 -2.29745 -4.22813 0
M  V30 387 C 37.2834 -2.82896 -4.37744 0
M  V30 388 C 34.6114 -3.58668 -4.643 0
M  V30 389 C 36.9634 -4.11265 -4.8067 0
M  V30 390 C 35.6274 -4.49466 -4.93494 0
M  V30 391 H 34.8974 -0.141938 -0.727279 0
M  V30 392 H 37.5444 -1.02814 -1.6156 0
M  V30 393 H 35.8494 0.204658 -3.91265 0
M  V30 394 H 37.5464 -0.175345 -4.00616 0
M  V30 395 H 34.1364 -1.60862 -3.97268 0
M  V30 396 H 38.3204 -2.54629 -4.26002 0
M  V30 397 H 33.5764 -3.88113 -4.72418 0
M  V30 398 H 37.7504 -4.82153 -5.02496 0
M  V30 399 H 35.3774 -5.49418 -5.25399 0
M  V30 400 N 36.9525 1.47285 -0.560781 0
M  V30 401 C 37.9155 2.28535 0.174488 0
M  V30 402 C 38.9155 1.37153 0.839388 0
M  V30 403 O 40.1055 1.59748 0.694702 0
M  V30 404 C 37.2375 3.16934 1.25561 0
M  V30 405 H 38.4305 2.95012 -0.539262 0
M  V30 406 H 35.9835 1.53034 -0.317865 0
M  V30 407 H 36.7185 2.55157 2.00164 0
M  V30 408 H 36.5035 3.8419 0.783604 0
M  V30 409 H 37.9935 3.78143 1.77193 0
M  V30 410 N 38.4306 0.297415 1.54768 0
M  V30 411 C 39.3626 -0.613881 2.20826 0
M  V30 412 C 40.3756 -1.10032 1.19987 0
M  V30 413 O 41.5646 -1.01839 1.46598 0
M  V30 414 C 38.6646 -1.852 2.83821 0
M  V30 415 C 37.8376 -1.50865 4.10559 0
M  V30 416 C 36.8966 -2.60154 4.57391 0
M  V30 417 O 35.9226 -2.25398 5.2267 0
M  V30 418 N 37.1246 -3.90629 4.29406 0
M  V30 419 H 39.8896 -0.048389 2.99661 0
M  V30 420 H 37.4506 0.11946 1.61459 0
M  V30 421 H 39.4426 -2.57652 3.12086 0
M  V30 422 H 38.0126 -2.32597 2.08847 0
M  V30 423 H 37.2326 -0.616925 3.89343 0
M  V30 424 H 38.5206 -1.25458 4.9309 0
M  V30 425 H 37.9186 -4.21677 3.77101 0
M  V30 426 H 36.4756 -4.59391 4.62388 0
M  V30 427 N 39.9087 -1.5758 0.0250728 0
M  V30 428 C 40.8407 -2.06869 -0.986796 0
M  V30 429 C 41.8537 -0.991332 -1.29137 0
M  V30 430 O 43.0427 -1.26761 -1.25674 0
M  V30 431 C 40.1427 -2.47486 -2.31525 0
M  V30 432 C 39.3157 -3.78253 -2.19643 0
M  V30 433 C 38.3747 -4.05464 -3.35388 0
M  V30 434 O 37.4007 -4.75774 -3.12454 0
M  V30 435 N 38.6027 -3.55321 -4.59051 0
M  V30 436 H 41.3677 -2.94302 -0.566276 0
M  V30 437 H 38.9287 -1.6109 -0.161776 0
M  V30 438 H 40.9207 -2.62785 -3.07776 0
M  V30 439 H 39.4907 -1.65441 -2.65232 0
M  V30 440 H 38.7107 -3.7279 -1.28144 0
M  V30 441 H 39.9987 -4.63936 -2.08903 0
M  V30 442 H 39.3967 -2.98431 -4.80578 0
M  V30 443 H 37.9537 -3.75905 -5.32483 0
M  V30 444 N 41.3868 0.248026 -1.55636 0
M  V30 445 C 42.6268 0.983592 -1.79178 0
M  V30 446 C 42.9908 1.82567 -0.594414 0
M  V30 447 O 44.1918 2.59292 -0.708583 0
M  V30 448 C 42.4628 1.82228 -3.07454 0
M  V30 449 S 44.0218 2.61709 -3.52213 0
M  V30 450 H 40.8398 0.330866 -0.629324 0
M  V30 451 H 43.4418 0.251562 -1.93875 0
M  V30 452 H 42.1458 1.19333 -3.92668 0
M  V30 453 H 41.6768 2.59708 -2.95492 0
M  V30 454 H 43.6918 3.84655 -3.13457 0
M  V30 455 N 42.8649 1.48995 0.513639 0
M  V30 456 C 43.7969 1.60836 1.63293 0
M  V30 457 C 44.8099 0.491701 1.55197 0
M  V30 458 O 45.9989 0.763238 1.6136 0
M  V30 459 C 43.0989 1.53731 3.02027 0
M  V30 460 C 42.2719 2.80715 3.35437 0
M  V30 461 C 41.3309 2.66837 4.53525 0
M  V30 462 O 40.3569 3.40753 4.55934 0
M  V30 463 N 41.5589 1.77539 5.52684 0
M  V30 464 H 44.3239 2.57366 1.53566 0
M  V30 465 H 41.8849 1.45925 0.701259 0
M  V30 466 H 43.8769 1.42118 3.78926 0
M  V30 467 H 42.4469 0.651092 3.05744 0
M  V30 468 H 41.6669 3.06772 2.47557 0
M  V30 469 H 42.9549 3.64927 3.54551 0
M  V30 470 H 42.3529 1.16719 5.53528 0
M  V30 471 H 40.9099 1.71856 6.28736 0
M  V30 472 N 44.343 -0.763751 1.37857 0
M  V30 473 C 45.62 -1.51244 1.24035 0
M  V30 474 C 46 -2.10472 -0.162649 0
M  V30 475 O 45.348 -1.96206 -1.17112 0
M  V30 476 C 45.558 -2.58694 2.34261 0
M  V30 477 C 46.906 -3.25878 2.72193 0
M  V30 478 O 47.93 -2.68993 2.33497 0
M  V30 479 O 46.789 -4.2874 3.38887 0
M  V30 480 H 43.883 -0.670243 0.484462 0
M  V30 481 H 46.429 -0.800031 1.49658 0
M  V30 482 H 45.201 -2.13105 3.2818 0
M  V30 483 H 44.824 -3.37527 2.10146 0
M  V30 484 N 45.8211 -1.22559 -0.990812 0
M  V30 485 C 46.7511 -1.0218 -2.09956 0
M  V30 486 C 47.7321 0.0579394 -1.70001 0
M  V30 487 O 48.9171 -0.104684 -1.93918 0
M  V30 488 C 46.0471 -0.601023 -3.4206 0
M  V30 489 C 45.0011 -1.62694 -3.95872 0
M  V30 490 C 44.3271 -1.06193 -5.24049 0
M  V30 491 C 45.6271 -3.01743 -4.2632 0
M  V30 492 H 47.3211 -1.94916 -2.27262 0
M  V30 493 H 44.8671 -0.938566 -1.09211 0
M  V30 494 H 46.8201 -0.445561 -4.19038 0
M  V30 495 H 45.5441 0.362005 -3.24588 0
M  V30 496 H 44.2031 -1.77021 -3.21028 0
M  V30 497 H 43.8511 -0.0901903 -5.02919 0
M  V30 498 H 43.5511 -1.74732 -5.61019 0
M  V30 499 H 45.0751 -0.918092 -6.03658 0
M  V30 500 H 46.4891 -2.90777 -4.94087 0
M  V30 501 H 44.8861 -3.67425 -4.74467 0
M  V30 502 H 45.9561 -3.51518 -3.34011 0
M  V30 503 N 47.2992 1.18797 -1.03562 0
M  V30 504 C 48.5452 1.8893 -0.737113 0
M  V30 505 C 48.8782 1.79837 0.732956 0
M  V30 506 O 48.1532 1.19525 1.5344 0
M  V30 507 C 48.4362 3.39607 -1.19745 0
M  V30 508 C 48.2892 3.57537 -2.72924 0
M  V30 509 C 49.6082 4.33069 -0.783526 0
M  V30 510 H 46.7272 0.686057 -0.269249 0
M  V30 511 H 49.3692 1.39797 -1.28673 0
M  V30 512 H 47.5192 3.81583 -0.729855 0
M  V30 513 H 49.1912 3.24688 -3.27682 0
M  V30 514 H 47.4342 3.00363 -3.12993 0
M  V30 515 H 48.1052 4.63238 -3.00191 0
M  V30 516 H 50.5812 3.98846 -1.18581 0
M  V30 517 H 49.4572 5.3707 -1.13343 0
M  V30 518 H 49.7182 4.40986 0.313681 0
M  V30 519 N 48.7773 0.814389 1.34928 0
M  V30 520 C 49.7243 0.22822 2.29669 0
M  V30 521 C 50.6943 -0.642164 1.53184 0
M  V30 522 O 51.8793 -0.585605 1.81591 0
M  V30 523 C 49.0193 -0.61089 3.3965 0
M  V30 524 C 48.1323 0.280792 4.31086 0
M  V30 525 C 47.2673 -0.567067 5.28165 0
M  V30 526 C 46.3063 0.324531 6.11239 0
M  V30 527 N 45.4433 -0.483756 7.00431 0
M  V30 528 H 50.2833 1.04153 2.79206 0
M  V30 529 H 47.8203 0.525133 1.37407 0
M  V30 530 H 49.7783 -1.11263 4.0209 0
M  V30 531 H 48.4083 -1.38939 2.91369 0
M  V30 532 H 47.4603 0.900688 3.69583 0
M  V30 533 H 48.7723 0.966723 4.89342 0
M  V30 534 H 47.9263 -1.13363 5.96015 0
M  V30 535 H 46.6653 -1.28654 4.70425 0
M  V30 536 H 45.6703 0.903298 5.42329 0
M  V30 537 H 46.8953 1.04198 6.71059 0
M  V30 538 H 44.8413 -1.18706 6.45171 0
M  V30 539 H 44.7583 0.143965 7.55863 0
M  V30 540 H 46.0263 -1.03334 7.7262 0
M  V30 541 N 50.2554 -1.46986 0.568584 0
M  V30 542 C 51.5014 -2.02741 0.0488709 0
M  V30 543 C 51.8344 -1.44077 -1.30214 0
M  V30 544 O 51.1094 -0.600552 -1.84996 0
M  V30 545 C 51.3924 -3.60086 -0.032047 0
M  V30 546 C 51.2454 -4.29162 1.34686 0
M  V30 547 C 52.5644 -4.33838 -0.739798 0
M  V30 548 H 49.6834 -0.736749 0.0192338 0
M  V30 549 H 52.3254 -1.75289 0.733065 0
M  V30 550 H 50.4754 -3.83606 -0.61473 0
M  V30 551 H 52.1474 -4.16948 1.97362 0
M  V30 552 H 50.3904 -3.89073 1.91846 0
M  V30 553 H 51.0614 -5.37826 1.24285 0
M  V30 554 H 53.5374 -4.15378 -0.244939 0
M  V30 555 H 52.4134 -5.43537 -0.765406 0
M  V30 556 H 52.6744 -4.03875 -1.79827 0
M  V30 557 N 51.7335 -0.305618 -1.54608 0
M  V30 558 C 52.9825 0.303098 -1.9941 0
M  V30 559 C 53.2955 1.54648 -1.19764 0
M  V30 560 O 54.5015 2.23007 -1.54855 0
M  V30 561 C 52.9575 0.590588 -3.55021 0
M  V30 562 C 52.5655 -0.634719 -4.43481 0
M  V30 563 C 54.3095 1.16025 -4.08336 0
M  V30 564 C 52.2165 -0.320126 -5.90533 0
M  V30 565 H 51.1465 0.117031 -0.744862 0
M  V30 566 H 53.7975 -0.415045 -1.78745 0
M  V30 567 H 52.1795 1.36845 -3.71604 0
M  V30 568 H 53.3535 -1.41079 -4.38672 0
M  V30 569 H 51.6685 -1.12333 -4.00962 0
M  V30 570 H 54.2655 1.40994 -5.15776 0
M  V30 571 H 54.6085 2.10397 -3.5922 0
M  V30 572 H 55.1415 0.443985 -3.95315 0
M  V30 573 H 51.8805 -1.23254 -6.43808 0
M  V30 574 H 51.4005 0.418579 -5.98338 0
M  V30 575 H 53.0795 0.0766241 -6.46955 0
M  V30 576 N 53.2116 1.57565 -0.0334293 0
M  V30 577 C 54.1216 2.13943 0.962572 0
M  V30 578 C 55.1376 1.09276 1.35406 0
M  V30 579 O 56.3136 1.41355 1.4346 0
M  V30 580 C 53.3786 2.65887 2.22497 0
M  V30 581 C 52.4396 3.85286 1.8935 0
M  V30 582 C 51.6726 4.34743 3.09571 0
M  V30 583 O 51.8956 3.83352 4.22371 0
M  V30 584 O 50.8296 5.26538 2.91618 0
M  V30 585 H 54.6556 2.99333 0.513169 0
M  V30 586 H 52.2406 1.4822 0.18743 0
M  V30 587 H 54.1226 2.99346 2.96598 0
M  V30 588 H 52.7976 1.83578 2.6661 0
M  V30 589 H 51.7046 3.56746 1.1262 0
M  V30 590 H 53.0376 4.68771 1.5005 0
M  V30 591 N 54.6897 -0.239769 1.55765 0
M  V30 592 C 55.9667 -0.990056 1.68693 0
M  V30 593 C 56.3467 -2.03107 0.5754 0
M  V30 594 O 55.6947 -2.24604 -0.42017 0
M  V30 595 C 55.9047 -1.61696 3.09282 0
M  V30 596 C 57.2527 -2.11613 3.6811 0
M  V30 597 O 58.2767 -1.71624 3.12127 0
M  V30 598 O 57.1357 -2.85057 4.66267 0
M  V30 599 H 54.2297 -0.461299 0.686391 0
M  V30 600 H 56.7757 -0.232991 1.68093 0
M  V30 601 H 55.5477 -0.864357 3.81634 0
M  V30 602 H 55.1707 -2.44005 3.13923 0
M  V30 603 N 56.1678 -1.49265 -0.50573 0
M  V30 604 C 57.4148 -1.58513 -1.26015 0
M  V30 605 C 57.7428 -0.26972 -1.92621 0
M  V30 606 O 56.9978 0.741997 -1.81088 0
M  V30 607 C 57.2968 -2.69008 -2.35308 0
M  V30 608 C 56.9628 -4.10662 -1.86192 0
M  V30 609 C 55.6248 -4.49212 -1.72516 0
M  V30 610 C 57.9768 -4.99336 -1.49375 0
M  V30 611 C 55.3048 -5.74214 -1.20394 0
M  V30 612 C 57.6568 -6.24852 -0.987072 0
M  V30 613 C 56.3208 -6.62236 -0.836669 0
M  V30 614 H 55.5908 -0.580041 -0.461122 0
M  V30 615 H 58.2378 -1.83078 -0.561665 0
M  V30 616 H 56.5428 -2.38396 -3.10926 0
M  V30 617 H 58.2398 -2.73373 -2.93374 0
M  V30 618 H 54.8298 -3.8023 -1.97795 0
M  V30 619 H 59.0138 -4.70212 -1.5879 0
M  V30 620 H 54.2698 -6.01883 -1.07458 0
M  V30 621 H 58.4438 -6.92944 -0.692983 0
M  V30 622 H 56.0708 -7.58979 -0.430607 0
M  V30 623 N 57.6459 0.756429 -1.3826 0
M  V30 624 C 59.0569 1.33359 -1.30661 0
M  V30 625 C 59.4079 1.96161 0.0388875 0
M  V30 626 O 58.5329 1.94874 0.940918 0
M  V30 627 C 59.1279 2.42477 -2.36622 0
M  V30 628 C 57.6869 2.95922 -2.3261 0
M  V30 629 C 56.8339 1.69275 -2.19639 0
M  V30 630 H 59.7849 0.55552 -1.4866 0
M  V30 631 H 59.8059 3.22345 -2.02174 0
M  V30 632 H 59.3179 1.96739 -3.34538 0
M  V30 633 H 57.4189 3.45996 -1.38267 0
M  V30 634 H 57.5319 3.50494 -3.26636 0
M  V30 635 H 55.8959 1.92793 -1.66442 0
M  V30 636 H 56.6789 1.25619 -3.19491 0
M  V30 637 N 59.124 1.23083 0.984299 0
M  V30 638 C 60.087 1.00979 2.05757 0
M  V30 639 C 61.087 -0.0269573 1.60777 0
M  V30 640 O 62.277 0.212403 1.729 0
M  V30 641 C 59.409 0.527072 3.36801 0
M  V30 642 H 60.602 1.9622 2.26799 0
M  V30 643 H 58.155 1.05072 1.15714 0
M  V30 644 H 58.89 -0.429294 3.21446 0
M  V30 645 H 58.675 1.27515 3.70786 0
M  V30 646 H 60.165 0.392942 4.15747 0
M  V30 647 N 60.6021 -1.18246 1.0419 0
M  V30 648 C 61.5491 -2.2192 0.634037 0
M  V30 649 C 62.5191 -1.62179 -0.358765 0
M  V30 650 O 63.7041 -1.89122 -0.252466 0
M  V30 651 C 60.8441 -3.451 0.00445535 0
M  V30 652 C 59.9571 -4.19174 1.04487 0
M  V30 653 C 59.0921 -5.29813 0.383676 0
M  V30 654 C 58.1311 -5.9566 1.4091 0
M  V30 655 N 57.2681 -6.97834 0.772784 0
M  V30 656 H 62.1081 -2.56164 1.52263 0
M  V30 657 H 59.6451 -1.25843 0.761701 0
M  V30 658 H 61.6031 -4.15485 -0.377919 0
M  V30 659 H 60.2331 -3.11472 -0.847652 0
M  V30 660 H 59.2851 -3.47604 1.54518 0
M  V30 661 H 60.5971 -4.64267 1.82368 0
M  V30 662 H 59.7511 -6.06677 -0.0528366 0
M  V30 663 H 58.4901 -4.85825 -0.427208 0
M  V30 664 H 57.4951 -5.17535 1.85574 0
M  V30 665 H 58.7201 -6.4173 2.22171 0
M  V30 666 H 56.6661 -6.55998 -0.0177708 0
M  V30 667 H 56.5831 -7.41186 1.48928 0
M  V30 668 H 57.8511 -7.78665 0.36071 0
M  V30 669 N 62.0802 -0.821533 -1.34494 0
M  V30 670 C 62.9902 -0.244355 -2.33324 0
M  V30 671 C 64.0062 0.620527 -1.62559 0
M  V30 672 O 65.1822 0.528754 -1.94335 0
M  V30 673 C 62.2472 0.585368 -3.41723 0
M  V30 674 C 61.3082 -0.301752 -4.28238 0
M  V30 675 C 60.5412 0.488466 -5.3146 0
M  V30 676 O 60.7642 1.72186 -5.4379 0
M  V30 677 O 59.6982 -0.12848 -6.01763 0
M  V30 678 H 63.5242 -1.06231 -2.84515 0
M  V30 679 H 61.1092 -0.583645 -1.37528 0
M  V30 680 H 62.9912 1.05747 -4.07916 0
M  V30 681 H 61.6662 1.38068 -2.92778 0
M  V30 682 H 60.5732 -0.821315 -3.64973 0
M  V30 683 H 61.9062 -1.06138 -4.8062 0
M  V30 684 N 63.5583 1.46682 -0.576371 0
M  V30 685 C 64.4883 2.33028 0.148397 0
M  V30 686 C 65.4693 1.44961 0.889956 0
M  V30 687 O 66.6543 1.73789 0.866662 0
M  V30 688 C 63.7843 3.27117 1.1667 0
M  V30 689 C 62.7383 4.24575 0.540386 0
M  V30 690 C 62.0643 5.08126 1.6647 0
M  V30 691 C 63.3643 5.19722 -0.518331 0
M  V30 692 H 65.0583 2.93875 -0.572509 0
M  V30 693 H 62.6043 1.41315 -0.276768 0
M  V30 694 H 64.5573 3.86374 1.68204 0
M  V30 695 H 63.2813 2.64364 1.9178 0
M  V30 696 H 61.9403 3.66571 0.0461769 0
M  V30 697 H 61.5883 4.41762 2.40531 0
M  V30 698 H 61.2883 5.74122 1.25131 0
M  V30 699 H 62.8123 5.70246 2.18293 0
M  V30 700 H 64.2263 5.73232 -0.0883058 0
M  V30 701 H 62.6233 5.94026 -0.851679 0
M  V30 702 H 63.6933 4.64037 -1.40703 0
M  V30 703 N 65.0364 0.313813 1.54444 0
M  V30 704 C 65.9864 -0.571898 2.20711 0
M  V30 705 C 66.9704 -1.08913 1.18435 0
M  V30 706 O 68.1624 -1.02777 1.44104 0
M  V30 707 C 65.2914 -1.7371 2.96108 0
M  V30 708 C 64.3774 -1.23522 4.05713 0
M  V30 709 N 64.7684 -0.452288 5.03774 0
M  V30 710 C 63.0664 -1.51482 4.19487 0
M  V30 711 C 63.7674 -0.183438 5.81411 0
M  V30 712 N 62.7434 -0.766845 5.38164 0
M  V30 713 H 66.5454 0.0336802 2.93881 0
M  V30 714 H 64.0594 0.119192 1.61962 0
M  V30 715 H 66.0564 -2.38329 3.4206 0
M  V30 716 H 64.7164 -2.34625 2.24458 0
M  V30 717 H 65.7274 -0.0960131 5.17811 0
M  V30 718 H 62.4044 -2.13053 3.59047 0
M  V30 719 H 63.7944 0.446216 6.70417 0
M  V30 720 N 66.5145 -1.57545 0.0417849 0
M  V30 721 C 67.7425 -1.96624 -0.643928 0
M  V30 722 C 68.1575 -0.918897 -1.64929 0
M  V30 723 O 67.5145 0.0979323 -1.82237 0
M  V30 724 C 67.5655 -3.35781 -1.33914 0
M  V30 725 O 67.2865 -4.365 -0.374048 0
M  V30 726 C 68.7875 -3.89566 -2.1155 0
M  V30 727 H 66.0075 -0.647316 -0.176702 0
M  V30 728 H 68.5515 -2.04229 0.105304 0
M  V30 729 H 66.7065 -3.29357 -2.03968 0
M  V30 730 H 67.1205 -5.17248 -0.869179 0
M  V30 731 H 68.5945 -4.89242 -2.55628 0
M  V30 732 H 69.0715 -3.24488 -2.9598 0
M  V30 733 H 69.6775 -3.99298 -1.46427 0
M  V30 734 N 67.9926 0.231505 -1.5589 0
M  V30 735 C 69.2416 0.955346 -1.7764 0
M  V30 736 C 69.5546 1.85893 -0.608546 0
M  V30 737 O 70.7606 2.62067 -0.70943 0
M  V30 738 C 69.2166 1.74886 -3.14552 0
M  V30 739 C 68.8246 0.891915 -4.39032 0
M  V30 740 C 70.5686 2.46452 -3.45633 0
M  V30 741 C 68.4756 1.68221 -5.66971 0
M  V30 742 H 67.4056 0.360446 -0.662265 0
M  V30 743 H 70.0566 0.209516 -1.823 0
M  V30 744 H 68.4386 2.53723 -3.04041 0
M  V30 745 H 69.6126 0.144793 -4.60572 0
M  V30 746 H 67.9276 0.288863 -4.15397 0
M  V30 747 H 70.5246 3.06061 -4.38441 0
M  V30 748 H 70.8676 3.18841 -2.67668 0
M  V30 749 H 71.4006 1.74613 -3.57428 0
M  V30 750 H 68.1396 1.00178 -6.478 0
M  V30 751 H 67.6596 2.4042 -5.49507 0
M  V30 752 H 69.3386 2.24544 -6.06786 0
M  V30 753 N 69.4707 1.49531 0.497807 0
M  V30 754 C 70.7177 1.59179 1.25173 0
M  V30 755 C 71.0457 0.279932 1.92475 0
M  V30 756 O 70.3007 -0.732383 1.81479 0
M  V30 757 C 70.5997 2.70252 2.33878 0
M  V30 758 C 70.2657 4.11644 1.84012 0
M  V30 759 C 68.9277 4.50121 1.70132 0
M  V30 760 C 71.2797 5.00121 1.46725 0
M  V30 761 C 68.6077 5.74845 1.17348 0
M  V30 762 C 70.9597 6.25366 0.95392 0
M  V30 763 C 69.6237 6.6267 0.801538 0
M  V30 764 H 68.8937 0.582478 0.45804 0
M  V30 765 H 71.5407 1.83373 0.551948 0
M  V30 766 H 69.8457 2.40041 3.09657 0
M  V30 767 H 71.5427 2.74925 2.9192 0
M  V30 768 H 68.1327 3.81274 1.95775 0
M  V30 769 H 72.3167 4.71048 1.56294 0
M  V30 770 H 67.5727 6.02444 1.04264 0
M  V30 771 H 71.7467 6.93301 0.656225 0
M  V30 772 H 69.3737 7.59197 0.390351 0
M  V30 773 N 70.9488 -0.749086 1.3866 0
M  V30 774 C 72.3598 -1.32664 1.31366 0
M  V30 775 C 72.7108 -1.96179 -0.028484 0
M  V30 776 O 71.8358 -1.9537 -0.93057 0
M  V30 777 C 72.4308 -2.41219 2.37905 0
M  V30 778 C 70.9898 -2.94684 2.34176 0
M  V30 779 C 70.1368 -1.68108 2.20533 0
M  V30 780 H 73.0878 -0.547628 1.48952 0
M  V30 781 H 73.1088 -3.21268 2.0388 0
M  V30 782 H 72.6208 -1.94962 3.35576 0
M  V30 783 H 70.7218 -3.45258 1.401 0
M  V30 784 H 70.8348 -3.48757 3.2849 0
M  V30 785 H 69.1988 -1.91907 1.67463 0
M  V30 786 H 69.9818 -1.23923 3.20153 0
M  V30 787 N 72.4269 -1.23603 -0.977757 0
M  V30 788 C 73.6729 -1.08136 -1.72274 0
M  V30 789 C 74.0279 0.377453 -1.88661 0
M  V30 790 O 73.3209 1.27552 -1.42972 0
M  V30 791 C 73.5149 -1.7433 -3.11999 0
M  V30 792 C 73.3439 -3.26498 -3.0924 0
M  V30 793 C 72.1139 -3.9567 -3.14282 0
M  V30 794 C 74.3119 -4.2323 -2.92201 0
M  V30 795 N 72.2939 -5.34799 -3.01436 0
M  V30 796 C 73.6649 -5.49289 -2.87544 0
M  V30 797 C 75.7199 -4.13931 -2.76705 0
M  V30 798 C 74.4229 -6.67116 -2.68978 0
M  V30 799 C 76.4489 -5.31424 -2.59504 0
M  V30 800 C 75.8109 -6.5641 -2.55548 0
M  V30 801 H 71.9099 -0.450247 -0.639376 0
M  V30 802 H 74.4939 -1.5637 -1.16002 0
M  V30 803 H 72.6649 -1.28624 -3.66484 0
M  V30 804 H 74.3969 -1.51815 -3.75146 0
M  V30 805 H 71.1519 -3.46767 -3.22567 0
M  V30 806 H 71.5759 -6.07748 -2.98281 0
M  V30 807 H 76.2179 -3.1807 -2.78552 0
M  V30 808 H 73.9359 -7.63109 -2.65876 0
M  V30 809 H 77.5219 -5.26072 -2.48474 0
M  V30 810 H 76.4019 -7.45795 -2.42405 0
M  V30 811 N 73.905 1.17692 -1.04816 0
M  V30 812 C 74.835 2.23777 -0.666791 0
M  V30 813 C 75.816 1.66796 0.33361 0
M  V30 814 O 77.001 1.93039 0.212042 0
M  V30 815 C 74.131 3.47281 -0.0367933 0
M  V30 816 C 73.085 4.17059 -0.961546 0
M  V30 817 C 72.411 5.34342 -0.195626 0
M  V30 818 C 73.711 4.69713 -2.28402 0
M  V30 819 H 75.405 2.55933 -1.55367 0
M  V30 820 H 72.951 1.23019 -0.748484 0
M  V30 821 H 74.904 4.20706 0.241775 0
M  V30 822 H 73.628 3.14381 0.885004 0
M  V30 823 H 72.287 3.45541 -1.22462 0
M  V30 824 H 71.935 4.97692 0.728816 0
M  V30 825 H 71.635 5.81966 -0.811775 0
M  V30 826 H 73.159 6.10553 0.0757473 0
M  V30 827 H 74.573 5.34794 -2.06563 0
M  V30 828 H 72.97 5.279 -2.8538 0
M  V30 829 H 74.04 3.86726 -2.92525 0
M  V30 830 N 75.3831 0.828654 1.34056 0
M  V30 831 C 76.6291 0.42008 1.98402 0
M  V30 832 C 76.9621 -1.01564 1.65525 0
M  V30 833 O 76.2371 -1.70834 0.929831 0
M  V30 834 C 76.5201 0.62927 3.54559 0
M  V30 835 C 76.3731 2.11152 3.97159 0
M  V30 836 C 77.6921 0.0688756 4.40046 0
M  V30 837 H 74.8111 0.154104 0.720709 0
M  V30 838 H 77.4531 1.04228 1.5886 0
M  V30 839 H 75.6031 0.0996418 3.88372 0
M  V30 840 H 77.2751 2.70522 3.73651 0
M  V30 841 H 75.5181 2.59985 3.47261 0
M  V30 842 H 76.1891 2.20868 5.05887 0
M  V30 843 H 78.6651 0.521458 4.1282 0
M  V30 844 H 77.5411 0.245006 5.48353 0
M  V30 845 H 77.8021 -1.0266 4.30015 0
M  V30 846 N 76.8612 -1.46375 0.584142 0
M  V30 847 C 77.7712 -2.34115 -0.150728 0
M  V30 848 C 78.7872 -1.49838 -0.884567 0
M  V30 849 O 79.9632 -1.82704 -0.847429 0
M  V30 850 C 77.0282 -3.2705 -1.15062 0
M  V30 851 C 76.0892 -4.27228 -0.421293 0
M  V30 852 C 75.3222 -5.15722 -1.37355 0
M  V30 853 O 75.5452 -5.07176 -2.61014 0
M  V30 854 O 74.4792 -5.95383 -0.883355 0
M  V30 855 H 78.3052 -2.98309 0.569708 0
M  V30 856 H 75.8902 -1.45373 0.344535 0
M  V30 857 H 77.7722 -3.84381 -1.72712 0
M  V30 858 H 76.4472 -2.65451 -1.8525 0
M  V30 859 H 75.3542 -3.7358 0.197085 0
M  V30 860 H 76.6872 -4.91616 0.239641 0
M  V30 861 N 78.3393 -0.321999 -1.54275 0
M  V30 862 C 79.5643 0.285791 -2.05422 0
M  V30 863 C 79.9893 1.45124 -1.19669 0
M  V30 864 O 79.3473 1.80132 -0.205441 0
M  V30 865 C 79.3953 0.69956 -3.53749 0
M  V30 866 O 78.4993 1.8021 -3.70942 0
M  V30 867 H 77.8403 0.0518962 -0.661969 0
M  V30 868 H 80.3703 -0.469954 -1.9913 0
M  V30 869 H 80.3803 0.982649 -3.9599 0
M  V30 870 H 79.0553 -0.152864 -4.15619 0
M  V30 871 H 77.6323 1.51794 -3.40607 0
M  V30 872 N 79.8174 1.5752 -0.0501392 0
M  V30 873 C 81.0664 1.91827 0.623328 0
M  V30 874 C 81.3794 0.930222 1.72065 0
M  V30 875 O 82.5854 1.1653 2.4522 0
M  V30 876 C 81.0414 3.40692 1.16003 0
M  V30 877 C 80.6494 4.479 0.0948811 0
M  V30 878 C 82.3934 3.84034 1.80881 0
M  V30 879 C 80.3004 5.87879 0.644411 0
M  V30 880 H 79.2304 0.715918 0.236596 0
M  V30 881 H 81.8814 1.83115 -0.118861 0
M  V30 882 H 80.2634 3.44405 1.9545 0
M  V30 883 H 81.4374 4.55775 -0.678675 0
M  V30 884 H 79.7524 4.13892 -0.45637 0
M  V30 885 H 82.3494 4.85984 2.22988 0
M  V30 886 H 82.6924 3.20225 2.6601 0
M  V30 887 H 83.2254 3.82833 1.0809 0
M  V30 888 H 79.9644 6.55282 -0.169229 0
M  V30 889 H 79.4844 5.83567 1.38598 0
M  V30 890 H 81.1634 6.37098 1.12763 0
M  V30 891 N 81.2955 -0.223234 1.56011 0
M  V30 892 C 82.5425 -0.947875 1.78946 0
M  V30 893 C 82.8705 -1.844 0.618608 0
M  V30 894 O 82.1255 -1.91629 -0.397093 0
M  V30 895 C 82.4245 -1.81948 3.0762 0
M  V30 896 C 82.0905 -1.07672 4.37856 0
M  V30 897 C 80.7525 -0.871544 4.73242 0
M  V30 898 C 83.1045 -0.552081 5.18268 0
M  V30 899 C 80.4325 -0.129791 5.86556 0
M  V30 900 C 82.7845 0.17632 6.32354 0
M  V30 901 C 81.4485 0.39277 6.66343 0
M  V30 902 H 80.7185 -0.346852 0.654809 0
M  V30 903 H 83.3655 -0.216171 1.90276 0
M  V30 904 H 81.6705 -2.61899 2.91404 0
M  V30 905 H 83.3675 -2.38227 3.22566 0
M  V30 906 H 79.9575 -1.24662 4.1007 0
M  V30 907 H 84.1415 -0.698076 4.91366 0
M  V30 908 H 79.3975 0.048153 6.11381 0
M  V30 909 H 83.5715 0.590367 6.93893 0
M  V30 910 H 81.1985 0.969466 7.53993 0
M  V30 911 N 82.7736 -1.49793 -0.48987 0
M  V30 912 C 84.0216 -1.59525 -1.24081 0
M  V30 913 C 84.3426 -0.288953 -1.92847 0
M  V30 914 O 83.6126 0.692436 -1.83254 0
M  V30 915 H 82.1926 -0.587796 -0.460983 0
M  V30 916 H 84.8546 -1.86477 -0.566778 0
M  V30 917 H 83.9506 -2.39696 -1.99881 0
M  V30 918 N 84.2517 0.741722 -1.39055 0
M  V30 919 C 85.4767 1.53607 -1.39354 0
M  V30 920 C 85.9017 1.88096 0.0116905 0
M  V30 921 O 85.2597 1.5143 0.996924 0
M  V30 922 C 85.3077 2.80441 -2.26682 0
M  V30 923 O 84.4117 3.76088 -1.69208 0
M  V30 924 H 83.7527 0.464142 -0.474835 0
M  V30 925 H 86.2827 0.915665 -1.82967 0
M  V30 926 H 86.2927 3.29246 -2.40959 0
M  V30 927 H 84.9677 2.5467 -3.2881 0
M  V30 928 H 83.5447 3.34833 -1.64138 0
M  V30 929 N 85.7298 1.2412 0.971189 0
M  V30 930 C 86.6598 1.05508 2.08304 0
M  V30 931 C 87.6408 -0.0308864 1.70072 0
M  V30 932 O 88.8258 0.135521 1.93727 0
M  V30 933 C 85.9558 0.655365 3.4106 0
M  V30 934 C 84.9098 1.68971 3.93234 0
M  V30 935 C 84.2358 1.14516 5.22293 0
M  V30 936 C 85.5358 3.08487 4.21465 0
M  V30 937 H 87.2298 1.98507 2.24132 0
M  V30 938 H 84.7758 0.955821 1.07704 0
M  V30 939 H 86.7288 0.51217 4.18276 0
M  V30 940 H 85.4528 -0.31032 3.25122 0
M  V30 941 H 84.1118 1.82106 3.18171 0
M  V30 942 H 83.7598 0.170189 5.02712 0
M  V30 943 H 83.4598 1.83635 5.58168 0
M  V30 944 H 84.9838 1.01401 6.02121 0
M  V30 945 H 86.3978 2.98601 4.89398 0
M  V30 946 H 84.7948 3.74926 4.68562 0
M  V30 947 H 85.8648 3.56787 3.28376 0
M  V30 948 N 87.2079 -1.17134 1.05439 0
M  V30 949 C 88.4849 -1.83411 0.679699 0
M  V30 950 C 88.8649 -1.9368 -0.839726 0
M  V30 951 O 88.2129 -1.47325 -1.74664 0
M  V30 952 C 88.4229 -3.20918 1.37159 0
M  V30 953 C 89.7709 -3.96796 1.51123 0
M  V30 954 O 90.7949 -3.30406 1.3308 0
M  V30 955 O 89.6539 -5.15778 1.80651 0
M  V30 956 H 86.7479 -0.79154 0.239569 0
M  V30 957 H 89.2939 -1.24411 1.15413 0
M  V30 958 H 88.0659 -3.08428 2.40807 0
M  V30 959 H 87.6889 -3.87587 0.886674 0
M  V30 960 N 88.686 -0.835752 -1.33615 0
M  V30 961 C 89.934 -0.429109 -1.97492 0
M  V30 962 C 90.255 1.01433 -1.66543 0
M  V30 963 O 89.525 1.70611 -0.962744 0
M  V30 964 H 88.105 -0.155686 -0.730596 0
M  V30 965 H 90.767 -1.06802 -1.63031 0
M  V30 966 H 89.863 -0.55861 -3.0706 0
M  V30 967 N 90.1641 1.46063 -0.591896 0
M  V30 968 C 91.4101 2.02638 -0.0811191 0
M  V30 969 C 91.7431 1.4613 1.27905 0
M  V30 970 O 91.0181 0.629908 1.84017 0
M  V30 971 C 91.3011 3.60091 -0.0252436 0
M  V30 972 C 91.1541 4.26965 -1.41496 0
M  V30 973 C 92.4731 4.3496 0.670685 0
M  V30 974 H 89.5921 0.73635 -0.0309524 0
M  V30 975 H 92.2341 1.741 -0.760859 0
M  V30 976 H 90.3841 3.84535 0.553624 0
M  V30 977 H 92.0561 4.13756 -2.0397 0
M  V30 978 H 90.2991 3.85971 -1.98011 0
M  V30 979 H 90.9701 5.35781 -1.32825 0
M  V30 980 H 93.4461 4.15716 0.178825 0
M  V30 981 H 92.3221 5.44686 0.678837 0
M  V30 982 H 92.5831 4.06685 1.73379 0
M  V30 983 N 91.6422 0.330177 1.54103 0
M  V30 984 C 92.5722 -0.525353 2.27513 0
M  V30 985 C 93.5532 -1.11383 1.2856 0
M  V30 986 O 94.7382 -1.13773 1.57383 0
M  V30 987 C 91.8682 -1.6831 3.03791 0
M  V30 988 C 90.8222 -1.2236 4.10137 0
M  V30 989 C 90.1482 -2.46882 4.74293 0
M  V30 990 C 91.4482 -0.333697 5.21233 0
M  V30 991 H 93.1422 0.087013 2.99274 0
M  V30 992 H 90.6882 0.0432893 1.43935 0
M  V30 993 H 92.6412 -2.28795 3.5388 0
M  V30 994 H 91.3652 -2.32216 2.29659 0
M  V30 995 H 90.0242 -0.64165 3.60941 0
M  V30 996 H 89.6722 -3.09165 3.96769 0
M  V30 997 H 89.3722 -2.16825 5.46133 0
M  V30 998 H 90.8962 -3.08117 5.27159 0
M  V30 999 H 92.3102 -0.845013 5.67038 0
M  V30 1000 H 90.7072 -0.125612 5.99969 0
M  V30 1001 H 91.7772 0.633724 4.80741 0
M  V30 1002 N 93.1203 -1.57491 0.0584922 0
M  V30 1003 C 94.3663 -1.93264 -0.614558 0
M  V30 1004 C 94.6993 -0.937717 -1.7006 0
M  V30 1005 O 93.9743 0.0351652 -1.94468 0
M  V30 1006 C 94.2573 -3.3938 -1.20386 0
M  V30 1007 C 94.1103 -4.49625 -0.125375 0
M  V30 1008 C 95.4293 -3.86039 -2.11334 0
M  V30 1009 H 92.5483 -0.702791 -0.221933 0
M  V30 1010 H 95.1903 -1.8961 0.12175 0
M  V30 1011 H 93.3403 -3.42626 -1.83139 0
M  V30 1012 H 95.0123 -4.58506 0.506971 0
M  V30 1013 H 93.2553 -4.30354 0.545672 0
M  V30 1014 H 93.9263 -5.48967 -0.577861 0
M  V30 1015 H 96.4023 -3.84716 -1.58534 0
M  V30 1016 H 95.2783 -4.88914 -2.49507 0
M  V30 1017 H 95.5393 -3.23215 -3.01636 0
M  V30 1018 N 94.5984 0.214957 -1.56127 0
M  V30 1019 C 95.8464 0.936518 -1.79091 0
M  V30 1020 C 96.1674 1.84606 -0.628148 0
M  V30 1021 O 95.4374 1.92664 0.35462 0
M  V30 1022 H 94.0174 0.3488 -0.660566 0
M  V30 1023 H 96.6794 0.22523 -1.93594 0
M  V30 1024 H 95.7754 1.53943 -2.71492 0
M  V30 1025 N 96.0765 1.50051 0.48192 0
M  V30 1026 C 97.3225 1.61706 1.2338 0
M  V30 1027 C 97.6775 0.308488 1.89911 0
M  V30 1028 O 96.9705 -0.692798 1.78636 0
M  V30 1029 C 97.1645 2.72717 2.30998 0
M  V30 1030 C 96.9935 4.14242 1.75024 0
M  V30 1031 C 95.7635 4.80786 1.55476 0
M  V30 1032 C 97.9615 4.98846 1.25128 0
M  V30 1033 N 95.9435 6.06563 0.946311 0
M  V30 1034 C 97.3145 6.15258 0.765382 0
M  V30 1035 C 99.3695 4.84702 1.13881 0
M  V30 1036 C 98.0725 7.19079 0.178113 0
M  V30 1037 C 100.098 5.8869 0.565486 0
M  V30 1038 C 99.4605 7.04343 0.0899105 0
M  V30 1039 H 95.5595 0.645958 0.440753 0
M  V30 1040 H 98.1435 1.8713 0.537624 0
M  V30 1041 H 96.3145 2.49033 2.98055 0
M  V30 1042 H 98.0465 2.73789 2.9803 0
M  V30 1043 H 94.8015 4.37899 1.80392 0
M  V30 1044 H 95.2255 6.73767 0.660812 0
M  V30 1045 H 99.8675 3.95583 1.49244 0
M  V30 1046 H 97.5855 8.07882 -0.187749 0
M  V30 1047 H 101.171 5.79808 0.480974 0
M  V30 1048 H 100.051 7.83433 -0.346782 0
M  V30 1049 N 97.5546 -0.734337 1.39446 0
M  V30 1050 C 98.5026 -1.86971 1.38364 0
M  V30 1051 C 99.4966 -1.67288 0.266687 0
M  V30 1052 O 100.703 -1.74621 0.436755 0
M  V30 1053 H 97.0776 -0.615474 0.432082 0
M  V30 1054 H 99.0486 -1.85 2.34132 0
M  V30 1055 C 97.7976 -3.2466 1.24465 0
M  V30 1056 H 97.1206 -3.40402 2.09682 0
M  V30 1057 H 98.5606 -4.04292 1.27764 0
M  V30 1058 C 97.0196 -3.36867 -0.0468674 0
M  V30 1059 O 97.5496 -3.88618 -1.01681 0
M  V30 1060 N 95.7556 -2.90391 -0.110145 0
M  V30 1061 H 95.3026 -2.48466 0.679868 0
M  V30 1062 H 95.2606 -2.98939 -0.973799 0
M  V30 1063 N 99.0327 -1.24633 -0.964593 0
M  V30 1064 C 99.9627 -1.06611 -2.07741 0
M  V30 1065 C 100.944 0.0218666 -1.70086 0
M  V30 1066 O 102.129 -0.145793 -1.93652 0
M  V30 1067 C 99.2587 -0.673444 -3.40708 0
M  V30 1068 C 98.2127 -1.71054 -3.92332 0
M  V30 1069 C 97.5387 -1.17285 -5.21678 0
M  V30 1070 C 98.8387 -3.10718 -4.19824 0
M  V30 1071 H 100.533 -1.99693 -2.23076 0
M  V30 1072 H 98.0787 -0.96152 -1.07195 0
M  V30 1073 H 100.032 -0.534345 -4.17998 0
M  V30 1074 H 98.7557 0.293073 -3.25282 0
M  V30 1075 H 97.4147 -1.83791 -3.17201 0
M  V30 1076 H 97.0627 -0.196847 -5.02615 0
M  V30 1077 H 96.7627 -1.86592 -5.57187 0
M  V30 1078 H 98.2867 -1.04593 -6.01575 0
M  V30 1079 H 99.7007 -3.01192 -4.87808 0
M  V30 1080 H 98.0977 -3.77406 -4.66567 0
M  V30 1081 H 99.1677 -3.58524 -3.26479 0
M  V30 1082 N 100.511 1.16574 -1.06058 0
M  V30 1083 C 101.927 1.3904 -0.783585 0
M  V30 1084 C 102.127 1.91784 0.618145 0
M  V30 1085 O 101.183 2.11511 1.37911 0
M  V30 1086 C 102.496 2.37329 -1.84649 0
M  V30 1087 C 104.044 2.51018 -1.86973 0
M  V30 1088 C 104.519 3.52588 -2.92311 0
M  V30 1089 N 106.01 3.60113 -2.91329 0
M  V30 1090 C 106.745 4.38486 -3.69482 0
M  V30 1091 N 106.241 5.20302 -4.57447 0
M  V30 1092 N 108.034 4.33446 -3.57885 0
M  V30 1093 H 100.185 0.806725 -1.96483 0
M  V30 1094 H 102.448 0.417117 -0.851303 0
M  V30 1095 H 102.154 2.05663 -2.85299 0
M  V30 1096 H 102.028 3.36946 -1.6955 0
M  V30 1097 H 104.415 2.81989 -0.869827 0
M  V30 1098 H 104.496 1.51445 -2.0615 0
M  V30 1099 H 104.14 3.22354 -3.92492 0
M  V30 1100 H 104.07 4.51886 -2.70383 0
M  V30 1101 H 106.561 3.01707 -2.27555 0
M  V30 1102 H 106.874 5.77311 -5.13743 0
M  V30 1103 H 105.219 5.19653 -4.61503 0
M  V30 1104 H 108.41 3.68586 -2.88551 0
M  V30 1105 H 108.583 4.94279 -4.19037 0
M  V30 1106 N 101.989 0.842826 1.3317 0
M  V30 1107 C 103.229 0.446574 1.99462 0
M  V30 1108 C 103.593 -0.976818 1.65295 0
M  V30 1109 O 104.794 -1.477 2.24584 0
M  V30 1110 C 103.065 0.665353 3.51152 0
M  V30 1111 S 104.624 0.364911 4.3728 0
M  V30 1112 H 101.442 0.167803 0.690915 0
M  V30 1113 H 104.044 1.09297 1.62094 0
M  V30 1114 H 102.748 1.7006 3.73507 0
M  V30 1115 H 102.279 0.00494568 3.934 0
M  V30 1116 H 104.294 -0.813761 4.89482 0
M  V30 1117 N 103.467 -1.45747 0.599634 0
M  V30 1118 C 104.397 -2.33235 -0.111306 0
M  V30 1119 C 105.378 -1.46359 -0.866781 0
M  V30 1120 O 106.563 -1.75146 -0.838904 0
M  V30 1121 C 103.693 -3.28932 -1.11451 0
M  V30 1122 C 102.647 -4.25381 -0.472772 0
M  V30 1123 C 101.973 -5.1071 -1.58365 0
M  V30 1124 C 103.273 -5.18831 0.600948 0
M  V30 1125 H 104.967 -2.92927 0.61919 0
M  V30 1126 H 102.513 -1.40857 0.299215 0
M  V30 1127 H 104.466 -3.89002 -1.62036 0
M  V30 1128 H 103.19 -2.67381 -1.8755 0
M  V30 1129 H 101.849 -3.66598 0.0121472 0
M  V30 1130 H 101.497 -4.45533 -2.33473 0
M  V30 1131 H 101.197 -5.7604 -1.15982 0
M  V30 1132 H 102.721 -5.73647 -2.09194 0
M  V30 1133 H 104.135 -5.73019 0.179491 0
M  V30 1134 H 102.532 -5.92595 0.946076 0
M  V30 1135 H 103.602 -4.6174 1.48068 0
M  V30 1136 N 104.945 -0.338344 -1.53925 0
M  V30 1137 C 105.877 0.555117 -2.22376 0
M  V30 1138 C 106.89 1.06812 -1.22862 0
M  V30 1139 O 108.079 0.979163 -1.49247 0
M  V30 1140 C 105.179 1.77609 -2.88631 0
M  V30 1141 C 104.352 1.39927 -4.14414 0
M  V30 1142 C 103.411 2.47936 -4.64127 0
M  V30 1143 O 102.437 2.11461 -5.28463 0
M  V30 1144 N 103.639 3.79107 -4.39612 0
M  V30 1145 H 106.404 -0.0310778 -2.99684 0
M  V30 1146 H 103.965 -0.162226 -1.61085 0
M  V30 1147 H 105.957 2.49287 -3.18807 0
M  V30 1148 H 104.527 2.26978 -2.14941 0
M  V30 1149 H 103.747 0.513481 -3.90841 0
M  V30 1150 H 105.035 1.12341 -4.96243 0
M  V30 1151 H 104.433 4.11531 -3.88148 0
M  V30 1152 H 102.99 4.4697 -4.74406 0
M  V30 1153 N 106.423 1.57458 -0.0668435 0
M  V30 1154 C 107.671 1.92919 0.602214 0
M  V30 1155 C 107.992 0.947215 1.70449 0
M  V30 1156 O 107.262 -0.00544117 1.95899 0
M  V30 1157 H 105.842 0.71217 0.22544 0
M  V30 1158 H 108.504 1.94508 -0.123535 0
M  V30 1159 H 107.6 2.94589 1.03073 0
M  V30 1160 N 107.901 -0.206675 1.56239 0
M  V30 1161 C 109.317 -0.557025 1.49564 0
M  V30 1162 C 109.517 -1.86424 0.764735 0
M  V30 1163 O 108.573 -2.50584 0.310491 0
M  V30 1164 C 109.886 -0.622478 2.94186 0
M  V30 1165 C 111.434 -0.712099 3.04792 0
M  V30 1166 C 111.909 -0.808767 4.50803 0
M  V30 1167 N 113.4 -0.8726 4.54907 0
M  V30 1168 C 114.135 -0.967365 5.65181 0
M  V30 1169 N 113.631 -1.02515 6.85173 0
M  V30 1170 N 115.424 -1.00366 5.53067 0
M  V30 1171 H 107.575 0.650943 2.02179 0
M  V30 1172 H 109.838 0.230387 0.919579 0
M  V30 1173 H 109.544 0.268727 3.50672 0
M  V30 1174 H 109.418 -1.4811 3.46905 0
M  V30 1175 H 111.805 -1.59374 2.48363 0
M  V30 1176 H 111.886 0.172489 2.55218 0
M  V30 1177 H 111.53 0.0684754 5.07854 0
M  V30 1178 H 111.46 -1.70899 4.98098 0
M  V30 1179 H 113.951 -0.837657 3.68499 0
M  V30 1180 H 114.264 -1.09765 7.64965 0
M  V30 1181 H 112.609 -0.994026 6.87855 0
M  V30 1182 H 115.8 -0.95527 4.58249 0
M  V30 1183 H 115.973 -1.07405 6.39037 0
M  V30 1184 N 109.379 -1.50304 -0.473955 0
M  V30 1185 C 110.625 -1.61389 -1.22806 0
M  V30 1186 C 110.958 -0.311955 -1.91678 0
M  V30 1187 O 110.233 0.686384 -1.81986 0
M  V30 1188 C 110.516 -2.79219 -2.27396 0
M  V30 1189 C 110.369 -4.19286 -1.62848 0
M  V30 1190 C 111.688 -2.92614 -3.28732 0
M  V30 1191 H 108.807 -0.587399 -0.445119 0
M  V30 1192 H 111.449 -1.82681 -0.522265 0
M  V30 1193 H 109.599 -2.61195 -2.87592 0
M  V30 1194 H 111.271 -4.48892 -1.06271 0
M  V30 1195 H 109.514 -4.23677 -0.931693 0
M  V30 1196 H 110.185 -4.97655 -2.38838 0
M  V30 1197 H 112.661 -3.09105 -2.78556 0
M  V30 1198 H 111.537 -3.76688 -3.99246 0
M  V30 1199 H 111.798 -2.03107 -3.92683 0
M  V30 1200 N 110.857 0.726932 -1.39834 0
M  V30 1201 C 111.805 1.86235 -1.39353 0
M  V30 1202 C 112.799 1.67144 -0.275555 0
M  V30 1203 O 114.005 1.74387 -0.44601 0
M  V30 1204 H 110.38 0.613174 -0.43534 0
M  V30 1205 H 112.351 1.83756 -2.35109 0
M  V30 1206 C 111.1 3.23995 -1.26185 0
M  V30 1207 H 110.423 3.39285 -2.11484 0
M  V30 1208 H 111.863 4.03609 -1.29907 0
M  V30 1209 C 110.322 3.36888 0.0290018 0
M  V30 1210 O 110.852 3.89152 0.99619 0
M  V30 1211 N 109.058 2.90446 0.0947437 0
M  V30 1212 H 108.605 2.48102 -0.693035 0
M  V30 1213 H 108.563 2.99451 0.957932 0
M  V30 1214 N 112.336 1.25143 0.95797 0
M  V30 1215 C 113.747 1.08851 1.51685 0
M  V30 1216 C 114.098 -0.33687 1.93286 0
M  V30 1217 O 113.223 -1.22644 1.7829 0
M  V30 1218 C 113.818 1.96978 2.75654 0
M  V30 1219 C 112.377 1.84881 3.27866 0
M  V30 1220 C 111.524 1.91329 2.0072 0
M  V30 1221 H 114.475 1.38478 0.77522 0
M  V30 1222 H 114.496 1.5078 3.4935 0
M  V30 1223 H 114.008 3.00712 2.45345 0
M  V30 1224 H 112.109 0.840182 3.63004 0
M  V30 1225 H 112.222 2.6951 3.96107 0
M  V30 1226 H 110.586 1.35174 2.15871 0
M  V30 1227 H 111.369 2.96661 1.72764 0
M  V30 1228 N 113.814 -1.1601 1.06675 0
M  V30 1229 C 115.06 -1.86909 0.786945 0
M  V30 1230 C 115.393 -1.81717 -0.685018 0
M  V30 1231 O 114.668 -1.23551 -1.50218 0
M  V30 1232 C 114.951 -3.36313 1.28707 0
M  V30 1233 C 114.804 -3.50175 2.82308 0
M  V30 1234 C 116.123 -4.3084 0.898071 0
M  V30 1235 H 113.242 -0.678677 0.287343 0
M  V30 1236 H 115.884 -1.36336 1.32334 0
M  V30 1237 H 114.034 -3.79513 0.830768 0
M  V30 1238 H 115.706 -3.15886 3.36175 0
M  V30 1239 H 113.949 -2.91959 3.20847 0
M  V30 1240 H 114.62 -4.55116 3.12368 0
M  V30 1241 H 117.096 -3.95561 1.29114 0
M  V30 1242 H 115.972 -5.33876 1.27543 0
M  V30 1243 H 116.233 -4.41662 -0.196651 0
M  V30 1244 N 115.292 -0.849877 -1.32721 0
M  V30 1245 C 116.202 -0.293791 -2.32753 0
M  V30 1246 C 117.218 0.585906 -1.63839 0
M  V30 1247 O 118.394 0.487413 -1.95413 0
M  V30 1248 C 115.459 0.512752 -3.42887 0
M  V30 1249 C 114.52 -0.39252 -4.27502 0
M  V30 1250 C 113.753 0.375625 -5.32377 0
M  V30 1251 O 113.976 1.60613 -5.4732 0
M  V30 1252 O 112.91 -0.256094 -6.01355 0
M  V30 1253 H 116.736 -1.12242 -2.82197 0
M  V30 1254 H 114.321 -0.612685 -1.36259 0
M  V30 1255 H 116.203 0.970704 -4.10067 0
M  V30 1256 H 114.878 1.31826 -2.95641 0
M  V30 1257 H 113.785 -0.898547 -3.63149 0
M  V30 1258 H 115.118 -1.16309 -4.7826 0
M  V30 1259 N 116.77 1.45427 -0.607355 0
M  V30 1260 C 118 2.06314 -0.108656 0
M  V30 1261 C 118.408 1.45269 1.21217 0
M  V30 1262 O 117.751 0.561115 1.74921 0
M  V30 1263 C 117.813 3.59345 0.105618 0
M  V30 1264 C 117.477 4.42723 -1.13337 0
M  V30 1265 C 118.474 4.77715 -2.05145 0
M  V30 1266 C 116.159 4.83478 -1.36213 0
M  V30 1267 C 118.153 5.52317 -3.18158 0
M  V30 1268 C 115.84 5.57835 -2.49527 0
M  V30 1269 C 116.838 5.92171 -3.40327 0
M  V30 1270 O 116.526 6.65019 -4.51669 0
M  V30 1271 H 116.258 0.672782 -0.0658842 0
M  V30 1272 H 118.812 1.87664 -0.834945 0
M  V30 1273 H 117.042 3.76394 0.886796 0
M  V30 1274 H 118.731 4.02076 0.555886 0
M  V30 1275 H 119.497 4.46787 -1.88697 0
M  V30 1276 H 115.376 4.56188 -0.664362 0
M  V30 1277 H 118.92 5.79036 -3.89054 0
M  V30 1278 H 114.817 5.88177 -2.65928 0
M  V30 1279 H 115.585 6.83469 -4.50348 0
M  V30 1280 N 118.248 0.346503 1.53744 0
M  V30 1281 C 119.473 -0.253074 2.0585 0
M  V30 1282 C 119.898 -1.43202 1.21962 0
M  V30 1283 O 119.256 -1.79783 0.234073 0
M  V30 1284 C 119.304 -0.643193 3.54817 0
M  V30 1285 O 118.408 -1.74286 3.73762 0
M  V30 1286 H 117.749 -0.0413583 0.662711 0
M  V30 1287 H 120.279 0.501574 1.98357 0
M  V30 1288 H 120.289 -0.919526 3.97503 0
M  V30 1289 H 118.964 0.218966 4.15323 0
M  V30 1290 H 117.541 -1.46356 3.42979 0
M  V30 1291 N 119.726 -1.57421 0.075193 0
M  V30 1292 C 120.975 -1.92794 -0.592731 0
M  V30 1293 C 121.288 -0.957478 -1.70563 0
M  V30 1294 O 122.494 -1.20417 -2.43335 0
M  V30 1295 C 120.95 -3.42495 -1.10569 0
M  V30 1296 C 120.558 -4.47994 -0.0236121 0
M  V30 1297 C 122.302 -3.86864 -1.74748 0
M  V30 1298 C 120.209 -5.88829 -0.550803 0
M  V30 1299 H 119.139 -0.719591 -0.225177 0
M  V30 1300 H 121.79 -1.82902 0.147978 0
M  V30 1301 H 120.172 -3.47471 -1.89947 0
M  V30 1302 H 121.346 -4.54637 0.751099 0
M  V30 1303 H 119.661 -4.13113 0.522159 0
M  V30 1304 H 122.258 -4.8947 -2.15229 0
M  V30 1305 H 122.601 -3.24417 -2.60882 0
M  V30 1306 H 123.134 -3.84504 -1.01986 0
M  V30 1307 H 119.873 -6.54929 0.273457 0
M  V30 1308 H 119.393 -5.85698 -1.29296 0
M  V30 1309 H 121.072 -6.38811 -1.02613 0
M  V30 1310 N 121.204 0.198386 -1.56346 0
M  V30 1311 C 122.45 0.920648 -1.80698 0
M  V30 1312 C 122.783 1.83045 -0.648697 0
M  V30 1313 O 122.058 1.91308 0.350925 0
M  V30 1314 C 122.341 1.73971 -3.15287 0
M  V30 1315 C 122.194 0.85485 -4.41602 0
M  V30 1316 C 123.513 2.71296 -3.46535 0
M  V30 1317 H 120.632 0.333261 -0.657348 0
M  V30 1318 H 123.274 0.188198 -1.89066 0
M  V30 1319 H 121.424 2.36416 -3.08285 0
M  V30 1320 H 123.096 0.245362 -4.60647 0
M  V30 1321 H 121.339 0.161398 -4.335 0
M  V30 1322 H 122.01 1.46286 -5.32264 0
M  V30 1323 H 124.486 2.18983 -3.53816 0
M  V30 1324 H 123.362 3.2569 -4.41834 0
M  V30 1325 H 123.623 3.5018 -2.69864 0
M  V30 1326 N 122.682 1.50554 0.465978 0
M  V30 1327 C 123.615 1.64436 1.58227 0
M  V30 1328 C 124.593 0.492367 1.54966 0
M  V30 1329 O 125.777 0.712536 1.74514 0
M  V30 1330 C 122.904 1.63165 2.96808 0
M  V30 1331 C 121.95 2.83987 3.18204 0
M  V30 1332 S 122.783 4.45219 2.97557 0
M  V30 1333 C 123.939 4.46649 4.3847 0
M  V30 1334 H 124.172 2.58861 1.46213 0
M  V30 1335 H 121.705 1.3988 0.653678 0
M  V30 1336 H 123.663 1.63116 3.76701 0
M  V30 1337 H 122.324 0.69967 3.06208 0
M  V30 1338 H 121.517 2.79416 4.19455 0
M  V30 1339 H 121.119 2.81629 2.46092 0
M  V30 1340 H 123.411 4.20526 5.31191 0
M  V30 1341 H 124.354 5.48295 4.48082 0
M  V30 1342 H 124.762 3.76296 4.20787 0
M  V30 1343 N 124.16 -0.719506 1.40217 0
M  V30 1344 C 125.07 -1.86378 1.42479 0
M  V30 1345 C 126.086 -1.71073 0.317834 0
M  V30 1346 O 127.262 -1.93406 0.561794 0
M  V30 1347 C 124.327 -3.22136 1.28178 0
M  V30 1348 C 123.388 -3.49723 2.48982 0
M  V30 1349 C 122.621 -4.79004 2.35353 0
M  V30 1350 O 122.844 -5.53821 1.36524 0
M  V30 1351 O 121.778 -5.06839 3.2465 0
M  V30 1352 H 125.604 -1.87425 2.38968 0
M  V30 1353 H 123.189 -0.869405 1.21498 0
M  V30 1354 H 125.071 -4.03234 1.22395 0
M  V30 1355 H 123.746 -3.21825 0.347934 0
M  V30 1356 H 122.653 -2.6865 2.60342 0
M  V30 1357 H 123.986 -3.54828 3.41113 0
M  V30 1358 N 125.638 -1.25649 -0.95132 0
M  V30 1359 C 126.885 -1.10594 -1.69633 0
M  V30 1360 C 127.213 0.352515 -1.91279 0
M  V30 1361 O 126.468 1.27601 -1.4838 0
M  V30 1362 C 126.767 -1.80909 -3.08231 0
M  V30 1363 C 126.433 -3.30825 -3.06375 0
M  V30 1364 C 125.095 -3.71722 -3.05576 0
M  V30 1365 C 127.447 -4.26589 -2.99452 0
M  V30 1366 C 124.775 -5.06788 -2.95606 0
M  V30 1367 C 127.127 -5.61683 -2.91024 0
M  V30 1368 C 125.791 -6.01904 -2.88562 0
M  V30 1369 H 125.061 -0.404691 -0.620731 0
M  V30 1370 H 127.708 -1.55964 -1.11119 0
M  V30 1371 H 126.013 -1.27979 -3.70309 0
M  V30 1372 H 127.71 -1.6671 -3.64704 0
M  V30 1373 H 124.3 -2.98287 -3.07771 0
M  V30 1374 H 128.484 -3.95982 -2.99185 0
M  V30 1375 H 123.74 -5.37126 -2.92071 0
M  V30 1376 H 127.914 -6.35578 -2.84629 0
M  V30 1377 H 125.541 -7.06521 -2.80593 0
M  V30 1378 N 127.117 1.15442 -1.07289 0
M  V30 1379 C 128.047 2.22312 -0.714107 0
M  V30 1380 C 129.028 1.67467 0.298155 0
M  V30 1381 O 130.213 1.93445 0.171048 0
M  V30 1382 C 127.343 3.47124 -0.110448 0
M  V30 1383 C 126.297 4.14926 -1.04979 0
M  V30 1384 C 125.623 5.33807 -0.308924 0
M  V30 1385 C 126.923 4.64762 -2.38314 0
M  V30 1386 H 128.617 2.5258 -1.6076 0
M  V30 1387 H 126.163 1.21404 -0.77441 0
M  V30 1388 H 128.116 4.21124 0.152482 0
M  V30 1389 H 126.84 3.16187 0.81812 0
M  V30 1390 H 125.499 3.42866 -1.29764 0
M  V30 1391 H 125.147 4.99126 0.623084 0
M  V30 1392 H 124.847 5.80113 -0.935036 0
M  V30 1393 H 126.371 6.10576 -0.0537771 0
M  V30 1394 H 127.785 5.30292 -2.1786 0
M  V30 1395 H 126.182 5.21728 -2.96514 0
M  V30 1396 H 127.252 3.80434 -3.00663 0
M  V30 1397 N 128.595 0.856903 1.32268 0
M  V30 1398 C 129.872 0.382583 1.91822 0
M  V30 1399 C 130.252 -1.13407 1.78051 0
M  V30 1400 O 129.6 -1.95673 1.18001 0
M  V30 1401 C 129.81 0.849446 3.38505 0
M  V30 1402 C 131.158 0.867936 4.15634 0
M  V30 1403 O 132.182 0.794232 3.47232 0
M  V30 1404 O 131.041 0.972286 5.37781 0
M  V30 1405 H 128.135 0.112014 0.819379 0
M  V30 1406 H 130.681 0.943952 1.41024 0
M  V30 1407 H 129.453 1.89267 3.42482 0
M  V30 1408 H 129.076 0.265652 3.96712 0
M  V30 1409 N 130.073 -1.45103 0.615059 0
M  V30 1410 C 131.484 -1.85654 0.197383 0
M  V30 1411 C 131.835 -1.51433 -1.24749 0
M  V30 1412 O 130.96 -0.944608 -1.94695 0
M  V30 1413 C 131.555 -3.36972 0.351448 0
M  V30 1414 C 130.114 -3.76398 -0.011593 0
M  V30 1415 C 129.261 -2.69024 0.672394 0
M  V30 1416 H 132.212 -1.35797 0.821263 0
M  V30 1417 H 132.233 -3.78239 -0.414227 0
M  V30 1418 H 131.745 -3.61847 1.40314 0
M  V30 1419 H 129.846 -3.5714 -1.06217 0
M  V30 1420 H 129.959 -4.77532 0.387265 0
M  V30 1421 H 128.323 -2.54465 0.109284 0
M  V30 1422 H 129.106 -2.96735 1.72636 0
M  V30 1423 N 131.551 -0.354651 -1.53558 0
M  V30 1424 C 132.799 0.237972 -2.00694 0
M  V30 1425 C 133.12 1.50173 -1.24391 0
M  V30 1426 O 132.39 1.92673 -0.354135 0
M  V30 1427 H 130.97 0.0909256 -0.741446 0
M  V30 1428 H 133.632 -0.478368 -1.88938 0
M  V30 1429 H 132.728 0.47264 -3.085 0
M  V30 1430 N 133.029 1.57378 -0.0835403 0
M  V30 1431 C 134.277 1.93547 0.581718 0
M  V30 1432 C 134.598 0.96524 1.69435 0
M  V30 1433 O 133.868 0.0153369 1.95894 0
M  V30 1434 H 132.448 0.714521 0.217874 0
M  V30 1435 H 135.11 1.94366 -0.144158 0
M  V30 1436 H 134.206 2.95665 0.999423 0
M  V30 1437 N 134.507 -0.190092 1.56449 0
M  V30 1438 C 135.918 -0.754312 1.70784 0
M  V30 1439 C 136.269 -1.83631 0.690951 0
M  V30 1440 O 135.394 -2.15868 -0.151604 0
M  V30 1441 C 135.989 -1.37503 3.09642 0
M  V30 1442 C 134.548 -1.88628 3.25725 0
M  V30 1443 C 133.695 -0.758098 2.66736 0
M  V30 1444 H 136.646 0.0350524 1.58661 0
M  V30 1445 H 136.667 -2.2445 3.0725 0
M  V30 1446 H 136.179 -0.587302 3.83631 0
M  V30 1447 H 134.28 -2.70103 2.56661 0
M  V30 1448 H 134.393 -2.04462 4.3328 0
M  V30 1449 H 132.757 -1.17369 2.26046 0
M  V30 1450 H 133.54 0.0174705 3.43296 0
M  V30 1451 N 135.985 -1.50799 -0.457987 0
M  V30 1452 C 136.918 -1.65273 -1.57353 0
M  V30 1453 C 137.896 -0.500578 -1.54703 0
M  V30 1454 O 139.08 -0.721781 -1.74134 0
M  V30 1455 C 136.207 -1.64737 -2.95938 0
M  V30 1456 C 135.253 -2.8567 -3.16693 0
M  V30 1457 S 136.086 -4.46791 -2.95191 0
M  V30 1458 C 137.242 -4.48968 -4.36095 0
M  V30 1459 H 137.475 -2.59633 -1.44838 0
M  V30 1460 H 135.008 -1.40225 -0.64625 0
M  V30 1461 H 136.966 -1.65112 -3.7583 0
M  V30 1462 H 135.627 -0.715899 -3.05833 0
M  V30 1463 H 134.82 -2.81637 -4.17967 0
M  V30 1464 H 134.422 -2.8293 -2.44594 0
M  V30 1465 H 136.714 -4.23337 -5.28954 0
M  V30 1466 H 137.657 -5.50664 -4.45168 0
M  V30 1467 H 138.065 -3.78522 -4.18786 0
M  V30 1468 N 137.463 0.71206 -1.40597 0
M  V30 1469 C 138.396 1.83582 -1.35546 0
M  V30 1470 C 139.374 1.61032 -0.225284 0
M  V30 1471 O 140.558 1.83998 -0.409519 0
M  V30 1472 C 137.685 3.19983 -1.11034 0
M  V30 1473 C 136.731 3.61355 -2.2655 0
M  V30 1474 S 137.564 3.68062 -3.88961 0
M  V30 1475 C 138.72 5.07216 -3.66719 0
M  V30 1476 H 138.953 1.87586 -2.30648 0
M  V30 1477 H 136.486 0.879182 -1.26924 0
M  V30 1478 H 138.444 3.98734 -0.975761 0
M  V30 1479 H 137.105 3.13608 -0.175798 0
M  V30 1480 H 136.298 4.60403 -2.0505 0
M  V30 1481 H 135.9 2.8987 -2.36329 0
M  V30 1482 H 138.192 5.94238 -3.25404 0
M  V30 1483 H 139.135 5.33753 -4.6531 0
M  V30 1484 H 139.543 4.77976 -3.00332 0
M  V30 1485 N 138.941 1.26152 0.944643 0
M  V30 1486 C 139.888 1.07408 2.04285 0
M  V30 1487 C 140.858 -0.0198413 1.66088 0
M  V30 1488 O 142.043 0.139264 1.90291 0
M  V30 1489 C 139.183 0.70945 3.37729 0
M  V30 1490 C 138.296 1.87926 3.88983 0
M  V30 1491 C 137.431 1.45807 5.10797 0
M  V30 1492 C 136.47 2.5964 5.54305 0
M  V30 1493 N 135.607 2.18226 6.67324 0
M  V30 1494 H 140.447 2.01389 2.1965 0
M  V30 1495 H 137.984 1.00275 1.07626 0
M  V30 1496 H 139.942 0.478948 4.14442 0
M  V30 1497 H 138.572 -0.193389 3.2222 0
M  V30 1498 H 137.624 2.22279 3.08701 0
M  V30 1499 H 138.936 2.73377 4.17213 0
M  V30 1500 H 138.09 1.18781 5.94959 0
M  V30 1501 H 136.829 0.574414 4.84305 0
M  V30 1502 H 135.834 2.87399 4.68702 0
M  V30 1503 H 137.059 3.48599 5.828 0
M  V30 1504 H 135.005 1.3229 6.42523 0
M  V30 1505 H 134.922 2.97221 6.95123 0
M  V30 1506 H 136.19 1.94403 7.54869 0
M  V30 1507 N 140.419 -1.14872 1.07899 0
M  V30 1508 C 141.349 -2.2193 0.725887 0
M  V30 1509 C 142.33 -1.67622 -0.28927 0
M  V30 1510 O 143.515 -1.93533 -0.160787 0
M  V30 1511 C 140.645 -3.47061 0.128856 0
M  V30 1512 C 139.599 -4.14363 1.07178 0
M  V30 1513 C 138.925 -5.33636 0.337229 0
M  V30 1514 C 140.225 -4.63492 2.40775 0
M  V30 1515 H 141.919 -2.51724 1.62097 0
M  V30 1516 H 139.465 -1.20991 0.780838 0
M  V30 1517 H 141.418 -4.21199 -0.130147 0
M  V30 1518 H 140.142 -3.16617 -0.80134 0
M  V30 1519 H 138.801 -3.42173 1.3158 0
M  V30 1520 H 138.449 -4.99449 -0.596606 0
M  V30 1521 H 138.149 -5.79609 0.965788 0
M  V30 1522 H 139.673 -6.10539 0.0861567 0
M  V30 1523 H 141.087 -5.2913 2.20669 0
M  V30 1524 H 139.484 -5.20148 2.99276 0
M  V30 1525 H 140.554 -3.78834 3.02676 0
M  V30 1526 N 141.898 -0.863906 -1.31812 0
M  V30 1527 C 143.144 -0.472535 -1.97218 0
M  V30 1528 C 143.477 0.971394 -1.68159 0
M  V30 1529 O 142.752 1.68309 -0.974798 0
M  V30 1530 C 143.035 -0.723054 -3.52766 0
M  V30 1531 C 142.888 -2.21608 -3.91421 0
M  V30 1532 C 144.207 -0.185522 -4.39709 0
M  V30 1533 H 141.326 -0.173158 -0.71637 0
M  V30 1534 H 143.968 -1.08403 -1.56041 0
M  V30 1535 H 142.118 -0.202577 -3.87971 0
M  V30 1536 H 143.79 -2.80334 -3.66347 0
M  V30 1537 H 142.033 -2.691 -3.40246 0
M  V30 1538 H 142.704 -2.34203 -4.99853 0
M  V30 1539 H 145.18 -0.630726 -4.11292 0
M  V30 1540 H 144.056 -0.390306 -5.47511 0
M  V30 1541 H 144.317 0.912229 -4.32586 0
M  V30 1542 N 143.376 1.44774 -0.622745 0
M  V30 1543 C 144.606 2.06187 -0.130532 0
M  V30 1544 C 145.014 1.46547 1.19669 0
M  V30 1545 O 144.357 0.579636 1.74316 0
M  V30 1546 C 144.419 3.59437 0.0674983 0
M  V30 1547 C 144.083 4.41496 -1.18026 0
M  V30 1548 C 145.08 4.75512 -2.102 0
M  V30 1549 C 142.765 4.82007 -1.41333 0
M  V30 1550 C 144.759 5.48912 -3.23998 0
M  V30 1551 C 142.446 5.55157 -2.55429 0
M  V30 1552 C 143.444 5.88528 -3.46589 0
M  V30 1553 O 143.132 6.60191 -4.58697 0
M  V30 1554 H 142.864 0.672045 -0.0730162 0
M  V30 1555 H 145.418 1.86768 -0.854802 0
M  V30 1556 H 143.648 3.77314 0.846825 0
M  V30 1557 H 145.337 4.02642 0.513209 0
M  V30 1558 H 146.103 4.4476 -1.93425 0
M  V30 1559 H 141.982 4.55457 -0.712709 0
M  V30 1560 H 145.526 5.74877 -3.95174 0
M  V30 1561 H 141.423 5.85324 -2.72151 0
M  V30 1562 H 142.191 6.78654 -4.57571 0
M  V30 1563 N 144.854 0.36279 1.53368 0
M  V30 1564 C 145.801 -0.485008 2.25646 0
M  V30 1565 C 146.771 -1.07982 1.2621 0
M  V30 1566 O 147.956 -1.11284 1.54986 0
M  V30 1567 C 145.096 -1.62023 3.04701 0
M  V30 1568 C 144.209 -1.05086 4.19024 0
M  V30 1569 C 143.344 -2.15496 4.85525 0
M  V30 1570 C 142.383 -1.5601 5.91884 0
M  V30 1571 N 141.52 -2.60241 6.52088 0
M  V30 1572 H 146.36 0.137864 2.97681 0
M  V30 1573 H 143.897 0.0798061 1.46883 0
M  V30 1574 H 145.855 -2.28887 3.48807 0
M  V30 1575 H 144.485 -2.2138 2.34927 0
M  V30 1576 H 143.537 -0.27259 3.79422 0
M  V30 1577 H 144.849 -0.575926 4.95464 0
M  V30 1578 H 144.003 -2.90186 5.32801 0
M  V30 1579 H 142.742 -2.66341 4.08551 0
M  V30 1580 H 141.747 -0.798338 5.43973 0
M  V30 1581 H 142.972 -1.05994 6.70777 0
M  V30 1582 H 140.918 -3.10304 5.77968 0
M  V30 1583 H 140.835 -2.17426 7.24059 0
M  V30 1584 H 142.103 -3.34641 7.04014 0
M  V30 1585 N 146.332 -1.57332 0.0918853 0
M  V30 1586 C 147.262 -2.16872 -0.865371 0
M  V30 1587 C 148.243 -1.10118 -1.29646 0
M  V30 1588 O 149.428 -1.38242 -1.36392 0
M  V30 1589 C 146.558 -2.74649 -2.12569 0
M  V30 1590 C 145.512 -3.86747 -1.83333 0
M  V30 1591 C 144.838 -4.31212 -3.16166 0
M  V30 1592 C 146.138 -5.10089 -1.1228 0
M  V30 1593 H 147.832 -2.97114 -0.369307 0
M  V30 1594 H 145.378 -1.42918 -0.176194 0
M  V30 1595 H 147.331 -3.14952 -2.7997 0
M  V30 1596 H 146.055 -1.91657 -2.64452 0
M  V30 1597 H 144.714 -3.46978 -1.18331 0
M  V30 1598 H 144.362 -3.45115 -3.6593 0
M  V30 1599 H 144.062 -5.06788 -2.97388 0
M  V30 1600 H 145.586 -4.74146 -3.84731 0
M  V30 1601 H 147 -5.47582 -1.69785 0
M  V30 1602 H 145.397 -5.91073 -1.03693 0
M  V30 1603 H 146.467 -4.84786 -0.105041 0
M  V30 1604 N 147.81 0.181792 -1.56548 0
M  V30 1605 C 148.742 1.24956 -1.92142 0
M  V30 1606 C 149.755 1.41022 -0.813422 0
M  V30 1607 O 150.944 1.41212 -1.09186 0
M  V30 1608 C 148.044 2.61981 -2.14987 0
M  V30 1609 C 147.217 2.6735 -3.46183 0
M  V30 1610 C 146.276 3.85664 -3.5798 0
M  V30 1611 O 145.302 3.72148 -4.30691 0
M  V30 1612 N 146.504 5.01683 -2.92053 0
M  V30 1613 H 149.269 0.947329 -2.84334 0
M  V30 1614 H 146.83 0.371629 -1.57577 0
M  V30 1615 H 148.822 3.3958 -2.20154 0
M  V30 1616 H 147.392 2.84637 -1.2923 0
M  V30 1617 H 146.612 1.75925 -3.52766 0
M  V30 1618 H 147.9 2.67939 -4.32534 0
M  V30 1619 H 147.298 5.15564 -2.32832 0
M  V30 1620 H 145.855 5.77181 -3.0283 0
M  V30 1621 N 149.288 1.51039 0.449983 0
M  V30 1622 C 150.251 1.70863 1.5277 0
M  V30 1623 C 151.251 0.578846 1.5002 0
M  V30 1624 O 152.441 0.846213 1.52266 0
M  V30 1625 C 149.573 1.75341 2.9235 0
M  V30 1626 H 150.766 2.67034 1.36502 0
M  V30 1627 H 148.319 1.40838 0.677812 0
M  V30 1628 H 149.054 0.809383 3.14037 0
M  V30 1629 H 148.839 2.57436 2.95752 0
M  V30 1630 H 150.329 1.92559 3.70555 0
M  V30 1631 N 150.766 -0.704594 1.40972 0
M  V30 1632 C 151.676 -1.84856 1.44448 0
M  V30 1633 C 152.692 -1.70726 0.335961 0
M  V30 1634 O 153.868 -1.92799 0.582276 0
M  V30 1635 C 150.933 -3.20758 1.31587 0
M  V30 1636 C 149.994 -3.47063 2.52677 0
M  V30 1637 C 149.227 -4.76481 2.4042 0
M  V30 1638 O 149.45 -5.52341 1.42391 0
M  V30 1639 O 148.384 -5.03367 3.30007 0
M  V30 1640 H 152.21 -1.8488 2.40942 0
M  V30 1641 H 149.795 -0.85647 1.22413 0
M  V30 1642 H 151.677 -4.01913 1.26665 0
M  V30 1643 H 150.352 -3.21438 0.382049 0
M  V30 1644 H 149.259 -2.65873 2.63177 0
M  V30 1645 H 150.592 -3.5119 3.44858 0
M  V30 1646 N 152.244 -1.26651 -0.937939 0
M  V30 1647 C 153.521 -1.0313 -1.66204 0
M  V30 1648 C 153.901 0.437256 -2.06522 0
M  V30 1649 O 153.249 1.41831 -1.79154 0
M  V30 1650 C 153.459 -1.98314 -2.87181 0
M  V30 1651 C 154.807 -2.27107 -3.58758 0
M  V30 1652 O 155.831 -1.96205 -2.97291 0
M  V30 1653 O 154.69 -2.79736 -4.69479 0
M  V30 1654 H 151.784 -0.392384 -0.727986 0
M  V30 1655 H 154.33 -1.37874 -0.989382 0
M  V30 1656 H 153.102 -2.97399 -2.54302 0
M  V30 1657 H 152.725 -1.64068 -3.6217 0
M  V30 1658 N 153.722 1.14298 -1.08507 0
M  V30 1659 C 154.952 1.88945 -0.835663 0
M  V30 1660 C 155.36 1.78894 0.615928 0
M  V30 1661 O 154.703 1.1468 1.43506 0
M  V30 1662 C 154.765 3.39585 -1.17994 0
M  V30 1663 C 154.429 3.7342 -2.63451 0
M  V30 1664 C 155.426 3.73454 -3.61702 0
M  V30 1665 C 153.111 4.03368 -2.99332 0
M  V30 1666 C 155.105 4.02961 -4.93864 0
M  V30 1667 C 152.792 4.32538 -4.31687 0
M  V30 1668 C 153.79 4.32318 -5.28763 0
M  V30 1669 O 153.478 4.6078 -6.58739 0
M  V30 1670 H 153.21 0.605307 -0.300965 0
M  V30 1671 H 155.764 1.45673 -1.44806 0
M  V30 1672 H 153.994 3.83315 -0.51055 0
M  V30 1673 H 155.683 3.9554 -0.911182 0
M  V30 1674 H 156.449 3.50403 -3.35325 0
M  V30 1675 H 152.328 4.02692 -2.24411 0
M  V30 1676 H 155.872 4.02704 -5.69627 0
M  V30 1677 H 151.769 4.55059 -4.57812 0
M  V30 1678 H 152.537 4.78492 -6.64069 0
M  V30 1679 N 155.201 0.870884 1.31352 0
M  V30 1680 C 156.148 0.325425 2.28494 0
M  V30 1681 C 157.118 -0.576615 1.5577 0
M  V30 1682 O 158.303 -0.508059 1.83911 0
M  V30 1683 C 155.443 -0.466283 3.41935 0
M  V30 1684 C 154.556 0.463378 4.29508 0
M  V30 1685 C 153.691 -0.342544 5.30094 0
M  V30 1686 C 152.73 0.583486 6.09313 0
M  V30 1687 N 151.867 -0.186244 7.01853 0
M  V30 1688 H 156.707 1.15901 2.74538 0
M  V30 1689 H 154.244 0.58294 1.35056 0
M  V30 1690 H 156.202 -0.941085 4.06447 0
M  V30 1691 H 154.832 -1.26456 2.97 0
M  V30 1692 H 153.884 1.05663 3.65431 0
M  V30 1693 H 155.196 1.1734 4.84802 0
M  V30 1694 H 154.35 -0.879816 6.00287 0
M  V30 1695 H 153.089 -1.08585 4.75458 0
M  V30 1696 H 152.094 1.13251 5.3801 0
M  V30 1697 H 153.319 1.32566 6.66035 0
M  V30 1698 H 151.265 -0.912348 6.49625 0
M  V30 1699 H 151.182 0.464422 7.54572 0
M  V30 1700 H 152.45 -0.704716 7.76308 0
M  V30 1701 N 156.679 -1.44442 0.630414 0
M  V30 1702 C 157.926 -2.02052 0.134617 0
M  V30 1703 C 158.254 -1.49576 -1.24327 0
M  V30 1704 O 157.509 -0.669806 -1.83881 0
M  V30 1705 C 157.808 -3.57332 0.0697835 0
M  V30 1706 C 157.474 -4.29058 1.38635 0
M  V30 1707 C 156.136 -4.4837 1.74694 0
M  V30 1708 C 158.488 -4.69872 2.25543 0
M  V30 1709 C 155.816 -5.05756 2.97369 0
M  V30 1710 C 158.168 -5.28616 3.47487 0
M  V30 1711 C 156.832 -5.46147 3.8377 0
M  V30 1712 H 156.102 -0.739361 0.0492598 0
M  V30 1713 H 158.749 -1.73217 0.816586 0
M  V30 1714 H 157.054 -3.85577 -0.695553 0
M  V30 1715 H 158.751 -3.99637 -0.330344 0
M  V30 1716 H 155.341 -4.14357 1.09574 0
M  V30 1717 H 159.525 -4.54666 1.98979 0
M  V30 1718 H 154.781 -5.17515 3.25558 0
M  V30 1719 H 158.955 -5.59192 4.15063 0
M  V30 1720 H 156.582 -5.9038 4.7891 0
M  V30 1721 N 158.157 -0.370918 -1.53173 0
M  V30 1722 C 159.434 0.273754 -1.93675 0
M  V30 1723 C 159.814 1.65938 -1.3049 0
M  V30 1724 O 159.162 2.23698 -0.465999 0
M  V30 1725 C 159.372 0.318602 -3.47543 0
M  V30 1726 C 160.72 0.556392 -4.20939 0
M  V30 1727 O 161.744 0.399587 -3.53952 0
M  V30 1728 O 160.603 0.862133 -5.39657 0
M  V30 1729 H 157.697 0.165448 -0.810281 0
M  V30 1730 H 160.243 -0.42409 -1.64315 0
M  V30 1731 H 159.015 -0.652687 -3.85818 0
M  V30 1732 H 158.638 1.06212 -3.83151 0
M  V30 1733 N 159.635 1.57281 -0.100228 0
M  V30 1734 C 160.882 1.94537 0.562268 0
M  V30 1735 C 161.21 0.982315 1.67871 0
M  V30 1736 O 160.465 0.00280936 1.957 0
M  V30 1737 C 160.764 3.38305 1.15259 0
M  V30 1738 C 160.43 4.50618 0.159409 0
M  V30 1739 C 159.092 4.81066 -0.113741 0
M  V30 1740 C 161.444 5.18615 -0.518461 0
M  V30 1741 C 158.772 5.76835 -1.07137 0
M  V30 1742 C 161.124 6.15412 -1.46459 0
M  V30 1743 C 159.788 6.44262 -1.74592 0
M  V30 1744 H 159.058 0.711863 0.205748 0
M  V30 1745 H 161.705 1.90679 -0.17715 0
M  V30 1746 H 160.01 3.38766 1.96836 0
M  V30 1747 H 161.707 3.64435 1.67297 0
M  V30 1748 H 158.297 4.2689 0.382491 0
M  V30 1749 H 162.481 4.95264 -0.320581 0
M  V30 1750 H 157.737 5.975 -1.29628 0
M  V30 1751 H 161.911 6.67194 -1.99564 0
M  V30 1752 H 159.538 7.1828 -2.48953 0
M  V30 1753 N 161.113 -0.173488 1.56642 0
M  V30 1754 C 162.524 -0.736155 1.71574 0
M  V30 1755 C 162.875 -1.82888 0.710389 0
M  V30 1756 O 162 -2.16017 -0.1287 0
M  V30 1757 C 162.595 -1.34211 3.11083 0
M  V30 1758 C 161.154 -1.85162 3.27707 0
M  V30 1759 C 160.301 -0.729765 2.67525 0
M  V30 1760 H 163.252 0.0518786 1.58615 0
M  V30 1761 H 163.273 -2.21178 3.09613 0
M  V30 1762 H 162.785 -0.546579 3.84232 0
M  V30 1763 H 160.886 -2.67366 2.59512 0
M  V30 1764 H 160.999 -1.99855 4.35425 0
M  V30 1765 H 159.363 -1.14965 2.27278 0
M  V30 1766 H 160.146 0.0538806 3.43258 0
M  V30 1767 N 162.591 -1.51276 -0.441967 0
M  V30 1768 C 163.837 -1.63958 -1.19355 0
M  V30 1769 C 164.17 -0.352543 -1.90973 0
M  V30 1770 O 163.445 0.647627 -1.83401 0
M  V30 1771 C 163.728 -2.83979 -2.21422 0
M  V30 1772 C 163.581 -4.22646 -1.53918 0
M  V30 1773 C 164.9 -2.99521 -3.22451 0
M  V30 1774 H 162.019 -0.596709 -0.432559 0
M  V30 1775 H 164.661 -1.83748 -0.483398 0
M  V30 1776 H 162.811 -2.67237 -2.81987 0
M  V30 1777 H 164.483 -4.51045 -0.967256 0
M  V30 1778 H 162.726 -4.25558 -0.841615 0
M  V30 1779 H 163.397 -5.02609 -2.28229 0
M  V30 1780 H 165.873 -3.14944 -2.71937 0
M  V30 1781 H 164.749 -3.85072 -3.91166 0
M  V30 1782 H 165.01 -2.11391 -3.88287 0
M  V30 1783 N 164.069 0.697108 -1.41344 0
M  V30 1784 C 165.294 1.49096 -1.44171 0
M  V30 1785 C 165.719 1.88038 -0.0481568 0
M  V30 1786 O 165.077 1.54525 0.948243 0
M  V30 1787 C 165.125 2.73088 -2.3549 0
M  V30 1788 O 164.229 3.70514 -1.81088 0
M  V30 1789 H 163.57 0.448801 -0.489361 0
M  V30 1790 H 166.1 0.856992 -1.85787 0
M  V30 1791 H 166.11 3.21413 -2.51312 0
M  V30 1792 H 164.785 2.44081 -3.36745 0
M  V30 1793 H 163.362 3.29441 -1.74708 0
M  V30 1794 N 165.547 1.27147 0.931209 0
M  V30 1795 C 166.777 1.15914 1.71019 0
M  V30 1796 C 167.185 -0.287112 1.87009 0
M  V30 1797 O 166.528 -1.20761 1.38429 0
M  V30 1798 C 166.59 1.76647 3.13107 0
M  V30 1799 C 166.254 3.25807 3.20467 0
M  V30 1800 C 167.251 4.22489 3.02983 0
M  V30 1801 C 164.936 3.66452 3.43538 0
M  V30 1802 C 166.93 5.57794 3.08454 0
M  V30 1803 C 164.617 5.01888 3.48643 0
M  V30 1804 C 165.615 5.97369 3.31119 0
M  V30 1805 O 165.303 7.30337 3.35952 0
M  V30 1806 H 165.035 0.404062 0.54195 0
M  V30 1807 H 167.589 1.68457 1.17521 0
M  V30 1808 H 165.819 1.18578 3.68071 0
M  V30 1809 H 167.508 1.60179 3.72958 0
M  V30 1810 H 168.274 3.92425 2.85004 0
M  V30 1811 H 164.153 2.92611 3.5623 0
M  V30 1812 H 167.697 6.32298 2.94694 0
M  V30 1813 H 163.594 5.31609 3.66145 0
M  V30 1814 H 164.362 7.38739 3.5243 0
M  V30 1815 N 167.025 -1.13721 1.09112 0
M  V30 1816 C 167.955 -2.21148 0.749385 0
M  V30 1817 C 168.936 -1.6792 -0.271475 0
M  V30 1818 O 170.121 -1.93693 -0.140251 0
M  V30 1819 C 167.251 -3.46905 0.165659 0
M  V30 1820 C 166.205 -4.13203 1.11567 0
M  V30 1821 C 165.531 -5.33248 0.393809 0
M  V30 1822 C 166.831 -4.60912 2.45678 0
M  V30 1823 H 168.525 -2.4999 1.64758 0
M  V30 1824 H 166.071 -1.20156 0.793626 0
M  V30 1825 H 168.024 -4.21313 -0.085466 0
M  V30 1826 H 166.748 -3.17449 -0.767714 0
M  V30 1827 H 165.407 -3.40758 1.35202 0
M  V30 1828 H 165.055 -5.00054 -0.543599 0
M  V30 1829 H 164.755 -5.78552 1.02721 0
M  V30 1830 H 166.279 -6.10413 0.150908 0
M  V30 1831 H 167.693 -5.26759 2.26269 0
M  V30 1832 H 166.09 -5.16944 3.04776 0
M  V30 1833 H 167.16 -3.75603 3.06677 0
M  V30 1834 N 168.503 -0.877838 -1.30888 0
M  V30 1835 C 169.914 -0.544193 -1.78593 0
M  V30 1836 C 170.265 0.939301 -1.72254 0
M  V30 1837 O 169.39 1.7337 -1.29505 0
M  V30 1838 C 169.985 -0.98105 -3.24285 0
M  V30 1839 C 168.544 -0.698935 -3.69854 0
M  V30 1840 C 167.691 -1.168 -2.51502 0
M  V30 1841 H 170.642 -1.06278 -1.17859 0
M  V30 1842 H 170.663 -0.307009 -3.79259 0
M  V30 1843 H 170.175 -2.06079 -3.28866 0
M  V30 1844 H 168.276 0.369112 -3.70767 0
M  V30 1845 H 168.389 -1.28148 -4.61644 0
M  V30 1846 H 166.753 -0.587535 -2.47831 0
M  V30 1847 H 167.536 -2.25533 -2.58824 0
M  V30 1848 N 169.982 1.44106 -0.638065 0
M  V30 1849 C 171.23 2.01579 -0.145043 0
M  V30 1850 C 171.551 1.50496 1.24 0
M  V30 1851 O 170.821 0.711374 1.82527 0
M  V30 1852 H 169.401 0.745282 -0.05063 0
M  V30 1853 H 172.063 1.76516 -0.826327 0
M  V30 1854 H 171.159 3.11877 -0.118039 0
M  V30 1855 N 171.46 0.379036 1.52974 0
M  V30 1856 C 172.871 -0.0972525 1.86447 0
M  V30 1857 C 173.222 -1.47027 1.29914 0
M  V30 1858 O 172.347 -2.07135 0.626433 0
M  V30 1859 C 172.942 -0.183248 3.38304 0
M  V30 1860 C 171.501 -0.603812 3.71525 0
M  V30 1861 C 170.648 0.240632 2.76254 0
M  V30 1862 H 173.599 0.597316 1.4703 0
M  V30 1863 H 173.62 -1.00432 3.67006 0
M  V30 1864 H 173.132 0.816191 3.79421 0
M  V30 1865 H 171.233 -1.61099 3.35973 0
M  V30 1866 H 171.346 -0.369086 4.77676 0
M  V30 1867 H 169.71 -0.292548 2.53014 0
M  V30 1868 H 170.493 1.23786 3.20206 0
M  V30 1869 N 172.938 -1.57226 0.108567 0
M  V30 1870 C 174.184 -1.95121 -0.552761 0
M  V30 1871 C 174.517 -0.991345 -1.66991 0
M  V30 1872 O 173.792 -0.0267211 -1.94482 0
M  V30 1873 C 174.075 -3.43039 -1.09528 0
M  V30 1874 C 173.928 -4.49797 0.0177332 0
M  V30 1875 C 175.247 -3.92567 -1.98945 0
M  V30 1876 H 172.366 -0.709496 -0.199461 0
M  V30 1877 H 175.008 -1.89126 0.182011 0
M  V30 1878 H 173.158 -3.48279 -1.72146 0
M  V30 1879 H 174.83 -4.56661 0.652584 0
M  V30 1880 H 173.073 -4.284 0.682309 0
M  V30 1881 H 173.744 -5.50528 -0.402919 0
M  V30 1882 H 176.22 -3.89565 -1.46214 0
M  V30 1883 H 175.096 -4.96605 -2.33827 0
M  V30 1884 H 175.357 -3.32648 -2.91201 0
M  V30 1885 N 174.416 0.165178 -1.56732 0
M  V30 1886 C 175.363 1.2044 -1.96883 0
M  V30 1887 C 176.333 1.43664 -0.833657 0
M  V30 1888 O 177.518 1.56302 -1.09427 0
M  V30 1889 C 174.658 2.53727 -2.33916 0
M  V30 1890 C 173.771 2.3783 -3.6064 0
M  V30 1891 C 172.906 3.64026 -3.86857 0
M  V30 1892 C 171.945 3.43088 -5.06909 0
M  V30 1893 N 171.082 4.61369 -5.29229 0
M  V30 1894 H 175.922 0.854996 -2.85471 0
M  V30 1895 H 173.459 0.41076 -1.41249 0
M  V30 1896 H 175.417 3.31419 -2.53411 0
M  V30 1897 H 174.047 2.8665 -1.48431 0
M  V30 1898 H 173.099 1.51282 -3.49024 0
M  V30 1899 H 174.411 2.18308 -4.4849 0
M  V30 1900 H 173.565 4.50152 -4.06753 0
M  V30 1901 H 172.304 3.86533 -2.97394 0
M  V30 1902 H 171.309 2.55349 -4.86906 0
M  V30 1903 H 172.534 3.21997 -5.97909 0
M  V30 1904 H 170.48 4.84084 -4.42718 0
M  V30 1905 H 170.397 4.44783 -6.11313 0
M  V30 1906 H 171.665 5.48761 -5.53608 0
M  V30 1907 N 175.894 1.51508 0.433938 0
M  V30 1908 C 176.857 1.72473 1.50949 0
M  V30 1909 C 177.857 0.594725 1.49398 0
M  V30 1910 O 179.047 0.862315 1.5136 0
M  V30 1911 C 176.179 1.78431 2.90474 0
M  V30 1912 H 177.372 2.68467 1.33662 0
M  V30 1913 H 174.925 1.41549 0.662836 0
M  V30 1914 H 175.66 0.842645 3.13161 0
M  V30 1915 H 175.445 2.60558 2.93005 0
M  V30 1916 H 176.935 1.96479 3.68491 0
M  V30 1917 N 177.372 -0.689602 1.41712 0
M  V30 1918 C 178.597 -1.48329 1.44959 0
M  V30 1919 C 179.022 -1.8801 0.0581283 0
M  V30 1920 O 178.38 -1.55026 -0.940035 0
M  V30 1921 C 178.428 -2.71835 2.36935 0
M  V30 1922 O 177.532 -3.69549 1.8305 0
M  V30 1923 H 176.873 -0.446199 0.491734 0
M  V30 1924 H 179.403 -0.847127 1.86239 0
M  V30 1925 H 179.413 -3.20076 2.53013 0
M  V30 1926 H 178.088 -2.42291 3.38035 0
M  V30 1927 H 176.665 -3.2851 1.76452 0
M  V30 1928 N 178.85 -1.27639 -0.924453 0
M  V30 1929 C 180.099 -1.13549 -1.66702 0
M  V30 1930 C 180.412 0.317487 -1.93006 0
M  V30 1931 O 181.618 0.579333 -2.65247 0
M  V30 1932 C 180.074 -1.98426 -3.00259 0
M  V30 1933 C 179.682 -3.484 -2.81641 0
M  V30 1934 C 181.426 -1.92993 -3.78092 0
M  V30 1935 C 179.333 -4.25464 -4.10773 0
M  V30 1936 H 178.263 -0.421351 -0.625283 0
M  V30 1937 H 180.914 -1.52085 -1.02676 0
M  V30 1938 H 179.296 -1.52736 -3.6536 0
M  V30 1939 H 180.47 -4.01973 -2.25287 0
M  V30 1940 H 178.785 -3.55245 -2.17232 0
M  V30 1941 H 181.382 -2.47844 -4.7379 0
M  V30 1942 H 181.725 -0.904281 -4.0636 0
M  V30 1943 H 182.258 -2.36595 -3.19793 0
M  V30 1944 H 178.997 -5.28566 -3.87683 0
M  V30 1945 H 178.517 -3.76667 -4.66779 0
M  V30 1946 H 180.196 -4.34812 -4.79111 0
M  V30 1947 N 180.328 1.1314 -1.09713 0
M  V30 1948 C 181.26 2.18343 -0.697056 0
M  V30 1949 C 182.273 1.60669 0.262551 0
M  V30 1950 O 183.462 1.78435 0.0481527 0
M  V30 1951 C 180.562 3.38899 -0.00684728 0
M  V30 1952 C 179.735 4.26078 -0.988741 0
M  V30 1953 C 178.794 5.25155 -0.331394 0
M  V30 1954 O 177.82 5.60701 -0.979926 0
M  V30 1955 N 179.022 5.73271 0.913261 0
M  V30 1956 H 181.787 2.5328 -1.60216 0
M  V30 1957 H 179.348 1.28491 -0.984971 0
M  V30 1958 H 181.34 4.02255 0.444191 0
M  V30 1959 H 179.91 3.02175 0.800551 0
M  V30 1960 H 179.13 3.59453 -1.61826 0
M  V30 1961 H 180.418 4.81178 -1.65364 0
M  V30 1962 H 179.816 5.46544 1.45966 0
M  V30 1963 H 178.373 6.3855 1.30757 0
M  V30 1964 N 181.806 0.884767 1.30421 0
M  V30 1965 C 182.716 0.355398 2.31892 0
M  V30 1966 C 183.732 -0.542261 1.65335 0
M  V30 1967 O 184.908 -0.435432 1.96637 0
M  V30 1968 C 181.973 -0.421661 3.44126 0
M  V30 1969 C 181.034 0.505727 4.26311 0
M  V30 1970 C 180.267 -0.234343 5.33185 0
M  V30 1971 O 180.49 -1.46045 5.51386 0
M  V30 1972 O 179.424 0.415443 6.00465 0
M  V30 1973 H 183.25 1.19685 2.79122 0
M  V30 1974 H 180.835 0.648596 1.34587 0
M  V30 1975 H 182.717 -0.861641 4.12497 0
M  V30 1976 H 181.392 -1.23942 2.99032 0
M  V30 1977 H 180.299 0.994513 3.60639 0
M  V30 1978 H 181.632 1.28948 4.75009 0
M  V30 1979 N 183.284 -1.43765 0.645699 0
M  V30 1980 C 184.524 -2.03776 0.159542 0
M  V30 1981 C 184.888 -1.49792 -1.2011 0
M  V30 1982 O 186.089 -2.01398 -1.78023 0
M  V30 1983 C 184.36 -3.57036 0.161251 0
M  V30 1984 S 185.919 -4.3804 -0.258159 0
M  V30 1985 H 182.737 -0.707717 0.0682454 0
M  V30 1986 H 185.339 -1.75941 0.852352 0
M  V30 1987 H 184.043 -3.9383 1.15439 0
M  V30 1988 H 183.574 -3.89503 -0.552339 0
M  V30 1989 H 185.589 -4.7302 -1.49889 0
M  V30 1990 N 184.763 -0.387143 -1.52771 0
M  V30 1991 C 186.012 0.19697 -2.00736 0
M  V30 1992 C 186.325 1.48082 -1.27793 0
M  V30 1993 O 187.531 2.14485 -1.66458 0
M  V30 1994 C 185.987 0.401568 -3.57653 0
M  V30 1995 C 185.595 -0.868907 -4.39493 0
M  V30 1996 C 187.339 0.942164 -4.13912 0
M  V30 1997 C 185.246 -0.632705 -5.88006 0
M  V30 1998 H 184.176 0.0773827 -0.750019 0
M  V30 1999 H 186.827 -0.50921 -1.76293 0
M  V30 2000 H 185.209 1.16954 -3.78335 0
M  V30 2001 H 186.383 -1.64133 -4.30577 0
M  V30 2002 H 184.698 -1.33429 -3.94443 0
M  V30 2003 H 187.295 1.13455 -5.22525 0
M  V30 2004 H 187.638 1.9106 -3.69867 0
M  V30 2005 H 188.171 0.233814 -3.97112 0
M  V30 2006 H 184.91 -1.57208 -6.36369 0
M  V30 2007 H 184.43 0.100825 -5.99715 0
M  V30 2008 H 186.109 -0.26642 -6.46451 0
M  V30 2009 N 186.241 1.57166 -0.116904 0
M  V30 2010 C 187.171 2.18222 0.830759 0
M  V30 2011 C 188.152 1.12167 1.27877 0
M  V30 2012 O 189.337 1.40394 1.34176 0
M  V30 2013 C 186.467 2.77996 2.08172 0
M  V30 2014 C 185.421 3.89614 1.77157 0
M  V30 2015 C 184.747 4.36187 3.09265 0
M  V30 2016 C 186.047 5.1181 1.04151 0
M  V30 2017 H 187.741 2.97664 0.321992 0
M  V30 2018 H 185.287 1.4318 0.153434 0
M  V30 2019 H 187.24 3.19366 2.74924 0
M  V30 2020 H 185.964 1.9584 2.6137 0
M  V30 2021 H 184.623 3.48816 1.12796 0
M  V30 2022 H 184.271 3.50893 3.60393 0
M  V30 2023 H 183.971 5.11455 2.89288 0
M  V30 2024 H 185.495 4.80207 3.77139 0
M  V30 2025 H 186.909 5.50214 1.61052 0
M  V30 2026 H 185.306 5.92648 0.942762 0
M  V30 2027 H 186.376 4.84892 0.0279022 0
M  V30 2028 N 187.719 -0.156864 1.56817 0
M  V30 2029 C 189.13 -0.717916 1.72345 0
M  V30 2030 C 189.481 -1.82124 0.729747 0
M  V30 2031 O 188.606 -2.16141 -0.105781 0
M  V30 2032 C 189.201 -1.30904 3.12489 0
M  V30 2033 C 187.76 -1.81676 3.29653 0
M  V30 2034 C 186.907 -0.701349 2.68284 0
M  V30 2035 H 189.858 0.0686989 1.58551 0
M  V30 2036 H 189.879 -2.17882 3.11942 0
M  V30 2037 H 189.391 -0.505796 3.8479 0
M  V30 2038 H 187.492 -2.64598 2.62333 0
M  V30 2039 H 187.605 -1.95226 4.3752 0
M  V30 2040 H 185.969 -1.12548 2.28484 0
M  V30 2041 H 186.752 0.0902846 3.43181 0
M  V30 2042 N 189.197 -1.51736 -0.425897 0
M  V30 2043 C 190.474 -1.55519 -1.1863 0
M  V30 2044 C 190.854 -0.326219 -2.08564 0
M  V30 2045 O 190.202 0.688012 -2.17896 0
M  V30 2046 C 190.412 -2.87521 -1.9782 0
M  V30 2047 C 191.76 -3.39899 -2.54468 0
M  V30 2048 O 192.784 -2.89148 -2.08019 0
M  V30 2049 O 191.643 -4.2848 -3.39215 0
M  V30 2050 H 188.737 -0.625739 -0.540721 0
M  V30 2051 H 191.283 -1.64055 -0.434038 0
M  V30 2052 H 190.055 -3.68422 -1.31836 0
M  V30 2053 H 189.678 -2.822 -2.80088 0
M  V30 2054 N 190.675 0.682077 -1.42076 0
M  V30 2055 C 191.9 1.47558 -1.45744 0
M  V30 2056 C 192.325 1.87977 -0.0680981 0
M  V30 2057 O 191.683 1.55522 0.9318 0
M  V30 2058 C 191.731 2.70575 -2.38373 0
M  V30 2059 O 190.835 3.68573 -1.85007 0
M  V30 2060 H 190.176 0.443585 -0.494093 0
M  V30 2061 H 192.706 0.837238 -1.86686 0
M  V30 2062 H 192.716 3.18729 -2.54707 0
M  V30 2063 H 191.391 2.40495 -3.39315 0
M  V30 2064 H 189.968 3.2757 -1.78192 0
M  V30 2065 N 192.153 1.28127 0.917671 0
M  V30 2066 C 193.564 1.13622 1.48145 0
M  V30 2067 C 193.915 -0.275207 1.9426 0
M  V30 2068 O 193.04 -1.1691 1.82102 0
M  V30 2069 C 193.635 2.05648 2.69248 0
M  V30 2070 C 192.194 1.95219 3.21818 0
M  V30 2071 C 191.341 1.97618 1.94532 0
M  V30 2072 H 194.292 1.40874 0.730772 0
M  V30 2073 H 194.313 1.61818 3.44377 0
M  V30 2074 H 193.825 3.08365 2.35653 0
M  V30 2075 H 191.926 0.955244 3.60147 0
M  V30 2076 H 192.039 2.81976 3.87333 0
M  V30 2077 H 190.403 1.41973 2.11461 0
M  V30 2078 H 191.186 3.02007 1.63238 0
M  V30 2079 N 193.631 -1.12557 1.10312 0
M  V30 2080 C 194.561 -2.20341 0.772798 0
M  V30 2081 C 195.542 -1.68198 -0.25365 0
M  V30 2082 O 196.727 -1.93831 -0.119699 0
M  V30 2083 C 193.857 -3.46709 0.202443 0
M  V30 2084 C 192.811 -4.11996 1.15943 0
M  V30 2085 C 192.137 -5.328 0.450345 0
M  V30 2086 C 193.437 -4.5828 2.50552 0
M  V30 2087 H 195.131 -2.48229 1.674 0
M  V30 2088 H 192.677 -1.19308 0.806326 0
M  V30 2089 H 194.63 -4.2138 -0.0407752 0
M  V30 2090 H 193.354 -3.18245 -0.734001 0
M  V30 2091 H 192.013 -3.39305 1.38808 0
M  V30 2092 H 191.661 -5.00602 -0.490531 0
M  V30 2093 H 191.361 -5.7743 1.08851 0
M  V30 2094 H 192.885 -6.10219 0.215642 0
M  V30 2095 H 194.299 -5.2433 2.31843 0
M  V30 2096 H 192.696 -5.13683 3.10242 0
M  V30 2097 H 193.766 -3.72329 3.10643 0
M  V30 2098 N 195.109 -0.891671 -1.2995 0
M  V30 2099 C 196.339 -0.527893 -1.99742 0
M  V30 2100 C 196.747 0.88979 -1.66971 0
M  V30 2101 O 196.09 1.59766 -0.906667 0
M  V30 2102 C 196.152 -0.630804 -3.53922 0
M  V30 2103 C 195.816 -2.01401 -4.10228 0
M  V30 2104 C 196.813 -2.98422 -4.25724 0
M  V30 2105 C 194.498 -2.32121 -4.45449 0
M  V30 2106 C 196.492 -4.24293 -4.75662 0
M  V30 2107 C 194.179 -3.58237 -4.95086 0
M  V30 2108 C 195.177 -4.54137 -5.10146 0
M  V30 2109 O 194.865 -5.78014 -5.58708 0
M  V30 2110 H 194.597 -0.201953 -0.645129 0
M  V30 2111 H 197.151 -1.20076 -1.66646 0
M  V30 2112 H 195.381 0.0990616 -3.86573 0
M  V30 2113 H 197.07 -0.277338 -4.04951 0
M  V30 2114 H 197.836 -2.76001 -3.98809 0
M  V30 2115 H 193.715 -1.5824 -4.32991 0
M  V30 2116 H 197.259 -4.99153 -4.87332 0
M  V30 2117 H 193.156 -3.80491 -5.21437 0
M  V30 2118 H 193.924 -5.8049 -5.77039 0
M  V30 2119 N 196.587 1.43421 -0.653314 0
M  V30 2120 C 197.537 2.2792 0.060558 0
M  V30 2121 C 198.521 1.39906 0.794677 0
M  V30 2122 O 199.713 1.63536 0.677128 0
M  V30 2123 C 196.842 3.27603 1.0262 0
M  V30 2124 C 195.928 4.23104 0.290551 0
M  V30 2125 N 196.319 5.01031 -0.692967 0
M  V30 2126 C 194.617 4.42816 0.531984 0
M  V30 2127 C 195.318 5.70626 -1.12963 0
M  V30 2128 N 194.294 5.41617 -0.463867 0
M  V30 2129 H 198.096 2.85585 -0.694143 0
M  V30 2130 H 195.61 1.55126 -0.480602 0
M  V30 2131 H 197.607 3.86918 1.55242 0
M  V30 2132 H 196.267 2.71499 1.78096 0
M  V30 2133 H 197.278 5.0669 -1.07169 0
M  V30 2134 H 193.955 3.97782 1.26791 0
M  V30 2135 H 195.345 6.4318 -1.94343 0
M  V30 2136 N 198.065 0.39524 1.52563 0
M  V30 2137 C 199.013 -0.451859 2.28169 0
M  V30 2138 C 200.007 -1.05792 1.32304 0
M  V30 2139 O 201.213 -0.997718 1.49818 0
M  V30 2140 H 197.588 -0.164481 0.733792 0
M  V30 2141 H 199.559 0.207199 2.9768 0
M  V30 2142 C 198.308 -1.56385 3.10546 0
M  V30 2143 H 197.631 -1.10682 3.84174 0
M  V30 2144 H 199.071 -2.13067 3.66577 0
M  V30 2145 C 197.53 -2.52328 2.23231 0
M  V30 2146 O 198.06 -3.5588 1.86312 0
M  V30 2147 N 196.266 -2.22209 1.87274 0
M  V30 2148 H 195.813 -1.38033 2.17496 0
M  V30 2149 H 195.771 -2.86652 1.29143 0
M  V30 2150 N 199.544 -1.57102 0.125237 0
M  V30 2151 C 200.491 -2.15641 -0.822655 0
M  V30 2152 C 201.461 -1.08313 -1.25927 0
M  V30 2153 O 202.646 -1.36251 -1.33567 0
M  V30 2154 C 199.786 -2.76504 -2.06494 0
M  V30 2155 C 198.899 -3.98158 -1.67612 0
M  V30 2156 C 198.034 -4.47088 -2.86854 0
M  V30 2157 C 197.073 -5.6126 -2.44242 0
M  V30 2158 N 196.21 -6.04905 -3.56419 0
M  V30 2159 H 201.05 -2.96313 -0.316625 0
M  V30 2160 H 198.587 -1.46388 -0.144588 0
M  V30 2161 H 200.545 -3.09925 -2.79289 0
M  V30 2162 H 199.175 -1.98512 -2.54545 0
M  V30 2163 H 198.227 -3.70858 -0.846661 0
M  V30 2164 H 199.539 -4.80934 -1.32301 0
M  V30 2165 H 198.693 -4.82451 -3.67867 0
M  V30 2166 H 197.432 -3.63275 -3.25396 0
M  V30 2167 H 196.437 -5.25495 -1.61663 0
M  V30 2168 H 197.662 -6.46843 -2.0681 0
M  V30 2169 H 195.608 -5.24032 -3.94623 0
M  V30 2170 H 195.525 -6.82552 -3.25051 0
M  V30 2171 H 196.793 -6.44907 -4.37853 0
M  V30 2172 N 201.022 0.148545 -1.56898 0
M  V30 2173 C 202.268 0.862694 -1.83536 0
M  V30 2174 C 202.601 1.80889 -0.706604 0
M  V30 2175 O 201.876 1.92328 0.289885 0
M  V30 2176 C 202.159 1.63853 -3.20662 0
M  V30 2177 C 202.012 0.713925 -4.44098 0
M  V30 2178 C 203.331 2.60133 -3.54991 0
M  V30 2179 H 200.45 0.312179 -0.667618 0
M  V30 2180 H 203.092 0.127953 -1.89569 0
M  V30 2181 H 201.242 2.26489 -3.1565 0
M  V30 2182 H 202.914 0.098686 -4.61194 0
M  V30 2183 H 201.157 0.0234019 -4.33794 0
M  V30 2184 H 201.828 1.29278 -5.36648 0
M  V30 2185 H 204.304 2.07616 -3.60603 0
M  V30 2186 H 203.18 3.11468 -4.51972 0
M  V30 2187 H 203.441 3.41417 -2.80868 0
M  V30 2188 N 202.5 1.5196 0.417844 0
M  V30 2189 C 203.432 1.70895 1.52733 0
M  V30 2190 C 204.445 0.589405 1.51756 0
M  V30 2191 O 205.634 0.864312 1.56179 0
M  V30 2192 C 202.734 1.72627 2.91639 0
M  V30 2193 C 201.907 3.01479 3.16905 0
M  V30 2194 C 200.966 2.95139 4.35637 0
M  V30 2195 O 199.992 3.69059 4.3334 0
M  V30 2196 N 201.194 2.12328 5.40275 0
M  V30 2197 H 203.959 2.66612 1.36888 0
M  V30 2198 H 201.52 1.50089 0.607037 0
M  V30 2199 H 203.512 1.65928 3.6912 0
M  V30 2200 H 202.082 0.844216 3.00985 0
M  V30 2201 H 201.302 3.21895 2.27546 0
M  V30 2202 H 202.59 3.86736 3.30625 0
M  V30 2203 H 201.988 1.51685 5.44985 0
M  V30 2204 H 200.545 2.11494 6.16534 0
M  V30 2205 N 203.978 -0.674533 1.42435 0
M  V30 2206 C 205.225 -1.43459 1.42919 0
M  V30 2207 C 205.553 -1.94446 0.0457312 0
M  V30 2208 O 204.808 -1.7132 -0.94593 0
M  V30 2209 C 205.107 -2.64767 2.40069 0
M  V30 2210 C 204.773 -2.3232 3.86443 0
M  V30 2211 C 203.435 -2.23182 4.26314 0
M  V30 2212 C 205.787 -2.05977 4.78773 0
M  V30 2213 C 203.115 -1.85827 5.56494 0
M  V30 2214 C 205.467 -1.70125 6.09295 0
M  V30 2215 C 204.131 -1.59498 6.48164 0
M  V30 2216 H 203.401 -0.524952 0.522978 0
M  V30 2217 H 206.048 -0.769097 1.75377 0
M  V30 2218 H 204.353 -3.36349 2.00939 0
M  V30 2219 H 206.05 -3.22949 2.37707 0
M  V30 2220 H 202.64 -2.40334 3.54877 0
M  V30 2221 H 206.824 -2.11969 4.48757 0
M  V30 2222 H 202.08 -1.76168 5.8547 0
M  V30 2223 H 206.254 -1.48767 6.80324 0
M  V30 2224 H 203.881 -1.30322 7.48946 0
M  V30 2225 N 205.456 -1.28612 -0.910864 0
M  V30 2226 C 206.684 -1.18792 -1.69399 0
M  V30 2227 C 207.099 0.253039 -1.87097 0
M  V30 2228 O 206.456 1.17071 -1.40003 0
M  V30 2229 C 206.507 -1.88511 -3.08457 0
M  V30 2230 O 206.228 -3.26979 -2.91576 0
M  V30 2231 C 207.729 -1.85029 -4.02839 0
M  V30 2232 H 204.949 -0.412233 -0.529438 0
M  V30 2233 H 207.493 -1.69788 -1.13984 0
M  V30 2234 H 205.648 -1.41379 -3.60681 0
M  V30 2235 H 206.062 -3.61936 -3.79608 0
M  V30 2236 H 207.536 -2.38395 -4.97867 0
M  V30 2237 H 208.013 -0.823303 -4.31414 0
M  V30 2238 H 208.619 -2.31853 -3.56545 0
M  V30 2239 N 206.934 1.1197 -1.10907 0
M  V30 2240 C 208.345 1.65114 -0.871446 0
M  V30 2241 C 208.696 1.86885 0.597353 0
M  V30 2242 O 207.821 1.59896 1.45816 0
M  V30 2243 C 208.416 2.99944 -1.5754 0
M  V30 2244 C 206.975 3.50018 -1.38435 0
M  V30 2245 C 206.122 2.24941 -1.62164 0
M  V30 2246 H 209.073 0.956851 -1.2661 0
M  V30 2247 H 209.094 3.66651 -1.01721 0
M  V30 2248 H 208.606 2.84067 -2.64438 0
M  V30 2249 H 206.707 3.71071 -0.337214 0
M  V30 2250 H 206.82 4.29165 -2.12965 0
M  V30 2251 H 205.184 2.3229 -1.04467 0
M  V30 2252 H 205.967 2.11612 -2.70324 0
M  V30 2253 N 208.412 0.89855 1.29475 0
M  V30 2254 C 209.64 0.539261 1.99749 0
M  V30 2255 C 210.055 -0.875716 1.67262 0
M  V30 2256 O 209.412 -1.57786 0.917049 0
M  V30 2257 C 209.463 0.72061 3.54245 0
M  V30 2258 O 209.184 2.07989 3.8558 0
M  V30 2259 C 210.685 0.366118 4.41786 0
M  V30 2260 H 207.905 0.207047 0.638258 0
M  V30 2261 H 210.449 1.20758 1.65039 0
M  V30 2262 H 208.604 0.0994862 3.87272 0
M  V30 2263 H 209.018 2.10841 4.80257 0
M  V30 2264 H 210.492 0.543848 5.49314 0
M  V30 2265 H 210.969 -0.696763 4.33638 0
M  V30 2266 H 211.575 0.964135 4.14228 0
M  V30 2267 N 209.89 -1.43072 0.660911 0
M  V30 2268 C 211.138 -2.01323 0.177094 0
M  V30 2269 C 211.459 -1.5245 -1.2159 0
M  V30 2270 O 210.729 -0.740322 -1.81373 0
M  V30 2271 H 209.309 -0.744382 0.0624804 0
M  V30 2272 H 211.971 -1.75179 0.854305 0
M  V30 2273 H 211.067 -3.11649 0.167641 0
M  V30 2274 N 211.368 -0.403325 -1.52352 0
M  V30 2275 C 212.616 0.174003 -2.0135 0
M  V30 2276 C 212.937 1.46139 -1.29106 0
M  V30 2277 O 212.207 1.91448 -0.415253 0
M  V30 2278 H 210.787 0.0672911 -0.743963 0
M  V30 2279 H 213.449 -0.538235 -1.87321 0
M  V30 2280 H 212.545 0.374254 -3.09848 0
M  V30 2281 N 212.846 1.57033 -0.133567 0
M  V30 2282 C 213.776 2.1909 0.807567 0
M  V30 2283 C 214.757 1.13517 1.26681 0
M  V30 2284 O 215.942 1.41809 1.32679 0
M  V30 2285 C 213.072 2.80188 2.05212 0
M  V30 2286 C 212.026 3.91471 1.73015 0
M  V30 2287 C 211.352 4.39443 3.04622 0
M  V30 2288 C 212.652 5.12886 0.987168 0
M  V30 2289 H 214.346 2.97988 0.290403 0
M  V30 2290 H 211.892 1.43335 0.138239 0
M  V30 2291 H 213.845 3.22264 2.71521 0
M  V30 2292 H 212.569 1.98601 2.59278 0
M  V30 2293 H 211.228 3.49993 1.0909 0
M  V30 2294 H 210.876 3.54695 3.56651 0
M  V30 2295 H 210.576 5.14495 2.83847 0
M  V30 2296 H 212.1 4.8418 3.72024 0
M  V30 2297 H 213.514 5.51891 1.55208 0
M  V30 2298 H 211.911 5.93615 0.87985 0
M  V30 2299 H 212.981 4.84894 -0.0235286 0
M  V30 2300 N 214.325 -0.140222 1.56975 0
M  V30 2301 C 215.573 -0.850005 1.83356 0
M  V30 2302 C 215.894 -1.81399 0.71551 0
M  V30 2303 O 215.164 -1.94136 -0.262294 0
M  V30 2304 H 213.744 -0.316886 0.676456 0
M  V30 2305 H 216.406 -0.132608 1.94448 0
M  V30 2306 H 215.502 -1.40814 2.78528 0
M  V30 2307 N 215.803 -1.52179 -0.40978 0
M  V30 2308 C 216.733 -1.78435 -1.5061 0
M  V30 2309 C 217.714 -0.635295 -1.57791 0
M  V30 2310 O 218.899 -0.880823 -1.73076 0
M  V30 2311 C 216.029 -1.93444 -2.88439 0
M  V30 2312 C 214.983 -3.09038 -2.96108 0
M  V30 2313 C 214.309 -3.09268 -4.36185 0
M  V30 2314 C 215.609 -4.48508 -2.67652 0
M  V30 2315 H 217.303 -2.70237 -1.28889 0
M  V30 2316 H 214.849 -1.30036 -0.618605 0
M  V30 2317 H 216.802 -2.10394 -3.65119 0
M  V30 2318 H 215.526 -0.983129 -3.11452 0
M  V30 2319 H 214.185 -2.91837 -2.21872 0
M  V30 2320 H 213.833 -2.11861 -4.56206 0
M  V30 2321 H 213.533 -3.86907 -4.42241 0
M  V30 2322 H 215.057 -3.28348 -5.14801 0
M  V30 2323 H 216.471 -4.65918 -3.34056 0
M  V30 2324 H 214.868 -5.28059 -2.85085 0
M  V30 2325 H 215.938 -4.56649 -1.63095 0
M  V30 2326 N 217.281 0.66697 -1.42791 0
M  V30 2327 C 218.229 1.80157 -1.47127 0
M  V30 2328 C 219.223 1.65825 -0.346199 0
M  V30 2329 O 220.429 1.72338 -0.519572 0
M  V30 2330 H 216.804 0.594158 -0.460956 0
M  V30 2331 H 218.775 1.73619 -2.42692 0
M  V30 2332 C 217.524 3.18351 -1.39813 0
M  V30 2333 H 216.847 3.3001 -2.25684 0
M  V30 2334 H 218.287 3.97736 -1.46908 0
M  V30 2335 C 216.746 3.36707 -0.11391 0
M  V30 2336 O 217.276 3.93027 0.830241 0
M  V30 2337 N 215.482 2.90586 -0.0285295 0
M  V30 2338 H 215.029 2.4494 -0.79764 0
M  V30 2339 H 214.987 3.03245 0.830063 0
M  V30 2340 N 218.759 1.29093 0.90403 0
M  V30 2341 C 219.689 1.16401 2.02418 0
M  V30 2342 C 220.67 0.0593085 1.69997 0
M  V30 2343 O 221.855 0.238021 1.92736 0
M  V30 2344 C 218.985 0.835233 3.37107 0
M  V30 2345 C 217.939 1.89578 3.83724 0
M  V30 2346 C 217.265 1.42041 5.15489 0
M  V30 2347 C 218.565 3.30394 4.04521 0
M  V30 2348 H 220.259 2.10109 2.13295 0
M  V30 2349 H 217.805 1.01157 1.02486 0
M  V30 2350 H 219.758 0.733169 4.14973 0
M  V30 2351 H 218.482 -0.137543 3.2631 0
M  V30 2352 H 217.141 1.98715 3.08071 0
M  V30 2353 H 216.789 0.436426 5.01103 0
M  V30 2354 H 216.489 2.12964 5.4765 0
M  V30 2355 H 218.013 1.33176 5.959 0
M  V30 2356 H 219.427 3.24123 4.72882 0
M  V30 2357 H 217.824 3.99237 4.48029 0
M  V30 2358 H 218.894 3.73692 3.09002 0
M  V30 2359 N 220.237 -1.11381 1.11499 0
M  V30 2360 C 221.2 -2.15622 0.777153 0
M  V30 2361 C 222.2 -1.59504 -0.203779 0
M  V30 2362 O 223.39 -1.74188 0.020782 0
M  V30 2363 C 220.522 -3.40556 0.153116 0
M  V30 2364 H 221.715 -2.47021 1.70061 0
M  V30 2365 H 219.268 -1.26577 0.916952 0
M  V30 2366 H 220.003 -3.14767 -0.780536 0
M  V30 2367 H 219.788 -3.8257 0.859238 0
M  V30 2368 H 221.278 -4.17546 -0.0671044 0
M  V30 2369 N 221.715 -0.905404 -1.28997 0
M  V30 2370 C 222.645 -0.404212 -2.29975 0
M  V30 2371 C 223.626 0.523784 -1.61835 0
M  V30 2372 O 224.811 0.433298 -1.89304 0
M  V30 2373 C 221.941 0.364042 -3.45387 0
M  V30 2374 C 220.895 -0.474048 -4.25367 0
M  V30 2375 C 220.221 0.422045 -5.33032 0
M  V30 2376 C 221.521 -1.72696 -4.92923 0
M  V30 2377 H 223.215 -1.24807 -2.72146 0
M  V30 2378 H 220.761 -0.601585 -1.30832 0
M  V30 2379 H 222.714 0.725447 -4.15109 0
M  V30 2380 H 221.438 1.24174 -3.02074 0
M  V30 2381 H 220.097 -0.81786 -3.57361 0
M  V30 2382 H 219.745 1.29804 -4.85963 0
M  V30 2383 H 219.445 -0.135057 -5.87445 0
M  V30 2384 H 220.969 0.779517 -6.05604 0
M  V30 2385 H 222.383 -1.43495 -5.55051 0
M  V30 2386 H 220.78 -2.22582 -5.57295 0
M  V30 2387 H 221.85 -2.45964 -4.17887 0
M  V30 2388 N 223.193 1.4272 -0.668489 0
M  V30 2389 C 224.141 2.32586 0.0254857 0
M  V30 2390 C 225.135 1.49471 0.797176 0
M  V30 2391 O 226.341 1.65583 0.705853 0
M  V30 2392 H 222.716 0.751514 0.0270339 0
M  V30 2393 H 224.687 2.88823 -0.749936 0
M  V30 2394 C 223.436 3.3397 0.967427 0
M  V30 2395 H 222.759 3.97961 0.383048 0
M  V30 2396 H 224.199 3.9945 1.42181 0
M  V30 2397 C 222.658 2.65744 2.0708 0
M  V30 2398 O 223.188 2.48454 3.15648 0
M  V30 2399 N 221.394 2.2487 1.8407 0
M  V30 2400 H 220.941 2.39132 0.95778 0
M  V30 2401 H 220.899 1.79552 2.58086 0
M  V30 2402 N 224.671 0.411399 1.52136 0
M  V30 2403 C 226.082 -0.0576826 1.86611 0
M  V30 2404 C 226.433 -1.44238 1.33003 0
M  V30 2405 O 225.558 -2.05759 0.670228 0
M  V30 2406 C 226.153 -0.111448 3.38617 0
M  V30 2407 C 224.712 -0.52487 3.72723 0
M  V30 2408 C 223.859 0.299176 2.75681 0
M  V30 2409 H 226.81 0.628368 1.4573 0
M  V30 2410 H 226.831 -0.926252 3.69054 0
M  V30 2411 H 226.343 0.896488 3.77604 0
M  V30 2412 H 224.444 -1.53936 3.39315 0
M  V30 2413 H 224.557 -0.267681 4.78352 0
M  V30 2414 H 222.921 -0.238814 2.53578 0
M  V30 2415 H 223.704 1.3055 3.17508 0
M  V30 2416 N 226.149 -1.5696 0.141893 0
M  V30 2417 C 227.396 -1.9596 -0.510492 0
M  V30 2418 C 227.724 -1.02648 -1.65208 0
M  V30 2419 O 226.979 -0.0546947 -1.95624 0
M  V30 2420 C 227.278 -3.41242 -1.06249 0
M  V30 2421 C 226.944 -4.50882 -0.0398791 0
M  V30 2422 C 225.606 -4.80595 0.241247 0
M  V30 2423 C 227.958 -5.17058 0.65578 0
M  V30 2424 C 225.286 -5.73792 1.22393 0
M  V30 2425 C 227.638 -6.11313 1.62724 0
M  V30 2426 C 226.302 -6.39407 1.91612 0
M  V30 2427 H 225.572 -0.717068 -0.186802 0
M  V30 2428 H 228.219 -1.90142 0.227643 0
M  V30 2429 H 226.524 -3.43866 -1.87785 0
M  V30 2430 H 228.221 -3.68742 -1.57576 0
M  V30 2431 H 224.811 -4.27754 -0.269174 0
M  V30 2432 H 228.995 -4.94239 0.451779 0
M  V30 2433 H 224.251 -5.93853 1.45424 0
M  V30 2434 H 228.425 -6.61668 2.17183 0
M  V30 2435 H 226.052 -7.11427 2.6791 0
M  V30 2436 N 227.627 0.131896 -1.57047 0
M  V30 2437 C 228.537 1.1815 -2.02676 0
M  V30 2438 C 229.553 1.46113 -0.944824 0
M  V30 2439 O 230.729 1.57485 -1.25541 0
M  V30 2440 C 227.794 2.49139 -2.41103 0
M  V30 2441 C 226.855 2.28688 -3.63318 0
M  V30 2442 C 226.088 3.53431 -3.99903 0
M  V30 2443 O 226.311 4.60223 -3.36973 0
M  V30 2444 O 225.245 3.45198 -4.93074 0
M  V30 2445 H 229.071 0.824069 -2.92306 0
M  V30 2446 H 226.656 0.341745 -1.45439 0
M  V30 2447 H 228.538 3.26338 -2.66611 0
M  V30 2448 H 227.213 2.84382 -1.54624 0
M  V30 2449 H 226.12 1.4939 -3.42977 0
M  V30 2450 H 227.453 1.98355 -4.50462 0
M  V30 2451 N 229.106 1.52395 0.401703 0
M  V30 2452 C 230.336 1.70429 1.1678 0
M  V30 2453 C 230.744 0.416702 1.84554 0
M  V30 2454 O 230.087 -0.617697 1.73003 0
M  V30 2455 C 230.149 2.78919 2.26814 0
M  V30 2456 C 229.813 4.20437 1.79113 0
M  V30 2457 C 230.81 5.04028 1.27482 0
M  V30 2458 C 228.495 4.66704 1.85722 0
M  V30 2459 C 230.489 6.31961 0.830913 0
M  V30 2460 C 228.176 5.94625 1.40942 0
M  V30 2461 C 229.174 6.77082 0.897128 0
M  V30 2462 O 228.862 8.02607 0.455822 0
M  V30 2463 H 228.594 0.574272 0.356634 0
M  V30 2464 H 231.148 1.99767 0.477724 0
M  V30 2465 H 229.378 2.44973 2.99207 0
M  V30 2466 H 231.067 2.8548 2.88541 0
M  V30 2467 H 231.833 4.69471 1.21744 0
M  V30 2468 H 227.712 4.0262 2.24539 0
M  V30 2469 H 231.256 6.96271 0.430368 0
M  V30 2470 H 227.153 6.28688 1.46362 0
M  V30 2471 H 227.921 8.16453 0.578457 0
M  V30 2472 N 230.584 -0.659388 1.43143 0
M  V30 2473 C 231.814 -1.44513 1.47646 0
M  V30 2474 C 232.222 -1.88981 0.0910095 0
M  V30 2475 O 231.565 -1.59702 -0.907789 0
M  V30 2476 C 231.627 -2.71663 2.35456 0
M  V30 2477 C 231.291 -2.49175 3.83094 0
M  V30 2478 C 232.288 -2.1279 4.74359 0
M  V30 2479 C 229.973 -2.63691 4.27519 0
M  V30 2480 C 231.967 -1.9121 6.08044 0
M  V30 2481 C 229.654 -2.41726 5.61259 0
M  V30 2482 C 230.652 -2.0554 6.51339 0
M  V30 2483 O 230.34 -1.838 7.82606 0
M  V30 2484 H 230.072 -0.45064 0.503884 0
M  V30 2485 H 232.626 -0.816248 1.88485 0
M  V30 2486 H 230.856 -3.37089 1.89493 0
M  V30 2487 H 232.545 -3.33595 2.31235 0
M  V30 2488 H 233.311 -2.01157 4.41317 0
M  V30 2489 H 229.19 -2.90832 3.57684 0
M  V30 2490 H 232.734 -1.62889 6.78316 0
M  V30 2491 H 228.631 -2.52959 5.9387 0
M  V30 2492 H 229.399 -1.98275 7.94122 0
M  V30 2493 N 232.062 -1.29571 -0.897171 0
M  V30 2494 C 233.311 -1.1706 -1.64256 0
M  V30 2495 C 233.624 0.276476 -1.93636 0
M  V30 2496 O 234.83 0.52294 -2.66416 0
M  V30 2497 C 233.286 -2.0475 -2.95982 0
M  V30 2498 C 232.894 -3.54295 -2.74187 0
M  V30 2499 C 234.638 -2.0097 -3.73914 0
M  V30 2500 C 232.545 -4.34081 -4.01656 0
M  V30 2501 H 231.475 -0.43452 -0.616205 0
M  V30 2502 H 234.126 -1.54229 -0.994268 0
M  V30 2503 H 232.508 -1.60452 -3.62038 0
M  V30 2504 H 233.682 -4.06662 -2.1671 0
M  V30 2505 H 231.997 -3.59773 -2.09648 0
M  V30 2506 H 234.594 -2.57838 -4.68427 0
M  V30 2507 H 234.937 -0.990273 -4.0435 0
M  V30 2508 H 235.47 -2.43325 -3.14703 0
M  V30 2509 H 232.209 -5.36671 -3.76384 0
M  V30 2510 H 231.729 -3.86483 -4.58684 0
M  V30 2511 H 233.408 -4.44877 -4.69781 0
M  V30 2512 N 233.54 1.10788 -1.12088 0
M  V30 2513 C 234.787 1.82671 -0.873931 0
M  V30 2514 C 235.115 1.85004 0.600311 0
M  V30 2515 O 234.37 1.30365 1.45957 0
M  V30 2516 C 234.669 3.29294 -1.38926 0
M  V30 2517 C 234.335 3.47113 -2.87791 0
M  V30 2518 C 232.997 3.51684 -3.28439 0
M  V30 2519 C 235.349 3.52808 -3.83635 0
M  V30 2520 C 232.677 3.59513 -4.63646 0
M  V30 2521 C 235.029 3.62169 -5.18668 0
M  V30 2522 C 233.693 3.65003 -5.58864 0
M  V30 2523 H 232.963 0.668441 -0.319794 0
M  V30 2524 H 235.61 1.30613 -1.40045 0
M  V30 2525 H 233.915 3.83894 -0.783122 0
M  V30 2526 H 235.612 3.83416 -1.17443 0
M  V30 2527 H 232.202 3.4423 -2.5535 0
M  V30 2528 H 236.386 3.4853 -3.53328 0
M  V30 2529 H 231.642 3.59987 -4.94185 0
M  V30 2530 H 235.816 3.6552 -5.92763 0
M  V30 2531 H 233.443 3.70822 -6.63623 0
M  V30 2532 N 235.018 0.912232 1.28515 0
M  V30 2533 C 236.265 0.544599 1.95039 0
M  V30 2534 C 236.593 -0.911435 1.71823 0
M  V30 2535 O 235.848 -1.66317 1.03137 0
M  V30 2536 C 236.147 0.798392 3.48368 0
M  V30 2537 C 235.813 2.23374 3.91682 0
M  V30 2538 C 234.475 2.62617 4.03219 0
M  V30 2539 C 236.827 3.16786 4.13879 0
M  V30 2540 C 234.155 3.94429 4.3433 0
M  V30 2541 C 236.507 4.48161 4.46469 0
M  V30 2542 C 235.171 4.8726 4.56217 0
M  V30 2543 H 234.441 0.199283 0.7137 0
M  V30 2544 H 237.088 1.15327 1.52879 0
M  V30 2545 H 235.393 0.106908 3.91654 0
M  V30 2546 H 237.09 0.493141 3.97956 0
M  V30 2547 H 233.68 1.91922 3.83228 0
M  V30 2548 H 237.864 2.87677 4.0442 0
M  V30 2549 H 233.12 4.24426 4.40082 0
M  V30 2550 H 237.294 5.20559 4.62592 0
M  V30 2551 H 234.921 5.89431 4.80078 0
M  V30 2552 N 236.496 -1.42363 0.676048 0
M  V30 2553 C 237.743 -2.01522 0.19883 0
M  V30 2554 C 238.071 -1.53456 -1.19505 0
M  V30 2555 O 237.326 -0.727967 -1.81657 0
M  V30 2556 C 237.625 -3.56929 0.183431 0
M  V30 2557 C 237.291 -4.24431 1.52215 0
M  V30 2558 C 235.953 -4.42585 1.8887 0
M  V30 2559 C 238.305 -4.62459 2.40377 0
M  V30 2560 C 235.633 -4.96039 3.13309 0
M  V30 2561 C 237.985 -5.17294 3.64129 0
M  V30 2562 C 236.649 -5.33661 4.00951 0
M  V30 2563 H 235.919 -0.737419 0.0727571 0
M  V30 2564 H 238.566 -1.70531 0.871281 0
M  V30 2565 H 236.871 -3.87594 -0.572532 0
M  V30 2566 H 238.568 -4.00486 -0.203035 0
M  V30 2567 H 235.158 -4.10661 1.22701 0
M  V30 2568 H 239.342 -4.48105 2.13343 0
M  V30 2569 H 234.598 -5.06896 3.41857 0
M  V30 2570 H 238.772 -5.45704 4.32644 0
M  V30 2571 H 236.399 -5.74845 4.9745 0
M  V30 2572 N 237.974 -0.419461 -1.51915 0
M  V30 2573 C 238.937 0.389116 -2.25873 0
M  V30 2574 C 239.937 0.964924 -1.28631 0
M  V30 2575 O 241.127 0.842179 -1.52489 0
M  V30 2576 C 238.259 1.54874 -3.03689 0
M  V30 2577 H 239.452 -0.258799 -2.98781 0
M  V30 2578 H 237.005 -0.172209 -1.55348 0
M  V30 2579 H 237.74 2.23323 -2.35154 0
M  V30 2580 H 237.525 1.14223 -3.75094 0
M  V30 2581 H 239.015 2.12046 -3.59759 0
M  V30 2582 N 239.452 1.56882 -0.150215 0
M  V30 2583 C 240.382 2.19935 0.784284 0
M  V30 2584 C 241.363 1.14854 1.25469 0
M  V30 2585 O 242.548 1.43209 1.31168 0
M  V30 2586 C 239.678 2.82349 2.02229 0
M  V30 2587 C 238.632 3.93285 1.68853 0
M  V30 2588 C 237.958 4.42649 2.99944 0
M  V30 2589 C 239.258 5.13904 0.932714 0
M  V30 2590 H 240.952 2.9828 0.258781 0
M  V30 2591 H 238.498 1.43473 0.123029 0
M  V30 2592 H 240.451 3.25126 2.68088 0
M  V30 2593 H 239.175 2.0134 2.57157 0
M  V30 2594 H 237.834 3.5113 1.05371 0
M  V30 2595 H 237.482 3.58458 3.52869 0
M  V30 2596 H 237.182 5.17476 2.78374 0
M  V30 2597 H 238.706 4.88099 3.66868 0
M  V30 2598 H 240.12 5.53506 1.49345 0
M  V30 2599 H 238.517 5.94515 0.81684 0
M  V30 2600 H 239.587 4.84842 -0.0749568 0
M  V30 2601 N 240.93 -0.123565 1.57115 0
M  V30 2602 C 242.155 -0.850398 1.89164 0
M  V30 2603 C 242.58 -1.7286 0.741688 0
M  V30 2604 O 241.938 -1.78665 -0.307958 0
M  V30 2605 C 241.986 -1.66353 3.19936 0
M  V30 2606 O 241.09 -2.77004 3.0552 0
M  V30 2607 H 240.431 -0.235454 0.620852 0
M  V30 2608 H 242.961 -0.107335 2.04318 0
M  V30 2609 H 242.971 -2.05372 3.52543 0
M  V30 2610 H 241.646 -1.01881 4.03228 0
M  V30 2611 H 240.223 -2.41221 2.84371 0
M  V30 2612 N 242.408 -1.52605 -0.393616 0
M  V30 2613 C 243.338 -1.80022 -1.48709 0
M  V30 2614 C 244.319 -0.651995 -1.57108 0
M  V30 2615 O 245.504 -0.89913 -1.72132 0
M  V30 2616 C 242.634 -1.96492 -2.86371 0
M  V30 2617 C 241.588 -3.12161 -2.92813 0
M  V30 2618 C 240.914 -3.13877 -4.3288 0
M  V30 2619 C 242.214 -4.51322 -2.6288 0
M  V30 2620 H 243.908 -2.71589 -1.26015 0
M  V30 2621 H 241.454 -1.30684 -0.604778 0
M  V30 2622 H 243.407 -2.14255 -3.62867 0
M  V30 2623 H 242.131 -1.01611 -3.10391 0
M  V30 2624 H 240.79 -2.94173 -2.18764 0
M  V30 2625 H 240.438 -2.16687 -4.53933 0
M  V30 2626 H 240.138 -3.91576 -4.38112 0
M  V30 2627 H 241.662 -3.33789 -5.1129 0
M  V30 2628 H 243.076 -4.69435 -3.29096 0
M  V30 2629 H 241.473 -5.31053 -2.79468 0
M  V30 2630 H 242.543 -4.58353 -1.58242 0
M  V30 2631 N 243.887 0.651787 -1.4349 0
M  V30 2632 C 245.136 1.40754 -1.44469 0
M  V30 2633 C 245.449 1.95463 -0.0731845 0
M  V30 2634 O 246.655 2.71471 0.0395721 0
M  V30 2635 C 245.111 2.54735 -2.5424 0
M  V30 2636 C 244.719 2.06628 -3.97504 0
M  V30 2637 C 246.463 3.32092 -2.64414 0
M  V30 2638 C 244.37 3.17829 -4.98737 0
M  V30 2639 H 243.3 0.528862 -0.53742 0
M  V30 2640 H 245.951 0.703365 -1.69485 0
M  V30 2641 H 244.333 3.2763 -2.22428 0
M  V30 2642 H 245.507 1.40734 -4.38783 0
M  V30 2643 H 243.822 1.42146 -3.91387 0
M  V30 2644 H 246.419 4.14952 -3.37223 0
M  V30 2645 H 246.762 3.80217 -1.69532 0
M  V30 2646 H 247.295 2.66279 -2.95534 0
M  V30 2647 H 244.034 2.74671 -5.95177 0
M  V30 2648 H 243.554 3.82429 -4.62069 0
M  V30 2649 H 245.233 3.82937 -5.21505 0
M  V30 2650 N 245.365 1.30045 0.890287 0
M  V30 2651 C 246.593 1.21472 1.67487 0
M  V30 2652 C 247.008 -0.223241 1.87476 0
M  V30 2653 O 246.365 -1.14828 1.41847 0
M  V30 2654 C 246.416 1.93394 3.05419 0
M  V30 2655 O 246.137 3.31576 2.86337 0
M  V30 2656 C 247.638 1.91414 3.99844 0
M  V30 2657 H 244.858 0.420604 0.522813 0
M  V30 2658 H 247.402 1.7158 1.11268 0
M  V30 2659 H 245.557 1.47099 3.58386 0
M  V30 2660 H 245.971 3.67929 3.73802 0
M  V30 2661 H 247.445 2.46285 4.94012 0
M  V30 2662 H 247.922 0.891833 4.3005 0
M  V30 2663 H 248.528 2.37496 3.52811 0
M  V30 2664 N 246.843 -1.10192 1.12674 0
M  V30 2665 C 247.775 -2.16418 0.754701 0
M  V30 2666 C 248.788 -1.61309 -0.21986 0
M  V30 2667 O 249.977 -1.785 -0.000826841 0
M  V30 2668 C 247.077 -3.38762 0.096698 0
M  V30 2669 C 246.25 -4.23307 1.10136 0
M  V30 2670 C 245.309 -5.24092 0.470513 0
M  V30 2671 O 244.335 -5.57906 1.12824 0
M  V30 2672 N 245.537 -5.75491 -0.760948 0
M  V30 2673 H 248.302 -2.48943 1.66875 0
M  V30 2674 H 245.863 -1.25834 1.01869 0
M  V30 2675 H 247.855 -4.03291 -0.337384 0
M  V30 2676 H 246.425 -3.04192 -0.720153 0
M  V30 2677 H 245.645 -3.55036 1.71299 0
M  V30 2678 H 246.933 -4.76624 1.78064 0
M  V30 2679 H 246.331 -5.50222 -1.31424 0
M  V30 2680 H 244.888 -6.41792 -1.13781 0
M  V30 2681 N 248.321 -0.919034 -1.28029 0
M  V30 2682 C 249.268 -0.410005 -2.27129 0
M  V30 2683 C 250.238 0.518405 -1.57803 0
M  V30 2684 O 251.423 0.439451 -1.8567 0
M  V30 2685 C 248.563 0.339054 -3.4343 0
M  V30 2686 C 247.676 -0.622468 -4.27492 0
M  V30 2687 C 246.811 0.145567 -5.31001 0
M  V30 2688 C 245.85 -0.809226 -6.06727 0
M  V30 2689 N 244.987 -0.0743728 -7.02061 0
M  V30 2690 H 249.827 -1.26011 -2.70047 0
M  V30 2691 H 247.364 -0.632663 -1.328 0
M  V30 2692 H 249.322 0.789586 -4.0966 0
M  V30 2693 H 247.952 1.15346 -3.01488 0
M  V30 2694 H 247.004 -1.19153 -3.61257 0
M  V30 2695 H 248.316 -1.35252 -4.80113 0
M  V30 2696 H 247.47 0.656417 -6.03139 0
M  V30 2697 H 246.209 0.908643 -4.79161 0
M  V30 2698 H 245.214 -1.3314 -5.33436 0
M  V30 2699 H 246.439 -1.57194 -6.60656 0
M  V30 2700 H 244.385 0.670616 -6.52563 0
M  V30 2701 H 244.302 -0.744157 -7.52329 0
M  V30 2702 H 245.57 0.416109 -7.78389 0
M  V30 2703 N 249.799 1.42003 -0.683588 0
M  V30 2704 C 251.21 1.84501 -0.285736 0
M  V30 2705 C 251.561 1.57213 1.17382 0
M  V30 2706 O 250.686 1.03642 1.89966 0
M  V30 2707 C 251.281 3.34912 -0.511821 0
M  V30 2708 C 249.84 3.76025 -0.168005 0
M  V30 2709 C 248.987 2.6551 -0.799983 0
M  V30 2710 H 251.938 1.31724 -0.885119 0
M  V30 2711 H 251.959 3.79784 0.233292 0
M  V30 2712 H 251.471 3.54741 -1.57418 0
M  V30 2713 H 249.572 3.61801 0.890567 0
M  V30 2714 H 249.685 4.75141 -0.614661 0
M  V30 2715 H 248.049 2.53654 -0.230568 0
M  V30 2716 H 248.832 2.8816 -1.86597 0
M  V30 2717 N 251.277 0.427512 1.51691 0
M  V30 2718 C 252.207 -0.3796 2.30394 0
M  V30 2719 C 253.188 -1.02982 1.35384 0
M  V30 2720 O 254.373 -1.03534 1.643 0
M  V30 2721 C 251.503 -1.48649 3.1388 0
M  V30 2722 C 250.457 -0.960294 4.17088 0
M  V30 2723 C 249.783 -2.16219 4.89033 0
M  V30 2724 C 251.083 -0.00153679 5.223 0
M  V30 2725 H 252.777 0.277164 2.98114 0
M  V30 2726 H 250.323 0.134739 1.43368 0
M  V30 2727 H 252.276 -2.05826 3.67714 0
M  V30 2728 H 251 -2.1714 2.43962 0
M  V30 2729 H 249.659 -0.410806 3.64291 0
M  V30 2730 H 249.307 -2.83307 4.15628 0
M  V30 2731 H 249.007 -1.81654 5.58816 0
M  V30 2732 H 250.531 -2.73968 5.45687 0
M  V30 2733 H 251.945 -0.482687 5.71264 0
M  V30 2734 H 250.342 0.256199 5.99553 0
M  V30 2735 H 251.412 0.938174 4.75738 0
M  V30 2736 N 252.755 -1.56801 0.158532 0
M  V30 2737 C 254.166 -1.83189 -0.360366 0
M  V30 2738 C 254.517 -1.07778 -1.63946 0
M  V30 2739 O 253.642 -0.326718 -2.13919 0
M  V30 2740 C 254.237 -3.32297 -0.660595 0
M  V30 2741 C 252.796 -3.59227 -1.12398 0
M  V30 2742 C 251.943 -2.76877 -0.153097 0
M  V30 2743 H 254.894 -1.54008 0.383031 0
M  V30 2744 H 254.915 -3.4908 -1.51405 0
M  V30 2745 H 254.427 -3.87156 0.270527 0
M  V30 2746 H 252.528 -3.09766 -2.07064 0
M  V30 2747 H 252.641 -4.67632 -1.04197 0
M  V30 2748 H 251.005 -2.46319 -0.647983 0
M  V30 2749 H 251.788 -3.34511 0.77182 0
M  V30 2750 N 254.233 0.115231 -1.57178 0
M  V30 2751 C 255.479 0.82357 -1.85325 0
M  V30 2752 C 255.812 1.79349 -0.744814 0
M  V30 2753 O 255.087 1.92899 0.249024 0
M  V30 2754 C 255.37 1.57014 -3.24066 0
M  V30 2755 C 255.223 0.619565 -4.45513 0
M  V30 2756 C 256.542 2.52545 -3.60429 0
M  V30 2757 H 253.661 0.297948 -0.674089 0
M  V30 2758 H 256.303 0.0877138 -1.89797 0
M  V30 2759 H 254.453 2.19742 -3.20383 0
M  V30 2760 H 256.125 0.000837639 -4.613 0
M  V30 2761 H 254.368 -0.0686174 -4.33746 0
M  V30 2762 H 255.039 1.17866 -5.3927 0
M  V30 2763 H 257.515 1.9992 -3.64926 0
M  V30 2764 H 256.391 3.01811 -4.58477 0
M  V30 2765 H 256.652 3.35383 -2.88047 0
M  V30 2766 N 255.711 1.52812 0.385517 0
M  V30 2767 C 256.936 1.72207 1.15583 0
M  V30 2768 C 257.361 0.441034 1.82857 0
M  V30 2769 O 256.719 -0.603465 1.70962 0
M  V30 2770 C 256.767 2.87476 2.17692 0
M  V30 2771 O 255.871 2.54693 3.24354 0
M  V30 2772 H 255.212 0.572526 0.336319 0
M  V30 2773 H 257.742 1.99618 0.448744 0
M  V30 2774 H 257.752 3.13072 2.6163 0
M  V30 2775 H 256.427 3.80408 1.68115 0
M  V30 2776 H 255.004 2.3985 2.85529 0
M  V30 2777 N 257.189 -0.644168 1.43834 0
M  V30 2778 C 258.119 -1.76814 1.52509 0
M  V30 2779 C 259.1 -1.65823 0.379052 0
M  V30 2780 O 260.285 -1.84781 0.597466 0
M  V30 2781 C 257.415 -3.15288 1.4564 0
M  V30 2782 C 256.369 -3.41053 2.58586 0
M  V30 2783 C 255.695 -4.79421 2.36769 0
M  V30 2784 C 256.995 -3.34902 4.00797 0
M  V30 2785 H 258.689 -1.69812 2.46586 0
M  V30 2786 H 256.235 -0.815542 1.1868 0
M  V30 2787 H 258.188 -3.93681 1.50311 0
M  V30 2788 H 256.912 -3.23043 0.480725 0
M  V30 2789 H 255.571 -2.65035 2.53282 0
M  V30 2790 H 255.219 -4.83863 1.37424 0
M  V30 2791 H 254.919 -4.9762 3.12487 0
M  V30 2792 H 256.443 -5.6006 2.43238 0
M  V30 2793 H 257.857 -4.03218 4.07539 0
M  V30 2794 H 256.254 -3.64637 4.76613 0
M  V30 2795 H 257.324 -2.32928 4.25291 0
M  V30 2796 N 258.668 -1.30515 -0.883378 0
M  V30 2797 C 259.618 -1.13641 -1.9766 0
M  V30 2798 C 260.602 -0.0511314 -1.60819 0
M  V30 2799 O 261.794 -0.274623 -1.74857 0
M  V30 2800 C 258.923 -0.831976 -3.33066 0
M  V30 2801 C 258.009 -1.95759 -3.76217 0
M  V30 2802 N 258.4 -3.20313 -3.9145 0
M  V30 2803 C 256.698 -1.85431 -4.05625 0
M  V30 2804 C 257.399 -3.93856 -4.2808 0
M  V30 2805 N 256.375 -3.21919 -4.38029 0
M  V30 2806 H 260.177 -2.08106 -2.07531 0
M  V30 2807 H 257.691 -1.21877 -1.0733 0
M  V30 2808 H 259.688 -0.692102 -4.11115 0
M  V30 2809 H 258.348 0.104588 -3.24532 0
M  V30 2810 H 259.359 -3.55583 -3.76538 0
M  V30 2811 H 256.036 -0.991531 -4.05555 0
M  V30 2812 H 257.426 -5.01125 -4.47575 0
M  V30 2813 N 260.146 1.09593 -1.13257 0
M  V30 2814 C 261.392 1.82003 -0.89458 0
M  V30 2815 C 261.725 1.85402 0.577906 0
M  V30 2816 O 261 1.32099 1.42759 0
M  V30 2817 C 261.283 3.28237 -1.48096 0
M  V30 2818 C 261.136 3.3312 -3.02244 0
M  V30 2819 C 262.455 4.24871 -1.14774 0
M  V30 2820 H 259.574 0.66077 -0.326424 0
M  V30 2821 H 262.216 1.28389 -1.40058 0
M  V30 2822 H 260.366 3.74024 -1.05062 0
M  V30 2823 H 262.038 2.95748 -3.54021 0
M  V30 2824 H 260.281 2.72756 -3.37323 0
M  V30 2825 H 260.952 4.3613 -3.38371 0
M  V30 2826 H 263.428 3.87361 -1.51957 0
M  V30 2827 H 262.304 5.25532 -1.58452 0
M  V30 2828 H 262.565 4.42058 -0.0611849 0
M  V30 2829 N 261.624 0.925811 1.2754 0
M  V30 2830 C 263.04 0.625767 1.46821 0
M  V30 2831 C 263.24 -0.825506 1.83814 0
M  V30 2832 O 262.296 -1.60356 1.95044 0
M  V30 2833 C 263.609 1.57402 2.56213 0
M  V30 2834 C 265.157 1.58204 2.70075 0
M  V30 2835 C 265.632 2.51721 3.82623 0
M  V30 2836 N 267.123 2.49917 3.89994 0
M  V30 2837 C 267.858 3.18968 4.76494 0
M  V30 2838 N 267.354 3.97391 5.67496 0
M  V30 2839 N 269.147 3.07996 4.70208 0
M  V30 2840 H 261.298 1.86409 1.01811 0
M  V30 2841 H 263.561 0.800213 0.508295 0
M  V30 2842 H 263.267 2.60925 2.35819 0
M  V30 2843 H 263.141 1.31428 3.53563 0
M  V30 2844 H 265.528 0.554124 2.89851 0
M  V30 2845 H 265.609 1.88226 1.73218 0
M  V30 2846 H 265.253 3.54622 3.63601 0
M  V30 2847 H 265.183 2.18996 4.78903 0
M  V30 2848 H 267.674 1.9296 3.24923 0
M  V30 2849 H 267.987 4.4707 6.30356 0
M  V30 2850 H 266.332 4.01495 5.67298 0
M  V30 2851 H 269.523 2.46223 3.9811 0
M  V30 2852 H 269.696 3.6208 5.37403 0
M  V30 2853 N 263.102 -1.41638 0.69111 0
M  V30 2854 C 264.33 -2.05628 0.22909 0
M  V30 2855 C 264.745 -1.51992 -1.11999 0
M  V30 2856 O 264.102 -0.666322 -1.69901 0
M  V30 2857 C 264.153 -3.61084 0.173283 0
M  V30 2858 O 263.874 -4.12735 1.46907 0
M  V30 2859 C 265.375 -4.42213 -0.310266 0
M  V30 2860 H 262.595 -0.662327 0.107534 0
M  V30 2861 H 265.139 -1.81489 0.942438 0
M  V30 2862 H 263.294 -3.84278 -0.490858 0
M  V30 2863 H 263.708 -5.06743 1.35322 0
M  V30 2864 H 265.182 -5.51194 -0.298196 0
M  V30 2865 H 265.659 -4.1799 -1.34838 0
M  V30 2866 H 266.265 -4.24074 0.322716 0
M  V30 2867 N 264.58 -0.43555 -1.51462 0
M  V30 2868 C 265.805 0.132627 -2.06976 0
M  V30 2869 C 266.23 1.35848 -1.30104 0
M  V30 2870 O 265.588 1.78112 -0.338493 0
M  V30 2871 C 265.636 0.43523 -3.57964 0
M  V30 2872 O 264.74 1.52198 -3.83288 0
M  V30 2873 H 264.081 0.00265 -0.663995 0
M  V30 2874 H 266.611 -0.616369 -1.95095 0
M  V30 2875 H 266.621 0.686206 -4.02188 0
M  V30 2876 H 265.296 -0.460739 -4.1334 0
M  V30 2877 H 263.873 1.2611 -3.50928 0
M  V30 2878 N 266.058 1.56714 -0.166846 0
M  V30 2879 C 267.335 1.88412 0.525373 0
M  V30 2880 C 267.715 1.07602 1.81618 0
M  V30 2881 O 267.063 0.168621 2.27877 0
M  V30 2882 C 267.273 3.40363 0.771613 0
M  V30 2883 C 268.621 4.10007 1.1036 0
M  V30 2884 O 269.645 3.45655 0.860304 0
M  V30 2885 O 268.504 5.2369 1.56239 0
M  V30 2886 H 265.598 0.781587 0.270278 0
M  V30 2887 H 268.144 1.68458 -0.204946 0
M  V30 2888 H 266.916 3.91046 -0.141093 0
M  V30 2889 H 266.539 3.65914 1.55541 0
M  V30 2890 N 267.536 -0.106894 1.57237 0
M  V30 2891 C 268.776 -0.818277 1.87306 0
M  V30 2892 C 269.14 -1.76474 0.756371 0
M  V30 2893 O 270.341 -2.5186 0.939155 0
M  V30 2894 C 268.612 -1.53806 3.22612 0
M  V30 2895 S 270.171 -2.28935 3.74345 0
M  V30 2896 H 266.989 -0.272862 0.656557 0
M  V30 2897 H 269.591 -0.075988 1.95352 0
M  V30 2898 H 268.295 -0.834951 4.01817 0
M  V30 2899 H 267.826 -2.32049 3.17674 0
M  V30 2900 H 269.841 -3.54871 3.46815 0
M  V30 2901 N 269.014 -1.53014 -0.377408 0
M  V30 2902 C 269.977 -1.77957 -1.44444 0
M  V30 2903 C 270.977 -0.649763 -1.47087 0
M  V30 2904 O 272.167 -0.917897 -1.48055 0
M  V30 2905 C 269.299 -1.89089 -2.83651 0
M  V30 2906 H 270.492 -2.73243 -1.23606 0
M  V30 2907 H 268.045 -1.43912 -0.609844 0
M  V30 2908 H 268.78 -0.958293 -3.09818 0
M  V30 2909 H 268.565 -2.71254 -2.83132 0
M  V30 2910 H 270.055 -2.1002 -3.60945 0
M  V30 2911 N 270.492 0.636531 -1.44174 0
M  V30 2912 C 271.722 1.42146 -1.49927 0
M  V30 2913 C 272.13 1.88812 -0.121063 0
M  V30 2914 O 271.473 1.61126 0.882267 0
M  V30 2915 C 271.535 2.67883 -2.39748 0
M  V30 2916 C 271.199 2.43048 -3.8701 0
M  V30 2917 C 272.196 2.05216 -4.77684 0
M  V30 2918 C 269.881 2.56856 -4.3166 0
M  V30 2919 C 271.875 1.81512 -6.11009 0
M  V30 2920 C 269.562 2.32766 -5.65034 0
M  V30 2921 C 270.56 1.95152 -6.54526 0
M  V30 2922 O 270.248 1.71326 -7.85431 0
M  V30 2923 H 269.98 0.442567 -0.51099 0
M  V30 2924 H 272.534 0.786158 -1.8976 0
M  V30 2925 H 270.764 3.34032 -1.94832 0
M  V30 2926 H 272.453 3.29874 -2.36513 0
M  V30 2927 H 273.219 1.94111 -4.44462 0
M  V30 2928 H 269.098 2.85104 -3.62266 0
M  V30 2929 H 272.642 1.52077 -6.80822 0
M  V30 2930 H 268.539 2.43479 -5.97819 0
M  V30 2931 H 269.307 1.85616 -7.97176 0
M  V30 2932 N 271.97 1.30982 0.876444 0
M  V30 2933 C 273.217 1.20296 1.62896 0
M  V30 2934 C 273.545 -0.240395 1.93009 0
M  V30 2935 O 272.8 -1.18733 1.55567 0
M  V30 2936 C 273.099 1.98572 2.9716 0
M  V30 2937 C 272.765 3.48125 2.86566 0
M  V30 2938 C 271.427 3.88905 2.83383 0
M  V30 2939 C 273.779 4.43322 2.74071 0
M  V30 2940 C 271.107 5.2316 2.65556 0
M  V30 2941 C 273.459 5.77695 2.57781 0
M  V30 2942 C 272.123 6.17704 2.52979 0
M  V30 2943 H 271.393 0.440193 0.59608 0
M  V30 2944 H 274.04 1.62177 1.01837 0
M  V30 2945 H 272.345 1.49352 3.62217 0
M  V30 2946 H 274.042 1.8769 3.54364 0
M  V30 2947 H 270.632 3.15723 2.89856 0
M  V30 2948 H 274.816 4.12752 2.75589 0
M  V30 2949 H 270.072 5.53241 2.60259 0
M  V30 2950 H 274.246 6.51091 2.47089 0
M  V30 2951 H 271.873 7.21678 2.38924 0
M  V30 2952 N 273.449 -1.08991 1.13837 0
M  V30 2953 C 274.698 -1.80631 0.897509 0
M  V30 2954 C 275.011 -1.86872 -0.57777 0
M  V30 2955 O 276.217 -2.54866 -0.935701 0
M  V30 2956 C 274.673 -3.24517 1.55618 0
M  V30 2957 C 274.281 -3.26529 3.0673 0
M  V30 2958 C 276.025 -4.00882 1.3962 0
M  V30 2959 C 273.932 -4.64965 3.65461 0
M  V30 2960 H 272.862 -0.67691 0.332129 0
M  V30 2961 H 275.513 -1.2246 1.3666 0
M  V30 2962 H 273.895 -3.82778 1.01476 0
M  V30 2963 H 275.069 -2.78008 3.67489 0
M  V30 2964 H 273.384 -2.63656 3.22296 0
M  V30 2965 H 275.981 -5.03167 1.80906 0
M  V30 2966 H 276.324 -4.14896 0.341578 0
M  V30 2967 H 276.857 -3.49075 1.90766 0
M  V30 2968 H 273.596 -4.56153 4.70749 0
M  V30 2969 H 273.116 -5.13792 3.09481 0
M  V30 2970 H 274.795 -5.3394 3.654 0
M  V30 2971 N 274.927 -0.932562 -1.27047 0
M  V30 2972 C 275.857 -0.452902 -2.29066 0
M  V30 2973 C 276.838 0.489338 -1.62909 0
M  V30 2974 O 278.023 0.393046 -1.90181 0
M  V30 2975 C 275.153 0.290698 -3.46081 0
M  V30 2976 C 274.107 -0.564168 -4.24265 0
M  V30 2977 C 273.433 0.308886 -5.33807 0
M  V30 2978 C 274.733 -1.83112 -4.89149 0
M  V30 2979 H 276.427 -1.30552 -2.69437 0
M  V30 2980 H 273.973 -0.629201 -1.29526 0
M  V30 2981 H 275.926 0.637233 -4.16554 0
M  V30 2982 H 274.65 1.17738 -3.0464 0
M  V30 2983 H 273.309 -0.893477 -3.55545 0
M  V30 2984 H 272.957 1.19467 -4.88607 0
M  V30 2985 H 272.657 -0.259633 -5.87026 0
M  V30 2986 H 274.181 0.650884 -6.07121 0
M  V30 2987 H 275.595 -1.55236 -5.51883 0
M  V30 2988 H 273.992 -2.34353 -5.52448 0
M  V30 2989 H 275.062 -2.54772 -4.12576 0
M  V30 2990 N 276.405 1.4127 -0.698611 0
M  V30 2991 C 277.651 2.01478 -0.231207 0
M  V30 2992 C 277.984 1.55215 1.16713 0
M  V30 2993 O 277.259 0.764672 1.78838 0
M  V30 2994 C 277.542 3.58912 -0.292281 0
M  V30 2995 C 277.395 4.15293 -1.72778 0
M  V30 2996 C 278.714 4.38736 0.346194 0
M  V30 2997 H 275.833 0.732025 -0.0854878 0
M  V30 2998 H 278.475 1.67977 -0.887906 0
M  V30 2999 H 276.625 3.87582 0.26686 0
M  V30 3000 H 278.297 3.97486 -2.341 0
M  V30 3001 H 276.54 3.7022 -2.26096 0
M  V30 3002 H 277.211 5.24452 -1.72202 0
M  V30 3003 H 279.687 4.15897 -0.130035 0
M  V30 3004 H 278.563 5.48221 0.272932 0
M  V30 3005 H 278.824 4.18425 1.42734 0
M  V30 3006 N 277.883 0.443576 1.51229 0
M  V30 3007 C 279.16 -0.181038 1.9476 0
M  V30 3008 C 279.54 -1.59523 1.38259 0
M  V30 3009 O 278.888 -2.2122 0.572198 0
M  V30 3010 C 279.098 -0.152422 3.48667 0
M  V30 3011 C 280.446 -0.354923 4.23114 0
M  V30 3012 O 281.47 -0.230257 3.55455 0
M  V30 3013 O 280.329 -0.603674 5.43156 0
M  V30 3014 H 277.423 -0.1266 0.817252 0
M  V30 3015 H 279.969 0.502004 1.62105 0
M  V30 3016 H 278.741 0.836022 3.82265 0
M  V30 3017 H 278.364 -0.878107 3.87782 0
M  V30 3018 N 279.361 -1.56624 0.175154 0
M  V30 3019 C 280.777 -1.58571 -0.180966 0
M  V30 3020 C 280.977 -1.19065 -1.6256 0
M  V30 3021 O 280.033 -0.904044 -2.35761 0
M  V30 3022 C 281.346 -3.00522 0.103326 0
M  V30 3023 C 282.894 -3.12972 0.0418426 0
M  V30 3024 C 283.369 -4.57022 0.299175 0
M  V30 3025 N 284.86 -4.62541 0.247086 0
M  V30 3026 C 285.595 -5.71857 0.420318 0
M  V30 3027 N 285.091 -6.89717 0.652816 0
M  V30 3028 N 286.884 -5.60972 0.355957 0
M  V30 3029 H 279.035 -1.80589 1.11809 0
M  V30 3030 H 281.298 -0.837178 0.444788 0
M  V30 3031 H 281.004 -3.33916 1.10422 0
M  V30 3032 H 280.878 -3.72344 -0.603299 0
M  V30 3033 H 283.265 -2.79403 -0.949636 0
M  V30 3034 H 283.346 -2.43578 0.781238 0
M  V30 3035 H 282.99 -4.913 1.28788 0
M  V30 3036 H 282.92 -5.24579 -0.460876 0
M  V30 3037 H 285.411 -3.77829 0.0731895 0
M  V30 3038 H 285.724 -7.68911 0.774347 0
M  V30 3039 H 284.069 -6.91572 0.689476 0
M  V30 3040 H 287.26 -4.67773 0.174882 0
M  V30 3041 H 287.433 -6.46111 0.494388 0
M  V30 3042 N 280.839 0.0985539 -1.57292 0
M  V30 3043 C 282.069 0.815135 -1.8984 0
M  V30 3044 C 282.477 1.7297 -0.766679 0
M  V30 3045 O 281.82 1.81698 0.270483 0
M  V30 3046 C 281.882 1.6842 -3.17608 0
M  V30 3047 C 281.546 0.94182 -4.4719 0
M  V30 3048 C 282.543 0.273212 -5.19182 0
M  V30 3049 C 280.228 0.916927 -4.9386 0
M  V30 3050 C 282.222 -0.410361 -6.36078 0
M  V30 3051 C 279.909 0.229567 -6.10669 0
M  V30 3052 C 280.907 -0.432902 -6.81627 0
M  V30 3053 O 280.595 -1.10925 -7.9621 0
M  V30 3054 H 280.327 0.238501 -0.632529 0
M  V30 3055 H 282.881 0.0812659 -2.05239 0
M  V30 3056 H 281.111 2.46022 -2.98345 0
M  V30 3057 H 282.8 2.27704 -3.36015 0
M  V30 3058 H 283.566 0.283927 -4.84168 0
M  V30 3059 H 279.445 1.42201 -4.3852 0
M  V30 3060 H 282.989 -0.928013 -6.914 0
M  V30 3061 H 278.886 0.216686 -6.45136 0
M  V30 3062 H 279.654 -1.01579 -8.12172 0
M  V30 3063 N 282.317 1.53212 0.369288 0
M  V30 3064 C 283.247 1.82365 1.45826 0
M  V30 3065 C 284.228 0.676907 1.56051 0
M  V30 3066 O 285.413 0.926401 1.70679 0
M  V30 3067 C 282.543 2.01023 2.83208 0
M  V30 3068 C 281.497 3.1678 2.8781 0
M  V30 3069 C 280.823 3.20724 4.27832 0
M  V30 3070 C 282.123 4.55447 2.55667 0
M  V30 3071 H 283.817 2.73559 1.21678 0
M  V30 3072 H 281.363 1.3163 0.583911 0
M  V30 3073 H 283.316 2.20001 3.59413 0
M  V30 3074 H 282.04 1.06536 3.08736 0
M  V30 3075 H 280.699 2.97616 2.14056 0
M  V30 3076 H 280.347 2.23882 4.50429 0
M  V30 3077 H 280.047 3.98496 4.31827 0
M  V30 3078 H 281.571 3.41881 5.05915 0
M  V30 3079 H 282.985 4.74611 3.21586 0
M  V30 3080 H 281.382 5.35432 2.70984 0
M  V30 3081 H 282.452 4.60812 1.5093 0
M  V30 3082 N 283.795 -0.628877 1.44509 0
M  V30 3083 C 285.02 -1.42048 1.5112 0
M  V30 3084 C 285.445 -1.87594 0.137818 0
M  V30 3085 O 284.803 -1.58873 -0.873437 0
M  V30 3086 C 284.851 -2.61541 2.48251 0
M  V30 3087 O 283.955 -3.61453 1.98559 0
M  V30 3088 H 283.296 -0.424942 0.510216 0
M  V30 3089 H 285.826 -0.767374 1.89664 0
M  V30 3090 H 285.836 -3.09057 2.66361 0
M  V30 3091 H 284.511 -2.27736 3.48007 0
M  V30 3092 H 283.088 -3.20731 1.90227 0
M  V30 3093 N 285.273 -1.31445 -0.869486 0
M  V30 3094 C 286.519 -1.22347 -1.62489 0
M  V30 3095 C 286.874 0.216204 -1.91181 0
M  V30 3096 O 286.167 1.14977 -1.53268 0
M  V30 3097 C 286.361 -2.00145 -2.96102 0
M  V30 3098 C 286.19 -3.51531 -2.80456 0
M  V30 3099 C 284.96 -4.20882 -2.79618 0
M  V30 3100 C 287.158 -4.46471 -2.5528 0
M  V30 3101 N 285.14 -5.58421 -2.55027 0
M  V30 3102 C 286.511 -5.71682 -2.39957 0
M  V30 3103 C 288.566 -4.35892 -2.40629 0
M  V30 3104 C 287.269 -6.87511 -2.11472 0
M  V30 3105 C 289.295 -5.51505 -2.13532 0
M  V30 3106 C 288.657 -6.75707 -1.98998 0
M  V30 3107 H 284.756 -0.502815 -0.598917 0
M  V30 3108 H 287.34 -1.65639 -1.02332 0
M  V30 3109 H 285.511 -1.59221 -3.54264 0
M  V30 3110 H 287.243 -1.83063 -3.60929 0
M  V30 3111 H 283.998 -3.72857 -2.92018 0
M  V30 3112 H 284.422 -6.30841 -2.45701 0
M  V30 3113 H 289.064 -3.40533 -2.50593 0
M  V30 3114 H 286.782 -7.82897 -2.00245 0
M  V30 3115 H 290.368 -5.45238 -2.02995 0
M  V30 3116 H 289.248 -7.63655 -1.78326 0
M  V30 3117 N 286.751 1.08385 -1.14413 0
M  V30 3118 C 287.998 1.80776 -0.912482 0
M  V30 3119 C 288.326 1.86236 0.560934 0
M  V30 3120 O 287.581 1.33431 1.43159 0
M  V30 3121 C 287.88 3.26273 -1.45879 0
M  V30 3122 C 287.546 3.4093 -2.95089 0
M  V30 3123 C 286.208 3.44638 -3.35824 0
M  V30 3124 C 288.56 3.44591 -3.91033 0
M  V30 3125 C 285.888 3.49597 -4.71167 0
M  V30 3126 C 288.24 3.51086 -5.26233 0
M  V30 3127 C 286.904 3.53067 -5.6648 0
M  V30 3128 H 286.174 0.661507 -0.333901 0
M  V30 3129 H 288.821 1.27613 -1.42784 0
M  V30 3130 H 287.126 3.82146 -0.864376 0
M  V30 3131 H 288.823 3.80839 -1.2555 0
M  V30 3132 H 285.413 3.38736 -2.62594 0
M  V30 3133 H 289.597 3.40957 -3.60641 0
M  V30 3134 H 284.853 3.49424 -5.0171 0
M  V30 3135 H 289.027 3.52864 -6.00383 0
M  V30 3136 H 286.654 3.56662 -6.71339 0
M  V30 3137 N 288.23 0.939286 1.26551 0
M  V30 3138 C 289.16 0.465044 2.28822 0
M  V30 3139 C 290.141 -0.480692 1.63167 0
M  V30 3140 O 291.326 -0.382955 1.90387 0
M  V30 3141 C 288.456 -0.27234 3.46231 0
M  V30 3142 C 287.41 0.58666 4.2396 0
M  V30 3143 C 286.736 -0.280573 5.33963 0
M  V30 3144 C 288.036 1.85704 4.88171 0
M  V30 3145 H 289.73 1.31979 2.68741 0
M  V30 3146 H 287.276 0.636061 1.29191 0
M  V30 3147 H 289.229 -0.615133 4.16886 0
M  V30 3148 H 287.953 -1.16121 3.0526 0
M  V30 3149 H 286.612 0.91232 3.55067 0
M  V30 3150 H 286.26 -1.16874 4.89234 0
M  V30 3151 H 285.96 0.29076 5.8688 0
M  V30 3152 H 287.484 -0.618678 6.07458 0
M  V30 3153 H 288.898 1.58161 5.51052 0
M  V30 3154 H 287.295 2.37279 5.51197 0
M  V30 3155 H 288.365 2.56957 4.11219 0
M  V30 3156 N 289.708 -1.40897 0.706093 0
M  V30 3157 C 291.119 -1.84023 0.315052 0
M  V30 3158 C 291.47 -1.5906 -1.14866 0
M  V30 3159 O 290.595 -1.06651 -1.88293 0
M  V30 3160 C 291.19 -3.34055 0.565038 0
M  V30 3161 C 289.749 -3.7571 0.227806 0
M  V30 3162 C 288.896 -2.64204 0.842122 0
M  V30 3163 H 291.847 -1.303 0.905963 0
M  V30 3164 H 291.868 -3.80107 -0.172843 0
M  V30 3165 H 291.38 -3.52192 1.63042 0
M  V30 3166 H 289.481 -3.63172 -0.832895 0
M  V30 3167 H 289.594 -4.74103 0.690174 0
M  V30 3168 H 287.958 -2.53255 0.270893 0
M  V30 3169 H 288.741 -2.85155 1.91158 0
M  V30 3170 N 291.186 -0.45159 -1.50991 0
M  V30 3171 C 292.414 0.108334 -2.06616 0
M  V30 3172 C 292.829 1.35224 -1.31757 0
M  V30 3173 O 292.186 1.78475 -0.381174 0
M  V30 3174 C 292.237 0.41619 -3.59096 0
M  V30 3175 O 291.958 -0.778361 -4.3113 0
M  V30 3176 C 293.459 1.02523 -4.31282 0
M  V30 3177 H 290.679 0.00159995 -0.670998 0
M  V30 3178 H 293.223 -0.634771 -1.94399 0
M  V30 3179 H 291.378 1.10921 -3.71181 0
M  V30 3180 H 291.792 -0.511181 -5.22003 0
M  V30 3181 H 293.266 1.19053 -5.39009 0
M  V30 3182 H 293.743 2.01013 -3.905 0
M  V30 3183 H 294.349 0.371173 -4.23677 0
M  V30 3184 N 292.664 1.56529 -0.183458 0
M  V30 3185 C 293.574 2.22144 0.754272 0
M  V30 3186 C 294.59 1.21684 1.24374 0
M  V30 3187 O 295.766 1.54385 1.29333 0
M  V30 3188 C 292.831 2.85884 1.96141 0
M  V30 3189 C 291.892 4.01579 1.51765 0
M  V30 3190 C 291.125 4.6227 2.66725 0
M  V30 3191 O 291.348 4.21865 3.83909 0
M  V30 3192 O 290.282 5.51936 2.40104 0
M  V30 3193 H 294.108 3.02861 0.225527 0
M  V30 3194 H 291.693 1.49331 0.0453032 0
M  V30 3195 H 293.575 3.26253 2.66715 0
M  V30 3196 H 292.25 2.08154 2.47899 0
M  V30 3197 H 291.157 3.65856 0.781049 0
M  V30 3198 H 292.49 4.80938 1.04686 0
M  V30 3199 N 294.142 -0.090211 1.57342 0
M  V30 3200 C 295.39 -0.791241 1.85967 0
M  V30 3201 C 295.711 -1.7903 0.772859 0
M  V30 3202 O 294.981 -1.94872 -0.200398 0
M  V30 3203 H 293.561 -0.295205 0.686195 0
M  V30 3204 H 296.223 -0.0706782 1.94772 0
M  V30 3205 H 295.319 -1.31882 2.82867 0
M  V30 3206 N 295.62 -1.53406 -0.361157 0
M  V30 3207 C 296.845 -1.74024 -1.12829 0
M  V30 3208 C 297.27 -0.470069 -1.82132 0
M  V30 3209 O 296.628 0.57619 -1.719 0
M  V30 3210 C 296.676 -2.90903 -2.13091 0
M  V30 3211 O 295.78 -2.59821 -3.20261 0
M  V30 3212 H 295.121 -0.577804 -0.327168 0
M  V30 3213 H 297.651 -2.00307 -0.41693 0
M  V30 3214 H 297.661 -3.17194 -2.56616 0
M  V30 3215 H 296.336 -3.83034 -1.62042 0
M  V30 3216 H 294.913 -2.44362 -2.81677 0
M  V30 3217 N 297.098 0.621204 -1.44841 0
M  V30 3218 C 298.344 1.3826 -1.48365 0
M  V30 3219 C 298.677 1.93831 -0.119624 0
M  V30 3220 O 297.952 1.74251 0.864111 0
M  V30 3221 C 298.235 2.54058 -2.55199 0
M  V30 3222 C 298.088 2.03772 -4.00995 0
M  V30 3223 C 299.407 3.56225 -2.58442 0
M  V30 3224 H 296.526 0.501374 -0.540179 0
M  V30 3225 H 299.168 0.7015 -1.76576 0
M  V30 3226 H 297.318 3.12162 -2.31274 0
M  V30 3227 H 298.99 1.50423 -4.36086 0
M  V30 3228 H 297.233 1.34876 -4.12299 0
M  V30 3229 H 297.904 2.87185 -4.71411 0
M  V30 3230 H 300.38 3.07939 -2.79844 0
M  V30 3231 H 299.256 4.34756 -3.3508 0
M  V30 3232 H 299.517 4.10949 -1.63013 0
M  V30 3233 N 298.576 1.31904 0.862503 0
M  V30 3234 C 299.987 1.19803 1.43193 0
M  V30 3235 C 300.338 -0.192567 1.95253 0
M  V30 3236 O 299.463 -1.09081 1.86896 0
M  V30 3237 C 300.058 2.16883 2.60283 0
M  V30 3238 C 298.617 2.08692 3.13248 0
M  V30 3239 C 297.764 2.05691 1.85975 0
M  V30 3240 H 300.715 1.43846 0.670365 0
M  V30 3241 H 300.736 1.76278 3.37204 0
M  V30 3242 H 300.248 3.18083 2.22363 0
M  V30 3243 H 298.349 1.10713 3.55771 0
M  V30 3244 H 298.462 2.9815 3.75025 0
M  V30 3245 H 296.826 1.50814 2.05249 0
M  V30 3246 H 297.609 3.08659 1.50282 0
M  V30 3247 N 300.054 -1.07777 1.14986 0
M  V30 3248 C 301.465 -1.61766 0.932127 0
M  V30 3249 C 301.816 -1.88974 -0.527581 0
M  V30 3250 O 300.941 -1.65198 -1.39781 0
M  V30 3251 C 301.536 -2.93891 1.68563 0
M  V30 3252 C 300.095 -3.44639 1.5133 0
M  V30 3253 C 299.242 -2.18767 1.704 0
M  V30 3254 H 302.193 -0.909201 1.30074 0
M  V30 3255 H 302.214 -3.62623 1.15259 0
M  V30 3256 H 301.726 -2.74057 2.74799 0
M  V30 3257 H 299.827 -3.69564 0.474702 0
M  V30 3258 H 299.94 -4.20966 2.28746 0
M  V30 3259 H 298.304 -2.28253 1.13016 0
M  V30 3260 H 299.087 -2.01433 2.77992 0
M  V30 3261 N 301.532 -0.945985 -1.26051 0
M  V30 3262 C 302.943 -0.638096 -1.75457 0
M  V30 3263 C 303.294 0.846672 -1.76991 0
M  V30 3264 O 302.419 1.66262 -1.38513 0
M  V30 3265 C 303.014 -1.15157 -3.18629 0
M  V30 3266 C 301.573 -0.894004 -3.65629 0
M  V30 3267 C 300.72 -1.29967 -2.44957 0
M  V30 3268 H 303.671 -1.12376 -1.1206 0
M  V30 3269 H 303.692 -0.507615 -3.77099 0
M  V30 3270 H 303.204 -2.23222 -3.1748 0
M  V30 3271 H 301.305 0.172057 -3.72203 0
M  V30 3272 H 301.418 -1.52439 -4.54202 0
M  V30 3273 H 299.782 -0.718078 -2.44368 0
M  V30 3274 H 300.565 -2.38935 -2.46505 0
M  V30 3275 N 303.011 1.40521 -0.713556 0
M  V30 3276 C 303.941 2.33381 -0.0743864 0
M  V30 3277 C 304.922 1.52784 0.747735 0
M  V30 3278 O 306.107 1.81258 0.697071 0
M  V30 3279 C 303.237 3.36748 0.849598 0
M  V30 3280 C 302.191 4.27793 0.133247 0
M  V30 3281 C 301.517 5.21679 1.17281 0
M  V30 3282 C 302.817 5.12415 -1.01134 0
M  V30 3283 H 304.511 2.87081 -0.850007 0
M  V30 3284 H 302.057 1.38034 -0.410201 0
M  V30 3285 H 304.01 4.00648 1.30612 0
M  V30 3286 H 302.734 2.81439 1.65709 0
M  V30 3287 H 301.393 3.65342 -0.303426 0
M  V30 3288 H 301.041 4.62677 1.9733 0
M  V30 3289 H 300.741 5.83435 0.698397 0
M  V30 3290 H 302.265 5.88456 1.62947 0
M  V30 3291 H 303.679 5.69781 -0.634274 0
M  V30 3292 H 302.076 5.83203 -1.41399 0
M  V30 3293 H 303.146 4.48514 -1.84292 0
M  V30 3294 N 304.489 0.459591 1.5075 0
M  V30 3295 C 305.714 -0.0996819 2.0716 0
M  V30 3296 C 306.139 -1.33761 1.32249 0
M  V30 3297 O 305.497 -1.77551 0.366786 0
M  V30 3298 C 305.545 -0.378226 3.58611 0
M  V30 3299 O 304.649 -1.46081 3.85661 0
M  V30 3300 H 303.99 0.00791392 0.663953 0
M  V30 3301 H 306.52 0.647329 1.9409 0
M  V30 3302 H 306.53 -0.622135 4.03229 0
M  V30 3303 H 305.205 0.526439 4.12555 0
M  V30 3304 H 303.782 -1.20511 3.5289 0
M  V30 3305 N 305.967 -1.56429 0.191757 0
M  V30 3306 C 307.192 -2.02309 -0.456706 0
M  V30 3307 C 307.617 -1.07103 -1.5463 0
M  V30 3308 O 306.975 -0.0539677 -1.8122 0
M  V30 3309 C 307.023 -3.46654 -0.993159 0
M  V30 3310 O 306.127 -3.54559 -2.10622 0
M  V30 3311 H 305.468 -0.655303 -0.107114 0
M  V30 3312 H 307.998 -2.02364 0.301653 0
M  V30 3313 H 308.008 -3.86377 -1.31061 0
M  V30 3314 H 306.683 -4.1544 -0.195504 0
M  V30 3315 H 305.26 -3.26708 -1.79767 0
M  V30 3316 N 307.445 0.0818655 -1.57387 0
M  V30 3317 C 308.67 0.799946 -1.91352 0
M  V30 3318 C 309.095 1.70833 -0.787258 0
M  V30 3319 O 308.453 1.79419 0.26048 0
M  V30 3320 C 308.501 1.57812 -3.24234 0
M  V30 3321 O 307.605 2.68806 -3.12757 0
M  V30 3322 H 306.946 0.21891 -0.626877 0
M  V30 3323 H 309.476 0.0531256 -2.04531 0
M  V30 3324 H 309.486 1.95952 -3.57864 0
M  V30 3325 H 308.161 0.911548 -4.05788 0
M  V30 3326 H 306.738 2.33597 -2.90666 0
M  V30 3327 N 308.923 1.53595 0.353017 0
M  V30 3328 C 310.334 1.61937 0.929153 0
M  V30 3329 C 310.685 0.494686 1.89861 0
M  V30 3330 O 309.81 -0.377017 2.1309 0
M  V30 3331 C 310.405 2.93526 1.69199 0
M  V30 3332 C 308.964 3.04161 2.21727 0
M  V30 3333 C 308.111 2.57322 1.03348 0
M  V30 3334 H 311.062 1.58155 0.131431 0
M  V30 3335 H 311.083 2.82034 2.55416 0
M  V30 3336 H 310.595 3.75362 0.986144 0
M  V30 3337 H 308.696 2.26938 2.95516 0
M  V30 3338 H 308.809 4.09465 2.48748 0
M  V30 3339 H 307.173 2.12499 1.40414 0
M  V30 3340 H 307.956 3.41588 0.342428 0
M  V30 3341 N 310.401 -0.613514 1.45168 0
M  V30 3342 C 311.649 -1.36997 1.48581 0
M  V30 3343 C 311.97 -1.94589 0.126545 0
M  V30 3344 O 311.24 -1.76816 -0.843372 0
M  V30 3345 H 309.82 -0.508558 0.547154 0
M  V30 3346 H 312.482 -0.720853 1.81079 0
M  V30 3347 H 311.578 -2.1924 2.22127 0
M  V30 3348 N 311.879 -1.3236 -0.855495 0
M  V30 3349 C 313.127 -1.22629 -1.60644 0
M  V30 3350 C 313.448 0.212136 -1.93843 0
M  V30 3351 O 312.718 1.13666 -1.59552 0
M  V30 3352 H 311.298 -0.450882 -0.595579 0
M  V30 3353 H 313.96 -1.65871 -1.02337 0
M  V30 3354 H 313.056 -1.80832 -2.54374 0
M  V30 3355 N 313.357 1.07166 -1.15556 0
M  V30 3356 C 314.585 1.83514 -0.955519 0
M  V30 3357 C 315 1.82163 0.49621 0
M  V30 3358 O 314.357 1.23441 1.34419 0
M  V30 3359 C 314.408 3.30515 -1.46432 0
M  V30 3360 O 314.129 3.31937 -2.85918 0
M  V30 3361 C 315.63 4.23625 -1.30603 0
M  V30 3362 H 312.85 0.578926 -0.339244 0
M  V30 3363 H 315.394 1.35265 -1.53374 0
M  V30 3364 H 313.549 3.76106 -0.928584 0
M  V30 3365 H 313.963 4.23794 -3.09029 0
M  V30 3366 H 315.437 5.24831 -1.71047 0
M  V30 3367 H 315.914 4.38485 -0.250441 0
M  V30 3368 H 316.52 3.83871 -1.83094 0
M  V30 3369 N 314.835 0.952656 1.25548 0
M  V30 3370 C 316.06 0.623025 1.97821 0
M  V30 3371 C 316.485 -0.7976 1.70352 0
M  V30 3372 O 315.843 -1.53905 0.958283 0
M  V30 3373 C 315.891 0.885532 3.49558 0
M  V30 3374 O 314.995 -0.0366641 4.12384 0
M  V30 3375 H 314.336 0.237082 0.620232 0
M  V30 3376 H 316.866 1.27871 1.59719 0
M  V30 3377 H 316.876 0.811009 3.99858 0
M  V30 3378 H 315.551 1.92094 3.6888 0
M  V30 3379 H 314.128 0.0898954 3.72792 0
M  V30 3380 N 316.313 -1.40141 0.720998 0
M  V30 3381 C 317.724 -1.83678 0.334553 0
M  V30 3382 C 318.075 -1.6027 -1.13173 0
M  V30 3383 O 317.2 -1.08643 -1.87152 0
M  V30 3384 C 317.795 -3.33437 0.600437 0
M  V30 3385 C 316.354 -3.75447 0.267642 0
M  V30 3386 C 315.501 -2.63296 0.870097 0
M  V30 3387 H 318.452 -1.29331 0.919732 0
M  V30 3388 H 318.473 -3.80269 -0.132517 0
M  V30 3389 H 317.985 -3.50442 1.66768 0
M  V30 3390 H 316.086 -3.64035 -0.794329 0
M  V30 3391 H 316.199 -4.73344 0.74042 0
M  V30 3392 H 314.563 -2.52954 0.297739 0
M  V30 3393 H 315.346 -2.83112 1.94172 0
M  V30 3394 N 317.792 -0.46758 -1.50504 0
M  V30 3395 C 319.017 0.0886943 -2.0721 0
M  V30 3396 C 319.442 1.33057 -1.32956 0
M  V30 3397 O 318.8 1.77354 -0.376197 0
M  V30 3398 C 318.848 0.359202 -3.58806 0
M  V30 3399 O 317.952 1.44034 -3.8643 0
M  V30 3400 H 317.293 -0.0114349 -0.663902 0
M  V30 3401 H 319.823 -0.657613 -1.93744 0
M  V30 3402 H 319.833 0.600742 -4.03553 0
M  V30 3403 H 318.508 -0.548311 -4.1227 0
M  V30 3404 H 317.085 1.18638 -3.53524 0
M  V30 3405 N 319.27 1.56325 -0.20005 0
M  V30 3406 C 320.681 1.8408 0.31167 0
M  V30 3407 C 321.032 1.12087 1.61031 0
M  V30 3408 O 320.157 0.38332 2.12978 0
M  V30 3409 C 320.752 3.33932 0.57226 0
M  V30 3410 C 319.311 3.6208 1.02834 0
M  V30 3411 C 318.458 2.77186 0.079634 0
M  V30 3412 H 321.409 1.52939 -0.423729 0
M  V30 3413 H 321.43 3.52971 1.42096 0
M  V30 3414 H 320.942 3.86303 -0.37308 0
M  V30 3415 H 319.043 3.15147 1.98778 0
M  V30 3416 H 319.156 4.7023 0.917624 0
M  V30 3417 H 317.52 2.47951 0.582448 0
M  V30 3418 H 318.303 3.32347 -0.860238 0
M  V30 3419 N 320.748 -0.0735177 1.57428 0
M  V30 3420 C 322.159 -0.625551 1.75908 0
M  V30 3421 C 322.51 -1.78 0.825261 0
M  V30 3422 O 321.635 -2.16398 0.00893964 0
M  V30 3423 C 322.23 -1.14155 3.18989 0
M  V30 3424 C 320.789 -1.63946 3.38819 0
M  V30 3425 C 319.936 -0.558151 2.71625 0
M  V30 3426 H 322.887 0.152647 1.57964 0
M  V30 3427 H 322.908 -2.0104 3.23053 0
M  V30 3428 H 322.42 -0.301116 3.8693 0
M  V30 3429 H 320.521 -2.50321 2.7599 0
M  V30 3430 H 320.634 -1.71759 4.47253 0
M  V30 3431 H 318.998 -1.00278 2.34129 0
M  V30 3432 H 319.781 0.272071 3.4222 0
M  V30 3433 N 322.226 -1.5378 -0.344866 0
M  V30 3434 C 323.637 -1.62428 -0.920552 0
M  V30 3435 C 323.988 -0.504747 -1.89596 0
M  V30 3436 O 323.113 0.365711 -2.13287 0
M  V30 3437 C 323.708 -2.94419 -1.67639 0
M  V30 3438 C 322.267 -3.05333 -2.20111 0
M  V30 3439 C 321.414 -2.57866 -1.01982 0
M  V30 3440 H 324.365 -1.58222 -0.123042 0
M  V30 3441 H 324.386 -2.83384 -2.53917 0
M  V30 3442 H 323.898 -3.7588 -0.966224 0
M  V30 3443 H 321.999 -2.28502 -2.94308 0
M  V30 3444 H 322.112 -4.10778 -2.46573 0
M  V30 3445 H 320.476 -2.13241 -1.39285 0
M  V30 3446 H 321.259 -3.41765 -0.324308 0
M  V30 3447 N 323.704 0.605807 -1.45491 0
M  V30 3448 C 325.12 0.926751 -1.29936 0
M  V30 3449 C 325.32 1.99896 -0.253706 0
M  V30 3450 O 324.376 2.50038 0.351737 0
M  V30 3451 C 325.689 1.36599 -2.67883 0
M  V30 3452 C 327.237 1.4801 -2.75793 0
M  V30 3453 C 327.712 1.95309 -4.14268 0
M  V30 3454 N 329.203 2.0254 -4.16571 0
M  V30 3455 C 329.938 2.40363 -5.20589 0
M  V30 3456 N 329.434 2.77143 -6.34952 0
M  V30 3457 N 331.227 2.40718 -5.07948 0
M  V30 3458 H 323.378 -0.102862 -2.12151 0
M  V30 3459 H 325.641 0.016639 -0.947854 0
M  V30 3460 H 325.347 0.652306 -3.45598 0
M  V30 3461 H 325.221 2.33215 -2.96463 0
M  V30 3462 H 327.608 2.1847 -1.98381 0
M  V30 3463 H 327.689 0.497041 -2.50925 0
M  V30 3464 H 327.333 1.25436 -4.92167 0
M  V30 3465 H 327.263 2.94532 -4.3653 0
M  V30 3466 H 329.754 1.76699 -3.34045 0
M  V30 3467 H 330.067 3.0489 -7.10114 0
M  V30 3468 H 328.412 2.74834 -6.3835 0
M  V30 3469 H 331.603 2.11392 -4.1765 0
M  V30 3470 H 331.776 2.69869 -5.89131 0
M  V30 3471 N 325.182 1.32811 0.848464 0
M  V30 3472 C 326.41 1.26739 1.63538 0
M  V30 3473 C 326.825 -0.163484 1.88091 0
M  V30 3474 O 326.182 -1.10258 1.45429 0
M  V30 3475 C 326.233 2.03013 2.99112 0
M  V30 3476 O 325.954 3.40518 2.75643 0
M  V30 3477 C 327.455 2.04038 3.93552 0
M  V30 3478 H 324.675 0.437024 0.509167 0
M  V30 3479 H 327.219 1.75033 1.05753 0
M  V30 3480 H 325.374 1.58426 3.53525 0
M  V30 3481 H 325.788 3.79635 3.61908 0
M  V30 3482 H 327.262 2.61877 4.85926 0
M  V30 3483 H 327.739 1.0282 4.26995 0
M  V30 3484 H 328.345 2.486 3.45077 0
M  V30 3485 N 326.66 -1.06551 1.16123 0
M  V30 3486 C 328.071 -1.60768 0.949232 0
M  V30 3487 C 328.422 -1.89523 -0.507508 0
M  V30 3488 O 327.547 -1.66671 -1.38021 0
M  V30 3489 C 328.142 -2.92086 1.71671 0
M  V30 3490 C 326.701 -3.43015 1.54977 0
M  V30 3491 C 325.848 -2.16947 1.72711 0
M  V30 3492 H 328.799 -0.895354 1.31031 0
M  V30 3493 H 328.82 -3.6138 1.19099 0
M  V30 3494 H 328.332 -2.71127 2.7769 0
M  V30 3495 H 326.433 -3.69039 0.513873 0
M  V30 3496 H 326.546 -4.18516 2.33198 0
M  V30 3497 H 324.91 -2.27041 1.15431 0
M  V30 3498 H 325.693 -1.98473 2.80113 0
M  V30 3499 N 328.138 -0.959301 -1.25041 0
M  V30 3500 C 329.101 -0.487677 -2.23952 0
M  V30 3501 C 330.101 0.41119 -1.55454 0
M  V30 3502 O 331.291 0.207825 -1.72956 0
M  V30 3503 C 328.423 0.294807 -3.39623 0
M  V30 3504 H 329.616 -1.36198 -2.67189 0
M  V30 3505 H 327.169 -0.743042 -1.37508 0
M  V30 3506 H 327.904 1.18658 -3.01813 0
M  V30 3507 H 327.689 -0.35012 -3.90534 0
M  V30 3508 H 329.179 0.614089 -4.1306 0
M  V30 3509 N 329.616 1.39756 -0.72842 0
M  V30 3510 C 330.865 1.99879 -0.270407 0
M  V30 3511 C 331.178 1.58449 1.14688 0
M  V30 3512 O 332.384 2.11362 1.70407 0
M  V30 3513 C 330.84 3.57292 -0.43252 0
M  V30 3514 C 330.448 4.07688 -1.85727 0
M  V30 3515 C 332.192 4.24485 -0.0359507 0
M  V30 3516 C 330.099 5.5765 -1.96928 0
M  V30 3517 H 329.029 0.747689 -0.0973472 0
M  V30 3518 H 331.68 1.59837 -0.901355 0
M  V30 3519 H 330.062 3.95097 0.267219 0
M  V30 3520 H 331.236 3.81231 -2.58843 0
M  V30 3521 H 329.551 3.53135 -2.20646 0
M  V30 3522 H 332.148 5.34609 -0.0987484 0
M  V30 3523 H 332.491 4.03915 1.00787 0
M  V30 3524 H 333.024 3.9183 -0.686604 0
M  V30 3525 H 329.763 5.8309 -2.99476 0
M  V30 3526 H 329.283 5.8593 -1.28241 0
M  V30 3527 H 330.962 6.22957 -1.74737 0
M  V30 3528 N 331.094 0.475555 1.50254 0
M  V30 3529 C 332.505 0.0215174 1.86688 0
M  V30 3530 C 332.856 -1.38467 1.39001 0
M  V30 3531 O 331.981 -2.02732 0.756894 0
M  V30 3532 C 332.576 0.0322715 3.38785 0
M  V30 3533 C 331.135 -0.366314 3.74613 0
M  V30 3534 C 330.282 0.415832 2.74164 0
M  V30 3535 H 333.233 0.689612 1.42934 0
M  V30 3536 H 333.254 -0.76889 3.7265 0
M  V30 3537 H 332.766 1.05584 3.73462 0
M  V30 3538 H 330.867 -1.39406 3.45538 0
M  V30 3539 H 330.98 -0.064555 4.79057 0
M  V30 3540 H 329.344 -0.131048 2.54363 0
M  V30 3541 H 330.127 1.43899 3.11686 0
M  V30 3542 N 332.573 -1.56217 0.208337 0
M  V30 3543 C 333.82 -1.97949 -0.42692 0
M  V30 3544 C 334.148 -1.09562 -1.60706 0
M  V30 3545 O 333.403 -0.137616 -1.95216 0
M  V30 3546 C 333.702 -3.45441 -0.916797 0
M  V30 3547 C 333.368 -4.50646 0.151391 0
M  V30 3548 C 332.03 -4.79139 0.444867 0
M  V30 3549 C 334.382 -5.13811 0.874492 0
M  V30 3550 C 331.71 -5.68084 1.46619 0
M  V30 3551 C 334.062 -6.03861 1.88506 0
M  V30 3552 C 332.726 -6.30704 2.18559 0
M  V30 3553 H 331.996 -0.724345 -0.156221 0
M  V30 3554 H 334.643 -1.89006 0.308084 0
M  V30 3555 H 332.948 -3.51521 -1.73032 0
M  V30 3556 H 334.645 -3.75094 -1.41794 0
M  V30 3557 H 331.235 -4.28511 -0.0875068 0
M  V30 3558 H 335.419 -4.91879 0.660996 0
M  V30 3559 H 330.675 -5.87151 1.7048 0
M  V30 3560 H 334.849 -6.51861 2.45051 0
M  V30 3561 H 332.476 -6.99424 2.97843 0
M  V30 3562 N 334.051 0.0651679 -1.57465 0
M  V30 3563 C 335.014 1.06117 -2.03155 0
M  V30 3564 C 336.014 1.31204 -0.929632 0
M  V30 3565 O 337.204 1.26813 -1.19432 0
M  V30 3566 C 334.336 2.4032 -2.41783 0
M  V30 3567 H 335.529 0.667231 -2.92383 0
M  V30 3568 H 333.082 0.311075 -1.53173 0
M  V30 3569 H 333.817 2.84532 -1.55601 0
M  V30 3570 H 333.602 2.23451 -3.22199 0
M  V30 3571 H 335.092 3.11898 -2.77685 0
M  V30 3572 N 335.529 1.53961 0.336706 0
M  V30 3573 C 336.754 1.75797 1.10046 0
M  V30 3574 C 337.179 0.498985 1.81361 0
M  V30 3575 O 336.537 -0.548769 1.72795 0
M  V30 3576 C 336.585 2.94257 2.08436 0
M  V30 3577 O 335.689 2.64883 3.16087 0
M  V30 3578 H 335.03 0.582936 0.317934 0
M  V30 3579 H 337.56 2.00945 0.38501 0
M  V30 3580 H 337.57 3.21237 2.51537 0
M  V30 3581 H 336.245 3.85564 1.55927 0
M  V30 3582 H 334.822 2.48812 2.77753 0
M  V30 3583 N 337.007 -0.598083 1.45811 0
M  V30 3584 C 338.237 -1.38121 1.53643 0
M  V30 3585 C 338.645 -1.88425 0.171081 0
M  V30 3586 O 337.988 -1.63409 -0.839237 0
M  V30 3587 C 338.05 -2.61432 2.46766 0
M  V30 3588 C 337.714 -2.32702 3.93318 0
M  V30 3589 C 338.711 -1.92479 4.82957 0
M  V30 3590 C 336.396 -2.45321 4.38318 0
M  V30 3591 C 338.39 -1.65248 6.15607 0
M  V30 3592 C 336.077 -2.17703 5.71007 0
M  V30 3593 C 337.075 -1.7773 6.5947 0
M  V30 3594 O 336.763 -1.50441 7.89698 0
M  V30 3595 H 336.495 -0.428863 0.522544 0
M  V30 3596 H 339.049 -0.73557 1.91777 0
M  V30 3597 H 337.279 -3.28749 2.0362 0
M  V30 3598 H 338.968 -3.23487 2.45175 0
M  V30 3599 H 339.734 -1.82258 4.49452 0
M  V30 3600 H 335.613 -2.75399 3.69697 0
M  V30 3601 H 339.157 -1.33973 6.84614 0
M  V30 3602 H 335.054 -2.27544 6.04065 0
M  V30 3603 H 335.822 -1.64415 8.01817 0
M  V30 3604 N 338.485 -1.33259 -0.841409 0
M  V30 3605 C 339.733 -1.24326 -1.59334 0
M  V30 3606 C 340.054 0.191564 -1.94057 0
M  V30 3607 O 339.324 1.11967 -1.60749 0
M  V30 3608 H 337.904 -0.457174 -0.590763 0
M  V30 3609 H 340.566 -1.66947 -1.00571 0
M  V30 3610 H 339.662 -1.8352 -2.52442 0
M  V30 3611 N 339.963 1.05934 -1.16686 0
M  V30 3612 C 340.893 2.1546 -0.899949 0
M  V30 3613 C 341.874 1.69391 0.155154 0
M  V30 3614 O 343.059 1.94199 0.00648693 0
M  V30 3615 C 340.189 3.44939 -0.404241 0
M  V30 3616 C 339.143 4.04536 -1.39767 0
M  V30 3617 C 338.469 5.29268 -0.760216 0
M  V30 3618 C 339.769 4.42893 -2.76845 0
M  V30 3619 H 341.463 2.38046 -1.81588 0
M  V30 3620 H 339.009 1.14404 -0.874514 0
M  V30 3621 H 340.962 4.20901 -0.204971 0
M  V30 3622 H 339.686 3.21983 0.547206 0
M  V30 3623 H 338.345 3.30635 -1.58355 0
M  V30 3624 H 337.993 5.02611 0.197831 0
M  V30 3625 H 337.693 5.70101 -1.42332 0
M  V30 3626 H 339.217 6.07924 -0.57105 0
M  V30 3627 H 340.631 5.09921 -2.62019 0
M  V30 3628 H 339.028 4.94721 -3.39663 0
M  V30 3629 H 340.098 3.53584 -3.31823 0
M  V30 3630 N 341.441 0.965919 1.2453 0
M  V30 3631 C 342.391 0.465731 2.23193 0
M  V30 3632 C 343.375 -0.451277 1.54442 0
M  V30 3633 O 344.567 -0.282489 1.74731 0
M  V30 3634 C 341.696 -0.244511 3.42428 0
M  V30 3635 C 340.782 0.691222 4.18429 0
M  V30 3636 N 341.173 1.82771 4.71623 0
M  V30 3637 C 339.471 0.501649 4.4317 0
M  V30 3638 C 340.172 2.41285 5.29298 0
M  V30 3639 N 339.148 1.69819 5.16394 0
M  V30 3640 H 342.95 1.33291 2.61937 0
M  V30 3641 H 340.464 0.824789 1.39896 0
M  V30 3642 H 342.461 -0.620056 4.12263 0
M  V30 3643 H 341.121 -1.10815 3.05205 0
M  V30 3644 H 342.132 2.20929 4.68413 0
M  V30 3645 H 338.809 -0.318177 4.16286 0
M  V30 3646 H 340.199 3.37181 5.8117 0
M  V30 3647 N 342.919 -1.39368 0.735821 0
M  V30 3648 C 343.869 -2.27885 0.0724287 0
M  V30 3649 C 344.853 -1.44301 -0.711756 0
M  V30 3650 O 346.045 -1.67206 -0.58063 0
M  V30 3651 C 343.174 -3.33029 -0.833454 0
M  V30 3652 C 342.26 -4.24078 -0.0433749 0
M  V30 3653 N 342.651 -4.96138 0.983903 0
M  V30 3654 C 340.949 -4.45164 -0.272905 0
M  V30 3655 C 341.65 -5.63069 1.4604 0
M  V30 3656 N 340.626 -5.37991 0.778857 0
M  V30 3657 H 344.428 -2.81052 0.859467 0
M  V30 3658 H 341.942 -1.5206 0.570227 0
M  V30 3659 H 343.939 -3.95311 -1.32419 0
M  V30 3660 H 342.599 -2.81421 -1.61964 0
M  V30 3661 H 343.61 -4.9958 1.36528 0
M  V30 3662 H 340.287 -4.04497 -1.03383 0
M  V30 3663 H 341.677 -6.30755 2.31511 0
M  V30 3664 N 344.397 -0.483516 -1.5 0
M  V30 3665 C 345.625 0.0644831 -2.06799 0
M  V30 3666 C 346.04 1.32399 -1.34596 0
M  V30 3667 O 345.397 1.77626 -0.418946 0
M  V30 3668 C 345.448 0.339927 -3.59898 0
M  V30 3669 O 345.169 -0.869635 -4.29382 0
M  V30 3670 C 346.67 0.933515 -4.33359 0
M  V30 3671 H 343.89 -0.0126333 -0.670881 0
M  V30 3672 H 346.434 -0.675864 -1.93009 0
M  V30 3673 H 344.589 1.03022 -3.7345 0
M  V30 3674 H 345.003 -0.62179 -5.20801 0
M  V30 3675 H 346.477 1.07593 -5.41413 0
M  V30 3676 H 346.954 1.92685 -3.94676 0
M  V30 3677 H 347.56 0.281221 -4.24369 0
M  V30 3678 N 345.875 1.56104 -0.216619 0
M  V30 3679 C 347.1 2.0301 0.424462 0
M  V30 3680 C 347.525 1.0955 1.52907 0
M  V30 3681 O 346.883 0.0827914 1.81111 0
M  V30 3682 C 346.931 3.4819 0.937883 0
M  V30 3683 O 346.035 3.57865 2.04955 0
M  V30 3684 H 345.376 0.656925 0.0966755 0
M  V30 3685 H 347.906 2.01859 -0.33381 0
M  V30 3686 H 347.916 3.88413 1.24897 0
M  V30 3687 H 346.591 4.15699 0.129387 0
M  V30 3688 H 345.168 3.29527 1.74546 0
M  V30 3689 N 347.353 -0.0568162 1.57498 0
M  V30 3690 C 348.283 -1.06593 2.0775 0
M  V30 3691 C 349.264 -1.39448 0.974082 0
M  V30 3692 O 350.449 -1.48815 1.24771 0
M  V30 3693 C 347.579 -2.37509 2.5339 0
M  V30 3694 C 346.533 -2.1897 3.67745 0
M  V30 3695 C 345.859 -3.55402 3.99492 0
M  V30 3696 C 347.159 -1.59859 4.97235 0
M  V30 3697 H 348.853 -0.647706 2.9231 0
M  V30 3698 H 346.399 -0.310116 1.40621 0
M  V30 3699 H 348.352 -3.08409 2.87162 0
M  V30 3700 H 347.076 -2.8134 1.65878 0
M  V30 3701 H 345.735 -1.50508 3.3428 0
M  V30 3702 H 345.383 -3.9683 3.09088 0
M  V30 3703 H 345.083 -3.43831 4.76502 0
M  V30 3704 H 346.607 -4.27708 4.35773 0
M  V30 3705 H 348.021 -2.20642 5.29141 0
M  V30 3706 H 346.418 -1.58942 5.78669 0
M  V30 3707 H 347.488 -0.561506 4.81638 0
M  V30 3708 N 348.832 -1.54138 -0.328536 0
M  V30 3709 C 349.762 -1.86167 -1.40939 0
M  V30 3710 C 350.743 -0.718044 -1.54202 0
M  V30 3711 O 351.928 -0.971328 -1.68163 0
M  V30 3712 C 349.058 -2.08461 -2.77779 0
M  V30 3713 C 348.012 -3.24299 -2.7931 0
M  V30 3714 C 347.338 -3.31955 -4.19178 0
M  V30 3715 C 348.638 -4.62065 -2.43502 0
M  V30 3716 H 350.332 -2.76689 -1.14383 0
M  V30 3717 H 347.878 -1.33132 -0.548806 0
M  V30 3718 H 349.831 -2.29453 -3.53454 0
M  V30 3719 H 348.555 -1.14684 -3.05802 0
M  V30 3720 H 347.214 -3.03187 -2.0609 0
M  V30 3721 H 346.862 -2.35745 -4.44335 0
M  V30 3722 H 346.562 -4.09805 -4.2111 0
M  V30 3723 H 348.086 -3.55175 -4.96672 0
M  V30 3724 H 349.5 -4.8297 -3.08889 0
M  V30 3725 H 347.897 -5.42429 -2.56693 0
M  V30 3726 H 348.967 -4.64652 -1.38659 0
M  V30 3727 N 350.31 0.590341 -1.46126 0
M  V30 3728 C 351.257 1.69994 -1.56111 0
M  V30 3729 C 352.227 1.61065 -0.405867 0
M  V30 3730 O 353.412 1.8039 -0.621613 0
M  V30 3731 C 350.552 3.08326 -1.55013 0
M  V30 3732 C 349.665 3.27936 -2.81215 0
M  V30 3733 C 348.8 4.56473 -2.71673 0
M  V30 3734 C 347.839 4.694 -3.92849 0
M  V30 3735 N 346.976 5.89254 -3.81738 0
M  V30 3736 H 351.816 1.60797 -2.50895 0
M  V30 3737 H 349.353 0.783799 -1.24479 0
M  V30 3738 H 351.311 3.88383 -1.52362 0
M  V30 3739 H 349.941 3.16439 -0.637667 0
M  V30 3740 H 348.993 2.41536 -2.93879 0
M  V30 3741 H 350.305 3.33357 -3.71045 0
M  V30 3742 H 349.459 5.44748 -2.67085 0
M  V30 3743 H 348.198 4.53477 -1.7947 0
M  V30 3744 H 347.203 3.79544 -3.97777 0
M  V30 3745 H 348.428 4.7418 -4.86138 0
M  V30 3746 H 346.374 5.87271 -2.92317 0
M  V30 3747 H 346.291 5.95911 -4.65217 0
M  V30 3748 H 347.559 6.79981 -3.81112 0
M  V30 3749 N 351.788 1.33704 0.83433 0
M  V30 3750 C 353.204 1.13137 1.12571 0
M  V30 3751 C 353.404 -0.0747261 2.01361 0
M  V30 3752 O 352.46 -0.753647 2.4099 0
M  V30 3753 C 353.773 2.42105 1.78342 0
M  V30 3754 C 355.321 2.48054 1.90888 0
M  V30 3755 C 355.796 3.76995 2.60075 0
M  V30 3756 N 357.287 3.78092 2.67584 0
M  V30 3757 C 358.022 4.74574 3.21818 0
M  V30 3758 N 357.518 5.81434 3.76705 0
M  V30 3759 N 359.311 4.62044 3.20112 0
M  V30 3760 H 351.462 2.11 0.243489 0
M  V30 3761 H 353.725 0.932532 0.17055 0
M  V30 3762 H 353.431 3.30391 1.20561 0
M  V30 3763 H 353.305 2.54594 2.7832 0
M  V30 3764 H 355.692 1.60215 2.47821 0
M  V30 3765 H 355.773 2.39502 0.898459 0
M  V30 3766 H 355.417 4.65219 2.03799 0
M  V30 3767 H 355.347 3.82825 3.61597 0
M  V30 3768 H 357.838 3.00865 2.28667 0
M  V30 3769 H 358.151 6.51084 4.16305 0
M  V30 3770 H 356.496 5.85163 3.7498 0
M  V30 3771 H 359.687 3.77716 2.76493 0
M  V30 3772 H 359.86 5.37406 3.62076 0
M  V30 3773 N 353.266 -1.05314 1.17247 0
M  V30 3774 C 354.216 -2.11313 0.856196 0
M  V30 3775 C 355.2 -1.60013 -0.168694 0
M  V30 3776 O 356.392 -1.76968 0.0335624 0
M  V30 3777 C 353.521 -3.41301 0.369917 0
M  V30 3778 C 352.607 -3.99401 1.42616 0
M  V30 3779 N 352.998 -4.31481 2.63928 0
M  V30 3780 C 351.296 -4.27126 1.28373 0
M  V30 3781 C 351.997 -4.77799 3.31787 0
M  V30 3782 N 350.973 -4.77843 2.59166 0
M  V30 3783 H 354.775 -2.33976 1.77856 0
M  V30 3784 H 352.289 -1.2295 1.06099 0
M  V30 3785 H 354.286 -4.16713 0.124897 0
M  V30 3786 H 352.946 -3.20072 -0.546253 0
M  V30 3787 H 353.957 -4.21519 3.00902 0
M  V30 3788 H 350.634 -4.15289 0.429111 0
M  V30 3789 H 352.024 -5.11743 4.35395 0
M  V30 3790 N 354.744 -0.972509 -1.24016 0
M  V30 3791 C 355.993 -0.632603 -1.91523 0
M  V30 3792 C 356.306 0.836641 -1.76804 0
M  V30 3793 O 357.512 1.28728 -2.39043 0
M  V30 3794 C 355.968 -1.08082 -3.43287 0
M  V30 3795 C 355.576 -2.57386 -3.66683 0
M  V30 3796 C 357.32 -0.814288 -4.16617 0
M  V30 3797 C 355.227 -2.95915 -5.12043 0
M  V30 3798 H 354.157 -0.232898 -0.717129 0
M  V30 3799 H 356.808 -1.17936 -1.40582 0
M  V30 3800 H 355.19 -0.462339 -3.93292 0
M  V30 3801 H 356.364 -3.24405 -3.27258 0
M  V30 3802 H 354.679 -2.81701 -3.06649 0
M  V30 3803 H 357.276 -1.0781 -5.23718 0
M  V30 3804 H 357.619 0.24955 -4.15551 0
M  V30 3805 H 358.152 -1.39397 -3.72577 0
M  V30 3806 H 354.891 -4.0139 -5.18234 0
M  V30 3807 H 354.411 -2.33584 -5.52448 0
M  V30 3808 H 356.09 -2.86086 -5.80314 0
M  V30 3809 N 356.222 1.38976 -0.743202 0
M  V30 3810 C 357.447 2.05161 -0.303936 0
M  V30 3811 C 357.872 1.55677 1.05576 0
M  V30 3812 O 357.23 0.704131 1.67068 0
M  V30 3813 C 357.278 3.59138 -0.324373 0
M  V30 3814 O 356.382 4.06668 0.685204 0
M  V30 3815 H 355.723 0.649815 -0.136518 0
M  V30 3816 H 358.253 1.77852 -1.01142 0
M  V30 3817 H 358.263 4.07639 -0.171618 0
M  V30 3818 H 356.938 3.94515 -1.31647 0
M  V30 3819 H 355.515 3.69561 0.497913 0
M  V30 3820 N 357.7 0.491464 1.49741 0
M  V30 3821 C 358.65 -0.311086 2.25868 0
M  V30 3822 C 359.634 -0.943857 1.30308 0
M  V30 3823 O 360.826 -0.853035 1.55088 0
M  V30 3824 C 357.955 -1.38059 3.14316 0
M  V30 3825 C 357.041 -0.754541 4.17334 0
M  V30 3826 N 357.432 0.137216 5.05614 0
M  V30 3827 C 355.73 -1.01621 4.34269 0
M  V30 3828 C 356.431 0.494614 5.79593 0
M  V30 3829 N 355.407 -0.135169 5.43432 0
M  V30 3830 H 359.209 0.37555 2.91491 0
M  V30 3831 H 356.723 0.306917 1.59473 0
M  V30 3832 H 358.72 -1.96891 3.67477 0
M  V30 3833 H 357.38 -2.06901 2.50244 0
M  V30 3834 H 358.391 0.50741 5.15408 0
M  V30 3835 H 355.068 -1.69808 3.81407 0
M  V30 3836 H 356.458 1.2236 6.60665 0
M  V30 3837 N 359.178 -1.55987 0.224894 0
M  V30 3838 C 360.11 -2.17722 -0.716224 0
M  V30 3839 C 361.123 -1.14723 -1.15509 0
M  V30 3840 O 362.312 -1.41688 -1.08567 0
M  V30 3841 C 359.412 -2.74873 -1.98238 0
M  V30 3842 C 358.585 -4.03074 -1.69853 0
M  V30 3843 C 357.644 -4.44757 -2.81208 0
M  V30 3844 O 356.67 -5.11587 -2.49534 0
M  V30 3845 N 357.872 -4.10716 -4.10235 0
M  V30 3846 H 360.637 -2.99109 -0.188123 0
M  V30 3847 H 358.198 -1.6184 0.0440123 0
M  V30 3848 H 360.19 -2.99727 -2.7193 0
M  V30 3849 H 358.76 -1.9777 -2.42086 0
M  V30 3850 H 357.98 -3.86041 -0.797875 0
M  V30 3851 H 359.268 -4.86701 -1.48324 0
M  V30 3852 H 358.666 -3.57019 -4.38809 0
M  V30 3853 H 357.223 -4.40455 -4.80461 0
M  V30 3854 N 360.656 0.0484629 -1.57525 0
M  V30 3855 C 361.884 0.755421 -1.92616 0
M  V30 3856 C 362.299 1.69919 -0.822984 0
M  V30 3857 O 361.656 1.81378 0.202085 0
M  V30 3858 C 361.707 1.52915 -3.27566 0
M  V30 3859 O 361.428 0.62329 -4.33644 0
M  V30 3860 C 362.929 2.33502 -3.76818 0
M  V30 3861 H 360.149 0.213465 -0.63614 0
M  V30 3862 H 362.693 0.0117698 -2.04497 0
M  V30 3863 H 360.848 2.22486 -3.17142 0
M  V30 3864 H 361.262 1.16383 -5.11425 0
M  V30 3865 H 362.736 2.83214 -4.73808 0
M  V30 3866 H 363.213 3.14068 -3.07014 0
M  V30 3867 H 363.819 1.69043 -3.90262 0
M  V30 3868 N 362.134 1.5431 0.320358 0
M  V30 3869 C 363.359 1.76954 1.08175 0
M  V30 3870 C 363.784 0.518193 1.80821 0
M  V30 3871 O 363.142 -0.530411 1.73368 0
M  V30 3872 C 363.19 2.96451 2.05303 0
M  V30 3873 O 362.294 2.68221 3.13259 0
M  V30 3874 H 361.635 0.586275 0.311733 0
M  V30 3875 H 364.165 2.01342 0.363676 0
M  V30 3876 H 364.175 3.23887 2.48116 0
M  V30 3877 H 362.85 3.87196 1.51829 0
M  V30 3878 H 361.427 2.51744 2.75099 0
M  V30 3879 N 363.613 -0.582584 1.46437 0
M  V30 3880 C 364.859 -1.34278 1.51978 0
M  V30 3881 C 365.192 -1.93446 0.170973 0
M  V30 3882 O 364.467 -1.76481 -0.817608 0
M  V30 3883 C 364.75 -2.47203 2.61845 0
M  V30 3884 C 364.603 -1.93069 4.06257 0
M  V30 3885 C 365.922 -3.49247 2.67795 0
M  V30 3886 H 363.041 -0.486876 0.553282 0
M  V30 3887 H 365.683 -0.654437 1.78374 0
M  V30 3888 H 363.833 -3.0592 2.39469 0
M  V30 3889 H 365.505 -1.38808 4.3992 0
M  V30 3890 H 363.748 -1.23898 4.1573 0
M  V30 3891 H 364.419 -2.74586 4.7886 0
M  V30 3892 H 366.895 -3.00411 2.8791 0
M  V30 3893 H 365.771 -4.25719 3.46489 0
M  V30 3894 H 366.032 -4.06482 1.73852 0
M  V30 3895 N 365.091 -1.34144 -0.827227 0
M  V30 3896 C 366.039 -1.25364 -1.95925 0
M  V30 3897 C 367.033 -0.152608 -1.68711 0
M  V30 3898 O 368.239 -0.317311 -1.77181 0
M  V30 3899 H 364.614 -0.389342 -0.643364 0
M  V30 3900 H 366.585 -2.21045 -2.00454 0
M  V30 3901 C 365.334 -1.02158 -3.32354 0
M  V30 3902 H 364.657 -1.86111 -3.5384 0
M  V30 3903 H 366.097 -1.00048 -4.12027 0
M  V30 3904 C 364.556 0.275244 -3.35774 0
M  V30 3905 O 365.086 1.27806 -3.80826 0
M  V30 3906 N 363.292 0.306853 -2.88975 0
M  V30 3907 H 362.839 -0.509777 -2.52506 0
M  V30 3908 H 362.797 1.17432 -2.91646 0
M  V30 3909 N 366.569 1.04691 -1.17803 0
M  V30 3910 C 367.532 2.10724 -0.901545 0
M  V30 3911 C 368.532 1.6042 0.110437 0
M  V30 3912 O 369.722 1.7377 -0.122303 0
M  V30 3913 C 366.854 3.39084 -0.351409 0
M  V30 3914 H 368.047 2.36686 -1.84174 0
M  V30 3915 H 365.6 1.21015 -0.98919 0
M  V30 3916 H 366.335 3.18782 0.59569 0
M  V30 3917 H 366.12 3.76909 -1.08083 0
M  V30 3918 H 367.61 4.17227 -0.176451 0
M  V30 3919 N 368.047 0.979072 1.23499 0
M  V30 3920 C 369.324 0.563674 1.87302 0
M  V30 3921 C 369.704 -0.959199 1.88049 0
M  V30 3922 O 369.052 -1.83535 1.36114 0
M  V30 3923 C 369.262 1.16822 3.28867 0
M  V30 3924 C 370.61 1.26014 4.0547 0
M  V30 3925 O 371.634 1.12158 3.38082 0
M  V30 3926 O 370.493 1.48044 5.26066 0
M  V30 3927 H 367.587 0.189602 0.804972 0
M  V30 3928 H 370.133 1.07407 1.31384 0
M  V30 3929 H 368.905 2.21049 3.22883 0
M  V30 3930 H 368.528 0.642564 3.92373 0
M  V30 3931 N 369.525 -1.3858 0.750561 0
M  V30 3932 C 370.936 -1.82927 0.373438 0
M  V30 3933 C 371.287 -1.62634 -1.09748 0
M  V30 3934 O 370.412 -1.12588 -1.84805 0
M  V30 3935 C 371.007 -3.32088 0.671029 0
M  V30 3936 C 369.566 -3.74795 0.34722 0
M  V30 3937 C 368.713 -2.61391 0.92575 0
M  V30 3938 H 371.664 -1.27351 0.946958 0
M  V30 3939 H 371.685 -3.80465 -0.0518269 0
M  V30 3940 H 371.197 -3.46826 1.74164 0
M  V30 3941 H 369.298 -3.65638 -0.716933 0
M  V30 3942 H 369.411 -4.71667 0.840656 0
M  V30 3943 H 367.775 -2.52265 0.351327 0
M  V30 3944 H 368.558 -2.78929 2.00133 0
M  V30 3945 N 371.003 -0.499398 -1.49478 0
M  V30 3946 C 371.966 0.268838 -2.27618 0
M  V30 3947 C 372.966 0.895383 -1.33565 0
M  V30 3948 O 374.156 0.760164 -1.56739 0
M  V30 3949 C 371.288 1.38559 -3.11471 0
M  V30 3950 H 372.481 -0.416812 -2.96989 0
M  V30 3951 H 370.034 -0.254313 -1.54217 0
M  V30 3952 H 370.769 2.10544 -2.46661 0
M  V30 3953 H 370.554 0.941797 -3.80621 0
M  V30 3954 H 372.044 1.92678 -3.70493 0
M  V30 3955 N 372.481 1.55866 -0.233164 0
M  V30 3956 C 373.706 2.03449 0.402906 0
M  V30 3957 C 374.131 1.11166 1.51736 0
M  V30 3958 O 373.489 0.101996 1.81013 0
M  V30 3959 C 373.537 3.49165 0.9009 0
M  V30 3960 O 372.641 3.60019 2.01147 0
M  V30 3961 H 371.982 0.657913 0.0897025 0
M  V30 3962 H 374.512 2.01493 -0.355201 0
M  V30 3963 H 374.522 3.89716 1.2077 0
M  V30 3964 H 373.197 4.15813 0.0852889 0
M  V30 3965 H 371.774 3.3136 1.71042 0
M  V30 3966 N 373.959 -0.0401083 1.57549 0
M  V30 3967 C 374.909 -1.05175 2.02292 0
M  V30 3968 C 375.893 -1.32674 0.910294 0
M  V30 3969 O 377.085 -1.32444 1.17421 0
M  V30 3970 C 374.214 -2.35622 2.49674 0
M  V30 3971 C 373.3 -2.11261 3.67736 0
M  V30 3972 N 373.691 -1.56923 4.80842 0
M  V30 3973 C 371.989 -2.41596 3.74897 0
M  V30 3974 C 372.69 -1.48111 5.62528 0
M  V30 3975 N 371.666 -1.95282 5.07312 0
M  V30 3976 H 375.468 -0.625455 2.87168 0
M  V30 3977 H 372.982 -0.246624 1.60516 0
M  V30 3978 H 374.979 -3.08893 2.79983 0
M  V30 3979 H 373.639 -2.7894 1.662 0
M  V30 3980 H 374.65 -1.25345 5.02503 0
M  V30 3981 H 371.327 -2.88064 3.02201 0
M  V30 3982 H 372.717 -1.06683 6.63377 0
M  V30 3983 N 375.437 -1.54477 -0.31217 0
M  V30 3984 C 376.347 -1.87695 -1.4074 0
M  V30 3985 C 377.363 -0.769975 -1.56036 0
M  V30 3986 O 378.539 -1.06537 -1.70915 0
M  V30 3987 C 375.604 -2.10755 -2.75287 0
M  V30 3988 C 374.665 -3.34514 -2.69071 0
M  V30 3989 C 373.898 -3.56465 -3.97201 0
M  V30 3990 O 374.121 -2.81637 -4.96021 0
M  V30 3991 O 373.055 -4.49964 -3.9977 0
M  V30 3992 H 376.881 -2.80849 -1.15574 0
M  V30 3993 H 374.466 -1.40526 -0.507228 0
M  V30 3994 H 376.348 -2.27188 -3.54913 0
M  V30 3995 H 375.023 -1.20788 -3.0032 0
M  V30 3996 H 373.93 -3.23456 -1.87955 0
M  V30 3997 H 375.263 -4.24575 -2.48992 0
M  V30 3998 N 376.915 0.57481 -1.46744 0
M  V30 3999 C 378.164 1.32898 -1.51727 0
M  V30 4000 C 378.477 1.948 -0.176692 0
M  V30 4001 O 379.683 2.71299 -0.104385 0
M  V30 4002 C 378.139 2.40901 -2.67385 0
M  V30 4003 C 377.747 1.85266 -4.07898 0
M  V30 4004 C 379.491 3.17609 -2.81646 0
M  V30 4005 C 377.398 2.90945 -5.14883 0
M  V30 4006 H 376.328 0.499631 -0.564699 0
M  V30 4007 H 378.979 0.612536 -1.72975 0
M  V30 4008 H 377.361 3.15379 -2.39483 0
M  V30 4009 H 378.535 1.17278 -4.45626 0
M  V30 4010 H 376.85 1.21199 -3.98371 0
M  V30 4011 H 379.447 3.96493 -3.58744 0
M  V30 4012 H 379.79 3.70696 -1.89448 0
M  V30 4013 H 380.323 2.50239 -3.09233 0
M  V30 4014 H 377.062 2.42736 -6.089 0
M  V30 4015 H 376.582 3.57398 -4.81691 0
M  V30 4016 H 378.261 3.54755 -5.41071 0
M  V30 4017 N 378.394 1.34581 0.820102 0
M  V30 4018 C 379.64 1.28294 1.57836 0
M  V30 4019 C 379.995 -0.145099 1.91852 0
M  V30 4020 O 379.288 -1.09209 1.57429 0
M  V30 4021 C 379.482 2.10997 2.8847 0
M  V30 4022 C 379.311 3.61698 2.67216 0
M  V30 4023 C 378.081 4.3097 2.63805 0
M  V30 4024 C 380.279 4.55638 2.38534 0
M  V30 4025 N 378.261 5.67502 2.34126 0
M  V30 4026 C 379.632 5.80194 2.18574 0
M  V30 4027 C 381.687 4.44523 2.24285 0
M  V30 4028 C 380.39 6.94886 1.8581 0
M  V30 4029 C 382.416 5.5905 1.92916 0
M  V30 4030 C 381.778 6.82627 1.73782 0
M  V30 4031 H 377.877 0.524697 0.579842 0
M  V30 4032 H 380.461 1.69323 0.961139 0
M  V30 4033 H 378.632 1.7226 3.48111 0
M  V30 4034 H 380.364 1.96333 3.53886 0
M  V30 4035 H 377.119 3.83438 2.77978 0
M  V30 4036 H 377.543 6.39525 2.22118 0
M  V30 4037 H 382.185 3.49599 2.37782 0
M  V30 4038 H 379.903 7.89789 1.7105 0
M  V30 4039 H 383.489 5.52396 1.82619 0
M  V30 4040 H 382.369 7.69748 1.49861 0
M  V30 4041 N 379.872 -1.04064 1.18357 0
M  V30 4042 C 381.288 -1.2947 0.933258 0
M  V30 4043 C 381.488 -1.97466 -0.401169 0
M  V30 4044 O 380.544 -2.25528 -1.13549 0
M  V30 4045 C 381.857 -2.15337 2.09882 0
M  V30 4046 C 383.405 -2.28683 2.13712 0
M  V30 4047 C 383.88 -3.17917 3.29686 0
M  V30 4048 N 385.371 -3.25504 3.29547 0
M  V30 4049 C 386.106 -3.94706 4.15926 0
M  V30 4050 N 385.602 -4.66239 5.12439 0
M  V30 4051 N 387.395 -3.90986 4.0384 0
M  V30 4052 H 379.546 -0.583359 2.04232 0
M  V30 4053 H 381.809 -0.319921 0.892387 0
M  V30 4054 H 381.515 -1.72682 3.06389 0
M  V30 4055 H 381.389 -3.16015 2.05947 0
M  V30 4056 H 383.776 -2.70575 1.17784 0
M  V30 4057 H 383.857 -1.27596 2.21705 0
M  V30 4058 H 383.501 -2.76736 4.25887 0
M  V30 4059 H 383.431 -4.19036 3.1893 0
M  V30 4060 H 385.922 -2.74547 2.59677 0
M  V30 4061 H 386.235 -5.16638 5.74722 0
M  V30 4062 H 384.58 -4.65143 5.16398 0
M  V30 4063 H 387.771 -3.34234 3.27727 0
M  V30 4064 H 387.944 -4.44646 4.71375 0
M  V30 4065 N 381.35 -0.985608 -1.22978 0
M  V30 4066 C 382.575 -0.675254 -1.961 0
M  V30 4067 C 383 0.752154 -1.72407 0
M  V30 4068 O 382.358 1.5131 -0.998751 0
M  V30 4069 C 382.406 -0.977899 -3.47087 0
M  V30 4070 O 381.51 -0.072685 -4.12336 0
M  V30 4071 H 380.851 -0.253443 -0.613728 0
M  V30 4072 H 383.381 -1.32061 -1.56272 0
M  V30 4073 H 383.391 -0.916739 -3.97567 0
M  V30 4074 H 382.066 -2.01807 -3.63657 0
M  V30 4075 H 380.643 -0.188703 -3.72422 0
M  V30 4076 N 382.828 1.3818 -0.7579 0
M  V30 4077 C 383.738 2.3421 -0.135247 0
M  V30 4078 C 384.754 1.59487 0.695683 0
M  V30 4079 O 385.93 1.91657 0.618832 0
M  V30 4080 C 382.995 3.3862 0.744139 0
M  V30 4081 C 382.056 4.2918 -0.101658 0
M  V30 4082 C 381.289 5.28603 0.735851 0
M  V30 4083 O 381.512 5.35166 1.97366 0
M  V30 4084 O 380.446 6.01707 0.152372 0
M  V30 4085 H 384.272 2.8916 -0.928436 0
M  V30 4086 H 381.857 1.40101 -0.518855 0
M  V30 4087 H 383.739 4.02539 1.2466 0
M  V30 4088 H 382.414 2.86019 1.51575 0
M  V30 4089 H 381.321 3.68407 -0.650167 0
M  V30 4090 H 382.654 4.85048 -0.836024 0
M  V30 4091 N 384.306 0.507319 1.49211 0
M  V30 4092 C 385.534 -0.0315749 2.06876 0
M  V30 4093 C 385.949 -1.30241 1.36685 0
M  V30 4094 O 385.306 -1.76937 0.447152 0
M  V30 4095 C 385.357 -0.282627 3.60393 0
M  V30 4096 O 385.078 0.937835 4.27944 0
M  V30 4097 C 386.579 -0.864453 4.3479 0
M  V30 4098 H 383.799 0.0233048 0.670595 0
M  V30 4099 H 386.343 0.706484 1.91909 0
M  V30 4100 H 384.498 -0.97068 3.75042 0
M  V30 4101 H 384.912 0.704567 5.19746 0
M  V30 4102 H 386.386 -0.989664 5.43056 0
M  V30 4103 H 386.863 -1.86382 3.97692 0
M  V30 4104 H 387.469 -0.213672 4.24763 0
M  V30 4105 N 385.784 -1.5574 0.241426 0
M  V30 4106 C 386.714 -2.24133 -0.654722 0
M  V30 4107 C 387.695 -1.21974 -1.1856 0
M  V30 4108 O 388.88 -1.50612 -1.22595 0
M  V30 4109 C 386.01 -2.93659 -1.85423 0
M  V30 4110 C 384.964 -4.0246 -1.45636 0
M  V30 4111 C 384.29 -4.59383 -2.73626 0
M  V30 4112 C 385.59 -5.18468 -0.631506 0
M  V30 4113 H 387.284 -2.99281 -0.0844353 0
M  V30 4114 H 384.83 -1.43947 -0.0391707 0
M  V30 4115 H 386.783 -3.40203 -2.48676 0
M  V30 4116 H 385.507 -2.15991 -2.44981 0
M  V30 4117 H 384.166 -3.56676 -0.847202 0
M  V30 4118 H 383.814 -3.78422 -3.3137 0
M  V30 4119 H 383.514 -5.32826 -2.4773 0
M  V30 4120 H 385.038 -5.08658 -3.37786 0
M  V30 4121 H 386.452 -5.61272 -1.1682 0
M  V30 4122 H 384.849 -5.98266 -0.468831 0
M  V30 4123 H 385.919 -4.8358 0.357506 0
M  V30 4124 N 387.262 0.0317525 -1.57568 0
M  V30 4125 C 388.192 1.03274 -2.0942 0
M  V30 4126 C 389.173 1.3788 -0.996143 0
M  V30 4127 O 390.358 1.46811 -1.27122 0
M  V30 4128 C 387.488 2.33448 -2.57137 0
M  V30 4129 C 386.442 2.13091 -3.71182 0
M  V30 4130 C 385.768 3.49001 -4.05095 0
M  V30 4131 C 387.068 1.51928 -4.99715 0
M  V30 4132 H 388.762 0.60112 -2.93303 0
M  V30 4133 H 386.308 0.287705 -1.41097 0
M  V30 4134 H 388.261 3.03802 -2.92032 0
M  V30 4135 H 386.985 2.78665 -1.70333 0
M  V30 4136 H 385.644 1.45171 -3.36632 0
M  V30 4137 H 385.292 3.91862 -3.15362 0
M  V30 4138 H 384.992 3.36207 -4.81911 0
M  V30 4139 H 386.516 4.20721 -4.42522 0
M  V30 4140 H 387.93 2.12196 -5.32584 0
M  V30 4141 H 386.327 1.49716 -5.81124 0
M  V30 4142 H 387.397 0.484811 -4.8247 0
M  V30 4143 N 388.74 1.54641 0.303973 0
M  V30 4144 C 389.672 1.81754 1.39636 0
M  V30 4145 C 390.685 0.70035 1.46966 0
M  V30 4146 O 391.874 0.97778 1.49338 0
M  V30 4147 C 388.974 1.93785 2.7803 0
M  V30 4148 C 388.147 3.24156 2.93669 0
M  V30 4149 C 387.206 3.26641 4.12544 0
M  V30 4150 O 386.232 4.00187 4.04771 0
M  V30 4151 N 387.434 2.5182 5.23036 0
M  V30 4152 H 390.199 2.76031 1.16734 0
M  V30 4153 H 387.76 1.54178 0.494033 0
M  V30 4154 H 389.752 1.92852 3.55795 0
M  V30 4155 H 388.322 1.06515 2.93893 0
M  V30 4156 H 387.542 3.37887 2.03042 0
M  V30 4157 H 388.83 4.10195 3.01027 0
M  V30 4158 H 388.228 1.91692 5.32232 0
M  V30 4159 H 386.785 2.56644 5.99147 0
M  V30 4160 N 390.218 -0.567019 1.47046 0
M  V30 4161 C 391.464 -1.32658 1.53394 0
M  V30 4162 C 391.797 -1.93254 0.19148 0
M  V30 4163 O 391.072 -1.77338 -0.798844 0
M  V30 4164 C 391.355 -2.44412 2.64452 0
M  V30 4165 C 391.208 -1.88749 4.08282 0
M  V30 4166 C 392.527 -3.46387 2.71485 0
M  V30 4167 H 389.646 -0.48098 0.558415 0
M  V30 4168 H 392.288 -0.635481 1.79058 0
M  V30 4169 H 390.438 -3.03363 2.427 0
M  V30 4170 H 392.11 -1.34134 4.41368 0
M  V30 4171 H 390.353 -1.19481 4.17021 0
M  V30 4172 H 391.024 -2.69491 4.81745 0
M  V30 4173 H 393.5 -2.9734 2.91081 0
M  V30 4174 H 392.376 -4.2202 3.50985 0
M  V30 4175 H 392.637 -4.04616 1.78153 0
M  V30 4176 N 391.696 -1.35014 -0.812953 0
M  V30 4177 C 392.943 -1.27931 -1.56971 0
M  V30 4178 C 393.271 0.148034 -1.93936 0
M  V30 4179 O 392.526 1.11175 -1.61054 0
M  V30 4180 C 392.825 -2.12524 -2.87347 0
M  V30 4181 C 392.491 -3.61401 -2.6963 0
M  V30 4182 C 391.153 -4.01983 -2.64506 0
M  V30 4183 C 393.505 -4.55894 -2.52607 0
M  V30 4184 C 390.833 -5.35235 -2.40293 0
M  V30 4185 C 393.185 -5.89336 -2.29925 0
M  V30 4186 C 391.849 -6.2907 -2.23219 0
M  V30 4187 H 391.119 -0.468131 -0.574399 0
M  V30 4188 H 393.766 -1.66851 -0.939836 0
M  V30 4189 H 392.071 -1.66463 -3.54679 0
M  V30 4190 H 393.768 -2.04383 -3.45005 0
M  V30 4191 H 390.358 -3.29193 -2.74463 0
M  V30 4192 H 394.542 -4.25431 -2.55583 0
M  V30 4193 H 389.798 -5.65028 -2.33566 0
M  V30 4194 H 393.972 -6.62139 -2.15743 0
M  V30 4195 H 391.599 -7.32256 -2.04219 0
M  V30 4196 N 393.175 1.03435 -1.18907 0
M  V30 4197 C 394.421 1.77005 -0.989798 0
M  V30 4198 C 394.754 1.88205 0.478816 0
M  V30 4199 O 394.029 1.39481 1.35556 0
M  V30 4200 C 394.312 3.19925 -1.65287 0
M  V30 4201 C 394.165 3.1663 -3.19477 0
M  V30 4202 C 395.484 4.18189 -1.37134 0
M  V30 4203 H 392.603 0.642538 -0.360991 0
M  V30 4204 H 395.245 1.20784 -1.46667 0
M  V30 4205 H 393.395 3.67929 -1.24741 0
M  V30 4206 H 395.067 2.76567 -3.692 0
M  V30 4207 H 393.31 2.54491 -3.51307 0
M  V30 4208 H 393.981 4.1758 -3.61013 0
M  V30 4209 H 396.457 3.78761 -1.72276 0
M  V30 4210 H 395.333 5.16394 -1.86087 0
M  V30 4211 H 395.594 4.41112 -0.295424 0
M  V30 4212 N 394.653 0.992116 1.22453 0
M  V30 4213 C 395.563 0.55065 2.28046 0
M  V30 4214 C 396.579 -0.400189 1.69335 0
M  V30 4215 O 397.755 -0.267215 1.99619 0
M  V30 4216 C 394.82 -0.128496 3.46462 0
M  V30 4217 C 393.881 0.865208 4.20491 0
M  V30 4218 C 393.114 0.218377 5.33253 0
M  V30 4219 O 393.337 -0.987894 5.6178 0
M  V30 4220 O 392.271 0.922845 5.94783 0
M  V30 4221 H 396.097 1.4291 2.67975 0
M  V30 4222 H 393.682 0.760326 1.28606 0
M  V30 4223 H 395.564 -0.508947 4.18315 0
M  V30 4224 H 394.239 -0.981526 3.0846 0
M  V30 4225 H 393.146 1.29658 3.50913 0
M  V30 4226 H 394.479 1.68741 4.62371 0
M  V30 4227 N 396.131 -1.37776 0.765217 0
M  V30 4228 C 397.064 -2.28008 0.0935025 0
M  V30 4229 C 398.042 -1.45985 -0.716047 0
M  V30 4230 O 399.226 -1.75331 -0.692203 0
M  V30 4231 C 396.353 -3.27228 -0.874052 0
M  V30 4232 C 395.399 -4.26239 -0.149307 0
M  V30 4233 S 396.232 -5.22827 1.15809 0
M  V30 4234 C 397.388 -6.256 0.193906 0
M  V30 4235 H 397.621 -2.84631 0.858637 0
M  V30 4236 H 395.154 -1.43952 0.558313 0
M  V30 4237 H 397.112 -3.84902 -1.42691 0
M  V30 4238 H 395.773 -2.69565 -1.61225 0
M  V30 4239 H 394.966 -4.96213 -0.88254 0
M  V30 4240 H 394.568 -3.7252 0.332366 0
M  V30 4241 H 396.86 -6.74508 -0.636011 0
M  V30 4242 H 397.803 -7.02838 0.861638 0
M  V30 4243 H 398.211 -5.64173 -0.191975 0
M  V30 4244 N 397.609 -0.515225 -1.4894 0
M  V30 4245 C 398.855 0.016187 -2.03394 0
M  V30 4246 C 399.21 1.33377 -1.38666 0
M  V30 4247 O 398.503 1.84461 -0.518141 0
M  V30 4248 C 398.697 0.210595 -3.56779 0
M  V30 4249 C 398.526 -1.08659 -4.36375 0
M  V30 4250 C 397.296 -1.64237 -4.77864 0
M  V30 4251 C 399.494 -1.9935 -4.74093 0
M  V30 4252 N 397.476 -2.88398 -5.41941 0
M  V30 4253 C 398.847 -3.08088 -5.38035 0
M  V30 4254 C 400.902 -1.99856 -4.56029 0
M  V30 4255 C 399.605 -4.17377 -5.85823 0
M  V30 4256 C 401.631 -3.08129 -5.04787 0
M  V30 4257 C 400.993 -4.15586 -5.68742 0
M  V30 4258 H 397.092 -0.0352107 -0.781207 0
M  V30 4259 H 399.676 -0.693237 -1.8194 0
M  V30 4260 H 397.847 0.889088 -3.78087 0
M  V30 4261 H 399.579 0.740287 -3.97872 0
M  V30 4262 H 396.334 -1.18566 -4.58518 0
M  V30 4263 H 396.758 -3.51572 -5.78555 0
M  V30 4264 H 401.4 -1.18079 -4.05977 0
M  V30 4265 H 399.118 -4.99943 -6.34888 0
M  V30 4266 H 402.704 -3.09557 -4.92611 0
M  V30 4267 H 401.584 -4.97987 -6.05787 0
M  V30 4268 N 399.087 1.5561 -0.249682 0
M  V30 4269 C 400.017 2.24477 0.642826 0
M  V30 4270 C 400.998 1.22601 1.17911 0
M  V30 4271 O 402.183 1.5126 1.21795 0
M  V30 4272 C 399.313 2.94638 1.83863 0
M  V30 4273 C 398.267 4.03227 1.435 0
M  V30 4274 C 397.593 4.60828 2.71186 0
M  V30 4275 C 398.893 5.18796 0.604002 0
M  V30 4276 H 400.587 2.99321 0.0685625 0
M  V30 4277 H 398.133 1.43965 0.0315363 0
M  V30 4278 H 400.086 3.41517 2.46868 0
M  V30 4279 H 398.81 2.17287 2.43832 0
M  V30 4280 H 397.469 3.57121 0.828275 0
M  V30 4281 H 397.117 3.80174 3.29358 0
M  V30 4282 H 396.817 5.34132 2.44901 0
M  V30 4283 H 398.341 5.10442 3.35084 0
M  V30 4284 H 399.755 5.61883 1.13842 0
M  V30 4285 H 398.152 5.98506 0.437097 0
M  V30 4286 H 399.222 4.83384 -0.383147 0
M  V30 4287 N 400.565 -0.0233959 1.57583 0
M  V30 4288 C 401.515 -1.03023 2.03397 0
M  V30 4289 C 402.499 -1.31701 0.924315 0
M  V30 4290 O 403.691 -1.31191 1.18819 0
M  V30 4291 C 400.82 -2.32961 2.52159 0
M  V30 4292 C 399.906 -2.07349 3.69956 0
M  V30 4293 N 400.297 -1.51814 4.82479 0
M  V30 4294 C 398.595 -2.37606 3.77438 0
M  V30 4295 C 399.296 -1.42136 5.64068 0
M  V30 4296 N 398.272 -1.89891 5.09355 0
M  V30 4297 H 402.074 -0.594962 2.87815 0
M  V30 4298 H 399.588 -0.229586 1.60769 0
M  V30 4299 H 401.585 -3.05906 2.83244 0
M  V30 4300 H 400.245 -2.77162 1.69149 0
M  V30 4301 H 401.256 -1.20008 5.03804 0
M  V30 4302 H 397.933 -2.84842 3.05239 0
M  V30 4303 H 399.323 -0.996405 6.64471 0
M  V30 4304 N 402.043 -1.548 -0.295768 0
M  V30 4305 C 402.993 -1.82497 -1.3667 0
M  V30 4306 C 403.977 -0.682434 -1.45711 0
M  V30 4307 O 405.169 -0.943207 -1.49775 0
M  V30 4308 C 402.298 -2.08036 -2.73086 0
M  V30 4309 C 401.384 -3.28488 -2.68247 0
M  V30 4310 N 401.775 -4.48924 -2.33025 0
M  V30 4311 C 400.073 -3.3062 -2.99343 0
M  V30 4312 C 400.774 -5.30956 -2.37613 0
M  V30 4313 N 399.75 -4.68805 -2.75178 0
M  V30 4314 H 403.552 -2.73175 -1.0841 0
M  V30 4315 H 401.066 -1.5437 -0.504361 0
M  V30 4316 H 403.063 -2.26027 -3.5031 0
M  V30 4317 H 401.723 -1.18629 -3.02254 0
M  V30 4318 H 402.734 -4.75432 -2.05389 0
M  V30 4319 H 399.411 -2.51336 -3.33371 0
M  V30 4320 H 400.801 -6.37199 -2.13135 0
M  V30 4321 N 403.521 0.559213 -1.47345 0
M  V30 4322 C 404.751 1.33999 -1.57251 0
M  V30 4323 C 405.159 1.87905 -0.220978 0
M  V30 4324 O 404.502 1.65577 0.795617 0
M  V30 4325 C 404.564 2.54798 -2.53611 0
M  V30 4326 C 404.228 2.22192 -3.99349 0
M  V30 4327 C 405.225 1.79607 -4.87891 0
M  V30 4328 C 402.91 2.33613 -4.44669 0
M  V30 4329 C 404.904 1.48868 -6.19772 0
M  V30 4330 C 402.591 2.02487 -5.76578 0
M  V30 4331 C 403.589 1.60183 -6.63951 0
M  V30 4332 O 403.277 1.29451 -7.93409 0
M  V30 4333 H 403.009 0.414858 -0.533731 0
M  V30 4334 H 405.563 0.684465 -1.9366 0
M  V30 4335 H 403.793 3.23235 -2.12265 0
M  V30 4336 H 405.482 3.16873 -2.53666 0
M  V30 4337 H 406.248 1.70278 -4.54126 0
M  V30 4338 H 402.127 2.65501 -3.76869 0
M  V30 4339 H 405.671 1.15775 -6.87926 0
M  V30 4340 H 401.568 2.11448 -6.09885 0
M  V30 4341 H 402.336 1.43098 -8.05894 0
M  V30 4342 N 404.999 1.35443 0.805782 0
M  V30 4343 C 406.224 1.32037 1.59941 0
M  V30 4344 C 406.649 -0.0994215 1.87837 0
M  V30 4345 O 406.007 -1.06648 1.46615 0
M  V30 4346 C 406.055 2.13354 2.90711 0
M  V30 4347 O 405.159 1.5148 3.83572 0
M  V30 4348 H 404.5 0.452666 0.485787 0
M  V30 4349 H 407.03 1.78496 1.00002 0
M  V30 4350 H 407.04 2.25338 3.40128 0
M  V30 4351 H 405.715 3.16572 2.69732 0
M  V30 4352 H 404.292 1.4834 3.42125 0
M  V30 4353 N 406.477 -1.02803 1.19454 0
M  V30 4354 C 407.407 -2.12999 0.956758 0
M  V30 4355 C 408.388 -1.69743 -0.110188 0
M  V30 4356 O 409.573 -1.94148 0.0450038 0
M  V30 4357 C 406.703 -3.43746 0.495553 0
M  V30 4358 C 405.657 -4.00688 1.50443 0
M  V30 4359 C 404.983 -5.27067 0.900275 0
M  V30 4360 C 406.283 -4.35397 2.8849 0
M  V30 4361 H 407.977 -2.33148 1.87836 0
M  V30 4362 H 405.523 -1.12045 0.904539 0
M  V30 4363 H 407.476 -4.2021 0.316493 0
M  V30 4364 H 406.2 -3.23321 -0.461646 0
M  V30 4365 H 404.859 -3.2632 1.67065 0
M  V30 4366 H 404.507 -5.02959 -0.064503 0
M  V30 4367 H 404.207 -5.66127 1.57397 0
M  V30 4368 H 405.731 -6.06196 0.73203 0
M  V30 4369 H 407.145 -5.02795 2.75446 0
M  V30 4370 H 405.542 -4.85541 3.52661 0
M  V30 4371 H 406.612 -3.44662 3.41081 0
M  V30 4372 N 407.956 -0.998596 -1.21925 0
M  V30 4373 C 408.866 -0.562736 -2.27751 0
M  V30 4374 C 409.882 0.391203 -1.69545 0
M  V30 4375 O 411.058 0.256625 -1.99758 0
M  V30 4376 C 408.123 0.11012 -3.46525 0
M  V30 4377 C 407.184 -0.887495 -4.20026 0
M  V30 4378 C 406.417 -0.246654 -5.3313 0
M  V30 4379 O 406.64 0.958088 -5.62296 0
M  V30 4380 O 405.574 -0.954374 -5.94286 0
M  V30 4381 H 409.4 -1.44329 -2.67213 0
M  V30 4382 H 406.985 -0.767135 -1.28201 0
M  V30 4383 H 408.867 0.486756 -4.18579 0
M  V30 4384 H 407.542 0.965154 -3.08976 0
M  V30 4385 H 406.449 -1.31517 -3.5022 0
M  V30 4386 H 407.782 -1.71191 -4.6147 0
M  V30 4387 N 409.434 1.37368 -0.772513 0
M  V30 4388 C 410.367 2.27956 -0.105593 0
M  V30 4389 C 411.345 1.46362 0.708295 0
M  V30 4390 O 412.529 1.75695 0.682895 0
M  V30 4391 C 409.656 3.27687 0.856686 0
M  V30 4392 C 408.702 4.26312 0.1267 0
M  V30 4393 S 409.535 5.22206 -1.1858 0
M  V30 4394 C 410.691 6.25488 -0.227081 0
M  V30 4395 H 410.924 2.84171 -0.87372 0
M  V30 4396 H 408.457 1.43654 -0.565939 0
M  V30 4397 H 410.415 3.85653 1.40648 0
M  V30 4398 H 409.076 2.70417 1.59793 0
M  V30 4399 H 408.269 4.96674 0.856212 0
M  V30 4400 H 407.871 3.72339 -0.352117 0
M  V30 4401 H 410.163 6.74836 0.600231 0
M  V30 4402 H 411.106 7.02371 -0.898899 0
M  V30 4403 H 411.514 5.64267 0.162053 0
M  V30 4404 N 410.912 0.523116 1.48665 0
M  V30 4405 C 412.142 -0.00961724 2.06598 0
M  V30 4406 C 412.55 -1.29333 1.38093 0
M  V30 4407 O 411.893 -1.77846 0.46007 0
M  V30 4408 C 411.955 -0.311135 3.58151 0
M  V30 4409 C 411.619 0.878092 4.48485 0
M  V30 4410 C 412.616 1.77464 4.88674 0
M  V30 4411 C 410.301 1.08315 4.90483 0
M  V30 4412 C 412.295 2.86021 5.69623 0
M  V30 4413 C 409.982 2.17187 5.71203 0
M  V30 4414 C 410.98 3.05873 6.10681 0
M  V30 4415 O 410.668 4.12862 6.89783 0
M  V30 4416 H 410.4 0.0272658 0.67545 0
M  V30 4417 H 412.954 0.726156 1.92136 0
M  V30 4418 H 411.184 -1.10079 3.70701 0
M  V30 4419 H 412.873 -0.785125 3.98234 0
M  V30 4420 H 413.639 1.62813 4.56855 0
M  V30 4421 H 409.518 0.402149 4.59243 0
M  V30 4422 H 413.062 3.55272 6.00356 0
M  V30 4423 H 408.959 2.31824 6.02435 0
M  V30 4424 H 409.727 4.10487 7.08126 0
M  V30 4425 N 412.39 -1.55475 0.257931 0
M  V30 4426 C 413.322 -2.19192 -0.669881 0
M  V30 4427 C 414.335 -1.17148 -1.1305 0
M  V30 4428 O 415.524 -1.43959 -1.05537 0
M  V30 4429 C 412.624 -2.79016 -1.92363 0
M  V30 4430 C 411.797 -4.06586 -1.61265 0
M  V30 4431 C 410.856 -4.50622 -2.7171 0
M  V30 4432 O 409.882 -5.16765 -2.38627 0
M  V30 4433 N 411.084 -4.19325 -4.01431 0
M  V30 4434 H 413.849 -2.99441 -0.124635 0
M  V30 4435 H 411.41 -1.6171 0.0783311 0
M  V30 4436 H 413.402 -3.05427 -2.65511 0
M  V30 4437 H 411.972 -2.0286 -2.37837 0
M  V30 4438 H 411.192 -3.87646 -0.715811 0
M  V30 4439 H 412.48 -4.89737 -1.37967 0
M  V30 4440 H 411.878 -3.66247 -4.31138 0
M  V30 4441 H 410.435 -4.50547 -4.7101 0
M  V30 4442 N 413.868 0.0150385 -1.57593 0
M  V30 4443 C 414.815 1.01126 -2.07466 0
M  V30 4444 C 415.785 1.35064 -0.966794 0
M  V30 4445 O 416.97 1.4516 -1.23827 0
M  V30 4446 C 414.11 2.30276 -2.57035 0
M  V30 4447 C 413.223 2.02373 -3.81666 0
M  V30 4448 C 412.358 3.25496 -4.19793 0
M  V30 4449 C 411.397 2.93211 -5.37303 0
M  V30 4450 N 410.534 4.08826 -5.70794 0
M  V30 4451 H 415.374 0.57901 -2.92321 0
M  V30 4452 H 412.911 0.27426 -1.44521 0
M  V30 4453 H 414.869 3.05757 -2.83846 0
M  V30 4454 H 413.499 2.71197 -1.75077 0
M  V30 4455 H 412.551 1.17327 -3.61854 0
M  V30 4456 H 413.863 1.74567 -4.67256 0
M  V30 4457 H 413.017 4.09333 -4.47807 0
M  V30 4458 H 411.756 3.56428 -3.32882 0
M  V30 4459 H 410.761 2.07777 -5.09027 0
M  V30 4460 H 411.986 2.63542 -6.25877 0
M  V30 4461 H 409.932 4.39682 -4.86842 0
M  V30 4462 H 409.849 3.84491 -6.50924 0
M  V30 4463 H 411.117 4.93496 -6.03392 0
M  V30 4464 N 415.346 1.54954 0.287554 0
M  V30 4465 C 416.279 1.81737 1.3801 0
M  V30 4466 C 417.257 0.669412 1.48181 0
M  V30 4467 O 418.441 0.910839 1.65033 0
M  V30 4468 C 415.568 1.96606 2.75796 0
M  V30 4469 C 414.614 3.19098 2.82982 0
M  V30 4470 S 415.447 4.7683 2.43707 0
M  V30 4471 C 416.603 4.94653 3.83496 0
M  V30 4472 H 416.836 2.74122 1.15085 0
M  V30 4473 H 414.369 1.46538 0.486403 0
M  V30 4474 H 416.327 2.05858 3.55152 0
M  V30 4475 H 414.988 1.05136 2.95982 0
M  V30 4476 H 414.181 3.26344 3.84077 0
M  V30 4477 H 413.783 3.08361 2.11635 0
M  V30 4478 H 416.075 4.79502 4.78628 0
M  V30 4479 H 417.018 5.96728 3.8121 0
M  V30 4480 H 417.426 4.2272 3.74123 0
M  V30 4481 N 416.824 -0.551391 1.4764 0
M  V30 4482 C 417.756 -1.67333 1.56628 0
M  V30 4483 C 418.769 -1.56398 0.452045 0
M  V30 4484 O 419.958 -1.6325 0.721926 0
M  V30 4485 C 417.058 -3.05841 1.45994 0
M  V30 4486 C 416.231 -3.42472 2.72088 0
M  V30 4487 C 415.29 -4.60168 2.55209 0
M  V30 4488 O 414.316 -4.64458 3.2904 0
M  V30 4489 N 415.518 -5.57024 1.63416 0
M  V30 4490 H 418.283 -1.60066 2.53375 0
M  V30 4491 H 415.844 -0.738169 1.44093 0
M  V30 4492 H 417.836 -3.8242 1.32428 0
M  V30 4493 H 416.406 -3.07302 0.573071 0
M  V30 4494 H 415.626 -2.55284 3.00373 0
M  V30 4495 H 416.914 -3.63723 3.55785 0
M  V30 4496 H 416.312 -5.56319 1.02594 0
M  V30 4497 H 414.869 -6.32906 1.558 0
M  V30 4498 N 418.302 -1.35869 -0.798587 0
M  V30 4499 C 419.527 -1.32883 -1.59238 0
M  V30 4500 C 419.952 0.0894587 -1.87887 0
M  V30 4501 O 419.31 1.05869 -1.47178 0
M  V30 4502 C 419.358 -2.14892 -2.89575 0
M  V30 4503 O 418.462 -1.53512 -3.82763 0
M  V30 4504 H 417.803 -0.455236 -0.48338 0
M  V30 4505 H 420.333 -1.79024 -0.990539 0
M  V30 4506 H 420.343 -2.27139 -3.38928 0
M  V30 4507 H 419.018 -3.17998 -2.68049 0
M  V30 4508 H 417.595 -1.50153 -3.41334 0
M  V30 4509 N 419.78 1.02168 -1.19998 0
M  V30 4510 C 421.191 1.57135 -1.00825 0
M  V30 4511 C 421.542 1.91276 0.436818 0
M  V30 4512 O 420.667 1.71679 1.3174 0
M  V30 4513 C 421.262 2.85514 -1.82393 0
M  V30 4514 C 419.821 3.37027 -1.67601 0
M  V30 4515 C 418.968 2.10388 -1.80644 0
M  V30 4516 H 421.919 0.846106 -1.34264 0
M  V30 4517 H 421.94 3.56711 -1.32429 0
M  V30 4518 H 421.452 2.60634 -2.87561 0
M  V30 4519 H 419.553 3.66878 -0.650485 0
M  V30 4520 H 419.666 4.09572 -2.4857 0
M  V30 4521 H 418.03 2.22601 -1.23778 0
M  V30 4522 H 418.813 1.8794 -2.87286 0
M  V30 4523 N 421.258 1.00505 1.21394 0
M  V30 4524 C 422.208 0.536503 2.21598 0
M  V30 4525 C 423.192 -0.401914 1.55799 0
M  V30 4526 O 424.384 -0.226757 1.75541 0
M  V30 4527 C 421.513 -0.135446 3.43033 0
M  V30 4528 C 420.599 0.823992 4.16018 0
M  V30 4529 N 420.99 1.97683 4.6557 0
M  V30 4530 C 419.288 0.642387 4.4135 0
M  V30 4531 C 419.989 2.58003 5.21354 0
M  V30 4532 N 418.965 1.86162 5.1073 0
M  V30 4533 H 422.767 1.41557 2.57563 0
M  V30 4534 H 420.281 0.868878 1.37202 0
M  V30 4535 H 422.278 -0.488584 4.14027 0
M  V30 4536 H 420.938 -1.01049 3.08576 0
M  V30 4537 H 421.949 2.3572 4.61147 0
M  V30 4538 H 418.626 -0.185578 4.17087 0
M  V30 4539 H 420.016 3.555 5.70149 0
M  V30 4540 N 422.737 -1.36956 0.779787 0
M  V30 4541 C 423.7 -2.2851 0.177662 0
M  V30 4542 C 424.7 -1.48393 -0.619377 0
M  V30 4543 O 425.89 -1.68505 -0.441785 0
M  V30 4544 C 423.022 -3.32428 -0.755279 0
M  V30 4545 H 424.215 -2.83269 0.984823 0
M  V30 4546 H 421.768 -1.46358 0.548544 0
M  V30 4547 H 422.503 -2.82808 -1.58714 0
M  V30 4548 H 422.288 -3.91659 -0.185817 0
M  V30 4549 H 423.778 -4.00824 -1.17174 0
M  V30 4550 N 424.215 -0.530993 -1.48385 0
M  V30 4551 C 425.162 0.231223 -2.29639 0
M  V30 4552 C 426.132 0.932864 -1.37429 0
M  V30 4553 O 427.317 0.933692 -1.66394 0
M  V30 4554 C 424.457 1.27155 -3.2082 0
M  V30 4555 C 423.57 0.578655 -4.28107 0
M  V30 4556 C 422.705 1.602 -5.06467 0
M  V30 4557 C 421.744 0.892625 -6.05556 0
M  V30 4558 N 420.881 1.86157 -6.76971 0
M  V30 4559 H 425.721 -0.467848 -2.94305 0
M  V30 4560 H 423.258 -0.242556 -1.45086 0
M  V30 4561 H 425.216 1.88703 -3.72085 0
M  V30 4562 H 423.846 1.939 -2.58075 0
M  V30 4563 H 422.898 -0.150782 -3.80101 0
M  V30 4564 H 424.21 0.0217065 -4.98795 0
M  V30 4565 H 423.364 2.29173 -5.61751 0
M  V30 4566 H 422.103 2.19285 -4.35621 0
M  V30 4567 H 421.108 0.188829 -5.49476 0
M  V30 4568 H 422.333 0.307878 -6.78402 0
M  V30 4569 H 420.279 2.44147 -6.08875 0
M  V30 4570 H 420.196 1.35608 -7.43738 0
M  V30 4571 H 421.464 2.54325 -7.36844 0
M  V30 4572 N 425.693 1.55336 -0.266172 0
M  V30 4573 C 426.623 2.25146 0.618981 0
M  V30 4574 C 427.604 1.23845 1.16604 0
M  V30 4575 O 428.789 1.52544 1.20183 0
M  V30 4576 C 425.919 2.96572 1.80728 0
M  V30 4577 C 424.873 4.04726 1.39215 0
M  V30 4578 C 424.199 4.63678 2.66283 0
M  V30 4579 C 425.499 5.19407 0.548942 0
M  V30 4580 H 427.193 2.99377 0.0368116 0
M  V30 4581 H 424.739 1.43991 0.0162651 0
M  V30 4582 H 426.692 3.44116 2.43232 0
M  V30 4583 H 425.416 2.19861 2.41514 0
M  V30 4584 H 424.075 3.57979 0.790351 0
M  V30 4585 H 423.723 3.83646 3.25308 0
M  V30 4586 H 423.423 5.367 2.39222 0
M  V30 4587 H 424.947 5.13967 3.29651 0
M  V30 4588 H 426.361 5.63059 1.07876 0
M  V30 4589 H 424.758 5.98936 0.373593 0
M  V30 4590 H 425.828 4.8295 -0.434394 0
M  V30 4591 N 427.171 -0.0066808 1.57599 0
M  V30 4592 C 428.081 -1.01671 2.11424 0
M  V30 4593 C 429.097 -1.38143 1.05795 0
M  V30 4594 O 430.273 -1.47011 1.37658 0
M  V30 4595 C 427.338 -2.29192 2.60139 0
M  V30 4596 C 426.399 -1.99094 3.80342 0
M  V30 4597 C 425.632 -3.20535 4.26724 0
M  V30 4598 O 425.855 -4.3199 3.72479 0
M  V30 4599 O 424.789 -3.04924 5.18946 0
M  V30 4600 H 428.615 -0.589181 2.9793 0
M  V30 4601 H 426.2 -0.225091 1.47695 0
M  V30 4602 H 428.082 -3.0412 2.917 0
M  V30 4603 H 426.757 -2.71195 1.76733 0
M  V30 4604 H 425.664 -1.21663 3.53764 0
M  V30 4605 H 426.997 -1.61931 4.648 0
M  V30 4606 N 428.649 -1.55105 -0.279332 0
M  V30 4607 C 429.895 -1.75672 -1.01327 0
M  V30 4608 C 430.228 -0.552739 -1.86168 0
M  V30 4609 O 429.503 0.449827 -1.89227 0
M  V30 4610 C 429.786 -3.05825 -1.90114 0
M  V30 4611 C 429.639 -4.36565 -1.08309 0
M  V30 4612 C 430.958 -3.31975 -2.8893 0
M  V30 4613 H 428.077 -0.639149 -0.366957 0
M  V30 4614 H 430.719 -1.87833 -0.286154 0
M  V30 4615 H 428.869 -2.95588 -2.52111 0
M  V30 4616 H 430.541 -4.58751 -0.484314 0
M  V30 4617 H 428.784 -4.32076 -0.386362 0
M  V30 4618 H 429.455 -5.23946 -1.73737 0
M  V30 4619 H 431.931 -3.41963 -2.37067 0
M  V30 4620 H 430.807 -4.2432 -3.48201 0
M  V30 4621 H 431.068 -2.51309 -3.63725 0
M  V30 4622 N 430.127 0.543554 -1.4793 0
M  V30 4623 C 431.057 1.65888 -1.64327 0
M  V30 4624 C 432.038 1.62818 -0.492383 0
M  V30 4625 O 433.223 1.80226 -0.723338 0
M  V30 4626 C 430.353 3.04506 -1.67013 0
M  V30 4627 C 429.307 3.2243 -2.81466 0
M  V30 4628 C 428.633 4.61972 -2.69233 0
M  V30 4629 C 429.933 3.06496 -4.22915 0
M  V30 4630 H 431.627 1.52421 -2.57698 0
M  V30 4631 H 429.173 0.731849 -1.24016 0
M  V30 4632 H 431.126 3.82391 -1.77074 0
M  V30 4633 H 429.85 3.18964 -0.70212 0
M  V30 4634 H 428.509 2.46957 -2.70938 0
M  V30 4635 H 428.157 4.73247 -1.7043 0
M  V30 4636 H 427.857 4.74911 -3.46025 0
M  V30 4637 H 429.381 5.41974 -2.81242 0
M  V30 4638 H 430.795 3.74186 -4.34348 0
M  V30 4639 H 429.192 3.30938 -5.006 0
M  V30 4640 H 430.262 2.03077 -4.40327 0
M  V30 4641 N 431.605 1.3629 0.791371 0
M  V30 4642 C 432.555 1.26988 1.89362 0
M  V30 4643 C 433.539 0.161795 1.60084 0
M  V30 4644 O 434.731 0.394426 1.72549 0
M  V30 4645 C 431.86 1.05944 3.26544 0
M  V30 4646 C 430.946 2.21211 3.61838 0
M  V30 4647 N 431.337 3.46518 3.68455 0
M  V30 4648 C 429.635 2.12933 3.91887 0
M  V30 4649 C 430.336 4.2241 3.99931 0
M  V30 4650 N 429.312 3.51329 4.14812 0
M  V30 4651 H 433.114 2.21908 1.92702 0
M  V30 4652 H 430.628 1.28982 0.986787 0
M  V30 4653 H 432.625 0.973666 4.05371 0
M  V30 4654 H 431.285 0.119223 3.24481 0
M  V30 4655 H 432.296 3.80677 3.51148 0
M  V30 4656 H 428.973 1.26855 3.97761 0
M  V30 4657 H 430.363 5.30767 4.1199 0
M  V30 4658 N 433.083 -1.0153 1.20538 0
M  V30 4659 C 434.313 -1.78487 1.04048 0
M  V30 4660 C 434.721 -1.84631 -0.413292 0
M  V30 4661 O 434.064 -1.29919 -1.29872 0
M  V30 4662 C 434.126 -3.24367 1.55003 0
M  V30 4663 C 433.79 -3.41827 3.0332 0
M  V30 4664 C 434.787 -3.30941 4.00966 0
M  V30 4665 C 432.472 -3.67602 3.42307 0
M  V30 4666 C 434.466 -3.45577 5.35589 0
M  V30 4667 C 432.153 -3.81881 4.77085 0
M  V30 4668 C 433.151 -3.70874 5.73534 0
M  V30 4669 O 432.839 -3.84714 7.05868 0
M  V30 4670 H 432.571 -0.568108 0.366373 0
M  V30 4671 H 435.125 -1.28677 1.60098 0
M  V30 4672 H 433.355 -3.75266 0.933397 0
M  V30 4673 H 435.044 -3.82963 1.34514 0
M  V30 4674 H 435.81 -3.10964 3.72191 0
M  V30 4675 H 431.689 -3.75256 2.67776 0
M  V30 4676 H 435.233 -3.36902 6.10854 0
M  V30 4677 H 431.13 -4.01359 5.0555 0
M  V30 4678 H 431.898 -4.01724 7.13134 0
M  V30 4679 N 434.561 -1.01147 -1.20859 0
M  V30 4680 C 435.977 -0.725422 -1.42161 0
M  V30 4681 C 436.177 0.696919 -1.89064 0
M  V30 4682 O 435.233 1.46539 -2.05627 0
M  V30 4683 C 436.546 -1.74678 -2.44761 0
M  V30 4684 C 438.094 -1.76433 -2.58535 0
M  V30 4685 C 438.569 -2.77481 -3.64374 0
M  V30 4686 N 440.06 -2.76189 -3.71852 0
M  V30 4687 C 440.795 -3.51035 -4.53389 0
M  V30 4688 N 440.291 -4.35541 -5.38773 0
M  V30 4689 N 442.084 -3.39655 -4.47873 0
M  V30 4690 H 434.235 -1.92979 -0.887282 0
M  V30 4691 H 436.498 -0.833327 -0.451962 0
M  V30 4692 H 436.204 -2.76551 -2.17285 0
M  V30 4693 H 436.078 -1.55472 -3.43669 0
M  V30 4694 H 438.465 -0.75248 -2.85345 0
M  V30 4695 H 438.546 -1.99712 -1.5984 0
M  V30 4696 H 438.19 -3.78827 -3.38308 0
M  V30 4697 H 438.12 -2.51466 -4.6268 0
M  V30 4698 H 440.611 -2.14885 -3.10858 0
M  V30 4699 H 440.924 -4.89432 -5.98061 0
M  V30 4700 H 439.269 -4.39621 -5.38292 0
M  V30 4701 H 442.46 -2.73063 -3.80203 0
M  V30 4702 H 442.633 -3.9824 -5.11184 0
M  V30 4703 N 436.039 1.36541 -0.78704 0
M  V30 4704 C 436.969 2.32659 -0.197992 0
M  V30 4705 C 437.95 1.56533 0.665697 0
M  V30 4706 O 439.135 1.84698 0.60001 0
M  V30 4707 C 436.265 3.40778 0.669901 0
M  V30 4708 C 435.219 4.27897 -0.0937039 0
M  V30 4709 C 434.545 5.27163 0.894629 0
M  V30 4710 C 435.845 5.06334 -1.28154 0
M  V30 4711 H 437.539 2.82171 -1.00099 0
M  V30 4712 H 435.085 1.35665 -0.482793 0
M  V30 4713 H 437.038 4.07008 1.09191 0
M  V30 4714 H 435.762 2.89827 1.50558 0
M  V30 4715 H 434.421 3.6322 -0.49666 0
M  V30 4716 H 434.069 4.72486 1.72527 0
M  V30 4717 H 433.769 5.86317 0.388149 0
M  V30 4718 H 435.293 5.96266 1.31525 0
M  V30 4719 H 436.707 5.65617 -0.93541 0
M  V30 4720 H 435.104 5.74888 -1.72115 0
M  V30 4721 H 436.174 4.38114 -2.07807 0
M  V30 4722 N 437.518 0.538854 1.48102 0
M  V30 4723 C 438.743 0.0102694 2.07397 0
M  V30 4724 C 439.168 -1.26562 1.39153 0
M  V30 4725 O 438.526 -1.75357 0.460387 0
M  V30 4726 C 438.574 -0.187602 3.60112 0
M  V30 4727 O 437.678 -1.25432 3.92862 0
M  V30 4728 H 437.019 0.0430975 0.6626 0
M  V30 4729 H 439.549 0.749301 1.90385 0
M  V30 4730 H 439.559 -0.407517 4.0596 0
M  V30 4731 H 438.234 0.744386 4.09184 0
M  V30 4732 H 436.811 -1.01636 3.58782 0
M  V30 4733 N 438.996 -1.55193 0.274407 0
M  V30 4734 C 440.242 -1.99877 -0.343086 0
M  V30 4735 C 440.575 -1.16256 -1.55558 0
M  V30 4736 O 439.85 -0.232462 -1.93106 0
M  V30 4737 C 440.133 -3.52706 -0.725965 0
M  V30 4738 C 439.986 -4.47081 0.493818 0
M  V30 4739 C 441.305 -4.11422 -1.56268 0
M  V30 4740 H 438.424 -0.726625 -0.123229 0
M  V30 4741 H 441.066 -1.86136 0.38121 0
M  V30 4742 H 439.216 -3.64546 -1.34307 0
M  V30 4743 H 440.888 -4.47186 1.13237 0
M  V30 4744 H 439.131 -4.1877 1.13201 0
M  V30 4745 H 439.802 -5.51699 0.18217 0
M  V30 4746 H 442.278 -4.02855 -1.04151 0
M  V30 4747 H 441.154 -5.18568 -1.79939 0
M  V30 4748 H 441.415 -3.61607 -2.54348 0
M  V30 4749 N 440.474 -0.00167713 -1.576 0
M  V30 4750 C 441.699 0.69739 -1.95323 0
M  V30 4751 C 442.124 1.6642 -0.876706 0
M  V30 4752 O 441.482 1.80548 0.165007 0
M  V30 4753 C 441.53 1.40403 -3.32144 0
M  V30 4754 O 440.634 2.5185 -3.26566 0
M  V30 4755 H 439.975 0.185373 -0.637599 0
M  V30 4756 H 442.505 -0.0553665 -2.04525 0
M  V30 4757 H 442.515 1.76707 -3.67748 0
M  V30 4758 H 441.19 0.695167 -4.10049 0
M  V30 4759 H 439.767 2.17861 -3.0264 0
M  V30 4760 N 441.952 1.55251 0.271103 0
M  V30 4761 C 443.177 1.80306 1.02491 0
M  V30 4762 C 443.602 0.575457 1.79081 0
M  V30 4763 O 442.96 -0.474987 1.74967 0
M  V30 4764 C 443.008 3.02832 1.95768 0
M  V30 4765 O 442.112 2.78051 3.04568 0
M  V30 4766 H 441.453 0.595896 0.292923 0
M  V30 4767 H 443.983 2.02397 0.299436 0
M  V30 4768 H 443.993 3.31616 2.37686 0
M  V30 4769 H 442.668 3.9183 1.39434 0
M  V30 4770 H 441.245 2.60369 2.66951 0
M  V30 4771 N 443.43 -0.535701 1.48216 0
M  V30 4772 C 444.393 -1.623 1.61838 0
M  V30 4773 C 445.393 -1.53087 0.492024 0
M  V30 4774 O 446.583 -1.5686 0.757668 0
M  V30 4775 C 443.715 -3.01907 1.58319 0
M  V30 4776 H 444.908 -1.51564 2.58783 0
M  V30 4777 H 442.461 -0.757317 1.36727 0
M  V30 4778 H 443.196 -3.18155 0.628299 0
M  V30 4779 H 442.981 -3.10003 2.40085 0
M  V30 4780 H 444.471 -3.80969 1.71033 0
M  V30 4781 N 444.908 -1.36708 -0.784132 0
M  V30 4782 C 445.838 -1.34153 -1.91116 0
M  V30 4783 C 446.819 -0.212121 -1.68772 0
M  V30 4784 O 448.004 -0.410581 -1.8981 0
M  V30 4785 C 445.134 -1.13535 -3.28218 0
M  V30 4786 C 444.088 -2.23356 -3.65097 0
M  V30 4787 C 443.414 -1.87875 -5.00607 0
M  V30 4788 C 444.714 -3.65473 -3.73131 0
M  V30 4789 H 446.408 -2.28459 -1.93512 0
M  V30 4790 H 443.954 -1.09973 -0.929618 0
M  V30 4791 H 445.907 -1.10381 -4.06687 0
M  V30 4792 H 444.631 -0.156804 -3.26223 0
M  V30 4793 H 443.29 -2.25645 -2.88929 0
M  V30 4794 H 442.938 -0.885814 -4.95139 0
M  V30 4795 H 442.638 -2.61406 -5.26252 0
M  V30 4796 H 444.162 -1.86286 -5.81489 0
M  V30 4797 H 445.576 -3.65382 -4.41779 0
M  V30 4798 H 443.973 -4.37953 -4.10265 0
M  V30 4799 H 445.043 -3.99995 -2.74102 0
M  V30 4800 N 446.386 1.0089 -1.21074 0
M  V30 4801 C 447.616 1.77933 -1.04993 0
M  V30 4802 C 448.024 1.84847 0.403495 0
M  V30 4803 O 447.367 1.30606 1.29181 0
M  V30 4804 C 447.429 3.23541 -1.56722 0
M  V30 4805 C 447.093 3.40214 -3.05129 0
M  V30 4806 C 448.09 3.2881 -4.02716 0
M  V30 4807 C 445.775 3.65781 -3.44252 0
M  V30 4808 C 447.769 3.42732 -5.37414 0
M  V30 4809 C 445.456 3.79346 -4.79103 0
M  V30 4810 C 446.454 3.67827 -5.75493 0
M  V30 4811 O 446.142 3.80965 -7.07899 0
M  V30 4812 H 445.874 0.566157 -0.369381 0
M  V30 4813 H 448.428 1.27826 -1.60779 0
M  V30 4814 H 446.658 3.74766 -0.953285 0
M  V30 4815 H 448.347 3.82245 -1.36543 0
M  V30 4816 H 449.113 3.08986 -3.73835 0
M  V30 4817 H 444.992 3.73831 -2.69762 0
M  V30 4818 H 448.536 3.33658 -6.12632 0
M  V30 4819 H 444.433 3.98672 -5.07672 0
M  V30 4820 H 445.201 3.97937 -7.15254 0
M  V30 4821 N 447.864 1.01787 1.20321 0
M  V30 4822 C 449.089 0.727009 1.9424 0
M  V30 4823 C 449.514 -0.706179 1.74341 0
M  V30 4824 O 448.872 -1.48609 1.03852 0
M  V30 4825 C 448.92 1.06958 3.44372 0
M  V30 4826 O 448.024 0.181983 4.11998 0
M  V30 4827 H 447.365 0.269626 0.606793 0
M  V30 4828 H 449.895 1.36158 1.52716 0
M  V30 4829 H 449.905 1.02182 3.94997 0
M  V30 4830 H 448.58 2.11378 3.58179 0
M  V30 4831 H 447.157 0.287378 3.71791 0
M  V30 4832 N 449.342 -1.36122 0.79427 0
M  V30 4833 C 450.753 -1.81646 0.431446 0
M  V30 4834 C 451.104 -1.66043 -1.04518 0
M  V30 4835 O 450.229 -1.1841 -1.8113 0
M  V30 4836 C 450.824 -3.29785 0.776341 0
M  V30 4837 C 449.383 -3.73501 0.466282 0
M  V30 4838 C 448.53 -2.58313 1.00844 0
M  V30 4839 H 451.481 -1.24274 0.986995 0
M  V30 4840 H 451.502 -3.80437 0.0692413 0
M  V30 4841 H 451.014 -3.4111 1.8511 0
M  V30 4842 H 449.115 -3.67733 -0.600245 0
M  V30 4843 H 449.228 -4.68754 0.990288 0
M  V30 4844 H 447.592 -2.5102 0.431406 0
M  V30 4845 H 448.375 -2.72421 2.08906 0
M  V30 4846 N 450.82 -0.546701 -1.47814 0
M  V30 4847 C 451.783 0.196287 -2.28358 0
M  V30 4848 C 452.783 0.852437 -1.36346 0
M  V30 4849 O 453.973 0.709913 -1.59078 0
M  V30 4850 C 451.105 1.28579 -3.15722 0
M  V30 4851 H 452.298 -0.511086 -2.95513 0
M  V30 4852 H 449.851 -0.303248 -1.5333 0
M  V30 4853 H 450.586 2.0259 -2.53235 0
M  V30 4854 H 450.371 0.820229 -3.83425 0
M  V30 4855 H 451.861 1.80793 -3.76435 0
M  V30 4856 N 452.299 1.55045 -0.282633 0
M  V30 4857 C 453.231 2.2023 0.634924 0
M  V30 4858 C 454.244 1.18931 1.11172 0
M  V30 4859 O 455.433 1.4562 1.03233 0
M  V30 4860 C 452.533 2.82041 1.87899 0
M  V30 4861 C 451.706 4.091 1.54776 0
M  V30 4862 C 450.765 4.54887 2.64507 0
M  V30 4863 O 449.791 5.20496 2.30375 0
M  V30 4864 N 450.993 4.25659 3.94709 0
M  V30 4865 H 453.758 2.99601 0.0769811 0
M  V30 4866 H 451.319 1.61565 -0.104048 0
M  V30 4867 H 453.311 3.09613 2.60619 0
M  V30 4868 H 451.881 2.06618 2.3458 0
M  V30 4869 H 451.101 3.88736 0.654049 0
M  V30 4870 H 452.389 4.9187 1.30158 0
M  V30 4871 H 451.787 3.7306 4.25256 0
M  V30 4872 H 450.344 4.57984 4.63782 0
M  V30 4873 N 453.777 0.010035 1.57597 0
M  V30 4874 C 455.188 -0.531426 1.78977 0
M  V30 4875 C 455.539 -1.73375 0.918454 0
M  V30 4876 O 454.664 -2.16047 0.123635 0
M  V30 4877 C 455.259 -0.97086 3.24592 0
M  V30 4878 C 453.818 -1.45756 3.47033 0
M  V30 4879 C 452.965 -0.413384 2.74201 0
M  V30 4880 H 455.916 0.236166 1.56933 0
M  V30 4881 H 455.937 -1.83633 3.33255 0
M  V30 4882 H 455.449 -0.0955893 3.87982 0
M  V30 4883 H 453.55 -2.35339 2.88871 0
M  V30 4884 H 453.663 -1.4781 4.55729 0
M  V30 4885 H 452.027 -0.877266 2.39115 0
M  V30 4886 H 452.81 0.453092 3.40297 0
M  V30 4887 N 455.255 -1.55392 -0.262866 0
M  V30 4888 C 456.48 -1.80847 -1.01533 0
M  V30 4889 C 456.905 -0.584946 -1.78774 0
M  V30 4890 O 456.263 0.465701 -1.75217 0
M  V30 4891 C 456.311 -3.03866 -1.94159 0
M  V30 4892 O 455.415 -2.79662 -3.03089 0
M  V30 4893 H 454.756 -0.597441 -0.289759 0
M  V30 4894 H 457.286 -2.02553 -0.288698 0
M  V30 4895 H 457.296 -3.32872 -2.35924 0
M  V30 4896 H 455.971 -3.92564 -1.37354 0
M  V30 4897 H 454.548 -2.61781 -2.65566 0
M  V30 4898 N 456.733 0.527833 -1.48498 0
M  V30 4899 C 457.663 1.64136 -1.66077 0
M  V30 4900 C 458.644 1.62286 -0.509625 0
M  V30 4901 O 459.829 1.79449 -0.742413 0
M  V30 4902 C 456.959 3.02717 -1.70234 0
M  V30 4903 C 455.913 3.19426 -2.8487 0
M  V30 4904 C 455.239 4.5909 -2.74118 0
M  V30 4905 C 456.539 3.01993 -4.26142 0
M  V30 4906 H 458.233 1.4968 -2.593 0
M  V30 4907 H 455.779 0.718654 -1.24785 0
M  V30 4908 H 457.732 3.80491 -1.8112 0
M  V30 4909 H 456.456 3.18201 -0.735911 0
M  V30 4910 H 455.115 2.4407 -2.73542 0
M  V30 4911 H 454.763 4.71413 -1.7544 0
M  V30 4912 H 454.463 4.71214 -3.51042 0
M  V30 4913 H 455.987 5.3896 -2.86974 0
M  V30 4914 H 457.401 3.69558 -4.38292 0
M  V30 4915 H 455.798 3.2561 -5.04082 0
M  V30 4916 H 456.868 1.98396 -4.42456 0
M  V30 4917 N 458.211 1.37122 0.776871 0
M  V30 4918 C 459.143 1.28342 1.89897 0
M  V30 4919 C 460.156 0.200277 1.61563 0
M  V30 4920 O 461.345 0.456012 1.72577 0
M  V30 4921 C 458.445 0.960427 3.25006 0
M  V30 4922 C 457.618 2.148 3.81025 0
M  V30 4923 C 456.677 1.79608 4.94598 0
M  V30 4924 O 455.703 2.51845 5.10454 0
M  V30 4925 N 456.905 0.737171 5.758 0
M  V30 4926 H 459.67 2.25027 1.97947 0
M  V30 4927 H 457.231 1.3068 0.955739 0
M  V30 4928 H 459.223 0.705942 3.98495 0
M  V30 4929 H 457.793 0.0823066 3.12492 0
M  V30 4930 H 457.013 2.56454 2.99374 0
M  V30 4931 H 458.301 2.9411 4.15183 0
M  V30 4932 H 457.699 0.137637 5.65533 0
M  V30 4933 H 456.256 0.542534 6.49538 0
M  V30 4934 N 459.689 -1.00246 1.21608 0
M  V30 4935 C 460.652 -2.07233 0.979133 0
M  V30 4936 C 461.652 -1.6072 -0.0508219 0
M  V30 4937 O 462.842 -1.73196 0.186712 0
M  V30 4938 C 459.974 -3.37546 0.477016 0
M  V30 4939 H 461.167 -2.29687 1.92831 0
M  V30 4940 H 458.72 -1.17261 1.03342 0
M  V30 4941 H 459.455 -3.20773 -0.476966 0
M  V30 4942 H 459.24 -3.72638 1.21997 0
M  V30 4943 H 460.73 -4.16285 0.331181 0
M  V30 4944 N 461.167 -1.02423 -1.1978 0
M  V30 4945 C 462.097 -0.62157 -2.25075 0
M  V30 4946 C 463.078 0.367148 -1.6609 0
M  V30 4947 O 464.263 0.250892 -1.92573 0
M  V30 4948 C 461.393 0.0331826 -3.47284 0
M  V30 4949 C 460.347 -0.877323 -4.18912 0
M  V30 4950 C 459.673 -0.0879296 -5.34628 0
M  V30 4951 C 460.973 -2.18892 -4.74219 0
M  V30 4952 H 462.667 -1.50179 -2.59011 0
M  V30 4953 H 460.213 -0.723547 -1.24502 0
M  V30 4954 H 462.166 0.326488 -4.20133 0
M  V30 4955 H 460.89 0.948164 -3.12534 0
M  V30 4956 H 459.549 -1.15475 -3.47938 0
M  V30 4957 H 459.197 0.828941 -4.96123 0
M  V30 4958 H 458.897 -0.694359 -5.83483 0
M  V30 4959 H 460.421 0.198743 -6.10276 0
M  V30 4960 H 461.835 -1.95746 -5.38847 0
M  V30 4961 H 460.232 -2.74686 -5.33542 0
M  V30 4962 H 461.302 -2.84674 -3.92541 0
M  V30 4963 N 462.645 1.35699 -0.801477 0
M  V30 4964 C 463.595 2.2728 -0.181073 0
M  V30 4965 C 464.579 1.47533 0.642098 0
M  V30 4966 O 465.771 1.69785 0.500193 0
M  V30 4967 C 462.9 3.36626 0.673612 0
M  V30 4968 C 461.986 4.23802 -0.159008 0
M  V30 4969 N 462.377 4.90879 -1.2195 0
M  V30 4970 C 460.675 4.45959 0.0602005 0
M  V30 4971 C 461.376 5.5546 -1.72738 0
M  V30 4972 N 460.352 5.33663 -1.03465 0
M  V30 4973 H 464.154 2.76632 -0.992582 0
M  V30 4974 H 461.668 1.49166 -0.642127 0
M  V30 4975 H 463.665 4.01179 1.13408 0
M  V30 4976 H 462.325 2.88828 1.48353 0
M  V30 4977 H 463.336 4.92497 -1.60209 0
M  V30 4978 H 460.013 4.08969 0.839664 0
M  V30 4979 H 461.403 6.18991 -2.61342 0
M  V30 4980 N 464.123 0.554532 1.47522 0
M  V30 4981 C 465.086 -0.184174 2.28459 0
M  V30 4982 C 466.086 -0.845195 1.36796 0
M  V30 4983 O 467.276 -0.701467 1.59452 0
M  V30 4984 C 464.408 -1.26903 3.16399 0
M  V30 4985 H 465.601 0.526751 2.95238 0
M  V30 4986 H 463.154 0.311375 1.53167 0
M  V30 4987 H 463.889 -2.01244 2.54306 0
M  V30 4988 H 463.674 -0.799883 3.83854 0
M  V30 4989 H 465.164 -1.78794 3.77389 0
M  V30 4990 N 465.601 -1.54893 0.290851 0
M  V30 4991 C 466.831 -2.04047 -0.323818 0
M  V30 4992 C 467.239 -1.16809 -1.48837 0
M  V30 4993 O 466.582 -0.184145 -1.82775 0
M  V30 4994 C 466.644 -3.49248 -0.852395 0
M  V30 4995 C 466.308 -4.56623 0.185557 0
M  V30 4996 C 467.305 -5.09985 1.01053 0
M  V30 4997 C 464.99 -5.01252 0.324332 0
M  V30 4998 C 466.984 -6.06507 1.96031 0
M  V30 4999 C 464.671 -5.97596 1.27757 0
M  V30 5000 C 465.669 -6.50107 2.09405 0
M  V30 5001 O 465.357 -7.44565 3.03114 0
M  V30 5002 H 465.089 -0.671735 -0.0758129 0
M  V30 5003 H 467.643 -2.00947 0.425393 0
M  V30 5004 H 465.873 -3.49639 -1.65195 0
M  V30 5005 H 467.562 -3.81654 -1.38185 0
M  V30 5006 H 468.328 -4.76307 0.914129 0
M  V30 5007 H 464.207 -4.60015 -0.301213 0
M  V30 5008 H 467.751 -6.47418 2.598 0
M  V30 5009 H 463.648 -6.30691 1.37473 0
M  V30 5010 H 464.416 -7.62334 2.97976 0
M  V30 5011 N 467.08 -0.0183926 -1.57589 0
M  V30 5012 C 468.012 0.995557 -2.06449 0
M  V30 5013 C 469.025 1.29556 -0.985849 0
M  V30 5014 O 470.214 1.2621 -1.26227 0
M  V30 5015 C 467.314 2.32572 -2.46502 0
M  V30 5016 C 466.487 2.21245 -3.77319 0
M  V30 5017 C 465.546 3.37104 -4.04039 0
M  V30 5018 O 464.572 3.14468 -4.74445 0
M  V30 5019 N 465.774 4.60553 -3.53372 0
M  V30 5020 H 468.539 0.578746 -2.94059 0
M  V30 5021 H 466.1 0.168603 -1.6102 0
M  V30 5022 H 468.092 3.08887 -2.61478 0
M  V30 5023 H 466.662 2.65931 -1.64315 0
M  V30 5024 H 465.882 1.29723 -3.72244 0
M  V30 5025 H 467.17 2.10868 -4.63047 0
M  V30 5026 H 466.568 4.81839 -2.96391 0
M  V30 5027 H 465.125 5.34072 -3.73644 0
M  V30 5028 N 468.558 1.5553 0.254621 0
M  V30 5029 C 469.468 1.92789 1.33677 0
M  V30 5030 C 470.484 0.827356 1.53071 0
M  V30 5031 O 471.66 1.12807 1.66843 0
M  V30 5032 C 468.725 2.20827 2.67275 0
M  V30 5033 C 467.786 3.4427 2.5647 0
M  V30 5034 C 467.019 3.70961 3.83697 0
M  V30 5035 O 467.242 2.99852 4.85227 0
M  V30 5036 O 466.176 4.64491 3.82794 0
M  V30 5037 H 470.002 2.84945 1.05071 0
M  V30 5038 H 467.587 1.42312 0.454723 0
M  V30 5039 H 469.469 2.40204 3.46237 0
M  V30 5040 H 468.144 1.31851 2.9563 0
M  V30 5041 H 467.051 3.30209 1.75821 0
M  V30 5042 H 468.384 4.33524 2.33062 0
M  V30 5043 N 470.036 -0.519951 1.48776 0
M  V30 5044 C 471.261 -1.30447 1.6124 0
M  V30 5045 C 471.686 -1.86055 0.276591 0
M  V30 5046 O 471.044 -1.64915 -0.753183 0
M  V30 5047 C 471.092 -2.42406 2.66967 0
M  V30 5048 O 470.196 -3.45728 2.24824 0
M  V30 5049 H 469.537 -0.385924 0.540332 0
M  V30 5050 H 472.067 -0.624572 1.94834 0
M  V30 5051 H 472.077 -2.88447 2.88552 0
M  V30 5052 H 470.752 -2.01294 3.63941 0
M  V30 5053 H 469.329 -3.05737 2.13494 0
M  V30 5054 N 471.514 -1.37532 -0.769588 0
M  V30 5055 C 472.761 -1.3286 -1.52822 0
M  V30 5056 C 473.089 0.0862597 -1.94309 0
M  V30 5057 O 472.344 1.05995 -1.6451 0
M  V30 5058 C 472.643 -2.21558 -2.8044 0
M  V30 5059 C 472.309 -3.69796 -2.57996 0
M  V30 5060 C 470.971 -4.10194 -2.51583 0
M  V30 5061 C 473.323 -4.63699 -2.37976 0
M  V30 5062 C 470.651 -5.42608 -2.23144 0
M  V30 5063 C 473.003 -5.96353 -2.1106 0
M  V30 5064 C 471.667 -6.35853 -2.03093 0
M  V30 5065 H 470.937 -0.486168 -0.559215 0
M  V30 5066 H 473.584 -1.69757 -0.886277 0
M  V30 5067 H 471.889 -1.77663 -3.49204 0
M  V30 5068 H 473.586 -2.15256 -3.38328 0
M  V30 5069 H 470.176 -3.37759 -2.63851 0
M  V30 5070 H 474.36 -4.33346 -2.41919 0
M  V30 5071 H 469.616 -5.72173 -2.15472 0
M  V30 5072 H 473.79 -6.68667 -1.94568 0
M  V30 5073 H 471.417 -7.38382 -1.8082 0
M  V30 5074 N 472.992 0.995999 -1.22138 0
M  V30 5075 C 474.22 1.77066 -1.07029 0
M  V30 5076 C 474.635 1.8495 0.379357 0
M  V30 5077 O 473.992 1.3174 1.26297 0
M  V30 5078 C 474.043 3.20533 -1.67155 0
M  V30 5079 O 473.764 3.13082 -3.06449 0
M  V30 5080 C 475.265 4.14461 -1.5728 0
M  V30 5081 H 472.485 0.556179 -0.375374 0
M  V30 5082 H 475.029 1.25238 -1.61666 0
M  V30 5083 H 473.184 3.6944 -1.16589 0
M  V30 5084 H 473.598 4.03283 -3.35355 0
M  V30 5085 H 475.072 5.1289 -2.04078 0
M  V30 5086 H 475.549 4.36005 -0.528795 0
M  V30 5087 H 476.155 3.71449 -2.07136 0
M  V30 5088 N 474.47 1.03057 1.19235 0
M  V30 5089 C 475.881 0.757449 1.70645 0
M  V30 5090 C 476.232 -0.722735 1.82403 0
M  V30 5091 O 475.357 -1.56325 1.49638 0
M  V30 5092 C 475.952 1.36833 3.09939 0
M  V30 5093 C 474.511 1.14375 3.58602 0
M  V30 5094 C 473.658 1.46533 2.35422 0
M  V30 5095 H 476.609 1.19828 1.04052 0
M  V30 5096 H 476.63 0.766184 3.72706 0
M  V30 5097 H 476.142 2.44562 3.01349 0
M  V30 5098 H 474.243 0.0847542 3.72504 0
M  V30 5099 H 474.356 1.83366 4.42622 0
M  V30 5100 H 472.72 0.884712 2.38841 0
M  V30 5101 H 473.503 2.55349 2.2946 0
M  V30 5102 N 475.948 -1.35272 0.808662 0
M  V30 5103 C 477.176 -2.02946 0.402537 0
M  V30 5104 C 477.591 -1.60937 -0.987147 0
M  V30 5105 O 476.948 -0.807917 -1.63643 0
M  V30 5106 C 476.999 -3.58317 0.47868 0
M  V30 5107 O 476.72 -3.98799 1.81358 0
M  V30 5108 C 478.221 -4.43251 0.0656281 0
M  V30 5109 H 475.441 -0.650831 0.163279 0
M  V30 5110 H 477.985 -1.72849 1.09286 0
M  V30 5111 H 476.14 -3.87055 -0.163415 0
M  V30 5112 H 476.554 -4.93451 1.77781 0
M  V30 5113 H 478.028 -5.51738 0.170017 0
M  V30 5114 H 478.505 -4.27913 -0.989278 0
M  V30 5115 H 479.111 -4.19813 0.68096 0
M  V30 5116 N 477.426 -0.562348 -1.47226 0
M  V30 5117 C 478.336 0.185466 -2.33866 0
M  V30 5118 C 479.352 0.906713 -1.48508 0
M  V30 5119 O 480.528 0.874458 -1.81425 0
M  V30 5120 C 477.593 1.19904 -3.25306 0
M  V30 5121 C 476.654 0.484669 -4.26555 0
M  V30 5122 C 475.887 1.44996 -5.13626 0
M  V30 5123 O 476.11 2.68515 -5.03245 0
M  V30 5124 O 475.044 0.971642 -5.94006 0
M  V30 5125 H 478.87 -0.525361 -2.99121 0
M  V30 5126 H 476.455 -0.322916 -1.45868 0
M  V30 5127 H 478.337 1.78399 -3.81774 0
M  V30 5128 H 477.012 1.8917 -2.62672 0
M  V30 5129 H 475.919 -0.141605 -3.73832 0
M  V30 5130 H 477.252 -0.166634 -4.91918 0
M  V30 5131 N 478.904 1.54736 -0.299062 0
M  V30 5132 C 479.814 2.27127 0.587413 0
M  V30 5133 C 480.83 1.30575 1.15005 0
M  V30 5134 O 482.006 1.63554 1.17525 0
M  V30 5135 C 479.071 2.99645 1.74395 0
M  V30 5136 C 478.132 4.11731 1.21559 0
M  V30 5137 C 477.365 4.80781 2.317 0
M  V30 5138 O 477.588 4.4918 3.51558 0
M  V30 5139 O 476.522 5.68226 1.98501 0
M  V30 5140 H 480.348 3.037 0.000250109 0
M  V30 5141 H 477.933 1.49256 -0.0655919 0
M  V30 5142 H 479.815 3.45138 2.4178 0
M  V30 5143 H 478.49 2.25969 2.31775 0
M  V30 5144 H 477.397 3.70641 0.507514 0
M  V30 5145 H 478.73 4.87379 0.687233 0
M  V30 5146 N 480.382 0.0267497 1.57577 0
M  V30 5147 C 481.332 -0.965003 2.06571 0
M  V30 5148 C 482.316 -1.28694 0.965746 0
M  V30 5149 O 483.508 -1.27345 1.22932 0
M  V30 5150 C 480.637 -2.24821 2.59443 0
M  V30 5151 C 479.723 -1.95474 3.76365 0
M  V30 5152 N 480.114 -1.36387 4.87065 0
M  V30 5153 C 478.412 -2.25478 3.84806 0
M  V30 5154 C 479.113 -1.24119 5.68304 0
M  V30 5155 N 478.089 -1.7359 5.15138 0
M  V30 5156 H 481.891 -0.503095 2.89562 0
M  V30 5157 H 479.405 -0.178322 1.61418 0
M  V30 5158 H 481.402 -2.9674 2.92833 0
M  V30 5159 H 480.062 -2.7164 1.77881 0
M  V30 5160 H 481.073 -1.03919 5.07367 0
M  V30 5161 H 477.75 -2.74987 3.14147 0
M  V30 5162 H 479.14 -0.784504 6.67304 0
M  V30 5163 N 481.861 -1.55662 -0.24637 0
M  V30 5164 C 483.107 -1.77782 -0.975779 0
M  V30 5165 C 483.44 -0.592103 -1.84953 0
M  V30 5166 O 482.715 0.409588 -1.90138 0
M  V30 5167 C 482.998 -3.09788 -1.83584 0
M  V30 5168 C 482.851 -4.38764 -0.990241 0
M  V30 5169 C 484.17 -3.38029 -2.81823 0
M  V30 5170 H 481.289 -0.646789 -0.353317 0
M  V30 5171 H 483.931 -1.88398 -0.246248 0
M  V30 5172 H 482.081 -3.00869 -2.45784 0
M  V30 5173 H 483.753 -4.59675 -0.386897 0
M  V30 5174 H 481.996 -4.32798 -0.294626 0
M  V30 5175 H 482.667 -5.27514 -1.62584 0
M  V30 5176 H 485.143 -3.46915 -2.2976 0
M  V30 5177 H 484.019 -4.3161 -3.39122 0
M  V30 5178 H 484.28 -2.58968 -3.58313 0
M  V30 5179 N 483.339 0.512053 -1.4905 0
M  V30 5180 C 484.269 1.62365 -1.67809 0
M  V30 5181 C 485.25 1.61737 -0.526809 0
M  V30 5182 O 486.435 1.78651 -0.761404 0
M  V30 5183 C 483.565 3.00895 -1.73435 0
M  V30 5184 C 482.519 3.16387 -2.88242 0
M  V30 5185 C 481.845 4.56157 -2.78971 0
M  V30 5186 C 483.145 2.97457 -4.29321 0
M  V30 5187 H 484.839 1.46921 -2.60873 0
M  V30 5188 H 482.385 0.705379 -1.2554 0
M  V30 5189 H 484.338 3.78549 -1.85145 0
M  V30 5190 H 483.062 3.17403 -0.769619 0
M  V30 5191 H 481.721 2.41155 -2.76116 0
M  V30 5192 H 481.369 4.69525 -1.8043 0
M  V30 5193 H 481.069 4.67465 -3.5602 0
M  V30 5194 H 482.593 5.35886 -2.92675 0
M  V30 5195 H 484.007 3.64888 -4.42187 0
M  V30 5196 H 482.404 3.20245 -5.07507 0
M  V30 5197 H 483.474 1.93692 -4.44535 0
M  V30 5198 N 484.817 1.37938 0.762283 0
M  V30 5199 C 486.063 1.33866 1.52341 0
M  V30 5200 C 486.396 -0.0738961 1.94059 0
M  V30 5201 O 485.671 -1.03326 1.64785 0
M  V30 5202 C 485.954 2.28644 2.78197 0
M  V30 5203 C 485.807 3.78722 2.42672 0
M  V30 5204 C 487.126 2.21702 3.80179 0
M  V30 5205 H 484.245 0.487593 0.55265 0
M  V30 5206 H 486.887 1.68717 0.873767 0
M  V30 5207 H 485.037 1.99055 3.33631 0
M  V30 5208 H 486.709 4.18948 1.93081 0
M  V30 5209 H 484.952 3.96827 1.75244 0
M  V30 5210 H 485.623 4.40486 3.3268 0
M  V30 5211 H 488.099 2.47805 3.34263 0
M  V30 5212 H 486.975 2.90143 4.65949 0
M  V30 5213 H 487.236 1.21301 4.25133 0
M  V30 5214 N 486.295 -0.989507 1.22664 0
M  V30 5215 C 487.541 -1.7321 1.05481 0
M  V30 5216 C 487.874 -1.89852 -0.408635 0
M  V30 5217 O 487.149 -1.44416 -1.30285 0
M  V30 5218 C 487.432 -3.1357 1.77047 0
M  V30 5219 C 487.285 -3.04555 3.31008 0
M  V30 5220 C 488.604 -4.12812 1.5256 0
M  V30 5221 H 485.723 -0.628697 0.384589 0
M  V30 5222 H 488.365 -1.15258 1.51049 0
M  V30 5223 H 486.515 -3.63046 1.3831 0
M  V30 5224 H 488.187 -2.62674 3.7921 0
M  V30 5225 H 486.43 -2.41278 3.6051 0
M  V30 5226 H 487.101 -4.03894 3.76263 0
M  V30 5227 H 489.577 -3.72106 1.86215 0
M  V30 5228 H 488.453 -5.09132 2.05124 0
M  V30 5229 H 488.714 -4.39711 0.458936 0
M  V30 5230 N 487.773 -1.03688 -1.18687 0
M  V30 5231 C 489.189 -0.755413 -1.4059 0
M  V30 5232 C 489.389 0.656659 -1.905 0
M  V30 5233 O 488.445 1.42144 -2.08689 0
M  V30 5234 C 489.758 -1.7983 -2.41001 0
M  V30 5235 C 491.306 -1.81877 -2.54735 0
M  V30 5236 C 491.781 -2.85148 -3.58406 0
M  V30 5237 N 493.272 -2.84015 -3.6591 0
M  V30 5238 C 494.007 -3.60573 -4.45841 0
M  V30 5239 N 493.503 -4.46871 -5.29413 0
M  V30 5240 N 495.296 -3.49079 -4.40568 0
M  V30 5241 H 487.447 -1.94818 -0.846148 0
M  V30 5242 H 489.71 -0.842727 -0.434184 0
M  V30 5243 H 489.416 -2.81097 -2.1137 0
M  V30 5244 H 489.29 -1.62727 -3.40294 0
M  V30 5245 H 491.677 -0.812836 -2.83685 0
M  V30 5246 H 491.758 -2.03057 -1.55568 0
M  V30 5247 H 491.402 -3.85918 -3.30197 0
M  V30 5248 H 491.332 -2.61224 -4.57241 0
M  V30 5249 H 493.823 -2.21431 -3.0623 0
M  V30 5250 H 494.136 -5.02007 -5.87545 0
M  V30 5251 H 492.481 -4.5094 -5.28846 0
M  V30 5252 H 495.672 -2.81066 -3.74325 0
M  V30 5253 H 495.845 -4.08994 -5.02621 0
M  V30 5254 N 489.251 1.34841 -0.815825 0
M  V30 5255 C 490.181 2.32187 -0.247298 0
M  V30 5256 C 491.162 1.5791 0.632344 0
M  V30 5257 O 492.347 1.8593 0.560698 0
M  V30 5258 C 489.477 3.42122 0.597466 0
M  V30 5259 C 488.431 4.27602 -0.184446 0
M  V30 5260 C 487.757 5.28942 0.782609 0
M  V30 5261 C 489.057 5.03502 -1.38865 0
M  V30 5262 H 490.751 2.79985 -1.06061 0
M  V30 5263 H 488.297 1.34611 -0.511461 0
M  V30 5264 H 490.25 4.09232 1.00533 0
M  V30 5265 H 488.974 2.92956 1.44376 0
M  V30 5266 H 487.633 3.62085 -0.573592 0
M  V30 5267 H 487.281 4.7604 1.62466 0
M  V30 5268 H 486.981 5.87008 0.263695 0
M  V30 5269 H 488.505 5.98922 1.18848 0
M  V30 5270 H 489.919 5.63506 -1.05518 0
M  V30 5271 H 488.316 5.71108 -1.8427 0
M  V30 5272 H 489.386 4.33608 -2.17054 0
M  V30 5273 N 490.729 0.570148 1.46925 0
M  V30 5274 C 491.659 -0.158274 2.32963 0
M  V30 5275 C 492.64 -0.896093 1.44583 0
M  V30 5276 O 493.825 -0.874022 1.7342 0
M  V30 5277 C 490.955 -1.18055 3.26619 0
M  V30 5278 C 489.909 -0.558379 4.24342 0
M  V30 5279 C 489.235 -1.68623 5.07415 0
M  V30 5280 C 490.535 0.496295 5.19937 0
M  V30 5281 H 492.229 0.560046 2.94115 0
M  V30 5282 H 489.775 0.270775 1.41431 0
M  V30 5283 H 491.728 -1.69841 3.85658 0
M  V30 5284 H 490.452 -1.92899 2.63548 0
M  V30 5285 H 489.111 -0.0617157 3.66548 0
M  V30 5286 H 488.759 -2.42402 4.40738 0
M  V30 5287 H 488.459 -1.27564 5.73586 0
M  V30 5288 H 489.983 -2.20709 5.69315 0
M  V30 5289 H 491.397 0.0640052 5.73264 0
M  V30 5290 H 489.794 0.82649 5.94381 0
M  V30 5291 H 490.864 1.38735 4.6463 0
M  V30 5292 N 492.207 -1.54576 0.307264 0
M  V30 5293 C 493.137 -2.26708 -0.55907 0
M  V30 5294 C 494.118 -1.26893 -1.1328 0
M  V30 5295 O 495.303 -1.55677 -1.16097 0
M  V30 5296 C 492.433 -3.01259 -1.72801 0
M  V30 5297 C 491.387 -4.08275 -1.28435 0
M  V30 5298 C 490.713 -4.70575 -2.53895 0
M  V30 5299 C 492.013 -5.2068 -0.411038 0
M  V30 5300 H 493.707 -2.9937 0.042576 0
M  V30 5301 H 491.253 -1.43983 0.0219173 0
M  V30 5302 H 493.206 -3.50444 -2.34023 0
M  V30 5303 H 491.93 -2.26187 -2.356 0
M  V30 5304 H 490.589 -3.59949 -0.695161 0
M  V30 5305 H 490.237 -3.92136 -3.15021 0
M  V30 5306 H 489.937 -5.42854 -2.24908 0
M  V30 5307 H 491.461 -5.22527 -3.15908 0
M  V30 5308 H 492.875 -5.65721 -0.929097 0
M  V30 5309 H 491.272 -5.99716 -0.214664 0
M  V30 5310 H 492.342 -4.81629 0.562287 0
M  V30 5311 N 493.685 -0.035106 -1.57561 0
M  V30 5312 C 494.632 0.94474 -2.10578 0
M  V30 5313 C 495.602 1.3192 -1.00927 0
M  V30 5314 O 496.787 1.41147 -1.28382 0
M  V30 5315 C 493.927 2.21982 -2.64231 0
M  V30 5316 C 493.04 1.90128 -3.87911 0
M  V30 5317 C 492.175 3.11975 -4.29936 0
M  V30 5318 C 491.214 2.75968 -5.46359 0
M  V30 5319 N 490.351 3.90459 -5.83512 0
M  V30 5320 H 495.191 0.485717 -2.94015 0
M  V30 5321 H 492.728 0.228143 -1.4532 0
M  V30 5322 H 494.686 2.96572 -2.9343 0
M  V30 5323 H 493.316 2.6549 -1.83616 0
M  V30 5324 H 492.368 1.05755 -3.65404 0
M  V30 5325 H 493.68 1.59613 -4.72573 0
M  V30 5326 H 492.834 3.9488 -4.60603 0
M  V30 5327 H 491.573 3.45657 -3.44053 0
M  V30 5328 H 490.578 1.91478 -5.1538 0
M  V30 5329 H 491.803 2.43497 -6.33945 0
M  V30 5330 H 489.749 4.23971 -5.00584 0
M  V30 5331 H 489.666 3.63588 -6.62827 0
M  V30 5332 H 490.934 4.7405 -6.18787 0
M  V30 5333 N 495.163 1.55791 0.238111 0
M  V30 5334 C 496.113 1.87444 1.29803 0
M  V30 5335 C 497.097 0.736043 1.43078 0
M  V30 5336 O 498.289 0.998146 1.46171 0
M  V30 5337 C 495.418 2.18028 2.65177 0
M  V30 5338 C 494.504 3.38217 2.55871 0
M  V30 5339 N 494.895 4.57264 2.16202 0
M  V30 5340 C 493.193 3.41502 2.86866 0
M  V30 5341 C 493.894 5.3941 2.17744 0
M  V30 5342 N 492.87 4.78695 2.57589 0
M  V30 5343 H 496.672 2.7701 0.981965 0
M  V30 5344 H 494.186 1.56135 0.44672 0
M  V30 5345 H 496.183 2.38873 3.4168 0
M  V30 5346 H 494.843 1.29765 2.97643 0
M  V30 5347 H 495.854 4.82727 1.87602 0
M  V30 5348 H 492.531 2.63536 3.23813 0
M  V30 5349 H 493.921 6.44671 1.89339 0
M  V30 5350 N 496.642 -0.504142 1.49319 0
M  V30 5351 C 497.572 -1.61473 1.68667 0
M  V30 5352 C 498.553 -1.61455 0.535378 0
M  V30 5353 O 499.738 -1.78245 0.770868 0
M  V30 5354 C 496.868 -2.99971 1.75028 0
M  V30 5355 C 495.822 -3.14854 2.89916 0
M  V30 5356 C 495.148 -4.54671 2.81387 0
M  V30 5357 C 496.448 -2.95176 4.30893 0
M  V30 5358 H 498.142 -1.45535 2.61648 0
M  V30 5359 H 495.688 -0.698711 1.25913 0
M  V30 5360 H 497.641 -3.77562 1.8715 0
M  V30 5361 H 496.365 -3.1699 0.786441 0
M  V30 5362 H 495.024 -2.39687 2.77391 0
M  V30 5363 H 494.672 -4.68562 1.82917 0
M  V30 5364 H 494.372 -4.6557 3.58494 0
M  V30 5365 H 495.896 -5.34327 2.95512 0
M  V30 5366 H 497.31 -3.62538 4.44116 0
M  V30 5367 H 495.707 -3.17549 5.09198 0
M  V30 5368 H 496.777 -1.91332 4.45556 0
M  V30 5369 N 498.12 -1.38341 -0.754957 0
M  V30 5370 C 499.07 -1.31964 -1.85929 0
M  V30 5371 C 500.054 -0.204181 -1.59599 0
M  V30 5372 O 501.246 -0.440036 -1.71443 0
M  V30 5373 C 498.375 -1.14565 -3.2362 0
M  V30 5374 C 497.461 -2.30727 -3.55846 0
M  V30 5375 N 497.852 -3.56165 -3.59138 0
M  V30 5376 C 496.15 -2.23249 -3.86104 0
M  V30 5377 C 496.851 -4.32865 -3.88591 0
M  V30 5378 N 495.827 -3.62203 -4.05351 0
M  V30 5379 H 499.629 -2.2694 -1.8675 0
M  V30 5380 H 497.143 -1.31553 -0.952243 0
M  V30 5381 H 499.14 -1.0808 -4.02647 0
M  V30 5382 H 497.8 -0.205212 -3.24051 0
M  V30 5383 H 498.811 -3.89854 -3.40932 0
M  V30 5384 H 495.488 -1.37357 -3.94258 0
M  V30 5385 H 496.878 -5.41504 -3.97773 0
M  V30 5386 N 499.598 0.982988 -1.23187 0
M  V30 5387 C 500.561 2.05649 -1.01198 0
M  V30 5388 C 501.561 1.6078 0.0252464 0
M  V30 5389 O 502.751 1.72878 -0.214243 0
M  V30 5390 C 499.883 3.36744 -0.530656 0
M  V30 5391 H 501.076 2.2659 -1.96461 0
M  V30 5392 H 498.629 1.15602 -1.05195 0
M  V30 5393 H 499.364 3.21492 0.425873 0
M  V30 5394 H 499.149 3.7065 -1.2791 0
M  V30 5395 H 500.639 4.15705 -0.397366 0
M  V30 5396 N 501.076 1.04316 1.18135 0
M  V30 5397 C 502.323 0.74802 1.88178 0
M  V30 5398 C 502.651 -0.72441 1.80506 0
M  V30 5399 O 501.906 -1.54463 1.20165 0
M  V30 5400 C 502.205 1.16271 3.37958 0
M  V30 5401 C 501.871 2.63585 3.65833 0
M  V30 5402 C 500.533 3.03829 3.73151 0
M  V30 5403 C 502.885 3.58822 3.78016 0
M  V30 5404 C 500.213 4.38194 3.90132 0
M  V30 5405 C 502.565 4.92909 3.96514 0
M  V30 5406 C 501.229 5.3282 4.02068 0
M  V30 5407 H 500.499 0.27372 0.688592 0
M  V30 5408 H 503.146 1.30863 1.39811 0
M  V30 5409 H 501.451 0.520938 3.88321 0
M  V30 5410 H 503.148 0.911672 3.90499 0
M  V30 5411 H 499.738 2.31414 3.60757 0
M  V30 5412 H 503.922 3.28875 3.71692 0
M  V30 5413 H 499.178 4.68631 3.92677 0
M  V30 5414 H 503.352 5.66606 4.04883 0
M  V30 5415 H 500.979 6.36943 4.14979 0
M  V30 5416 N 502.554 -1.34406 0.822964 0
M  V30 5417 C 503.517 -2.2783 0.250271 0
M  V30 5418 C 504.517 -1.50288 -0.571854 0
M  V30 5419 O 505.707 -1.69825 -0.387952 0
M  V30 5420 C 502.839 -3.34663 -0.649137 0
M  V30 5421 H 504.032 -2.79992 1.07444 0
M  V30 5422 H 501.585 -1.44539 0.594829 0
M  V30 5423 H 502.32 -2.87714 -1.49637 0
M  V30 5424 H 502.105 -3.92052 -0.0611199 0
M  V30 5425 H 503.595 -4.04349 -1.04363 0
M  V30 5426 N 504.032 -0.577932 -1.46621 0
M  V30 5427 C 504.98 0.170882 -2.31971 0
M  V30 5428 C 505.974 0.889086 -1.44193 0
M  V30 5429 O 507.18 0.808017 -1.60845 0
M  V30 5430 H 503.555 0.0739763 -0.748353 0
M  V30 5431 H 505.526 -0.567856 -2.92947 0
M  V30 5432 C 504.275 1.17438 -3.27267 0
M  V30 5433 H 503.598 0.63116 -3.94787 0
M  V30 5434 H 505.038 1.66882 -3.89778 0
M  V30 5435 C 503.497 2.23292 -2.52274 0
M  V30 5436 O 504.027 3.30567 -2.28229 0
M  V30 5437 N 502.233 1.97772 -2.12919 0
M  V30 5438 H 501.78 1.10545 -2.32675 0
M  V30 5439 H 501.738 2.68809 -1.63062 0
M  V30 5440 N 505.51 1.54411 -0.315457 0
M  V30 5441 C 506.735 2.05299 0.294496 0
M  V30 5442 C 507.16 1.19052 1.4563 0
M  V30 5443 O 506.518 0.197804 1.80218 0
M  V30 5444 C 506.566 3.5345 0.714549 0
M  V30 5445 O 505.67 3.70175 1.81781 0
M  V30 5446 H 505.011 0.661743 0.0547019 0
M  V30 5447 H 507.541 1.99327 -0.461508 0
M  V30 5448 H 507.551 3.9557 0.999426 0
M  V30 5449 H 506.226 4.1568 -0.135244 0
M  V30 5450 H 504.803 3.3996 1.53236 0
M  V30 5451 N 506.988 0.0434614 1.5754 0
M  V30 5452 C 507.918 -0.931651 2.14109 0
M  V30 5453 C 508.899 -1.32971 1.06079 0
M  V30 5454 O 510.084 -1.40579 1.33982 0
M  V30 5455 C 507.214 -2.20914 2.67982 0
M  V30 5456 C 506.168 -1.95139 3.80926 0
M  V30 5457 C 505.494 -3.29276 4.21285 0
M  V30 5458 C 506.794 -1.27913 5.06395 0
M  V30 5459 H 508.488 -0.460497 2.95837 0
M  V30 5460 H 506.034 -0.220058 1.42309 0
M  V30 5461 H 507.987 -2.89522 3.06194 0
M  V30 5462 H 506.711 -2.70221 1.83434 0
M  V30 5463 H 505.37 -1.28945 3.43175 0
M  V30 5464 H 505.018 -3.76369 3.33699 0
M  V30 5465 H 504.718 -3.12831 4.97404 0
M  V30 5466 H 506.242 -3.99129 4.62091 0
M  V30 5467 H 507.656 -1.86544 5.42102 0
M  V30 5468 H 506.053 -1.2182 5.87605 0
M  V30 5469 H 507.123 -0.254066 4.84234 0
M  V30 5470 N 508.466 -1.55915 -0.229846 0
M  V30 5471 C 509.413 -1.91734 -1.28478 0
M  V30 5472 C 510.383 -0.773539 -1.46988 0
M  V30 5473 O 511.568 -1.02871 -1.60693 0
M  V30 5474 C 508.708 -2.23224 -2.63182 0
M  V30 5475 C 507.821 -3.50497 -2.52539 0
M  V30 5476 C 506.956 -3.71474 -3.79711 0
M  V30 5477 C 505.995 -4.92289 -3.63755 0
M  V30 5478 N 505.132 -5.09698 -4.82858 0
M  V30 5479 H 509.972 -2.81692 -0.972308 0
M  V30 5480 H 507.509 -1.39429 -0.468815 0
M  V30 5481 H 509.467 -2.3949 -3.41614 0
M  V30 5482 H 508.097 -1.36451 -2.92542 0
M  V30 5483 H 507.149 -3.4247 -1.65585 0
M  V30 5484 H 508.461 -4.39079 -2.36666 0
M  V30 5485 H 507.615 -3.87791 -4.66586 0
M  V30 5486 H 506.354 -2.81157 -3.985 0
M  V30 5487 H 505.359 -4.7593 -2.75264 0
M  V30 5488 H 506.584 -5.84083 -3.46445 0
M  V30 5489 H 504.53 -4.22322 -5.01976 0
M  V30 5490 H 504.447 -5.92399 -4.69681 0
M  V30 5491 H 505.715 -5.30443 -5.71183 0
M  V30 5492 N 509.944 0.496216 -1.49584 0
M  V30 5493 C 511.355 1.07765 -1.52459 0
M  V30 5494 C 511.706 1.93679 -0.31353 0
M  V30 5495 O 510.831 2.08588 0.576186 0
M  V30 5496 C 511.426 1.96111 -2.76271 0
M  V30 5497 C 509.985 2.49409 -2.81908 0
M  V30 5498 C 509.132 1.27142 -2.46435 0
M  V30 5499 H 512.083 0.279914 -1.56212 0
M  V30 5500 H 512.104 2.80862 -2.56704 0
M  V30 5501 H 511.616 1.33555 -3.64396 0
M  V30 5502 H 509.717 3.1559 -1.98074 0
M  V30 5503 H 509.83 2.86234 -3.84196 0
M  V30 5504 H 508.194 1.59818 -1.98319 0
M  V30 5505 H 508.977 0.662866 -3.3684 0
M  V30 5506 N 511.423 1.38739 0.74761 0
M  V30 5507 C 512.333 1.38696 1.89211 0
M  V30 5508 C 513.349 0.283303 1.71678 0
M  V30 5509 O 514.525 0.522713 1.94498 0
M  V30 5510 C 511.59 1.21662 3.24653 0
M  V30 5511 C 510.651 2.41886 3.54669 0
M  V30 5512 C 509.884 2.25655 4.83648 0
M  V30 5513 O 510.107 1.25339 5.56459 0
M  V30 5514 O 509.041 3.14372 5.13277 0
M  V30 5515 H 512.867 2.35143 1.92202 0
M  V30 5516 H 510.452 1.19721 0.893708 0
M  V30 5517 H 512.334 1.14246 4.05618 0
M  V30 5518 H 511.009 0.283024 3.2246 0
M  V30 5519 H 509.916 2.54877 2.73841 0
M  V30 5520 H 511.249 3.33895 3.61628 0
M  V30 5521 N 512.901 -0.976442 1.23707 0
M  V30 5522 C 513.833 -2.07212 0.979574 0
M  V30 5523 C 514.846 -1.6273 -0.0478528 0
M  V30 5524 O 516.035 -1.77506 0.18815 0
M  V30 5525 C 513.135 -3.35835 0.45479 0
M  V30 5526 C 512.308 -4.09268 1.54331 0
M  V30 5527 C 511.367 -5.16166 1.02271 0
M  V30 5528 O 510.393 -5.42827 1.71254 0
M  V30 5529 N 511.595 -5.80313 -0.147419 0
M  V30 5530 H 514.36 -2.29878 1.92292 0
M  V30 5531 H 511.921 -1.14343 1.14618 0
M  V30 5532 H 513.913 -4.04597 0.0914631 0
M  V30 5533 H 512.483 -3.10106 -0.394068 0
M  V30 5534 H 511.703 -3.34906 2.07923 0
M  V30 5535 H 512.991 -4.55095 2.27522 0
M  V30 5536 H 512.389 -5.61043 -0.724353 0
M  V30 5537 H 510.946 -6.50231 -0.451972 0
M  V30 5538 N 514.379 -1.04941 -1.1758 0
M  V30 5539 C 515.342 -0.652456 -2.19717 0
M  V30 5540 C 516.342 0.294745 -1.58076 0
M  V30 5541 O 517.532 0.0789579 -1.74021 0
M  V30 5542 C 514.664 0.0420712 -3.40874 0
M  V30 5543 H 515.857 -1.55642 -2.5635 0
M  V30 5544 H 513.41 -0.842995 -1.31618 0
M  V30 5545 H 514.145 0.95943 -3.09783 0
M  V30 5546 H 513.93 -0.638844 -3.86861 0
M  V30 5547 H 515.42 0.306 -4.16477 0
M  V30 5548 N 515.857 1.33968 -0.830081 0
M  V30 5549 C 517.082 2.02813 -0.433796 0
M  V30 5550 C 517.507 1.62076 0.954614 0
M  V30 5551 O 516.865 0.808955 1.62252 0
M  V30 5552 C 516.913 3.56348 -0.552115 0
M  V30 5553 O 516.017 4.10202 0.425191 0
M  V30 5554 H 515.358 0.639817 -0.177567 0
M  V30 5555 H 517.888 1.7106 -1.12248 0
M  V30 5556 H 517.898 4.05722 -0.430513 0
M  V30 5557 H 516.573 3.85344 -1.56471 0
M  V30 5558 H 515.15 3.71979 0.261878 0
M  V30 5559 N 517.335 0.585699 1.46312 0
M  V30 5560 C 518.746 0.159938 1.86014 0
M  V30 5561 C 519.097 -1.27775 1.48889 0
M  V30 5562 O 518.222 -1.96559 0.90519 0
M  V30 5563 C 518.817 0.283485 3.37612 0
M  V30 5564 C 517.376 -0.0874256 3.76298 0
M  V30 5565 C 516.523 0.618055 2.70325 0
M  V30 5566 H 519.474 0.793737 1.37425 0
M  V30 5567 H 519.495 -0.490348 3.77327 0
M  V30 5568 H 519.007 1.32995 3.64601 0
M  V30 5569 H 517.108 -1.13391 3.54927 0
M  V30 5570 H 517.221 0.290975 4.78216 0
M  V30 5571 H 515.585 0.057993 2.54634 0
M  V30 5572 H 516.368 1.66623 3.00153 0
M  V30 5573 N 518.813 -1.54241 0.323641 0
M  V30 5574 C 520.038 -2.05452 -0.283605 0
M  V30 5575 C 520.463 -1.19823 -1.44997 0
M  V30 5576 O 519.821 -0.207358 -1.8011 0
M  V30 5577 C 519.869 -3.53823 -0.695795 0
M  V30 5578 O 518.973 -3.71134 -1.79815 0
M  V30 5579 H 518.314 -0.662024 -0.0511917 0
M  V30 5580 H 520.844 -1.99079 0.472073 0
M  V30 5581 H 520.854 -3.96094 -0.978434 0
M  V30 5582 H 519.529 -4.15602 0.157287 0
M  V30 5583 H 518.106 -3.40768 -1.51431 0
M  V30 5584 N 520.291 -0.0518155 -1.57515 0
M  V30 5585 C 521.254 0.907547 -2.10467 0
M  V30 5586 C 522.254 1.23947 -1.02439 0
M  V30 5587 O 523.444 1.17604 -1.2851 0
M  V30 5588 C 520.576 2.21723 -2.58944 0
M  V30 5589 H 521.769 0.44851 -2.96527 0
M  V30 5590 H 519.322 0.196598 -1.55059 0
M  V30 5591 H 520.057 2.72206 -1.76279 0
M  V30 5592 H 519.842 1.98935 -3.37886 0
M  V30 5593 H 521.332 2.90441 -3.00056 0
M  V30 5594 N 521.769 1.56035 0.221574 0
M  V30 5595 C 522.719 1.8881 1.27807 0
M  V30 5596 C 523.703 0.751177 1.42289 0
M  V30 5597 O 524.895 1.01359 1.45104 0
M  V30 5598 C 522.024 2.20828 2.6285 0
M  V30 5599 C 521.11 3.40912 2.52269 0
M  V30 5600 N 521.501 4.59531 2.1134 0
M  V30 5601 C 519.799 3.44526 2.83228 0
M  V30 5602 C 520.5 5.41689 2.1201 0
M  V30 5603 N 519.476 4.814 2.52497 0
M  V30 5604 H 523.278 2.78036 0.952529 0
M  V30 5605 H 520.792 1.566 0.430134 0
M  V30 5606 H 522.789 2.42483 3.39127 0
M  V30 5607 H 521.449 1.32914 2.9625 0
M  V30 5608 H 522.46 4.8469 1.82472 0
M  V30 5609 H 519.137 2.66956 3.21 0
M  V30 5610 H 520.527 6.46643 1.82491 0
M  V30 5611 N 523.247 -0.488276 1.49845 0
M  V30 5612 C 524.472 -1.26997 1.63971 0
M  V30 5613 C 524.897 -1.85427 0.315994 0
M  V30 5614 O 524.255 -1.66475 -0.718032 0
M  V30 5615 C 524.303 -2.36689 2.72049 0
M  V30 5616 O 523.407 -3.40882 2.32107 0
M  V30 5617 H 522.748 -0.374376 0.548396 0
M  V30 5618 H 525.278 -0.583104 1.96115 0
M  V30 5619 H 525.288 -2.82262 2.94605 0
M  V30 5620 H 523.963 -1.93529 3.68129 0
M  V30 5621 H 522.54 -3.01139 2.19931 0
M  V30 5622 N 524.725 -1.39134 -0.740242 0
M  V30 5623 C 525.675 -1.33928 -1.84519 0
M  V30 5624 C 526.659 -0.221097 -1.59374 0
M  V30 5625 O 527.851 -0.458195 -1.70967 0
M  V30 5626 C 524.98 -1.17991 -3.22387 0
M  V30 5627 C 524.066 -2.34488 -3.53378 0
M  V30 5628 N 524.457 -3.59954 -3.5534 0
M  V30 5629 C 522.755 -2.27331 -3.83714 0
M  V30 5630 C 523.456 -4.36962 -3.83978 0
M  V30 5631 N 522.432 -3.66482 -4.01487 0
M  V30 5632 H 526.234 -2.28907 -1.84333 0
M  V30 5633 H 523.748 -1.32555 -0.938237 0
M  V30 5634 H 525.745 -1.12345 -4.01478 0
M  V30 5635 H 524.405 -0.23957 -3.23815 0
M  V30 5636 H 525.416 -3.93448 -3.36778 0
M  V30 5637 H 522.093 -1.41531 -3.92779 0
M  V30 5638 H 523.483 -5.45692 -3.92008 0
M  V30 5639 N 526.204 0.969867 -1.24223 0
M  V30 5640 C 527.167 2.04564 -1.03373 0
M  V30 5641 C 528.167 1.60798 0.00819206 0
M  V30 5642 O 529.357 1.72641 -0.232567 0
M  V30 5643 C 526.489 3.36163 -0.566343 0
M  V30 5644 H 527.682 2.24494 -1.98853 0
M  V30 5645 H 525.235 1.1448 -1.06415 0
M  V30 5646 H 525.97 3.21925 0.391751 0
M  V30 5647 H 525.755 3.69273 -1.31834 0
M  V30 5648 H 527.245 4.1526 -0.441435 0
M  V30 5649 N 527.682 1.05563 1.17022 0
M  V30 5650 C 528.91 0.78845 1.91288 0
M  V30 5651 C 529.325 -0.656318 1.77025 0
M  V30 5652 O 528.682 -1.44869 1.10992 0
M  V30 5653 C 528.733 1.16444 3.42232 0
M  V30 5654 O 528.454 2.5525 3.5606 0
M  V30 5655 C 529.955 0.923937 4.33565 0
M  V30 5656 H 527.175 0.286389 0.606813 0
M  V30 5657 H 529.719 1.4073 1.48375 0
M  V30 5658 H 527.874 0.590266 3.82877 0
M  V30 5659 H 528.288 2.70097 4.49609 0
M  V30 5660 H 529.762 1.23672 5.37968 0
M  V30 5661 H 530.239 -0.140688 4.38975 0
M  V30 5662 H 530.845 1.48214 3.98639 0
M  V30 5663 N 529.16 -1.33526 0.837174 0
M  V30 5664 C 530.385 -2.0258 0.444545 0
M  V30 5665 C 530.81 -1.6258 -0.946006 0
M  V30 5666 O 530.168 -0.817548 -1.6182 0
M  V30 5667 C 530.216 -3.5605 0.571006 0
M  V30 5668 O 529.32 -4.10422 -0.403431 0
M  V30 5669 H 528.661 -0.638866 0.180958 0
M  V30 5670 H 531.191 -1.70462 1.13154 0
M  V30 5671 H 531.201 -4.05488 0.452024 0
M  V30 5672 H 529.876 -3.84509 1.58512 0
M  V30 5673 H 528.453 -3.72113 -0.242147 0
M  V30 5674 N 530.638 -0.59345 -1.46 0
M  V30 5675 C 532.049 -0.169801 -1.85926 0
M  V30 5676 C 532.4 1.26984 -1.49565 0
M  V30 5677 O 531.525 1.96076 -0.915602 0
M  V30 5678 C 532.12 -0.301385 -3.37457 0
M  V30 5679 C 530.679 0.0674684 -3.7634 0
M  V30 5680 C 529.826 -0.632383 -2.69993 0
M  V30 5681 H 532.777 -0.801014 -1.37002 0
M  V30 5682 H 532.798 0.470331 -3.77582 0
M  V30 5683 H 532.31 -1.34927 -3.63891 0
M  V30 5684 H 530.411 1.11507 -3.55523 0
M  V30 5685 H 530.524 -0.316332 -4.78055 0
M  V30 5686 H 528.888 -0.0714961 -2.546 0
M  V30 5687 H 529.671 -1.68212 -2.99265 0
M  V30 5688 N 532.116 1.54067 -0.331816 0
M  V30 5689 C 533.046 2.27569 0.522932 0
M  V30 5690 C 534.027 1.28679 1.11247 0
M  V30 5691 O 535.212 1.57504 1.13605 0
M  V30 5692 C 532.342 3.0397 1.67987 0
M  V30 5693 C 531.296 4.10267 1.21924 0
M  V30 5694 C 530.622 4.74555 2.46377 0
M  V30 5695 C 531.922 5.21268 0.32815 0
M  V30 5696 H 533.616 2.99264 -0.0901977 0
M  V30 5697 H 531.162 1.4393 -0.044821 0
M  V30 5698 H 533.115 3.54123 2.28418 0
M  V30 5699 H 531.839 2.29906 2.31971 0
M  V30 5700 H 530.498 3.61009 0.637809 0
M  V30 5701 H 530.146 3.97098 3.08743 0
M  V30 5702 H 529.846 5.46363 2.16243 0
M  V30 5703 H 531.37 5.27487 3.07555 0
M  V30 5704 H 532.784 5.67128 0.838978 0
M  V30 5705 H 531.181 5.99982 0.119228 0
M  V30 5706 H 532.251 4.80673 -0.638839 0
M  V30 5707 N 533.594 0.0601682 1.57485 0
M  V30 5708 C 534.504 -0.926121 2.15546 0
M  V30 5709 C 535.52 -1.33532 1.11558 0
M  V30 5710 O 536.696 -1.4104 1.4377 0
M  V30 5711 C 533.761 -2.17952 2.69625 0
M  V30 5712 C 532.822 -1.82783 3.88444 0
M  V30 5713 C 532.055 -3.02148 4.39935 0
M  V30 5714 O 532.278 -4.15803 3.90466 0
M  V30 5715 O 531.212 -2.82639 5.31412 0
M  V30 5716 H 535.038 -0.462289 3.00161 0
M  V30 5717 H 532.623 -0.162246 1.48516 0
M  V30 5718 H 534.505 -2.91474 3.04337 0
M  V30 5719 H 533.18 -2.63456 1.88077 0
M  V30 5720 H 532.087 -1.06549 3.58606 0
M  V30 5721 H 533.42 -1.42072 4.7125 0
M  V30 5722 N 535.072 -1.5615 -0.213296 0
M  V30 5723 C 535.982 -1.96265 -1.28519 0
M  V30 5724 C 536.998 -0.86765 -1.50824 0
M  V30 5725 O 538.174 -1.17191 -1.63793 0
M  V30 5726 C 535.239 -2.27836 -2.61327 0
M  V30 5727 C 534.3 -3.50949 -2.47252 0
M  V30 5728 C 533.533 -3.81004 -3.73727 0
M  V30 5729 O 533.756 -3.12612 -4.77106 0
M  V30 5730 O 532.69 -4.74477 -3.70344 0
M  V30 5731 H 536.516 -2.87631 -0.974795 0
M  V30 5732 H 534.101 -1.43467 -0.416832 0
M  V30 5733 H 535.983 -2.49299 -3.39747 0
M  V30 5734 H 534.658 -1.39643 -2.9203 0
M  V30 5735 H 533.565 -3.34754 -1.67004 0
M  V30 5736 H 534.898 -4.39551 -2.21486 0
M  V30 5737 N 536.55 0.480323 -1.50102 0
M  V30 5738 C 537.797 1.23307 -1.60629 0
M  V30 5739 C 538.125 1.92135 -0.302375 0
M  V30 5740 O 537.38 1.82321 0.711154 0
M  V30 5741 C 537.679 2.30708 -2.72963 0
M  V30 5742 C 537.345 1.79195 -4.13763 0
M  V30 5743 C 536.007 1.64867 -4.52076 0
M  V30 5744 C 538.359 1.40878 -5.018 0
M  V30 5745 C 535.687 1.10631 -5.76175 0
M  V30 5746 C 538.039 0.880872 -6.26437 0
M  V30 5747 C 536.703 0.724146 -6.6356 0
M  V30 5748 H 535.973 0.451211 -0.587784 0
M  V30 5749 H 538.62 0.53051 -1.84005 0
M  V30 5750 H 536.925 3.06834 -2.43639 0
M  V30 5751 H 538.622 2.88692 -2.78313 0
M  V30 5752 H 535.212 1.91313 -3.83533 0
M  V30 5753 H 539.396 1.50786 -4.7284 0
M  V30 5754 H 534.652 0.972263 -6.0362 0
M  V30 5755 H 538.826 0.575269 -6.9402 0
M  V30 5756 H 536.453 0.301722 -7.59601 0
M  V30 5757 N 538.028 1.39524 0.732853 0
M  V30 5758 C 538.975 1.38416 1.84688 0
M  V30 5759 C 539.945 0.243539 1.64305 0
M  V30 5760 O 541.13 0.438979 1.85681 0
M  V30 5761 C 538.27 1.23555 3.22224 0
M  V30 5762 C 537.383 2.47179 3.54298 0
M  V30 5763 C 536.518 2.2489 4.81246 0
M  V30 5764 C 535.557 3.44178 5.0617 0
M  V30 5765 N 534.694 3.21192 6.24323 0
M  V30 5766 H 539.534 2.33645 1.84971 0
M  V30 5767 H 537.071 1.16059 0.903804 0
M  V30 5768 H 539.029 1.12949 4.0162 0
M  V30 5769 H 537.659 0.31954 3.21215 0
M  V30 5770 H 536.711 2.68379 2.69587 0
M  V30 5771 H 538.023 3.36022 3.68633 0
M  V30 5772 H 537.177 2.11538 5.68627 0
M  V30 5773 H 535.916 1.33443 4.69089 0
M  V30 5774 H 534.921 3.58025 4.17251 0
M  V30 5775 H 536.146 4.36528 5.20212 0
M  V30 5776 H 534.092 2.32413 6.1345 0
M  V30 5777 H 534.009 4.03594 6.39256 0
M  V30 5778 H 535.277 3.1154 7.14537 0
M  V30 5779 N 539.506 -0.963266 1.24736 0
M  V30 5780 C 540.922 -1.23273 1.01371 0
M  V30 5781 C 541.122 -1.99618 -0.274776 0
M  V30 5782 O 540.178 -2.32293 -0.989769 0
M  V30 5783 C 541.491 -2.01554 2.23152 0
M  V30 5784 C 543.039 -2.14629 2.27823 0
M  V30 5785 C 543.514 -2.96307 3.49237 0
M  V30 5786 N 545.005 -3.03887 3.49581 0
M  V30 5787 C 545.74 -3.67456 4.40186 0
M  V30 5788 N 545.236 -4.32706 5.41052 0
M  V30 5789 N 547.029 -3.64511 4.27888 0
M  V30 5790 H 539.18 -0.452294 2.07528 0
M  V30 5791 H 541.443 -0.262521 0.910926 0
M  V30 5792 H 541.149 -1.52847 3.1675 0
M  V30 5793 H 541.023 -3.02278 2.25628 0
M  V30 5794 H 543.41 -2.62537 1.34753 0
M  V30 5795 H 543.491 -1.13238 2.2937 0
M  V30 5796 H 543.135 -2.49091 4.42624 0
M  V30 5797 H 543.065 -3.97905 3.44933 0
M  V30 5798 H 545.556 -2.57477 2.76611 0
M  V30 5799 H 545.869 -4.79042 6.06415 0
M  V30 5800 H 544.214 -4.31361 5.44934 0
M  V30 5801 H 547.405 -3.12715 3.4832 0
M  V30 5802 H 547.578 -4.13768 4.98698 0
M  V30 5803 N 540.985 -1.06182 -1.16461 0
M  V30 5804 C 541.948 -0.675723 -2.19013 0
M  V30 5805 C 542.948 0.277963 -1.58379 0
M  V30 5806 O 544.138 0.0604962 -1.74095 0
M  V30 5807 C 541.27 0.00591459 -3.40899 0
M  V30 5808 H 542.463 -1.58353 -2.54685 0
M  V30 5809 H 540.016 -0.856908 -1.30716 0
M  V30 5810 H 540.751 0.92652 -3.10783 0
M  V30 5811 H 540.536 -0.67984 -3.86161 0
M  V30 5812 H 542.026 0.26181 -4.16778 0
M  V30 5813 N 542.463 1.3308 -0.844243 0
M  V30 5814 C 543.426 2.27403 -0.286485 0
M  V30 5815 C 544.426 1.51179 0.547872 0
M  V30 5816 O 545.616 1.70421 0.360886 0
M  V30 5817 C 542.748 3.35653 0.595813 0
M  V30 5818 H 543.941 2.78248 -1.11885 0
M  V30 5819 H 541.494 1.43574 -0.617749 0
M  V30 5820 H 542.229 2.90058 1.4504 0
M  V30 5821 H 542.014 3.921 -0.00125994 0
M  V30 5822 H 543.504 4.05958 0.979168 0
M  V30 5823 N 543.941 0.601185 1.45683 0
M  V30 5824 C 545.187 0.0940202 2.02582 0
M  V30 5825 C 545.52 -1.26972 1.46941 0
M  V30 5826 O 544.795 -1.83613 0.641612 0
M  V30 5827 C 545.078 0.0481715 3.60068 0
M  V30 5828 C 544.931 1.44212 4.26055 0
M  V30 5829 C 546.25 -0.642975 4.35378 0
M  V30 5830 H 543.369 0.0356404 0.736138 0
M  V30 5831 H 546.011 0.771929 1.73612 0
M  V30 5832 H 544.161 -0.529128 3.8488 0
M  V30 5833 H 545.833 2.06601 4.12449 0
M  V30 5834 H 544.076 2.00465 3.84703 0
M  V30 5835 H 544.747 1.36234 5.34925 0
M  V30 5836 H 547.223 -0.152351 4.15821 0
M  V30 5837 H 546.099 -0.644141 5.45107 0
M  V30 5838 H 546.36 -1.70785 4.0778 0
M  V30 5839 N 545.419 -1.53889 0.339982 0
M  V30 5840 C 546.83 -1.86139 -0.144671 0
M  V30 5841 C 547.181 -1.2613 -1.50285 0
M  V30 5842 O 546.306 -0.573515 -2.08662 0
M  V30 5843 C 546.901 -3.37728 -0.269285 0
M  V30 5844 C 545.46 -3.69868 -0.698168 0
M  V30 5845 C 544.607 -2.76777 0.170249 0
M  V30 5846 H 547.558 -1.48503 0.559704 0
M  V30 5847 H 547.579 -3.64331 -1.0974 0
M  V30 5848 H 547.091 -3.81375 0.719366 0
M  V30 5849 H 545.192 -3.31764 -1.69597 0
M  V30 5850 H 545.305 -4.76582 -0.490533 0
M  V30 5851 H 543.669 -2.52188 -0.356844 0
M  V30 5852 H 544.452 -3.23253 1.15597 0
M  V30 5853 N 546.897 -0.0685191 -1.57451 0
M  V30 5854 C 548.313 0.288101 -1.56978 0
M  V30 5855 C 548.513 1.70262 -1.07765 0
M  V30 5856 O 547.569 2.4135 -0.742054 0
M  V30 5857 C 548.882 0.100745 -3.00531 0
M  V30 5858 C 550.43 0.170531 -3.12535 0
M  V30 5859 C 550.905 0.0114944 -4.57999 0
M  V30 5860 N 552.396 0.0672065 -4.63151 0
M  V30 5861 C 553.131 -0.0314813 -5.73391 0
M  V30 5862 N 552.627 -0.183503 -6.92557 0
M  V30 5863 N 554.42 0.0253489 -5.62094 0
M  V30 5864 H 546.571 -0.993026 -1.87757 0
M  V30 5865 H 548.834 -0.386981 -0.865419 0
M  V30 5866 H 548.54 -0.875197 -3.40636 0
M  V30 5867 H 548.414 0.854457 -3.67395 0
M  V30 5868 H 550.801 1.13696 -2.72318 0
M  V30 5869 H 550.882 -0.614229 -2.48316 0
M  V30 5870 H 550.526 -0.951684 -4.98904 0
M  V30 5871 H 550.456 0.815617 -5.20245 0
M  V30 5872 H 552.947 0.183246 -3.77455 0
M  V30 5873 H 553.26 -0.251041 -7.72392 0
M  V30 5874 H 551.605 -0.218822 -6.94655 0
M  V30 5875 H 554.796 0.142794 -4.67882 0
M  V30 5876 H 554.969 -0.0550166 -6.47977 0
M  V30 5877 N 548.375 1.56261 0.205012 0
M  V30 5878 C 549.622 1.8004 0.926927 0
M  V30 5879 C 549.95 0.640086 1.83666 0
M  V30 5880 O 549.205 -0.374702 1.92079 0
M  V30 5881 C 549.504 3.09722 1.78345 0
M  V30 5882 C 549.17 4.39082 1.02555 0
M  V30 5883 C 547.832 4.74226 0.816256 0
M  V30 5884 C 550.184 5.18877 0.491559 0
M  V30 5885 C 547.512 5.86668 0.0613287 0
M  V30 5886 C 549.864 6.32105 -0.250107 0
M  V30 5887 C 548.528 6.6584 -0.470508 0
M  V30 5888 H 547.798 0.658812 0.339187 0
M  V30 5889 H 550.445 1.90515 0.19395 0
M  V30 5890 H 548.75 2.9444 2.5848 0
M  V30 5891 H 550.447 3.25324 2.34446 0
M  V30 5892 H 547.037 4.11497 1.19868 0
M  V30 5893 H 551.221 4.92147 0.640684 0
M  V30 5894 H 546.477 6.11283 -0.119501 0
M  V30 5895 H 550.651 6.93157 -0.671307 0
M  V30 5896 H 548.278 7.5281 -1.05739 0
M  V30 5897 N 549.853 -0.472356 1.50355 0
M  V30 5898 C 551.099 -1.22634 1.6152 0
M  V30 5899 C 551.432 -1.91645 0.313995 0
M  V30 5900 O 550.707 -1.82059 -0.684446 0
M  V30 5901 C 550.99 -2.27099 2.7946 0
M  V30 5902 C 550.843 -1.62402 4.19459 0
M  V30 5903 C 552.162 -3.28421 2.92964 0
M  V30 5904 H 549.281 -0.444494 0.587873 0
M  V30 5905 H 551.923 -0.520321 1.82737 0
M  V30 5906 H 550.073 -2.87314 2.61501 0
M  V30 5907 H 551.745 -1.05793 4.49005 0
M  V30 5908 H 549.988 -0.927184 4.23776 0
M  V30 5909 H 550.659 -2.38309 4.97909 0
M  V30 5910 H 553.135 -2.78227 3.09401 0
M  V30 5911 H 552.011 -3.98845 3.77113 0
M  V30 5912 H 552.272 -3.92467 2.03525 0
M  V30 5913 N 551.331 -1.39911 -0.725443 0
M  V30 5914 C 552.263 -1.35301 -1.85003 0
M  V30 5915 C 553.276 -0.260102 -1.60709 0
M  V30 5916 O 554.465 -0.519749 -1.70766 0
M  V30 5917 C 551.565 -1.08039 -3.21218 0
M  V30 5918 C 550.738 -2.28793 -3.7279 0
M  V30 5919 C 549.797 -1.97841 -4.87591 0
M  V30 5920 O 548.823 -2.70616 -5.00755 0
M  V30 5921 N 550.025 -0.950367 -5.72668 0
M  V30 5922 H 552.79 -2.32218 -1.89459 0
M  V30 5923 H 550.351 -1.34137 -0.90658 0
M  V30 5924 H 552.343 -0.853354 -3.95601 0
M  V30 5925 H 550.913 -0.198229 -3.11971 0
M  V30 5926 H 550.133 -2.67388 -2.8965 0
M  V30 5927 H 551.421 -3.09317 -4.03981 0
M  V30 5928 H 550.819 -0.347436 -5.64632 0
M  V30 5929 H 549.376 -0.783232 -6.47077 0
M  V30 5930 N 552.809 0.956637 -1.25245 0
M  V30 5931 C 553.741 2.05628 -1.01242 0
M  V30 5932 C 554.754 1.62785 0.0219579 0
M  V30 5933 O 555.943 1.77184 -0.216365 0
M  V30 5934 C 553.043 3.35069 -0.508161 0
M  V30 5935 C 552.216 4.06761 -1.60823 0
M  V30 5936 C 551.275 5.14473 -1.1047 0
M  V30 5937 O 550.301 5.40033 -1.79868 0
M  V30 5938 N 551.503 5.80474 0.0550773 0
M  V30 5939 H 554.268 2.2679 -1.95925 0
M  V30 5940 H 551.829 1.12505 -1.16423 0
M  V30 5941 H 553.821 4.044 -0.155819 0
M  V30 5942 H 552.391 3.10694 0.344683 0
M  V30 5943 H 551.611 3.31555 -2.13224 0
M  V30 5944 H 552.899 4.51418 -2.34733 0
M  V30 5945 H 552.297 5.62125 0.635004 0
M  V30 5946 H 550.854 6.50868 0.348469 0
M  V30 5947 N 554.287 1.06798 1.15896 0
M  V30 5948 C 555.234 0.683314 2.20453 0
M  V30 5949 C 556.204 -0.32255 1.62938 0
M  V30 5950 O 557.389 -0.210276 1.89638 0
M  V30 5951 C 554.529 0.0813266 3.45004 0
M  V30 5952 C 553.642 1.13799 4.16742 0
M  V30 5953 C 552.777 0.501598 5.28826 0
M  V30 5954 C 551.816 1.54144 5.92373 0
M  V30 5955 N 550.953 0.928038 6.9594 0
M  V30 5956 H 555.793 1.57932 2.52708 0
M  V30 5957 H 553.33 0.789544 1.24115 0
M  V30 5958 H 555.288 -0.285274 4.16224 0
M  V30 5959 H 553.918 -0.77806 3.13283 0
M  V30 5960 H 552.97 1.62223 3.44075 0
M  V30 5961 H 554.282 1.92664 4.60089 0
M  V30 5962 H 553.436 0.0823162 6.06644 0
M  V30 5963 H 552.175 -0.318883 4.86656 0
M  V30 5964 H 551.18 1.97056 5.13273 0
M  V30 5965 H 552.405 2.3641 6.36621 0
M  V30 5966 H 550.351 0.12836 6.55874 0
M  V30 5967 H 550.268 1.65401 7.37685 0
M  V30 5968 H 551.536 0.534071 7.77668 0
M  V30 5969 N 555.766 -1.3263 0.851289 0
M  V30 5970 C 556.696 -2.31449 0.308771 0
M  V30 5971 C 557.677 -1.59531 -0.590255 0
M  V30 5972 O 558.862 -1.87351 -0.511205 0
M  V30 5973 C 555.992 -3.43586 -0.506548 0
M  V30 5974 C 554.946 -4.26963 0.297753 0
M  V30 5975 C 554.272 -5.30831 -0.642094 0
M  V30 5976 C 555.572 -4.99643 1.52166 0
M  V30 5977 H 557.266 -2.77074 1.13447 0
M  V30 5978 H 554.812 -1.33207 0.546971 0
M  V30 5979 H 556.765 -4.11754 -0.896474 0
M  V30 5980 H 555.489 -2.96681 -1.36558 0
M  V30 5981 H 554.148 -3.60437 0.669391 0
M  V30 5982 H 553.796 -4.8018 -1.49788 0
M  V30 5983 H 553.496 -5.87501 -0.107968 0
M  V30 5984 H 555.02 -6.01862 -1.02927 0
M  V30 5985 H 556.434 -5.6051 1.20421 0
M  V30 5986 H 554.831 -5.66022 1.99347 0
M  V30 5987 H 555.901 -4.27701 2.28474 0
M  V30 5988 N 557.244 -0.608902 -1.45362 0
M  V30 5989 C 558.474 -0.110852 -2.06302 0
M  V30 5990 C 558.882 1.21062 -1.45398 0
M  V30 5991 O 558.225 1.74861 -0.562976 0
M  V30 5992 C 558.287 0.101793 -3.59356 0
M  V30 5993 C 557.951 -1.13808 -4.42602 0
M  V30 5994 C 558.948 -2.05653 -4.77496 0
M  V30 5995 C 556.633 -1.36727 -4.83333 0
M  V30 5996 C 558.627 -3.18745 -5.51978 0
M  V30 5997 C 556.314 -2.5012 -5.57569 0
M  V30 5998 C 557.312 -3.40957 -5.91809 0
M  V30 5999 O 557 -4.52376 -6.64538 0
M  V30 6000 H 556.732 -0.0666001 -0.672711 0
M  V30 6001 H 559.286 -0.836942 -1.87575 0
M  V30 6002 H 557.516 0.88279 -3.76489 0
M  V30 6003 H 559.205 0.551607 -4.02134 0
M  V30 6004 H 559.971 -1.89172 -4.46586 0
M  V30 6005 H 555.85 -0.669216 -4.56117 0
M  V30 6006 H 559.394 -3.8967 -5.78622 0
M  V30 6007 H 555.291 -2.66553 -5.87894 0
M  V30 6008 H 556.059 -4.51075 -6.82989 0
M  V30 6009 N 558.722 1.53707 -0.348139 0
M  V30 6010 C 559.652 2.28111 0.498766 0
M  V30 6011 C 560.633 1.29851 1.09876 0
M  V30 6012 O 561.818 1.587 1.11928 0
M  V30 6013 C 558.948 3.05735 1.64753 0
M  V30 6014 C 557.902 4.11537 1.17565 0
M  V30 6015 C 557.228 4.77142 2.4133 0
M  V30 6016 C 558.528 5.21587 0.272844 0
M  V30 6017 H 560.222 2.99152 -0.121934 0
M  V30 6018 H 557.768 1.43875 -0.0600842 0
M  V30 6019 H 559.721 3.56526 2.24649 0
M  V30 6020 H 558.445 2.32354 2.2952 0
M  V30 6021 H 557.104 3.61665 0.599483 0
M  V30 6022 H 556.752 4.0035 3.04514 0
M  V30 6023 H 556.452 5.48626 2.10436 0
M  V30 6024 H 557.976 5.30719 3.01943 0
M  V30 6025 H 559.39 5.67986 0.778779 0
M  V30 6026 H 557.787 6.00074 0.0555849 0
M  V30 6027 H 558.857 4.79969 -0.689785 0
M  V30 6028 N 560.2 0.0768682 1.57412 0
M  V30 6029 C 561.447 -0.591085 1.93681 0
M  V30 6030 C 561.775 -1.69311 0.957286 0
M  V30 6031 O 561.03 -1.95682 -0.0262428 0
M  V30 6032 C 561.329 -1.20268 3.36557 0
M  V30 6033 C 560.995 -0.226286 4.50332 0
M  V30 6034 C 559.657 0.0423142 4.81181 0
M  V30 6035 C 562.009 0.441415 5.19327 0
M  V30 6036 C 559.337 0.985616 5.78362 0
M  V30 6037 C 561.689 1.37307 6.17519 0
M  V30 6038 C 560.353 1.65009 6.46783 0
M  V30 6039 H 559.623 -0.216293 0.70873 0
M  V30 6040 H 562.27 0.148824 1.90921 0
M  V30 6041 H 560.575 -2.01844 3.35807 0
M  V30 6042 H 562.272 -1.72688 3.61911 0
M  V30 6043 H 558.862 -0.445821 4.26275 0
M  V30 6044 H 563.046 0.247023 4.95685 0
M  V30 6045 H 558.302 1.20743 5.99359 0
M  V30 6046 H 562.476 1.89637 6.70083 0
M  V30 6047 H 560.103 2.38263 7.21897 0
M  V30 6048 N 561.678 -1.56367 -0.196722 0
M  V30 6049 C 562.608 -1.97442 -1.24655 0
M  V30 6050 C 563.589 -0.846147 -1.47561 0
M  V30 6051 O 564.774 -1.11035 -1.59326 0
M  V30 6052 C 561.904 -2.31253 -2.59112 0
M  V30 6053 C 560.858 -3.46804 -2.50821 0
M  V30 6054 C 560.184 -3.66286 -3.89536 0
M  V30 6055 C 561.484 -4.8104 -2.03465 0
M  V30 6056 H 563.178 -2.85388 -0.905216 0
M  V30 6057 H 560.724 -1.37304 -0.434002 0
M  V30 6058 H 562.677 -2.58583 -3.32736 0
M  V30 6059 H 561.401 -1.40188 -2.94983 0
M  V30 6060 H 560.06 -3.19563 -1.79653 0
M  V30 6061 H 559.708 -2.72555 -4.22756 0
M  V30 6062 H 559.408 -4.4402 -3.84864 0
M  V30 6063 H 560.932 -3.9599 -4.64784 0
M  V30 6064 H 562.346 -5.07411 -2.66846 0
M  V30 6065 H 560.743 -5.62232 -2.09798 0
M  V30 6066 H 561.813 -4.74732 -0.98781 0
M  V30 6067 N 563.156 0.464375 -1.50603 0
M  V30 6068 C 564.088 1.57916 -1.66118 0
M  V30 6069 C 565.101 1.53497 -0.54246 0
M  V30 6070 O 566.29 1.58763 -0.815877 0
M  V30 6071 C 563.39 2.96809 -1.63577 0
M  V30 6072 C 562.563 3.26026 -2.91592 0
M  V30 6073 C 561.622 4.44506 -2.81604 0
M  V30 6074 O 560.648 4.44484 -3.55559 0
M  V30 6075 N 561.85 5.46549 -1.95614 0
M  V30 6076 H 564.615 1.45022 -2.62276 0
M  V30 6077 H 562.176 0.652903 -1.48151 0
M  V30 6078 H 564.168 3.74048 -1.54499 0
M  V30 6079 H 562.738 3.03438 -0.751262 0
M  V30 6080 H 561.958 2.37337 -3.14746 0
M  V30 6081 H 563.246 3.42361 -3.76386 0
M  V30 6082 H 562.644 5.49391 -1.34854 0
M  V30 6083 H 561.201 6.22746 -1.92435 0
M  V30 6084 N 564.634 1.40294 0.718013 0
M  V30 6085 C 565.584 1.36847 1.82365 0
M  V30 6086 C 566.568 0.246424 1.59002 0
M  V30 6087 O 567.76 0.485336 1.70216 0
M  V30 6088 C 564.889 1.23105 3.20469 0
M  V30 6089 C 563.975 2.4008 3.49603 0
M  V30 6090 N 564.366 3.65562 3.49568 0
M  V30 6091 C 562.664 2.33407 3.80049 0
M  V30 6092 C 563.365 4.43015 3.76978 0
M  V30 6093 N 562.341 3.72823 3.95606 0
M  V30 6094 H 566.143 2.31811 1.80668 0
M  V30 6095 H 563.657 1.34031 0.91703 0
M  V30 6096 H 565.654 1.18718 3.9964 0
M  V30 6097 H 564.314 0.291056 3.23393 0
M  V30 6098 H 565.325 3.98756 3.30476 0
M  V30 6099 H 562.002 1.47762 3.90478 0
M  V30 6100 H 563.392 5.51859 3.83276 0
M  V30 6101 N 566.112 -0.949982 1.2575 0
M  V30 6102 C 567.352 -1.70994 1.11984 0
M  V30 6103 C 567.716 -1.89095 -0.332746 0
M  V30 6104 O 568.917 -2.62192 -0.592331 0
M  V30 6105 C 567.188 -3.05286 1.85837 0
M  V30 6106 S 568.747 -3.96477 1.88019 0
M  V30 6107 H 565.565 -0.587689 0.400178 0
M  V30 6108 H 568.167 -1.13271 1.59342 0
M  V30 6109 H 566.871 -2.89785 2.90608 0
M  V30 6110 H 566.402 -3.68069 1.38885 0
M  V30 6111 H 568.417 -4.86814 0.96057 0
M  V30 6112 N 567.59 -1.07411 -1.15328 0
M  V30 6113 C 568.837 -0.797649 -1.86128 0
M  V30 6114 C 569.165 0.676298 -1.82364 0
M  V30 6115 O 568.42 1.51223 -1.24218 0
M  V30 6116 C 568.719 -1.25191 -3.34757 0
M  V30 6117 C 568.385 -2.73191 -3.58716 0
M  V30 6118 C 567.047 -3.13616 -3.64964 0
M  V30 6119 C 569.399 -3.68718 -3.6837 0
M  V30 6120 C 566.727 -4.48383 -3.78377 0
M  V30 6121 C 569.079 -5.03248 -3.83306 0
M  V30 6122 C 567.743 -5.43293 -3.878 0
M  V30 6123 H 567.013 -0.29188 -0.681092 0
M  V30 6124 H 569.66 -1.34524 -1.36292 0
M  V30 6125 H 567.965 -0.623712 -3.86804 0
M  V30 6126 H 569.662 -1.01489 -3.87945 0
M  V30 6127 H 566.252 -2.40898 -3.54494 0
M  V30 6128 H 570.436 -3.38614 -3.62842 0
M  V30 6129 H 565.692 -4.78877 -3.80114 0
M  V30 6130 H 569.866 -5.77142 -3.89718 0
M  V30 6131 H 567.493 -6.47721 -3.97946 0
M  V30 6132 N 569.068 1.32177 -0.85831 0
M  V30 6133 C 570.316 1.96735 -0.462568 0
M  V30 6134 C 570.637 1.6824 0.985911 0
M  V30 6135 O 569.907 0.991564 1.68952 0
M  V30 6136 H 568.487 0.727849 -0.168064 0
M  V30 6137 H 571.149 1.61195 -1.09554 0
M  V30 6138 H 570.245 3.06068 -0.610647 0
M  V30 6139 N 570.547 0.616602 1.45037 0
M  V30 6140 C 571.497 -0.118543 2.27692 0
M  V30 6141 C 572.481 -0.830025 1.37838 0
M  V30 6142 O 573.673 -0.718528 1.6176 0
M  V30 6143 C 570.802 -1.10924 3.24886 0
M  V30 6144 C 569.888 -0.398134 4.22227 0
M  V30 6145 N 570.279 0.565233 5.02632 0
M  V30 6146 C 568.577 -0.644506 4.41319 0
M  V30 6147 C 569.278 0.984043 5.73316 0
M  V30 6148 N 568.254 0.325879 5.42622 0
M  V30 6149 H 572.056 0.621239 2.87259 0
M  V30 6150 H 569.57 0.440968 1.56299 0
M  V30 6151 H 571.567 -1.65038 3.82842 0
M  V30 6152 H 570.227 -1.84948 2.66879 0
M  V30 6153 H 571.238 0.942395 5.09254 0
M  V30 6154 H 567.915 -1.36873 3.94426 0
M  V30 6155 H 569.305 1.77911 6.47918 0
M  V30 6156 N 572.025 -1.5352 0.356285 0
M  V30 6157 C 573.271 -2.02104 -0.229271 0
M  V30 6158 C 573.626 -1.23923 -1.47176 0
M  V30 6159 O 572.919 -0.321957 -1.88876 0
M  V30 6160 C 573.113 -3.52607 -0.583369 0
M  V30 6161 C 572.942 -4.4536 0.623253 0
M  V30 6162 C 571.712 -4.92446 1.13248 0
M  V30 6163 C 573.91 -4.92375 1.48563 0
M  V30 6164 N 571.892 -5.69183 2.3001 0
M  V30 6165 C 573.263 -5.67362 2.50001 0
M  V30 6166 C 575.318 -4.74464 1.50959 0
M  V30 6167 C 574.021 -6.26341 3.5368 0
M  V30 6168 C 576.047 -5.34302 2.53526 0
M  V30 6169 C 575.409 -6.09166 3.53688 0
M  V30 6170 H 571.508 -0.780595 -0.0468602 0
M  V30 6171 H 574.092 -1.88204 0.49873 0
M  V30 6172 H 572.263 -3.66686 -1.28046 0
M  V30 6173 H 573.995 -3.87922 -1.15321 0
M  V30 6174 H 570.75 -4.6842 0.698562 0
M  V30 6175 H 571.174 -6.12216 2.88998 0
M  V30 6176 H 575.816 -4.16117 0.748785 0
M  V30 6177 H 573.534 -6.8379 4.30648 0
M  V30 6178 H 577.12 -5.22342 2.56223 0
M  V30 6179 H 576 -6.54644 4.31753 0
M  V30 6180 N 573.503 -0.0852151 -1.57369 0
M  V30 6181 C 574.914 0.445428 -1.81309 0
M  V30 6182 C 575.265 1.68795 -1.00013 0
M  V30 6183 O 574.39 2.15211 -0.226573 0
M  V30 6184 C 574.985 0.814887 -3.28854 0
M  V30 6185 C 573.544 1.29032 -3.53592 0
M  V30 6186 C 572.691 0.282089 -2.75861 0
M  V30 6187 H 575.642 -0.310771 -1.55627 0
M  V30 6188 H 575.663 1.67524 -3.41637 0
M  V30 6189 H 575.175 -0.0896309 -3.87996 0
M  V30 6190 H 573.276 2.21289 -2.9977 0
M  V30 6191 H 573.389 1.25898 -4.62262 0
M  V30 6192 H 571.753 0.762182 -2.43029 0
M  V30 6193 H 572.536 -0.614936 -3.37748 0
M  V30 6194 N 574.981 1.5647 0.188427 0
M  V30 6195 C 575.911 1.98101 1.23606 0
M  V30 6196 C 576.892 0.853961 1.47111 0
M  V30 6197 O 578.077 1.11879 1.58735 0
M  V30 6198 C 575.207 2.32624 2.57882 0
M  V30 6199 C 574.161 3.48129 2.48978 0
M  V30 6200 C 573.487 3.68347 3.87588 0
M  V30 6201 C 574.787 4.82112 2.00911 0
M  V30 6202 H 576.481 2.85864 0.890068 0
M  V30 6203 H 574.027 1.37532 0.426714 0
M  V30 6204 H 575.98 2.60343 3.3136 0
M  V30 6205 H 574.704 1.41751 2.94235 0
M  V30 6206 H 573.363 3.20511 1.77956 0
M  V30 6207 H 573.011 2.74793 4.21305 0
M  V30 6208 H 572.711 4.46055 3.82503 0
M  V30 6209 H 574.235 3.98449 4.62678 0
M  V30 6210 H 575.649 5.08819 2.64151 0
M  V30 6211 H 574.046 5.63337 2.06814 0
M  V30 6212 H 575.116 4.75249 0.96262 0
M  V30 6213 N 576.459 -0.456382 1.50847 0
M  V30 6214 C 577.736 -1.21739 1.53098 0
M  V30 6215 C 578.116 -2.09179 0.284132 0
M  V30 6216 O 577.464 -2.16466 -0.731773 0
M  V30 6217 C 577.674 -2.03573 2.83477 0
M  V30 6218 C 579.022 -2.61264 3.34703 0
M  V30 6219 O 580.046 -2.13802 2.84898 0
M  V30 6220 O 578.905 -3.47779 4.21559 0
M  V30 6221 H 575.999 -0.553219 0.614718 0
M  V30 6222 H 578.545 -0.467003 1.63148 0
M  V30 6223 H 577.317 -1.39232 3.65691 0
M  V30 6224 H 576.94 -2.85716 2.76499 0
M  V30 6225 N 577.937 -1.40673 -0.710563 0
M  V30 6226 C 578.9 -1.4108 -1.80635 0
M  V30 6227 C 579.9 -0.303783 -1.57904 0
M  V30 6228 O 581.09 -0.562937 -1.64853 0
M  V30 6229 C 578.222 -1.20748 -3.18799 0
M  V30 6230 H 579.415 -2.38612 -1.81671 0
M  V30 6231 H 576.968 -1.26595 -0.916704 0
M  V30 6232 H 577.703 -0.239964 -3.23411 0
M  V30 6233 H 577.488 -2.00941 -3.36698 0
M  V30 6234 H 578.978 -1.23833 -3.98817 0
M  V30 6235 N 579.415 0.9433 -1.26252 0
M  V30 6236 C 580.64 1.72898 -1.14547 0
M  V30 6237 C 581.065 1.85761 0.295743 0
M  V30 6238 O 580.423 1.3463 1.21427 0
M  V30 6239 C 580.471 3.11471 -1.8171 0
M  V30 6240 O 579.575 3.97336 -1.10445 0
M  V30 6241 H 578.916 0.530555 -0.399259 0
M  V30 6242 H 581.446 1.18159 -1.67032 0
M  V30 6243 H 581.456 3.61872 -1.88449 0
M  V30 6244 H 580.131 3.01425 -2.86558 0
M  V30 6245 H 578.708 3.55788 -1.11666 0
M  V30 6246 N 580.893 1.08022 1.14757 0
M  V30 6247 C 582.14 0.807509 1.85703 0
M  V30 6248 C 582.468 -0.666617 1.8272 0
M  V30 6249 O 581.723 -1.50562 1.25018 0
M  V30 6250 C 582.022 1.26964 3.34088 0
M  V30 6251 C 581.688 2.7509 3.57262 0
M  V30 6252 C 580.35 3.15547 3.63296 0
M  V30 6253 C 582.702 3.70667 3.66409 0
M  V30 6254 C 580.03 4.50384 3.75994 0
M  V30 6255 C 582.382 5.05274 3.80632 0
M  V30 6256 C 581.046 5.45342 3.84913 0
M  V30 6257 H 580.316 0.295488 0.679535 0
M  V30 6258 H 582.963 1.35245 1.35577 0
M  V30 6259 H 581.268 0.644216 3.86467 0
M  V30 6260 H 582.965 1.03544 3.87401 0
M  V30 6261 H 579.555 2.42775 3.53212 0
M  V30 6262 H 583.739 3.40533 3.61041 0
M  V30 6263 H 578.995 4.80886 3.77569 0
M  V30 6264 H 583.169 5.79201 3.86652 0
M  V30 6265 H 580.796 6.49823 3.94505 0
M  V30 6266 N 582.371 -1.3172 0.865308 0
M  V30 6267 C 583.787 -1.4958 0.556596 0
M  V30 6268 C 583.987 -1.79763 -0.910353 0
M  V30 6269 O 583.043 -1.87351 -1.6928 0
M  V30 6270 C 584.356 -2.63277 1.45279 0
M  V30 6271 C 585.904 -2.77161 1.45433 0
M  V30 6272 C 586.379 -3.93949 2.33598 0
M  V30 6273 N 587.87 -4.01228 2.31453 0
M  V30 6274 C 588.605 -4.90855 2.96393 0
M  V30 6275 N 588.101 -5.85416 3.70486 0
M  V30 6276 N 589.894 -4.84063 2.85726 0
M  V30 6277 H 582.045 -1.10396 1.81456 0
M  V30 6278 H 584.308 -0.54507 0.775631 0
M  V30 6279 H 584.014 -2.47734 2.49641 0
M  V30 6280 H 583.888 -3.59309 1.14792 0
M  V30 6281 H 586.275 -2.9212 0.41831 0
M  V30 6282 H 586.356 -1.8181 1.79941 0
M  V30 6283 H 586 -3.79748 3.37274 0
M  V30 6284 H 585.93 -4.88598 1.96417 0
M  V30 6285 H 588.421 -3.3357 1.77593 0
M  V30 6286 H 588.734 -6.50525 4.17178 0
M  V30 6287 H 587.079 -5.85409 3.74594 0
M  V30 6288 H 590.27 -4.09163 2.27384 0
M  V30 6289 H 590.443 -5.53708 3.36617 0
M  V30 6290 N 583.85 -0.624285 -1.44708 0
M  V30 6291 C 584.812 0.0749638 -2.29077 0
M  V30 6292 C 585.812 0.778965 -1.40673 0
M  V30 6293 O 587.003 0.624591 -1.62618 0
M  V30 6294 C 584.135 1.11663 -3.22094 0
M  V30 6295 H 585.327 -0.667013 -2.92388 0
M  V30 6296 H 582.88 -0.384098 -1.51507 0
M  V30 6297 H 583.615 1.88881 -2.63618 0
M  V30 6298 H 583.401 0.61583 -3.87234 0
M  V30 6299 H 584.891 1.60585 -3.8549 0
M  V30 6300 N 585.328 1.53329 -0.364422 0
M  V30 6301 C 586.574 2.01537 0.225969 0
M  V30 6302 C 586.907 1.25128 1.48515 0
M  V30 6303 O 586.182 0.344653 1.91422 0
M  V30 6304 C 586.465 3.56339 0.519092 0
M  V30 6305 C 586.318 4.43441 -0.753639 0
M  V30 6306 C 587.637 4.19833 1.32015 0
M  V30 6307 H 584.756 0.732573 0.0806548 0
M  V30 6308 H 587.398 1.83597 -0.489084 0
M  V30 6309 H 585.548 3.71756 1.12825 0
M  V30 6310 H 587.22 4.39823 -1.39116 0
M  V30 6311 H 585.463 4.11457 -1.37424 0
M  V30 6312 H 586.134 5.49699 -0.503517 0
M  V30 6313 H 588.61 4.08242 0.804859 0
M  V30 6314 H 587.486 5.28177 1.49399 0
M  V30 6315 H 587.747 3.75821 2.32832 0
M  V30 6316 N 586.806 0.0935595 1.57322 0
M  V30 6317 C 587.736 -0.863062 2.16964 0
M  V30 6318 C 588.717 -1.29528 1.10256 0
M  V30 6319 O 589.902 -1.36245 1.38387 0
M  V30 6320 C 587.032 -2.12276 2.74875 0
M  V30 6321 C 585.986 -1.82921 3.86942 0
M  V30 6322 C 585.312 -3.15707 4.31548 0
M  V30 6323 C 586.612 -1.11737 5.10208 0
M  V30 6324 H 588.306 -0.366145 2.97153 0
M  V30 6325 H 585.852 -0.174673 1.42937 0
M  V30 6326 H 587.805 -2.79634 3.1525 0
M  V30 6327 H 586.529 -2.64248 1.91938 0
M  V30 6328 H 585.188 -1.17961 3.47103 0
M  V30 6329 H 584.836 -3.65563 3.45504 0
M  V30 6330 H 584.536 -2.96849 5.07104 0
M  V30 6331 H 586.06 -3.84226 4.74555 0
M  V30 6332 H 587.474 -1.69203 5.47762 0
M  V30 6333 H 585.871 -1.03064 5.91183 0
M  V30 6334 H 586.941 -0.0998818 4.84797 0
M  V30 6335 N 588.284 -1.56567 -0.180126 0
M  V30 6336 C 589.194 -1.98947 -1.24327 0
M  V30 6337 C 590.21 -0.899446 -1.4895 0
M  V30 6338 O 591.386 -1.20639 -1.61271 0
M  V30 6339 C 588.451 -2.33328 -2.56435 0
M  V30 6340 C 587.512 -3.56114 -2.39752 0
M  V30 6341 C 586.745 -3.88845 -3.65561 0
M  V30 6342 O 586.968 -3.22662 -4.70368 0
M  V30 6343 O 585.902 -4.82226 -3.60197 0
M  V30 6344 H 589.728 -2.89634 -0.913565 0
M  V30 6345 H 587.313 -1.44319 -0.386306 0
M  V30 6346 H 589.195 -2.5645 -3.34382 0
M  V30 6347 H 587.87 -1.45806 -2.89002 0
M  V30 6348 H 586.777 -3.38221 -1.59866 0
M  V30 6349 H 588.11 -4.4415 -2.12113 0
M  V30 6350 N 589.762 0.448376 -1.51087 0
M  V30 6351 C 590.695 1.56298 -1.66272 0
M  V30 6352 C 591.673 1.54381 -0.510419 0
M  V30 6353 O 592.857 1.73671 -0.732854 0
M  V30 6354 C 589.984 2.94883 -1.66618 0
M  V30 6355 C 589.03 3.14868 -2.87681 0
M  V30 6356 S 589.863 2.9234 -4.48662 0
M  V30 6357 C 591.019 4.33227 -4.51735 0
M  V30 6358 H 591.252 1.43182 -2.6055 0
M  V30 6359 H 588.785 0.637309 -1.40633 0
M  V30 6360 H 590.743 3.74771 -1.67502 0
M  V30 6361 H 589.404 3.05371 -0.735358 0
M  V30 6362 H 588.597 4.16166 -2.84292 0
M  V30 6363 H 588.199 2.42788 -2.84482 0
M  V30 6364 H 590.491 5.26247 -4.26697 0
M  V30 6365 H 591.434 4.41653 -5.53487 0
M  V30 6366 H 591.842 4.16367 -3.81181 0
M  V30 6367 N 591.24 1.41047 0.703093 0
M  V30 6368 C 592.486 1.41209 1.46396 0
M  V30 6369 C 592.841 0.0180188 1.92392 0
M  V30 6370 O 592.134 -0.954739 1.66118 0
M  V30 6371 C 592.328 2.34686 2.6955 0
M  V30 6372 C 592.157 3.83044 2.35601 0
M  V30 6373 C 590.927 4.51777 2.26331 0
M  V30 6374 C 593.125 4.74215 1.9906 0
M  V30 6375 N 591.107 5.85302 1.85188 0
M  V30 6376 C 592.478 5.96631 1.68616 0
M  V30 6377 C 594.533 4.61932 1.85805 0
M  V30 6378 C 593.236 7.08134 1.26249 0
M  V30 6379 C 595.262 5.73389 1.44842 0
M  V30 6380 C 594.624 6.94899 1.15304 0
M  V30 6381 H 590.723 0.571951 0.533288 0
M  V30 6382 H 593.307 1.76859 0.814179 0
M  V30 6383 H 591.478 2.01143 3.32259 0
M  V30 6384 H 593.21 2.25618 3.35974 0
M  V30 6385 H 589.965 4.05618 2.44482 0
M  V30 6386 H 590.389 6.56049 1.67119 0
M  V30 6387 H 595.031 3.68494 2.07298 0
M  V30 6388 H 592.749 8.01445 1.035 0
M  V30 6389 H 596.335 5.65886 1.35146 0
M  V30 6390 H 595.215 7.79679 0.840854 0
M  V30 6391 N 592.718 -0.936591 1.26751 0
M  V30 6392 C 593.648 -2.05315 1.11212 0
M  V30 6393 C 594.629 -1.70092 0.0160262 0
M  V30 6394 O 595.814 -1.93279 0.188894 0
M  V30 6395 C 592.944 -3.39123 0.749171 0
M  V30 6396 C 591.898 -3.88425 1.79751 0
M  V30 6397 C 591.224 -5.18936 1.28876 0
M  V30 6398 C 592.524 -4.12798 3.19992 0
M  V30 6399 H 594.218 -2.18573 2.04613 0
M  V30 6400 H 591.764 -1.05027 0.985159 0
M  V30 6401 H 593.717 -4.16704 0.627323 0
M  V30 6402 H 592.441 -3.25855 -0.220543 0
M  V30 6403 H 591.1 -3.13028 1.90811 0
M  V30 6404 H 590.748 -5.02051 0.308757 0
M  V30 6405 H 590.448 -5.52892 1.98958 0
M  V30 6406 H 591.972 -5.99096 1.17967 0
M  V30 6407 H 593.386 -4.80977 3.11983 0
M  V30 6408 H 591.783 -4.58044 3.87705 0
M  V30 6409 H 592.853 -3.18412 3.65707 0
M  V30 6410 N 594.196 -1.08629 -1.14182 0
M  V30 6411 C 595.421 -0.83902 -1.89671 0
M  V30 6412 C 595.846 0.603332 -1.78161 0
M  V30 6413 O 595.204 1.42301 -1.12339 0
M  V30 6414 C 595.252 -1.26854 -3.37551 0
M  V30 6415 O 594.356 -0.42188 -4.10236 0
M  V30 6416 H 593.697 -0.304545 -0.590041 0
M  V30 6417 H 596.227 -1.4483 -1.44518 0
M  V30 6418 H 596.237 -1.25038 -3.88368 0
M  V30 6419 H 594.912 -2.31901 -3.45246 0
M  V30 6420 H 593.489 -0.503654 -3.69483 0
M  V30 6421 N 595.674 1.31259 -0.872281 0
M  V30 6422 C 596.904 2.00504 -0.498183 0
M  V30 6423 C 597.312 1.65632 0.914479 0
M  V30 6424 O 596.655 0.882849 1.61095 0
M  V30 6425 C 596.717 3.5482 -0.578194 0
M  V30 6426 C 596.381 4.13172 -1.95289 0
M  V30 6427 C 597.378 4.30107 -2.92069 0
M  V30 6428 C 595.063 4.48846 -2.25483 0
M  V30 6429 C 597.057 4.81908 -4.17185 0
M  V30 6430 C 594.744 5.00349 -3.50847 0
M  V30 6431 C 595.742 5.16831 -4.46514 0
M  V30 6432 O 595.43 5.67228 -5.69656 0
M  V30 6433 H 595.162 0.648055 -0.192354 0
M  V30 6434 H 597.716 1.6841 -1.17589 0
M  V30 6435 H 595.946 3.86383 0.156438 0
M  V30 6436 H 597.635 4.05318 -0.217192 0
M  V30 6437 H 598.401 4.02862 -2.7005 0
M  V30 6438 H 594.28 4.35292 -1.51795 0
M  V30 6439 H 597.824 4.94688 -4.91863 0
M  V30 6440 H 593.721 5.27028 -3.72708 0
M  V30 6441 H 594.489 5.85592 -5.7186 0
M  V30 6442 N 597.152 0.631951 1.44375 0
M  V30 6443 C 598.082 -0.0593243 2.33425 0
M  V30 6444 C 599.063 -0.833964 1.48253 0
M  V30 6445 O 600.248 -0.799682 1.76971 0
M  V30 6446 C 597.378 -1.04096 3.31333 0
M  V30 6447 C 596.332 -0.377899 4.26328 0
M  V30 6448 C 595.658 -1.4695 5.14111 0
M  V30 6449 C 596.958 0.716371 5.17364 0
M  V30 6450 H 598.652 0.684287 2.91475 0
M  V30 6451 H 596.198 0.330518 1.40156 0
M  V30 6452 H 598.151 -1.53331 3.92514 0
M  V30 6453 H 596.875 -1.81547 2.71493 0
M  V30 6454 H 595.534 0.0938054 3.6648 0
M  V30 6455 H 595.182 -2.2349 4.50623 0
M  V30 6456 H 594.882 -1.03121 5.78481 0
M  V30 6457 H 596.406 -1.96363 5.78164 0
M  V30 6458 H 597.82 0.307089 5.72477 0
M  V30 6459 H 596.217 1.07784 5.90341 0
M  V30 6460 H 597.287 1.58316 4.58327 0
M  V30 6461 N 598.631 -1.53133 0.372548 0
M  V30 6462 C 599.563 -2.23557 -0.505444 0
M  V30 6463 C 600.576 -1.25211 -1.04049 0
M  V30 6464 O 601.765 -1.51391 -0.945675 0
M  V30 6465 C 598.865 -2.92516 -1.71136 0
M  V30 6466 C 598.038 -4.17428 -1.30661 0
M  V30 6467 C 597.097 -4.69535 -2.37536 0
M  V30 6468 O 596.123 -5.33042 -1.99637 0
M  V30 6469 N 597.325 -4.47947 -3.6922 0
M  V30 6470 H 600.09 -2.9954 0.0978259 0
M  V30 6471 H 597.651 -1.60684 0.198068 0
M  V30 6472 H 599.643 -3.24281 -2.42124 0
M  V30 6473 H 598.213 -2.19944 -2.22134 0
M  V30 6474 H 597.433 -3.91888 -0.426292 0
M  V30 6475 H 598.721 -4.98622 -1.01259 0
M  V30 6476 H 598.119 -3.97219 -4.02783 0
M  V30 6477 H 596.676 -4.84245 -4.36292 0
M  V30 6478 N 600.109 -0.101901 -1.5727 0
M  V30 6479 C 601.52 0.426173 -1.81771 0
M  V30 6480 C 601.871 1.67725 -1.01797 0
M  V30 6481 O 600.996 2.14958 -0.249386 0
M  V30 6482 C 601.591 0.779962 -3.297 0
M  V30 6483 C 600.15 1.25275 -3.54941 0
M  V30 6484 C 599.297 0.252814 -2.76145 0
M  V30 6485 H 602.248 -0.32726 -1.55289 0
M  V30 6486 H 602.269 1.63891 -3.43395 0
M  V30 6487 H 601.781 -0.130778 -3.8788 0
M  V30 6488 H 599.882 2.18097 -3.021 0
M  V30 6489 H 599.995 1.20988 -4.63572 0
M  V30 6490 H 598.359 0.736362 -2.43823 0
M  V30 6491 H 599.142 -0.650724 -3.37076 0
M  V30 6492 N 601.587 1.56661 0.17182 0
M  V30 6493 C 602.833 1.8313 0.88516 0
M  V30 6494 C 603.188 0.682376 1.79893 0
M  V30 6495 O 602.481 -0.321215 1.88888 0
M  V30 6496 C 602.675 3.13435 1.71736 0
M  V30 6497 C 602.504 4.40892 0.885659 0
M  V30 6498 C 601.274 5.02177 0.560939 0
M  V30 6499 C 603.472 5.13797 0.227454 0
M  V30 6500 N 601.454 6.13229 -0.286953 0
M  V30 6501 C 602.825 6.18127 -0.481625 0
M  V30 6502 C 604.88 4.97687 0.145567 0
M  V30 6503 C 603.583 7.08092 -1.26482 0
M  V30 6504 C 605.609 5.88096 -0.624298 0
M  V30 6505 C 604.971 6.91888 -1.32174 0
M  V30 6506 H 601.07 0.721107 0.302536 0
M  V30 6507 H 603.654 1.94104 0.152178 0
M  V30 6508 H 601.825 3.03653 2.42176 0
M  V30 6509 H 603.557 3.27903 2.37196 0
M  V30 6510 H 600.312 4.65145 0.890902 0
M  V30 6511 H 600.736 6.73359 -0.701193 0
M  V30 6512 H 605.378 4.17451 0.670426 0
M  V30 6513 H 603.096 7.87774 -1.80103 0
M  V30 6514 H 606.682 5.77702 -0.689321 0
M  V30 6515 H 605.562 7.60637 -1.90791 0
M  V30 6516 N 603.065 -0.440357 1.51323 0
M  V30 6517 C 604.481 -0.7766 1.39431 0
M  V30 6518 C 604.681 -1.95838 0.474296 0
M  V30 6519 O 603.737 -2.52398 -0.0716692 0
M  V30 6520 C 605.05 -1.05981 2.81405 0
M  V30 6521 C 606.598 -1.16442 2.90534 0
M  V30 6522 C 607.073 -1.48058 4.33408 0
M  V30 6523 N 608.564 -1.54988 4.36501 0
M  V30 6524 C 609.299 -1.81017 5.44078 0
M  V30 6525 N 608.795 -2.04858 6.61819 0
M  V30 6526 N 610.588 -1.82774 5.31554 0
M  V30 6527 H 602.739 0.338006 2.09693 0
M  V30 6528 H 605.002 0.0888072 0.943831 0
M  V30 6529 H 604.708 -0.264173 3.50706 0
M  V30 6530 H 604.582 -1.98822 3.20546 0
M  V30 6531 H 606.969 -1.95068 2.21432 0
M  V30 6532 H 607.05 -0.215088 2.54894 0
M  V30 6533 H 606.694 -0.699605 5.03059 0
M  V30 6534 H 606.624 -2.44192 4.66559 0
M  V30 6535 H 609.115 -1.38479 3.51613 0
M  V30 6536 H 609.428 -2.2408 7.396 0
M  V30 6537 H 607.773 -2.02187 6.6494 0
M  V30 6538 H 610.964 -1.63665 4.38556 0
M  V30 6539 H 611.137 -2.02722 6.15474 0
M  V30 6540 N 604.543 -1.41418 -0.695603 0
M  V30 6541 C 605.773 -1.43921 -1.48224 0
M  V30 6542 C 606.181 -0.0428855 -1.89151 0
M  V30 6543 O 605.524 0.948138 -1.5734 0
M  V30 6544 C 605.586 -2.28466 -2.77567 0
M  V30 6545 C 605.25 -3.76629 -2.58844 0
M  V30 6546 C 606.247 -4.6879 -2.24793 0
M  V30 6547 C 603.932 -4.2067 -2.74485 0
M  V30 6548 C 605.926 -6.02981 -2.06622 0
M  V30 6549 C 603.613 -5.54926 -2.55931 0
M  V30 6550 C 604.611 -6.45897 -2.2205 0
M  V30 6551 O 604.299 -7.77675 -2.03657 0
M  V30 6552 H 604.031 -0.492252 -0.463318 0
M  V30 6553 H 606.585 -1.86347 -0.863952 0
M  V30 6554 H 604.815 -1.80853 -3.41802 0
M  V30 6555 H 606.504 -2.2267 -3.39371 0
M  V30 6556 H 607.27 -4.36055 -2.12323 0
M  V30 6557 H 603.149 -3.50167 -2.9984 0
M  V30 6558 H 606.693 -6.73951 -1.80099 0
M  V30 6559 H 602.59 -5.8724 -2.67991 0
M  V30 6560 H 603.358 -7.88819 -2.1842 0
M  V30 6561 N 606.021 0.929856 -1.27246 0
M  V30 6562 C 606.984 2.01172 -1.09829 0
M  V30 6563 C 607.984 1.60743 -0.0429687 0
M  V30 6564 O 609.174 1.71813 -0.287373 0
M  V30 6565 C 606.306 3.34191 -0.673003 0
M  V30 6566 H 607.499 2.18054 -2.05895 0
M  V30 6567 H 605.052 1.11036 -1.10003 0
M  V30 6568 H 605.787 3.23009 0.289134 0
M  V30 6569 H 605.572 3.64892 -1.43515 0
M  V30 6570 H 607.062 4.13646 -0.573323 0
M  V30 6571 N 607.499 1.09233 1.13605 0
M  V30 6572 C 608.91 0.846839 1.6639 0
M  V30 6573 C 609.261 -0.625031 1.85978 0
M  V30 6574 O 608.386 -1.48173 1.57714 0
M  V30 6575 C 608.981 1.5307 3.0225 0
M  V30 6576 C 607.54 1.33223 3.52035 0
M  V30 6577 C 606.687 1.58806 2.27323 0
M  V30 6578 H 609.638 1.25175 0.975541 0
M  V30 6579 H 609.659 0.96267 3.68121 0
M  V30 6580 H 609.171 2.60192 2.87961 0
M  V30 6581 H 607.272 0.282091 3.71531 0
M  V30 6582 H 607.385 2.0657 4.32279 0
M  V30 6583 H 605.749 1.01007 2.33815 0
M  V30 6584 H 606.532 2.67153 2.15602 0
M  V30 6585 N 608.977 -1.30795 0.87923 0
M  V30 6586 C 610.254 -1.91145 0.415086 0
M  V30 6587 C 610.634 -1.7995 -1.10368 0
M  V30 6588 O 609.982 -1.21305 -1.93642 0
M  V30 6589 C 610.192 -3.37014 0.906778 0
M  V30 6590 C 611.54 -4.14101 0.938358 0
M  V30 6591 O 612.564 -3.45834 0.853053 0
M  V30 6592 O 611.423 -5.36054 1.06342 0
M  V30 6593 H 608.517 -0.81736 0.125905 0
M  V30 6594 H 611.063 -1.39401 0.967753 0
M  V30 6595 H 609.835 -3.3922 1.95053 0
M  V30 6596 H 609.458 -3.96204 0.332948 0
M  V30 6597 N 610.455 -0.639598 -1.44038 0
M  V30 6598 C 611.402 0.0602458 -2.30721 0
M  V30 6599 C 612.372 0.828352 -1.43971 0
M  V30 6600 O 613.557 0.807693 -1.72861 0
M  V30 6601 C 610.697 1.03008 -3.29368 0
M  V30 6602 C 609.81 0.259502 -4.3122 0
M  V30 6603 C 608.945 1.22191 -5.16955 0
M  V30 6604 C 607.984 0.440978 -6.10509 0
M  V30 6605 N 607.121 1.35428 -6.88915 0
M  V30 6606 H 611.961 -0.684867 -2.90023 0
M  V30 6607 H 609.498 -0.349509 -1.42888 0
M  V30 6608 H 611.456 1.60583 -3.85057 0
M  V30 6609 H 610.086 1.74222 -2.71747 0
M  V30 6610 H 609.138 -0.432317 -3.77935 0
M  V30 6611 H 610.45 -0.348347 -4.97582 0
M  V30 6612 H 609.604 1.86873 -5.77203 0
M  V30 6613 H 608.343 1.86367 -4.50687 0
M  V30 6614 H 607.348 -0.219279 -5.49363 0
M  V30 6615 H 608.573 -0.196192 -6.78817 0
M  V30 6616 H 606.519 1.9831 -6.25307 0
M  V30 6617 H 606.436 0.800657 -7.51748 0
M  V30 6618 H 607.704 1.98967 -7.53679 0
M  V30 6619 N 611.933 1.52934 -0.380664 0
M  V30 6620 C 612.865 2.23822 0.493581 0
M  V30 6621 C 613.878 1.25761 1.03383 0
M  V30 6622 O 615.067 1.5189 0.937633 0
M  V30 6623 C 612.167 2.9342 1.69582 0
M  V30 6624 C 611.34 4.18115 1.28445 0
M  V30 6625 C 610.399 4.70788 2.35042 0
M  V30 6626 O 609.425 5.34093 1.96807 0
M  V30 6627 N 610.627 4.49899 3.66839 0
M  V30 6628 H 613.392 2.99484 -0.11371 0
M  V30 6629 H 610.953 1.60577 -0.206587 0
M  V30 6630 H 612.945 3.2556 2.40401 0
M  V30 6631 H 611.515 2.21119 2.20965 0
M  V30 6632 H 610.735 3.92109 0.405503 0
M  V30 6633 H 612.023 4.99152 0.986132 0
M  V30 6634 H 611.421 3.99349 4.0067 0
M  V30 6635 H 609.978 4.86551 4.33718 0
M  V30 6636 N 613.412 0.11024 1.57214 0
M  V30 6637 C 614.375 -0.828808 2.1369 0
M  V30 6638 C 615.375 -1.20059 1.06969 0
M  V30 6639 O 616.565 -1.12754 1.32786 0
M  V30 6640 C 613.697 -2.11959 2.66994 0
M  V30 6641 H 614.89 -0.338146 2.97988 0
M  V30 6642 H 612.443 -0.138913 1.55681 0
M  V30 6643 H 613.178 -2.65476 1.8626 0
M  V30 6644 H 612.963 -1.86258 3.45037 0
M  V30 6645 H 614.453 -2.79105 3.10629 0
M  V30 6646 N 614.89 -1.56749 -0.16351 0
M  V30 6647 C 616.301 -1.72039 -0.725216 0
M  V30 6648 C 616.652 -0.72202 -1.82432 0
M  V30 6649 O 615.777 0.114942 -2.16095 0
M  V30 6650 C 616.372 -3.11932 -1.32227 0
M  V30 6651 C 614.931 -3.28879 -1.83072 0
M  V30 6652 C 614.078 -2.67984 -0.712716 0
M  V30 6653 H 617.029 -1.58579 0.0619772 0
M  V30 6654 H 617.05 -3.11015 -2.19202 0
M  V30 6655 H 616.562 -3.84572 -0.522103 0
M  V30 6656 H 614.663 -2.61209 -2.65708 0
M  V30 6657 H 614.776 -4.36688 -1.97079 0
M  V30 6658 H 613.14 -2.28005 -1.13515 0
M  V30 6659 H 613.923 -3.43216 0.0757361 0
M  V30 6660 N 616.368 0.432326 -1.51554 0
M  V30 6661 C 617.616 1.17901 -1.64146 0
M  V30 6662 C 617.937 1.91604 -0.362367 0
M  V30 6663 O 617.207 1.85764 0.621968 0
M  V30 6664 H 615.787 0.438206 -0.604966 0
M  V30 6665 H 618.449 0.495172 -1.88505 0
M  V30 6666 H 617.545 1.90584 -2.47152 0
M  V30 6667 N 617.846 1.41785 0.688094 0
M  V30 6668 C 619.071 1.45117 1.48175 0
M  V30 6669 C 619.496 0.060129 1.88004 0
M  V30 6670 O 618.854 -0.938385 1.55126 0
M  V30 6671 C 618.902 2.37224 2.71583 0
M  V30 6672 O 618.006 1.83443 3.69354 0
M  V30 6673 H 617.347 0.492208 0.445676 0
M  V30 6674 H 619.877 1.86329 0.845145 0
M  V30 6675 H 619.887 2.53353 3.19806 0
M  V30 6676 H 618.562 3.38293 2.41931 0
M  V30 6677 H 617.139 1.76802 3.28322 0
M  V30 6678 N 619.324 -0.923095 1.27737 0
M  V30 6679 C 620.601 -1.64989 1.05062 0
M  V30 6680 C 620.981 -2.07018 -0.413124 0
M  V30 6681 O 620.329 -1.80797 -1.39731 0
M  V30 6682 C 620.539 -2.84847 2.01652 0
M  V30 6683 C 621.887 -3.56083 2.31279 0
M  V30 6684 O 622.911 -2.94981 1.99662 0
M  V30 6685 O 621.77 -4.66182 2.85196 0
M  V30 6686 H 618.864 -0.723357 0.400853 0
M  V30 6687 H 621.41 -0.973224 1.3902 0
M  V30 6688 H 620.182 -2.50814 3.00347 0
M  V30 6689 H 619.805 -3.60231 1.68284 0
M  V30 6690 N 620.802 -1.09834 -1.13024 0
M  V30 6691 C 622.027 -0.85909 -1.88771 0
M  V30 6692 C 622.452 0.584402 -1.78791 0
M  V30 6693 O 621.81 1.41101 -1.13842 0
M  V30 6694 C 621.858 -1.30427 -3.36186 0
M  V30 6695 O 620.962 -0.465368 -4.09766 0
M  V30 6696 H 620.303 -0.310786 -0.586778 0
M  V30 6697 H 622.833 -1.46355 -1.42973 0
M  V30 6698 H 622.843 -1.2915 -3.8702 0
M  V30 6699 H 621.518 -2.3555 -3.42767 0
M  V30 6700 H 620.095 -0.542814 -3.68928 0
M  V30 6701 N 622.28 1.30327 -0.886154 0
M  V30 6702 C 623.212 2.27079 -0.311072 0
M  V30 6703 C 624.225 1.53758 0.53502 0
M  V30 6704 O 625.414 1.74947 0.354378 0
M  V30 6705 C 622.514 3.33965 0.576228 0
M  V30 6706 C 621.687 4.36735 -0.241064 0
M  V30 6707 C 620.746 5.23028 0.576916 0
M  V30 6708 O 619.772 5.692 -0.000802231 0
M  V30 6709 N 620.974 5.49016 1.88579 0
M  V30 6710 H 623.739 2.77065 -1.14259 0
M  V30 6711 H 621.3 1.43519 -0.749258 0
M  V30 6712 H 623.292 3.88618 1.12953 0
M  V30 6713 H 621.862 2.839 1.30842 0
M  V30 6714 H 621.082 3.81932 -0.975805 0
M  V30 6715 H 622.37 5.02451 -0.801272 0
M  V30 6716 H 621.768 5.13288 2.37806 0
M  V30 6717 H 620.325 6.06539 2.38651 0
M  V30 6718 N 623.758 0.647228 1.43697 0
M  V30 6719 C 625.169 0.238689 1.85168 0
M  V30 6720 C 625.52 -1.21345 1.54175 0
M  V30 6721 O 624.645 -1.92542 0.987743 0
M  V30 6722 C 625.24 0.426422 3.36106 0
M  V30 6723 C 623.799 0.0722541 3.76331 0
M  V30 6724 C 622.946 0.732153 2.6746 0
M  V30 6725 H 625.897 0.851309 1.33934 0
M  V30 6726 H 625.918 -0.32987 3.79067 0
M  V30 6727 H 625.43 1.48339 3.58632 0
M  V30 6728 H 623.531 -0.982355 3.59417 0
M  V30 6729 H 623.644 0.493541 4.76551 0
M  V30 6730 H 622.008 0.16594 2.54159 0
M  V30 6731 H 622.791 1.79204 2.92816 0
M  V30 6732 N 625.236 -1.5273 0.388769 0
M  V30 6733 C 626.652 -1.59553 0.0387049 0
M  V30 6734 C 626.852 -1.40278 -1.44652 0
M  V30 6735 O 625.908 -1.21951 -2.21098 0
M  V30 6736 C 627.221 -2.9625 0.515409 0
M  V30 6737 C 628.769 -3.09426 0.471621 0
M  V30 6738 C 629.244 -4.48572 0.924505 0
M  V30 6739 N 630.735 -4.54754 0.880496 0
M  V30 6740 C 631.47 -5.60653 1.20234 0
M  V30 6741 N 630.966 -6.74198 1.59463 0
M  V30 6742 N 632.759 -5.50755 1.12363 0
M  V30 6743 H 624.91 -1.63508 1.35569 0
M  V30 6744 H 627.173 -0.768097 0.555636 0
M  V30 6745 H 626.879 -3.15569 1.5527 0
M  V30 6746 H 626.753 -3.77102 -0.085792 0
M  V30 6747 H 629.14 -2.89804 -0.556588 0
M  V30 6748 H 629.221 -2.30528 1.10862 0
M  V30 6749 H 628.865 -4.68936 1.95094 0
M  V30 6750 H 628.795 -5.25935 0.264524 0
M  V30 6751 H 631.286 -3.73237 0.591815 0
M  V30 6752 H 631.599 -7.5097 1.82385 0
M  V30 6753 H 629.944 -6.75531 1.63349 0
M  V30 6754 H 633.135 -4.6093 0.816169 0
M  V30 6755 H 633.308 -6.33184 1.37777 0
M  V30 6756 N 626.714 -0.118576 -1.57153 0
M  V30 6757 C 627.954 0.542618 -1.97066 0
M  V30 6758 C 628.318 1.63874 -1.00046 0
M  V30 6759 O 629.519 2.3588 -1.28895 0
M  V30 6760 C 627.79 1.06196 -3.41258 0
M  V30 6761 S 629.349 1.73174 -4.03183 0
M  V30 6762 H 626.167 0.17638 -0.688775 0
M  V30 6763 H 628.769 -0.203556 -1.94437 0
M  V30 6764 H 627.473 0.253016 -4.09619 0
M  V30 6765 H 627.004 1.84342 -3.47536 0
M  V30 6766 H 629.019 3.01749 -3.93906 0
M  V30 6767 N 628.193 1.56834 0.155195 0
M  V30 6768 C 629.439 1.83169 0.870467 0
M  V30 6769 C 629.772 0.698929 1.81187 0
M  V30 6770 O 629.047 -0.298035 1.92203 0
M  V30 6771 C 629.33 3.19965 1.65211 0
M  V30 6772 C 629.183 4.43792 0.732744 0
M  V30 6773 C 630.502 3.53885 2.61636 0
M  V30 6774 H 627.621 0.666288 0.315006 0
M  V30 6775 H 630.263 1.89513 0.135988 0
M  V30 6776 H 628.413 3.14687 2.27825 0
M  V30 6777 H 630.085 4.61148 0.118236 0
M  V30 6778 H 628.328 4.3378 0.0417906 0
M  V30 6779 H 628.999 5.36095 1.31552 0
M  V30 6780 H 631.475 3.5972 2.09143 0
M  V30 6781 H 630.351 4.50648 3.13381 0
M  V30 6782 H 630.612 2.79418 3.42605 0
M  V30 6783 N 629.671 -0.424282 1.51781 0
M  V30 6784 C 630.896 -1.19928 1.6921 0
M  V30 6785 C 631.321 -1.8392 0.394355 0
M  V30 6786 O 630.679 -1.69371 -0.646778 0
M  V30 6787 C 630.727 -2.24937 2.81843 0
M  V30 6788 O 629.831 -3.3073 2.46356 0
M  V30 6789 H 629.172 -0.35078 0.563781 0
M  V30 6790 H 631.702 -0.499401 1.98412 0
M  V30 6791 H 631.712 -2.69512 3.06312 0
M  V30 6792 H 630.387 -1.77742 3.76006 0
M  V30 6793 H 628.964 -2.9154 2.32505 0
M  V30 6794 N 631.149 -1.42148 -0.680565 0
M  V30 6795 C 632.059 -1.47565 -1.82378 0
M  V30 6796 C 633.075 -0.36489 -1.70131 0
M  V30 6797 O 634.251 -0.614916 -1.91783 0
M  V30 6798 C 631.316 -1.37013 -3.18478 0
M  V30 6799 C 630.377 -2.58532 -3.42724 0
M  V30 6800 C 629.61 -2.48473 -4.72331 0
M  V30 6801 O 629.833 -1.51745 -5.49845 0
M  V30 6802 O 628.767 -3.38503 -4.97694 0
M  V30 6803 H 632.593 -2.44045 -1.80764 0
M  V30 6804 H 630.178 -1.23849 -0.835569 0
M  V30 6805 H 632.06 -1.33468 -3.99705 0
M  V30 6806 H 630.735 -0.436552 -3.20743 0
M  V30 6807 H 629.642 -2.67652 -2.61368 0
M  V30 6808 H 630.975 -3.50769 -3.45286 0
M  V30 6809 N 632.627 0.916307 -1.28225 0
M  V30 6810 C 633.574 2.01841 -1.11932 0
M  V30 6811 C 634.544 1.66091 -0.0171604 0
M  V30 6812 O 635.729 1.89934 -0.181617 0
M  V30 6813 C 632.869 3.36065 -0.784504 0
M  V30 6814 C 631.982 3.847 -1.96544 0
M  V30 6815 C 631.117 5.07423 -1.57149 0
M  V30 6816 C 630.156 5.48384 -2.71922 0
M  V30 6817 N 629.293 6.62298 -2.33037 0
M  V30 6818 H 634.133 2.1511 -2.06232 0
M  V30 6819 H 631.67 1.05366 -1.02647 0
M  V30 6820 H 633.628 4.13272 -0.571148 0
M  V30 6821 H 632.258 3.22571 0.121565 0
M  V30 6822 H 631.31 3.03673 -2.291 0
M  V30 6823 H 632.622 4.1102 -2.82603 0
M  V30 6824 H 631.776 5.92165 -1.32004 0
M  V30 6825 H 630.515 4.82906 -0.682153 0
M  V30 6826 H 629.52 4.62184 -2.97768 0
M  V30 6827 H 630.745 5.7489 -3.61494 0
M  V30 6828 H 628.691 6.39416 -1.4657 0
M  V30 6829 H 628.608 6.8833 -3.12631 0
M  V30 6830 H 629.876 7.50352 -2.11169 0
M  V30 6831 N 634.105 1.10431 1.1244 0
M  V30 6832 C 635.351 0.857864 1.84424 0
M  V30 6833 C 635.706 -0.609995 1.82474 0
M  V30 6834 O 634.999 -1.44401 1.25932 0
M  V30 6835 C 635.193 1.34022 3.3132 0
M  V30 6836 C 635.022 2.85344 3.47576 0
M  V30 6837 C 633.792 3.53345 3.61213 0
M  V30 6838 C 635.99 3.83446 3.42744 0
M  V30 6839 N 633.972 4.92989 3.65834 0
M  V30 6840 C 635.343 5.09101 3.5386 0
M  V30 6841 C 637.398 3.76154 3.26209 0
M  V30 6842 C 636.101 6.28323 3.50146 0
M  V30 6843 C 638.127 4.94876 3.23809 0
M  V30 6844 C 637.489 6.19378 3.35485 0
M  V30 6845 H 633.588 0.366917 0.690577 0
M  V30 6846 H 636.172 1.40668 1.34613 0
M  V30 6847 H 634.343 0.818727 3.79673 0
M  V30 6848 H 636.075 1.03801 3.91162 0
M  V30 6849 H 632.83 3.03791 3.63329 0
M  V30 6850 H 633.254 5.65762 3.71809 0
M  V30 6851 H 637.896 2.80813 3.16076 0
M  V30 6852 H 635.614 7.23953 3.5905 0
M  V30 6853 H 639.2 4.90942 3.12197 0
M  V30 6854 H 638.08 7.09704 3.33602 0
M  V30 6855 N 635.583 -1.29855 0.893053 0
M  V30 6856 C 636.546 -2.26183 0.370687 0
M  V30 6857 C 637.546 -1.53108 -0.491385 0
M  V30 6858 O 638.736 -1.71643 -0.297386 0
M  V30 6859 C 635.868 -3.37633 -0.470827 0
M  V30 6860 H 637.061 -2.73903 1.22135 0
M  V30 6861 H 634.614 -1.41183 0.67061 0
M  V30 6862 H 635.349 -2.95241 -1.34175 0
M  V30 6863 H 635.134 -3.91825 0.146784 0
M  V30 6864 H 636.624 -4.09313 -0.827825 0
M  V30 6865 N 637.061 -0.65484 -1.43351 0
M  V30 6866 C 638.472 -0.248506 -1.85039 0
M  V30 6867 C 638.823 1.20526 -1.54816 0
M  V30 6868 O 637.948 1.92016 -0.99794 0
M  V30 6869 C 638.543 -0.444241 -3.35875 0
M  V30 6870 C 637.102 -0.0922108 -3.76287 0
M  V30 6871 C 636.249 -0.746327 -2.67068 0
M  V30 6872 H 639.2 -0.8584 -1.33481 0
M  V30 6873 H 639.221 0.309762 -3.79237 0
M  V30 6874 H 638.733 -1.50239 -3.5784 0
M  V30 6875 H 636.834 0.96328 -3.59933 0
M  V30 6876 H 636.947 -0.518807 -4.76283 0
M  V30 6877 H 635.311 -0.179416 -2.54067 0
M  V30 6878 H 636.094 -1.80754 -2.91861 0
M  V30 6879 N 638.539 1.52521 -0.396863 0
M  V30 6880 C 639.786 2.01672 0.182898 0
M  V30 6881 C 640.114 1.28302 1.46181 0
M  V30 6882 O 639.369 0.374118 1.92091 0
M  V30 6883 C 639.668 3.5403 0.489677 0
M  V30 6884 C 639.334 4.45456 -0.698581 0
M  V30 6885 C 637.996 4.70166 -1.02454 0
M  V30 6886 C 640.348 4.99354 -1.49316 0
M  V30 6887 C 637.676 5.46024 -2.1465 0
M  V30 6888 C 640.028 5.76439 -2.60579 0
M  V30 6889 C 638.692 5.99426 -2.93675 0
M  V30 6890 H 637.962 0.737971 0.066927 0
M  V30 6891 H 640.609 1.83853 -0.535764 0
M  V30 6892 H 638.914 3.69963 1.28976 0
M  V30 6893 H 640.611 3.8956 0.951018 0
M  V30 6894 H 637.201 4.26392 -0.434525 0
M  V30 6895 H 641.385 4.80182 -1.25457 0
M  V30 6896 H 636.641 5.62046 -2.40654 0
M  V30 6897 H 640.815 6.17202 -3.22544 0
M  V30 6898 H 638.442 6.57988 -3.80731 0
M  V30 6899 N 640.017 0.126909 1.57088 0
M  V30 6900 C 641.263 -0.529952 1.95753 0
M  V30 6901 C 641.596 -1.65823 1.01077 0
M  V30 6902 O 640.871 -1.94437 0.0494162 0
M  V30 6903 C 641.154 -1.05517 3.44294 0
M  V30 6904 C 641.007 0.0702253 4.49745 0
M  V30 6905 C 642.326 -1.9435 3.94862 0
M  V30 6906 H 639.445 -0.191168 0.711775 0
M  V30 6907 H 642.087 0.204071 1.88901 0
M  V30 6908 H 640.237 -1.68069 3.50264 0
M  V30 6909 H 641.909 0.705834 4.55868 0
M  V30 6910 H 640.152 0.732259 4.27575 0
M  V30 6911 H 640.823 -0.338642 5.5096 0
M  V30 6912 H 643.299 -1.41658 3.91244 0
M  V30 6913 H 642.175 -2.28015 4.993 0
M  V30 6914 H 642.436 -2.87299 3.36024 0
M  V30 6915 N 641.495 -1.56914 -0.146875 0
M  V30 6916 C 642.427 -1.94878 -1.20645 0
M  V30 6917 C 643.44 -0.844633 -1.39175 0
M  V30 6918 O 644.629 -1.12304 -1.38744 0
M  V30 6919 C 641.729 -2.20769 -2.57127 0
M  V30 6920 C 640.902 -3.52053 -2.59572 0
M  V30 6921 C 639.961 -3.66482 -3.77594 0
M  V30 6922 O 638.987 -4.38873 -3.62462 0
M  V30 6923 N 640.189 -3.03156 -4.95052 0
M  V30 6924 H 642.954 -2.86374 -0.883757 0
M  V30 6925 H 640.515 -1.58366 -0.336436 0
M  V30 6926 H 642.507 -2.27664 -3.34591 0
M  V30 6927 H 641.077 -1.35538 -2.81688 0
M  V30 6928 H 640.297 -3.56598 -1.68023 0
M  V30 6929 H 641.585 -4.38396 -2.58238 0
M  V30 6930 H 640.983 -2.44258 -5.10249 0
M  V30 6931 H 639.54 -3.15611 -5.70292 0
M  V30 6932 N 642.974 0.416227 -1.52004 0
M  V30 6933 C 643.884 1.53147 -1.77717 0
M  V30 6934 C 644.9 1.609 -0.662368 0
M  V30 6935 O 646.076 1.77747 -0.946991 0
M  V30 6936 C 643.141 2.88948 -1.91598 0
M  V30 6937 C 642.202 2.9114 -3.15493 0
M  V30 6938 C 641.435 4.20464 -3.28703 0
M  V30 6939 O 641.658 5.13981 -2.47345 0
M  V30 6940 O 640.592 4.29368 -4.21813 0
M  V30 6941 H 644.418 1.34357 -2.72363 0
M  V30 6942 H 642.003 0.601373 -1.36762 0
M  V30 6943 H 643.885 3.69505 -2.02593 0
M  V30 6944 H 642.56 3.07821 -1.00141 0
M  V30 6945 H 641.467 2.09461 -3.09962 0
M  V30 6946 H 642.8 2.77216 -4.06709 0
M  V30 6947 N 644.452 1.42507 0.673017 0
M  V30 6948 C 645.4 1.46362 1.80779 0
M  V30 6949 C 646.394 0.339166 1.6597 0
M  V30 6950 O 647.6 0.512262 1.72557 0
M  V30 6951 H 643.975 0.458433 0.596107 0
M  V30 6952 H 645.946 2.41953 1.74646 0
M  V30 6953 C 644.695 1.38462 3.18941 0
M  V30 6954 H 644.018 2.24283 3.30964 0
M  V30 6955 H 645.458 1.45221 3.98355 0
M  V30 6956 C 643.917 0.0996354 3.36753 0
M  V30 6957 O 644.447 -0.846894 3.92671 0
M  V30 6958 N 642.653 0.016211 2.90595 0
M  V30 6959 H 642.2 0.78725 2.45276 0
M  V30 6960 H 642.158 -0.84291 3.0289 0
M  V30 6961 N 645.93 -0.909495 1.28709 0
M  V30 6962 C 646.86 -2.0291 1.15542 0
M  V30 6963 C 647.841 -1.7002 0.0521017 0
M  V30 6964 O 649.026 -1.92835 0.229849 0
M  V30 6965 C 646.156 -3.37458 0.820935 0
M  V30 6966 C 645.11 -3.84524 1.87949 0
M  V30 6967 C 644.436 -5.16086 1.39854 0
M  V30 6968 C 645.736 -4.05918 3.28676 0
M  V30 6969 H 647.43 -2.14183 2.09203 0
M  V30 6970 H 644.976 -1.02913 1.00722 0
M  V30 6971 H 646.929 -4.1528 0.715571 0
M  V30 6972 H 645.653 -3.26249 -0.151374 0
M  V30 6973 H 644.312 -3.08911 1.97408 0
M  V30 6974 H 643.96 -5.01284 0.41518 0
M  V30 6975 H 643.66 -5.48547 2.1064 0
M  V30 6976 H 645.184 -5.96459 1.30649 0
M  V30 6977 H 646.598 -4.74252 3.22115 0
M  V30 6978 H 644.995 -4.49717 3.97334 0
M  V30 6979 H 646.065 -3.10583 3.72379 0
M  V30 6980 N 647.408 -1.11026 -1.11852 0
M  V30 6981 C 648.338 -0.786812 -2.19844 0
M  V30 6982 C 649.319 0.242935 -1.68356 0
M  V30 6983 O 650.504 0.107355 -1.93903 0
M  V30 6984 C 647.634 -0.224516 -3.46574 0
M  V30 6985 C 646.588 -1.18564 -4.1125 0
M  V30 6986 C 645.914 -0.484261 -5.32503 0
M  V30 6987 C 647.214 -2.53465 -4.56676 0
M  V30 6988 H 648.908 -1.68978 -2.47158 0
M  V30 6989 H 646.454 -0.813906 -1.18792 0
M  V30 6990 H 648.407 0.0139435 -4.21398 0
M  V30 6991 H 647.131 0.713722 -3.18706 0
M  V30 6992 H 645.79 -1.40966 -3.38414 0
M  V30 6993 H 645.438 0.458646 -5.00905 0
M  V30 6994 H 645.138 -1.12526 -5.76725 0
M  V30 6995 H 646.662 -0.254492 -6.10069 0
M  V30 6996 H 648.076 -2.35177 -5.22843 0
M  V30 6997 H 646.473 -3.13507 -5.11697 0
M  V30 6998 H 647.543 -3.13008 -3.70343 0
M  V30 6999 N 648.886 1.2938 -0.899927 0
M  V30 7000 C 649.819 2.25911 -0.322386 0
M  V30 7001 C 650.797 1.52447 0.565567 0
M  V30 7002 O 651.981 1.81404 0.512324 0
M  V30 7003 C 649.108 3.3436 0.540455 0
M  V30 7004 C 648.154 4.25579 -0.280211 0
M  V30 7005 S 648.987 5.08526 -1.67814 0
M  V30 7006 C 650.143 6.20476 -0.822224 0
M  V30 7007 H 650.376 2.7455 -1.1406 0
M  V30 7008 H 647.909 1.37606 -0.700285 0
M  V30 7009 H 649.867 3.97303 1.0325 0
M  V30 7010 H 648.528 2.84416 1.33291 0
M  V30 7011 H 647.721 5.02574 0.378915 0
M  V30 7012 H 647.323 3.67287 -0.705405 0
M  V30 7013 H 649.615 6.77485 -0.0457138 0
M  V30 7014 H 650.558 6.90606 -1.56426 0
M  V30 7015 H 650.966 5.63243 -0.37651 0
M  V30 7016 N 650.364 0.662433 1.43002 0
M  V30 7017 C 651.594 0.187343 2.05749 0
M  V30 7018 C 652.002 -1.15582 1.49791 0
M  V30 7019 O 651.345 -1.72651 0.627487 0
M  V30 7020 C 651.407 0.0316493 3.59486 0
M  V30 7021 C 651.071 1.30156 4.38073 0
M  V30 7022 C 652.068 2.23234 4.69535 0
M  V30 7023 C 649.753 1.54572 4.77926 0
M  V30 7024 C 651.747 3.39012 5.39768 0
M  V30 7025 C 649.434 2.70641 5.47902 0
M  V30 7026 C 650.432 3.62687 5.78746 0
M  V30 7027 O 650.12 4.76728 6.47291 0
M  V30 7028 H 649.852 0.0915214 0.669776 0
M  V30 7029 H 652.406 0.905982 1.8434 0
M  V30 7030 H 650.636 -0.742451 3.79506 0
M  V30 7031 H 652.325 -0.401977 4.03905 0
M  V30 7032 H 653.091 2.05616 4.39257 0
M  V30 7033 H 648.97 0.83804 4.53319 0
M  V30 7034 H 652.514 4.10877 5.63761 0
M  V30 7035 H 648.411 2.88189 5.77596 0
M  V30 7036 H 649.179 4.76113 6.65777 0
M  V30 7037 N 651.842 -1.52309 0.404946 0
M  V30 7038 C 653.07 -2.06185 -0.171818 0
M  V30 7039 C 653.485 -1.27536 -1.39212 0
M  V30 7040 O 652.842 -0.326112 -1.79563 0
M  V30 7041 C 652.893 -3.57647 -0.526417 0
M  V30 7042 O 652.614 -4.3332 0.645417 0
M  V30 7043 C 654.115 -4.27925 -1.15736 0
M  V30 7044 H 651.335 -0.670632 -0.0222328 0
M  V30 7045 H 653.879 -1.96259 0.574692 0
M  V30 7046 H 652.034 -3.67595 -1.22282 0
M  V30 7047 H 652.448 -5.23328 0.35042 0
M  V30 7048 H 653.922 -5.35093 -1.35572 0
M  V30 7049 H 654.399 -3.84134 -2.12926 0
M  V30 7050 H 655.005 -4.22335 -0.501281 0
M  V30 7051 N 653.32 -0.135238 -1.57019 0
M  V30 7052 C 654.267 0.808908 -2.1616 0
M  V30 7053 C 655.237 1.25234 -1.09113 0
M  V30 7054 O 656.422 1.32697 -1.37099 0
M  V30 7055 C 653.562 2.04729 -2.77813 0
M  V30 7056 C 652.675 1.65074 -3.99218 0
M  V30 7057 C 651.81 2.84002 -4.48906 0
M  V30 7058 C 650.849 2.40663 -5.62803 0
M  V30 7059 N 649.986 3.5256 -6.07162 0
M  V30 7060 H 654.826 0.297751 -2.96509 0
M  V30 7061 H 652.363 0.135264 -1.46477 0
M  V30 7062 H 654.321 2.7731 -3.11697 0
M  V30 7063 H 652.951 2.53275 -2.00128 0
M  V30 7064 H 652.003 0.823029 -3.7139 0
M  V30 7065 H 653.315 1.29236 -4.81767 0
M  V30 7066 H 652.469 3.64788 -4.84783 0
M  V30 7067 H 651.208 3.23076 -3.65339 0
M  V30 7068 H 650.213 1.58314 -5.26514 0
M  V30 7069 H 651.438 2.02687 -6.48147 0
M  V30 7070 H 649.384 3.91278 -5.26534 0
M  V30 7071 H 649.301 3.20699 -6.84608 0
M  V30 7072 H 650.569 4.33738 -6.47682 0
M  V30 7073 N 654.798 1.5699 0.138552 0
M  V30 7074 C 655.728 2.01933 1.17241 0
M  V30 7075 C 656.709 0.90033 1.44319 0
M  V30 7076 O 657.894 1.16872 1.55095 0
M  V30 7077 C 655.024 2.40711 2.50351 0
M  V30 7078 C 653.978 3.55874 2.37776 0
M  V30 7079 C 653.304 3.80491 3.75674 0
M  V30 7080 C 654.604 4.8826 1.85472 0
M  V30 7081 H 656.298 2.88551 0.798672 0
M  V30 7082 H 653.844 1.3882 0.382743 0
M  V30 7083 H 655.797 2.70754 3.22909 0
M  V30 7084 H 654.521 1.5104 2.89576 0
M  V30 7085 H 653.18 3.2601 1.67669 0
M  V30 7086 H 652.828 2.88057 4.12349 0
M  V30 7087 H 652.528 4.57998 3.68119 0
M  V30 7088 H 654.052 4.12967 4.49767 0
M  V30 7089 H 655.466 5.16965 2.4783 0
M  V30 7090 H 653.863 5.69631 1.88787 0
M  V30 7091 H 654.933 4.78071 0.810935 0
M  V30 7092 N 656.276 -0.40816 1.52223 0
M  V30 7093 C 657.523 -1.15502 1.66329 0
M  V30 7094 C 657.851 -1.90474 0.393701 0
M  V30 7095 O 657.106 -1.85507 -0.623356 0
M  V30 7096 C 657.405 -2.17422 2.83659 0
M  V30 7097 C 657.071 -1.5925 4.21841 0
M  V30 7098 C 655.733 -1.4311 4.59427 0
M  V30 7099 C 658.085 -1.16776 5.0795 0
M  V30 7100 C 655.413 -0.830148 5.80797 0
M  V30 7101 C 657.765 -0.580988 6.29926 0
M  V30 7102 C 656.429 -0.406729 6.6626 0
M  V30 7103 H 655.699 -0.422653 0.608642 0
M  V30 7104 H 658.346 -0.442114 1.86327 0
M  V30 7105 H 656.651 -2.94861 2.58001 0
M  V30 7106 H 658.348 -2.75084 2.9177 0
M  V30 7107 H 654.938 -1.72796 3.92224 0
M  V30 7108 H 659.122 -1.28055 4.79495 0
M  V30 7109 H 654.378 -0.68316 6.07571 0
M  V30 7110 H 658.552 -0.243488 6.95974 0
M  V30 7111 H 656.179 0.0610366 7.60175 0
M  V30 7112 N 657.755 -1.42862 -0.66545 0
M  V30 7113 C 659.001 -1.44043 -1.42757 0
M  V30 7114 C 659.334 -0.0599629 -1.94107 0
M  V30 7115 O 658.609 0.917286 -1.71511 0
M  V30 7116 C 658.892 -2.47266 -2.61786 0
M  V30 7117 C 658.745 -3.94539 -2.16007 0
M  V30 7118 C 660.064 -2.47365 -3.64003 0
M  V30 7119 H 657.183 -0.524506 -0.517748 0
M  V30 7120 H 659.825 -1.74335 -0.755466 0
M  V30 7121 H 657.975 -2.21565 -3.19126 0
M  V30 7122 H 659.647 -4.31254 -1.63762 0
M  V30 7123 H 657.89 -4.07957 -1.47491 0
M  V30 7124 H 658.561 -4.62357 -3.01546 0
M  V30 7125 H 661.037 -2.70243 -3.16399 0
M  V30 7126 H 659.913 -3.21552 -4.44854 0
M  V30 7127 H 660.174 -1.50299 -4.15767 0
M  V30 7128 N 659.233 0.902656 -1.29189 0
M  V30 7129 C 660.481 1.6496 -1.16758 0
M  V30 7130 C 660.802 1.92952 0.28188 0
M  V30 7131 O 660.072 1.55351 1.19344 0
M  V30 7132 H 658.652 0.611447 -0.429118 0
M  V30 7133 H 661.314 1.0825 -1.62074 0
M  V30 7134 H 660.41 2.60728 -1.71544 0
M  V30 7135 N 660.711 1.11618 1.11262 0
M  V30 7136 C 661.958 0.86618 1.8304 0
M  V30 7137 C 662.286 -0.608149 1.84748 0
M  V30 7138 O 661.541 -1.46508 1.29745 0
M  V30 7139 C 661.84 1.37529 3.2988 0
M  V30 7140 C 661.506 2.86317 3.4833 0
M  V30 7141 C 660.168 3.26945 3.53073 0
M  V30 7142 C 662.52 3.82136 3.54431 0
M  V30 7143 C 659.848 4.62117 3.61475 0
M  V30 7144 C 662.2 5.17128 3.64365 0
M  V30 7145 C 660.864 5.57312 3.67369 0
M  V30 7146 H 660.134 0.316958 0.66979 0
M  V30 7147 H 662.781 1.3949 1.31205 0
M  V30 7148 H 661.086 0.766842 3.84222 0
M  V30 7149 H 662.783 1.15817 3.83911 0
M  V30 7150 H 659.373 2.53889 3.45309 0
M  V30 7151 H 663.557 3.51847 3.50025 0
M  V30 7152 H 658.813 4.92655 3.62079 0
M  V30 7153 H 662.987 5.91208 3.68029 0
M  V30 7154 H 660.614 6.62045 3.73632 0
M  V30 7155 N 662.189 -1.289 0.906776 0
M  V30 7156 C 663.119 -2.29932 0.406659 0
M  V30 7157 C 664.1 -1.6189 -0.522061 0
M  V30 7158 O 665.285 -1.8935 -0.431283 0
M  V30 7159 C 662.415 -3.45425 -0.360366 0
M  V30 7160 C 661.369 -4.25316 0.478574 0
M  V30 7161 C 660.695 -5.33076 -0.416373 0
M  V30 7162 C 661.995 -4.92739 1.7322 0
M  V30 7163 H 663.689 -2.72013 1.25097 0
M  V30 7164 H 661.235 -1.30768 0.602977 0
M  V30 7165 H 663.188 -4.15186 -0.721029 0
M  V30 7166 H 661.912 -3.02206 -1.23852 0
M  V30 7167 H 660.571 -3.57273 0.821662 0
M  V30 7168 H 660.219 -4.86101 -1.29287 0
M  V30 7169 H 659.919 -5.8743 0.141309 0
M  V30 7170 H 661.443 -6.05686 -0.773072 0
M  V30 7171 H 662.857 -5.54898 1.44086 0
M  V30 7172 H 661.254 -5.57057 2.23175 0
M  V30 7173 H 662.324 -4.17625 2.46408 0
M  V30 7174 N 663.667 -0.670007 -1.42649 0
M  V30 7175 C 664.615 0.0230106 -2.32589 0
M  V30 7176 C 665.609 0.795585 -1.49555 0
M  V30 7177 O 666.815 0.70409 -1.65658 0
M  V30 7178 H 663.19 0.0262342 -0.751542 0
M  V30 7179 H 665.161 -0.753009 -2.88743 0
M  V30 7180 C 663.91 0.963872 -3.34073 0
M  V30 7181 H 663.233 0.378813 -3.98001 0
M  V30 7182 H 664.673 1.41755 -3.99602 0
M  V30 7183 C 663.132 2.06797 -2.65964 0
M  V30 7184 O 663.662 3.15383 -2.48789 0
M  V30 7185 N 661.868 1.83831 -2.25066 0
M  V30 7186 H 661.415 0.955235 -2.39234 0
M  V30 7187 H 661.373 2.57895 -1.79827 0
M  V30 7188 N 665.145 1.52092 -0.413018 0
M  V30 7189 C 666.561 1.59471 -0.0640836 0
M  V30 7190 C 666.761 1.42562 1.42402 0
M  V30 7191 O 665.817 1.25453 2.19129 0
M  V30 7192 C 667.13 2.95392 -0.562474 0
M  V30 7193 C 668.678 3.08637 -0.520788 0
M  V30 7194 C 669.153 4.47044 -0.995752 0
M  V30 7195 N 670.644 4.53296 -0.952732 0
M  V30 7196 C 671.379 5.58669 -1.29138 0
M  V30 7197 N 670.875 6.71576 -1.70168 0
M  V30 7198 N 672.668 5.48898 -1.2111 0
M  V30 7199 H 664.819 1.6133 -1.38153 0
M  V30 7200 H 667.082 0.75916 -0.567785 0
M  V30 7201 H 666.788 3.13059 -1.60271 0
M  V30 7202 H 666.662 3.77191 0.0257875 0
M  V30 7203 H 669.049 2.90652 0.510412 0
M  V30 7204 H 669.13 2.28735 -1.14515 0
M  V30 7205 H 668.774 4.65773 -2.0253 0
M  V30 7206 H 668.704 5.25448 -0.348162 0
M  V30 7207 H 671.195 3.72248 -0.651119 0
M  V30 7208 H 671.508 7.47973 -1.9431 0
M  V30 7209 H 669.853 6.72847 -1.74075 0
M  V30 7210 H 673.044 4.59573 -0.889396 0
M  V30 7211 H 673.217 6.30912 -1.47833 0
M  V30 7212 N 666.623 0.143563 1.56945 0
M  V30 7213 C 667.586 -0.783295 2.154 0
M  V30 7214 C 668.586 -1.17763 1.09492 0
M  V30 7215 O 669.776 -1.09912 1.35148 0
M  V30 7216 C 666.908 -2.06248 2.7143 0
M  V30 7217 H 668.101 -0.274863 2.98638 0
M  V30 7218 H 665.654 -0.105859 1.55941 0
M  V30 7219 H 666.389 -2.61466 1.91849 0
M  V30 7220 H 666.174 -1.78897 3.4891 0
M  V30 7221 H 667.664 -2.72453 3.16479 0
M  V30 7222 N 668.101 -1.57061 -0.130224 0
M  V30 7223 C 669.031 -2.02552 -1.16168 0
M  V30 7224 C 670.012 -0.907971 -1.4384 0
M  V30 7225 O 671.197 -1.17693 -1.54473 0
M  V30 7226 C 668.327 -2.42035 -2.49071 0
M  V30 7227 C 667.281 -3.5713 -2.35886 0
M  V30 7228 C 666.607 -3.82478 -3.7365 0
M  V30 7229 C 667.907 -4.89236 -1.8288 0
M  V30 7230 H 669.601 -2.8897 -0.783359 0
M  V30 7231 H 667.147 -1.39021 -0.375376 0
M  V30 7232 H 669.1 -2.72462 -3.21469 0
M  V30 7233 H 667.824 -1.52573 -2.88771 0
M  V30 7234 H 666.483 -3.26895 -1.65938 0
M  V30 7235 H 666.131 -2.9024 -4.10816 0
M  V30 7236 H 665.831 -4.59944 -3.65685 0
M  V30 7237 H 667.355 -4.15347 -4.47571 0
M  V30 7238 H 668.769 -5.18272 -2.45085 0
M  V30 7239 H 667.166 -5.70624 -1.85763 0
M  V30 7240 H 668.236 -4.78494 -0.785571 0
M  V30 7241 N 669.579 0.400081 -1.52437 0
M  V30 7242 C 670.995 0.739359 -1.41441 0
M  V30 7243 C 671.195 1.94512 -0.526053 0
M  V30 7244 O 670.251 2.525 0.00472502 0
M  V30 7245 C 671.564 0.984824 -2.84116 0
M  V30 7246 C 673.112 1.08698 -2.93519 0
M  V30 7247 C 673.587 1.36515 -4.37181 0
M  V30 7248 N 675.078 1.43361 -4.40457 0
M  V30 7249 C 675.813 1.66528 -5.48686 0
M  V30 7250 N 675.309 1.87239 -6.67018 0
M  V30 7251 N 677.102 1.68617 -5.36213 0
M  V30 7252 H 669.253 -0.393484 -2.08723 0
M  V30 7253 H 671.516 -0.1138 -0.941145 0
M  V30 7254 H 671.222 0.171096 -3.51284 0
M  V30 7255 H 671.096 1.90253 -3.25705 0
M  V30 7256 H 673.483 1.89129 -2.26526 0
M  V30 7257 H 673.564 0.147432 -2.55375 0
M  V30 7258 H 673.208 0.565982 -5.04737 0
M  V30 7259 H 673.138 2.31737 -4.7287 0
M  V30 7260 H 675.629 1.29108 -3.55161 0
M  V30 7261 H 675.942 2.04392 -7.45281 0
M  V30 7262 H 674.287 1.84486 -6.70067 0
M  V30 7263 H 677.478 1.5198 -4.42741 0
M  V30 7264 H 677.651 1.86332 -6.20632 0
M  V30 7265 N 671.057 1.43213 0.657864 0
M  V30 7266 C 672.285 1.48015 1.44566 0
M  V30 7267 C 672.7 0.0965951 1.88553 0
M  V30 7268 O 672.057 -0.892221 1.59203 0
M  V30 7269 C 672.108 2.42199 2.68369 0
M  V30 7270 O 671.829 3.75173 2.26223 0
M  V30 7271 C 673.33 2.56195 3.61772 0
M  V30 7272 H 670.55 0.502861 0.444266 0
M  V30 7273 H 673.094 1.87907 0.806917 0
M  V30 7274 H 671.249 2.05514 3.28394 0
M  V30 7275 H 671.663 4.25776 3.06293 0
M  V30 7276 H 673.137 3.26182 4.4532 0
M  V30 7277 H 673.614 1.60534 4.0881 0
M  V30 7278 H 674.22 2.93671 3.07632 0
M  V30 7279 N 672.536 -0.895792 1.29666 0
M  V30 7280 C 673.813 -1.62723 1.08538 0
M  V30 7281 C 674.193 -2.07848 -0.369119 0
M  V30 7282 O 673.541 -1.8372 -1.35864 0
M  V30 7283 C 673.751 -2.80505 2.07648 0
M  V30 7284 C 675.099 -3.51098 2.3878 0
M  V30 7285 O 676.123 -2.90679 2.05874 0
M  V30 7286 O 674.982 -4.60028 2.9502 0
M  V30 7287 H 672.076 -0.714692 0.416106 0
M  V30 7288 H 674.622 -0.943517 1.41053 0
M  V30 7289 H 673.394 -2.44386 3.05599 0
M  V30 7290 H 673.017 -3.5658 1.75887 0
M  V30 7291 N 674.014 -1.12206 -1.10668 0
M  V30 7292 C 674.944 -0.810086 -2.18997 0
M  V30 7293 C 675.925 0.225065 -1.68604 0
M  V30 7294 O 677.11 0.086783 -1.94006 0
M  V30 7295 C 674.24 -0.261262 -3.46316 0
M  V30 7296 C 673.194 -1.2292 -4.09969 0
M  V30 7297 C 672.52 -0.540713 -5.31959 0
M  V30 7298 C 673.82 -2.58295 -4.53962 0
M  V30 7299 H 675.514 -1.7159 -2.45352 0
M  V30 7300 H 673.06 -0.82646 -1.17922 0
M  V30 7301 H 675.013 -0.0307522 -4.21389 0
M  V30 7302 H 673.737 0.679879 -3.19445 0
M  V30 7303 H 672.396 -1.44548 -3.369 0
M  V30 7304 H 672.044 0.405492 -5.01363 0
M  V30 7305 H 671.744 -1.18637 -5.75499 0
M  V30 7306 H 673.268 -0.319184 -6.09765 0
M  V30 7307 H 674.682 -2.40709 -5.20319 0
M  V30 7308 H 673.079 -3.18916 -5.08343 0
M  V30 7309 H 674.149 -3.16918 -3.67002 0
M  V30 7310 N 675.492 1.28418 -0.913599 0
M  V30 7311 C 676.738 1.9527 -0.547484 0
M  V30 7312 C 677.071 1.71745 0.906486 0
M  V30 7313 O 676.346 1.03834 1.64465 0
M  V30 7314 C 676.629 3.49748 -0.857205 0
M  V30 7315 C 676.482 3.82675 -2.3639 0
M  V30 7316 C 677.801 4.3868 -0.353258 0
M  V30 7317 H 674.92 0.709236 -0.200381 0
M  V30 7318 H 677.562 1.51789 -1.14281 0
M  V30 7319 H 675.712 3.86915 -0.350548 0
M  V30 7320 H 677.384 3.55378 -2.94116 0
M  V30 7321 H 675.627 3.29724 -2.81894 0
M  V30 7322 H 676.298 4.90547 -2.53115 0
M  V30 7323 H 678.774 4.08584 -0.787288 0
M  V30 7324 H 677.65 5.45621 -0.599049 0
M  V30 7325 H 677.911 4.35753 0.746413 0
M  V30 7326 N 676.97 0.677563 1.42291 0
M  V30 7327 C 678.195 0.207901 2.06355 0
M  V30 7328 C 678.62 -1.12723 1.50583 0
M  V30 7329 O 677.978 -1.70171 0.62543 0
M  V30 7330 C 678.026 0.156489 3.6026 0
M  V30 7331 O 677.13 -0.874162 4.03029 0
M  V30 7332 H 676.471 0.106056 0.655475 0
M  V30 7333 H 679.001 0.927354 1.82377 0
M  V30 7334 H 679.011 -0.0187258 4.07996 0
M  V30 7335 H 677.686 1.13101 4.00226 0
M  V30 7336 H 676.263 -0.669764 3.66836 0
M  V30 7337 N 678.448 -1.51871 0.421078 0
M  V30 7338 C 679.859 -1.86644 -0.0457991 0
M  V30 7339 C 680.21 -1.33919 -1.43388 0
M  V30 7340 O 679.335 -0.683316 -2.05328 0
M  V30 7341 C 679.93 -3.38681 -0.0898844 0
M  V30 7342 C 678.489 -3.73049 -0.501127 0
M  V30 7343 C 677.636 -2.75485 0.316723 0
M  V30 7344 H 680.587 -1.45327 0.637635 0
M  V30 7345 H 680.608 -3.69636 -0.902734 0
M  V30 7346 H 680.12 -3.77025 0.920513 0
M  V30 7347 H 678.221 -3.40288 -1.51773 0
M  V30 7348 H 678.334 -4.78512 -0.237217 0
M  V30 7349 H 676.698 -2.53725 -0.222663 0
M  V30 7350 H 677.481 -3.16671 1.32569 0
M  V30 7351 N 679.926 -0.151884 -1.56866 0
M  V30 7352 C 680.873 0.785936 -2.17006 0
M  V30 7353 C 681.843 1.2407 -1.10435 0
M  V30 7354 O 683.028 1.31235 -1.38499 0
M  V30 7355 C 680.168 2.01771 -2.79969 0
M  V30 7356 C 679.281 1.6083 -4.00946 0
M  V30 7357 C 678.416 2.79224 -4.51893 0
M  V30 7358 C 677.455 2.3468 -5.65324 0
M  V30 7359 N 676.592 3.461 -6.10867 0
M  V30 7360 H 681.432 0.266286 -2.96808 0
M  V30 7361 H 678.969 0.11972 -1.46612 0
M  V30 7362 H 680.927 2.73989 -3.14621 0
M  V30 7363 H 679.557 2.51139 -2.02803 0
M  V30 7364 H 678.609 0.783592 -3.72242 0
M  V30 7365 H 679.921 1.24119 -4.83111 0
M  V30 7366 H 679.075 3.59625 -4.88625 0
M  V30 7367 H 677.814 3.19183 -3.68746 0
M  V30 7368 H 676.819 1.52721 -5.28163 0
M  V30 7369 H 678.044 1.95801 -6.5026 0
M  V30 7370 H 675.99 3.85671 -5.30654 0
M  V30 7371 H 675.907 3.1342 -6.87971 0
M  V30 7372 H 677.175 4.26844 -6.52246 0
M  V30 7373 N 681.404 1.57128 0.121893 0
M  V30 7374 C 682.354 1.96556 1.15541 0
M  V30 7375 C 683.338 0.840147 1.37224 0
M  V30 7376 O 684.53 1.10382 1.38365 0
M  V30 7377 C 681.659 2.37097 2.48274 0
M  V30 7378 C 680.745 3.56265 2.30078 0
M  V30 7379 N 681.136 4.72041 1.81688 0
M  V30 7380 C 679.434 3.61841 2.60744 0
M  V30 7381 C 680.135 5.54075 1.77132 0
M  V30 7382 N 679.111 4.96483 2.21371 0
M  V30 7383 H 682.913 2.83531 0.77378 0
M  V30 7384 H 680.427 1.59019 0.329672 0
M  V30 7385 H 682.424 2.6356 3.2302 0
M  V30 7386 H 681.084 1.51486 2.87197 0
M  V30 7387 H 682.095 4.95313 1.51278 0
M  V30 7388 H 678.772 2.8683 3.03373 0
M  V30 7389 H 680.162 6.56939 1.40998 0
M  V30 7390 N 682.882 -0.391992 1.52647 0
M  V30 7391 C 683.845 -1.46135 1.7657 0
M  V30 7392 C 684.845 -1.47701 0.635698 0
M  V30 7393 O 686.035 -1.48924 0.903728 0
M  V30 7394 C 683.167 -2.85443 1.86374 0
M  V30 7395 H 684.36 -1.26208 2.72051 0
M  V30 7396 H 681.913 -0.623549 1.43323 0
M  V30 7397 H 682.648 -3.10718 0.928685 0
M  V30 7398 H 682.433 -2.85708 2.68539 0
M  V30 7399 H 683.923 -3.62933 2.06566 0
M  V30 7400 N 684.36 -1.4356 -0.65026 0
M  V30 7401 C 685.29 -1.51758 -1.77459 0
M  V30 7402 C 686.271 -0.372019 -1.65982 0
M  V30 7403 O 687.456 -0.589627 -1.85033 0
M  V30 7404 C 684.586 -1.44302 -3.15902 0
M  V30 7405 C 683.54 -2.57138 -3.42146 0
M  V30 7406 C 682.866 -2.34735 -4.8042 0
M  V30 7407 C 684.166 -3.99373 -3.36598 0
M  V30 7408 H 685.86 -2.45863 -1.70855 0
M  V30 7409 H 683.406 -1.18333 -0.820566 0
M  V30 7410 H 685.359 -1.48641 -3.94314 0
M  V30 7411 H 684.083 -0.467026 -3.23244 0
M  V30 7412 H 682.742 -2.52157 -2.66106 0
M  V30 7413 H 682.39 -1.35372 -4.84441 0
M  V30 7414 H 682.09 -3.10375 -4.9894 0
M  V30 7415 H 683.614 -2.40862 -5.61086 0
M  V30 7416 H 685.028 -4.05826 -4.04942 0
M  V30 7417 H 683.425 -4.75063 -3.66654 0
M  V30 7418 H 684.495 -4.243 -2.34729 0
M  V30 7419 N 685.838 0.888903 -1.30139 0
M  V30 7420 C 686.771 1.99655 -1.10514 0
M  V30 7421 C 687.749 1.62594 -0.0138934 0
M  V30 7422 O 688.933 1.87762 -0.166689 0
M  V30 7423 C 686.06 3.31708 -0.684655 0
M  V30 7424 C 685.106 3.87755 -1.77619 0
M  V30 7425 S 685.939 4.15532 -3.37777 0
M  V30 7426 C 687.095 5.5061 -2.97622 0
M  V30 7427 H 687.328 2.15996 -2.04287 0
M  V30 7428 H 684.861 1.03682 -1.14409 0
M  V30 7429 H 686.819 4.08039 -0.448782 0
M  V30 7430 H 685.48 3.1323 0.233648 0
M  V30 7431 H 684.673 4.83164 -1.43417 0
M  V30 7432 H 684.275 3.18149 -1.96614 0
M  V30 7433 H 686.567 6.31518 -2.45338 0
M  V30 7434 H 687.51 5.89747 -3.91924 0
M  V30 7435 H 687.918 5.12983 -2.35603 0
M  V30 7436 N 687.317 1.12792 1.10072 0
M  V30 7437 C 688.563 0.886857 1.82381 0
M  V30 7438 C 688.896 -0.58576 1.85155 0
M  V30 7439 O 688.171 -1.43317 1.31493 0
M  V30 7440 C 688.454 1.46703 3.28862 0
M  V30 7441 C 688.307 3.00829 3.34398 0
M  V30 7442 C 689.626 1.12971 4.25353 0
M  V30 7443 H 686.745 0.32362 0.662148 0
M  V30 7444 H 689.387 1.39513 1.28982 0
M  V30 7445 H 687.537 1.03476 3.74466 0
M  V30 7446 H 689.209 3.52764 2.97247 0
M  V30 7447 H 687.452 3.36164 2.74183 0
M  V30 7448 H 688.123 3.36519 4.3756 0
M  V30 7449 H 690.599 1.50313 3.88001 0
M  V30 7450 H 689.475 1.56223 5.26199 0
M  V30 7451 H 689.736 0.0424452 4.4208 0
M  V30 7452 N 688.795 -1.27931 0.920396 0
M  V30 7453 C 690.042 -1.94689 0.557007 0
M  V30 7454 C 690.37 -1.724 -0.900476 0
M  V30 7455 O 689.625 -1.04194 -1.65657 0
M  V30 7456 C 689.924 -3.47853 0.820558 0
M  V30 7457 C 689.59 -3.90252 2.25863 0
M  V30 7458 C 688.252 -4.01539 2.65179 0
M  V30 7459 C 690.604 -4.11853 3.19415 0
M  V30 7460 C 687.932 -4.3181 3.97187 0
M  V30 7461 C 690.284 -4.43606 4.50995 0
M  V30 7462 C 688.948 -4.53105 4.90155 0
M  V30 7463 H 688.218 -0.712416 0.203823 0
M  V30 7464 H 690.865 -1.52142 1.16298 0
M  V30 7465 H 689.17 -3.91578 0.131844 0
M  V30 7466 H 690.867 -3.97634 0.51847 0
M  V30 7467 H 687.457 -3.81999 1.94358 0
M  V30 7468 H 691.641 -4.0258 2.90246 0
M  V30 7469 H 686.897 -4.37371 4.2722 0
M  V30 7470 H 691.071 -4.59268 5.23494 0
M  V30 7471 H 688.698 -4.76315 5.92476 0
M  V30 7472 N 690.273 -0.685099 -1.4193 0
M  V30 7473 C 691.689 -0.355632 -1.55587 0
M  V30 7474 C 691.889 1.13823 -1.66273 0
M  V30 7475 O 690.945 1.92387 -1.63534 0
M  V30 7476 C 692.258 -1.09498 -2.80055 0
M  V30 7477 C 693.806 -1.07831 -2.93839 0
M  V30 7478 C 694.281 -1.79919 -4.21181 0
M  V30 7479 N 695.772 -1.76837 -4.28115 0
M  V30 7480 C 696.507 -2.29463 -5.25485 0
M  V30 7481 N 696.003 -2.90516 -6.28945 0
M  V30 7482 N 697.796 -2.19779 -5.17353 0
M  V30 7483 H 689.947 -1.65412 -1.33239 0
M  V30 7484 H 692.21 -0.697453 -0.642078 0
M  V30 7485 H 691.916 -2.14997 -2.78333 0
M  V30 7486 H 691.79 -0.666813 -3.71259 0
M  V30 7487 H 694.177 -0.0316152 -2.95083 0
M  V30 7488 H 694.258 -1.54545 -2.03837 0
M  V30 7489 H 693.902 -2.84562 -4.20698 0
M  V30 7490 H 693.832 -1.30647 -5.10136 0
M  V30 7491 H 696.323 -1.32315 -3.53979 0
M  V30 7492 H 696.636 -3.28266 -6.99615 0
M  V30 7493 H 694.981 -2.94589 -6.29478 0
M  V30 7494 H 698.172 -1.71763 -4.35448 0
M  V30 7495 H 698.345 -2.61097 -5.9307 0
M  V30 7496 N 691.751 1.51645 -0.429126 0
M  V30 7497 C 692.997 2.02314 0.140286 0
M  V30 7498 C 693.33 1.31314 1.43074 0
M  V30 7499 O 692.605 0.425531 1.89788 0
M  V30 7500 C 692.888 3.5822 0.36749 0
M  V30 7501 C 692.741 4.39846 -0.941039 0
M  V30 7502 C 694.06 4.25055 1.14089 0
M  V30 7503 H 691.179 0.735335 0.0495112 0
M  V30 7504 H 693.821 1.81358 -0.566514 0
M  V30 7505 H 691.971 3.76207 0.969556 0
M  V30 7506 H 693.643 4.33527 -1.57646 0
M  V30 7507 H 691.886 4.05259 -1.54751 0
M  V30 7508 H 692.557 5.47069 -0.73621 0
M  V30 7509 H 695.033 4.11288 0.630986 0
M  V30 7510 H 693.909 5.34038 1.26863 0
M  V30 7511 H 694.17 3.85358 2.16683 0
M  V30 7512 N 693.229 0.160201 1.56784 0
M  V30 7513 C 694.192 -0.760405 2.16219 0
M  V30 7514 C 695.192 -1.16595 1.10735 0
M  V30 7515 O 696.382 -1.08472 1.36306 0
M  V30 7516 C 693.514 -2.03358 2.73603 0
M  V30 7517 H 694.707 -0.243173 2.98912 0
M  V30 7518 H 692.26 -0.0893139 1.56045 0
M  V30 7519 H 692.995 -2.59416 1.94612 0
M  V30 7520 H 692.78 -1.75186 3.50788 0
M  V30 7521 H 694.27 -2.69081 3.19351 0
M  V30 7522 N 694.707 -1.5719 -0.113559 0
M  V30 7523 C 695.654 -2.00736 -1.13901 0
M  V30 7524 C 696.624 -0.88044 -1.40846 0
M  V30 7525 O 697.809 -1.14507 -1.5262 0
M  V30 7526 C 694.949 -2.42132 -2.45899 0
M  V30 7527 C 694.062 -3.68264 -2.25844 0
M  V30 7528 C 693.197 -3.98617 -3.5111 0
M  V30 7529 C 692.236 -5.17915 -3.26236 0
M  V30 7530 N 691.373 -5.44111 -4.4372 0
M  V30 7531 H 696.213 -2.88128 -0.760677 0
M  V30 7532 H 693.75 -1.42523 -0.364099 0
M  V30 7533 H 695.708 -2.6417 -3.22908 0
M  V30 7534 H 694.338 -1.57775 -2.81615 0
M  V30 7535 H 693.39 -3.53809 -1.39726 0
M  V30 7536 H 694.702 -4.55425 -2.03444 0
M  V30 7537 H 693.856 -4.21333 -4.36536 0
M  V30 7538 H 692.595 -3.09942 -3.76546 0
M  V30 7539 H 691.6 -4.95038 -2.39202 0
M  V30 7540 H 692.825 -6.08172 -3.02165 0
M  V30 7541 H 690.771 -4.58394 -4.69266 0
M  V30 7542 H 690.688 -6.25606 -4.24444 0
M  V30 7543 H 691.956 -5.71351 -5.30263 0
M  V30 7544 N 696.185 0.383891 -1.52853 0
M  V30 7545 C 697.431 1.13009 -1.68395 0
M  V30 7546 C 697.764 1.89488 -0.425195 0
M  V30 7547 O 697.039 1.8574 0.577136 0
M  V30 7548 C 697.322 2.10419 -2.92226 0
M  V30 7549 C 697.175 1.3767 -4.28214 0
M  V30 7550 C 698.494 3.10781 -3.11614 0
M  V30 7551 H 695.613 0.409463 -0.612788 0
M  V30 7552 H 698.255 0.412895 -1.85459 0
M  V30 7553 H 696.405 2.71579 -2.77808 0
M  V30 7554 H 698.077 0.794352 -4.54409 0
M  V30 7555 H 696.32 0.678533 -4.2846 0
M  V30 7556 H 696.991 2.08874 -5.10956 0
M  V30 7557 H 699.467 2.59715 -3.25096 0
M  V30 7558 H 698.343 3.76179 -3.99725 0
M  V30 7559 H 698.604 3.79933 -2.2606 0
M  V30 7560 N 697.663 1.43903 0.642637 0
M  V30 7561 C 698.91 1.46079 1.40239 0
M  V30 7562 C 699.238 0.0890335 1.94296 0
M  V30 7563 O 698.493 -0.907533 1.73385 0
M  V30 7564 C 698.792 2.45907 2.59354 0
M  V30 7565 C 698.458 3.91522 2.23654 0
M  V30 7566 C 697.12 4.31179 2.1363 0
M  V30 7567 C 699.472 4.83242 1.95261 0
M  V30 7568 C 696.8 5.60495 1.73384 0
M  V30 7569 C 699.152 6.12933 1.56511 0
M  V30 7570 C 697.816 6.51556 1.4502 0
M  V30 7571 H 697.086 0.534542 0.513172 0
M  V30 7572 H 699.733 1.77047 0.72984 0
M  V30 7573 H 698.038 2.08381 3.3179 0
M  V30 7574 H 699.735 2.44842 3.17574 0
M  V30 7575 H 696.325 3.60142 2.32369 0
M  V30 7576 H 700.509 4.53367 2.0192 0
M  V30 7577 H 695.765 5.89249 1.63082 0
M  V30 7578 H 699.939 6.83469 1.33576 0
M  V30 7579 H 697.566 7.51663 1.13606 0
M  V30 7580 N 699.141 -0.881989 1.30609 0
M  V30 7581 C 700.104 -1.96957 1.1722 0
M  V30 7582 C 701.104 -1.60472 0.102598 0
M  V30 7583 O 702.294 -1.70628 0.350943 0
M  V30 7584 C 699.426 -3.31463 0.796572 0
M  V30 7585 H 700.619 -2.10262 2.13846 0
M  V30 7586 H 698.172 -1.06877 1.14048 0
M  V30 7587 H 698.907 -3.23859 -0.169053 0
M  V30 7588 H 698.692 -3.59314 1.56959 0
M  V30 7589 H 700.182 -4.11233 0.72645 0
M  V30 7590 N 700.619 -1.13374 -1.09472 0
M  V30 7591 C 701.551 -0.768466 -2.15933 0
M  V30 7592 C 702.564 0.209585 -1.61445 0
M  V30 7593 O 703.753 -0.010539 -1.78497 0
M  V30 7594 C 700.853 -0.118266 -3.38694 0
M  V30 7595 C 700.026 -1.12829 -4.22597 0
M  V30 7596 C 699.085 -0.503875 -5.23782 0
M  V30 7597 O 698.111 -1.16374 -5.57177 0
M  V30 7598 N 699.313 0.724288 -5.75964 0
M  V30 7599 H 702.078 -1.68457 -2.47876 0
M  V30 7600 H 699.639 -1.02668 -1.25183 0
M  V30 7601 H 701.631 0.311698 -4.03498 0
M  V30 7602 H 700.201 0.700769 -3.04644 0
M  V30 7603 H 699.421 -1.73556 -3.53938 0
M  V30 7604 H 700.709 -1.81095 -4.75481 0
M  V30 7605 H 700.107 1.27918 -5.51048 0
M  V30 7606 H 698.664 1.09692 -6.42504 0
M  V30 7607 N 702.098 1.27442 -0.927168 0
M  V30 7608 C 703.509 1.76385 -0.611979 0
M  V30 7609 C 703.86 1.75715 0.872853 0
M  V30 7610 O 702.985 1.3603 1.683 0
M  V30 7611 C 703.58 3.20303 -1.10414 0
M  V30 7612 C 702.139 3.66916 -0.839628 0
M  V30 7613 C 701.286 2.46859 -1.26317 0
M  V30 7614 H 704.237 1.13716 -1.107 0
M  V30 7615 H 704.258 3.77811 -0.451578 0
M  V30 7616 H 703.77 3.20759 -2.18484 0
M  V30 7617 H 701.871 3.71906 0.227292 0
M  V30 7618 H 701.984 4.56415 -1.45679 0
M  V30 7619 H 700.348 2.45407 -0.681723 0
M  V30 7620 H 701.131 2.50025 -2.3525 0
M  V30 7621 N 703.576 0.692616 1.41565 0
M  V30 7622 C 704.524 0.0139952 2.32596 0
M  V30 7623 C 705.518 -0.771691 1.50802 0
M  V30 7624 O 706.724 -0.677646 1.66757 0
M  V30 7625 H 703.099 -0.0142745 0.751865 0
M  V30 7626 H 705.07 0.798851 2.87508 0
M  V30 7627 C 703.819 -0.910602 3.35564 0
M  V30 7628 H 703.142 -0.315446 3.98554 0
M  V30 7629 H 704.582 -1.3538 4.01806 0
M  V30 7630 C 703.041 -2.02539 2.6922 0
M  V30 7631 O 703.571 -3.11386 2.53775 0
M  V30 7632 N 701.777 -1.80227 2.27962 0
M  V30 7633 H 701.324 -0.917054 2.40724 0
M  V30 7634 H 701.282 -2.55001 1.83907 0
M  V30 7635 N 705.054 -1.51416 0.437162 0
M  V30 7636 C 705.984 -2.30631 -0.364922 0
M  V30 7637 C 706.965 -1.36037 -1.02118 0
M  V30 7638 O 708.15 -1.64956 -1.02485 0
M  V30 7639 C 705.28 -3.1482 -1.46648 0
M  V30 7640 C 704.234 -4.17691 -0.933717 0
M  V30 7641 C 703.56 -4.904 -2.13101 0
M  V30 7642 C 704.86 -5.2229 0.0317201 0
M  V30 7643 H 706.554 -2.97932 0.29614 0
M  V30 7644 H 704.1 -1.4328 0.143865 0
M  V30 7645 H 706.053 -3.69017 -2.03481 0
M  V30 7646 H 704.777 -2.4534 -2.15583 0
M  V30 7647 H 703.436 -3.64545 -0.387602 0
M  V30 7648 H 703.084 -4.17423 -2.80654 0
M  V30 7649 H 702.784 -5.59962 -1.78092 0
M  V30 7650 H 704.308 -5.4742 -2.70487 0
M  V30 7651 H 705.722 -5.7156 -0.446302 0
M  V30 7652 H 704.119 -5.99378 0.29437 0
M  V30 7653 H 705.189 -4.75131 0.968447 0
M  V30 7654 N 706.532 -0.168513 -1.56696 0
M  V30 7655 C 707.495 0.748928 -2.16619 0
M  V30 7656 C 708.495 1.16007 -1.11351 0
M  V30 7657 O 709.685 1.07748 -1.3688 0
M  V30 7658 C 706.817 2.01904 -2.74677 0
M  V30 7659 H 708.01 0.227317 -2.99037 0
M  V30 7660 H 705.563 0.0810372 -1.5609 0
M  V30 7661 H 706.298 2.58381 -1.95985 0
M  V30 7662 H 706.083 1.73323 -3.51712 0
M  V30 7663 H 707.573 2.67383 -3.20774 0
M  V30 7664 N 708.01 1.57248 0.105221 0
M  V30 7665 C 708.92 2.04653 1.14693 0
M  V30 7666 C 709.936 0.969488 1.44489 0
M  V30 7667 O 711.112 1.28196 1.55331 0
M  V30 7668 C 708.177 2.45297 2.45011 0
M  V30 7669 C 707.238 3.67148 2.22489 0
M  V30 7670 C 706.471 4.05844 3.46592 0
M  V30 7671 O 706.694 3.44736 4.54437 0
M  V30 7672 O 705.628 4.98862 3.36779 0
M  V30 7673 H 709.454 2.93663 0.774336 0
M  V30 7674 H 707.039 1.45998 0.31701 0
M  V30 7675 H 708.921 2.72112 3.21766 0
M  V30 7676 H 707.596 1.59429 2.81717 0
M  V30 7677 H 706.503 3.45463 1.43547 0
M  V30 7678 H 707.836 4.53764 1.9068 0
M  V30 7679 N 709.488 -0.375779 1.53054 0
M  V30 7680 C 710.421 -1.48187 1.7354 0
M  V30 7681 C 711.399 -1.5177 0.583495 0
M  V30 7682 O 712.583 -1.69976 0.81488 0
M  V30 7683 C 709.71 -2.86598 1.80497 0
M  V30 7684 C 708.756 -3.00784 3.02376 0
M  V30 7685 S 709.589 -2.70601 4.62099 0
M  V30 7686 C 710.745 -4.11181 4.71891 0
M  V30 7687 H 710.978 -1.30587 2.67085 0
M  V30 7688 H 708.511 -0.569485 1.43514 0
M  V30 7689 H 710.469 -3.66353 1.85192 0
M  V30 7690 H 709.13 -3.01514 0.880217 0
M  V30 7691 H 708.323 -4.02128 3.03824 0
M  V30 7692 H 707.925 -2.28939 2.95742 0
M  V30 7693 H 710.217 -5.0529 4.51319 0
M  V30 7694 H 711.16 -4.14742 5.73929 0
M  V30 7695 H 711.568 -3.97706 4.00612 0
M  V30 7696 N 710.966 -1.44241 -0.634997 0
M  V30 7697 C 712.215 -1.46102 -1.39058 0
M  V30 7698 C 712.528 -0.0959909 -1.95364 0
M  V30 7699 O 713.734 0.00788751 -2.71499 0
M  V30 7700 C 712.19 -2.57195 -2.51751 0
M  V30 7701 C 711.798 -3.99888 -2.01974 0
M  V30 7702 C 713.542 -2.68272 -3.28984 0
M  V30 7703 C 711.449 -5.02412 -3.11987 0
M  V30 7704 H 710.379 -0.543556 -0.522554 0
M  V30 7705 H 713.03 -1.70294 -0.683538 0
M  V30 7706 H 711.412 -2.26237 -3.25012 0
M  V30 7707 H 712.586 -4.40396 -1.35604 0
M  V30 7708 H 710.901 -3.93019 -1.37568 0
M  V30 7709 H 713.498 -3.42042 -4.10988 0
M  V30 7710 H 713.841 -1.73957 -3.78212 0
M  V30 7711 H 714.374 -2.98622 -2.62812 0
M  V30 7712 H 711.113 -5.98342 -2.67707 0
M  V30 7713 H 710.633 -4.66501 -3.77011 0
M  V30 7714 H 712.312 -5.25939 -3.76825 0
M  V30 7715 N 712.444 0.87505 -1.31075 0
M  V30 7716 C 713.376 1.98773 -1.14114 0
M  V30 7717 C 714.389 1.62595 -0.0816119 0
M  V30 7718 O 715.578 1.75449 -0.32861 0
M  V30 7719 C 712.678 3.31159 -0.720224 0
M  V30 7720 C 711.851 3.9571 -1.86366 0
M  V30 7721 C 710.91 5.06407 -1.42965 0
M  V30 7722 O 709.936 5.27501 -2.13848 0
M  V30 7723 N 711.138 5.79649 -0.314194 0
M  V30 7724 H 713.903 2.1387 -2.09951 0
M  V30 7725 H 711.464 1.04873 -1.23342 0
M  V30 7726 H 713.456 4.0259 -0.412687 0
M  V30 7727 H 712.026 3.12257 0.146396 0
M  V30 7728 H 711.246 3.17324 -2.33879 0
M  V30 7729 H 712.534 4.35576 -2.62966 0
M  V30 7730 H 711.932 5.65025 0.276228 0
M  V30 7731 H 710.489 6.51766 -0.0661641 0
M  V30 7732 N 713.922 1.13953 1.08869 0
M  V30 7733 C 714.869 0.82213 2.15661 0
M  V30 7734 C 715.839 -0.218274 1.6466 0
M  V30 7735 O 717.024 -0.0892475 1.90591 0
M  V30 7736 C 714.164 0.300572 3.43789 0
M  V30 7737 C 713.277 1.40071 4.08661 0
M  V30 7738 C 712.412 0.836897 5.24566 0
M  V30 7739 C 711.451 1.91504 5.81371 0
M  V30 7740 N 710.588 1.36875 6.88629 0
M  V30 7741 H 715.428 1.73683 2.42153 0
M  V30 7742 H 712.965 0.866879 1.18843 0
M  V30 7743 H 714.923 -0.0199943 4.17195 0
M  V30 7744 H 713.553 -0.577248 3.17597 0
M  V30 7745 H 712.605 1.83776 3.33062 0
M  V30 7746 H 713.917 2.21534 4.46905 0
M  V30 7747 H 713.071 0.467953 6.04893 0
M  V30 7748 H 711.81 -0.00874207 4.87699 0
M  V30 7749 H 710.815 2.29299 4.99702 0
M  V30 7750 H 712.04 2.76419 6.20298 0
M  V30 7751 H 709.986 0.545211 6.5373 0
M  V30 7752 H 709.903 2.1198 7.25672 0
M  V30 7753 H 711.171 1.02756 7.72698 0
M  V30 7754 N 715.4 -1.26948 0.933913 0
M  V30 7755 C 716.648 -1.93704 0.576484 0
M  V30 7756 C 716.969 -1.73702 -0.886145 0
M  V30 7757 O 716.239 -1.08838 -1.62884 0
M  V30 7758 H 714.819 -0.716812 0.210214 0
M  V30 7759 H 717.481 -1.54534 1.18766 0
M  V30 7760 H 716.577 -3.01987 0.788055 0
M  V30 7761 N 716.879 -0.700114 -1.41195 0
M  V30 7762 C 717.789 -0.0382854 -2.34569 0
M  V30 7763 C 718.805 0.761036 -1.56474 0
M  V30 7764 O 719.981 0.697553 -1.88934 0
M  V30 7765 C 717.046 0.883522 -3.35253 0
M  V30 7766 C 716.107 0.0758957 -4.29233 0
M  V30 7767 C 715.34 0.9538 -5.25108 0
M  V30 7768 O 715.563 2.19326 -5.26547 0
M  V30 7769 O 714.497 0.401049 -6.00562 0
M  V30 7770 H 718.323 -0.808073 -2.92752 0
M  V30 7771 H 715.908 -0.460479 -1.42127 0
M  V30 7772 H 717.79 1.41199 -3.9704 0
M  V30 7773 H 716.465 1.63272 -2.79506 0
M  V30 7774 H 715.372 -0.497274 -3.7078 0
M  V30 7775 H 716.705 -0.634741 -4.8809 0
M  V30 7776 N 718.357 1.51182 -0.445186 0
M  V30 7777 C 719.289 2.25714 0.398206 0
M  V30 7778 C 720.302 1.30032 0.979562 0
M  V30 7779 O 721.491 1.55731 0.872368 0
M  V30 7780 C 718.591 3.00348 1.56985 0
M  V30 7781 C 717.764 4.23187 1.10596 0
M  V30 7782 C 716.823 4.80334 2.14863 0
M  V30 7783 O 715.849 5.4196 1.73977 0
M  V30 7784 N 717.051 4.65053 3.47427 0
M  V30 7785 H 719.816 2.98732 -0.240629 0
M  V30 7786 H 717.377 1.59556 -0.274507 0
M  V30 7787 H 719.369 3.35464 2.26376 0
M  V30 7788 H 717.939 2.30291 2.11387 0
M  V30 7789 H 717.159 3.93476 0.238832 0
M  V30 7790 H 718.447 5.02886 0.773537 0
M  V30 7791 H 717.845 4.15984 3.83372 0
M  V30 7792 H 716.402 5.04509 4.12691 0
M  V30 7793 N 719.835 0.176821 1.56605 0
M  V30 7794 C 720.765 -0.746841 2.21234 0
M  V30 7795 C 721.746 -1.23502 1.16967 0
M  V30 7796 O 722.931 -1.28718 1.45414 0
M  V30 7797 C 720.061 -1.97407 2.8574 0
M  V30 7798 C 719.015 -1.62153 3.96094 0
M  V30 7799 C 718.341 -2.92387 4.47676 0
M  V30 7800 C 719.641 -0.845353 5.15413 0
M  V30 7801 H 721.335 -0.208116 2.98676 0
M  V30 7802 H 718.881 -0.0986594 1.43662 0
M  V30 7803 H 720.834 -2.62531 3.2963 0
M  V30 7804 H 719.558 -2.53703 2.05676 0
M  V30 7805 H 718.217 -0.993964 3.52868 0
M  V30 7806 H 717.865 -3.46734 3.64396 0
M  V30 7807 H 717.565 -2.69551 5.22127 0
M  V30 7808 H 719.089 -3.5853 4.94255 0
M  V30 7809 H 720.503 -1.39929 5.55961 0
M  V30 7810 H 718.9 -0.715814 5.95815 0
M  V30 7811 H 719.97 0.157239 4.84645 0
M  V30 7812 N 721.313 -1.57302 -0.09688 0
M  V30 7813 C 722.56 -1.85997 -0.800699 0
M  V30 7814 C 722.888 -0.765089 -1.7882 0
M  V30 7815 O 722.143 0.241492 -1.94204 0
M  V30 7816 C 722.442 -3.21272 -1.56586 0
M  V30 7817 C 722.108 -4.45104 -0.72064 0
M  V30 7818 C 720.77 -4.78723 -0.487632 0
M  V30 7819 C 723.122 -5.2103 -0.132948 0
M  V30 7820 C 720.45 -5.85697 0.34296 0
M  V30 7821 C 722.802 -6.28881 0.684957 0
M  V30 7822 C 721.466 -6.61017 0.928073 0
M  V30 7823 H 720.736 -0.680613 -0.292997 0
M  V30 7824 H 723.383 -1.91399 -0.0622474 0
M  V30 7825 H 721.688 -3.11547 -2.37583 0
M  V30 7826 H 723.385 -3.40702 -2.11478 0
M  V30 7827 H 719.975 -4.18777 -0.912359 0
M  V30 7828 H 724.159 -4.95392 -0.300132 0
M  V30 7829 H 719.415 -6.09008 0.540317 0
M  V30 7830 H 723.589 -6.86886 1.14721 0
M  V30 7831 H 721.216 -7.43738 1.57348 0
M  V30 7832 N 722.791 0.367657 -1.53252 0
M  V30 7833 C 723.721 1.45632 -1.8252 0
M  V30 7834 C 724.702 1.55979 -0.678568 0
M  V30 7835 O 725.887 1.70581 -0.928217 0
M  V30 7836 C 723.017 2.82994 -2.01325 0
M  V30 7837 C 721.971 2.87473 -3.17086 0
M  V30 7838 C 721.297 4.2749 -3.21179 0
M  V30 7839 C 722.597 2.55182 -4.55719 0
M  V30 7840 H 724.291 1.21387 -2.73689 0
M  V30 7841 H 721.837 0.58251 -1.31692 0
M  V30 7842 H 723.79 3.59179 -2.20383 0
M  V30 7843 H 722.514 3.08622 -1.06864 0
M  V30 7844 H 721.173 2.13739 -2.97844 0
M  V30 7845 H 720.821 4.5019 -2.24361 0
M  V30 7846 H 720.521 4.31403 -3.98955 0
M  V30 7847 H 722.045 5.0555 -3.42419 0
M  V30 7848 H 723.459 3.21081 -4.74953 0
M  V30 7849 H 721.856 2.70414 -5.3572 0
M  V30 7850 H 722.926 1.5044 -4.60973 0
M  V30 7851 N 724.269 1.44576 0.627338 0
M  V30 7852 C 725.179 1.54232 1.76776 0
M  V30 7853 C 726.195 0.427782 1.6866 0
M  V30 7854 O 727.371 0.685671 1.89369 0
M  V30 7855 C 724.436 1.48738 3.13174 0
M  V30 7856 C 723.497 2.71074 3.32893 0
M  V30 7857 C 722.73 2.65832 4.62784 0
M  V30 7858 O 722.953 1.72048 5.43834 0
M  V30 7859 O 721.887 3.56742 4.84787 0
M  V30 7860 H 725.713 2.50586 1.71582 0
M  V30 7861 H 723.298 1.26865 0.789028 0
M  V30 7862 H 725.18 1.48211 3.94476 0
M  V30 7863 H 723.855 0.555292 3.18902 0
M  V30 7864 H 722.762 2.77168 2.51254 0
M  V30 7865 H 724.095 3.63342 3.32029 0
M  V30 7866 N 725.747 -0.868086 1.31537 0
M  V30 7867 C 727.158 -1.437 1.19195 0
M  V30 7868 C 727.509 -1.95169 -0.200842 0
M  V30 7869 O 726.634 -1.86432 -1.09872 0
M  V30 7870 C 727.229 -2.612 2.15778 0
M  V30 7871 C 725.788 -3.1413 2.07363 0
M  V30 7872 C 724.935 -1.86845 2.049 0
M  V30 7873 H 727.886 -0.676457 1.43561 0
M  V30 7874 H 727.907 -3.37948 1.74847 0
M  V30 7875 H 727.419 -2.23709 3.17137 0
M  V30 7876 H 725.52 -3.56238 1.09204 0
M  V30 7877 H 725.633 -3.76285 2.96557 0
M  V30 7878 H 723.997 -2.05886 1.49943 0
M  V30 7879 H 724.78 -1.51589 3.08019 0
M  V30 7880 N 727.225 -1.14528 -1.08264 0
M  V30 7881 C 728.135 -0.84728 -2.18765 0
M  V30 7882 C 729.151 0.172826 -1.7314 0
M  V30 7883 O 730.327 0.000985336 -2.014 0
M  V30 7884 C 727.392 -0.330633 -3.4512 0
M  V30 7885 C 726.453 -1.41348 -4.05363 0
M  V30 7886 C 725.686 -0.921387 -5.25686 0
M  V30 7887 O 725.909 0.236587 -5.69909 0
M  V30 7888 O 724.843 -1.70101 -5.77364 0
M  V30 7889 H 728.669 -1.7708 -2.46731 0
M  V30 7890 H 726.254 -0.923661 -1.17426 0
M  V30 7891 H 728.136 -0.0485053 -4.21372 0
M  V30 7892 H 726.811 0.565147 -3.18728 0
M  V30 7893 H 725.718 -1.74908 -3.30693 0
M  V30 7894 H 727.051 -2.28383 -4.36007 0
M  V30 7895 N 728.703 1.26451 -0.940633 0
M  V30 7896 C 729.633 2.28773 -0.467479 0
M  V30 7897 C 730.614 1.63218 0.478955 0
M  V30 7898 O 731.799 1.90427 0.380929 0
M  V30 7899 C 728.929 3.46259 0.268656 0
M  V30 7900 C 727.883 4.23898 -0.591171 0
M  V30 7901 C 727.209 5.33993 0.274891 0
M  V30 7902 C 728.509 4.87974 -1.86223 0
M  V30 7903 H 730.203 2.68601 -1.32265 0
M  V30 7904 H 727.749 1.29123 -0.637436 0
M  V30 7905 H 729.702 4.16951 0.610696 0
M  V30 7906 H 728.426 3.05383 1.15796 0
M  V30 7907 H 727.085 3.54969 -0.916098 0
M  V30 7908 H 726.733 4.89358 1.16353 0
M  V30 7909 H 726.433 5.86849 -0.297006 0
M  V30 7910 H 727.957 6.07523 0.612213 0
M  V30 7911 H 729.371 5.50883 -1.58747 0
M  V30 7912 H 727.768 5.50945 -2.37866 0
M  V30 7913 H 728.838 4.10945 -2.57394 0
M  V30 7914 N 730.181 0.707592 1.40822 0
M  V30 7915 C 731.427 0.244031 2.01326 0
M  V30 7916 C 731.76 -1.15722 1.55955 0
M  V30 7917 O 731.035 -1.78347 0.776044 0
M  V30 7918 C 731.318 0.315128 3.58718 0
M  V30 7919 C 731.171 1.75419 4.14184 0
M  V30 7920 C 732.49 -0.318251 4.38948 0
M  V30 7921 H 729.609 0.0901471 0.731466 0
M  V30 7922 H 732.251 0.898584 1.67408 0
M  V30 7923 H 730.401 -0.242176 3.87744 0
M  V30 7924 H 732.073 2.36626 3.95987 0
M  V30 7925 H 730.316 2.28449 3.68773 0
M  V30 7926 H 730.987 1.75538 5.23345 0
M  V30 7927 H 733.463 0.156514 4.15806 0
M  V30 7928 H 732.339 -0.238019 5.48384 0
M  V30 7929 H 732.6 -1.40067 4.19325 0
M  V30 7930 N 731.66 -1.50943 0.453197 0
M  V30 7931 C 732.909 -2.01402 -0.10951 0
M  V30 7932 C 733.222 -1.3411 -1.42386 0
M  V30 7933 O 734.428 -1.75626 -2.07045 0
M  V30 7934 C 732.884 -3.5906 -0.245693 0
M  V30 7935 C 732.492 -4.353 1.05916 0
M  V30 7936 C 734.236 -4.17617 -0.761318 0
M  V30 7937 C 732.143 -5.84699 0.887752 0
M  V30 7938 H 731.073 -0.752674 -0.0447013 0
M  V30 7939 H 733.724 -1.73913 0.585375 0
M  V30 7940 H 732.106 -3.83062 -1.00395 0
M  V30 7941 H 733.28 -4.23034 1.82698 0
M  V30 7942 H 731.595 -3.88269 1.50452 0
M  V30 7943 H 734.192 -5.26963 -0.906306 0
M  V30 7944 H 734.535 -3.77824 -1.74799 0
M  V30 7945 H 735.068 -3.97753 -0.0609416 0
M  V30 7946 H 731.807 -6.28933 1.84726 0
M  V30 7947 H 731.327 -5.99587 0.160006 0
M  V30 7948 H 733.006 -6.44682 0.547223 0
M  V30 7949 N 733.138 -0.185124 -1.56509 0
M  V30 7950 C 734.549 0.329221 -1.83774 0
M  V30 7951 C 734.9 1.62093 -1.10545 0
M  V30 7952 O 734.025 2.13334 -0.36298 0
M  V30 7953 C 734.62 0.604099 -3.33371 0
M  V30 7954 C 733.179 1.06284 -3.61083 0
M  V30 7955 C 732.326 0.10608 -2.77097 0
M  V30 7956 H 735.277 -0.409116 -1.53336 0
M  V30 7957 H 735.298 1.45458 -3.51599 0
M  V30 7958 H 734.81 -0.336201 -3.86641 0
M  V30 7959 H 732.911 2.01777 -3.13236 0
M  V30 7960 H 733.024 0.962453 -4.69333 0
M  V30 7961 H 731.388 0.606082 -2.47384 0
M  V30 7962 H 732.171 -0.828486 -3.33153 0
M  V30 7963 N 734.616 1.57351 0.0885366 0
M  V30 7964 C 735.566 1.98963 1.11346 0
M  V30 7965 C 736.55 0.869065 1.35411 0
M  V30 7966 O 737.742 1.13292 1.35992 0
M  V30 7967 C 734.871 2.4231 2.43189 0
M  V30 7968 C 733.957 3.61065 2.22469 0
M  V30 7969 N 734.348 4.75789 1.71635 0
M  V30 7970 C 732.646 3.6729 2.5301 0
M  V30 7971 C 733.347 5.57708 1.65339 0
M  V30 7972 N 732.323 5.01067 2.1079 0
M  V30 7973 H 736.125 2.85109 0.713465 0
M  V30 7974 H 733.639 1.59682 0.295868 0
M  V30 7975 H 735.636 2.70352 3.17357 0
M  V30 7976 H 734.296 1.57544 2.83919 0
M  V30 7977 H 735.307 4.98411 1.40738 0
M  V30 7978 H 731.984 2.932 2.9722 0
M  V30 7979 H 733.374 6.59782 1.27031 0
M  V30 7980 N 736.094 -0.359525 1.53444 0
M  V30 7981 C 737.51 -0.701599 1.43352 0
M  V30 7982 C 737.71 -1.93049 0.577439 0
M  V30 7983 O 736.766 -2.52423 0.0622224 0
M  V30 7984 C 738.079 -0.90915 2.86627 0
M  V30 7985 C 739.627 -1.00878 2.96298 0
M  V30 7986 C 740.102 -1.24876 4.40647 0
M  V30 7987 N 741.593 -1.31632 4.44103 0
M  V30 7988 C 742.328 -1.51922 5.52908 0
M  V30 7989 N 741.824 -1.69489 6.71748 0
M  V30 7990 N 743.617 -1.54341 5.40496 0
M  V30 7991 H 735.768 0.448685 2.07607 0
M  V30 7992 H 738.031 0.138713 0.937797 0
M  V30 7993 H 737.737 -0.0778997 3.51614 0
M  V30 7994 H 737.611 -1.81551 3.30634 0
M  V30 7995 H 739.998 -1.83057 2.31461 0
M  V30 7996 H 740.079 -0.0796721 2.55676 0
M  V30 7997 H 739.723 -0.431961 5.0606 0
M  V30 7998 H 739.653 -2.19118 4.78848 0
M  V30 7999 H 742.144 -1.19646 3.5846 0
M  V30 8000 H 742.457 -1.84561 7.50438 0
M  V30 8001 H 740.802 -1.66655 6.74723 0
M  V30 8002 H 743.993 -1.40188 4.46615 0
M  V30 8003 H 744.166 -1.69812 6.25354 0
M  V30 8004 N 737.572 -1.44907 -0.619662 0
M  V30 8005 C 738.504 -1.48652 -1.74457 0
M  V30 8006 C 739.517 -0.378596 -1.58337 0
M  V30 8007 O 740.706 -0.644987 -1.6644 0
M  V30 8008 C 737.806 -1.31568 -3.12319 0
M  V30 8009 C 736.979 -2.55816 -3.54792 0
M  V30 8010 C 736.038 -2.33465 -4.71573 0
M  V30 8011 O 735.064 -3.07015 -4.79302 0
M  V30 8012 N 736.266 -1.37254 -5.6404 0
M  V30 8013 H 739.031 -2.45632 -1.71712 0
M  V30 8014 H 736.592 -1.40492 -0.804582 0
M  V30 8015 H 738.584 -1.14445 -3.88181 0
M  V30 8016 H 737.154 -0.429095 -3.09641 0
M  V30 8017 H 736.374 -2.88137 -2.69018 0
M  V30 8018 H 737.662 -3.38431 -3.79924 0
M  V30 8019 H 737.06 -0.765309 -5.60499 0
M  V30 8020 H 735.617 -1.26106 -6.39485 0
M  V30 8021 N 739.05 0.861098 -1.31996 0
M  V30 8022 C 740 1.95703 -1.1698 0
M  V30 8023 C 740.984 1.60709 -0.0784201 0
M  V30 8024 O 742.176 1.74365 -0.304262 0
M  V30 8025 C 739.305 3.31606 -0.888388 0
M  V30 8026 C 738.391 3.7284 -2.02117 0
M  V30 8027 N 738.782 3.85957 -3.26911 0
M  V30 8028 C 737.08 4.02419 -1.92289 0
M  V30 8029 C 737.781 4.21333 -4.01065 0
M  V30 8030 N 736.757 4.32502 -3.29307 0
M  V30 8031 H 740.559 2.03968 -2.11599 0
M  V30 8032 H 738.073 1.05245 -1.23682 0
M  V30 8033 H 740.07 4.09881 -0.761782 0
M  V30 8034 H 738.73 3.24662 0.0494898 0
M  V30 8035 H 739.741 3.70449 -3.61923 0
M  V30 8036 H 736.418 4.03814 -1.06022 0
M  V30 8037 H 737.808 4.39005 -5.08649 0
M  V30 8038 N 740.528 1.15101 1.07655 0
M  V30 8039 C 741.944 0.893004 1.32279 0
M  V30 8040 C 742.144 -0.461701 1.96139 0
M  V30 8041 O 741.2 -1.20431 2.21929 0
M  V30 8042 C 742.513 2.03161 2.21689 0
M  V30 8043 C 744.061 2.06579 2.35147 0
M  V30 8044 C 744.536 3.19754 3.27905 0
M  V30 8045 N 746.027 3.19382 3.35484 0
M  V30 8046 C 746.762 4.03592 4.07309 0
M  V30 8047 N 746.258 4.97859 4.81776 0
M  V30 8048 N 748.051 3.91626 4.03219 0
M  V30 8049 H 740.202 2.02341 0.645886 0
M  V30 8050 H 742.465 0.882127 0.347211 0
M  V30 8051 H 742.171 3.00934 1.82021 0
M  V30 8052 H 742.045 1.96132 3.22199 0
M  V30 8053 H 744.432 1.09408 2.74069 0
M  V30 8054 H 744.513 2.17676 1.34353 0
M  V30 8055 H 744.157 4.17175 2.89702 0
M  V30 8056 H 744.087 3.05893 4.28645 0
M  V30 8057 H 746.578 2.51112 2.82403 0
M  V30 8058 H 746.891 5.58563 5.34067 0
M  V30 8059 H 745.236 5.0185 4.80803 0
M  V30 8060 H 748.427 3.17295 3.44154 0
M  V30 8061 H 748.6 4.57479 4.5893 0
M  V30 8062 N 742.006 -1.2595 0.947325 0
M  V30 8063 C 742.936 -2.28521 0.479604 0
M  V30 8064 C 743.917 -1.63469 -0.470293 0
M  V30 8065 O 745.102 -1.90627 -0.370824 0
M  V30 8066 C 742.232 -3.46397 -0.250289 0
M  V30 8067 C 741.186 -4.23578 0.613643 0
M  V30 8068 C 740.512 -5.34131 -0.246568 0
M  V30 8069 C 741.812 -4.86979 1.88809 0
M  V30 8070 H 743.506 -2.67895 1.33688 0
M  V30 8071 H 741.052 -1.28783 0.644274 0
M  V30 8072 H 743.005 -4.17269 -0.588576 0
M  V30 8073 H 741.729 -3.05993 -1.14175 0
M  V30 8074 H 740.388 -3.54478 0.93491 0
M  V30 8075 H 740.036 -4.89968 -1.13756 0
M  V30 8076 H 739.736 -5.86683 0.328123 0
M  V30 8077 H 741.26 -6.07839 -0.579986 0
M  V30 8078 H 742.674 -5.50034 1.61666 0
M  V30 8079 H 741.071 -5.49675 2.40784 0
M  V30 8080 H 742.141 -4.09575 2.5957 0
M  V30 8081 N 743.484 -0.715051 -1.40445 0
M  V30 8082 C 744.731 -0.254328 -2.00897 0
M  V30 8083 C 745.059 1.15228 -1.56693 0
M  V30 8084 O 744.314 1.7958 -0.777786 0
M  V30 8085 C 744.613 -0.281791 -3.56287 0
M  V30 8086 C 744.279 -1.63862 -4.20071 0
M  V30 8087 C 742.941 -2.01003 -4.37208 0
M  V30 8088 C 745.293 -2.53039 -4.55654 0
M  V30 8089 C 742.621 -3.26869 -4.8721 0
M  V30 8090 C 744.973 -3.78256 -5.07055 0
M  V30 8091 C 743.637 -4.15515 -5.22401 0
M  V30 8092 H 742.907 -0.0930652 -0.735133 0
M  V30 8093 H 745.554 -0.917977 -1.68064 0
M  V30 8094 H 743.859 0.465428 -3.89026 0
M  V30 8095 H 745.556 0.0925158 -4.00893 0
M  V30 8096 H 742.146 -1.33979 -4.07121 0
M  V30 8097 H 746.33 -2.2562 -4.42051 0
M  V30 8098 H 741.586 -3.55706 -4.97276 0
M  V30 8099 H 745.76 -4.47528 -5.33565 0
M  V30 8100 H 743.387 -5.13114 -5.60909 0
M  V30 8101 N 744.962 1.50701 -0.461195 0
M  V30 8102 C 746.19 2.06681 0.0951756 0
M  V30 8103 C 746.605 1.32615 1.34382 0
M  V30 8104 O 745.962 0.392531 1.78229 0
M  V30 8105 C 746.013 3.59354 0.393316 0
M  V30 8106 O 745.734 4.30626 -0.805797 0
M  V30 8107 C 747.235 4.31926 0.997744 0
M  V30 8108 H 744.455 0.670995 -0.00267259 0
M  V30 8109 H 746.999 1.93991 -0.647137 0
M  V30 8110 H 745.154 3.7188 1.08555 0
M  V30 8111 H 745.568 5.21667 -0.544409 0
M  V30 8112 H 747.042 5.39756 1.15619 0
M  V30 8113 H 747.519 3.91772 1.98523 0
M  V30 8114 H 748.125 4.23905 0.344188 0
M  V30 8115 N 746.441 0.193421 1.56409 0
M  V30 8116 C 747.404 -0.714371 2.17783 0
M  V30 8117 C 748.404 -1.1422 1.13183 0
M  V30 8118 O 749.594 -1.05557 1.38576 0
M  V30 8119 C 746.726 -1.97509 2.77855 0
M  V30 8120 H 747.919 -0.179714 2.99361 0
M  V30 8121 H 745.472 -0.0561944 1.56199 0
M  V30 8122 H 746.207 -2.5523 2.0007 0
M  V30 8123 H 745.992 -1.67706 3.54425 0
M  V30 8124 H 747.482 -2.62246 3.24987 0
M  V30 8125 N 747.919 -1.57396 -0.0801906 0
M  V30 8126 C 749.33 -1.75642 -0.633002 0
M  V30 8127 C 749.681 -0.817708 -1.78348 0
M  V30 8128 O 748.806 0.000233743 -2.164 0
M  V30 8129 C 749.401 -3.18502 -1.15507 0
M  V30 8130 C 747.96 -3.38121 -1.65381 0
M  V30 8131 C 747.107 -2.71386 -0.569661 0
M  V30 8132 H 750.058 -1.58027 0.145949 0
M  V30 8133 H 750.079 -3.22198 -2.02408 0
M  V30 8134 H 749.591 -3.86799 -0.317515 0
M  V30 8135 H 747.692 -2.74926 -2.51488 0
M  V30 8136 H 747.805 -4.46521 -1.73654 0
M  V30 8137 H 746.169 -2.33702 -1.0127 0
M  V30 8138 H 746.952 -3.42332 0.257561 0
M  V30 8139 N 749.397 0.351382 -1.53633 0
M  V30 8140 C 750.625 1.11275 -1.74429 0
M  V30 8141 C 751.04 1.82602 -0.479798 0
M  V30 8142 O 750.397 1.74074 0.548125 0
M  V30 8143 C 750.448 2.13223 -2.91921 0
M  V30 8144 O 750.169 1.44798 -4.13479 0
M  V30 8145 C 751.67 3.01797 -3.24706 0
M  V30 8146 H 748.89 0.332153 -0.583023 0
M  V30 8147 H 751.434 0.405974 -2.0043 0
M  V30 8148 H 749.589 2.79477 -2.68274 0
M  V30 8149 H 750.003 2.12839 -4.79374 0
M  V30 8150 H 751.477 3.69282 -4.10286 0
M  V30 8151 H 751.954 3.67387 -2.40673 0
M  V30 8152 H 752.56 2.41141 -3.5033 0
M  V30 8153 N 750.875 1.45233 0.611969 0
M  V30 8154 C 752.122 1.49021 1.37109 0
M  V30 8155 C 752.45 0.130227 1.94064 0
M  V30 8156 O 751.705 -0.870551 1.75271 0
M  V30 8157 C 752.004 2.51353 2.54079 0
M  V30 8158 C 751.67 3.96178 2.15299 0
M  V30 8159 C 750.332 4.35614 2.04436 0
M  V30 8160 C 752.684 4.87275 1.84966 0
M  V30 8161 C 750.012 5.64047 1.61456 0
M  V30 8162 C 752.364 6.16115 1.43474 0
M  V30 8163 C 751.028 6.54486 1.31167 0
M  V30 8164 H 750.298 0.545307 0.501719 0
M  V30 8165 H 752.945 1.78555 0.692122 0
M  V30 8166 H 751.25 2.15372 3.27295 0
M  V30 8167 H 752.947 2.51523 3.12309 0
M  V30 8168 H 749.537 3.6499 2.24678 0
M  V30 8169 H 753.721 4.57548 1.92258 0
M  V30 8170 H 748.977 5.92575 1.50547 0
M  V30 8171 H 753.151 6.86149 1.19048 0
M  V30 8172 H 750.778 7.53904 0.97637 0
M  V30 8173 N 752.353 -0.854086 1.3245 0
M  V30 8174 C 753.581 -1.64074 1.26045 0
M  V30 8175 C 753.996 -1.8802 -0.171456 0
M  V30 8176 O 753.353 -1.4496 -1.10873 0
M  V30 8177 C 753.404 -2.9997 2.01743 0
M  V30 8178 O 753.125 -2.77084 3.39346 0
M  V30 8179 C 754.626 -3.94414 2.02368 0
M  V30 8180 H 751.846 -0.511015 0.434862 0
M  V30 8181 H 754.39 -1.06494 1.74583 0
M  V30 8182 H 752.545 -3.54193 1.56926 0
M  V30 8183 H 752.959 -3.63514 3.78098 0
M  V30 8184 H 754.433 -4.87032 2.59815 0
M  V30 8185 H 754.91 -4.27427 1.01009 0
M  V30 8186 H 755.516 -3.46127 2.47135 0
M  V30 8187 N 753.831 -1.1567 -1.07043 0
M  V30 8188 C 755.079 -0.931673 -1.79344 0
M  V30 8189 C 755.4 0.542421 -1.87304 0
M  V30 8190 O 754.67 1.39418 -1.37621 0
M  V30 8191 H 753.25 -0.34171 -0.664262 0
M  V30 8192 H 755.912 -1.45795 -1.29344 0
M  V30 8193 H 755.008 -1.34379 -2.81689 0
M  V30 8194 N 755.309 1.25446 -0.953992 0
M  V30 8195 C 756.534 1.97755 -0.625129 0
M  V30 8196 C 756.959 1.70437 0.795787 0
M  V30 8197 O 756.317 0.95992 1.53803 0
M  V30 8198 C 756.365 3.49463 -0.889251 0
M  V30 8199 O 755.469 4.12387 0.0322757 0
M  V30 8200 H 754.81 0.61998 -0.237742 0
M  V30 8201 H 757.34 1.59582 -1.28041 0
M  V30 8202 H 757.35 3.99772 -0.815263 0
M  V30 8203 H 756.025 3.68676 -1.92487 0
M  V30 8204 H 754.602 3.72782 -0.0938625 0
M  V30 8205 N 756.787 0.722489 1.40064 0
M  V30 8206 C 758.034 0.264979 2.00759 0
M  V30 8207 C 758.362 -1.14395 1.57302 0
M  V30 8208 O 757.617 -1.79165 0.787298 0
M  V30 8209 C 757.916 0.300682 3.56133 0
M  V30 8210 C 757.582 1.66087 4.19197 0
M  V30 8211 C 756.244 2.03319 4.36136 0
M  V30 8212 C 758.596 2.55452 4.54306 0
M  V30 8213 C 755.924 3.29448 4.8547 0
M  V30 8214 C 758.276 3.8094 5.05042 0
M  V30 8215 C 756.94 4.1828 5.2019 0
M  V30 8216 H 756.21 0.0969625 0.734629 0
M  V30 8217 H 758.857 0.926877 1.67575 0
M  V30 8218 H 757.162 -0.44479 3.89267 0
M  V30 8219 H 758.859 -0.0712542 4.00937 0
M  V30 8220 H 755.449 1.36137 4.06405 0
M  V30 8221 H 759.633 2.27961 4.40849 0
M  V30 8222 H 754.889 3.58338 4.95382 0
M  V30 8223 H 759.063 4.50351 5.31184 0
M  V30 8224 H 756.69 5.16081 5.58179 0
M  V30 8225 N 758.265 -1.50454 0.469181 0
M  V30 8226 C 759.195 -2.31353 -0.31592 0
M  V30 8227 C 760.176 -1.38172 -0.992094 0
M  V30 8228 O 761.361 -1.67093 -0.989633 0
M  V30 8229 C 758.491 -3.1786 -1.39937 0
M  V30 8230 C 757.445 -4.19578 -0.844909 0
M  V30 8231 C 756.771 -4.9481 -2.0265 0
M  V30 8232 C 758.071 -5.22106 0.142499 0
M  V30 8233 H 759.765 -2.97237 0.359269 0
M  V30 8234 H 757.311 -1.42942 0.174224 0
M  V30 8235 H 759.264 -3.7325 -1.95607 0
M  V30 8236 H 757.988 -2.49858 -2.1033 0
M  V30 8237 H 756.647 -3.65285 -0.310189 0
M  V30 8238 H 756.295 -4.23282 -2.71737 0
M  V30 8239 H 755.995 -5.63613 -1.66174 0
M  V30 8240 H 757.519 -5.53035 -2.58815 0
M  V30 8241 H 758.933 -5.72378 -0.324966 0
M  V30 8242 H 757.33 -5.98618 0.421441 0
M  V30 8243 H 758.4 -4.7297 1.06901 0
M  V30 8244 N 759.743 -0.201713 -1.56304 0
M  V30 8245 C 760.968 0.443815 -2.02596 0
M  V30 8246 C 761.393 1.53945 -1.08086 0
M  V30 8247 O 760.751 1.81182 -0.0655056 0
M  V30 8248 C 760.799 0.971066 -3.47279 0
M  V30 8249 O 759.903 2.0836 -3.55893 0
M  V30 8250 H 759.244 0.10294 -0.655972 0
M  V30 8251 H 761.774 -0.314533 -2.02168 0
M  V30 8252 H 761.784 1.28598 -3.87204 0
M  V30 8253 H 760.459 0.169048 -4.15556 0
M  V30 8254 H 759.036 1.77683 -3.27846 0
M  V30 8255 N 761.222 1.57436 0.0718424 0
M  V30 8256 C 762.633 1.75975 0.623678 0
M  V30 8257 C 762.984 0.827155 1.77912 0
M  V30 8258 O 762.109 0.0112425 2.16397 0
M  V30 8259 C 762.704 3.1911 1.13816 0
M  V30 8260 C 761.263 3.38994 1.63586 0
M  V30 8261 C 760.41 2.71684 0.555261 0
M  V30 8262 H 763.361 1.57948 -0.154328 0
M  V30 8263 H 763.382 3.23267 2.00696 0
M  V30 8264 H 762.894 3.86962 0.296998 0
M  V30 8265 H 760.995 2.76256 2.50027 0
M  V30 8266 H 761.108 4.47436 1.71283 0
M  V30 8267 H 759.472 2.34236 1.00029 0
M  V30 8268 H 760.255 3.42191 -0.275712 0
M  V30 8269 N 762.7 -0.34323 1.53817 0
M  V30 8270 C 763.946 -1.08137 1.72273 0
M  V30 8271 C 764.301 -1.86311 0.480201 0
M  V30 8272 O 763.594 -1.84204 -0.527192 0
M  V30 8273 C 763.788 -2.05195 2.92626 0
M  V30 8274 C 763.617 -1.36561 4.28464 0
M  V30 8275 C 762.387 -1.11033 4.9295 0
M  V30 8276 C 764.585 -0.791663 5.0817 0
M  V30 8277 N 762.567 -0.389839 6.12661 0
M  V30 8278 C 763.938 -0.201742 6.19672 0
M  V30 8279 C 765.993 -0.692541 4.9306 0
M  V30 8280 C 764.696 0.477661 7.17712 0
M  V30 8281 C 766.722 -0.0268775 5.91394 0
M  V30 8282 C 766.084 0.552072 7.02233 0
M  V30 8283 H 762.183 -0.380078 0.683421 0
M  V30 8284 H 764.767 -0.364925 1.9125 0
M  V30 8285 H 762.938 -2.74131 2.75149 0
M  V30 8286 H 764.67 -2.7185 2.99799 0
M  V30 8287 H 761.425 -1.39752 4.52511 0
M  V30 8288 H 761.849 -0.0443076 6.76986 0
M  V30 8289 H 766.491 -1.12589 4.07534 0
M  V30 8290 H 764.209 0.922895 8.02813 0
M  V30 8291 H 767.795 0.0491921 5.81779 0
M  V30 8292 H 766.675 1.05899 7.77017 0
M  V30 8293 N 764.178 -1.45556 -0.604258 0
M  V30 8294 C 765.589 -1.44171 -1.18624 0
M  V30 8295 C 765.94 -0.171081 -1.95453 0
M  V30 8296 O 765.065 0.727156 -2.03817 0
M  V30 8297 C 765.66 -2.61193 -2.15786 0
M  V30 8298 C 764.219 -2.62918 -2.69353 0
M  V30 8299 C 763.366 -2.36479 -1.4482 0
M  V30 8300 H 766.317 -1.53747 -0.393381 0
M  V30 8301 H 766.338 -2.35481 -2.98879 0
M  V30 8302 H 765.85 -3.53656 -1.59841 0
M  V30 8303 H 763.951 -1.7447 -3.29228 0
M  V30 8304 H 764.064 -3.6224 -3.13559 0
M  V30 8305 H 762.428 -1.86103 -1.73891 0
M  V30 8306 H 763.211 -3.31091 -0.907376 0
M  V30 8307 N 765.656 0.84705 -1.32902 0
M  V30 8308 C 767.067 1.41785 -1.21466 0
M  V30 8309 C 767.418 1.95464 0.169767 0
M  V30 8310 O 766.543 1.88157 1.06892 0
M  V30 8311 C 767.138 2.57734 -2.19906 0
M  V30 8312 C 765.697 3.10791 -2.12334 0
M  V30 8313 C 764.844 1.83562 -2.07847 0
M  V30 8314 H 767.795 0.653532 -1.44619 0
M  V30 8315 H 767.816 3.35123 -1.80202 0
M  V30 8316 H 767.328 2.18635 -3.20656 0
M  V30 8317 H 765.429 3.54455 -1.14858 0
M  V30 8318 H 765.542 3.71519 -3.02506 0
M  V30 8319 H 763.906 2.03475 -1.53199 0
M  V30 8320 H 764.689 1.4667 -3.10392 0
M  V30 8321 N 767.134 1.16236 1.06428 0
M  V30 8322 C 768.097 0.870163 2.1204 0
M  V30 8323 C 769.097 -0.134239 1.60239 0
M  V30 8324 O 770.287 0.0964932 1.73933 0
M  V30 8325 C 767.419 0.301033 3.39568 0
M  V30 8326 H 768.612 1.8064 2.39394 0
M  V30 8327 H 766.165 0.971116 1.2247 0
M  V30 8328 H 766.9 -0.642948 3.17863 0
M  V30 8329 H 766.685 1.02475 3.78472 0
M  V30 8330 H 768.175 0.114494 4.17443 0
M  V30 8331 N 768.612 -1.24939 0.960631 0
M  V30 8332 C 769.858 -1.93104 0.61958 0
M  V30 8333 C 770.191 -1.74991 -0.84212 0
M  V30 8334 O 769.466 -1.09867 -1.60498 0
M  V30 8335 C 769.749 -3.46326 0.986422 0
M  V30 8336 C 769.602 -3.73638 2.50429 0
M  V30 8337 C 770.921 -4.37067 0.515827 0
M  V30 8338 H 768.04 -0.701311 0.226566 0
M  V30 8339 H 770.682 -1.47442 1.19836 0
M  V30 8340 H 768.832 -3.85348 0.493907 0
M  V30 8341 H 770.504 -3.44217 3.07103 0
M  V30 8342 H 768.747 -3.19035 2.93937 0
M  V30 8343 H 769.418 -4.80815 2.71147 0
M  V30 8344 H 771.894 -4.05381 0.938389 0
M  V30 8345 H 770.77 -5.43022 0.80114 0
M  V30 8346 H 771.031 -4.38224 -0.584171 0
M  V30 8347 N 770.09 -0.729906 -1.39679 0
M  V30 8348 C 771.318 -0.285709 -2.04918 0
M  V30 8349 C 771.733 1.07765 -1.55023 0
M  V30 8350 O 771.09 1.67999 -0.712923 0
M  V30 8351 C 771.141 -0.272793 -3.60469 0
M  V30 8352 O 770.862 -1.58233 -4.08527 0
M  V30 8353 C 772.363 0.188199 -4.429 0
M  V30 8354 H 769.583 -0.125758 -0.65911 0
M  V30 8355 H 772.127 -0.992129 -1.78821 0
M  V30 8356 H 770.282 0.384699 -3.85485 0
M  V30 8357 H 770.696 -1.49245 -5.02818 0
M  V30 8358 H 772.17 0.14608 -5.51807 0
M  V30 8359 H 772.647 1.2326 -4.21549 0
M  V30 8360 H 773.253 -0.439541 -4.23023 0
M  V30 8361 N 771.568 1.50203 -0.477153 0
M  V30 8362 C 772.845 1.95115 0.137609 0
M  V30 8363 C 773.225 1.41778 1.56404 0
M  V30 8364 O 772.573 0.621333 2.1989 0
M  V30 8365 C 772.783 3.4892 0.0747168 0
M  V30 8366 C 774.131 4.238 0.260585 0
M  V30 8367 O 775.155 3.5588 0.151021 0
M  V30 8368 O 774.014 5.44366 0.482534 0
M  V30 8369 H 771.108 0.81987 0.108364 0
M  V30 8370 H 773.654 1.60946 -0.537989 0
M  V30 8371 H 772.426 3.80308 -0.920966 0
M  V30 8372 H 772.049 3.89642 0.791509 0
M  V30 8373 N 773.046 0.209999 1.56195 0
M  V30 8374 C 774.009 -0.691232 2.18528 0
M  V30 8375 C 775.009 -1.13013 1.14388 0
M  V30 8376 O 776.199 -1.04081 1.39688 0
M  V30 8377 C 773.331 -1.94551 2.79934 0
M  V30 8378 H 774.524 -0.147953 2.99535 0
M  V30 8379 H 772.077 -0.0396243 1.5625 0
M  V30 8380 H 772.812 -2.53094 2.02766 0
M  V30 8381 H 772.597 -1.63938 3.56184 0
M  V30 8382 H 774.087 -2.58785 3.2775 0
M  V30 8383 N 774.524 -1.57472 -0.0634922 0
M  V30 8384 C 775.749 -1.92273 -0.77756 0
M  V30 8385 C 776.174 -0.807141 -1.69902 0
M  V30 8386 O 775.532 0.239523 -1.79711 0
M  V30 8387 C 775.58 -3.26054 -1.54017 0
M  V30 8388 O 774.684 -3.15873 -2.65138 0
M  V30 8389 H 774.025 -0.629389 -0.211579 0
M  V30 8390 H 776.555 -2.04579 -0.0292523 0
M  V30 8391 H 776.565 -3.60127 -1.91763 0
M  V30 8392 H 775.24 -4.06824 -0.864128 0
M  V30 8393 H 773.817 -2.93373 -2.30189 0
M  V30 8394 N 776.003 0.335068 -1.53997 0
M  V30 8395 C 777.25 1.07435 -1.71651 0
M  V30 8396 C 777.578 1.88378 -0.48413 0
M  V30 8397 O 776.833 1.8827 0.534139 0
M  V30 8398 C 777.132 2.0364 -2.9371 0
M  V30 8399 C 776.798 1.38942 -4.28959 0
M  V30 8400 C 775.46 1.21027 -4.65732 0
M  V30 8401 C 777.812 0.924083 -5.12943 0
M  V30 8402 C 775.14 0.552097 -5.84097 0
M  V30 8403 C 777.492 0.27978 -6.31981 0
M  V30 8404 C 776.156 0.0883843 -6.67441 0
M  V30 8405 H 775.426 0.393133 -0.628114 0
M  V30 8406 H 778.073 0.352712 -1.88224 0
M  V30 8407 H 776.378 2.82215 -2.71775 0
M  V30 8408 H 778.075 2.6085 -3.04562 0
M  V30 8409 H 774.665 1.53885 -4.00022 0
M  V30 8410 H 778.849 1.05032 -4.85059 0
M  V30 8411 H 774.105 0.392502 -6.10139 0
M  V30 8412 H 778.279 -0.0888479 -6.96343 0
M  V30 8413 H 775.906 -0.423657 -7.59019 0
M  V30 8414 N 777.481 1.45874 0.596531 0
M  V30 8415 C 778.428 1.55389 1.70655 0
M  V30 8416 C 779.398 0.399036 1.61236 0
M  V30 8417 O 780.583 0.61396 1.80652 0
M  V30 8418 C 777.723 1.53705 3.0898 0
M  V30 8419 C 776.836 2.79823 3.29125 0
M  V30 8420 C 775.971 2.69735 4.5762 0
M  V30 8421 C 775.01 3.90856 4.71061 0
M  V30 8422 N 774.147 3.79237 5.90867 0
M  V30 8423 H 778.987 2.50211 1.61859 0
M  V30 8424 H 776.524 1.24146 0.789069 0
M  V30 8425 H 778.482 1.50715 3.89026 0
M  V30 8426 H 777.112 0.624247 3.16706 0
M  V30 8427 H 776.164 2.92852 2.42779 0
M  V30 8428 H 777.476 3.69628 3.34927 0
M  V30 8429 H 776.63 2.64773 5.45875 0
M  V30 8430 H 775.369 1.77547 4.54234 0
M  V30 8431 H 774.374 3.96164 3.81227 0
M  V30 8432 H 775.599 4.84124 4.76236 0
M  V30 8433 H 773.545 2.89825 5.88504 0
M  V30 8434 H 773.462 4.62686 5.97877 0
M  V30 8435 H 774.73 3.78227 6.8159 0
M  V30 8436 N 778.959 -0.83999 1.33349 0
M  V30 8437 C 780.205 -1.59753 1.24927 0
M  V30 8438 C 780.538 -1.93318 -0.184855 0
M  V30 8439 O 779.813 -1.586 -1.12589 0
M  V30 8440 C 780.096 -2.90829 2.12345 0
M  V30 8441 C 779.949 -2.63953 3.6421 0
M  V30 8442 C 781.268 -3.92246 1.99577 0
M  V30 8443 H 778.387 -0.579654 0.45516 0
M  V30 8444 H 781.029 -0.968909 1.63439 0
M  V30 8445 H 779.179 -3.44478 1.79631 0
M  V30 8446 H 780.851 -2.16745 4.07209 0
M  V30 8447 H 779.094 -1.97671 3.86146 0
M  V30 8448 H 779.765 -3.57348 4.20721 0
M  V30 8449 H 782.241 -3.479 2.28265 0
M  V30 8450 H 781.117 -4.81793 2.62996 0
M  V30 8451 H 781.378 -4.3138 0.967673 0
M  V30 8452 N 780.437 -1.16799 -1.0581 0
M  V30 8453 C 781.384 -0.87902 -2.13405 0
M  V30 8454 C 782.354 0.174541 -1.6518 0
M  V30 8455 O 783.539 0.0386843 -1.90761 0
M  V30 8456 C 780.679 -0.391616 -3.42871 0
M  V30 8457 C 779.792 -1.50857 -4.04804 0
M  V30 8458 C 778.927 -0.975682 -5.22163 0
M  V30 8459 C 777.966 -2.06851 -5.76089 0
M  V30 8460 N 777.103 -1.55085 -6.84758 0
M  V30 8461 H 781.943 -1.80043 -2.37463 0
M  V30 8462 H 779.48 -0.898083 -1.16503 0
M  V30 8463 H 781.438 -0.0906247 -4.17102 0
M  V30 8464 H 780.068 0.49284 -3.19016 0
M  V30 8465 H 779.12 -1.92542 -3.28073 0
M  V30 8466 H 780.432 -2.33305 -4.40874 0
M  V30 8467 H 779.586 -0.628165 -6.03439 0
M  V30 8468 H 778.325 -0.120566 -4.87551 0
M  V30 8469 H 777.33 -2.42467 -4.93447 0
M  V30 8470 H 778.555 -2.92768 -6.12751 0
M  V30 8471 H 776.501 -0.718345 -6.52055 0
M  V30 8472 H 776.418 -2.31145 -7.19797 0
M  V30 8473 H 777.686 -1.23206 -7.69702 0
M  V30 8474 N 781.915 1.24427 -0.967243 0
M  V30 8475 C 783.14 1.9708 -0.646069 0
M  V30 8476 C 783.565 1.71272 0.777665 0
M  V30 8477 O 782.923 0.976179 1.52776 0
M  V30 8478 C 782.971 3.48501 -0.926266 0
M  V30 8479 O 782.075 4.12398 -0.0114653 0
M  V30 8480 H 781.416 0.617423 -0.244304 0
M  V30 8481 H 783.946 1.58215 -1.29727 0
M  V30 8482 H 783.956 3.98885 -0.857619 0
M  V30 8483 H 782.631 3.66613 -1.96386 0
M  V30 8484 H 781.208 3.72661 -0.133396 0
M  V30 8485 N 783.393 0.737304 1.3929 0
M  V30 8486 C 784.343 0.0748537 2.27877 0
M  V30 8487 C 785.327 -0.71022 1.44377 0
M  V30 8488 O 786.519 -0.578851 1.67267 0
M  V30 8489 C 783.648 -0.82991 3.33118 0
M  V30 8490 C 782.734 -0.0388619 4.24082 0
M  V30 8491 N 783.125 0.989182 4.96033 0
M  V30 8492 C 781.423 -0.268167 4.45193 0
M  V30 8493 C 782.124 1.46639 5.62914 0
M  V30 8494 N 781.1 0.784581 5.37908 0
M  V30 8495 H 784.902 0.862457 2.80961 0
M  V30 8496 H 782.416 0.571845 1.51999 0
M  V30 8497 H 784.413 -1.31999 3.95452 0
M  V30 8498 H 783.073 -1.61665 2.81593 0
M  V30 8499 H 784.084 1.3706 4.99435 0
M  V30 8500 H 780.761 -1.02953 4.04607 0
M  V30 8501 H 782.151 2.32182 6.30508 0
M  V30 8502 N 784.871 -1.49948 0.485112 0
M  V30 8503 C 786.117 -2.02695 -0.0651022 0
M  V30 8504 C 786.45 -1.36534 -1.38102 0
M  V30 8505 O 785.725 -0.495677 -1.88078 0
M  V30 8506 C 786.008 -3.59337 -0.234285 0
M  V30 8507 C 785.861 -4.3605 1.10364 0
M  V30 8508 C 787.18 -4.28996 -0.982351 0
M  V30 8509 H 784.299 -0.736666 -0.0221856 0
M  V30 8510 H 786.941 -1.7913 0.633433 0
M  V30 8511 H 785.091 -3.79546 -0.829262 0
M  V30 8512 H 786.763 -4.27377 1.73627 0
M  V30 8513 H 785.006 -3.99236 1.69686 0
M  V30 8514 H 785.677 -5.43959 0.938743 0
M  V30 8515 H 788.153 -4.13346 -0.477904 0
M  V30 8516 H 787.029 -5.38379 -1.06955 0
M  V30 8517 H 787.29 -3.93135 -2.02231 0
M  V30 8518 N 786.349 -0.21828 -1.56081 0
M  V30 8519 C 787.579 0.41865 -2.02314 0
M  V30 8520 C 787.987 1.54124 -1.09739 0
M  V30 8521 O 787.33 1.83435 -0.0986829 0
M  V30 8522 C 787.392 1.01439 -3.44892 0
M  V30 8523 C 787.056 0.0276523 -4.56992 0
M  V30 8524 C 788.053 -0.771526 -5.14143 0
M  V30 8525 C 785.738 -0.0901537 -5.02219 0
M  V30 8526 C 787.732 -1.67525 -6.14991 0
M  V30 8527 C 785.419 -0.997411 -6.02905 0
M  V30 8528 C 786.417 -1.78851 -6.59167 0
M  V30 8529 O 786.105 -2.68052 -7.57894 0
M  V30 8530 H 785.837 0.107066 -0.667468 0
M  V30 8531 H 788.391 -0.331191 -2.02712 0
M  V30 8532 H 786.621 1.81326 -3.41552 0
M  V30 8533 H 788.31 1.55838 -3.74792 0
M  V30 8534 H 789.076 -0.690945 -4.80053 0
M  V30 8535 H 784.955 0.515474 -4.58109 0
M  V30 8536 H 788.499 -2.29316 -6.58832 0
M  V30 8537 H 784.396 -1.07902 -6.36418 0
M  V30 8538 H 785.164 -2.6209 -7.75404 0
M  V30 8539 N 787.827 1.57504 0.0551401 0
M  V30 8540 C 789.052 1.92682 0.767352 0
M  V30 8541 C 789.477 0.81614 1.69472 0
M  V30 8542 O 788.835 -0.229989 1.79835 0
M  V30 8543 C 788.883 3.26866 1.52286 0
M  V30 8544 O 787.987 3.17274 2.63459 0
M  V30 8545 H 787.328 0.630502 0.208238 0
M  V30 8546 H 789.858 2.04592 0.0184026 0
M  V30 8547 H 789.868 3.61138 1.8985 0
M  V30 8548 H 788.543 4.07276 0.842541 0
M  V30 8549 H 787.12 2.94589 2.2863 0
M  V30 8550 N 789.305 -0.326896 1.54172 0
M  V30 8551 C 790.235 -1.40741 1.86317 0
M  V30 8552 C 791.216 -1.54125 0.719684 0
M  V30 8553 O 792.401 -1.6806 0.973117 0
M  V30 8554 C 789.531 -2.77557 2.08757 0
M  V30 8555 C 788.485 -2.78965 3.24596 0
M  V30 8556 C 787.811 -4.18824 3.32401 0
M  V30 8557 C 789.111 -2.4301 4.62324 0
M  V30 8558 H 790.805 -1.14088 2.76811 0
M  V30 8559 H 788.351 -0.547389 1.3319 0
M  V30 8560 H 790.304 -3.53209 2.29829 0
M  V30 8561 H 789.028 -3.0568 1.15009 0
M  V30 8562 H 787.687 -2.05767 3.03406 0
M  V30 8563 H 787.335 -4.44083 2.36218 0
M  V30 8564 H 787.035 -4.20673 4.10253 0
M  V30 8565 H 788.559 -4.96294 3.55703 0
M  V30 8566 H 789.973 -3.08375 4.83299 0
M  V30 8567 H 788.37 -2.56116 5.42701 0
M  V30 8568 H 789.44 -1.38165 4.64799 0
M  V30 8569 N 790.784 -1.46188 -0.588786 0
M  V30 8570 C 791.694 -1.58865 -1.72624 0
M  V30 8571 C 792.71 -0.472348 -1.67466 0
M  V30 8572 O 793.886 -0.735638 -1.87484 0
M  V30 8573 C 790.951 -1.56989 -3.0912 0
M  V30 8574 C 790.012 -2.79804 -3.25589 0
M  V30 8575 C 789.245 -2.78009 -4.55573 0
M  V30 8576 O 789.468 -1.86406 -5.39082 0
M  V30 8577 O 788.402 -3.6947 -4.75159 0
M  V30 8578 H 792.228 -2.55047 -1.64878 0
M  V30 8579 H 789.813 -1.28912 -0.755115 0
M  V30 8580 H 791.695 -1.58618 -3.90408 0
M  V30 8581 H 790.37 -0.639648 -3.17317 0
M  V30 8582 H 789.277 -2.83732 -2.43818 0
M  V30 8583 H 790.61 -3.72017 -3.22279 0
M  V30 8584 N 792.262 0.832906 -1.33792 0
M  V30 8585 C 793.51 1.58539 -1.25338 0
M  V30 8586 C 793.831 1.94175 0.179204 0
M  V30 8587 O 793.101 1.61458 1.10941 0
M  V30 8588 H 791.681 0.58784 -0.460926 0
M  V30 8589 H 794.343 0.995064 -1.67584 0
M  V30 8590 H 793.439 2.51268 -1.85123 0
M  V30 8591 N 793.74 1.17359 1.05189 0
M  V30 8592 C 794.672 0.848078 2.12933 0
M  V30 8593 C 795.685 -0.149521 1.62112 0
M  V30 8594 O 796.874 0.0767797 1.78335 0
M  V30 8595 C 793.974 0.243889 3.38021 0
M  V30 8596 C 793.147 1.28436 4.18118 0
M  V30 8597 C 792.206 0.697926 5.21551 0
M  V30 8598 O 791.232 1.36973 5.52473 0
M  V30 8599 N 792.434 -0.510024 5.78255 0
M  V30 8600 H 795.199 1.7754 2.41453 0
M  V30 8601 H 792.76 1.07244 1.21286 0
M  V30 8602 H 794.752 -0.161727 4.04377 0
M  V30 8603 H 793.322 -0.58722 3.07035 0
M  V30 8604 H 792.542 1.86573 3.47252 0
M  V30 8605 H 793.83 1.98617 4.68432 0
M  V30 8606 H 793.228 -1.07378 5.55416 0
M  V30 8607 H 791.785 -0.857705 6.46132 0
M  V30 8608 N 795.218 -1.23913 0.973828 0
M  V30 8609 C 796.495 -1.87539 0.555729 0
M  V30 8610 C 796.875 -1.87641 -0.967162 0
M  V30 8611 O 796.223 -1.35335 -1.84111 0
M  V30 8612 C 796.433 -3.29359 1.15427 0
M  V30 8613 C 797.781 -4.06 1.24294 0
M  V30 8614 O 798.805 -3.38554 1.10723 0
M  V30 8615 O 797.664 -5.26689 1.45813 0
M  V30 8616 H 794.758 -0.805769 0.186188 0
M  V30 8617 H 797.304 -1.31838 1.06849 0
M  V30 8618 H 796.076 -3.23817 2.19678 0
M  V30 8619 H 795.699 -3.92642 0.625925 0
M  V30 8620 N 796.696 -0.74468 -1.38897 0
M  V30 8621 C 797.936 -0.301691 -2.02161 0
M  V30 8622 C 798.3 1.09338 -1.57826 0
M  V30 8623 O 799.501 1.63499 -2.13358 0
M  V30 8624 C 797.772 -0.410601 -3.55034 0
M  V30 8625 S 799.331 -0.0488802 -4.38773 0
M  V30 8626 H 796.149 -0.117583 -0.70121 0
M  V30 8627 H 798.751 -0.973334 -1.69548 0
M  V30 8628 H 797.455 -1.42705 -3.8479 0
M  V30 8629 H 796.986 0.278531 -3.92413 0
M  V30 8630 H 799.001 1.16434 -4.82346 0
M  V30 8631 N 798.174 1.49689 -0.493057 0
M  V30 8632 C 799.121 2.28976 0.28959 0
M  V30 8633 C 800.091 1.35011 0.967536 0
M  V30 8634 O 801.276 1.63964 0.975736 0
M  V30 8635 C 798.416 3.1748 1.35279 0
M  V30 8636 C 797.529 4.26496 0.687418 0
M  V30 8637 C 796.664 5.02226 1.73038 0
M  V30 8638 C 795.703 6.03089 1.04645 0
M  V30 8639 N 794.84 6.72014 2.03325 0
M  V30 8640 H 799.68 2.954 -0.392798 0
M  V30 8641 H 797.217 1.45657 -0.205554 0
M  V30 8642 H 799.175 3.67162 1.98111 0
M  V30 8643 H 797.805 2.53057 2.00405 0
M  V30 8644 H 796.857 3.80362 -0.0540001 0
M  V30 8645 H 798.169 4.98578 0.14864 0
M  V30 8646 H 797.323 5.55737 2.43395 0
M  V30 8647 H 796.062 4.29899 2.303 0
M  V30 8648 H 795.067 5.48817 0.328606 0
M  V30 8649 H 796.292 6.77398 0.480428 0
M  V30 8650 H 794.238 6.02464 2.59564 0
M  V30 8651 H 794.155 7.40046 1.54492 0
M  V30 8652 H 795.423 7.30133 2.72995 0
M  V30 8653 N 799.652 0.226554 1.55963 0
M  V30 8654 C 800.882 -0.407915 2.02533 0
M  V30 8655 C 801.29 -1.53539 1.10554 0
M  V30 8656 O 800.633 -1.8338 0.108409 0
M  V30 8657 C 800.695 -0.996081 3.45425 0
M  V30 8658 C 800.359 -0.00341651 4.57 0
M  V30 8659 C 801.356 0.798782 5.13727 0
M  V30 8660 C 799.041 0.116786 5.02164 0
M  V30 8661 C 801.035 1.70784 6.14094 0
M  V30 8662 C 798.722 1.02937 6.02368 0
M  V30 8663 C 799.72 1.82344 6.5821 0
M  V30 8664 O 799.408 2.72067 7.56462 0
M  V30 8665 H 799.14 -0.103524 0.668026 0
M  V30 8666 H 801.694 0.341937 2.02534 0
M  V30 8667 H 799.924 -1.79512 3.42509 0
M  V30 8668 H 801.613 -1.53848 3.75614 0
M  V30 8669 H 802.379 0.716393 4.7968 0
M  V30 8670 H 798.258 -0.491172 4.58376 0
M  V30 8671 H 801.802 2.32807 6.57607 0
M  V30 8672 H 797.699 1.11276 6.35836 0
M  V30 8673 H 798.467 2.66199 7.74003 0
M  V30 8674 N 801.13 -1.57531 -0.0467866 0
M  V30 8675 C 802.358 -1.92696 -0.753371 0
M  V30 8676 C 802.773 -0.824792 -1.69831 0
M  V30 8677 O 802.13 0.200155 -1.81399 0
M  V30 8678 C 802.181 -3.27728 -1.52566 0
M  V30 8679 O 801.902 -4.3371 -0.618674 0
M  V30 8680 C 803.403 -3.77066 -2.33101 0
M  V30 8681 H 800.623 -0.636367 -0.212788 0
M  V30 8682 H 803.167 -2.04498 -0.00959361 0
M  V30 8683 H 801.322 -3.17378 -2.22148 0
M  V30 8684 H 801.736 -5.11548 -1.15839 0
M  V30 8685 H 803.21 -4.74109 -2.82709 0
M  V30 8686 H 803.687 -3.07348 -3.13741 0
M  V30 8687 H 804.293 -3.90442 -1.68628 0
M  V30 8688 N 802.608 0.318715 -1.54344 0
M  V30 8689 C 804.019 0.89285 -1.63967 0
M  V30 8690 C 804.37 1.88712 -0.536855 0
M  V30 8691 O 803.495 2.13877 0.329457 0
M  V30 8692 C 804.09 1.62618 -2.97222 0
M  V30 8693 C 802.649 2.14897 -3.09025 0
M  V30 8694 C 801.796 0.975909 -2.5956 0
M  V30 8695 H 804.747 0.0961687 -1.58408 0
M  V30 8696 H 804.768 2.4907 -2.87653 0
M  V30 8697 H 804.28 0.902286 -3.77466 0
M  V30 8698 H 802.381 2.90387 -2.33465 0
M  V30 8699 H 802.494 2.39565 -4.14904 0
M  V30 8700 H 800.858 1.35646 -2.15574 0
M  V30 8701 H 801.641 0.266253 -3.42266 0
M  V30 8702 N 804.086 1.46499 0.581025 0
M  V30 8703 C 805.019 1.51706 1.70472 0
M  V30 8704 C 805.997 0.371036 1.5831 0
M  V30 8705 O 807.181 0.575426 1.79502 0
M  V30 8706 C 804.308 1.3972 3.08538 0
M  V30 8707 C 803.354 2.58525 3.39215 0
M  V30 8708 S 804.187 4.20872 3.311 0
M  V30 8709 C 805.343 4.11398 4.71702 0
M  V30 8710 H 805.576 2.46777 1.65796 0
M  V30 8711 H 803.109 1.34405 0.759908 0
M  V30 8712 H 805.067 1.33492 3.88188 0
M  V30 8713 H 803.728 0.460742 3.10702 0
M  V30 8714 H 802.921 2.46137 4.3981 0
M  V30 8715 H 802.523 2.61752 2.67136 0
M  V30 8716 H 804.815 3.78182 5.62125 0
M  V30 8717 H 805.758 5.11997 4.89147 0
M  V30 8718 H 806.166 3.42624 4.48631 0
M  V30 8719 N 805.565 -0.825799 1.34232 0
M  V30 8720 C 806.812 -1.58185 1.26427 0
M  V30 8721 C 807.14 -1.93786 -0.166533 0
M  V30 8722 O 806.395 -1.59986 -1.12707 0
M  V30 8723 C 806.694 -2.89362 2.09772 0
M  V30 8724 C 806.36 -2.73066 3.58812 0
M  V30 8725 C 805.022 -2.68329 3.99441 0
M  V30 8726 C 807.374 -2.56946 4.53462 0
M  V30 8727 C 804.702 -2.4539 5.32917 0
M  V30 8728 C 807.054 -2.35538 5.87115 0
M  V30 8729 C 805.718 -2.29212 6.26912 0
M  V30 8730 H 804.988 -0.57884 0.462629 0
M  V30 8731 H 807.635 -0.955714 1.65947 0
M  V30 8732 H 805.94 -3.56251 1.63071 0
M  V30 8733 H 807.637 -3.4694 2.01081 0
M  V30 8734 H 804.227 -2.77591 3.26559 0
M  V30 8735 H 808.411 -2.59631 4.22972 0
M  V30 8736 H 803.667 -2.38947 5.62774 0
M  V30 8737 H 807.841 -2.22051 6.6005 0
M  V30 8738 H 805.468 -2.11197 7.30274 0
M  V30 8739 N 807.043 -1.17915 -1.04565 0
M  V30 8740 C 808.291 -0.969505 -1.77327 0
M  V30 8741 C 808.612 0.502569 -1.88412 0
M  V30 8742 O 807.882 1.36467 -1.40547 0
M  V30 8743 H 806.462 -0.355723 -0.656864 0
M  V30 8744 H 809.124 -1.48506 -1.26223 0
M  V30 8745 H 808.22 -1.40324 -2.78775 0
M  V30 8746 N 808.521 1.23394 -0.980386 0
M  V30 8747 C 809.932 1.73631 -0.686239 0
M  V30 8748 C 810.283 1.79259 0.797541 0
M  V30 8749 O 809.408 1.43046 1.62379 0
M  V30 8750 C 810.003 3.15332 -1.239 0
M  V30 8751 C 808.562 3.63024 -0.994494 0
M  V30 8752 C 807.709 2.41279 -1.36673 0
M  V30 8753 H 810.66 1.08918 -1.15423 0
M  V30 8754 H 810.681 3.75556 -0.611414 0
M  V30 8755 H 810.193 3.11204 -2.31892 0
M  V30 8756 H 808.294 3.72535 0.0693492 0
M  V30 8757 H 808.407 4.49825 -1.64906 0
M  V30 8758 H 806.771 2.42295 -0.785195 0
M  V30 8759 H 807.554 2.39822 -2.45642 0
M  V30 8760 N 809.999 0.752036 1.385 0
M  V30 8761 C 810.909 0.125318 2.34265 0
M  V30 8762 C 811.925 -0.702437 1.59191 0
M  V30 8763 O 813.101 -0.626951 1.91393 0
M  V30 8764 C 810.166 -0.758486 3.38301 0
M  V30 8765 C 809.227 0.0834636 4.29219 0
M  V30 8766 C 808.46 -0.758252 5.28286 0
M  V30 8767 O 808.683 -1.99632 5.34325 0
M  V30 8768 O 807.617 -0.177878 6.01637 0
M  V30 8769 H 811.443 0.91617 2.89551 0
M  V30 8770 H 809.028 0.512911 1.4032 0
M  V30 8771 H 810.91 -1.26365 4.02007 0
M  V30 8772 H 809.585 -1.52786 2.85374 0
M  V30 8773 H 808.492 0.634545 3.68679 0
M  V30 8774 H 809.825 0.815455 4.85398 0
M  V30 8775 N 811.477 -1.49425 0.500989 0
M  V30 8776 C 812.44 -2.27646 -0.266416 0
M  V30 8777 C 813.44 -1.3366 -0.893961 0
M  V30 8778 O 814.63 -1.5682 -0.758495 0
M  V30 8779 C 811.762 -3.11618 -1.38227 0
M  V30 8780 H 812.955 -2.96945 0.419973 0
M  V30 8781 H 810.508 -1.5419 0.255954 0
M  V30 8782 H 811.243 -2.46885 -2.10281 0
M  V30 8783 H 811.028 -3.80721 -0.937746 0
M  V30 8784 H 812.518 -3.70698 -1.92283 0
M  V30 8785 N 812.955 -0.234822 -1.55841 0
M  V30 8786 C 814.371 0.120295 -1.59146 0
M  V30 8787 C 814.571 1.57896 -1.25184 0
M  V30 8788 O 813.627 2.32138 -0.993393 0
M  V30 8789 C 814.94 -0.217984 -2.99909 0
M  V30 8790 C 816.488 -0.161298 -3.12584 0
M  V30 8791 C 816.963 -0.473438 -4.55546 0
M  V30 8792 N 818.454 -0.423494 -4.6126 0
M  V30 8793 C 819.189 -0.638334 -5.69836 0
M  V30 8794 N 818.685 -0.915659 -6.86722 0
M  V30 8795 N 820.478 -0.569864 -5.59204 0
M  V30 8796 H 812.629 -1.18622 -1.76189 0
M  V30 8797 H 814.892 -0.476426 -0.819587 0
M  V30 8798 H 814.598 -1.2309 -3.29457 0
M  V30 8799 H 814.472 0.460707 -3.74376 0
M  V30 8800 H 816.859 0.842274 -2.82825 0
M  V30 8801 H 816.94 -0.873661 -2.40418 0
M  V30 8802 H 816.584 -1.47451 -4.86025 0
M  V30 8803 H 816.514 0.260268 -5.25956 0
M  V30 8804 H 819.005 -0.217383 -3.77274 0
M  V30 8805 H 819.318 -1.06734 -7.65394 0
M  V30 8806 H 817.663 -0.953 -6.88435 0
M  V30 8807 H 820.854 -0.35334 -4.66765 0
M  V30 8808 H 821.027 -0.740698 -6.43753 0
M  V30 8809 N 814.433 1.57553 0.0384317 0
M  V30 8810 C 815.661 1.93093 0.743141 0
M  V30 8811 C 816.076 0.833787 1.69391 0
M  V30 8812 O 815.433 -0.190532 1.81503 0
M  V30 8813 C 815.484 3.28533 1.50826 0
M  V30 8814 O 815.205 4.34032 0.595665 0
M  V30 8815 C 816.706 3.78297 2.31098 0
M  V30 8816 H 813.926 0.637486 0.20941 0
M  V30 8817 H 816.47 2.045 -0.00125154 0
M  V30 8818 H 814.625 3.18552 2.20462 0
M  V30 8819 H 815.039 5.12155 1.13124 0
M  V30 8820 H 816.513 4.75602 2.80191 0
M  V30 8821 H 816.99 3.09008 3.12107 0
M  V30 8822 H 817.596 3.91331 1.66555 0
M  V30 8823 N 815.911 -0.310526 1.54511 0
M  V30 8824 C 816.841 -1.38757 1.878 0
M  V30 8825 C 817.822 -1.53353 0.735991 0
M  V30 8826 O 819.007 -1.67018 0.990887 0
M  V30 8827 C 816.137 -2.75327 2.11689 0
M  V30 8828 C 815.091 -2.75506 3.27537 0
M  V30 8829 C 814.417 -4.15275 3.36824 0
M  V30 8830 C 815.717 -2.38093 4.64875 0
M  V30 8831 H 817.411 -1.11146 2.78005 0
M  V30 8832 H 814.957 -0.533232 1.33763 0
M  V30 8833 H 816.91 -3.50752 2.33562 0
M  V30 8834 H 815.634 -3.04443 1.18245 0
M  V30 8835 H 814.293 -2.02538 3.05572 0
M  V30 8836 H 813.941 -4.41553 2.40915 0
M  V30 8837 H 813.641 -4.16299 4.14692 0
M  V30 8838 H 815.165 -4.92493 3.60947 0
M  V30 8839 H 816.579 -3.03232 4.86542 0
M  V30 8840 H 814.976 -2.50345 5.45387 0
M  V30 8841 H 816.046 -1.33227 4.66239 0
M  V30 8842 N 817.389 -1.46805 -0.573248 0
M  V30 8843 C 818.635 -1.5283 -1.33307 0
M  V30 8844 C 818.968 -0.183287 -1.93333 0
M  V30 8845 O 818.243 0.806354 -1.76998 0
M  V30 8846 C 818.526 -2.63414 -2.45531 0
M  V30 8847 C 818.379 -4.07478 -1.90478 0
M  V30 8848 C 819.698 -2.70014 -3.47535 0
M  V30 8849 H 816.817 -0.556371 -0.483343 0
M  V30 8850 H 819.459 -1.78787 -0.643066 0
M  V30 8851 H 817.609 -2.41412 -3.04389 0
M  V30 8852 H 819.281 -4.40795 -1.36004 0
M  V30 8853 H 817.524 -4.16511 -1.21248 0
M  V30 8854 H 818.195 -4.80598 -2.71531 0
M  V30 8855 H 820.671 -2.89817 -2.98572 0
M  V30 8856 H 819.547 -3.49192 -4.23504 0
M  V30 8857 H 819.808 -1.76436 -4.05367 0
M  V30 8858 N 818.867 0.818669 -1.34668 0
M  V30 8859 C 819.797 1.94468 -1.29245 0
M  V30 8860 C 820.778 1.69257 -0.169101 0
M  V30 8861 O 821.963 1.90794 -0.362143 0
M  V30 8862 C 819.093 3.31001 -1.05145 0
M  V30 8863 C 818.047 3.70663 -2.13992 0
M  V30 8864 C 817.373 5.05226 -1.75074 0
M  V30 8865 C 818.673 3.82312 -3.55858 0
M  V30 8866 H 820.367 1.99263 -2.2346 0
M  V30 8867 H 817.913 0.957304 -1.07572 0
M  V30 8868 H 819.866 4.09364 -0.999949 0
M  V30 8869 H 818.59 3.26517 -0.0737312 0
M  V30 8870 H 817.249 2.94578 -2.18219 0
M  V30 8871 H 816.897 4.97233 -0.759518 0
M  V30 8872 H 816.597 5.32734 -2.47928 0
M  V30 8873 H 818.121 5.86042 -1.71427 0
M  V30 8874 H 819.535 4.50935 -3.5402 0
M  V30 8875 H 817.932 4.21278 -4.2737 0
M  V30 8876 H 819.002 2.84193 -3.9289 0
M  V30 8877 N 820.346 1.18468 1.03938 0
M  V30 8878 C 821.762 0.934635 1.29371 0
M  V30 8879 C 821.962 -0.399067 1.97509 0
M  V30 8880 O 821.018 -1.13309 2.25648 0
M  V30 8881 C 822.331 2.10111 2.15114 0
M  V30 8882 C 823.879 2.13955 2.28456 0
M  V30 8883 C 824.354 3.30024 3.17566 0
M  V30 8884 N 825.845 3.29893 3.25153 0
M  V30 8885 C 826.58 4.16346 3.94263 0
M  V30 8886 N 826.076 5.12934 4.65693 0
M  V30 8887 N 827.869 4.04256 3.90556 0
M  V30 8888 H 820.02 2.04294 0.581185 0
M  V30 8889 H 822.283 0.892727 0.318971 0
M  V30 8890 H 821.989 3.06572 1.72355 0
M  V30 8891 H 821.863 2.06283 3.15796 0
M  V30 8892 H 824.25 1.18072 2.7045 0
M  V30 8893 H 824.331 2.2184 1.2736 0
M  V30 8894 H 823.975 4.26181 2.76283 0
M  V30 8895 H 823.905 3.19376 4.18697 0
M  V30 8896 H 826.396 2.59969 2.74271 0
M  V30 8897 H 826.709 5.75271 5.16026 0
M  V30 8898 H 825.054 5.16893 4.64593 0
M  V30 8899 H 828.245 3.28083 3.33885 0
M  V30 8900 H 828.418 4.71848 4.44144 0
M  V30 8901 N 821.824 -1.22873 0.986916 0
M  V30 8902 C 822.754 -2.2688 0.552064 0
M  V30 8903 C 823.735 -1.64883 -0.418048 0
M  V30 8904 O 824.92 -1.9171 -0.30999 0
M  V30 8905 C 822.05 -3.47018 -0.139959 0
M  V30 8906 C 821.004 -4.21411 0.748091 0
M  V30 8907 C 820.33 -5.34645 -0.0765132 0
M  V30 8908 C 821.63 -4.80726 2.04206 0
M  V30 8909 H 823.324 -2.63507 1.42143 0
M  V30 8910 H 820.87 -1.26668 0.68492 0
M  V30 8911 H 822.823 -4.18931 -0.455527 0
M  V30 8912 H 821.547 -3.0947 -1.04382 0
M  V30 8913 H 820.206 -3.51325 1.04721 0
M  V30 8914 H 819.854 -4.93339 -0.981109 0
M  V30 8915 H 819.554 -5.85342 0.514606 0
M  V30 8916 H 821.078 -6.09377 -0.386313 0
M  V30 8917 H 822.492 -5.44612 1.79083 0
M  V30 8918 H 820.889 -5.41737 2.5815 0
M  V30 8919 H 821.959 -4.01109 2.72469 0
M  V30 8920 N 823.302 -0.75937 -1.38099 0
M  V30 8921 C 824.265 -0.14372 -2.28749 0
M  V30 8922 C 825.265 0.641338 -1.47457 0
M  V30 8923 O 826.455 0.466751 -1.67831 0
M  V30 8924 C 823.587 0.804545 -3.3127 0
M  V30 8925 H 824.78 -0.942663 -2.847 0
M  V30 8926 H 822.333 -0.526757 -1.47156 0
M  V30 8927 H 823.068 1.62895 -2.80421 0
M  V30 8928 H 822.853 0.243939 -3.9134 0
M  V30 8929 H 824.343 1.23111 -3.99041 0
M  V30 8930 N 824.78 1.49157 -0.508906 0
M  V30 8931 C 825.712 2.272 0.302115 0
M  V30 8932 C 826.725 1.3407 0.923529 0
M  V30 8933 O 827.914 1.5929 0.805532 0
M  V30 8934 C 825.014 3.06736 1.44105 0
M  V30 8935 C 824.187 4.27497 0.925477 0
M  V30 8936 C 823.246 4.89014 1.94297 0
M  V30 8937 O 822.272 5.48851 1.50834 0
M  V30 8938 N 823.474 4.7937 3.2739 0
M  V30 8939 H 826.239 2.97443 -0.367115 0
M  V30 8940 H 823.8 1.58248 -0.341933 0
M  V30 8941 H 825.792 3.44763 2.11944 0
M  V30 8942 H 824.362 2.3905 2.0143 0
M  V30 8943 H 823.582 3.94135 0.0717301 0
M  V30 8944 H 824.87 5.05714 0.55955 0
M  V30 8945 H 824.268 4.31869 3.65384 0
M  V30 8946 H 822.825 5.21559 3.90922 0
M  V30 8947 N 826.258 0.243083 1.55714 0
M  V30 8948 C 827.188 -0.652336 2.24203 0
M  V30 8949 C 828.169 -1.1843 1.221 0
M  V30 8950 O 829.354 -1.22435 1.50743 0
M  V30 8951 C 826.484 -1.85111 2.93856 0
M  V30 8952 C 825.438 -1.45208 4.02615 0
M  V30 8953 C 824.764 -2.73137 4.59674 0
M  V30 8954 C 826.064 -0.625988 5.18535 0
M  V30 8955 H 827.758 -0.0812504 2.9929 0
M  V30 8956 H 825.304 -0.0376388 1.43951 0
M  V30 8957 H 827.257 -2.48314 3.40468 0
M  V30 8958 H 825.981 -2.44751 2.16251 0
M  V30 8959 H 824.64 -0.843406 3.56766 0
M  V30 8960 H 824.288 -3.30967 3.78774 0
M  V30 8961 H 823.988 -2.47163 5.33089 0
M  V30 8962 H 825.512 -3.37245 5.09017 0
M  V30 8963 H 826.926 -1.16223 5.61396 0
M  V30 8964 H 825.323 -0.462465 5.98315 0
M  V30 8965 H 826.393 0.362652 4.83542 0
M  V30 8966 N 827.736 -1.57571 -0.0300757 0
M  V30 8967 C 828.985 -1.88407 -0.720126 0
M  V30 8968 C 829.298 -0.841466 -1.76575 0
M  V30 8969 O 830.504 -1.03902 -2.50832 0
M  V30 8970 C 828.96 -3.34348 -1.33188 0
M  V30 8971 C 828.568 -4.46837 -0.32266 0
M  V30 8972 C 830.312 -3.74333 -2.00187 0
M  V30 8973 C 828.219 -5.83838 -0.942703 0
M  V30 8974 H 827.149 -0.702952 -0.272718 0
M  V30 8975 H 829.8 -1.83482 0.0255337 0
M  V30 8976 H 828.182 -3.34014 -2.12721 0
M  V30 8977 H 829.356 -4.58638 0.445887 0
M  V30 8978 H 827.671 -4.15678 0.245181 0
M  V30 8979 H 830.268 -4.74008 -2.47428 0
M  V30 8980 H 830.611 -3.06275 -2.81959 0
M  V30 8981 H 831.144 -3.76837 -1.2743 0
M  V30 8982 H 827.883 -6.55294 -0.164413 0
M  V30 8983 H 827.403 -5.75759 -1.68111 0
M  V30 8984 H 829.082 -6.30535 -1.45034 0
M  V30 8985 N 829.214 0.302327 -1.54673 0
M  V30 8986 C 830.442 1.05669 -1.77881 0
M  V30 8987 C 830.857 1.80983 -0.537648 0
M  V30 8988 O 830.214 1.7573 0.492467 0
M  V30 8989 C 830.265 2.03828 -2.98557 0
M  V30 8990 O 829.986 1.3157 -4.17877 0
M  V30 8991 C 831.487 2.91314 -3.34143 0
M  V30 8992 H 828.707 0.313436 -0.593295 0
M  V30 8993 H 831.251 0.342003 -2.0162 0
M  V30 8994 H 829.406 2.70801 -2.7703 0
M  V30 8995 H 829.82 1.97481 -4.85903 0
M  V30 8996 H 831.294 3.56042 -4.21827 0
M  V30 8997 H 831.771 3.59544 -2.52239 0
M  V30 8998 H 832.377 2.29874 -3.57824 0
M  V30 8999 N 830.692 1.47107 0.565454 0
M  V30 9000 C 831.624 1.55024 1.6882 0
M  V30 9001 C 832.637 0.4371 1.56822 0
M  V30 9002 O 833.826 0.706315 1.63931 0
M  V30 9003 C 830.926 1.43069 3.0722 0
M  V30 9004 C 830.099 2.68807 3.45053 0
M  V30 9005 C 829.158 2.50806 4.62583 0
M  V30 9006 O 828.184 3.24593 4.67577 0
M  V30 9007 N 829.386 1.58093 5.58558 0
M  V30 9008 H 832.151 2.51836 1.62477 0
M  V30 9009 H 829.712 1.43382 0.751885 0
M  V30 9010 H 831.704 1.28773 3.83666 0
M  V30 9011 H 830.274 0.543721 3.07835 0
M  V30 9012 H 829.494 2.97923 2.58138 0
M  V30 9013 H 830.782 3.52298 3.67101 0
M  V30 9014 H 830.18 0.972807 5.57273 0
M  V30 9015 H 828.737 1.49753 6.34364 0
M  V30 9016 N 832.17 -0.811516 1.35101 0
M  V30 9017 C 833.133 -1.90467 1.27495 0
M  V30 9018 C 834.133 -1.59703 0.187516 0
M  V30 9019 O 835.323 -1.68528 0.440896 0
M  V30 9020 C 832.455 -3.26774 0.971154 0
M  V30 9021 H 833.648 -1.98631 2.2469 0
M  V30 9022 H 831.201 -1.00681 1.19553 0
M  V30 9023 H 831.936 -3.243 0.0028557 0
M  V30 9024 H 831.721 -3.50488 1.75785 0
M  V30 9025 H 833.211 -4.06804 0.943414 0
M  V30 9026 N 833.648 -1.19017 -1.03309 0
M  V30 9027 C 834.595 -0.924088 -2.11493 0
M  V30 9028 C 835.565 0.139464 -1.65513 0
M  V30 9029 O 836.75 -0.00178761 -1.908 0
M  V30 9030 C 833.89 -0.464255 -3.41963 0
M  V30 9031 C 833.003 -1.5941 -4.01513 0
M  V30 9032 C 832.138 -1.08622 -5.19976 0
M  V30 9033 C 831.177 -2.19024 -5.71572 0
M  V30 9034 N 830.314 -1.69575 -6.81314 0
M  V30 9035 H 835.154 -1.85039 -2.33591 0
M  V30 9036 H 832.691 -0.922593 -1.14572 0
M  V30 9037 H 834.649 -0.179078 -4.16815 0
M  V30 9038 H 833.279 0.425062 -3.19989 0
M  V30 9039 H 832.331 -1.99458 -3.23915 0
M  V30 9040 H 833.643 -2.42604 -4.35826 0
M  V30 9041 H 832.797 -0.756022 -6.01971 0
M  V30 9042 H 831.536 -0.223955 -4.87186 0
M  V30 9043 H 830.541 -2.5288 -4.88193 0
M  V30 9044 H 831.766 -3.05699 -6.06403 0
M  V30 9045 H 829.712 -0.856494 -6.50385 0
M  V30 9046 H 829.629 -2.46361 -7.14732 0
M  V30 9047 H 830.897 -1.39505 -7.66915 0
M  V30 9048 N 835.127 1.22348 -0.993418 0
M  V30 9049 C 836.077 2.221 -0.515333 0
M  V30 9050 C 837.061 1.55409 0.416762 0
M  V30 9051 O 838.253 1.75317 0.243497 0
M  V30 9052 C 835.382 3.42888 0.168173 0
M  V30 9053 C 834.468 4.16786 -0.784257 0
M  V30 9054 N 834.859 4.67435 -1.93231 0
M  V30 9055 C 833.157 4.41942 -0.600243 0
M  V30 9056 C 833.858 5.23792 -2.53016 0
M  V30 9057 N 832.834 5.12483 -1.8128 0
M  V30 9058 H 836.636 2.58902 -1.39093 0
M  V30 9059 H 834.15 1.38024 -0.855747 0
M  V30 9060 H 836.147 4.13542 0.528069 0
M  V30 9061 H 834.807 3.07598 1.03989 0
M  V30 9062 H 835.818 4.63375 -2.31309 0
M  V30 9063 H 832.495 4.16891 0.225369 0
M  V30 9064 H 833.885 5.73515 -3.50043 0
M  V30 9065 N 836.605 0.766683 1.37694 0
M  V30 9066 C 837.833 0.339939 2.04088 0
M  V30 9067 C 838.248 -1.03617 1.57826 0
M  V30 9068 O 837.605 -1.6605 0.757214 0
M  V30 9069 C 837.656 0.368269 3.59619 0
M  V30 9070 O 837.377 1.69009 4.04188 0
M  V30 9071 C 838.878 -0.0707053 4.43244 0
M  V30 9072 H 836.098 0.143189 0.655544 0
M  V30 9073 H 838.642 1.03919 1.76128 0
M  V30 9074 H 836.797 -0.282359 3.8637 0
M  V30 9075 H 837.211 1.62523 4.98685 0
M  V30 9076 H 838.685 0.000273538 5.52 0
M  V30 9077 H 839.162 -1.1204 4.24669 0
M  V30 9078 H 839.768 0.551543 4.21709 0
M  V30 9079 N 838.083 -1.48885 0.516809 0
M  V30 9080 C 839.046 -2.27916 -0.242256 0
M  V30 9081 C 840.046 -1.34601 -0.879735 0
M  V30 9082 O 841.236 -1.57616 -0.74182 0
M  V30 9083 C 838.368 -3.13067 -1.34914 0
M  V30 9084 H 839.561 -2.96483 0.451444 0
M  V30 9085 H 837.114 -1.5391 0.272294 0
M  V30 9086 H 837.849 -2.49102 -2.07651 0
M  V30 9087 H 837.634 -3.81695 -0.897313 0
M  V30 9088 H 839.124 -3.72716 -1.88341 0
M  V30 9089 N 839.561 -0.251338 -1.55583 0
M  V30 9090 C 840.508 0.646337 -2.21565 0
M  V30 9091 C 841.478 1.16796 -1.18102 0
M  V30 9092 O 842.663 1.22162 -1.46564 0
M  V30 9093 C 839.803 1.83557 -2.92234 0
M  V30 9094 C 838.916 1.35006 -4.10363 0
M  V30 9095 C 838.051 2.4992 -4.68736 0
M  V30 9096 C 837.09 1.98253 -5.79105 0
M  V30 9097 N 836.227 3.06551 -6.31642 0
M  V30 9098 H 841.067 0.0769881 -2.97901 0
M  V30 9099 H 838.604 0.026238 -1.47077 0
M  V30 9100 H 840.562 2.53425 -3.31408 0
M  V30 9101 H 839.192 2.37733 -2.18364 0
M  V30 9102 H 838.244 0.545274 -3.76472 0
M  V30 9103 H 839.556 0.931435 -4.90026 0
M  V30 9104 H 838.71 3.27823 -5.10507 0
M  V30 9105 H 837.449 2.95086 -3.88298 0
M  V30 9106 H 836.454 1.18822 -5.36807 0
M  V30 9107 H 837.679 1.54051 -6.61396 0
M  V30 9108 H 835.625 3.51143 -5.54107 0
M  V30 9109 H 835.542 2.69033 -7.06511 0
M  V30 9110 H 836.81 3.84499 -6.78071 0
M  V30 9111 N 841.039 1.57585 0.0217189 0
M  V30 9112 C 842.264 1.94267 0.726309 0
M  V30 9113 C 842.689 0.851904 1.67703 0
M  V30 9114 O 842.047 -0.191792 1.80283 0
M  V30 9115 C 842.095 3.30023 1.45318 0
M  V30 9116 O 841.199 3.22791 2.5667 0
M  V30 9117 H 840.54 0.634777 0.194818 0
M  V30 9118 H 843.07 2.04585 -0.0249985 0
M  V30 9119 H 843.08 3.65084 1.82147 0
M  V30 9120 H 841.755 4.08972 0.755962 0
M  V30 9121 H 840.332 2.99373 2.2233 0
M  V30 9122 N 842.517 -0.29412 1.54831 0
M  V30 9123 C 843.766 -1.02614 1.73647 0
M  V30 9124 C 844.079 -1.88193 0.533162 0
M  V30 9125 O 845.285 -2.64713 0.603275 0
M  V30 9126 C 843.741 -1.87417 3.07251 0
M  V30 9127 C 843.349 -1.06806 4.35082 0
M  V30 9128 C 845.093 -2.60176 3.35423 0
M  V30 9129 C 843 -1.90926 5.59733 0
M  V30 9130 H 841.93 -0.386834 0.647206 0
M  V30 9131 H 844.581 -0.282789 1.81308 0
M  V30 9132 H 842.963 -2.65765 2.93572 0
M  V30 9133 H 844.137 -0.330226 4.59615 0
M  V30 9134 H 842.452 -0.455979 4.13896 0
M  V30 9135 H 845.049 -3.23476 4.25755 0
M  V30 9136 H 845.392 -3.29365 2.54606 0
M  V30 9137 H 845.925 -1.88871 3.50103 0
M  V30 9138 H 842.664 -1.26194 6.43238 0
M  V30 9139 H 842.184 -2.62363 5.39375 0
M  V30 9140 H 843.863 -2.48807 5.97247 0
M  V30 9141 N 843.995 -1.47404 -0.557645 0
M  V30 9142 C 845.22 -1.57868 -1.34508 0
M  V30 9143 C 845.645 -0.229151 -1.86699 0
M  V30 9144 O 845.003 0.794908 -1.62944 0
M  V30 9145 C 845.051 -2.60712 -2.49122 0
M  V30 9146 O 844.155 -2.15952 -3.51338 0
M  V30 9147 H 843.496 -0.530335 -0.399551 0
M  V30 9148 H 846.026 -1.93181 -0.673954 0
M  V30 9149 H 846.036 -2.81118 -2.95697 0
M  V30 9150 H 844.711 -3.58701 -2.10491 0
M  V30 9151 H 843.288 -2.05644 -3.11071 0
M  V30 9152 N 845.473 0.80434 -1.35529 0
M  V30 9153 C 846.75 1.5486 -1.1949 0
M  V30 9154 C 847.13 2.09897 0.22506 0
M  V30 9155 O 846.478 1.92643 1.22886 0
M  V30 9156 C 846.688 2.65535 -2.26478 0
M  V30 9157 C 848.036 3.33814 -2.62399 0
M  V30 9158 O 849.06 2.75807 -2.25409 0
M  V30 9159 O 847.919 4.38612 -3.26009 0
M  V30 9160 H 845.013 0.68433 -0.464351 0
M  V30 9161 H 847.559 0.844107 -1.47217 0
M  V30 9162 H 846.331 2.22754 -3.21709 0
M  V30 9163 H 845.954 3.43617 -2.00033 0
M  V30 9164 N 846.951 1.19563 1.02676 0
M  V30 9165 C 847.883 0.893054 2.11086 0
M  V30 9166 C 848.896 -0.115101 1.62393 0
M  V30 9167 O 850.085 0.11459 1.78132 0
M  V30 9168 C 847.185 0.315533 3.37428 0
M  V30 9169 C 846.358 1.37276 4.153 0
M  V30 9170 C 845.417 0.808398 5.19953 0
M  V30 9171 O 844.443 1.48661 5.49444 0
M  V30 9172 N 845.645 -0.387253 5.79207 0
M  V30 9173 H 848.41 1.82622 2.37633 0
M  V30 9174 H 845.971 1.09792 1.18984 0
M  V30 9175 H 847.963 -0.0759166 4.04629 0
M  V30 9176 H 846.533 -0.521961 3.08211 0
M  V30 9177 H 845.753 1.93897 3.43217 0
M  V30 9178 H 847.041 2.08509 4.64114 0
M  V30 9179 H 846.439 -0.955725 5.57568 0
M  V30 9180 H 844.996 -0.720457 6.47806 0
M  V30 9181 N 848.429 -1.21819 0.999893 0
M  V30 9182 C 849.669 -1.92473 0.687996 0
M  V30 9183 C 850.033 -1.76033 -0.766569 0
M  V30 9184 O 851.234 -2.41013 -1.19021 0
M  V30 9185 C 849.505 -3.40332 1.09129 0
M  V30 9186 S 851.064 -4.29496 0.898822 0
M  V30 9187 H 847.882 -0.665097 0.251329 0
M  V30 9188 H 850.484 -1.47454 1.28364 0
M  V30 9189 H 849.188 -3.49812 2.14615 0
M  V30 9190 H 848.719 -3.90365 0.487724 0
M  V30 9191 H 850.734 -4.95769 -0.206873 0
M  V30 9192 N 849.908 -0.773975 -1.37286 0
M  V30 9193 C 850.871 -0.167974 -2.28584 0
M  V30 9194 C 851.871 0.625662 -1.48129 0
M  V30 9195 O 853.061 0.448924 -1.68316 0
M  V30 9196 C 850.193 0.769364 -3.32105 0
M  V30 9197 H 851.386 -0.972806 -2.83684 0
M  V30 9198 H 848.939 -0.542335 -1.46589 0
M  V30 9199 H 849.674 1.59912 -2.82132 0
M  V30 9200 H 849.459 0.202419 -3.91577 0
M  V30 9201 H 850.949 1.18872 -4.00324 0
M  V30 9202 N 851.386 1.48609 -0.524698 0
M  V30 9203 C 852.296 2.33318 0.244923 0
M  V30 9204 C 853.312 1.46153 0.944214 0
M  V30 9205 O 854.488 1.79141 0.920347 0
M  V30 9206 C 851.553 3.22149 1.28144 0
M  V30 9207 C 850.614 4.25184 0.593068 0
M  V30 9208 C 849.847 5.0977 1.5802 0
M  V30 9209 O 850.07 4.96249 2.81235 0
M  V30 9210 O 849.004 5.9134 1.1225 0
M  V30 9211 H 852.83 3.00362 -0.449066 0
M  V30 9212 H 850.415 1.46643 -0.285689 0
M  V30 9213 H 852.297 3.77111 1.88057 0
M  V30 9214 H 850.972 2.57772 1.95793 0
M  V30 9215 H 849.879 3.74071 -0.0464214 0
M  V30 9216 H 851.212 4.92183 -0.0413893 0
M  V30 9217 N 852.864 0.259585 1.55447 0
M  V30 9218 C 854.089 -0.368317 2.04103 0
M  V30 9219 C 854.514 -1.49827 1.13725 0
M  V30 9220 O 853.872 -1.80814 0.132705 0
M  V30 9221 C 853.92 -0.841506 3.50644 0
M  V30 9222 O 853.024 -1.95008 3.63381 0
M  V30 9223 H 852.365 -0.0785227 0.659341 0
M  V30 9224 H 854.895 0.389349 2.00861 0
M  V30 9225 H 854.905 -1.14138 3.9171 0
M  V30 9226 H 853.58 -0.0147001 4.15897 0
M  V30 9227 H 852.157 -1.65393 3.34215 0
M  V30 9228 N 854.342 -1.57594 -0.0133615 0
M  V30 9229 C 855.753 -1.78168 -0.557937 0
M  V30 9230 C 856.104 -0.892616 -1.74719 0
M  V30 9231 O 855.229 -0.0915491 -2.16206 0
M  V30 9232 C 855.824 -3.23115 -1.01894 0
M  V30 9233 C 854.383 -3.44831 -1.50892 0
M  V30 9234 C 853.53 -2.73558 -0.454044 0
M  V30 9235 H 856.481 -1.57266 0.212843 0
M  V30 9236 H 856.502 -3.30493 -1.8856 0
M  V30 9237 H 856.014 -3.87798 -0.153175 0
M  V30 9238 H 854.115 -2.85345 -2.39602 0
M  V30 9239 H 854.228 -4.53485 -1.54559 0
M  V30 9240 H 852.592 -2.37787 -0.912666 0
M  V30 9241 H 853.375 -3.40932 0.402524 0
M  V30 9242 N 855.82 0.285905 -1.54985 0
M  V30 9243 C 856.783 1.33625 -1.86218 0
M  V30 9244 C 857.783 1.42971 -0.735936 0
M  V30 9245 O 858.973 1.42345 -1.00417 0
M  V30 9246 C 856.105 2.71926 -2.05595 0
M  V30 9247 H 857.298 1.07167 -2.80099 0
M  V30 9248 H 854.851 0.523335 -1.47278 0
M  V30 9249 H 855.586 3.03583 -1.14053 0
M  V30 9250 H 855.371 2.6653 -2.87583 0
M  V30 9251 H 856.861 3.47841 -2.31077 0
M  V30 9252 N 857.298 1.47698 0.54982 0
M  V30 9253 C 858.546 1.54397 1.30407 0
M  V30 9254 C 858.867 0.211026 1.93855 0
M  V30 9255 O 858.137 -0.765701 1.80316 0
M  V30 9256 H 856.717 0.568747 0.484289 0
M  V30 9257 H 859.379 1.84042 0.641444 0
M  V30 9258 H 858.475 2.31449 2.09375 0
M  V30 9259 N 858.776 -0.797141 1.35954 0
M  V30 9260 C 859.726 -1.89899 1.26184 0
M  V30 9261 C 860.71 -1.60152 0.155007 0
M  V30 9262 O 861.902 -1.72715 0.387108 0
M  V30 9263 C 859.031 -3.2699 1.04559 0
M  V30 9264 C 858.117 -3.62772 2.19675 0
M  V30 9265 N 858.508 -3.6992 3.44953 0
M  V30 9266 C 856.806 -3.92786 2.1127 0
M  V30 9267 C 857.507 -4.01718 4.20711 0
M  V30 9268 N 856.483 -4.16298 3.49567 0
M  V30 9269 H 860.285 -1.9364 2.2109 0
M  V30 9270 H 857.799 -0.992246 1.28562 0
M  V30 9271 H 859.796 -4.0578 0.956474 0
M  V30 9272 H 858.456 -3.24529 0.105467 0
M  V30 9273 H 859.467 -3.52759 3.79185 0
M  V30 9274 H 856.144 -3.98295 1.25168 0
M  V30 9275 H 857.534 -4.14237 5.29016 0
M  V30 9276 N 860.254 -1.20106 -1.0204 0
M  V30 9277 C 861.479 -1.0351 -1.79723 0
M  V30 9278 C 861.904 0.411328 -1.83548 0
M  V30 9279 O 861.262 1.29608 -1.26773 0
M  V30 9280 C 861.31 -1.61876 -3.22224 0
M  V30 9281 O 860.414 -0.853813 -4.03465 0
M  V30 9282 H 859.755 -0.365299 -0.554484 0
M  V30 9283 H 862.285 -1.59316 -1.28373 0
M  V30 9284 H 862.295 -1.65451 -3.72948 0
M  V30 9285 H 860.97 -2.67148 -3.18755 0
M  V30 9286 H 859.547 -0.891983 -3.62075 0
M  V30 9287 N 861.732 1.21287 -1.00634 0
M  V30 9288 C 862.979 1.90389 -0.6898 0
M  V30 9289 C 863.307 1.78193 0.779574 0
M  V30 9290 O 862.562 1.15358 1.58085 0
M  V30 9291 C 862.861 3.41374 -1.05824 0
M  V30 9292 C 862.527 3.73766 -2.5221 0
M  V30 9293 C 861.189 3.82317 -2.92211 0
M  V30 9294 C 863.541 3.88871 -3.47028 0
M  V30 9295 C 860.869 4.03423 -4.2599 0
M  V30 9296 C 863.221 4.11484 -4.80483 0
M  V30 9297 C 861.885 4.18263 -5.20204 0
M  V30 9298 H 861.155 0.696683 -0.252416 0
M  V30 9299 H 863.802 1.43769 -1.26502 0
M  V30 9300 H 862.107 3.8974 -0.401281 0
M  V30 9301 H 863.804 3.93118 -0.79116 0
M  V30 9302 H 860.394 3.67702 -2.20212 0
M  V30 9303 H 864.578 3.8163 -3.17289 0
M  V30 9304 H 859.834 4.06902 -4.56334 0
M  V30 9305 H 864.008 4.22115 -5.53888 0
M  V30 9306 H 861.635 4.34369 -6.23881 0
M  V30 9307 N 863.21 0.781244 1.36873 0
M  V30 9308 C 864.14 0.188128 2.32741 0
M  V30 9309 C 865.121 -0.672326 1.56249 0
M  V30 9310 O 866.306 -0.607835 1.84442 0
M  V30 9311 C 863.436 -0.684341 3.40491 0
M  V30 9312 C 862.39 0.0755641 4.27933 0
M  V30 9313 C 861.716 -0.916968 5.26779 0
M  V30 9314 C 863.016 1.26006 5.06873 0
M  V30 9315 H 864.71 0.989016 2.82593 0
M  V30 9316 H 862.256 0.477038 1.35869 0
M  V30 9317 H 864.209 -1.10915 4.06541 0
M  V30 9318 H 862.933 -1.51785 2.89187 0
M  V30 9319 H 861.592 0.481258 3.63427 0
M  V30 9320 H 861.24 -1.74528 4.71751 0
M  V30 9321 H 860.94 -0.413 5.86147 0
M  V30 9322 H 862.464 -1.34052 5.95703 0
M  V30 9323 H 863.878 0.911425 5.66009 0
M  V30 9324 H 862.275 1.69676 5.75613 0
M  V30 9325 H 863.345 2.05948 4.38991 0
M  V30 9326 N 864.689 -1.48329 0.532571 0
M  V30 9327 C 865.914 -2.074 0.00147755 0
M  V30 9328 C 866.339 -1.38615 -1.27151 0
M  V30 9329 O 865.697 -0.452949 -1.75551 0
M  V30 9330 C 865.745 -3.60029 -0.202866 0
M  V30 9331 O 864.849 -3.92327 -1.27097 0
M  V30 9332 H 864.19 -0.662777 0.0402883 0
M  V30 9333 H 866.72 -1.90701 0.741224 0
M  V30 9334 H 866.73 -4.05783 -0.424722 0
M  V30 9335 H 865.405 -4.09496 0.727033 0
M  V30 9336 H 863.982 -3.58348 -1.03156 0
M  V30 9337 N 866.167 -0.267825 -1.55308 0
M  V30 9338 C 867.413 0.34458 -2.0046 0
M  V30 9339 C 867.768 1.54028 -1.15296 0
M  V30 9340 O 867.061 1.90409 -0.213316 0
M  V30 9341 C 867.255 0.784247 -3.48689 0
M  V30 9342 C 867.084 -0.367304 -4.48197 0
M  V30 9343 C 865.854 -0.848746 -4.98121 0
M  V30 9344 C 868.052 -1.20136 -5.00072 0
M  V30 9345 N 866.034 -1.97052 -5.81415 0
M  V30 9346 C 867.405 -2.17115 -5.80742 0
M  V30 9347 C 869.46 -1.23553 -4.82327 0
M  V30 9348 C 868.163 -3.17248 -6.45559 0
M  V30 9349 C 870.189 -2.22527 -5.47938 0
M  V30 9350 C 869.551 -3.1824 -6.28413 0
M  V30 9351 H 865.65 0.091465 -0.776633 0
M  V30 9352 H 868.234 -0.390184 -1.9075 0
M  V30 9353 H 866.405 1.48825 -3.58756 0
M  V30 9354 H 868.137 1.37337 -3.80684 0
M  V30 9355 H 864.892 -0.429291 -4.7165 0
M  V30 9356 H 865.316 -2.53481 -6.27755 0
M  V30 9357 H 869.958 -0.50937 -4.1972 0
M  V30 9358 H 867.676 -3.90801 -7.07319 0
M  V30 9359 H 871.262 -2.25904 -5.36152 0
M  V30 9360 H 870.142 -3.93573 -6.78285 0
M  V30 9361 N 867.645 1.57599 0.00500368 0
M  V30 9362 C 868.575 2.11143 0.99705 0
M  V30 9363 C 869.556 1.0194 1.3617 0
M  V30 9364 O 870.741 1.29596 1.44632 0
M  V30 9365 C 867.871 2.61062 2.2905 0
M  V30 9366 C 866.825 3.74745 2.0676 0
M  V30 9367 C 866.151 4.10961 3.42075 0
M  V30 9368 C 867.451 5.02222 1.43424 0
M  V30 9369 H 869.145 2.94281 0.551251 0
M  V30 9370 H 866.691 1.41565 0.263715 0
M  V30 9371 H 868.644 2.97146 2.98801 0
M  V30 9372 H 867.368 1.75038 2.75734 0
M  V30 9373 H 866.027 3.39047 1.39436 0
M  V30 9374 H 865.675 3.21968 3.86453 0
M  V30 9375 H 865.375 4.87549 3.27979 0
M  V30 9376 H 866.899 4.49599 4.1315 0
M  V30 9377 H 868.313 5.36109 2.03125 0
M  V30 9378 H 866.71 5.83581 1.39831 0
M  V30 9379 H 867.78 4.83224 0.40285 0
M  V30 9380 N 869.123 -0.277682 1.55134 0
M  V30 9381 C 870.371 -1.00791 1.75173 0
M  V30 9382 C 870.692 -1.86987 0.553266 0
M  V30 9383 O 869.962 -1.91079 -0.43195 0
M  V30 9384 H 868.542 -0.375129 0.645978 0
M  V30 9385 H 871.204 -0.303041 1.9253 0
M  V30 9386 H 870.3 -1.64756 2.6507 0
M  V30 9387 N 870.601 -1.47988 -0.541979 0
M  V30 9388 C 871.848 -1.55393 -1.29843 0
M  V30 9389 C 872.176 -0.222668 -1.93221 0
M  V30 9390 O 871.431 0.785936 -1.79225 0
M  V30 9391 C 871.73 -2.63189 -2.41798 0
M  V30 9392 C 871.396 -4.05999 -1.96151 0
M  V30 9393 C 870.058 -4.44872 -1.83419 0
M  V30 9394 C 872.41 -4.95545 -1.61507 0
M  V30 9395 C 869.738 -5.71108 -1.34361 0
M  V30 9396 C 872.09 -6.22259 -1.13915 0
M  V30 9397 C 870.754 -6.59998 -0.997911 0
M  V30 9398 H 870.024 -0.568623 -0.47513 0
M  V30 9399 H 872.671 -1.81654 -0.606142 0
M  V30 9400 H 870.976 -2.30743 -3.16647 0
M  V30 9401 H 872.673 -2.66138 -2.99953 0
M  V30 9402 H 869.263 -3.75294 -2.07008 0
M  V30 9403 H 873.447 -4.662 -1.70209 0
M  V30 9404 H 868.703 -5.99083 -1.22103 0
M  V30 9405 H 872.877 -6.91048 -0.861755 0
M  V30 9406 H 870.504 -7.57704 -0.615561 0
M  V30 9407 N 872.079 0.78992 -1.36375 0
M  V30 9408 C 873.304 1.58389 -1.33895 0
M  V30 9409 C 873.729 1.8794 0.0774934 0
M  V30 9410 O 873.087 1.4785 1.0493 0
M  V30 9411 C 873.135 2.88201 -2.16732 0
M  V30 9412 O 872.239 3.81778 -1.55946 0
M  V30 9413 H 871.58 0.480471 -0.458305 0
M  V30 9414 H 874.11 0.979119 -1.79651 0
M  V30 9415 H 874.12 3.37475 -2.29292 0
M  V30 9416 H 872.795 2.66019 -3.19698 0
M  V30 9417 H 871.372 3.40371 -1.52323 0
M  V30 9418 N 873.557 1.20646 1.01402 0
M  V30 9419 C 874.782 1.04462 1.79172 0
M  V30 9420 C 875.207 -0.401588 1.83763 0
M  V30 9421 O 874.565 -1.28934 1.27459 0
M  V30 9422 C 874.613 1.63583 3.21361 0
M  V30 9423 O 873.717 0.875198 4.03006 0
M  V30 9424 H 873.058 0.368235 0.552539 0
M  V30 9425 H 875.588 1.59994 1.27526 0
M  V30 9426 H 875.598 1.67426 3.72065 0
M  V30 9427 H 874.273 2.68835 3.17334 0
M  V30 9428 H 872.85 0.911172 3.61597 0
M  V30 9429 N 875.035 -1.20752 1.01276 0
M  V30 9430 C 875.968 -2.22091 0.524472 0
M  V30 9431 C 876.946 -1.5692 -0.426017 0
M  V30 9432 O 878.13 -1.8528 -0.346919 0
M  V30 9433 C 875.257 -3.37868 -0.237224 0
M  V30 9434 C 874.303 -4.21327 0.662236 0
M  V30 9435 S 875.136 -4.91352 2.12916 0
M  V30 9436 C 876.292 -6.10553 1.37752 0
M  V30 9437 H 876.525 -2.63166 1.38315 0
M  V30 9438 H 874.058 -1.30742 0.821332 0
M  V30 9439 H 876.016 -4.04985 -0.670599 0
M  V30 9440 H 874.677 -2.95261 -1.07143 0
M  V30 9441 H 873.87 -5.03944 0.0751085 0
M  V30 9442 H 873.472 -3.59445 1.03322 0
M  V30 9443 H 875.764 -6.74322 0.655491 0
M  V30 9444 H 876.707 -6.73717 2.17969 0
M  V30 9445 H 877.115 -5.57566 0.882088 0
M  V30 9446 N 876.513 -0.788492 -1.36457 0
M  V30 9447 C 877.79 -0.284484 -1.9352 0
M  V30 9448 C 878.17 1.2232 -1.7205 0
M  V30 9449 O 877.518 2.01424 -1.07892 0
M  V30 9450 C 877.728 -0.676106 -3.42388 0
M  V30 9451 C 879.076 -0.655327 -4.19512 0
M  V30 9452 O 880.1 -0.616523 -3.50824 0
M  V30 9453 O 878.959 -0.697391 -5.42032 0
M  V30 9454 H 876.053 -0.0701769 -0.824017 0
M  V30 9455 H 878.599 -0.870974 -1.45644 0
M  V30 9456 H 877.371 -1.71596 -3.51668 0
M  V30 9457 H 876.994 -0.0634517 -3.97549 0
M  V30 9458 N 877.991 1.48044 -0.54043 0
M  V30 9459 C 879.219 2.06895 -0.0145153 0
M  V30 9460 C 879.634 1.39552 1.27164 0
M  V30 9461 O 878.991 0.486454 1.75897 0
M  V30 9462 C 879.042 3.60934 0.202278 0
M  V30 9463 O 878.763 4.25749 -1.03293 0
M  V30 9464 C 880.264 4.36607 0.767387 0
M  V30 9465 H 877.484 0.66991 -0.0382368 0
M  V30 9466 H 880.028 1.90288 -0.749057 0
M  V30 9467 H 878.183 3.77111 0.886897 0
M  V30 9468 H 878.597 5.18048 -0.820167 0
M  V30 9469 H 880.071 5.45126 0.86845 0
M  V30 9470 H 880.548 4.01745 1.77477 0
M  V30 9471 H 881.154 4.25133 0.119002 0
M  V30 9472 N 879.47 0.276058 1.55163 0
M  V30 9473 C 880.418 -0.626978 2.2399 0
M  V30 9474 C 881.412 -1.15708 1.23725 0
M  V30 9475 O 882.618 -1.1106 1.41653 0
M  V30 9476 H 878.993 -0.220742 0.718872 0
M  V30 9477 H 880.964 -0.0236569 2.98391 0
M  V30 9478 C 879.713 -1.79935 2.97521 0
M  V30 9479 H 879.036 -1.40064 3.74463 0
M  V30 9480 H 880.476 -2.40781 3.48999 0
M  V30 9481 C 878.935 -2.68838 2.03046 0
M  V30 9482 O 879.465 -3.69224 1.58229 0
M  V30 9483 N 877.671 -2.36028 1.69527 0
M  V30 9484 H 877.218 -1.54442 2.06169 0
M  V30 9485 H 877.176 -2.95782 1.06586 0
M  V30 9486 N 880.948 -1.576 0.00335426 0
M  V30 9487 C 882.196 -1.90336 -0.679446 0
M  V30 9488 C 882.517 -0.877777 -1.74127 0
M  V30 9489 O 881.787 0.0843585 -1.95718 0
M  V30 9490 H 880.367 -0.702509 -0.253948 0
M  V30 9491 H 883.029 -1.94848 0.0450731 0
M  V30 9492 H 882.125 -2.90197 -1.14857 0
M  V30 9493 N 882.426 0.269451 -1.5528 0
M  V30 9494 C 883.651 1.02299 -1.80415 0
M  V30 9495 C 884.076 1.7902 -0.577363 0
M  V30 9496 O 883.434 1.75018 0.473125 0
M  V30 9497 C 883.482 1.95445 -3.0304 0
M  V30 9498 O 882.586 3.04271 -2.78375 0
M  V30 9499 H 881.927 0.292289 -0.596207 0
M  V30 9500 H 884.457 0.297282 -2.02429 0
M  V30 9501 H 884.467 2.37333 -3.31869 0
M  V30 9502 H 883.142 1.39017 -3.91978 0
M  V30 9503 H 881.719 2.66673 -2.60653 0
M  V30 9504 N 883.904 1.48273 0.534124 0
M  V30 9505 C 885.134 1.59503 1.31311 0
M  V30 9506 C 885.542 0.25284 1.87503 0
M  V30 9507 O 884.885 -0.767399 1.66903 0
M  V30 9508 C 884.947 2.57899 2.50456 0
M  V30 9509 C 884.611 4.03063 2.15382 0
M  V30 9510 C 885.608 4.90869 1.713 0
M  V30 9511 C 883.293 4.4857 2.26032 0
M  V30 9512 C 885.287 6.22209 1.38328 0
M  V30 9513 C 882.974 5.79932 1.92672 0
M  V30 9514 C 883.972 6.66574 1.4889 0
M  V30 9515 O 883.66 7.95492 1.15966 0
M  V30 9516 H 883.392 0.540695 0.405739 0
M  V30 9517 H 885.946 1.94794 0.651497 0
M  V30 9518 H 884.176 2.1772 3.19585 0
M  V30 9519 H 885.865 2.59008 3.12522 0
M  V30 9520 H 886.631 4.56951 1.62545 0
M  V30 9521 H 882.51 3.81321 2.59066 0
M  V30 9522 H 886.054 6.89792 1.04082 0
M  V30 9523 H 881.951 6.13386 2.01066 0
M  V30 9524 H 882.719 8.08207 1.29399 0
M  V30 9525 N 885.382 -0.782676 1.36792 0
M  V30 9526 C 886.61 -1.57162 1.34565 0
M  V30 9527 C 887.025 -1.88664 -0.0715501 0
M  V30 9528 O 886.382 -1.50633 -1.03033 0
M  V30 9529 C 886.433 -2.88854 2.1736 0
M  V30 9530 O 886.154 -2.58707 3.53557 0
M  V30 9531 C 887.655 -3.83132 2.2299 0
M  V30 9532 H 884.875 -0.487245 0.461338 0
M  V30 9533 H 887.419 -0.970905 1.79982 0
M  V30 9534 H 885.574 -3.45377 1.7548 0
M  V30 9535 H 885.988 -3.42961 3.96835 0
M  V30 9536 H 887.462 -4.72575 2.85266 0
M  V30 9537 H 887.939 -4.21472 1.23524 0
M  V30 9538 H 888.545 -3.32541 2.65135 0
M  V30 9539 N 886.86 -1.21182 -1.00761 0
M  V30 9540 C 887.823 -0.970339 -2.07646 0
M  V30 9541 C 888.823 0.0576345 -1.60697 0
M  V30 9542 O 890.013 -0.179369 -1.73274 0
M  V30 9543 C 887.145 -0.462703 -3.37745 0
M  V30 9544 H 888.338 -1.91856 -2.30502 0
M  V30 9545 H 885.891 -1.02844 -1.17698 0
M  V30 9546 H 886.626 0.490559 -3.20568 0
M  V30 9547 H 886.411 -1.20416 -3.73152 0
M  V30 9548 H 887.901 -0.313531 -4.16421 0
M  V30 9549 N 888.338 1.20213 -1.01915 0
M  V30 9550 C 889.286 2.25125 -0.584936 0
M  V30 9551 C 890.28 1.65138 0.377602 0
M  V30 9552 O 891.486 1.78294 0.247245 0
M  V30 9553 H 887.861 0.732333 -0.170858 0
M  V30 9554 H 889.832 2.59075 -1.48063 0
M  V30 9555 C 888.581 3.47651 0.058389 0
M  V30 9556 H 887.904 3.9409 -0.673263 0
M  V30 9557 H 889.344 4.2275 0.325285 0
M  V30 9558 C 887.803 3.10725 1.30199 0
M  V30 9559 O 888.333 3.22491 2.39505 0
M  V30 9560 N 886.539 2.6525 1.18706 0
M  V30 9561 H 886.086 2.55875 0.297618 0
M  V30 9562 H 886.044 2.40913 2.02011 0
M  V30 9563 N 889.816 0.795718 1.36037 0
M  V30 9564 C 891.093 0.294743 1.93367 0
M  V30 9565 C 891.473 -1.21406 1.72696 0
M  V30 9566 O 890.821 -2.00849 1.08959 0
M  V30 9567 C 891.031 0.694254 3.42025 0
M  V30 9568 C 892.379 0.677566 4.19159 0
M  V30 9569 O 893.403 0.635119 3.50492 0
M  V30 9570 O 892.262 0.726127 5.41655 0
M  V30 9571 H 889.356 0.0745459 0.823633 0
M  V30 9572 H 891.902 0.878685 1.4518 0
M  V30 9573 H 890.674 1.73458 3.50753 0
M  V30 9574 H 890.297 0.0845338 3.9751 0
M  V30 9575 N 891.294 -1.47756 0.548274 0
M  V30 9576 C 892.224 -2.32702 -0.19284 0
M  V30 9577 C 893.205 -1.43237 -0.917457 0
M  V30 9578 O 894.39 -1.72103 -0.89967 0
M  V30 9579 C 891.52 -3.24831 -1.22891 0
M  V30 9580 C 890.474 -4.23466 -0.621312 0
M  V30 9581 C 889.8 -5.04856 -1.76137 0
M  V30 9582 C 891.1 -5.20616 0.419055 0
M  V30 9583 H 892.794 -2.94914 0.516323 0
M  V30 9584 H 890.34 -1.41818 0.24975 0
M  V30 9585 H 892.293 -3.83094 -1.75547 0
M  V30 9586 H 891.017 -2.60656 -1.9679 0
M  V30 9587 H 889.676 -3.66416 -0.116123 0
M  V30 9588 H 889.324 -4.37091 -2.48918 0
M  V30 9589 H 889.024 -5.71629 -1.36065 0
M  V30 9590 H 890.548 -5.65976 -2.29136 0
M  V30 9591 H 891.962 -5.73296 -0.0211034 0
M  V30 9592 H 890.359 -5.95543 0.738163 0
M  V30 9593 H 891.429 -4.66638 1.31822 0
M  V30 9594 N 892.772 -0.284283 -1.55015 0
M  V30 9595 C 894.049 0.382125 -1.91831 0
M  V30 9596 C 894.429 1.73007 -1.20962 0
M  V30 9597 O 893.777 2.25962 -0.339594 0
M  V30 9598 C 893.987 0.513341 -3.45204 0
M  V30 9599 C 895.335 0.791989 -4.17148 0
M  V30 9600 O 896.359 0.597799 -3.51148 0
M  V30 9601 O 895.218 1.16394 -5.33961 0
M  V30 9602 H 892.312 0.210707 -0.799707 0
M  V30 9603 H 894.858 -0.331111 -1.66438 0
M  V30 9604 H 893.63 -0.434911 -3.88876 0
M  V30 9605 H 893.253 1.27569 -3.76579 0
M  V30 9606 N 894.251 1.57596 -0.0117121 0
M  V30 9607 C 895.161 2.12596 0.991964 0
M  V30 9608 C 896.177 1.07399 1.36899 0
M  V30 9609 O 897.353 1.39365 1.45394 0
M  V30 9610 C 894.418 2.62796 2.2614 0
M  V30 9611 C 893.479 3.8264 1.94642 0
M  V30 9612 C 892.712 4.30435 3.15533 0
M  V30 9613 O 892.935 3.77495 4.27614 0
M  V30 9614 O 891.869 5.22469 2.98847 0
M  V30 9615 H 895.695 2.98597 0.554371 0
M  V30 9616 H 893.28 1.47947 0.207839 0
M  V30 9617 H 895.162 2.9523 3.00695 0
M  V30 9618 H 893.837 1.79886 2.69114 0
M  V30 9619 H 892.744 3.5516 1.17526 0
M  V30 9620 H 894.077 4.66658 1.56496 0
M  V30 9621 N 895.729 -0.261212 1.5542 0
M  V30 9622 C 896.662 -1.34906 1.84054 0
M  V30 9623 C 897.64 -1.47024 0.694466 0
M  V30 9624 O 898.824 -1.63463 0.938719 0
M  V30 9625 C 895.951 -2.7242 2.01259 0
M  V30 9626 C 894.997 -2.77526 3.23855 0
M  V30 9627 S 895.83 -2.35578 4.80898 0
M  V30 9628 C 896.986 -3.75045 5.01091 0
M  V30 9629 H 897.219 -1.10416 2.76035 0
M  V30 9630 H 894.752 -0.461461 1.47343 0
M  V30 9631 H 896.71 -3.51606 2.11857 0
M  V30 9632 H 895.371 -2.94155 1.10145 0
M  V30 9633 H 894.564 -3.78483 3.32816 0
M  V30 9634 H 894.166 -2.0637 3.11909 0
M  V30 9635 H 896.458 -4.7042 4.87556 0
M  V30 9636 H 897.401 -3.71027 6.03112 0
M  V30 9637 H 897.809 -3.66894 4.29009 0
M  V30 9638 N 897.207 -1.48554 -0.526253 0
M  V30 9639 C 898.455 -1.56452 -1.27935 0
M  V30 9640 C 898.776 -0.24184 -1.93495 0
M  V30 9641 O 898.046 0.736917 -1.81511 0
M  V30 9642 H 896.626 -0.576379 -0.47518 0
M  V30 9643 H 899.288 -1.85039 -0.612083 0
M  V30 9644 H 898.384 -2.34751 -2.05666 0
M  V30 9645 N 898.685 0.775411 -1.37205 0
M  V30 9646 C 899.617 1.89761 -1.28544 0
M  V30 9647 C 900.63 1.61542 -0.201996 0
M  V30 9648 O 901.819 1.72528 -0.457848 0
M  V30 9649 C 898.919 3.24904 -0.963885 0
M  V30 9650 C 898.092 3.80796 -2.15205 0
M  V30 9651 C 897.151 4.94407 -1.80135 0
M  V30 9652 O 896.177 5.10185 -2.52388 0
M  V30 9653 N 897.379 5.75722 -0.743298 0
M  V30 9654 H 900.144 1.97708 -2.25237 0
M  V30 9655 H 897.705 0.954348 -1.30782 0
M  V30 9656 H 899.697 3.9842 -0.710182 0
M  V30 9657 H 898.267 3.12483 -0.085632 0
M  V30 9658 H 897.487 2.99101 -2.56773 0
M  V30 9659 H 898.775 4.1487 -2.94552 0
M  V30 9660 H 898.173 5.65518 -0.143655 0
M  V30 9661 H 896.73 6.4948 -0.549446 0
M  V30 9662 N 900.163 1.21714 1.00117 0
M  V30 9663 C 901.44 0.945391 1.71236 0
M  V30 9664 C 901.82 -0.541772 2.0403 0
M  V30 9665 O 901.168 -1.50763 1.71705 0
M  V30 9666 C 901.378 1.83444 2.96899 0
M  V30 9667 C 902.726 2.08558 3.69849 0
M  V30 9668 O 903.75 1.80824 3.06889 0
M  V30 9669 O 902.609 2.55485 4.83104 0
M  V30 9670 H 899.703 0.354834 0.747009 0
M  V30 9671 H 902.249 1.32661 1.05825 0
M  V30 9672 H 901.021 2.84075 2.69105 0
M  V30 9673 H 900.644 1.45428 3.70049 0
M  V30 9674 N 901.641 -1.19671 1.02551 0
M  V30 9675 C 902.866 -1.93774 0.739363 0
M  V30 9676 C 903.291 -1.74787 -0.695064 0
M  V30 9677 O 902.649 -1.04796 -1.47944 0
M  V30 9678 C 902.697 -3.43684 1.09149 0
M  V30 9679 O 901.801 -4.11874 0.208213 0
M  V30 9680 H 901.142 -0.605064 0.273484 0
M  V30 9681 H 903.672 -1.51846 1.37128 0
M  V30 9682 H 903.682 -3.94339 1.04695 0
M  V30 9683 H 902.357 -3.56826 2.13654 0
M  V30 9684 H 900.934 -3.716 0.311045 0
M  V30 9685 N 903.119 -0.802921 -1.35613 0
M  V30 9686 C 904.365 -0.382141 -1.99167 0
M  V30 9687 C 904.698 1.04704 -1.63556 0
M  V30 9688 O 903.973 1.72578 -0.89706 0
M  V30 9689 C 904.256 -0.561493 -3.55695 0
M  V30 9690 C 904.109 -2.03534 -4.01116 0
M  V30 9691 C 905.428 0.0151135 -4.40097 0
M  V30 9692 H 902.547 -0.140322 -0.723518 0
M  V30 9693 H 905.189 -1.01177 -1.6082 0
M  V30 9694 H 903.339 -0.0255083 -3.88492 0
M  V30 9695 H 905.011 -2.63343 -3.78746 0
M  V30 9696 H 903.254 -2.5331 -3.52159 0
M  V30 9697 H 903.925 -2.11173 -5.1001 0
M  V30 9698 H 906.401 -0.442582 -4.1374 0
M  V30 9699 H 905.277 -0.140316 -5.48721 0
M  V30 9700 H 905.538 1.10848 -4.27978 0
M  V30 9701 N 904.597 1.47463 -0.556102 0
M  V30 9702 C 906.013 1.58134 -0.21579 0
M  V30 9703 C 906.213 1.55486 1.28166 0
M  V30 9704 O 905.269 1.45768 2.06174 0
M  V30 9705 C 906.582 2.88686 -0.841464 0
M  V30 9706 C 908.13 3.02268 -0.812591 0
M  V30 9707 C 908.605 4.35518 -1.41731 0
M  V30 9708 N 910.096 4.42151 -1.38045 0
M  V30 9709 C 910.831 5.43817 -1.81799 0
M  V30 9710 N 910.327 6.52299 -2.33404 0
M  V30 9711 N 912.12 5.34855 -1.72877 0
M  V30 9712 H 904.271 1.47428 -1.52901 0
M  V30 9713 H 906.534 0.701586 -0.637559 0
M  V30 9714 H 906.24 2.96358 -1.8938 0
M  V30 9715 H 906.114 3.7572 -0.333846 0
M  V30 9716 H 908.501 2.94194 0.231056 0
M  V30 9717 H 908.582 2.16779 -1.35796 0
M  V30 9718 H 908.226 4.44348 -2.46002 0
M  V30 9719 H 908.156 5.19737 -0.847402 0
M  V30 9720 H 910.647 3.64348 -1.00296 0
M  V30 9721 H 910.96 7.26047 -2.64717 0
M  V30 9722 H 909.305 6.53192 -2.37414 0
M  V30 9723 H 912.496 4.49004 -1.32338 0
M  V30 9724 H 912.669 6.13949 -2.07294 0
M  V30 9725 N 906.075 0.2925 1.54862 0
M  V30 9726 C 907.022 -0.587365 2.23201 0
M  V30 9727 C 907.992 -1.13623 1.21157 0
M  V30 9728 O 909.177 -1.18233 1.49752 0
M  V30 9729 C 906.317 -1.75745 2.96998 0
M  V30 9730 C 905.43 -1.24078 4.13798 0
M  V30 9731 C 904.565 -2.37405 4.75197 0
M  V30 9732 C 903.604 -1.82829 5.84157 0
M  V30 9733 N 902.741 -2.89696 6.39547 0
M  V30 9734 H 907.581 0.00202207 2.98 0
M  V30 9735 H 905.118 0.012766 1.47094 0
M  V30 9736 H 907.076 -2.44549 3.38011 0
M  V30 9737 H 905.706 -2.3186 2.24591 0
M  V30 9738 H 904.758 -0.445268 3.77785 0
M  V30 9739 H 906.07 -0.801186 4.92324 0
M  V30 9740 H 905.224 -3.14172 5.19019 0
M  V30 9741 H 903.963 -2.84688 3.95985 0
M  V30 9742 H 902.968 -1.04548 5.39768 0
M  V30 9743 H 904.193 -1.36461 6.65248 0
M  V30 9744 H 902.139 -3.36328 5.63222 0
M  V30 9745 H 902.056 -2.50206 7.13395 0
M  V30 9746 H 903.324 -3.66386 6.88027 0
M  V30 9747 N 907.553 -1.57587 0.0200696 0
M  V30 9748 C 908.781 -1.95718 -0.670964 0
M  V30 9749 C 909.196 -0.896081 -1.6618 0
M  V30 9750 O 908.553 0.123037 -1.82085 0
M  V30 9751 C 908.604 -3.33904 -1.38529 0
M  V30 9752 O 908.325 -4.35943 -0.434167 0
M  V30 9753 C 909.826 -3.86614 -2.16898 0
M  V30 9754 H 907.046 -0.644819 -0.185606 0
M  V30 9755 H 909.59 -2.04354 0.0771495 0
M  V30 9756 H 907.745 -3.26515 -2.08487 0
M  V30 9757 H 908.159 -5.16001 -0.940378 0
M  V30 9758 H 909.633 -4.85673 -2.62346 0
M  V30 9759 H 910.11 -3.20379 -3.00423 0
M  V30 9760 H 910.716 -3.97243 -1.51916 0
M  V30 9761 N 909.032 0.252966 -1.55557 0
M  V30 9762 C 910.309 1.00432 -1.67847 0
M  V30 9763 C 910.689 2.03587 -0.55816 0
M  V30 9764 O 910.037 2.24239 0.439197 0
M  V30 9765 C 910.247 1.64313 -3.079 0
M  V30 9766 C 911.595 2.14726 -3.66303 0
M  V30 9767 O 912.619 1.74264 -3.10661 0
M  V30 9768 O 911.478 2.89 -4.63833 0
M  V30 9769 H 908.572 0.467102 -0.682455 0
M  V30 9770 H 911.118 0.247233 -1.67889 0
M  V30 9771 H 909.89 0.896681 -3.80888 0
M  V30 9772 H 909.513 2.46657 -3.11843 0
M  V30 9773 N 910.51 1.48831 0.518367 0
M  V30 9774 C 911.42 1.6692 1.64848 0
M  V30 9775 C 912.436 0.551711 1.65022 0
M  V30 9776 O 913.612 0.824251 1.83761 0
M  V30 9777 C 910.677 1.71559 3.01278 0
M  V30 9778 C 909.738 2.9502 3.11868 0
M  V30 9779 C 908.971 2.99428 4.4179 0
M  V30 9780 O 909.194 2.11914 5.29574 0
M  V30 9781 O 908.128 3.91719 4.5699 0
M  V30 9782 H 911.954 2.62623 1.52521 0
M  V30 9783 H 909.539 1.32368 0.692749 0
M  V30 9784 H 911.421 1.77064 3.82396 0
M  V30 9785 H 910.096 0.790316 3.13904 0
M  V30 9786 H 909.003 2.95042 2.30003 0
M  V30 9787 H 910.336 3.8697 3.04163 0
M  V30 9788 N 911.988 -0.768124 1.37614 0
M  V30 9789 C 913.218 -1.555 1.36027 0
M  V30 9790 C 913.626 -1.89119 -0.0554273 0
M  V30 9791 O 912.969 -1.52203 -1.02859 0
M  V30 9792 C 913.031 -2.8906 2.13739 0
M  V30 9793 C 912.695 -2.78058 3.62674 0
M  V30 9794 C 913.692 -2.48841 4.5648 0
M  V30 9795 C 911.377 -2.95966 4.05844 0
M  V30 9796 C 913.371 -2.37665 5.91434 0
M  V30 9797 C 911.058 -2.84411 5.40882 0
M  V30 9798 C 912.056 -2.55301 6.33491 0
M  V30 9799 O 911.744 -2.43779 7.66046 0
M  V30 9800 H 911.476 -0.488263 0.467521 0
M  V30 9801 H 914.03 -0.959583 1.81607 0
M  V30 9802 H 912.26 -3.50735 1.62854 0
M  V30 9803 H 913.949 -3.5048 2.04741 0
M  V30 9804 H 914.715 -2.34687 4.24437 0
M  V30 9805 H 910.594 -3.17625 3.34119 0
M  V30 9806 H 914.138 -2.14865 6.63686 0
M  V30 9807 H 910.035 -2.98134 5.72527 0
M  V30 9808 H 910.803 -2.59101 7.76408 0
M  V30 9809 N 913.466 -1.22244 -0.994698 0
M  V30 9810 C 914.396 -1.01513 -2.10279 0
M  V30 9811 C 915.377 0.0633365 -1.69982 0
M  V30 9812 O 916.562 -0.0985268 -1.9395 0
M  V30 9813 C 913.692 -0.59016 -3.42249 0
M  V30 9814 C 912.646 -1.61436 -3.96387 0
M  V30 9815 C 911.972 -1.04528 -5.24383 0
M  V30 9816 C 913.272 -3.00388 -4.27276 0
M  V30 9817 H 914.966 -1.94194 -2.2788 0
M  V30 9818 H 912.512 -0.935094 -1.09508 0
M  V30 9819 H 914.465 -0.432254 -4.19177 0
M  V30 9820 H 913.189 0.372308 -3.24471 0
M  V30 9821 H 911.848 -1.76001 -3.21589 0
M  V30 9822 H 911.496 -0.0742225 -5.02945 0
M  V30 9823 H 911.196 -1.72949 -5.61571 0
M  V30 9824 H 912.72 -0.898922 -6.03947 0
M  V30 9825 H 914.134 -2.89207 -4.95007 0
M  V30 9826 H 912.531 -3.65916 -4.75631 0
M  V30 9827 H 913.601 -3.50456 -3.35125 0
M  V30 9828 N 914.944 1.19125 -1.03184 0
M  V30 9829 C 915.854 2.26112 -0.625329 0
M  V30 9830 C 916.87 1.7056 0.344298 0
M  V30 9831 O 918.046 2.0039 0.20144 0
M  V30 9832 C 915.111 3.46697 0.0145169 0
M  V30 9833 C 914.172 4.17419 -1.00299 0
M  V30 9834 C 913.405 5.32247 -0.393581 0
M  V30 9835 O 913.628 5.64724 0.802659 0
M  V30 9836 O 912.562 5.91428 -1.1179 0
M  V30 9837 H 916.388 2.63131 -1.51643 0
M  V30 9838 H 913.973 1.26036 -0.802197 0
M  V30 9839 H 915.855 4.19762 0.371139 0
M  V30 9840 H 914.53 3.11521 0.879581 0
M  V30 9841 H 913.437 3.4646 -1.41125 0
M  V30 9842 H 914.77 4.56573 -1.83852 0
M  V30 9843 N 916.422 0.810101 1.35185 0
M  V30 9844 C 917.369 0.220927 2.2974 0
M  V30 9845 C 918.339 -0.647024 1.5298 0
M  V30 9846 O 919.524 -0.591367 1.81404 0
M  V30 9847 C 916.664 -0.62167 3.39454 0
M  V30 9848 C 915.777 0.267104 4.31173 0
M  V30 9849 C 914.912 -0.583833 5.27982 0
M  V30 9850 C 913.951 0.305123 6.11339 0
M  V30 9851 N 913.088 -0.505992 7.00274 0
M  V30 9852 H 917.928 1.03266 2.79536 0
M  V30 9853 H 915.465 0.520768 1.37573 0
M  V30 9854 H 917.423 -1.12539 4.01735 0
M  V30 9855 H 916.053 -1.39863 2.90926 0
M  V30 9856 H 915.105 0.88895 3.69867 0
M  V30 9857 H 916.417 0.951182 4.89647 0
M  V30 9858 H 915.571 -1.15254 5.95652 0
M  V30 9859 H 914.31 -1.30146 4.70014 0
M  V30 9860 H 913.315 0.886075 5.42613 0
M  V30 9861 H 914.54 1.02067 6.71386 0
M  V30 9862 H 912.486 -1.20753 6.4479 0
M  V30 9863 H 912.403 0.119966 7.55905 0
M  V30 9864 H 913.671 -1.05787 7.72288 0
M  V30 9865 N 917.9 -1.47166 0.563914 0
M  V30 9866 C 918.863 -2.28571 -0.169624 0
M  V30 9867 C 919.863 -1.37331 -0.836467 0
M  V30 9868 O 921.053 -1.59896 -0.6913 0
M  V30 9869 C 918.185 -3.17201 -1.24886 0
M  V30 9870 H 919.378 -2.94896 0.545539 0
M  V30 9871 H 916.931 -1.52966 0.321121 0
M  V30 9872 H 917.666 -2.55582 -1.99621 0
M  V30 9873 H 917.451 -3.84356 -0.775426 0
M  V30 9874 H 918.941 -3.7852 -1.76388 0
M  V30 9875 N 919.378 -0.300708 -1.54705 0
M  V30 9876 C 920.308 0.568675 -2.26469 0
M  V30 9877 C 921.289 1.13817 -1.26411 0
M  V30 9878 O 922.474 1.16756 -1.55183 0
M  V30 9879 C 919.604 1.74077 -3.00524 0
M  V30 9880 C 918.558 1.30165 -4.07727 0
M  V30 9881 C 917.884 2.55888 -4.69495 0
M  V30 9882 C 919.184 0.433106 -5.20501 0
M  V30 9883 H 920.878 -0.0298851 -2.99385 0
M  V30 9884 H 918.424 -0.0158135 -1.43991 0
M  V30 9885 H 920.377 2.35506 -3.49449 0
M  V30 9886 H 919.101 2.36556 -2.25186 0
M  V30 9887 H 917.76 0.710414 -3.59651 0
M  V30 9888 H 917.408 3.16681 -3.90797 0
M  V30 9889 H 917.108 2.27207 -5.41895 0
M  V30 9890 H 918.632 3.18121 -5.21183 0
M  V30 9891 H 920.046 0.95307 -5.65322 0
M  V30 9892 H 918.443 0.240085 -5.9962 0
M  V30 9893 H 919.513 -0.541866 -4.81863 0
M  V30 9894 N 920.856 1.57574 -0.0284266 0
M  V30 9895 C 921.766 2.13637 0.96936 0
M  V30 9896 C 922.782 1.08845 1.35752 0
M  V30 9897 O 923.958 1.40899 1.43908 0
M  V30 9898 C 921.023 2.65179 2.2334 0
M  V30 9899 C 920.084 3.84683 1.90572 0
M  V30 9900 C 919.317 4.33758 3.1095 0
M  V30 9901 O 919.54 3.82009 4.23586 0
M  V30 9902 O 918.474 5.2561 2.93288 0
M  V30 9903 H 922.3 2.99169 0.52267 0
M  V30 9904 H 919.885 1.48159 0.192135 0
M  V30 9905 H 921.767 2.98402 2.97547 0
M  V30 9906 H 920.442 1.82731 2.67191 0
M  V30 9907 H 919.349 3.56386 1.13753 0
M  V30 9908 H 920.682 4.68292 1.51538 0
M  V30 9909 N 922.334 -0.244713 1.55689 0
M  V30 9910 C 923.564 -0.988508 1.81417 0
M  V30 9911 C 923.972 -1.79362 0.602143 0
M  V30 9912 O 923.315 -1.78386 -0.438639 0
M  V30 9913 C 923.377 -1.97287 3.0053 0
M  V30 9914 C 923.041 -1.35448 4.36466 0
M  V30 9915 C 924.038 -0.755874 5.14376 0
M  V30 9916 C 921.723 -1.37319 4.83165 0
M  V30 9917 C 923.717 -0.184218 6.37134 0
M  V30 9918 C 921.404 -0.797681 6.05871 0
M  V30 9919 C 922.402 -0.204224 6.82695 0
M  V30 9920 O 922.09 0.362392 8.03083 0
M  V30 9921 H 921.822 -0.296412 0.607549 0
M  V30 9922 H 924.376 -0.272185 2.03589 0
M  V30 9923 H 922.606 -2.72756 2.74119 0
M  V30 9924 H 924.295 -2.58028 3.13331 0
M  V30 9925 H 925.061 -0.733912 4.79415 0
M  V30 9926 H 920.94 -1.8245 4.23359 0
M  V30 9927 H 924.484 0.279624 6.97039 0
M  V30 9928 H 920.381 -0.816978 6.40309 0
M  V30 9929 H 921.149 0.254467 8.18104 0
M  V30 9930 N 923.813 -1.49104 -0.510467 0
M  V30 9931 C 924.743 -1.67981 -1.62187 0
M  V30 9932 C 925.724 -0.528529 -1.6168 0
M  V30 9933 O 926.909 -0.763305 -1.7857 0
M  V30 9934 C 924.039 -1.73755 -3.0071 0
M  V30 9935 C 922.993 -2.88579 -3.1608 0
M  V30 9936 C 922.319 -2.79457 -4.5586 0
M  V30 9937 C 923.619 -4.29638 -2.97 0
M  V30 9938 H 925.313 -2.61029 -1.46643 0
M  V30 9939 H 922.859 -1.25615 -0.704042 0
M  V30 9940 H 924.812 -1.85548 -3.78352 0
M  V30 9941 H 923.536 -0.772996 -3.17321 0
M  V30 9942 H 922.195 -2.76372 -2.40861 0
M  V30 9943 H 921.843 -1.80929 -4.69333 0
M  V30 9944 H 921.543 -3.56518 -4.67086 0
M  V30 9945 H 923.067 -2.93245 -5.35574 0
M  V30 9946 H 924.481 -4.42575 -3.64418 0
M  V30 9947 H 922.878 -5.07847 -3.19704 0
M  V30 9948 H 923.948 -4.44741 -1.93219 0
M  V30 9949 N 925.291 0.760815 -1.38019 0
M  V30 9950 C 926.707 1.06289 -1.19058 0
M  V30 9951 C 926.907 2.01471 -0.0342603 0
M  V30 9952 O 925.963 2.44713 0.62224 0
M  V30 9953 C 927.276 1.6499 -2.51394 0
M  V30 9954 C 928.824 1.77196 -2.58013 0
M  V30 9955 C 929.299 2.3931 -3.90506 0
M  V30 9956 N 930.79 2.46749 -3.92007 0
M  V30 9957 C 931.525 2.95687 -4.91281 0
M  V30 9958 N 931.021 3.44715 -6.00952 0
M  V30 9959 N 932.814 2.94661 -4.78677 0
M  V30 9960 H 924.965 0.129045 -2.12008 0
M  V30 9961 H 927.228 0.119878 -0.94039 0
M  V30 9962 H 926.934 1.0252 -3.36426 0
M  V30 9963 H 926.808 2.64146 -2.6927 0
M  V30 9964 H 929.195 2.38796 -1.7338 0
M  V30 9965 H 929.276 0.767645 -2.4401 0
M  V30 9966 H 928.92 1.78346 -4.75558 0
M  V30 9967 H 928.85 3.40369 -4.01817 0
M  V30 9968 H 931.341 2.12064 -3.12789 0
M  V30 9969 H 931.654 3.80492 -6.72641 0
M  V30 9970 H 929.999 3.42791 -6.04582 0
M  V30 9971 H 933.19 2.55665 -3.92113 0
M  V30 9972 H 933.363 3.32489 -5.56197 0
M  V30 9973 N 926.769 1.22769 0.988202 0
M  V30 9974 C 927.701 0.959757 2.08138 0
M  V30 9975 C 928.714 -0.0633787 1.62677 0
M  V30 9976 O 929.903 0.171203 1.77677 0
M  V30 9977 C 927.003 0.422724 3.36253 0
M  V30 9978 C 926.176 1.50419 4.10722 0
M  V30 9979 C 925.235 0.973407 5.17118 0
M  V30 9980 O 924.261 1.66066 5.44436 0
M  V30 9981 N 925.463 -0.202787 5.80146 0
M  V30 9982 H 928.228 1.9009 2.31702 0
M  V30 9983 H 925.789 1.13522 1.15431 0
M  V30 9984 H 927.781 0.0528514 4.04665 0
M  V30 9985 H 926.351 -0.423642 3.09716 0
M  V30 9986 H 925.571 2.04718 3.36874 0
M  V30 9987 H 926.859 2.23169 4.57245 0
M  V30 9988 H 926.257 -0.777856 5.60327 0
M  V30 9989 H 924.814 -0.513998 6.4977 0
M  V30 9990 N 928.247 -1.18576 1.03814 0
M  V30 9991 C 929.496 -1.87822 0.735235 0
M  V30 9992 C 929.809 -1.81069 -0.739819 0
M  V30 9993 O 931.015 -2.45654 -1.15614 0
M  V30 9994 C 929.471 -3.36941 1.26486 0
M  V30 9995 C 929.079 -3.5223 2.76836 0
M  V30 9996 C 930.823 -4.11604 1.03836 0
M  V30 9997 C 928.73 -4.95294 3.23169 0
M  V30 9998 H 927.66 -0.703487 0.271333 0
M  V30 9999 H 930.311 -1.34 1.25365 0
M  V30 10000 H 928.693 -3.90217 0.674318 0
M  V30 10001 H 929.867 -3.09239 3.41625 0
M  V30 10002 H 928.182 -2.90969 2.97869 0
M  V30 10003 H 930.779 -5.17123 1.3597 0
M  V30 10004 H 931.122 -4.16293 -0.0244945 0
M  V30 10005 H 931.655 -3.64494 1.59338 0
M  V30 10006 H 928.394 -4.95772 4.28824 0
M  V30 10007 H 927.914 -5.3901 2.63113 0
M  V30 10008 H 929.593 -5.63996 3.17045 0
M  V30 10009 N 929.725 -0.817259 -1.34754 0
M  V30 10010 C 930.972 -0.402648 -1.98457 0
M  V30 10011 C 931.3 1.03287 -1.64809 0
M  V30 10012 O 930.555 1.73316 -0.908851 0
M  V30 10013 C 930.854 -0.5453 -3.53216 0
M  V30 10014 C 930.52 -1.9457 -4.06759 0
M  V30 10015 C 929.182 -2.32881 -4.21094 0
M  V30 10016 C 931.534 -2.86141 -4.35629 0
M  V30 10017 C 928.862 -3.62108 -4.61622 0
M  V30 10018 C 931.214 -4.14826 -4.776 0
M  V30 10019 C 929.878 -4.53121 -4.9014 0
M  V30 10020 H 929.148 -0.147339 -0.726204 0
M  V30 10021 H 931.795 -1.04011 -1.60791 0
M  V30 10022 H 930.1 0.175576 -3.91406 0
M  V30 10023 H 931.797 -0.205112 -4.00475 0
M  V30 10024 H 928.387 -1.6381 -3.96061 0
M  V30 10025 H 932.571 -2.57788 -4.24098 0
M  V30 10026 H 927.827 -3.91613 -4.69521 0
M  V30 10027 H 932.001 -4.85874 -4.98899 0
M  V30 10028 H 929.628 -5.53307 -5.21302 0
M  V30 10029 N 931.203 1.46865 -0.571711 0
M  V30 10030 C 932.619 1.57897 -0.23255 0
M  V30 10031 C 932.819 1.56836 1.26509 0
M  V30 10032 O 931.875 1.47947 2.04617 0
M  V30 10033 C 933.188 2.87778 -0.872036 0
M  V30 10034 C 934.736 3.01389 -0.844605 0
M  V30 10035 C 935.211 4.33991 -1.46343 0
M  V30 10036 N 936.702 4.40662 -1.42727 0
M  V30 10037 C 937.437 5.41858 -1.87557 0
M  V30 10038 N 936.933 6.49787 -2.4031 0
M  V30 10039 N 938.726 5.32992 -1.7854 0
M  V30 10040 H 930.877 1.45798 -1.54457 0
M  V30 10041 H 933.14 0.694785 -0.644964 0
M  V30 10042 H 932.846 2.94332 -1.92513 0
M  V30 10043 H 932.72 3.75345 -0.373677 0
M  V30 10044 H 935.107 2.94423 0.19984 0
M  V30 10045 H 935.188 2.15327 -1.38087 0
M  V30 10046 H 934.832 4.41714 -2.50701 0
M  V30 10047 H 934.762 5.18809 -0.902479 0
M  V30 10048 H 937.253 3.63263 -1.04155 0
M  V30 10049 H 937.566 7.23199 -2.72403 0
M  V30 10050 H 935.911 6.50637 -2.44329 0
M  V30 10051 H 939.102 4.47575 -1.37093 0
M  V30 10052 H 939.275 6.11716 -2.13794 0
M  V30 10053 N 932.681 0.308908 1.54543 0
M  V30 10054 C 933.611 -0.556657 2.26768 0
M  V30 10055 C 934.592 -1.13145 1.27013 0
M  V30 10056 O 935.777 -1.15931 1.558 0
M  V30 10057 C 932.907 -1.72481 3.01443 0
M  V30 10058 C 931.861 -1.28001 4.08411 0
M  V30 10059 C 931.187 -2.53395 4.70845 0
M  V30 10060 C 932.487 -0.405497 5.20724 0
M  V30 10061 H 934.181 0.0457618 2.99365 0
M  V30 10062 H 931.727 0.0234495 1.43981 0
M  V30 10063 H 933.68 -2.3365 3.50693 0
M  V30 10064 H 932.404 -2.35359 2.26437 0
M  V30 10065 H 931.063 -0.69133 3.60022 0
M  V30 10066 H 930.711 -3.14604 3.92471 0
M  V30 10067 H 930.411 -2.2433 5.43093 0
M  V30 10068 H 931.935 -3.15352 5.22863 0
M  V30 10069 H 933.349 -0.923076 5.6582 0
M  V30 10070 H 931.746 -0.208282 5.99738 0
M  V30 10071 H 932.816 0.567412 4.81569 0
M  V30 10072 N 934.159 -1.57557 0.0367827 0
M  V30 10073 C 935.384 -1.96828 -0.653707 0
M  V30 10074 C 935.809 -0.913559 -1.64425 0
M  V30 10075 O 935.167 0.124749 -1.8087 0
M  V30 10076 C 935.215 -3.35189 -1.32969 0
M  V30 10077 O 934.319 -3.32095 -2.44513 0
M  V30 10078 H 933.66 -0.64157 -0.171124 0
M  V30 10079 H 936.19 -2.04351 0.100912 0
M  V30 10080 H 936.2 -3.71593 -1.68472 0
M  V30 10081 H 934.875 -4.11496 -0.603654 0
M  V30 10082 H 933.452 -3.07418 -2.11065 0
M  V30 10083 N 935.637 0.236453 -1.55816 0
M  V30 10084 C 936.547 1.31418 -1.94336 0
M  V30 10085 C 937.563 1.52095 -0.845164 0
M  V30 10086 O 938.739 1.65515 -1.14746 0
M  V30 10087 C 935.804 2.6468 -2.23932 0
M  V30 10088 C 934.865 2.52435 -3.47239 0
M  V30 10089 C 934.098 3.79342 -3.75414 0
M  V30 10090 O 934.321 4.81694 -3.05495 0
M  V30 10091 O 933.255 3.77347 -4.68927 0
M  V30 10092 H 937.081 1.01739 -2.86152 0
M  V30 10093 H 934.666 0.438084 -1.42833 0
M  V30 10094 H 936.548 3.4341 -2.44228 0
M  V30 10095 H 935.223 2.94071 -1.35292 0
M  V30 10096 H 934.13 1.71955 -3.32238 0
M  V30 10097 H 935.463 2.27987 -4.36214 0
M  V30 10098 N 937.115 1.49373 0.502552 0
M  V30 10099 C 938.078 1.65413 1.58654 0
M  V30 10100 C 939.078 0.526003 1.51953 0
M  V30 10101 O 940.268 0.792421 1.55133 0
M  V30 10102 C 937.4 1.65005 2.98306 0
M  V30 10103 H 938.593 2.62095 1.45762 0
M  V30 10104 H 936.146 1.38381 0.726672 0
M  V30 10105 H 936.881 0.699014 3.16677 0
M  V30 10106 H 936.666 2.46931 3.04578 0
M  V30 10107 H 938.156 1.79477 3.77065 0
M  V30 10108 N 938.594 -0.753485 1.38421 0
M  V30 10109 C 939.526 -1.87692 1.31547 0
M  V30 10110 C 940.539 -1.612 0.227671 0
M  V30 10111 O 941.728 -1.71778 0.485238 0
M  V30 10112 C 938.828 -3.23329 1.01545 0
M  V30 10113 C 938.001 -3.77324 2.21236 0
M  V30 10114 C 937.06 -4.91478 1.87977 0
M  V30 10115 O 936.086 -5.06106 2.60472 0
M  V30 10116 N 937.288 -5.74466 0.834796 0
M  V30 10117 H 940.053 -1.94099 2.28354 0
M  V30 10118 H 937.614 -0.933421 1.32283 0
M  V30 10119 H 939.606 -3.9724 0.773477 0
M  V30 10120 H 938.176 -3.12307 0.135334 0
M  V30 10121 H 937.396 -2.94978 2.61498 0
M  V30 10122 H 938.684 -4.10131 3.01115 0
M  V30 10123 H 938.082 -5.65217 0.233606 0
M  V30 10124 H 936.639 -6.48524 0.652703 0
M  V30 10125 N 940.072 -1.23292 -0.981677 0
M  V30 10126 C 941.002 -1.03738 -2.09191 0
M  V30 10127 C 941.983 0.0453041 -1.7004 0
M  V30 10128 O 943.168 -0.119092 -1.93834 0
M  V30 10129 C 940.298 -0.626426 -3.41604 0
M  V30 10130 C 939.252 -1.65631 -3.94652 0
M  V30 10131 C 938.578 -1.10084 -5.23245 0
M  V30 10132 C 939.878 -3.04903 -4.24066 0
M  V30 10133 H 941.572 -1.966 -2.25807 0
M  V30 10134 H 939.118 -0.946656 -1.0851 0
M  V30 10135 H 941.071 -0.476689 -4.18695 0
M  V30 10136 H 939.795 0.337873 -3.24848 0
M  V30 10137 H 938.454 -1.79402 -3.19704 0
M  V30 10138 H 938.102 -0.127562 -5.02838 0
M  V30 10139 H 937.802 -1.78896 -5.59705 0
M  V30 10140 H 939.326 -0.962928 -6.02959 0
M  V30 10141 H 940.74 -2.94441 -4.91912 0
M  V30 10142 H 939.137 -3.70941 -4.71724 0
M  V30 10143 H 940.207 -3.53991 -3.31389 0
M  V30 10144 N 941.55 1.18024 -1.04442 0
M  V30 10145 C 942.966 1.40107 -0.76435 0
M  V30 10146 C 943.166 1.90914 0.644516 0
M  V30 10147 O 942.222 2.0959 1.40813 0
M  V30 10148 C 943.535 2.39851 -1.81361 0
M  V30 10149 C 945.083 2.53571 -1.83496 0
M  V30 10150 C 945.558 3.56583 -2.87424 0
M  V30 10151 N 947.049 3.64094 -2.86339 0
M  V30 10152 C 947.784 4.43537 -3.63405 0
M  V30 10153 N 947.28 5.26557 -4.50233 0
M  V30 10154 N 949.073 4.38336 -3.51877 0
M  V30 10155 H 941.224 0.833726 -1.95353 0
M  V30 10156 H 943.487 0.42881 -0.845474 0
M  V30 10157 H 943.193 2.09576 -2.82438 0
M  V30 10158 H 943.067 3.39251 -1.6489 0
M  V30 10159 H 945.454 2.83161 -0.830883 0
M  V30 10160 H 945.535 1.54272 -2.04044 0
M  V30 10161 H 945.179 3.27733 -3.88012 0
M  V30 10162 H 945.109 4.55569 -2.6413 0
M  V30 10163 H 947.6 3.04814 -2.23376 0
M  V30 10164 H 947.913 5.84336 -5.05738 0
M  V30 10165 H 946.258 5.25964 -4.54298 0
M  V30 10166 H 949.449 3.72528 -2.83444 0
M  V30 10167 H 949.622 5.00007 -4.12186 0
M  V30 10168 N 943.028 0.824394 1.34319 0
M  V30 10169 C 943.96 0.204805 2.28283 0
M  V30 10170 C 944.973 -0.606162 1.51094 0
M  V30 10171 O 946.162 -0.435602 1.73103 0
M  V30 10172 C 943.262 -0.73139 3.30914 0
M  V30 10173 C 942.435 0.0370723 4.37384 0
M  V30 10174 C 941.494 -0.820272 5.19767 0
M  V30 10175 O 940.52 -0.264721 5.68584 0
M  V30 10176 N 941.722 -2.13984 5.39621 0
M  V30 10177 H 944.487 1.0121 2.82093 0
M  V30 10178 H 942.048 0.681494 1.46858 0
M  V30 10179 H 944.04 -1.30958 3.82926 0
M  V30 10180 H 942.61 -1.43943 2.77487 0
M  V30 10181 H 941.83 0.796578 3.86068 0
M  V30 10182 H 943.118 0.566014 5.05642 0
M  V30 10183 H 942.516 -2.61492 5.01636 0
M  V30 10184 H 941.073 -2.66685 5.94746 0
M  V30 10185 N 944.506 -1.46559 0.579492 0
M  V30 10186 C 945.753 -2.02399 0.0638418 0
M  V30 10187 C 946.081 -1.45135 -1.29484 0
M  V30 10188 O 945.336 -0.605061 -1.86112 0
M  V30 10189 C 945.635 -3.57357 -0.0552803 0
M  V30 10190 C 945.301 -4.33646 1.23539 0
M  V30 10191 C 943.963 -4.54207 1.589 0
M  V30 10192 C 946.315 -4.77476 2.08965 0
M  V30 10193 C 943.643 -5.1585 2.79492 0
M  V30 10194 C 945.995 -5.4045 3.2878 0
M  V30 10195 C 944.659 -5.5924 3.64427 0
M  V30 10196 H 943.929 -0.740632 0.0233614 0
M  V30 10197 H 946.576 -1.75968 0.755482 0
M  V30 10198 H 944.881 -3.82907 -0.83003 0
M  V30 10199 H 946.578 -3.98237 -0.469964 0
M  V30 10200 H 943.168 -4.17937 0.9501 0
M  V30 10201 H 947.352 -4.61349 1.8295 0
M  V30 10202 H 942.608 -5.28589 3.07252 0
M  V30 10203 H 946.782 -5.73371 3.95245 0
M  V30 10204 H 944.409 -6.06775 4.57961 0
M  V30 10205 N 945.984 -0.3171 -1.54377 0
M  V30 10206 C 947.212 0.289558 -2.04864 0
M  V30 10207 C 947.627 1.46284 -1.19359 0
M  V30 10208 O 946.984 1.81135 -0.222795 0
M  V30 10209 C 947.035 0.730273 -3.54047 0
M  V30 10210 O 946.756 -0.396325 -4.36304 0
M  V30 10211 C 948.257 1.40041 -4.20599 0
M  V30 10212 H 945.477 0.0605836 -0.668259 0
M  V30 10213 H 948.021 -0.461411 -1.99227 0
M  V30 10214 H 946.176 1.43123 -3.59992 0
M  V30 10215 H 946.59 -0.0502901 -5.24476 0
M  V30 10216 H 948.064 1.65979 -5.26455 0
M  V30 10217 H 948.541 2.34565 -3.71316 0
M  V30 10218 H 949.147 0.742206 -4.18774 0
M  V30 10219 N 947.462 1.57535 -0.0451378 0
M  V30 10220 C 948.392 2.14208 0.929372 0
M  V30 10221 C 949.373 1.06221 1.32858 0
M  V30 10222 O 950.558 1.34132 1.40436 0
M  V30 10223 C 947.688 2.68217 2.20629 0
M  V30 10224 C 946.642 3.81134 1.94734 0
M  V30 10225 C 945.968 4.21636 3.28828 0
M  V30 10226 C 947.268 5.06531 1.27374 0
M  V30 10227 H 948.962 2.95886 0.457348 0
M  V30 10228 H 946.508 1.42332 0.218544 0
M  V30 10229 H 948.461 3.06502 2.89196 0
M  V30 10230 H 947.185 1.83722 2.70026 0
M  V30 10231 H 945.844 3.43312 1.28579 0
M  V30 10232 H 945.492 3.34099 3.76014 0
M  V30 10233 H 945.192 4.97736 3.12302 0
M  V30 10234 H 946.716 4.62516 3.98637 0
M  V30 10235 H 948.13 5.423 1.85967 0
M  V30 10236 H 946.527 5.87735 1.21194 0
M  V30 10237 H 947.597 4.84261 0.248913 0
M  V30 10238 N 948.94 -0.228186 1.55939 0
M  V30 10239 C 949.903 -1.26621 1.91049 0
M  V30 10240 C 950.903 -1.40141 0.788491 0
M  V30 10241 O 952.093 -1.3852 1.05631 0
M  V30 10242 C 949.225 -2.64108 2.15545 0
M  V30 10243 H 950.418 -0.966978 2.83883 0
M  V30 10244 H 947.971 -0.468313 1.49119 0
M  V30 10245 H 948.706 -2.99141 1.25241 0
M  V30 10246 H 948.491 -2.55673 2.97277 0
M  V30 10247 H 949.981 -3.39025 2.43827 0
M  V30 10248 N 950.418 -1.49637 -0.494624 0
M  V30 10249 C 951.348 -1.69692 -1.60396 0
M  V30 10250 C 952.329 -0.545648 -1.61111 0
M  V30 10251 O 953.514 -0.782202 -1.77751 0
M  V30 10252 C 950.644 -1.76934 -2.9885 0
M  V30 10253 C 949.598 -2.91915 -3.13001 0
M  V30 10254 C 948.924 -2.84276 -4.5287 0
M  V30 10255 C 950.224 -4.32764 -2.92426 0
M  V30 10256 H 951.918 -2.6257 -1.43866 0
M  V30 10257 H 949.464 -1.26355 -0.690679 0
M  V30 10258 H 951.417 -1.8955 -3.76362 0
M  V30 10259 H 950.141 -0.806609 -3.16483 0
M  V30 10260 H 948.8 -2.78911 -2.37916 0
M  V30 10261 H 948.448 -1.85897 -4.67388 0
M  V30 10262 H 948.148 -3.61452 -4.63278 0
M  V30 10263 H 949.672 -2.98909 -5.32434 0
M  V30 10264 H 951.086 -4.46415 -3.59703 0
M  V30 10265 H 949.483 -5.1121 -3.143 0
M  V30 10266 H 950.553 -4.46765 -1.88491 0
M  V30 10267 N 951.896 0.746133 -1.38819 0
M  V30 10268 C 953.144 1.50247 -1.35167 0
M  V30 10269 C 953.465 1.94921 0.0553531 0
M  V30 10270 O 952.735 1.68187 1.00449 0
M  V30 10271 H 951.315 0.557337 -0.497377 0
M  V30 10272 H 953.977 0.886472 -1.73573 0
M  V30 10273 H 953.073 2.38986 -2.00728 0
M  V30 10274 N 953.375 1.23811 0.975125 0
M  V30 10275 C 954.603 1.10019 1.75224 0
M  V30 10276 C 955.018 -0.34791 1.85567 0
M  V30 10277 O 954.375 -1.24043 1.33864 0
M  V30 10278 C 954.426 1.72572 3.1765 0
M  V30 10279 O 954.147 3.11719 3.07836 0
M  V30 10280 C 955.648 1.64292 4.11732 0
M  V30 10281 H 952.868 0.38476 0.549728 0
M  V30 10282 H 955.412 1.63768 1.22476 0
M  V30 10283 H 953.567 1.22843 3.67408 0
M  V30 10284 H 953.981 3.42152 3.97533 0
M  V30 10285 H 955.455 2.12754 5.09352 0
M  V30 10286 H 955.932 0.602722 4.35045 0
M  V30 10287 H 956.538 2.13411 3.6788 0
M  V30 10288 N 954.853 -1.17469 1.05066 0
M  V30 10289 C 956.081 -1.9162 0.780334 0
M  V30 10290 C 956.496 -1.76745 -0.663817 0
M  V30 10291 O 955.853 -1.10377 -1.45338 0
M  V30 10292 C 955.904 -3.42723 1.14992 0
M  V30 10293 O 955.625 -3.57139 2.53739 0
M  V30 10294 C 957.126 -4.33952 0.905549 0
M  V30 10295 H 954.346 -0.608022 0.283814 0
M  V30 10296 H 956.89 -1.4897 1.401 0
M  V30 10297 H 955.045 -3.83124 0.57403 0
M  V30 10298 H 955.459 -4.5075 2.68189 0
M  V30 10299 H 956.933 -5.38487 1.21391 0
M  V30 10300 H 957.41 -4.38911 -0.159295 0
M  V30 10301 H 958.016 -3.99263 1.46522 0
M  V30 10302 N 956.331 -0.831506 -1.3388 0
M  V30 10303 C 957.263 -0.216908 -2.28171 0
M  V30 10304 C 958.276 0.598141 -1.51414 0
M  V30 10305 O 959.465 0.426416 -1.73332 0
M  V30 10306 C 956.565 0.713831 -3.31297 0
M  V30 10307 C 955.738 -0.0602673 -4.37358 0
M  V30 10308 C 954.797 0.792696 -5.20195 0
M  V30 10309 O 953.823 0.234564 -5.68716 0
M  V30 10310 N 955.025 2.11119 -5.40748 0
M  V30 10311 H 957.79 -1.02704 -2.81553 0
M  V30 10312 H 955.351 -0.689272 -1.46495 0
M  V30 10313 H 957.343 1.28925 -3.83615 0
M  V30 10314 H 955.913 1.42469 -2.78247 0
M  V30 10315 H 955.133 -0.817041 -3.8564 0
M  V30 10316 H 956.421 -0.592822 -5.05335 0
M  V30 10317 H 955.819 2.58828 -5.03016 0
M  V30 10318 H 954.376 2.63527 -5.96151 0
M  V30 10319 N 957.809 1.4625 -0.587256 0
M  V30 10320 C 959.086 1.95599 -0.00750181 0
M  V30 10321 C 959.466 1.52989 1.45457 0
M  V30 10322 O 958.814 0.782731 2.14676 0
M  V30 10323 C 959.024 3.48513 -0.184309 0
M  V30 10324 C 960.372 4.24565 -0.0544972 0
M  V30 10325 O 961.396 3.5602 -0.113378 0
M  V30 10326 O 960.255 5.46445 0.0774075 0
M  V30 10327 H 957.349 0.825649 0.0472495 0
M  V30 10328 H 959.895 1.56512 -0.655893 0
M  V30 10329 H 958.667 3.72428 -1.20053 0
M  V30 10330 H 958.29 3.9444 0.500301 0
M  V30 10331 N 959.287 0.325282 1.54207 0
M  V30 10332 C 960.197 -0.548778 2.28091 0
M  V30 10333 C 961.213 -1.12772 1.32508 0
M  V30 10334 O 962.389 -1.14732 1.65525 0
M  V30 10335 C 959.454 -1.69284 3.02562 0
M  V30 10336 C 958.515 -1.14553 4.13734 0
M  V30 10337 C 957.748 -2.23506 4.84645 0
M  V30 10338 O 957.971 -3.43884 4.55082 0
M  V30 10339 O 956.905 -1.88828 5.71513 0
M  V30 10340 H 960.731 0.0512974 3.03657 0
M  V30 10341 H 958.316 0.0909159 1.49123 0
M  V30 10342 H 960.198 -2.35887 3.49192 0
M  V30 10343 H 958.873 -2.27906 2.2987 0
M  V30 10344 H 957.78 -0.444532 3.71449 0
M  V30 10345 H 959.113 -0.60441 4.88475 0
M  V30 10346 N 960.765 -1.57509 0.0534917 0
M  V30 10347 C 961.713 -2.12851 -0.937931 0
M  V30 10348 C 962.707 -1.06088 -1.32067 0
M  V30 10349 O 963.913 -1.24494 -1.30005 0
M  V30 10350 H 960.288 -0.680357 -0.320342 0
M  V30 10351 H 962.259 -2.95047 -0.446077 0
M  V30 10352 C 961.008 -2.69034 -2.20264 0
M  V30 10353 H 960.331 -3.50848 -1.91693 0
M  V30 10354 H 961.771 -3.11375 -2.87788 0
M  V30 10355 C 960.23 -1.62919 -2.94888 0
M  V30 10356 O 960.76 -1.04334 -3.87914 0
M  V30 10357 N 958.966 -1.34385 -2.57661 0
M  V30 10358 H 958.513 -1.82214 -1.82088 0
M  V30 10359 H 958.471 -0.636149 -3.07897 0
M  V30 10360 N 962.243 0.219913 -1.56058 0
M  V30 10361 C 963.491 0.942199 -1.78793 0
M  V30 10362 C 963.812 1.84804 -0.622284 0
M  V30 10363 O 963.082 1.9255 0.360735 0
M  V30 10364 H 961.662 0.350895 -0.659455 0
M  V30 10365 H 964.324 0.231376 -1.93522 0
M  V30 10366 H 963.42 1.54804 -2.71002 0
M  V30 10367 N 963.721 1.49897 0.486681 0
M  V30 10368 C 964.668 1.67619 1.58658 0
M  V30 10369 C 965.638 0.517537 1.57831 0
M  V30 10370 O 966.823 0.746272 1.756 0
M  V30 10371 C 963.963 1.762 2.96728 0
M  V30 10372 C 963.076 3.03465 3.07462 0
M  V30 10373 C 962.211 3.02937 4.36351 0
M  V30 10374 C 961.25 4.24721 4.4077 0
M  V30 10375 N 960.387 4.22021 5.61108 0
M  V30 10376 H 965.227 2.61528 1.42853 0
M  V30 10377 H 962.764 1.29657 0.694807 0
M  V30 10378 H 964.722 1.79156 3.76774 0
M  V30 10379 H 963.352 0.857452 3.11203 0
M  V30 10380 H 962.404 3.10054 2.20387 0
M  V30 10381 H 963.716 3.93454 3.06586 0
M  V30 10382 H 962.87 3.04536 5.24731 0
M  V30 10383 H 961.609 2.10751 4.39813 0
M  V30 10384 H 960.614 4.23352 3.5079 0
M  V30 10385 H 961.839 5.18116 4.39013 0
M  V30 10386 H 959.785 3.3268 5.65385 0
M  V30 10387 H 959.702 5.05761 5.61909 0
M  V30 10388 H 960.97 4.27743 6.51656 0
M  V30 10389 N 965.199 -0.738761 1.39212 0
M  V30 10390 C 966.146 -1.85273 1.37631 0
M  V30 10391 C 967.116 -1.64407 0.236572 0
M  V30 10392 O 968.301 -1.85866 0.431104 0
M  V30 10393 C 965.441 -3.22745 1.22188 0
M  V30 10394 C 964.554 -3.55342 2.45674 0
M  V30 10395 C 963.689 -4.82195 2.22847 0
M  V30 10396 C 962.728 -5.07625 3.42029 0
M  V30 10397 N 961.865 -6.25679 3.18543 0
M  V30 10398 H 966.705 -1.85959 2.32859 0
M  V30 10399 H 964.242 -0.908716 1.15675 0
M  V30 10400 H 966.2 -4.02095 1.11245 0
M  V30 10401 H 964.83 -3.21347 0.30592 0
M  V30 10402 H 963.882 -2.70722 2.67233 0
M  V30 10403 H 965.194 -3.70054 3.34457 0
M  V30 10404 H 964.348 -5.69518 2.09126 0
M  V30 10405 H 963.087 -4.6965 1.31454 0
M  V30 10406 H 962.092 -4.18765 3.56253 0
M  V30 10407 H 963.317 -5.22058 4.34319 0
M  V30 10408 H 961.263 -6.14429 2.2981 0
M  V30 10409 H 961.18 -6.40961 4.0088 0
M  V30 10410 H 962.448 -7.15851 3.08508 0
M  V30 10411 N 966.677 -1.24326 -0.968545 0
M  V30 10412 C 967.609 -0.992749 -2.06584 0
M  V30 10413 C 968.622 0.0374902 -1.62757 0
M  V30 10414 O 969.811 -0.199448 -1.77382 0
M  V30 10415 C 966.911 -0.476165 -3.35538 0
M  V30 10416 C 966.084 -1.56934 -4.08277 0
M  V30 10417 C 965.143 -1.05555 -5.15504 0
M  V30 10418 O 964.169 -1.74707 -5.41725 0
M  V30 10419 N 965.371 0.110465 -5.80395 0
M  V30 10420 H 968.136 -1.93752 -2.28649 0
M  V30 10421 H 965.697 -1.15344 -1.13611 0
M  V30 10422 H 967.689 -0.117223 -4.0453 0
M  V30 10423 H 966.259 0.374315 -3.10351 0
M  V30 10424 H 965.479 -2.10051 -3.33575 0
M  V30 10425 H 966.767 -2.30415 -4.53637 0
M  V30 10426 H 966.165 0.688614 -5.61493 0
M  V30 10427 H 964.722 0.41056 -6.50506 0
M  V30 10428 N 968.156 1.1691 -1.05688 0
M  V30 10429 C 969.086 2.23275 -0.683402 0
M  V30 10430 C 970.067 1.6704 0.321206 0
M  V30 10431 O 971.252 1.93191 0.197691 0
M  V30 10432 C 968.382 3.47244 -0.0626006 0
M  V30 10433 C 967.336 4.16333 -0.992513 0
M  V30 10434 C 966.662 5.34182 -0.23533 0
M  V30 10435 C 967.962 4.68002 -2.31886 0
M  V30 10436 H 969.656 2.54771 -1.57264 0
M  V30 10437 H 967.202 1.2246 -0.757606 0
M  V30 10438 H 969.155 4.20874 0.210503 0
M  V30 10439 H 967.879 3.1503 0.861616 0
M  V30 10440 H 966.538 3.44622 -1.25026 0
M  V30 10441 H 966.186 4.9822 0.69181 0
M  V30 10442 H 965.886 5.81346 -0.855002 0
M  V30 10443 H 967.41 6.10592 0.0303717 0
M  V30 10444 H 968.824 5.33244 -2.10531 0
M  V30 10445 H 967.221 5.25764 -2.89296 0
M  V30 10446 H 968.291 3.84541 -2.95391 0
M  V30 10447 N 969.634 0.838594 1.33437 0
M  V30 10448 C 971.045 0.490934 1.8013 0
M  V30 10449 C 971.396 -0.990024 1.6939 0
M  V30 10450 O 970.521 -1.77139 1.24302 0
M  V30 10451 C 971.116 0.884347 3.27055 0
M  V30 10452 C 969.675 0.588829 3.71766 0
M  V30 10453 C 968.822 1.09282 2.54858 0
M  V30 10454 H 971.773 1.02732 1.20962 0
M  V30 10455 H 971.794 0.194283 3.80004 0
M  V30 10456 H 971.306 1.96225 3.34839 0
M  V30 10457 H 969.407 -0.479018 3.69508 0
M  V30 10458 H 969.52 1.14387 4.65245 0
M  V30 10459 H 967.884 0.513702 2.49466 0
M  V30 10460 H 968.667 2.1775 2.65405 0
M  V30 10461 N 971.112 -1.45937 0.595003 0
M  V30 10462 C 972.389 -1.95592 0.0178748 0
M  V30 10463 C 972.769 -1.53758 -1.44643 0
M  V30 10464 O 972.117 -0.794104 -2.14257 0
M  V30 10465 C 972.327 -3.4841 0.202789 0
M  V30 10466 C 973.675 -4.2453 0.0770121 0
M  V30 10467 O 974.699 -3.55954 0.132257 0
M  V30 10468 O 973.558 -5.46479 -0.0484271 0
M  V30 10469 H 970.652 -0.825888 -0.0428702 0
M  V30 10470 H 973.198 -1.56162 0.664184 0
M  V30 10471 H 971.97 -3.71787 1.22027 0
M  V30 10472 H 971.593 -3.947 -0.479376 0
M  V30 10473 N 972.59 -0.333456 -1.54032 0
M  V30 10474 C 973.83 0.266604 -2.02654 0
M  V30 10475 C 974.194 1.48568 -1.21621 0
M  V30 10476 O 975.395 2.15925 -1.60093 0
M  V30 10477 C 973.666 0.582825 -3.52616 0
M  V30 10478 S 975.225 1.16113 -4.23159 0
M  V30 10479 H 972.043 0.0800344 -0.706481 0
M  V30 10480 H 974.645 -0.468876 -1.89794 0
M  V30 10481 H 973.349 -0.312401 -4.09209 0
M  V30 10482 H 972.88 1.34824 -3.69576 0
M  V30 10483 H 974.895 2.44743 -4.31642 0
M  V30 10484 N 974.068 1.57479 -0.061844 0
M  V30 10485 C 975.317 1.92285 0.609055 0
M  V30 10486 C 975.63 0.942983 1.71369 0
M  V30 10487 O 976.836 1.18349 2.44348 0
M  V30 10488 C 975.292 3.41545 1.13468 0
M  V30 10489 C 974.9 4.47958 0.0615926 0
M  V30 10490 C 976.644 3.85368 1.78022 0
M  V30 10491 C 974.551 5.88341 0.600705 0
M  V30 10492 H 973.481 0.717656 0.23127 0
M  V30 10493 H 976.132 1.83021 -0.132466 0
M  V30 10494 H 974.514 3.45848 1.92886 0
M  V30 10495 H 975.688 4.55258 -0.712527 0
M  V30 10496 H 974.003 4.13541 -0.487116 0
M  V30 10497 H 976.6 4.87627 2.19371 0
M  V30 10498 H 976.943 3.22193 2.63623 0
M  V30 10499 H 977.476 3.83626 1.05242 0
M  V30 10500 H 974.215 6.55138 -0.217922 0
M  V30 10501 H 973.735 5.84581 1.34257 0
M  V30 10502 H 975.414 6.37918 1.08025 0
M  V30 10503 N 975.546 -0.211634 1.56173 0
M  V30 10504 C 976.792 -0.935935 1.79911 0
M  V30 10505 C 977.125 -1.83589 0.633155 0
M  V30 10506 O 976.4 -1.91004 -0.367132 0
M  V30 10507 C 976.683 -1.76638 3.13801 0
M  V30 10508 C 976.536 -0.892259 4.40861 0
M  V30 10509 C 977.855 -2.74224 3.44223 0
M  V30 10510 H 974.974 -0.338822 0.654499 0
M  V30 10511 H 977.616 -0.20422 1.88899 0
M  V30 10512 H 975.766 -2.39021 3.0627 0
M  V30 10513 H 977.438 -0.284407 4.60422 0
M  V30 10514 H 975.681 -0.198145 4.33347 0
M  V30 10515 H 976.352 -1.50793 5.31004 0
M  V30 10516 H 978.828 -2.21975 3.51946 0
M  V30 10517 H 977.704 -3.29424 4.39057 0
M  V30 10518 H 977.965 -3.52455 2.66885 0
M  V30 10519 N 977.024 -1.50153 -0.478725 0
M  V30 10520 C 978.272 -1.60443 -1.22892 0
M  V30 10521 C 978.593 -0.303276 -1.92627 0
M  V30 10522 O 977.863 0.678798 -1.83764 0
M  V30 10523 H 976.443 -0.591205 -0.456602 0
M  V30 10524 H 979.105 -1.86893 -0.552905 0
M  V30 10525 H 978.201 -2.41175 -1.98094 0
M  V30 10526 N 978.502 0.731368 -1.39602 0
M  V30 10527 C 979.412 1.87579 -1.40894 0
M  V30 10528 C 980.428 1.71336 -0.303319 0
M  V30 10529 O 981.604 1.93875 -0.545377 0
M  V30 10530 C 978.669 3.23211 -1.25442 0
M  V30 10531 C 977.73 3.51822 -2.46008 0
M  V30 10532 C 976.963 4.80982 -2.31284 0
M  V30 10533 O 977.186 5.54958 -1.31824 0
M  V30 10534 O 976.12 5.09574 -3.20341 0
M  V30 10535 H 979.946 1.89444 -2.3737 0
M  V30 10536 H 977.531 0.879675 -1.20756 0
M  V30 10537 H 979.413 4.04257 -1.18972 0
M  V30 10538 H 978.088 3.22108 -0.320637 0
M  V30 10539 H 976.995 2.70847 -2.58055 0
M  V30 10540 H 978.328 3.57707 -3.38093 0
M  V30 10541 N 979.98 1.24838 0.961938 0
M  V30 10542 C 981.257 0.99939 1.68141 0
M  V30 10543 C 981.637 -0.476588 2.0565 0
M  V30 10544 O 980.985 -1.45224 1.76415 0
M  V30 10545 C 981.195 1.92797 2.90913 0
M  V30 10546 C 982.543 2.20219 3.63027 0
M  V30 10547 O 983.567 1.90496 3.00981 0
M  V30 10548 O 982.426 2.70725 4.74731 0
M  V30 10549 H 979.52 0.37842 0.735342 0
M  V30 10550 H 982.066 1.35961 1.01551 0
M  V30 10551 H 980.838 2.92492 2.59931 0
M  V30 10552 H 980.461 1.57127 3.65235 0
M  V30 10553 N 981.458 -1.16348 1.06306 0
M  V30 10554 C 982.706 -1.86512 0.778311 0
M  V30 10555 C 983.027 -1.82107 -0.697273 0
M  V30 10556 O 982.297 -1.2547 -1.50446 0
M  V30 10557 H 980.877 -0.690529 0.284919 0
M  V30 10558 H 983.539 -1.41092 1.34458 0
M  V30 10559 H 982.635 -2.91947 1.10333 0
M  V30 10560 N 982.937 -0.845659 -1.3299 0
M  V30 10561 C 983.867 -0.298957 -2.31578 0
M  V30 10562 C 984.848 0.597012 -1.59279 0
M  V30 10563 O 986.033 0.519142 -1.87132 0
M  V30 10564 C 983.163 0.521109 -3.43368 0
M  V30 10565 C 982.117 -0.279651 -4.27085 0
M  V30 10566 C 981.443 0.664591 -5.30554 0
M  V30 10567 C 982.743 -1.50046 -5.00283 0
M  V30 10568 H 984.437 -1.12272 -2.77552 0
M  V30 10569 H 981.983 -0.54132 -1.33438 0
M  V30 10570 H 983.936 0.913921 -4.1137 0
M  V30 10571 H 982.66 1.37815 -2.96099 0
M  V30 10572 H 981.319 -0.654106 -3.60717 0
M  V30 10573 H 980.967 1.51822 -4.79541 0
M  V30 10574 H 980.667 0.132871 -5.8745 0
M  V30 10575 H 982.191 1.05477 -6.01421 0
M  V30 10576 H 983.605 -1.18044 -5.61016 0
M  V30 10577 H 982.002 -1.96946 -5.66862 0
M  V30 10578 H 983.072 -2.26659 -4.28665 0
M  V30 10579 N 984.415 1.45619 -0.602734 0
M  V30 10580 C 985.664 2.01483 -0.0936395 0
M  V30 10581 C 985.977 1.47753 1.28173 0
M  V30 10582 O 987.183 1.95562 1.88329 0
M  V30 10583 C 985.639 3.59711 -0.116738 0
M  V30 10584 C 985.247 4.22437 -1.49166 0
M  V30 10585 C 986.991 4.23157 0.337368 0
M  V30 10586 C 984.898 5.72803 -1.47141 0
M  V30 10587 H 983.828 0.753353 -0.0312382 0
M  V30 10588 H 986.479 1.67142 -0.757347 0
M  V30 10589 H 984.861 3.91218 0.613529 0
M  V30 10590 H 986.035 4.02511 -2.24325 0
M  V30 10591 H 984.35 3.71166 -1.88746 0
M  V30 10592 H 986.947 5.33407 0.371628 0
M  V30 10593 H 987.29 3.93491 1.35906 0
M  V30 10594 H 987.823 3.96349 -0.339474 0
M  V30 10595 H 984.562 6.07161 -2.47055 0
M  V30 10596 H 984.082 5.94936 -0.762329 0
M  V30 10597 H 985.761 6.35907 -1.19294 0
M  V30 10598 N 985.893 0.34162 1.53853 0
M  V30 10599 C 986.823 -0.508431 2.27897 0
M  V30 10600 C 987.804 -1.10425 1.29384 0
M  V30 10601 O 988.989 -1.126 1.58224 0
M  V30 10602 C 986.119 -1.66048 3.05034 0
M  V30 10603 C 985.073 -1.19309 4.11035 0
M  V30 10604 C 984.399 -2.4335 4.76114 0
M  V30 10605 C 985.699 -0.294952 5.21467 0
M  V30 10606 H 987.393 0.109251 2.99201 0
M  V30 10607 H 984.939 0.0539847 1.43899 0
M  V30 10608 H 986.892 -2.26158 3.5557 0
M  V30 10609 H 985.616 -2.30503 2.31379 0
M  V30 10610 H 984.275 -0.614809 3.61408 0
M  V30 10611 H 983.923 -3.06208 3.99056 0
M  V30 10612 H 983.623 -2.1276 5.47729 0
M  V30 10613 H 985.147 -3.0419 5.29434 0
M  V30 10614 H 986.561 -0.80285 5.67651 0
M  V30 10615 H 984.958 -0.0810221 6.00045 0
M  V30 10616 H 986.028 0.669433 4.80257 0
M  V30 10617 N 987.371 -1.57444 0.0701946 0
M  V30 10618 C 988.599 -1.97754 -0.608358 0
M  V30 10619 C 989.014 -0.948496 -1.63245 0
M  V30 10620 O 988.371 0.065046 -1.82384 0
M  V30 10621 C 988.422 -3.38142 -1.27836 0
M  V30 10622 O 988.143 -4.37104 -0.295255 0
M  V30 10623 C 989.644 -3.93318 -2.04489 0
M  V30 10624 H 986.864 -0.650398 -0.164997 0
M  V30 10625 H 989.408 -2.04006 0.142124 0
M  V30 10626 H 987.563 -3.32982 -1.97994 0
M  V30 10627 H 987.977 -5.18732 -0.77574 0
M  V30 10628 H 989.451 -4.93774 -2.46762 0
M  V30 10629 H 989.928 -3.29774 -2.90079 0
M  V30 10630 H 990.534 -4.01875 -1.39201 0
M  V30 10631 N 988.849 0.203349 -1.56283 0
M  V30 10632 C 990.26 0.768764 -1.70138 0
M  V30 10633 C 990.611 1.8421 -0.675358 0
M  V30 10634 O 989.736 2.15732 0.1699 0
M  V30 10635 C 990.331 1.40123 -3.08466 0
M  V30 10636 C 988.89 1.91382 -3.24114 0
M  V30 10637 C 988.037 0.780685 -2.66084 0
M  V30 10638 H 990.988 -0.0215997 -1.58685 0
M  V30 10639 H 991.009 2.27046 -3.05336 0
M  V30 10640 H 990.521 0.619805 -3.83119 0
M  V30 10641 H 988.622 2.7227 -2.54362 0
M  V30 10642 H 988.735 2.08128 -4.31531 0
M  V30 10643 H 987.099 1.19281 -2.25042 0
M  V30 10644 H 987.882 0.0116351 -3.43298 0
M  V30 10645 N 990.327 1.50405 0.470755 0
M  V30 10646 C 991.257 1.72222 1.57676 0
M  V30 10647 C 992.238 0.57121 1.60222 0
M  V30 10648 O 993.423 0.810381 1.76484 0
M  V30 10649 C 990.553 1.81666 2.95998 0
M  V30 10650 C 989.507 2.96857 3.08318 0
M  V30 10651 C 988.833 2.91445 4.4829 0
M  V30 10652 C 990.133 4.37361 2.85504 0
M  V30 10653 H 991.827 2.64825 1.39671 0
M  V30 10654 H 989.373 1.27438 0.67049 0
M  V30 10655 H 991.326 1.95514 3.73299 0
M  V30 10656 H 990.05 0.856856 3.1516 0
M  V30 10657 H 988.709 2.82661 2.33449 0
M  V30 10658 H 988.357 1.93309 4.64371 0
M  V30 10659 H 988.057 3.68776 4.57469 0
M  V30 10660 H 989.581 3.07341 5.27611 0
M  V30 10661 H 990.995 4.52081 3.52555 0
M  V30 10662 H 989.392 5.16145 3.06127 0
M  V30 10663 H 990.462 4.49708 1.81359 0
M  V30 10664 N 991.805 -0.723954 1.39988 0
M  V30 10665 C 993.053 -1.48078 1.3754 0
M  V30 10666 C 993.374 -1.94985 -0.0243358 0
M  V30 10667 O 992.644 -1.69764 -0.977602 0
M  V30 10668 H 991.224 -0.549354 0.506181 0
M  V30 10669 H 993.886 -0.858746 1.74962 0
M  V30 10670 H 992.982 -2.35763 2.04505 0
M  V30 10671 N 993.283 -1.25346 -0.955304 0
M  V30 10672 C 994.699 -1.02154 -1.22625 0
M  V30 10673 C 994.899 0.26206 -1.99789 0
M  V30 10674 O 993.955 0.974958 -2.32918 0
M  V30 10675 C 995.268 -2.2443 -2.00129 0
M  V30 10676 C 996.816 -2.29185 -2.13174 0
M  V30 10677 C 997.291 -3.51117 -2.94077 0
M  V30 10678 N 998.782 -3.51509 -3.01655 0
M  V30 10679 C 999.517 -4.42517 -3.64645 0
M  V30 10680 N 999.013 -5.43796 -4.29252 0
M  V30 10681 N 1000.81 -4.302 -3.61779 0
M  V30 10682 H 992.957 -2.07812 -0.439071 0
M  V30 10683 H 995.22 -0.91258 -0.256715 0
M  V30 10684 H 994.926 -3.17717 -1.50827 0
M  V30 10685 H 994.8 -2.27548 -3.00835 0
M  V30 10686 H 997.187 -1.36422 -2.61674 0
M  V30 10687 H 997.268 -2.30087 -1.11775 0
M  V30 10688 H 996.912 -4.44201 -2.46268 0
M  V30 10689 H 996.842 -3.4746 -3.95701 0
M  V30 10690 H 999.333 -2.78245 -2.55711 0
M  V30 10691 H 999.646 -6.09453 -4.75171 0
M  V30 10692 H 997.991 -5.4767 -4.27882 0
M  V30 10693 H 1001.18 -3.50304 -3.10491 0
M  V30 10694 H 1001.36 -5.01323 -4.10584 0
M  V30 10695 N 994.761 1.15782 -1.06922 0
M  V30 10696 C 995.991 1.90079 -0.809545 0
M  V30 10697 C 996.399 1.78028 0.640523 0
M  V30 10698 O 995.742 1.12692 1.45073 0
M  V30 10699 C 995.804 3.41179 -1.13302 0
M  V30 10700 C 995.468 3.77015 -2.5828 0
M  V30 10701 C 996.465 3.78403 -3.56521 0
M  V30 10702 C 994.15 4.07455 -2.93745 0
M  V30 10703 C 996.144 4.09729 -4.88264 0
M  V30 10704 C 993.831 4.38446 -4.25686 0
M  V30 10705 C 994.829 4.39564 -5.22755 0
M  V30 10706 O 994.517 4.69814 -6.52326 0
M  V30 10707 H 994.249 0.609397 -0.292595 0
M  V30 10708 H 996.803 1.47654 -1.42784 0
M  V30 10709 H 995.033 3.83982 -0.457676 0
M  V30 10710 H 996.722 3.96759 -0.856586 0
M  V30 10711 H 997.488 3.54991 -3.30464 0
M  V30 10712 H 993.367 4.05746 -2.1884 0
M  V30 10713 H 996.911 4.10516 -5.64023 0
M  V30 10714 H 992.808 4.61325 -4.51497 0
M  V30 10715 H 993.576 4.87598 -6.57412 0
M  V30 10716 N 996.239 0.8527 1.3254 0
M  V30 10717 C 997.171 0.253181 2.27797 0
M  V30 10718 C 998.184 -0.573977 1.52346 0
M  V30 10719 O 999.373 -0.398786 1.73988 0
M  V30 10720 C 996.473 -0.661034 3.32391 0
M  V30 10721 C 995.646 0.12984 4.37207 0
M  V30 10722 C 994.705 -0.709837 5.2139 0
M  V30 10723 O 993.731 -0.144056 5.69018 0
M  V30 10724 N 994.933 -2.0249 5.44039 0
M  V30 10725 H 997.698 1.07171 2.79883 0
M  V30 10726 H 995.259 0.712491 1.45379 0
M  V30 10727 H 997.251 -1.22806 3.85617 0
M  V30 10728 H 995.821 -1.38025 2.80478 0
M  V30 10729 H 995.041 0.878289 3.84291 0
M  V30 10730 H 996.329 0.673141 5.04328 0
M  V30 10731 H 995.727 -2.50792 5.0707 0
M  V30 10732 H 994.284 -2.5401 6.00269 0
M  V30 10733 N 997.718 -1.45297 0.610449 0
M  V30 10734 C 998.967 -2.0143 0.104323 0
M  V30 10735 C 999.28 -1.48431 -1.27388 0
M  V30 10736 O 1000.49 -1.96558 -1.87289 0
M  V30 10737 C 998.942 -3.59644 0.135812 0
M  V30 10738 C 998.55 -4.2164 1.51405 0
M  V30 10739 C 1000.29 -4.2333 -0.314922 0
M  V30 10740 C 998.201 -5.72015 1.50176 0
M  V30 10741 H 997.131 -0.753176 0.035233 0
M  V30 10742 H 999.782 -1.66738 0.7662 0
M  V30 10743 H 998.164 -3.91538 -0.592773 0
M  V30 10744 H 999.338 -4.01315 2.26457 0
M  V30 10745 H 997.653 -3.70159 1.90712 0
M  V30 10746 H 1000.25 -5.33597 -0.343335 0
M  V30 10747 H 1000.59 -3.94206 -1.33817 0
M  V30 10748 H 1001.13 -3.96163 0.360489 0
M  V30 10749 H 997.865 -6.05842 2.50271 0
M  V30 10750 H 997.385 -5.94523 0.793869 0
M  V30 10751 H 999.064 -6.35266 1.22665 0
M  V30 10752 N 999.196 -0.349774 -1.5367 0
M  V30 10753 C 1000.44 0.245862 -2.00196 0
M  V30 10754 C 1000.76 1.51154 -1.24144 0
M  V30 10755 O 1001.96 2.18481 -1.61178 0
M  V30 10756 C 1000.42 0.488665 -3.56567 0
M  V30 10757 C 1000.03 -0.761475 -4.41481 0
M  V30 10758 C 1001.77 1.04282 -4.11492 0
M  V30 10759 C 999.679 -0.489128 -5.89374 0
M  V30 10760 H 998.609 0.0956493 -0.747909 0
M  V30 10761 H 1001.26 -0.466068 -1.77483 0
M  V30 10762 H 999.642 1.26145 -3.75371 0
M  V30 10763 H 1000.82 -1.53585 -4.34452 0
M  V30 10764 H 999.131 -1.23771 -3.9758 0
M  V30 10765 H 1001.73 1.26164 -5.19603 0
M  V30 10766 H 1002.07 2.00023 -3.65098 0
M  V30 10767 H 1002.6 0.330582 -3.96424 0
M  V30 10768 H 999.343 -1.41643 -6.40014 0
M  V30 10769 H 998.863 0.247039 -5.99291 0
M  V30 10770 H 1000.54 -0.1087 -6.46909 0
M  V30 10771 N 1000.67 1.57404 -0.0785433 0
M  V30 10772 C 1001.62 2.14316 0.903949 0
M  V30 10773 C 1002.62 1.08176 1.30362 0
M  V30 10774 O 1003.82 1.26546 1.28008 0
M  V30 10775 H 1000.2 0.685367 0.309477 0
M  V30 10776 H 1002.17 2.95719 0.399081 0
M  V30 10777 C 1000.92 2.72504 2.15956 0
M  V30 10778 H 1000.24 3.53853 1.86087 0
M  V30 10779 H 1001.68 3.15914 2.82798 0
M  V30 10780 C 1000.14 1.6759 2.92259 0
M  V30 10781 O 1000.67 1.10492 3.86205 0
M  V30 10782 N 998.875 1.38467 2.5549 0
M  V30 10783 H 998.422 1.85088 1.79166 0
M  V30 10784 H 998.38 0.685053 3.06846 0
M  V30 10785 N 1002.15 -0.195058 1.56388 0
M  V30 10786 C 1003.4 -0.913636 1.8027 0
M  V30 10787 C 1003.72 -1.83791 0.651606 0
M  V30 10788 O 1002.99 -1.931 -0.330057 0
M  V30 10789 H 1001.57 -0.34036 0.664954 0
M  V30 10790 H 1004.23 -0.200559 1.93865 0
M  V30 10791 H 1003.33 -1.50473 2.7343 0
M  V30 10792 N 1003.63 -1.50653 -0.462772 0
M  V30 10793 C 1004.56 -1.73056 -1.5676 0
M  V30 10794 C 1005.54 -0.579699 -1.59917 0
M  V30 10795 O 1006.73 -0.819729 -1.76051 0
M  V30 10796 C 1003.86 -1.83234 -2.9503 0
M  V30 10797 C 1002.81 -2.98488 -3.06739 0
M  V30 10798 C 1002.14 -2.93818 -4.46738 0
M  V30 10799 C 1003.44 -4.38869 -2.83181 0
M  V30 10800 H 1005.13 -2.65562 -1.38265 0
M  V30 10801 H 1002.68 -1.27792 -0.663722 0
M  V30 10802 H 1004.63 -1.97491 -3.72257 0
M  V30 10803 H 1003.35 -0.873558 -3.14701 0
M  V30 10804 H 1002.01 -2.83895 -2.31946 0
M  V30 10805 H 1001.66 -1.95769 -4.63339 0
M  V30 10806 H 1001.36 -3.71197 -4.55507 0
M  V30 10807 H 1002.88 -3.10135 -5.25974 0
M  V30 10808 H 1004.3 -4.53945 -3.50153 0
M  V30 10809 H 1002.69 -5.17762 -3.03386 0
M  V30 10810 H 1003.76 -4.50663 -1.78972 0
M  V30 10811 N 1005.11 0.71652 -1.4037 0
M  V30 10812 C 1006.52 1.02447 -1.22379 0
M  V30 10813 C 1006.72 2.0126 -0.0983394 0
M  V30 10814 O 1005.78 2.46569 0.544071 0
M  V30 10815 C 1007.09 1.56909 -2.56515 0
M  V30 10816 C 1008.64 1.68898 -2.6352 0
M  V30 10817 C 1009.12 2.26765 -3.97922 0
M  V30 10818 N 1010.61 2.34152 -3.99658 0
M  V30 10819 C 1011.34 2.79907 -5.00439 0
M  V30 10820 N 1010.84 3.25422 -6.11615 0
M  V30 10821 N 1012.63 2.79283 -4.87809 0
M  V30 10822 H 1004.78 0.0615306 -2.12311 0
M  V30 10823 H 1007.05 0.0898994 -0.943728 0
M  V30 10824 H 1006.75 0.917649 -3.39517 0
M  V30 10825 H 1006.63 2.55446 -2.77538 0
M  V30 10826 H 1009.01 2.33159 -1.8089 0
M  V30 10827 H 1009.09 0.689626 -2.46329 0
M  V30 10828 H 1008.74 1.63126 -4.80991 0
M  V30 10829 H 1008.67 3.27413 -4.12442 0
M  V30 10830 H 1011.16 2.02006 -3.19378 0
M  V30 10831 H 1011.47 3.58899 -6.84406 0
M  V30 10832 H 1009.82 3.23383 -6.15181 0
M  V30 10833 H 1013.01 2.43061 -4.00049 0
M  V30 10834 H 1013.18 3.14626 -5.66493 0
M  V30 10835 N 1006.59 1.25851 0.948643 0
M  V30 10836 C 1008 1.02802 1.22081 0
M  V30 10837 C 1008.2 -0.251461 1.99925 0
M  V30 10838 O 1007.26 -0.962592 2.33432 0
M  V30 10839 C 1008.57 2.25489 1.98936 0
M  V30 10840 C 1010.12 2.30312 2.11956 0
M  V30 10841 C 1010.59 3.52671 2.92211 0
M  V30 10842 N 1012.09 3.53103 2.99787 0
M  V30 10843 C 1012.82 4.44445 3.62294 0
M  V30 10844 N 1012.32 5.46065 4.26362 0
M  V30 10845 N 1014.11 4.32113 3.59493 0
M  V30 10846 H 1006.26 2.08042 0.428044 0
M  V30 10847 H 1008.52 0.913928 0.251872 0
M  V30 10848 H 1008.23 3.18513 1.4914 0
M  V30 10849 H 1008.1 2.2914 2.99624 0
M  V30 10850 H 1010.49 1.37808 2.60946 0
M  V30 10851 H 1010.57 2.30676 1.10554 0
M  V30 10852 H 1010.22 4.45501 2.43909 0
M  V30 10853 H 1010.15 3.49554 3.93853 0
M  V30 10854 H 1012.64 2.79597 2.54232 0
M  V30 10855 H 1012.95 6.11964 4.71932 0
M  V30 10856 H 1011.29 5.49931 4.24972 0
M  V30 10857 H 1014.49 3.51946 3.08629 0
M  V30 10858 H 1014.66 5.03493 4.0792 0
M  V30 10859 N 1008.06 -1.15214 1.07534 0
M  V30 10860 C 1009.31 -1.86043 0.799629 0
M  V30 10861 C 1009.64 -1.82435 -0.674356 0
M  V30 10862 O 1008.89 -1.24379 -1.51091 0
M  V30 10863 C 1009.19 -3.34623 1.25547 0
M  V30 10864 C 1008.86 -3.58425 2.73573 0
M  V30 10865 C 1007.52 -3.6463 3.14004 0
M  V30 10866 C 1009.87 -3.67977 3.6911 0
M  V30 10867 C 1007.2 -3.779 4.48786 0
M  V30 10868 C 1009.55 -3.82771 5.03656 0
M  V30 10869 C 1008.22 -3.87222 5.43705 0
M  V30 10870 H 1007.49 -0.680781 0.292605 0
M  V30 10871 H 1010.13 -1.36149 1.34669 0
M  V30 10872 H 1008.44 -3.86737 0.627828 0
M  V30 10873 H 1010.14 -3.87836 1.01901 0
M  V30 10874 H 1006.73 -3.54238 2.41275 0
M  V30 10875 H 1010.91 -3.62482 3.39 0
M  V30 10876 H 1006.17 -3.79604 4.79281 0
M  V30 10877 H 1010.34 -3.89104 5.77556 0
M  V30 10878 H 1007.97 -3.97256 6.48145 0
M  V30 10879 N 1009.54 -0.859717 -1.32086 0
M  V30 10880 C 1010.45 -0.31108 -2.32528 0
M  V30 10881 C 1011.47 0.573714 -1.6427 0
M  V30 10882 O 1012.64 0.472878 -1.9577 0
M  V30 10883 C 1009.71 0.487256 -3.43259 0
M  V30 10884 C 1008.77 -0.424279 -4.27198 0
M  V30 10885 C 1008 0.336051 -5.32641 0
M  V30 10886 O 1008.23 1.56541 -5.48499 0
M  V30 10887 O 1007.16 -0.300777 -6.01148 0
M  V30 10888 H 1010.99 -1.14336 -2.81355 0
M  V30 10889 H 1008.57 -0.622794 -1.358 0
M  V30 10890 H 1010.45 0.940203 -4.10777 0
M  V30 10891 H 1009.13 1.29626 -2.96612 0
M  V30 10892 H 1008.04 -0.925509 -3.62471 0
M  V30 10893 H 1009.37 -1.1986 -4.77383 0
M  V30 10894 N 1011.02 1.44971 -0.618145 0
M  V30 10895 C 1012.27 2.01372 -0.115004 0
M  V30 10896 C 1012.58 1.49104 1.26599 0
M  V30 10897 O 1013.79 1.97549 1.86244 0
M  V30 10898 C 1012.24 3.59567 -0.154883 0
M  V30 10899 C 1011.85 4.20832 -1.53639 0
M  V30 10900 C 1013.6 4.23491 0.292468 0
M  V30 10901 C 1011.5 5.7121 -1.53208 0
M  V30 10902 H 1010.43 0.752979 -0.0392267 0
M  V30 10903 H 1013.08 1.66329 -0.775032 0
M  V30 10904 H 1011.47 3.91847 0.572001 0
M  V30 10905 H 1012.64 4.00109 -2.28582 0
M  V30 10906 H 1010.96 3.69143 -1.92672 0
M  V30 10907 H 1013.55 5.33771 0.315032 0
M  V30 10908 H 1013.9 3.9491 1.31725 0
M  V30 10909 H 1014.43 3.95967 -0.381493 0
M  V30 10910 H 1011.17 6.04506 -2.53481 0
M  V30 10911 H 1010.69 5.94094 -0.825387 0
M  V30 10912 H 1012.37 6.34606 -1.26032 0
M  V30 10913 N 1012.5 0.357919 1.53482 0
M  V30 10914 C 1013.41 -0.500273 2.29204 0
M  V30 10915 C 1014.42 -1.09936 1.3487 0
M  V30 10916 O 1015.6 -1.11195 1.67921 0
M  V30 10917 C 1012.67 -1.62828 3.06085 0
M  V30 10918 C 1011.73 -1.05751 4.16071 0
M  V30 10919 C 1010.96 -2.13176 4.89277 0
M  V30 10920 O 1011.18 -3.34153 4.62274 0
M  V30 10921 O 1010.12 -1.76663 5.7539 0
M  V30 10922 H 1013.94 0.115696 3.0348 0
M  V30 10923 H 1011.53 0.122527 1.48897 0
M  V30 10924 H 1013.41 -2.28427 3.54117 0
M  V30 10925 H 1012.08 -2.22979 2.34653 0
M  V30 10926 H 1010.99 -0.365642 3.72309 0
M  V30 10927 H 1012.32 -0.500661 4.89647 0
M  V30 10928 N 1013.98 -1.5736 0.0868897 0
M  V30 10929 C 1015.21 -1.981 -0.586498 0
M  V30 10930 C 1015.61 -0.96455 -1.62767 0
M  V30 10931 O 1014.96 0.0551801 -1.83617 0
M  V30 10932 C 1015.02 -3.35193 -1.29947 0
M  V30 10933 C 1014.68 -4.55157 -0.410012 0
M  V30 10934 C 1015.68 -5.18797 0.338532 0
M  V30 10935 C 1013.37 -5.01212 -0.33047 0
M  V30 10936 C 1015.36 -6.26854 1.15468 0
M  V30 10937 C 1013.05 -6.09138 0.48934 0
M  V30 10938 C 1014.04 -6.71823 1.23057 0
M  V30 10939 O 1013.73 -7.77669 2.03683 0
M  V30 10940 H 1013.46 -0.656166 -0.16255 0
M  V30 10941 H 1016.02 -2.04773 0.160379 0
M  V30 10942 H 1014.25 -3.25179 -2.09274 0
M  V30 10943 H 1015.94 -3.60435 -1.86658 0
M  V30 10944 H 1016.7 -4.84151 0.286764 0
M  V30 10945 H 1012.58 -4.52188 -0.897058 0
M  V30 10946 H 1016.13 -6.75712 1.73374 0
M  V30 10947 H 1012.02 -6.43215 0.542618 0
M  V30 10948 H 1012.79 -7.94618 1.96277 0
M  V30 10949 N 1015.45 0.186762 -1.56489 0
M  V30 10950 C 1016.39 1.25565 -1.91745 0
M  V30 10951 C 1017.4 1.4128 -0.80894 0
M  V30 10952 O 1018.59 1.41558 -1.08737 0
M  V30 10953 C 1015.69 2.62662 -2.14154 0
M  V30 10954 C 1014.86 2.68448 -3.45333 0
M  V30 10955 C 1013.92 3.86798 -3.56754 0
M  V30 10956 O 1012.95 3.73514 -4.29507 0
M  V30 10957 N 1014.15 5.02607 -2.90459 0
M  V30 10958 H 1016.91 0.956351 -2.84032 0
M  V30 10959 H 1014.47 0.376631 -1.57458 0
M  V30 10960 H 1016.47 3.40277 -2.19075 0
M  V30 10961 H 1015.04 2.85046 -1.28326 0
M  V30 10962 H 1014.26 1.77044 -3.52206 0
M  V30 10963 H 1015.54 2.69311 -4.31682 0
M  V30 10964 H 1014.94 5.163 -2.31194 0
M  V30 10965 H 1013.5 5.78139 -3.00996 0
M  V30 10966 N 1016.93 1.50896 0.454776 0
M  V30 10967 C 1018.18 1.62378 1.20324 0
M  V30 10968 C 1018.5 0.333883 1.9212 0
M  V30 10969 O 1017.77 -0.649477 1.8482 0
M  V30 10970 H 1016.35 0.598395 0.447139 0
M  V30 10971 H 1019.01 1.87749 0.523102 0
M  V30 10972 H 1018.11 2.44296 1.94232 0
M  V30 10973 N 1018.41 -0.709066 1.40748 0
M  V30 10974 C 1019.69 -1.4626 1.29874 0
M  V30 10975 C 1020.07 -2.10949 -0.0799322 0
M  V30 10976 O 1019.42 -2.00651 -1.09323 0
M  V30 10977 C 1019.63 -2.49302 2.44232 0
M  V30 10978 C 1020.97 -3.14945 2.84771 0
M  V30 10979 O 1022 -2.59623 2.43873 0
M  V30 10980 O 1020.86 -4.15111 3.5545 0
M  V30 10981 H 1017.95 -0.650716 0.51039 0
M  V30 10982 H 1020.5 -0.740687 1.52682 0
M  V30 10983 H 1019.27 -2.00063 3.36289 0
M  V30 10984 H 1018.89 -3.29021 2.23229 0
M  V30 10985 N 1019.89 -1.26353 -0.941956 0
M  V30 10986 C 1021.3 -1.10774 -1.50287 0
M  V30 10987 C 1021.65 0.312229 -1.937 0
M  V30 10988 O 1020.78 1.20364 -1.79838 0
M  V30 10989 C 1021.37 -2.00473 -2.73123 0
M  V30 10990 C 1019.93 -1.89042 -3.25485 0
M  V30 10991 C 1019.08 -1.93869 -1.98267 0
M  V30 10992 H 1022.03 -1.39454 -0.757523 0
M  V30 10993 H 1022.05 -1.55216 -3.47402 0
M  V30 10994 H 1021.56 -3.03812 -2.41495 0
M  V30 10995 H 1019.66 -0.886341 -3.61904 0
M  V30 10996 H 1019.78 -2.74533 -3.92643 0
M  V30 10997 H 1018.14 -1.37912 -2.14132 0
M  V30 10998 H 1018.92 -2.98837 -1.68972 0
M  V30 10999 N 1021.37 1.14642 -1.08144 0
M  V30 11000 C 1022.28 2.23257 -0.720668 0
M  V30 11001 C 1023.29 1.71866 0.271648 0
M  V30 11002 O 1024.47 2.01064 0.116266 0
M  V30 11003 C 1021.53 3.46447 -0.132542 0
M  V30 11004 C 1020.6 4.12789 -1.17913 0
M  V30 11005 C 1019.83 5.30099 -0.618971 0
M  V30 11006 O 1020.05 5.6762 0.562418 0
M  V30 11007 O 1018.99 5.86154 -1.36774 0
M  V30 11008 H 1022.81 2.56463 -1.62667 0
M  V30 11009 H 1020.4 1.22521 -0.854932 0
M  V30 11010 H 1022.28 4.20959 0.19277 0
M  V30 11011 H 1020.95 3.14971 0.746662 0
M  V30 11012 H 1019.86 3.40163 -1.55693 0
M  V30 11013 H 1021.19 4.48365 -2.03051 0
M  V30 11014 N 1022.85 0.866709 1.31628 0
M  V30 11015 C 1023.78 0.335762 2.31073 0
M  V30 11016 C 1024.76 -0.571597 1.60209 0
M  V30 11017 O 1025.94 -0.489306 1.87935 0
M  V30 11018 C 1023.07 -0.466416 3.44154 0
M  V30 11019 C 1022.03 0.347561 4.26586 0
M  V30 11020 C 1021.35 -0.5801 5.31544 0
M  V30 11021 C 1022.65 1.57986 4.97833 0
M  V30 11022 H 1024.35 1.16673 2.75731 0
M  V30 11023 H 1021.89 0.56248 1.3256 0
M  V30 11024 H 1023.84 -0.84836 4.12772 0
M  V30 11025 H 1022.57 -1.33086 2.98254 0
M  V30 11026 H 1021.23 0.71141 3.59631 0
M  V30 11027 H 1020.88 -1.44174 4.81895 0
M  V30 11028 H 1020.58 -0.0393965 5.87587 0
M  V30 11029 H 1022.1 -0.958958 6.03023 0
M  V30 11030 H 1023.51 1.26954 5.59067 0
M  V30 11031 H 1021.91 2.05939 5.63657 0
M  V30 11032 H 1022.98 2.3345 4.25005 0
M  V30 11033 N 1024.32 -1.44642 0.625825 0
M  V30 11034 C 1025.26 -2.28882 -0.120614 0
M  V30 11035 C 1026.27 -1.40985 -0.81407 0
M  V30 11036 O 1027.46 -1.65188 -0.676404 0
M  V30 11037 C 1024.56 -3.17217 -1.19274 0
M  V30 11038 C 1023.73 -4.33499 -0.582839 0
M  V30 11039 C 1022.79 -5.02908 -1.54823 0
M  V30 11040 O 1021.82 -5.59102 -1.06743 0
M  V30 11041 N 1023.02 -5.0387 -2.88262 0
M  V30 11042 H 1025.78 -2.93585 0.602318 0
M  V30 11043 H 1023.34 -1.5503 0.466604 0
M  V30 11044 H 1025.34 -3.60515 -1.83878 0
M  V30 11045 H 1023.91 -2.54301 -1.81797 0
M  V30 11046 H 1023.13 -3.93458 0.241696 0
M  V30 11047 H 1024.41 -5.08561 -0.155914 0
M  V30 11048 H 1023.81 -4.59539 -3.2991 0
M  V30 11049 H 1022.37 -5.50974 -3.4824 0
M  V30 11050 N 1025.8 -0.366053 -1.5329 0
M  V30 11051 C 1027.21 0.113056 -1.86357 0
M  V30 11052 C 1027.56 1.48123 -1.28662 0
M  V30 11053 O 1026.69 2.07658 -0.608849 0
M  V30 11054 C 1027.28 0.211923 -3.38137 0
M  V30 11055 C 1025.84 0.635289 -3.71 0
M  V30 11056 C 1024.99 -0.217203 -2.76448 0
M  V30 11057 H 1027.94 -0.584829 -1.47531 0
M  V30 11058 H 1027.96 1.0354 -3.66142 0
M  V30 11059 H 1027.47 -0.783994 -3.80099 0
M  V30 11060 H 1025.57 1.63942 -3.34595 0
M  V30 11061 H 1025.69 0.409571 -4.77346 0
M  V30 11062 H 1024.05 0.313988 -2.52757 0
M  V30 11063 H 1024.83 -1.21067 -3.21244 0
M  V30 11064 N 1027.28 1.57312 -0.0952337 0
M  V30 11065 C 1028.53 1.93533 0.568131 0
M  V30 11066 C 1028.84 0.979121 1.6933 0
M  V30 11067 O 1030.05 1.23506 2.41782 0
M  V30 11068 C 1028.5 3.43875 1.06198 0
M  V30 11069 C 1028.11 4.47988 -0.0334397 0
M  V30 11070 C 1029.86 3.89057 1.69807 0
M  V30 11071 C 1027.76 5.89483 0.475774 0
M  V30 11072 H 1026.69 0.7224 0.215995 0
M  V30 11073 H 1029.34 1.82699 -0.171257 0
M  V30 11074 H 1027.73 3.49862 1.85506 0
M  V30 11075 H 1028.9 4.53644 -0.808934 0
M  V30 11076 H 1027.21 4.12415 -0.574725 0
M  V30 11077 H 1029.81 4.92171 2.08978 0
M  V30 11078 H 1030.15 3.27713 2.5673 0
M  V30 11079 H 1030.69 3.85772 0.970815 0
M  V30 11080 H 1027.43 6.54528 -0.356837 0
M  V30 11081 H 1026.95 5.87297 1.21827 0
M  V30 11082 H 1028.63 6.40066 0.944697 0
M  V30 11083 N 1028.76 -0.17846 1.56586 0
M  V30 11084 C 1030.17 -0.529957 1.50544 0
M  V30 11085 C 1030.37 -1.85015 0.798237 0
M  V30 11086 O 1029.43 -2.49983 0.355639 0
M  V30 11087 C 1030.74 -0.569314 2.95261 0
M  V30 11088 C 1032.29 -0.657008 3.06027 0
M  V30 11089 C 1032.77 -0.727323 4.52188 0
M  V30 11090 N 1034.26 -0.790406 4.56406 0
M  V30 11091 C 1034.99 -0.865265 5.66834 0
M  V30 11092 N 1034.49 -0.901398 6.86911 0
M  V30 11093 N 1036.28 -0.903736 5.54787 0
M  V30 11094 H 1028.43 0.687304 2.00972 0
M  V30 11095 H 1030.69 0.246936 0.915274 0
M  V30 11096 H 1030.4 0.331934 3.5013 0
M  V30 11097 H 1030.27 -1.41828 3.4952 0
M  V30 11098 H 1032.66 -1.54868 2.51197 0
M  V30 11099 H 1032.74 0.218495 2.54865 0
M  V30 11100 H 1032.39 0.160067 5.07648 0
M  V30 11101 H 1032.32 -1.61887 5.01099 0
M  V30 11102 H 1034.81 -0.771054 3.6995 0
M  V30 11103 H 1035.12 -0.959494 7.6682 0
M  V30 11104 H 1033.47 -0.869795 6.89536 0
M  V30 11105 H 1036.66 -0.872459 4.59898 0
M  V30 11106 H 1036.83 -0.958615 6.4087 0
M  V30 11107 N 1030.24 -1.51135 -0.446768 0
M  V30 11108 C 1031.46 -1.67411 -1.22427 0
M  V30 11109 C 1031.89 -0.367009 -1.84485 0
M  V30 11110 O 1031.24 0.67185 -1.68392 0
M  V30 11111 C 1031.29 -2.78473 -2.29096 0
M  V30 11112 O 1030.4 -2.41419 -3.34351 0
M  V30 11113 H 1029.74 -0.558512 -0.359111 0
M  V30 11114 H 1032.27 -1.97648 -0.5288 0
M  V30 11115 H 1032.28 -3.02277 -2.7403 0
M  V30 11116 H 1030.95 -3.73326 -1.83304 0
M  V30 11117 H 1029.53 -2.28152 -2.9496 0
M  V30 11118 N 1031.71 0.701592 -1.41122 0
M  V30 11119 C 1032.94 1.48833 -1.43291 0
M  V30 11120 C 1033.35 1.89168 -0.0348668 0
M  V30 11121 O 1032.69 1.56937 0.9548 0
M  V30 11122 C 1032.76 2.78533 -2.27287 0
M  V30 11123 C 1032.42 2.60438 -3.75528 0
M  V30 11124 C 1033.42 2.26778 -4.67833 0
M  V30 11125 C 1031.1 2.76266 -4.19503 0
M  V30 11126 C 1033.1 2.09176 -6.021 0
M  V30 11127 C 1030.78 2.58281 -5.53836 0
M  V30 11128 C 1031.78 2.24786 -6.4495 0
M  V30 11129 O 1031.47 2.06952 -7.76805 0
M  V30 11130 H 1031.2 0.465401 -0.490284 0
M  V30 11131 H 1033.76 0.871843 -1.85979 0
M  V30 11132 H 1031.99 3.42566 -1.79403 0
M  V30 11133 H 1033.67 3.40312 -2.21229 0
M  V30 11134 H 1034.44 2.1417 -4.35151 0
M  V30 11135 H 1030.32 3.01322 -3.48893 0
M  V30 11136 H 1033.86 1.82955 -6.73181 0
M  V30 11137 H 1029.76 2.70478 -5.86099 0
M  V30 11138 H 1030.53 2.21762 -7.87886 0
M  V30 11139 N 1033.19 1.2685 0.935242 0
M  V30 11140 C 1034.1 1.10716 2.06831 0
M  V30 11141 C 1035.12 0.0391222 1.73956 0
M  V30 11142 O 1036.29 0.244071 1.99916 0
M  V30 11143 C 1033.36 0.748093 3.38533 0
M  V30 11144 C 1032.42 1.89619 3.85153 0
M  V30 11145 C 1031.65 1.55416 5.1057 0
M  V30 11146 O 1031.88 0.458596 5.68553 0
M  V30 11147 O 1030.81 2.39087 5.52378 0
M  V30 11148 H 1034.64 2.05785 2.23352 0
M  V30 11149 H 1032.22 1.05967 1.05315 0
M  V30 11150 H 1034.1 0.560841 4.17651 0
M  V30 11151 H 1032.78 -0.173142 3.23237 0
M  V30 11152 H 1031.68 2.13845 3.06954 0
M  V30 11153 H 1033.02 2.79737 4.04979 0
M  V30 11154 N 1034.67 -1.14067 1.0875 0
M  V30 11155 C 1035.92 -1.84535 0.814235 0
M  V30 11156 C 1036.23 -1.84044 -0.662355 0
M  V30 11157 O 1037.44 -2.50336 -1.05091 0
M  V30 11158 C 1035.89 -3.31273 1.40663 0
M  V30 11159 C 1035.5 -3.40171 2.91526 0
M  V30 11160 C 1037.25 -4.0683 1.21201 0
M  V30 11161 C 1035.15 -4.81141 3.43885 0
M  V30 11162 H 1034.08 -0.691346 0.300926 0
M  V30 11163 H 1036.73 -1.28562 1.30935 0
M  V30 11164 H 1035.12 -3.87005 0.839215 0
M  V30 11165 H 1036.29 -2.94471 3.54434 0
M  V30 11166 H 1034.61 -2.78073 3.09942 0
M  V30 11167 H 1037.2 -5.10891 1.57781 0
M  V30 11168 H 1037.55 -4.16022 0.152092 0
M  V30 11169 H 1038.08 -3.57408 1.74655 0
M  V30 11170 H 1034.82 -4.77138 4.49466 0
M  V30 11171 H 1034.34 -5.27365 2.85738 0
M  V30 11172 H 1036.02 -5.50042 3.40681 0
M  V30 11173 N 1036.15 -0.873678 -1.31166 0
M  V30 11174 C 1037.11 -0.337069 -2.26708 0
M  V30 11175 C 1038.11 0.51406 -1.52362 0
M  V30 11176 O 1039.3 0.322834 -1.71182 0
M  V30 11177 C 1036.43 0.520897 -3.36897 0
M  V30 11178 H 1037.63 -1.18056 -2.75686 0
M  V30 11179 H 1035.18 -0.649577 -1.42163 0
M  V30 11180 H 1035.91 1.38543 -2.93217 0
M  V30 11181 H 1035.7 -0.0886015 -3.92 0
M  V30 11182 H 1037.19 0.888497 -4.08039 0
M  V30 11183 N 1037.63 1.44308 -0.633487 0
M  V30 11184 C 1038.85 2.06897 -0.144347 0
M  V30 11185 C 1039.28 1.47045 1.173 0
M  V30 11186 O 1038.63 0.572806 1.72013 0
M  V30 11187 C 1038.68 3.60571 -0.0456324 0
M  V30 11188 O 1037.79 4.0015 0.997682 0
M  V30 11189 H 1037.13 0.658427 -0.0858499 0
M  V30 11190 H 1039.66 1.85142 -0.870833 0
M  V30 11191 H 1039.67 4.07745 0.144178 0
M  V30 11192 H 1038.34 4.03515 -1.0074 0
M  V30 11193 H 1036.92 3.64603 0.782252 0
M  V30 11194 N 1039.1 0.374177 1.53094 0
M  V30 11195 C 1040.03 -0.459976 2.28925 0
M  V30 11196 C 1041.02 -1.07656 1.31698 0
M  V30 11197 O 1042.2 -1.09219 1.60577 0
M  V30 11198 C 1039.33 -1.5954 3.08487 0
M  V30 11199 C 1038.28 -1.10563 4.13473 0
M  V30 11200 C 1037.61 -2.33196 4.81169 0
M  V30 11201 C 1038.91 -0.184275 5.21975 0
M  V30 11202 H 1040.6 0.172692 2.98902 0
M  V30 11203 H 1038.15 0.0844956 1.43752 0
M  V30 11204 H 1040.1 -2.18565 3.60288 0
M  V30 11205 H 1038.83 -2.25543 2.36216 0
M  V30 11206 H 1037.49 -0.53801 3.62631 0
M  V30 11207 H 1037.13 -2.97675 4.05461 0
M  V30 11208 H 1036.83 -2.01094 5.52119 0
M  V30 11209 H 1038.36 -2.92892 5.35767 0
M  V30 11210 H 1039.77 -0.682262 5.69226 0
M  V30 11211 H 1038.17 0.0462746 6.00082 0
M  V30 11212 H 1039.24 0.771152 4.78729 0
M  V30 11213 N 1040.58 -1.57259 0.103575 0
M  V30 11214 C 1041.83 -1.94945 -0.558953 0
M  V30 11215 C 1042.16 -0.986038 -1.67305 0
M  V30 11216 O 1041.44 -0.0205464 -1.94489 0
M  V30 11217 C 1041.72 -3.42689 -1.10617 0
M  V30 11218 C 1041.57 -4.498 0.00345246 0
M  V30 11219 C 1042.89 -3.91933 -2.00191 0
M  V30 11220 H 1040.01 -0.708859 -0.201713 0
M  V30 11221 H 1042.65 -1.89183 0.176006 0
M  V30 11222 H 1040.8 -3.4773 -1.73251 0
M  V30 11223 H 1042.47 -4.56866 0.638082 0
M  V30 11224 H 1040.72 -4.28615 0.668705 0
M  V30 11225 H 1041.39 -5.50397 -0.420396 0
M  V30 11226 H 1043.86 -3.89098 -1.4745 0
M  V30 11227 H 1042.74 -4.9586 -2.35402 0
M  V30 11228 H 1043 -3.31722 -2.92255 0
M  V30 11229 N 1042.06 0.170153 -1.56679 0
M  V30 11230 C 1043.48 0.521966 -1.50823 0
M  V30 11231 C 1043.68 1.84589 -0.808037 0
M  V30 11232 O 1042.73 2.49791 -0.368891 0
M  V30 11233 C 1044.05 0.553648 -2.95559 0
M  V30 11234 C 1045.59 0.640769 -3.06371 0
M  V30 11235 C 1046.07 0.703332 -4.52567 0
M  V30 11236 N 1047.56 0.76619 -4.56819 0
M  V30 11237 C 1048.29 0.835192 -5.67285 0
M  V30 11238 N 1047.79 0.864957 -6.87379 0
M  V30 11239 N 1049.58 0.874302 -5.55259 0
M  V30 11240 H 1041.73 -0.697952 -2.00605 0
M  V30 11241 H 1044 -0.251787 -0.913952 0
M  V30 11242 H 1043.7 -0.350498 -3.49949 0
M  V30 11243 H 1043.58 1.39973 -3.50268 0
M  V30 11244 H 1045.96 1.53534 -2.52015 0
M  V30 11245 H 1046.05 -0.232008 -2.54746 0
M  V30 11246 H 1045.69 -0.186986 -5.07556 0
M  V30 11247 H 1045.62 1.59227 -5.0195 0
M  V30 11248 H 1048.11 0.751424 -3.70354 0
M  V30 11249 H 1048.42 0.918814 -7.67318 0
M  V30 11250 H 1046.77 0.833215 -6.89987 0
M  V30 11251 H 1049.96 0.848057 -4.60354 0
M  V30 11252 H 1050.13 0.924615 -6.4137 0
M  V30 11253 N 1043.54 1.5137 0.438746 0
M  V30 11254 C 1044.77 1.67774 1.21077 0
M  V30 11255 C 1045.18 0.374489 1.85049 0
M  V30 11256 O 1044.54 -0.646867 1.70651 0
M  V30 11257 C 1044.59 2.79238 2.29584 0
M  V30 11258 O 1044.31 4.04513 1.68228 0
M  V30 11259 C 1045.81 3.06898 3.19888 0
M  V30 11260 H 1043.03 0.563054 0.364981 0
M  V30 11261 H 1045.58 1.97777 0.520035 0
M  V30 11262 H 1043.73 2.51837 2.94375 0
M  V30 11263 H 1044.14 4.66405 2.3993 0
M  V30 11264 H 1045.62 3.88476 3.92162 0
M  V30 11265 H 1046.1 2.19249 3.80561 0
M  V30 11266 H 1046.7 3.35952 2.60799 0
M  V30 11267 N 1045.02 -0.694098 1.41492 0
M  V30 11268 C 1045.95 -1.82042 1.46229 0
M  V30 11269 C 1046.93 -1.67047 0.320803 0
M  V30 11270 O 1048.11 -1.86758 0.53245 0
M  V30 11271 C 1045.24 -3.2019 1.34519 0
M  V30 11272 C 1044.2 -3.49892 2.46495 0
M  V30 11273 C 1043.52 -4.87411 2.1985 0
M  V30 11274 C 1044.82 -3.4872 3.88834 0
M  V30 11275 H 1046.52 -1.78335 2.40493 0
M  V30 11276 H 1044.06 -0.856566 1.15754 0
M  V30 11277 H 1046.02 -3.98699 1.36445 0
M  V30 11278 H 1044.74 -3.24527 0.367406 0
M  V30 11279 H 1043.4 -2.73734 2.43854 0
M  V30 11280 H 1043.05 -4.88375 1.20411 0
M  V30 11281 H 1042.75 -5.08248 2.94885 0
M  V30 11282 H 1044.27 -5.68228 2.23494 0
M  V30 11283 H 1045.68 -4.1723 3.93182 0
M  V30 11284 H 1044.08 -3.81089 4.63564 0
M  V30 11285 H 1045.15 -2.47665 4.16881 0
M  V30 11286 N 1046.49 -1.27344 -0.928501 0
M  V30 11287 C 1047.74 -1.13635 -1.6761 0
M  V30 11288 C 1048.07 0.317957 -1.91884 0
M  V30 11289 O 1047.32 1.24904 -1.50657 0
M  V30 11290 C 1047.62 -1.86439 -3.04918 0
M  V30 11291 C 1047.29 -3.36298 -3.00358 0
M  V30 11292 C 1045.95 -3.77173 -2.98821 0
M  V30 11293 C 1048.3 -4.31921 -2.91708 0
M  V30 11294 C 1045.63 -5.12037 -2.86417 0
M  V30 11295 C 1047.98 -5.66841 -2.80846 0
M  V30 11296 C 1046.65 -6.07011 -2.77659 0
M  V30 11297 H 1045.92 -0.415821 -0.61333 0
M  V30 11298 H 1048.56 -1.57943 -1.08288 0
M  V30 11299 H 1046.87 -1.34638 -3.6794 0
M  V30 11300 H 1048.57 -1.73261 -3.61637 0
M  V30 11301 H 1045.16 -3.0379 -3.0234 0
M  V30 11302 H 1049.34 -4.01314 -2.91994 0
M  V30 11303 H 1044.6 -5.42307 -2.82336 0
M  V30 11304 H 1048.77 -6.40608 -2.73119 0
M  V30 11305 H 1046.4 -7.11467 -2.67804 0
M  V30 11306 N 1047.97 1.13488 -1.09353 0
M  V30 11307 C 1049.39 1.36739 -0.823086 0
M  V30 11308 C 1049.59 1.93476 0.562963 0
M  V30 11309 O 1048.64 2.15374 1.31796 0
M  V30 11310 C 1049.96 2.31943 -1.91371 0
M  V30 11311 C 1051.51 2.4556 -1.94085 0
M  V30 11312 C 1051.98 3.44072 -3.02289 0
M  V30 11313 N 1053.47 3.51622 -3.01524 0
M  V30 11314 C 1054.21 4.27724 -3.8189 0
M  V30 11315 N 1053.7 5.06987 -4.72161 0
M  V30 11316 N 1055.5 4.23018 -3.70152 0
M  V30 11317 H 1047.65 0.75012 -1.98713 0
M  V30 11318 H 1049.91 0.392564 -0.862901 0
M  V30 11319 H 1049.62 1.97408 -2.91072 0
M  V30 11320 H 1049.49 3.31952 -1.79131 0
M  V30 11321 H 1051.88 2.79382 -0.950234 0
M  V30 11322 H 1051.96 1.45479 -2.10403 0
M  V30 11323 H 1051.6 3.10981 -4.01564 0
M  V30 11324 H 1051.53 4.43956 -2.83214 0
M  V30 11325 H 1054.02 2.95066 -2.36103 0
M  V30 11326 H 1054.34 5.6236 -5.30067 0
M  V30 11327 H 1052.68 5.06222 -4.76197 0
M  V30 11328 H 1055.87 3.60171 -2.98989 0
M  V30 11329 H 1056.04 4.82075 -4.33022 0
M  V30 11330 N 1049.45 0.880621 1.30701 0
M  V30 11331 C 1050.38 0.360251 2.30704 0
M  V30 11332 C 1051.36 -0.554572 1.60806 0
M  V30 11333 O 1052.55 -0.469345 1.88443 0
M  V30 11334 C 1049.68 -0.429888 3.44629 0
M  V30 11335 C 1048.63 0.392786 4.26194 0
M  V30 11336 C 1047.96 -0.52369 5.32129 0
M  V30 11337 C 1049.26 1.63258 4.96129 0
M  V30 11338 H 1050.95 1.19591 2.74478 0
M  V30 11339 H 1048.5 0.576508 1.31956 0
M  V30 11340 H 1050.45 -0.804532 4.13649 0
M  V30 11341 H 1049.17 -1.29916 2.99649 0
M  V30 11342 H 1047.83 0.749514 3.58856 0
M  V30 11343 H 1047.48 -1.39054 4.83397 0
M  V30 11344 H 1047.18 0.0229272 5.87596 0
M  V30 11345 H 1048.71 -0.894946 6.04006 0
M  V30 11346 H 1050.12 1.32877 5.57689 0
M  V30 11347 H 1048.52 2.11906 5.61441 0
M  V30 11348 H 1049.59 2.37944 4.22505 0
M  V30 11349 N 1050.93 -1.4397 0.641131 0
M  V30 11350 C 1052.15 -2.06818 0.155318 0
M  V30 11351 C 1052.58 -1.47665 -1.16519 0
M  V30 11352 O 1051.94 -0.58192 -1.71707 0
M  V30 11353 C 1051.99 -3.60542 0.0647537 0
M  V30 11354 O 1051.09 -4.00674 -0.976447 0
M  V30 11355 H 1050.43 -0.657962 0.0893404 0
M  V30 11356 H 1052.96 -1.84678 0.88064 0
M  V30 11357 H 1052.97 -4.07816 -0.122552 0
M  V30 11358 H 1051.65 -4.02975 1.02878 0
M  V30 11359 H 1050.22 -3.65013 -0.762905 0
M  V30 11360 N 1052.41 -0.382291 -1.52893 0
M  V30 11361 C 1053.63 0.204961 -2.06385 0
M  V30 11362 C 1054.06 1.40316 -1.25271 0
M  V30 11363 O 1053.42 1.79187 -0.275969 0
M  V30 11364 C 1053.46 0.560205 -3.56222 0
M  V30 11365 O 1052.57 1.65515 -3.77728 0
M  V30 11366 H 1051.91 0.0258798 -0.663495 0
M  V30 11367 H 1054.44 -0.547733 -1.97132 0
M  V30 11368 H 1054.45 0.826501 -3.99541 0
M  V30 11369 H 1053.12 -0.31584 -4.14699 0
M  V30 11370 H 1051.7 1.38311 -3.46301 0
M  V30 11371 N 1053.89 1.57202 -0.111913 0
M  V30 11372 C 1054.85 2.13778 0.826534 0
M  V30 11373 C 1055.85 1.07097 1.19945 0
M  V30 11374 O 1057.04 1.32906 1.12613 0
M  V30 11375 C 1054.17 2.6722 2.11675 0
M  V30 11376 H 1055.36 2.98023 0.334975 0
M  V30 11377 H 1052.92 1.55696 0.137256 0
M  V30 11378 H 1053.65 1.86542 2.65278 0
M  V30 11379 H 1053.44 3.45235 1.8589 0
M  V30 11380 H 1054.93 3.10926 2.78774 0
M  V30 11381 N 1055.36 -0.161842 1.56767 0
M  V30 11382 C 1056.61 -0.875278 1.81719 0
M  V30 11383 C 1056.93 -1.82998 0.690739 0
M  V30 11384 O 1058.13 -2.58648 0.82545 0
M  V30 11385 C 1056.59 -1.60703 3.22029 0
M  V30 11386 C 1056.2 -0.695486 4.42569 0
M  V30 11387 C 1057.94 -2.30813 3.56266 0
M  V30 11388 C 1055.85 -1.42801 5.73901 0
M  V30 11389 H 1054.78 -0.330591 0.677662 0
M  V30 11390 H 1057.43 -0.128112 1.83052 0
M  V30 11391 H 1055.81 -2.39929 3.1504 0
M  V30 11392 H 1056.98 0.0604882 4.6076 0
M  V30 11393 H 1055.3 -0.10356 4.16271 0
M  V30 11394 H 1057.9 -2.86229 4.51638 0
M  V30 11395 H 1058.24 -3.06603 2.81604 0
M  V30 11396 H 1058.77 -1.5852 3.64851 0
M  V30 11397 H 1055.51 -0.712253 6.51619 0
M  V30 11398 H 1055.03 -2.15707 5.5967 0
M  V30 11399 H 1056.71 -1.97295 6.16185 0
M  V30 11400 N 1056.84 -1.516 -0.430713 0
M  V30 11401 C 1057.79 -1.73975 -1.54387 0
M  V30 11402 C 1058.78 -0.606222 -1.58181 0
M  V30 11403 O 1059.99 -0.787764 -1.61846 0
M  V30 11404 H 1056.36 -0.549811 -0.513041 0
M  V30 11405 H 1058.34 -2.67274 -1.32692 0
M  V30 11406 C 1057.08 -1.88794 -2.9198 0
M  V30 11407 H 1056.41 -2.75425 -2.89795 0
M  V30 11408 H 1057.85 -2.08458 -3.69217 0
M  V30 11409 C 1056.31 -0.649427 -3.30581 0
M  V30 11410 O 1056.84 0.192823 -4.01237 0
M  V30 11411 N 1055.04 -0.491586 -2.86412 0
M  V30 11412 H 1054.59 -1.17806 -2.29084 0
M  V30 11413 H 1054.55 0.33583 -3.12601 0
M  V30 11414 N 1058.32 0.686584 -1.41858 0
M  V30 11415 C 1059.27 1.79271 -1.40875 0
M  V30 11416 C 1060.25 1.58413 -0.281782 0
M  V30 11417 O 1061.45 1.69093 -0.523132 0
M  V30 11418 C 1058.57 3.17647 -1.30213 0
M  V30 11419 C 1057.66 3.44168 -2.47808 0
M  V30 11420 N 1058.05 3.41339 -3.73258 0
M  V30 11421 C 1056.35 3.74755 -2.41815 0
M  V30 11422 C 1057.05 3.67016 -4.51303 0
M  V30 11423 N 1056.03 3.87203 -3.81543 0
M  V30 11424 H 1059.83 1.75459 -2.35778 0
M  V30 11425 H 1057.34 0.886946 -1.36041 0
M  V30 11426 H 1059.34 3.96896 -1.2759 0
M  V30 11427 H 1058 3.22664 -0.363021 0
M  V30 11428 H 1059.01 3.21511 -4.06018 0
M  V30 11429 H 1055.69 3.87089 -1.56423 0
M  V30 11430 H 1057.08 3.70888 -5.6026 0
M  V30 11431 N 1059.8 1.27835 0.921735 0
M  V30 11432 C 1061.21 1.05369 1.19873 0
M  V30 11433 C 1061.41 -0.208997 2.00413 0
M  V30 11434 O 1060.47 -0.912861 2.35421 0
M  V30 11435 C 1061.78 2.29658 1.94108 0
M  V30 11436 C 1063.33 2.34756 2.07023 0
M  V30 11437 C 1063.81 3.5879 2.84664 0
M  V30 11438 N 1065.3 3.59383 2.9223 0
M  V30 11439 C 1066.03 4.52029 3.52785 0
M  V30 11440 N 1065.53 5.54986 4.14683 0
M  V30 11441 N 1067.32 4.39641 3.50246 0
M  V30 11442 H 1059.47 2.08903 0.383819 0
M  V30 11443 H 1061.73 0.919065 0.232429 0
M  V30 11444 H 1061.44 3.21604 1.4235 0
M  V30 11445 H 1061.31 2.35444 2.94696 0
M  V30 11446 H 1063.7 1.43312 2.57965 0
M  V30 11447 H 1063.78 2.32969 1.05636 0
M  V30 11448 H 1063.43 4.50574 2.34404 0
M  V30 11449 H 1063.36 3.57829 3.86349 0
M  V30 11450 H 1065.85 2.84927 2.48244 0
M  V30 11451 H 1066.16 6.21837 4.58845 0
M  V30 11452 H 1064.51 5.58822 4.13211 0
M  V30 11453 H 1067.7 3.58413 3.01094 0
M  V30 11454 H 1067.87 5.12033 3.97148 0
M  V30 11455 N 1061.28 -1.12907 1.09954 0
M  V30 11456 C 1062.52 -1.84306 0.838912 0
M  V30 11457 C 1062.85 -1.83825 -0.635508 0
M  V30 11458 O 1062.11 -1.27556 -1.48418 0
M  V30 11459 C 1062.4 -3.31885 1.32616 0
M  V30 11460 C 1062.07 -3.52542 2.81114 0
M  V30 11461 C 1060.73 -3.57888 3.21667 0
M  V30 11462 C 1063.08 -3.60065 3.76833 0
M  V30 11463 C 1060.41 -3.68296 4.567 0
M  V30 11464 C 1062.76 -3.72001 5.11662 0
M  V30 11465 C 1061.43 -3.75602 5.51797 0
M  V30 11466 H 1060.7 -0.674422 0.30698 0
M  V30 11467 H 1063.35 -1.33261 1.37527 0
M  V30 11468 H 1061.65 -3.85318 0.709719 0
M  V30 11469 H 1063.35 -3.85588 1.10105 0
M  V30 11470 H 1059.94 -3.4904 2.48735 0
M  V30 11471 H 1064.12 -3.55209 3.46612 0
M  V30 11472 H 1059.38 -3.69352 4.87226 0
M  V30 11473 H 1063.55 -3.76765 5.8568 0
M  V30 11474 H 1061.18 -3.83419 6.56425 0
M  V30 11475 N 1062.75 -0.88754 -1.30232 0
M  V30 11476 C 1063.72 -0.361095 -2.26338 0
M  V30 11477 C 1064.72 0.497871 -1.52898 0
M  V30 11478 O 1065.91 0.30466 -1.71515 0
M  V30 11479 C 1063.04 0.485135 -3.3743 0
M  V30 11480 H 1064.23 -1.20973 -2.74419 0
M  V30 11481 H 1061.78 -0.664619 -1.41466 0
M  V30 11482 H 1062.52 1.35425 -2.9467 0
M  V30 11483 H 1062.3 -0.130173 -3.91884 0
M  V30 11484 H 1063.79 0.845169 -4.08958 0
M  V30 11485 N 1064.23 1.43628 -0.648757 0
M  V30 11486 C 1065.48 2.01465 -0.16002 0
M  V30 11487 C 1065.8 1.51413 1.22878 0
M  V30 11488 O 1065.07 0.724919 1.81994 0
M  V30 11489 H 1063.65 0.744885 -0.0561672 0
M  V30 11490 H 1066.31 1.75897 -0.839422 0
M  V30 11491 H 1065.41 3.1178 -0.141213 0
M  V30 11492 N 1065.71 0.390394 1.52688 0
M  V30 11493 C 1066.64 -0.479319 2.24132 0
M  V30 11494 C 1067.66 -1.0258 1.26416 0
M  V30 11495 O 1068.84 -0.927943 1.52484 0
M  V30 11496 C 1065.94 -1.67711 2.94493 0
M  V30 11497 C 1065.12 -1.2578 4.18925 0
M  V30 11498 C 1064.18 -2.3204 4.72275 0
M  V30 11499 O 1063.2 -1.93402 5.35336 0
M  V30 11500 N 1064.4 -3.63967 4.52226 0
M  V30 11501 H 1067.17 0.132777 2.99406 0
M  V30 11502 H 1064.73 0.216807 1.60442 0
M  V30 11503 H 1066.72 -2.38323 3.27084 0
M  V30 11504 H 1065.29 -2.19552 2.22521 0
M  V30 11505 H 1064.51 -0.380528 3.92359 0
M  V30 11506 H 1065.8 -0.954329 4.9977 0
M  V30 11507 H 1065.2 -3.98119 4.01892 0
M  V30 11508 H 1063.76 -4.30611 4.89303 0
M  V30 11509 N 1067.19 -1.57141 0.120249 0
M  V30 11510 C 1068.12 -2.11097 -0.8668 0
M  V30 11511 C 1069.1 -1.02768 -1.26006 0
M  V30 11512 O 1070.28 -1.3043 -1.36089 0
M  V30 11513 C 1067.41 -2.6087 -2.1602 0
M  V30 11514 C 1066.46 -3.81095 -1.91491 0
M  V30 11515 S 1067.29 -5.23441 -1.13005 0
M  V30 11516 C 1068.45 -5.76583 -2.43521 0
M  V30 11517 H 1068.68 -2.94489 -0.407871 0
M  V30 11518 H 1066.21 -1.54116 -0.0935491 0
M  V30 11519 H 1068.17 -2.90201 -2.90333 0
M  V30 11520 H 1066.83 -1.77657 -2.5903 0
M  V30 11521 H 1066.02 -4.14074 -2.8733 0
M  V30 11522 H 1065.63 -3.52387 -1.25297 0
M  V30 11523 H 1067.92 -5.86384 -3.39352 0
M  V30 11524 H 1068.86 -6.74644 -2.15085 0
M  V30 11525 H 1069.27 -5.04657 -2.52946 0
M  V30 11526 N 1068.67 0.153526 -1.5685 0
M  V30 11527 C 1069.63 1.17362 -1.96873 0
M  V30 11528 C 1070.63 1.36219 -0.854456 0
M  V30 11529 O 1071.82 1.33322 -1.1212 0
M  V30 11530 C 1068.95 2.53523 -2.27901 0
M  V30 11531 H 1070.14 0.830432 -2.88173 0
M  V30 11532 H 1067.7 0.396633 -1.51184 0
M  V30 11533 H 1068.43 2.92824 -1.39371 0
M  V30 11534 H 1068.22 2.41198 -3.09137 0
M  V30 11535 H 1069.71 3.27006 -2.59725 0
M  V30 11536 N 1070.14 1.51827 0.422667 0
M  V30 11537 C 1071.11 1.7359 1.49663 0
M  V30 11538 C 1072.11 0.605811 1.48952 0
M  V30 11539 O 1073.3 0.87354 1.50715 0
M  V30 11540 C 1070.43 1.80585 2.8914 0
M  V30 11541 H 1071.62 2.69453 1.31664 0
M  V30 11542 H 1069.18 1.42038 0.652298 0
M  V30 11543 H 1069.91 0.865895 3.12526 0
M  V30 11544 H 1069.7 2.62729 2.9106 0
M  V30 11545 H 1071.19 1.99212 3.67021 0
M  V30 11546 N 1071.62 -0.679052 1.4222 0
M  V30 11547 C 1072.55 -1.80481 1.48152 0
M  V30 11548 C 1073.53 -1.66698 0.338502 0
M  V30 11549 O 1074.72 -1.86183 0.552228 0
M  V30 11550 C 1071.85 -3.18746 1.37908 0
M  V30 11551 C 1070.8 -3.47258 2.50192 0
M  V30 11552 C 1070.13 -4.85052 2.25008 0
M  V30 11553 C 1071.43 -3.44576 3.92511 0
M  V30 11554 H 1073.12 -1.75774 2.42371 0
M  V30 11555 H 1070.67 -0.844241 1.16656 0
M  V30 11556 H 1072.62 -3.97229 1.40666 0
M  V30 11557 H 1071.35 -3.24119 0.401806 0
M  V30 11558 H 1070 -2.71133 2.46744 0
M  V30 11559 H 1069.65 -4.8707 1.25584 0
M  V30 11560 H 1069.35 -5.05092 3.00259 0
M  V30 11561 H 1070.88 -5.65825 2.29508 0
M  V30 11562 H 1072.29 -4.13036 3.97585 0
M  V30 11563 H 1070.69 -3.76151 4.67579 0
M  V30 11564 H 1071.76 -2.4323 4.19484 0
M  V30 11565 N 1073.1 -1.28322 -0.914942 0
M  V30 11566 C 1074.34 -1.16657 -1.6784 0
M  V30 11567 C 1074.7 0.280473 -1.8994 0
M  V30 11568 O 1075.91 0.519801 -2.63726 0
M  V30 11569 C 1074.18 -1.94185 -3.00045 0
M  V30 11570 S 1075.74 -1.98881 -3.91141 0
M  V30 11571 H 1072.55 -0.416232 -0.57643 0
M  V30 11572 H 1075.16 -1.62405 -1.08834 0
M  V30 11573 H 1073.86 -2.98488 -2.81661 0
M  V30 11574 H 1073.39 -1.48982 -3.64099 0
M  V30 11575 H 1075.41 -1.09445 -4.8398 0
M  V30 11576 N 1074.58 1.12322 -1.10551 0
M  V30 11577 C 1075.8 1.8822 -0.871093 0
M  V30 11578 C 1076.23 1.7916 0.573005 0
M  V30 11579 O 1075.59 1.14738 1.40374 0
M  V30 11580 C 1075.63 3.35349 -1.32565 0
M  V30 11581 O 1074.74 4.09461 -0.49145 0
M  V30 11582 H 1074.08 0.584787 -0.314516 0
M  V30 11583 H 1076.61 1.42039 -1.47262 0
M  V30 11584 H 1076.62 3.86189 -1.31612 0
M  V30 11585 H 1075.29 3.4126 -2.37728 0
M  V30 11586 H 1073.87 3.68575 -0.566294 0
M  V30 11587 N 1076.06 0.894434 1.2976 0
M  V30 11588 C 1077.47 0.589778 1.48303 0
M  V30 11589 C 1077.67 -0.870085 1.81746 0
M  V30 11590 O 1076.73 -1.65065 1.91076 0
M  V30 11591 C 1078.04 1.51107 2.59975 0
M  V30 11592 C 1079.59 1.51571 2.73853 0
M  V30 11593 C 1080.06 2.42316 3.88648 0
M  V30 11594 N 1081.56 2.40333 3.95973 0
M  V30 11595 C 1082.29 3.07254 4.84131 0
M  V30 11596 N 1081.79 3.83435 5.77018 0
M  V30 11597 N 1083.58 2.96438 4.77578 0
M  V30 11598 H 1075.73 1.83871 1.06327 0
M  V30 11599 H 1077.99 0.78758 0.527657 0
M  V30 11600 H 1077.7 2.55097 2.42112 0
M  V30 11601 H 1077.57 1.22767 3.56662 0
M  V30 11602 H 1079.96 0.483277 2.91116 0
M  V30 11603 H 1080.04 1.83946 1.77757 0
M  V30 11604 H 1079.69 3.4565 3.72141 0
M  V30 11605 H 1079.62 2.07252 4.84101 0
M  V30 11606 H 1082.11 1.84979 3.29532 0
M  V30 11607 H 1082.42 4.31565 6.4107 0
M  V30 11608 H 1080.76 3.87542 5.7692 0
M  V30 11609 H 1083.96 2.36442 4.03996 0
M  V30 11610 H 1084.13 3.48867 5.46073 0
M  V30 11611 N 1077.53 -1.43282 0.656365 0
M  V30 11612 C 1078.81 -1.9534 0.100816 0
M  V30 11613 C 1079.19 -1.59755 -1.37992 0
M  V30 11614 O 1078.54 -0.884264 -2.10697 0
M  V30 11615 C 1078.75 -3.47237 0.35038 0
M  V30 11616 C 1080.1 -4.23822 0.257001 0
M  V30 11617 O 1081.12 -3.55073 0.283111 0
M  V30 11618 O 1079.98 -5.46192 0.183397 0
M  V30 11619 H 1077.07 -0.826963 -0.00780287 0
M  V30 11620 H 1079.62 -1.53205 0.72982 0
M  V30 11621 H 1078.39 -3.66276 1.37685 0
M  V30 11622 H 1078.02 -3.96378 -0.311539 0
M  V30 11623 N 1079.01 -0.398486 -1.52479 0
M  V30 11624 C 1080.29 0.238776 -1.94137 0
M  V30 11625 C 1080.67 1.63558 -1.33462 0
M  V30 11626 O 1080.02 2.22821 -0.506272 0
M  V30 11627 C 1080.23 0.255863 -3.48061 0
M  V30 11628 C 1081.58 0.480376 -4.21874 0
M  V30 11629 O 1082.6 0.335679 -3.54615 0
M  V30 11630 O 1081.46 0.764654 -5.41124 0
M  V30 11631 H 1078.55 0.150806 -0.813134 0
M  V30 11632 H 1081.1 -0.453659 -1.63524 0
M  V30 11633 H 1079.87 -0.722171 -3.84578 0
M  V30 11634 H 1079.49 0.99284 -3.85004 0
M  V30 11635 N 1080.49 1.57075 -0.12858 0
M  V30 11636 C 1081.74 1.9552 0.527087 0
M  V30 11637 C 1082.07 1.01243 1.66072 0
M  V30 11638 O 1081.32 0.0381076 1.95663 0
M  V30 11639 C 1081.62 3.40329 1.09138 0
M  V30 11640 C 1081.29 4.50832 0.0781039 0
M  V30 11641 C 1079.95 4.80782 -0.200493 0
M  V30 11642 C 1082.3 5.17595 -0.61192 0
M  V30 11643 C 1079.63 5.74809 -1.17524 0
M  V30 11644 C 1081.98 6.12671 -1.57536 0
M  V30 11645 C 1080.64 6.41008 -1.86184 0
M  V30 11646 H 1079.91 0.715458 0.192875 0
M  V30 11647 H 1082.56 1.90328 -0.211515 0
M  V30 11648 H 1080.87 3.42262 1.90694 0
M  V30 11649 H 1082.56 3.67393 1.60696 0
M  V30 11650 H 1079.15 4.2751 0.30543 0
M  V30 11651 H 1083.34 4.94605 -0.40986 0
M  V30 11652 H 1078.59 5.95065 -1.40384 0
M  V30 11653 H 1082.77 6.63486 -2.11565 0
M  V30 11654 H 1080.39 7.13673 -2.61868 0
M  V30 11655 N 1081.97 -0.145205 1.5693 0
M  V30 11656 C 1082.9 -1.18096 2.01434 0
M  V30 11657 C 1083.88 -1.447 0.894204 0
M  V30 11658 O 1085.07 -1.55589 1.16214 0
M  V30 11659 C 1082.2 -2.51369 2.39647 0
M  V30 11660 C 1081.15 -2.39283 3.54863 0
M  V30 11661 C 1080.48 -3.77283 3.78895 0
M  V30 11662 C 1081.78 -1.8754 4.87469 0
M  V30 11663 H 1083.47 -0.810897 2.8821 0
M  V30 11664 H 1081.02 -0.388624 1.38657 0
M  V30 11665 H 1082.97 -3.24054 2.69382 0
M  V30 11666 H 1081.69 -2.90214 1.49811 0
M  V30 11667 H 1080.35 -1.6905 3.25296 0
M  V30 11668 H 1080 -4.13567 2.86307 0
M  V30 11669 H 1079.7 -3.70057 4.56433 0
M  V30 11670 H 1081.22 -4.51514 4.11057 0
M  V30 11671 H 1082.64 -2.50019 5.1591 0
M  V30 11672 H 1081.03 -1.912 5.68826 0
M  V30 11673 H 1082.1 -0.831194 4.77723 0
M  V30 11674 N 1083.45 -1.52049 -0.414609 0
M  V30 11675 C 1084.7 -1.65511 -1.15977 0
M  V30 11676 C 1085.02 -0.384703 -1.91168 0
M  V30 11677 O 1084.29 0.600247 -1.86477 0
M  V30 11678 H 1082.87 -0.610039 -0.431116 0
M  V30 11679 H 1085.53 -1.8907 -0.473139 0
M  V30 11680 H 1084.62 -2.4936 -1.87686 0
M  V30 11681 N 1084.93 0.6715 -1.42579 0
M  V30 11682 C 1086.15 1.46471 -1.46836 0
M  V30 11683 C 1086.58 1.87921 -0.0820658 0
M  V30 11684 O 1085.93 1.5621 0.920217 0
M  V30 11685 C 1085.98 2.68796 -2.40377 0
M  V30 11686 O 1085.09 3.67188 -1.87741 0
M  V30 11687 H 1084.43 0.439901 -0.497376 0
M  V30 11688 H 1086.96 0.823342 -1.87303 0
M  V30 11689 H 1086.97 3.16828 -2.57068 0
M  V30 11690 H 1085.64 2.37967 -3.41093 0
M  V30 11691 H 1084.22 3.26237 -1.80621 0
M  V30 11692 N 1086.4 1.28806 0.908124 0
M  V30 11693 C 1087.65 1.16287 1.65781 0
M  V30 11694 C 1087.98 -0.287389 1.92365 0
M  V30 11695 O 1087.23 -1.22491 1.52625 0
M  V30 11696 C 1087.53 1.91267 3.01914 0
M  V30 11697 C 1087.2 3.41033 2.9497 0
M  V30 11698 C 1085.86 3.81879 2.92783 0
M  V30 11699 C 1088.21 4.36507 2.848 0
M  V30 11700 C 1085.54 5.16529 2.78235 0
M  V30 11701 C 1087.89 5.71237 2.71792 0
M  V30 11702 C 1086.56 6.11351 2.67967 0
M  V30 11703 H 1085.83 0.425526 0.606637 0
M  V30 11704 H 1088.47 1.59646 1.05762 0
M  V30 11705 H 1086.78 1.40474 3.65752 0
M  V30 11706 H 1088.48 1.78992 3.58835 0
M  V30 11707 H 1085.07 3.08561 2.97469 0
M  V30 11708 H 1089.25 4.05909 2.85573 0
M  V30 11709 H 1084.51 5.4673 2.73672 0
M  V30 11710 H 1088.68 6.44872 2.62892 0
M  V30 11711 H 1086.31 7.15637 2.56451 0
M  V30 11712 N 1087.88 -1.11734 1.11145 0
M  V30 11713 C 1089.12 -1.85039 0.868318 0
M  V30 11714 C 1089.49 -1.82538 -0.595294 0
M  V30 11715 O 1090.69 -2.5126 -0.955071 0
M  V30 11716 C 1088.96 -3.28381 1.4107 0
M  V30 11717 S 1090.52 -4.18973 1.3041 0
M  V30 11718 H 1087.33 -0.638114 0.313578 0
M  V30 11719 H 1089.94 -1.34548 1.41835 0
M  V30 11720 H 1088.64 -3.27764 2.46979 0
M  V30 11721 H 1088.17 -3.83939 0.857576 0
M  V30 11722 H 1090.19 -4.95483 0.266605 0
M  V30 11723 N 1089.36 -0.901303 -1.29284 0
M  V30 11724 C 1090.78 -0.597634 -1.47988 0
M  V30 11725 C 1090.98 0.860434 -1.82205 0
M  V30 11726 O 1090.03 1.64049 -1.91948 0
M  V30 11727 C 1091.34 -1.52484 -2.5917 0
M  V30 11728 C 1092.89 -1.53021 -2.73045 0
M  V30 11729 C 1093.37 -2.44373 -3.87357 0
M  V30 11730 N 1094.86 -2.42429 -3.94693 0
M  V30 11731 C 1095.59 -3.09817 -4.82495 0
M  V30 11732 N 1095.09 -3.86489 -5.74976 0
M  V30 11733 N 1096.88 -2.98966 -4.76 0
M  V30 11734 H 1089.03 -1.84432 -1.0535 0
M  V30 11735 H 1091.3 -0.790367 -0.523473 0
M  V30 11736 H 1091 -2.56378 -2.40756 0
M  V30 11737 H 1090.88 -1.24657 -3.56006 0
M  V30 11738 H 1093.26 -0.498709 -2.90855 0
M  V30 11739 H 1093.34 -1.84886 -1.76779 0
M  V30 11740 H 1092.99 -3.47618 -3.70302 0
M  V30 11741 H 1092.92 -2.09817 -4.82995 0
M  V30 11742 H 1095.41 -1.86724 -3.28546 0
M  V30 11743 H 1095.72 -4.34959 -6.38773 0
M  V30 11744 H 1094.07 -3.90596 -5.74857 0
M  V30 11745 H 1097.26 -2.38581 -4.02737 0
M  V30 11746 H 1097.43 -3.51758 -5.44215 0
M  V30 11747 N 1090.84 1.42931 -0.663954 0
M  V30 11748 C 1092.07 2.05729 -0.189532 0
M  V30 11749 C 1092.48 1.49914 1.15423 0
M  V30 11750 O 1091.82 0.629324 1.72584 0
M  V30 11751 C 1091.88 3.59482 -0.0354748 0
M  V30 11752 C 1091.54 4.37935 -1.30622 0
M  V30 11753 C 1092.54 4.69297 -2.23733 0
M  V30 11754 C 1090.23 4.77761 -1.5508 0
M  V30 11755 C 1092.22 5.39407 -3.39586 0
M  V30 11756 C 1089.91 5.47613 -2.71224 0
M  V30 11757 C 1090.91 5.7836 -3.63302 0
M  V30 11758 O 1090.59 6.46783 -4.77417 0
M  V30 11759 H 1090.33 0.669678 -0.0922342 0
M  V30 11760 H 1092.88 1.84243 -0.907943 0
M  V30 11761 H 1091.11 3.79584 0.738412 0
M  V30 11762 H 1092.8 4.03947 0.397679 0
M  V30 11763 H 1093.56 4.39038 -2.06084 0
M  V30 11764 H 1089.44 4.53229 -0.842863 0
M  V30 11765 H 1092.99 5.63323 -4.11476 0
M  V30 11766 H 1088.88 5.77289 -2.88804 0
M  V30 11767 H 1089.65 6.6527 -4.76821 0
M  V30 11768 N 1092.32 0.406567 1.52266 0
M  V30 11769 C 1093.27 -0.437483 2.23763 0
M  V30 11770 C 1094.25 -1.01557 1.248 0
M  V30 11771 O 1095.44 -0.938813 1.50051 0
M  V30 11772 C 1092.57 -1.55499 3.06064 0
M  V30 11773 C 1091.66 -0.987799 4.12436 0
M  V30 11774 N 1092.05 -0.147044 5.05586 0
M  V30 11775 C 1090.35 -1.25857 4.27874 0
M  V30 11776 C 1091.05 0.168229 5.81457 0
M  V30 11777 N 1090.02 -0.440245 5.41814 0
M  V30 11778 H 1093.82 0.211203 2.9314 0
M  V30 11779 H 1091.34 0.216843 1.60946 0
M  V30 11780 H 1093.34 -2.17224 3.55836 0
M  V30 11781 H 1092 -2.20632 2.38226 0
M  V30 11782 H 1093.01 0.217062 5.17445 0
M  V30 11783 H 1089.68 -1.90967 3.71265 0
M  V30 11784 H 1091.07 0.850516 6.66495 0
M  V30 11785 N 1093.79 -1.57004 0.136909 0
M  V30 11786 C 1094.72 -2.19262 -0.802902 0
M  V30 11787 C 1095.71 -1.13786 -1.26439 0
M  V30 11788 O 1096.89 -1.42091 -1.32377 0
M  V30 11789 C 1094.02 -2.80624 -2.04615 0
M  V30 11790 C 1092.97 -3.91839 -1.72181 0
M  V30 11791 C 1092.3 -4.4009 -3.03686 0
M  V30 11792 C 1093.6 -5.13095 -0.976249 0
M  V30 11793 H 1095.29 -2.98049 -0.28406 0
M  V30 11794 H 1092.84 -1.43364 -0.135189 0
M  V30 11795 H 1094.79 -3.22842 -2.70834 0
M  V30 11796 H 1093.52 -1.99153 -2.58855 0
M  V30 11797 H 1092.18 -3.50224 -1.08344 0
M  V30 11798 H 1091.82 -3.55454 -3.55896 0
M  V30 11799 H 1091.52 -5.15098 -2.82751 0
M  V30 11800 H 1093.05 -4.84971 -3.70993 0
M  V30 11801 H 1094.46 -5.5222 -1.54033 0
M  V30 11802 H 1092.86 -5.93801 -0.867214 0
M  V30 11803 H 1093.93 -4.84888 0.0338488 0
M  V30 11804 N 1095.27 0.136881 -1.57004 0
M  V30 11805 C 1096.5 0.862436 -1.88068 0
M  V30 11806 C 1096.92 1.74274 -0.726227 0
M  V30 11807 O 1096.27 1.79956 0.30366 0
M  V30 11808 C 1096.32 1.71076 -3.18458 0
M  V30 11809 O 1096.04 0.865918 -4.29457 0
M  V30 11810 C 1097.55 2.54302 -3.63105 0
M  V30 11811 H 1094.77 0.248865 -0.623143 0
M  V30 11812 H 1097.31 0.126633 -2.04108 0
M  V30 11813 H 1095.46 2.39951 -3.04142 0
M  V30 11814 H 1095.88 1.4493 -5.04079 0
M  V30 11815 H 1097.35 3.09384 -4.57149 0
M  V30 11816 H 1097.83 3.3082 -2.88886 0
M  V30 11817 H 1098.44 1.907 -3.80149 0
M  V30 11818 N 1096.75 1.52266 0.40654 0
M  V30 11819 C 1097.66 1.78688 1.52012 0
M  V30 11820 C 1098.68 0.6726 1.60475 0
M  V30 11821 O 1099.85 0.95829 1.77141 0
M  V30 11822 C 1096.92 1.93434 2.87722 0
M  V30 11823 C 1095.98 3.17341 2.89125 0
M  V30 11824 C 1095.21 3.31374 4.18362 0
M  V30 11825 O 1095.43 2.50613 5.12396 0
M  V30 11826 O 1094.37 4.24539 4.26674 0
M  V30 11827 H 1098.19 2.73213 1.3262 0
M  V30 11828 H 1095.78 1.37142 0.592653 0
M  V30 11829 H 1097.66 2.04941 3.68208 0
M  V30 11830 H 1096.34 1.02099 3.07177 0
M  V30 11831 H 1095.24 3.1129 2.07483 0
M  V30 11832 H 1096.58 4.08466 2.7462 0
M  V30 11833 N 1098.23 -0.663929 1.42933 0
M  V30 11834 C 1099.64 -1.24484 1.39143 0
M  V30 11835 C 1099.99 -1.95993 0.0901142 0
M  V30 11836 O 1099.12 -2.00636 -0.810812 0
M  V30 11837 C 1099.71 -2.26402 2.52047 0
M  V30 11838 C 1098.27 -2.79995 2.51555 0
M  V30 11839 C 1097.42 -1.54475 2.30289 0
M  V30 11840 H 1100.37 -0.456619 1.51989 0
M  V30 11841 H 1100.39 -3.08361 2.22921 0
M  V30 11842 H 1099.9 -1.74328 3.46744 0
M  V30 11843 H 1098 -3.36161 1.60707 0
M  V30 11844 H 1098.11 -3.2827 3.48964 0
M  V30 11845 H 1096.48 -1.81437 1.78753 0
M  V30 11846 H 1097.26 -1.04351 3.27056 0
M  V30 11847 N 1099.71 -1.29285 -0.901281 0
M  V30 11848 C 1100.95 -1.16934 -1.64836 0
M  V30 11849 C 1101.28 0.279826 -1.92982 0
M  V30 11850 O 1100.55 1.19179 -1.55478 0
M  V30 11851 H 1099.13 -0.429768 -0.61099 0
M  V30 11852 H 1101.79 -1.62189 -1.08077 0
M  V30 11853 H 1100.88 -1.71821 -2.60545 0
M  V30 11854 N 1101.18 1.11143 -1.11736 0
M  V30 11855 C 1102.11 2.19339 -0.800795 0
M  V30 11856 C 1103.1 1.68508 0.23221 0
M  V30 11857 O 1104.28 1.93967 0.0950063 0
M  V30 11858 C 1101.41 3.46424 -0.246579 0
M  V30 11859 C 1100.36 4.10487 -1.21181 0
M  V30 11860 C 1099.69 5.32183 -0.518158 0
M  V30 11861 C 1100.99 4.55052 -2.56368 0
M  V30 11862 H 1102.68 2.46077 -1.70548 0
M  V30 11863 H 1100.23 1.18271 -0.821454 0
M  V30 11864 H 1102.18 4.21398 -0.0128889 0
M  V30 11865 H 1100.91 3.19154 0.693415 0
M  V30 11866 H 1099.57 3.3751 -1.43118 0
M  V30 11867 H 1099.21 5.01187 0.426742 0
M  V30 11868 H 1098.91 5.75997 -1.16196 0
M  V30 11869 H 1100.44 6.09895 -0.293333 0
M  V30 11870 H 1101.85 5.21335 -2.38501 0
M  V30 11871 H 1100.25 5.0969 -3.16758 0
M  V30 11872 H 1101.32 3.68343 -3.1536 0
M  V30 11873 N 1102.66 0.908147 1.28804 0
M  V30 11874 C 1103.63 0.397058 2.25735 0
M  V30 11875 C 1104.63 -0.473483 1.53671 0
M  V30 11876 O 1105.82 -0.277335 1.71978 0
M  V30 11877 C 1102.95 -0.431392 3.38159 0
M  V30 11878 H 1104.14 1.25323 2.72459 0
M  V30 11879 H 1101.69 0.687041 1.4039 0
M  V30 11880 H 1102.43 -1.3072 2.96787 0
M  V30 11881 H 1102.21 0.192502 3.91627 0
M  V30 11882 H 1103.7 -0.78 4.10251 0
M  V30 11883 N 1104.14 -1.42577 0.671525 0
M  V30 11884 C 1105.37 -2.06442 0.199152 0
M  V30 11885 C 1105.79 -1.50104 -1.1336 0
M  V30 11886 O 1105.15 -0.618211 -1.70434 0
M  V30 11887 C 1105.2 -3.60323 0.141215 0
M  V30 11888 O 1104.3 -4.02655 -0.891238 0
M  V30 11889 H 1103.64 -0.655919 0.103277 0
M  V30 11890 H 1106.17 -1.82768 0.919614 0
M  V30 11891 H 1106.18 -4.07984 -0.0360209 0
M  V30 11892 H 1104.86 -4.00702 1.11403 0
M  V30 11893 H 1103.43 -3.66549 -0.685309 0
M  V30 11894 N 1105.62 -0.414636 -1.52048 0
M  V30 11895 C 1107.03 -0.0657806 -1.59464 0
M  V30 11896 C 1107.23 1.4225 -1.42713 0
M  V30 11897 O 1106.29 2.18996 -1.25687 0
M  V30 11898 C 1107.6 -0.565618 -2.95332 0
M  V30 11899 C 1109.15 -0.524072 -3.08581 0
M  V30 11900 C 1109.63 -1.00051 -4.46938 0
M  V30 11901 N 1111.12 -0.957555 -4.53194 0
M  V30 11902 C 1111.85 -1.29733 -5.58531 0
M  V30 11903 N 1111.35 -1.70883 -6.71395 0
M  V30 11904 N 1113.14 -1.21694 -5.48769 0
M  V30 11905 H 1105.29 -1.38325 -1.61183 0
M  V30 11906 H 1107.56 -0.568593 -0.758556 0
M  V30 11907 H 1107.26 -1.60604 -3.12888 0
M  V30 11908 H 1107.14 0.0217735 -3.77194 0
M  V30 11909 H 1109.52 0.507319 -2.90707 0
M  V30 11910 H 1109.6 -1.14759 -2.28613 0
M  V30 11911 H 1109.25 -2.03025 -4.65557 0
M  V30 11912 H 1109.18 -0.353754 -5.2541 0
M  V30 11913 H 1111.67 -0.65508 -3.72179 0
M  V30 11914 H 1111.98 -1.95105 -7.47766 0
M  V30 11915 H 1110.33 -1.74791 -6.72661 0
M  V30 11916 H 1113.52 -0.894286 -4.59478 0
M  V30 11917 H 1113.69 -1.48504 -6.30754 0
M  V30 11918 N 1107.1 1.56929 -0.145233 0
M  V30 11919 C 1108.05 2.13246 0.806846 0
M  V30 11920 C 1109.03 1.05984 1.21063 0
M  V30 11921 O 1110.22 1.32165 1.17734 0
M  V30 11922 C 1107.35 2.75622 2.04663 0
M  V30 11923 C 1106.44 3.90006 1.66603 0
M  V30 11924 N 1106.83 4.95946 0.993545 0
M  V30 11925 C 1105.13 4.0068 1.95886 0
M  V30 11926 C 1105.83 5.76032 0.810087 0
M  V30 11927 N 1104.8 5.26739 1.34339 0
M  V30 11928 H 1108.61 2.92527 0.283806 0
M  V30 11929 H 1106.12 1.62302 0.0563676 0
M  V30 11930 H 1108.12 3.14329 2.73867 0
M  V30 11931 H 1106.78 1.97815 2.57487 0
M  V30 11932 H 1107.79 5.13748 0.654508 0
M  V30 11933 H 1104.46 3.33946 2.50572 0
M  V30 11934 H 1105.85 6.71315 0.280209 0
M  V30 11935 N 1108.58 -0.128553 1.57075 0
M  V30 11936 C 1109.51 -1.15953 2.02675 0
M  V30 11937 C 1110.49 -1.43743 0.909501 0
M  V30 11938 O 1111.67 -1.54348 1.17857 0
M  V30 11939 C 1108.8 -2.48813 2.423 0
M  V30 11940 C 1107.76 -2.35506 3.57381 0
M  V30 11941 C 1107.08 -3.73243 3.82875 0
M  V30 11942 C 1108.38 -1.82359 4.89431 0
M  V30 11943 H 1110.08 -0.780283 2.89054 0
M  V30 11944 H 1107.62 -0.373896 1.39061 0
M  V30 11945 H 1109.57 -3.21179 2.72804 0
M  V30 11946 H 1108.3 -2.88609 1.52881 0
M  V30 11947 H 1106.96 -1.6559 3.27071 0
M  V30 11948 H 1106.61 -4.10507 2.90677 0
M  V30 11949 H 1106.31 -3.65195 4.60333 0
M  V30 11950 H 1107.83 -4.47128 4.15823 0
M  V30 11951 H 1109.24 -2.44533 5.18533 0
M  V30 11952 H 1107.64 -1.85156 5.70822 0
M  V30 11953 H 1108.71 -0.780478 4.78578 0
M  V30 11954 N 1110.05 -1.5248 -0.398459 0
M  V30 11955 C 1110.98 -1.79549 -1.49279 0
M  V30 11956 C 1111.96 -0.647004 -1.57315 0
M  V30 11957 O 1113.15 -0.893661 -1.72416 0
M  V30 11958 C 1110.28 -1.95582 -2.86993 0
M  V30 11959 C 1109.23 -3.1123 -2.93803 0
M  V30 11960 C 1108.56 -3.12501 -4.33874 0
M  V30 11961 C 1109.86 -4.50485 -2.64312 0
M  V30 11962 H 1111.55 -2.71187 -1.26877 0
M  V30 11963 H 1109.1 -1.30492 -0.608924 0
M  V30 11964 H 1111.05 -2.13102 -3.63546 0
M  V30 11965 H 1109.78 -1.00625 -3.10712 0
M  V30 11966 H 1108.44 -2.93477 -2.19697 0
M  V30 11967 H 1108.08 -2.15245 -4.54619 0
M  V30 11968 H 1107.78 -3.90183 -4.39353 0
M  V30 11969 H 1109.31 -3.32164 -5.12347 0
M  V30 11970 H 1110.72 -4.68387 -3.30585 0
M  V30 11971 H 1109.12 -5.30163 -2.81153 0
M  V30 11972 H 1110.19 -4.57848 -1.59696 0
M  V30 11973 N 1111.53 0.65634 -1.43283 0
M  V30 11974 C 1112.76 1.44906 -1.48382 0
M  V30 11975 C 1113.18 1.87823 -0.101993 0
M  V30 11976 O 1112.54 1.57178 0.903597 0
M  V30 11977 C 1112.59 2.66231 -2.43215 0
M  V30 11978 O 1111.69 3.65176 -1.91625 0
M  V30 11979 H 1111.03 0.434601 -0.502014 0
M  V30 11980 H 1113.56 0.803429 -1.88165 0
M  V30 11981 H 1113.57 3.14083 -2.60414 0
M  V30 11982 H 1112.25 2.34336 -3.43598 0
M  V30 11983 H 1110.82 3.24302 -1.84072 0
M  V30 11984 N 1113.01 1.29761 0.894412 0
M  V30 11985 C 1114.42 1.16275 1.46072 0
M  V30 11986 C 1114.77 -0.240123 1.94725 0
M  V30 11987 O 1113.9 -1.13606 1.84181 0
M  V30 11988 C 1114.49 2.10471 2.65494 0
M  V30 11989 C 1113.05 2.00992 3.18244 0
M  V30 11990 C 1112.2 2.01094 1.90936 0
M  V30 11991 H 1115.15 1.42169 0.705243 0
M  V30 11992 H 1115.17 1.68003 3.41402 0
M  V30 11993 H 1114.68 3.12566 2.30053 0
M  V30 11994 H 1112.78 1.02005 3.58365 0
M  V30 11995 H 1112.9 2.88916 3.82184 0
M  V30 11996 H 1111.26 1.45764 2.08866 0
M  V30 11997 H 1112.04 3.04902 1.57764 0
M  V30 11998 N 1114.49 -1.10549 1.12324 0
M  V30 11999 C 1115.73 -1.82755 0.879117 0
M  V30 12000 C 1116.07 -1.84905 -0.593604 0
M  V30 12001 O 1115.34 -1.30884 -1.43873 0
M  V30 12002 C 1115.62 -3.29481 1.45308 0
M  V30 12003 C 1115.48 -3.3567 2.99408 0
M  V30 12004 C 1116.8 -4.25828 1.11167 0
M  V30 12005 H 1113.92 -0.663513 0.32081 0
M  V30 12006 H 1116.56 -1.29572 1.38965 0
M  V30 12007 H 1114.71 -3.74902 1.01887 0
M  V30 12008 H 1116.38 -2.98739 3.515 0
M  V30 12009 H 1114.62 -2.75606 3.34998 0
M  V30 12010 H 1115.29 -4.38983 3.34661 0
M  V30 12011 H 1117.77 -3.88635 1.48667 0
M  V30 12012 H 1116.65 -5.26857 1.53991 0
M  V30 12013 H 1116.91 -4.42094 0.0237046 0
M  V30 12014 N 1115.97 -0.914965 -1.28321 0
M  V30 12015 C 1117.21 -0.547665 -1.94538 0
M  V30 12016 C 1117.53 0.911834 -1.72368 0
M  V30 12017 O 1116.8 1.64481 -1.06408 0
M  V30 12018 H 1115.38 -0.199549 -0.719853 0
M  V30 12019 H 1118.05 -1.16459 -1.5628 0
M  V30 12020 H 1117.14 -0.743138 -3.03124 0
M  V30 12021 N 1117.44 1.42219 -0.679077 0
M  V30 12022 C 1118.86 1.55737 -0.349034 0
M  V30 12023 C 1119.06 1.65789 1.14527 0
M  V30 12024 O 1118.12 1.62717 1.93079 0
M  V30 12025 C 1119.43 2.80516 -1.0831 0
M  V30 12026 C 1120.98 2.94294 -1.06584 0
M  V30 12027 C 1121.45 4.2194 -1.78132 0
M  V30 12028 N 1122.94 4.28861 -1.75021 0
M  V30 12029 C 1123.68 5.26453 -2.27234 0
M  V30 12030 N 1123.17 6.30171 -2.87847 0
M  V30 12031 N 1124.97 5.1828 -2.17584 0
M  V30 12032 H 1117.12 1.33939 -1.64846 0
M  V30 12033 H 1119.38 0.645029 -0.694725 0
M  V30 12034 H 1119.09 2.79241 -2.13816 0
M  V30 12035 H 1118.96 3.71539 -0.651069 0
M  V30 12036 H 1121.35 2.95094 -0.0191061 0
M  V30 12037 H 1121.43 2.04491 -1.53679 0
M  V30 12038 H 1121.07 4.21901 -2.82776 0
M  V30 12039 H 1121 5.10685 -1.28483 0
M  V30 12040 H 1123.49 3.54537 -1.30814 0
M  V30 12041 H 1123.81 7.01 -3.25298 0
M  V30 12042 H 1122.15 6.30721 -2.91918 0
M  V30 12043 H 1125.34 4.36172 -1.69916 0
M  V30 12044 H 1125.52 5.94172 -2.58581 0
M  V30 12045 N 1118.92 0.422693 1.51826 0
M  V30 12046 C 1120.34 0.0742364 1.59427 0
M  V30 12047 C 1120.54 -1.41491 1.43466 0
M  V30 12048 O 1119.59 -2.18326 1.26846 0
M  V30 12049 C 1120.91 0.581272 2.95028 0
M  V30 12050 C 1122.45 0.54043 3.08299 0
M  V30 12051 C 1122.93 1.0242 4.46401 0
M  V30 12052 N 1124.42 0.981576 4.5268 0
M  V30 12053 C 1125.16 1.32693 5.57835 0
M  V30 12054 N 1124.65 1.74441 6.70479 0
M  V30 12055 N 1126.44 1.24603 5.48115 0
M  V30 12056 H 1118.6 1.39178 1.60447 0
M  V30 12057 H 1120.86 0.572607 0.75553 0
M  V30 12058 H 1120.56 1.62261 3.12032 0
M  V30 12059 H 1120.44 -0.00176969 3.772 0
M  V30 12060 H 1122.83 -0.491895 2.90971 0
M  V30 12061 H 1122.91 1.15969 2.28002 0
M  V30 12062 H 1122.55 2.05491 4.64474 0
M  V30 12063 H 1122.48 0.381613 5.25215 0
M  V30 12064 H 1124.97 0.674808 3.71826 0
M  V30 12065 H 1125.28 1.99068 7.46721 0
M  V30 12066 H 1123.63 1.78356 6.71725 0
M  V30 12067 H 1126.82 0.918641 4.58997 0
M  V30 12068 H 1126.99 1.51847 6.29958 0
M  V30 12069 N 1120.4 -1.5685 0.153553 0
M  V30 12070 C 1121.33 -2.14231 -0.814729 0
M  V30 12071 C 1122.34 -1.09339 -1.20619 0
M  V30 12072 O 1123.53 -1.36592 -1.14913 0
M  V30 12073 C 1120.63 -2.6555 -2.10562 0
M  V30 12074 C 1119.81 -3.94912 -1.8805 0
M  V30 12075 C 1118.87 -4.31476 -3.0119 0
M  V30 12076 O 1117.89 -4.9968 -2.72596 0
M  V30 12077 N 1119.09 -3.91588 -4.28531 0
M  V30 12078 H 1121.86 -2.9794 -0.324277 0
M  V30 12079 H 1119.42 -1.61873 -0.0298087 0
M  V30 12080 H 1121.41 -2.87019 -2.85311 0
M  V30 12081 H 1119.98 -1.86529 -2.5085 0
M  V30 12082 H 1119.2 -3.82002 -0.973024 0
M  V30 12083 H 1120.49 -4.79433 -1.70356 0
M  V30 12084 H 1119.89 -3.36645 -4.54628 0
M  V30 12085 H 1118.44 -4.18095 -5.00039 0
M  V30 12086 N 1121.88 0.120221 -1.57141 0
M  V30 12087 C 1123.12 0.829449 -1.85062 0
M  V30 12088 C 1123.46 1.79585 -0.739116 0
M  V30 12089 O 1122.73 1.92819 0.255147 0
M  V30 12090 C 1123.01 1.58042 -3.23566 0
M  V30 12091 C 1122.87 0.633706 -4.45314 0
M  V30 12092 C 1124.19 2.53688 -3.59625 0
M  V30 12093 H 1121.31 0.300086 -0.67314 0
M  V30 12094 H 1123.95 0.0937393 -1.89769 0
M  V30 12095 H 1122.1 2.20758 -3.19684 0
M  V30 12096 H 1123.77 0.0154836 -4.61297 0
M  V30 12097 H 1122.01 -0.054846 -4.33765 0
M  V30 12098 H 1122.68 1.19577 -5.38893 0
M  V30 12099 H 1125.16 2.01078 -3.6429 0
M  V30 12100 H 1124.04 3.03265 -4.57516 0
M  V30 12101 H 1124.3 3.36296 -2.8698 0
M  V30 12102 N 1123.36 1.52689 0.390367 0
M  V30 12103 C 1124.32 1.76726 1.45947 0
M  V30 12104 C 1125.32 0.637269 1.47633 0
M  V30 12105 O 1126.51 0.905312 1.48828 0
M  V30 12106 C 1123.64 1.86678 2.85244 0
M  V30 12107 H 1124.83 2.72185 1.25918 0
M  V30 12108 H 1122.39 1.4339 0.622023 0
M  V30 12109 H 1123.12 0.931991 3.10619 0
M  V30 12110 H 1122.91 2.68843 2.85422 0
M  V30 12111 H 1124.4 2.06952 3.62713 0
M  V30 12112 N 1124.83 -0.648732 1.43629 0
M  V30 12113 C 1126.08 -1.40579 1.45196 0
M  V30 12114 C 1126.4 -1.9484 0.0790556 0
M  V30 12115 O 1125.67 -1.74707 -0.886239 0
M  V30 12116 H 1124.25 -0.52175 0.53459 0
M  V30 12117 H 1126.92 -0.764796 1.79268 0
M  V30 12118 H 1126.01 -2.24591 2.16715 0
M  V30 12119 N 1126.31 -1.30234 -0.887518 0
M  V30 12120 C 1127.26 -1.13013 -1.9802 0
M  V30 12121 C 1128.25 -0.0460253 -1.60834 0
M  V30 12122 O 1129.44 -0.26907 -1.74943 0
M  V30 12123 C 1126.57 -0.821397 -3.33329 0
M  V30 12124 C 1125.65 -1.94564 -3.76837 0
M  V30 12125 N 1126.04 -3.19068 -3.92465 0
M  V30 12126 C 1124.34 -1.84142 -4.06211 0
M  V30 12127 C 1125.04 -3.92495 -4.29328 0
M  V30 12128 N 1124.02 -3.20526 -4.39049 0
M  V30 12129 H 1127.82 -2.07446 -2.0819 0
M  V30 12130 H 1125.34 -1.21536 -1.07716 0
M  V30 12131 H 1127.33 -0.679046 -4.11333 0
M  V30 12132 H 1125.99 0.114891 -3.24497 0
M  V30 12133 H 1127 -3.54386 -3.77665 0
M  V30 12134 H 1123.68 -0.97865 -4.05868 0
M  V30 12135 H 1125.07 -4.99701 -4.49164 0
M  V30 12136 N 1127.79 1.09952 -1.12909 0
M  V30 12137 C 1129.02 1.8579 -0.910483 0
M  V30 12138 C 1129.43 1.80898 0.540484 0
M  V30 12139 O 1128.79 1.20126 1.3739 0
M  V30 12140 C 1128.84 3.33987 -1.38329 0
M  V30 12141 O 1128.56 3.38811 -2.77739 0
M  V30 12142 C 1130.06 4.26683 -1.20234 0
M  V30 12143 H 1127.28 0.587026 -0.325025 0
M  V30 12144 H 1129.83 1.38965 -1.5003 0
M  V30 12145 H 1127.98 3.78259 -0.836592 0
M  V30 12146 H 1128.4 4.31204 -2.98603 0
M  V30 12147 H 1129.87 5.28846 -1.58197 0
M  V30 12148 H 1130.35 4.38966 -0.14344 0
M  V30 12149 H 1130.95 3.88221 -1.73679 0
M  V30 12150 N 1129.27 0.921757 1.27833 0
M  V30 12151 C 1130.68 0.621102 1.47019 0
M  V30 12152 C 1130.88 -0.831338 1.83551 0
M  V30 12153 O 1129.94 -1.60974 1.94534 0
M  V30 12154 C 1131.25 1.56588 2.56712 0
M  V30 12155 C 1132.8 1.57346 2.70576 0
M  V30 12156 C 1133.28 2.50505 3.8342 0
M  V30 12157 N 1134.77 2.48678 3.90786 0
M  V30 12158 C 1135.5 3.17454 4.77505 0
M  V30 12159 N 1135 3.95588 5.68755 0
M  V30 12160 N 1136.79 3.06501 4.71183 0
M  V30 12161 H 1128.94 1.86085 1.02403 0
M  V30 12162 H 1131.21 0.798595 0.510833 0
M  V30 12163 H 1130.91 2.60175 2.36647 0
M  V30 12164 H 1130.79 1.30305 3.53978 0
M  V30 12165 H 1133.17 0.544919 2.90025 0
M  V30 12166 H 1133.25 1.87675 1.73815 0
M  V30 12167 H 1132.9 3.53466 3.64725 0
M  V30 12168 H 1132.83 2.17474 4.79596 0
M  V30 12169 H 1135.32 1.91928 3.25534 0
M  V30 12170 H 1135.63 4.45066 6.31772 0
M  V30 12171 H 1133.98 3.99692 5.6857 0
M  V30 12172 H 1137.17 2.44958 3.9889 0
M  V30 12173 H 1137.34 3.60372 5.3855 0
M  V30 12174 N 1130.75 -1.41857 0.686609 0
M  V30 12175 C 1131.99 -2.0097 0.213378 0
M  V30 12176 C 1132.32 -1.54618 -1.1882 0
M  V30 12177 O 1131.59 -0.772916 -1.80008 0
M  V30 12178 H 1130.17 -0.743134 0.0758968 0
M  V30 12179 H 1132.83 -1.73609 0.885763 0
M  V30 12180 H 1131.92 -3.11296 0.223826 0
M  V30 12181 N 1132.22 -0.430739 -1.51599 0
M  V30 12182 C 1133.64 0.0339139 -1.86669 0
M  V30 12183 C 1133.99 1.42533 -1.34829 0
M  V30 12184 O 1133.11 2.04889 -0.696376 0
M  V30 12185 C 1133.71 0.0683174 -3.38731 0
M  V30 12186 C 1132.27 0.477363 -3.73361 0
M  V30 12187 C 1131.41 -0.334258 -2.75278 0
M  V30 12188 H 1134.36 -0.646875 -1.44918 0
M  V30 12189 H 1134.38 0.879179 -3.70204 0
M  V30 12190 H 1133.9 -0.944501 -3.76432 0
M  V30 12191 H 1132 1.49603 -3.41247 0
M  V30 12192 H 1132.11 0.206744 -4.78654 0
M  V30 12193 H 1130.47 0.206503 -2.53861 0
M  V30 12194 H 1131.26 -1.34583 -3.1582 0
M  V30 12195 N 1133.7 1.56767 -0.161869 0
M  V30 12196 C 1135.12 1.58412 0.194403 0
M  V30 12197 C 1135.32 1.17682 1.63564 0
M  V30 12198 O 1134.37 0.884024 2.36519 0
M  V30 12199 C 1135.69 3.00599 -0.0778438 0
M  V30 12200 C 1137.24 3.12996 -0.015307 0
M  V30 12201 C 1137.71 4.57259 -0.260418 0
M  V30 12202 N 1139.2 4.62733 -0.207863 0
M  V30 12203 C 1139.94 5.72193 -0.371821 0
M  V30 12204 N 1139.43 6.90246 -0.594318 0
M  V30 12205 N 1141.23 5.61253 -0.308384 0
M  V30 12206 H 1133.38 1.81531 -1.10274 0
M  V30 12207 H 1135.64 0.840919 -0.437675 0
M  V30 12208 H 1135.35 3.3484 -1.07587 0
M  V30 12209 H 1135.22 3.71819 0.634845 0
M  V30 12210 H 1137.61 2.78588 0.97329 0
M  V30 12211 H 1137.69 2.44232 -0.760559 0
M  V30 12212 H 1137.33 4.92375 -1.24618 0
M  V30 12213 H 1137.26 5.2417 0.505334 0
M  V30 12214 H 1139.75 3.77878 -0.0411541 0
M  V30 12215 H 1140.07 7.6954 -0.70913 0
M  V30 12216 H 1138.41 6.92131 -0.630819 0
M  V30 12217 H 1141.6 4.67905 -0.135217 0
M  V30 12218 H 1141.77 6.46507 -0.439592 0
M  V30 12219 N 1135.18 -0.111886 1.57202 0
M  V30 12220 C 1136.11 -1.13796 2.03894 0
M  V30 12221 C 1137.09 -1.4277 0.924696 0
M  V30 12222 O 1138.28 -1.53089 1.19488 0
M  V30 12223 C 1135.41 -2.46229 2.44925 0
M  V30 12224 C 1134.36 -2.31702 3.59859 0
M  V30 12225 C 1133.69 -3.69161 3.86813 0
M  V30 12226 C 1134.99 -1.77158 4.91337 0
M  V30 12227 H 1136.68 -0.749581 2.89865 0
M  V30 12228 H 1134.23 -0.359126 1.3945 0
M  V30 12229 H 1136.18 -3.18267 2.76195 0
M  V30 12230 H 1134.9 -2.86971 1.55933 0
M  V30 12231 H 1133.56 -1.62112 3.28809 0
M  V30 12232 H 1133.21 -4.07401 2.95015 0
M  V30 12233 H 1132.91 -3.60292 4.6418 0
M  V30 12234 H 1134.43 -4.42693 4.20542 0
M  V30 12235 H 1135.85 -2.3902 5.21097 0
M  V30 12236 H 1134.25 -1.79091 5.72753 0
M  V30 12237 H 1135.32 -0.729675 4.79379 0
M  V30 12238 N 1136.66 -1.52894 -0.382264 0
M  V30 12239 C 1137.88 -1.72453 -1.15216 0
M  V30 12240 C 1138.31 -0.444925 -1.82762 0
M  V30 12241 O 1137.67 0.599825 -1.7109 0
M  V30 12242 C 1137.71 -2.87939 -2.17079 0
M  V30 12243 O 1136.82 -2.55383 -3.23811 0
M  V30 12244 H 1136.16 -0.57324 -0.335099 0
M  V30 12245 H 1138.69 -1.99713 -0.444495 0
M  V30 12246 H 1138.7 -3.13628 -2.60963 0
M  V30 12247 H 1137.37 -3.80765 -1.67305 0
M  V30 12248 H 1135.95 -2.40457 -2.85018 0
M  V30 12249 N 1138.14 0.641106 -1.43971 0
M  V30 12250 C 1139.07 1.76489 -1.52885 0
M  V30 12251 C 1140.05 1.65742 -0.38258 0
M  V30 12252 O 1141.23 1.84653 -0.601397 0
M  V30 12253 C 1138.36 3.14977 -1.4631 0
M  V30 12254 C 1137.32 3.40502 -2.59311 0
M  V30 12255 C 1136.64 4.78916 -2.37789 0
M  V30 12256 C 1137.94 3.34048 -4.01509 0
M  V30 12257 H 1139.64 1.69286 -2.46946 0
M  V30 12258 H 1137.18 0.813015 -1.18853 0
M  V30 12259 H 1139.14 3.9336 -1.51149 0
M  V30 12260 H 1137.86 3.2294 -0.487599 0
M  V30 12261 H 1136.52 2.64495 -2.53846 0
M  V30 12262 H 1136.17 4.8357 -1.38454 0
M  V30 12263 H 1135.87 4.96954 -3.13545 0
M  V30 12264 H 1137.39 5.59541 -2.4443 0
M  V30 12265 H 1138.81 4.0235 -4.08396 0
M  V30 12266 H 1137.2 3.63622 -4.77388 0
M  V30 12267 H 1138.27 2.32022 -4.25786 0
M  V30 12268 N 1139.62 1.30703 0.880598 0
M  V30 12269 C 1141.03 1.09129 1.1646 0
M  V30 12270 C 1141.23 -0.145131 2.00977 0
M  V30 12271 O 1140.29 -0.837502 2.38206 0
M  V30 12272 C 1141.6 2.35717 1.86703 0
M  V30 12273 C 1143.15 2.41224 1.9945 0
M  V30 12274 C 1143.62 3.67665 2.73105 0
M  V30 12275 N 1145.11 3.68498 2.80648 0
M  V30 12276 C 1145.85 4.63024 3.38225 0
M  V30 12277 N 1145.35 5.67898 3.96817 0
M  V30 12278 N 1147.14 4.50561 3.36082 0
M  V30 12279 H 1139.29 2.10019 0.317164 0
M  V30 12280 H 1141.55 0.925994 0.203072 0
M  V30 12281 H 1141.26 3.2597 1.32046 0
M  V30 12282 H 1141.13 2.447 2.87057 0
M  V30 12283 H 1143.52 1.51446 2.53275 0
M  V30 12284 H 1143.6 2.36212 0.981704 0
M  V30 12285 H 1143.24 4.57803 2.19951 0
M  V30 12286 H 1143.17 3.69939 3.7477 0
M  V30 12287 H 1145.67 2.92681 2.39053 0
M  V30 12288 H 1145.98 6.3612 4.3883 0
M  V30 12289 H 1144.32 5.71685 3.95223 0
M  V30 12290 H 1147.51 3.67811 2.89539 0
M  V30 12291 H 1147.69 5.24408 3.80657 0
M  V30 12292 N 1141.09 -1.09351 1.1349 0
M  V30 12293 C 1142.34 -1.81543 0.897123 0
M  V30 12294 C 1142.67 -1.85754 -0.576703 0
M  V30 12295 O 1141.92 -1.32213 -1.44285 0
M  V30 12296 C 1142.22 -3.27498 1.43108 0
M  V30 12297 C 1141.89 -3.4342 2.92188 0
M  V30 12298 C 1140.55 -3.47473 3.32891 0
M  V30 12299 C 1142.9 -3.47894 3.88097 0
M  V30 12300 C 1140.23 -3.5358 4.68186 0
M  V30 12301 C 1142.58 -3.55535 5.23238 0
M  V30 12302 C 1141.25 -3.57857 5.63467 0
M  V30 12303 H 1140.52 -0.664314 0.32828 0
M  V30 12304 H 1143.16 -1.28819 1.41697 0
M  V30 12305 H 1141.47 -3.82865 0.831946 0
M  V30 12306 H 1143.17 -3.8189 1.22316 0
M  V30 12307 H 1139.76 -3.4095 2.59713 0
M  V30 12308 H 1143.94 -3.44002 3.57737 0
M  V30 12309 H 1139.2 -3.53665 4.9873 0
M  V30 12310 H 1143.37 -3.57942 5.9737 0
M  V30 12311 H 1141 -3.62341 6.68291 0
M  V30 12312 N 1142.57 -0.928524 -1.27343 0
M  V30 12313 C 1143.5 -0.445627 -2.29208 0
M  V30 12314 C 1144.48 0.494508 -1.62753 0
M  V30 12315 O 1145.67 0.399082 -1.90055 0
M  V30 12316 C 1142.8 0.301684 -3.45987 0
M  V30 12317 C 1141.75 -0.550695 -4.24442 0
M  V30 12318 C 1141.08 0.325833 -5.33706 0
M  V30 12319 C 1142.38 -1.81559 -4.89728 0
M  V30 12320 H 1144.07 -1.29696 -2.69851 0
M  V30 12321 H 1141.62 -0.625085 -1.29725 0
M  V30 12322 H 1143.57 0.650455 -4.1635 0
M  V30 12323 H 1142.29 1.18705 -3.04264 0
M  V30 12324 H 1140.95 -0.882185 -3.55827 0
M  V30 12325 H 1140.6 1.21018 -4.88225 0
M  V30 12326 H 1140.3 -0.240994 -5.87106 0
M  V30 12327 H 1141.83 0.670156 -6.06911 0
M  V30 12328 H 1143.24 -1.53483 -5.52373 0
M  V30 12329 H 1141.64 -2.32598 -5.53189 0
M  V30 12330 H 1142.71 -2.53461 -4.13383 0
M  V30 12331 N 1144.05 1.41491 -0.694123 0
M  V30 12332 C 1145.3 2.00854 -0.224033 0
M  V30 12333 C 1145.62 1.55246 1.17999 0
M  V30 12334 O 1144.89 0.782452 1.79595 0
M  V30 12335 H 1143.47 0.742721 -0.0798368 0
M  V30 12336 H 1146.13 1.73137 -0.894958 0
M  V30 12337 H 1145.23 3.11173 -0.240332 0
M  V30 12338 N 1145.53 0.438773 1.51369 0
M  V30 12339 C 1146.75 -0.128221 2.07003 0
M  V30 12340 C 1147.18 -1.3557 1.30393 0
M  V30 12341 O 1146.54 -1.7804 0.342283 0
M  V30 12342 C 1146.58 -0.42761 3.58056 0
M  V30 12343 O 1145.69 -1.51382 3.83611 0
M  V30 12344 H 1145.03 -0.00123679 0.663999 0
M  V30 12345 H 1147.56 0.62052 1.94963 0
M  V30 12346 H 1147.57 -0.677645 4.02333 0
M  V30 12347 H 1146.24 0.469535 4.13241 0
M  V30 12348 H 1144.82 -1.25363 3.51196 0
M  V30 12349 N 1147.01 -1.56678 0.170181 0
M  V30 12350 C 1148.24 -2.00931 -0.480664 0
M  V30 12351 C 1148.64 -1.04947 -1.57425 0
M  V30 12352 O 1147.99 -0.042229 -1.83651 0
M  V30 12353 C 1148.05 -3.4161 -1.11996 0
M  V30 12354 C 1147.71 -4.5669 -0.168167 0
M  V30 12355 C 1148.71 -5.16273 0.613059 0
M  V30 12356 C 1146.39 -5.02259 -0.0643243 0
M  V30 12357 C 1148.39 -6.19852 1.48534 0
M  V30 12358 C 1146.08 -6.05687 0.811542 0
M  V30 12359 C 1147.07 -6.64355 1.58496 0
M  V30 12360 O 1146.76 -7.65778 2.44619 0
M  V30 12361 H 1146.49 -0.66386 -0.12754 0
M  V30 12362 H 1149.05 -2.03635 0.2687 0
M  V30 12363 H 1147.28 -3.35815 -1.91743 0
M  V30 12364 H 1148.97 -3.69823 -1.67289 0
M  V30 12365 H 1149.73 -4.81951 0.542999 0
M  V30 12366 H 1145.61 -4.56307 -0.656102 0
M  V30 12367 H 1149.16 -6.65572 2.08948 0
M  V30 12368 H 1145.05 -6.39435 0.88281 0
M  V30 12369 H 1145.82 -7.83096 2.38122 0
M  V30 12370 N 1148.48 0.103547 -1.57259 0
M  V30 12371 C 1149.9 0.457527 -1.52901 0
M  V30 12372 C 1150.1 1.80995 -0.8856 0
M  V30 12373 O 1149.16 2.48001 -0.474504 0
M  V30 12374 C 1150.47 0.427793 -2.97641 0
M  V30 12375 C 1152.02 0.51025 -3.08813 0
M  V30 12376 C 1152.49 0.51075 -4.55143 0
M  V30 12377 N 1153.98 0.571748 -4.59658 0
M  V30 12378 C 1154.72 0.593836 -5.70317 0
M  V30 12379 N 1154.21 0.572638 -6.90429 0
M  V30 12380 N 1156.01 0.638011 -5.58467 0
M  V30 12381 H 1148.16 -0.782408 -1.97464 0
M  V30 12382 H 1150.42 -0.290324 -0.90245 0
M  V30 12383 H 1150.13 -0.498608 -3.48148 0
M  V30 12384 H 1150 1.24991 -3.55889 0
M  V30 12385 H 1152.39 1.42707 -2.583 0
M  V30 12386 H 1152.47 -0.339846 -2.53532 0
M  V30 12387 H 1152.11 -0.40209 -5.06306 0
M  V30 12388 H 1152.04 1.37794 -5.08252 0
M  V30 12389 H 1154.53 0.593668 -3.73208 0
M  V30 12390 H 1154.85 0.592542 -7.70525 0
M  V30 12391 H 1153.19 0.539818 -6.929 0
M  V30 12392 H 1156.38 0.652042 -4.63536 0
M  V30 12393 H 1156.56 0.651756 -6.44714 0
M  V30 12394 N 1149.96 1.53094 0.37415 0
M  V30 12395 C 1151.19 1.72758 1.13852 0
M  V30 12396 C 1151.6 0.452638 1.83294 0
M  V30 12397 O 1150.96 -0.573906 1.73241 0
M  V30 12398 C 1151.01 2.88724 2.17534 0
M  V30 12399 O 1150.73 4.11284 1.5092 0
M  V30 12400 C 1152.23 3.2019 3.06584 0
M  V30 12401 H 1149.45 0.578028 0.340771 0
M  V30 12402 H 1152 1.99805 0.435683 0
M  V30 12403 H 1150.15 2.64096 2.83429 0
M  V30 12404 H 1150.57 4.76162 2.19932 0
M  V30 12405 H 1152.04 4.04759 3.75332 0
M  V30 12406 H 1152.52 2.35193 3.70919 0
M  V30 12407 H 1153.12 3.46712 2.46315 0
M  V30 12408 N 1151.44 -0.633461 1.44309 0
M  V30 12409 C 1152.37 -1.75676 1.53819 0
M  V30 12410 C 1153.35 -1.65537 0.391365 0
M  V30 12411 O 1154.54 -1.84332 0.611181 0
M  V30 12412 C 1151.67 -3.14197 1.47979 0
M  V30 12413 C 1150.62 -3.39122 2.61113 0
M  V30 12414 C 1149.95 -4.77648 2.40325 0
M  V30 12415 C 1151.25 -3.31914 4.03274 0
M  V30 12416 H 1152.94 -1.67974 2.47841 0
M  V30 12417 H 1150.49 -0.8067 1.19283 0
M  V30 12418 H 1152.44 -3.92553 1.53233 0
M  V30 12419 H 1151.16 -3.22677 0.504718 0
M  V30 12420 H 1149.82 -2.63145 2.55245 0
M  V30 12421 H 1149.47 -4.82829 1.41016 0
M  V30 12422 H 1149.17 -4.95284 3.16177 0
M  V30 12423 H 1150.69 -5.58237 2.47394 0
M  V30 12424 H 1152.11 -4.00178 4.10524 0
M  V30 12425 H 1150.5 -3.61085 4.7931 0
M  V30 12426 H 1151.57 -2.29761 4.2701 0
M  V30 12427 N 1152.92 -1.31168 -0.873655 0
M  V30 12428 C 1154.16 -1.20821 -1.62881 0
M  V30 12429 C 1154.5 0.233994 -1.92785 0
M  V30 12430 O 1153.77 1.16588 -1.55684 0
M  V30 12431 C 1154.06 -2.04875 -2.96139 0
M  V30 12432 C 1153.91 -3.57375 -2.73136 0
M  V30 12433 C 1155.23 -1.8953 -3.97198 0
M  V30 12434 H 1152.35 -0.44026 -0.59105 0
M  V30 12435 H 1154.99 -1.6092 -1.01019 0
M  V30 12436 H 1153.14 -1.70806 -3.48938 0
M  V30 12437 H 1154.81 -4.01561 -2.27038 0
M  V30 12438 H 1153.05 -3.8099 -2.07434 0
M  V30 12439 H 1153.72 -4.1149 -3.6794 0
M  V30 12440 H 1156.2 -2.19337 -3.53596 0
M  V30 12441 H 1155.08 -2.5065 -4.8833 0
M  V30 12442 H 1155.34 -0.857576 -4.33703 0
M  V30 12443 N 1154.4 1.08748 -1.14068 0
M  V30 12444 C 1155.62 1.85353 -0.930532 0
M  V30 12445 C 1156.05 1.80892 0.515717 0
M  V30 12446 O 1155.4 1.19146 1.36652 0
M  V30 12447 C 1155.45 3.30962 -1.43167 0
M  V30 12448 O 1154.56 4.0769 -0.621468 0
M  V30 12449 H 1153.9 0.574485 -0.332962 0
M  V30 12450 H 1156.43 1.37282 -1.51707 0
M  V30 12451 H 1156.44 3.81807 -1.43832 0
M  V30 12452 H 1155.11 3.33524 -2.48464 0
M  V30 12453 H 1153.69 3.66587 -0.683267 0
M  V30 12454 N 1155.87 0.935264 1.26849 0
M  V30 12455 C 1156.8 0.457776 2.28969 0
M  V30 12456 C 1157.79 -0.48587 1.63013 0
M  V30 12457 O 1158.97 -0.388998 1.90264 0
M  V30 12458 C 1156.1 -0.283332 3.46142 0
M  V30 12459 C 1155.05 0.573196 4.24144 0
M  V30 12460 C 1154.38 -0.297525 5.33872 0
M  V30 12461 C 1155.68 1.84153 4.88759 0
M  V30 12462 H 1157.37 1.31125 2.69159 0
M  V30 12463 H 1154.92 0.631956 1.29392 0
M  V30 12464 H 1156.87 -0.628366 4.16689 0
M  V30 12465 H 1155.6 -1.1709 3.04889 0
M  V30 12466 H 1154.26 0.901043 3.55354 0
M  V30 12467 H 1153.9 -1.18427 4.8886 0
M  V30 12468 H 1153.6 0.272126 5.8697 0
M  V30 12469 H 1155.13 -0.637961 6.07258 0
M  V30 12470 H 1156.54 1.5641 5.51551 0
M  V30 12471 H 1154.94 2.35528 5.51948 0
M  V30 12472 H 1156.01 2.5565 4.12033 0
M  V30 12473 N 1157.35 -1.41121 0.701616 0
M  V30 12474 C 1158.28 -2.33436 0.0545974 0
M  V30 12475 C 1159.26 -1.52144 -0.760662 0
M  V30 12476 O 1160.45 -1.80661 -0.712414 0
M  V30 12477 C 1157.58 -3.36015 -0.878117 0
M  V30 12478 C 1156.53 -4.27664 -0.169511 0
M  V30 12479 C 1155.86 -5.20666 -1.21699 0
M  V30 12480 C 1157.16 -5.13254 0.967859 0
M  V30 12481 H 1158.85 -2.87791 0.825637 0
M  V30 12482 H 1156.4 -1.38377 0.398484 0
M  V30 12483 H 1158.35 -3.99526 -1.34004 0
M  V30 12484 H 1157.08 -2.80024 -1.68089 0
M  V30 12485 H 1155.73 -3.65586 0.272441 0
M  V30 12486 H 1155.38 -4.60987 -2.01246 0
M  V30 12487 H 1155.08 -5.82822 -0.747836 0
M  V30 12488 H 1156.61 -5.87053 -1.6793 0
M  V30 12489 H 1158.02 -5.70298 0.585944 0
M  V30 12490 H 1156.42 -5.84381 1.3645 0
M  V30 12491 H 1157.49 -4.5006 1.80483 0
M  V30 12492 N 1158.83 -0.446794 -1.51134 0
M  V30 12493 C 1159.76 0.350229 -2.30858 0
M  V30 12494 C 1160.74 1.0125 -1.36684 0
M  V30 12495 O 1161.93 1.01433 -1.65605 0
M  V30 12496 C 1159.06 1.4464 -3.15748 0
M  V30 12497 C 1158.01 0.907102 -4.18277 0
M  V30 12498 C 1157.34 2.09974 -4.91747 0
M  V30 12499 C 1158.64 -0.0649758 -5.2226 0
M  V30 12500 H 1160.33 -0.315105 -2.97737 0
M  V30 12501 H 1157.88 -0.152985 -1.43185 0
M  V30 12502 H 1159.83 2.01127 -3.70305 0
M  V30 12503 H 1158.55 2.14016 -2.46708 0
M  V30 12504 H 1157.21 0.364382 -3.64785 0
M  V30 12505 H 1156.86 2.77991 -4.19202 0
M  V30 12506 H 1156.56 1.74523 -5.61084 0
M  V30 12507 H 1158.08 2.66996 -5.49131 0
M  V30 12508 H 1159.5 0.4099 -5.71833 0
M  V30 12509 H 1157.9 -0.332529 -5.99178 0
M  V30 12510 H 1158.97 -0.998681 -4.74504 0
M  V30 12511 N 1160.31 1.56586 -0.178487 0
M  V30 12512 C 1161.27 2.17091 0.73512 0
M  V30 12513 C 1162.27 1.12088 1.15295 0
M  V30 12514 O 1163.46 1.37563 1.06874 0
M  V30 12515 C 1160.59 2.75957 2.00151 0
M  V30 12516 H 1161.79 2.99176 0.208272 0
M  V30 12517 H 1159.34 1.56138 0.0710967 0
M  V30 12518 H 1160.07 1.97626 2.57127 0
M  V30 12519 H 1159.86 3.52809 1.7108 0
M  V30 12520 H 1161.35 3.2247 2.65335 0
M  V30 12521 N 1161.79 -0.095206 1.57312 0
M  V30 12522 C 1163.03 -0.798719 1.86083 0
M  V30 12523 C 1163.36 -1.78739 0.766991 0
M  V30 12524 O 1162.62 -1.9423 -0.239425 0
M  V30 12525 C 1162.92 -1.56244 3.21438 0
M  V30 12526 C 1162.58 -0.715903 4.4518 0
M  V30 12527 C 1161.24 -0.482537 4.78774 0
M  V30 12528 C 1163.6 -0.127404 5.21044 0
M  V30 12529 C 1160.92 0.349193 5.8566 0
M  V30 12530 C 1163.28 0.691649 6.28808 0
M  V30 12531 C 1161.94 0.935107 6.60918 0
M  V30 12532 H 1161.21 -0.292272 0.680924 0
M  V30 12533 H 1163.86 -0.0602105 1.91405 0
M  V30 12534 H 1162.16 -2.37251 3.118 0
M  V30 12535 H 1163.86 -2.11116 3.40927 0
M  V30 12536 H 1160.45 -0.907902 4.18874 0
M  V30 12537 H 1164.63 -0.29486 4.95423 0
M  V30 12538 H 1159.89 0.546797 6.0895 0
M  V30 12539 H 1164.06 1.15452 6.86763 0
M  V30 12540 H 1161.69 1.58139 7.4357 0
M  V30 12541 N 1163.26 -1.53291 -0.366026 0
M  V30 12542 C 1164.51 -1.69451 -1.10872 0
M  V30 12543 C 1164.84 -0.446078 -1.89316 0
M  V30 12544 O 1164.09 0.571962 -1.87155 0
M  V30 12545 C 1164.39 -2.89547 -2.09517 0
M  V30 12546 C 1164.06 -4.26073 -1.47556 0
M  V30 12547 C 1162.72 -4.63199 -1.30386 0
M  V30 12548 C 1165.07 -5.10977 -1.02724 0
M  V30 12549 C 1162.4 -5.82866 -0.669666 0
M  V30 12550 C 1164.75 -6.31289 -0.407052 0
M  V30 12551 C 1163.42 -6.67128 -0.222839 0
M  V30 12552 H 1162.69 -0.620066 -0.405708 0
M  V30 12553 H 1165.33 -1.87475 -0.390563 0
M  V30 12554 H 1163.64 -2.66034 -2.87634 0
M  V30 12555 H 1165.34 -2.99245 -2.66933 0
M  V30 12556 H 1161.93 -3.9684 -1.61914 0
M  V30 12557 H 1166.11 -4.82844 -1.14783 0
M  V30 12558 H 1161.37 -6.09224 -0.515351 0
M  V30 12559 H 1165.54 -6.96381 -0.0514661 0
M  V30 12560 H 1163.17 -7.59718 0.270647 0
M  V30 12561 N 1164.74 0.6258 -1.44643 0
M  V30 12562 C 1165.99 1.3873 -1.47925 0
M  V30 12563 C 1166.32 1.93868 -0.113469 0
M  V30 12564 O 1165.6 1.73976 0.869639 0
M  V30 12565 C 1165.88 2.54867 -2.54391 0
M  V30 12566 C 1165.73 2.05044 -4.00346 0
M  V30 12567 C 1167.05 3.57043 -2.57309 0
M  V30 12568 H 1164.17 0.503087 -0.538584 0
M  V30 12569 H 1166.81 0.707102 -1.76352 0
M  V30 12570 H 1164.96 3.12894 -2.30281 0
M  V30 12571 H 1166.63 1.51807 -4.35606 0
M  V30 12572 H 1164.88 1.36185 -4.11869 0
M  V30 12573 H 1165.55 2.88681 -4.70497 0
M  V30 12574 H 1168.02 3.08826 -2.78865 0
M  V30 12575 H 1166.9 4.35818 -3.33698 0
M  V30 12576 H 1167.16 4.11464 -1.61708 0
M  V30 12577 N 1166.22 1.31629 0.866686 0
M  V30 12578 C 1167.18 1.1951 1.95576 0
M  V30 12579 C 1168.18 0.121319 1.60342 0
M  V30 12580 O 1169.37 0.370832 1.70207 0
M  V30 12581 C 1166.51 0.835201 3.30511 0
M  V30 12582 H 1167.7 2.16285 2.07752 0
M  V30 12583 H 1165.25 1.15288 1.05539 0
M  V30 12584 H 1165.99 -0.131245 3.24034 0
M  V30 12585 H 1165.77 1.61142 3.57457 0
M  V30 12586 H 1167.26 0.774393 4.10357 0
M  V30 12587 N 1167.7 -1.08142 1.14644 0
M  V30 12588 C 1168.92 -1.84857 0.940349 0
M  V30 12589 C 1169.35 -1.81163 -0.506117 0
M  V30 12590 O 1168.71 -1.19869 -1.36019 0
M  V30 12591 C 1168.76 -3.30198 1.4492 0
M  V30 12592 O 1167.86 -4.07355 0.64308 0
M  V30 12593 H 1167.2 -0.572711 0.336003 0
M  V30 12594 H 1169.73 -1.36475 1.52432 0
M  V30 12595 H 1169.74 -3.81039 1.45854 0
M  V30 12596 H 1168.42 -3.32202 2.50229 0
M  V30 12597 H 1166.99 -3.66219 0.702698 0
M  V30 12598 N 1169.18 -0.941978 -1.26351 0
M  V30 12599 C 1170.11 -0.469913 -2.28723 0
M  V30 12600 C 1171.09 0.477218 -1.63269 0
M  V30 12601 O 1172.27 0.378902 -1.90468 0
M  V30 12602 C 1169.4 0.264971 -3.46288 0
M  V30 12603 C 1168.36 -0.595682 -4.23834 0
M  V30 12604 C 1167.68 0.269208 -5.34022 0
M  V30 12605 C 1168.98 -1.86743 -4.87775 0
M  V30 12606 H 1170.68 -1.32551 -2.6846 0
M  V30 12607 H 1168.22 -0.638809 -1.29055 0
M  V30 12608 H 1170.18 0.606259 -4.17016 0
M  V30 12609 H 1168.9 1.15471 -3.05506 0
M  V30 12610 H 1167.56 -0.919875 -3.54872 0
M  V30 12611 H 1167.21 1.15832 -4.89481 0
M  V30 12612 H 1166.91 -0.30325 -5.86817 0
M  V30 12613 H 1168.43 0.605748 -6.07588 0
M  V30 12614 H 1169.85 -1.59333 -5.50714 0
M  V30 12615 H 1168.24 -2.38452 -5.50691 0
M  V30 12616 H 1169.31 -2.57831 -4.10671 0
M  V30 12617 N 1170.66 1.40747 -0.709091 0
M  V30 12618 C 1171.9 2.01003 -0.24581 0
M  V30 12619 C 1172.23 1.56203 1.15891 0
M  V30 12620 O 1171.49 0.770166 1.79908 0
M  V30 12621 C 1171.78 3.56404 -0.266685 0
M  V30 12622 C 1171.45 4.20762 -1.6208 0
M  V30 12623 C 1170.11 4.38056 -1.99148 0
M  V30 12624 C 1172.46 4.56723 -2.51105 0
M  V30 12625 C 1169.79 4.88591 -3.248 0
M  V30 12626 C 1172.14 5.08654 -3.76103 0
M  V30 12627 C 1170.81 5.24158 -4.13297 0
M  V30 12628 H 1170.08 0.73552 -0.0899481 0
M  V30 12629 H 1172.73 1.68451 -0.910844 0
M  V30 12630 H 1171.03 3.88825 0.481915 0
M  V30 12631 H 1172.73 4.0085 0.109509 0
M  V30 12632 H 1169.32 4.07685 -1.32252 0
M  V30 12633 H 1173.5 4.43004 -2.23744 0
M  V30 12634 H 1168.76 4.98779 -3.53595 0
M  V30 12635 H 1172.93 5.35457 -4.45262 0
M  V30 12636 H 1170.56 5.63079 -5.10731 0
M  V30 12637 N 1172.13 0.454803 1.50895 0
M  V30 12638 C 1173.37 -0.104722 2.04132 0
M  V30 12639 C 1173.74 -1.38434 1.33042 0
M  V30 12640 O 1174.94 -2.02521 1.76745 0
M  V30 12641 C 1173.21 -0.300775 3.56132 0
M  V30 12642 S 1174.77 -0.821197 4.31047 0
M  V30 12643 H 1171.59 -0.0236407 0.710607 0
M  V30 12644 H 1174.19 0.618213 1.85468 0
M  V30 12645 H 1172.89 0.636592 4.05433 0
M  V30 12646 H 1172.42 -1.05029 3.79121 0
M  V30 12647 H 1174.44 -2.09669 4.49726 0
M  V30 12648 N 1173.61 -1.56489 0.186789 0
M  V30 12649 C 1174.86 -1.97634 -0.454831 0
M  V30 12650 C 1175.19 -1.07334 -1.61843 0
M  V30 12651 O 1174.47 -0.123612 -1.94107 0
M  V30 12652 C 1174.75 -3.48071 -0.922962 0
M  V30 12653 C 1174.6 -4.49149 0.241877 0
M  V30 12654 C 1175.92 -4.01994 -1.79134 0
M  V30 12655 H 1173.04 -0.718555 -0.163854 0
M  V30 12656 H 1175.68 -1.87984 0.27604 0
M  V30 12657 H 1173.83 -3.56425 -1.54575 0
M  V30 12658 H 1175.5 -4.52841 0.87936 0
M  V30 12659 H 1173.75 -4.24468 0.894964 0
M  V30 12660 H 1174.42 -5.51851 -0.128051 0
M  V30 12661 H 1176.89 -3.96367 -1.26618 0
M  V30 12662 H 1175.77 -5.07641 -2.08787 0
M  V30 12663 H 1176.03 -3.46747 -2.74261 0
M  V30 12664 N 1175.09 0.086862 -1.5736 0
M  V30 12665 C 1176.34 0.787281 -1.86135 0
M  V30 12666 C 1176.66 1.78866 -0.776667 0
M  V30 12667 O 1175.93 1.94915 0.19625 0
M  V30 12668 H 1174.51 0.293744 -0.686821 0
M  V30 12669 H 1177.17 0.0665326 -1.94786 0
M  V30 12670 H 1176.27 1.3128 -2.83147 0
M  V30 12671 N 1176.57 1.53483 0.357892 0
M  V30 12672 C 1177.98 1.61641 0.934289 0
M  V30 12673 C 1178.33 0.488655 1.90017 0
M  V30 12674 O 1177.45 -0.38378 2.1297 0
M  V30 12675 C 1178.05 2.92987 1.7013 0
M  V30 12676 C 1176.61 3.03456 2.22692 0
M  V30 12677 C 1175.76 2.56992 1.04165 0
M  V30 12678 H 1178.71 1.58112 0.136452 0
M  V30 12679 H 1178.73 2.81221 2.5631 0
M  V30 12680 H 1178.24 3.75047 0.998056 0
M  V30 12681 H 1176.34 2.25999 2.96235 0
M  V30 12682 H 1176.45 4.08673 2.50046 0
M  V30 12683 H 1174.82 2.12052 1.41088 0
M  V30 12684 H 1175.6 3.41477 0.353272 0
M  V30 12685 N 1178.05 -0.61812 1.44973 0
M  V30 12686 C 1178.98 -1.74035 1.55673 0
M  V30 12687 C 1179.96 -1.65112 0.4089 0
M  V30 12688 O 1181.14 -1.83673 0.630698 0
M  V30 12689 C 1178.27 -3.1261 1.51303 0
M  V30 12690 C 1177.23 -3.36334 2.64696 0
M  V30 12691 C 1176.55 -4.75072 2.45378 0
M  V30 12692 C 1177.85 -3.27618 4.06772 0
M  V30 12693 H 1179.55 -1.65336 2.49608 0
M  V30 12694 H 1177.09 -0.794003 1.20132 0
M  V30 12695 H 1179.04 -3.90906 1.57388 0
M  V30 12696 H 1177.77 -3.22123 0.538914 0
M  V30 12697 H 1176.43 -2.60423 2.58022 0
M  V30 12698 H 1176.08 -4.81306 1.46129 0
M  V30 12699 H 1175.78 -4.91903 3.21412 0
M  V30 12700 H 1177.3 -5.55582 2.53301 0
M  V30 12701 H 1178.71 -3.95802 4.14746 0
M  V30 12702 H 1177.11 -3.55981 4.83113 0
M  V30 12703 H 1178.18 -2.25219 4.29423 0
M  V30 12704 N 1179.52 -1.32087 -0.859693 0
M  V30 12705 C 1180.93 -1.20107 -1.42938 0
M  V30 12706 C 1181.29 0.188411 -1.95293 0
M  V30 12707 O 1180.41 1.08683 -1.87128 0
M  V30 12708 C 1181.01 -2.17436 -2.59821 0
M  V30 12709 C 1179.56 -2.09359 -3.12803 0
M  V30 12710 C 1178.71 -2.06086 -1.85537 0
M  V30 12711 H 1181.66 -1.43989 -0.667302 0
M  V30 12712 H 1181.68 -1.76996 -3.36828 0
M  V30 12713 H 1181.2 -3.18555 -2.21685 0
M  V30 12714 H 1179.3 -1.1147 -3.55535 0
M  V30 12715 H 1179.41 -2.98947 -3.74389 0
M  V30 12716 H 1177.77 -1.51251 -2.04928 0
M  V30 12717 H 1178.56 -3.08978 -1.49625 0
M  V30 12718 N 1181 1.07532 -1.15215 0
M  V30 12719 C 1182.24 1.81689 -0.936396 0
M  V30 12720 C 1182.61 1.84622 0.527136 0
M  V30 12721 O 1183.81 2.54632 0.861159 0
M  V30 12722 C 1182.08 3.22919 -1.53161 0
M  V30 12723 S 1183.64 4.13845 -1.4587 0
M  V30 12724 H 1180.45 0.626036 -0.337045 0
M  V30 12725 H 1183.06 1.29191 -1.4673 0
M  V30 12726 H 1181.76 3.18372 -2.58974 0
M  V30 12727 H 1181.29 3.80492 -0.999482 0
M  V30 12728 H 1183.31 4.94152 -0.450317 0
M  V30 12729 N 1182.48 0.948665 1.2585 0
M  V30 12730 C 1183.71 0.617229 1.97479 0
M  V30 12731 C 1184.12 -0.809406 1.7057 0
M  V30 12732 O 1183.48 -1.54066 0.97826 0
M  V30 12733 C 1183.53 0.859065 3.51144 0
M  V30 12734 O 1183.25 2.2296 3.77121 0
M  V30 12735 C 1184.75 0.539197 4.40009 0
M  V30 12736 H 1181.97 0.231933 0.629641 0
M  V30 12737 H 1184.52 1.27141 1.60173 0
M  V30 12738 H 1182.67 0.25138 3.86584 0
M  V30 12739 H 1183.09 2.29524 4.71613 0
M  V30 12740 H 1184.56 0.758986 5.46757 0
M  V30 12741 H 1185.04 -0.526062 4.36038 0
M  V30 12742 H 1185.64 1.12594 4.10125 0
M  V30 12743 N 1183.96 -1.40369 0.716545 0
M  V30 12744 C 1184.89 -2.33365 0.0793533 0
M  V30 12745 C 1185.87 -1.52943 -0.744482 0
M  V30 12746 O 1187.05 -1.81406 -0.693212 0
M  V30 12747 C 1184.18 -3.36928 -0.842429 0
M  V30 12748 C 1183.14 -4.2782 -0.124142 0
M  V30 12749 C 1182.46 -5.21928 -1.1617 0
M  V30 12750 C 1183.76 -5.12199 1.02224 0
M  V30 12751 H 1185.46 -2.86899 0.856115 0
M  V30 12752 H 1183 -1.37946 0.413138 0
M  V30 12753 H 1184.96 -4.00925 -1.29759 0
M  V30 12754 H 1183.68 -2.81791 -1.6511 0
M  V30 12755 H 1182.34 -3.65277 0.311201 0
M  V30 12756 H 1181.99 -4.63096 -1.96345 0
M  V30 12757 H 1181.69 -5.83582 -0.685978 0
M  V30 12758 H 1183.21 -5.88802 -1.61694 0
M  V30 12759 H 1184.63 -5.69644 0.646399 0
M  V30 12760 H 1183.02 -5.82901 1.4264 0
M  V30 12761 H 1184.09 -4.4812 1.85246 0
M  V30 12762 N 1185.44 -0.462799 -1.50652 0
M  V30 12763 C 1186.37 0.325724 -2.31217 0
M  V30 12764 C 1187.35 0.997942 -1.3775 0
M  V30 12765 O 1188.53 0.996707 -1.66671 0
M  V30 12766 C 1185.66 1.41283 -3.17264 0
M  V30 12767 C 1184.62 0.862687 -4.19216 0
M  V30 12768 C 1183.94 2.04746 -4.93946 0
M  V30 12769 C 1185.24 -0.120365 -5.22161 0
M  V30 12770 H 1186.94 -0.346666 -2.97386 0
M  V30 12771 H 1184.48 -0.168163 -1.43015 0
M  V30 12772 H 1186.44 1.97188 -3.72418 0
M  V30 12773 H 1185.16 2.11387 -2.48964 0
M  V30 12774 H 1183.82 0.325671 -3.65151 0
M  V30 12775 H 1183.47 2.73529 -4.22127 0
M  V30 12776 H 1183.17 1.68562 -5.62904 0
M  V30 12777 H 1184.69 2.61157 -5.51932 0
M  V30 12778 H 1186.1 0.349226 -5.72235 0
M  V30 12779 H 1184.5 -0.396061 -5.98792 0
M  V30 12780 H 1185.57 -1.04895 -4.73418 0
M  V30 12781 N 1186.91 1.56388 -0.195085 0
M  V30 12782 C 1187.84 2.22091 0.720971 0
M  V30 12783 C 1188.83 1.184 1.22128 0
M  V30 12784 O 1190.01 1.46907 1.27012 0
M  V30 12785 C 1187.14 2.88025 1.94059 0
M  V30 12786 C 1186.09 3.97959 1.5752 0
M  V30 12787 C 1185.42 4.51058 2.87143 0
M  V30 12788 C 1186.72 5.16365 0.785145 0
M  V30 12789 H 1188.41 2.98898 0.173245 0
M  V30 12790 H 1185.96 1.43767 0.0818868 0
M  V30 12791 H 1187.91 3.32671 2.58666 0
M  V30 12792 H 1186.64 2.08623 2.51285 0
M  V30 12793 H 1185.3 3.54004 0.952715 0
M  V30 12794 H 1184.94 3.68418 3.42458 0
M  V30 12795 H 1184.64 5.25237 2.63439 0
M  V30 12796 H 1186.17 4.98406 3.52738 0
M  V30 12797 H 1187.58 5.57556 1.33431 0
M  V30 12798 H 1185.98 5.9661 0.646231 0
M  V30 12799 H 1187.05 4.84428 -0.213789 0
M  V30 12800 N 1188.39 -0.0785156 1.57404 0
M  V30 12801 C 1189.62 -0.792042 1.9114 0
M  V30 12802 C 1190.04 -1.71458 0.790408 0
M  V30 12803 O 1189.39 -1.80959 -0.236662 0
M  V30 12804 C 1189.44 -1.59138 3.24588 0
M  V30 12805 O 1189.16 -0.705931 4.32375 0
M  V30 12806 C 1190.67 -2.4065 3.72293 0
M  V30 12807 H 1187.89 -0.225566 0.63195 0
M  V30 12808 H 1190.43 -0.0507929 2.04437 0
M  V30 12809 H 1188.58 -2.28498 3.12838 0
M  V30 12810 H 1189 -1.26121 5.09111 0
M  V30 12811 H 1190.47 -2.92204 4.68317 0
M  V30 12812 H 1190.95 -3.1987 3.00965 0
M  V30 12813 H 1191.56 -1.7646 3.86965 0
M  V30 12814 N 1189.87 -1.5367 -0.349747 0
M  V30 12815 C 1190.8 -1.84208 -1.43492 0
M  V30 12816 C 1191.78 -0.696725 -1.55177 0
M  V30 12817 O 1192.97 -0.948061 -1.69486 0
M  V30 12818 C 1190.1 -2.04613 -2.80625 0
M  V30 12819 C 1189.05 -3.20419 -2.83753 0
M  V30 12820 C 1188.38 -3.26147 -4.23713 0
M  V30 12821 C 1189.68 -4.58666 -2.49846 0
M  V30 12822 H 1191.37 -2.75087 -1.18185 0
M  V30 12823 H 1188.92 -1.32363 -0.567101 0
M  V30 12824 H 1190.87 -2.2456 -3.56582 0
M  V30 12825 H 1189.59 -1.10459 -3.07354 0
M  V30 12826 H 1188.25 -3.00318 -2.10249 0
M  V30 12827 H 1187.9 -2.29599 -4.47541 0
M  V30 12828 H 1187.6 -4.03963 -4.26717 0
M  V30 12829 H 1189.12 -3.48296 -5.0152 0
M  V30 12830 H 1190.54 -4.78668 -3.15516 0
M  V30 12831 H 1188.94 -5.3884 -2.64144 0
M  V30 12832 H 1190.01 -4.62697 -1.4505 0
M  V30 12833 N 1191.35 0.610423 -1.45298 0
M  V30 12834 C 1192.6 1.3668 -1.48872 0
M  V30 12835 C 1192.92 1.94562 -0.130686 0
M  V30 12836 O 1192.19 1.76996 0.839607 0
M  V30 12837 H 1190.77 0.507393 -0.548235 0
M  V30 12838 H 1193.43 0.716997 -1.81232 0
M  V30 12839 H 1192.53 2.18766 -2.22593 0
M  V30 12840 N 1192.83 1.32541 0.852676 0
M  V30 12841 C 1194.06 1.26037 1.63702 0
M  V30 12842 C 1194.46 -0.173583 1.88402 0
M  V30 12843 O 1193.81 -1.12175 1.45473 0
M  V30 12844 C 1193.87 1.95245 3.01861 0
M  V30 12845 C 1193.53 3.44576 3.00193 0
M  V30 12846 C 1194.53 4.40026 2.76899 0
M  V30 12847 C 1192.22 3.86541 3.20766 0
M  V30 12848 C 1194.21 5.75414 2.74185 0
M  V30 12849 C 1191.9 5.22038 3.17678 0
M  V30 12850 C 1192.89 6.16286 2.94416 0
M  V30 12851 O 1192.58 7.49303 2.91206 0
M  V30 12852 H 1192.31 0.436073 0.516543 0
M  V30 12853 H 1194.87 1.75251 1.07127 0
M  V30 12854 H 1193.1 1.40603 3.60233 0
M  V30 12855 H 1194.79 1.82423 3.62597 0
M  V30 12856 H 1195.55 4.0893 2.6077 0
M  V30 12857 H 1191.43 3.13603 3.37897 0
M  V30 12858 H 1194.98 6.4895 2.55947 0
M  V30 12859 H 1190.87 5.52762 3.33353 0
M  V30 12860 H 1191.64 7.58686 3.07146 0
M  V30 12861 N 1194.3 -1.0692 1.15784 0
M  V30 12862 C 1195.55 -1.79866 0.936815 0
M  V30 12863 C 1195.88 -1.867 -0.534477 0
M  V30 12864 O 1195.16 -1.35395 -1.39637 0
M  V30 12865 C 1195.44 -3.24691 1.55717 0
M  V30 12866 C 1195.29 -3.25975 3.09936 0
M  V30 12867 C 1196.61 -4.22076 1.24658 0
M  V30 12868 H 1193.73 -0.652971 0.341756 0
M  V30 12869 H 1196.37 -1.25085 1.43016 0
M  V30 12870 H 1194.52 -3.7147 1.13763 0
M  V30 12871 H 1196.2 -2.87405 3.60827 0
M  V30 12872 H 1194.44 -2.64808 3.43597 0
M  V30 12873 H 1195.11 -4.28114 3.48458 0
M  V30 12874 H 1197.59 -3.83709 1.60956 0
M  V30 12875 H 1196.46 -5.21691 1.70675 0
M  V30 12876 H 1196.72 -4.41794 0.164341 0
M  V30 12877 N 1195.78 -0.955326 -1.25345 0
M  V30 12878 C 1196.71 -0.494145 -2.28211 0
M  V30 12879 C 1197.69 0.459875 -1.63766 0
M  V30 12880 O 1198.88 0.358679 -1.90859 0
M  V30 12881 C 1196.01 0.228228 -3.46549 0
M  V30 12882 C 1194.96 -0.640601 -4.23179 0
M  V30 12883 C 1194.29 0.212553 -5.34277 0
M  V30 12884 C 1195.59 -1.91906 -4.85767 0
M  V30 12885 H 1197.28 -1.35391 -2.67039 0
M  V30 12886 H 1194.83 -0.652462 -1.2837 0
M  V30 12887 H 1196.78 0.561995 -4.17636 0
M  V30 12888 H 1195.51 1.12224 -3.06714 0
M  V30 12889 H 1194.16 -0.957462 -3.53876 0
M  V30 12890 H 1193.81 1.10634 -4.90682 0
M  V30 12891 H 1193.51 -0.365473 -5.86462 0
M  V30 12892 H 1195.04 0.541271 -6.08196 0
M  V30 12893 H 1196.45 -1.65165 -5.48993 0
M  V30 12894 H 1194.85 -2.44279 -5.48131 0
M  V30 12895 H 1195.92 -2.62173 -4.07914 0
M  V30 12896 N 1197.26 1.39987 -0.723979 0
M  V30 12897 C 1198.49 2.0474 -0.276618 0
M  V30 12898 C 1198.9 1.54675 1.0896 0
M  V30 12899 O 1198.24 0.701956 1.69759 0
M  V30 12900 C 1198.3 3.59009 -0.187912 0
M  V30 12901 C 1197.97 4.32 -1.49079 0
M  V30 12902 C 1198.97 4.59385 -2.43436 0
M  V30 12903 C 1196.65 4.70753 -1.75204 0
M  V30 12904 C 1198.64 5.24519 -3.62159 0
M  V30 12905 C 1196.33 5.35617 -2.94206 0
M  V30 12906 C 1197.33 5.62431 -3.87506 0
M  V30 12907 O 1197.02 6.25952 -5.0442 0
M  V30 12908 H 1196.75 0.665164 -0.120554 0
M  V30 12909 H 1199.3 1.80226 -0.98527 0
M  V30 12910 H 1197.53 3.82375 0.576753 0
M  V30 12911 H 1199.22 4.0527 0.225993 0
M  V30 12912 H 1199.99 4.29902 -2.24519 0
M  V30 12913 H 1195.87 4.49247 -1.03433 0
M  V30 12914 H 1199.41 5.45364 -4.34999 0
M  V30 12915 H 1195.31 5.64521 -3.13029 0
M  V30 12916 H 1196.08 6.44448 -5.04608 0
M  V30 12917 N 1198.74 0.470782 1.50404 0
M  V30 12918 C 1199.7 -0.312227 2.27063 0
M  V30 12919 C 1200.7 -0.920709 1.31832 0
M  V30 12920 O 1201.89 -0.789937 1.5526 0
M  V30 12921 C 1199.02 -1.44477 3.0877 0
M  V30 12922 H 1200.22 0.36006 2.97731 0
M  V30 12923 H 1197.77 0.224837 1.54674 0
M  V30 12924 H 1198.51 -2.15212 2.42599 0
M  V30 12925 H 1198.29 -1.01426 3.78755 0
M  V30 12926 H 1199.78 -1.99713 3.66749 0
M  V30 12927 N 1200.22 -1.56282 0.203376 0
M  V30 12928 C 1201.44 -2.02643 -0.441658 0
M  V30 12929 C 1201.87 -1.0825 -1.5383 0
M  V30 12930 O 1201.23 -0.0674337 -1.81175 0
M  V30 12931 C 1201.27 -3.47382 -0.967369 0
M  V30 12932 O 1200.38 -3.56115 -2.07981 0
M  V30 12933 H 1199.72 -0.656081 -0.102242 0
M  V30 12934 H 1202.25 -2.02134 0.316684 0
M  V30 12935 H 1202.26 -3.8734 -1.28186 0
M  V30 12936 H 1200.93 -4.15574 -0.164625 0
M  V30 12937 H 1199.51 -3.28035 -1.77334 0
M  V30 12938 N 1201.7 0.070167 -1.57444 0
M  V30 12939 C 1202.66 1.06761 -2.02817 0
M  V30 12940 C 1203.66 1.31498 -0.925462 0
M  V30 12941 O 1204.85 1.27192 -1.19029 0
M  V30 12942 C 1201.98 2.41086 -2.41019 0
M  V30 12943 H 1203.17 0.67651 -2.9217 0
M  V30 12944 H 1200.73 0.315936 -1.53074 0
M  V30 12945 H 1201.46 2.85025 -1.54697 0
M  V30 12946 H 1201.25 2.24472 -3.21488 0
M  V30 12947 H 1202.74 3.12778 -2.76694 0
M  V30 12948 N 1203.17 1.53854 0.341593 0
M  V30 12949 C 1204.11 1.76797 1.44284 0
M  V30 12950 C 1205.08 0.617157 1.50432 0
M  V30 12951 O 1206.27 0.85254 1.68119 0
M  V30 12952 C 1203.4 1.86837 2.82506 0
M  V30 12953 C 1202.44 3.09001 2.93974 0
M  V30 12954 S 1203.27 4.68012 2.60241 0
M  V30 12955 C 1204.43 4.80933 4.00567 0
M  V30 12956 H 1204.66 2.69927 1.24606 0
M  V30 12957 H 1202.2 1.44747 0.537375 0
M  V30 12958 H 1204.15 1.93306 3.62137 0
M  V30 12959 H 1202.82 0.947162 2.99479 0
M  V30 12960 H 1202.01 3.12707 3.9526 0
M  V30 12961 H 1201.61 3.00768 2.22294 0
M  V30 12962 H 1203.9 4.62462 4.95111 0
M  V30 12963 H 1204.85 5.83025 4.01855 0
M  V30 12964 H 1205.25 4.09372 3.88684 0
M  V30 12965 N 1204.65 -0.602709 1.4562 0
M  V30 12966 C 1205.88 -1.3881 1.53426 0
M  V30 12967 C 1206.29 -1.88046 0.16851 0
M  V30 12968 O 1205.65 -1.62493 -0.830791 0
M  V30 12969 C 1205.7 -2.58927 2.52268 0
M  V30 12970 O 1205.42 -2.11735 3.83536 0
M  V30 12971 C 1206.92 -3.51728 2.69819 0
M  V30 12972 H 1204.14 -0.424744 0.519455 0
M  V30 12973 H 1206.69 -0.73459 1.90851 0
M  V30 12974 H 1204.84 -3.20309 2.17902 0
M  V30 12975 H 1205.26 -2.89814 4.37159 0
M  V30 12976 H 1206.73 -4.32542 3.42945 0
M  V30 12977 H 1207.21 -4.02383 1.76024 0
M  V30 12978 H 1207.81 -2.96196 3.05202 0
M  V30 12979 N 1206.13 -1.32992 -0.845635 0
M  V30 12980 C 1207.06 -1.25301 -1.97033 0
M  V30 12981 C 1208.04 -0.134966 -1.69564 0
M  V30 12982 O 1209.23 -0.323629 -1.91484 0
M  V30 12983 C 1206.36 -0.984551 -3.33052 0
M  V30 12984 C 1205.31 -2.06481 -3.749 0
M  V30 12985 C 1204.64 -1.6486 -5.08651 0
M  V30 12986 C 1205.94 -3.48083 -3.89404 0
M  V30 12987 H 1207.63 -2.194 -2.03725 0
M  V30 12988 H 1205.18 -1.05621 -0.978783 0
M  V30 12989 H 1207.13 -0.917269 -4.11296 0
M  V30 12990 H 1205.85 -0.00793116 -3.26599 0
M  V30 12991 H 1204.51 -2.1224 -2.98915 0
M  V30 12992 H 1204.16 -0.659183 -4.98662 0
M  V30 12993 H 1203.86 -2.37145 -5.37621 0
M  V30 12994 H 1205.38 -1.59585 -5.89377 0
M  V30 12995 H 1206.8 -3.44863 -4.57976 0
M  V30 12996 H 1205.19 -4.18796 -4.29802 0
M  V30 12997 H 1206.26 -3.87084 -2.92051 0
M  V30 12998 N 1207.61 1.06304 -1.1635 0
M  V30 12999 C 1208.54 2.15745 -0.893103 0
M  V30 13000 C 1209.52 1.69341 0.160531 0
M  V30 13001 O 1210.7 1.94196 0.0126526 0
M  V30 13002 C 1207.83 3.45066 -0.393287 0
M  V30 13003 C 1206.79 4.04978 -1.38482 0
M  V30 13004 C 1206.11 5.29507 -0.743409 0
M  V30 13005 C 1207.41 4.4377 -2.75438 0
M  V30 13006 H 1209.11 2.38622 -1.80831 0
M  V30 13007 H 1206.65 1.14681 -0.870878 0
M  V30 13008 H 1208.61 4.20964 -0.191607 0
M  V30 13009 H 1207.33 3.21808 0.557426 0
M  V30 13010 H 1205.99 3.31136 -1.57304 0
M  V30 13011 H 1205.64 5.02545 0.213787 0
M  V30 13012 H 1205.34 5.7055 -1.40521 0
M  V30 13013 H 1206.86 6.08102 -0.551746 0
M  V30 13014 H 1208.28 5.1075 -2.60398 0
M  V30 13015 H 1206.67 4.95797 -3.38091 0
M  V30 13016 H 1207.74 3.54636 -3.30699 0
M  V30 13017 N 1209.09 0.96196 1.24836 0
M  V30 13018 C 1210.31 0.63814 1.96813 0
M  V30 13019 C 1210.73 -0.79127 1.71419 0
M  V30 13020 O 1210.09 -1.5302 0.994546 0
M  V30 13021 C 1210.14 0.89626 3.50213 0
M  V30 13022 O 1209.86 2.26947 3.74735 0
M  V30 13023 C 1211.36 0.585836 4.39412 0
M  V30 13024 H 1208.58 0.238598 0.627146 0
M  V30 13025 H 1211.12 1.28833 1.58815 0
M  V30 13026 H 1209.28 0.292368 3.86295 0
M  V30 13027 H 1209.69 2.34514 4.69152 0
M  V30 13028 H 1211.17 0.816935 5.45921 0
M  V30 13029 H 1211.64 -0.479784 4.36572 0
M  V30 13030 H 1212.25 1.16938 4.08908 0
M  V30 13031 N 1210.56 -1.39601 0.731392 0
M  V30 13032 C 1211.47 -2.34425 0.090527 0
M  V30 13033 C 1212.49 -1.58131 -0.725992 0
M  V30 13034 O 1213.67 -1.90441 -0.655294 0
M  V30 13035 C 1210.73 -3.37138 -0.808624 0
M  V30 13036 C 1209.79 -4.29295 0.0197365 0
M  V30 13037 C 1209.02 -5.27102 -0.836593 0
M  V30 13038 O 1209.25 -5.31302 -2.07543 0
M  V30 13039 O 1208.18 -6.01307 -0.267172 0
M  V30 13040 H 1212.01 -2.9088 0.873084 0
M  V30 13041 H 1209.59 -1.41066 0.492024 0
M  V30 13042 H 1211.47 -4.00087 -1.32319 0
M  V30 13043 H 1210.15 -2.83074 -1.57006 0
M  V30 13044 H 1209.06 -3.69581 0.579744 0
M  V30 13045 H 1210.39 -4.86555 0.743308 0
M  V30 13046 N 1212.04 -0.478751 -1.50152 0
M  V30 13047 C 1213.46 -0.133356 -1.59042 0
M  V30 13048 C 1213.66 1.36069 -1.48618 0
M  V30 13049 O 1212.71 2.13468 -1.34862 0
M  V30 13050 C 1214.03 -0.690369 -2.92668 0
M  V30 13051 C 1215.58 -0.654481 -3.06081 0
M  V30 13052 C 1216.05 -1.18917 -4.42293 0
M  V30 13053 N 1217.54 -1.14891 -4.48725 0
M  V30 13054 C 1218.28 -1.53305 -5.52526 0
M  V30 13055 N 1217.77 -1.99205 -6.63543 0
M  V30 13056 N 1219.57 -1.4486 -5.43113 0
M  V30 13057 H 1211.72 -1.45037 -1.55171 0
M  V30 13058 H 1213.98 -0.600254 -0.733757 0
M  V30 13059 H 1213.69 -1.7373 -3.05795 0
M  V30 13060 H 1213.56 -0.138227 -3.76947 0
M  V30 13061 H 1215.95 0.383564 -2.92597 0
M  V30 13062 H 1216.03 -1.24352 -2.2354 0
M  V30 13063 H 1215.67 -2.22588 -4.56527 0
M  V30 13064 H 1215.6 -0.57628 -5.23437 0
M  V30 13065 H 1218.09 -0.812344 -3.69066 0
M  V30 13066 H 1218.41 -2.26645 -7.38818 0
M  V30 13067 H 1216.75 -2.03164 -6.64642 0
M  V30 13068 H 1219.94 -1.08836 -4.55272 0
M  V30 13069 H 1220.11 -1.75123 -6.23888 0
M  V30 13070 N 1213.52 1.56172 -0.211661 0
M  V30 13071 C 1214.77 1.97648 0.421871 0
M  V30 13072 C 1215.09 1.10026 1.60995 0
M  V30 13073 O 1214.36 0.175109 1.95116 0
M  V30 13074 H 1212.94 0.729914 0.158852 0
M  V30 13075 H 1215.6 1.92542 -0.302254 0
M  V30 13076 H 1214.7 3.02834 0.754868 0
M  V30 13077 N 1215 -0.0618163 1.57479 0
M  V30 13078 C 1215.95 -1.0724 2.04373 0
M  V30 13079 C 1216.92 -1.37875 0.926271 0
M  V30 13080 O 1218.1 -1.48772 1.19463 0
M  V30 13081 C 1215.24 -2.37805 2.50085 0
M  V30 13082 C 1214.35 -2.13614 3.7549 0
M  V30 13083 C 1213.49 -3.37814 4.09945 0
M  V30 13084 C 1212.53 -3.09032 5.28361 0
M  V30 13085 N 1211.66 -4.25591 5.58406 0
M  V30 13086 H 1216.5 -0.665536 2.90473 0
M  V30 13087 H 1214.04 -0.317043 1.43643 0
M  V30 13088 H 1216 -3.14048 2.74644 0
M  V30 13089 H 1214.63 -2.76275 1.66948 0
M  V30 13090 H 1213.68 -1.28017 3.58212 0
M  V30 13091 H 1214.99 -1.88361 4.61867 0
M  V30 13092 H 1214.15 -4.22447 4.35458 0
M  V30 13093 H 1212.89 -3.66153 3.22154 0
M  V30 13094 H 1211.89 -2.22797 5.02635 0
M  V30 13095 H 1213.12 -2.82006 6.17778 0
M  V30 13096 H 1211.06 -4.53941 4.73575 0
M  V30 13097 H 1210.98 -4.03646 6.39223 0
M  V30 13098 H 1212.25 -5.11191 5.88476 0
M  V30 13099 N 1216.48 -1.54033 -0.333429 0
M  V30 13100 C 1217.41 -1.85719 -1.4153 0
M  V30 13101 C 1218.39 -0.713144 -1.54429 0
M  V30 13102 O 1219.57 -0.965984 -1.68471 0
M  V30 13103 C 1216.7 -2.07578 -2.78439 0
M  V30 13104 C 1215.66 -3.23411 -2.80338 0
M  V30 13105 C 1214.98 -3.30622 -4.2023 0
M  V30 13106 C 1216.28 -4.6129 -2.44968 0
M  V30 13107 H 1217.98 -2.76325 -1.15261 0
M  V30 13108 H 1215.52 -1.32957 -0.55303 0
M  V30 13109 H 1217.48 -2.28329 -3.5418 0
M  V30 13110 H 1216.2 -1.13713 -3.06165 0
M  V30 13111 H 1214.86 -3.02531 -2.07052 0
M  V30 13112 H 1214.51 -2.34333 -4.45081 0
M  V30 13113 H 1214.21 -4.08466 -4.22409 0
M  V30 13114 H 1215.73 -3.53596 -4.97798 0
M  V30 13115 H 1217.14 -4.81987 -3.10421 0
M  V30 13116 H 1215.54 -5.41611 -2.58414 0
M  V30 13117 H 1216.61 -4.6421 -1.40134 0
M  V30 13118 N 1217.95 0.594978 -1.45938 0
M  V30 13119 C 1218.9 1.69949 -1.51991 0
M  V30 13120 C 1219.89 1.56301 -0.381956 0
M  V30 13121 O 1221.08 1.65423 -0.62961 0
M  V30 13122 C 1218.21 3.08723 -1.5015 0
M  V30 13123 C 1217.3 3.27712 -2.69194 0
M  V30 13124 N 1217.69 3.1691 -3.9421 0
M  V30 13125 C 1215.98 3.58618 -2.65158 0
M  V30 13126 C 1216.69 3.37572 -4.7373 0
M  V30 13127 N 1215.66 3.62154 -4.05395 0
M  V30 13128 H 1219.46 1.60109 -2.46459 0
M  V30 13129 H 1216.98 0.798634 -1.41406 0
M  V30 13130 H 1218.97 3.87978 -1.52573 0
M  V30 13131 H 1217.63 3.19702 -0.567488 0
M  V30 13132 H 1218.65 2.95039 -4.25643 0
M  V30 13133 H 1215.32 3.76358 -1.80724 0
M  V30 13134 H 1216.71 3.34507 -5.82713 0
M  V30 13135 N 1219.43 1.33438 0.838571 0
M  V30 13136 C 1220.36 1.19552 1.9555 0
M  V30 13137 C 1221.38 0.12642 1.62308 0
M  V30 13138 O 1222.57 0.376868 1.74476 0
M  V30 13139 C 1219.67 0.811273 3.29046 0
M  V30 13140 C 1218.84 1.97207 3.9042 0
M  V30 13141 C 1217.9 1.56875 5.02271 0
M  V30 13142 O 1216.92 2.28314 5.21403 0
M  V30 13143 N 1218.13 0.473924 5.78562 0
M  V30 13144 H 1220.89 2.15769 2.07999 0
M  V30 13145 H 1218.45 1.26187 1.01432 0
M  V30 13146 H 1220.44 0.523553 4.01299 0
M  V30 13147 H 1219.01 -0.0602291 3.12542 0
M  V30 13148 H 1218.23 2.4254 3.10754 0
M  V30 13149 H 1219.52 2.74878 4.28158 0
M  V30 13150 H 1218.92 -0.120306 5.65572 0
M  V30 13151 H 1217.48 0.245877 6.51336 0
M  V30 13152 N 1220.91 -1.05686 1.16912 0
M  V30 13153 C 1222.32 -1.60059 0.961153 0
M  V30 13154 C 1222.67 -1.89894 -0.493409 0
M  V30 13155 O 1221.8 -1.67692 -1.36778 0
M  V30 13156 C 1222.39 -2.90803 1.73837 0
M  V30 13157 C 1220.95 -3.41854 1.57522 0
M  V30 13158 C 1220.1 -2.15658 1.74319 0
M  V30 13159 H 1223.05 -0.885592 1.31693 0
M  V30 13160 H 1223.07 -3.60485 1.21781 0
M  V30 13161 H 1222.58 -2.69056 2.79697 0
M  V30 13162 H 1220.68 -3.68647 0.541284 0
M  V30 13163 H 1220.8 -4.16771 2.36302 0
M  V30 13164 H 1219.16 -2.26177 1.17115 0
M  V30 13165 H 1219.94 -1.96386 2.8158 0
M  V30 13166 O 1222.43 -1.09799 -1.18433 0
M  V30 13167 H 1223.12 -0.796166 -1.76581 0
M  V30 END ATOM
M  V30 BEGIN BOND
M  V30 END BOND
M  V30 END CTAB
M  END
$$$$
