drugbank_target|Q9NYR8 Retinol dehydrogenase 8 (DB00162)
 OpenBabel12092120093D

  0  0  0     0  0            999 V3000
M  V30 BEGIN CTAB
M  V30 COUNTS 4807 4846 0 0 0
M  V30 BEGIN ATOM
M  V30 1 H -0.908 1.98254 -0.117106 0
M  V30 2 N 0 1.576 0 0
M  V30 3 C 0.933 2.03868 1.02534 0
M  V30 4 C 1.911 0.928543 1.3348 0
M  V30 5 O 3.095 1.19667 1.45644 0
M  V30 6 C 0.222 2.43627 2.35294 0
M  V30 7 C -0.732 3.65373 2.2001 0
M  V30 8 S 0.101 5.13292 1.52614 0
M  V30 9 C 1.257 5.56322 2.86805 0
M  V30 10 H 1.49 2.90518 0.631377 0
M  V30 11 H -0.977 1.52953 0.210867 0
M  V30 12 H 0.981 2.67203 3.11629 0
M  V30 13 H -0.358 1.57376 2.7183 0
M  V30 14 H -1.165 3.90944 3.18086 0
M  V30 15 H -1.563 3.418 1.51819 0
M  V30 16 H 0.729 5.58782 3.83104 0
M  V30 17 H 1.672 6.56266 2.65933 0
M  V30 18 H 2.08 4.83886 2.90714 0
M  V30 19 N 1.4781 -0.272755 1.55222 0
M  V30 20 C 2.4411 -1.32041 1.87344 0
M  V30 21 C 3.4411 -1.42342 0.74803 0
M  V30 22 O 4.6311 -1.41488 1.0162 0
M  V30 23 C 1.7631 -2.70173 2.07893 0
M  V30 24 H 2.9561 -1.04789 2.80997 0
M  V30 25 H 0.5091 -0.51083 1.47717 0
M  V30 26 H 1.2441 -3.02605 1.16622 0
M  V30 27 H 1.0291 -2.64082 2.89833 0
M  V30 28 H 2.5191 -3.45869 2.34017 0
M  V30 29 N 2.9562 -1.48159 -0.537278 0
M  V30 30 C 3.9192 -1.61665 -1.62472 0
M  V30 31 C 4.9192 -0.490395 -1.5314 0
M  V30 32 O 6.1092 -0.755998 -1.5694 0
M  V30 33 C 3.2412 -1.57997 -3.02076 0
M  V30 34 H 4.4342 -2.58621 -1.51839 0
M  V30 35 H 1.9872 -1.36647 -0.758771 0
M  V30 36 H 2.7222 -0.624913 -3.18222 0
M  V30 37 H 2.5072 -2.39755 -3.10258 0
M  V30 38 H 3.9972 -1.70627 -3.81151 0
M  V30 39 N 4.4343 0.785586 -1.36625 0
M  V30 40 C 5.3973 1.87999 -1.31107 0
M  V30 41 C 6.3973 1.59316 -0.217959 0
M  V30 42 O 7.5873 1.67656 -0.472977 0
M  V30 43 C 4.7193 3.24861 -1.03334 0
M  V30 44 H 5.9123 1.94307 -2.2844 0
M  V30 45 H 3.4653 0.983813 -1.21453 0
M  V30 46 H 4.2003 3.24235 -0.0647432 0
M  V30 47 H 3.9853 3.4707 -1.82441 0
M  V30 48 H 5.4753 4.04929 -1.02088 0
M  V30 49 N 5.9124 1.20967 1.01018 0
M  V30 50 C 7.3234 1.02319 1.56165 0
M  V30 51 C 7.6744 -0.418546 1.91684 0
M  V30 52 O 6.7994 -1.30096 1.72928 0
M  V30 53 C 7.3944 1.85109 2.8376 0
M  V30 54 C 5.9534 1.70809 3.35412 0
M  V30 55 C 5.1004 1.82643 2.08655 0
M  V30 56 H 8.0514 1.35065 0.833255 0
M  V30 57 H 8.0724 1.35827 3.55431 0
M  V30 58 H 7.5844 2.90035 2.57878 0
M  V30 59 H 5.6854 0.685464 3.66241 0
M  V30 60 H 5.7984 2.52467 4.07182 0
M  V30 61 H 4.1624 1.25896 2.21409 0
M  V30 62 H 4.9454 2.89066 1.85191 0
M  V30 63 N 7.3905 -1.2043 1.01659 0
M  V30 64 C 8.8065 -1.41852 0.731442 0
M  V30 65 C 9.0065 -1.89358 -0.688898 0
M  V30 66 O 8.0625 -2.06247 -1.45666 0
M  V30 67 C 9.3755 -2.44019 1.75714 0
M  V30 68 C 10.9235 -2.57785 1.77527 0
M  V30 69 C 11.3985 -3.63194 2.79023 0
M  V30 70 N 12.8895 -3.70678 2.77763 0
M  V30 71 C 13.6245 -4.51897 3.52954 0
M  V30 72 N 13.1205 -5.36921 4.37821 0
M  V30 73 N 14.9135 -4.4643 3.41551 0
M  V30 74 H 7.0645 -0.879093 1.93354 0
M  V30 75 H 9.3275 -0.448425 0.835236 0
M  V30 76 H 9.0335 -2.1611 2.77469 0
M  V30 77 H 8.9075 -3.43007 1.56927 0
M  V30 78 H 11.2945 -2.85023 0.764569 0
M  V30 79 H 11.3755 -1.58992 2.00387 0
M  V30 80 H 11.0195 -3.36699 3.80258 0
M  V30 81 H 10.9495 -4.61609 2.53425 0
M  V30 82 H 13.4405 -3.09944 2.16201 0
M  V30 83 H 13.7535 -5.95981 4.91962 0
M  V30 84 H 12.0985 -5.36424 4.41899 0
M  V30 85 H 15.2895 -3.79042 2.74672 0
M  V30 86 H 15.4625 -5.09491 4.00404 0
M  V30 87 N 8.8686 -0.792821 -1.36206 0
M  V30 88 C 10.0966 -0.378825 -2.03402 0
M  V30 89 C 10.5116 1.00586 -1.59774 0
M  V30 90 O 9.8686 1.64574 -0.788764 0
M  V30 91 C 9.9196 -0.43683 -3.58851 0
M  V30 92 O 9.6406 -1.76691 -4.00889 0
M  V30 93 C 11.1416 -0.0138943 -4.43298 0
M  V30 94 H 8.3616 -0.155673 -0.652692 0
M  V30 95 H 10.9056 -1.07261 -1.74113 0
M  V30 96 H 9.0606 0.208575 -3.86838 0
M  V30 97 H 9.4746 -1.72011 -4.95492 0
M  V30 98 H 10.9486 -0.105615 -5.51899 0
M  V30 99 H 11.4256 1.03915 -4.2673 0
M  V30 100 H 12.0316 -0.63192 -4.20579 0
M  V30 101 N 10.3467 1.47872 -0.545128 0
M  V30 102 C 11.5927 2.02793 -0.0166104 0
M  V30 103 C 11.9257 1.41987 1.32489 0
M  V30 104 O 11.2007 0.571045 1.85928 0
M  V30 105 C 11.4837 3.59989 0.0893294 0
M  V30 106 C 11.3367 4.3125 -1.27841 0
M  V30 107 C 12.6557 4.32606 0.808724 0
M  V30 108 H 9.7747 0.736962 -0.00751035 0
M  V30 109 H 12.4167 1.76433 -0.705085 0
M  V30 110 H 10.5667 3.82579 0.675681 0
M  V30 111 H 12.2387 4.20035 -1.90704 0
M  V30 112 H 10.4817 3.92076 -1.85632 0
M  V30 113 H 11.1527 5.39736 -1.15713 0
M  V30 114 H 13.6287 4.14936 0.310992 0
M  V30 115 H 12.5047 5.42251 0.851782 0
M  V30 116 H 12.7657 4.00963 1.86229 0
M  V30 117 N 11.8248 0.280983 1.55075 0
M  V30 118 C 12.7548 -0.597469 2.25727 0
M  V30 119 C 13.7358 -1.15417 1.24952 0
M  V30 120 O 14.9208 -1.18722 1.53684 0
M  V30 121 C 12.0508 -1.7789 2.98283 0
M  V30 122 C 11.0048 -1.35347 4.06036 0
M  V30 123 C 10.3308 -2.61846 4.66198 0
M  V30 124 C 11.6308 -0.499354 5.19907 0
M  V30 125 H 13.3248 -0.00824265 2.99399 0
M  V30 126 H 10.8708 -0.0025244 1.44 0
M  V30 127 H 12.8238 -2.39937 3.46422 0
M  V30 128 H 11.5478 -2.39405 2.22155 0
M  V30 129 H 10.2068 -0.756156 3.58717 0
M  V30 130 H 9.8548 -3.21632 3.86732 0
M  V30 131 H 9.5548 -2.3409 5.38958 0
M  V30 132 H 11.0788 -3.24732 5.1709 0
M  V30 133 H 12.4928 -1.02498 5.64063 0
M  V30 134 H 10.8898 -0.316424 5.99265 0
M  V30 135 H 11.9598 0.480459 4.82514 0
M  V30 136 N 13.3029 -1.57598 0.00835791 0
M  V30 137 C 14.5519 -1.90107 -0.673968 0
M  V30 138 C 14.8649 -0.884275 -1.7447 0
M  V30 139 O 16.0709 -1.09987 -2.48224 0
M  V30 140 C 14.5269 -3.37497 -1.24995 0
M  V30 141 C 14.1349 -4.47491 -0.2136 0
M  V30 142 C 15.8789 -3.79104 -1.90999 0
M  V30 143 C 13.7859 -5.85963 -0.80005 0
M  V30 144 H 12.7159 -0.709393 -0.255495 0
M  V30 145 H 15.3669 -1.83365 0.0702693 0
M  V30 146 H 13.7489 -3.39102 -2.04513 0
M  V30 147 H 14.9229 -4.57414 0.557596 0
M  V30 148 H 13.2379 -4.14956 0.346474 0
M  V30 149 H 15.8349 -4.79901 -2.35795 0
M  V30 150 H 16.1779 -3.1306 -2.74407 0
M  V30 151 H 16.7109 -3.79833 -1.18203 0
M  V30 152 H 13.4499 -6.555 -0.00456708 0
M  V30 153 H 12.9699 -5.79687 -1.54021 0
M  V30 154 H 14.6489 -6.33884 -1.29615 0
M  V30 155 N 14.781 0.264519 -1.55364 0
M  V30 156 C 16.006 1.01726 -1.80739 0
M  V30 157 C 16.431 1.78836 -0.583044 0
M  V30 158 O 15.789 1.75167 0.467566 0
M  V30 159 C 15.837 1.94482 -3.03659 0
M  V30 160 O 14.941 3.03386 -2.7934 0
M  V30 161 H 14.282 0.290395 -0.597132 0
M  V30 162 H 16.812 0.290854 -2.02522 0
M  V30 163 H 16.822 2.36278 -3.32621 0
M  V30 164 H 15.497 1.37772 -3.92418 0
M  V30 165 H 14.074 2.65844 -2.61498 0
M  V30 166 N 16.2591 1.48442 0.529413 0
M  V30 167 C 17.5071 1.56179 1.28267 0
M  V30 168 C 17.8281 0.237721 1.93546 0
M  V30 169 O 17.0981 -0.740779 1.81354 0
M  V30 170 H 15.6781 0.575367 0.476405 0
M  V30 171 H 18.3401 1.84909 0.61602 0
M  V30 172 H 17.4361 2.34312 2.06165 0
M  V30 173 N 17.7372 -0.778329 1.37039 0
M  V30 174 C 18.9772 -1.54973 1.33276 0
M  V30 175 C 19.3412 -1.91816 -0.0839376 0
M  V30 176 O 20.5422 -2.6767 -0.246228 0
M  V30 177 C 18.8132 -2.78517 2.23971 0
M  V30 178 S 20.3722 -3.6865 2.37997 0
M  V30 179 H 17.1902 -0.530639 0.473226 0
M  V30 180 H 19.7922 -0.915806 1.72723 0
M  V30 181 H 18.4962 -2.4952 3.25835 0
M  V30 182 H 18.0272 -3.46875 1.85584 0
M  V30 183 H 20.0422 -4.70182 1.58567 0
M  V30 184 N 19.2153 -1.21501 -1.00376 0
M  V30 185 C 20.4403 -1.05977 -1.78279 0
M  V30 186 C 20.8653 0.385994 -1.84097 0
M  V30 187 O 20.2233 1.27849 -1.28547 0
M  V30 188 C 20.2713 -1.66302 -3.19963 0
M  V30 189 O 19.3753 -0.909333 -4.0225 0
M  V30 190 H 18.7163 -0.372906 -0.549397 0
M  V30 191 H 21.2463 -1.6107 -1.26165 0
M  V30 192 H 21.2563 -1.70574 -3.70632 0
M  V30 193 H 19.9313 -2.71515 -3.15043 0
M  V30 194 H 18.5083 -0.941795 -3.60811 0
M  V30 195 N 20.6934 1.19889 -1.02296 0
M  V30 196 C 21.9184 1.9393 -0.735237 0
M  V30 197 C 22.3434 1.74639 0.698782 0
M  V30 198 O 21.7014 1.04481 1.48167 0
M  V30 199 C 21.7494 3.43916 -1.08417 0
M  V30 200 O 20.8534 4.11917 -0.199446 0
M  V30 201 H 20.1944 0.605645 -0.272196 0
M  V30 202 H 22.7244 1.52137 -1.36804 0
M  V30 203 H 22.7344 3.9456 -1.03856 0
M  V30 204 H 21.4094 3.5728 -2.12894 0
M  V30 205 H 19.9864 3.71666 -0.303136 0
M  V30 206 N 22.1715 0.800033 1.35784 0
M  V30 207 C 23.4195 0.376597 1.9856 0
M  V30 208 C 23.7405 -1.05812 1.63795 0
M  V30 209 O 23.0105 -1.73103 0.917171 0
M  V30 210 H 21.5905 0.136261 0.734467 0
M  V30 211 H 24.2525 1.02442 1.65806 0
M  V30 212 H 23.3485 0.477002 3.08433 0
M  V30 213 N 23.6496 -1.47581 0.552962 0
M  V30 214 C 24.8986 -2.01684 0.0251995 0
M  V30 215 C 25.2116 -1.43317 -1.33115 0
M  V30 216 O 26.4176 -1.89057 -1.94858 0
M  V30 217 C 24.8736 -3.599 -0.00542052 0
M  V30 218 C 24.4816 -4.27257 1.34742 0
M  V30 219 C 26.2256 -4.21768 -0.4808 0
M  V30 220 C 24.1326 -5.77467 1.27614 0
M  V30 221 H 23.0626 -0.753979 0.00565033 0
M  V30 222 H 25.7136 -1.69616 0.70018 0
M  V30 223 H 24.0956 -3.88911 -0.745961 0
M  V30 224 H 25.2696 -4.09893 2.10534 0
M  V30 225 H 23.5846 -3.77358 1.76039 0
M  V30 226 H 26.1816 -5.31838 -0.55246 0
M  V30 227 H 26.5246 -3.88651 -1.49184 0
M  V30 228 H 27.0576 -3.97273 0.204752 0
M  V30 229 H 23.7966 -6.15196 2.26304 0
M  V30 230 H 23.3166 -5.9718 0.55996 0
M  V30 231 H 24.9956 -6.3959 0.976421 0
M  V30 232 N 25.1277 -0.289203 -1.54924 0
M  V30 233 C 26.3757 0.322879 -1.99504 0
M  V30 234 C 26.6967 1.55313 -1.1791 0
M  V30 235 O 25.9667 1.94001 -0.272097 0
M  V30 236 H 24.5467 0.122291 -0.736922 0
M  V30 237 H 27.2087 -0.397802 -1.90797 0
M  V30 238 H 26.3047 0.603061 -3.06218 0
M  V30 239 N 26.6058 1.57591 -0.0167156 0
M  V30 240 C 27.5358 2.12496 0.967858 0
M  V30 241 C 28.5168 1.03807 1.34752 0
M  V30 242 O 29.7018 1.31577 1.42833 0
M  V30 243 C 26.8318 2.64194 2.25431 0
M  V30 244 C 25.7858 3.77559 2.01576 0
M  V30 245 C 25.1118 4.15636 3.36379 0
M  V30 246 C 26.4118 5.04151 1.36489 0
M  V30 247 H 28.1058 2.95013 0.510643 0
M  V30 248 H 25.6518 1.41915 0.244181 0
M  V30 249 H 27.6048 3.01236 2.94678 0
M  V30 250 H 26.3288 1.78821 2.73296 0
M  V30 251 H 24.9878 3.40937 1.34751 0
M  V30 252 H 24.6358 3.27263 3.81979 0
M  V30 253 H 24.3358 4.92022 3.21229 0
M  V30 254 H 25.8598 4.5525 4.06915 0
M  V30 255 H 27.2738 5.38857 1.95718 0
M  V30 256 H 25.6708 5.85453 1.31776 0
M  V30 257 H 26.7408 4.83733 0.336219 0
M  V30 258 N 28.0839 -0.256276 1.55502 0
M  V30 259 C 28.9939 -1.33882 1.92647 0
M  V30 260 C 30.0099 -1.53159 0.825727 0
M  V30 261 O 31.1859 -1.66963 1.12629 0
M  V30 262 C 28.2509 -2.6751 2.20543 0
M  V30 263 C 27.3119 -2.56836 3.43997 0
M  V30 264 C 26.5449 -3.84092 3.70553 0
M  V30 265 O 26.7679 -4.85545 2.99336 0
M  V30 266 O 25.7019 -3.83288 4.64084 0
M  V30 267 H 29.5279 -1.05374 2.84833 0
M  V30 268 H 27.1129 -0.456237 1.42263 0
M  V30 269 H 28.9949 -3.46492 2.39835 0
M  V30 270 H 27.6699 -2.9577 1.31536 0
M  V30 271 H 26.5769 -1.76172 3.30021 0
M  V30 272 H 27.9099 -2.33523 4.33275 0
M  V30 273 N 29.562 -1.4872 -0.521534 0
M  V30 274 C 30.492 -1.66771 -1.63431 0
M  V30 275 C 31.473 -0.516499 -1.62069 0
M  V30 276 O 32.658 -0.750013 -1.79132 0
M  V30 277 C 29.788 -1.71515 -3.01993 0
M  V30 278 C 28.742 -2.86222 -3.18216 0
M  V30 279 C 28.068 -2.76061 -4.57924 0
M  V30 280 C 29.368 -4.27419 -3.00184 0
M  V30 281 H 31.062 -2.59932 -1.48579 0
M  V30 282 H 28.608 -1.25089 -0.713358 0
M  V30 283 H 30.561 -1.82731 -3.7972 0
M  V30 284 H 29.285 -0.749393 -3.17886 0
M  V30 285 H 27.944 -2.74575 -2.42908 0
M  V30 286 H 27.592 -1.77437 -4.70665 0
M  V30 287 H 27.292 -3.53037 -4.69722 0
M  V30 288 H 28.816 -2.89256 -5.37739 0
M  V30 289 H 30.23 -4.39855 -3.67697 0
M  V30 290 H 28.627 -5.05458 -3.2347 0
M  V30 291 H 29.697 -4.43293 -1.96518 0
M  V30 292 N 31.0401 0.771051 -1.3745 0
M  V30 293 C 32.0031 1.86598 -1.33093 0
M  V30 294 C 33.0031 1.59076 -0.234845 0
M  V30 295 O 34.1931 1.67145 -0.490732 0
M  V30 296 C 31.3251 3.23747 -1.06773 0
M  V30 297 H 32.5181 1.91873 -2.30488 0
M  V30 298 H 30.0711 0.970876 -1.2249 0
M  V30 299 H 30.8061 3.24148 -0.099129 0
M  V30 300 H 30.5911 3.45115 -1.86112 0
M  V30 301 H 32.0811 4.03824 -1.06377 0
M  V30 302 N 32.5182 1.22032 0.997298 0
M  V30 303 C 33.7642 1.04376 1.73878 0
M  V30 304 C 34.0972 -0.420716 1.89588 0
M  V30 305 O 33.3722 -1.31202 1.43583 0
M  V30 306 C 33.6552 1.75047 3.14691 0
M  V30 307 C 33.5082 3.29062 3.06656 0
M  V30 308 C 34.8272 1.49928 4.13775 0
M  V30 309 H 31.9462 0.380578 0.631133 0
M  V30 310 H 34.5882 1.50312 1.16217 0
M  V30 311 H 32.7382 1.35996 3.63919 0
M  V30 312 H 34.4102 3.7753 2.65083 0
M  V30 313 H 32.6532 3.58967 2.43568 0
M  V30 314 H 33.3242 3.73683 4.06282 0
M  V30 315 H 35.8002 1.83842 3.73285 0
M  V30 316 H 34.6762 2.01878 5.10428 0
M  V30 317 H 34.9372 0.430929 4.39995 0
M  V30 318 N 33.9963 -1.19345 1.0293 0
M  V30 319 C 34.9283 -2.22036 0.56857 0
M  V30 320 C 35.9413 -1.58865 -0.355779 0
M  V30 321 O 37.1303 -1.77851 -0.152103 0
M  V30 322 C 34.2303 -3.38363 -0.190752 0
M  V30 323 C 33.4033 -4.31118 0.738643 0
M  V30 324 C 32.4623 -5.26194 0.0246497 0
M  V30 325 O 31.4883 -5.65461 0.651354 0
M  V30 326 N 32.6903 -5.66971 -1.24594 0
M  V30 327 H 35.4553 -2.6219 1.45177 0
M  V30 328 H 33.0163 -1.34015 0.908381 0
M  V30 329 H 35.0083 -3.98981 -0.677961 0
M  V30 330 H 33.5783 -2.96994 -0.975366 0
M  V30 331 H 32.7983 -3.68276 1.40593 0
M  V30 332 H 34.0863 -4.90001 1.37029 0
M  V30 333 H 33.4843 -5.37104 -1.77583 0
M  V30 334 H 32.0413 -6.2984 -1.67764 0
M  V30 335 N 35.4744 -0.807222 -1.35358 0
M  V30 336 C 36.4044 -0.232509 -2.3234 0
M  V30 337 C 37.3854 0.642386 -1.57504 0
M  V30 338 O 38.5704 0.572526 -1.85569 0
M  V30 339 C 35.7004 0.619238 -3.41735 0
M  V30 340 C 34.6544 -0.157215 -4.27711 0
M  V30 341 C 33.9804 0.816273 -5.28433 0
M  V30 342 C 35.2804 -1.35656 -5.04376 0
M  V30 343 H 36.9744 -1.04276 -2.80654 0
M  V30 344 H 34.5204 -0.50288 -1.34934 0
M  V30 345 H 36.4734 1.03137 -4.08584 0
M  V30 346 H 35.1974 1.46239 -2.92031 0
M  V30 347 H 33.8564 -0.550525 -3.62443 0
M  V30 348 H 33.5044 1.65494 -4.74996 0
M  V30 349 H 33.2044 0.301067 -5.86828 0
M  V30 350 H 34.7284 1.22659 -5.98153 0
M  V30 351 H 36.1424 -1.01927 -5.64166 0
M  V30 352 H 34.5394 -1.8063 -5.7227 0
M  V30 353 H 35.6094 -2.14288 -4.34981 0
M  V30 354 N 36.9525 1.47285 -0.560781 0
M  V30 355 C 37.9155 2.28535 0.174488 0
M  V30 356 C 38.9155 1.37153 0.839388 0
M  V30 357 O 40.1055 1.59748 0.694702 0
M  V30 358 C 37.2375 3.16934 1.25561 0
M  V30 359 H 38.4305 2.95012 -0.539262 0
M  V30 360 H 35.9835 1.53034 -0.317865 0
M  V30 361 H 36.7185 2.55157 2.00164 0
M  V30 362 H 36.5035 3.8419 0.783604 0
M  V30 363 H 37.9935 3.78143 1.77193 0
M  V30 364 N 38.4306 0.297415 1.54768 0
M  V30 365 C 39.3806 -0.595275 2.20092 0
M  V30 366 C 40.3646 -1.10163 1.17273 0
M  V30 367 O 41.5566 -1.043 1.43006 0
M  V30 368 C 38.6856 -1.7684 2.94249 0
M  V30 369 C 37.7716 -1.27818 4.0438 0
M  V30 370 N 38.1626 -0.505695 5.03266 0
M  V30 371 C 36.4606 -1.55923 4.17857 0
M  V30 372 C 37.1616 -0.245094 5.81183 0
M  V30 373 N 36.1376 -0.823881 5.3732 0
M  V30 374 H 39.9396 0.00250837 2.939 0
M  V30 375 H 37.4536 0.102007 1.62079 0
M  V30 376 H 39.4506 -2.41944 3.39513 0
M  V30 377 H 38.1106 -2.36992 2.21957 0
M  V30 378 H 39.1216 -0.150928 5.1768 0
M  V30 379 H 35.7986 -2.16849 3.56767 0
M  V30 380 H 37.1886 0.375084 6.70852 0
M  V30 381 N 39.9087 -1.5758 0.0250728 0
M  V30 382 C 41.1857 -1.82917 -0.692873 0
M  V30 383 C 41.5657 -0.908137 -1.90568 0
M  V30 384 O 40.9137 0.0372298 -2.2847 0
M  V30 385 C 41.1237 -3.32034 -1.07492 0
M  V30 386 C 42.4717 -3.98406 -1.46826 0
M  V30 387 O 43.4957 -3.36505 -1.16801 0
M  V30 388 O 42.3547 -5.07497 -2.02754 0
M  V30 389 H 39.4487 -0.754079 -0.33955 0
M  V30 390 H 41.9947 -1.69619 0.0524456 0
M  V30 391 H 40.7667 -3.90728 -0.211552 0
M  V30 392 H 40.3897 -3.50424 -1.87854 0
M  V30 393 N 41.3868 0.248026 -1.55636 0
M  V30 394 C 42.7978 0.817177 -1.67866 0
M  V30 395 C 43.1488 1.86069 -0.622322 0
M  V30 396 O 42.2738 2.15157 0.231618 0
M  V30 397 C 42.8688 1.489 -3.04326 0
M  V30 398 C 41.4278 2.00587 -3.185 0
M  V30 399 C 40.5748 0.856573 -2.63739 0
M  V30 400 H 43.5258 0.0238579 -1.58682 0
M  V30 401 H 43.5468 2.35698 -2.98708 0
M  V30 402 H 43.0588 0.729279 -3.81186 0
M  V30 403 H 41.1598 2.79443 -2.4646 0
M  V30 404 H 41.2728 2.20402 -4.25393 0
M  V30 405 H 39.6368 1.25678 -2.21534 0
M  V30 406 H 40.4198 0.109953 -3.43124 0
M  V30 407 N 42.8649 1.48995 0.513639 0
M  V30 408 C 43.8119 1.6473 1.61656 0
M  V30 409 C 44.7819 0.488984 1.58739 0
M  V30 410 O 45.9669 0.714478 1.76918 0
M  V30 411 C 43.1069 1.7082 2.99858 0
M  V30 412 C 42.2199 2.9787 3.12885 0
M  V30 413 C 41.3549 2.95017 4.41744 0
M  V30 414 C 40.3939 4.16702 4.48359 0
M  V30 415 N 39.5309 4.11832 5.68629 0
M  V30 416 H 44.3709 2.58909 1.47547 0
M  V30 417 H 41.9079 1.28382 0.71808 0
M  V30 418 H 43.8659 1.72331 3.79944 0
M  V30 419 H 42.4959 0.801181 3.12699 0
M  V30 420 H 41.5479 3.06029 2.25944 0
M  V30 421 H 42.8599 3.8786 3.13633 0
M  V30 422 H 42.0139 2.95021 5.30139 0
M  V30 423 H 40.7529 2.02784 4.43542 0
M  V30 424 H 39.7579 4.16955 3.58369 0
M  V30 425 H 40.9829 5.10113 4.48287 0
M  V30 426 H 38.9289 3.22428 5.71293 0
M  V30 427 H 38.8459 4.95543 5.7094 0
M  V30 428 H 40.1139 4.1592 6.59266 0
M  V30 429 N 44.343 -0.763751 1.37857 0
M  V30 430 C 45.29 -1.87726 1.34267 0
M  V30 431 C 46.26 -1.64807 0.206879 0
M  V30 432 O 47.445 -1.86613 0.397508 0
M  V30 433 C 44.585 -3.24896 1.16346 0
M  V30 434 C 43.698 -3.59716 2.39225 0
M  V30 435 C 42.833 -4.86137 2.14114 0
M  V30 436 C 41.872 -5.13711 3.32817 0
M  V30 437 N 41.009 -6.31323 3.07206 0
M  V30 438 H 45.849 -1.90129 2.29466 0
M  V30 439 H 43.386 -0.929433 1.14017 0
M  V30 440 H 45.344 -4.04036 1.03975 0
M  V30 441 H 43.974 -3.21847 0.247909 0
M  V30 442 H 43.026 -2.75498 2.62307 0
M  V30 443 H 44.338 -3.76027 3.27728 0
M  V30 444 H 43.492 -5.73198 1.9882 0
M  V30 445 H 42.231 -4.71945 1.22961 0
M  V30 446 H 41.236 -4.25123 3.48641 0
M  V30 447 H 42.461 -5.29807 4.24832 0
M  V30 448 H 40.407 -6.18474 2.1869 0
M  V30 449 H 40.324 -6.48087 3.89254 0
M  V30 450 H 41.592 -7.213 2.95546 0
M  V30 451 N 45.8211 -1.22559 -0.990812 0
M  V30 452 C 47.2371 -0.985996 -1.255 0
M  V30 453 C 47.4371 0.319173 -1.98956 0
M  V30 454 O 46.4931 1.04127 -2.3003 0
M  V30 455 C 47.8061 -2.18607 -2.06474 0
M  V30 456 C 49.3541 -2.22985 -2.19651 0
M  V30 457 C 49.8291 -3.4255 -3.04012 0
M  V30 458 N 51.3201 -3.42725 -3.11599 0
M  V30 459 C 52.0551 -4.31892 -3.7717 0
M  V30 460 N 51.5511 -5.31279 -4.44651 0
M  V30 461 N 53.3441 -4.19662 -3.73952 0
M  V30 462 H 45.4951 -2.06469 -0.49841 0
M  V30 463 H 47.7581 -0.904853 -0.282747 0
M  V30 464 H 47.4641 -3.13267 -1.59865 0
M  V30 465 H 47.3381 -2.18838 -3.07229 0
M  V30 466 H 49.7251 -1.28871 -2.65474 0
M  V30 467 H 49.8061 -2.26791 -1.18319 0
M  V30 468 H 49.4501 -4.36965 -2.58889 0
M  V30 469 H 49.3801 -3.35984 -4.0549 0
M  V30 470 H 51.8711 -2.70807 -2.63575 0
M  V30 471 H 52.1841 -5.95593 -4.92431 0
M  V30 472 H 50.5291 -5.3519 -4.43392 0
M  V30 473 H 53.7201 -3.41268 -3.20396 0
M  V30 474 H 53.8931 -4.89358 -4.24774 0
M  V30 475 N 47.2992 1.18797 -1.03562 0
M  V30 476 C 48.5292 1.92319 -0.754773 0
M  V30 477 C 48.9372 1.7612 0.691248 0
M  V30 478 O 48.2802 1.08491 1.48241 0
M  V30 479 C 48.3422 3.44284 -1.03484 0
M  V30 480 C 48.0062 3.84258 -2.47376 0
M  V30 481 C 49.0032 3.88459 -3.45537 0
M  V30 482 C 46.6882 4.15701 -2.81954 0
M  V30 483 C 48.6822 4.23545 -4.76328 0
M  V30 484 C 46.3692 4.50458 -4.12954 0
M  V30 485 C 47.3672 4.54356 -5.09951 0
M  V30 486 O 47.0552 4.88305 -6.38603 0
M  V30 487 H 46.7872 0.617527 -0.275021 0
M  V30 488 H 49.3412 1.51683 -1.38497 0
M  V30 489 H 47.5712 3.85135 -0.347513 0
M  V30 490 H 49.2602 3.99049 -0.7426 0
M  V30 491 H 50.0262 3.6431 -3.20162 0
M  V30 492 H 45.9052 4.11847 -2.0713 0
M  V30 493 H 49.4492 4.26502 -5.52035 0
M  V30 494 H 45.3462 4.74067 -4.38099 0
M  V30 495 H 46.1142 5.06227 -6.43177 0
M  V30 496 N 48.7773 0.814389 1.34928 0
M  V30 497 C 49.7093 0.187834 2.28429 0
M  V30 498 C 50.7223 -0.617374 1.5064 0
M  V30 499 O 51.9113 -0.448454 1.72775 0
M  V30 500 C 49.0113 -0.755962 3.30361 0
M  V30 501 C 48.1843 0.00456686 4.374 0
M  V30 502 C 47.2433 -0.858876 5.19143 0
M  V30 503 O 46.2693 -0.306968 5.68372 0
M  V30 504 N 47.4713 -2.17988 5.38016 0
M  V30 505 H 50.2363 0.991105 2.82838 0
M  V30 506 H 47.7973 0.670561 1.4736 0
M  V30 507 H 49.7893 -1.338 3.81942 0
M  V30 508 H 48.3593 -1.46001 2.7641 0
M  V30 509 H 47.5793 0.767865 3.86649 0
M  V30 510 H 48.8673 0.528422 5.06049 0
M  V30 511 H 48.2653 -2.65212 4.99679 0
M  V30 512 H 46.8223 -2.71098 5.92747 0
M  V30 513 N 50.2554 -1.46986 0.568584 0
M  V30 514 C 51.5014 -2.02741 0.0488709 0
M  V30 515 C 51.8344 -1.44077 -1.30214 0
M  V30 516 O 51.1094 -0.600552 -1.84996 0
M  V30 517 C 51.3924 -3.60086 -0.032047 0
M  V30 518 C 51.2454 -4.29162 1.34686 0
M  V30 519 C 52.5644 -4.33838 -0.739798 0
M  V30 520 H 49.6834 -0.736749 0.0192338 0
M  V30 521 H 52.3254 -1.75289 0.733065 0
M  V30 522 H 50.4754 -3.83606 -0.61473 0
M  V30 523 H 52.1474 -4.16948 1.97362 0
M  V30 524 H 50.3904 -3.89073 1.91846 0
M  V30 525 H 51.0614 -5.37826 1.24285 0
M  V30 526 H 53.5374 -4.15378 -0.244939 0
M  V30 527 H 52.4134 -5.43537 -0.765406 0
M  V30 528 H 52.6744 -4.03875 -1.79827 0
M  V30 529 N 51.7335 -0.305618 -1.54608 0
M  V30 530 C 52.9795 0.302746 -2.00528 0
M  V30 531 C 53.3125 1.53184 -1.19367 0
M  V30 532 O 52.5875 1.92598 -0.271321 0
M  V30 533 C 52.8705 0.654756 -3.54097 0
M  V30 534 C 52.7235 -0.583793 -4.45995 0
M  V30 535 C 54.0425 1.47947 -4.14487 0
M  V30 536 H 51.1615 0.108564 -0.72896 0
M  V30 537 H 53.8035 -0.418634 -1.85331 0
M  V30 538 H 51.9535 1.26935 -3.67178 0
M  V30 539 H 53.6255 -1.22224 -4.44814 0
M  V30 540 H 51.8685 -1.21615 -4.16404 0
M  V30 541 H 52.5395 -0.293287 -5.5122 0
M  V30 542 H 55.0155 0.96013 -4.04871 0
M  V30 543 H 53.8915 1.69454 -5.22088 0
M  V30 544 H 54.1525 2.47011 -3.66658 0
M  V30 545 N 53.2116 1.57565 -0.0334293 0
M  V30 546 C 54.1746 2.09393 0.932048 0
M  V30 547 C 55.1746 1.00986 1.25134 0
M  V30 548 O 56.3646 1.27129 1.19096 0
M  V30 549 C 53.4966 2.56338 2.2473 0
M  V30 550 H 54.6896 2.95984 0.483085 0
M  V30 551 H 52.2426 1.54819 0.21468 0
M  V30 552 H 52.9776 1.7309 2.74245 0
M  V30 553 H 52.7626 3.35542 2.02865 0
M  V30 554 H 54.2526 2.96646 2.93923 0
M  V30 555 N 54.6897 -0.239769 1.55765 0
M  V30 556 C 55.9177 -0.98417 1.81994 0
M  V30 557 C 56.3327 -1.7867 0.610124 0
M  V30 558 O 55.6897 -1.77571 -0.421271 0
M  V30 559 C 55.7407 -1.91635 3.06526 0
M  V30 560 O 55.4617 -1.14629 4.22838 0
M  V30 561 C 56.9627 -2.77616 3.45607 0
M  V30 562 H 54.1827 -0.28928 0.605441 0
M  V30 563 H 56.7267 -0.260499 2.02834 0
M  V30 564 H 54.8817 -2.5942 2.87715 0
M  V30 565 H 55.2957 -1.77745 4.93464 0
M  V30 566 H 56.7697 -3.38759 4.35828 0
M  V30 567 H 57.2467 -3.4909 2.6652 0
M  V30 568 H 57.8527 -2.15271 3.66795 0
M  V30 569 N 56.1678 -1.49265 -0.50573 0
M  V30 570 C 57.1008 -1.60183 -1.62532 0
M  V30 571 C 58.0788 -0.451107 -1.56217 0
M  V30 572 O 59.2628 -0.666016 -1.76342 0
M  V30 573 C 56.3898 -1.55238 -3.01029 0
M  V30 574 C 55.4358 -2.7545 -3.25621 0
M  V30 575 S 56.2688 -4.37174 -3.09256 0
M  V30 576 C 57.4248 -4.34866 -4.50158 0
M  V30 577 H 57.6578 -2.54894 -1.53025 0
M  V30 578 H 55.1908 -1.38098 -0.690535 0
M  V30 579 H 57.1488 -1.53071 -3.80893 0
M  V30 580 H 55.8098 -0.618238 -3.07956 0
M  V30 581 H 55.0028 -2.68197 -4.26716 0
M  V30 582 H 54.6048 -2.75005 -2.53472 0
M  V30 583 H 56.8968 -4.06295 -5.42154 0
M  V30 584 H 57.8398 -5.36223 -4.62462 0
M  V30 585 H 58.2478 -3.65007 -4.30616 0
M  V30 586 N 57.6459 0.756429 -1.3826 0
M  V30 587 C 59.0619 1.0591 -1.19395 0
M  V30 588 C 59.2619 2.01459 -0.0406567 0
M  V30 589 O 58.3179 2.44909 0.614467 0
M  V30 590 C 59.6309 1.64191 -2.51916 0
M  V30 591 C 61.1789 1.76376 -2.58574 0
M  V30 592 C 61.6539 2.38069 -3.91264 0
M  V30 593 N 63.1449 2.45503 -3.92788 0
M  V30 594 C 63.8799 2.94126 -4.92217 0
M  V30 595 N 63.3759 3.42805 -6.02043 0
M  V30 596 N 65.1689 2.9314 -4.7961 0
M  V30 597 H 57.3199 0.122313 -2.12048 0
M  V30 598 H 59.5829 0.116892 -0.940766 0
M  V30 599 H 59.2889 1.01451 -3.3675 0
M  V30 600 H 59.1629 2.6329 -2.70108 0
M  V30 601 H 61.5499 2.38244 -1.74137 0
M  V30 602 H 61.6309 0.759894 -2.44252 0
M  V30 603 H 61.2749 1.76835 -4.76121 0
M  V30 604 H 61.2049 3.39091 -4.02895 0
M  V30 605 H 63.6959 2.1107 -3.13461 0
M  V30 606 H 64.0089 3.78354 -6.73846 0
M  V30 607 H 62.3539 3.4087 -6.05667 0
M  V30 608 H 65.5449 2.54419 -3.92923 0
M  V30 609 H 65.7179 3.30721 -5.5725 0
M  V30 610 N 59.124 1.23083 0.984299 0
M  V30 611 C 60.401 0.9689 1.69917 0
M  V30 612 C 60.781 -0.513604 2.04757 0
M  V30 613 O 60.129 -1.48383 1.73767 0
M  V30 614 C 60.339 1.87518 2.94343 0
M  V30 615 C 61.687 2.13636 3.6694 0
M  V30 616 O 62.711 1.85036 3.04368 0
M  V30 617 O 61.57 2.62119 4.79537 0
M  V30 618 H 58.664 0.365095 0.742048 0
M  V30 619 H 61.21 1.34107 1.03987 0
M  V30 620 H 59.982 2.87756 2.65164 0
M  V30 621 H 59.605 1.50514 3.6801 0
M  V30 622 N 60.6021 -1.18246 1.0419 0
M  V30 623 C 61.5321 -2.24127 0.654914 0
M  V30 624 C 62.5131 -1.66617 -0.342451 0
M  V30 625 O 63.6981 -1.92924 -0.222277 0
M  V30 626 C 60.8281 -3.47295 0.0183757 0
M  V30 627 C 59.7821 -4.17563 0.939414 0
M  V30 628 C 59.1081 -5.34438 0.167286 0
M  V30 629 C 60.4081 -4.70917 2.25908 0
M  V30 630 H 62.1021 -2.56753 1.54007 0
M  V30 631 H 59.6481 -1.23414 0.74195 0
M  V30 632 H 61.6011 -4.20572 -0.264082 0
M  V30 633 H 60.3251 -3.13907 -0.901664 0
M  V30 634 H 58.9841 -3.46186 1.20628 0
M  V30 635 H 58.6321 -4.97298 -0.7552 0
M  V30 636 H 58.3321 -5.82388 0.780901 0
M  V30 637 H 59.8561 -6.10504 -0.108125 0
M  V30 638 H 61.2701 -5.35882 2.03724 0
M  V30 639 H 59.6671 -5.29406 2.82577 0
M  V30 640 H 60.7371 -3.88272 2.9047 0
M  V30 641 N 62.0802 -0.821533 -1.34494 0
M  V30 642 C 63.3282 -0.408139 -1.97936 0
M  V30 643 C 63.6492 1.03193 -1.65457 0
M  V30 644 O 62.9192 1.71622 -0.944595 0
M  V30 645 H 61.4992 -0.147928 -0.732206 0
M  V30 646 H 64.1612 -1.05067 -1.64155 0
M  V30 647 H 63.2572 -0.52601 -3.07635 0
M  V30 648 N 63.5583 1.46682 -0.576371 0
M  V30 649 C 64.5053 2.30241 0.160499 0
M  V30 650 C 65.4753 1.40233 0.890162 0
M  V30 651 O 66.6603 1.69186 0.882084 0
M  V30 652 C 63.8003 3.24578 1.1723 0
M  V30 653 C 62.9133 4.29684 0.446736 0
M  V30 654 C 62.0483 5.11154 1.44551 0
M  V30 655 C 61.0873 6.08015 0.70599 0
M  V30 656 N 60.2243 6.82376 1.65251 0
M  V30 657 H 65.0643 2.92727 -0.558127 0
M  V30 658 H 62.6013 1.44272 -0.287056 0
M  V30 659 H 64.5593 3.77711 1.77172 0
M  V30 660 H 63.1893 2.63916 1.85872 0
M  V30 661 H 62.2413 3.79458 -0.267594 0
M  V30 662 H 63.5533 4.98626 -0.131686 0
M  V30 663 H 62.7073 5.68533 2.11791 0
M  V30 664 H 61.4463 4.42158 2.05786 0
M  V30 665 H 60.4513 5.49796 0.0197725 0
M  V30 666 H 61.6763 6.79028 0.09912 0
M  V30 667 H 59.6223 6.16094 2.25308 0
M  V30 668 H 59.5393 7.47556 1.12673 0
M  V30 669 H 60.8073 7.44316 2.31546 0
M  V30 670 N 65.0364 0.313813 1.54444 0
M  V30 671 C 65.9834 -0.55655 2.23989 0
M  V30 672 C 66.9534 -1.11943 1.22711 0
M  V30 673 O 68.1384 -1.16158 1.51367 0
M  V30 674 C 65.2784 -1.71635 2.99392 0
M  V30 675 C 64.3914 -1.18364 4.15468 0
M  V30 676 C 63.5264 -2.30834 4.78424 0
M  V30 677 C 62.5654 -1.74762 5.86622 0
M  V30 678 N 61.7024 -2.80855 6.43479 0
M  V30 679 H 66.5424 0.0430893 2.97969 0
M  V30 680 H 64.0794 0.0330359 1.47063 0
M  V30 681 H 66.0374 -2.39868 3.41349 0
M  V30 682 H 64.6674 -2.28742 2.27765 0
M  V30 683 H 63.7194 -0.393163 3.78363 0
M  V30 684 H 65.0314 -0.733262 4.93381 0
M  V30 685 H 64.1854 -3.0699 5.23299 0
M  V30 686 H 62.9244 -2.79204 3.99871 0
M  V30 687 H 61.9294 -0.970995 5.41158 0
M  V30 688 H 63.1544 -1.2728 6.67066 0
M  V30 689 H 61.1004 -3.28535 5.67804 0
M  V30 690 H 61.0174 -2.40351 7.16776 0
M  V30 691 H 62.2854 -3.5687 6.93011 0
M  V30 692 N 66.5145 -1.57545 0.0417849 0
M  V30 693 C 67.4245 -2.14451 -0.951213 0
M  V30 694 C 68.4405 -1.09992 -1.34825 0
M  V30 695 O 69.6165 -1.42114 -1.42708 0
M  V30 696 C 66.6815 -2.67063 -2.21084 0
M  V30 697 C 65.7425 -3.86284 -1.87304 0
M  V30 698 C 64.9755 -4.36378 -3.07261 0
M  V30 699 O 65.1985 -3.85587 -4.20332 0
M  V30 700 O 64.1325 -5.28077 -2.88822 0
M  V30 701 H 67.9585 -2.99601 -0.497287 0
M  V30 702 H 65.5435 -1.48317 -0.179567 0
M  V30 703 H 67.4255 -3.00914 -2.95006 0
M  V30 704 H 66.1005 -1.84989 -2.65633 0
M  V30 705 H 65.0075 -3.57338 -1.10727 0
M  V30 706 H 66.3405 -4.6956 -1.47562 0
M  V30 707 N 67.9926 0.231505 -1.5589 0
M  V30 708 C 69.2206 0.974505 -1.82513 0
M  V30 709 C 69.6356 1.78344 -0.619591 0
M  V30 710 O 68.9926 1.77792 0.411848 0
M  V30 711 C 69.0436 1.90007 -3.07538 0
M  V30 712 O 68.7646 1.12385 -4.2344 0
M  V30 713 C 70.2656 2.75779 -3.47075 0
M  V30 714 H 67.4856 0.286065 -0.606966 0
M  V30 715 H 70.0296 0.249739 -2.02969 0
M  V30 716 H 68.1846 2.57891 -2.89086 0
M  V30 717 H 68.5986 1.75125 -4.944 0
M  V30 718 H 70.0726 3.36443 -4.37619 0
M  V30 719 H 70.5496 3.47672 -2.68367 0
M  V30 720 H 71.1556 2.13323 -3.67931 0
M  V30 721 N 69.4707 1.49531 0.497807 0
M  V30 722 C 70.4007 1.6935 1.60757 0
M  V30 723 C 71.3817 0.542218 1.61227 0
M  V30 724 O 72.5667 0.778417 1.77917 0
M  V30 725 C 69.6967 1.76298 2.99226 0
M  V30 726 C 68.6507 2.91248 3.13622 0
M  V30 727 C 67.9767 2.83312 4.53474 0
M  V30 728 C 69.2767 4.3214 2.93346 0
M  V30 729 H 70.9707 2.62263 1.44425 0
M  V30 730 H 68.5167 1.26208 0.693367 0
M  V30 731 H 70.4697 1.88749 3.76765 0
M  V30 732 H 69.1937 0.799871 3.16654 0
M  V30 733 H 67.8527 2.78404 2.38509 0
M  V30 734 H 67.5007 1.84902 4.67782 0
M  V30 735 H 67.2007 3.60465 4.64046 0
M  V30 736 H 68.7247 2.97775 5.33069 0
M  V30 737 H 70.1387 4.45649 3.60652 0
M  V30 738 H 68.5357 5.1054 3.15387 0
M  V30 739 H 69.6057 4.46363 1.89441 0
M  V30 740 N 70.9488 -0.749086 1.3866 0
M  V30 741 C 71.8588 -1.89358 1.38494 0
M  V30 742 C 72.8748 -1.71708 0.281476 0
M  V30 743 O 74.0508 -1.94554 0.520643 0
M  V30 744 C 71.1158 -3.24782 1.21316 0
M  V30 745 C 70.1768 -3.54926 2.41508 0
M  V30 746 C 69.4098 -4.83888 2.2514 0
M  V30 747 O 69.6328 -5.56592 1.24746 0
M  V30 748 O 68.5668 -5.13612 3.13826 0
M  V30 749 H 72.3928 -1.92452 2.34938 0
M  V30 750 H 69.9778 -0.894981 1.19626 0
M  V30 751 H 71.8598 -4.05739 1.13814 0
M  V30 752 H 70.5348 -3.2249 0.279592 0
M  V30 753 H 69.4418 -2.74112 2.54585 0
M  V30 754 H 70.7748 -3.61983 3.3351 0
M  V30 755 N 72.4269 -1.23603 -0.977757 0
M  V30 756 C 73.3899 -1.02069 -2.05218 0
M  V30 757 C 74.3899 0.0184305 -1.60789 0
M  V30 758 O 75.5799 -0.221569 -1.72785 0
M  V30 759 C 72.7119 -0.544926 -3.36517 0
M  V30 760 H 73.9049 -1.9742 -2.25755 0
M  V30 761 H 71.4579 -1.05684 -1.15155 0
M  V30 762 H 72.1929 0.412241 -3.21669 0
M  V30 763 H 71.9779 -1.2948 -3.70105 0
M  V30 764 H 73.4679 -0.414985 -4.15533 0
M  V30 765 N 73.905 1.17692 -1.04816 0
M  V30 766 C 74.868 2.19787 -0.650117 0
M  V30 767 C 75.868 1.58044 0.296427 0
M  V30 768 O 77.058 1.74012 0.0808097 0
M  V30 769 C 74.19 3.40869 0.0456987 0
M  V30 770 H 75.383 2.56516 -1.5537 0
M  V30 771 H 72.936 1.31708 -0.841594 0
M  V30 772 H 73.671 3.09681 0.962726 0
M  V30 773 H 73.456 3.86928 -0.634727 0
M  V30 774 H 74.946 4.16445 0.310432 0
M  V30 775 N 75.3831 0.828654 1.34056 0
M  V30 776 C 76.3461 0.259927 2.27721 0
M  V30 777 C 77.3461 -0.565478 1.50529 0
M  V30 778 O 78.5361 -0.38075 1.69988 0
M  V30 779 C 75.6681 -0.634944 3.34935 0
M  V30 780 H 76.8611 1.0863 2.79534 0
M  V30 781 H 74.4141 0.600951 1.44285 0
M  V30 782 H 75.1491 -1.48416 2.88346 0
M  V30 783 H 74.9341 -0.0444999 3.92075 0
M  V30 784 H 76.4241 -1.02648 4.04788 0
M  V30 785 N 76.8612 -1.46375 0.584142 0
M  V30 786 C 78.1092 -2.01978 0.0701287 0
M  V30 787 C 78.4302 -1.4579 -1.295 0
M  V30 788 O 77.7002 -0.64314 -1.85042 0
M  V30 789 H 76.2802 -0.746648 0.0229345 0
M  V30 790 H 78.9422 -1.79461 0.760245 0
M  V30 791 H 78.0382 -3.121 0.0022064 0
M  V30 792 N 78.3393 -0.321999 -1.54275 0
M  V30 793 C 79.2493 0.553631 -2.27974 0
M  V30 794 C 80.2653 1.13054 -1.32268 0
M  V30 795 O 81.4413 1.15084 -1.6528 0
M  V30 796 C 78.5063 1.69927 -3.02201 0
M  V30 797 C 77.5673 1.15433 -4.1349 0
M  V30 798 C 76.8003 2.24537 -4.84168 0
M  V30 799 O 77.0233 3.44852 -4.5435 0
M  V30 800 O 75.9573 1.90044 -5.7111 0
M  V30 801 H 79.7833 -0.0448345 -3.03667 0
M  V30 802 H 77.3683 -0.0877418 -1.49142 0
M  V30 803 H 79.2503 2.3663 -3.48689 0
M  V30 804 H 77.9253 2.28395 -2.29385 0
M  V30 805 H 76.8323 0.452436 -3.71354 0
M  V30 806 H 78.1653 0.614805 -4.88345 0
M  V30 807 N 79.8174 1.5752 -0.0501392 0
M  V30 808 C 80.7804 2.1037 0.909786 0
M  V30 809 C 81.7804 1.02308 1.24056 0
M  V30 810 O 82.9704 1.28385 1.17741 0
M  V30 811 C 80.1024 2.58708 2.21998 0
M  V30 812 H 81.2954 2.96479 0.451665 0
M  V30 813 H 78.8484 1.55038 0.198248 0
M  V30 814 H 79.5834 1.75989 2.72394 0
M  V30 815 H 79.3684 3.37675 1.99295 0
M  V30 816 H 80.8584 2.99747 2.9076 0
M  V30 817 N 81.2955 -0.223234 1.56011 0
M  V30 818 C 82.2255 -1.27988 1.95298 0
M  V30 819 C 83.2065 -1.48976 0.820979 0
M  V30 820 O 84.3915 -1.61188 1.08315 0
M  V30 821 C 81.5215 -2.63 2.26822 0
M  V30 822 C 80.4755 -2.56671 3.42497 0
M  V30 823 C 79.8015 -3.95697 3.59622 0
M  V30 824 C 81.1015 -2.11601 4.77517 0
M  V30 825 H 82.7955 -0.953525 2.8381 0
M  V30 826 H 80.3415 -0.457244 1.36548 0
M  V30 827 H 82.2945 -3.37077 2.52898 0
M  V30 828 H 81.0185 -2.9732 1.35161 0
M  V30 829 H 79.6775 -1.85051 3.16467 0
M  V30 830 H 79.3255 -4.27322 2.6534 0
M  V30 831 H 79.0255 -3.92345 4.37424 0
M  V30 832 H 80.5495 -4.71438 3.88044 0
M  V30 833 H 81.9635 -2.7542 5.02809 0
M  V30 834 H 80.3605 -2.19311 5.5859 0
M  V30 835 H 81.4305 -1.06824 4.72987 0
M  V30 836 N 82.7736 -1.49793 -0.48987 0
M  V30 837 C 84.0216 -1.59525 -1.24081 0
M  V30 838 C 84.3426 -0.288953 -1.92847 0
M  V30 839 O 83.6126 0.692436 -1.83254 0
M  V30 840 H 82.1926 -0.587796 -0.460983 0
M  V30 841 H 84.8546 -1.86477 -0.566778 0
M  V30 842 H 83.9506 -2.39696 -1.99881 0
M  V30 843 N 84.2517 0.741722 -1.39055 0
M  V30 844 C 85.1837 1.8657 -1.33133 0
M  V30 845 C 86.1967 1.61001 -0.241329 0
M  V30 846 O 87.3857 1.7136 -0.499784 0
M  V30 847 C 84.4857 3.22457 -1.04283 0
M  V30 848 C 83.6587 3.75435 -2.24427 0
M  V30 849 C 82.7177 4.89867 -1.92138 0
M  V30 850 O 81.7437 5.03879 -2.64754 0
M  V30 851 N 82.9457 5.73738 -0.88347 0
M  V30 852 H 85.7107 1.92156 -2.29991 0
M  V30 853 H 83.2717 0.922172 -1.3307 0
M  V30 854 H 85.2637 3.9657 -0.807128 0
M  V30 855 H 83.8337 3.12181 -0.161807 0
M  V30 856 H 83.0537 2.92751 -2.6399 0
M  V30 857 H 84.3417 4.07563 -3.04581 0
M  V30 858 H 83.7397 5.64999 -0.281517 0
M  V30 859 H 82.2967 6.47947 -0.707662 0
M  V30 860 N 85.7298 1.2412 0.971189 0
M  V30 861 C 86.9578 1.10575 1.74874 0
M  V30 862 C 87.3728 -0.342017 1.85676 0
M  V30 863 O 86.7298 -1.23617 1.34258 0
M  V30 864 C 86.7808 1.73579 3.171 0
M  V30 865 O 86.5018 3.12695 3.06844 0
M  V30 866 C 88.0028 1.65598 4.11208 0
M  V30 867 H 85.2228 0.386504 0.548503 0
M  V30 868 H 87.7668 1.64156 1.21955 0
M  V30 869 H 85.9218 1.24009 3.67016 0
M  V30 870 H 86.3358 3.43412 3.96445 0
M  V30 871 H 87.8098 2.1437 5.08674 0
M  V30 872 H 88.2868 0.616532 4.34851 0
M  V30 873 H 88.8928 2.14578 3.67201 0
M  V30 874 N 87.2079 -1.17134 1.05439 0
M  V30 875 C 88.1379 -2.2342 0.678649 0
M  V30 876 C 89.1189 -1.66971 -0.32476 0
M  V30 877 O 90.3039 -1.93149 -0.201802 0
M  V30 878 C 87.4339 -3.47256 0.0552099 0
M  V30 879 C 86.3879 -4.16543 0.98365 0
M  V30 880 C 85.7139 -5.34231 0.223961 0
M  V30 881 C 87.0139 -4.68495 2.3089 0
M  V30 882 H 88.7079 -2.55105 1.56722 0
M  V30 883 H 86.2539 -1.2262 0.754998 0
M  V30 884 H 88.2069 -4.20828 -0.21946 0
M  V30 885 H 86.9309 -3.14846 -0.868319 0
M  V30 886 H 85.5899 -3.44887 1.24293 0
M  V30 887 H 85.2379 -4.98071 -0.702412 0
M  V30 888 H 84.9379 -5.81527 0.842627 0
M  V30 889 H 86.4619 -6.10585 -0.0433671 0
M  V30 890 H 87.8759 -5.33691 2.09396 0
M  V30 891 H 86.2729 -5.26379 2.88176 0
M  V30 892 H 87.3429 -3.85169 2.94572 0
M  V30 893 N 88.686 -0.835752 -1.33615 0
M  V30 894 C 89.914 -0.443344 -2.02094 0
M  V30 895 C 90.329 0.954522 -1.62894 0
M  V30 896 O 89.686 1.61982 -0.840723 0
M  V30 897 C 89.737 -0.550775 -3.5728 0
M  V30 898 O 89.458 -1.89356 -3.95065 0
M  V30 899 C 90.959 -0.154919 -4.43029 0
M  V30 900 H 88.179 -0.176359 -0.647409 0
M  V30 901 H 90.723 -1.12746 -1.70612 0
M  V30 902 H 88.878 0.0853997 -3.87306 0
M  V30 903 H 89.292 -1.87687 -4.89769 0
M  V30 904 H 90.766 -0.281144 -5.51284 0
M  V30 905 H 91.243 0.902863 -4.2982 0
M  V30 906 H 91.849 -0.765404 -4.18356 0
M  V30 907 N 90.1641 1.46063 -0.591896 0
M  V30 908 C 91.4101 2.02638 -0.0811191 0
M  V30 909 C 91.7431 1.4613 1.27905 0
M  V30 910 O 91.0181 0.629908 1.84017 0
M  V30 911 C 91.3011 3.60091 -0.0252436 0
M  V30 912 C 91.1541 4.26965 -1.41496 0
M  V30 913 C 92.4731 4.3496 0.670685 0
M  V30 914 H 89.5921 0.73635 -0.0309524 0
M  V30 915 H 92.2341 1.741 -0.760859 0
M  V30 916 H 90.3841 3.84535 0.553624 0
M  V30 917 H 92.0561 4.13756 -2.0397 0
M  V30 918 H 90.2991 3.85971 -1.98011 0
M  V30 919 H 90.9701 5.35781 -1.32825 0
M  V30 920 H 93.4461 4.15716 0.178825 0
M  V30 921 H 92.3221 5.44686 0.678837 0
M  V30 922 H 92.5831 4.06685 1.73379 0
M  V30 923 N 91.6422 0.330177 1.54103 0
M  V30 924 C 92.6052 -0.520144 2.2322 0
M  V30 925 C 93.6052 -1.03828 1.22786 0
M  V30 926 O 94.7952 -0.929652 1.4732 0
M  V30 927 C 91.9272 -1.72317 2.94142 0
M  V30 928 H 93.1202 0.0841605 2.99782 0
M  V30 929 H 90.6732 0.0813433 1.56088 0
M  V30 930 H 91.4082 -2.36653 2.21734 0
M  V30 931 H 91.1932 -1.35898 3.67796 0
M  V30 932 H 92.6832 -2.3266 3.46784 0
M  V30 933 N 93.1203 -1.57491 0.0584922 0
M  V30 934 C 94.0523 -2.08916 -0.942694 0
M  V30 935 C 95.0653 -1.0185 -1.27006 0
M  V30 936 O 96.2543 -1.29398 -1.22957 0
M  V30 937 C 93.3543 -2.52341 -2.26224 0
M  V30 938 C 92.5273 -3.82827 -2.1157 0
M  V30 939 C 91.5863 -4.12487 -3.26712 0
M  V30 940 O 90.6123 -4.82295 -3.02292 0
M  V30 941 N 91.8143 -3.64978 -4.5141 0
M  V30 942 H 94.5793 -2.95437 -0.503722 0
M  V30 943 H 92.1403 -1.61397 -0.12757 0
M  V30 944 H 94.1323 -2.69254 -3.02133 0
M  V30 945 H 92.7023 -1.7103 -2.61663 0
M  V30 946 H 91.9223 -3.75425 -1.20208 0
M  V30 947 H 93.2103 -4.68263 -1.99015 0
M  V30 948 H 92.6083 -3.08558 -4.7414 0
M  V30 949 H 91.1653 -3.87115 -5.2439 0
M  V30 950 N 94.5984 0.214957 -1.56127 0
M  V30 951 C 95.5284 1.2695 -1.95974 0
M  V30 952 C 96.5094 1.48539 -0.828868 0
M  V30 953 O 97.6944 1.60611 -1.09168 0
M  V30 954 C 94.8244 2.61794 -2.28214 0
M  V30 955 C 93.7784 2.54851 -3.43853 0
M  V30 956 C 93.1044 3.93785 -3.61715 0
M  V30 957 C 94.4044 2.09065 -4.78632 0
M  V30 958 H 96.0984 0.93846 -2.84312 0
M  V30 959 H 93.6444 0.449996 -1.36788 0
M  V30 960 H 95.5974 3.35731 -2.54682 0
M  V30 961 H 94.3214 2.96599 -1.36736 0
M  V30 962 H 92.9804 1.8337 -3.17444 0
M  V30 963 H 92.6284 4.25908 -2.67602 0
M  V30 964 H 92.3284 3.90019 -4.39498 0
M  V30 965 H 93.8524 4.69374 -3.90539 0
M  V30 966 H 95.2664 2.7275 -5.04262 0
M  V30 967 H 93.6634 2.16346 -5.59745 0
M  V30 968 H 94.7334 1.04315 -4.73547 0
M  V30 969 N 96.0765 1.50051 0.48192 0
M  V30 970 C 97.3535 1.51009 1.2432 0
M  V30 971 C 97.7335 0.248587 2.09631 0
M  V30 972 O 97.0815 -0.768409 2.15192 0
M  V30 973 C 97.2915 2.79981 2.08355 0
M  V30 974 C 98.6395 3.3022 2.66908 0
M  V30 975 O 99.6635 2.81228 2.18607 0
M  V30 976 O 98.5225 4.15595 3.54884 0
M  V30 977 H 95.6165 0.605239 0.563573 0
M  V30 978 H 98.1625 1.62332 0.494627 0
M  V30 979 H 96.9345 3.63275 1.45419 0
M  V30 980 H 96.5575 2.7161 2.90368 0
M  V30 981 N 97.5546 -0.734337 1.39446 0
M  V30 982 C 98.8006 -1.49613 1.36908 0
M  V30 983 C 99.1336 -1.94169 -0.0347829 0
M  V30 984 O 98.4086 -1.66833 -0.999847 0
M  V30 985 C 98.6916 -2.73534 2.34203 0
M  V30 986 C 98.5446 -2.34993 3.83534 0
M  V30 987 C 99.8636 -3.75635 2.29317 0
M  V30 988 H 96.9826 -0.542714 0.498629 0
M  V30 989 H 99.6246 -0.839597 1.70443 0
M  V30 990 H 97.7746 -3.29553 2.05736 0
M  V30 991 H 99.4466 -1.84601 4.22753 0
M  V30 992 H 97.6896 -1.67213 4.00278 0
M  V30 993 H 98.3606 -3.23738 4.47099 0
M  V30 994 H 100.837 -3.29203 2.54489 0
M  V30 995 H 99.7126 -4.60008 2.99472 0
M  V30 996 H 99.9736 -4.22603 1.29842 0
M  V30 997 N 99.0327 -1.24633 -0.964593 0
M  V30 998 C 100.273 -1.09981 -1.72289 0
M  V30 999 C 100.637 0.354792 -1.88693 0
M  V30 1000 O 101.838 0.62289 -2.61483 0
M  V30 1001 C 100.109 -1.82262 -3.07434 0
M  V30 1002 S 101.668 -1.83379 -3.98645 0
M  V30 1003 H 98.4857 -0.393292 -0.59232 0
M  V30 1004 H 101.088 -1.58009 -1.15123 0
M  V30 1005 H 99.7917 -2.87206 -2.93157 0
M  V30 1006 H 99.3227 -1.3458 -3.69664 0
M  V30 1007 H 101.338 -0.903691 -4.87901 0
M  V30 1008 N 100.511 1.16574 -1.06058 0
M  V30 1009 C 101.736 1.91493 -0.796562 0
M  V30 1010 C 102.161 1.76773 0.642868 0
M  V30 1011 O 101.519 1.09142 1.44768 0
M  V30 1012 C 101.567 3.40293 -1.19303 0
M  V30 1013 O 100.671 4.11074 -0.330394 0
M  V30 1014 H 100.012 0.596678 -0.291326 0
M  V30 1015 H 102.542 1.47708 -1.41575 0
M  V30 1016 H 102.552 3.91057 -1.16356 0
M  V30 1017 H 101.227 3.50326 -2.24153 0
M  V30 1018 H 99.8038 3.70513 -0.421225 0
M  V30 1019 N 101.989 0.842826 1.3317 0
M  V30 1020 C 103.266 0.362216 1.92217 0
M  V30 1021 C 103.646 -1.15289 1.76838 0
M  V30 1022 O 102.994 -1.96914 1.15919 0
M  V30 1023 C 103.204 0.813495 3.39387 0
M  V30 1024 C 104.552 0.823804 4.16532 0
M  V30 1025 O 105.576 0.757358 3.48055 0
M  V30 1026 O 104.435 0.915193 5.38782 0
M  V30 1027 H 101.529 0.103317 0.820521 0
M  V30 1028 H 104.075 0.928942 1.42017 0
M  V30 1029 H 102.847 1.85624 3.4447 0
M  V30 1030 H 102.47 0.223561 3.96971 0
M  V30 1031 N 103.467 -1.45747 0.599634 0
M  V30 1032 C 104.377 -2.34262 -0.125888 0
M  V30 1033 C 105.393 -1.50768 -0.868625 0
M  V30 1034 O 106.569 -1.83592 -0.828003 0
M  V30 1035 C 103.634 -3.28252 -1.11587 0
M  V30 1036 C 102.695 -4.27651 -0.375956 0
M  V30 1037 C 101.928 -5.1715 -1.31877 0
M  V30 1038 O 102.151 -5.09916 -2.55621 0
M  V30 1039 O 101.085 -5.96286 -0.820157 0
M  V30 1040 H 104.911 -2.97688 0.601315 0
M  V30 1041 H 102.496 -1.44999 0.359934 0
M  V30 1042 H 104.378 -3.86191 -1.68626 0
M  V30 1043 H 103.053 -2.67401 -1.82424 0
M  V30 1044 H 101.96 -3.7335 0.236698 0
M  V30 1045 H 103.293 -4.91334 0.29177 0
M  V30 1046 N 104.945 -0.338344 -1.53925 0
M  V30 1047 C 106.17 0.263987 -2.05713 0
M  V30 1048 C 106.595 1.43847 -1.21201 0
M  V30 1049 O 105.953 1.79904 -0.224535 0
M  V30 1050 C 106.001 0.662 -3.54471 0
M  V30 1051 O 105.105 1.76265 -3.72833 0
M  V30 1052 H 104.446 0.0448722 -0.662482 0
M  V30 1053 H 106.976 -0.491048 -1.9862 0
M  V30 1054 H 106.986 0.940594 -3.9701 0
M  V30 1055 H 105.661 -0.196937 -4.15433 0
M  V30 1056 H 104.238 1.48173 -3.42198 0
M  V30 1057 N 106.423 1.57458 -0.0668435 0
M  V30 1058 C 107.669 1.93587 0.6043 0
M  V30 1059 C 108.002 0.946722 1.69561 0
M  V30 1060 O 107.277 -0.0248516 1.94484 0
M  V30 1061 C 107.56 3.40014 1.18585 0
M  V30 1062 C 107.413 4.49685 0.101529 0
M  V30 1063 C 108.732 3.87154 2.09284 0
M  V30 1064 H 105.851 0.703958 0.218202 0
M  V30 1065 H 108.493 1.89542 -0.131804 0
M  V30 1066 H 106.643 3.43592 1.81319 0
M  V30 1067 H 108.315 4.5823 -0.531279 0
M  V30 1068 H 106.558 4.30059 -0.568487 0
M  V30 1069 H 107.229 5.49266 0.54874 0
M  V30 1070 H 109.705 3.85551 1.56491 0
M  V30 1071 H 108.581 4.90231 2.46911 0
M  V30 1072 H 108.842 3.2481 2.99918 0
M  V30 1073 N 107.901 -0.206675 1.56239 0
M  V30 1074 C 108.864 -1.23976 1.92776 0
M  V30 1075 C 109.864 -1.39041 0.807729 0
M  V30 1076 O 111.054 -1.37051 1.0753 0
M  V30 1077 C 108.186 -2.61112 2.19165 0
M  V30 1078 H 109.379 -0.927764 2.85189 0
M  V30 1079 H 106.932 -0.447718 1.4975 0
M  V30 1080 H 107.667 -2.97386 1.29352 0
M  V30 1081 H 107.452 -2.51552 3.00772 0
M  V30 1082 H 108.942 -3.35633 2.48476 0
M  V30 1083 N 109.379 -1.50304 -0.473955 0
M  V30 1084 C 110.311 -1.65109 -1.58971 0
M  V30 1085 C 111.324 -0.532676 -1.53839 0
M  V30 1086 O 112.513 -0.805751 -1.59279 0
M  V30 1087 C 109.613 -1.61684 -2.97845 0
M  V30 1088 C 108.786 -2.8951 -3.27876 0
M  V30 1089 C 107.845 -2.78768 -4.4629 0
M  V30 1090 O 106.871 -3.52722 -4.46739 0
M  V30 1091 N 108.073 -1.9213 -5.47783 0
M  V30 1092 H 110.838 -2.61347 -1.46689 0
M  V30 1093 H 108.399 -1.47732 -0.662324 0
M  V30 1094 H 110.391 -1.52114 -3.75024 0
M  V30 1095 H 108.961 -0.731925 -3.03911 0
M  V30 1096 H 108.181 -3.13228 -2.39336 0
M  V30 1097 H 109.469 -3.74199 -3.4475 0
M  V30 1098 H 108.867 -1.31353 -5.50239 0
M  V30 1099 H 107.424 -1.88466 -6.23958 0
M  V30 1100 N 110.857 0.726932 -1.39834 0
M  V30 1101 C 112.097 1.4992 -1.38936 0
M  V30 1102 C 112.461 1.91996 0.0126883 0
M  V30 1103 O 113.662 2.68399 0.146715 0
M  V30 1104 C 111.933 2.70013 -2.34153 0
M  V30 1105 S 113.492 3.59563 -2.51515 0
M  V30 1106 H 110.31 0.51271 -0.492595 0
M  V30 1107 H 112.912 0.85107 -1.76003 0
M  V30 1108 H 111.616 2.37254 -3.34871 0
M  V30 1109 H 111.147 3.39748 -1.98331 0
M  V30 1110 H 113.162 4.63973 -1.75909 0
M  V30 1111 N 112.336 1.25143 0.95797 0
M  V30 1112 C 113.266 1.07711 2.07173 0
M  V30 1113 C 114.247 -0.0128462 1.70095 0
M  V30 1114 O 115.432 0.156061 1.93572 0
M  V30 1115 C 112.562 0.691503 3.40346 0
M  V30 1116 C 111.516 1.73132 3.9142 0
M  V30 1117 C 110.842 1.20049 5.21049 0
M  V30 1118 C 112.142 3.1294 4.1817 0
M  V30 1119 H 113.836 2.00873 2.22014 0
M  V30 1120 H 111.382 0.967191 1.06684 0
M  V30 1121 H 113.335 0.556505 4.17709 0
M  V30 1122 H 112.059 -0.275819 3.25433 0
M  V30 1123 H 110.718 1.8547 3.16222 0
M  V30 1124 H 110.366 0.223499 5.02503 0
M  V30 1125 H 110.066 1.89545 5.56189 0
M  V30 1126 H 111.59 1.07782 6.01012 0
M  V30 1127 H 113.004 3.03775 4.86203 0
M  V30 1128 H 111.401 3.79875 4.64559 0
M  V30 1129 H 112.471 3.6025 3.24573 0
M  V30 1130 N 113.814 -1.1601 1.06675 0
M  V30 1131 C 115.039 -1.91068 0.806706 0
M  V30 1132 C 115.464 -1.77112 -0.633485 0
M  V30 1133 O 114.822 -1.09908 -1.44187 0
M  V30 1134 C 114.87 -3.39655 1.21106 0
M  V30 1135 O 113.974 -4.10893 0.352189 0
M  V30 1136 H 113.315 -0.595125 0.294486 0
M  V30 1137 H 115.845 -1.46955 1.42356 0
M  V30 1138 H 115.855 -3.90434 1.18428 0
M  V30 1139 H 114.53 -3.49132 2.26008 0
M  V30 1140 H 113.107 -3.70285 0.440868 0
M  V30 1141 N 115.292 -0.849877 -1.32721 0
M  V30 1142 C 116.532 -0.457146 -1.99222 0
M  V30 1143 C 116.896 0.968038 -1.6581 0
M  V30 1144 O 118.097 1.46507 -2.25364 0
M  V30 1145 C 116.368 -0.683966 -3.50794 0
M  V30 1146 S 117.927 -0.388095 -4.3708 0
M  V30 1147 H 114.745 -0.171464 -0.690015 0
M  V30 1148 H 117.347 -1.10155 -1.61512 0
M  V30 1149 H 116.051 -1.72038 -3.726 0
M  V30 1150 H 115.582 -0.0258086 -3.93392 0
M  V30 1151 H 117.597 0.787791 -4.89906 0
M  V30 1152 N 116.77 1.45427 -0.607355 0
M  V30 1153 C 118.019 2.01452 -0.100036 0
M  V30 1154 C 118.332 1.48159 1.27704 0
M  V30 1155 O 119.538 1.96159 1.87707 0
M  V30 1156 C 117.994 3.59672 -0.128158 0
M  V30 1157 C 117.602 4.21962 -1.50507 0
M  V30 1158 C 119.346 4.23262 0.323932 0
M  V30 1159 C 117.253 5.72333 -1.48959 0
M  V30 1160 H 116.183 0.75325 -0.0336299 0
M  V30 1161 H 118.834 1.66901 -0.76265 0
M  V30 1162 H 117.216 3.91411 0.601105 0
M  V30 1163 H 118.39 4.01796 -2.25602 0
M  V30 1164 H 116.705 3.70565 -1.89923 0
M  V30 1165 H 119.302 5.33522 0.354691 0
M  V30 1166 H 119.645 3.93921 1.34656 0
M  V30 1167 H 120.178 3.96239 -0.352056 0
M  V30 1168 H 116.917 6.06373 -2.48981 0
M  V30 1169 H 116.437 5.94691 -0.781214 0
M  V30 1170 H 118.116 6.35525 -1.21313 0
M  V30 1171 N 118.248 0.346503 1.53744 0
M  V30 1172 C 119.18 -0.543316 2.22667 0
M  V30 1173 C 120.193 -1.06159 1.23427 0
M  V30 1174 O 121.382 -0.971235 1.49764 0
M  V30 1175 C 118.482 -1.76076 2.89569 0
M  V30 1176 C 117.655 -1.37727 4.15151 0
M  V30 1177 C 116.714 -2.45471 4.65436 0
M  V30 1178 O 115.74 -2.08655 5.29577 0
M  V30 1179 N 116.942 -3.7677 4.41616 0
M  V30 1180 H 119.707 0.0469703 2.99663 0
M  V30 1181 H 117.268 0.170766 1.60997 0
M  V30 1182 H 119.26 -2.47593 3.20125 0
M  V30 1183 H 117.83 -2.25835 2.16142 0
M  V30 1184 H 117.05 -0.492746 3.91108 0
M  V30 1185 H 118.338 -1.09708 4.96832 0
M  V30 1186 H 117.736 -4.09467 3.90325 0
M  V30 1187 H 116.293 -4.44448 4.7677 0
M  V30 1188 N 119.726 -1.57421 0.075193 0
M  V30 1189 C 120.974 -1.93236 -0.591974 0
M  V30 1190 C 121.295 -0.956241 -1.69944 0
M  V30 1191 O 120.565 -0.00494792 -1.95899 0
M  V30 1192 H 119.145 -0.713355 -0.22166 0
M  V30 1193 H 121.807 -1.9444 0.133848 0
M  V30 1194 H 120.903 -2.95131 -1.01509 0
M  V30 1195 N 121.204 0.198386 -1.56346 0
M  V30 1196 C 122.114 1.2664 -1.97483 0
M  V30 1197 C 123.13 1.49989 -0.882002 0
M  V30 1198 O 124.306 1.62668 -1.18748 0
M  V30 1199 C 121.371 2.59141 -2.30319 0
M  V30 1200 C 120.432 2.43892 -3.53292 0
M  V30 1201 C 119.665 3.70074 -3.84553 0
M  V30 1202 O 119.888 4.74101 -3.1715 0
M  V30 1203 O 118.822 3.658 -4.7799 0
M  V30 1204 H 122.648 0.947304 -2.88548 0
M  V30 1205 H 120.233 0.403123 -1.43859 0
M  V30 1206 H 122.115 3.37352 -2.5253 0
M  V30 1207 H 120.79 2.90684 -1.42423 0
M  V30 1208 H 119.697 1.63803 -3.36332 0
M  V30 1209 H 121.03 2.17282 -4.41644 0
M  V30 1210 N 122.682 1.50554 0.465978 0
M  V30 1211 C 123.928 1.62038 1.21949 0
M  V30 1212 C 124.261 0.322116 1.9151 0
M  V30 1213 O 123.536 -0.676723 1.82348 0
M  V30 1214 C 123.819 2.80421 2.25912 0
M  V30 1215 C 123.672 4.20144 1.60622 0
M  V30 1216 C 124.991 2.94354 3.27176 0
M  V30 1217 H 122.11 0.589752 0.441998 0
M  V30 1218 H 124.752 1.82956 0.51257 0
M  V30 1219 H 122.902 2.62717 2.86203 0
M  V30 1220 H 124.574 4.49449 1.03889 0
M  V30 1221 H 122.817 4.24165 0.909211 0
M  V30 1222 H 123.488 4.98914 2.36196 0
M  V30 1223 H 125.964 3.10578 2.76913 0
M  V30 1224 H 124.84 3.788 3.97242 0
M  V30 1225 H 125.101 2.05186 3.916 0
M  V30 1226 N 124.16 -0.719506 1.40217 0
M  V30 1227 C 125.437 -1.47221 1.28784 0
M  V30 1228 C 125.817 -2.10883 -0.0956067 0
M  V30 1229 O 125.165 -1.99833 -1.10811 0
M  V30 1230 C 125.375 -2.5111 2.42373 0
M  V30 1231 C 126.723 -3.17053 2.82423 0
M  V30 1232 O 127.747 -2.61429 2.41937 0
M  V30 1233 O 126.606 -4.17742 3.52355 0
M  V30 1234 H 123.7 -0.654491 0.50554 0
M  V30 1235 H 126.246 -0.752014 1.52128 0
M  V30 1236 H 125.018 -2.02556 3.34793 0
M  V30 1237 H 124.641 -3.3067 2.20778 0
M  V30 1238 N 125.638 -1.25649 -0.95132 0
M  V30 1239 C 126.884 -1.10757 -1.69884 0
M  V30 1240 C 127.217 0.350061 -1.91019 0
M  V30 1241 O 126.492 1.25783 -1.48354 0
M  V30 1242 C 126.775 -1.86606 -3.07978 0
M  V30 1243 C 126.628 -3.40217 -2.94232 0
M  V30 1244 C 127.947 -1.65182 -4.07925 0
M  V30 1245 H 125.066 -0.40374 -0.616574 0
M  V30 1246 H 127.708 -1.54521 -1.10558 0
M  V30 1247 H 125.858 -1.49409 -3.58621 0
M  V30 1248 H 127.53 -3.87108 -2.50889 0
M  V30 1249 H 125.773 -3.67759 -2.30078 0
M  V30 1250 H 126.444 -3.88505 -3.92133 0
M  V30 1251 H 128.92 -1.9757 -3.66204 0
M  V30 1252 H 127.796 -2.20683 -5.02583 0
M  V30 1253 H 128.057 -0.593933 -4.38092 0
M  V30 1254 N 127.117 1.15442 -1.07289 0
M  V30 1255 C 128.047 2.22312 -0.714107 0
M  V30 1256 C 129.028 1.67467 0.298155 0
M  V30 1257 O 130.213 1.93445 0.171048 0
M  V30 1258 C 127.343 3.47124 -0.110448 0
M  V30 1259 C 126.297 4.14926 -1.04979 0
M  V30 1260 C 125.623 5.33807 -0.308924 0
M  V30 1261 C 126.923 4.64762 -2.38314 0
M  V30 1262 H 128.617 2.5258 -1.6076 0
M  V30 1263 H 126.163 1.21404 -0.77441 0
M  V30 1264 H 128.116 4.21124 0.152482 0
M  V30 1265 H 126.84 3.16187 0.81812 0
M  V30 1266 H 125.499 3.42866 -1.29764 0
M  V30 1267 H 125.147 4.99126 0.623084 0
M  V30 1268 H 124.847 5.80113 -0.935036 0
M  V30 1269 H 126.371 6.10576 -0.0537771 0
M  V30 1270 H 127.785 5.30292 -2.1786 0
M  V30 1271 H 126.182 5.21728 -2.96514 0
M  V30 1272 H 127.252 3.80434 -3.00663 0
M  V30 1273 N 128.595 0.856903 1.32268 0
M  V30 1274 C 129.841 0.462069 1.97466 0
M  V30 1275 C 130.174 -0.980298 1.67642 0
M  V30 1276 O 129.449 -1.68824 0.965858 0
M  V30 1277 C 129.732 0.704336 3.53145 0
M  V30 1278 C 129.585 2.19529 3.9259 0
M  V30 1279 C 130.904 0.1622 4.39801 0
M  V30 1280 H 128.023 0.169357 0.717278 0
M  V30 1281 H 130.665 1.07574 1.56614 0
M  V30 1282 H 128.815 0.181999 3.88073 0
M  V30 1283 H 130.487 2.78387 3.67829 0
M  V30 1284 H 128.73 2.67292 3.41668 0
M  V30 1285 H 129.401 2.31549 5.01088 0
M  V30 1286 H 131.877 0.608905 4.11621 0
M  V30 1287 H 130.753 0.361265 5.4771 0
M  V30 1288 H 131.014 -0.935158 4.32096 0
M  V30 1289 N 130.073 -1.45103 0.615059 0
M  V30 1290 C 131.021 -2.32331 -0.111791 0
M  V30 1291 C 132.015 -1.46409 -0.852102 0
M  V30 1292 O 133.221 -1.62849 -0.766821 0
M  V30 1293 H 129.596 -0.749993 -0.0549072 0
M  V30 1294 H 131.567 -2.91407 0.642225 0
M  V30 1295 C 130.316 -3.3015 -1.09071 0
M  V30 1296 H 129.639 -3.96265 -0.530485 0
M  V30 1297 H 131.079 -3.93898 -1.56908 0
M  V30 1298 C 129.538 -2.57875 -2.168 0
M  V30 1299 O 130.068 -2.36567 -3.24652 0
M  V30 1300 N 128.274 -2.17884 -1.92289 0
M  V30 1301 H 127.821 -2.35413 -1.04587 0
M  V30 1302 H 127.779 -1.6985 -2.64572 0
M  V30 1303 N 131.551 -0.354651 -1.53558 0
M  V30 1304 C 132.499 0.512195 -2.26891 0
M  V30 1305 C 133.493 1.09263 -1.29452 0
M  V30 1306 O 134.699 1.03709 -1.47121 0
M  V30 1307 H 131.074 0.183878 -0.729173 0
M  V30 1308 H 133.045 -0.128202 -2.98124 0
M  V30 1309 C 131.794 1.64563 -3.06291 0
M  V30 1310 H 131.117 1.20829 -3.81104 0
M  V30 1311 H 132.557 2.22711 -3.60799 0
M  V30 1312 C 131.016 2.58158 -2.16462 0
M  V30 1313 O 131.546 3.60695 -1.76811 0
M  V30 1314 N 129.752 2.27096 -1.81317 0
M  V30 1315 H 129.299 1.43751 -2.1376 0
M  V30 1316 H 129.257 2.89975 -1.21498 0
M  V30 1317 N 133.029 1.57378 -0.0835403 0
M  V30 1318 C 133.992 2.12252 0.864959 0
M  V30 1319 C 134.992 1.04916 1.21858 0
M  V30 1320 O 136.182 1.30853 1.14991 0
M  V30 1321 C 133.314 2.63358 2.16461 0
M  V30 1322 H 134.507 2.97371 0.388676 0
M  V30 1323 H 132.06 1.55423 0.165317 0
M  V30 1324 H 132.795 1.81727 2.686 0
M  V30 1325 H 132.58 3.41826 1.92087 0
M  V30 1326 H 134.07 3.05847 2.84337 0
M  V30 1327 N 134.507 -0.190092 1.56449 0
M  V30 1328 C 135.755 -0.907908 1.80559 0
M  V30 1329 C 136.076 -1.83583 0.657438 0
M  V30 1330 O 135.346 -1.93203 -0.323924 0
M  V30 1331 H 133.926 -0.338247 0.666032 0
M  V30 1332 H 136.588 -0.194403 1.93928 0
M  V30 1333 H 135.684 -1.49604 2.73907 0
M  V30 1334 N 135.985 -1.50799 -0.457987 0
M  V30 1335 C 136.918 -1.65273 -1.57353 0
M  V30 1336 C 137.896 -0.500578 -1.54703 0
M  V30 1337 O 139.08 -0.721781 -1.74134 0
M  V30 1338 C 136.207 -1.64737 -2.95938 0
M  V30 1339 C 135.253 -2.8567 -3.16693 0
M  V30 1340 S 136.086 -4.46791 -2.95191 0
M  V30 1341 C 137.242 -4.48968 -4.36095 0
M  V30 1342 H 137.475 -2.59633 -1.44838 0
M  V30 1343 H 135.008 -1.40225 -0.64625 0
M  V30 1344 H 136.966 -1.65112 -3.7583 0
M  V30 1345 H 135.627 -0.715899 -3.05833 0
M  V30 1346 H 134.82 -2.81637 -4.17967 0
M  V30 1347 H 134.422 -2.8293 -2.44594 0
M  V30 1348 H 136.714 -4.23337 -5.28954 0
M  V30 1349 H 137.657 -5.50664 -4.45168 0
M  V30 1350 H 138.065 -3.78522 -4.18786 0
M  V30 1351 N 137.463 0.71206 -1.40597 0
M  V30 1352 C 138.711 1.46907 -1.38791 0
M  V30 1353 C 139.032 1.94998 0.00780391 0
M  V30 1354 O 138.302 1.70587 0.963174 0
M  V30 1355 H 136.882 0.545043 -0.51082 0
M  V30 1356 H 139.544 0.843882 -1.75683 0
M  V30 1357 H 138.64 2.34021 -2.06496 0
M  V30 1358 N 138.941 1.26152 0.944643 0
M  V30 1359 C 139.871 1.09902 2.06019 0
M  V30 1360 C 140.852 0.00519538 1.70099 0
M  V30 1361 O 142.037 0.176583 1.93396 0
M  V30 1362 C 139.167 0.727562 3.39594 0
M  V30 1363 C 138.121 1.77274 3.89561 0
M  V30 1364 C 137.447 1.25569 5.19747 0
M  V30 1365 C 138.747 3.17357 4.14827 0
M  V30 1366 H 140.441 2.03217 2.19871 0
M  V30 1367 H 137.987 0.978452 1.05652 0
M  V30 1368 H 139.94 0.600777 4.17095 0
M  V30 1369 H 138.664 -0.241287 3.25707 0
M  V30 1370 H 137.323 1.88814 3.14237 0
M  V30 1371 H 136.971 0.276783 5.02238 0
M  V30 1372 H 136.671 1.95433 5.54148 0
M  V30 1373 H 138.195 1.1415 5.99835 0
M  V30 1374 H 139.609 3.08914 4.82954 0
M  V30 1375 H 138.006 3.84781 4.60504 0
M  V30 1376 H 139.076 3.63673 3.20734 0
M  V30 1377 N 140.419 -1.14872 1.07899 0
M  V30 1378 C 141.665 -1.86064 0.806725 0
M  V30 1379 C 141.998 -1.82434 -0.665706 0
M  V30 1380 O 141.273 -1.25138 -1.48899 0
M  V30 1381 C 141.556 -3.34929 1.32267 0
M  V30 1382 C 141.409 -3.47161 2.86006 0
M  V30 1383 C 142.728 -4.29863 0.943717 0
M  V30 1384 H 139.847 -0.675591 0.294526 0
M  V30 1385 H 142.489 -1.34925 1.33773 0
M  V30 1386 H 140.639 -3.78611 0.870974 0
M  V30 1387 H 142.311 -3.12302 3.39507 0
M  V30 1388 H 140.554 -2.88539 3.23925 0
M  V30 1389 H 141.225 -4.51777 3.17177 0
M  V30 1390 H 143.701 -3.9417 1.33302 0
M  V30 1391 H 142.577 -5.32494 1.33198 0
M  V30 1392 H 142.838 -4.41846 -0.149796 0
M  V30 1393 N 141.898 -0.863906 -1.31812 0
M  V30 1394 C 143.146 -0.470904 -1.96537 0
M  V30 1395 C 143.467 0.978771 -1.68657 0
M  V30 1396 O 142.737 1.6853 -0.998717 0
M  V30 1397 H 141.317 -0.171148 -0.72713 0
M  V30 1398 H 143.979 -1.10236 -1.60729 0
M  V30 1399 H 143.075 -0.623616 -3.05806 0
M  V30 1400 N 143.376 1.44774 -0.622745 0
M  V30 1401 C 144.787 1.85546 -0.207226 0
M  V30 1402 C 145.138 1.52093 1.23944 0
M  V30 1403 O 144.263 0.95492 1.94191 0
M  V30 1404 C 144.858 3.36781 -0.369313 0
M  V30 1405 C 143.417 3.76399 -0.00836847 0
M  V30 1406 C 142.564 2.68664 -0.686651 0
M  V30 1407 H 145.515 1.3536 -0.828454 0
M  V30 1408 H 145.536 3.78453 0.394162 0
M  V30 1409 H 145.048 3.61098 -1.42231 0
M  V30 1410 H 143.149 3.57698 1.04322 0
M  V30 1411 H 143.262 4.7732 -0.412584 0
M  V30 1412 H 141.626 2.54404 -0.122777 0
M  V30 1413 H 142.409 2.95815 -1.74208 0
M  V30 1414 N 144.854 0.36279 1.53368 0
M  V30 1415 C 145.784 -0.476976 2.28576 0
M  V30 1416 C 146.765 -1.08631 1.30894 0
M  V30 1417 O 147.95 -1.10409 1.59761 0
M  V30 1418 C 145.08 -1.61828 3.07293 0
M  V30 1419 C 144.034 -1.13633 4.1264 0
M  V30 1420 C 143.36 -2.36766 4.79423 0
M  V30 1421 C 144.66 -0.223061 5.21823 0
M  V30 1422 H 146.354 0.150474 2.99022 0
M  V30 1423 H 143.9 0.0738103 1.43811 0
M  V30 1424 H 145.853 -2.21237 3.58653 0
M  V30 1425 H 144.577 -2.27292 2.34533 0
M  V30 1426 H 143.236 -0.564945 3.62221 0
M  V30 1427 H 142.884 -3.0068 4.03238 0
M  V30 1428 H 142.584 -2.05192 5.50609 0
M  V30 1429 H 144.108 -2.96865 5.33576 0
M  V30 1430 H 145.522 -0.724545 5.68703 0
M  V30 1431 H 143.919 0.001678 6.001 0
M  V30 1432 H 144.989 0.735553 4.79289 0
M  V30 1433 N 146.332 -1.57332 0.0918853 0
M  V30 1434 C 147.242 -2.17368 -0.882505 0
M  V30 1435 C 148.258 -1.14226 -1.31257 0
M  V30 1436 O 149.434 -1.46582 -1.38115 0
M  V30 1437 C 146.499 -2.73962 -2.12476 0
M  V30 1438 C 145.56 -3.92048 -1.7492 0
M  V30 1439 C 144.793 -4.45933 -2.93223 0
M  V30 1440 O 145.016 -3.98764 -4.07852 0
M  V30 1441 O 143.95 -5.36999 -2.71875 0
M  V30 1442 H 147.776 -3.01031 -0.40172 0
M  V30 1443 H 145.361 -1.48813 -0.132291 0
M  V30 1444 H 147.243 -3.10147 -2.85283 0
M  V30 1445 H 145.918 -1.93347 -2.59613 0
M  V30 1446 H 144.825 -3.6068 -0.993025 0
M  V30 1447 H 146.158 -4.74017 -1.32548 0
M  V30 1448 N 147.81 0.181792 -1.56548 0
M  V30 1449 C 149.058 0.89832 -1.81038 0
M  V30 1450 C 149.379 1.83232 -0.667164 0
M  V30 1451 O 148.649 1.93372 0.313673 0
M  V30 1452 H 147.229 0.33471 -0.667816 0
M  V30 1453 H 149.891 0.184116 -1.94028 0
M  V30 1454 H 148.987 1.4815 -2.74696 0
M  V30 1455 N 149.288 1.51039 0.449983 0
M  V30 1456 C 150.218 1.74379 1.55288 0
M  V30 1457 C 151.199 0.593236 1.5942 0
M  V30 1458 O 152.384 0.834625 1.7535 0
M  V30 1459 C 149.514 1.85728 2.93466 0
M  V30 1460 C 148.468 3.01078 3.04197 0
M  V30 1461 C 147.794 2.97595 4.44231 0
M  V30 1462 C 149.094 4.41254 2.7945 0
M  V30 1463 H 150.788 2.66725 1.36008 0
M  V30 1464 H 148.334 1.2835 0.652864 0
M  V30 1465 H 150.287 2.0064 3.70569 0
M  V30 1466 H 149.011 0.900207 3.13949 0
M  V30 1467 H 147.67 2.85851 2.29531 0
M  V30 1468 H 147.318 1.99691 4.61663 0
M  V30 1469 H 147.018 3.75046 4.52343 0
M  V30 1470 H 148.542 3.14583 5.23326 0
M  V30 1471 H 149.956 4.56897 3.46292 0
M  V30 1472 H 148.353 5.20315 2.98985 0
M  V30 1473 H 149.423 4.52164 1.75144 0
M  V30 1474 N 150.766 -0.704594 1.40972 0
M  V30 1475 C 151.991 -1.49858 1.43378 0
M  V30 1476 C 152.416 -1.88061 0.038184 0
M  V30 1477 O 151.774 -1.5402 -0.956425 0
M  V30 1478 C 151.822 -2.74333 2.34038 0
M  V30 1479 O 150.926 -3.7147 1.7912 0
M  V30 1480 H 150.267 -0.45139 0.486974 0
M  V30 1481 H 152.797 -0.866832 1.8533 0
M  V30 1482 H 152.807 -3.22741 2.49604 0
M  V30 1483 H 151.482 -2.45863 3.35446 0
M  V30 1484 H 150.059 -3.30363 1.72958 0
M  V30 1485 N 152.244 -1.26651 -0.937939 0
M  V30 1486 C 153.174 -1.10993 -2.05433 0
M  V30 1487 C 154.155 -0.0142161 -1.70094 0
M  V30 1488 O 155.34 -0.186837 -1.93299 0
M  V30 1489 C 152.47 -0.745561 -3.39203 0
M  V30 1490 C 151.424 -1.79337 -3.88616 0
M  V30 1491 C 150.75 -1.28324 -5.19073 0
M  V30 1492 C 152.05 -3.19553 -4.13138 0
M  V30 1493 H 153.744 -2.0438 -2.1879 0
M  V30 1494 H 151.29 -0.984041 -1.05131 0
M  V30 1495 H 153.243 -0.622888 -4.16771 0
M  V30 1496 H 151.967 0.22401 -3.25831 0
M  V30 1497 H 150.626 -1.90477 -3.13231 0
M  V30 1498 H 150.274 -0.303414 -5.02084 0
M  V30 1499 H 149.974 -1.98369 -5.53103 0
M  V30 1500 H 151.498 -1.1733 -5.99221 0
M  V30 1501 H 152.912 -3.11471 -4.81309 0
M  V30 1502 H 151.309 -3.87218 -4.58457 0
M  V30 1503 H 152.379 -3.65368 -3.18801 0
M  V30 1504 N 153.722 1.14298 -1.08507 0
M  V30 1505 C 154.685 2.17607 -0.719711 0
M  V30 1506 C 155.685 1.58907 0.245997 0
M  V30 1507 O 156.875 1.74181 0.0254081 0
M  V30 1508 C 154.007 3.40842 -0.0627695 0
M  V30 1509 H 155.2 2.51443 -1.63452 0
M  V30 1510 H 152.753 1.28963 -0.88307 0
M  V30 1511 H 153.488 3.12587 0.863716 0
M  V30 1512 H 153.273 3.84713 -0.757504 0
M  V30 1513 H 154.763 4.17221 0.177786 0
M  V30 1514 N 155.201 0.870884 1.31352 0
M  V30 1515 C 156.164 0.332243 2.26779 0
M  V30 1516 C 157.164 -0.517302 1.52252 0
M  V30 1517 O 158.354 -0.326477 1.71113 0
M  V30 1518 C 155.486 -0.528066 3.36785 0
M  V30 1519 H 156.679 1.17469 2.75937 0
M  V30 1520 H 154.232 0.64655 1.423 0
M  V30 1521 H 154.967 -1.39167 2.92922 0
M  V30 1522 H 154.752 0.0802582 3.92018 0
M  V30 1523 H 156.242 -0.897179 4.07849 0
M  V30 1524 N 156.679 -1.44442 0.630414 0
M  V30 1525 C 157.612 -2.27862 -0.124247 0
M  V30 1526 C 158.59 -1.38495 -0.851931 0
M  V30 1527 O 159.774 -1.67935 -0.856166 0
M  V30 1528 C 156.901 -3.17407 -1.18197 0
M  V30 1529 C 155.947 -4.22875 -0.554892 0
M  V30 1530 S 156.78 -5.31485 0.654489 0
M  V30 1531 C 157.936 -6.246 -0.40326 0
M  V30 1532 H 158.169 -2.91519 0.583435 0
M  V30 1533 H 155.702 -1.48618 0.418565 0
M  V30 1534 H 157.66 -3.69549 -1.78728 0
M  V30 1535 H 156.321 -2.52971 -1.86184 0
M  V30 1536 H 155.514 -4.85542 -1.35148 0
M  V30 1537 H 155.116 -3.73992 -0.0242105 0
M  V30 1538 H 157.408 -6.65375 -1.27602 0
M  V30 1539 H 158.351 -7.07851 0.187813 0
M  V30 1540 H 158.759 -5.59775 -0.728837 0
M  V30 1541 N 158.157 -0.370918 -1.53173 0
M  V30 1542 C 159.089 0.507823 -2.23503 0
M  V30 1543 C 160.102 1.04182 -1.251 0
M  V30 1544 O 161.291 0.947286 -1.5129 0
M  V30 1545 C 158.391 1.71447 -2.92334 0
M  V30 1546 C 157.564 1.31105 -4.17289 0
M  V30 1547 C 156.623 2.38035 -4.69282 0
M  V30 1548 O 155.649 2.00204 -5.32829 0
M  V30 1549 N 156.851 3.69697 -4.47554 0
M  V30 1550 H 159.616 -0.0946382 -2.99551 0
M  V30 1551 H 157.177 -0.196358 -1.60705 0
M  V30 1552 H 159.169 2.42469 -3.24023 0
M  V30 1553 H 157.739 2.22368 -2.19707 0
M  V30 1554 H 156.959 0.430462 -3.91843 0
M  V30 1555 H 158.247 1.0179 -4.98514 0
M  V30 1556 H 157.645 4.03205 -3.9679 0
M  V30 1557 H 156.202 4.36807 -4.8378 0
M  V30 1558 N 159.635 1.57281 -0.100228 0
M  V30 1559 C 160.583 2.15542 0.874328 0
M  V30 1560 C 161.577 1.09962 1.28859 0
M  V30 1561 O 162.783 1.28298 1.26252 0
M  V30 1562 H 159.158 0.689567 0.300003 0
M  V30 1563 H 161.129 2.96241 0.35829 0
M  V30 1564 C 159.878 2.75454 2.1218 0
M  V30 1565 H 159.201 3.56384 1.81193 0
M  V30 1566 H 160.641 3.19781 2.78417 0
M  V30 1567 C 159.1 1.71602 2.89921 0
M  V30 1568 O 159.63 1.15804 3.84646 0
M  V30 1569 N 157.836 1.41975 2.53558 0
M  V30 1570 H 157.383 1.87539 1.76598 0
M  V30 1571 H 157.341 0.727274 3.05873 0
M  V30 1572 N 161.113 -0.173488 1.56642 0
M  V30 1573 C 162.359 -0.891784 1.8214 0
M  V30 1574 C 162.692 -1.8199 0.677736 0
M  V30 1575 O 161.967 -1.91842 -0.320446 0
M  V30 1576 C 162.25 -1.68933 3.18015 0
M  V30 1577 C 162.103 -0.784487 4.42906 0
M  V30 1578 C 163.422 -2.65748 3.50808 0
M  V30 1579 H 160.541 -0.322761 0.662567 0
M  V30 1580 H 163.183 -0.158095 1.89341 0
M  V30 1581 H 161.333 -2.31482 3.12007 0
M  V30 1582 H 163.005 -0.172046 4.60979 0
M  V30 1583 H 161.248 -0.0924117 4.33702 0
M  V30 1584 H 161.919 -1.37799 5.34524 0
M  V30 1585 H 164.395 -2.13327 3.57255 0
M  V30 1586 H 163.271 -3.18619 4.4696 0
M  V30 1587 H 163.532 -3.45842 2.75401 0
M  V30 1588 N 162.591 -1.51276 -0.441967 0
M  V30 1589 C 163.838 -1.63715 -1.19179 0
M  V30 1590 C 164.166 -0.351175 -1.91303 0
M  V30 1591 O 163.421 0.664524 -1.84072 0
M  V30 1592 C 163.72 -2.78746 -2.23686 0
M  V30 1593 C 163.386 -4.18189 -1.68607 0
M  V30 1594 C 162.048 -4.56125 -1.53308 0
M  V30 1595 C 164.4 -5.05222 -1.28062 0
M  V30 1596 C 161.728 -5.78804 -0.959317 0
M  V30 1597 C 164.08 -6.28476 -0.721162 0
M  V30 1598 C 162.744 -6.65188 -0.55504 0
M  V30 1599 H 162.014 -0.599076 -0.436106 0
M  V30 1600 H 164.661 -1.85296 -0.48351 0
M  V30 1601 H 162.966 -2.51369 -3.00535 0
M  V30 1602 H 164.663 -2.8557 -2.81515 0
M  V30 1603 H 161.253 -3.88277 -1.8149 0
M  V30 1604 H 165.437 -4.76524 -1.38704 0
M  V30 1605 H 160.693 -6.05899 -0.81833 0
M  V30 1606 H 164.867 -6.95259 -0.398458 0
M  V30 1607 H 162.494 -7.60123 -0.108311 0
M  V30 1608 N 164.069 0.697108 -1.41344 0
M  V30 1609 C 165.346 1.45154 -1.31109 0
M  V30 1610 C 165.726 2.11009 0.0620449 0
M  V30 1611 O 165.074 2.01571 1.07618 0
M  V30 1612 C 165.284 2.47223 -2.46337 0
M  V30 1613 C 166.632 3.1252 -2.87431 0
M  V30 1614 O 167.656 2.57547 -2.46065 0
M  V30 1615 O 166.515 4.12083 -3.58957 0
M  V30 1616 H 163.609 0.646365 -0.515889 0
M  V30 1617 H 166.155 0.727716 -1.53305 0
M  V30 1618 H 164.927 1.97204 -3.37974 0
M  V30 1619 H 164.55 3.27116 -2.2601 0
M  V30 1620 N 165.547 1.27147 0.931209 0
M  V30 1621 C 166.775 1.16082 1.71267 0
M  V30 1622 C 167.19 -0.282772 1.8667 0
M  V30 1623 O 166.547 -1.19283 1.38122 0
M  V30 1624 C 166.598 1.8358 3.11417 0
M  V30 1625 O 166.319 3.22299 2.96741 0
M  V30 1626 C 167.82 1.78597 4.05732 0
M  V30 1627 H 165.04 0.403758 0.535929 0
M  V30 1628 H 167.584 1.67953 1.16671 0
M  V30 1629 H 165.739 1.35623 3.62885 0
M  V30 1630 H 166.153 3.55851 3.85319 0
M  V30 1631 H 167.627 2.30444 5.01597 0
M  V30 1632 H 168.104 0.754564 4.3267 0
M  V30 1633 H 168.71 2.26152 3.60188 0
M  V30 1634 N 167.025 -1.13721 1.09112 0
M  V30 1635 C 167.973 -2.21103 0.722219 0
M  V30 1636 C 168.967 -1.67147 -0.275374 0
M  V30 1637 O 170.173 -1.79477 -0.137176 0
M  V30 1638 H 166.548 -0.720445 0.215553 0
M  V30 1639 H 168.519 -2.49483 1.63709 0
M  V30 1640 C 167.268 -3.47352 0.15543 0
M  V30 1641 H 166.591 -3.89206 0.914246 0
M  V30 1642 H 168.031 -4.2395 -0.0647967 0
M  V30 1643 C 166.49 -3.1814 -1.10852 0
M  V30 1644 O 167.02 -3.36604 -2.19227 0
M  V30 1645 N 165.226 -2.72045 -1.02176 0
M  V30 1646 H 164.773 -2.57221 -0.139764 0
M  V30 1647 H 164.731 -2.52875 -1.8682 0
M  V30 1648 N 168.503 -0.877838 -1.30888 0
M  V30 1649 C 169.75 -0.492696 -1.96415 0
M  V30 1650 C 170.078 0.956671 -1.69346 0
M  V30 1651 O 169.333 1.68993 -0.986913 0
M  V30 1652 C 169.632 -0.705748 -3.50363 0
M  V30 1653 C 169.298 -2.1291 -3.97467 0
M  V30 1654 C 167.96 -2.51834 -4.1004 0
M  V30 1655 C 170.312 -3.05702 -4.22132 0
M  V30 1656 C 167.64 -3.82775 -4.44635 0
M  V30 1657 C 169.992 -4.36166 -4.58194 0
M  V30 1658 C 168.656 -4.74993 -4.68975 0
M  V30 1659 H 167.926 -0.18029 -0.718733 0
M  V30 1660 H 170.573 -1.11233 -1.55883 0
M  V30 1661 H 168.878 -0.00303058 -3.918 0
M  V30 1662 H 170.575 -0.387456 -3.99124 0
M  V30 1663 H 167.165 -1.81694 -3.88182 0
M  V30 1664 H 171.349 -2.76853 -4.11906 0
M  V30 1665 H 166.605 -4.12609 -4.51181 0
M  V30 1666 H 170.779 -5.08111 -4.76231 0
M  V30 1667 H 168.406 -5.76495 -4.95537 0
M  V30 1668 N 169.982 1.44106 -0.638065 0
M  V30 1669 C 171.229 2.01978 -0.14533 0
M  V30 1670 C 171.557 1.50234 1.23532 0
M  V30 1671 O 170.812 0.679548 1.83523 0
M  V30 1672 C 171.111 3.5729 -0.0887327 0
M  V30 1673 C 170.777 4.28317 -1.40909 0
M  V30 1674 C 169.439 4.47437 -1.77069 0
M  V30 1675 C 171.791 4.6867 -2.28031 0
M  V30 1676 C 169.119 5.04171 -3.00047 0
M  V30 1677 C 171.471 5.26766 -3.50286 0
M  V30 1678 C 170.135 5.44104 -3.86661 0
M  V30 1679 H 169.405 0.739089 -0.0531801 0
M  V30 1680 H 172.052 1.72781 -0.825761 0
M  V30 1681 H 170.357 3.8594 0.675095 0
M  V30 1682 H 172.054 3.99807 0.309145 0
M  V30 1683 H 168.644 4.1377 -1.1177 0
M  V30 1684 H 172.828 4.53604 -2.01388 0
M  V30 1685 H 168.084 5.15782 -3.28298 0
M  V30 1686 H 172.258 5.56983 -4.18023 0
M  V30 1687 H 169.885 5.87832 -4.82034 0
M  V30 1688 N 171.46 0.379036 1.52974 0
M  V30 1689 C 172.708 -0.206014 2.01047 0
M  V30 1690 C 173.029 -1.48175 1.26765 0
M  V30 1691 O 172.299 -1.92085 0.384743 0
M  V30 1692 H 170.879 -0.0791184 0.742798 0
M  V30 1693 H 173.541 0.508366 1.88153 0
M  V30 1694 H 172.637 -0.423501 3.09213 0
M  V30 1695 N 172.938 -1.57226 0.108567 0
M  V30 1696 C 173.901 -2.13602 -0.831082 0
M  V30 1697 C 174.901 -1.06841 -1.20173 0
M  V30 1698 O 176.091 -1.32666 -1.12895 0
M  V30 1699 C 173.223 -2.66769 -2.12243 0
M  V30 1700 H 174.416 -2.97951 -0.341317 0
M  V30 1701 H 171.969 -1.55667 -0.14057 0
M  V30 1702 H 172.704 -1.85977 -2.65675 0
M  V30 1703 H 172.489 -3.44839 -1.86625 0
M  V30 1704 H 173.979 -3.10332 -2.79435 0
M  V30 1705 N 174.416 0.165178 -1.56732 0
M  V30 1706 C 175.662 0.882112 -1.82611 0
M  V30 1707 C 175.995 1.81628 -0.687378 0
M  V30 1708 O 175.27 1.92009 0.310267 0
M  V30 1709 C 175.553 1.67245 -3.18906 0
M  V30 1710 C 175.406 0.760987 -4.43316 0
M  V30 1711 C 176.725 2.63884 -3.52212 0
M  V30 1712 H 173.844 0.319242 -0.664269 0
M  V30 1713 H 176.486 0.148052 -1.89422 0
M  V30 1714 H 174.636 2.29824 -3.1323 0
M  V30 1715 H 176.308 0.147596 -4.61064 0
M  V30 1716 H 174.551 0.0694102 -4.33744 0
M  V30 1717 H 175.222 1.34962 -5.35247 0
M  V30 1718 H 177.698 2.11429 -3.58381 0
M  V30 1719 H 176.574 3.16245 -4.48643 0
M  V30 1720 H 176.835 3.44377 -2.77231 0
M  V30 1721 N 175.894 1.51508 0.433938 0
M  V30 1722 C 177.31 1.39759 0.770682 0
M  V30 1723 C 177.51 0.482594 1.95636 0
M  V30 1724 O 176.566 -0.0609691 2.52426 0
M  V30 1725 C 177.879 2.81851 1.04787 0
M  V30 1726 C 179.427 2.91025 1.1521 0
M  V30 1727 C 179.902 4.34032 1.46219 0
M  V30 1728 N 181.393 4.37154 1.53136 0
M  V30 1729 C 182.128 5.4484 1.78709 0
M  V30 1730 N 181.624 6.62682 2.02051 0
M  V30 1731 N 183.417 5.32324 1.80519 0
M  V30 1732 H 175.568 2.09548 -0.346892 0
M  V30 1733 H 177.831 0.943446 -0.0928074 0
M  V30 1734 H 177.537 3.50815 0.249304 0
M  V30 1735 H 177.411 3.21386 1.97461 0
M  V30 1736 H 179.798 2.22257 1.94128 0
M  V30 1737 H 179.879 2.54983 0.204281 0
M  V30 1738 H 179.523 5.03351 0.678274 0
M  V30 1739 H 179.453 4.6759 2.42212 0
M  V30 1740 H 181.944 3.52197 1.36987 0
M  V30 1741 H 182.257 7.40543 2.20943 0
M  V30 1742 H 180.602 6.65791 1.99366 0
M  V30 1743 H 183.793 4.39246 1.61805 0
M  V30 1744 H 183.966 6.16328 2.00111 0
M  V30 1745 N 177.372 -0.689602 1.41712 0
M  V30 1746 C 178.302 -1.81577 1.46806 0
M  V30 1747 C 179.283 -1.66945 0.326105 0
M  V30 1748 O 180.468 -1.86588 0.538377 0
M  V30 1749 C 177.598 -3.19762 1.35535 0
M  V30 1750 C 176.552 -3.49107 2.47605 0
M  V30 1751 C 175.878 -4.86711 2.21397 0
M  V30 1752 C 177.178 -3.47483 3.89939 0
M  V30 1753 H 178.872 -1.7757 2.41058 0
M  V30 1754 H 176.418 -0.852887 1.16025 0
M  V30 1755 H 178.371 -3.98263 1.3771 0
M  V30 1756 H 177.095 -3.24409 0.377708 0
M  V30 1757 H 175.754 -2.72959 2.44722 0
M  V30 1758 H 175.402 -4.8799 1.21961 0
M  V30 1759 H 175.102 -5.0731 2.96497 0
M  V30 1760 H 176.626 -5.67515 2.25297 0
M  V30 1761 H 178.04 -4.1598 3.94505 0
M  V30 1762 H 176.437 -3.79615 4.64771 0
M  V30 1763 H 177.507 -2.46341 4.17665 0
M  V30 1764 N 178.85 -1.27639 -0.924453 0
M  V30 1765 C 180.096 -1.14336 -1.67497 0
M  V30 1766 C 180.429 0.309465 -1.91718 0
M  V30 1767 O 179.704 1.22608 -1.50989 0
M  V30 1768 C 179.987 -1.93096 -3.0395 0
M  V30 1769 C 179.84 -3.46381 -2.8695 0
M  V30 1770 C 181.159 -1.73798 -4.0433 0
M  V30 1771 H 178.278 -0.416728 -0.607871 0
M  V30 1772 H 180.92 -1.56832 -1.07256 0
M  V30 1773 H 179.07 -1.56982 -3.55372 0
M  V30 1774 H 180.742 -3.92343 -2.42621 0
M  V30 1775 H 178.985 -3.72557 -2.22225 0
M  V30 1776 H 179.656 -3.96735 -3.83804 0
M  V30 1777 H 182.132 -2.05293 -3.61931 0
M  V30 1778 H 181.008 -2.31294 -4.97789 0
M  V30 1779 H 181.269 -0.686725 -4.36734 0
M  V30 1780 N 180.328 1.1314 -1.09713 0
M  V30 1781 C 181.275 2.18642 -0.739196 0
M  V30 1782 C 182.245 1.63706 0.280978 0
M  V30 1783 O 183.43 1.90111 0.161946 0
M  V30 1784 C 180.57 3.44685 -0.169102 0
M  V30 1785 C 179.683 4.13711 -1.24367 0
M  V30 1786 C 178.818 5.27379 -0.636019 0
M  V30 1787 C 177.857 5.88259 -1.69169 0
M  V30 1788 N 176.994 6.93352 -1.10485 0
M  V30 1789 H 181.834 2.48607 -1.64312 0
M  V30 1790 H 179.371 1.22066 -0.820875 0
M  V30 1791 H 181.329 4.16815 0.179256 0
M  V30 1792 H 179.959 3.15161 0.698079 0
M  V30 1793 H 179.011 3.39835 -1.70927 0
M  V30 1794 H 180.323 4.55037 -2.04311 0
M  V30 1795 H 179.477 6.06238 -0.236677 0
M  V30 1796 H 178.216 4.8731 0.194928 0
M  V30 1797 H 177.221 5.08092 -2.10055 0
M  V30 1798 H 178.446 6.30399 -2.52536 0
M  V30 1799 H 176.392 6.55335 -0.295234 0
M  V30 1800 H 176.309 7.33236 -1.84121 0
M  V30 1801 H 177.577 7.76057 -0.73181 0
M  V30 1802 N 181.806 0.884767 1.30421 0
M  V30 1803 C 182.769 0.356277 2.26414 0
M  V30 1804 C 183.769 -0.501124 1.52792 0
M  V30 1805 O 184.959 -0.30831 1.7145 0
M  V30 1806 C 182.091 -0.492316 3.37326 0
M  V30 1807 H 183.284 1.20389 2.74675 0
M  V30 1808 H 180.837 0.661607 1.41607 0
M  V30 1809 H 181.572 -1.36052 2.94381 0
M  V30 1810 H 181.357 0.121832 3.91911 0
M  V30 1811 H 182.847 -0.853871 4.08777 0
M  V30 1812 N 183.284 -1.43765 0.645699 0
M  V30 1813 C 184.53 -2.02197 0.156271 0
M  V30 1814 C 184.863 -1.50776 -1.22393 0
M  V30 1815 O 184.138 -0.697771 -1.81553 0
M  V30 1816 C 184.421 -3.59749 0.158872 0
M  V30 1817 C 184.274 -4.21419 1.57245 0
M  V30 1818 C 185.593 -4.37149 -0.50879 0
M  V30 1819 H 182.712 -0.734694 0.0582602 0
M  V30 1820 H 185.354 -1.71157 0.824951 0
M  V30 1821 H 183.504 -3.86325 -0.410525 0
M  V30 1822 H 185.176 -4.059 2.19186 0
M  V30 1823 H 183.419 -3.78356 2.122 0
M  V30 1824 H 184.09 -5.30482 1.52619 0
M  V30 1825 H 186.566 -4.16093 -0.024412 0
M  V30 1826 H 185.442 -5.4683 -0.476213 0
M  V30 1827 H 185.703 -4.12839 -1.58165 0
M  V30 1828 N 184.763 -0.387143 -1.52771 0
M  V30 1829 C 185.693 0.440551 -2.29306 0
M  V30 1830 C 186.674 1.06535 -1.32606 0
M  V30 1831 O 187.859 1.07853 -1.61497 0
M  V30 1832 C 184.989 1.56919 -3.09829 0
M  V30 1833 C 183.943 1.07054 -4.14395 0
M  V30 1834 C 183.269 2.29109 -4.83129 0
M  V30 1835 C 184.569 0.140015 -5.22112 0
M  V30 1836 H 186.263 -0.198026 -2.98744 0
M  V30 1837 H 183.809 -0.09668 -1.43675 0
M  V30 1838 H 185.762 2.15503 -3.62128 0
M  V30 1839 H 184.486 2.23532 -2.3812 0
M  V30 1840 H 183.145 0.507247 -3.63074 0
M  V30 1841 H 182.793 2.94227 -4.0797 0
M  V30 1842 H 182.493 1.96406 -5.53804 0
M  V30 1843 H 184.017 2.88339 -5.38231 0
M  V30 1844 H 185.431 0.633978 -5.69784 0
M  V30 1845 H 183.828 -0.0971485 -6.00021 0
M  V30 1846 H 184.898 -0.811711 -4.78058 0
M  V30 1847 N 186.241 1.57166 -0.116904 0
M  V30 1848 C 187.652 1.82169 0.408809 0
M  V30 1849 C 188.003 1.03393 1.66746 0
M  V30 1850 O 187.128 0.269886 2.1471 0
M  V30 1851 C 187.723 3.30429 0.748466 0
M  V30 1852 C 186.282 3.5612 1.21882 0
M  V30 1853 C 185.429 2.76374 0.226452 0
M  V30 1854 H 188.38 1.5497 -0.342063 0
M  V30 1855 H 188.401 3.44943 1.60607 0
M  V30 1856 H 187.913 3.87737 -0.167784 0
M  V30 1857 H 186.014 3.04168 2.15204 0
M  V30 1858 H 186.127 4.64705 1.16559 0
M  V30 1859 H 184.491 2.44515 0.713063 0
M  V30 1860 H 185.274 3.3644 -0.682859 0
M  V30 1861 N 187.719 -0.156864 1.56817 0
M  V30 1862 C 188.967 -0.869404 1.82444 0
M  V30 1863 C 189.288 -1.82147 0.69623 0
M  V30 1864 O 188.558 -1.93847 -0.28287 0
M  V30 1865 H 187.138 -0.324043 0.673056 0
M  V30 1866 H 189.8 -0.153224 1.94297 0
M  V30 1867 H 188.896 -1.43761 2.77019 0
M  V30 1868 N 189.197 -1.51736 -0.425897 0
M  V30 1869 C 190.13 -1.68574 -1.53812 0
M  V30 1870 C 191.108 -0.53328 -1.53606 0
M  V30 1871 O 192.292 -0.758555 -1.72564 0
M  V30 1872 C 189.419 -1.70977 -2.92377 0
M  V30 1873 C 188.465 -2.92324 -3.10563 0
M  V30 1874 S 189.298 -4.52952 -2.85648 0
M  V30 1875 C 190.454 -4.58117 -4.26474 0
M  V30 1876 H 190.687 -2.62647 -1.39298 0
M  V30 1877 H 188.22 -1.41564 -0.616361 0
M  V30 1878 H 190.178 -1.73047 -3.72243 0
M  V30 1879 H 188.839 -0.78061 -3.04245 0
M  V30 1880 H 188.032 -2.90439 -4.11899 0
M  V30 1881 H 187.634 -2.88055 -2.38538 0
M  V30 1882 H 189.926 -4.34462 -5.19855 0
M  V30 1883 H 190.869 -5.59983 -4.33388 0
M  V30 1884 H 191.277 -3.8732 -4.10662 0
M  V30 1885 N 190.675 0.682077 -1.42076 0
M  V30 1886 C 191.622 1.79578 -1.44984 0
M  V30 1887 C 192.592 1.6332 -0.302614 0
M  V30 1888 O 193.777 1.83978 -0.505633 0
M  V30 1889 C 190.917 3.1756 -1.35091 0
M  V30 1890 C 190.03 3.45156 -2.59791 0
M  V30 1891 C 189.165 4.72826 -2.42093 0
M  V30 1892 C 188.204 4.93433 -3.62202 0
M  V30 1893 N 187.341 6.12338 -3.43491 0
M  V30 1894 H 192.181 1.76427 -2.40161 0
M  V30 1895 H 189.718 0.861376 -1.19242 0
M  V30 1896 H 191.676 3.97287 -1.27354 0
M  V30 1897 H 190.306 3.19854 -0.435133 0
M  V30 1898 H 189.358 2.59736 -2.77923 0
M  V30 1899 H 190.67 3.5628 -3.49094 0
M  V30 1900 H 189.824 5.60631 -2.319 0
M  V30 1901 H 188.563 4.63973 -1.50268 0
M  V30 1902 H 187.568 4.04073 -3.72834 0
M  V30 1903 H 188.793 5.04136 -4.54998 0
M  V30 1904 H 186.739 6.04672 -2.54377 0
M  V30 1905 H 186.656 6.2429 -4.26377 0
M  V30 1906 H 187.924 7.02841 -3.37097 0
M  V30 1907 N 192.153 1.28127 0.917671 0
M  V30 1908 C 193.569 1.05749 1.19538 0
M  V30 1909 C 193.769 -0.202633 2.00479 0
M  V30 1910 O 192.825 -0.905382 2.3571 0
M  V30 1911 C 194.138 2.30273 1.93378 0
M  V30 1912 C 195.686 2.35412 2.06277 0
M  V30 1913 C 196.161 3.59692 2.83524 0
M  V30 1914 N 197.652 3.60309 2.91087 0
M  V30 1915 C 198.387 4.53147 3.51348 0
M  V30 1916 N 197.883 5.563 4.12919 0
M  V30 1917 N 199.676 4.40751 3.48849 0
M  V30 1918 H 191.827 2.09024 0.377184 0
M  V30 1919 H 194.09 0.919798 0.22951 0
M  V30 1920 H 193.796 3.22055 1.41328 0
M  V30 1921 H 193.67 2.36378 2.93947 0
M  V30 1922 H 196.057 1.4413 2.57508 0
M  V30 1923 H 196.138 2.33304 1.04895 0
M  V30 1924 H 195.782 4.51316 2.32973 0
M  V30 1925 H 195.712 3.59054 3.85211 0
M  V30 1926 H 198.203 2.85714 2.47338 0
M  V30 1927 H 198.516 6.2329 4.56869 0
M  V30 1928 H 196.861 5.60131 4.11435 0
M  V30 1929 H 200.052 3.59367 2.99955 0
M  V30 1930 H 200.225 5.13291 3.9552 0
M  V30 1931 N 193.631 -1.12557 1.10312 0
M  V30 1932 C 195.047 -1.36036 0.834649 0
M  V30 1933 C 195.247 -1.93946 -0.546539 0
M  V30 1934 O 194.303 -2.16484 -1.29966 0
M  V30 1935 C 195.616 -2.30312 1.9333 0
M  V30 1936 C 197.164 -2.43906 1.9616 0
M  V30 1937 C 197.639 -3.41496 3.05195 0
M  V30 1938 N 199.13 -3.49053 3.04494 0
M  V30 1939 C 199.865 -4.24471 3.85502 0
M  V30 1940 N 199.361 -5.02966 4.76442 0
M  V30 1941 N 201.154 -4.19864 3.73725 0
M  V30 1942 H 193.305 -0.733246 1.99342 0
M  V30 1943 H 195.568 -0.385234 0.866198 0
M  V30 1944 H 195.274 -1.94933 2.92735 0
M  V30 1945 H 195.148 -3.30421 1.81939 0
M  V30 1946 H 197.535 -2.78567 0.973886 0
M  V30 1947 H 197.616 -1.4369 2.11629 0
M  V30 1948 H 197.26 -3.07565 4.04186 0
M  V30 1949 H 197.19 -4.41539 2.86968 0
M  V30 1950 H 199.681 -2.93053 2.38596 0
M  V30 1951 H 199.994 -5.57846 5.34815 0
M  V30 1952 H 198.339 -5.02167 4.80472 0
M  V30 1953 H 201.53 -3.57623 3.02032 0
M  V30 1954 H 201.703 -4.78386 4.37093 0
M  V30 1955 N 195.109 -0.891671 -1.2995 0
M  V30 1956 C 196.525 -0.58662 -1.48428 0
M  V30 1957 C 196.725 0.873951 -1.81561 0
M  V30 1958 O 195.781 1.65471 -1.90724 0
M  V30 1959 C 197.094 -1.50553 -2.60296 0
M  V30 1960 C 198.642 -1.50988 -2.74175 0
M  V30 1961 C 199.117 -2.41488 -3.89163 0
M  V30 1962 N 200.608 -2.39489 -3.96483 0
M  V30 1963 C 201.343 -3.06223 -4.84784 0
M  V30 1964 N 200.839 -3.82206 -5.77833 0
M  V30 1965 N 202.632 -2.95421 -4.78208 0
M  V30 1966 H 194.783 -1.83644 -1.06718 0
M  V30 1967 H 197.046 -0.786455 -0.529332 0
M  V30 1968 H 196.752 -2.54581 -2.42654 0
M  V30 1969 H 196.626 -1.22008 -3.56923 0
M  V30 1970 H 199.013 -0.47708 -2.91218 0
M  V30 1971 H 199.094 -1.83567 -1.78148 0
M  V30 1972 H 198.738 -3.44857 -3.72876 0
M  V30 1973 H 198.668 -2.06222 -4.84541 0
M  V30 1974 H 201.159 -1.84278 -3.29924 0
M  V30 1975 H 201.472 -4.302 -6.41988 0
M  V30 1976 H 199.817 -3.86313 -5.77743 0
M  V30 1977 H 203.008 -2.35581 -4.04499 0
M  V30 1978 H 203.181 -3.47704 -5.46814 0
M  V30 1979 N 196.587 1.43421 -0.653314 0
M  V30 1980 C 197.519 2.29071 0.0769134 0
M  V30 1981 C 198.532 1.42513 0.787017 0
M  V30 1982 O 199.721 1.66449 0.644757 0
M  V30 1983 C 196.821 3.19436 1.13199 0
M  V30 1984 C 195.994 4.34533 0.500006 0
M  V30 1985 C 195.053 5.05771 1.45198 0
M  V30 1986 O 194.079 5.61037 0.960538 0
M  V30 1987 N 195.281 5.0928 2.78594 0
M  V30 1988 H 198.046 2.92382 -0.658235 0
M  V30 1989 H 195.607 1.54112 -0.496104 0
M  V30 1990 H 197.599 3.63958 1.76964 0
M  V30 1991 H 196.169 2.57724 1.7691 0
M  V30 1992 H 195.389 3.92925 -0.316738 0
M  V30 1993 H 196.677 5.08766 0.0588345 0
M  V30 1994 H 196.075 4.65751 3.2108 0
M  V30 1995 H 194.632 5.57519 3.37662 0
M  V30 1996 N 198.065 0.39524 1.52563 0
M  V30 1997 C 199.313 -0.184678 2.01254 0
M  V30 1998 C 199.634 -1.46822 1.28329 0
M  V30 1999 O 198.904 -1.91666 0.405094 0
M  V30 2000 H 197.484 -0.0712355 0.743596 0
M  V30 2001 H 200.146 0.528293 1.87603 0
M  V30 2002 H 199.242 -0.390681 3.09645 0
M  V30 2003 N 199.544 -1.57102 0.125237 0
M  V30 2004 C 200.494 -2.12202 -0.833936 0
M  V30 2005 C 201.478 -1.04433 -1.22403 0
M  V30 2006 O 202.67 -1.30655 -1.19408 0
M  V30 2007 C 199.799 -2.72994 -2.08157 0
M  V30 2008 C 198.885 -3.87852 -1.71556 0
M  V30 2009 N 199.276 -4.9464 -1.05662 0
M  V30 2010 C 197.574 -3.98153 -2.00973 0
M  V30 2011 C 198.275 -5.74953 -0.883376 0
M  V30 2012 N 197.251 -5.24985 -1.41036 0
M  V30 2013 H 201.053 -2.92141 -0.321035 0
M  V30 2014 H 198.567 -1.62217 -0.0770315 0
M  V30 2015 H 200.564 -3.10816 -2.77847 0
M  V30 2016 H 199.224 -1.9452 -2.59985 0
M  V30 2017 H 200.235 -5.12872 -0.719878 0
M  V30 2018 H 196.912 -3.30728 -2.54804 0
M  V30 2019 H 198.302 -6.70904 -0.365675 0
M  V30 2020 N 201.022 0.148545 -1.56898 0
M  V30 2021 C 202.271 0.85984 -1.82454 0
M  V30 2022 C 202.584 1.82406 -0.706229 0
M  V30 2023 O 203.79 2.57938 -0.847349 0
M  V30 2024 C 202.246 1.57967 -3.2338 0
M  V30 2025 C 201.854 0.65794 -4.43142 0
M  V30 2026 C 203.598 2.27784 -3.58211 0
M  V30 2027 C 201.505 1.3793 -5.75091 0
M  V30 2028 H 200.435 0.324834 -0.68044 0
M  V30 2029 H 203.086 0.112588 -1.83154 0
M  V30 2030 H 201.468 2.37249 -3.17063 0
M  V30 2031 H 202.642 -0.0995497 -4.60692 0
M  V30 2032 H 200.957 0.0682643 -4.16344 0
M  V30 2033 H 203.554 2.8239 -4.54048 0
M  V30 2034 H 203.897 3.04204 -2.84193 0
M  V30 2035 H 204.43 1.55421 -3.66182 0
M  V30 2036 H 201.169 0.656982 -6.52199 0
M  V30 2037 H 200.689 2.10954 -5.61479 0
M  V30 2038 H 202.368 1.92063 -6.17835 0
M  V30 2039 N 202.5 1.5196 0.417844 0
M  V30 2040 C 203.746 1.65836 1.16732 0
M  V30 2041 C 204.079 0.382881 1.90388 0
M  V30 2042 O 203.354 -0.618368 1.84408 0
M  V30 2043 C 203.637 2.87466 2.16876 0
M  V30 2044 C 203.49 4.25041 1.47174 0
M  V30 2045 C 204.809 3.04613 3.17646 0
M  V30 2046 H 201.928 0.603515 0.423011 0
M  V30 2047 H 204.57 1.84494 0.454105 0
M  V30 2048 H 202.72 2.71689 2.777 0
M  V30 2049 H 204.392 4.52527 0.895376 0
M  V30 2050 H 202.635 4.26843 0.773806 0
M  V30 2051 H 203.306 5.06176 2.20204 0
M  V30 2052 H 205.782 3.1923 2.66892 0
M  V30 2053 H 204.658 3.91247 3.8499 0
M  V30 2054 H 204.919 2.17541 3.84874 0
M  V30 2055 N 203.978 -0.674533 1.42435 0
M  V30 2056 C 205.224 -1.43671 1.43131 0
M  V30 2057 C 205.557 -1.94142 0.0476021 0
M  V30 2058 O 204.832 -1.70924 -0.928188 0
M  V30 2059 C 205.115 -2.63355 2.45594 0
M  V30 2060 C 204.968 -2.18514 3.93156 0
M  V30 2061 C 206.287 -3.65571 2.45043 0
M  V30 2062 H 203.406 -0.521077 0.521198 0
M  V30 2063 H 206.048 -0.766551 1.7385 0
M  V30 2064 H 204.198 -3.2053 2.19528 0
M  V30 2065 H 205.87 -1.66504 4.30202 0
M  V30 2066 H 204.113 -1.50086 4.07009 0
M  V30 2067 H 204.784 -3.04484 4.60428 0
M  V30 2068 H 207.26 -3.18113 2.68223 0
M  V30 2069 H 206.136 -4.46893 3.18713 0
M  V30 2070 H 206.397 -4.16716 1.47649 0
M  V30 2071 N 205.456 -1.28612 -0.910864 0
M  V30 2072 C 206.705 -1.15311 -1.65488 0
M  V30 2073 C 207.018 0.296999 -1.93332 0
M  V30 2074 O 208.224 0.551168 -2.65847 0
M  V30 2075 C 206.68 -2.01599 -2.98137 0
M  V30 2076 C 206.288 -3.51367 -2.7793 0
M  V30 2077 C 208.032 -1.96993 -3.76024 0
M  V30 2078 C 205.939 -4.29797 -4.06237 0
M  V30 2079 H 204.869 -0.42796 -0.620779 0
M  V30 2080 H 207.52 -1.53166 -1.01057 0
M  V30 2081 H 205.902 -1.56603 -3.63719 0
M  V30 2082 H 207.076 -4.0434 -2.21011 0
M  V30 2083 H 205.391 -3.57529 -2.13452 0
M  V30 2084 H 207.988 -2.52856 -4.71135 0
M  V30 2085 H 208.331 -0.94733 -4.05378 0
M  V30 2086 H 208.864 -2.39973 -3.17266 0
M  V30 2087 H 205.603 -5.32648 -3.82055 0
M  V30 2088 H 205.123 -3.81596 -4.62757 0
M  V30 2089 H 206.802 -4.39869 -4.74473 0
M  V30 2090 N 206.934 1.1197 -1.10907 0
M  V30 2091 C 208.159 1.87942 -0.877064 0
M  V30 2092 C 208.584 1.79341 0.567314 0
M  V30 2093 O 207.942 1.15184 1.40009 0
M  V30 2094 C 207.99 3.34926 -1.33629 0
M  V30 2095 O 207.094 4.09303 -0.504447 0
M  V30 2096 H 206.435 0.583785 -0.316371 0
M  V30 2097 H 208.965 1.4157 -1.47712 0
M  V30 2098 H 208.975 3.8577 -1.32837 0
M  V30 2099 H 207.65 3.40504 -2.3881 0
M  V30 2100 H 206.227 3.68393 -0.577993 0
M  V30 2101 N 208.412 0.89855 1.29475 0
M  V30 2102 C 209.637 0.538561 2.00285 0
M  V30 2103 C 210.062 -0.869135 1.66816 0
M  V30 2104 O 209.42 -1.57831 0.892145 0
M  V30 2105 C 209.468 0.736475 3.52999 0
M  V30 2106 O 208.572 -0.211537 4.11857 0
M  V30 2107 H 207.913 0.210563 0.62973 0
M  V30 2108 H 210.443 1.20982 1.64998 0
M  V30 2109 H 210.453 0.640685 4.02938 0
M  V30 2110 H 209.128 1.76276 3.76696 0
M  V30 2111 H 207.705 -0.0682991 3.72837 0
M  V30 2112 N 209.89 -1.43072 0.660911 0
M  V30 2113 C 211.136 -2.0202 0.177708 0
M  V30 2114 C 211.469 -1.52066 -1.20787 0
M  V30 2115 O 210.744 -0.716987 -1.80802 0
M  V30 2116 C 211.027 -3.59561 0.197019 0
M  V30 2117 C 210.88 -4.19727 1.61706 0
M  V30 2118 C 212.199 -4.37664 -0.462396 0
M  V30 2119 H 209.318 -0.734034 0.0660494 0
M  V30 2120 H 211.96 -1.70272 0.843058 0
M  V30 2121 H 210.11 -3.86739 -0.369527 0
M  V30 2122 H 211.782 -4.03553 2.23479 0
M  V30 2123 H 210.025 -3.76084 2.16201 0
M  V30 2124 H 210.696 -5.28834 1.58237 0
M  V30 2125 H 213.172 -4.16095 0.0197215 0
M  V30 2126 H 212.048 -5.47305 -0.418188 0
M  V30 2127 H 212.309 -4.14493 -1.53778 0
M  V30 2128 N 211.368 -0.403325 -1.52352 0
M  V30 2129 C 212.301 0.469463 -2.23319 0
M  V30 2130 C 213.279 1.05272 -1.23922 0
M  V30 2131 O 214.463 1.10169 -1.52954 0
M  V30 2132 C 211.59 1.6511 -2.9573 0
M  V30 2133 C 210.636 1.19178 -4.0951 0
M  V30 2134 S 211.469 0.161718 -5.35256 0
M  V30 2135 C 212.625 1.34882 -6.11194 0
M  V30 2136 H 212.858 -0.133134 -2.97002 0
M  V30 2137 H 210.391 -0.187588 -1.53256 0
M  V30 2138 H 212.349 2.3287 -3.38056 0
M  V30 2139 H 211.01 2.22503 -2.21701 0
M  V30 2140 H 210.203 2.07444 -4.59329 0
M  V30 2141 H 209.805 0.592911 -3.6927 0
M  V30 2142 H 212.097 2.27345 -6.38217 0
M  V30 2143 H 213.04 0.89128 -7.02468 0
M  V30 2144 H 213.448 1.57198 -5.42171 0
M  V30 2145 N 212.846 1.57033 -0.133567 0
M  V30 2146 C 214.094 1.953 0.519848 0
M  V30 2147 C 214.415 1.01866 1.66278 0
M  V30 2148 O 213.685 0.0776513 1.95746 0
M  V30 2149 H 212.265 0.721091 0.195032 0
M  V30 2150 H 214.927 1.93809 -0.205921 0
M  V30 2151 H 214.023 2.98695 0.904854 0
M  V30 2152 N 214.325 -0.140222 1.56975 0
M  V30 2153 C 215.255 -1.17456 2.01808 0
M  V30 2154 C 216.236 -1.44415 0.898794 0
M  V30 2155 O 217.421 -1.5522 1.16707 0
M  V30 2156 C 214.551 -2.50607 2.40444 0
M  V30 2157 C 213.505 -2.38155 3.55621 0
M  V30 2158 C 212.831 -3.76078 3.80091 0
M  V30 2159 C 214.131 -1.85991 4.88062 0
M  V30 2160 H 215.825 -0.801743 2.88466 0
M  V30 2161 H 213.371 -0.38422 1.38779 0
M  V30 2162 H 215.324 -3.23197 2.7041 0
M  V30 2163 H 214.048 -2.89737 1.50732 0
M  V30 2164 H 212.707 -1.68016 3.25832 0
M  V30 2165 H 212.355 -4.12656 2.87618 0
M  V30 2166 H 212.055 -3.68606 4.57606 0
M  V30 2167 H 213.579 -4.50206 4.12488 0
M  V30 2168 H 214.993 -2.4838 5.16701 0
M  V30 2169 H 213.39 -1.89393 5.6943 0
M  V30 2170 H 214.46 -0.816023 4.77984 0
M  V30 2171 N 215.803 -1.52179 -0.40978 0
M  V30 2172 C 216.735 -1.71703 -1.51825 0
M  V30 2173 C 217.748 -0.597445 -1.51441 0
M  V30 2174 O 218.937 -0.872582 -1.55719 0
M  V30 2175 C 216.037 -1.74171 -2.90719 0
M  V30 2176 C 215.21 -3.03156 -3.15302 0
M  V30 2177 C 214.269 -2.97445 -4.34065 0
M  V30 2178 O 213.295 -3.71352 -4.31377 0
M  V30 2179 N 214.497 -2.15191 -5.39141 0
M  V30 2180 H 217.262 -2.67334 -1.35472 0
M  V30 2181 H 214.823 -1.50409 -0.599069 0
M  V30 2182 H 216.815 -1.67884 -3.68235 0
M  V30 2183 H 215.385 -0.860166 -3.00533 0
M  V30 2184 H 214.605 -3.23097 -2.25836 0
M  V30 2185 H 215.893 -3.88484 -3.28569 0
M  V30 2186 H 215.291 -1.54573 -5.44173 0
M  V30 2187 H 213.848 -2.1476 -6.15403 0
M  V30 2188 N 217.281 0.66697 -1.42791 0
M  V30 2189 C 218.529 1.42417 -1.43394 0
M  V30 2190 C 218.85 1.94925 -0.0542373 0
M  V30 2191 O 218.12 1.73564 0.908415 0
M  V30 2192 H 216.7 0.528515 -0.527902 0
M  V30 2193 H 219.362 0.787562 -1.78279 0
M  V30 2194 H 218.458 2.27333 -2.13837 0
M  V30 2195 N 218.759 1.29093 0.90403 0
M  V30 2196 C 220.005 1.16986 1.65656 0
M  V30 2197 C 220.338 -0.278925 1.92186 0
M  V30 2198 O 219.613 -1.2019 1.5292 0
M  V30 2199 C 219.896 1.97908 3.0084 0
M  V30 2200 C 219.749 3.50903 2.81403 0
M  V30 2201 C 221.068 1.80208 4.01513 0
M  V30 2202 H 218.187 0.426346 0.601164 0
M  V30 2203 H 220.829 1.58518 1.04747 0
M  V30 2204 H 218.979 1.62616 3.52829 0
M  V30 2205 H 220.651 3.96153 2.36348 0
M  V30 2206 H 218.894 3.76045 2.1627 0
M  V30 2207 H 219.565 4.02791 3.77443 0
M  V30 2208 H 222.041 2.11025 3.58619 0
M  V30 2209 H 220.917 2.39184 4.94047 0
M  V30 2210 H 221.178 0.756119 4.35586 0
M  V30 2211 N 220.237 -1.11381 1.11499 0
M  V30 2212 C 221.486 -1.82494 0.858993 0
M  V30 2213 C 221.799 -1.85605 -0.617278 0
M  V30 2214 O 223.005 -2.52824 -0.989552 0
M  V30 2215 C 221.461 -3.27745 1.48699 0
M  V30 2216 C 221.069 -3.32961 2.99735 0
M  V30 2217 C 222.813 -4.03754 1.31085 0
M  V30 2218 C 220.72 -4.72612 3.55516 0
M  V30 2219 H 219.65 -0.683802 0.317696 0
M  V30 2220 H 222.301 -1.25331 1.34031 0
M  V30 2221 H 220.683 -3.84844 0.933339 0
M  V30 2222 H 221.857 -2.85741 3.61509 0
M  V30 2223 H 220.172 -2.70433 3.16631 0
M  V30 2224 H 222.769 -5.06891 1.70192 0
M  V30 2225 H 223.112 -4.15527 0.253496 0
M  V30 2226 H 223.645 -3.53043 1.83318 0
M  V30 2227 H 220.384 -4.66036 4.60967 0
M  V30 2228 H 219.904 -5.2024 2.98513 0
M  V30 2229 H 221.583 -5.4157 3.53992 0
M  V30 2230 N 221.715 -0.905404 -1.28997 0
M  V30 2231 C 222.962 -0.534248 -1.95325 0
M  V30 2232 C 223.29 0.920535 -1.71337 0
M  V30 2233 O 222.545 1.66861 -1.02254 0
M  V30 2234 C 222.844 -0.779906 -3.48787 0
M  V30 2235 C 222.51 -2.21293 -3.92861 0
M  V30 2236 C 221.172 -2.60475 -4.04606 0
M  V30 2237 C 223.524 -3.14587 -4.15553 0
M  V30 2238 C 220.852 -3.9212 -4.36416 0
M  V30 2239 C 223.204 -4.45787 -4.48839 0
M  V30 2240 C 221.868 -4.84834 -4.58794 0
M  V30 2241 H 221.138 -0.195495 -0.714747 0
M  V30 2242 H 223.785 -1.14514 -1.53488 0
M  V30 2243 H 222.09 -0.0861365 -3.91705 0
M  V30 2244 H 223.787 -0.472029 -3.98212 0
M  V30 2245 H 220.377 -1.89887 -3.84241 0
M  V30 2246 H 224.561 -2.85528 -4.0594 0
M  V30 2247 H 219.817 -4.22086 -4.42327 0
M  V30 2248 H 223.991 -5.18098 -4.65346 0
M  V30 2249 H 221.618 -5.86877 -4.83197 0
M  V30 2250 N 223.193 1.4272 -0.668489 0
M  V30 2251 C 224.141 2.32586 0.0254857 0
M  V30 2252 C 225.135 1.49471 0.797176 0
M  V30 2253 O 226.341 1.65583 0.705853 0
M  V30 2254 H 222.716 0.751514 0.0270339 0
M  V30 2255 H 224.687 2.88823 -0.749936 0
M  V30 2256 C 223.436 3.3397 0.967427 0
M  V30 2257 H 222.759 3.97961 0.383048 0
M  V30 2258 H 224.199 3.9945 1.42181 0
M  V30 2259 C 222.658 2.65744 2.0708 0
M  V30 2260 O 223.188 2.48454 3.15648 0
M  V30 2261 N 221.394 2.2487 1.8407 0
M  V30 2262 H 220.941 2.39132 0.95778 0
M  V30 2263 H 220.899 1.79552 2.58086 0
M  V30 2264 N 224.671 0.411399 1.52136 0
M  V30 2265 C 225.948 -0.222308 1.94333 0
M  V30 2266 C 226.328 -1.6242 1.34844 0
M  V30 2267 O 225.676 -2.22384 0.525145 0
M  V30 2268 C 225.886 -0.226345 3.48265 0
M  V30 2269 C 227.234 -0.444592 4.22266 0
M  V30 2270 O 228.258 -0.305602 3.54887 0
M  V30 2271 O 227.117 -0.718749 5.41753 0
M  V30 2272 H 224.211 -0.143907 0.814383 0
M  V30 2273 H 226.757 0.467506 1.63133 0
M  V30 2274 H 225.529 0.75475 3.83952 0
M  V30 2275 H 225.152 -0.960163 3.85832 0
M  V30 2276 N 226.149 -1.5696 0.141893 0
M  V30 2277 C 227.395 -1.9625 -0.511248 0
M  V30 2278 C 227.728 -1.02654 -1.64851 0
M  V30 2279 O 227.003 -0.0679676 -1.94381 0
M  V30 2280 C 227.286 -3.45285 -1.02227 0
M  V30 2281 C 227.139 -4.49658 0.113138 0
M  V30 2282 C 228.458 -3.96698 -1.90574 0
M  V30 2283 H 225.577 -0.713567 -0.184367 0
M  V30 2284 H 228.219 -1.88698 0.222087 0
M  V30 2285 H 226.369 -3.51852 -1.64719 0
M  V30 2286 H 228.041 -4.55174 0.749302 0
M  V30 2287 H 226.284 -4.26857 0.773026 0
M  V30 2288 H 226.955 -5.51258 -0.286053 0
M  V30 2289 H 229.431 -3.92578 -1.37918 0
M  V30 2290 H 228.307 -5.01453 -2.2324 0
M  V30 2291 H 228.568 -3.3875 -2.84079 0
M  V30 2292 N 227.627 0.131896 -1.57047 0
M  V30 2293 C 228.857 0.855219 -1.88068 0
M  V30 2294 C 229.265 1.74557 -0.729817 0
M  V30 2295 O 228.608 1.81083 0.308962 0
M  V30 2296 C 228.67 1.75119 -3.13964 0
M  V30 2297 C 228.334 1.03646 -4.45091 0
M  V30 2298 C 229.331 0.383276 -5.18485 0
M  V30 2299 C 227.016 1.02148 -4.91804 0
M  V30 2300 C 229.01 -0.275347 -6.36805 0
M  V30 2301 C 226.697 0.359047 -6.10044 0
M  V30 2302 C 227.695 -0.288222 -6.82392 0
M  V30 2303 O 227.383 -0.94011 -7.98384 0
M  V30 2304 H 227.115 0.251864 -0.627328 0
M  V30 2305 H 229.669 0.124782 -2.05021 0
M  V30 2306 H 227.899 2.52295 -2.9306 0
M  V30 2307 H 229.588 2.3478 -3.31109 0
M  V30 2308 H 230.354 0.386562 -4.83457 0
M  V30 2309 H 226.233 1.5147 -4.35405 0
M  V30 2310 H 229.777 -0.781148 -6.93213 0
M  V30 2311 H 225.674 0.35348 -6.44531 0
M  V30 2312 H 226.442 -0.84329 -8.14144 0
M  V30 2313 N 229.106 1.52395 0.401703 0
M  V30 2314 C 230.069 1.75636 1.47257 0
M  V30 2315 C 231.069 0.62628 1.48103 0
M  V30 2316 O 232.259 0.894227 1.49497 0
M  V30 2317 C 229.391 1.84553 2.86624 0
M  V30 2318 H 230.584 2.71241 1.27938 0
M  V30 2319 H 228.137 1.42923 0.632662 0
M  V30 2320 H 228.872 0.908882 3.11303 0
M  V30 2321 H 228.657 2.66715 2.87412 0
M  V30 2322 H 230.147 2.04251 3.64241 0
M  V30 2323 N 230.584 -0.659388 1.43143 0
M  V30 2324 C 231.547 -1.75432 1.47501 0
M  V30 2325 C 232.547 -1.56707 0.360512 0
M  V30 2326 O 233.737 -1.62717 0.622002 0
M  V30 2327 C 230.869 -3.14239 1.32162 0
M  V30 2328 H 232.062 -1.7295 2.45006 0
M  V30 2329 H 229.615 -0.870469 1.29817 0
M  V30 2330 H 230.35 -3.22336 0.356401 0
M  V30 2331 H 230.135 -3.29235 2.12948 0
M  V30 2332 H 231.625 -3.94094 1.3813 0
M  V30 2333 N 232.062 -1.29571 -0.897171 0
M  V30 2334 C 233.287 -1.20705 -1.68656 0
M  V30 2335 C 233.712 0.228582 -1.86706 0
M  V30 2336 O 233.07 1.16494 -1.3892 0
M  V30 2337 C 233.118 -1.9282 -3.04717 0
M  V30 2338 O 232.222 -1.24697 -3.93096 0
M  V30 2339 H 231.563 -0.418126 -0.515816 0
M  V30 2340 H 234.093 -1.71183 -1.12061 0
M  V30 2341 H 234.103 -2.01372 -3.54843 0
M  V30 2342 H 232.778 -2.97239 -2.90899 0
M  V30 2343 H 231.355 -1.2442 -3.51531 0
M  V30 2344 N 233.54 1.10788 -1.12088 0
M  V30 2345 C 234.487 2.17025 -0.785407 0
M  V30 2346 C 235.457 1.64265 0.246191 0
M  V30 2347 O 236.642 1.90412 0.121584 0
M  V30 2348 C 233.782 3.44249 -0.242177 0
M  V30 2349 C 232.895 4.1098 -1.33115 0
M  V30 2350 C 232.03 5.25911 -0.747741 0
M  V30 2351 C 231.069 5.84538 -1.81609 0
M  V30 2352 N 230.206 6.90853 -1.25167 0
M  V30 2353 H 235.046 2.45066 -1.69548 0
M  V30 2354 H 232.583 1.20297 -0.846582 0
M  V30 2355 H 234.541 4.17101 0.0908026 0
M  V30 2356 H 233.171 3.16571 0.631072 0
M  V30 2357 H 232.223 3.36133 -1.78097 0
M  V30 2358 H 233.535 4.50601 -2.13917 0
M  V30 2359 H 232.689 6.056 -0.365216 0
M  V30 2360 H 231.428 4.87614 0.0915188 0
M  V30 2361 H 230.433 5.03522 -2.20785 0
M  V30 2362 H 231.658 6.249 -2.6585 0
M  V30 2363 H 229.604 6.54562 -0.434174 0
M  V30 2364 H 229.521 7.29166 -1.99633 0
M  V30 2365 H 230.789 7.7433 -0.896259 0
M  V30 2366 N 235.018 0.912232 1.28515 0
M  V30 2367 C 236.265 0.544599 1.95039 0
M  V30 2368 C 236.593 -0.911435 1.71823 0
M  V30 2369 O 235.848 -1.66317 1.03137 0
M  V30 2370 C 236.147 0.798392 3.48368 0
M  V30 2371 C 235.813 2.23374 3.91682 0
M  V30 2372 C 234.475 2.62617 4.03219 0
M  V30 2373 C 236.827 3.16786 4.13879 0
M  V30 2374 C 234.155 3.94429 4.3433 0
M  V30 2375 C 236.507 4.48161 4.46469 0
M  V30 2376 C 235.171 4.8726 4.56217 0
M  V30 2377 H 234.441 0.199283 0.7137 0
M  V30 2378 H 237.088 1.15327 1.52879 0
M  V30 2379 H 235.393 0.106908 3.91654 0
M  V30 2380 H 237.09 0.493141 3.97956 0
M  V30 2381 H 233.68 1.91922 3.83228 0
M  V30 2382 H 237.864 2.87677 4.0442 0
M  V30 2383 H 233.12 4.24426 4.40082 0
M  V30 2384 H 237.294 5.20559 4.62592 0
M  V30 2385 H 234.921 5.89431 4.80078 0
M  V30 2386 N 236.496 -1.42363 0.676048 0
M  V30 2387 C 237.459 -2.29199 0.00766941 0
M  V30 2388 C 238.459 -1.43389 -0.727745 0
M  V30 2389 O 239.649 -1.64764 -0.56556 0
M  V30 2390 C 236.781 -3.2591 -0.999785 0
M  V30 2391 H 237.974 -2.89794 0.771988 0
M  V30 2392 H 235.527 -1.50024 0.438468 0
M  V30 2393 H 236.262 -2.70256 -1.79255 0
M  V30 2394 H 236.047 -3.89202 -0.475829 0
M  V30 2395 H 237.537 -3.91028 -1.46583 0
M  V30 2396 N 237.974 -0.419461 -1.51915 0
M  V30 2397 C 238.904 0.391813 -2.30189 0
M  V30 2398 C 239.885 1.03699 -1.34836 0
M  V30 2399 O 241.07 1.04403 -1.63748 0
M  V30 2400 C 238.2 1.50312 -3.13087 0
M  V30 2401 C 237.154 0.9824 -4.16573 0
M  V30 2402 C 236.48 2.18809 -4.8788 0
M  V30 2403 C 237.78 0.0292356 -5.22292 0
M  V30 2404 H 239.474 -0.26135 -2.98257 0
M  V30 2405 H 237.02 -0.127134 -1.43438 0
M  V30 2406 H 238.973 2.07773 -3.66617 0
M  V30 2407 H 237.697 2.18431 -2.42807 0
M  V30 2408 H 236.356 0.430119 -3.64068 0
M  V30 2409 H 236.004 2.85507 -4.14119 0
M  V30 2410 H 235.704 1.84615 -5.57845 0
M  V30 2411 H 237.228 2.76858 -5.44226 0
M  V30 2412 H 238.642 0.512976 -5.71 0
M  V30 2413 H 237.039 -0.2244 -5.9968 0
M  V30 2414 H 238.109 -0.912931 -4.76228 0
M  V30 2415 N 239.452 1.56882 -0.150215 0
M  V30 2416 C 240.362 2.20494 0.801222 0
M  V30 2417 C 241.378 1.19019 1.26927 0
M  V30 2418 O 242.554 1.51607 1.32579 0
M  V30 2419 C 239.619 2.81659 2.02161 0
M  V30 2420 C 238.68 3.9827 1.60249 0
M  V30 2421 C 237.913 4.56508 2.7647 0
M  V30 2422 O 238.136 4.13627 3.92771 0
M  V30 2423 O 237.07 5.46719 2.51757 0
M  V30 2424 H 240.896 3.02315 0.289717 0
M  V30 2425 H 238.481 1.49202 0.0769684 0
M  V30 2426 H 240.363 3.20522 2.73576 0
M  V30 2427 H 239.038 2.02849 2.52258 0
M  V30 2428 H 237.945 3.64117 0.858477 0
M  V30 2429 H 239.278 4.78609 1.14864 0
M  V30 2430 N 240.93 -0.123565 1.57115 0
M  V30 2431 C 242.178 -0.83051 1.84247 0
M  V30 2432 C 242.499 -1.80629 0.73471 0
M  V30 2433 O 241.769 -1.94403 -0.241688 0
M  V30 2434 H 240.349 -0.309694 0.679778 0
M  V30 2435 H 243.011 -0.111976 1.94578 0
M  V30 2436 H 242.107 -1.37852 2.80006 0
M  V30 2437 N 242.408 -1.52605 -0.393616 0
M  V30 2438 C 243.655 -1.67424 -1.1391 0
M  V30 2439 C 243.983 -0.411859 -1.90089 0
M  V30 2440 O 243.238 0.605626 -1.86093 0
M  V30 2441 C 243.537 -2.85721 -2.14705 0
M  V30 2442 C 243.203 -4.23342 -1.55218 0
M  V30 2443 C 241.865 -4.60771 -1.3872 0
M  V30 2444 C 244.217 -5.09041 -1.11924 0
M  V30 2445 C 241.545 -5.81563 -0.774689 0
M  V30 2446 C 243.897 -6.30452 -0.520853 0
M  V30 2447 C 242.561 -6.66617 -0.343134 0
M  V30 2448 H 241.831 -0.612648 -0.416826 0
M  V30 2449 H 244.478 -1.8674 -0.424315 0
M  V30 2450 H 242.783 -2.60803 -2.92385 0
M  V30 2451 H 244.48 -2.94382 -2.72288 0
M  V30 2452 H 241.07 -3.93855 -1.69045 0
M  V30 2453 H 245.254 -4.80695 -1.23473 0
M  V30 2454 H 240.51 -6.08196 -0.625154 0
M  V30 2455 H 244.684 -6.96175 -0.177065 0
M  V30 2456 H 242.311 -7.60083 0.133571 0
M  V30 2457 N 243.887 0.651787 -1.4349 0
M  V30 2458 C 245.134 1.41167 -1.45183 0
M  V30 2459 C 245.462 1.94349 -0.0766601 0
M  V30 2460 O 244.717 1.72804 0.918555 0
M  V30 2461 C 245.016 2.60914 -2.44251 0
M  V30 2462 C 244.682 2.26142 -3.9009 0
M  V30 2463 C 243.344 2.16371 -4.2981 0
M  V30 2464 C 245.696 1.98334 -4.81989 0
M  V30 2465 C 243.024 1.7695 -5.5938 0
M  V30 2466 C 245.376 1.6041 -6.11924 0
M  V30 2467 C 244.04 1.49166 -6.5062 0
M  V30 2468 H 243.31 0.516566 -0.531263 0
M  V30 2469 H 245.957 0.741099 -1.76579 0
M  V30 2470 H 244.262 3.3311 -2.06265 0
M  V30 2471 H 245.959 3.19127 -2.42815 0
M  V30 2472 H 242.549 2.34658 -3.58655 0
M  V30 2473 H 246.733 2.04803 -4.52072 0
M  V30 2474 H 241.989 1.66831 -5.88198 0
M  V30 2475 H 246.163 1.37925 -6.82605 0
M  V30 2476 H 243.79 1.1839 -7.50925 0
M  V30 2477 N 245.365 1.30045 0.890287 0
M  V30 2478 C 246.275 1.17885 2.02831 0
M  V30 2479 C 247.291 0.0999609 1.73713 0
M  V30 2480 O 248.467 0.313867 1.98939 0
M  V30 2481 C 245.532 0.866079 3.35708 0
M  V30 2482 C 244.593 2.02979 3.78283 0
M  V30 2483 C 243.826 1.73184 5.0482 0
M  V30 2484 O 244.049 0.657237 5.66601 0
M  V30 2485 O 242.983 2.58267 5.43674 0
M  V30 2486 H 246.809 2.13474 2.16015 0
M  V30 2487 H 244.394 1.09587 1.01543 0
M  V30 2488 H 246.276 0.706623 4.15433 0
M  V30 2489 H 244.951 -0.0599443 3.23644 0
M  V30 2490 H 243.858 2.24454 2.99285 0
M  V30 2491 H 245.191 2.93734 3.94944 0
M  V30 2492 N 246.843 -1.10192 1.12674 0
M  V30 2493 C 248.068 -1.86523 0.906853 0
M  V30 2494 C 248.493 -1.80221 -0.538711 0
M  V30 2495 O 247.851 -1.17396 -1.38158 0
M  V30 2496 C 247.899 -3.32758 1.3894 0
M  V30 2497 O 247.003 -4.08449 0.5695 0
M  V30 2498 H 246.344 -0.578678 0.325619 0
M  V30 2499 H 248.874 -1.39203 1.49946 0
M  V30 2500 H 248.884 -3.83608 1.38958 0
M  V30 2501 H 247.559 -3.36661 2.44197 0
M  V30 2502 H 246.136 -3.67427 0.636528 0
M  V30 2503 N 248.321 -0.919034 -1.28029 0
M  V30 2504 C 249.251 -0.428581 -2.29533 0
M  V30 2505 C 250.232 0.50659 -1.62381 0
M  V30 2506 O 251.417 0.413195 -1.89753 0
M  V30 2507 C 248.547 0.327388 -3.45753 0
M  V30 2508 C 247.501 -0.519137 -4.2484 0
M  V30 2509 C 246.827 0.365486 -5.33449 0
M  V30 2510 C 248.127 -1.77914 -4.91064 0
M  V30 2511 H 249.821 -1.27687 -2.70807 0
M  V30 2512 H 247.367 -0.615428 -1.30186 0
M  V30 2513 H 249.32 0.681378 -4.15855 0
M  V30 2514 H 248.044 1.20963 -3.03374 0
M  V30 2515 H 246.703 -0.855717 -3.56473 0
M  V30 2516 H 246.351 1.24642 -4.87312 0
M  V30 2517 H 246.051 -0.197356 -5.87268 0
M  V30 2518 H 247.575 0.715241 -6.06396 0
M  V30 2519 H 248.989 -1.49374 -5.53498 0
M  V30 2520 H 247.386 -2.2848 -5.54903 0
M  V30 2521 H 248.456 -2.50382 -4.15255 0
M  V30 2522 N 249.799 1.42003 -0.683588 0
M  V30 2523 C 250.762 2.29191 -0.0198243 0
M  V30 2524 C 251.762 1.43773 0.72013 0
M  V30 2525 O 252.952 1.65061 0.556815 0
M  V30 2526 C 250.084 3.26435 0.982487 0
M  V30 2527 H 251.277 2.8938 -0.787345 0
M  V30 2528 H 248.83 1.49789 -0.446418 0
M  V30 2529 H 249.565 2.71203 1.77819 0
M  V30 2530 H 249.35 3.89449 0.455182 0
M  V30 2531 H 250.84 3.918 1.44508 0
M  V30 2532 N 251.277 0.427512 1.51691 0
M  V30 2533 C 252.526 -0.143679 2.01188 0
M  V30 2534 C 252.839 -1.44642 1.31674 0
M  V30 2535 O 254.045 -2.09997 1.72086 0
M  V30 2536 C 252.501 -0.306602 3.58592 0
M  V30 2537 C 252.109 0.985125 4.37035 0
M  V30 2538 C 253.853 -0.832091 4.16265 0
M  V30 2539 C 251.76 0.788382 5.86122 0
M  V30 2540 H 250.69 -0.0574701 0.751807 0
M  V30 2541 H 253.341 0.555772 1.74881 0
M  V30 2542 H 251.723 -1.06882 3.81303 0
M  V30 2543 H 252.897 1.75492 4.26074 0
M  V30 2544 H 251.212 1.4384 3.90767 0
M  V30 2545 H 253.809 -0.995617 5.25349 0
M  V30 2546 H 254.152 -1.81186 3.74803 0
M  V30 2547 H 254.685 -0.128444 3.97593 0
M  V30 2548 H 251.424 1.74025 6.31978 0
M  V30 2549 H 250.944 0.0582143 5.99772 0
M  V30 2550 H 252.623 0.437722 6.45518 0
M  V30 2551 N 252.755 -1.56801 0.158532 0
M  V30 2552 C 253.687 -2.14488 -0.807923 0
M  V30 2553 C 254.7 -1.09721 -1.20271 0
M  V30 2554 O 255.889 -1.36956 -1.14478 0
M  V30 2555 C 252.989 -2.66217 -2.09718 0
M  V30 2556 C 252.162 -3.95507 -1.86796 0
M  V30 2557 C 251.221 -4.3243 -2.99818 0
M  V30 2558 O 250.247 -5.00543 -2.71008 0
M  V30 2559 N 251.449 -3.92947 -4.27285 0
M  V30 2560 H 254.214 -2.98042 -0.314816 0
M  V30 2561 H 251.775 -1.61881 -0.0246692 0
M  V30 2562 H 253.767 -2.87924 -2.84398 0
M  V30 2563 H 252.337 -1.87324 -2.50257 0
M  V30 2564 H 251.557 -3.82309 -0.96089 0
M  V30 2565 H 252.845 -4.79972 -1.68833 0
M  V30 2566 H 252.243 -3.38087 -4.53557 0
M  V30 2567 H 250.8 -4.19681 -4.9871 0
M  V30 2568 N 254.233 0.115231 -1.57178 0
M  V30 2569 C 255.163 1.1423 -2.03651 0
M  V30 2570 C 256.144 1.42967 -0.921655 0
M  V30 2571 O 257.329 1.53343 -1.19162 0
M  V30 2572 C 254.459 2.4675 -2.44401 0
M  V30 2573 C 253.413 2.32467 -3.59365 0
M  V30 2574 C 252.739 3.69984 -3.86026 0
M  V30 2575 C 254.039 1.78203 -4.90959 0
M  V30 2576 H 255.733 0.755749 -2.89705 0
M  V30 2577 H 253.279 0.362093 -1.39373 0
M  V30 2578 H 255.232 3.18854 -2.75517 0
M  V30 2579 H 253.956 2.87302 -1.55322 0
M  V30 2580 H 252.615 1.62811 -3.28463 0
M  V30 2581 H 252.263 4.08028 -2.94147 0
M  V30 2582 H 251.963 3.61279 -4.63412 0
M  V30 2583 H 253.487 4.43587 -4.19599 0
M  V30 2584 H 254.901 2.40128 -5.20587 0
M  V30 2585 H 253.298 1.8031 -5.72371 0
M  V30 2586 H 254.368 0.739876 -4.79222 0
M  V30 2587 N 255.711 1.52812 0.385517 0
M  V30 2588 C 256.641 1.80808 1.47752 0
M  V30 2589 C 257.622 0.660318 1.5676 0
M  V30 2590 O 258.807 0.908246 1.71652 0
M  V30 2591 C 255.937 1.98008 2.85324 0
M  V30 2592 C 254.891 3.13709 2.91154 0
M  V30 2593 C 254.217 3.16169 4.31209 0
M  V30 2594 C 255.517 4.52709 2.60483 0
M  V30 2595 H 257.211 2.72253 1.24573 0
M  V30 2596 H 254.757 1.31003 0.597839 0
M  V30 2597 H 256.71 2.16176 3.61726 0
M  V30 2598 H 255.434 1.03255 3.09848 0
M  V30 2599 H 254.093 2.95329 2.17201 0
M  V30 2600 H 253.741 2.19092 4.52778 0
M  V30 2601 H 253.441 3.93894 4.36029 0
M  V30 2602 H 254.965 3.36496 5.09512 0
M  V30 2603 H 256.379 4.71173 3.26602 0
M  V30 2604 H 254.776 5.32528 2.76648 0
M  V30 2605 H 255.846 4.59186 1.55809 0
M  V30 2606 N 257.189 -0.644168 1.43834 0
M  V30 2607 C 258.121 -1.76955 1.45669 0
M  V30 2608 C 259.134 -1.58956 0.351666 0
M  V30 2609 O 260.323 -1.6751 0.616644 0
M  V30 2610 C 257.423 -3.14507 1.26248 0
M  V30 2611 C 256.596 -3.59083 2.49757 0
M  V30 2612 C 255.655 -4.75467 2.25427 0
M  V30 2613 O 254.681 -4.84444 2.98836 0
M  V30 2614 N 255.883 -5.66289 1.27661 0
M  V30 2615 H 258.648 -1.75856 2.42682 0
M  V30 2616 H 256.209 -0.828312 1.39106 0
M  V30 2617 H 258.201 -3.90067 1.0784 0
M  V30 2618 H 256.771 -3.10325 0.376478 0
M  V30 2619 H 255.991 -2.7387 2.8353 0
M  V30 2620 H 257.279 -3.85613 3.31934 0
M  V30 2621 H 256.677 -5.61718 0.670064 0
M  V30 2622 H 255.234 -6.41533 1.15234 0
M  V30 2623 N 258.668 -1.30515 -0.883378 0
M  V30 2624 C 259.915 -1.1943 -1.63532 0
M  V30 2625 C 260.243 0.250627 -1.92878 0
M  V30 2626 O 259.498 1.19556 -1.54935 0
M  V30 2627 C 259.797 -1.96994 -2.98209 0
M  V30 2628 C 259.463 -3.466 -2.88408 0
M  V30 2629 C 258.125 -3.87397 -2.85442 0
M  V30 2630 C 260.477 -4.41863 -2.76418 0
M  V30 2631 C 257.805 -5.21745 -2.68327 0
M  V30 2632 C 260.157 -5.7632 -2.60841 0
M  V30 2633 C 258.821 -6.16354 -2.56251 0
M  V30 2634 H 258.091 -0.437025 -0.598406 0
M  V30 2635 H 260.738 -1.61635 -1.02696 0
M  V30 2636 H 259.043 -1.47429 -3.63004 0
M  V30 2637 H 260.74 -1.85808 -3.55354 0
M  V30 2638 H 257.33 -3.14182 -2.91527 0
M  V30 2639 H 261.514 -4.11285 -2.77775 0
M  V30 2640 H 256.77 -5.51853 -2.63189 0
M  V30 2641 H 260.944 -6.49772 -2.50538 0
M  V30 2642 H 258.571 -7.20401 -2.42748 0
M  V30 2643 N 260.146 1.09593 -1.13257 0
M  V30 2644 C 261.094 2.18271 -0.803783 0
M  V30 2645 C 262.088 1.68054 0.213148 0
M  V30 2646 O 263.294 1.79862 0.0704699 0
M  V30 2647 H 259.669 0.711949 -0.242143 0
M  V30 2648 H 261.64 2.43235 -1.72856 0
M  V30 2649 C 260.389 3.46536 -0.28424 0
M  V30 2650 H 259.712 3.85545 -1.05807 0
M  V30 2651 H 261.152 4.23899 -0.0925945 0
M  V30 2652 C 259.611 3.22036 0.989684 0
M  V30 2653 O 260.141 3.44509 2.06584 0
M  V30 2654 N 258.347 2.7565 0.920086 0
M  V30 2655 H 257.894 2.57562 0.0442019 0
M  V30 2656 H 257.852 2.59635 1.77306 0
M  V30 2657 N 261.624 0.925811 1.2754 0
M  V30 2658 C 262.873 0.561084 1.93739 0
M  V30 2659 C 263.186 -0.901685 1.73577 0
M  V30 2660 O 264.392 -1.37511 2.34101 0
M  V30 2661 C 262.848 0.952668 3.47062 0
M  V30 2662 C 262.456 2.43599 3.75983 0
M  V30 2663 C 264.2 0.659103 4.19352 0
M  V30 2664 C 262.107 2.76707 5.22673 0
M  V30 2665 H 261.037 0.206122 0.725279 0
M  V30 2666 H 263.688 1.12637 1.44863 0
M  V30 2667 H 262.07 0.316053 3.94737 0
M  V30 2668 H 263.244 3.12035 3.39073 0
M  V30 2669 H 261.559 2.70125 3.16893 0
M  V30 2670 H 264.156 0.882985 5.27359 0
M  V30 2671 H 264.499 -0.403607 4.14339 0
M  V30 2672 H 265.032 1.25473 3.77494 0
M  V30 2673 H 261.771 3.8188 5.32774 0
M  V30 2674 H 261.291 2.12919 5.60737 0
M  V30 2675 H 262.97 2.6435 5.90532 0
M  V30 2676 N 263.102 -1.41638 0.69111 0
M  V30 2677 C 264.349 -2.01299 0.220193 0
M  V30 2678 C 264.677 -1.54715 -1.17871 0
M  V30 2679 O 263.932 -0.747193 -1.80874 0
M  V30 2680 C 264.231 -3.56714 0.221277 0
M  V30 2681 C 263.897 -4.22792 1.56709 0
M  V30 2682 C 262.559 -4.40557 1.93554 0
M  V30 2683 C 264.911 -4.59883 2.45268 0
M  V30 2684 C 262.239 -4.92688 3.18552 0
M  V30 2685 C 264.591 -5.13403 3.69595 0
M  V30 2686 C 263.255 -5.29379 4.06589 0
M  V30 2687 H 262.525 -0.736606 0.0805743 0
M  V30 2688 H 265.172 -1.69598 0.889319 0
M  V30 2689 H 263.477 -3.8818 -0.531391 0
M  V30 2690 H 265.174 -4.00678 -0.160547 0
M  V30 2691 H 261.764 -4.09336 1.2705 0
M  V30 2692 H 265.948 -4.45817 2.18084 0
M  V30 2693 H 261.204 -5.03242 3.47214 0
M  V30 2694 H 265.378 -5.41084 4.38407 0
M  V30 2695 H 263.005 -5.69537 5.03519 0
M  V30 2696 N 264.58 -0.43555 -1.51462 0
M  V30 2697 C 265.829 0.133007 -2.01261 0
M  V30 2698 C 266.142 1.43942 -1.32439 0
M  V30 2699 O 267.348 2.09081 -1.73198 0
M  V30 2700 C 265.804 0.287581 -3.58749 0
M  V30 2701 C 265.412 -1.00829 -4.36506 0
M  V30 2702 C 267.156 0.810004 -4.167 0
M  V30 2703 C 265.063 -0.819454 -5.85695 0
M  V30 2704 H 263.993 0.0534822 -0.752101 0
M  V30 2705 H 266.644 -0.565038 -1.74584 0
M  V30 2706 H 265.026 1.04859 -3.81865 0
M  V30 2707 H 266.2 -1.77749 -4.25138 0
M  V30 2708 H 264.515 -1.45911 -3.89999 0
M  V30 2709 H 267.112 0.967743 -5.2587 0
M  V30 2710 H 267.455 1.79196 -3.75758 0
M  V30 2711 H 267.988 0.107357 -3.97655 0
M  V30 2712 H 264.727 -1.77374 -6.31046 0
M  V30 2713 H 264.247 -0.0900208 -5.99732 0
M  V30 2714 H 265.926 -0.471949 -6.45276 0
M  V30 2715 N 266.058 1.56714 -0.166846 0
M  V30 2716 C 267.283 2.01557 0.488833 0
M  V30 2717 C 267.708 1.0463 1.56314 0
M  V30 2718 O 267.066 0.0251304 1.81283 0
M  V30 2719 C 267.114 3.4503 1.04818 0
M  V30 2720 O 266.218 3.51163 2.16236 0
M  V30 2721 H 265.559 0.653516 0.117526 0
M  V30 2722 H 268.089 2.02818 -0.269421 0
M  V30 2723 H 268.099 3.84243 1.37191 0
M  V30 2724 H 266.774 4.15077 0.261572 0
M  V30 2725 H 265.351 3.23807 1.84942 0
M  V30 2726 N 267.536 -0.106894 1.57237 0
M  V30 2727 C 268.466 -1.13148 2.04254 0
M  V30 2728 C 269.447 -1.42476 0.929224 0
M  V30 2729 O 270.632 -1.52709 1.19973 0
M  V30 2730 C 267.762 -2.4545 2.45706 0
M  V30 2731 C 266.716 -2.30558 3.60592 0
M  V30 2732 C 266.042 -3.67931 3.87983 0
M  V30 2733 C 267.342 -1.75597 4.91897 0
M  V30 2734 H 269.036 -0.740374 2.90101 0
M  V30 2735 H 266.582 -0.354696 1.39563 0
M  V30 2736 H 268.535 -3.17389 2.77205 0
M  V30 2737 H 267.259 -2.86475 1.56843 0
M  V30 2738 H 265.918 -1.61067 3.29322 0
M  V30 2739 H 265.566 -4.06462 2.96306 0
M  V30 2740 H 265.266 -3.58817 4.65322 0
M  V30 2741 H 266.79 -4.41356 4.21945 0
M  V30 2742 H 268.204 -2.37364 5.21854 0
M  V30 2743 H 266.601 -1.77272 5.73319 0
M  V30 2744 H 267.671 -0.714451 4.79608 0
M  V30 2745 N 269.014 -1.53014 -0.377408 0
M  V30 2746 C 270.26 -1.68872 -1.12294 0
M  V30 2747 C 270.593 -0.433224 -1.89306 0
M  V30 2748 O 269.868 0.569258 -1.85983 0
M  V30 2749 C 270.151 -2.93115 -2.09179 0
M  V30 2750 C 270.004 -4.28794 -1.35853 0
M  V30 2751 C 271.323 -3.12928 -3.09458 0
M  V30 2752 H 268.442 -0.614518 -0.406862 0
M  V30 2753 H 271.084 -1.85633 -0.40503 0
M  V30 2754 H 269.234 -2.78956 -2.70399 0
M  V30 2755 H 270.906 -4.54742 -0.775082 0
M  V30 2756 H 269.149 -4.28744 -0.660364 0
M  V30 2757 H 269.82 -5.11837 -2.06706 0
M  V30 2758 H 272.296 -3.26194 -2.58334 0
M  V30 2759 H 271.172 -4.01316 -3.74482 0
M  V30 2760 H 271.433 -2.27669 -3.78971 0
M  V30 2761 N 270.492 0.636531 -1.44174 0
M  V30 2762 C 271.402 1.77754 -1.53103 0
M  V30 2763 C 272.418 1.68928 -0.417034 0
M  V30 2764 O 273.594 1.89801 -0.6736 0
M  V30 2765 C 270.659 3.14115 -1.46741 0
M  V30 2766 C 269.72 3.34612 -2.68948 0
M  V30 2767 C 268.953 4.64467 -2.6288 0
M  V30 2768 O 269.176 5.44919 -1.68581 0
M  V30 2769 O 268.11 4.87049 -3.53648 0
M  V30 2770 H 271.936 1.73174 -2.49489 0
M  V30 2771 H 269.521 0.79709 -1.2636 0
M  V30 2772 H 271.403 3.95412 -1.45696 0
M  V30 2773 H 270.078 3.19249 -0.534975 0
M  V30 2774 H 268.985 2.53014 -2.75562 0
M  V30 2775 H 270.318 3.34336 -3.61221 0
M  V30 2776 N 271.97 1.30982 0.876444 0
M  V30 2777 C 273.381 1.18277 1.44456 0
M  V30 2778 C 273.732 -0.213265 1.95037 0
M  V30 2779 O 272.857 -1.11057 1.85729 0
M  V30 2780 C 273.452 2.1411 2.62569 0
M  V30 2781 C 272.011 2.05358 3.15444 0
M  V30 2782 C 271.158 2.03706 1.88146 0
M  V30 2783 H 274.109 1.43127 0.685584 0
M  V30 2784 H 274.13 1.72692 3.39054 0
M  V30 2785 H 273.642 3.15706 2.25724 0
M  V30 2786 H 271.743 1.06934 3.56926 0
M  V30 2787 H 271.856 2.94156 3.78166 0
M  V30 2788 H 270.22 1.48629 2.06837 0
M  V30 2789 H 271.003 3.07047 1.53547 0
M  V30 2790 N 273.449 -1.08991 1.13837 0
M  V30 2791 C 274.697 -1.80899 0.901098 0
M  V30 2792 C 275.018 -1.86356 -0.574134 0
M  V30 2793 O 274.288 -1.35235 -1.41733 0
M  V30 2794 H 272.868 -0.669966 0.330386 0
M  V30 2795 H 275.53 -1.318 1.43578 0
M  V30 2796 H 274.626 -2.83929 1.29578 0
M  V30 2797 N 274.927 -0.932562 -1.27047 0
M  V30 2798 C 276.338 -0.619451 -1.76124 0
M  V30 2799 C 276.689 0.865397 -1.76083 0
M  V30 2800 O 275.814 1.67722 -1.36742 0
M  V30 2801 C 276.409 -1.11771 -3.19832 0
M  V30 2802 C 274.968 -0.855174 -3.66557 0
M  V30 2803 C 274.115 -1.27362 -2.46321 0
M  V30 2804 H 277.066 -1.11181 -1.13245 0
M  V30 2805 H 277.087 -0.46759 -3.77616 0
M  V30 2806 H 276.599 -2.19842 -3.1983 0
M  V30 2807 H 274.7 0.211524 -3.71999 0
M  V30 2808 H 274.813 -1.47613 -4.55793 0
M  V30 2809 H 273.177 -0.692119 -2.45116 0
M  V30 2810 H 273.96 -2.36307 -2.49025 0
M  V30 2811 N 276.405 1.4127 -0.698611 0
M  V30 2812 C 277.651 2.01478 -0.231207 0
M  V30 2813 C 277.984 1.55215 1.16713 0
M  V30 2814 O 277.259 0.764672 1.78838 0
M  V30 2815 C 277.542 3.58912 -0.292281 0
M  V30 2816 C 277.395 4.15293 -1.72778 0
M  V30 2817 C 278.714 4.38736 0.346194 0
M  V30 2818 H 275.833 0.732025 -0.0854878 0
M  V30 2819 H 278.475 1.67977 -0.887906 0
M  V30 2820 H 276.625 3.87582 0.26686 0
M  V30 2821 H 278.297 3.97486 -2.341 0
M  V30 2822 H 276.54 3.7022 -2.26096 0
M  V30 2823 H 277.211 5.24452 -1.72202 0
M  V30 2824 H 279.687 4.15897 -0.130035 0
M  V30 2825 H 278.563 5.48221 0.272932 0
M  V30 2826 H 278.824 4.18425 1.42734 0
M  V30 2827 N 277.883 0.443576 1.51229 0
M  V30 2828 C 279.129 -0.120975 2.02439 0
M  V30 2829 C 279.462 -1.41815 1.32674 0
M  V30 2830 O 278.737 -1.89373 0.443622 0
M  V30 2831 C 279.02 -0.333291 3.58554 0
M  V30 2832 C 278.873 0.982968 4.38928 0
M  V30 2833 C 280.192 -1.10028 4.26124 0
M  V30 2834 H 277.311 -0.0424923 0.735774 0
M  V30 2835 H 279.953 0.583794 1.80809 0
M  V30 2836 H 278.103 -0.933614 3.77115 0
M  V30 2837 H 279.775 1.61775 4.32003 0
M  V30 2838 H 278.018 1.58611 4.03763 0
M  V30 2839 H 278.689 0.788379 5.46341 0
M  V30 2840 H 281.165 -0.591711 4.11871 0
M  V30 2841 H 280.041 -1.21761 5.35225 0
M  V30 2842 H 280.302 -2.12996 3.87408 0
M  V30 2843 N 279.361 -1.56624 0.175154 0
M  V30 2844 C 280.589 -2.01374 -0.474971 0
M  V30 2845 C 281.004 -1.05537 -1.56548 0
M  V30 2846 O 280.361 -0.0568668 -1.82411 0
M  V30 2847 C 280.412 -3.45923 -1.04975 0
M  V30 2848 O 280.133 -4.381 -0.00276605 0
M  V30 2849 C 281.634 -4.06093 -1.77773 0
M  V30 2850 H 278.854 -0.659962 -0.121206 0
M  V30 2851 H 281.398 -2.02601 0.27801 0
M  V30 2852 H 279.553 -3.45458 -1.75321 0
M  V30 2853 H 279.967 -5.22753 -0.427681 0
M  V30 2854 H 281.441 -5.09147 -2.13245 0
M  V30 2855 H 281.918 -3.48405 -2.67414 0
M  V30 2856 H 282.524 -4.10272 -1.12059 0
M  V30 2857 N 280.839 0.0985539 -1.57292 0
M  V30 2858 C 281.749 1.13824 -2.05137 0
M  V30 2859 C 282.765 1.44076 -0.975604 0
M  V30 2860 O 283.941 1.54786 -1.28853 0
M  V30 2861 C 281.006 2.43969 -2.46333 0
M  V30 2862 C 280.067 2.2093 -3.68087 0
M  V30 2863 C 279.3 3.44869 -4.0731 0
M  V30 2864 O 279.523 4.52972 -3.46659 0
M  V30 2865 O 278.457 3.34661 -5.00285 0
M  V30 2866 H 282.283 0.761881 -2.93988 0
M  V30 2867 H 279.868 0.310818 -1.46131 0
M  V30 2868 H 281.75 3.20609 -2.73473 0
M  V30 2869 H 280.425 2.81038 -1.60621 0
M  V30 2870 H 279.332 1.42081 -3.46069 0
M  V30 2871 H 280.665 1.88755 -4.54568 0
M  V30 2872 N 282.317 1.53212 0.369288 0
M  V30 2873 C 283.564 1.69215 1.11232 0
M  V30 2874 C 283.892 0.442048 1.8941 0
M  V30 2875 O 283.147 -0.575944 1.87033 0
M  V30 2876 C 283.446 2.89101 2.10132 0
M  V30 2877 C 283.112 4.25758 1.48463 0
M  V30 2878 C 281.774 4.6292 1.31372 0
M  V30 2879 C 284.126 5.10757 1.03811 0
M  V30 2880 C 281.454 5.82722 0.68207 0
M  V30 2881 C 283.806 6.31201 0.420487 0
M  V30 2882 C 282.47 6.67079 0.237038 0
M  V30 2883 H 281.74 0.619201 0.407027 0
M  V30 2884 H 284.387 1.87391 0.394552 0
M  V30 2885 H 282.692 2.65421 2.88199 0
M  V30 2886 H 284.389 2.98676 2.6757 0
M  V30 2887 H 280.979 3.96494 1.62758 0
M  V30 2888 H 285.163 4.82599 1.1581 0
M  V30 2889 H 280.419 6.09113 0.528316 0
M  V30 2890 H 284.593 6.96368 0.0662874 0
M  V30 2891 H 282.22 7.59774 -0.254477 0
M  V30 2892 N 283.795 -0.628877 1.44509 0
M  V30 2893 C 284.705 -1.7694 1.54044 0
M  V30 2894 C 285.721 -1.68705 0.425987 0
M  V30 2895 O 286.897 -1.89442 0.683656 0
M  V30 2896 C 283.962 -3.13332 1.48405 0
M  V30 2897 C 283.023 -3.33181 2.70719 0
M  V30 2898 C 282.256 -4.63067 2.6534 0
M  V30 2899 O 282.479 -5.44017 1.71469 0
M  V30 2900 O 281.413 -4.85167 3.56226 0
M  V30 2901 H 285.239 -1.71848 2.50403 0
M  V30 2902 H 282.824 -0.790378 1.26781 0
M  V30 2903 H 284.706 -3.94634 1.47791 0
M  V30 2904 H 283.381 -3.1896 0.551898 0
M  V30 2905 H 282.288 -2.51549 2.769 0
M  V30 2906 H 283.621 -3.32416 3.62988 0
M  V30 2907 N 285.273 -1.31445 -0.869486 0
M  V30 2908 C 286.521 -1.20918 -1.61936 0
M  V30 2909 C 286.842 0.232683 -1.93607 0
M  V30 2910 O 286.112 1.15352 -1.58338 0
M  V30 2911 H 284.692 -0.44454 -0.600328 0
M  V30 2912 H 287.354 -1.64776 -1.0409 0
M  V30 2913 H 286.45 -1.78124 -2.56278 0
M  V30 2914 N 286.751 1.08385 -1.14413 0
M  V30 2915 C 287.698 2.15311 -0.831265 0
M  V30 2916 C 288.668 1.64751 0.211292 0
M  V30 2917 O 289.853 1.90627 0.0811674 0
M  V30 2918 C 286.993 3.43658 -0.315143 0
M  V30 2919 C 286.106 4.08064 -1.41802 0
M  V30 2920 C 285.241 5.24207 -0.859126 0
M  V30 2921 C 284.28 5.80554 -1.93967 0
M  V30 2922 N 283.417 6.88042 -1.39793 0
M  V30 2923 H 288.257 2.41415 -1.74708 0
M  V30 2924 H 285.794 1.18474 -0.871909 0
M  V30 2925 H 287.752 4.172 0.00230884 0
M  V30 2926 H 286.382 3.17839 0.56378 0
M  V30 2927 H 285.434 3.3228 -1.85187 0
M  V30 2928 H 286.746 4.45962 -2.23427 0
M  V30 2929 H 285.9 6.04689 -0.49359 0
M  V30 2930 H 284.639 4.87699 -0.011932 0
M  V30 2931 H 283.644 4.98725 -2.31415 0
M  V30 2932 H 284.869 6.19121 -2.79046 0
M  V30 2933 H 282.815 6.53493 -0.572919 0
M  V30 2934 H 282.732 7.24767 -2.15054 0
M  V30 2935 H 284 7.72255 -1.0603 0
M  V30 2936 N 288.23 0.939286 1.26551 0
M  V30 2937 C 289.16 0.465044 2.28822 0
M  V30 2938 C 290.141 -0.480692 1.63167 0
M  V30 2939 O 291.326 -0.382955 1.90387 0
M  V30 2940 C 288.456 -0.27234 3.46231 0
M  V30 2941 C 287.41 0.58666 4.2396 0
M  V30 2942 C 286.736 -0.280573 5.33963 0
M  V30 2943 C 288.036 1.85704 4.88171 0
M  V30 2944 H 289.73 1.31979 2.68741 0
M  V30 2945 H 287.276 0.636061 1.29191 0
M  V30 2946 H 289.229 -0.615133 4.16886 0
M  V30 2947 H 287.953 -1.16121 3.0526 0
M  V30 2948 H 286.612 0.91232 3.55067 0
M  V30 2949 H 286.26 -1.16874 4.89234 0
M  V30 2950 H 285.96 0.29076 5.8688 0
M  V30 2951 H 287.484 -0.618678 6.07458 0
M  V30 2952 H 288.898 1.58161 5.51052 0
M  V30 2953 H 287.295 2.37279 5.51197 0
M  V30 2954 H 288.365 2.56957 4.11219 0
M  V30 2955 N 289.708 -1.40897 0.706093 0
M  V30 2956 C 290.638 -2.33418 0.0620085 0
M  V30 2957 C 291.619 -1.52385 -0.755827 0
M  V30 2958 O 292.804 -1.80886 -0.706674 0
M  V30 2959 C 289.934 -3.36293 -0.867445 0
M  V30 2960 C 288.888 -4.27716 -0.155932 0
M  V30 2961 C 288.214 -5.2105 -1.20046 0
M  V30 2962 C 289.514 -5.12944 0.984149 0
M  V30 2963 H 291.208 -2.87527 0.83477 0
M  V30 2964 H 288.754 -1.38249 0.402875 0
M  V30 2965 H 290.707 -3.99949 -1.32735 0
M  V30 2966 H 289.431 -2.80556 -1.67199 0
M  V30 2967 H 288.09 -3.65498 0.284047 0
M  V30 2968 H 287.738 -4.61624 -1.99781 0
M  V30 2969 H 287.438 -5.83056 -0.729328 0
M  V30 2970 H 288.962 -5.87584 -1.66066 0
M  V30 2971 H 290.376 -5.70109 0.604048 0
M  V30 2972 H 288.773 -5.83945 1.38304 0
M  V30 2973 H 289.843 -4.49485 1.81911 0
M  V30 2974 N 291.186 -0.45159 -1.50991 0
M  V30 2975 C 292.149 0.341117 -2.26647 0
M  V30 2976 C 293.149 0.937422 -1.30649 0
M  V30 2977 O 294.339 0.809644 -1.54241 0
M  V30 2978 C 291.471 1.48398 -3.06905 0
M  V30 2979 H 292.664 -0.322117 -2.98165 0
M  V30 2980 H 290.217 -0.205122 -1.54948 0
M  V30 2981 H 290.952 2.18284 -2.39838 0
M  V30 2982 H 290.737 1.06241 -3.77432 0
M  V30 2983 H 292.227 2.04367 -3.64176 0
M  V30 2984 N 292.664 1.56529 -0.183458 0
M  V30 2985 C 293.596 2.15747 0.773697 0
M  V30 2986 C 294.609 1.1162 1.1851 0
M  V30 2987 O 295.798 1.3876 1.12285 0
M  V30 2988 C 292.898 2.6952 2.05456 0
M  V30 2989 C 292.071 3.98429 1.8048 0
M  V30 2990 C 291.13 4.37145 2.92901 0
M  V30 2991 O 290.156 5.04791 2.6301 0
M  V30 2992 N 291.358 3.99695 4.2098 0
M  V30 2993 H 294.123 2.98505 0.26736 0
M  V30 2994 H 291.684 1.619 -0.0010878 0
M  V30 2995 H 293.676 2.92412 2.79781 0
M  V30 2996 H 292.246 1.91282 2.47245 0
M  V30 2997 H 291.466 3.8379 0.899947 0
M  V30 2998 H 292.754 4.82597 1.61175 0
M  V30 2999 H 292.152 3.4526 4.48121 0
M  V30 3000 H 290.709 4.27562 4.9197 0
M  V30 3001 N 294.142 -0.090211 1.57342 0
M  V30 3002 C 295.388 -0.793982 1.86611 0
M  V30 3003 C 295.721 -1.78142 0.773252 0
M  V30 3004 O 294.996 -1.93271 -0.218304 0
M  V30 3005 C 295.279 -1.51839 3.26523 0
M  V30 3006 C 295.132 -0.548609 4.46442 0
M  V30 3007 C 296.451 -2.46779 3.64401 0
M  V30 3008 H 293.57 -0.287186 0.678744 0
M  V30 3009 H 296.212 -0.0575076 1.89913 0
M  V30 3010 H 294.362 -2.14617 3.23839 0
M  V30 3011 H 296.034 0.0725513 4.61243 0
M  V30 3012 H 294.277 0.137614 4.33582 0
M  V30 3013 H 294.948 -1.09271 5.41076 0
M  V30 3014 H 297.424 -1.94089 3.68061 0
M  V30 3015 H 296.3 -2.94479 4.63221 0
M  V30 3016 H 296.561 -3.30758 2.93346 0
M  V30 3017 N 295.62 -1.53406 -0.361157 0
M  V30 3018 C 296.845 -1.74024 -1.12829 0
M  V30 3019 C 297.27 -0.470069 -1.82132 0
M  V30 3020 O 296.628 0.57619 -1.719 0
M  V30 3021 C 296.676 -2.90903 -2.13091 0
M  V30 3022 O 295.78 -2.59821 -3.20261 0
M  V30 3023 H 295.121 -0.577804 -0.327168 0
M  V30 3024 H 297.651 -2.00307 -0.41693 0
M  V30 3025 H 297.661 -3.17194 -2.56616 0
M  V30 3026 H 296.336 -3.83034 -1.62042 0
M  V30 3027 H 294.913 -2.44362 -2.81677 0
M  V30 3028 N 297.098 0.621204 -1.44841 0
M  V30 3029 C 298.031 1.7459 -1.46947 0
M  V30 3030 C 299.009 1.59273 -0.327238 0
M  V30 3031 O 300.193 1.81021 -0.525706 0
M  V30 3032 C 297.32 3.12274 -1.31159 0
M  V30 3033 C 296.366 3.46216 -2.49072 0
M  V30 3034 S 297.199 3.4258 -4.11581 0
M  V30 3035 C 298.355 4.82867 -3.98233 0
M  V30 3036 H 298.588 1.72538 -2.42111 0
M  V30 3037 H 296.121 0.796683 -1.32259 0
M  V30 3038 H 298.079 3.91722 -1.22737 0
M  V30 3039 H 296.74 3.11855 -0.374885 0
M  V30 3040 H 295.933 4.4643 -2.33915 0
M  V30 3041 H 295.535 2.74253 -2.54286 0
M  V30 3042 H 297.827 5.7234 -3.62537 0
M  V30 3043 H 298.77 5.0308 -4.98313 0
M  V30 3044 H 299.178 4.57908 -3.30121 0
M  V30 3045 N 298.576 1.31904 0.862503 0
M  V30 3046 C 299.539 1.20131 1.95195 0
M  V30 3047 C 300.539 0.126409 1.60302 0
M  V30 3048 O 301.729 0.376234 1.70089 0
M  V30 3049 C 298.861 0.845691 3.30244 0
M  V30 3050 H 300.054 2.16943 2.07064 0
M  V30 3051 H 297.607 1.15622 1.05172 0
M  V30 3052 H 298.342 -0.120957 3.24074 0
M  V30 3053 H 298.127 1.62276 3.56944 0
M  V30 3054 H 299.617 0.787418 4.10109 0
M  V30 3055 N 300.054 -1.07777 1.14986 0
M  V30 3056 C 300.964 -2.18404 0.856546 0
M  V30 3057 C 301.98 -1.73211 -0.165485 0
M  V30 3058 O 303.156 -2.01399 0.00755219 0
M  V30 3059 C 300.221 -3.44977 0.34526 0
M  V30 3060 C 299.282 -4.0476 1.43065 0
M  V30 3061 C 298.515 -5.25291 0.943663 0
M  V30 3062 O 298.738 -5.70004 -0.212426 0
M  V30 3063 O 297.672 -5.76638 1.72547 0
M  V30 3064 H 301.498 -2.45978 1.78125 0
M  V30 3065 H 299.083 -1.17033 0.928631 0
M  V30 3066 H 300.965 -4.21348 0.0663671 0
M  V30 3067 H 299.64 -3.18965 -0.551631 0
M  V30 3068 H 298.547 -3.29949 1.76309 0
M  V30 3069 H 299.88 -4.35035 2.30229 0
M  V30 3070 N 301.532 -0.945985 -1.26051 0
M  V30 3071 C 302.779 -0.596118 -1.93527 0
M  V30 3072 C 303.107 0.865559 -1.74179 0
M  V30 3073 O 302.362 1.63524 -1.0751 0
M  V30 3074 C 302.661 -0.890475 -3.46129 0
M  V30 3075 C 302.327 -2.3368 -3.85622 0
M  V30 3076 C 300.989 -2.73216 -3.96114 0
M  V30 3077 C 303.341 -3.27648 -4.05334 0
M  V30 3078 C 300.669 -4.05806 -4.2372 0
M  V30 3079 C 303.021 -4.59841 -4.3443 0
M  V30 3080 C 301.685 -4.99185 -4.43137 0
M  V30 3081 H 300.955 -0.218135 -0.708165 0
M  V30 3082 H 303.602 -1.1934 -1.49768 0
M  V30 3083 H 301.907 -0.210711 -3.91233 0
M  V30 3084 H 303.604 -0.598478 -3.96509 0
M  V30 3085 H 300.194 -2.02015 -3.78005 0
M  V30 3086 H 304.378 -2.98298 -3.96651 0
M  V30 3087 H 299.634 -4.35945 -4.28675 0
M  V30 3088 H 303.808 -5.32641 -4.48628 0
M  V30 3089 H 301.435 -6.01952 -4.64282 0
M  V30 3090 N 303.011 1.40521 -0.713556 0
M  V30 3091 C 304.422 1.83853 -0.324807 0
M  V30 3092 C 304.773 1.59667 1.14021 0
M  V30 3093 O 303.898 1.07649 1.87725 0
M  V30 3094 C 304.493 3.33751 -0.582746 0
M  V30 3095 C 303.052 3.75584 -0.247727 0
M  V30 3096 C 302.199 2.63753 -0.856121 0
M  V30 3097 H 305.15 1.29817 -0.91286 0
M  V30 3098 H 305.171 3.80194 0.152682 0
M  V30 3099 H 304.683 3.51322 -1.64908 0
M  V30 3100 H 302.784 3.63608 0.813624 0
M  V30 3101 H 302.897 4.7373 -0.715307 0
M  V30 3102 H 301.261 2.53108 -0.28432 0
M  V30 3103 H 302.044 2.84137 -1.92668 0
M  V30 3104 N 304.489 0.459591 1.5075 0
M  V30 3105 C 305.737 -0.0991532 2.01857 0
M  V30 3106 C 306.058 -1.41247 1.34441 0
M  V30 3107 O 305.328 -1.89775 0.486022 0
M  V30 3108 H 303.908 -0.039633 0.745948 0
M  V30 3109 H 306.57 0.607387 1.85194 0
M  V30 3110 H 305.666 -0.258998 3.11023 0
M  V30 3111 N 305.967 -1.56429 0.191757 0
M  V30 3112 C 307.195 -2.01867 -0.453586 0
M  V30 3113 C 307.61 -1.07191 -1.5542 0
M  V30 3114 O 306.967 -0.0762108 -1.82341 0
M  V30 3115 C 307.018 -3.47017 -1.013 0
M  V30 3116 O 306.739 -4.38078 0.0437005 0
M  V30 3117 C 308.24 -4.07956 -1.73456 0
M  V30 3118 H 305.46 -0.661211 -0.114199 0
M  V30 3119 H 308.004 -2.02295 0.299483 0
M  V30 3120 H 306.159 -3.47298 -1.71647 0
M  V30 3121 H 306.573 -5.23178 -0.372212 0
M  V30 3122 H 308.047 -5.1138 -2.07833 0
M  V30 3123 H 308.524 -3.51222 -2.63704 0
M  V30 3124 H 309.13 -4.11437 -1.07702 0
M  V30 3125 N 307.445 0.0818655 -1.57387 0
M  V30 3126 C 308.722 0.815343 -1.77796 0
M  V30 3127 C 309.102 1.96289 -0.77679 0
M  V30 3128 O 308.45 2.27691 0.192106 0
M  V30 3129 C 308.66 1.29765 -3.23978 0
M  V30 3130 C 310.008 1.7351 -3.8753 0
M  V30 3131 O 311.032 1.39356 -3.27808 0
M  V30 3132 O 309.891 2.36708 -4.92576 0
M  V30 3133 H 306.985 0.389914 -0.729312 0
M  V30 3134 H 309.531 0.0627213 -1.69584 0
M  V30 3135 H 308.303 0.47608 -3.88393 0
M  V30 3136 H 307.926 2.11189 -3.36875 0
M  V30 3137 N 308.923 1.53595 0.353017 0
M  V30 3138 C 310.334 1.61937 0.929153 0
M  V30 3139 C 310.685 0.494686 1.89861 0
M  V30 3140 O 309.81 -0.377017 2.1309 0
M  V30 3141 C 310.405 2.93526 1.69199 0
M  V30 3142 C 308.964 3.04161 2.21727 0
M  V30 3143 C 308.111 2.57322 1.03348 0
M  V30 3144 H 311.062 1.58155 0.131431 0
M  V30 3145 H 311.083 2.82034 2.55416 0
M  V30 3146 H 310.595 3.75362 0.986144 0
M  V30 3147 H 308.696 2.26938 2.95516 0
M  V30 3148 H 308.809 4.09465 2.48748 0
M  V30 3149 H 307.173 2.12499 1.40414 0
M  V30 3150 H 307.956 3.41588 0.342428 0
M  V30 3151 N 310.401 -0.613514 1.45168 0
M  V30 3152 C 311.311 -1.75296 1.55912 0
M  V30 3153 C 312.327 -1.68244 0.443856 0
M  V30 3154 O 313.503 -1.88706 0.70371 0
M  V30 3155 C 310.568 -3.1174 1.5172 0
M  V30 3156 C 309.629 -3.30291 2.74238 0
M  V30 3157 C 308.862 -4.60226 2.70236 0
M  V30 3158 O 309.085 -5.42168 1.77229 0
M  V30 3159 O 308.019 -4.81361 3.61352 0
M  V30 3160 H 311.845 -1.69183 2.52212 0
M  V30 3161 H 309.43 -0.776886 1.27612 0
M  V30 3162 H 311.312 -3.93044 1.51968 0
M  V30 3163 H 309.987 -3.18357 0.585697 0
M  V30 3164 H 308.894 -2.48598 2.79553 0
M  V30 3165 H 310.227 -3.28547 3.66494 0
M  V30 3166 N 311.879 -1.3236 -0.855495 0
M  V30 3167 C 313.107 -1.2587 -1.64208 0
M  V30 3168 C 313.522 0.173457 -1.88002 0
M  V30 3169 O 312.879 1.11027 -1.44842 0
M  V30 3170 C 312.93 -2.01424 -3.00184 0
M  V30 3171 O 312.651 -3.39051 -2.77445 0
M  V30 3172 C 314.152 -2.01948 -3.94629 0
M  V30 3173 H 311.372 -0.434318 -0.511477 0
M  V30 3174 H 313.916 -1.74469 -1.0668 0
M  V30 3175 H 312.071 -1.56549 -3.5436 0
M  V30 3176 H 312.485 -3.77711 -3.63916 0
M  V30 3177 H 313.959 -2.59297 -4.87308 0
M  V30 3178 H 314.436 -1.00554 -4.27534 0
M  V30 3179 H 315.042 -2.46767 -3.4639 0
M  V30 3180 N 313.357 1.07166 -1.15556 0
M  V30 3181 C 314.287 2.16403 -0.877046 0
M  V30 3182 C 315.268 1.69217 0.173111 0
M  V30 3183 O 316.453 1.94181 0.027084 0
M  V30 3184 C 313.583 3.45349 -0.367632 0
M  V30 3185 C 312.537 4.05995 -1.35468 0
M  V30 3186 C 311.863 5.30045 -0.704038 0
M  V30 3187 C 313.163 4.45804 -2.72132 0
M  V30 3188 H 314.857 2.39959 -1.79053 0
M  V30 3189 H 312.403 1.15325 -0.862331 0
M  V30 3190 H 314.356 4.21095 -0.160317 0
M  V30 3191 H 313.08 3.21385 0.581326 0
M  V30 3192 H 311.739 3.32296 -1.54839 0
M  V30 3193 H 311.387 5.02373 0.251128 0
M  V30 3194 H 311.087 5.71579 -1.36277 0
M  V30 3195 H 312.611 6.08495 -0.50654 0
M  V30 3196 H 314.025 5.12671 -2.56595 0
M  V30 3197 H 312.422 4.98296 -3.34397 0
M  V30 3198 H 313.492 3.57083 -3.28054 0
M  V30 3199 N 314.835 0.952656 1.25548 0
M  V30 3200 C 315.785 0.442033 2.23674 0
M  V30 3201 C 316.769 -0.467632 1.53955 0
M  V30 3202 O 317.961 -0.301006 1.74422 0
M  V30 3203 C 315.09 -0.280816 3.4215 0
M  V30 3204 C 314.176 0.646803 4.19139 0
M  V30 3205 N 314.567 1.77759 4.73535 0
M  V30 3206 C 312.865 0.454617 4.43677 0
M  V30 3207 C 313.566 2.35658 5.31827 0
M  V30 3208 N 312.542 1.64333 5.18166 0
M  V30 3209 H 316.344 1.30505 2.63336 0
M  V30 3210 H 313.858 0.809904 1.40763 0
M  V30 3211 H 315.855 -0.663747 4.11582 0
M  V30 3212 H 314.515 -1.14046 3.04012 0
M  V30 3213 H 315.526 2.15949 4.7073 0
M  V30 3214 H 312.203 -0.362312 4.15925 0
M  V30 3215 H 313.593 3.30998 5.84713 0
M  V30 3216 N 316.313 -1.40141 0.720998 0
M  V30 3217 C 317.543 -2.04798 0.27226 0
M  V30 3218 C 317.951 -1.54442 -1.09289 0
M  V30 3219 O 317.294 -0.698342 -1.69908 0
M  V30 3220 C 317.356 -3.59048 0.18027 0
M  V30 3221 C 317.02 -4.32317 1.48159 0
M  V30 3222 C 318.017 -4.59902 2.42458 0
M  V30 3223 C 315.702 -4.71125 1.74202 0
M  V30 3224 C 317.696 -5.25288 3.61042 0
M  V30 3225 C 315.383 -5.36242 2.93066 0
M  V30 3226 C 316.381 -5.63254 3.86308 0
M  V30 3227 O 316.069 -6.27024 5.03086 0
M  V30 3228 H 315.801 -0.665419 0.119139 0
M  V30 3229 H 318.355 -1.80436 0.981432 0
M  V30 3230 H 316.585 -3.82251 -0.58489 0
M  V30 3231 H 318.274 -4.05221 -0.234618 0
M  V30 3232 H 319.04 -4.30379 2.23604 0
M  V30 3233 H 314.919 -4.49466 1.02477 0
M  V30 3234 H 318.463 -5.46289 4.33837 0
M  V30 3235 H 314.36 -5.65185 3.11826 0
M  V30 3236 H 315.128 -6.4552 5.03235 0
M  V30 3237 N 317.792 -0.46758 -1.50504 0
M  V30 3238 C 319.039 0.0886219 -2.02306 0
M  V30 3239 C 319.367 1.40037 -1.34981 0
M  V30 3240 O 318.622 1.90136 -0.463318 0
M  V30 3241 C 318.921 0.323995 -3.55928 0
M  V30 3242 C 318.587 -0.905618 -4.41712 0
M  V30 3243 C 317.249 -1.24275 -4.64875 0
M  V30 3244 C 319.601 -1.72448 -4.91845 0
M  V30 3245 C 316.929 -2.39888 -5.35417 0
M  V30 3246 C 319.281 -2.87185 -5.63656 0
M  V30 3247 C 317.945 -3.21317 -5.85074 0
M  V30 3248 H 317.215 0.0324291 -0.74029 0
M  V30 3249 H 319.862 -0.620945 -1.81153 0
M  V30 3250 H 318.167 1.11577 -3.75577 0
M  V30 3251 H 319.864 0.76826 -3.93572 0
M  V30 3252 H 316.454 -0.632956 -4.239 0
M  V30 3253 H 320.638 -1.4772 -4.73806 0
M  V30 3254 H 315.894 -2.66611 -5.50208 0
M  V30 3255 H 320.068 -3.50985 -6.01484 0
M  V30 3256 H 317.695 -4.1101 -6.39511 0
M  V30 3257 N 319.27 1.56325 -0.20005 0
M  V30 3258 C 320.686 1.58839 0.155716 0
M  V30 3259 C 320.886 1.21636 1.60645 0
M  V30 3260 O 319.942 0.941437 2.34293 0
M  V30 3261 C 321.255 3.0032 -0.151124 0
M  V30 3262 C 322.803 3.12866 -0.0916284 0
M  V30 3263 C 323.278 4.56488 -0.371845 0
M  V30 3264 N 324.769 4.62089 -0.320641 0
M  V30 3265 C 325.504 5.71116 -0.511243 0
M  V30 3266 N 325 6.88592 -0.762461 0
M  V30 3267 N 326.793 5.60335 -0.445157 0
M  V30 3268 H 318.944 1.78788 -1.14668 0
M  V30 3269 H 321.207 0.829996 -0.458051 0
M  V30 3270 H 320.913 3.32117 -1.15721 0
M  V30 3271 H 320.787 3.73257 0.543986 0
M  V30 3272 H 323.174 2.80878 0.905065 0
M  V30 3273 H 323.255 2.42304 -0.81989 0
M  V30 3274 H 322.899 4.89189 -1.36588 0
M  V30 3275 H 322.829 5.25246 0.377362 0
M  V30 3276 H 325.32 3.77665 -0.13329 0
M  V30 3277 H 325.633 7.67581 -0.896576 0
M  V30 3278 H 323.978 6.90387 -0.799412 0
M  V30 3279 H 327.169 4.67436 -0.249278 0
M  V30 3280 H 327.342 6.45243 -0.597116 0
M  V30 3281 N 320.748 -0.0735177 1.57428 0
M  V30 3282 C 322.025 -0.805903 1.78226 0
M  V30 3283 C 322.405 -1.95874 0.787189 0
M  V30 3284 O 321.753 -2.2779 -0.180029 0
M  V30 3285 C 321.963 -1.28045 3.24662 0
M  V30 3286 C 323.311 -1.71453 3.88444 0
M  V30 3287 O 324.335 -1.37616 3.28543 0
M  V30 3288 O 323.194 -2.34093 4.93825 0
M  V30 3289 H 320.288 -0.386041 0.73137 0
M  V30 3290 H 322.834 -0.0537269 1.69615 0
M  V30 3291 H 321.606 -0.455476 3.8864 0
M  V30 3292 H 321.229 -2.094 3.37991 0
M  V30 3293 N 322.226 -1.5378 -0.344866 0
M  V30 3294 C 323.156 -1.84662 -1.42906 0
M  V30 3295 C 324.137 -0.701648 -1.54955 0
M  V30 3296 O 325.322 -0.953438 -1.69184 0
M  V30 3297 C 322.452 -2.05503 -2.79974 0
M  V30 3298 C 321.406 -3.21318 -2.82734 0
M  V30 3299 C 320.732 -3.2749 -4.22675 0
M  V30 3300 C 322.032 -4.59456 -2.48389 0
M  V30 3301 H 323.726 -2.75461 -1.17311 0
M  V30 3302 H 321.272 -1.32542 -0.562896 0
M  V30 3303 H 323.225 -2.25691 -3.55867 0
M  V30 3304 H 321.949 -1.11434 -3.07002 0
M  V30 3305 H 320.608 -3.00984 -2.09294 0
M  V30 3306 H 320.256 -2.31019 -4.4681 0
M  V30 3307 H 319.956 -4.05316 -4.25433 0
M  V30 3308 H 321.48 -3.49887 -5.00412 0
M  V30 3309 H 322.894 -4.79667 -3.13995 0
M  V30 3310 H 321.291 -5.39675 -2.62432 0
M  V30 3311 H 322.361 -4.63155 -1.4358 0
M  V30 3312 N 323.704 0.605807 -1.45491 0
M  V30 3313 C 324.934 1.38934 -1.52908 0
M  V30 3314 C 325.342 1.88513 -0.161086 0
M  V30 3315 O 324.685 1.62962 0.847891 0
M  V30 3316 C 324.747 2.62737 -2.45376 0
M  V30 3317 C 324.411 2.34785 -3.92078 0
M  V30 3318 C 325.408 1.95038 -4.8193 0
M  V30 3319 C 323.093 2.47642 -4.37011 0
M  V30 3320 C 325.087 1.68511 -6.14722 0
M  V30 3321 C 322.774 2.20728 -5.69844 0
M  V30 3322 C 323.772 1.81225 -6.58519 0
M  V30 3323 O 323.46 1.54627 -7.88889 0
M  V30 3324 H 323.192 0.431629 -0.520262 0
M  V30 3325 H 325.746 0.74573 -1.91384 0
M  V30 3326 H 323.976 3.29824 -2.01874 0
M  V30 3327 H 325.665 3.24783 -2.43456 0
M  V30 3328 H 326.431 1.84639 -4.48479 0
M  V30 3329 H 322.31 2.77356 -3.68232 0
M  V30 3330 H 325.854 1.37602 -6.83894 0
M  V30 3331 H 321.751 2.30744 -6.02849 0
M  V30 3332 H 322.519 1.68665 -8.00933 0
M  V30 3333 N 325.182 1.32811 0.848464 0
M  V30 3334 C 326.112 1.24882 1.97299 0
M  V30 3335 C 327.093 0.131357 1.69592 0
M  V30 3336 O 328.278 0.319553 1.91553 0
M  V30 3337 C 325.408 0.97746 3.33261 0
M  V30 3338 C 324.362 2.05682 3.75338 0
M  V30 3339 C 323.688 1.63777 5.09 0
M  V30 3340 C 324.988 3.47254 3.90144 0
M  V30 3341 H 326.682 2.18966 2.04191 0
M  V30 3342 H 324.228 1.05413 0.981029 0
M  V30 3343 H 326.181 0.908513 4.1149 0
M  V30 3344 H 324.905 0.000980011 3.266 0
M  V30 3345 H 323.564 2.11603 2.99366 0
M  V30 3346 H 323.212 0.648569 4.98801 0
M  V30 3347 H 322.912 2.36 5.38124 0
M  V30 3348 H 324.436 1.5833 5.89715 0
M  V30 3349 H 325.85 3.43888 4.58709 0
M  V30 3350 H 324.247 4.1788 4.30693 0
M  V30 3351 H 325.317 3.86462 2.92874 0
M  V30 3352 N 326.66 -1.06551 1.16123 0
M  V30 3353 C 328.071 -1.60768 0.949232 0
M  V30 3354 C 328.422 -1.89523 -0.507508 0
M  V30 3355 O 327.547 -1.66671 -1.38021 0
M  V30 3356 C 328.142 -2.92086 1.71671 0
M  V30 3357 C 326.701 -3.43015 1.54977 0
M  V30 3358 C 325.848 -2.16947 1.72711 0
M  V30 3359 H 328.799 -0.895354 1.31031 0
M  V30 3360 H 328.82 -3.6138 1.19099 0
M  V30 3361 H 328.332 -2.71127 2.7769 0
M  V30 3362 H 326.433 -3.69039 0.513873 0
M  V30 3363 H 326.546 -4.18516 2.33198 0
M  V30 3364 H 324.91 -2.27041 1.15431 0
M  V30 3365 H 325.693 -1.98473 2.80113 0
M  V30 3366 N 328.138 -0.959301 -1.25041 0
M  V30 3367 C 329.101 -0.487677 -2.23952 0
M  V30 3368 C 330.101 0.41119 -1.55454 0
M  V30 3369 O 331.291 0.207825 -1.72956 0
M  V30 3370 C 328.423 0.294807 -3.39623 0
M  V30 3371 H 329.616 -1.36198 -2.67189 0
M  V30 3372 H 327.169 -0.743042 -1.37508 0
M  V30 3373 H 327.904 1.18658 -3.01813 0
M  V30 3374 H 327.689 -0.35012 -3.90534 0
M  V30 3375 H 329.179 0.614089 -4.1306 0
M  V30 3376 N 329.616 1.39756 -0.72842 0
M  V30 3377 C 330.841 2.05472 -0.282159 0
M  V30 3378 C 331.266 1.54549 1.07221 0
M  V30 3379 O 330.624 0.686372 1.67805 0
M  V30 3380 C 330.672 3.59462 -0.286264 0
M  V30 3381 O 329.776 4.05918 0.728298 0
M  V30 3382 H 329.117 0.651226 -0.129618 0
M  V30 3383 H 331.647 1.78915 -0.992499 0
M  V30 3384 H 331.657 4.07798 -0.128373 0
M  V30 3385 H 330.332 3.95889 -1.27456 0
M  V30 3386 H 328.909 3.69012 0.537081 0
M  V30 3387 N 331.094 0.475555 1.50254 0
M  V30 3388 C 332.51 0.12997 1.5907 0
M  V30 3389 C 332.71 -1.36385 1.48328 0
M  V30 3390 O 331.766 -2.13754 1.34407 0
M  V30 3391 C 333.079 0.684139 2.92814 0
M  V30 3392 C 334.627 0.647965 3.0622 0
M  V30 3393 C 335.102 1.17975 4.42545 0
M  V30 3394 N 336.593 1.13936 4.48969 0
M  V30 3395 C 337.328 1.52129 5.52851 0
M  V30 3396 N 336.824 1.97793 6.63965 0
M  V30 3397 N 338.617 1.43704 5.4342 0
M  V30 3398 H 330.768 1.44706 1.55479 0
M  V30 3399 H 333.031 0.598691 0.735033 0
M  V30 3400 H 332.737 1.73079 3.06164 0
M  V30 3401 H 332.611 0.130204 3.76975 0
M  V30 3402 H 334.998 -0.38979 2.92514 0
M  V30 3403 H 335.079 1.23876 2.23805 0
M  V30 3404 H 334.723 2.21616 4.57 0
M  V30 3405 H 334.653 0.565138 5.23559 0
M  V30 3406 H 337.144 0.804488 3.69238 0
M  V30 3407 H 337.457 2.25072 7.39299 0
M  V30 3408 H 335.802 2.01749 6.65073 0
M  V30 3409 H 338.993 1.07867 4.55502 0
M  V30 3410 H 339.166 1.73794 6.24259 0
M  V30 3411 N 332.573 -1.56217 0.208337 0
M  V30 3412 C 333.52 -2.19699 -0.707192 0
M  V30 3413 C 334.49 -1.14836 -1.20008 0
M  V30 3414 O 335.675 -1.4314 -1.26157 0
M  V30 3415 C 332.815 -2.87061 -1.91546 0
M  V30 3416 C 331.928 -4.06483 -1.46271 0
M  V30 3417 C 331.063 -4.61665 -2.62752 0
M  V30 3418 C 330.102 -5.73417 -2.14147 0
M  V30 3419 N 329.239 -6.22948 -3.23853 0
M  V30 3420 H 334.079 -2.97575 -0.159111 0
M  V30 3421 H 331.616 -1.46948 -0.0667874 0
M  V30 3422 H 333.574 -3.24294 -2.62468 0
M  V30 3423 H 332.204 -2.11725 -2.43664 0
M  V30 3424 H 331.256 -3.74825 -0.648886 0
M  V30 3425 H 332.568 -4.87271 -1.06622 0
M  V30 3426 H 331.722 -5.01272 -3.41776 0
M  V30 3427 H 330.461 -3.80013 -3.05682 0
M  V30 3428 H 329.466 -5.33326 -1.33581 0
M  V30 3429 H 330.691 -6.56897 -1.72232 0
M  V30 3430 H 328.637 -5.44213 -3.6629 0
M  V30 3431 H 328.554 -6.98823 -2.88414 0
M  V30 3432 H 329.822 -6.6721 -4.03052 0
M  V30 3433 N 334.051 0.0651679 -1.57465 0
M  V30 3434 C 334.981 1.07693 -2.07182 0
M  V30 3435 C 335.962 1.39962 -0.966673 0
M  V30 3436 O 337.147 1.49475 -1.2398 0
M  V30 3437 C 334.277 2.3885 -2.52127 0
M  V30 3438 C 333.231 2.20917 -3.66579 0
M  V30 3439 C 332.557 3.57515 -3.97601 0
M  V30 3440 C 333.857 1.62493 -4.9638 0
M  V30 3441 H 335.551 0.663199 -2.91962 0
M  V30 3442 H 333.097 0.317569 -1.40455 0
M  V30 3443 H 335.05 3.09928 -2.85522 0
M  V30 3444 H 333.774 2.82215 -1.64384 0
M  V30 3445 H 332.433 1.52279 -3.33477 0
M  V30 3446 H 332.081 3.98463 -3.06979 0
M  V30 3447 H 331.781 3.46353 -4.74672 0
M  V30 3448 H 333.305 4.30013 -4.33499 0
M  V30 3449 H 334.719 2.23445 -5.27963 0
M  V30 3450 H 333.116 1.62009 -5.77818 0
M  V30 3451 H 334.186 0.587041 -4.81333 0
M  V30 3452 N 335.529 1.53961 0.336706 0
M  V30 3453 C 336.776 1.71536 1.07618 0
M  V30 3454 C 337.104 0.482125 1.8843 0
M  V30 3455 O 336.359 -0.536142 1.88213 0
M  V30 3456 C 336.658 2.93493 2.03953 0
M  V30 3457 C 336.324 4.28811 1.39399 0
M  V30 3458 C 334.986 4.65602 1.21523 0
M  V30 3459 C 337.338 5.12844 0.929541 0
M  V30 3460 C 334.666 5.84037 0.558312 0
M  V30 3461 C 337.018 6.31951 0.286505 0
M  V30 3462 C 335.682 6.67432 0.0954869 0
M  V30 3463 H 334.952 0.627696 0.393801 0
M  V30 3464 H 337.599 1.88186 0.354715 0
M  V30 3465 H 335.904 2.71475 2.82504 0
M  V30 3466 H 337.601 3.04285 2.61174 0
M  V30 3467 H 334.191 3.99858 1.54311 0
M  V30 3468 H 338.375 4.84947 1.05548 0
M  V30 3469 H 333.631 6.10097 0.398995 0
M  V30 3470 H 337.805 6.96352 -0.0814376 0
M  V30 3471 H 335.432 7.59063 -0.415579 0
M  V30 3472 N 337.007 -0.598083 1.45811 0
M  V30 3473 C 338.247 -1.36802 1.5187 0
M  V30 3474 C 338.611 -1.9133 0.160224 0
M  V30 3475 O 339.812 -2.6863 0.0955302 0
M  V30 3476 C 338.083 -2.47835 2.57513 0
M  V30 3477 S 339.642 -3.35458 2.82866 0
M  V30 3478 H 336.46 -0.466278 0.536755 0
M  V30 3479 H 339.062 -0.689152 1.82951 0
M  V30 3480 H 337.766 -2.06141 3.54872 0
M  V30 3481 H 337.297 -3.20512 2.28114 0
M  V30 3482 H 339.312 -4.46251 2.16967 0
M  V30 3483 N 338.485 -1.33259 -0.841409 0
M  V30 3484 C 339.71 -1.2775 -1.63385 0
M  V30 3485 C 340.135 0.149188 -1.87507 0
M  V30 3486 O 339.493 1.10498 -1.43736 0
M  V30 3487 C 339.541 -2.05571 -2.96265 0
M  V30 3488 O 338.645 -1.41257 -3.87453 0
M  V30 3489 H 337.986 -0.439627 -0.497618 0
M  V30 3490 H 340.516 -1.75782 -1.04699 0
M  V30 3491 H 340.526 -2.16241 -3.45982 0
M  V30 3492 H 339.201 -3.09309 -2.7803 0
M  V30 3493 H 337.778 -1.39217 -3.45938 0
M  V30 3494 N 339.963 1.05934 -1.16686 0
M  V30 3495 C 341.209 1.79065 -0.95203 0
M  V30 3496 C 341.542 1.87147 0.518629 0
M  V30 3497 O 340.817 1.36574 1.38484 0
M  V30 3498 C 341.1 3.23359 -1.58464 0
M  V30 3499 C 340.953 3.23336 -3.12689 0
M  V30 3500 C 342.272 4.21004 -1.28232 0
M  V30 3501 H 339.391 0.65005 -0.34728 0
M  V30 3502 H 342.033 1.23868 -1.44072 0
M  V30 3503 H 340.183 3.70493 -1.16908 0
M  V30 3504 H 341.855 2.84336 -3.6325 0
M  V30 3505 H 340.098 2.61886 -3.4583 0
M  V30 3506 H 340.769 4.25144 -3.52075 0
M  V30 3507 H 343.245 3.8233 -1.64203 0
M  V30 3508 H 342.121 5.20225 -1.75092 0
M  V30 3509 H 342.382 4.41639 -0.201791 0
M  V30 3510 N 341.441 0.965919 1.2453 0
M  V30 3511 C 342.689 0.625593 1.92174 0
M  V30 3512 C 343.01 -0.841652 1.75901 0
M  V30 3513 O 342.28 -1.60061 1.12948 0
M  V30 3514 H 340.86 0.228388 0.71123 0
M  V30 3515 H 343.522 1.2266 1.51461 0
M  V30 3516 H 342.618 0.864653 2.99884 0
M  V30 3517 N 342.919 -1.39368 0.735821 0
M  V30 3518 C 343.851 -2.2913 0.0567723 0
M  V30 3519 C 344.864 -1.46859 -0.702589 0
M  V30 3520 O 346.053 -1.69925 -0.546616 0
M  V30 3521 C 343.153 -3.25492 -0.943823 0
M  V30 3522 C 342.326 -4.36709 -0.24581 0
M  V30 3523 C 341.385 -5.13376 -1.15463 0
M  V30 3524 O 340.411 -5.65683 -0.631803 0
M  V30 3525 N 341.613 -5.24656 -2.48427 0
M  V30 3526 H 344.378 -2.88047 0.827582 0
M  V30 3527 H 341.939 -1.50957 0.585112 0
M  V30 3528 H 343.931 -3.73657 -1.55443 0
M  V30 3529 H 342.501 -2.676 -1.61583 0
M  V30 3530 H 341.721 -3.9041 0.545286 0
M  V30 3531 H 343.009 -5.08244 0.237891 0
M  V30 3532 H 342.407 -4.83679 -2.93379 0
M  V30 3533 H 340.964 -5.76258 -3.04582 0
M  V30 3534 N 344.397 -0.483516 -1.5 0
M  V30 3535 C 345.345 0.318061 -2.30415 0
M  V30 3536 C 346.339 0.978988 -1.38247 0
M  V30 3537 O 347.545 0.908673 -1.55381 0
M  V30 3538 H 343.92 0.121419 -0.742133 0
M  V30 3539 H 345.891 -0.380403 -2.95965 0
M  V30 3540 C 344.64 1.38013 -3.19136 0
M  V30 3541 H 343.963 0.880952 -3.89973 0
M  V30 3542 H 345.403 1.91332 -3.78375 0
M  V30 3543 C 343.862 2.38884 -2.37563 0
M  V30 3544 O 344.392 3.44412 -2.06744 0
M  V30 3545 N 342.598 2.10912 -1.99911 0
M  V30 3546 H 342.145 1.25118 -2.25174 0
M  V30 3547 H 342.103 2.78635 -1.45636 0
M  V30 3548 N 345.875 1.56104 -0.216619 0
M  V30 3549 C 347.286 1.844 0.292128 0
M  V30 3550 C 347.637 1.13788 1.59833 0
M  V30 3551 O 346.762 0.405888 2.12559 0
M  V30 3552 C 347.357 3.3452 0.53681 0
M  V30 3553 C 345.916 3.63151 0.989876 0
M  V30 3554 C 345.063 2.77255 0.0502302 0
M  V30 3555 H 348.014 1.52481 -0.439926 0
M  V30 3556 H 348.035 3.54459 1.38345 0
M  V30 3557 H 347.547 3.85885 -0.414031 0
M  V30 3558 H 345.648 3.17238 1.95425 0
M  V30 3559 H 345.761 4.71177 0.867698 0
M  V30 3560 H 344.125 2.48555 0.556117 0
M  V30 3561 H 344.908 3.31416 -0.89544 0
M  V30 3562 N 347.353 -0.0568162 1.57498 0
M  V30 3563 C 348.285 -1.09292 2.01464 0
M  V30 3564 C 349.298 -1.34112 0.922913 0
M  V30 3565 O 350.487 -1.32089 1.20062 0
M  V30 3566 C 347.587 -2.44068 2.35125 0
M  V30 3567 C 346.76 -2.38995 3.66333 0
M  V30 3568 C 345.819 -3.55997 3.87495 0
M  V30 3569 O 344.845 -3.36746 4.58901 0
M  V30 3570 N 346.047 -4.76888 3.30996 0
M  V30 3571 H 348.812 -0.718386 2.90963 0
M  V30 3572 H 346.373 -0.245235 1.60032 0
M  V30 3573 H 348.365 -3.21011 2.46443 0
M  V30 3574 H 346.935 -2.73468 1.5144 0
M  V30 3575 H 346.155 -1.47336 3.65631 0
M  V30 3576 H 347.443 -2.3272 4.52458 0
M  V30 3577 H 346.841 -4.95431 2.73065 0
M  V30 3578 H 345.398 -5.51291 3.47738 0
M  V30 3579 N 348.832 -1.54138 -0.328536 0
M  V30 3580 C 350.109 -1.62749 -1.08499 0
M  V30 3581 C 350.489 -0.458198 -2.06067 0
M  V30 3582 O 349.837 0.548046 -2.2183 0
M  V30 3583 C 350.047 -2.99519 -1.79135 0
M  V30 3584 C 351.395 -3.55394 -2.32337 0
M  V30 3585 O 352.419 -3.01792 -1.89209 0
M  V30 3586 O 351.278 -4.49186 -3.11279 0
M  V30 3587 H 348.372 -0.65886 -0.499832 0
M  V30 3588 H 350.918 -1.66484 -0.328826 0
M  V30 3589 H 349.69 -3.76061 -1.08139 0
M  V30 3590 H 349.313 -2.99441 -2.61574 0
M  V30 3591 N 350.31 0.590341 -1.46126 0
M  V30 3592 C 351.556 1.35082 -1.51264 0
M  V30 3593 C 351.889 1.93534 -0.160711 0
M  V30 3594 O 351.164 1.76045 0.826956 0
M  V30 3595 C 351.447 2.48588 -2.6053 0
M  V30 3596 C 351.3 1.95221 -4.05227 0
M  V30 3597 C 352.619 3.50662 -2.6594 0
M  V30 3598 H 349.738 0.489803 -0.550692 0
M  V30 3599 H 352.38 0.663887 -1.78024 0
M  V30 3600 H 350.53 3.07186 -2.37843 0
M  V30 3601 H 352.202 1.41139 -4.39178 0
M  V30 3602 H 350.445 1.26101 -4.15068 0
M  V30 3603 H 351.116 2.77121 -4.77397 0
M  V30 3604 H 353.592 3.01934 -2.86313 0
M  V30 3605 H 352.468 4.27551 -3.44226 0
M  V30 3606 H 352.729 4.07399 -1.71694 0
M  V30 3607 N 351.788 1.33704 0.83433 0
M  V30 3608 C 353.034 1.25603 1.59222 0
M  V30 3609 C 353.367 -0.176659 1.93395 0
M  V30 3610 O 352.642 -1.11915 1.59076 0
M  V30 3611 C 352.925 2.13576 2.89926 0
M  V30 3612 C 352.778 3.65326 2.62406 0
M  V30 3613 C 354.097 2.01238 3.91397 0
M  V30 3614 H 351.216 0.457613 0.577719 0
M  V30 3615 H 353.858 1.63848 0.961972 0
M  V30 3616 H 352.008 1.8109 3.43713 0
M  V30 3617 H 353.68 4.08124 2.15017 0
M  V30 3618 H 351.923 3.8698 1.96033 0
M  V30 3619 H 352.594 4.22232 3.55562 0
M  V30 3620 H 355.07 2.29738 3.46929 0
M  V30 3621 H 353.946 2.65036 4.80673 0
M  V30 3622 H 354.207 0.985951 4.30966 0
M  V30 3623 N 353.266 -1.05314 1.17247 0
M  V30 3624 C 354.198 -2.13023 0.845812 0
M  V30 3625 C 355.211 -1.62096 -0.151246 0
M  V30 3626 O 356.4 -1.78343 0.0748818 0
M  V30 3627 C 353.5 -3.38047 0.240292 0
M  V30 3628 C 352.673 -4.18255 1.27991 0
M  V30 3629 C 351.732 -5.21625 0.692375 0
M  V30 3630 O 350.758 -5.52619 1.36385 0
M  V30 3631 N 351.96 -5.78201 -0.516178 0
M  V30 3632 H 354.725 -2.41642 1.77283 0
M  V30 3633 H 352.286 -1.21401 1.07115 0
M  V30 3634 H 354.278 -4.04359 -0.16603 0
M  V30 3635 H 352.848 -3.06972 -0.590487 0
M  V30 3636 H 352.068 -3.47451 1.86203 0
M  V30 3637 H 353.356 -4.68643 1.98119 0
M  V30 3638 H 352.754 -5.55301 -1.07969 0
M  V30 3639 H 351.311 -6.4604 -0.86458 0
M  V30 3640 N 354.744 -0.972509 -1.24016 0
M  V30 3641 C 355.707 -0.511403 -2.23422 0
M  V30 3642 C 356.707 0.394679 -1.55881 0
M  V30 3643 O 357.897 0.189469 -1.73167 0
M  V30 3644 C 355.029 0.258769 -3.39916 0
M  V30 3645 H 356.222 -1.39024 -2.6573 0
M  V30 3646 H 353.775 -0.757585 -1.36713 0
M  V30 3647 H 354.51 1.1545 -3.03054 0
M  V30 3648 H 354.295 -0.391522 -3.9014 0
M  V30 3649 H 355.785 0.570244 -4.13688 0
M  V30 3650 N 356.222 1.38976 -0.743202 0
M  V30 3651 C 357.471 1.99581 -0.291592 0
M  V30 3652 C 357.784 1.59656 1.13001 0
M  V30 3653 O 358.99 2.13157 1.68156 0
M  V30 3654 C 357.446 3.56813 -0.470391 0
M  V30 3655 C 357.054 4.05695 -1.90041 0
M  V30 3656 C 358.798 4.24423 -0.0809709 0
M  V30 3657 C 356.705 5.5553 -2.02832 0
M  V30 3658 H 355.635 0.746615 -0.105272 0
M  V30 3659 H 358.286 1.58872 -0.918258 0
M  V30 3660 H 356.668 3.95359 0.225299 0
M  V30 3661 H 357.842 3.78464 -2.62872 0
M  V30 3662 H 356.157 3.50775 -2.24379 0
M  V30 3663 H 358.754 5.34474 -0.155445 0
M  V30 3664 H 359.097 4.04962 0.96497 0
M  V30 3665 H 359.63 3.9108 -0.728124 0
M  V30 3666 H 356.369 5.79881 -3.05643 0
M  V30 3667 H 355.889 5.84537 -1.34448 0
M  V30 3668 H 357.568 6.21069 -1.81335 0
M  V30 3669 N 357.7 0.491464 1.49741 0
M  V30 3670 C 358.946 -0.0565092 2.02721 0
M  V30 3671 C 359.279 -1.37522 1.37118 0
M  V30 3672 O 358.554 -1.87866 0.503645 0
M  V30 3673 C 358.837 -0.219051 3.59433 0
M  V30 3674 C 358.69 1.12211 4.35579 0
M  V30 3675 C 360.009 -0.964157 4.29409 0
M  V30 3676 H 357.128 -0.0190627 0.736753 0
M  V30 3677 H 359.77 0.641021 1.7886 0
M  V30 3678 H 357.92 -0.813165 3.79895 0
M  V30 3679 H 359.592 1.75437 4.26637 0
M  V30 3680 H 357.835 1.71377 3.98513 0
M  V30 3681 H 358.506 0.961794 5.43556 0
M  V30 3682 H 360.982 -0.460378 4.13545 0
M  V30 3683 H 359.858 -1.04671 5.38828 0
M  V30 3684 H 360.119 -2.00563 3.93988 0
M  V30 3685 N 359.178 -1.55987 0.224894 0
M  V30 3686 C 360.126 -2.21808 -0.700283 0
M  V30 3687 C 361.12 -1.19854 -1.19714 0
M  V30 3688 O 362.326 -1.37925 -1.15658 0
M  V30 3689 H 358.701 -0.711226 -0.244258 0
M  V30 3690 H 360.672 -2.98152 -0.121749 0
M  V30 3691 C 359.421 -2.91444 -1.8962 0
M  V30 3692 H 358.744 -3.69655 -1.52299 0
M  V30 3693 H 360.184 -3.40894 -2.52125 0
M  V30 3694 C 358.643 -1.94098 -2.75368 0
M  V30 3695 O 359.173 -1.46004 -3.74227 0
M  V30 3696 N 357.379 -1.61675 -2.41474 0
M  V30 3697 H 356.926 -2.00979 -1.61137 0
M  V30 3698 H 356.884 -0.968036 -2.99126 0
M  V30 3699 N 360.656 0.0484629 -1.57525 0
M  V30 3700 C 361.902 0.744226 -1.88651 0
M  V30 3701 C 362.235 1.76029 -0.820212 0
M  V30 3702 O 361.51 1.93782 0.166985 0
M  V30 3703 C 361.793 1.43128 -3.30434 0
M  V30 3704 C 361.646 0.43005 -4.47739 0
M  V30 3705 C 362.965 2.37031 -3.70816 0
M  V30 3706 H 360.084 0.269089 -0.68612 0
M  V30 3707 H 362.726 0.00713532 -1.89999 0
M  V30 3708 H 360.876 2.05956 -3.29415 0
M  V30 3709 H 362.548 -0.194816 -4.60888 0
M  V30 3710 H 360.791 -0.252522 -4.33064 0
M  V30 3711 H 361.462 0.948874 -5.43783 0
M  V30 3712 H 363.938 1.84263 -3.73077 0
M  V30 3713 H 362.814 2.82094 -4.70865 0
M  V30 3714 H 363.075 3.22864 -3.02012 0
M  V30 3715 N 362.134 1.5431 0.320358 0
M  V30 3716 C 363.383 1.7188 1.05546 0
M  V30 3717 C 363.696 0.501143 1.89071 0
M  V30 3718 O 364.902 0.558258 2.65699 0
M  V30 3719 C 363.358 3.04025 1.92605 0
M  V30 3720 C 362.966 4.33207 1.14176 0
M  V30 3721 C 364.71 3.30959 2.65832 0
M  V30 3722 C 362.617 5.56412 2.00399 0
M  V30 3723 H 361.547 0.640547 0.397763 0
M  V30 3724 H 364.198 1.80802 0.313522 0
M  V30 3725 H 362.58 2.89019 2.7071 0
M  V30 3726 H 363.754 4.58989 0.40819 0
M  V30 3727 H 362.069 4.13062 0.526165 0
M  V30 3728 H 364.666 4.20203 3.30656 0
M  V30 3729 H 365.009 2.48979 3.33639 0
M  V30 3730 H 365.542 3.46847 1.94787 0
M  V30 3731 H 362.281 6.41004 1.37094 0
M  V30 3732 H 361.801 5.34844 2.7148 0
M  V30 3733 H 363.48 5.92938 2.58908 0
M  V30 3734 N 363.613 -0.582584 1.46437 0
M  V30 3735 C 364.838 -1.37168 1.55563 0
M  V30 3736 C 365.263 -1.87061 0.19743 0
M  V30 3737 O 364.621 -1.61572 -0.822451 0
M  V30 3738 C 364.669 -2.53511 2.56446 0
M  V30 3739 O 363.773 -3.54953 2.09958 0
M  V30 3740 H 363.114 -0.408494 0.523477 0
M  V30 3741 H 365.644 -0.706646 1.9201 0
M  V30 3742 H 365.654 -3.00426 2.76058 0
M  V30 3743 H 364.329 -2.16549 3.55076 0
M  V30 3744 H 362.906 -3.14516 2.00334 0
M  V30 3745 N 365.091 -1.34144 -0.827227 0
M  V30 3746 C 366.316 -1.29476 -1.62021 0
M  V30 3747 C 366.741 0.129292 -1.87655 0
M  V30 3748 O 366.099 1.08967 -1.449 0
M  V30 3749 C 366.147 -2.08702 -2.94068 0
M  V30 3750 O 365.251 -1.45359 -3.85933 0
M  V30 3751 H 364.592 -0.444881 -0.492927 0
M  V30 3752 H 367.122 -1.76882 -1.02829 0
M  V30 3753 H 367.132 -2.19898 -3.43669 0
M  V30 3754 H 365.807 -3.12241 -2.74734 0
M  V30 3755 H 364.384 -1.42879 -3.44442 0
M  V30 3756 N 366.569 1.04691 -1.17803 0
M  V30 3757 C 367.797 1.81446 -0.99423 0
M  V30 3758 C 368.212 1.83174 0.457459 0
M  V30 3759 O 367.569 1.26265 1.31771 0
M  V30 3760 C 367.62 3.27334 -1.5341 0
M  V30 3761 O 367.341 3.25798 -2.92895 0
M  V30 3762 C 368.842 4.20759 -1.39559 0
M  V30 3763 H 366.062 0.571599 -0.351447 0
M  V30 3764 H 368.606 1.31982 -1.56208 0
M  V30 3765 H 366.761 3.74052 -1.00815 0
M  V30 3766 H 367.175 4.17144 -3.17949 0
M  V30 3767 H 368.649 5.21084 -1.82141 0
M  V30 3768 H 369.126 4.37856 -0.343394 0
M  V30 3769 H 369.732 3.79901 -1.91195 0
M  V30 3770 N 368.047 0.979072 1.23499 0
M  V30 3771 C 369.463 0.687475 1.44034 0
M  V30 3772 C 369.663 -0.746801 1.8715 0
M  V30 3773 O 368.719 -1.51939 2.0167 0
M  V30 3774 C 370.032 1.68127 2.49307 0
M  V30 3775 C 371.58 1.69516 2.63122 0
M  V30 3776 C 372.055 2.67723 3.71603 0
M  V30 3777 N 373.546 2.66233 3.79044 0
M  V30 3778 C 374.281 3.38891 4.62537 0
M  V30 3779 N 373.777 4.21103 5.50131 0
M  V30 3780 N 375.57 3.27661 4.56721 0
M  V30 3781 H 367.721 1.90559 0.938135 0
M  V30 3782 H 369.984 0.821051 0.473897 0
M  V30 3783 H 369.69 2.70693 2.2454 0
M  V30 3784 H 369.564 1.46306 3.4767 0
M  V30 3785 H 371.951 0.676561 2.8724 0
M  V30 3786 H 372.032 1.95404 1.65079 0
M  V30 3787 H 371.676 3.69724 3.48233 0
M  V30 3788 H 371.606 2.39111 4.69184 0
M  V30 3789 H 374.097 2.06568 3.16446 0
M  V30 3790 H 374.41 4.73403 6.10827 0
M  V30 3791 H 372.755 4.25195 5.49759 0
M  V30 3792 H 375.946 2.62887 3.87309 0
M  V30 3793 H 376.119 3.84547 5.21562 0
M  V30 3794 N 369.525 -1.3858 0.750561 0
M  V30 3795 C 370.936 -1.82927 0.373438 0
M  V30 3796 C 371.287 -1.62634 -1.09748 0
M  V30 3797 O 370.412 -1.12588 -1.84805 0
M  V30 3798 C 371.007 -3.32088 0.671029 0
M  V30 3799 C 369.566 -3.74795 0.34722 0
M  V30 3800 C 368.713 -2.61391 0.92575 0
M  V30 3801 H 371.664 -1.27351 0.946958 0
M  V30 3802 H 371.685 -3.80465 -0.0518269 0
M  V30 3803 H 371.197 -3.46826 1.74164 0
M  V30 3804 H 369.298 -3.65638 -0.716933 0
M  V30 3805 H 369.411 -4.71667 0.840656 0
M  V30 3806 H 367.775 -2.52265 0.351327 0
M  V30 3807 H 368.558 -2.78929 2.00133 0
M  V30 3808 N 371.003 -0.499398 -1.49478 0
M  V30 3809 C 372.414 -0.051215 -1.8663 0
M  V30 3810 C 372.765 1.36238 -1.41186 0
M  V30 3811 O 371.89 2.01502 -0.789051 0
M  V30 3812 C 372.485 -0.0861651 -3.3869 0
M  V30 3813 C 371.044 0.30667 -3.75149 0
M  V30 3814 C 370.191 -0.459397 -2.73468 0
M  V30 3815 H 373.142 -0.712264 -1.41818 0
M  V30 3816 H 373.163 0.709507 -3.73826 0
M  V30 3817 H 372.675 -1.11512 -3.71735 0
M  V30 3818 H 370.776 1.33892 -3.47712 0
M  V30 3819 H 370.889 -0.0116669 -4.79099 0
M  V30 3820 H 369.253 0.0905645 -2.54539 0
M  V30 3821 H 370.036 -1.4884 -3.09357 0
M  V30 3822 N 372.481 1.55866 -0.233164 0
M  V30 3823 C 373.411 2.23783 0.666599 0
M  V30 3824 C 374.392 1.21343 1.19205 0
M  V30 3825 O 375.577 1.4996 1.23392 0
M  V30 3826 C 372.707 2.92671 1.86978 0
M  V30 3827 C 371.661 4.01682 1.47768 0
M  V30 3828 C 370.987 4.57926 2.76058 0
M  V30 3829 C 372.287 5.18126 0.658993 0
M  V30 3830 H 373.981 2.99232 0.100306 0
M  V30 3831 H 371.527 1.43924 0.046804 0
M  V30 3832 H 373.48 3.3888 2.50476 0
M  V30 3833 H 372.204 2.14688 2.46123 0
M  V30 3834 H 370.863 3.56222 0.866106 0
M  V30 3835 H 370.511 3.76659 3.33372 0
M  V30 3836 H 370.211 5.31505 2.50552 0
M  V30 3837 H 371.735 5.06859 3.40479 0
M  V30 3838 H 373.149 5.60644 1.19795 0
M  V30 3839 H 371.546 5.98009 0.500552 0
M  V30 3840 H 372.616 4.83763 -0.331856 0
M  V30 3841 N 373.959 -0.0401083 1.57549 0
M  V30 3842 C 375.375 -0.395556 1.54621 0
M  V30 3843 C 375.575 -1.77281 0.957799 0
M  V30 3844 O 374.631 -2.45888 0.574031 0
M  V30 3845 C 375.944 -0.307535 2.99123 0
M  V30 3846 C 377.492 -0.385425 3.10618 0
M  V30 3847 C 377.967 -0.326973 4.56831 0
M  V30 3848 N 379.458 -0.386102 4.61588 0
M  V30 3849 C 380.193 -0.363591 5.72246 0
M  V30 3850 N 379.689 -0.29402 6.92176 0
M  V30 3851 N 381.482 -0.412503 5.60584 0
M  V30 3852 H 373.633 0.861325 1.94152 0
M  V30 3853 H 375.896 0.326445 0.890021 0
M  V30 3854 H 375.602 0.638461 3.45856 0
M  V30 3855 H 375.476 -1.10552 3.60636 0
M  V30 3856 H 377.863 -1.32185 2.63839 0
M  V30 3857 H 377.944 0.44171 2.51957 0
M  V30 3858 H 377.588 0.605738 5.04275 0
M  V30 3859 H 377.518 -1.17207 5.13391 0
M  V30 3860 H 380.009 -0.442832 3.75296 0
M  V30 3861 H 380.322 -0.28164 7.72287 0
M  V30 3862 H 378.667 -0.260232 6.94513 0
M  V30 3863 H 381.858 -0.464769 4.65787 0
M  V30 3864 H 382.031 -0.391492 6.46816 0
M  V30 3865 N 375.437 -1.54477 -0.31217 0
M  V30 3866 C 376.853 -1.45442 -0.657185 0
M  V30 3867 C 377.053 -0.63653 -1.91182 0
M  V30 3868 O 376.109 -0.139815 -2.52113 0
M  V30 3869 C 377.422 -2.89287 -0.82058 0
M  V30 3870 C 378.97 -2.9926 -0.917188 0
M  V30 3871 C 379.445 -4.44279 -1.11267 0
M  V30 3872 N 380.936 -4.4794 -1.17914 0
M  V30 3873 C 381.671 -5.57318 -1.34848 0
M  V30 3874 N 381.167 -6.76642 -1.48752 0
M  V30 3875 N 382.96 -5.44986 -1.37647 0
M  V30 3876 H 375.111 -2.06129 0.512313 0
M  V30 3877 H 377.374 -0.933088 0.167485 0
M  V30 3878 H 377.08 -3.51687 0.0302604 0
M  V30 3879 H 376.954 -3.36061 -1.71298 0
M  V30 3880 H 379.341 -2.36981 -1.75852 0
M  V30 3881 H 379.422 -2.558 -0.00101257 0
M  V30 3882 H 379.066 -5.07149 -0.27614 0
M  V30 3883 H 378.996 -4.85359 -2.04289 0
M  V30 3884 H 381.487 -3.61969 -1.08567 0
M  V30 3885 H 381.8 -7.55758 -1.61397 0
M  V30 3886 H 380.145 -6.79529 -1.45828 0
M  V30 3887 H 383.336 -4.50715 -1.26388 0
M  V30 3888 H 383.509 -6.3028 -1.50501 0
M  V30 3889 N 376.915 0.57481 -1.46744 0
M  V30 3890 C 377.847 1.69804 -1.53946 0
M  V30 3891 C 378.86 1.57098 -0.427106 0
M  V30 3892 O 380.049 1.64378 -0.695863 0
M  V30 3893 C 377.149 3.08125 -1.4111 0
M  V30 3894 C 376.322 3.46757 -2.66605 0
M  V30 3895 C 375.381 4.6417 -2.47855 0
M  V30 3896 O 374.407 4.69634 -3.21609 0
M  V30 3897 N 375.609 5.59553 -1.54534 0
M  V30 3898 H 378.374 1.64077 -2.50796 0
M  V30 3899 H 375.935 0.761 -1.429 0
M  V30 3900 H 377.927 3.84478 -1.26328 0
M  V30 3901 H 376.497 3.08175 -0.524109 0
M  V30 3902 H 375.717 2.6003 -2.96274 0
M  V30 3903 H 377.005 3.69337 -3.49954 0
M  V30 3904 H 376.403 5.57881 -0.937304 0
M  V30 3905 H 374.96 6.35304 -1.45711 0
M  V30 3906 N 378.394 1.34581 0.820102 0
M  V30 3907 C 379.622 1.3018 1.60813 0
M  V30 3908 C 380.037 -0.123551 1.88395 0
M  V30 3909 O 379.394 -1.07148 1.47735 0
M  V30 3910 C 379.445 2.09312 2.94739 0
M  V30 3911 O 379.166 3.46288 2.68358 0
M  V30 3912 C 380.667 2.1234 3.89136 0
M  V30 3913 H 377.887 0.447726 0.499782 0
M  V30 3914 H 380.431 1.77237 1.02017 0
M  V30 3915 H 378.586 1.65889 3.50085 0
M  V30 3916 H 379 3.87227 3.53774 0
M  V30 3917 H 380.474 2.72126 4.80262 0
M  V30 3918 H 380.951 1.11854 4.24718 0
M  V30 3919 H 381.557 2.55864 3.39726 0
M  V30 3920 N 379.872 -1.04064 1.18357 0
M  V30 3921 C 380.82 -2.14187 0.907007 0
M  V30 3922 C 381.814 -1.68879 -0.132725 0
M  V30 3923 O 383.02 -1.79993 0.0154248 0
M  V30 3924 H 379.395 -0.699585 0.275835 0
M  V30 3925 H 381.366 -2.34711 1.84264 0
M  V30 3926 C 380.115 -3.44785 0.449254 0
M  V30 3927 H 379.438 -3.80058 1.24081 0
M  V30 3928 H 380.878 -4.22974 0.294737 0
M  V30 3929 C 379.337 -3.26391 -0.834909 0
M  V30 3930 O 379.867 -3.53973 -1.89911 0
M  V30 3931 N 378.073 -2.79726 -0.787523 0
M  V30 3932 H 377.62 -2.5748 0.0787347 0
M  V30 3933 H 377.578 -2.67798 -1.64716 0
M  V30 3934 N 381.35 -0.985608 -1.22978 0
M  V30 3935 C 382.599 -0.652881 -1.90841 0
M  V30 3936 C 382.912 0.817842 -1.77681 0
M  V30 3937 O 384.118 1.26185 -2.40395 0
M  V30 3938 C 382.574 -1.11717 -3.42122 0
M  V30 3939 C 382.182 -2.6126 -3.63933 0
M  V30 3940 C 383.926 -0.85843 -4.1573 0
M  V30 3941 C 381.833 -3.0133 -5.08876 0
M  V30 3942 H 380.763 -0.240491 -0.714619 0
M  V30 3943 H 383.414 -1.1942 -1.39324 0
M  V30 3944 H 381.796 -0.504027 -3.92779 0
M  V30 3945 H 382.97 -3.27858 -3.23799 0
M  V30 3946 H 381.285 -2.84937 -3.03644 0
M  V30 3947 H 383.882 -1.13359 -5.22546 0
M  V30 3948 H 384.225 0.205461 -4.15793 0
M  V30 3949 H 384.758 -1.43341 -3.71077 0
M  V30 3950 H 381.497 -4.06864 -5.13947 0
M  V30 3951 H 381.017 -2.3943 -5.49939 0
M  V30 3952 H 382.696 -2.92224 -5.77247 0
M  V30 3953 N 382.828 1.3818 -0.7579 0
M  V30 3954 C 384.244 1.5353 -0.435972 0
M  V30 3955 C 384.444 1.71961 1.05032 0
M  V30 3956 O 383.5 1.73307 1.83633 0
M  V30 3957 C 384.813 2.73989 -1.23898 0
M  V30 3958 C 386.361 2.87841 -1.22949 0
M  V30 3959 C 386.836 4.11266 -2.01554 0
M  V30 3960 N 388.327 4.18352 -1.98837 0
M  V30 3961 C 389.062 5.12856 -2.5645 0
M  V30 3962 N 388.558 6.13005 -3.22794 0
M  V30 3963 N 390.351 5.05238 -2.46356 0
M  V30 3964 H 382.502 1.24467 -1.7211 0
M  V30 3965 H 384.765 0.604982 -0.729864 0
M  V30 3966 H 384.471 2.66789 -2.29165 0
M  V30 3967 H 384.345 3.67294 -0.858764 0
M  V30 3968 H 386.732 2.9452 -0.184854 0
M  V30 3969 H 386.813 1.95534 -1.64924 0
M  V30 3970 H 386.457 4.05349 -3.06031 0
M  V30 3971 H 386.387 5.02661 -1.5697 0
M  V30 3972 H 388.878 3.46628 -1.50524 0
M  V30 3973 H 389.191 6.81619 -3.64165 0
M  V30 3974 H 387.536 6.13325 -3.2689 0
M  V30 3975 H 390.727 4.25938 -1.9415 0
M  V30 3976 H 390.9 5.78707 -2.91552 0
M  V30 3977 N 384.306 0.507319 1.49211 0
M  V30 3978 C 385.536 -0.0315292 2.06576 0
M  V30 3979 C 385.944 -1.30791 1.36713 0
M  V30 3980 O 385.287 -1.78324 0.441181 0
M  V30 3981 C 385.349 -0.349104 3.57801 0
M  V30 3982 C 385.013 0.830475 4.49391 0
M  V30 3983 C 386.01 1.72271 4.90529 0
M  V30 3984 C 383.695 1.03107 4.91604 0
M  V30 3985 C 385.689 2.79964 5.72625 0
M  V30 3986 C 383.376 2.11116 5.73475 0
M  V30 3987 C 384.374 2.99379 6.1389 0
M  V30 3988 O 384.062 4.05523 6.94123 0
M  V30 3989 H 383.794 0.0201002 0.675701 0
M  V30 3990 H 386.348 0.705737 1.92895 0
M  V30 3991 H 384.578 -1.14005 3.69513 0
M  V30 3992 H 386.267 -0.827319 3.97379 0
M  V30 3993 H 387.033 1.57958 4.58557 0
M  V30 3994 H 382.912 0.353417 4.59643 0
M  V30 3995 H 386.456 3.48884 6.04091 0
M  V30 3996 H 382.353 2.25421 6.0486 0
M  V30 3997 H 383.121 4.02953 7.1244 0
M  V30 3998 N 385.784 -1.5574 0.241426 0
M  V30 3999 C 387.009 -2.0366 -0.392111 0
M  V30 4000 C 387.434 -1.11969 -1.51144 0
M  V30 4001 O 386.792 -0.111594 -1.80956 0
M  V30 4002 C 386.84 -3.49638 -0.882371 0
M  V30 4003 O 385.944 -3.6108 -1.99235 0
M  V30 4004 H 385.285 -0.658379 -0.0862122 0
M  V30 4005 H 387.815 -2.01302 0.365881 0
M  V30 4006 H 387.825 -3.90351 -1.18702 0
M  V30 4007 H 386.5 -4.15852 -0.0632361 0
M  V30 4008 H 385.077 -3.32262 -1.69282 0
M  V30 4009 N 387.262 0.0317525 -1.57568 0
M  V30 4010 C 388.673 0.578692 -1.77505 0
M  V30 4011 C 389.024 1.75749 -0.872164 0
M  V30 4012 O 388.149 2.16298 -0.0663106 0
M  V30 4013 C 388.744 1.05658 -3.21904 0
M  V30 4014 C 387.303 1.54906 -3.43047 0
M  V30 4015 C 386.45 0.485939 -2.73009 0
M  V30 4016 H 389.401 -0.194475 -1.57504 0
M  V30 4017 H 389.422 1.92404 -3.28269 0
M  V30 4018 H 388.934 0.198422 -3.87592 0
M  V30 4019 H 387.035 2.42915 -2.82529 0
M  V30 4020 H 387.148 1.59841 -4.5165 0
M  V30 4021 H 385.512 0.940354 -2.36705 0
M  V30 4022 H 386.295 -0.362709 -3.41379 0
M  V30 4023 N 388.74 1.54641 0.303973 0
M  V30 4024 C 389.67 1.88386 1.3796 0
M  V30 4025 C 390.651 0.742485 1.5304 0
M  V30 4026 O 391.836 0.997959 1.66597 0
M  V30 4027 C 388.966 2.12854 2.74427 0
M  V30 4028 C 387.92 3.28702 2.74115 0
M  V30 4029 C 387.246 3.38582 4.13844 0
M  V30 4030 C 388.546 4.65881 2.3612 0
M  V30 4031 H 390.24 2.78474 1.09966 0
M  V30 4032 H 387.786 1.33988 0.527556 0
M  V30 4033 H 389.739 2.35047 3.49758 0
M  V30 4034 H 388.463 1.19535 3.03939 0
M  V30 4035 H 387.122 3.06428 2.0124 0
M  V30 4036 H 386.77 2.42784 4.40528 0
M  V30 4037 H 386.47 4.16453 4.14537 0
M  V30 4038 H 387.994 3.63031 4.90959 0
M  V30 4039 H 389.408 4.87823 3.01167 0
M  V30 4040 H 387.805 5.46444 2.48031 0
M  V30 4041 H 388.875 4.66799 1.3125 0
M  V30 4042 N 390.218 -0.567019 1.47046 0
M  V30 4043 C 391.446 -1.35027 1.56765 0
M  V30 4044 C 391.861 -1.8758 0.214316 0
M  V30 4045 O 391.218 -1.64471 -0.790919 0
M  V30 4046 C 391.269 -2.52698 2.58507 0
M  V30 4047 O 390.99 -2.0232 3.88585 0
M  V30 4048 C 392.491 -3.45043 2.78316 0
M  V30 4049 H 389.711 -0.41195 0.529658 0
M  V30 4050 H 392.255 -0.687832 1.92585 0
M  V30 4051 H 390.41 -3.149 2.25648 0
M  V30 4052 H 390.824 -2.79068 4.44096 0
M  V30 4053 H 392.298 -4.2405 3.53391 0
M  V30 4054 H 392.775 -3.97971 1.85784 0
M  V30 4055 H 393.381 -2.88665 3.12334 0
M  V30 4056 N 391.696 -1.35014 -0.812953 0
M  V30 4057 C 392.924 -1.31031 -1.6012 0
M  V30 4058 C 393.339 0.113558 -1.88458 0
M  V30 4059 O 392.696 1.06363 -1.48301 0
M  V30 4060 C 392.747 -2.10872 -2.93624 0
M  V30 4061 O 392.468 -3.47706 -2.66518 0
M  V30 4062 C 393.969 -2.14401 -3.88004 0
M  V30 4063 H 391.189 -0.45037 -0.497401 0
M  V30 4064 H 393.733 -1.77775 -1.01076 0
M  V30 4065 H 391.888 -1.67744 -3.492 0
M  V30 4066 H 392.302 -3.89097 -3.51715 0
M  V30 4067 H 393.776 -2.74669 -4.78812 0
M  V30 4068 H 394.253 -1.14105 -4.24119 0
M  V30 4069 H 394.859 -2.57662 -3.38364 0
M  V30 4070 N 393.175 1.03435 -1.18907 0
M  V30 4071 C 394.105 2.13503 -0.945448 0
M  V30 4072 C 395.086 1.69682 0.119189 0
M  V30 4073 O 396.271 1.94169 -0.034707 0
M  V30 4074 C 393.401 3.44004 -0.477316 0
M  V30 4075 C 392.355 4.0148 -1.48316 0
M  V30 4076 C 391.681 5.27537 -0.872311 0
M  V30 4077 C 392.981 4.36921 -2.86177 0
M  V30 4078 H 394.675 2.34141 -1.86597 0
M  V30 4079 H 392.221 1.12523 -0.898584 0
M  V30 4080 H 394.174 4.20372 -0.294204 0
M  V30 4081 H 392.898 3.23072 0.478786 0
M  V30 4082 H 391.557 3.27201 -1.65332 0
M  V30 4083 H 391.205 5.02917 0.0911752 0
M  V30 4084 H 390.905 5.66954 -1.54393 0
M  V30 4085 H 392.429 6.06576 -0.699871 0
M  V30 4086 H 393.843 5.04248 -2.72776 0
M  V30 4087 H 392.24 4.87405 -3.50081 0
M  V30 4088 H 393.31 3.46466 -3.39248 0
M  V30 4089 N 394.653 0.992116 1.22453 0
M  V30 4090 C 395.6 0.541731 2.24352 0
M  V30 4091 C 396.57 -0.425519 1.60557 0
M  V30 4092 O 397.755 -0.330453 1.87917 0
M  V30 4093 C 394.895 -0.138248 3.44823 0
M  V30 4094 C 394.008 0.870649 4.23136 0
M  V30 4095 C 393.143 0.164269 5.30946 0
M  V30 4096 C 392.182 1.16159 6.00977 0
M  V30 4097 N 391.319 0.483568 7.00433 0
M  V30 4098 H 396.159 1.41541 2.62241 0
M  V30 4099 H 393.696 0.709013 1.28885 0
M  V30 4100 H 395.654 -0.5494 4.13567 0
M  V30 4101 H 394.284 -0.975721 3.077 0
M  V30 4102 H 393.336 1.40013 3.53696 0
M  V30 4103 H 394.648 1.63014 4.7141 0
M  V30 4104 H 393.802 -0.303653 6.0594 0
M  V30 4105 H 392.541 -0.627733 4.83643 0
M  V30 4106 H 391.546 1.64015 5.24766 0
M  V30 4107 H 392.771 1.95445 6.50368 0
M  V30 4108 H 390.717 -0.289012 6.55363 0
M  V30 4109 H 390.634 1.18152 7.4671 0
M  V30 4110 H 391.902 0.0384219 7.79491 0
M  V30 4111 N 396.131 -1.37776 0.765217 0
M  V30 4112 C 397.359 -2.04124 0.337767 0
M  V30 4113 C 397.774 -1.57715 -1.03785 0
M  V30 4114 O 397.131 -0.755447 -1.6613 0
M  V30 4115 C 397.182 -3.59658 0.364442 0
M  V30 4116 O 396.903 -4.04367 1.68579 0
M  V30 4117 C 398.404 -4.43236 -0.0754221 0
M  V30 4118 H 395.624 -0.655696 0.142491 0
M  V30 4119 H 398.168 -1.76238 1.03732 0
M  V30 4120 H 396.323 -3.86339 -0.286471 0
M  V30 4121 H 396.737 -4.98857 1.61993 0
M  V30 4122 H 398.211 -5.52 -0.00560067 0
M  V30 4123 H 398.688 -4.2455 -1.12491 0
M  V30 4124 H 399.294 -4.21767 0.547055 0
M  V30 4125 N 397.609 -0.515225 -1.4894 0
M  V30 4126 C 398.855 0.0242508 -2.02785 0
M  V30 4127 C 399.188 1.35323 -1.39289 0
M  V30 4128 O 398.463 1.87041 -0.533469 0
M  V30 4129 C 398.746 0.16184 -3.59736 0
M  V30 4130 C 398.599 -1.19127 -4.33738 0
M  V30 4131 C 399.918 0.895719 -4.30888 0
M  V30 4132 H 397.037 0.00733914 -0.736963 0
M  V30 4133 H 399.679 -0.669395 -1.77818 0
M  V30 4134 H 397.829 0.752624 -3.8114 0
M  V30 4135 H 399.501 -1.82202 -4.23792 0
M  V30 4136 H 397.744 -1.77695 -3.95736 0
M  V30 4137 H 398.415 -1.04815 -5.41957 0
M  V30 4138 H 400.891 0.394528 -4.14225 0
M  V30 4139 H 399.767 0.960859 -5.40425 0
M  V30 4140 H 400.028 1.9427 -3.97129 0
M  V30 4141 N 399.087 1.5561 -0.249682 0
M  V30 4142 C 400.364 1.90932 0.424761 0
M  V30 4143 C 400.744 1.17078 1.75658 0
M  V30 4144 O 400.092 0.289176 2.26663 0
M  V30 4145 C 400.302 3.43975 0.590109 0
M  V30 4146 C 401.65 4.15281 0.884714 0
M  V30 4147 O 402.674 3.49729 0.67587 0
M  V30 4148 O 401.533 5.31236 1.28259 0
M  V30 4149 H 398.627 0.794815 0.228468 0
M  V30 4150 H 401.173 1.67135 -0.293954 0
M  V30 4151 H 399.945 3.89748 -0.34818 0
M  V30 4152 H 399.568 3.73644 1.35926 0
M  V30 4153 N 400.565 -0.0233959 1.57583 0
M  V30 4154 C 401.79 -0.728376 1.94189 0
M  V30 4155 C 402.215 -1.67793 0.850119 0
M  V30 4156 O 401.573 -1.80262 -0.19371 0
M  V30 4157 C 401.621 -1.45669 3.29868 0
M  V30 4158 O 400.725 -2.57013 3.22518 0
M  V30 4159 H 400.066 -0.195493 0.63457 0
M  V30 4160 H 402.596 0.0228214 2.04587 0
M  V30 4161 H 402.606 -1.82535 3.6489 0
M  V30 4162 H 401.281 -0.760314 4.08891 0
M  V30 4163 H 399.858 -2.22648 2.99136 0
M  V30 4164 N 402.043 -1.548 -0.295768 0
M  V30 4165 C 403.268 -1.78653 -1.05346 0
M  V30 4166 C 403.693 -0.546894 -1.79974 0
M  V30 4167 O 403.051 0.502763 -1.7419 0
M  V30 4168 C 403.099 -2.99679 -2.00561 0
M  V30 4169 O 402.203 -2.7317 -3.08953 0
M  V30 4170 H 401.544 -0.59116 -0.302367 0
M  V30 4171 H 404.074 -2.01895 -0.331598 0
M  V30 4172 H 404.084 -3.27793 -2.42932 0
M  V30 4173 H 402.759 -3.89562 -1.4565 0
M  V30 4174 H 401.336 -2.56089 -2.71059 0
M  V30 4175 N 403.521 0.559213 -1.47345 0
M  V30 4176 C 404.769 1.31388 -1.53563 0
M  V30 4177 C 405.09 1.93985 -0.198678 0
M  V30 4178 O 404.36 1.79825 0.777167 0
M  V30 4179 H 402.94 0.487901 -0.565652 0
M  V30 4180 H 405.602 0.65315 -1.8363 0
M  V30 4181 H 404.698 2.10844 -2.30111 0
M  V30 4182 N 404.999 1.35443 0.805782 0
M  V30 4183 C 406.224 1.32037 1.59941 0
M  V30 4184 C 406.649 -0.0994215 1.87837 0
M  V30 4185 O 406.007 -1.06648 1.46615 0
M  V30 4186 C 406.055 2.13354 2.90711 0
M  V30 4187 O 405.159 1.5148 3.83572 0
M  V30 4188 H 404.5 0.452666 0.485787 0
M  V30 4189 H 407.03 1.78496 1.00002 0
M  V30 4190 H 407.04 2.25338 3.40128 0
M  V30 4191 H 405.715 3.16572 2.69732 0
M  V30 4192 H 404.292 1.4834 3.42125 0
M  V30 4193 N 406.477 -1.02803 1.19454 0
M  V30 4194 C 407.407 -2.12999 0.956758 0
M  V30 4195 C 408.388 -1.69743 -0.110188 0
M  V30 4196 O 409.573 -1.94148 0.0450038 0
M  V30 4197 C 406.703 -3.43746 0.495553 0
M  V30 4198 C 405.657 -4.00688 1.50443 0
M  V30 4199 C 404.983 -5.27067 0.900275 0
M  V30 4200 C 406.283 -4.35397 2.8849 0
M  V30 4201 H 407.977 -2.33148 1.87836 0
M  V30 4202 H 405.523 -1.12045 0.904539 0
M  V30 4203 H 407.476 -4.2021 0.316493 0
M  V30 4204 H 406.2 -3.23321 -0.461646 0
M  V30 4205 H 404.859 -3.2632 1.67065 0
M  V30 4206 H 404.507 -5.02959 -0.064503 0
M  V30 4207 H 404.207 -5.66127 1.57397 0
M  V30 4208 H 405.731 -6.06196 0.73203 0
M  V30 4209 H 407.145 -5.02795 2.75446 0
M  V30 4210 H 405.542 -4.85541 3.52661 0
M  V30 4211 H 406.612 -3.44662 3.41081 0
M  V30 4212 N 407.956 -0.998596 -1.21925 0
M  V30 4213 C 409.186 -0.695276 -1.94549 0
M  V30 4214 C 409.594 0.745079 -1.73911 0
M  V30 4215 O 408.937 1.51507 -1.03881 0
M  V30 4216 C 408.999 -0.928485 -3.47303 0
M  V30 4217 C 408.663 -2.35443 -3.91683 0
M  V30 4218 C 409.66 -3.33428 -3.98901 0
M  V30 4219 C 407.345 -2.69038 -4.24174 0
M  V30 4220 C 409.339 -4.63079 -4.37992 0
M  V30 4221 C 407.026 -3.98906 -4.62944 0
M  V30 4222 C 408.024 -4.95738 -4.69822 0
M  V30 4223 O 407.712 -6.23285 -5.07711 0
M  V30 4224 H 407.444 -0.255902 -0.625692 0
M  V30 4225 H 409.998 -1.33767 -1.5587 0
M  V30 4226 H 408.228 -0.228917 -3.86022 0
M  V30 4227 H 409.917 -0.619539 -4.01144 0
M  V30 4228 H 410.683 -3.08807 -3.73983 0
M  V30 4229 H 406.562 -1.94367 -4.18022 0
M  V30 4230 H 410.106 -5.38658 -4.43275 0
M  V30 4231 H 406.003 -4.23314 -4.87314 0
M  V30 4232 H 406.771 -6.27306 -5.25766 0
M  V30 4233 N 409.434 1.37368 -0.772513 0
M  V30 4234 C 410.68 1.99969 -0.337681 0
M  V30 4235 C 411.013 1.61184 1.08321 0
M  V30 4236 O 410.288 0.858395 1.74533 0
M  V30 4237 C 410.571 3.56858 -0.482121 0
M  V30 4238 C 410.424 4.0555 -1.94549 0
M  V30 4239 C 411.743 4.39955 0.113143 0
M  V30 4240 H 408.862 0.726464 -0.124171 0
M  V30 4241 H 411.504 1.63034 -0.975699 0
M  V30 4242 H 409.654 3.88452 0.0610361 0
M  V30 4243 H 411.326 3.84518 -2.54841 0
M  V30 4244 H 409.569 3.57715 -2.45403 0
M  V30 4245 H 410.24 5.14587 -1.9976 0
M  V30 4246 H 412.716 4.14623 -0.35031 0
M  V30 4247 H 411.592 5.48897 -0.0180514 0
M  V30 4248 H 411.853 4.25403 1.20354 0
M  V30 4249 N 410.912 0.523116 1.48665 0
M  V30 4250 C 412.328 0.180511 1.58576 0
M  V30 4251 C 412.528 -1.31597 1.52592 0
M  V30 4252 O 411.584 -2.0937 1.4114 0
M  V30 4253 C 412.897 0.776949 2.90489 0
M  V30 4254 C 414.445 0.745058 3.04003 0
M  V30 4255 C 414.92 1.31995 4.38567 0
M  V30 4256 N 416.411 1.28162 4.45117 0
M  V30 4257 C 417.146 1.6964 5.47731 0
M  V30 4258 N 416.642 2.18816 6.57337 0
M  V30 4259 N 418.435 1.6092 5.38573 0
M  V30 4260 H 410.586 1.4958 1.50797 0
M  V30 4261 H 412.849 0.621772 0.715614 0
M  V30 4262 H 412.555 1.82732 3.00503 0
M  V30 4263 H 412.429 0.25007 3.7637 0
M  V30 4264 H 414.816 -0.296532 2.93606 0
M  V30 4265 H 414.897 1.30933 2.1975 0
M  V30 4266 H 414.541 2.36043 4.49718 0
M  V30 4267 H 414.471 0.731418 5.21496 0
M  V30 4268 H 416.962 0.92155 3.66491 0
M  V30 4269 H 417.275 2.48478 7.31764 0
M  V30 4270 H 415.62 2.22805 6.58318 0
M  V30 4271 H 418.811 1.22304 4.5184 0
M  V30 4272 H 418.984 1.93567 6.18414 0
M  V30 4273 N 412.39 -1.55475 0.257931 0
M  V30 4274 C 413.618 -2.03609 -0.367559 0
M  V30 4275 C 414.033 -1.13687 -1.50734 0
M  V30 4276 O 413.39 -0.153479 -1.81853 0
M  V30 4277 C 413.441 -3.51001 -0.864908 0
M  V30 4278 O 413.162 -4.37499 0.229465 0
M  V30 4279 C 414.663 -4.14946 -1.55997 0
M  V30 4280 H 411.883 -0.665459 -0.0860521 0
M  V30 4281 H 414.427 -2.00843 0.385014 0
M  V30 4282 H 412.582 -3.54266 -1.56762 0
M  V30 4283 H 412.996 -5.24286 -0.14998 0
M  V30 4284 H 414.47 -5.19735 -1.85956 0
M  V30 4285 H 414.947 -3.6209 -2.4857 0
M  V30 4286 H 415.553 -4.15635 -0.901543 0
M  V30 4287 N 413.868 0.0150385 -1.57593 0
M  V30 4288 C 415.096 0.714395 -1.94175 0
M  V30 4289 C 415.511 1.68135 -0.858841 0
M  V30 4290 O 414.868 1.81766 0.163567 0
M  V30 4291 C 414.919 1.45933 -3.30735 0
M  V30 4292 O 414.64 0.531167 -4.34868 0
M  V30 4293 C 416.141 2.25456 -3.81686 0
M  V30 4294 H 413.361 0.199923 -0.640525 0
M  V30 4295 H 415.905 -0.0316096 -2.04476 0
M  V30 4296 H 414.06 2.15709 -3.21789 0
M  V30 4297 H 414.474 1.05509 -5.13778 0
M  V30 4298 H 415.948 2.731 -4.79709 0
M  V30 4299 H 416.425 3.07485 -3.13607 0
M  V30 4300 H 417.031 1.60727 -3.9376 0
M  V30 4301 N 415.346 1.54954 0.287554 0
M  V30 4302 C 416.296 1.8322 1.357 0
M  V30 4303 C 417.28 0.690152 1.45347 0
M  V30 4304 O 418.472 0.951137 1.49273 0
M  V30 4305 C 415.601 2.09481 2.71979 0
M  V30 4306 C 414.687 3.29906 2.66502 0
M  V30 4307 N 415.078 4.50154 2.30641 0
M  V30 4308 C 413.376 3.32203 2.97585 0
M  V30 4309 C 414.077 5.32209 2.34794 0
M  V30 4310 N 413.053 4.70258 2.72688 0
M  V30 4311 H 416.855 2.73746 1.0696 0
M  V30 4312 H 414.369 1.54635 0.496167 0
M  V30 4313 H 416.366 2.27882 3.49107 0
M  V30 4314 H 415.026 1.2023 3.0162 0
M  V30 4315 H 416.037 4.76515 2.02865 0
M  V30 4316 H 412.714 2.53101 3.32034 0
M  V30 4317 H 414.104 6.38321 2.09753 0
M  V30 4318 N 416.824 -0.551391 1.4764 0
M  V30 4319 C 418.24 -0.877887 1.33287 0
M  V30 4320 C 418.44 -1.98817 0.327721 0
M  V30 4321 O 417.496 -2.51171 -0.258695 0
M  V30 4322 C 418.809 -1.26563 2.72768 0
M  V30 4323 C 420.357 -1.37673 2.81097 0
M  V30 4324 C 420.832 -1.79799 4.21232 0
M  V30 4325 N 422.323 -1.8694 4.23802 0
M  V30 4326 C 423.058 -2.20876 5.29151 0
M  V30 4327 N 422.554 -2.53386 6.448 0
M  V30 4328 N 424.347 -2.217 5.16532 0
M  V30 4329 H 416.498 0.18153 2.11623 0
M  V30 4330 H 418.761 0.0185514 0.947818 0
M  V30 4331 H 418.467 -0.523591 3.47781 0
M  V30 4332 H 418.341 -2.22052 3.04915 0
M  V30 4333 H 420.728 -2.10956 2.06353 0
M  V30 4334 H 420.809 -0.40357 2.52596 0
M  V30 4335 H 420.453 -1.07083 4.96483 0
M  V30 4336 H 420.383 -2.78128 4.4716 0
M  V30 4337 H 422.874 -1.64179 3.40373 0
M  V30 4338 H 423.187 -2.78325 7.20941 0
M  V30 4339 H 421.532 -2.50953 6.48111 0
M  V30 4340 H 424.723 -1.95745 4.25207 0
M  V30 4341 H 424.896 -2.47818 5.98741 0
M  V30 4342 N 418.302 -1.35869 -0.798587 0
M  V30 4343 C 419.232 -1.32118 -1.92528 0
M  V30 4344 C 420.213 -0.194209 -1.68988 0
M  V30 4345 O 421.398 -0.390426 -1.90235 0
M  V30 4346 C 418.528 -1.10047 -3.29404 0
M  V30 4347 C 417.482 -2.19471 -3.67446 0
M  V30 4348 C 416.808 -1.82555 -5.02571 0
M  V30 4349 C 418.108 -3.61495 -3.76987 0
M  V30 4350 H 419.802 -2.26394 -1.95924 0
M  V30 4351 H 417.348 -1.08981 -0.94123 0
M  V30 4352 H 419.301 -1.06061 -4.07835 0
M  V30 4353 H 418.025 -0.122195 -3.26371 0
M  V30 4354 H 416.684 -2.22568 -2.91306 0
M  V30 4355 H 416.332 -0.833249 -4.9605 0
M  V30 4356 H 416.032 -2.5581 -5.28995 0
M  V30 4357 H 417.556 -1.80108 -5.83432 0
M  V30 4358 H 418.97 -3.60676 -4.4563 0
M  V30 4359 H 417.367 -4.33577 -4.14887 0
M  V30 4360 H 418.437 -3.97065 -2.78329 0
M  V30 4361 N 419.78 1.02168 -1.19998 0
M  V30 4362 C 420.71 2.12488 -0.96804 0
M  V30 4363 C 421.691 1.69799 0.101185 0
M  V30 4364 O 422.876 1.94121 -0.0552993 0
M  V30 4365 C 420.006 3.43479 -0.513776 0
M  V30 4366 C 418.96 3.99884 -1.52566 0
M  V30 4367 C 418.286 5.26582 -0.928214 0
M  V30 4368 C 419.586 4.33861 -2.90795 0
M  V30 4369 H 421.28 2.32149 -1.89069 0
M  V30 4370 H 418.826 1.11564 -0.910468 0
M  V30 4371 H 420.779 4.20036 -0.338774 0
M  V30 4372 H 419.503 3.23561 0.444493 0
M  V30 4373 H 418.162 3.25429 -1.68794 0
M  V30 4374 H 417.81 5.02986 0.0378289 0
M  V30 4375 H 417.51 5.65284 -1.60397 0
M  V30 4376 H 419.034 6.05799 -0.764167 0
M  V30 4377 H 420.448 5.01327 -2.78109 0
M  V30 4378 H 418.845 4.83664 -3.55231 0
M  V30 4379 H 419.915 3.42848 -3.42904 0
M  V30 4380 N 421.258 1.00505 1.21394 0
M  V30 4381 C 422.505 0.687774 1.90462 0
M  V30 4382 C 422.833 -0.78147 1.7811 0
M  V30 4383 O 422.088 -1.58208 1.1519 0
M  V30 4384 C 422.387 1.0546 3.41486 0
M  V30 4385 C 422.053 2.51812 3.74034 0
M  V30 4386 C 420.715 2.91804 3.82628 0
M  V30 4387 C 423.067 3.46614 3.8924 0
M  V30 4388 C 420.395 4.2556 4.03876 0
M  V30 4389 C 422.747 4.80044 4.11995 0
M  V30 4390 C 421.411 5.19759 4.18816 0
M  V30 4391 H 420.681 0.251674 0.696951 0
M  V30 4392 H 423.328 1.26349 1.43903 0
M  V30 4393 H 421.633 0.397133 3.89782 0
M  V30 4394 H 423.33 0.786976 3.93202 0
M  V30 4395 H 419.92 2.1982 3.67936 0
M  V30 4396 H 424.104 3.16883 3.81967 0
M  V30 4397 H 419.36 4.55901 4.07387 0
M  V30 4398 H 423.534 5.53439 4.22704 0
M  V30 4399 H 421.161 6.23418 4.35033 0
M  V30 4400 N 422.737 -1.36956 0.779787 0
M  V30 4401 C 424.153 -1.52817 0.460342 0
M  V30 4402 C 424.353 -1.7361 -1.02283 0
M  V30 4403 O 423.409 -1.76207 -1.80852 0
M  V30 4404 C 424.722 -2.71983 1.28241 0
M  V30 4405 C 426.27 -2.85849 1.27512 0
M  V30 4406 C 426.745 -4.08008 2.08072 0
M  V30 4407 N 428.236 -4.15135 2.05467 0
M  V30 4408 C 428.971 -5.08711 2.64577 0
M  V30 4409 N 428.467 -6.07792 3.32506 0
M  V30 4410 N 430.26 -5.01254 2.54363 0
M  V30 4411 H 422.411 -1.21713 1.74068 0
M  V30 4412 H 424.674 -0.593294 0.739396 0
M  V30 4413 H 424.38 -2.63109 2.33381 0
M  V30 4414 H 424.254 -3.65882 0.917088 0
M  V30 4415 H 426.641 -2.94189 0.231686 0
M  V30 4416 H 426.722 -1.92886 1.68014 0
M  V30 4417 H 426.366 -4.00429 3.12441 0
M  V30 4418 H 426.296 -5.001 1.64947 0
M  V30 4419 H 428.787 -3.44189 1.5602 0
M  V30 4420 H 429.1 -6.75739 3.74963 0
M  V30 4421 H 427.445 -6.08047 3.36606 0
M  V30 4422 H 430.636 -4.22795 2.00902 0
M  V30 4423 H 430.809 -5.73995 3.00722 0
M  V30 4424 N 424.215 -0.530993 -1.48385 0
M  V30 4425 C 425.455 0.000718982 -2.044 0
M  V30 4426 C 425.819 1.31485 -1.39913 0
M  V30 4427 O 427.02 1.93265 -1.86821 0
M  V30 4428 C 425.291 0.119177 -3.57201 0
M  V30 4429 S 426.85 0.600806 -4.34667 0
M  V30 4430 H 423.668 -0.0125473 -0.710889 0
M  V30 4431 H 426.27 -0.711783 -1.82082 0
M  V30 4432 H 424.974 -0.842061 -4.01668 0
M  V30 4433 H 424.505 0.856026 -3.83974 0
M  V30 4434 H 426.52 1.86514 -4.59812 0
M  V30 4435 N 425.693 1.55336 -0.266172 0
M  V30 4436 C 427.104 1.85236 0.233315 0
M  V30 4437 C 427.455 1.18816 1.56132 0
M  V30 4438 O 426.58 0.473307 2.11161 0
M  V30 4439 C 427.175 3.36059 0.430113 0
M  V30 4440 C 425.734 3.66116 0.873842 0
M  V30 4441 C 424.881 2.77274 -0.0380016 0
M  V30 4442 H 427.832 1.51004 -0.488214 0
M  V30 4443 H 427.853 3.58681 1.26998 0
M  V30 4444 H 427.365 3.84373 -0.536588 0
M  V30 4445 H 425.466 3.23295 1.85233 0
M  V30 4446 H 425.579 4.73699 0.717358 0
M  V30 4447 H 423.943 2.50198 0.476759 0
M  V30 4448 H 424.726 3.284 -1.00042 0
M  V30 4449 N 427.171 -0.0066808 1.57599 0
M  V30 4450 C 428.587 -0.36267 1.55425 0
M  V30 4451 C 428.787 -1.75209 0.995187 0
M  V30 4452 O 427.843 -2.44616 0.626058 0
M  V30 4453 C 429.156 -0.244017 2.99708 0
M  V30 4454 C 430.704 -0.319451 3.11366 0
M  V30 4455 C 431.179 -0.229998 4.57422 0
M  V30 4456 N 432.67 -0.288105 4.62303 0
M  V30 4457 C 433.405 -0.242127 5.72889 0
M  V30 4458 N 432.901 -0.147133 6.92644 0
M  V30 4459 N 434.694 -0.293502 5.61333 0
M  V30 4460 H 426.845 0.902314 1.92281 0
M  V30 4461 H 429.108 0.34525 0.882896 0
M  V30 4462 H 428.814 0.711678 3.44424 0
M  V30 4463 H 428.688 -1.02877 3.629 0
M  V30 4464 H 431.075 -1.26559 2.66584 0
M  V30 4465 H 431.156 0.495055 2.50964 0
M  V30 4466 H 430.8 0.712566 5.02877 0
M  V30 4467 H 430.73 -1.0629 5.15761 0
M  V30 4468 H 433.221 -0.363126 3.76151 0
M  V30 4469 H 433.534 -0.117763 7.7271 0
M  V30 4470 H 431.879 -0.112857 6.94908 0
M  V30 4471 H 435.07 -0.365864 4.66668 0
M  V30 4472 H 435.243 -0.254204 6.47501 0
M  V30 4473 N 428.649 -1.55105 -0.279332 0
M  V30 4474 C 429.579 -1.90557 -1.34945 0
M  V30 4475 C 430.56 -0.766738 -1.51839 0
M  V30 4476 O 431.745 -1.02434 -1.64988 0
M  V30 4477 C 428.875 -2.17193 -2.71006 0
M  V30 4478 C 427.829 -3.33021 -2.68851 0
M  V30 4479 C 427.155 -3.45123 -4.08405 0
M  V30 4480 C 428.455 -4.69578 -2.28678 0
M  V30 4481 H 430.149 -2.80188 -1.05522 0
M  V30 4482 H 427.695 -1.34811 -0.506173 0
M  V30 4483 H 429.648 -2.40581 -3.45975 0
M  V30 4484 H 428.372 -1.24355 -3.01999 0
M  V30 4485 H 427.031 -3.0959 -1.9634 0
M  V30 4486 H 426.679 -2.49762 -4.3661 0
M  V30 4487 H 426.379 -4.22995 -4.07859 0
M  V30 4488 H 427.903 -3.70796 -4.85121 0
M  V30 4489 H 429.317 -4.92553 -2.93368 0
M  V30 4490 H 427.714 -5.5032 -2.39306 0
M  V30 4491 H 428.784 -4.68828 -1.23807 0
M  V30 4492 N 430.127 0.543554 -1.4793 0
M  V30 4493 C 431.057 1.65888 -1.64327 0
M  V30 4494 C 432.038 1.62818 -0.492383 0
M  V30 4495 O 433.223 1.80226 -0.723338 0
M  V30 4496 C 430.353 3.04506 -1.67013 0
M  V30 4497 C 429.307 3.2243 -2.81466 0
M  V30 4498 C 428.633 4.61972 -2.69233 0
M  V30 4499 C 429.933 3.06496 -4.22915 0
M  V30 4500 H 431.627 1.52421 -2.57698 0
M  V30 4501 H 429.173 0.731849 -1.24016 0
M  V30 4502 H 431.126 3.82391 -1.77074 0
M  V30 4503 H 429.85 3.18964 -0.70212 0
M  V30 4504 H 428.509 2.46957 -2.70938 0
M  V30 4505 H 428.157 4.73247 -1.7043 0
M  V30 4506 H 427.857 4.74911 -3.46025 0
M  V30 4507 H 429.381 5.41974 -2.81242 0
M  V30 4508 H 430.795 3.74186 -4.34348 0
M  V30 4509 H 429.192 3.30938 -5.006 0
M  V30 4510 H 430.262 2.03077 -4.40327 0
M  V30 4511 N 431.605 1.3629 0.791371 0
M  V30 4512 C 432.553 1.30514 1.92533 0
M  V30 4513 C 433.547 0.197285 1.68247 0
M  V30 4514 O 434.753 0.364176 1.76278 0
M  V30 4515 H 431.128 0.406263 0.632815 0
M  V30 4516 H 433.099 2.26282 1.94523 0
M  V30 4517 C 431.848 1.10933 3.29529 0
M  V30 4518 H 431.171 1.95427 3.48781 0
M  V30 4519 H 432.611 1.10937 4.0923 0
M  V30 4520 C 431.07 -0.186123 3.36385 0
M  V30 4521 O 431.6 -1.17664 3.84081 0
M  V30 4522 N 429.806 -0.230128 2.89687 0
M  V30 4523 H 429.353 0.576545 2.51065 0
M  V30 4524 H 429.311 -1.09658 2.94657 0
M  V30 4525 N 433.083 -1.0153 1.20538 0
M  V30 4526 C 434.013 -2.11972 0.979295 0
M  V30 4527 C 434.994 -1.6985 -0.0921787 0
M  V30 4528 O 436.179 -1.94089 0.0655932 0
M  V30 4529 C 433.309 -3.43201 0.531984 0
M  V30 4530 C 432.263 -3.9907 1.54685 0
M  V30 4531 C 431.589 -5.26082 0.956127 0
M  V30 4532 C 432.889 -4.32313 2.93092 0
M  V30 4533 H 434.583 -2.31143 1.90298 0
M  V30 4534 H 432.129 -1.11079 0.916372 0
M  V30 4535 H 434.082 -4.1985 0.361044 0
M  V30 4536 H 432.806 -3.23792 -0.427327 0
M  V30 4537 H 431.465 -3.2453 1.70517 0
M  V30 4538 H 431.113 -5.02999 -0.0111538 0
M  V30 4539 H 430.813 -5.64426 1.63393 0
M  V30 4540 H 432.337 -6.05386 0.796284 0
M  V30 4541 H 433.751 -4.99845 2.80763 0
M  V30 4542 H 432.148 -4.81774 3.57791 0
M  V30 4543 H 433.218 -3.41025 3.44717 0
M  V30 4544 N 434.561 -1.01147 -1.20859 0
M  V30 4545 C 435.809 -0.696486 -1.89719 0
M  V30 4546 C 436.13 0.775788 -1.78904 0
M  V30 4547 O 435.4 1.55759 -1.18811 0
M  V30 4548 H 433.98 -0.254628 -0.702263 0
M  V30 4549 H 436.642 -1.28197 -1.46804 0
M  V30 4550 H 435.738 -0.975357 -2.96468 0
M  V30 4551 N 436.039 1.36541 -0.78704 0
M  V30 4552 C 436.969 2.32659 -0.197992 0
M  V30 4553 C 437.95 1.56533 0.665697 0
M  V30 4554 O 439.135 1.84698 0.60001 0
M  V30 4555 C 436.265 3.40778 0.669901 0
M  V30 4556 C 435.219 4.27897 -0.0937039 0
M  V30 4557 C 434.545 5.27163 0.894629 0
M  V30 4558 C 435.845 5.06334 -1.28154 0
M  V30 4559 H 437.539 2.82171 -1.00099 0
M  V30 4560 H 435.085 1.35665 -0.482793 0
M  V30 4561 H 437.038 4.07008 1.09191 0
M  V30 4562 H 435.762 2.89827 1.50558 0
M  V30 4563 H 434.421 3.6322 -0.49666 0
M  V30 4564 H 434.069 4.72486 1.72527 0
M  V30 4565 H 433.769 5.86317 0.388149 0
M  V30 4566 H 435.293 5.96266 1.31525 0
M  V30 4567 H 436.707 5.65617 -0.93541 0
M  V30 4568 H 435.104 5.74888 -1.72115 0
M  V30 4569 H 436.174 4.38114 -2.07807 0
M  V30 4570 N 437.518 0.538854 1.48102 0
M  V30 4571 C 438.45 -0.256278 2.27763 0
M  V30 4572 C 439.463 -0.89633 1.35904 0
M  V30 4573 O 440.652 -0.773275 1.60881 0
M  V30 4574 C 437.752 -1.37896 3.09577 0
M  V30 4575 C 436.925 -0.839159 4.29275 0
M  V30 4576 C 435.984 -1.84405 4.9283 0
M  V30 4577 O 435.01 -1.39746 5.51779 0
M  V30 4578 N 436.212 -3.17666 4.85869 0
M  V30 4579 H 438.977 0.426968 2.96643 0
M  V30 4580 H 436.538 0.373747 1.57527 0
M  V30 4581 H 438.53 -2.04955 3.48963 0
M  V30 4582 H 437.1 -1.96572 2.4306 0
M  V30 4583 H 436.32 0.00769287 3.94199 0
M  V30 4584 H 437.608 -0.457548 5.06739 0
M  V30 4585 H 437.006 -3.56609 4.39143 0
M  V30 4586 H 435.563 -3.80334 5.29329 0
M  V30 4587 N 438.996 -1.55193 0.274407 0
M  V30 4588 C 440.236 -2.01488 -0.343778 0
M  V30 4589 C 440.6 -1.1586 -1.53103 0
M  V30 4590 O 441.801 -1.51732 -2.2188 0
M  V30 4591 C 440.072 -3.50134 -0.717021 0
M  V30 4592 S 441.631 -4.18417 -1.32184 0
M  V30 4593 H 438.449 -0.70291 -0.106948 0
M  V30 4594 H 441.051 -1.91446 0.396075 0
M  V30 4595 H 439.755 -4.10104 0.155947 0
M  V30 4596 H 439.286 -3.64159 -1.48835 0
M  V30 4597 H 441.301 -4.21984 -2.61044 0
M  V30 4598 N 440.474 -0.00167713 -1.576 0
M  V30 4599 C 441.404 0.988091 -2.11563 0
M  V30 4600 C 442.385 1.35736 -1.02517 0
M  V30 4601 O 443.57 1.44082 -1.30208 0
M  V30 4602 C 440.7 2.27941 -2.62031 0
M  V30 4603 C 439.654 2.0517 -3.75619 0
M  V30 4604 C 438.98 3.4033 -4.12407 0
M  V30 4605 C 440.28 1.41294 -5.02825 0
M  V30 4606 H 441.974 0.538771 -2.94513 0
M  V30 4607 H 439.52 0.257712 -1.41675 0
M  V30 4608 H 441.473 2.97539 -2.9841 0
M  V30 4609 H 440.197 2.74989 -1.76205 0
M  V30 4610 H 438.856 1.37998 -3.39635 0
M  V30 4611 H 438.504 3.85085 -3.23603 0
M  V30 4612 H 438.204 3.25909 -4.88935 0
M  V30 4613 H 439.728 4.1124 -4.51347 0
M  V30 4614 H 441.142 2.00851 -5.36965 0
M  V30 4615 H 439.539 1.37356 -5.84169 0
M  V30 4616 H 440.609 0.382362 -4.8339 0
M  V30 4617 N 441.952 1.55251 0.271103 0
M  V30 4618 C 443.177 1.80306 1.02491 0
M  V30 4619 C 443.602 0.575457 1.79081 0
M  V30 4620 O 442.96 -0.474987 1.74967 0
M  V30 4621 C 443.008 3.02832 1.95768 0
M  V30 4622 O 442.112 2.78051 3.04568 0
M  V30 4623 H 441.453 0.595896 0.292923 0
M  V30 4624 H 443.983 2.02397 0.299436 0
M  V30 4625 H 443.993 3.31616 2.37686 0
M  V30 4626 H 442.668 3.9183 1.39434 0
M  V30 4627 H 441.245 2.60369 2.66951 0
M  V30 4628 N 443.43 -0.535701 1.48216 0
M  V30 4629 C 444.67 -1.30238 1.57536 0
M  V30 4630 C 445.034 -1.90479 0.241229 0
M  V30 4631 O 446.235 -2.67983 0.20938 0
M  V30 4632 C 444.506 -2.3669 2.67792 0
M  V30 4633 S 446.065 -3.23159 2.9684 0
M  V30 4634 H 442.883 -0.443093 0.556048 0
M  V30 4635 H 445.485 -0.610937 1.85709 0
M  V30 4636 H 444.189 -1.90905 3.63296 0
M  V30 4637 H 443.72 -3.10548 2.41502 0
M  V30 4638 H 445.735 -4.36647 2.35699 0
M  V30 4639 N 444.908 -1.36708 -0.784132 0
M  V30 4640 C 446.156 -1.30972 -1.53918 0
M  V30 4641 C 446.477 0.109086 -1.94695 0
M  V30 4642 O 445.747 1.05048 -1.65353 0
M  V30 4643 H 444.327 -0.481819 -0.570841 0
M  V30 4644 H 446.989 -1.71063 -0.934002 0
M  V30 4645 H 446.085 -1.94061 -2.44431 0
M  V30 4646 N 446.386 1.0089 -1.21074 0
M  V30 4647 C 447.626 1.76142 -1.03699 0
M  V30 4648 C 447.99 1.87292 0.422587 0
M  V30 4649 O 449.191 2.59068 0.716752 0
M  V30 4650 C 447.462 3.13805 -1.7106 0
M  V30 4651 S 449.021 4.04996 -1.68889 0
M  V30 4652 H 445.839 0.606113 -0.371683 0
M  V30 4653 H 448.441 1.20744 -1.53756 0
M  V30 4654 H 447.145 3.0332 -2.76451 0
M  V30 4655 H 446.676 3.74276 -1.21166 0
M  V30 4656 H 448.691 4.90842 -0.727211 0
M  V30 4657 N 447.864 1.01787 1.20321 0
M  V30 4658 C 448.794 0.609625 2.25401 0
M  V30 4659 C 449.775 -0.375951 1.65893 0
M  V30 4660 O 450.96 -0.261101 1.92437 0
M  V30 4661 C 448.09 -0.0515995 3.47262 0
M  V30 4662 C 447.044 0.855095 4.19371 0
M  V30 4663 C 446.37 0.0595757 5.34667 0
M  V30 4664 C 447.67 2.16374 4.75373 0
M  V30 4665 H 449.364 1.48803 2.59804 0
M  V30 4666 H 446.91 0.716934 1.24884 0
M  V30 4667 H 448.863 -0.348764 4.19954 0
M  V30 4668 H 447.587 -0.964726 3.12027 0
M  V30 4669 H 446.246 1.13628 3.48546 0
M  V30 4670 H 445.894 -0.85524 4.95676 0
M  V30 4671 H 445.594 0.663406 5.83843 0
M  V30 4672 H 447.118 -0.231105 6.10162 0
M  V30 4673 H 448.532 1.92885 5.39878 0
M  V30 4674 H 446.929 2.71853 5.34991 0
M  V30 4675 H 447.999 2.82589 3.94045 0
M  V30 4676 N 449.342 -1.36122 0.79427 0
M  V30 4677 C 450.753 -1.81646 0.431446 0
M  V30 4678 C 451.104 -1.66043 -1.04518 0
M  V30 4679 O 450.229 -1.1841 -1.8113 0
M  V30 4680 C 450.824 -3.29785 0.776341 0
M  V30 4681 C 449.383 -3.73501 0.466282 0
M  V30 4682 C 448.53 -2.58313 1.00844 0
M  V30 4683 H 451.481 -1.24274 0.986995 0
M  V30 4684 H 451.502 -3.80437 0.0692413 0
M  V30 4685 H 451.014 -3.4111 1.8511 0
M  V30 4686 H 449.115 -3.67733 -0.600245 0
M  V30 4687 H 449.228 -4.68754 0.990288 0
M  V30 4688 H 447.592 -2.5102 0.431406 0
M  V30 4689 H 448.375 -2.72421 2.08906 0
M  V30 4690 N 450.82 -0.546701 -1.47814 0
M  V30 4691 C 452.048 -0.0232857 -2.06887 0
M  V30 4692 C 452.463 1.26571 -1.4009 0
M  V30 4693 O 451.82 1.7569 -0.493906 0
M  V30 4694 C 451.871 0.186975 -3.61016 0
M  V30 4695 O 451.592 -1.05097 -4.25307 0
M  V30 4696 C 453.093 0.748872 -4.36929 0
M  V30 4697 H 450.313 -0.0410763 -0.669742 0
M  V30 4698 H 452.857 -0.757117 -1.89968 0
M  V30 4699 H 451.012 0.870903 -3.77484 0
M  V30 4700 H 451.426 -0.842121 -5.17695 0
M  V30 4701 H 452.9 0.845334 -5.45489 0
M  V30 4702 H 453.377 1.75772 -4.02493 0
M  V30 4703 H 453.983 0.100979 -4.2518 0
M  V30 4704 N 452.299 1.55045 -0.282633 0
M  V30 4705 C 453.715 1.59441 0.0712997 0
M  V30 4706 C 453.915 1.2998 1.53972 0
M  V30 4707 O 452.971 1.06431 2.28973 0
M  V30 4708 C 454.284 2.99097 -0.310104 0
M  V30 4709 C 455.832 3.1194 -0.257343 0
M  V30 4710 C 456.307 4.53875 -0.613297 0
M  V30 4711 N 457.798 4.5974 -0.565134 0
M  V30 4712 C 458.533 5.67603 -0.81326 0
M  V30 4713 N 458.029 6.83582 -1.1264 0
M  V30 4714 N 459.822 5.57187 -0.741553 0
M  V30 4715 H 451.973 1.72458 -1.23984 0
M  V30 4716 H 454.236 0.804549 -0.501403 0
M  V30 4717 H 453.942 3.25516 -1.33163 0
M  V30 4718 H 453.816 3.75616 0.345366 0
M  V30 4719 H 456.203 2.85281 0.754905 0
M  V30 4720 H 456.284 2.37618 -0.947178 0
M  V30 4721 H 455.928 4.81261 -1.62327 0
M  V30 4722 H 455.858 5.26508 0.09841 0
M  V30 4723 H 458.349 3.76427 -0.333294 0
M  V30 4724 H 458.662 7.6175 -1.30219 0
M  V30 4725 H 457.007 6.85179 -1.16425 0
M  V30 4726 H 460.198 4.65457 -0.496705 0
M  V30 4727 H 460.371 6.41171 -0.938306 0
M  V30 4728 N 453.777 0.010035 1.57597 0
M  V30 4729 C 455.023 -0.673697 1.91283 0
M  V30 4730 C 455.356 -1.72863 0.884979 0
M  V30 4731 O 454.631 -1.94268 -0.0949487 0
M  V30 4732 C 454.914 -1.30766 3.35518 0
M  V30 4733 C 454.767 -0.263578 4.49027 0
M  V30 4734 C 456.086 -2.23105 3.79358 0
M  V30 4735 H 453.205 -0.243439 0.695634 0
M  V30 4736 H 455.847 0.0633864 1.89894 0
M  V30 4737 H 453.997 -1.93588 3.36832 0
M  V30 4738 H 455.669 0.365738 4.59848 0
M  V30 4739 H 453.912 0.413077 4.31829 0
M  V30 4740 H 454.583 -0.746398 5.4693 0
M  V30 4741 H 457.059 -1.70289 3.79659 0
M  V30 4742 H 455.935 -2.64424 4.81011 0
M  V30 4743 H 456.196 -3.11433 3.13787 0
M  V30 4744 N 455.255 -1.55392 -0.262866 0
M  V30 4745 C 456.671 -1.47459 -0.610582 0
M  V30 4746 C 456.871 -0.697031 -1.8906 0
M  V30 4747 O 455.927 -0.219952 -2.5154 0
M  V30 4748 C 457.24 -2.91751 -0.728131 0
M  V30 4749 C 458.788 -3.02027 -0.821517 0
M  V30 4750 C 459.263 -4.47594 -0.97076 0
M  V30 4751 N 460.754 -4.51465 -1.03603 0
M  V30 4752 C 461.489 -5.61326 -1.17049 0
M  V30 4753 N 460.985 -6.81032 -1.2715 0
M  V30 4754 N 462.778 -5.49089 -1.20239 0
M  V30 4755 H 454.929 -2.04395 0.577632 0
M  V30 4756 H 457.192 -0.927287 0.197086 0
M  V30 4757 H 456.898 -3.51413 0.142132 0
M  V30 4758 H 456.772 -3.4134 -1.6052 0
M  V30 4759 H 459.159 -2.42456 -1.68224 0
M  V30 4760 H 459.24 -2.55674 0.0803688 0
M  V30 4761 H 458.884 -5.07771 -0.114655 0
M  V30 4762 H 458.814 -4.91613 -1.88745 0
M  V30 4763 H 461.305 -3.6524 -0.96996 0
M  V30 4764 H 461.618 -7.60511 -1.37271 0
M  V30 4765 H 459.963 -6.83824 -1.24136 0
M  V30 4766 H 463.154 -4.54507 -1.11985 0
M  V30 4767 H 463.327 -6.34749 -1.30373 0
M  V30 4768 N 456.733 0.527833 -1.48498 0
M  V30 4769 C 458.144 1.10975 -1.50138 0
M  V30 4770 C 458.495 1.943 -0.272378 0
M  V30 4771 O 457.62 2.07319 0.620301 0
M  V30 4772 C 458.215 2.01927 -2.72049 0
M  V30 4773 C 456.774 2.55332 -2.76554 0
M  V30 4774 C 455.921 1.32341 -2.43683 0
M  V30 4775 H 458.872 0.312986 -1.55583 0
M  V30 4776 H 458.893 2.86244 -2.50689 0
M  V30 4777 H 458.405 1.41254 -3.61481 0
M  V30 4778 H 456.506 3.19721 -1.91336 0
M  V30 4779 H 456.619 2.94319 -3.78038 0
M  V30 4780 H 454.983 1.63989 -1.94884 0
M  V30 4781 H 455.766 0.734165 -3.35358 0
M  V30 4782 N 458.211 1.37122 0.776871 0
M  V30 4783 C 459.627 1.1781 1.07671 0
M  V30 4784 C 459.827 0.0107454 2.01497 0
M  V30 4785 O 458.883 -0.650756 2.4397 0
M  V30 4786 C 460.196 2.49451 1.67913 0
M  V30 4787 C 461.744 2.55927 1.80195 0
M  V30 4788 C 462.219 3.87686 2.43851 0
M  V30 4789 N 463.71 3.891 2.51307 0
M  V30 4790 C 464.445 4.87797 3.014 0
M  V30 4791 N 463.941 5.96888 3.51705 0
M  V30 4792 N 465.734 4.75205 3.00227 0
M  V30 4793 H 457.885 2.11843 0.153778 0
M  V30 4794 H 460.148 0.938927 0.130844 0
M  V30 4795 H 459.854 3.35207 1.06439 0
M  V30 4796 H 459.728 2.66169 2.67271 0
M  V30 4797 H 462.115 1.70582 2.40803 0
M  V30 4798 H 462.196 2.43097 0.796069 0
M  V30 4799 H 461.84 4.73444 1.83884 0
M  V30 4800 H 461.77 3.97817 3.45035 0
M  V30 4801 H 464.261 3.10293 2.157 0
M  V30 4802 H 464.574 6.68155 3.88316 0
M  V30 4803 H 462.919 6.0054 3.49824 0
M  V30 4804 H 466.11 3.89103 2.60224 0
M  V30 4805 H 466.283 5.52279 3.38957 0
M  V30 4806 O 459.728 -0.91678 1.32956 0
M  V30 4807 H 460.419 -1.55003 1.16162 0
M  V30 END ATOM
M  V30 BEGIN BOND
M  V30 END BOND
M  V30 END CTAB
M  END
$$$$
