drugbank_target|Q9NYV7 Taste receptor type 2 member 16 (DB01032)
 OpenBabel12092121063D

  0  0  0     0  0            999 V3000
M  V30 BEGIN CTAB
M  V30 COUNTS 4895 4963 0 0 0
M  V30 BEGIN ATOM
M  V30 1 H -0.908 1.98254 -0.117106 0
M  V30 2 N 0 1.576 0 0
M  V30 3 C 0.933 2.03868 1.02534 0
M  V30 4 C 1.911 0.928543 1.3348 0
M  V30 5 O 3.095 1.19667 1.45644 0
M  V30 6 C 0.222 2.43627 2.35294 0
M  V30 7 C -0.732 3.65373 2.2001 0
M  V30 8 S 0.101 5.13292 1.52614 0
M  V30 9 C 1.257 5.56322 2.86805 0
M  V30 10 H 1.49 2.90518 0.631377 0
M  V30 11 H -0.977 1.52953 0.210867 0
M  V30 12 H 0.981 2.67203 3.11629 0
M  V30 13 H -0.358 1.57376 2.7183 0
M  V30 14 H -1.165 3.90944 3.18086 0
M  V30 15 H -1.563 3.418 1.51819 0
M  V30 16 H 0.729 5.58782 3.83104 0
M  V30 17 H 1.672 6.56266 2.65933 0
M  V30 18 H 2.08 4.83886 2.90714 0
M  V30 19 N 1.4781 -0.272755 1.55222 0
M  V30 20 C 2.7271 -1.00211 1.75045 0
M  V30 21 C 3.0401 -1.87441 0.559046 0
M  V30 22 O 4.2461 -2.63856 0.639698 0
M  V30 23 C 2.7021 -1.83165 3.09804 0
M  V30 24 C 2.3101 -1.008 4.36513 0
M  V30 25 C 4.0541 -2.55529 3.38977 0
M  V30 26 C 1.9611 -1.83194 5.62311 0
M  V30 27 H 0.8911 -0.377878 0.652476 0
M  V30 28 H 3.5421 -0.257776 1.8168 0
M  V30 29 H 1.9241 -2.61694 2.97207 0
M  V30 30 H 3.0981 -0.266855 4.60027 0
M  V30 31 H 1.4131 -0.398897 4.14485 0
M  V30 32 H 4.0101 -3.17578 4.30172 0
M  V30 33 H 4.3531 -3.25825 2.59121 0
M  V30 34 H 4.8861 -1.84029 3.52673 0
M  V30 35 H 1.6251 -1.17318 6.44916 0
M  V30 36 H 1.1451 -2.54905 5.4294 0
M  V30 37 H 2.8241 -2.40552 6.00619 0
M  V30 38 N 2.9562 -1.48159 -0.537278 0
M  V30 39 C 4.3672 -1.49429 -1.11928 0
M  V30 40 C 4.7182 -0.26 -1.9447 0
M  V30 41 O 3.8432 0.633489 -2.0692 0
M  V30 42 C 4.4382 -2.70758 -2.03656 0
M  V30 43 C 2.9972 -2.74923 -2.57088 0
M  V30 44 C 2.1442 -2.42835 -1.3389 0
M  V30 45 H 5.0952 -1.55381 -0.322886 0
M  V30 46 H 5.1162 -2.48861 -2.87834 0
M  V30 47 H 4.6282 -3.60575 -1.43553 0
M  V30 48 H 2.7292 -1.89296 -3.20933 0
M  V30 49 H 2.8422 -3.76157 -2.9672 0
M  V30 50 H 1.2062 -1.93836 -1.65226 0
M  V30 51 H 1.9892 -3.34884 -0.755504 0
M  V30 52 N 4.4343 0.785586 -1.36625 0
M  V30 53 C 5.6833 1.53883 -1.30396 0
M  V30 54 C 5.9963 1.95271 0.113452 0
M  V30 55 O 7.2023 2.69858 0.298142 0
M  V30 56 C 5.6583 2.77808 -2.28802 0
M  V30 57 C 5.2663 2.43574 -3.75999 0
M  V30 58 C 7.0103 3.55783 -2.31558 0
M  V30 59 C 4.9173 3.63919 -4.66173 0
M  V30 60 H 3.8473 0.577678 -0.484566 0
M  V30 61 H 6.4983 0.861705 -1.62009 0
M  V30 62 H 4.8803 3.47339 -1.90188 0
M  V30 63 H 6.0543 1.81916 -4.23371 0
M  V30 64 H 4.3693 1.78803 -3.76056 0
M  V30 65 H 6.9663 4.45205 -2.96137 0
M  V30 66 H 7.3093 3.94644 -1.3252 0
M  V30 67 H 7.8423 2.93235 -2.68809 0
M  V30 68 H 4.5813 3.3015 -5.66287 0
M  V30 69 H 4.1013 4.2473 -4.23515 0
M  V30 70 H 5.7803 4.30901 -4.82632 0
M  V30 71 N 5.9124 1.20967 1.01018 0
M  V30 72 C 6.8444 0.922059 2.09835 0
M  V30 73 C 7.8574 -0.0927106 1.62536 0
M  V30 74 O 9.0464 0.139127 1.77957 0
M  V30 75 C 6.1464 0.362004 3.36961 0
M  V30 76 C 5.3194 1.42986 4.13369 0
M  V30 77 C 4.3784 0.879976 5.1879 0
M  V30 78 O 3.4044 1.56219 5.47343 0
M  V30 79 N 4.6064 -0.307396 5.79686 0
M  V30 80 H 7.3714 1.8588 2.35093 0
M  V30 81 H 4.9324 1.11422 1.1746 0
M  V30 82 H 6.9244 -0.0201474 4.04695 0
M  V30 83 H 5.4944 -0.479437 3.08902 0
M  V30 84 H 4.7144 1.98608 3.40512 0
M  V30 85 H 6.0024 2.14885 4.61196 0
M  V30 86 H 5.4004 -0.878796 5.58832 0
M  V30 87 H 3.9574 -0.631115 6.48737 0
M  V30 88 N 7.3905 -1.2043 1.01659 0
M  V30 89 C 8.3205 -2.25466 0.607226 0
M  V30 90 C 9.3015 -1.65853 -0.377716 0
M  V30 91 O 10.4865 -1.92409 -0.263149 0
M  V30 92 C 7.6165 -3.47256 -0.0552949 0
M  V30 93 C 6.5705 -4.19462 0.850632 0
M  V30 94 C 5.8965 -5.34673 0.0538859 0
M  V30 95 C 7.1965 -4.75603 2.15868 0
M  V30 96 H 8.8905 -2.59962 1.48526 0
M  V30 97 H 6.4365 -1.2496 0.715605 0
M  V30 98 H 8.3895 -4.19917 -0.353233 0
M  V30 99 H 7.1135 -3.11924 -0.968045 0
M  V30 100 H 5.7725 -3.48667 1.13257 0
M  V30 101 H 5.4205 -4.95585 -0.860514 0
M  V30 102 H 5.1205 -5.83913 0.657192 0
M  V30 103 H 6.6445 -6.10138 -0.237598 0
M  V30 104 H 8.0585 -5.40083 1.92311 0
M  V30 105 H 6.4555 -5.3528 2.71284 0
M  V30 106 H 7.5255 -3.94346 2.82169 0
M  V30 107 N 8.8686 -0.792821 -1.36206 0
M  V30 108 C 10.0966 -0.378825 -2.03402 0
M  V30 109 C 10.5116 1.00586 -1.59774 0
M  V30 110 O 9.8686 1.64574 -0.788764 0
M  V30 111 C 9.9196 -0.43683 -3.58851 0
M  V30 112 O 9.6406 -1.76691 -4.00889 0
M  V30 113 C 11.1416 -0.0138943 -4.43298 0
M  V30 114 H 8.3616 -0.155673 -0.652692 0
M  V30 115 H 10.9056 -1.07261 -1.74113 0
M  V30 116 H 9.0606 0.208575 -3.86838 0
M  V30 117 H 9.4746 -1.72011 -4.95492 0
M  V30 118 H 10.9486 -0.105615 -5.51899 0
M  V30 119 H 11.4256 1.03915 -4.2673 0
M  V30 120 H 12.0316 -0.63192 -4.20579 0
M  V30 121 N 10.3467 1.47872 -0.545128 0
M  V30 122 C 11.5927 2.02793 -0.0166104 0
M  V30 123 C 11.9257 1.41987 1.32489 0
M  V30 124 O 11.2007 0.571045 1.85928 0
M  V30 125 C 11.4837 3.59989 0.0893294 0
M  V30 126 C 11.3367 4.3125 -1.27841 0
M  V30 127 C 12.6557 4.32606 0.808724 0
M  V30 128 H 9.7747 0.736962 -0.00751035 0
M  V30 129 H 12.4167 1.76433 -0.705085 0
M  V30 130 H 10.5667 3.82579 0.675681 0
M  V30 131 H 12.2387 4.20035 -1.90704 0
M  V30 132 H 10.4817 3.92076 -1.85632 0
M  V30 133 H 11.1527 5.39736 -1.15713 0
M  V30 134 H 13.6287 4.14936 0.310992 0
M  V30 135 H 12.5047 5.42251 0.851782 0
M  V30 136 H 12.7657 4.00963 1.86229 0
M  V30 137 N 11.8248 0.280983 1.55075 0
M  V30 138 C 13.0718 -0.334115 1.99725 0
M  V30 139 C 13.3998 -1.5542 1.1694 0
M  V30 140 O 12.6548 -1.94361 0.228531 0
M  V30 141 C 12.9538 -0.754656 3.49342 0
M  V30 142 C 12.6198 0.361445 4.49449 0
M  V30 143 C 11.2818 0.667893 4.76542 0
M  V30 144 C 13.6338 1.11322 5.09173 0
M  V30 145 C 10.9618 1.7296 5.60626 0
M  V30 146 C 13.3138 2.1647 5.9441 0
M  V30 147 C 11.9778 2.47742 6.19822 0
M  V30 148 H 11.2478 -0.122261 0.730844 0
M  V30 149 H 13.8948 0.395917 1.87363 0
M  V30 150 H 12.1998 -1.56446 3.5921 0
M  V30 151 H 13.8968 -1.24142 3.813 0
M  V30 152 H 10.4868 0.112481 4.28452 0
M  V30 153 H 14.6708 0.88973 4.8826 0
M  V30 154 H 9.9268 1.97684 5.78559 0
M  V30 155 H 14.1008 2.75193 6.3972 0
M  V30 156 H 11.7278 3.30145 6.84769 0
M  V30 157 N 13.3029 -1.57598 0.00835791 0
M  V30 158 C 14.5499 -1.90928 -0.674732 0
M  V30 159 C 14.8779 -0.88277 -1.73313 0
M  V30 160 O 14.1329 0.111294 -1.95383 0
M  V30 161 C 14.4319 -3.3101 -1.34787 0
M  V30 162 C 14.0979 -4.48922 -0.421861 0
M  V30 163 C 12.7599 -4.8091 -0.166927 0
M  V30 164 C 15.1119 -5.20755 0.215211 0
M  V30 165 C 12.4399 -5.821 0.733232 0
M  V30 166 C 14.7919 -6.22905 1.1033 0
M  V30 167 C 13.4559 -6.53346 1.36733 0
M  V30 168 H 12.7259 -0.698656 -0.246902 0
M  V30 169 H 15.3729 -1.91387 0.0656779 0
M  V30 170 H 13.6779 -3.26714 -2.16253 0
M  V30 171 H 15.3749 -3.54061 -1.8826 0
M  V30 172 H 11.9649 -4.23934 -0.630729 0
M  V30 173 H 16.1489 -4.9629 0.0312829 0
M  V30 174 H 11.4049 -6.04042 0.945712 0
M  V30 175 H 15.5789 -6.77694 1.60325 0
M  V30 176 H 13.2059 -7.31573 2.06652 0
M  V30 177 N 14.781 0.264519 -1.55364 0
M  V30 178 C 15.714 1.35297 -1.83766 0
M  V30 179 C 16.692 1.47171 -0.691336 0
M  V30 180 O 17.876 1.63663 -0.935238 0
M  V30 181 C 15.003 2.72847 -2.00679 0
M  V30 182 C 14.049 2.78214 -3.23263 0
M  V30 183 S 14.882 2.36601 -4.80396 0
M  V30 184 C 16.038 3.7611 -5.00292 0
M  V30 185 H 16.271 1.11003 -2.758 0
M  V30 186 H 13.804 0.464596 -1.47244 0
M  V30 187 H 15.762 3.52057 -2.11108 0
M  V30 188 H 14.423 2.94388 -1.09518 0
M  V30 189 H 13.616 3.7919 -3.3201 0
M  V30 190 H 13.218 2.07034 -3.11469 0
M  V30 191 H 15.51 4.71457 -4.86554 0
M  V30 192 H 16.453 3.7231 -6.02321 0
M  V30 193 H 16.861 3.67806 -4.28228 0
M  V30 194 N 16.2591 1.48442 0.529413 0
M  V30 195 C 17.5081 1.55742 1.28169 0
M  V30 196 C 17.8211 0.236511 1.94165 0
M  V30 197 O 19.0271 0.187761 2.7085 0
M  V30 198 C 17.4831 2.74667 2.32564 0
M  V30 199 C 17.0911 4.13402 1.72636 0
M  V30 200 C 18.8351 2.9128 3.08798 0
M  V30 201 C 16.7421 5.23587 2.74975 0
M  V30 202 H 15.6721 0.579796 0.48203 0
M  V30 203 H 18.3231 1.74776 0.559056 0
M  V30 204 H 16.7051 2.49067 3.07866 0
M  V30 205 H 17.8791 4.49022 1.03519 0
M  V30 206 H 16.1941 4.0191 1.08892 0
M  V30 207 H 18.7911 3.70767 3.85274 0
M  V30 208 H 19.1341 2.00757 3.64695 0
M  V30 209 H 19.6671 3.16782 2.40611 0
M  V30 210 H 16.4061 6.16076 2.23897 0
M  V30 211 H 15.9261 4.92454 3.42417 0
M  V30 212 H 17.6051 5.51724 3.37949 0
M  V30 213 N 17.7372 -0.778329 1.37039 0
M  V30 214 C 18.9862 -1.53189 1.3121 0
M  V30 215 C 19.2992 -1.95328 -0.103095 0
M  V30 216 O 20.5052 -2.70012 -0.283826 0
M  V30 217 C 18.9612 -2.76591 2.30272 0
M  V30 218 C 18.5692 -2.41577 3.77286 0
M  V30 219 C 20.3132 -3.5455 2.33441 0
M  V30 220 C 18.2202 -3.61441 4.68096 0
M  V30 221 H 17.1502 -0.5751 0.487622 0
M  V30 222 H 19.8012 -0.853101 1.62464 0
M  V30 223 H 18.1832 -3.46326 1.92027 0
M  V30 224 H 19.3572 -1.79668 4.2433 0
M  V30 225 H 17.6722 -1.76806 3.76999 0
M  V30 226 H 20.2692 -4.43628 2.98493 0
M  V30 227 H 20.6122 -3.93936 1.34611 0
M  V30 228 H 21.1452 -2.91805 2.7036 0
M  V30 229 H 17.8842 -3.27142 5.6803 0
M  V30 230 H 17.4042 -4.22478 4.25761 0
M  V30 231 H 19.0832 -4.28335 4.8491 0
M  V30 232 N 19.2153 -1.21501 -1.00376 0
M  V30 233 C 20.4453 -1.05746 -1.77486 0
M  V30 234 C 20.8533 0.395655 -1.85017 0
M  V30 235 O 20.1963 1.28626 -1.31152 0
M  V30 236 C 20.2583 -1.58092 -3.22873 0
M  V30 237 C 19.9223 -3.06568 -3.38917 0
M  V30 238 C 20.9193 -4.04106 -3.271 0
M  V30 239 C 18.6043 -3.45799 -3.64319 0
M  V30 240 C 20.5983 -5.38862 -3.40451 0
M  V30 241 C 18.2853 -4.80707 -3.77311 0
M  V30 242 C 19.2833 -5.77047 -3.65384 0
M  V30 243 O 18.9713 -7.09507 -3.77961 0
M  V30 244 H 18.7033 -0.371778 -0.564586 0
M  V30 245 H 21.2573 -1.61319 -1.27143 0
M  V30 246 H 19.4873 -0.969163 -3.74358 0
M  V30 247 H 21.1763 -1.38162 -3.81662 0
M  V30 248 H 21.9423 -3.75141 -3.07399 0
M  V30 249 H 17.8213 -2.71344 -3.72684 0
M  V30 250 H 21.3653 -6.14041 -3.31058 0
M  V30 251 H 17.2623 -5.09357 -3.96517 0
M  V30 252 H 18.0303 -7.16935 -3.94901 0
M  V30 253 N 20.6934 1.19889 -1.02296 0
M  V30 254 C 21.9394 1.89701 -0.717033 0
M  V30 255 C 22.2724 1.7905 0.751989 0
M  V30 256 O 21.5474 1.17891 1.547 0
M  V30 257 C 21.8304 3.40858 -1.16136 0
M  V30 258 C 21.6834 3.60411 -2.69117 0
M  V30 259 C 23.0024 4.33876 -0.737549 0
M  V30 260 H 20.1214 0.688874 -0.261957 0
M  V30 261 H 22.7634 1.41154 -1.27183 0
M  V30 262 H 20.9134 3.82335 -0.689342 0
M  V30 263 H 22.5854 3.28145 -3.2422 0
M  V30 264 H 20.8284 3.03665 -3.0979 0
M  V30 265 H 21.4994 4.66396 -2.95261 0
M  V30 266 H 23.9754 4.00081 -1.14344 0
M  V30 267 H 22.8514 5.38242 -1.0764 0
M  V30 268 H 23.1124 4.40628 0.360436 0
M  V30 269 N 22.1715 0.800033 1.35784 0
M  V30 270 C 23.1015 0.220184 2.3246 0
M  V30 271 C 24.0825 -0.65073 1.57161 0
M  V30 272 O 25.2675 -0.582359 1.85263 0
M  V30 273 C 22.3975 -0.637353 3.41402 0
M  V30 274 C 21.3515 0.134531 4.27789 0
M  V30 275 C 20.6775 -0.844285 5.27992 0
M  V30 276 C 21.9775 1.32979 5.05088 0
M  V30 277 H 23.6715 1.02787 2.81203 0
M  V30 278 H 21.2175 0.495717 1.35199 0
M  V30 279 H 23.1705 -1.05302 4.08031 0
M  V30 280 H 21.8945 -1.47785 2.91251 0
M  V30 281 H 20.5535 0.531296 3.6273 0
M  V30 282 H 20.2015 -1.68011 4.74111 0
M  V30 283 H 19.9015 -0.332184 5.8666 0
M  V30 284 H 21.4255 -1.2583 5.97494 0
M  V30 285 H 22.8395 0.98934 5.64699 0
M  V30 286 H 21.2365 1.77593 5.7322 0
M  V30 287 H 22.3065 2.11978 4.36111 0
M  V30 288 N 23.6496 -1.47581 0.552962 0
M  V30 289 C 24.5596 -2.33743 -0.200353 0
M  V30 290 C 25.5756 -1.47928 -0.916151 0
M  V30 291 O 26.7516 -1.80865 -0.885993 0
M  V30 292 C 23.8166 -3.24536 -1.21973 0
M  V30 293 C 22.8776 -4.26238 -0.511819 0
M  V30 294 C 22.1106 -5.12693 -1.48263 0
M  V30 295 O 22.3336 -5.01525 -2.71714 0
M  V30 296 O 21.2676 -5.93375 -1.00945 0
M  V30 297 H 25.0936 -2.9945 0.506304 0
M  V30 298 H 22.6786 -1.46071 0.313622 0
M  V30 299 H 24.5606 -3.80631 -1.80827 0
M  V30 300 H 23.2356 -2.61462 -1.90839 0
M  V30 301 H 22.1426 -3.73914 0.117799 0
M  V30 302 H 23.4756 -4.92014 0.135308 0
M  V30 303 N 25.1277 -0.289203 -1.54924 0
M  V30 304 C 26.3527 0.329299 -2.04769 0
M  V30 305 C 26.7777 1.4763 -1.16564 0
M  V30 306 O 26.1357 1.80527 -0.167186 0
M  V30 307 C 26.1837 0.774438 -3.52186 0
M  V30 308 O 25.2877 1.88038 -3.67036 0
M  V30 309 H 24.6287 0.0659259 -0.660719 0
M  V30 310 H 27.1587 -0.42761 -2.00082 0
M  V30 311 H 27.1687 1.06642 -3.93816 0
M  V30 312 H 25.8437 -0.0646707 -4.1585 0
M  V30 313 H 24.4207 1.58985 -3.3731 0
M  V30 314 N 26.6058 1.57591 -0.0167156 0
M  V30 315 C 27.5358 2.12496 0.967858 0
M  V30 316 C 28.5168 1.03807 1.34752 0
M  V30 317 O 29.7018 1.31577 1.42833 0
M  V30 318 C 26.8318 2.64194 2.25431 0
M  V30 319 C 25.7858 3.77559 2.01576 0
M  V30 320 C 25.1118 4.15636 3.36379 0
M  V30 321 C 26.4118 5.04151 1.36489 0
M  V30 322 H 28.1058 2.95013 0.510643 0
M  V30 323 H 25.6518 1.41915 0.244181 0
M  V30 324 H 27.6048 3.01236 2.94678 0
M  V30 325 H 26.3288 1.78821 2.73296 0
M  V30 326 H 24.9878 3.40937 1.34751 0
M  V30 327 H 24.6358 3.27263 3.81979 0
M  V30 328 H 24.3358 4.92022 3.21229 0
M  V30 329 H 25.8598 4.5525 4.06915 0
M  V30 330 H 27.2738 5.38857 1.95718 0
M  V30 331 H 25.6708 5.85453 1.31776 0
M  V30 332 H 26.7408 4.83733 0.336219 0
M  V30 333 N 28.0839 -0.256276 1.55502 0
M  V30 334 C 29.3119 -1.00342 1.8094 0
M  V30 335 C 29.7269 -1.79307 0.59114 0
M  V30 336 O 29.0839 -1.77114 -0.440081 0
M  V30 337 C 29.1349 -1.94875 3.04476 0
M  V30 338 O 28.8559 -1.19107 4.21598 0
M  V30 339 C 30.3569 -2.81266 3.42644 0
M  V30 340 H 27.5769 -0.295685 0.602338 0
M  V30 341 H 30.1209 -0.281998 2.02546 0
M  V30 342 H 28.2759 -2.62457 2.84947 0
M  V30 343 H 28.6899 -1.82969 4.91551 0
M  V30 344 H 30.1639 -3.43362 4.32211 0
M  V30 345 H 30.6409 -3.51897 2.62802 0
M  V30 346 H 31.2469 -2.1915 3.64491 0
M  V30 347 N 29.562 -1.4872 -0.521534 0
M  V30 348 C 30.811 -1.56419 -1.27341 0
M  V30 349 C 31.124 -0.246805 -1.94037 0
M  V30 350 O 32.33 -0.202122 -2.70747 0
M  V30 351 C 30.786 -2.75896 -2.31105 0
M  V30 352 C 30.394 -4.14311 -1.70441 0
M  V30 353 C 32.138 -2.92913 -3.07249 0
M  V30 354 C 30.045 -5.25038 -2.72194 0
M  V30 355 H 28.975 -0.582344 -0.478949 0
M  V30 356 H 31.626 -1.75071 -0.549779 0
M  V30 357 H 30.008 -2.50697 -3.06541 0
M  V30 358 H 31.182 -4.49564 -1.01136 0
M  V30 359 H 29.497 -4.02482 -1.06759 0
M  V30 360 H 32.094 -3.72805 -3.83302 0
M  V30 361 H 32.437 -2.02689 -3.63625 0
M  V30 362 H 32.97 -3.18054 -2.38928 0
M  V30 363 H 29.709 -6.17255 -2.20627 0
M  V30 364 H 29.229 -4.94263 -3.39801 0
M  V30 365 H 30.908 -5.53508 -3.35019 0
M  V30 366 N 31.0401 0.771051 -1.3745 0
M  V30 367 C 32.2891 1.52491 -1.3202 0
M  V30 368 C 32.6021 1.9538 0.0927347 0
M  V30 369 O 33.8081 2.70159 0.269503 0
M  V30 370 C 32.2641 2.75366 -2.31736 0
M  V30 371 C 31.8721 2.39573 -3.78562 0
M  V30 372 C 33.6161 3.53307 -2.35318 0
M  V30 373 C 31.5231 3.58954 -4.70007 0
M  V30 374 H 30.4531 0.572506 -0.490666 0
M  V30 375 H 33.1041 0.844474 -1.62914 0
M  V30 376 H 31.4861 3.45303 -1.93861 0
M  V30 377 H 32.6601 1.77415 -4.25277 0
M  V30 378 H 30.9751 1.74805 -3.77932 0
M  V30 379 H 33.5721 4.42039 -3.00842 0
M  V30 380 H 33.9151 3.93217 -1.36698 0
M  V30 381 H 34.4481 2.90367 -2.71904 0
M  V30 382 H 31.1871 3.24125 -5.69757 0
M  V30 383 H 30.7071 4.20214 -4.27996 0
M  V30 384 H 32.3861 4.25758 -4.87175 0
M  V30 385 N 32.5182 1.22032 0.997298 0
M  V30 386 C 33.7642 1.04376 1.73878 0
M  V30 387 C 34.0972 -0.420716 1.89588 0
M  V30 388 O 33.3722 -1.31202 1.43583 0
M  V30 389 C 33.6552 1.75047 3.14691 0
M  V30 390 C 33.5082 3.29062 3.06656 0
M  V30 391 C 34.8272 1.49928 4.13775 0
M  V30 392 H 31.9462 0.380578 0.631133 0
M  V30 393 H 34.5882 1.50312 1.16217 0
M  V30 394 H 32.7382 1.35996 3.63919 0
M  V30 395 H 34.4102 3.7753 2.65083 0
M  V30 396 H 32.6532 3.58967 2.43568 0
M  V30 397 H 33.3242 3.73683 4.06282 0
M  V30 398 H 35.8002 1.83842 3.73285 0
M  V30 399 H 34.6762 2.01878 5.10428 0
M  V30 400 H 34.9372 0.430929 4.39995 0
M  V30 401 N 33.9963 -1.19345 1.0293 0
M  V30 402 C 34.9283 -2.22036 0.56857 0
M  V30 403 C 35.9413 -1.58865 -0.355779 0
M  V30 404 O 37.1303 -1.77851 -0.152103 0
M  V30 405 C 34.2303 -3.38363 -0.190752 0
M  V30 406 C 33.4033 -4.31118 0.738643 0
M  V30 407 C 32.4623 -5.26194 0.0246497 0
M  V30 408 O 31.4883 -5.65461 0.651354 0
M  V30 409 N 32.6903 -5.66971 -1.24594 0
M  V30 410 H 35.4553 -2.6219 1.45177 0
M  V30 411 H 33.0163 -1.34015 0.908381 0
M  V30 412 H 35.0083 -3.98981 -0.677961 0
M  V30 413 H 33.5783 -2.96994 -0.975366 0
M  V30 414 H 32.7983 -3.68276 1.40593 0
M  V30 415 H 34.0863 -4.90001 1.37029 0
M  V30 416 H 33.4843 -5.37104 -1.77583 0
M  V30 417 H 32.0413 -6.2984 -1.67764 0
M  V30 418 N 35.4744 -0.807222 -1.35358 0
M  V30 419 C 36.6994 -0.399309 -2.0352 0
M  V30 420 C 37.1244 0.981986 -1.60433 0
M  V30 421 O 36.4824 1.63601 -0.781299 0
M  V30 422 C 36.5304 -0.491552 -3.57234 0
M  V30 423 O 35.6344 0.494754 -4.09421 0
M  V30 424 H 34.9754 -0.166682 -0.642739 0
M  V30 425 H 37.5054 -1.09328 -1.72941 0
M  V30 426 H 37.5154 -0.361588 -4.06395 0
M  V30 427 H 36.1904 -1.49907 -3.87944 0
M  V30 428 H 34.7674 0.324977 -3.71481 0
M  V30 429 N 36.9525 1.47285 -0.560781 0
M  V30 430 C 38.1775 2.07359 -0.0410566 0
M  V30 431 C 38.6025 1.41017 1.24483 0
M  V30 432 O 37.9605 0.486368 1.74654 0
M  V30 433 C 38.0085 3.6035 0.134123 0
M  V30 434 O 37.1125 3.94681 1.19587 0
M  V30 435 H 36.4535 0.661887 -0.0529291 0
M  V30 436 H 38.9835 1.89252 -0.777482 0
M  V30 437 H 38.9935 4.0652 0.347207 0
M  V30 438 H 37.6685 4.08034 -0.805047 0
M  V30 439 H 36.2455 3.60251 0.962987 0
M  V30 440 N 38.4306 0.297415 1.54768 0
M  V30 441 C 39.3606 -0.573494 2.26348 0
M  V30 442 C 40.3416 -1.14085 1.26169 0
M  V30 443 O 41.5266 -1.17086 1.54934 0
M  V30 444 C 38.6566 -1.74716 3.00153 0
M  V30 445 C 37.6106 -1.31032 4.07449 0
M  V30 446 C 36.9366 -2.56887 4.68949 0
M  V30 447 C 38.2366 -0.444183 5.20408 0
M  V30 448 H 39.9306 0.0235131 2.99391 0
M  V30 449 H 37.4766 0.0127488 1.43994 0
M  V30 450 H 39.4296 -2.3625 3.48947 0
M  V30 451 H 38.1536 -2.37035 2.24682 0
M  V30 452 H 36.8126 -0.718066 3.59499 0
M  V30 453 H 36.4606 -3.17512 3.90122 0
M  V30 454 H 36.1606 -2.2836 5.41411 0
M  V30 455 H 37.6846 -3.19229 5.20505 0
M  V30 456 H 39.0986 -0.9651 5.65118 0
M  V30 457 H 37.4956 -0.252846 5.99567 0
M  V30 458 H 38.5656 0.531609 4.81977 0
M  V30 459 N 39.9087 -1.5758 0.0250728 0
M  V30 460 C 41.1577 -1.90811 -0.653767 0
M  V30 461 C 41.4707 -0.90273 -1.73523 0
M  V30 462 O 42.6767 -1.12614 -2.47043 0
M  V30 463 C 41.1327 -3.38804 -1.21409 0
M  V30 464 C 40.7407 -4.47692 -0.166126 0
M  V30 465 C 42.4847 -3.81108 -1.86967 0
M  V30 466 C 40.3917 -5.86779 -0.737856 0
M  V30 467 H 39.3217 -0.712063 -0.247956 0
M  V30 468 H 41.9727 -1.83281 0.0897137 0
M  V30 469 H 40.3547 -3.41252 -2.00905 0
M  V30 470 H 41.5287 -4.56797 0.606079 0
M  V30 471 H 39.8437 -4.14565 0.390466 0
M  V30 472 H 42.4407 -4.82375 -2.30692 0
M  V30 473 H 42.7837 -3.15953 -2.71071 0
M  V30 474 H 43.3167 -3.81065 -1.14167 0
M  V30 475 H 40.0557 -6.55468 0.0649577 0
M  V30 476 H 39.5757 -5.81288 -1.47864 0
M  V30 477 H 41.2547 -6.35223 -1.22884 0
M  V30 478 N 41.3868 0.248026 -1.55636 0
M  V30 479 C 42.6328 0.97767 -1.77678 0
M  V30 480 C 42.9658 1.85016 -0.590135 0
M  V30 481 O 42.2408 1.90095 0.411611 0
M  V30 482 C 42.5238 1.83914 -3.09593 0
M  V30 483 C 42.3768 0.99491 -4.38659 0
M  V30 484 C 43.6958 2.82183 -3.37729 0
M  V30 485 H 40.8148 0.354005 -0.646413 0
M  V30 486 H 43.4568 0.248253 -1.88371 0
M  V30 487 H 41.6068 2.46104 -3.00608 0
M  V30 488 H 43.2788 0.391789 -4.59633 0
M  V30 489 H 41.5218 0.299231 -4.32767 0
M  V30 490 H 42.1928 1.63145 -5.2734 0
M  V30 491 H 44.6688 2.30129 -3.4667 0
M  V30 492 H 43.5448 3.39582 -4.31249 0
M  V30 493 H 43.8058 3.58588 -2.58586 0
M  V30 494 N 42.8649 1.48995 0.513639 0
M  V30 495 C 43.8279 1.64229 1.59879 0
M  V30 496 C 44.8279 0.514696 1.5234 0
M  V30 497 O 46.0179 0.78087 1.55718 0
M  V30 498 C 43.1499 1.62783 2.99524 0
M  V30 499 H 44.3429 2.61004 1.47705 0
M  V30 500 H 41.8959 1.37837 0.736936 0
M  V30 501 H 42.6309 0.675461 3.17188 0
M  V30 502 H 42.4159 2.4466 3.06404 0
M  V30 503 H 43.9059 1.76669 3.78388 0
M  V30 504 N 44.343 -0.763751 1.37857 0
M  V30 505 C 45.589 -1.52483 1.33704 0
M  V30 506 C 45.922 -1.94051 -0.0759612 0
M  V30 507 O 45.197 -1.64675 -1.03501 0
M  V30 508 C 45.48 -2.78441 2.28348 0
M  V30 509 C 45.333 -2.43075 3.78463 0
M  V30 510 C 46.652 -3.80415 2.21298 0
M  V30 511 H 43.771 -0.553169 0.487005 0
M  V30 512 H 46.413 -0.875562 1.68624 0
M  V30 513 H 44.563 -3.33842 1.987 0
M  V30 514 H 46.235 -1.93527 4.18742 0
M  V30 515 H 44.478 -1.75666 3.96641 0
M  V30 516 H 45.149 -3.33149 4.40132 0
M  V30 517 H 47.625 -3.34527 2.47449 0
M  V30 518 H 46.501 -4.66257 2.89647 0
M  V30 519 H 46.762 -4.25262 1.20849 0
M  V30 520 N 45.8211 -1.22559 -0.990812 0
M  V30 521 C 46.7511 -1.0218 -2.09956 0
M  V30 522 C 47.7321 0.0579394 -1.70001 0
M  V30 523 O 48.9171 -0.104684 -1.93918 0
M  V30 524 C 46.0471 -0.601023 -3.4206 0
M  V30 525 C 45.0011 -1.62694 -3.95872 0
M  V30 526 C 44.3271 -1.06193 -5.24049 0
M  V30 527 C 45.6271 -3.01743 -4.2632 0
M  V30 528 H 47.3211 -1.94916 -2.27262 0
M  V30 529 H 44.8671 -0.938566 -1.09211 0
M  V30 530 H 46.8201 -0.445561 -4.19038 0
M  V30 531 H 45.5441 0.362005 -3.24588 0
M  V30 532 H 44.2031 -1.77021 -3.21028 0
M  V30 533 H 43.8511 -0.0901903 -5.02919 0
M  V30 534 H 43.5511 -1.74732 -5.61019 0
M  V30 535 H 45.0751 -0.918092 -6.03658 0
M  V30 536 H 46.4891 -2.90777 -4.94087 0
M  V30 537 H 44.8861 -3.67425 -4.74467 0
M  V30 538 H 45.9561 -3.51518 -3.34011 0
M  V30 539 N 47.2992 1.18797 -1.03562 0
M  V30 540 C 48.5472 1.88278 -0.734569 0
M  V30 541 C 48.8682 1.8043 0.739586 0
M  V30 542 O 48.1382 1.21925 1.53333 0
M  V30 543 H 46.7182 0.696991 -0.268725 0
M  V30 544 H 49.3802 1.44192 -1.31129 0
M  V30 545 H 48.4762 2.94443 -1.03489 0
M  V30 546 N 48.7773 0.814389 1.34928 0
M  V30 547 C 50.1933 0.499084 1.51596 0
M  V30 548 C 50.3933 -0.978319 1.76157 0
M  V30 549 O 49.4493 -1.76309 1.80752 0
M  V30 550 C 50.7623 1.35121 2.68631 0
M  V30 551 C 52.3103 1.34746 2.82511 0
M  V30 552 C 52.7853 2.18388 4.0258 0
M  V30 553 N 54.2763 2.15966 4.09772 0
M  V30 554 C 55.0113 2.77437 5.01813 0
M  V30 555 N 54.5073 3.47866 5.99134 0
M  V30 556 N 56.3003 2.67037 4.94619 0
M  V30 557 H 48.4513 1.7711 1.17243 0
M  V30 558 H 50.7143 0.754256 0.574284 0
M  V30 559 H 50.4203 2.40001 2.57085 0
M  V30 560 H 50.2943 1.00991 3.63429 0
M  V30 561 H 52.6813 0.30648 2.93504 0
M  V30 562 H 52.7623 1.72869 1.88547 0
M  V30 563 H 52.4063 3.2253 3.92347 0
M  V30 564 H 52.3363 1.77621 4.9574 0
M  V30 565 H 54.8273 1.64729 3.40107 0
M  V30 566 H 55.1403 3.92038 6.65977 0
M  V30 567 H 53.4853 3.51972 5.99284 0
M  V30 568 H 56.6763 2.11597 4.17546 0
M  V30 569 H 56.8493 3.15232 5.66156 0
M  V30 570 N 50.2554 -1.46986 0.568584 0
M  V30 571 C 51.1654 -2.33942 -0.17555 0
M  V30 572 C 52.1814 -1.48891 -0.90041 0
M  V30 573 O 53.3574 -1.81794 -0.86676 0
M  V30 574 C 50.4224 -3.25811 -1.18524 0
M  V30 575 C 49.4834 -4.26757 -0.466582 0
M  V30 576 C 48.7164 -5.14236 -1.42817 0
M  V30 577 O 48.9394 -5.04379 -2.66379 0
M  V30 578 O 47.8734 -5.94412 -0.946453 0
M  V30 579 H 51.6994 -2.98896 0.538036 0
M  V30 580 H 49.2844 -1.4573 0.329097 0
M  V30 581 H 51.1664 -3.82527 -1.76779 0
M  V30 582 H 49.8414 -2.63471 -1.88055 0
M  V30 583 H 48.7484 -3.73769 0.157451 0
M  V30 584 H 50.0814 -4.91843 0.187485 0
M  V30 585 N 51.7335 -0.305618 -1.54608 0
M  V30 586 C 52.9795 0.295595 -2.01241 0
M  V30 587 C 53.3345 1.51171 -1.19018 0
M  V30 588 O 52.6275 1.89832 -0.259684 0
M  V30 589 C 52.8215 0.698983 -3.50498 0
M  V30 590 C 52.6505 -0.476491 -4.47168 0
M  V30 591 C 51.4205 -0.969963 -4.95903 0
M  V30 592 C 53.6185 -1.32294 -4.96994 0
M  V30 593 N 51.6005 -2.11172 -5.76437 0
M  V30 594 C 52.9715 -2.31212 -5.75275 0
M  V30 595 C 55.0265 -1.35278 -4.7917 0
M  V30 596 C 53.7295 -3.32896 -6.37631 0
M  V30 597 C 55.7555 -2.35823 -5.42348 0
M  V30 598 C 55.1175 -3.33469 -6.20466 0
M  V30 599 H 51.2165 0.0724992 -0.778632 0
M  V30 600 H 53.8005 -0.436583 -1.89742 0
M  V30 601 H 51.9715 1.40032 -3.62278 0
M  V30 602 H 53.7035 1.28013 -3.8392 0
M  V30 603 H 50.4585 -0.544178 -4.70463 0
M  V30 604 H 50.8825 -2.68714 -6.21387 0
M  V30 605 H 55.5245 -0.61157 -4.18354 0
M  V30 606 H 53.2425 -4.07933 -6.97579 0
M  V30 607 H 56.8285 -2.38911 -5.30484 0
M  V30 608 H 55.7085 -4.09996 -6.68485 0
M  V30 609 N 53.2116 1.57565 -0.0334293 0
M  V30 610 C 54.1416 2.13511 0.945265 0
M  V30 611 C 55.1226 1.05231 1.33643 0
M  V30 612 O 56.3076 1.33084 1.41429 0
M  V30 613 C 53.4376 2.6657 2.22616 0
M  V30 614 C 52.3916 3.79676 1.97561 0
M  V30 615 C 51.7176 4.1918 3.31952 0
M  V30 616 C 53.0176 5.0557 1.31135 0
M  V30 617 H 54.7116 2.95538 0.479325 0
M  V30 618 H 52.2576 1.42166 0.229115 0
M  V30 619 H 54.2106 3.04344 2.91466 0
M  V30 620 H 52.9346 1.8171 2.71384 0
M  V30 621 H 51.5936 3.42347 1.31127 0
M  V30 622 H 51.2416 3.31296 3.78487 0
M  V30 623 H 50.9416 4.95402 3.15992 0
M  V30 624 H 52.4656 4.59541 4.02063 0
M  V30 625 H 53.8796 5.40903 1.89992 0
M  V30 626 H 52.2766 5.86818 1.25559 0
M  V30 627 H 53.3466 4.84062 0.284894 0
M  V30 628 N 54.6897 -0.239769 1.55765 0
M  V30 629 C 55.6217 -1.32001 1.87372 0
M  V30 630 C 56.6347 -1.43944 0.760522 0
M  V30 631 O 57.8237 -1.45167 1.0387 0
M  V30 632 C 54.9237 -2.69779 2.05115 0
M  V30 633 C 54.0967 -2.80014 3.36022 0
M  V30 634 C 53.1557 -3.98684 3.4342 0
M  V30 635 O 52.1817 -3.87877 4.16582 0
M  V30 636 N 53.3837 -5.12176 2.73232 0
M  V30 637 H 56.1487 -1.0522 2.80622 0
M  V30 638 H 53.7097 -0.429857 1.56089 0
M  V30 639 H 55.7017 -3.47517 2.07399 0
M  V30 640 H 54.2717 -2.89237 1.18577 0
M  V30 641 H 53.4917 -1.88896 3.45994 0
M  V30 642 H 54.7797 -2.83808 4.22292 0
M  V30 643 H 54.1777 -5.2385 2.13536 0
M  V30 644 H 52.7347 -5.88022 2.81199 0
M  V30 645 N 56.1678 -1.49265 -0.50573 0
M  V30 646 C 57.4138 -1.58748 -1.26202 0
M  V30 647 C 57.7468 -0.271227 -1.92297 0
M  V30 648 O 57.0218 0.724831 -1.80489 0
M  V30 649 C 57.3048 -2.74332 -2.33268 0
M  V30 650 C 57.1578 -4.15737 -1.71705 0
M  V30 651 C 58.4768 -2.85576 -3.34865 0
M  V30 652 H 55.5958 -0.577826 -0.457478 0
M  V30 653 H 58.2378 -1.81532 -0.560897 0
M  V30 654 H 56.3878 -2.55036 -2.93068 0
M  V30 655 H 58.0598 -4.46537 -1.15769 0
M  V30 656 H 56.3028 -4.21605 -1.02135 0
M  V30 657 H 56.9738 -4.92477 -2.49341 0
M  V30 658 H 59.4498 -3.03127 -2.8505 0
M  V30 659 H 58.3258 -3.68135 -4.07146 0
M  V30 660 H 58.5868 -1.94732 -3.96903 0
M  V30 661 N 57.6459 0.756429 -1.3826 0
M  V30 662 C 59.0619 1.0591 -1.19395 0
M  V30 663 C 59.2619 2.01459 -0.0406567 0
M  V30 664 O 58.3179 2.44909 0.614467 0
M  V30 665 C 59.6309 1.64191 -2.51916 0
M  V30 666 C 61.1789 1.76376 -2.58574 0
M  V30 667 C 61.6539 2.38069 -3.91264 0
M  V30 668 N 63.1449 2.45503 -3.92788 0
M  V30 669 C 63.8799 2.94126 -4.92217 0
M  V30 670 N 63.3759 3.42805 -6.02043 0
M  V30 671 N 65.1689 2.9314 -4.7961 0
M  V30 672 H 57.3199 0.122313 -2.12048 0
M  V30 673 H 59.5829 0.116892 -0.940766 0
M  V30 674 H 59.2889 1.01451 -3.3675 0
M  V30 675 H 59.1629 2.6329 -2.70108 0
M  V30 676 H 61.5499 2.38244 -1.74137 0
M  V30 677 H 61.6309 0.759894 -2.44252 0
M  V30 678 H 61.2749 1.76835 -4.76121 0
M  V30 679 H 61.2049 3.39091 -4.02895 0
M  V30 680 H 63.6959 2.1107 -3.13461 0
M  V30 681 H 64.0089 3.78354 -6.73846 0
M  V30 682 H 62.3539 3.4087 -6.05667 0
M  V30 683 H 65.5449 2.54419 -3.92923 0
M  V30 684 H 65.7179 3.30721 -5.5725 0
M  V30 685 N 59.124 1.23083 0.984299 0
M  V30 686 C 60.54 0.992637 1.24975 0
M  V30 687 C 60.74 -0.308618 1.99123 0
M  V30 688 O 59.796 -1.02905 2.30579 0
M  V30 689 C 61.109 2.19698 2.05312 0
M  V30 690 C 62.657 2.24147 2.18465 0
M  V30 691 C 63.132 3.44157 3.02192 0
M  V30 692 N 64.623 3.44372 3.09777 0
M  V30 693 C 65.358 4.33886 3.74874 0
M  V30 694 N 64.854 5.3363 4.41827 0
M  V30 695 N 66.647 4.21639 3.71721 0
M  V30 696 H 58.798 2.06731 0.487453 0
M  V30 697 H 61.061 0.906339 0.277944 0
M  V30 698 H 60.767 3.1411 1.58201 0
M  V30 699 H 60.641 2.20465 3.06064 0
M  V30 700 H 63.028 1.30277 2.64786 0
M  V30 701 H 63.109 2.27415 1.17115 0
M  V30 702 H 62.753 4.38332 2.56568 0
M  V30 703 H 62.683 3.3813 4.03702 0
M  V30 704 H 65.174 2.72201 2.62135 0
M  V30 705 H 65.487 5.98196 4.89266 0
M  V30 706 H 63.832 5.37534 4.40548 0
M  V30 707 H 67.023 3.42962 3.18582 0
M  V30 708 H 67.196 4.91604 4.22173 0
M  V30 709 N 60.6021 -1.18246 1.0419 0
M  V30 710 C 61.5321 -2.24127 0.654914 0
M  V30 711 C 62.5131 -1.66617 -0.342451 0
M  V30 712 O 63.6981 -1.92924 -0.222277 0
M  V30 713 C 60.8281 -3.47295 0.0183757 0
M  V30 714 C 59.7821 -4.17563 0.939414 0
M  V30 715 C 59.1081 -5.34438 0.167286 0
M  V30 716 C 60.4081 -4.70917 2.25908 0
M  V30 717 H 62.1021 -2.56753 1.54007 0
M  V30 718 H 59.6481 -1.23414 0.74195 0
M  V30 719 H 61.6011 -4.20572 -0.264082 0
M  V30 720 H 60.3251 -3.13907 -0.901664 0
M  V30 721 H 58.9841 -3.46186 1.20628 0
M  V30 722 H 58.6321 -4.97298 -0.7552 0
M  V30 723 H 58.3321 -5.82388 0.780901 0
M  V30 724 H 59.8561 -6.10504 -0.108125 0
M  V30 725 H 61.2701 -5.35882 2.03724 0
M  V30 726 H 59.6671 -5.29406 2.82577 0
M  V30 727 H 60.7371 -3.88272 2.9047 0
M  V30 728 N 62.0802 -0.821533 -1.34494 0
M  V30 729 C 63.0132 -0.187704 -2.27427 0
M  V30 730 C 63.9912 0.65507 -1.48821 0
M  V30 731 O 65.1752 0.619111 -1.78043 0
M  V30 732 C 62.3022 0.737996 -3.30562 0
M  V30 733 C 61.3482 -0.0270713 -4.26491 0
M  V30 734 S 62.1812 -1.37329 -5.17592 0
M  V30 735 C 63.3372 -0.452427 -6.24263 0
M  V30 736 H 63.5702 -0.975598 -2.80837 0
M  V30 737 H 61.1032 -0.61736 -1.4152 0
M  V30 738 H 63.0612 1.26654 -3.90473 0
M  V30 739 H 61.7222 1.4994 -2.76001 0
M  V30 740 H 60.9152 0.6766 -4.99438 0
M  V30 741 H 60.5172 -0.48612 -3.70827 0
M  V30 742 H 62.8092 0.356557 -6.76561 0
M  V30 743 H 63.7522 -1.15153 -6.98674 0
M  V30 744 H 64.1602 -0.0414755 -5.64485 0
M  V30 745 N 63.5583 1.46682 -0.576371 0
M  V30 746 C 64.9693 1.86112 -0.148091 0
M  V30 747 C 65.3203 1.48073 1.2872 0
M  V30 748 O 64.4453 0.892656 1.97131 0
M  V30 749 C 65.0403 3.37786 -0.261982 0
M  V30 750 C 63.5993 3.76235 0.111384 0
M  V30 751 C 62.7463 2.70713 -0.60083 0
M  V30 752 H 65.6973 1.37927 -0.78497 0
M  V30 753 H 65.7183 3.77007 0.514364 0
M  V30 754 H 65.2303 3.6544 -1.30671 0
M  V30 755 H 63.3313 3.54198 1.15649 0
M  V30 756 H 63.4443 4.78391 -0.26052 0
M  V30 757 H 61.8083 2.54666 -0.0417783 0
M  V30 758 H 62.5913 3.01208 -1.64708 0
M  V30 759 N 65.0364 0.313813 1.54444 0
M  V30 760 C 66.2824 -0.292108 2.00685 0
M  V30 761 C 66.6154 -1.52548 1.20177 0
M  V30 762 O 65.8904 -1.92452 0.281531 0
M  V30 763 C 66.1734 -0.635968 3.5444 0
M  V30 764 C 66.0264 0.607437 4.4568 0
M  V30 765 C 67.3454 -1.45747 4.15266 0
M  V30 766 H 64.4644 -0.104697 0.729526 0
M  V30 767 H 67.1064 0.428457 1.85106 0
M  V30 768 H 65.2564 -1.24986 3.67846 0
M  V30 769 H 66.9284 1.24581 4.44159 0
M  V30 770 H 65.1714 1.23822 4.15753 0
M  V30 771 H 65.8424 0.322515 5.51057 0
M  V30 772 H 68.3184 -0.938645 4.05375 0
M  V30 773 H 67.1944 -1.66683 5.2298 0
M  V30 774 H 67.4554 -2.45063 3.67963 0
M  V30 775 N 66.5145 -1.57545 0.0417849 0
M  V30 776 C 67.7915 -1.83642 -0.673433 0
M  V30 777 C 68.1715 -0.928298 -1.89594 0
M  V30 778 O 67.5195 0.0129955 -2.28496 0
M  V30 779 C 67.7295 -3.33155 -1.03964 0
M  V30 780 C 69.0775 -3.99941 -1.42592 0
M  V30 781 O 70.1015 -3.37725 -1.13226 0
M  V30 782 O 68.9605 -5.09619 -1.9736 0
M  V30 783 H 66.0545 -0.757638 -0.331533 0
M  V30 784 H 68.6005 -1.69554 0.070433 0
M  V30 785 H 67.3725 -3.9093 -0.170098 0
M  V30 786 H 66.9955 -3.52396 -1.84126 0
M  V30 787 N 67.9926 0.231505 -1.5589 0
M  V30 788 C 68.9256 1.31369 -1.86595 0
M  V30 789 C 69.9036 1.45671 -0.722397 0
M  V30 790 O 71.0876 1.61642 -0.969743 0
M  V30 791 C 68.2146 2.68529 -2.06421 0
M  V30 792 C 67.2606 2.71295 -3.29092 0
M  V30 793 S 68.0936 2.26358 -4.85306 0
M  V30 794 C 69.2496 3.65414 -5.08157 0
M  V30 795 H 69.4826 1.05128 -2.78092 0
M  V30 796 H 67.0156 0.433259 -1.48197 0
M  V30 797 H 68.9736 3.47499 -2.18528 0
M  V30 798 H 67.6346 2.91999 -1.15738 0
M  V30 799 H 66.8276 3.72063 -3.39978 0
M  V30 800 H 66.4296 2.0038 -3.15791 0
M  V30 801 H 68.7216 4.6103 -4.96445 0
M  V30 802 H 69.6646 3.5945 -6.10083 0
M  V30 803 H 70.0726 3.5864 -4.35933 0
M  V30 804 N 69.4707 1.49531 0.497807 0
M  V30 805 C 70.7197 1.58426 1.24837 0
M  V30 806 C 71.0327 0.277643 1.93619 0
M  V30 807 O 72.2387 0.24517 2.70391 0
M  V30 808 C 70.6947 2.79538 2.26686 0
M  V30 809 C 70.3027 4.16971 1.63828 0
M  V30 810 C 72.0467 2.97764 3.0255 0
M  V30 811 C 69.9537 5.29301 2.63807 0
M  V30 812 H 68.8837 0.58989 0.469623 0
M  V30 813 H 71.5347 1.75923 0.521857 0
M  V30 814 H 69.9167 2.55542 3.02514 0
M  V30 815 H 71.0907 4.51116 0.939711 0
M  V30 816 H 69.4057 4.04129 1.00342 0
M  V30 817 H 72.0027 3.78856 3.77323 0
M  V30 818 H 72.3457 2.08448 3.60354 0
M  V30 819 H 72.8787 3.21815 2.33838 0
M  V30 820 H 69.6177 6.20687 2.10779 0
M  V30 821 H 69.1377 4.99606 3.31894 0
M  V30 822 H 70.8167 5.58768 3.2617 0
M  V30 823 N 70.9488 -0.749086 1.3866 0
M  V30 824 C 71.8788 -1.8764 1.38973 0
M  V30 825 C 72.8598 -1.68178 0.255004 0
M  V30 826 O 74.0448 -1.88704 0.458754 0
M  V30 827 C 71.1748 -3.25222 1.21851 0
M  V30 828 C 70.1288 -3.59295 2.32575 0
M  V30 829 C 69.4548 -4.95663 2.00555 0
M  V30 830 C 70.7548 -3.63709 3.7485 0
M  V30 831 H 72.4488 -1.87635 2.3331 0
M  V30 832 H 69.9948 -0.901329 1.12303 0
M  V30 833 H 71.9478 -4.03746 1.20695 0
M  V30 834 H 70.6718 -3.25719 0.239775 0
M  V30 835 H 69.3308 -2.83093 2.32925 0
M  V30 836 H 68.9788 -4.92724 1.01154 0
M  V30 837 H 68.6788 -5.19429 2.74714 0
M  V30 838 H 70.2028 -5.7656 2.01024 0
M  V30 839 H 71.6168 -4.32338 3.76506 0
M  V30 840 H 70.0138 -3.98986 4.48252 0
M  V30 841 H 71.0838 -2.63834 4.06841 0
M  V30 842 N 72.4269 -1.23603 -0.977757 0
M  V30 843 C 73.6759 -1.06377 -1.71368 0
M  V30 844 C 73.9889 0.399062 -1.91486 0
M  V30 845 O 75.1949 0.691312 -2.62551 0
M  V30 846 C 73.6509 -1.85512 -3.08404 0
M  V30 847 C 73.2589 -3.36141 -2.96164 0
M  V30 848 C 75.0029 -1.76783 -3.85938 0
M  V30 849 C 72.9099 -4.07659 -4.28449 0
M  V30 850 H 71.8399 -0.394452 -0.642591 0
M  V30 851 H 74.4909 -1.47594 -1.09034 0
M  V30 852 H 72.8729 -1.37103 -3.71509 0
M  V30 853 H 74.0469 -3.92056 -2.42133 0
M  V30 854 H 72.3619 -3.45712 -2.32104 0
M  V30 855 H 74.9589 -2.27526 -4.83876 0
M  V30 856 H 75.3019 -0.731116 -4.0983 0
M  V30 857 H 75.8349 -2.22818 -3.2954 0
M  V30 858 H 72.5739 -5.11648 -4.09752 0
M  V30 859 H 72.0939 -3.5653 -4.82334 0
M  V30 860 H 73.7729 -4.141 -4.97122 0
M  V30 861 N 73.905 1.17692 -1.04816 0
M  V30 862 C 75.13 1.92327 -0.776207 0
M  V30 863 C 75.555 1.76082 0.661581 0
M  V30 864 O 74.913 1.076 1.45917 0
M  V30 865 C 74.961 3.41539 -1.15687 0
M  V30 866 O 74.065 4.11402 -0.286775 0
M  V30 867 H 73.406 0.599735 -0.284981 0
M  V30 868 H 75.936 1.49201 -1.4 0
M  V30 869 H 75.946 3.92269 -1.12202 0
M  V30 870 H 74.621 3.52684 -2.20425 0
M  V30 871 H 73.198 3.70939 -0.381903 0
M  V30 872 N 75.3831 0.828654 1.34056 0
M  V30 873 C 76.3131 0.269443 2.3194 0
M  V30 874 C 77.2941 -0.617247 1.58506 0
M  V30 875 O 78.4791 -0.542931 1.86456 0
M  V30 876 C 75.6091 -0.564793 3.42677 0
M  V30 877 C 74.5631 0.225241 4.27407 0
M  V30 878 C 73.8891 -0.7321 5.29664 0
M  V30 879 C 75.1891 1.43663 5.02154 0
M  V30 880 H 76.8831 1.08728 2.7896 0
M  V30 881 H 74.4291 0.524283 1.34117 0
M  V30 882 H 76.3821 -0.966233 4.10173 0
M  V30 883 H 75.1061 -1.41574 2.9432 0
M  V30 884 H 73.7651 0.608117 3.61521 0
M  V30 885 H 73.4131 -1.57916 4.77568 0
M  V30 886 H 73.1131 -0.20767 5.87233 0
M  V30 887 H 74.6371 -1.13128 6.00029 0
M  V30 888 H 76.0511 1.1089 5.62473 0
M  V30 889 H 74.4481 1.89711 5.69324 0
M  V30 890 H 75.5181 2.21181 4.31517 0
M  V30 891 N 76.8612 -1.46375 0.584142 0
M  V30 892 C 78.1092 -2.01978 0.0701287 0
M  V30 893 C 78.4302 -1.4579 -1.295 0
M  V30 894 O 77.7002 -0.64314 -1.85042 0
M  V30 895 H 76.2802 -0.746648 0.0229345 0
M  V30 896 H 78.9422 -1.79461 0.760245 0
M  V30 897 H 78.0382 -3.121 0.0022064 0
M  V30 898 N 78.3393 -0.321999 -1.54275 0
M  V30 899 C 79.5883 0.281931 -1.9972 0
M  V30 900 C 79.9013 1.53369 -1.21397 0
M  V30 901 O 81.1073 2.21352 -1.57211 0
M  V30 902 C 79.5633 0.5529 -3.55628 0
M  V30 903 C 79.1713 -0.681721 -4.42783 0
M  V30 904 C 80.9153 1.11687 -4.09544 0
M  V30 905 C 78.8223 -0.382742 -5.9016 0
M  V30 906 H 77.7523 0.109124 -0.746062 0
M  V30 907 H 80.4033 -0.43398 -1.78294 0
M  V30 908 H 78.7853 1.32896 -3.73035 0
M  V30 909 H 79.9593 -1.45723 -4.37151 0
M  V30 910 H 78.2743 -1.1658 -3.99748 0
M  V30 911 H 80.8713 1.35515 -5.17242 0
M  V30 912 H 81.2143 2.06575 -3.61431 0
M  V30 913 H 81.7473 0.402032 -3.95763 0
M  V30 914 H 78.4863 -1.30076 -6.42464 0
M  V30 915 H 78.0063 0.355094 -5.98748 0
M  V30 916 H 79.6853 0.00800157 -6.47 0
M  V30 917 N 79.8174 1.5752 -0.0501392 0
M  V30 918 C 81.0424 1.97376 0.636997 0
M  V30 919 C 81.4674 0.927466 1.63645 0
M  V30 920 O 80.8254 -0.10941 1.8097 0
M  V30 921 C 80.8734 3.36304 1.30123 0
M  V30 922 O 79.9774 3.34156 2.41689 0
M  V30 923 H 79.3184 0.642998 0.165679 0
M  V30 924 H 81.8484 2.04258 -0.118233 0
M  V30 925 H 81.8584 3.73008 1.65315 0
M  V30 926 H 80.5334 4.11993 0.568746 0
M  V30 927 H 79.1104 3.09196 2.08451 0
M  V30 928 N 81.2955 -0.223234 1.56011 0
M  V30 929 C 82.7115 -0.572856 1.48965 0
M  V30 930 C 82.9115 -1.87225 0.74492 0
M  V30 931 O 81.9675 -2.50899 0.283896 0
M  V30 932 C 83.2805 -0.653646 2.9351 0
M  V30 933 C 84.8285 -0.744386 3.0402 0
M  V30 934 C 85.3035 -0.856535 4.49919 0
M  V30 935 N 86.7945 -0.9208 4.53955 0
M  V30 936 C 87.5295 -1.02726 5.64123 0
M  V30 937 N 87.0255 -1.09777 6.84047 0
M  V30 938 N 88.8185 -1.06226 5.51971 0
M  V30 939 H 80.9695 0.629462 2.02858 0
M  V30 940 H 83.2325 0.220621 0.921971 0
M  V30 941 H 82.9385 0.231518 3.50937 0
M  V30 942 H 82.8125 -1.51781 3.45315 0
M  V30 943 H 85.1995 -1.61999 2.46658 0
M  V30 944 H 85.2805 0.14541 2.55386 0
M  V30 945 H 84.9245 0.0146069 5.07898 0
M  V30 946 H 84.8545 -1.76172 4.96257 0
M  V30 947 H 87.3455 -0.876694 3.6759 0
M  V30 948 H 87.6585 -1.17872 7.63758 0
M  V30 949 H 86.0035 -1.06693 6.86762 0
M  V30 950 H 89.1945 -1.00382 4.5721 0
M  V30 951 H 89.3675 -1.14177 6.37862 0
M  V30 952 N 82.7736 -1.49793 -0.48987 0
M  V30 953 C 84.0206 -1.59841 -1.24327 0
M  V30 954 C 84.3486 -0.290135 -1.92324 0
M  V30 955 O 83.6036 0.722749 -1.81865 0
M  V30 956 C 83.9026 -2.71488 -2.32441 0
M  V30 957 C 83.5686 -4.12614 -1.81826 0
M  V30 958 C 82.2306 -4.51017 -1.67742 0
M  V30 959 C 84.5826 -5.00892 -1.4407 0
M  V30 960 C 81.9106 -5.75459 -1.14297 0
M  V30 961 C 84.2626 -6.25863 -0.920742 0
M  V30 962 C 82.9266 -6.63086 -0.766383 0
M  V30 963 H 82.1966 -0.584899 -0.454944 0
M  V30 964 H 84.8436 -1.83663 -0.542215 0
M  V30 965 H 83.1486 -2.4168 -3.0838 0
M  V30 966 H 84.8456 -2.76469 -2.90458 0
M  V30 967 H 81.4356 -3.82307 -1.93751 0
M  V30 968 H 85.6196 -4.7187 -1.53794 0
M  V30 969 H 80.8756 -6.02989 -1.01068 0
M  V30 970 H 85.0496 -6.9364 -0.619448 0
M  V30 971 H 82.6766 -7.59393 -0.350083 0
M  V30 972 N 84.2517 0.741722 -1.39055 0
M  V30 973 C 85.4917 1.51385 -1.37338 0
M  V30 974 C 85.8557 1.91972 0.0330513 0
M  V30 975 O 87.0567 2.68229 0.175174 0
M  V30 976 C 85.3277 2.72481 -2.31276 0
M  V30 977 S 86.8867 3.62211 -2.47687 0
M  V30 978 H 83.7047 0.517906 -0.487129 0
M  V30 979 H 86.3067 0.86969 -1.7509 0
M  V30 980 H 85.0107 2.40793 -3.32336 0
M  V30 981 H 84.5417 3.41832 -1.94716 0
M  V30 982 H 86.5567 4.65812 -1.70978 0
M  V30 983 N 85.7298 1.2412 0.971189 0
M  V30 984 C 86.6598 1.05508 2.08304 0
M  V30 985 C 87.6408 -0.0308864 1.70072 0
M  V30 986 O 88.8258 0.135521 1.93727 0
M  V30 987 C 85.9558 0.655365 3.4106 0
M  V30 988 C 84.9098 1.68971 3.93234 0
M  V30 989 C 84.2358 1.14516 5.22293 0
M  V30 990 C 85.5358 3.08487 4.21465 0
M  V30 991 H 87.2298 1.98507 2.24132 0
M  V30 992 H 84.7758 0.955821 1.07704 0
M  V30 993 H 86.7288 0.51217 4.18276 0
M  V30 994 H 85.4528 -0.31032 3.25122 0
M  V30 995 H 84.1118 1.82106 3.18171 0
M  V30 996 H 83.7598 0.170189 5.02712 0
M  V30 997 H 83.4598 1.83635 5.58168 0
M  V30 998 H 84.9838 1.01401 6.02121 0
M  V30 999 H 86.3978 2.98601 4.89398 0
M  V30 1000 H 84.7948 3.74926 4.68562 0
M  V30 1001 H 85.8648 3.56787 3.28376 0
M  V30 1002 N 87.2079 -1.17134 1.05439 0
M  V30 1003 C 88.1399 -2.2078 0.615539 0
M  V30 1004 C 89.1529 -1.59584 -0.322001 0
M  V30 1005 O 90.3419 -1.78133 -0.114344 0
M  V30 1006 C 87.4419 -3.38691 -0.118938 0
M  V30 1007 C 86.6149 -4.29454 0.829924 0
M  V30 1008 C 85.6739 -5.26024 0.136258 0
M  V30 1009 O 84.6999 -5.63952 0.77115 0
M  V30 1010 N 85.9019 -5.69487 -1.1254 0
M  V30 1011 H 88.6669 -2.59052 1.50705 0
M  V30 1012 H 86.2279 -1.32058 0.936603 0
M  V30 1013 H 88.2199 -4.00329 -0.593179 0
M  V30 1014 H 86.7899 -2.98996 -0.91215 0
M  V30 1015 H 86.0099 -3.65211 1.48373 0
M  V30 1016 H 87.2979 -4.86984 1.47392 0
M  V30 1017 H 86.6959 -5.4075 -1.6615 0
M  V30 1018 H 85.2529 -6.33257 -1.54366 0
M  V30 1019 N 88.686 -0.835752 -1.33615 0
M  V30 1020 C 89.932 -0.439817 -1.98588 0
M  V30 1021 C 90.287 0.989274 -1.65019 0
M  V30 1022 O 89.58 1.68168 -0.918159 0
M  V30 1023 C 89.774 -0.593925 -3.52431 0
M  V30 1024 C 89.603 -2.03644 -4.00948 0
M  V30 1025 C 88.373 -2.67103 -4.28934 0
M  V30 1026 C 90.571 -3.00479 -4.17393 0
M  V30 1027 N 88.553 -4.02462 -4.6357 0
M  V30 1028 C 89.924 -4.20777 -4.55353 0
M  V30 1029 C 91.979 -2.96926 -3.99674 0
M  V30 1030 C 90.682 -5.37994 -4.77447 0
M  V30 1031 C 92.708 -4.1337 -4.22941 0
M  V30 1032 C 92.07 -5.32422 -4.61201 0
M  V30 1033 H 88.169 -0.209303 -0.75347 0
M  V30 1034 H 90.753 -1.08316 -1.61789 0
M  V30 1035 H 88.924 0.019599 -3.88395 0
M  V30 1036 H 90.656 -0.169738 -4.04344 0
M  V30 1037 H 87.411 -2.18259 -4.20309 0
M  V30 1038 H 87.835 -4.72232 -4.85104 0
M  V30 1039 H 92.477 -2.06015 -3.69212 0
M  V30 1040 H 90.195 -6.29451 -5.06771 0
M  V30 1041 H 93.781 -4.12034 -4.10754 0
M  V30 1042 H 92.661 -6.21027 -4.78848 0
M  V30 1043 N 90.1641 1.46063 -0.591896 0
M  V30 1044 C 91.1271 2.28854 0.125973 0
M  V30 1045 C 92.1271 1.38903 0.810107 0
M  V30 1046 O 93.3171 1.61186 0.66066 0
M  V30 1047 C 90.4491 3.19526 1.1881 0
M  V30 1048 H 91.6421 2.93802 -0.601717 0
M  V30 1049 H 89.1951 1.52325 -0.350254 0
M  V30 1050 H 89.9301 2.59345 1.94707 0
M  V30 1051 H 89.7151 3.85766 0.701936 0
M  V30 1052 H 91.2051 3.81817 1.69132 0
M  V30 1053 N 91.6422 0.330177 1.54103 0
M  V30 1054 C 92.8672 -0.274893 2.0557 0
M  V30 1055 C 93.2922 -1.44487 1.20437 0
M  V30 1056 O 92.6502 -1.80021 0.214991 0
M  V30 1057 C 92.6982 -0.68079 3.54115 0
M  V30 1058 O 91.8022 -1.7824 3.71893 0
M  V30 1059 H 91.1432 -0.0483849 0.662235 0
M  V30 1060 H 93.6732 0.480508 1.98878 0
M  V30 1061 H 93.6832 -0.961635 3.96505 0
M  V30 1062 H 92.3582 0.174903 4.15532 0
M  V30 1063 H 90.9352 -1.49985 3.41407 0
M  V30 1064 N 93.1203 -1.57491 0.0584922 0
M  V30 1065 C 94.0533 -2.07533 -0.948969 0
M  V30 1066 C 95.0313 -0.977444 -1.29942 0
M  V30 1067 O 96.2153 -1.2499 -1.41102 0
M  V30 1068 C 93.3423 -2.52192 -2.2609 0
M  V30 1069 C 92.3883 -3.73287 -2.06298 0
M  V30 1070 S 93.2213 -5.18603 -1.33459 0
M  V30 1071 C 94.3773 -5.66583 -2.65959 0
M  V30 1072 H 94.6103 -2.92662 -0.523118 0
M  V30 1073 H 92.1433 -1.53631 -0.153954 0
M  V30 1074 H 94.1013 -2.78585 -3.01498 0
M  V30 1075 H 92.7623 -1.67356 -2.65802 0
M  V30 1076 H 91.9553 -4.0248 -3.03357 0
M  V30 1077 H 91.5573 -3.47199 -1.39029 0
M  V30 1078 H 93.8493 -5.72616 -3.62101 0
M  V30 1079 H 94.7923 -6.65684 -2.41393 0
M  V30 1080 H 95.2003 -4.94342 -2.72554 0
M  V30 1081 N 94.5984 0.214957 -1.56127 0
M  V30 1082 C 95.5284 1.2695 -1.95974 0
M  V30 1083 C 96.5094 1.48539 -0.828868 0
M  V30 1084 O 97.6944 1.60611 -1.09168 0
M  V30 1085 C 94.8244 2.61794 -2.28214 0
M  V30 1086 C 93.7784 2.54851 -3.43853 0
M  V30 1087 C 93.1044 3.93785 -3.61715 0
M  V30 1088 C 94.4044 2.09065 -4.78632 0
M  V30 1089 H 96.0984 0.93846 -2.84312 0
M  V30 1090 H 93.6444 0.449996 -1.36788 0
M  V30 1091 H 95.5974 3.35731 -2.54682 0
M  V30 1092 H 94.3214 2.96599 -1.36736 0
M  V30 1093 H 92.9804 1.8337 -3.17444 0
M  V30 1094 H 92.6284 4.25908 -2.67602 0
M  V30 1095 H 92.3284 3.90019 -4.39498 0
M  V30 1096 H 93.8524 4.69374 -3.90539 0
M  V30 1097 H 95.2664 2.7275 -5.04262 0
M  V30 1098 H 93.6634 2.16346 -5.59745 0
M  V30 1099 H 94.7334 1.04315 -4.73547 0
M  V30 1100 N 96.0765 1.50051 0.48192 0
M  V30 1101 C 97.0245 1.68635 1.60203 0
M  V30 1102 C 98.0185 0.552184 1.60148 0
M  V30 1103 O 99.2245 0.732377 1.64427 0
M  V30 1104 H 95.5995 0.532081 0.531407 0
M  V30 1105 H 97.5705 2.62616 1.41688 0
M  V30 1106 C 96.3195 1.78775 2.9822 0
M  V30 1107 H 95.6425 2.6543 2.98976 0
M  V30 1108 H 97.0825 1.95806 3.7608 0
M  V30 1109 C 95.5415 0.536849 3.32595 0
M  V30 1110 O 96.0715 -0.328897 4.00351 0
M  V30 1111 N 94.2775 0.394091 2.87915 0
M  V30 1112 H 93.8245 1.09962 2.32951 0
M  V30 1113 H 93.7825 -0.441737 3.11281 0
M  V30 1114 N 97.5546 -0.734337 1.39446 0
M  V30 1115 C 98.5026 -1.86971 1.38364 0
M  V30 1116 C 99.4966 -1.67288 0.266687 0
M  V30 1117 O 100.703 -1.74621 0.436755 0
M  V30 1118 H 97.0776 -0.615474 0.432082 0
M  V30 1119 H 99.0486 -1.85 2.34132 0
M  V30 1120 C 97.7976 -3.2466 1.24465 0
M  V30 1121 H 97.1206 -3.40402 2.09682 0
M  V30 1122 H 98.5606 -4.04292 1.27764 0
M  V30 1123 C 97.0196 -3.36867 -0.0468674 0
M  V30 1124 O 97.5496 -3.88618 -1.01681 0
M  V30 1125 N 95.7556 -2.90391 -0.110145 0
M  V30 1126 H 95.3026 -2.48466 0.679868 0
M  V30 1127 H 95.2606 -2.98939 -0.973799 0
M  V30 1128 N 99.0327 -1.24633 -0.964593 0
M  V30 1129 C 100.28 -1.08788 -1.70796 0
M  V30 1130 C 100.608 0.372783 -1.90894 0
M  V30 1131 O 99.8627 1.29167 -1.47018 0
M  V30 1132 C 100.162 -1.7763 -3.10133 0
M  V30 1133 C 99.8277 -3.27557 -3.09866 0
M  V30 1134 C 98.4897 -3.6846 -3.09501 0
M  V30 1135 C 100.842 -4.23389 -3.03959 0
M  V30 1136 C 98.1697 -5.03624 -3.00965 0
M  V30 1137 C 100.522 -5.58565 -2.96965 0
M  V30 1138 C 99.1857 -5.98809 -2.9493 0
M  V30 1139 H 98.4557 -0.398084 -0.624988 0
M  V30 1140 H 101.103 -1.54777 -1.12767 0
M  V30 1141 H 99.4077 -1.24044 -3.71645 0
M  V30 1142 H 101.105 -1.62832 -3.66451 0
M  V30 1143 H 97.6947 -2.95006 -3.10917 0
M  V30 1144 H 101.879 -3.92787 -3.03368 0
M  V30 1145 H 97.1347 -5.33998 -2.97752 0
M  V30 1146 H 101.309 -6.32523 -2.91354 0
M  V30 1147 H 98.9357 -7.03505 -2.88071 0
M  V30 1148 N 100.511 1.16574 -1.06058 0
M  V30 1149 C 101.751 1.88723 -0.78504 0
M  V30 1150 C 102.115 1.79706 0.676006 0
M  V30 1151 O 103.316 2.46757 1.06603 0
M  V30 1152 C 101.587 3.34338 -1.26304 0
M  V30 1153 S 103.146 4.24366 -1.1162 0
M  V30 1154 H 99.9638 0.651448 -0.284846 0
M  V30 1155 H 102.566 1.40732 -1.35701 0
M  V30 1156 H 101.27 3.38439 -2.32136 0
M  V30 1157 H 100.801 3.87378 -0.685719 0
M  V30 1158 H 102.816 4.96179 -0.0456539 0
M  V30 1159 N 101.989 0.842826 1.3317 0
M  V30 1160 C 103.214 0.453129 2.02389 0
M  V30 1161 C 103.639 -0.939105 1.6298 0
M  V30 1162 O 102.997 -1.61472 0.8244 0
M  V30 1163 C 103.045 0.586094 3.55805 0
M  V30 1164 O 102.149 -0.386029 4.10589 0
M  V30 1165 H 101.49 0.183664 0.638094 0
M  V30 1166 H 104.02 1.13875 1.69981 0
M  V30 1167 H 104.03 0.469209 4.05293 0
M  V30 1168 H 102.705 1.6014 3.83833 0
M  V30 1169 H 101.282 -0.226371 3.72212 0
M  V30 1170 N 103.467 -1.45747 0.599634 0
M  V30 1171 C 104.697 -2.06369 0.0977132 0
M  V30 1172 C 105.105 -1.44624 -1.21985 0
M  V30 1173 O 104.448 -0.551831 -1.75216 0
M  V30 1174 C 104.51 -3.59284 -0.124673 0
M  V30 1175 C 104.174 -4.43318 1.10987 0
M  V30 1176 C 105.171 -4.78796 2.02609 0
M  V30 1177 C 102.856 -4.84194 1.33647 0
M  V30 1178 C 104.85 -5.53997 3.15224 0
M  V30 1179 C 102.537 -5.5915 2.46565 0
M  V30 1180 C 103.535 -5.93968 3.37182 0
M  V30 1181 O 103.223 -6.67405 4.48136 0
M  V30 1182 H 102.955 -0.673122 0.0623153 0
M  V30 1183 H 105.509 -1.88104 0.824981 0
M  V30 1184 H 103.739 -3.75919 -0.906745 0
M  V30 1185 H 105.428 -4.01775 -0.577201 0
M  V30 1186 H 106.194 -4.47781 1.86325 0
M  V30 1187 H 102.073 -4.56534 0.64016 0
M  V30 1188 H 105.617 -5.81091 3.85978 0
M  V30 1189 H 101.514 -5.89579 2.62805 0
M  V30 1190 H 102.282 -6.85847 4.46717 0
M  V30 1191 N 104.945 -0.338344 -1.53925 0
M  V30 1192 C 106.192 0.259758 -2.00827 0
M  V30 1193 C 106.52 1.50973 -1.22628 0
M  V30 1194 O 105.775 1.93379 -0.300509 0
M  V30 1195 C 106.074 0.62448 -3.51902 0
M  V30 1196 C 105.74 -0.528006 -4.47798 0
M  V30 1197 C 104.402 -0.844298 -4.73735 0
M  V30 1198 C 106.754 -1.30143 -5.0469 0
M  V30 1199 C 104.082 -1.93648 -5.53821 0
M  V30 1200 C 106.434 -2.38382 -5.85967 0
M  V30 1201 C 105.098 -2.70576 -6.10201 0
M  V30 1202 H 104.368 0.0950523 -0.734878 0
M  V30 1203 H 107.015 -0.465182 -1.85764 0
M  V30 1204 H 105.32 1.43006 -3.64769 0
M  V30 1205 H 107.017 1.09905 -3.85645 0
M  V30 1206 H 103.607 -0.271421 -4.2774 0
M  V30 1207 H 107.791 -1.07033 -4.84621 0
M  V30 1208 H 103.047 -2.19021 -5.70824 0
M  V30 1209 H 107.221 -2.98746 -6.29066 0
M  V30 1210 H 104.848 -3.55333 -6.72044 0
M  V30 1211 N 106.423 1.57458 -0.0668435 0
M  V30 1212 C 107.371 2.13639 0.919851 0
M  V30 1213 C 108.365 1.07204 1.31163 0
M  V30 1214 O 109.571 1.25591 1.28945 0
M  V30 1215 H 105.946 0.683048 0.314562 0
M  V30 1216 H 107.917 2.95415 0.421047 0
M  V30 1217 C 106.666 2.70892 2.17975 0
M  V30 1218 H 105.989 3.5246 1.88711 0
M  V30 1219 H 107.429 3.13803 2.85138 0
M  V30 1220 C 105.888 1.65414 2.93496 0
M  V30 1221 O 106.418 1.07619 3.87015 0
M  V30 1222 N 104.624 1.36564 2.56512 0
M  V30 1223 H 104.171 1.83751 1.80536 0
M  V30 1224 H 104.129 0.66223 3.07347 0
M  V30 1225 N 107.901 -0.206675 1.56239 0
M  V30 1226 C 108.831 -1.25909 1.96645 0
M  V30 1227 C 109.812 -1.48097 0.836734 0
M  V30 1228 O 110.997 -1.6003 1.10019 0
M  V30 1229 C 108.127 -2.6058 2.29599 0
M  V30 1230 C 107.081 -2.53024 3.452 0
M  V30 1231 C 106.407 -3.91861 3.63798 0
M  V30 1232 C 107.707 -2.06524 4.79734 0
M  V30 1233 H 109.401 -0.923369 2.84806 0
M  V30 1234 H 106.947 -0.442735 1.37025 0
M  V30 1235 H 108.9 -3.34375 2.56459 0
M  V30 1236 H 107.624 -2.95869 1.38307 0
M  V30 1237 H 106.283 -1.81684 3.18412 0
M  V30 1238 H 105.931 -4.24483 2.69857 0
M  V30 1239 H 105.631 -3.87683 4.4156 0
M  V30 1240 H 107.155 -4.67296 3.93022 0
M  V30 1241 H 108.569 -2.70072 5.05702 0
M  V30 1242 H 106.966 -2.13374 5.60885 0
M  V30 1243 H 108.036 -1.01802 4.74093 0
M  V30 1244 N 109.379 -1.50304 -0.473955 0
M  V30 1245 C 110.327 -1.69482 -1.59307 0
M  V30 1246 C 111.321 -0.560669 -1.59853 0
M  V30 1247 O 112.527 -0.741087 -1.64036 0
M  V30 1248 H 108.902 -0.534892 -0.528578 0
M  V30 1249 H 110.873 -2.63364 -1.40293 0
M  V30 1250 C 109.622 -1.80354 -2.97267 0
M  V30 1251 H 108.945 -2.67012 -2.97564 0
M  V30 1252 H 110.385 -1.97798 -3.75036 0
M  V30 1253 C 108.844 -0.55448 -3.32306 0
M  V30 1254 O 109.374 0.307661 -4.0052 0
M  V30 1255 N 107.58 -0.409354 -2.87702 0
M  V30 1256 H 107.127 -1.11196 -2.32364 0
M  V30 1257 H 107.085 0.425223 -3.11511 0
M  V30 1258 N 110.857 0.726932 -1.39834 0
M  V30 1259 C 112.087 1.51393 -1.40583 0
M  V30 1260 C 112.495 1.892 -0.000740625 0
M  V30 1261 O 111.838 1.55189 0.982951 0
M  V30 1262 C 111.9 2.82588 -2.22226 0
M  V30 1263 C 111.564 2.67169 -3.70769 0
M  V30 1264 C 112.561 2.3518 -4.63666 0
M  V30 1265 C 110.246 2.83788 -4.14451 0
M  V30 1266 C 112.24 2.20002 -5.98229 0
M  V30 1267 C 109.927 2.68229 -5.49087 0
M  V30 1268 C 110.925 2.36382 -6.4079 0
M  V30 1269 O 110.613 2.2093 -7.72946 0
M  V30 1270 H 110.345 0.474168 -0.48181 0
M  V30 1271 H 112.899 0.905247 -1.84376 0
M  V30 1272 H 111.129 3.45746 -1.73195 0
M  V30 1273 H 112.818 3.44247 -2.15055 0
M  V30 1274 H 113.584 2.21984 -4.31217 0
M  V30 1275 H 109.463 3.07566 -3.43401 0
M  V30 1276 H 113.007 1.95067 -6.69772 0
M  V30 1277 H 108.904 2.81006 -5.81125 0
M  V30 1278 H 109.672 2.35937 -7.83757 0
M  V30 1279 N 112.336 1.25143 0.95797 0
M  V30 1280 C 113.582 1.09855 1.70469 0
M  V30 1281 C 113.915 -0.360187 1.90831 0
M  V30 1282 O 113.19 -1.26568 1.47685 0
M  V30 1283 C 113.473 1.8497 3.08963 0
M  V30 1284 C 113.326 3.38652 2.96032 0
M  V30 1285 C 114.645 1.63016 4.08795 0
M  V30 1286 H 111.764 0.400465 0.618706 0
M  V30 1287 H 114.406 1.53933 1.11376 0
M  V30 1288 H 112.556 1.47505 3.59409 0
M  V30 1289 H 114.228 3.85772 2.52938 0
M  V30 1290 H 112.471 3.66534 2.32025 0
M  V30 1291 H 113.142 3.8642 3.94187 0
M  V30 1292 H 115.618 1.95625 3.67247 0
M  V30 1293 H 114.494 2.18015 5.03747 0
M  V30 1294 H 114.755 0.570692 4.38401 0
M  V30 1295 N 113.814 -1.1601 1.06675 0
M  V30 1296 C 114.744 -2.22688 0.702307 0
M  V30 1297 C 115.725 -1.67306 -0.307032 0
M  V30 1298 O 116.91 -1.93352 -0.181305 0
M  V30 1299 C 114.04 -3.47178 0.092038 0
M  V30 1300 C 112.994 -4.15477 1.02777 0
M  V30 1301 C 112.32 -5.33963 0.28061 0
M  V30 1302 C 113.62 -4.66019 2.35846 0
M  V30 1303 H 115.314 -2.53429 1.59419 0
M  V30 1304 H 112.86 -1.21813 0.767961 0
M  V30 1305 H 114.813 -4.21037 -0.174814 0
M  V30 1306 H 113.537 -3.15749 -0.834877 0
M  V30 1307 H 112.196 -3.43549 1.27944 0
M  V30 1308 H 111.844 -4.98788 -0.649545 0
M  V30 1309 H 111.544 -5.806 0.904258 0
M  V30 1310 H 113.068 -6.10596 0.021396 0
M  V30 1311 H 114.482 -5.3144 2.15045 0
M  V30 1312 H 112.879 -5.23293 2.93743 0
M  V30 1313 H 113.949 -3.82023 2.98641 0
M  V30 1314 N 115.292 -0.849877 -1.32721 0
M  V30 1315 C 116.532 -0.457146 -1.99222 0
M  V30 1316 C 116.896 0.968038 -1.6581 0
M  V30 1317 O 118.097 1.46507 -2.25364 0
M  V30 1318 C 116.368 -0.683966 -3.50794 0
M  V30 1319 S 117.927 -0.388095 -4.3708 0
M  V30 1320 H 114.745 -0.171464 -0.690015 0
M  V30 1321 H 117.347 -1.10155 -1.61512 0
M  V30 1322 H 116.051 -1.72038 -3.726 0
M  V30 1323 H 115.582 -0.0258086 -3.93392 0
M  V30 1324 H 117.597 0.787791 -4.89906 0
M  V30 1325 N 116.77 1.45427 -0.607355 0
M  V30 1326 C 117.718 2.32269 0.12411 0
M  V30 1327 C 118.712 1.45955 0.859854 0
M  V30 1328 O 119.918 1.6244 0.775447 0
M  V30 1329 H 116.293 0.749691 0.0588839 0
M  V30 1330 H 118.264 2.91743 -0.626762 0
M  V30 1331 C 117.013 3.29567 1.1082 0
M  V30 1332 H 116.336 3.95978 0.551492 0
M  V30 1333 H 117.776 3.93061 1.58995 0
M  V30 1334 C 116.235 2.56722 2.18164 0
M  V30 1335 O 116.765 2.34842 3.25902 0
M  V30 1336 N 114.971 2.16861 1.93442 0
M  V30 1337 H 114.518 2.34855 1.05834 0
M  V30 1338 H 114.476 1.68444 2.65469 0
M  V30 1339 N 118.248 0.346503 1.53744 0
M  V30 1340 C 119.178 -0.501193 2.28058 0
M  V30 1341 C 120.159 -1.10014 1.29734 0
M  V30 1342 O 121.344 -1.12097 1.58581 0
M  V30 1343 C 118.474 -1.65078 3.05559 0
M  V30 1344 C 117.428 -1.18003 4.11411 0
M  V30 1345 C 116.754 -2.41837 4.76884 0
M  V30 1346 C 118.054 -0.278394 5.21558 0
M  V30 1347 H 119.748 0.11875 2.99164 0
M  V30 1348 H 117.294 0.0585531 1.43881 0
M  V30 1349 H 119.247 -2.25028 3.56287 0
M  V30 1350 H 117.971 -2.29767 2.32109 0
M  V30 1351 H 116.63 -0.603331 3.61601 0
M  V30 1352 H 116.278 -3.0494 4.00026 0
M  V30 1353 H 115.978 -2.1102 5.48402 0
M  V30 1354 H 117.502 -3.02508 5.30397 0
M  V30 1355 H 118.916 -0.784823 5.67903 0
M  V30 1356 H 117.313 -0.0619707 6.00068 0
M  V30 1357 H 118.383 0.684677 4.80042 0
M  V30 1358 N 119.726 -1.57421 0.075193 0
M  V30 1359 C 120.954 -1.97946 -0.602076 0
M  V30 1360 C 121.369 -0.953674 -1.62943 0
M  V30 1361 O 120.726 0.0592551 -1.82404 0
M  V30 1362 C 120.777 -3.38546 -1.26762 0
M  V30 1363 O 120.498 -4.37195 -0.281376 0
M  V30 1364 C 121.999 -3.93966 -2.03239 0
M  V30 1365 H 119.219 -0.650918 -0.162931 0
M  V30 1366 H 121.763 -2.03959 0.148601 0
M  V30 1367 H 119.918 -3.33609 -1.96936 0
M  V30 1368 H 120.332 -5.18975 -0.759267 0
M  V30 1369 H 121.806 -4.94555 -2.45193 0
M  V30 1370 H 122.283 -3.30693 -2.8903 0
M  V30 1371 H 122.889 -4.02315 -1.37924 0
M  V30 1372 N 121.204 0.198386 -1.56346 0
M  V30 1373 C 122.453 0.917451 -1.79627 0
M  V30 1374 C 122.766 1.8456 -0.64784 0
M  V30 1375 O 123.972 2.60504 -0.764859 0
M  V30 1376 C 122.428 1.68175 -3.18191 0
M  V30 1377 C 122.036 0.798589 -4.40825 0
M  V30 1378 C 123.78 2.39065 -3.50782 0
M  V30 1379 C 121.687 1.56157 -5.70411 0
M  V30 1380 H 120.617 0.346317 -0.669762 0
M  V30 1381 H 123.268 0.170801 -1.82703 0
M  V30 1382 H 121.65 2.47216 -3.09354 0
M  V30 1383 H 122.824 0.0470665 -4.60776 0
M  V30 1384 H 121.139 0.200686 -4.15916 0
M  V30 1385 H 123.736 2.96692 -4.44835 0
M  V30 1386 H 124.079 3.13091 -2.74371 0
M  V30 1387 H 124.612 1.66993 -3.61052 0
M  V30 1388 H 121.351 0.864142 -6.49779 0
M  V30 1389 H 120.871 2.2871 -5.54483 0
M  V30 1390 H 122.55 2.11622 -6.11412 0
M  V30 1391 N 122.682 1.50554 0.465978 0
M  V30 1392 C 123.91 1.65563 1.24083 0
M  V30 1393 C 124.325 0.341051 1.85694 0
M  V30 1394 O 123.682 -0.677543 1.69457 0
M  V30 1395 C 123.733 2.75051 2.34583 0
M  V30 1396 O 123.454 4.01413 1.75497 0
M  V30 1397 C 124.955 3.01078 3.25372 0
M  V30 1398 H 122.175 0.55638 0.375077 0
M  V30 1399 H 124.719 1.96807 0.555624 0
M  V30 1400 H 122.874 2.46486 2.9887 0
M  V30 1401 H 123.288 4.62002 2.48303 0
M  V30 1402 H 124.762 3.81339 3.99105 0
M  V30 1403 H 125.239 2.12349 3.84453 0
M  V30 1404 H 125.845 3.31194 2.66816 0
M  V30 1405 N 124.16 -0.719506 1.40217 0
M  V30 1406 C 125.406 -1.48034 1.39491 0
M  V30 1407 C 125.761 -1.92399 -0.00443536 0
M  V30 1408 O 125.054 -1.64993 -0.974061 0
M  V30 1409 C 125.248 -2.72271 2.31524 0
M  V30 1410 C 125.077 -2.40055 3.80268 0
M  V30 1411 C 123.847 -2.31588 4.49105 0
M  V30 1412 C 126.045 -2.04581 4.71859 0
M  V30 1413 N 124.027 -1.92006 5.83101 0
M  V30 1414 C 125.398 -1.75568 5.94623 0
M  V30 1415 C 127.453 -1.91183 4.59732 0
M  V30 1416 C 126.156 -1.34505 7.06612 0
M  V30 1417 C 128.182 -1.51524 5.71659 0
M  V30 1418 C 127.544 -1.23406 6.93506 0
M  V30 1419 H 123.643 -0.539927 0.565688 0
M  V30 1420 H 126.227 -0.834764 1.75897 0
M  V30 1421 H 124.398 -3.34584 1.97251 0
M  V30 1422 H 126.13 -3.38584 2.21682 0
M  V30 1423 H 122.885 -2.49199 4.02737 0
M  V30 1424 H 123.309 -1.74764 6.54054 0
M  V30 1425 H 127.951 -2.11584 3.66049 0
M  V30 1426 H 125.669 -1.12846 8.00182 0
M  V30 1427 H 129.255 -1.41741 5.6427 0
M  V30 1428 H 128.135 -0.931788 7.78645 0
M  V30 1429 N 125.638 -1.25649 -0.95132 0
M  V30 1430 C 126.548 -1.08073 -2.08224 0
M  V30 1431 C 127.564 -0.0169666 -1.73992 0
M  V30 1432 O 128.74 -0.218593 -2.0021 0
M  V30 1433 C 125.805 -0.704922 -3.39458 0
M  V30 1434 C 124.866 -1.84699 -3.87537 0
M  V30 1435 C 124.099 -1.48902 -5.12508 0
M  V30 1436 O 124.322 -0.386156 -5.69091 0
M  V30 1437 O 123.256 -2.32033 -5.55378 0
M  V30 1438 H 127.082 -2.02924 -2.25954 0
M  V30 1439 H 124.667 -1.04618 -1.06656 0
M  V30 1440 H 126.549 -0.507609 -4.18332 0
M  V30 1441 H 125.224 0.214291 -3.2299 0
M  V30 1442 H 124.131 -2.09919 -3.09653 0
M  V30 1443 H 125.464 -2.74557 -4.08509 0
M  V30 1444 N 127.117 1.15442 -1.07289 0
M  V30 1445 C 128.364 1.86213 -0.795668 0
M  V30 1446 C 128.692 1.82291 0.678238 0
M  V30 1447 O 127.947 1.24057 1.51355 0
M  V30 1448 C 128.246 3.3489 -1.24834 0
M  V30 1449 C 127.912 3.59007 -2.72809 0
M  V30 1450 C 126.574 3.65298 -3.13227 0
M  V30 1451 C 128.926 3.68762 -3.68326 0
M  V30 1452 C 126.254 3.78854 -4.4798 0
M  V30 1453 C 128.606 3.83842 -5.0284 0
M  V30 1454 C 127.27 3.88378 -5.4288 0
M  V30 1455 H 126.54 0.681403 -0.291155 0
M  V30 1456 H 129.187 1.36435 -1.34379 0
M  V30 1457 H 127.492 3.8687 -0.619595 0
M  V30 1458 H 129.189 3.88052 -1.01076 0
M  V30 1459 H 125.779 3.5475 -2.40521 0
M  V30 1460 H 129.963 3.63202 -3.38227 0
M  V30 1461 H 125.219 3.80623 -4.78472 0
M  V30 1462 H 129.393 3.90332 -5.76727 0
M  V30 1463 H 127.02 3.98635 -6.47298 0
M  V30 1464 N 128.595 0.856903 1.32268 0
M  V30 1465 C 129.842 0.461386 1.97174 0
M  V30 1466 C 130.17 -0.983491 1.67803 0
M  V30 1467 O 129.425 -1.70541 0.959903 0
M  V30 1468 C 129.724 0.649919 3.51441 0
M  V30 1469 C 129.39 2.0656 4.00804 0
M  V30 1470 C 128.052 2.45279 4.13995 0
M  V30 1471 C 130.404 2.98947 4.26943 0
M  V30 1472 C 127.732 3.75653 4.50668 0
M  V30 1473 C 130.084 4.28822 4.65075 0
M  V30 1474 C 128.748 4.67472 4.76472 0
M  V30 1475 H 128.018 0.168833 0.72151 0
M  V30 1476 H 130.665 1.08739 1.57633 0
M  V30 1477 H 128.97 -0.0593018 3.91755 0
M  V30 1478 H 130.667 0.32391 3.9969 0
M  V30 1479 H 127.257 1.75495 3.91024 0
M  V30 1480 H 131.441 2.70265 4.16258 0
M  V30 1481 H 126.697 4.05379 4.57688 0
M  V30 1482 H 130.871 5.0047 4.84255 0
M  V30 1483 H 128.498 5.68539 5.04646 0
M  V30 1484 N 130.073 -1.45103 0.615059 0
M  V30 1485 C 131.021 -2.32331 -0.111791 0
M  V30 1486 C 132.015 -1.46409 -0.852102 0
M  V30 1487 O 133.221 -1.62849 -0.766821 0
M  V30 1488 H 129.596 -0.749993 -0.0549072 0
M  V30 1489 H 131.567 -2.91407 0.642225 0
M  V30 1490 C 130.316 -3.3015 -1.09071 0
M  V30 1491 H 129.639 -3.96265 -0.530485 0
M  V30 1492 H 131.079 -3.93898 -1.56908 0
M  V30 1493 C 129.538 -2.57875 -2.168 0
M  V30 1494 O 130.068 -2.36567 -3.24652 0
M  V30 1495 N 128.274 -2.17884 -1.92289 0
M  V30 1496 H 127.821 -2.35413 -1.04587 0
M  V30 1497 H 127.779 -1.6985 -2.64572 0
M  V30 1498 N 131.551 -0.354651 -1.53558 0
M  V30 1499 C 132.8 0.239504 -2.00273 0
M  V30 1500 C 133.113 1.50759 -1.24623 0
M  V30 1501 O 134.319 2.17968 -1.61871 0
M  V30 1502 C 132.775 0.477341 -3.5672 0
M  V30 1503 C 132.383 -0.775488 -4.41237 0
M  V30 1504 C 134.127 1.02975 -4.11821 0
M  V30 1505 C 132.034 -0.507838 -5.89216 0
M  V30 1506 H 130.964 0.0932743 -0.748208 0
M  V30 1507 H 133.615 -0.471701 -1.77334 0
M  V30 1508 H 131.997 1.24953 -3.7577 0
M  V30 1509 H 133.171 -1.54963 -4.33962 0
M  V30 1510 H 131.486 -1.25033 -3.97185 0
M  V30 1511 H 134.083 1.24513 -5.2 0
M  V30 1512 H 134.426 1.98862 -3.65731 0
M  V30 1513 H 134.959 0.317994 -3.96527 0
M  V30 1514 H 131.698 -1.43674 -6.39561 0
M  V30 1515 H 131.218 0.228011 -5.99366 0
M  V30 1516 H 132.897 -0.129238 -6.46871 0
M  V30 1517 N 133.029 1.57378 -0.0835403 0
M  V30 1518 C 133.959 2.1641 0.87686 0
M  V30 1519 C 134.94 1.09429 1.30228 0
M  V30 1520 O 136.125 1.37516 1.37124 0
M  V30 1521 C 133.255 2.73517 2.14022 0
M  V30 1522 C 132.209 3.85769 1.85381 0
M  V30 1523 C 131.535 4.29529 3.18448 0
M  V30 1524 C 132.835 5.09486 1.14984 0
M  V30 1525 H 134.529 2.96914 0.385059 0
M  V30 1526 H 132.075 1.42823 0.18377 0
M  V30 1527 H 134.028 3.13463 2.81636 0
M  V30 1528 H 132.752 1.90252 2.65465 0
M  V30 1529 H 131.411 3.46345 1.20169 0
M  V30 1530 H 131.059 3.43169 3.67755 0
M  V30 1531 H 130.759 5.05204 3.00071 0
M  V30 1532 H 132.283 4.72099 3.8724 0
M  V30 1533 H 133.697 5.46674 1.72687 0
M  V30 1534 H 132.094 5.90515 1.06826 0
M  V30 1535 H 133.164 4.84724 0.130749 0
M  V30 1536 N 134.507 -0.190092 1.56449 0
M  V30 1537 C 135.735 -0.925772 1.85033 0
M  V30 1538 C 136.15 -1.76638 0.666658 0
M  V30 1539 O 135.507 -1.78822 -0.364565 0
M  V30 1540 C 135.558 -1.81786 3.12468 0
M  V30 1541 O 135.279 -1.01118 4.26271 0
M  V30 1542 C 136.78 -2.6648 3.54265 0
M  V30 1543 H 134 -0.269872 0.614337 0
M  V30 1544 H 136.544 -0.195837 2.0356 0
M  V30 1545 H 134.699 -2.50136 2.95822 0
M  V30 1546 H 135.113 -1.61956 4.98869 0
M  V30 1547 H 136.587 -3.24722 4.46385 0
M  V30 1548 H 137.064 -3.40434 2.77491 0
M  V30 1549 H 137.67 -2.03493 3.73458 0
M  V30 1550 N 135.985 -1.50799 -0.457987 0
M  V30 1551 C 137.232 -1.62442 -1.20908 0
M  V30 1552 C 137.56 -0.330865 -1.91665 0
M  V30 1553 O 136.815 0.68401 -1.83357 0
M  V30 1554 C 137.114 -2.76358 -2.2663 0
M  V30 1555 C 136.78 -4.16378 -1.73033 0
M  V30 1556 C 135.442 -4.54473 -1.58138 0
M  V30 1557 C 137.794 -5.03836 -1.33413 0
M  V30 1558 C 135.122 -5.77754 -1.02065 0
M  V30 1559 C 137.474 -6.27676 -0.78778 0
M  V30 1560 C 136.138 -6.64562 -0.625561 0
M  V30 1561 H 135.408 -0.594417 -0.442435 0
M  V30 1562 H 138.055 -1.84772 -0.503136 0
M  V30 1563 H 136.36 -2.48167 -3.03184 0
M  V30 1564 H 138.057 -2.82568 -2.84528 0
M  V30 1565 H 134.647 -3.86331 -1.85598 0
M  V30 1566 H 138.831 -4.75026 -1.4375 0
M  V30 1567 H 134.087 -6.04997 -0.882547 0
M  V30 1568 H 138.261 -6.94797 -0.472177 0
M  V30 1569 H 135.888 -7.59965 -0.188926 0
M  V30 1570 N 137.463 0.71206 -1.40597 0
M  V30 1571 C 138.709 1.47292 -1.40274 0
M  V30 1572 C 139.064 1.92399 -0.00576812 0
M  V30 1573 O 138.357 1.65507 0.965297 0
M  V30 1574 C 138.551 2.71039 -2.32965 0
M  V30 1575 C 138.38 2.38035 -3.81536 0
M  V30 1576 C 137.15 2.29203 -4.50327 0
M  V30 1577 C 139.348 2.02076 -4.72938 0
M  V30 1578 N 137.33 1.88911 -5.84111 0
M  V30 1579 C 138.701 1.72412 -5.95545 0
M  V30 1580 C 140.756 1.88742 -4.60739 0
M  V30 1581 C 139.459 1.30756 -7.07316 0
M  V30 1582 C 141.485 1.4849 -5.72455 0
M  V30 1583 C 140.847 1.19726 -6.94151 0
M  V30 1584 H 136.946 0.536919 -0.568544 0
M  V30 1585 H 139.53 0.825424 -1.76337 0
M  V30 1586 H 137.701 3.33533 -1.99023 0
M  V30 1587 H 139.433 3.37404 -2.23474 0
M  V30 1588 H 136.188 2.47059 -4.04053 0
M  V30 1589 H 136.612 1.71293 -6.54972 0
M  V30 1590 H 141.254 2.0964 -3.67166 0
M  V30 1591 H 138.972 1.08601 -8.00769 0
M  V30 1592 H 142.558 1.38747 -5.65014 0
M  V30 1593 H 141.438 0.890482 -7.79128 0
M  V30 1594 N 138.941 1.26152 0.944643 0
M  V30 1595 C 139.871 1.09902 2.06019 0
M  V30 1596 C 140.852 0.00519538 1.70099 0
M  V30 1597 O 142.037 0.176583 1.93396 0
M  V30 1598 C 139.167 0.727562 3.39594 0
M  V30 1599 C 138.121 1.77274 3.89561 0
M  V30 1600 C 137.447 1.25569 5.19747 0
M  V30 1601 C 138.747 3.17357 4.14827 0
M  V30 1602 H 140.441 2.03217 2.19871 0
M  V30 1603 H 137.987 0.978452 1.05652 0
M  V30 1604 H 139.94 0.600777 4.17095 0
M  V30 1605 H 138.664 -0.241287 3.25707 0
M  V30 1606 H 137.323 1.88814 3.14237 0
M  V30 1607 H 136.971 0.276783 5.02238 0
M  V30 1608 H 136.671 1.95433 5.54148 0
M  V30 1609 H 138.195 1.1415 5.99835 0
M  V30 1610 H 139.609 3.08914 4.82954 0
M  V30 1611 H 138.006 3.84781 4.60504 0
M  V30 1612 H 139.076 3.63673 3.20734 0
M  V30 1613 N 140.419 -1.14872 1.07899 0
M  V30 1614 C 141.367 -2.21857 0.698727 0
M  V30 1615 C 142.361 -1.66845 -0.293086 0
M  V30 1616 O 143.567 -1.79321 -0.156204 0
M  V30 1617 H 139.942 -0.722691 0.207899 0
M  V30 1618 H 141.913 -2.51205 1.61054 0
M  V30 1619 C 140.662 -3.47498 0.11858 0
M  V30 1620 H 139.985 -3.90154 0.872914 0
M  V30 1621 H 141.425 -4.23858 -0.109759 0
M  V30 1622 C 139.884 -3.16947 -1.1422 0
M  V30 1623 O 140.414 -3.3426 -2.22785 0
M  V30 1624 N 138.62 -2.70946 -1.05055 0
M  V30 1625 H 138.167 -2.57058 -0.167038 0
M  V30 1626 H 138.125 -2.50879 -1.89491 0
M  V30 1627 N 141.898 -0.863906 -1.31812 0
M  V30 1628 C 143.123 -0.48527 -2.01643 0
M  V30 1629 C 143.548 0.913058 -1.64453 0
M  V30 1630 O 142.906 1.6014 -0.849985 0
M  V30 1631 C 142.954 -0.642625 -3.54828 0
M  V30 1632 O 142.058 0.320659 -4.11151 0
M  V30 1633 H 141.399 -0.193793 -0.635091 0
M  V30 1634 H 143.929 -1.16565 -1.68148 0
M  V30 1635 H 143.939 -0.533628 -4.04495 0
M  V30 1636 H 142.614 -1.66227 -3.81237 0
M  V30 1637 H 141.191 0.167126 -3.72525 0
M  V30 1638 N 143.376 1.44774 -0.622745 0
M  V30 1639 C 144.306 2.33382 0.0741861 0
M  V30 1640 C 145.287 1.47719 0.843387 0
M  V30 1641 O 146.472 1.76458 0.810934 0
M  V30 1642 C 143.602 3.30663 1.06204 0
M  V30 1643 C 142.556 4.26079 0.405037 0
M  V30 1644 C 141.882 5.13165 1.5022 0
M  V30 1645 C 143.182 5.1781 -0.683414 0
M  V30 1646 H 144.876 2.91905 -0.665713 0
M  V30 1647 H 142.422 1.40363 -0.321587 0
M  V30 1648 H 144.375 3.9153 1.55827 0
M  V30 1649 H 143.099 2.70331 1.83272 0
M  V30 1650 H 141.758 3.66532 -0.0704683 0
M  V30 1651 H 141.406 4.49191 2.26355 0
M  V30 1652 H 141.106 5.77812 1.06803 0
M  V30 1653 H 142.63 5.76902 2.00041 0
M  V30 1654 H 144.044 5.72661 -0.270631 0
M  V30 1655 H 142.441 5.91015 -1.04023 0
M  V30 1656 H 143.511 4.59326 -1.55395 0
M  V30 1657 N 144.854 0.36279 1.53368 0
M  V30 1658 C 145.784 -0.476976 2.28576 0
M  V30 1659 C 146.765 -1.08631 1.30894 0
M  V30 1660 O 147.95 -1.10409 1.59761 0
M  V30 1661 C 145.08 -1.61828 3.07293 0
M  V30 1662 C 144.034 -1.13633 4.1264 0
M  V30 1663 C 143.36 -2.36766 4.79423 0
M  V30 1664 C 144.66 -0.223061 5.21823 0
M  V30 1665 H 146.354 0.150474 2.99022 0
M  V30 1666 H 143.9 0.0738103 1.43811 0
M  V30 1667 H 145.853 -2.21237 3.58653 0
M  V30 1668 H 144.577 -2.27292 2.34533 0
M  V30 1669 H 143.236 -0.564945 3.62221 0
M  V30 1670 H 142.884 -3.0068 4.03238 0
M  V30 1671 H 142.584 -2.05192 5.50609 0
M  V30 1672 H 144.108 -2.96865 5.33576 0
M  V30 1673 H 145.522 -0.724545 5.68703 0
M  V30 1674 H 143.919 0.001678 6.001 0
M  V30 1675 H 144.989 0.735553 4.79289 0
M  V30 1676 N 146.332 -1.57332 0.0918853 0
M  V30 1677 C 147.56 -1.98574 -0.581048 0
M  V30 1678 C 147.975 -0.970903 -1.61923 0
M  V30 1679 O 147.332 0.0399054 -1.82456 0
M  V30 1680 C 147.383 -3.39872 -1.23164 0
M  V30 1681 O 147.104 -4.37469 -0.234989 0
M  V30 1682 C 148.605 -3.96099 -1.99049 0
M  V30 1683 H 145.825 -0.65261 -0.156018 0
M  V30 1684 H 148.369 -2.0379 0.170225 0
M  V30 1685 H 146.524 -3.35679 -1.93386 0
M  V30 1686 H 146.938 -5.19751 -0.70418 0
M  V30 1687 H 148.412 -4.97127 -2.39934 0
M  V30 1688 H 148.889 -3.3374 -2.85507 0
M  V30 1689 H 149.495 -4.03755 -1.3365 0
M  V30 1690 N 147.81 0.181792 -1.56548 0
M  V30 1691 C 149.056 0.901431 -1.81665 0
M  V30 1692 C 149.389 1.82347 -0.668075 0
M  V30 1693 O 148.664 1.91669 0.330615 0
M  V30 1694 C 148.947 1.70618 -3.17115 0
M  V30 1695 C 148.8 0.807964 -4.42484 0
M  V30 1696 C 150.119 2.67605 -3.49393 0
M  V30 1697 H 147.238 0.32627 -0.660846 0
M  V30 1698 H 149.88 0.168134 -1.89255 0
M  V30 1699 H 148.03 2.33133 -3.10775 0
M  V30 1700 H 149.702 0.19649 -4.60881 0
M  V30 1701 H 147.945 0.115411 -4.33646 0
M  V30 1702 H 148.616 1.40632 -5.33785 0
M  V30 1703 H 151.092 2.15218 -3.56118 0
M  V30 1704 H 149.968 3.20985 -4.45264 0
M  V30 1705 H 150.229 3.47298 -2.73563 0
M  V30 1706 N 149.288 1.51039 0.449983 0
M  V30 1707 C 150.535 1.63081 1.20045 0
M  V30 1708 C 150.863 0.341024 1.91487 0
M  V30 1709 O 150.118 -0.674276 1.83717 0
M  V30 1710 C 150.417 2.77556 2.25161 0
M  V30 1711 C 150.083 4.17289 1.70823 0
M  V30 1712 C 148.745 4.55305 1.55725 0
M  V30 1713 C 151.097 5.04536 1.3074 0
M  V30 1714 C 148.425 5.78287 0.989999 0
M  V30 1715 C 150.777 6.28085 0.754482 0
M  V30 1716 C 149.441 6.64885 0.590308 0
M  V30 1717 H 148.711 0.596755 0.439277 0
M  V30 1718 H 151.358 1.85037 0.49333 0
M  V30 1719 H 149.663 2.49771 3.01863 0
M  V30 1720 H 151.36 2.84073 2.83026 0
M  V30 1721 H 147.95 3.8731 1.83546 0
M  V30 1722 H 152.134 4.75782 1.41229 0
M  V30 1723 H 147.39 6.05456 0.850451 0
M  V30 1724 H 151.564 6.95038 0.435324 0
M  V30 1725 H 149.191 7.60055 0.14862 0
M  V30 1726 N 150.766 -0.704594 1.40972 0
M  V30 1727 C 151.996 -1.49138 1.42974 0
M  V30 1728 C 152.404 -1.89175 0.0308406 0
M  V30 1729 O 151.747 -1.56734 -0.958138 0
M  V30 1730 C 151.809 -2.79016 2.26694 0
M  V30 1731 C 151.473 -2.61236 3.74973 0
M  V30 1732 C 152.47 -2.27773 4.67349 0
M  V30 1733 C 150.155 -2.77158 4.18914 0
M  V30 1734 C 152.149 -2.10457 6.01653 0
M  V30 1735 C 149.836 -2.59459 5.53285 0
M  V30 1736 C 150.834 -2.26158 6.4447 0
M  V30 1737 O 150.522 -2.08605 7.76363 0
M  V30 1738 H 150.254 -0.466443 0.489292 0
M  V30 1739 H 152.808 -0.8758 1.85793 0
M  V30 1740 H 151.038 -3.42947 1.78673 0
M  V30 1741 H 152.727 -3.40782 2.20504 0
M  V30 1742 H 153.493 -2.15095 4.34694 0
M  V30 1743 H 149.372 -3.02064 3.48251 0
M  V30 1744 H 152.916 -1.84387 6.72791 0
M  V30 1745 H 148.813 -2.71725 5.85522 0
M  V30 1746 H 149.581 -2.23439 7.87412 0
M  V30 1747 N 152.244 -1.26651 -0.937939 0
M  V30 1748 C 153.484 -1.13611 -1.69917 0
M  V30 1749 C 153.848 0.314687 -1.89404 0
M  V30 1750 O 155.049 0.567285 -2.62746 0
M  V30 1751 C 153.32 -1.88742 -3.03498 0
M  V30 1752 S 154.879 -1.91794 -3.94665 0
M  V30 1753 H 151.697 -0.405767 -0.583844 0
M  V30 1754 H 154.299 -1.60416 -1.11745 0
M  V30 1755 H 153.003 -2.9336 -2.86999 0
M  V30 1756 H 152.534 -1.42391 -3.66727 0
M  V30 1757 H 154.549 -1.00698 -4.85875 0
M  V30 1758 N 153.722 1.14298 -1.08507 0
M  V30 1759 C 154.971 1.84708 -0.810305 0
M  V30 1760 C 155.284 1.83903 0.666271 0
M  V30 1761 O 156.49 2.50112 1.05624 0
M  V30 1762 C 154.946 3.31572 -1.39957 0
M  V30 1763 C 154.554 3.40791 -2.90801 0
M  V30 1764 C 156.298 4.07087 -1.20334 0
M  V30 1765 C 154.205 4.81872 -3.4286 0
M  V30 1766 H 153.135 0.691985 -0.299454 0
M  V30 1767 H 155.786 1.28841 -1.30661 0
M  V30 1768 H 154.168 3.87183 -0.830976 0
M  V30 1769 H 155.342 2.95225 -3.53806 0
M  V30 1770 H 153.657 2.78732 -3.0935 0
M  V30 1771 H 156.254 5.11225 -1.56693 0
M  V30 1772 H 156.597 4.16054 -0.143237 0
M  V30 1773 H 157.13 3.57779 -1.73893 0
M  V30 1774 H 153.869 4.78094 -4.48449 0
M  V30 1775 H 153.389 5.27972 -2.84615 0
M  V30 1776 H 155.068 5.50765 -3.39509 0
M  V30 1777 N 155.201 0.870884 1.31352 0
M  V30 1778 C 156.148 0.325425 2.28494 0
M  V30 1779 C 157.118 -0.576615 1.5577 0
M  V30 1780 O 158.303 -0.508059 1.83911 0
M  V30 1781 C 155.443 -0.466283 3.41935 0
M  V30 1782 C 154.556 0.463378 4.29508 0
M  V30 1783 C 153.691 -0.342544 5.30094 0
M  V30 1784 C 152.73 0.583486 6.09313 0
M  V30 1785 N 151.867 -0.186244 7.01853 0
M  V30 1786 H 156.707 1.15901 2.74538 0
M  V30 1787 H 154.244 0.58294 1.35056 0
M  V30 1788 H 156.202 -0.941085 4.06447 0
M  V30 1789 H 154.832 -1.26456 2.97 0
M  V30 1790 H 153.884 1.05663 3.65431 0
M  V30 1791 H 155.196 1.1734 4.84802 0
M  V30 1792 H 154.35 -0.879816 6.00287 0
M  V30 1793 H 153.089 -1.08585 4.75458 0
M  V30 1794 H 152.094 1.13251 5.3801 0
M  V30 1795 H 153.319 1.32566 6.66035 0
M  V30 1796 H 151.265 -0.912348 6.49625 0
M  V30 1797 H 151.182 0.464422 7.54572 0
M  V30 1798 H 152.45 -0.704716 7.76308 0
M  V30 1799 N 156.679 -1.44442 0.630414 0
M  V30 1800 C 157.925 -2.02351 0.134816 0
M  V30 1801 C 158.258 -1.4947 -1.23986 0
M  V30 1802 O 157.533 -0.678475 -1.82283 0
M  V30 1803 C 157.816 -3.59898 0.120707 0
M  V30 1804 C 157.669 -4.23063 1.52767 0
M  V30 1805 C 158.988 -4.36585 -0.555127 0
M  V30 1806 H 156.107 -0.73527 0.0504646 0
M  V30 1807 H 158.749 -1.72022 0.806751 0
M  V30 1808 H 156.899 -3.85868 -0.451477 0
M  V30 1809 H 158.571 -4.08202 2.14869 0
M  V30 1810 H 156.814 -3.80586 2.08175 0
M  V30 1811 H 157.485 -5.32071 1.46984 0
M  V30 1812 H 159.961 -4.16044 -0.0685429 0
M  V30 1813 H 158.837 -5.46294 -0.534185 0
M  V30 1814 H 159.098 -4.11138 -1.62535 0
M  V30 1815 N 158.157 -0.370918 -1.53173 0
M  V30 1816 C 159.382 0.220293 -2.06227 0
M  V30 1817 C 159.807 1.41243 -1.24225 0
M  V30 1818 O 159.165 1.79387 -0.262645 0
M  V30 1819 C 159.213 0.586663 -3.55796 0
M  V30 1820 O 158.317 1.68317 -3.76488 0
M  V30 1821 H 157.658 0.0308099 -0.663285 0
M  V30 1822 H 160.188 -0.533068 -1.97534 0
M  V30 1823 H 160.198 0.85617 -3.98916 0
M  V30 1824 H 158.873 -0.285013 -4.14922 0
M  V30 1825 H 157.45 1.40881 -3.45264 0
M  V30 1826 N 159.635 1.57281 -0.100228 0
M  V30 1827 C 160.86 1.99302 0.573881 0
M  V30 1828 C 161.285 0.979059 1.60611 0
M  V30 1829 O 160.643 -0.0517803 1.81226 0
M  V30 1830 C 160.691 3.40274 1.19358 0
M  V30 1831 O 159.795 3.41676 2.30935 0
M  V30 1832 H 159.136 0.647944 0.145138 0
M  V30 1833 H 161.666 2.03779 -0.183156 0
M  V30 1834 H 161.676 3.78078 1.53365 0
M  V30 1835 H 160.351 4.13594 0.437385 0
M  V30 1836 H 158.928 3.15672 1.98509 0
M  V30 1837 N 161.113 -0.173488 1.56642 0
M  V30 1838 C 162.36 -0.890465 1.81871 0
M  V30 1839 C 162.688 -1.82339 0.67696 0
M  V30 1840 O 161.943 -1.92795 -0.335926 0
M  V30 1841 C 162.242 -1.72069 3.13252 0
M  V30 1842 C 161.908 -0.936878 4.41059 0
M  V30 1843 C 160.57 -0.720545 4.75775 0
M  V30 1844 C 162.922 -0.386919 5.19762 0
M  V30 1845 C 160.25 0.0568829 5.86672 0
M  V30 1846 C 162.602 0.37741 6.31473 0
M  V30 1847 C 161.266 0.604563 6.64757 0
M  V30 1848 H 160.536 -0.325844 0.665512 0
M  V30 1849 H 163.183 -0.155527 1.90867 0
M  V30 1850 H 161.488 -2.52496 2.99588 0
M  V30 1851 H 163.185 -2.27844 3.29982 0
M  V30 1852 H 159.775 -1.11553 4.13828 0
M  V30 1853 H 163.959 -0.541398 4.93338 0
M  V30 1854 H 159.215 0.242635 6.10918 0
M  V30 1855 H 163.389 0.810825 6.91664 0
M  V30 1856 H 161.016 1.20885 7.50527 0
M  V30 1857 N 162.591 -1.51276 -0.441967 0
M  V30 1858 C 163.819 -1.67516 -1.21434 0
M  V30 1859 C 164.234 -0.37055 -1.85128 0
M  V30 1860 O 163.591 0.650498 -1.70513 0
M  V30 1861 C 163.642 -2.78748 -2.30177 0
M  V30 1862 O 163.363 -4.04154 -1.69089 0
M  V30 1863 C 164.864 -3.06217 -3.20541 0
M  V30 1864 H 162.084 -0.562276 -0.366178 0
M  V30 1865 H 164.628 -1.97666 -0.524244 0
M  V30 1866 H 162.783 -2.5121 -2.94911 0
M  V30 1867 H 163.197 -4.65894 -2.40922 0
M  V30 1868 H 164.671 -3.8764 -3.92987 0
M  V30 1869 H 165.148 -2.18439 -3.81026 0
M  V30 1870 H 165.754 -3.35397 -2.61513 0
M  V30 1871 N 164.069 0.697108 -1.41344 0
M  V30 1872 C 165.019 1.80313 -1.39539 0
M  V30 1873 C 166.003 1.58618 -0.270001 0
M  V30 1874 O 167.195 1.69477 -0.510551 0
M  V30 1875 C 164.324 3.18606 -1.27848 0
M  V30 1876 C 163.41 3.46001 -2.45244 0
M  V30 1877 N 163.801 3.44103 -3.70711 0
M  V30 1878 C 162.099 3.76542 -2.39023 0
M  V30 1879 C 162.8 3.7036 -4.48563 0
M  V30 1880 N 161.776 3.90027 -3.78655 0
M  V30 1881 H 165.578 1.77207 -2.34468 0
M  V30 1882 H 163.092 0.897031 -1.35378 0
M  V30 1883 H 165.089 3.97833 -1.24637 0
M  V30 1884 H 163.749 3.22925 -0.339032 0
M  V30 1885 H 164.76 3.2452 -4.03618 0
M  V30 1886 H 161.437 3.88241 -1.53542 0
M  V30 1887 H 162.827 3.75042 -5.57488 0
M  V30 1888 N 165.547 1.27147 0.931209 0
M  V30 1889 C 166.497 1.06227 2.01742 0
M  V30 1890 C 167.481 -0.00859065 1.60898 0
M  V30 1891 O 168.673 0.209537 1.75755 0
M  V30 1892 C 165.802 0.707787 3.35924 0
M  V30 1893 C 164.888 1.81661 3.83223 0
M  V30 1894 N 165.279 3.05564 4.03069 0
M  V30 1895 C 163.577 1.70249 4.12227 0
M  V30 1896 C 164.278 3.77697 4.42403 0
M  V30 1897 N 163.254 3.0544 4.49675 0
M  V30 1898 H 167.056 2.00261 2.15111 0
M  V30 1899 H 164.57 1.1781 1.11779 0
M  V30 1900 H 166.567 0.539043 4.134 0
M  V30 1901 H 165.227 -0.224964 3.2392 0
M  V30 1902 H 166.238 3.41363 3.89476 0
M  V30 1903 H 162.915 0.840329 4.08956 0
M  V30 1904 H 164.305 4.84168 4.65866 0
M  V30 1905 N 167.025 -1.13721 1.09112 0
M  V30 1906 C 168.274 -1.84275 0.82009 0
M  V30 1907 C 168.587 -1.84253 -0.656509 0
M  V30 1908 O 169.793 -2.50668 -1.04296 0
M  V30 1909 C 168.249 -3.30825 1.41714 0
M  V30 1910 C 167.857 -3.39244 2.92605 0
M  V30 1911 C 169.601 -4.06443 1.22492 0
M  V30 1912 C 167.508 -4.80047 3.45411 0
M  V30 1913 H 166.438 -0.690387 0.30312 0
M  V30 1914 H 169.089 -1.28146 1.31343 0
M  V30 1915 H 167.471 -3.86737 0.851498 0
M  V30 1916 H 168.645 -2.93344 3.55367 0
M  V30 1917 H 166.96 -2.77088 3.10823 0
M  V30 1918 H 169.557 -5.10387 1.59402 0
M  V30 1919 H 169.9 -4.15972 0.165299 0
M  V30 1920 H 170.433 -3.56852 1.75788 0
M  V30 1921 H 167.172 -4.75709 4.50978 0
M  V30 1922 H 166.692 -5.26455 2.87411 0
M  V30 1923 H 168.371 -5.48957 3.42425 0
M  V30 1924 N 168.503 -0.877838 -1.30888 0
M  V30 1925 C 169.75 -0.492696 -1.96415 0
M  V30 1926 C 170.078 0.956671 -1.69346 0
M  V30 1927 O 169.333 1.68993 -0.986913 0
M  V30 1928 C 169.632 -0.705748 -3.50363 0
M  V30 1929 C 169.298 -2.1291 -3.97467 0
M  V30 1930 C 167.96 -2.51834 -4.1004 0
M  V30 1931 C 170.312 -3.05702 -4.22132 0
M  V30 1932 C 167.64 -3.82775 -4.44635 0
M  V30 1933 C 169.992 -4.36166 -4.58194 0
M  V30 1934 C 168.656 -4.74993 -4.68975 0
M  V30 1935 H 167.926 -0.18029 -0.718733 0
M  V30 1936 H 170.573 -1.11233 -1.55883 0
M  V30 1937 H 168.878 -0.00303058 -3.918 0
M  V30 1938 H 170.575 -0.387456 -3.99124 0
M  V30 1939 H 167.165 -1.81694 -3.88182 0
M  V30 1940 H 171.349 -2.76853 -4.11906 0
M  V30 1941 H 166.605 -4.12609 -4.51181 0
M  V30 1942 H 170.779 -5.08111 -4.76231 0
M  V30 1943 H 168.406 -5.76495 -4.95537 0
M  V30 1944 N 169.982 1.44106 -0.638065 0
M  V30 1945 C 170.912 2.33448 0.0494287 0
M  V30 1946 C 171.893 1.48606 0.827672 0
M  V30 1947 O 173.078 1.77308 0.792173 0
M  V30 1948 C 170.208 3.31771 1.02691 0
M  V30 1949 C 169.162 4.26485 0.359823 0
M  V30 1950 C 168.488 5.14729 1.44769 0
M  V30 1951 C 169.788 5.17056 -0.738296 0
M  V30 1952 H 171.482 2.91183 -0.696636 0
M  V30 1953 H 169.028 1.40014 -0.336456 0
M  V30 1954 H 170.981 3.93161 1.51666 0
M  V30 1955 H 169.705 2.7226 1.80395 0
M  V30 1956 H 168.364 3.66437 -0.10934 0
M  V30 1957 H 168.012 4.51566 2.21578 0
M  V30 1958 H 167.712 5.78913 1.00668 0
M  V30 1959 H 169.236 5.78991 1.93911 0
M  V30 1960 H 170.65 5.72342 -0.331354 0
M  V30 1961 H 169.047 5.89879 -1.10286 0
M  V30 1962 H 170.117 4.57652 -1.60258 0
M  V30 1963 N 171.46 0.379036 1.52974 0
M  V30 1964 C 172.706 -0.199244 2.02422 0
M  V30 1965 C 173.061 -1.4532 1.26095 0
M  V30 1966 O 172.354 -1.88377 0.34996 0
M  V30 1967 C 172.548 -0.53096 3.53434 0
M  V30 1968 C 172.377 0.689298 4.44386 0
M  V30 1969 C 171.147 1.20546 4.9071 0
M  V30 1970 C 173.345 1.55856 4.90116 0
M  V30 1971 N 171.327 2.38434 5.65705 0
M  V30 1972 C 172.698 2.58396 5.63588 0
M  V30 1973 C 174.753 1.57986 4.7217 0
M  V30 1974 C 173.456 3.62939 6.21022 0
M  V30 1975 C 175.482 2.6143 5.30479 0
M  V30 1976 C 174.844 3.62693 6.03849 0
M  V30 1977 H 170.943 -0.0352671 0.781204 0
M  V30 1978 H 173.527 0.526614 1.87443 0
M  V30 1979 H 171.698 -1.22588 3.68547 0
M  V30 1980 H 173.43 -1.0955 3.89591 0
M  V30 1981 H 170.185 0.768022 4.67331 0
M  V30 1982 H 170.609 2.98055 6.07859 0
M  V30 1983 H 175.251 0.810475 4.14959 0
M  V30 1984 H 172.969 4.40751 6.77321 0
M  V30 1985 H 176.555 2.63949 5.18481 0
M  V30 1986 H 175.435 4.41424 6.48163 0
M  V30 1987 N 172.938 -1.57226 0.108567 0
M  V30 1988 C 173.868 -2.17778 -0.84232 0
M  V30 1989 C 174.849 -1.11487 -1.2847 0
M  V30 1990 O 176.034 -1.39681 -1.34918 0
M  V30 1991 C 173.164 -2.76888 -2.09644 0
M  V30 1992 C 172.118 -3.88669 -1.79221 0
M  V30 1993 C 171.444 -4.34541 -3.11574 0
M  V30 1994 C 172.744 -5.11251 -1.06864 0
M  V30 1995 H 174.438 -2.97489 -0.337774 0
M  V30 1996 H 171.984 -1.43097 -0.161025 0
M  V30 1997 H 173.937 -3.17904 -2.76614 0
M  V30 1998 H 172.661 -1.94451 -2.62405 0
M  V30 1999 H 171.32 -3.48213 -1.14644 0
M  V30 2000 H 170.968 -3.48977 -3.62249 0
M  V30 2001 H 170.668 -5.09914 -2.91996 0
M  V30 2002 H 172.192 -4.782 -3.7968 0
M  V30 2003 H 173.606 -5.49352 -1.63968 0
M  V30 2004 H 172.003 -5.9214 -0.974178 0
M  V30 2005 H 173.073 -4.8487 -0.0536168 0
M  V30 2006 N 174.416 0.165178 -1.56732 0
M  V30 2007 C 175.832 0.517174 -1.50988 0
M  V30 2008 C 176.032 1.84331 -0.813894 0
M  V30 2009 O 175.088 2.49672 -0.37682 0
M  V30 2010 C 176.401 0.544261 -2.95733 0
M  V30 2011 C 177.949 0.631039 -3.06573 0
M  V30 2012 C 178.424 0.68896 -4.52788 0
M  V30 2013 N 179.915 0.751683 -4.5706 0
M  V30 2014 C 180.65 0.817177 -5.67547 0
M  V30 2015 N 180.146 0.843129 -6.8765 0
M  V30 2016 N 181.939 0.856668 -5.55534 0
M  V30 2017 H 174.09 -0.704318 -2.00382 0
M  V30 2018 H 176.353 -0.254687 -0.913148 0
M  V30 2019 H 176.059 -0.361607 -3.49836 0
M  V30 2020 H 175.933 1.3886 -3.5071 0
M  V30 2021 H 178.32 1.52733 -2.52501 0
M  V30 2022 H 178.401 -0.240095 -2.54671 0
M  V30 2023 H 178.045 -0.2031 -5.07494 0
M  V30 2024 H 177.975 1.57633 -5.02454 0
M  V30 2025 H 180.466 0.739661 -3.70591 0
M  V30 2026 H 180.779 0.894448 -7.67606 0
M  V30 2027 H 179.124 0.811304 -6.90248 0
M  V30 2028 H 182.315 0.833437 -4.60621 0
M  V30 2029 H 182.488 0.904247 -6.4166 0
M  V30 2030 N 175.894 1.51508 0.433938 0
M  V30 2031 C 177.14 1.65549 1.18173 0
M  V30 2032 C 177.495 0.368751 1.88833 0
M  V30 2033 O 176.788 -0.635616 1.8075 0
M  V30 2034 C 176.982 2.79928 2.22205 0
M  V30 2035 C 176.811 4.19601 1.61756 0
M  V30 2036 C 175.581 4.85489 1.40101 0
M  V30 2037 C 177.779 5.02574 1.09194 0
M  V30 2038 N 175.761 6.09266 0.752859 0
M  V30 2039 C 177.132 6.17381 0.569255 0
M  V30 2040 C 179.187 4.88079 0.984025 0
M  V30 2041 C 177.89 7.19282 -0.0507472 0
M  V30 2042 C 179.916 5.90191 0.377912 0
M  V30 2043 C 179.278 7.04272 -0.134216 0
M  V30 2044 H 175.377 0.659653 0.419979 0
M  V30 2045 H 177.961 1.88746 0.477818 0
M  V30 2046 H 176.132 2.5839 2.89982 0
M  V30 2047 H 177.864 2.83132 2.89168 0
M  V30 2048 H 174.619 4.43417 1.66369 0
M  V30 2049 H 175.043 6.75528 0.446123 0
M  V30 2050 H 179.685 4.00131 1.36583 0
M  V30 2051 H 177.403 8.06876 -0.444676 0
M  V30 2052 H 180.989 5.81045 0.296269 0
M  V30 2053 H 179.869 7.81933 -0.59585 0
M  V30 2054 N 177.372 -0.689602 1.41712 0
M  V30 2055 C 178.788 -1.00093 1.24312 0
M  V30 2056 C 178.988 -2.01036 0.136729 0
M  V30 2057 O 178.044 -2.47562 -0.496918 0
M  V30 2058 C 179.357 -1.51985 2.59463 0
M  V30 2059 C 180.905 -1.63838 2.66695 0
M  V30 2060 C 181.38 -2.1913 4.02177 0
M  V30 2061 N 182.871 -2.26483 4.04054 0
M  V30 2062 C 183.606 -2.70306 5.0569 0
M  V30 2063 N 183.102 -3.13691 6.17713 0
M  V30 2064 N 184.895 -2.69923 4.9305 0
M  V30 2065 H 177.046 -0.0210029 2.1239 0
M  V30 2066 H 179.309 -0.0718733 0.945272 0
M  V30 2067 H 179.015 -0.85269 3.41207 0
M  V30 2068 H 178.889 -2.50103 2.82362 0
M  V30 2069 H 181.276 -2.29664 1.85306 0
M  V30 2070 H 181.357 -0.642492 2.476 0
M  V30 2071 H 181.001 -1.53918 4.84016 0
M  V30 2072 H 180.931 -3.19482 4.18615 0
M  V30 2073 H 183.422 -1.95874 3.23174 0
M  V30 2074 H 183.735 -3.45773 6.9113 0
M  V30 2075 H 182.08 -3.11585 6.21241 0
M  V30 2076 H 185.271 -2.35382 4.04614 0
M  V30 2077 H 185.444 -3.03758 5.72394 0
M  V30 2078 N 178.85 -1.27639 -0.924453 0
M  V30 2079 C 180.099 -1.13549 -1.66702 0
M  V30 2080 C 180.412 0.317487 -1.93006 0
M  V30 2081 O 181.618 0.579333 -2.65247 0
M  V30 2082 C 180.074 -1.98426 -3.00259 0
M  V30 2083 C 179.682 -3.484 -2.81641 0
M  V30 2084 C 181.426 -1.92993 -3.78092 0
M  V30 2085 C 179.333 -4.25464 -4.10773 0
M  V30 2086 H 178.263 -0.421351 -0.625283 0
M  V30 2087 H 180.914 -1.52085 -1.02676 0
M  V30 2088 H 179.296 -1.52736 -3.6536 0
M  V30 2089 H 180.47 -4.01973 -2.25287 0
M  V30 2090 H 178.785 -3.55245 -2.17232 0
M  V30 2091 H 181.382 -2.47844 -4.7379 0
M  V30 2092 H 181.725 -0.904281 -4.0636 0
M  V30 2093 H 182.258 -2.36595 -3.19793 0
M  V30 2094 H 178.997 -5.28566 -3.87683 0
M  V30 2095 H 178.517 -3.76667 -4.66779 0
M  V30 2096 H 180.196 -4.34812 -4.79111 0
M  V30 2097 N 180.328 1.1314 -1.09713 0
M  V30 2098 C 181.258 2.20748 -0.761102 0
M  V30 2099 C 182.239 1.68061 0.262566 0
M  V30 2100 O 183.424 1.93765 0.129977 0
M  V30 2101 C 180.554 3.46812 -0.184054 0
M  V30 2102 C 179.508 4.12606 -1.13757 0
M  V30 2103 C 178.834 5.33031 -0.422083 0
M  V30 2104 C 180.134 4.59603 -2.48118 0
M  V30 2105 H 181.828 2.49113 -1.66082 0
M  V30 2106 H 179.374 1.19734 -0.799987 0
M  V30 2107 H 181.327 4.21353 0.0631215 0
M  V30 2108 H 180.051 3.17851 0.750868 0
M  V30 2109 H 178.71 3.40036 -1.37007 0
M  V30 2110 H 178.358 5.00335 0.517072 0
M  V30 2111 H 178.058 5.77999 -1.05788 0
M  V30 2112 H 179.582 6.10325 -0.183277 0
M  V30 2113 H 180.996 5.25552 -2.29059 0
M  V30 2114 H 179.393 5.15321 -3.07514 0
M  V30 2115 H 180.463 3.73971 -3.08665 0
M  V30 2116 N 181.806 0.884767 1.30421 0
M  V30 2117 C 183.222 0.57874 1.48737 0
M  V30 2118 C 183.422 -0.883567 1.81095 0
M  V30 2119 O 182.478 -1.6648 1.89844 0
M  V30 2120 C 183.791 1.49171 2.61091 0
M  V30 2121 C 185.339 1.49532 2.74971 0
M  V30 2122 C 185.814 2.39421 3.90438 0
M  V30 2123 N 187.305 2.37383 3.97748 0
M  V30 2124 C 188.04 3.03647 4.86401 0
M  V30 2125 N 187.536 3.79136 5.79852 0
M  V30 2126 N 189.329 2.9288 4.79768 0
M  V30 2127 H 181.48 1.83075 1.0769 0
M  V30 2128 H 183.743 0.783637 0.533495 0
M  V30 2129 H 183.449 2.53291 2.44001 0
M  V30 2130 H 183.323 1.20113 3.57565 0
M  V30 2131 H 185.71 0.46163 2.91467 0
M  V30 2132 H 185.791 1.8262 1.79119 0
M  V30 2133 H 185.435 3.42874 3.74699 0
M  V30 2134 H 185.365 2.03649 4.85628 0
M  V30 2135 H 187.856 1.82525 3.30897 0
M  V30 2136 H 188.169 4.26789 6.4426 0
M  V30 2137 H 186.514 3.83243 5.79784 0
M  V30 2138 H 189.705 2.33433 4.05742 0
M  V30 2139 H 189.878 3.448 5.4865 0
M  V30 2140 N 183.284 -1.43765 0.645699 0
M  V30 2141 C 184.214 -2.33471 -0.0370477 0
M  V30 2142 C 185.195 -1.49042 -0.819779 0
M  V30 2143 O 186.38 -1.77726 -0.782758 0
M  V30 2144 C 183.51 -3.32311 -1.0093 0
M  V30 2145 C 182.464 -4.2667 -0.337201 0
M  V30 2146 C 181.79 -5.1549 -1.42037 0
M  V30 2147 C 183.09 -5.16657 0.765706 0
M  V30 2148 H 184.784 -2.90809 0.712069 0
M  V30 2149 H 182.33 -1.39834 0.343876 0
M  V30 2150 H 184.283 -3.9396 -1.49578 0
M  V30 2151 H 183.007 -2.73213 -1.78948 0
M  V30 2152 H 181.666 -3.66374 0.128771 0
M  V30 2153 H 181.314 -4.52735 -2.1918 0
M  V30 2154 H 181.014 -5.79438 -0.975966 0
M  V30 2155 H 182.538 -5.80012 -1.90838 0
M  V30 2156 H 183.952 -5.72158 0.361702 0
M  V30 2157 H 182.349 -5.89286 1.13413 0
M  V30 2158 H 183.419 -4.56796 1.62683 0
M  V30 2159 N 184.763 -0.387143 -1.52771 0
M  V30 2160 C 186.01 0.195735 -2.01552 0
M  V30 2161 C 186.338 1.46995 -1.27369 0
M  V30 2162 O 185.593 1.92325 -0.361879 0
M  V30 2163 C 185.892 0.512209 -3.53711 0
M  V30 2164 C 185.558 -0.670202 -4.45891 0
M  V30 2165 C 184.22 -0.994586 -4.70809 0
M  V30 2166 C 186.572 -1.46134 -5.00294 0
M  V30 2167 C 183.9 -2.11169 -5.4738 0
M  V30 2168 C 186.252 -2.56903 -5.78086 0
M  V30 2169 C 184.916 -2.89852 -6.01284 0
M  V30 2170 H 184.186 0.0716246 -0.73753 0
M  V30 2171 H 186.833 -0.524046 -1.8419 0
M  V30 2172 H 185.138 1.31329 -3.69134 0
M  V30 2173 H 186.835 0.975804 -3.88946 0
M  V30 2174 H 183.425 -0.407366 -4.2666 0
M  V30 2175 H 187.609 -1.22397 -4.80971 0
M  V30 2176 H 182.865 -2.3707 -5.63567 0
M  V30 2177 H 187.039 -3.18608 -6.19243 0
M  V30 2178 H 184.666 -3.76533 -6.60399 0
M  V30 2179 N 186.241 1.57166 -0.116904 0
M  V30 2180 C 187.652 1.82169 0.408809 0
M  V30 2181 C 188.003 1.03393 1.66746 0
M  V30 2182 O 187.128 0.269886 2.1471 0
M  V30 2183 C 187.723 3.30429 0.748466 0
M  V30 2184 C 186.282 3.5612 1.21882 0
M  V30 2185 C 185.429 2.76374 0.226452 0
M  V30 2186 H 188.38 1.5497 -0.342063 0
M  V30 2187 H 188.401 3.44943 1.60607 0
M  V30 2188 H 187.913 3.87737 -0.167784 0
M  V30 2189 H 186.014 3.04168 2.15204 0
M  V30 2190 H 186.127 4.64705 1.16559 0
M  V30 2191 H 184.491 2.44515 0.713063 0
M  V30 2192 H 185.274 3.3644 -0.682859 0
M  V30 2193 N 187.719 -0.156864 1.56817 0
M  V30 2194 C 188.965 -0.867645 1.83966 0
M  V30 2195 C 189.32 -1.79233 0.699511 0
M  V30 2196 O 188.613 -1.89186 -0.303176 0
M  V30 2197 C 188.807 -1.68737 3.1506 0
M  V30 2198 C 188.636 -0.843548 4.41718 0
M  V30 2199 C 187.406 -0.512994 5.02689 0
M  V30 2200 C 189.604 -0.178416 5.1399 0
M  V30 2201 N 187.586 0.345456 6.12927 0
M  V30 2202 C 188.957 0.540586 6.17639 0
M  V30 2203 C 191.012 -0.0980696 4.97803 0
M  V30 2204 C 189.715 1.33233 7.06853 0
M  V30 2205 C 191.741 0.680387 5.87473 0
M  V30 2206 C 191.103 1.3877 6.90596 0
M  V30 2207 H 187.202 -0.295642 0.723961 0
M  V30 2208 H 189.786 -0.13365 1.94241 0
M  V30 2209 H 187.957 -2.39268 3.0595 0
M  V30 2210 H 189.689 -2.34056 3.30151 0
M  V30 2211 H 186.444 -0.846476 4.65974 0
M  V30 2212 H 186.868 0.765415 6.72659 0
M  V30 2213 H 191.51 -0.630562 4.18071 0
M  V30 2214 H 189.228 1.87612 7.8602 0
M  V30 2215 H 192.814 0.744415 5.77018 0
M  V30 2216 H 191.694 1.9804 7.58782 0
M  V30 2217 N 189.197 -1.51736 -0.425897 0
M  V30 2218 C 190.446 -1.64201 -1.17136 0
M  V30 2219 C 190.759 -0.369705 -1.92074 0
M  V30 2220 O 191.965 -0.373898 -2.68913 0
M  V30 2221 C 190.421 -2.90035 -2.13091 0
M  V30 2222 C 190.029 -4.24312 -1.43747 0
M  V30 2223 C 191.773 -3.1186 -2.87999 0
M  V30 2224 C 189.68 -5.41285 -2.38253 0
M  V30 2225 H 188.61 -0.611624 -0.440944 0
M  V30 2226 H 191.261 -1.78212 -0.437328 0
M  V30 2227 H 189.643 -2.69684 -2.89977 0
M  V30 2228 H 190.817 -4.55086 -0.723408 0
M  V30 2229 H 189.132 -4.08456 -0.809465 0
M  V30 2230 H 191.729 -3.96427 -3.58817 0
M  V30 2231 H 192.072 -2.25403 -3.49999 0
M  V30 2232 H 192.605 -3.32605 -2.18217 0
M  V30 2233 H 189.344 -6.30037 -1.80925 0
M  V30 2234 H 188.864 -5.14872 -3.0768 0
M  V30 2235 H 190.543 -5.73694 -2.99139 0
M  V30 2236 N 190.675 0.682077 -1.42076 0
M  V30 2237 C 191.605 1.80796 -1.47767 0
M  V30 2238 C 192.586 1.6677 -0.334954 0
M  V30 2239 O 193.771 1.863 -0.548264 0
M  V30 2240 C 190.901 3.19038 -1.37229 0
M  V30 2241 C 189.855 3.47789 -2.49453 0
M  V30 2242 C 189.181 4.8553 -2.23975 0
M  V30 2243 C 190.481 3.45411 -3.91776 0
M  V30 2244 H 192.175 1.7629 -2.41997 0
M  V30 2245 H 189.721 0.846721 -1.16476 0
M  V30 2246 H 191.674 3.97528 -1.39821 0
M  V30 2247 H 190.398 3.24204 -0.394907 0
M  V30 2248 H 189.057 2.71657 -2.46166 0
M  V30 2249 H 188.705 4.87337 -1.24547 0
M  V30 2250 H 188.405 5.0573 -2.99184 0
M  V30 2251 H 189.929 5.66312 -2.28304 0
M  V30 2252 H 191.343 4.13882 -3.96705 0
M  V30 2253 H 189.74 3.77145 -4.66778 0
M  V30 2254 H 190.81 2.44122 -4.18966 0
M  V30 2255 N 192.153 1.28127 0.917671 0
M  V30 2256 C 193.083 1.14248 2.03641 0
M  V30 2257 C 194.064 0.0412748 1.7005 0
M  V30 2258 O 195.249 0.217566 1.92977 0
M  V30 2259 C 192.379 0.799431 3.37974 0
M  V30 2260 C 191.333 1.85497 3.85713 0
M  V30 2261 C 190.659 1.36565 5.16966 0
M  V30 2262 C 191.959 3.26085 4.08002 0
M  V30 2263 H 193.653 2.07835 2.15511 0
M  V30 2264 H 191.199 1.00064 1.03553 0
M  V30 2265 H 193.152 0.689114 4.15727 0
M  V30 2266 H 191.876 -0.172145 3.26146 0
M  V30 2267 H 190.535 1.95437 3.10161 0
M  V30 2268 H 190.183 0.383253 5.01538 0
M  V30 2269 H 189.883 2.07143 5.49878 0
M  V30 2270 H 191.407 1.26848 5.97279 0
M  V30 2271 H 192.821 3.19089 4.76293 0
M  V30 2272 H 191.218 3.94462 4.52238 0
M  V30 2273 H 192.288 3.70394 3.12948 0
M  V30 2274 N 193.631 -1.12557 1.10312 0
M  V30 2275 C 194.879 -1.83675 0.843091 0
M  V30 2276 C 195.2 -1.84435 -0.633131 0
M  V30 2277 O 194.47 -1.30657 -1.45964 0
M  V30 2278 H 193.05 -0.680138 0.308904 0
M  V30 2279 H 195.712 -1.36301 1.39313 0
M  V30 2280 H 194.808 -2.87908 1.2048 0
M  V30 2281 N 195.109 -0.891671 -1.2995 0
M  V30 2282 C 196.334 -0.527932 -2.00568 0
M  V30 2283 C 196.759 0.877969 -1.66353 0
M  V30 2284 O 196.117 1.58301 -0.883762 0
M  V30 2285 C 196.165 -0.717745 -3.53385 0
M  V30 2286 O 195.269 0.233376 -4.11739 0
M  V30 2287 H 194.61 -0.20722 -0.630837 0
M  V30 2288 H 197.14 -1.20105 -1.65638 0
M  V30 2289 H 197.15 -0.619307 -4.03272 0
M  V30 2290 H 195.825 -1.74276 -3.77625 0
M  V30 2291 H 194.402 0.0880706 -3.72796 0
M  V30 2292 N 196.587 1.43421 -0.653314 0
M  V30 2293 C 197.517 2.33487 0.0246656 0
M  V30 2294 C 198.498 1.49475 0.811863 0
M  V30 2295 O 199.683 1.78139 0.773322 0
M  V30 2296 C 196.813 3.32841 0.99166 0
M  V30 2297 C 195.767 4.26842 0.314568 0
M  V30 2298 C 195.093 5.16236 1.39302 0
M  V30 2299 C 196.393 5.16243 -0.793095 0
M  V30 2300 H 198.087 2.90427 -0.727481 0
M  V30 2301 H 195.633 1.39649 -0.351287 0
M  V30 2302 H 197.586 3.94747 1.47487 0
M  V30 2303 H 196.31 2.74158 1.77497 0
M  V30 2304 H 194.969 3.663 -0.148199 0
M  V30 2305 H 194.617 4.53891 2.16776 0
M  V30 2306 H 194.317 5.79948 0.945223 0
M  V30 2307 H 195.841 5.81015 1.87759 0
M  V30 2308 H 197.255 5.71958 -0.392039 0
M  V30 2309 H 195.652 5.88676 -1.16536 0
M  V30 2310 H 196.722 4.55927 -1.65103 0
M  V30 2311 N 198.065 0.39524 1.52563 0
M  V30 2312 C 198.998 -0.4813 2.23067 0
M  V30 2313 C 199.976 -1.05927 1.23362 0
M  V30 2314 O 201.16 -1.10979 1.52368 0
M  V30 2315 C 198.287 -1.66676 2.9485 0
M  V30 2316 C 197.333 -1.21348 4.08873 0
M  V30 2317 S 198.166 -0.190102 5.35162 0
M  V30 2318 C 199.322 -1.38121 6.1047 0
M  V30 2319 H 199.555 0.117381 2.97068 0
M  V30 2320 H 197.088 0.179458 1.53354 0
M  V30 2321 H 199.046 -2.3466 3.36816 0
M  V30 2322 H 197.707 -2.23676 2.20518 0
M  V30 2323 H 196.9 -2.09877 4.58222 0
M  V30 2324 H 196.502 -0.612486 3.68951 0
M  V30 2325 H 198.794 -2.30726 6.37002 0
M  V30 2326 H 199.737 -0.928521 7.01986 0
M  V30 2327 H 200.145 -1.60071 5.41329 0
M  V30 2328 N 199.544 -1.57102 0.125237 0
M  V30 2329 C 200.793 -1.94582 -0.531095 0
M  V30 2330 C 201.106 -1.01126 -1.6743 0
M  V30 2331 O 202.312 -1.28097 -2.39381 0
M  V30 2332 C 200.768 -3.45839 -0.996164 0
M  V30 2333 C 200.376 -4.47842 0.118926 0
M  V30 2334 C 202.12 -3.92227 -1.62352 0
M  V30 2335 C 200.027 -5.90284 -0.363192 0
M  V30 2336 H 198.957 -0.726391 -0.20217 0
M  V30 2337 H 201.608 -1.82339 0.206092 0
M  V30 2338 H 199.99 -3.53338 -1.78796 0
M  V30 2339 H 201.164 -4.52018 0.895358 0
M  V30 2340 H 199.479 -4.11243 0.653324 0
M  V30 2341 H 202.076 -4.96069 -1.99548 0
M  V30 2342 H 202.419 -3.32552 -2.50429 0
M  V30 2343 H 202.952 -3.87554 -0.897019 0
M  V30 2344 H 199.691 -6.53728 0.481679 0
M  V30 2345 H 199.211 -5.89515 -1.10597 0
M  V30 2346 H 200.89 -6.41752 -0.822377 0
M  V30 2347 N 201.022 0.148545 -1.56898 0
M  V30 2348 C 202.25 0.876389 -1.87422 0
M  V30 2349 C 202.665 1.74809 -0.713256 0
M  V30 2350 O 202.022 1.79725 0.317025 0
M  V30 2351 C 202.073 1.73438 -3.17178 0
M  V30 2352 O 201.794 0.897809 -4.28802 0
M  V30 2353 C 203.295 2.56993 -3.61205 0
M  V30 2354 H 200.515 0.253489 -0.621277 0
M  V30 2355 H 203.059 0.141798 -2.04008 0
M  V30 2356 H 201.214 2.42205 -3.0235 0
M  V30 2357 H 201.628 1.48672 -5.02988 0
M  V30 2358 H 203.102 3.12773 -4.54838 0
M  V30 2359 H 203.579 3.32958 -2.86419 0
M  V30 2360 H 204.185 1.9352 -3.78722 0
M  V30 2361 N 202.5 1.5196 0.417844 0
M  V30 2362 C 203.74 1.67262 1.17486 0
M  V30 2363 C 204.104 0.38983 1.88001 0
M  V30 2364 O 205.305 0.418845 2.65517 0
M  V30 2365 C 203.576 2.85526 2.14965 0
M  V30 2366 S 205.135 3.21263 2.98891 0
M  V30 2367 H 201.953 0.589077 0.398132 0
M  V30 2368 H 204.555 1.89927 0.463452 0
M  V30 2369 H 203.259 3.77145 1.61833 0
M  V30 2370 H 202.79 2.65107 2.90657 0
M  V30 2371 H 204.805 2.69208 4.16823 0
M  V30 2372 N 203.978 -0.674533 1.42435 0
M  V30 2373 C 205.224 -1.43671 1.43131 0
M  V30 2374 C 205.557 -1.94142 0.0476021 0
M  V30 2375 O 204.832 -1.70924 -0.928188 0
M  V30 2376 C 205.115 -2.63355 2.45594 0
M  V30 2377 C 204.968 -2.18514 3.93156 0
M  V30 2378 C 206.287 -3.65571 2.45043 0
M  V30 2379 H 203.406 -0.521077 0.521198 0
M  V30 2380 H 206.048 -0.766551 1.7385 0
M  V30 2381 H 204.198 -3.2053 2.19528 0
M  V30 2382 H 205.87 -1.66504 4.30202 0
M  V30 2383 H 204.113 -1.50086 4.07009 0
M  V30 2384 H 204.784 -3.04484 4.60428 0
M  V30 2385 H 207.26 -3.18113 2.68223 0
M  V30 2386 H 206.136 -4.46893 3.18713 0
M  V30 2387 H 206.397 -4.16716 1.47649 0
M  V30 2388 N 205.456 -1.28612 -0.910864 0
M  V30 2389 C 206.684 -1.18792 -1.69399 0
M  V30 2390 C 207.099 0.253039 -1.87097 0
M  V30 2391 O 206.456 1.17071 -1.40003 0
M  V30 2392 C 206.507 -1.88511 -3.08457 0
M  V30 2393 O 206.228 -3.26979 -2.91576 0
M  V30 2394 C 207.729 -1.85029 -4.02839 0
M  V30 2395 H 204.949 -0.412233 -0.529438 0
M  V30 2396 H 207.493 -1.69788 -1.13984 0
M  V30 2397 H 205.648 -1.41379 -3.60681 0
M  V30 2398 H 206.062 -3.61936 -3.79608 0
M  V30 2399 H 207.536 -2.38395 -4.97867 0
M  V30 2400 H 208.013 -0.823303 -4.31414 0
M  V30 2401 H 208.619 -2.31853 -3.56545 0
M  V30 2402 N 206.934 1.1197 -1.10907 0
M  V30 2403 C 208.183 1.82947 -0.849302 0
M  V30 2404 C 208.496 1.85275 0.627112 0
M  V30 2405 O 209.702 2.52296 1.00295 0
M  V30 2406 C 208.158 3.28529 -1.46959 0
M  V30 2407 C 207.766 3.34546 -2.97965 0
M  V30 2408 C 209.51 4.04443 -1.28942 0
M  V30 2409 C 207.417 4.74491 -3.53004 0
M  V30 2410 H 206.347 0.685477 -0.314065 0
M  V30 2411 H 208.998 1.2604 -1.33365 0
M  V30 2412 H 207.38 3.85333 -0.912917 0
M  V30 2413 H 208.554 2.87654 -3.59989 0
M  V30 2414 H 206.869 2.72108 -3.15192 0
M  V30 2415 H 209.466 5.07787 -1.67502 0
M  V30 2416 H 209.809 4.15656 -0.231456 0
M  V30 2417 H 210.342 3.5401 -1.81443 0
M  V30 2418 H 207.081 4.68474 -4.58489 0
M  V30 2419 H 206.601 5.21816 -2.9575 0
M  V30 2420 H 208.28 5.4344 -3.51115 0
M  V30 2421 N 208.412 0.89855 1.29475 0
M  V30 2422 C 209.661 0.519863 1.94885 0
M  V30 2423 C 209.974 -0.9383 1.71625 0
M  V30 2424 O 211.18 -1.42445 2.31131 0
M  V30 2425 C 209.636 0.878836 3.49005 0
M  V30 2426 C 209.244 2.35569 3.81066 0
M  V30 2427 C 210.988 0.570004 4.20656 0
M  V30 2428 C 208.895 2.65558 5.28425 0
M  V30 2429 H 207.825 0.190692 0.729488 0
M  V30 2430 H 210.476 1.09539 1.47219 0
M  V30 2431 H 208.858 0.232253 3.95318 0
M  V30 2432 H 210.032 3.04773 3.45616 0
M  V30 2433 H 208.347 2.63343 3.22552 0
M  V30 2434 H 210.944 0.770925 5.29113 0
M  V30 2435 H 211.287 -0.491404 4.1339 0
M  V30 2436 H 211.82 1.17438 3.8007 0
M  V30 2437 H 208.559 3.70493 5.40754 0
M  V30 2438 H 208.079 2.00977 5.65127 0
M  V30 2439 H 209.758 2.51765 5.96006 0
M  V30 2440 N 209.89 -1.43072 0.660911 0
M  V30 2441 C 211.301 -1.84932 0.256348 0
M  V30 2442 C 211.652 -1.55325 -1.19868 0
M  V30 2443 O 210.777 -1.00607 -1.91591 0
M  V30 2444 C 211.372 -3.35684 0.458475 0
M  V30 2445 C 209.931 -3.76245 0.108161 0
M  V30 2446 C 209.078 -2.66749 0.757641 0
M  V30 2447 H 212.029 -1.33116 0.864051 0
M  V30 2448 H 212.05 -3.79365 -0.293683 0
M  V30 2449 H 211.562 -3.572 1.51755 0
M  V30 2450 H 209.663 -3.60338 -0.948014 0
M  V30 2451 H 209.776 -4.76058 0.538992 0
M  V30 2452 H 208.14 -2.53989 0.190185 0
M  V30 2453 H 208.923 -2.91092 1.81989 0
M  V30 2454 N 211.368 -0.403325 -1.52352 0
M  V30 2455 C 212.593 0.176499 -2.06648 0
M  V30 2456 C 213.018 1.38577 -1.27193 0
M  V30 2457 O 212.376 1.7879 -0.300637 0
M  V30 2458 C 212.424 0.511061 -3.5696 0
M  V30 2459 O 211.528 1.60294 -3.79973 0
M  V30 2460 H 210.869 0.0167337 -0.663789 0
M  V30 2461 H 213.399 -0.574848 -1.96359 0
M  V30 2462 H 213.409 0.771362 -4.00642 0
M  V30 2463 H 212.084 -0.37296 -4.14224 0
M  V30 2464 H 210.661 1.33526 -3.48174 0
M  V30 2465 N 212.846 1.57033 -0.133567 0
M  V30 2466 C 213.809 2.14897 0.796995 0
M  V30 2467 C 214.809 1.0874 1.18458 0
M  V30 2468 O 215.999 1.34446 1.1077 0
M  V30 2469 C 213.131 2.70112 2.07973 0
M  V30 2470 H 214.324 2.98457 0.293873 0
M  V30 2471 H 211.877 1.55871 0.115787 0
M  V30 2472 H 212.612 1.9018 2.62682 0
M  V30 2473 H 212.397 3.47764 1.81115 0
M  V30 2474 H 213.887 3.14738 2.74462 0
M  V30 2475 N 214.325 -0.140222 1.56975 0
M  V30 2476 C 215.574 -0.850152 1.82908 0
M  V30 2477 C 215.887 -1.82028 0.715892 0
M  V30 2478 O 217.093 -2.57485 0.861016 0
M  V30 2479 C 215.549 -1.5625 3.24213 0
M  V30 2480 C 215.157 -0.63443 4.43485 0
M  V30 2481 C 216.901 -2.25881 3.59413 0
M  V30 2482 C 214.808 -1.34879 5.75814 0
M  V30 2483 H 213.738 -0.321221 0.682153 0
M  V30 2484 H 216.389 -0.102874 1.83211 0
M  V30 2485 H 214.771 -2.35565 3.18316 0
M  V30 2486 H 215.945 0.12398 4.60633 0
M  V30 2487 H 214.26 -0.0461836 4.16374 0
M  V30 2488 H 216.857 -2.79978 4.5554 0
M  V30 2489 H 217.2 -3.02693 2.85802 0
M  V30 2490 H 217.733 -1.53477 3.67001 0
M  V30 2491 H 214.472 -0.622385 6.52539 0
M  V30 2492 H 213.992 -2.07974 5.6259 0
M  V30 2493 H 215.671 -1.88784 6.18845 0
M  V30 2494 N 215.803 -1.52179 -0.40978 0
M  V30 2495 C 217.051 -1.65878 -1.15451 0
M  V30 2496 C 217.372 -0.390771 -1.91044 0
M  V30 2497 O 216.642 0.594323 -1.86667 0
M  V30 2498 H 215.222 -0.611405 -0.429177 0
M  V30 2499 H 217.884 -1.89219 -0.467134 0
M  V30 2500 H 216.98 -2.49954 -1.86894 0
M  V30 2501 N 217.281 0.66697 -1.42791 0
M  V30 2502 C 218.229 1.80157 -1.47127 0
M  V30 2503 C 219.223 1.65825 -0.346199 0
M  V30 2504 O 220.429 1.72338 -0.519572 0
M  V30 2505 H 216.804 0.594158 -0.460956 0
M  V30 2506 H 218.775 1.73619 -2.42692 0
M  V30 2507 C 217.524 3.18351 -1.39813 0
M  V30 2508 H 216.847 3.3001 -2.25684 0
M  V30 2509 H 218.287 3.97736 -1.46908 0
M  V30 2510 C 216.746 3.36707 -0.11391 0
M  V30 2511 O 217.276 3.93027 0.830241 0
M  V30 2512 N 215.482 2.90586 -0.0285295 0
M  V30 2513 H 215.029 2.4494 -0.79764 0
M  V30 2514 H 214.987 3.03245 0.830063 0
M  V30 2515 N 218.759 1.29093 0.90403 0
M  V30 2516 C 219.989 1.19516 1.68522 0
M  V30 2517 C 220.397 -0.24738 1.87576 0
M  V30 2518 O 219.74 -1.17798 1.40959 0
M  V30 2519 C 219.802 1.83249 3.0929 0
M  V30 2520 C 219.466 3.32531 3.13484 0
M  V30 2521 C 220.463 4.28821 2.93953 0
M  V30 2522 C 218.148 3.73656 3.35688 0
M  V30 2523 C 220.142 5.64212 2.96553 0
M  V30 2524 C 217.829 5.0917 3.37919 0
M  V30 2525 C 218.827 6.04258 3.18373 0
M  V30 2526 O 218.515 7.37298 3.20385 0
M  V30 2527 H 218.247 0.415467 0.533257 0
M  V30 2528 H 220.801 1.70912 1.13922 0
M  V30 2529 H 219.031 1.26358 3.65473 0
M  V30 2530 H 220.72 1.68054 3.69476 0
M  V30 2531 H 221.486 3.98382 2.76616 0
M  V30 2532 H 217.365 3.00101 3.49943 0
M  V30 2533 H 220.909 6.38407 2.81216 0
M  V30 2534 H 216.806 5.39256 3.54787 0
M  V30 2535 H 217.574 7.46048 3.36681 0
M  V30 2536 N 220.237 -1.11381 1.11499 0
M  V30 2537 C 221.486 -1.82494 0.858993 0
M  V30 2538 C 221.799 -1.85605 -0.617278 0
M  V30 2539 O 223.005 -2.52824 -0.989552 0
M  V30 2540 C 221.461 -3.27745 1.48699 0
M  V30 2541 C 221.069 -3.32961 2.99735 0
M  V30 2542 C 222.813 -4.03754 1.31085 0
M  V30 2543 C 220.72 -4.72612 3.55516 0
M  V30 2544 H 219.65 -0.683802 0.317696 0
M  V30 2545 H 222.301 -1.25331 1.34031 0
M  V30 2546 H 220.683 -3.84844 0.933339 0
M  V30 2547 H 221.857 -2.85741 3.61509 0
M  V30 2548 H 220.172 -2.70433 3.16631 0
M  V30 2549 H 222.769 -5.06891 1.70192 0
M  V30 2550 H 223.112 -4.15527 0.253496 0
M  V30 2551 H 223.645 -3.53043 1.83318 0
M  V30 2552 H 220.384 -4.66036 4.60967 0
M  V30 2553 H 219.904 -5.2024 2.98513 0
M  V30 2554 H 221.583 -5.4157 3.53992 0
M  V30 2555 N 221.715 -0.905404 -1.28997 0
M  V30 2556 C 222.647 -0.344748 -2.26592 0
M  V30 2557 C 223.66 0.512135 -1.54535 0
M  V30 2558 O 224.849 0.328368 -1.75454 0
M  V30 2559 C 221.949 0.526587 -3.34784 0
M  V30 2560 C 221.122 -0.305871 -4.36329 0
M  V30 2561 C 220.181 0.499209 -5.23827 0
M  V30 2562 O 219.207 -0.0853004 -5.69136 0
M  V30 2563 N 220.409 1.80408 -5.51755 0
M  V30 2564 H 223.174 -1.18359 -2.75338 0
M  V30 2565 H 220.735 -0.770481 -1.42391 0
M  V30 2566 H 222.727 1.07171 -3.90252 0
M  V30 2567 H 221.297 1.26613 -2.85811 0
M  V30 2568 H 220.517 -1.0324 -3.80441 0
M  V30 2569 H 221.805 -0.875773 -5.01206 0
M  V30 2570 H 221.203 2.3016 -5.16762 0
M  V30 2571 H 219.76 2.29621 -6.10014 0
M  V30 2572 N 223.193 1.4272 -0.668489 0
M  V30 2573 C 224.442 2.00846 -0.185389 0
M  V30 2574 C 224.755 1.53442 1.21305 0
M  V30 2575 O 225.961 2.03944 1.79218 0
M  V30 2576 C 224.417 3.58805 -0.280591 0
M  V30 2577 C 224.025 4.15198 -1.68268 0
M  V30 2578 C 225.769 4.24255 0.14412 0
M  V30 2579 C 223.676 5.655 -1.73099 0
M  V30 2580 H 222.606 0.751145 -0.0655475 0
M  V30 2581 H 225.257 1.63516 -0.832752 0
M  V30 2582 H 223.639 3.93608 0.434553 0
M  V30 2583 H 224.813 3.91866 -2.42441 0
M  V30 2584 H 223.128 3.62176 -2.05469 0
M  V30 2585 H 225.725 5.34547 0.128086 0
M  V30 2586 H 226.068 3.99277 1.17827 0
M  V30 2587 H 226.601 3.94389 -0.519798 0
M  V30 2588 H 223.34 5.95268 -2.74475 0
M  V30 2589 H 222.86 5.90842 -1.03274 0
M  V30 2590 H 224.539 6.29808 -1.48158 0
M  V30 2591 N 224.671 0.411399 1.52136 0
M  V30 2592 C 225.603 -0.448386 2.24771 0
M  V30 2593 C 226.616 -1.00828 1.27818 0
M  V30 2594 O 227.805 -0.906841 1.53749 0
M  V30 2595 C 224.905 -1.63636 2.96777 0
M  V30 2596 C 224.078 -1.19995 4.20618 0
M  V30 2597 C 223.137 -2.25509 4.75428 0
M  V30 2598 O 222.163 -1.86007 5.3795 0
M  V30 2599 N 223.365 -3.577 4.57199 0
M  V30 2600 H 226.13 0.174025 2.99194 0
M  V30 2601 H 223.691 0.238897 1.60128 0
M  V30 2602 H 225.683 -2.33793 3.30338 0
M  V30 2603 H 224.253 -2.16465 2.25526 0
M  V30 2604 H 223.473 -0.326421 3.92846 0
M  V30 2605 H 224.761 -0.885365 5.01038 0
M  V30 2606 H 224.159 -3.92543 4.07341 0
M  V30 2607 H 222.716 -4.23827 4.95191 0
M  V30 2608 N 226.149 -1.5696 0.141893 0
M  V30 2609 C 227.079 -2.19516 -0.795936 0
M  V30 2610 C 228.06 -1.14187 -1.26077 0
M  V30 2611 O 229.245 -1.42511 -1.31925 0
M  V30 2612 C 226.375 -2.81272 -2.03723 0
M  V30 2613 C 225.329 -3.92384 -1.70936 0
M  V30 2614 C 224.655 -4.41052 -3.02287 0
M  V30 2615 C 225.955 -5.13403 -0.959954 0
M  V30 2616 H 227.649 -2.98138 -0.274596 0
M  V30 2617 H 225.195 -1.43406 -0.130636 0
M  V30 2618 H 227.148 -3.237 -2.69808 0
M  V30 2619 H 225.872 -1.99973 -2.58221 0
M  V30 2620 H 224.531 -3.50566 -1.07232 0
M  V30 2621 H 224.179 -3.56582 -3.54765 0
M  V30 2622 H 223.879 -5.15993 -2.81114 0
M  V30 2623 H 225.403 -4.86146 -3.69451 0
M  V30 2624 H 226.817 -5.52706 -1.52279 0
M  V30 2625 H 225.214 -5.94073 -0.848357 0
M  V30 2626 H 226.284 -4.84875 0.0492434 0
M  V30 2627 N 227.627 0.131896 -1.57047 0
M  V30 2628 C 228.557 1.16384 -2.02428 0
M  V30 2629 C 229.538 1.43936 -0.90644 0
M  V30 2630 O 230.723 1.54599 -1.17528 0
M  V30 2631 C 227.853 2.49328 -2.4177 0
M  V30 2632 C 226.807 2.36266 -3.56879 0
M  V30 2633 C 226.133 3.74057 -3.8208 0
M  V30 2634 C 227.433 1.834 -4.89042 0
M  V30 2635 H 229.127 0.786433 -2.88887 0
M  V30 2636 H 226.673 0.376855 -1.38981 0
M  V30 2637 H 228.626 3.21759 -2.7212 0
M  V30 2638 H 227.35 2.88934 -1.52266 0
M  V30 2639 H 226.009 1.66286 -3.26718 0
M  V30 2640 H 225.657 4.11125 -2.89803 0
M  V30 2641 H 225.357 3.66174 -4.59554 0
M  V30 2642 H 226.881 4.48012 -4.1487 0
M  V30 2643 H 228.295 2.45636 -5.18011 0
M  V30 2644 H 226.692 1.8637 -5.70426 0
M  V30 2645 H 227.762 0.790662 -4.7841 0
M  V30 2646 N 229.106 1.52395 0.401703 0
M  V30 2647 C 230.334 1.70676 1.16949 0
M  V30 2648 C 230.749 0.419503 1.8408 0
M  V30 2649 O 230.106 -0.605061 1.72178 0
M  V30 2650 C 230.157 2.84753 2.22706 0
M  V30 2651 O 229.878 4.08495 1.58314 0
M  V30 2652 C 231.379 3.14608 3.12309 0
M  V30 2653 H 228.599 0.571787 0.351142 0
M  V30 2654 H 231.143 1.98987 0.471652 0
M  V30 2655 H 229.298 2.58941 2.88147 0
M  V30 2656 H 229.712 4.72117 2.28485 0
M  V30 2657 H 231.186 3.97923 3.82572 0
M  V30 2658 H 231.663 2.28464 3.75101 0
M  V30 2659 H 232.269 3.42212 2.52529 0
M  V30 2660 N 230.584 -0.659388 1.43143 0
M  V30 2661 C 231.517 -1.78425 1.42267 0
M  V30 2662 C 232.495 -1.60085 0.284894 0
M  V30 2663 O 233.679 -1.82351 0.477527 0
M  V30 2664 C 230.806 -3.15642 1.22833 0
M  V30 2665 C 229.852 -3.52698 2.39806 0
M  V30 2666 S 230.685 -3.53372 4.02353 0
M  V30 2667 C 231.841 -4.93256 3.85291 0
M  V30 2668 H 232.074 -1.78897 2.37452 0
M  V30 2669 H 229.607 -0.831469 1.301 0
M  V30 2670 H 231.565 -3.94838 1.12308 0
M  V30 2671 H 230.226 -3.12739 0.29207 0
M  V30 2672 H 229.419 -4.52475 2.21996 0
M  V30 2673 H 229.021 -2.80899 2.46925 0
M  V30 2674 H 231.313 -5.81751 3.47235 0
M  V30 2675 H 232.256 -5.16115 4.84799 0
M  V30 2676 H 232.664 -4.665 3.17865 0
M  V30 2677 N 232.062 -1.29571 -0.897171 0
M  V30 2678 C 232.972 -1.16808 -2.03453 0
M  V30 2679 C 233.988 -0.0907471 -1.73763 0
M  V30 2680 O 235.164 -0.303312 -1.99103 0
M  V30 2681 C 232.229 -0.848264 -3.36163 0
M  V30 2682 C 231.29 -2.0097 -3.79354 0
M  V30 2683 C 230.523 -1.70505 -5.05731 0
M  V30 2684 O 230.746 -0.62718 -5.66941 0
M  V30 2685 O 229.68 -2.5538 -5.45036 0
M  V30 2686 H 233.506 -2.12325 -2.17144 0
M  V30 2687 H 231.091 -1.09047 -1.02123 0
M  V30 2688 H 232.973 -0.684581 -4.15802 0
M  V30 2689 H 231.648 0.0771071 -3.23608 0
M  V30 2690 H 230.555 -2.22863 -3.00471 0
M  V30 2691 H 231.888 -2.91636 -3.96496 0
M  V30 2692 N 233.54 1.10788 -1.12088 0
M  V30 2693 C 234.49 2.15158 -0.754401 0
M  V30 2694 C 235.474 1.59026 0.244846 0
M  V30 2695 O 236.666 1.76927 0.0509097 0
M  V30 2696 C 233.795 3.42677 -0.206657 0
M  V30 2697 C 232.881 4.05751 -1.23398 0
M  V30 2698 N 233.272 4.43582 -2.43041 0
M  V30 2699 C 231.57 4.32764 -1.07848 0
M  V30 2700 C 232.271 4.93085 -3.08613 0
M  V30 2701 N 231.247 4.89664 -2.36072 0
M  V30 2702 H 235.049 2.42195 -1.6649 0
M  V30 2703 H 232.563 1.27872 -1.00112 0
M  V30 2704 H 234.56 4.16834 0.0740646 0
M  V30 2705 H 233.22 3.17101 0.698342 0
M  V30 2706 H 234.231 4.35395 -2.80449 0
M  V30 2707 H 230.908 4.16863 -0.230483 0
M  V30 2708 H 232.298 5.31933 -4.10483 0
M  V30 2709 N 235.018 0.912232 1.28515 0
M  V30 2710 C 235.948 0.416403 2.29757 0
M  V30 2711 C 236.929 -0.515194 1.6211 0
M  V30 2712 O 238.114 -0.423253 1.89532 0
M  V30 2713 C 235.244 -0.34572 3.45575 0
M  V30 2714 C 234.198 0.496599 4.25109 0
M  V30 2715 C 233.524 -0.393771 5.33248 0
M  V30 2716 C 234.824 1.75307 4.92001 0
M  V30 2717 H 236.518 1.26249 2.7148 0
M  V30 2718 H 234.064 0.608515 1.30511 0
M  V30 2719 H 236.017 -0.703422 4.15488 0
M  V30 2720 H 234.741 -1.2257 3.02728 0
M  V30 2721 H 233.4 0.8368 3.56922 0
M  V30 2722 H 233.048 -1.27225 4.86644 0
M  V30 2723 H 232.748 0.166209 5.87365 0
M  V30 2724 H 234.272 -0.747389 6.06009 0
M  V30 2725 H 235.686 1.46437 5.54283 0
M  V30 2726 H 234.083 2.25534 5.56106 0
M  V30 2727 H 235.153 2.48176 4.16577 0
M  V30 2728 N 236.496 -1.42363 0.676048 0
M  V30 2729 C 237.907 -1.84649 0.275948 0
M  V30 2730 C 238.258 -1.56588 -1.18214 0
M  V30 2731 O 237.383 -1.02634 -1.90513 0
M  V30 2732 C 237.978 -3.35178 0.494053 0
M  V30 2733 C 236.537 -3.76109 0.148061 0
M  V30 2734 C 235.684 -2.65931 0.785891 0
M  V30 2735 H 238.635 -1.32192 0.878121 0
M  V30 2736 H 238.656 -3.79655 -0.25343 0
M  V30 2737 H 238.168 -3.55571 1.55535 0
M  V30 2738 H 236.269 -3.61323 -0.909742 0
M  V30 2739 H 236.382 -4.7546 0.589454 0
M  V30 2740 H 234.746 -2.53773 0.217113 0
M  V30 2741 H 235.529 -2.89146 1.85067 0
M  V30 2742 N 237.974 -0.419461 -1.51915 0
M  V30 2743 C 239.39 -0.0708431 -1.59443 0
M  V30 2744 C 239.59 1.41796 -1.43164 0
M  V30 2745 O 238.646 2.18596 -1.26381 0
M  V30 2746 C 239.959 -0.574991 -2.95151 0
M  V30 2747 C 241.507 -0.533867 -3.08413 0
M  V30 2748 C 241.982 -1.01469 -4.46618 0
M  V30 2749 N 243.473 -0.971939 -4.52888 0
M  V30 2750 C 244.208 -1.31505 -5.58116 0
M  V30 2751 N 243.704 -1.73014 -6.70849 0
M  V30 2752 N 245.497 -1.23436 -5.48379 0
M  V30 2753 H 237.648 -1.38836 -1.60743 0
M  V30 2754 H 239.911 -0.570998 -0.756747 0
M  V30 2755 H 239.617 -1.61597 -3.12377 0
M  V30 2756 H 239.491 0.00979777 -3.77199 0
M  V30 2757 H 241.878 0.498086 -2.90866 0
M  V30 2758 H 241.959 -1.15484 -2.28248 0
M  V30 2759 H 241.603 -2.04502 -4.6491 0
M  V30 2760 H 241.533 -0.370433 -5.25295 0
M  V30 2761 H 244.024 -0.666893 -3.71969 0
M  V30 2762 H 244.337 -1.97479 -7.47143 0
M  V30 2763 H 242.682 -1.76926 -6.72103 0
M  V30 2764 H 245.873 -0.908869 -4.59192 0
M  V30 2765 H 246.046 -1.50506 -6.30279 0
M  V30 2766 N 239.452 1.56882 -0.150215 0
M  V30 2767 C 240.4 2.18214 0.805313 0
M  V30 2768 C 241.394 1.14006 1.25296 0
M  V30 2769 O 242.6 1.3225 1.22107 0
M  V30 2770 H 238.975 0.698762 0.277913 0
M  V30 2771 H 240.946 2.97231 0.263862 0
M  V30 2772 C 239.695 2.82065 2.03309 0
M  V30 2773 H 239.018 3.61968 1.69763 0
M  V30 2774 H 240.458 3.28477 2.68103 0
M  V30 2775 C 238.917 1.80739 2.84315 0
M  V30 2776 O 239.447 1.27983 3.80767 0
M  V30 2777 N 237.653 1.4997 2.48913 0
M  V30 2778 H 237.2 1.93062 1.70542 0
M  V30 2779 H 237.158 0.824217 3.03404 0
M  V30 2780 N 240.93 -0.123565 1.57115 0
M  V30 2781 C 242.155 -0.850398 1.89164 0
M  V30 2782 C 242.58 -1.7286 0.741688 0
M  V30 2783 O 241.938 -1.78665 -0.307958 0
M  V30 2784 C 241.986 -1.66353 3.19936 0
M  V30 2785 O 241.09 -2.77004 3.0552 0
M  V30 2786 H 240.431 -0.235454 0.620852 0
M  V30 2787 H 242.961 -0.107335 2.04318 0
M  V30 2788 H 242.971 -2.05372 3.52543 0
M  V30 2789 H 241.646 -1.01881 4.03228 0
M  V30 2790 H 240.223 -2.41221 2.84371 0
M  V30 2791 N 242.408 -1.52605 -0.393616 0
M  V30 2792 C 243.636 -1.71294 -1.16043 0
M  V30 2793 C 244.051 -0.429259 -1.83855 0
M  V30 2794 O 243.408 0.595921 -1.72496 0
M  V30 2795 C 243.459 -2.8593 -2.21193 0
M  V30 2796 O 243.18 -4.09329 -1.56146 0
M  V30 2797 C 244.681 -3.16259 -3.10636 0
M  V30 2798 H 241.901 -0.573641 -0.348104 0
M  V30 2799 H 244.445 -1.99234 -0.461092 0
M  V30 2800 H 242.6 -2.60465 -2.86769 0
M  V30 2801 H 243.014 -4.73323 -2.25978 0
M  V30 2802 H 244.488 -3.99946 -3.80456 0
M  V30 2803 H 244.965 -2.3045 -3.73884 0
M  V30 2804 H 245.571 -3.43547 -2.50711 0
M  V30 2805 N 243.887 0.651787 -1.4349 0
M  V30 2806 C 245.133 1.41376 -1.45398 0
M  V30 2807 C 245.466 1.94041 -0.0784823 0
M  V30 2808 O 244.741 1.72379 0.900878 0
M  V30 2809 C 245.024 2.59414 -2.49752 0
M  V30 2810 C 244.877 2.12232 -3.96582 0
M  V30 2811 C 246.196 3.61626 -2.50827 0
M  V30 2812 H 243.315 0.512719 -0.529422 0
M  V30 2813 H 245.957 0.738796 -1.75048 0
M  V30 2814 H 244.107 3.16997 -2.246 0
M  V30 2815 H 245.779 1.59639 -4.32797 0
M  V30 2816 H 244.022 1.43592 -4.09346 0
M  V30 2817 H 244.693 2.9712 -4.65214 0
M  V30 2818 H 247.169 3.13805 -2.7325 0
M  V30 2819 H 246.045 4.41766 -3.25783 0
M  V30 2820 H 246.306 4.14314 -1.5426 0
M  V30 2821 N 245.365 1.30045 0.890287 0
M  V30 2822 C 246.593 1.21472 1.67487 0
M  V30 2823 C 247.008 -0.223241 1.87476 0
M  V30 2824 O 246.365 -1.14828 1.41847 0
M  V30 2825 C 246.416 1.93394 3.05419 0
M  V30 2826 O 246.137 3.31576 2.86337 0
M  V30 2827 C 247.638 1.91414 3.99844 0
M  V30 2828 H 244.858 0.420604 0.522813 0
M  V30 2829 H 247.402 1.7158 1.11268 0
M  V30 2830 H 245.557 1.47099 3.58386 0
M  V30 2831 H 245.971 3.67929 3.73802 0
M  V30 2832 H 247.445 2.46285 4.94012 0
M  V30 2833 H 247.922 0.891833 4.3005 0
M  V30 2834 H 248.528 2.37496 3.52811 0
M  V30 2835 N 246.843 -1.10192 1.12674 0
M  V30 2836 C 248.12 -1.78717 0.794965 0
M  V30 2837 C 248.5 -1.98628 -0.714853 0
M  V30 2838 O 247.848 -1.58135 -1.64941 0
M  V30 2839 C 248.058 -3.11546 1.5729 0
M  V30 2840 C 249.406 -3.86382 1.76052 0
M  V30 2841 O 250.43 -3.21274 1.53823 0
M  V30 2842 O 249.289 -5.03246 2.13087 0
M  V30 2843 H 246.383 -0.774702 0.289423 0
M  V30 2844 H 248.929 -1.16819 1.23091 0
M  V30 2845 H 247.701 -2.92489 2.59935 0
M  V30 2846 H 247.324 -3.81164 1.13137 0
M  V30 2847 N 248.321 -0.919034 -1.28029 0
M  V30 2848 C 249.268 -0.410005 -2.27129 0
M  V30 2849 C 250.238 0.518405 -1.57803 0
M  V30 2850 O 251.423 0.439451 -1.8567 0
M  V30 2851 C 248.563 0.339054 -3.4343 0
M  V30 2852 C 247.676 -0.622468 -4.27492 0
M  V30 2853 C 246.811 0.145567 -5.31001 0
M  V30 2854 C 245.85 -0.809226 -6.06727 0
M  V30 2855 N 244.987 -0.0743728 -7.02061 0
M  V30 2856 H 249.827 -1.26011 -2.70047 0
M  V30 2857 H 247.364 -0.632663 -1.328 0
M  V30 2858 H 249.322 0.789586 -4.0966 0
M  V30 2859 H 247.952 1.15346 -3.01488 0
M  V30 2860 H 247.004 -1.19153 -3.61257 0
M  V30 2861 H 248.316 -1.35252 -4.80113 0
M  V30 2862 H 247.47 0.656417 -6.03139 0
M  V30 2863 H 246.209 0.908643 -4.79161 0
M  V30 2864 H 245.214 -1.3314 -5.33436 0
M  V30 2865 H 246.439 -1.57194 -6.60656 0
M  V30 2866 H 244.385 0.670616 -6.52563 0
M  V30 2867 H 244.302 -0.744157 -7.52329 0
M  V30 2868 H 245.57 0.416109 -7.78389 0
M  V30 2869 N 249.799 1.42003 -0.683588 0
M  V30 2870 C 250.729 2.33487 -0.024866 0
M  V30 2871 C 251.71 1.51163 0.779975 0
M  V30 2872 O 252.895 1.79739 0.735362 0
M  V30 2873 C 250.025 3.3487 0.920836 0
M  V30 2874 C 248.979 4.27414 0.223958 0
M  V30 2875 C 248.305 5.19074 1.2832 0
M  V30 2876 C 249.605 5.14445 -0.90242 0
M  V30 2877 H 251.299 2.88819 -0.788921 0
M  V30 2878 H 248.845 1.38873 -0.38083 0
M  V30 2879 H 250.798 3.97787 1.39081 0
M  V30 2880 H 249.522 2.77861 1.71642 0
M  V30 2881 H 248.181 3.65904 -0.225864 0
M  V30 2882 H 247.829 4.58387 2.071 0
M  V30 2883 H 247.529 5.81822 0.821995 0
M  V30 2884 H 249.053 5.84867 1.75392 0
M  V30 2885 H 250.467 5.70998 -0.513272 0
M  V30 2886 H 248.864 5.86072 -1.28997 0
M  V30 2887 H 249.934 4.52322 -1.74737 0
M  V30 2888 N 251.277 0.427512 1.51691 0
M  V30 2889 C 252.187 -0.39527 2.31246 0
M  V30 2890 C 253.203 -1.03674 1.39742 0
M  V30 2891 O 254.379 -1.03425 1.72816 0
M  V30 2892 C 251.444 -1.48706 3.13189 0
M  V30 2893 C 250.505 -0.866743 4.20459 0
M  V30 2894 C 249.738 -1.90651 4.98486 0
M  V30 2895 O 249.961 -3.12733 4.77026 0
M  V30 2896 O 248.895 -1.5025 5.82845 0
M  V30 2897 H 252.721 0.253918 3.02637 0
M  V30 2898 H 250.306 0.190274 1.48183 0
M  V30 2899 H 252.188 -2.12047 3.64162 0
M  V30 2900 H 250.863 -2.12051 2.44573 0
M  V30 2901 H 249.77 -0.195544 3.73589 0
M  V30 2902 H 251.103 -0.276934 4.9142 0
M  V30 2903 N 252.755 -1.56801 0.158532 0
M  V30 2904 C 253.703 -2.18638 -0.793729 0
M  V30 2905 C 254.697 -1.14669 -1.24689 0
M  V30 2906 O 255.903 -1.32895 -1.21403 0
M  V30 2907 H 252.278 -0.700226 -0.274204 0
M  V30 2908 H 254.249 -2.97367 -0.248095 0
M  V30 2909 C 252.998 -2.83139 -2.0181 0
M  V30 2910 H 252.321 -3.62863 -1.67841 0
M  V30 2911 H 253.761 -3.29894 -2.66357 0
M  V30 2912 C 252.22 -1.82244 -2.83353 0
M  V30 2913 O 252.75 -1.3 -3.80083 0
M  V30 2914 N 250.956 -1.51288 -2.48114 0
M  V30 2915 H 250.503 -1.93964 -1.69516 0
M  V30 2916 H 250.461 -0.840296 -3.02963 0
M  V30 2917 N 254.233 0.115231 -1.57178 0
M  V30 2918 C 255.48 0.822351 -1.8505 0
M  V30 2919 C 255.808 1.79701 -0.744168 0
M  V30 2920 O 255.063 1.93909 0.26414 0
M  V30 2921 C 255.362 1.60324 -3.19423 0
M  V30 2922 C 255.028 0.772536 -4.44233 0
M  V30 2923 C 253.69 0.543468 -4.78121 0
M  V30 2924 C 256.042 0.193746 -5.2084 0
M  V30 2925 C 253.37 -0.274583 -5.86057 0
M  V30 2926 C 255.722 -0.611517 -6.29637 0
M  V30 2927 C 254.386 -0.850867 -6.62055 0
M  V30 2928 H 253.656 0.30092 -0.677147 0
M  V30 2929 H 256.303 0.0845802 -1.91313 0
M  V30 2930 H 254.608 2.41203 -3.08753 0
M  V30 2931 H 256.305 2.1544 -3.38211 0
M  V30 2932 H 252.895 0.96117 -4.17683 0
M  V30 2933 H 257.079 0.357926 -4.95008 0
M  V30 2934 H 252.335 -0.469206 -6.09597 0
M  V30 2935 H 256.509 -1.06697 -6.88178 0
M  V30 2936 H 254.136 -1.48657 -7.45523 0
M  V30 2937 N 255.711 1.52812 0.385517 0
M  V30 2938 C 256.661 1.74219 1.47078 0
M  V30 2939 C 257.645 0.59632 1.49442 0
M  V30 2940 O 258.837 0.85428 1.5502 0
M  V30 2941 C 255.966 1.9176 2.84751 0
M  V30 2942 C 255.052 3.12289 2.86943 0
M  V30 2943 N 255.443 4.34575 2.58802 0
M  V30 2944 C 253.741 3.12605 3.1811 0
M  V30 2945 C 254.442 5.162 2.68166 0
M  V30 2946 N 253.418 4.51964 3.02043 0
M  V30 2947 H 257.22 2.6639 1.24152 0
M  V30 2948 H 254.734 1.51166 0.593504 0
M  V30 2949 H 256.731 2.05218 3.62893 0
M  V30 2950 H 255.391 1.00805 3.08656 0
M  V30 2951 H 256.402 4.62649 2.32759 0
M  V30 2952 H 253.079 2.31472 3.47458 0
M  V30 2953 H 254.469 6.23689 2.49923 0
M  V30 2954 N 257.189 -0.644168 1.43834 0
M  V30 2955 C 258.121 -1.76955 1.45669 0
M  V30 2956 C 259.134 -1.58956 0.351666 0
M  V30 2957 O 260.323 -1.6751 0.616644 0
M  V30 2958 C 257.423 -3.14507 1.26248 0
M  V30 2959 C 256.596 -3.59083 2.49757 0
M  V30 2960 C 255.655 -4.75467 2.25427 0
M  V30 2961 O 254.681 -4.84444 2.98836 0
M  V30 2962 N 255.883 -5.66289 1.27661 0
M  V30 2963 H 258.648 -1.75856 2.42682 0
M  V30 2964 H 256.209 -0.828312 1.39106 0
M  V30 2965 H 258.201 -3.90067 1.0784 0
M  V30 2966 H 256.771 -3.10325 0.376478 0
M  V30 2967 H 255.991 -2.7387 2.8353 0
M  V30 2968 H 257.279 -3.85613 3.31934 0
M  V30 2969 H 256.677 -5.61718 0.670064 0
M  V30 2970 H 255.234 -6.41533 1.15234 0
M  V30 2971 N 258.668 -1.30515 -0.883378 0
M  V30 2972 C 259.898 -1.22182 -1.66599 0
M  V30 2973 C 260.306 0.217507 -1.87946 0
M  V30 2974 O 259.649 1.1554 -1.42815 0
M  V30 2975 C 259.711 -1.88146 -3.06335 0
M  V30 2976 C 259.375 -3.37476 -3.08154 0
M  V30 2977 C 260.372 -4.33443 -2.87094 0
M  V30 2978 C 258.057 -3.7895 -3.29701 0
M  V30 2979 C 260.051 -5.68858 -2.8754 0
M  V30 2980 C 257.738 -5.14482 -3.29776 0
M  V30 2981 C 258.736 -6.09246 -3.0872 0
M  V30 2982 O 258.424 -7.42302 -3.08615 0
M  V30 2983 H 258.156 -0.423898 -0.52658 0
M  V30 2984 H 260.71 -1.72703 -1.11188 0
M  V30 2985 H 258.94 -1.32157 -3.63416 0
M  V30 2986 H 260.629 -1.7391 -3.66756 0
M  V30 2987 H 261.395 -4.02733 -2.70243 0
M  V30 2988 H 257.274 -3.05631 -3.45124 0
M  V30 2989 H 260.818 -6.428 -2.71024 0
M  V30 2990 H 256.715 -5.44832 -3.46163 0
M  V30 2991 H 257.483 -7.5131 -3.24769 0
M  V30 2992 N 260.146 1.09593 -1.13257 0
M  V30 2993 C 261.078 2.16015 -0.766167 0
M  V30 2994 C 262.091 1.61423 0.211303 0
M  V30 2995 O 263.28 1.78498 -0.00863946 0
M  V30 2996 C 260.38 3.38706 -0.114662 0
M  V30 2997 C 259.553 4.22717 -1.12379 0
M  V30 2998 C 258.612 5.23835 -0.498301 0
M  V30 2999 O 257.638 5.573 -1.15781 0
M  V30 3000 N 258.84 5.75886 0.730417 0
M  V30 3001 H 261.605 2.48055 -1.68193 0
M  V30 3002 H 259.166 1.25292 -1.02535 0
M  V30 3003 H 261.158 4.03464 0.315991 0
M  V30 3004 H 259.728 3.04569 0.704011 0
M  V30 3005 H 258.948 3.54122 -1.73179 0
M  V30 3006 H 260.236 4.75673 -1.80589 0
M  V30 3007 H 259.634 5.50911 1.28504 0
M  V30 3008 H 258.191 6.42387 1.10376 0
M  V30 3009 N 261.624 0.925811 1.2754 0
M  V30 3010 C 262.871 0.565255 1.94451 0
M  V30 3011 C 263.199 -0.89316 1.7278 0
M  V30 3012 O 262.454 -1.65213 1.04895 0
M  V30 3013 C 262.753 0.835296 3.47502 0
M  V30 3014 C 262.419 2.27515 3.89291 0
M  V30 3015 C 261.081 2.66879 4.00411 0
M  V30 3016 C 263.433 3.21158 4.10496 0
M  V30 3017 C 260.761 3.99014 4.30122 0
M  V30 3018 C 263.113 4.52871 4.4169 0
M  V30 3019 C 261.777 4.92072 4.51023 0
M  V30 3020 H 261.047 0.206841 0.711546 0
M  V30 3021 H 263.694 1.16942 1.51647 0
M  V30 3022 H 261.999 0.148442 3.91519 0
M  V30 3023 H 263.696 0.535322 3.97411 0
M  V30 3024 H 260.286 1.95976 3.81171 0
M  V30 3025 H 264.47 2.9195 4.01346 0
M  V30 3026 H 259.726 4.2907 4.35556 0
M  V30 3027 H 263.9 5.25436 4.57045 0
M  V30 3028 H 261.527 5.9449 4.738 0
M  V30 3029 N 263.102 -1.41638 0.69111 0
M  V30 3030 C 264.034 -2.29194 -0.0161523 0
M  V30 3031 C 265.047 -1.44549 -0.748955 0
M  V30 3032 O 266.236 -1.681 -0.6004 0
M  V30 3033 C 263.336 -3.22325 -1.0469 0
M  V30 3034 C 262.509 -4.35706 -0.384621 0
M  V30 3035 C 261.568 -5.09443 -1.31737 0
M  V30 3036 O 260.594 -5.63386 -0.811451 0
M  V30 3037 N 261.796 -5.16487 -2.64993 0
M  V30 3038 H 264.561 -2.90534 0.735523 0
M  V30 3039 H 262.122 -1.52742 0.53679 0
M  V30 3040 H 264.114 -3.68522 -1.67252 0
M  V30 3041 H 262.684 -2.62323 -1.70015 0
M  V30 3042 H 261.904 -3.91948 0.420804 0
M  V30 3043 H 263.192 -5.08743 0.0760765 0
M  V30 3044 H 262.59 -4.741 -3.08619 0
M  V30 3045 H 261.147 -5.66276 -3.22761 0
M  V30 3046 N 264.58 -0.43555 -1.51462 0
M  V30 3047 C 265.543 0.365137 -2.26273 0
M  V30 3048 C 266.543 0.951227 -1.29647 0
M  V30 3049 O 267.733 0.825958 -1.53374 0
M  V30 3050 C 264.865 1.51645 -3.05314 0
M  V30 3051 H 266.058 -0.290474 -2.9849 0
M  V30 3052 H 263.611 -0.188676 -1.55157 0
M  V30 3053 H 264.346 2.20816 -2.3751 0
M  V30 3054 H 264.131 1.10238 -3.76284 0
M  V30 3055 H 265.621 2.08218 -3.61987 0
M  V30 3056 N 266.058 1.56714 -0.166846 0
M  V30 3057 C 267.008 2.14338 0.777382 0
M  V30 3058 C 267.992 1.07642 1.19591 0
M  V30 3059 O 269.184 1.33775 1.15902 0
M  V30 3060 C 266.313 2.78417 2.00846 0
M  V30 3061 C 265.399 3.92264 1.61212 0
M  V30 3062 N 265.79 4.97268 0.925104 0
M  V30 3063 C 264.088 4.03342 1.90346 0
M  V30 3064 C 264.789 5.77093 0.730627 0
M  V30 3065 N 263.765 5.2854 1.27067 0
M  V30 3066 H 267.567 2.9289 0.243466 0
M  V30 3067 H 265.081 1.62364 0.0339954 0
M  V30 3068 H 267.078 3.18073 2.69509 0
M  V30 3069 H 265.738 2.01344 2.54736 0
M  V30 3070 H 266.749 5.14601 0.583646 0
M  V30 3071 H 263.426 3.37368 2.45946 0
M  V30 3072 H 264.816 6.71638 0.187668 0
M  V30 3073 N 267.536 -0.106894 1.57237 0
M  V30 3074 C 268.764 -0.826389 1.8968 0
M  V30 3075 C 269.179 -1.72856 0.759353 0
M  V30 3076 O 268.536 -1.80503 -0.269263 0
M  V30 3077 C 268.587 -1.64967 3.21665 0
M  V30 3078 O 268.308 -0.783804 4.31031 0
M  V30 3079 C 269.809 -2.47326 3.67892 0
M  V30 3080 H 267.029 -0.236927 0.627779 0
M  V30 3081 H 269.573 -0.0876593 2.04312 0
M  V30 3082 H 267.728 -2.34103 3.08666 0
M  V30 3083 H 268.142 -1.35284 5.06753 0
M  V30 3084 H 269.616 -3.00604 4.6297 0
M  V30 3085 H 270.093 -3.25247 2.95146 0
M  V30 3086 H 270.699 -1.83411 3.83719 0
M  V30 3087 N 269.014 -1.53014 -0.377408 0
M  V30 3088 C 270.26 -1.68872 -1.12294 0
M  V30 3089 C 270.593 -0.433224 -1.89306 0
M  V30 3090 O 269.868 0.569258 -1.85983 0
M  V30 3091 C 270.151 -2.93115 -2.09179 0
M  V30 3092 C 270.004 -4.28794 -1.35853 0
M  V30 3093 C 271.323 -3.12928 -3.09458 0
M  V30 3094 H 268.442 -0.614518 -0.406862 0
M  V30 3095 H 271.084 -1.85633 -0.40503 0
M  V30 3096 H 269.234 -2.78956 -2.70399 0
M  V30 3097 H 270.906 -4.54742 -0.775082 0
M  V30 3098 H 269.149 -4.28744 -0.660364 0
M  V30 3099 H 269.82 -5.11837 -2.06706 0
M  V30 3100 H 272.296 -3.26194 -2.58334 0
M  V30 3101 H 271.172 -4.01316 -3.74482 0
M  V30 3102 H 271.433 -2.27669 -3.78971 0
M  V30 3103 N 270.492 0.636531 -1.44174 0
M  V30 3104 C 271.455 1.73063 -1.50273 0
M  V30 3105 C 272.455 1.56113 -0.385397 0
M  V30 3106 O 273.645 1.61707 -0.64781 0
M  V30 3107 C 270.777 3.12096 -1.37145 0
M  V30 3108 H 271.97 1.69031 -2.47727 0
M  V30 3109 H 269.523 0.849706 -1.31186 0
M  V30 3110 H 270.258 3.21728 -0.407636 0
M  V30 3111 H 270.043 3.25805 -2.18159 0
M  V30 3112 H 271.533 3.91846 -1.44382 0
M  V30 3113 N 271.97 1.30982 0.876444 0
M  V30 3114 C 272.9 1.20668 1.99903 0
M  V30 3115 C 273.881 0.095354 1.69833 0
M  V30 3116 O 275.066 0.27885 1.92188 0
M  V30 3117 C 272.196 0.90655 3.3526 0
M  V30 3118 C 271.15 1.97675 3.79617 0
M  V30 3119 C 270.476 1.52943 5.1236 0
M  V30 3120 C 271.776 3.389 3.97422 0
M  V30 3121 H 273.47 2.14586 2.0879 0
M  V30 3122 H 271.016 1.03308 1.00317 0
M  V30 3123 H 272.969 0.821025 4.13324 0
M  V30 3124 H 271.693 -0.0682969 3.26529 0
M  V30 3125 H 270.352 2.05205 3.03787 0
M  V30 3126 H 270 0.54262 5.00065 0
M  V30 3127 H 269.7 2.24532 5.43009 0
M  V30 3128 H 271.224 1.45786 5.92941 0
M  V30 3129 H 272.638 3.34081 4.659 0
M  V30 3130 H 271.035 4.0865 4.3946 0
M  V30 3131 H 272.105 3.80163 3.01006 0
M  V30 3132 N 273.449 -1.08991 1.13837 0
M  V30 3133 C 274.695 -1.81526 0.90422 0
M  V30 3134 C 275.028 -1.85706 -0.568066 0
M  V30 3135 O 274.303 -1.32855 -1.42056 0
M  V30 3136 C 274.586 -3.27447 1.49835 0
M  V30 3137 C 274.439 -3.31512 3.04006 0
M  V30 3138 C 275.758 -4.24256 1.17025 0
M  V30 3139 H 272.877 -0.659029 0.329923 0
M  V30 3140 H 275.519 -1.27644 1.40737 0
M  V30 3141 H 273.669 -3.73462 1.07044 0
M  V30 3142 H 275.341 -2.93867 3.55584 0
M  V30 3143 H 273.584 -2.70963 3.38765 0
M  V30 3144 H 274.255 -4.34329 3.40679 0
M  V30 3145 H 276.731 -3.86549 1.54009 0
M  V30 3146 H 275.607 -5.24684 1.61237 0
M  V30 3147 H 275.868 -4.42019 0.0846274 0
M  V30 3148 N 274.927 -0.932562 -1.27047 0
M  V30 3149 C 276.176 -0.571351 -1.93439 0
M  V30 3150 C 276.489 0.892467 -1.74053 0
M  V30 3151 O 277.695 1.36267 -2.34826 0
M  V30 3152 C 276.151 -0.97106 -3.46552 0
M  V30 3153 C 275.759 -2.4559 -3.74686 0
M  V30 3154 C 277.503 -0.681333 -4.18997 0
M  V30 3155 C 275.41 -2.79475 -5.21198 0
M  V30 3156 H 274.34 -0.209966 -0.724176 0
M  V30 3157 H 276.991 -1.13403 -1.44263 0
M  V30 3158 H 275.373 -0.336983 -3.94564 0
M  V30 3159 H 276.547 -3.13829 -3.37414 0
M  V30 3160 H 274.862 -2.71802 -3.15456 0
M  V30 3161 H 277.459 -0.910939 -5.26883 0
M  V30 3162 H 277.802 0.381628 -4.14547 0
M  V30 3163 H 278.335 -1.27473 -3.76823 0
M  V30 3164 H 275.074 -3.847 -5.30741 0
M  V30 3165 H 274.594 -2.1589 -5.596 0
M  V30 3166 H 276.273 -2.67478 -5.89122 0
M  V30 3167 N 276.405 1.4127 -0.698611 0
M  V30 3168 C 277.816 1.84187 -0.305289 0
M  V30 3169 C 278.167 1.58449 1.15708 0
M  V30 3170 O 277.292 1.05651 1.88856 0
M  V30 3171 C 277.887 3.3435 -0.547314 0
M  V30 3172 C 276.446 3.75826 -0.207878 0
M  V30 3173 C 275.593 2.64647 -0.828099 0
M  V30 3174 H 278.544 1.30778 -0.89904 0
M  V30 3175 H 278.565 3.8001 0.192998 0
M  V30 3176 H 278.077 3.53051 -1.61172 0
M  V30 3177 H 276.178 3.62725 0.852143 0
M  V30 3178 H 276.291 4.74462 -0.665021 0
M  V30 3179 H 274.655 2.53395 -0.257458 0
M  V30 3180 H 275.438 2.86165 -1.89643 0
M  V30 3181 N 277.883 0.443576 1.51229 0
M  V30 3182 C 279.13 -0.120796 2.02139 0
M  V30 3183 C 279.458 -1.42166 1.32736 0
M  V30 3184 O 278.713 -1.90849 0.43301 0
M  V30 3185 C 279.012 -0.380579 3.55368 0
M  V30 3186 C 278.678 0.83523 4.43097 0
M  V30 3187 C 277.34 1.16864 4.66794 0
M  V30 3188 C 279.692 1.64601 4.94526 0
M  V30 3189 C 277.02 2.31339 5.39165 0
M  V30 3190 C 279.372 2.78181 5.68153 0
M  V30 3191 C 278.036 3.11969 5.90112 0
M  V30 3192 H 277.306 -0.0442023 0.73968 0
M  V30 3193 H 279.953 0.592046 1.82118 0
M  V30 3194 H 278.258 -1.17538 3.73754 0
M  V30 3195 H 279.955 -0.830777 3.923 0
M  V30 3196 H 276.545 0.565437 4.24854 0
M  V30 3197 H 280.729 1.40163 4.76097 0
M  V30 3198 H 275.985 2.57823 5.5438 0
M  V30 3199 H 280.159 3.41371 6.06992 0
M  V30 3200 H 277.786 4.00784 6.45969 0
M  V30 3201 N 279.361 -1.56624 0.175154 0
M  V30 3202 C 280.61 -1.96173 -0.468921 0
M  V30 3203 C 280.923 -1.06401 -1.64128 0
M  V30 3204 O 282.129 -1.35648 -2.35185 0
M  V30 3205 C 280.585 -3.48833 -0.885633 0
M  V30 3206 C 280.193 -4.47237 0.261343 0
M  V30 3207 C 281.937 -3.97194 -1.49791 0
M  V30 3208 C 279.844 -5.9114 -0.175214 0
M  V30 3209 H 278.774 -0.732455 -0.178958 0
M  V30 3210 H 281.425 -1.81591 0.263997 0
M  V30 3211 H 279.807 -3.58848 -1.67464 0
M  V30 3212 H 280.981 -4.4894 1.03871 0
M  V30 3213 H 279.296 -4.08956 0.783827 0
M  V30 3214 H 281.893 -5.02167 -1.83665 0
M  V30 3215 H 282.236 -3.40351 -2.39722 0
M  V30 3216 H 282.769 -3.90212 -0.773267 0
M  V30 3217 H 279.508 -6.51865 0.689414 0
M  V30 3218 H 279.028 -5.92735 -0.91786 0
M  V30 3219 H 280.707 -6.44044 -0.617792 0
M  V30 3220 N 280.839 0.0985539 -1.57292 0
M  V30 3221 C 281.769 1.12064 -2.04851 0
M  V30 3222 C 282.75 1.41981 -0.936767 0
M  V30 3223 O 283.935 1.52071 -1.20781 0
M  V30 3224 C 281.065 2.44144 -2.47004 0
M  V30 3225 C 280.019 2.28643 -3.6181 0
M  V30 3226 C 279.345 3.65869 -3.89929 0
M  V30 3227 C 280.645 1.72986 -4.92822 0
M  V30 3228 H 282.339 0.724979 -2.9049 0
M  V30 3229 H 279.885 0.34729 -1.39749 0
M  V30 3230 H 281.838 3.15914 -2.78884 0
M  V30 3231 H 280.562 2.85639 -1.5836 0
M  V30 3232 H 279.221 1.59318 -3.30172 0
M  V30 3233 H 278.869 4.04885 -2.98458 0
M  V30 3234 H 278.569 3.56344 -4.67218 0
M  V30 3235 H 280.093 4.39112 -4.2428 0
M  V30 3236 H 281.507 2.34593 -5.23105 0
M  V30 3237 H 279.904 1.74229 -5.74251 0
M  V30 3238 H 280.974 0.689007 -4.7998 0
M  V30 3239 N 282.317 1.53212 0.369288 0
M  V30 3240 C 283.564 1.69215 1.11232 0
M  V30 3241 C 283.892 0.442048 1.8941 0
M  V30 3242 O 283.147 -0.575944 1.87033 0
M  V30 3243 C 283.446 2.89101 2.10132 0
M  V30 3244 C 283.112 4.25758 1.48463 0
M  V30 3245 C 281.774 4.6292 1.31372 0
M  V30 3246 C 284.126 5.10757 1.03811 0
M  V30 3247 C 281.454 5.82722 0.68207 0
M  V30 3248 C 283.806 6.31201 0.420487 0
M  V30 3249 C 282.47 6.67079 0.237038 0
M  V30 3250 H 281.74 0.619201 0.407027 0
M  V30 3251 H 284.387 1.87391 0.394552 0
M  V30 3252 H 282.692 2.65421 2.88199 0
M  V30 3253 H 284.389 2.98676 2.6757 0
M  V30 3254 H 280.979 3.96494 1.62758 0
M  V30 3255 H 285.163 4.82599 1.1581 0
M  V30 3256 H 280.419 6.09113 0.528316 0
M  V30 3257 H 284.593 6.96368 0.0662874 0
M  V30 3258 H 282.22 7.59774 -0.254477 0
M  V30 3259 N 283.795 -0.628877 1.44509 0
M  V30 3260 C 284.725 -1.75187 1.54376 0
M  V30 3261 C 285.706 -1.65411 0.396618 0
M  V30 3262 O 286.891 -1.84137 0.617031 0
M  V30 3263 C 284.021 -3.13725 1.48976 0
M  V30 3264 C 282.975 -3.38291 2.62189 0
M  V30 3265 C 282.301 -4.76883 2.41841 0
M  V30 3266 C 283.601 -3.30632 4.04326 0
M  V30 3267 H 285.295 -1.67187 2.48373 0
M  V30 3268 H 282.841 -0.802909 1.19538 0
M  V30 3269 H 284.794 -3.92064 1.54478 0
M  V30 3270 H 283.518 -3.22515 0.514961 0
M  V30 3271 H 282.177 -2.62334 2.56079 0
M  V30 3272 H 281.825 -4.82378 1.42548 0
M  V30 3273 H 281.525 -4.94278 3.17747 0
M  V30 3274 H 283.049 -5.57449 2.49165 0
M  V30 3275 H 284.463 -3.98873 4.11793 0
M  V30 3276 H 282.86 -3.59561 4.80454 0
M  V30 3277 H 283.93 -2.28404 4.27738 0
M  V30 3278 N 285.273 -1.31445 -0.869486 0
M  V30 3279 C 286.236 -1.19094 -1.9583 0
M  V30 3280 C 287.236 -0.117906 -1.60367 0
M  V30 3281 O 288.426 -0.367208 -1.70286 0
M  V30 3282 C 285.558 -0.828165 -3.30688 0
M  V30 3283 H 286.751 -2.15842 -2.08212 0
M  V30 3284 H 284.304 -1.15063 -1.05784 0
M  V30 3285 H 285.039 0.138142 -3.24006 0
M  V30 3286 H 284.824 -1.6038 -3.578 0
M  V30 3287 H 286.314 -0.765658 -4.10521 0
M  V30 3288 N 286.751 1.08385 -1.14413 0
M  V30 3289 C 287.976 1.85057 -0.936413 0
M  V30 3290 C 288.401 1.81055 0.509971 0
M  V30 3291 O 287.759 1.1958 1.36273 0
M  V30 3292 C 287.807 3.30505 -1.44217 0
M  V30 3293 O 286.911 4.07491 -0.634409 0
M  V30 3294 H 286.252 0.573425 -0.334784 0
M  V30 3295 H 288.782 1.36799 -1.52142 0
M  V30 3296 H 288.792 3.81348 -1.45043 0
M  V30 3297 H 287.467 3.32734 -2.49522 0
M  V30 3298 H 286.044 3.66368 -0.694902 0
M  V30 3299 N 288.23 0.939286 1.26551 0
M  V30 3300 C 289.458 0.602536 1.97932 0
M  V30 3301 C 289.873 -0.82206 1.69964 0
M  V30 3302 O 289.23 -1.54789 0.966784 0
M  V30 3303 C 289.281 0.832946 3.51773 0
M  V30 3304 O 289.002 2.20151 3.78768 0
M  V30 3305 C 290.503 0.506483 4.40397 0
M  V30 3306 H 287.723 0.227248 0.631347 0
M  V30 3307 H 290.267 1.25948 1.61113 0
M  V30 3308 H 288.422 0.222644 3.8676 0
M  V30 3309 H 288.836 2.26013 4.73306 0
M  V30 3310 H 290.31 0.718333 5.47306 0
M  V30 3311 H 290.787 -0.558451 4.35635 0
M  V30 3312 H 291.393 1.09543 4.10951 0
M  V30 3313 N 289.708 -1.40897 0.706093 0
M  V30 3314 C 290.957 -2.00284 0.238574 0
M  V30 3315 C 291.27 -1.56604 -1.17194 0
M  V30 3316 O 292.476 -2.08624 -1.73748 0
M  V30 3317 C 290.932 -3.57934 0.375623 0
M  V30 3318 C 290.54 -4.10591 1.79217 0
M  V30 3319 C 292.284 -4.24488 -0.0315857 0
M  V30 3320 C 290.191 -5.60712 1.88032 0
M  V30 3321 H 289.121 -0.749144 0.0854398 0
M  V30 3322 H 291.772 -1.61251 0.875813 0
M  V30 3323 H 290.154 -3.94622 -0.330042 0
M  V30 3324 H 291.328 -3.85301 2.52745 0
M  V30 3325 H 289.643 -3.56601 2.15 0
M  V30 3326 H 292.24 -5.34698 0.0136842 0
M  V30 3327 H 292.583 -4.02261 -1.072 0
M  V30 3328 H 293.116 -3.92873 0.624181 0
M  V30 3329 H 289.855 -5.87781 2.90161 0
M  V30 3330 H 289.375 -5.87896 1.18903 0
M  V30 3331 H 291.054 -6.25658 1.64805 0
M  V30 3332 N 291.186 -0.45159 -1.50991 0
M  V30 3333 C 292.433 0.110074 -2.02201 0
M  V30 3334 C 292.761 1.4146 -1.33489 0
M  V30 3335 O 292.016 1.90617 -0.443125 0
M  V30 3336 C 292.315 0.361728 -3.55565 0
M  V30 3337 C 291.981 -0.858717 -4.42648 0
M  V30 3338 C 290.643 -1.19338 -4.66167 0
M  V30 3339 C 292.995 -1.67221 -4.93646 0
M  V30 3340 C 290.323 -2.34195 -5.37931 0
M  V30 3341 C 292.675 -2.8119 -5.6667 0
M  V30 3342 C 291.339 -3.15094 -5.88449 0
M  V30 3343 H 290.609 0.040279 -0.739904 0
M  V30 3344 H 293.256 -0.601696 -1.81802 0
M  V30 3345 H 291.561 1.15554 -3.74372 0
M  V30 3346 H 293.258 0.80996 -3.92735 0
M  V30 3347 H 289.848 -0.58796 -4.24548 0
M  V30 3348 H 294.032 -1.42686 -4.75347 0
M  V30 3349 H 289.288 -2.6076 -5.53005 0
M  V30 3350 H 293.462 -3.44585 -6.05173 0
M  V30 3351 H 291.089 -4.04204 -6.43835 0
M  V30 3352 N 292.664 1.56529 -0.183458 0
M  V30 3353 C 293.594 2.21549 0.737456 0
M  V30 3354 C 294.575 1.17489 1.23005 0
M  V30 3355 O 295.76 1.45959 1.281 0
M  V30 3356 C 292.89 2.86575 1.96194 0
M  V30 3357 C 291.844 3.96778 1.60473 0
M  V30 3358 C 291.17 4.48911 2.90487 0
M  V30 3359 C 292.47 5.15767 0.823497 0
M  V30 3360 H 294.164 2.98761 0.195453 0
M  V30 3361 H 291.71 1.43702 0.0925686 0
M  V30 3362 H 293.663 3.30739 2.61131 0
M  V30 3363 H 292.387 2.06749 2.52828 0
M  V30 3364 H 291.046 3.53286 0.978997 0
M  V30 3365 H 290.694 3.65862 3.45186 0
M  V30 3366 H 290.394 5.23265 2.67335 0
M  V30 3367 H 291.918 4.95771 3.56432 0
M  V30 3368 H 293.332 5.56549 1.37571 0
M  V30 3369 H 291.729 5.96114 0.690551 0
M  V30 3370 H 292.799 4.84574 -0.177782 0
M  V30 3371 N 294.142 -0.090211 1.57342 0
M  V30 3372 C 295.075 -1.14035 1.97664 0
M  V30 3373 C 296.053 -1.38576 0.850616 0
M  V30 3374 O 297.237 -1.52255 1.11134 0
M  V30 3375 C 294.364 -2.48854 2.2976 0
M  V30 3376 C 293.41 -2.40564 3.52181 0
M  V30 3377 S 294.243 -1.81745 5.03715 0
M  V30 3378 C 295.399 -3.18178 5.38993 0
M  V30 3379 H 295.632 -0.796636 2.86428 0
M  V30 3380 H 293.165 -0.298072 1.51496 0
M  V30 3381 H 295.123 -3.26413 2.48927 0
M  V30 3382 H 293.784 -2.80393 1.41558 0
M  V30 3383 H 292.977 -3.39942 3.72096 0
M  V30 3384 H 292.579 -1.71135 3.32549 0
M  V30 3385 H 294.871 -4.14461 5.35937 0
M  V30 3386 H 295.814 -3.03062 6.39968 0
M  V30 3387 H 296.222 -3.17935 4.66452 0
M  V30 3388 N 295.62 -1.53406 -0.361157 0
M  V30 3389 C 296.583 -1.79479 -1.42548 0
M  V30 3390 C 297.583 -0.665327 -1.4639 0
M  V30 3391 O 298.773 -0.933549 -1.47073 0
M  V30 3392 C 295.905 -1.92087 -2.8163 0
M  V30 3393 H 297.098 -2.74538 -1.20701 0
M  V30 3394 H 294.651 -1.4455 -0.594546 0
M  V30 3395 H 295.386 -0.991099 -3.08784 0
M  V30 3396 H 295.171 -2.74241 -2.80239 0
M  V30 3397 H 296.661 -2.13836 -3.58697 0
M  V30 3398 N 297.098 0.621204 -1.44841 0
M  V30 3399 C 298.323 1.41244 -1.51871 0
M  V30 3400 C 298.748 1.87519 -0.147764 0
M  V30 3401 O 298.106 1.59334 0.865 0
M  V30 3402 C 298.154 2.60221 -2.49634 0
M  V30 3403 O 297.258 3.60395 -2.00473 0
M  V30 3404 H 296.599 0.42223 -0.512463 0
M  V30 3405 H 299.129 0.757305 -1.90069 0
M  V30 3406 H 299.139 3.0764 -2.67996 0
M  V30 3407 H 297.814 2.25887 -3.4921 0
M  V30 3408 H 296.391 3.19717 -1.91925 0
M  V30 3409 N 298.576 1.31904 0.862503 0
M  V30 3410 C 299.506 1.22782 1.98612 0
M  V30 3411 C 300.487 0.113362 1.69722 0
M  V30 3412 O 301.672 0.299218 1.91881 0
M  V30 3413 C 298.802 0.942058 3.34279 0
M  V30 3414 C 297.756 2.0169 3.77499 0
M  V30 3415 C 297.082 1.58369 5.10709 0
M  V30 3416 C 298.382 3.43096 3.93805 0
M  V30 3417 H 300.076 2.16788 2.06502 0
M  V30 3418 H 297.622 1.04366 0.992154 0
M  V30 3419 H 299.575 0.864818 4.1243 0
M  V30 3420 H 298.299 -0.0336603 3.26583 0
M  V30 3421 H 296.958 2.08416 3.01593 0
M  V30 3422 H 296.606 0.595628 4.99461 0
M  V30 3423 H 296.306 2.30279 5.40597 0
M  V30 3424 H 297.83 1.52067 5.91361 0
M  V30 3425 H 299.244 3.39003 4.62331 0
M  V30 3426 H 297.641 4.13288 4.35101 0
M  V30 3427 H 298.711 3.83334 2.96957 0
M  V30 3428 N 300.054 -1.07777 1.14986 0
M  V30 3429 C 301.282 -1.84018 0.945773 0
M  V30 3430 C 301.697 -1.81897 -0.505863 0
M  V30 3431 O 301.054 -1.22726 -1.35072 0
M  V30 3432 C 301.105 -3.31287 1.44677 0
M  V30 3433 O 300.826 -3.33449 2.84154 0
M  V30 3434 C 302.327 -4.24311 1.28355 0
M  V30 3435 H 299.547 -0.580716 0.336169 0
M  V30 3436 H 302.091 -1.36077 1.52654 0
M  V30 3437 H 300.246 -3.76594 0.908625 0
M  V30 3438 H 300.66 -4.25427 3.06777 0
M  V30 3439 H 302.134 -5.2573 1.68261 0
M  V30 3440 H 302.611 -4.38612 0.227184 0
M  V30 3441 H 303.217 -3.84836 1.81056 0
M  V30 3442 N 301.532 -0.945985 -1.26051 0
M  V30 3443 C 302.479 -0.45809 -2.26208 0
M  V30 3444 C 303.449 0.484816 -1.58867 0
M  V30 3445 O 304.634 0.399969 -1.86561 0
M  V30 3446 C 301.774 0.266131 -3.44072 0
M  V30 3447 C 300.887 -0.713005 -4.26075 0
M  V30 3448 C 300.022 0.0329013 -5.3119 0
M  V30 3449 C 299.061 -0.93774 -6.04874 0
M  V30 3450 N 298.198 -0.223274 -7.01745 0
M  V30 3451 H 303.038 -1.3171 -2.67313 0
M  V30 3452 H 300.575 -0.66069 -1.31428 0
M  V30 3453 H 302.533 0.702514 -4.11243 0
M  V30 3454 H 301.163 1.08925 -3.03867 0
M  V30 3455 H 300.215 -1.26789 -3.58648 0
M  V30 3456 H 301.527 -1.45406 -4.77136 0
M  V30 3457 H 300.681 0.528335 -6.04395 0
M  V30 3458 H 299.42 0.806801 -4.8098 0
M  V30 3459 H 298.425 -1.44425 -5.30492 0
M  V30 3460 H 299.65 -1.71172 -6.57173 0
M  V30 3461 H 297.596 0.532046 -6.53839 0
M  V30 3462 H 297.513 -0.90357 -7.50581 0
M  V30 3463 H 298.781 0.250907 -7.79096 0
M  V30 3464 N 303.011 1.40521 -0.713556 0
M  V30 3465 C 303.943 2.29191 -0.0203126 0
M  V30 3466 C 304.956 1.45723 0.725864 0
M  V30 3467 O 306.145 1.69033 0.573581 0
M  V30 3468 C 303.245 3.2395 0.995486 0
M  V30 3469 C 302.418 4.36262 0.315256 0
M  V30 3470 C 301.477 5.11474 1.23616 0
M  V30 3471 O 300.503 5.64606 0.721719 0
M  V30 3472 N 301.705 5.20638 2.56743 0
M  V30 3473 H 304.47 2.89327 -0.781652 0
M  V30 3474 H 302.031 1.51869 -0.561022 0
M  V30 3475 H 304.023 3.71137 1.61368 0
M  V30 3476 H 302.593 2.64995 1.6582 0
M  V30 3477 H 301.813 3.91228 -0.483106 0
M  V30 3478 H 303.101 5.08558 -0.157004 0
M  V30 3479 H 302.499 4.7895 3.01037 0
M  V30 3480 H 301.056 5.71339 3.13712 0
M  V30 3481 N 304.489 0.459591 1.5075 0
M  V30 3482 C 305.738 -0.100971 2.01447 0
M  V30 3483 C 306.051 -1.41816 1.34713 0
M  V30 3484 O 307.257 -2.06299 1.76502 0
M  V30 3485 C 305.713 -0.23047 3.59161 0
M  V30 3486 C 305.321 1.0776 4.34847 0
M  V30 3487 C 307.065 -0.743608 4.17936 0
M  V30 3488 C 304.972 0.91253 5.84317 0
M  V30 3489 H 303.902 -0.0415102 0.752856 0
M  V30 3490 H 306.553 0.592742 1.73663 0
M  V30 3491 H 304.935 -0.987703 3.83485 0
M  V30 3492 H 306.109 1.8449 4.22256 0
M  V30 3493 H 304.424 1.52097 3.87628 0
M  V30 3494 H 307.021 -0.883959 5.27343 0
M  V30 3495 H 307.364 -1.73196 3.78562 0
M  V30 3496 H 307.897 -0.04408 3.97776 0
M  V30 3497 H 304.636 1.87391 6.28144 0
M  V30 3498 H 304.156 0.185422 5.99513 0
M  V30 3499 H 305.835 0.574547 6.44444 0
M  V30 3500 N 305.967 -1.56429 0.191757 0
M  V30 3501 C 306.899 -2.16154 -0.762245 0
M  V30 3502 C 307.912 -1.12247 -1.17917 0
M  V30 3503 O 309.101 -1.39353 -1.11548 0
M  V30 3504 C 306.201 -2.70606 -2.04024 0
M  V30 3505 C 305.374 -3.99381 -1.78364 0
M  V30 3506 C 304.433 -4.38692 -2.90578 0
M  V30 3507 O 303.459 -5.06179 -2.6033 0
M  V30 3508 N 304.661 -4.01922 -4.18854 0
M  V30 3509 H 307.426 -2.98643 -0.251526 0
M  V30 3510 H 304.987 -1.61897 0.00967373 0
M  V30 3511 H 306.979 -2.93891 -2.78227 0
M  V30 3512 H 305.549 -1.9259 -2.46227 0
M  V30 3513 H 304.769 -3.84262 -0.879581 0
M  V30 3514 H 306.057 -4.83445 -1.58614 0
M  V30 3515 H 305.455 -3.47631 -4.46283 0
M  V30 3516 H 304.012 -4.30165 -4.89695 0
M  V30 3517 N 307.445 0.0818655 -1.57387 0
M  V30 3518 C 308.395 1.10501 -1.99433 0
M  V30 3519 C 309.379 1.35041 -0.874798 0
M  V30 3520 O 310.571 1.35511 -1.13868 0
M  V30 3521 C 307.7 2.42159 -2.43339 0
M  V30 3522 C 306.786 2.20937 -3.62005 0
M  V30 3523 N 307.177 1.69616 -4.76512 0
M  V30 3524 C 305.475 2.51451 -3.68359 0
M  V30 3525 C 306.176 1.62973 -5.58404 0
M  V30 3526 N 305.152 2.08664 -5.01956 0
M  V30 3527 H 308.954 0.701373 -2.85408 0
M  V30 3528 H 306.468 0.289096 -1.59806 0
M  V30 3529 H 308.465 3.16208 -2.71695 0
M  V30 3530 H 307.125 2.83249 -1.58746 0
M  V30 3531 H 308.136 1.38624 -4.99003 0
M  V30 3532 H 304.813 2.95975 -2.94457 0
M  V30 3533 H 306.203 1.24233 -6.60315 0
M  V30 3534 N 308.923 1.53595 0.353017 0
M  V30 3535 C 309.873 1.77299 1.43349 0
M  V30 3536 C 310.857 0.627884 1.48143 0
M  V30 3537 O 312.049 0.88697 1.53173 0
M  V30 3538 C 309.178 1.97757 2.80619 0
M  V30 3539 C 308.264 3.18305 2.80254 0
M  V30 3540 N 308.655 4.39967 2.49526 0
M  V30 3541 C 306.953 3.19283 3.11407 0
M  V30 3542 C 307.654 5.21772 2.57156 0
M  V30 3543 N 306.63 4.58269 2.92388 0
M  V30 3544 H 310.432 2.68963 1.18474 0
M  V30 3545 H 307.946 1.52391 0.561306 0
M  V30 3546 H 309.943 2.1287 3.58458 0
M  V30 3547 H 308.603 1.07329 3.06448 0
M  V30 3548 H 309.614 4.67482 2.22893 0
M  V30 3549 H 306.291 2.3879 3.4247 0
M  V30 3550 H 307.681 6.2885 2.36638 0
M  V30 3551 N 310.401 -0.613514 1.45168 0
M  V30 3552 C 311.626 -1.40437 1.52618 0
M  V30 3553 C 312.051 -1.87438 0.157707 0
M  V30 3554 O 311.409 -1.59791 -0.856537 0
M  V30 3555 C 311.457 -2.58894 2.51011 0
M  V30 3556 O 310.561 -3.59326 2.02382 0
M  V30 3557 H 309.902 -0.419506 0.514695 0
M  V30 3558 H 312.432 -0.747215 1.90467 0
M  V30 3559 H 312.442 -3.06214 2.69624 0
M  V30 3560 H 311.117 -2.24032 3.50403 0
M  V30 3561 H 309.694 -3.18695 1.93618 0
M  V30 3562 N 311.879 -1.3236 -0.855495 0
M  V30 3563 C 313.107 -1.2587 -1.64208 0
M  V30 3564 C 313.522 0.173457 -1.88002 0
M  V30 3565 O 312.879 1.11027 -1.44842 0
M  V30 3566 C 312.93 -2.01424 -3.00184 0
M  V30 3567 O 312.651 -3.39051 -2.77445 0
M  V30 3568 C 314.152 -2.01948 -3.94629 0
M  V30 3569 H 311.372 -0.434318 -0.511477 0
M  V30 3570 H 313.916 -1.74469 -1.0668 0
M  V30 3571 H 312.071 -1.56549 -3.5436 0
M  V30 3572 H 312.485 -3.77711 -3.63916 0
M  V30 3573 H 313.959 -2.59297 -4.87308 0
M  V30 3574 H 314.436 -1.00554 -4.27534 0
M  V30 3575 H 315.042 -2.46767 -3.4639 0
M  V30 3576 N 313.357 1.07166 -1.15556 0
M  V30 3577 C 314.605 1.79443 -0.929764 0
M  V30 3578 C 314.926 1.87246 0.544414 0
M  V30 3579 O 314.196 1.37473 1.39564 0
M  V30 3580 H 312.776 0.664625 -0.341003 0
M  V30 3581 H 315.438 1.29499 -1.45657 0
M  V30 3582 H 314.534 2.81832 -1.34079 0
M  V30 3583 N 314.835 0.952656 1.25548 0
M  V30 3584 C 315.785 0.442033 2.23674 0
M  V30 3585 C 316.769 -0.467632 1.53955 0
M  V30 3586 O 317.961 -0.301006 1.74422 0
M  V30 3587 C 315.09 -0.280816 3.4215 0
M  V30 3588 C 314.176 0.646803 4.19139 0
M  V30 3589 N 314.567 1.77759 4.73535 0
M  V30 3590 C 312.865 0.454617 4.43677 0
M  V30 3591 C 313.566 2.35658 5.31827 0
M  V30 3592 N 312.542 1.64333 5.18166 0
M  V30 3593 H 316.344 1.30505 2.63336 0
M  V30 3594 H 313.858 0.809904 1.40763 0
M  V30 3595 H 315.855 -0.663747 4.11582 0
M  V30 3596 H 314.515 -1.14046 3.04012 0
M  V30 3597 H 315.526 2.15949 4.7073 0
M  V30 3598 H 312.203 -0.362312 4.15925 0
M  V30 3599 H 313.593 3.30998 5.84713 0
M  V30 3600 N 316.313 -1.40141 0.720998 0
M  V30 3601 C 317.553 -2.02644 0.267335 0
M  V30 3602 C 317.917 -1.55948 -1.12001 0
M  V30 3603 O 319.118 -2.10552 -1.67097 0
M  V30 3604 C 317.389 -3.55679 0.350281 0
M  V30 3605 S 318.948 -4.38793 -0.0256004 0
M  V30 3606 H 315.766 -0.703105 0.105664 0
M  V30 3607 H 318.368 -1.71175 0.944416 0
M  V30 3608 H 317.072 -3.87157 1.36153 0
M  V30 3609 H 316.603 -3.91883 -0.345096 0
M  V30 3610 H 318.618 -4.803 -1.24604 0
M  V30 3611 N 317.792 -0.46758 -1.50504 0
M  V30 3612 C 318.74 0.342482 -2.30065 0
M  V30 3613 C 319.734 0.993596 -1.37201 0
M  V30 3614 O 320.94 0.925102 -1.54408 0
M  V30 3615 H 317.315 0.129283 -0.740803 0
M  V30 3616 H 319.286 -0.34899 -2.96352 0
M  V30 3617 C 318.035 1.4139 -3.17654 0
M  V30 3618 H 317.358 0.922264 -3.89017 0
M  V30 3619 H 318.798 1.95335 -3.76325 0
M  V30 3620 C 317.257 2.4139 -2.35016 0
M  V30 3621 O 317.787 3.46586 -2.03079 0
M  V30 3622 N 315.993 2.13021 -1.97662 0
M  V30 3623 H 315.54 1.27499 -2.23834 0
M  V30 3624 H 315.498 2.80164 -1.42673 0
M  V30 3625 N 319.27 1.56325 -0.20005 0
M  V30 3626 C 320.681 1.8408 0.31167 0
M  V30 3627 C 321.032 1.12087 1.61031 0
M  V30 3628 O 320.157 0.38332 2.12978 0
M  V30 3629 C 320.752 3.33932 0.57226 0
M  V30 3630 C 319.311 3.6208 1.02834 0
M  V30 3631 C 318.458 2.77186 0.079634 0
M  V30 3632 H 321.409 1.52939 -0.423729 0
M  V30 3633 H 321.43 3.52971 1.42096 0
M  V30 3634 H 320.942 3.86303 -0.37308 0
M  V30 3635 H 319.043 3.15147 1.98778 0
M  V30 3636 H 319.156 4.7023 0.917624 0
M  V30 3637 H 317.52 2.47951 0.582448 0
M  V30 3638 H 318.303 3.32347 -0.860238 0
M  V30 3639 N 320.748 -0.0735177 1.57428 0
M  V30 3640 C 321.973 -0.789787 1.91774 0
M  V30 3641 C 322.398 -1.70413 0.796306 0
M  V30 3642 O 321.756 -1.79555 -0.250961 0
M  V30 3643 C 321.804 -1.5609 3.25067 0
M  V30 3644 O 320.908 -2.67144 3.14178 0
M  V30 3645 H 320.249 -0.215582 0.628029 0
M  V30 3646 H 322.779 -0.0422781 2.04556 0
M  V30 3647 H 322.789 -1.94052 3.58898 0
M  V30 3648 H 321.464 -0.890015 4.06265 0
M  V30 3649 H 320.041 -2.32052 2.91901 0
M  V30 3650 N 322.226 -1.5378 -0.344866 0
M  V30 3651 C 323.159 -1.7649 -1.4466 0
M  V30 3652 C 324.137 -0.613954 -1.50563 0
M  V30 3653 O 325.321 -0.84896 -1.683 0
M  V30 3654 C 322.448 -1.86235 -2.82903 0
M  V30 3655 C 321.494 -3.08375 -2.94631 0
M  V30 3656 S 322.327 -4.67457 -2.61236 0
M  V30 3657 C 323.483 -4.80079 -4.0159 0
M  V30 3658 H 323.716 -2.69661 -1.2518 0
M  V30 3659 H 321.249 -1.44632 -0.540455 0
M  V30 3660 H 323.207 -1.92535 -3.62547 0
M  V30 3661 H 321.868 -0.940786 -2.9968 0
M  V30 3662 H 321.061 -3.11865 -3.95925 0
M  V30 3663 H 320.663 -3.00294 -2.22934 0
M  V30 3664 H 322.955 -4.61407 -4.96094 0
M  V30 3665 H 323.898 -5.82168 -4.03095 0
M  V30 3666 H 324.306 -4.08544 -3.89554 0
M  V30 3667 N 323.704 0.605807 -1.45491 0
M  V30 3668 C 324.651 1.7164 -1.54299 0
M  V30 3669 C 325.621 1.61486 -0.388761 0
M  V30 3670 O 326.806 1.81039 -0.602445 0
M  V30 3671 C 323.946 3.09953 -1.51734 0
M  V30 3672 C 323.059 3.309 -2.77721 0
M  V30 3673 C 322.194 4.59329 -2.66816 0
M  V30 3674 C 321.233 4.7354 -3.87848 0
M  V30 3675 N 320.37 5.9327 -3.75467 0
M  V30 3676 H 325.21 1.63449 -2.49176 0
M  V30 3677 H 322.747 0.796957 -1.23641 0
M  V30 3678 H 324.705 3.89977 -1.48235 0
M  V30 3679 H 323.335 3.17098 -0.604068 0
M  V30 3680 H 322.387 2.44639 -2.913 0
M  V30 3681 H 323.699 3.37274 -3.67488 0
M  V30 3682 H 322.853 5.4755 -2.61292 0
M  V30 3683 H 321.592 4.55355 -1.74651 0
M  V30 3684 H 320.597 3.83741 -3.93729 0
M  V30 3685 H 321.822 4.79309 -4.81082 0
M  V30 3686 H 319.768 5.90338 -2.86072 0
M  V30 3687 H 319.685 6.00811 -4.5887 0
M  V30 3688 H 320.953 6.83984 -3.73879 0
M  V30 3689 N 325.182 1.32811 0.848464 0
M  V30 3690 C 326.145 1.22194 1.9391 0
M  V30 3691 C 327.145 0.143404 1.60159 0
M  V30 3692 O 328.335 0.394253 1.6968 0
M  V30 3693 C 325.467 0.88067 3.29328 0
M  V30 3694 H 326.66 2.19127 2.04752 0
M  V30 3695 H 324.213 1.16731 1.0394 0
M  V30 3696 H 324.948 -0.0865776 3.24184 0
M  V30 3697 H 324.733 1.66052 3.55203 0
M  V30 3698 H 326.223 0.830871 4.09251 0
M  V30 3699 N 326.66 -1.06551 1.16123 0
M  V30 3700 C 328.076 -1.3142 0.905585 0
M  V30 3701 C 328.276 -1.96571 -0.442964 0
M  V30 3702 O 327.332 -2.23068 -1.18308 0
M  V30 3703 C 328.645 -2.19741 2.05267 0
M  V30 3704 C 330.193 -2.33165 2.08813 0
M  V30 3705 C 330.668 -3.24838 3.22868 0
M  V30 3706 N 332.159 -3.32421 3.22568 0
M  V30 3707 C 332.894 -4.0344 4.0746 0
M  V30 3708 N 332.39 -4.77003 5.02434 0
M  V30 3709 N 334.183 -3.99464 3.95456 0
M  V30 3710 H 326.334 -0.626548 2.02949 0
M  V30 3711 H 328.597 -0.338777 0.8854 0
M  V30 3712 H 328.303 -1.79142 3.02657 0
M  V30 3713 H 328.177 -3.20313 1.99198 0
M  V30 3714 H 330.564 -2.73013 1.12018 0
M  V30 3715 H 330.645 -1.3227 2.18948 0
M  V30 3716 H 330.289 -2.85708 4.19921 0
M  V30 3717 H 330.219 -4.25707 3.0997 0
M  V30 3718 H 332.71 -2.79994 2.53795 0
M  V30 3719 H 333.023 -5.28712 5.63634 0
M  V30 3720 H 331.368 -4.75992 5.06415 0
M  V30 3721 H 334.559 -3.4111 3.20564 0
M  V30 3722 H 334.732 -4.54544 4.61837 0
M  V30 3723 N 328.138 -0.959301 -1.25041 0
M  V30 3724 C 329.385 -0.616611 -1.92884 0
M  V30 3725 C 329.713 0.847036 -1.75087 0
M  V30 3726 O 328.968 1.62374 -1.09239 0
M  V30 3727 C 329.267 -0.927136 -3.45165 0
M  V30 3728 C 328.933 -2.37757 -3.83122 0
M  V30 3729 C 327.595 -2.77402 -3.93194 0
M  V30 3730 C 329.947 -3.31929 -4.01836 0
M  V30 3731 C 327.275 -4.10277 -4.19392 0
M  V30 3732 C 329.627 -4.64423 -4.29528 0
M  V30 3733 C 328.291 -5.03857 -4.37818 0
M  V30 3734 H 327.561 -0.225634 -0.705812 0
M  V30 3735 H 330.208 -1.20921 -1.48493 0
M  V30 3736 H 328.513 -0.252195 -3.90987 0
M  V30 3737 H 330.21 -0.6405 -3.95852 0
M  V30 3738 H 326.8 -2.06013 -3.75841 0
M  V30 3739 H 330.984 -3.02488 -3.93465 0
M  V30 3740 H 326.24 -4.40467 -4.24027 0
M  V30 3741 H 330.414 -5.37369 -4.42953 0
M  V30 3742 H 328.041 -6.06843 -4.57871 0
M  V30 3743 N 329.616 1.39756 -0.72842 0
M  V30 3744 C 330.844 2.04948 -0.283528 0
M  V30 3745 C 331.259 1.54908 1.0793 0
M  V30 3746 O 330.616 0.711135 1.68075 0
M  V30 3747 C 330.667 3.60498 -0.268957 0
M  V30 3748 O 330.388 4.08695 -1.57798 0
M  V30 3749 C 331.889 4.4288 0.192912 0
M  V30 3750 H 329.109 0.659243 -0.125056 0
M  V30 3751 H 331.653 1.78927 -0.990226 0
M  V30 3752 H 329.808 3.85444 0.388801 0
M  V30 3753 H 330.222 5.02977 -1.48709 0
M  V30 3754 H 331.696 5.51791 0.151952 0
M  V30 3755 H 332.173 4.21418 1.23708 0
M  V30 3756 H 332.779 4.23069 -0.435039 0
M  V30 3757 N 331.094 0.475555 1.50254 0
M  V30 3758 C 332.057 -0.305016 2.27161 0
M  V30 3759 C 333.057 -0.916519 1.32123 0
M  V30 3760 O 334.247 -0.785003 1.5551 0
M  V30 3761 C 331.379 -1.43496 3.09227 0
M  V30 3762 H 332.572 0.369511 2.97615 0
M  V30 3763 H 330.125 0.229747 1.54602 0
M  V30 3764 H 330.86 -2.14441 2.43281 0
M  V30 3765 H 330.645 -1.00223 3.79075 0
M  V30 3766 H 332.135 -1.98548 3.67381 0
M  V30 3767 N 332.573 -1.56217 0.208337 0
M  V30 3768 C 333.503 -2.22694 -0.702116 0
M  V30 3769 C 334.484 -1.19432 -1.2112 0
M  V30 3770 O 335.669 -1.47978 -1.25762 0
M  V30 3771 C 332.799 -2.8966 -1.9161 0
M  V30 3772 C 331.753 -3.9928 -1.5414 0
M  V30 3773 C 331.079 -4.53476 -2.83308 0
M  V30 3774 C 332.379 -5.17012 -0.741339 0
M  V30 3775 H 334.073 -2.99034 -0.147898 0
M  V30 3776 H 331.619 -1.43831 -0.0696951 0
M  V30 3777 H 333.572 -3.34852 -2.55836 0
M  V30 3778 H 332.296 -2.10746 -2.49507 0
M  V30 3779 H 330.955 -3.54799 -0.922668 0
M  V30 3780 H 330.603 -3.71308 -3.39322 0
M  V30 3781 H 330.303 -5.27451 -2.58976 0
M  V30 3782 H 331.827 -5.01378 -3.485 0
M  V30 3783 H 333.241 -5.58667 -1.28699 0
M  V30 3784 H 331.638 -5.97137 -0.595627 0
M  V30 3785 H 332.708 -4.8423 0.254851 0
M  V30 3786 N 334.051 0.0651679 -1.57465 0
M  V30 3787 C 335.467 0.420105 -1.53972 0
M  V30 3788 C 335.667 1.78782 -0.929474 0
M  V30 3789 O 334.723 2.46771 -0.534839 0
M  V30 3790 C 336.036 0.355084 -2.98596 0
M  V30 3791 C 337.584 0.434792 -3.09965 0
M  V30 3792 C 338.059 0.399609 -4.56253 0
M  V30 3793 N 339.55 0.459488 -4.60915 0
M  V30 3794 C 340.285 0.454584 -5.71595 0
M  V30 3795 N 339.781 0.404102 -6.9162 0
M  V30 3796 N 341.574 0.501635 -5.59857 0
M  V30 3797 H 333.725 -0.830328 -1.95498 0
M  V30 3798 H 335.988 -0.312244 -0.895102 0
M  V30 3799 H 335.694 -0.583357 -3.46828 0
M  V30 3800 H 335.568 1.16275 -3.58831 0
M  V30 3801 H 337.955 1.36366 -2.61703 0
M  V30 3802 H 338.036 -0.40157 -2.52628 0
M  V30 3803 H 337.68 -0.525436 -5.05175 0
M  V30 3804 H 337.61 1.25359 -5.11461 0
M  V30 3805 H 340.101 0.502482 -3.74544 0
M  V30 3806 H 340.414 0.404468 -7.71741 0
M  V30 3807 H 338.759 0.37069 -6.94011 0
M  V30 3808 H 341.95 0.538812 -4.64989 0
M  V30 3809 H 342.123 0.494345 -6.46112 0
M  V30 3810 N 335.529 1.53961 0.336706 0
M  V30 3811 C 336.754 1.75797 1.10046 0
M  V30 3812 C 337.179 0.498985 1.81361 0
M  V30 3813 O 336.537 -0.548769 1.72795 0
M  V30 3814 C 336.585 2.94257 2.08436 0
M  V30 3815 O 335.689 2.64883 3.16087 0
M  V30 3816 H 335.03 0.582936 0.317934 0
M  V30 3817 H 337.56 2.00945 0.38501 0
M  V30 3818 H 337.57 3.21237 2.51537 0
M  V30 3819 H 336.245 3.85564 1.55927 0
M  V30 3820 H 334.822 2.48812 2.77753 0
M  V30 3821 N 337.007 -0.598083 1.45811 0
M  V30 3822 C 337.937 -1.71873 1.58057 0
M  V30 3823 C 338.918 -1.64533 0.431615 0
M  V30 3824 O 340.103 -1.82787 0.65595 0
M  V30 3825 C 337.233 -3.10495 1.55597 0
M  V30 3826 C 336.187 -3.32654 2.69305 0
M  V30 3827 C 335.513 -4.71646 2.51902 0
M  V30 3828 C 336.813 -3.21981 4.11248 0
M  V30 3829 H 338.507 -1.61881 2.51863 0
M  V30 3830 H 336.053 -0.777372 1.21214 0
M  V30 3831 H 338.006 -3.88699 1.6276 0
M  V30 3832 H 336.73 -3.2135 0.583255 0
M  V30 3833 H 335.389 -2.56843 2.61586 0
M  V30 3834 H 335.037 -4.79246 1.52748 0
M  V30 3835 H 334.737 -4.87426 3.2816 0
M  V30 3836 H 336.261 -5.52038 2.60933 0
M  V30 3837 H 337.675 -3.90049 4.20161 0
M  V30 3838 H 336.072 -3.49289 4.87972 0
M  V30 3839 H 337.142 -2.1928 4.32486 0
M  V30 3840 N 338.485 -1.33259 -0.841409 0
M  V30 3841 C 339.448 -1.23221 -1.9326 0
M  V30 3842 C 340.448 -0.151895 -1.60081 0
M  V30 3843 O 341.638 -0.403246 -1.69468 0
M  V30 3844 C 338.77 -0.898123 -3.28856 0
M  V30 3845 H 339.963 -2.2021 -2.03587 0
M  V30 3846 H 337.516 -1.17281 -1.03319 0
M  V30 3847 H 338.251 0.0693841 -3.24226 0
M  V30 3848 H 338.036 -1.67934 -3.54317 0
M  V30 3849 H 339.526 -0.852563 -4.08805 0
M  V30 3850 N 339.963 1.05934 -1.16686 0
M  V30 3851 C 341.209 1.79065 -0.95203 0
M  V30 3852 C 341.542 1.87147 0.518629 0
M  V30 3853 O 340.817 1.36574 1.38484 0
M  V30 3854 C 341.1 3.23359 -1.58464 0
M  V30 3855 C 340.953 3.23336 -3.12689 0
M  V30 3856 C 342.272 4.21004 -1.28232 0
M  V30 3857 H 339.391 0.65005 -0.34728 0
M  V30 3858 H 342.033 1.23868 -1.44072 0
M  V30 3859 H 340.183 3.70493 -1.16908 0
M  V30 3860 H 341.855 2.84336 -3.6325 0
M  V30 3861 H 340.098 2.61886 -3.4583 0
M  V30 3862 H 340.769 4.25144 -3.52075 0
M  V30 3863 H 343.245 3.8233 -1.64203 0
M  V30 3864 H 342.121 5.20225 -1.75092 0
M  V30 3865 H 342.382 4.41639 -0.201791 0
M  V30 3866 N 341.441 0.965919 1.2453 0
M  V30 3867 C 342.371 0.513476 2.27784 0
M  V30 3868 C 343.352 -0.445974 1.6415 0
M  V30 3869 O 344.537 -0.342485 1.91156 0
M  V30 3870 C 341.667 -0.198839 3.4673 0
M  V30 3871 C 340.621 0.676456 4.2262 0
M  V30 3872 C 339.947 -0.167248 5.34438 0
M  V30 3873 C 341.247 1.96017 4.84123 0
M  V30 3874 H 342.941 1.3765 2.65881 0
M  V30 3875 H 340.487 0.663321 1.27813 0
M  V30 3876 H 342.44 -0.526567 4.18097 0
M  V30 3877 H 341.164 -1.0962 3.07654 0
M  V30 3878 H 339.823 0.98743 3.53052 0
M  V30 3879 H 339.471 -1.0647 4.91603 0
M  V30 3880 H 339.171 0.415181 5.86131 0
M  V30 3881 H 340.695 -0.489688 6.08633 0
M  V30 3882 H 342.109 1.69814 5.47573 0
M  V30 3883 H 340.506 2.48918 5.4604 0
M  V30 3884 H 341.576 2.65622 4.05676 0
M  V30 3885 N 342.919 -1.39368 0.735821 0
M  V30 3886 C 344.166 -2.00497 0.284123 0
M  V30 3887 C 344.494 -1.58387 -1.12889 0
M  V30 3888 O 343.749 -0.804359 -1.78406 0
M  V30 3889 C 344.048 -3.5583 0.334651 0
M  V30 3890 C 343.714 -4.17593 1.7008 0
M  V30 3891 C 342.376 -4.34176 2.07472 0
M  V30 3892 C 344.728 -4.51848 2.59775 0
M  V30 3893 C 342.056 -4.82304 3.34065 0
M  V30 3894 C 344.408 -5.01384 3.85741 0
M  V30 3895 C 343.072 -5.16175 4.23225 0
M  V30 3896 H 342.342 -0.73367 0.103968 0
M  V30 3897 H 344.989 -1.66683 0.942825 0
M  V30 3898 H 343.294 -3.89674 -0.407625 0
M  V30 3899 H 344.991 -4.00986 -0.0329927 0
M  V30 3900 H 341.581 -4.05087 1.40008 0
M  V30 3901 H 345.765 -4.38653 2.32157 0
M  V30 3902 H 341.021 -4.91941 3.63049 0
M  V30 3903 H 345.195 -5.26863 4.55399 0
M  V30 3904 H 342.822 -5.5323 5.21384 0
M  V30 3905 N 344.397 -0.483516 -1.5 0
M  V30 3906 C 345.646 0.0689102 -2.01582 0
M  V30 3907 C 345.959 1.39655 -1.36952 0
M  V30 3908 O 347.165 2.03465 -1.79762 0
M  V30 3909 C 345.621 0.173302 -3.59483 0
M  V30 3910 C 345.229 -1.14665 -4.33077 0
M  V30 3911 C 346.973 0.677024 -4.19066 0
M  V30 3912 C 344.88 -1.00537 -5.82792 0
M  V30 3913 H 343.81 0.0295277 -0.753422 0
M  V30 3914 H 346.461 -0.620295 -1.72698 0
M  V30 3915 H 344.843 0.926569 -3.85007 0
M  V30 3916 H 346.017 -1.91184 -4.19268 0
M  V30 3917 H 344.332 -1.58244 -3.85159 0
M  V30 3918 H 346.929 0.799952 -5.28682 0
M  V30 3919 H 347.272 1.67151 -3.81269 0
M  V30 3920 H 347.805 -0.0192083 -3.97795 0
M  V30 3921 H 344.544 -1.9736 -6.25083 0
M  V30 3922 H 344.064 -0.280776 -5.99142 0
M  V30 3923 H 345.743 -0.677 -6.43448 0
M  V30 3924 N 345.875 1.56104 -0.216619 0
M  V30 3925 C 347.121 1.98466 0.417033 0
M  V30 3926 C 347.454 1.10403 1.59765 0
M  V30 3927 O 346.729 0.160632 1.93836 0
M  V30 3928 C 347.012 3.49769 0.85637 0
M  V30 3929 C 346.865 4.48606 -0.327546 0
M  V30 3930 C 348.184 4.05339 1.7143 0
M  V30 3931 H 345.303 0.721551 0.150112 0
M  V30 3932 H 347.945 1.87423 -0.311864 0
M  V30 3933 H 346.095 3.5931 1.47745 0
M  V30 3934 H 347.767 4.5108 -0.965618 0
M  V30 3935 H 346.01 4.22682 -0.975805 0
M  V30 3936 H 346.681 5.51995 0.0227149 0
M  V30 3937 H 349.157 3.98712 1.19031 0
M  V30 3938 H 348.033 5.11533 1.99061 0
M  V30 3939 H 348.294 3.51918 2.67593 0
M  V30 3940 N 347.353 -0.0568162 1.57498 0
M  V30 3941 C 348.6 -0.753104 1.87975 0
M  V30 3942 C 348.928 -1.76815 0.81035 0
M  V30 3943 O 348.183 -1.94756 -0.19199 0
M  V30 3944 C 348.482 -1.48359 3.25153 0
M  V30 3945 C 348.148 -0.60713 4.46794 0
M  V30 3946 C 346.81 -0.365642 4.79809 0
M  V30 3947 C 349.162 -0.000305978 5.212 0
M  V30 3948 C 346.49 0.491905 5.84634 0
M  V30 3949 C 348.842 0.844781 6.26934 0
M  V30 3950 C 347.506 1.096 6.58441 0
M  V30 3951 H 346.776 -0.27558 0.687849 0
M  V30 3952 H 349.423 -0.0135173 1.91495 0
M  V30 3953 H 347.728 -2.29577 3.17492 0
M  V30 3954 H 349.425 -2.02739 3.45974 0
M  V30 3955 H 346.015 -0.805487 4.20963 0
M  V30 3956 H 350.199 -0.173961 4.95995 0
M  V30 3957 H 345.455 0.695131 6.07436 0
M  V30 3958 H 349.629 1.32165 6.83744 0
M  V30 3959 H 347.256 1.76224 7.39492 0
M  V30 3960 N 348.832 -1.54138 -0.328536 0
M  V30 3961 C 350.06 -1.76062 -1.08673 0
M  V30 3962 C 350.475 -0.506852 -1.81869 0
M  V30 3963 O 349.832 0.522223 -1.74869 0
M  V30 3964 C 349.883 -2.95054 -2.08866 0
M  V30 3965 O 349.604 -4.15583 -1.38644 0
M  V30 3966 C 351.105 -3.2915 -2.96943 0
M  V30 3967 H 348.325 -0.587889 -0.323461 0
M  V30 3968 H 350.869 -2.0101 -0.376175 0
M  V30 3969 H 349.024 -2.72394 -2.75464 0
M  V30 3970 H 349.438 -4.82481 -2.05699 0
M  V30 3971 H 350.912 -4.15723 -3.63151 0
M  V30 3972 H 351.389 -2.461 -3.63774 0
M  V30 3973 H 351.995 -3.53871 -2.35914 0
M  V30 3974 N 350.31 0.590341 -1.46126 0
M  V30 3975 C 351.535 1.37991 -1.54833 0
M  V30 3976 C 351.96 1.87163 -0.187506 0
M  V30 3977 O 351.318 1.61133 0.831008 0
M  V30 3978 C 351.366 2.54867 -2.55098 0
M  V30 3979 O 350.47 3.56061 -2.08073 0
M  V30 3980 H 349.811 0.411265 -0.521303 0
M  V30 3981 H 352.341 0.716819 -1.91632 0
M  V30 3982 H 352.351 3.01886 -2.74461 0
M  V30 3983 H 351.026 2.18429 -3.53923 0
M  V30 3984 H 349.603 3.15574 -1.98664 0
M  V30 3985 N 351.788 1.33704 0.83433 0
M  V30 3986 C 353.018 1.28281 1.6195 0
M  V30 3987 C 353.426 -0.147603 1.88623 0
M  V30 3988 O 352.769 -1.1016 1.47005 0
M  V30 3989 C 352.831 1.99386 2.99141 0
M  V30 3990 C 352.495 3.48681 2.95416 0
M  V30 3991 C 353.492 4.438 2.70809 0
M  V30 3992 C 351.177 3.90925 3.15409 0
M  V30 3993 C 353.171 5.79138 2.66229 0
M  V30 3994 C 350.858 5.26366 3.10454 0
M  V30 3995 C 351.856 6.20284 2.85895 0
M  V30 3996 O 351.544 7.53245 2.80852 0
M  V30 3997 H 351.276 0.44315 0.510484 0
M  V30 3998 H 353.83 1.76711 1.04702 0
M  V30 3999 H 352.06 1.45554 3.58261 0
M  V30 4000 H 353.749 1.87403 3.60049 0
M  V30 4001 H 354.515 4.12485 2.5511 0
M  V30 4002 H 350.394 3.18229 3.33543 0
M  V30 4003 H 353.938 6.52416 2.4698 0
M  V30 4004 H 349.835 5.57304 3.25703 0
M  V30 4005 H 350.603 7.62846 2.96661 0
M  V30 4006 N 353.266 -1.05314 1.17247 0
M  V30 4007 C 354.513 -1.78293 0.960091 0
M  V30 4008 C 354.841 -1.87658 -0.51136 0
M  V30 4009 O 354.096 -1.3718 -1.39571 0
M  V30 4010 C 354.395 -3.2229 1.54479 0
M  V30 4011 C 354.061 -3.32987 3.04024 0
M  V30 4012 C 352.723 -3.35613 3.44844 0
M  V30 4013 C 355.075 -3.34102 4.00031 0
M  V30 4014 C 352.403 -3.36982 4.8027 0
M  V30 4015 C 354.755 -3.3701 5.35357 0
M  V30 4016 C 353.419 -3.37923 5.75642 0
M  V30 4017 H 352.689 -0.652422 0.351322 0
M  V30 4018 H 355.336 -1.23782 1.46117 0
M  V30 4019 H 353.641 -3.7972 0.965391 0
M  V30 4020 H 355.338 -3.77376 1.35603 0
M  V30 4021 H 351.928 -3.31655 2.71483 0
M  V30 4022 H 356.112 -3.31276 3.69554 0
M  V30 4023 H 351.368 -3.35999 5.10798 0
M  V30 4024 H 355.542 -3.36822 6.09528 0
M  V30 4025 H 353.169 -3.38738 6.80559 0
M  V30 4026 N 354.744 -0.972509 -1.24016 0
M  V30 4027 C 355.674 -0.525548 -2.27509 0
M  V30 4028 C 356.655 0.437262 -1.64384 0
M  V30 4029 O 357.84 0.332343 -1.91335 0
M  V30 4030 C 354.97 0.180448 -3.46831 0
M  V30 4031 C 353.924 -0.698859 -4.22256 0
M  V30 4032 C 353.25 0.138903 -5.3452 0
M  V30 4033 C 354.55 -1.98582 -4.83076 0
M  V30 4034 H 356.244 -1.39058 -2.65148 0
M  V30 4035 H 353.79 -0.67009 -1.27459 0
M  V30 4036 H 355.743 0.504387 -4.18371 0
M  V30 4037 H 354.467 1.07987 -3.08231 0
M  V30 4038 H 353.126 -1.00614 -3.52523 0
M  V30 4039 H 352.774 1.03862 -4.9216 0
M  V30 4040 H 352.474 -0.446259 -5.85903 0
M  V30 4041 H 353.998 0.457404 -6.08884 0
M  V30 4042 H 355.412 -1.72715 -5.46665 0
M  V30 4043 H 353.809 -2.5181 -5.44713 0
M  V30 4044 H 354.879 -2.67769 -4.04262 0
M  V30 4045 N 356.222 1.38976 -0.743202 0
M  V30 4046 C 357.45 2.04636 -0.30525 0
M  V30 4047 C 357.865 1.56044 1.06281 0
M  V30 4048 O 357.222 0.728921 1.67311 0
M  V30 4049 C 357.273 3.60193 -0.307177 0
M  V30 4050 O 356.994 4.06998 -1.62124 0
M  V30 4051 C 358.495 4.4306 0.145928 0
M  V30 4052 H 355.715 0.65788 -0.132041 0
M  V30 4053 H 358.259 1.77866 -1.00915 0
M  V30 4054 H 356.414 3.85835 0.347898 0
M  V30 4055 H 356.828 5.01371 -1.54036 0
M  V30 4056 H 358.302 5.51921 0.0934183 0
M  V30 4057 H 358.779 4.22706 1.19231 0
M  V30 4058 H 359.385 4.22584 -0.479886 0
M  V30 4059 N 357.7 0.491464 1.49741 0
M  V30 4060 C 358.949 -0.0582189 2.01616 0
M  V30 4061 C 359.262 -1.38927 1.3769 0
M  V30 4062 O 360.468 -2.02509 1.80838 0
M  V30 4063 C 358.924 -0.154235 3.59569 0
M  V30 4064 C 358.532 1.1696 4.32463 0
M  V30 4065 C 360.276 -0.65479 4.1942 0
M  V30 4066 C 358.183 1.03627 5.8225 0
M  V30 4067 H 357.113 -0.0255317 0.753568 0
M  V30 4068 H 359.764 0.629445 1.72367 0
M  V30 4069 H 358.146 -0.906138 3.85493 0
M  V30 4070 H 359.32 1.93405 4.18248 0
M  V30 4071 H 357.635 1.60285 3.84315 0
M  V30 4072 H 360.232 -0.771903 5.29099 0
M  V30 4073 H 360.575 -1.65127 3.8215 0
M  V30 4074 H 361.108 0.040304 3.9778 0
M  V30 4075 H 357.847 2.00672 6.24028 0
M  V30 4076 H 357.367 0.312546 5.98985 0
M  V30 4077 H 359.046 0.711114 6.4308 0
M  V30 4078 N 359.178 -1.55987 0.224894 0
M  V30 4079 C 360.108 -2.23426 -0.678457 0
M  V30 4080 C 361.089 -1.20709 -1.19847 0
M  V30 4081 O 362.274 -1.49304 -1.24186 0
M  V30 4082 C 359.404 -2.91676 -1.88527 0
M  V30 4083 C 358.358 -4.00893 -1.49896 0
M  V30 4084 C 357.684 -4.56455 -2.78483 0
M  V30 4085 C 358.984 -5.17769 -0.686461 0
M  V30 4086 H 360.678 -2.99175 -0.116173 0
M  V30 4087 H 358.224 -1.43897 -0.054436 0
M  V30 4088 H 360.177 -3.37547 -2.5227 0
M  V30 4089 H 358.901 -2.1338 -2.47258 0
M  V30 4090 H 357.56 -3.55758 -0.884985 0
M  V30 4091 H 357.208 -3.74886 -3.35365 0
M  V30 4092 H 356.908 -5.30169 -2.53368 0
M  V30 4093 H 358.432 -5.05047 -3.43162 0
M  V30 4094 H 359.846 -5.60001 -1.22767 0
M  V30 4095 H 358.243 -5.97735 -0.532259 0
M  V30 4096 H 359.313 -4.83932 0.306196 0
M  V30 4097 N 360.656 0.0484629 -1.57525 0
M  V30 4098 C 361.905 0.742065 -1.87553 0
M  V30 4099 C 362.218 1.77545 -0.820802 0
M  V30 4100 O 363.424 2.52027 -1.00967 0
M  V30 4101 C 361.88 1.37081 -3.32771 0
M  V30 4102 C 361.488 0.374786 -4.4643 0
M  V30 4103 C 363.232 2.04542 -3.71972 0
M  V30 4104 C 361.139 1.01077 -5.82698 0
M  V30 4105 H 360.069 0.280903 -0.699721 0
M  V30 4106 H 362.72 -0.00411877 -1.835 0
M  V30 4107 H 361.102 2.16605 -3.31509 0
M  V30 4108 H 362.276 -0.392331 -4.59127 0
M  V30 4109 H 360.591 -0.196653 -4.15935 0
M  V30 4110 H 363.188 2.52943 -4.71088 0
M  V30 4111 H 363.531 2.85515 -3.02964 0
M  V30 4112 H 364.064 1.31819 -3.75325 0
M  V30 4113 H 360.803 0.240878 -6.55057 0
M  V30 4114 H 360.323 1.74819 -5.73758 0
M  V30 4115 H 362.002 1.52383 -6.28799 0
M  V30 4116 N 362.134 1.5431 0.320358 0
M  V30 4117 C 363.362 1.76636 1.07738 0
M  V30 4118 C 363.777 0.51649 1.81598 0
M  V30 4119 O 363.134 -0.512942 1.75143 0
M  V30 4120 C 363.185 2.96158 2.07299 0
M  V30 4121 O 362.906 4.16313 1.36438 0
M  V30 4122 C 364.407 3.3072 2.95193 0
M  V30 4123 H 361.627 0.589597 0.320339 0
M  V30 4124 H 364.171 2.01207 0.36551 0
M  V30 4125 H 362.326 2.73851 2.74016 0
M  V30 4126 H 362.74 4.83565 2.03138 0
M  V30 4127 H 364.214 4.17643 3.60941 0
M  V30 4128 H 364.691 2.48026 3.62463 0
M  V30 4129 H 365.297 3.55117 2.34034 0
M  V30 4130 N 363.613 -0.582584 1.46437 0
M  V30 4131 C 364.862 -1.337 1.5102 0
M  V30 4132 C 365.175 -1.94891 0.166359 0
M  V30 4133 O 366.381 -2.71351 0.0899954 0
M  V30 4134 C 364.837 -2.42315 2.66104 0
M  V30 4135 C 364.445 -1.87427 4.06909 0
M  V30 4136 C 366.189 -3.19099 2.79958 0
M  V30 4137 C 364.096 -2.93672 5.13333 0
M  V30 4138 H 363.026 -0.502619 0.562041 0
M  V30 4139 H 365.677 -0.621701 1.72647 0
M  V30 4140 H 364.059 -3.16645 2.37807 0
M  V30 4141 H 365.233 -1.19639 4.44998 0
M  V30 4142 H 363.548 -1.2331 3.97723 0
M  V30 4143 H 366.145 -3.9839 3.56636 0
M  V30 4144 H 366.488 -3.71695 1.87479 0
M  V30 4145 H 367.021 -2.51875 3.07902 0
M  V30 4146 H 363.76 -2.45962 6.07604 0
M  V30 4147 H 363.28 -3.59948 4.79789 0
M  V30 4148 H 364.959 -3.5762 5.39182 0
M  V30 4149 N 365.091 -1.34144 -0.827227 0
M  V30 4150 C 366.34 -1.25602 -1.5782 0
M  V30 4151 C 366.653 0.173445 -1.94829 0
M  V30 4152 O 367.859 0.380984 -2.68814 0
M  V30 4153 C 366.315 -2.20151 -2.84713 0
M  V30 4154 C 365.923 -3.68331 -2.55021 0
M  V30 4155 C 367.667 -2.20508 -3.62735 0
M  V30 4156 C 365.574 -4.54762 -3.78082 0
M  V30 4157 H 364.504 -0.466573 -0.592306 0
M  V30 4158 H 367.155 -1.59283 -0.911116 0
M  V30 4159 H 365.537 -1.79417 -3.53023 0
M  V30 4160 H 366.711 -4.17577 -1.94849 0
M  V30 4161 H 365.026 -3.7038 -1.90283 0
M  V30 4162 H 367.623 -2.82306 -4.54101 0
M  V30 4163 H 367.966 -1.20322 -3.98533 0
M  V30 4164 H 368.499 -2.59664 -3.01362 0
M  V30 4165 H 365.238 -5.55867 -3.47407 0
M  V30 4166 H 364.758 -4.10254 -4.37552 0
M  V30 4167 H 366.437 -4.69153 -4.45538 0
M  V30 4168 N 366.569 1.04691 -1.17803 0
M  V30 4169 C 367.817 1.7743 -0.967617 0
M  V30 4170 C 368.138 1.88359 0.504574 0
M  V30 4171 O 367.408 1.40402 1.36617 0
M  V30 4172 H 365.988 0.657242 -0.355024 0
M  V30 4173 H 368.65 1.2638 -1.48371 0
M  V30 4174 H 367.746 2.78924 -1.40027 0
M  V30 4175 N 368.047 0.979072 1.23499 0
M  V30 4176 C 369.275 0.665202 1.95915 0
M  V30 4177 C 369.69 -0.767571 1.72493 0
M  V30 4178 O 369.047 -1.51635 1.01554 0
M  V30 4179 C 369.098 0.944438 3.48945 0
M  V30 4180 O 368.819 2.3209 3.71572 0
M  V30 4181 C 370.32 0.646336 4.38563 0
M  V30 4182 H 367.54 0.247218 0.623798 0
M  V30 4183 H 370.084 1.31009 1.57025 0
M  V30 4184 H 368.239 0.345575 3.85856 0
M  V30 4185 H 368.653 2.40957 4.65876 0
M  V30 4186 H 370.127 0.892091 5.44744 0
M  V30 4187 H 370.604 -0.419575 4.37191 0
M  V30 4188 H 371.21 1.22562 4.07258 0
M  V30 4189 N 369.525 -1.3858 0.750561 0
M  V30 4190 C 370.455 -2.33102 0.136237 0
M  V30 4191 C 371.436 -1.54713 -0.706965 0
M  V30 4192 O 372.621 -1.83043 -0.648769 0
M  V30 4193 C 369.751 -3.38882 -0.760017 0
M  V30 4194 C 368.705 -4.27995 -0.0197785 0
M  V30 4195 C 368.031 -5.24605 -1.03408 0
M  V30 4196 C 369.331 -5.09554 1.14684 0
M  V30 4197 H 371.025 -2.84726 0.925822 0
M  V30 4198 H 368.571 -1.36898 0.446654 0
M  V30 4199 H 370.524 -4.0397 -1.19943 0
M  V30 4200 H 369.248 -2.85734 -1.58189 0
M  V30 4201 H 367.907 -3.64409 0.400184 0
M  V30 4202 H 367.555 -4.67746 -1.84994 0
M  V30 4203 H 367.255 -5.85081 -0.543464 0
M  V30 4204 H 368.779 -5.9257 -1.47288 0
M  V30 4205 H 370.193 -5.67899 0.785118 0
M  V30 4206 H 368.59 -5.7925 1.56812 0
M  V30 4207 H 369.66 -4.4347 1.96118 0
M  V30 4208 N 371.003 -0.499398 -1.49478 0
M  V30 4209 C 372.25 0.0456899 -2.02448 0
M  V30 4210 C 372.578 1.37142 -1.37921 0
M  V30 4211 O 371.833 1.89111 -0.503544 0
M  V30 4212 C 372.132 0.248424 -3.56536 0
M  V30 4213 C 371.798 -0.999107 -4.39692 0
M  V30 4214 C 370.46 -1.34108 -4.62135 0
M  V30 4215 C 372.812 -1.82842 -4.88076 0
M  V30 4216 C 370.14 -2.51191 -5.30208 0
M  V30 4217 C 372.492 -2.99076 -5.57437 0
M  V30 4218 C 371.156 -3.33655 -5.78127 0
M  V30 4219 H 370.426 0.0167191 -0.740811 0
M  V30 4220 H 373.073 -0.65923 -1.79795 0
M  V30 4221 H 371.378 1.03586 -3.77859 0
M  V30 4222 H 373.075 0.684605 -3.95113 0
M  V30 4223 H 369.665 -0.722729 -4.22463 0
M  V30 4224 H 373.849 -1.57737 -4.70566 0
M  V30 4225 H 369.105 -2.78221 -5.44429 0
M  V30 4226 H 373.279 -3.63664 -5.93904 0
M  V30 4227 H 370.906 -4.24483 -6.30649 0
M  V30 4228 N 372.481 1.55866 -0.233164 0
M  V30 4229 C 373.758 1.90471 0.444988 0
M  V30 4230 C 374.138 1.15209 1.7689 0
M  V30 4231 O 373.486 0.265119 2.26957 0
M  V30 4232 C 373.696 3.4333 0.626559 0
M  V30 4233 C 375.044 4.14319 0.92871 0
M  V30 4234 O 376.068 3.48993 0.712926 0
M  V30 4235 O 374.927 5.29846 1.33887 0
M  V30 4236 H 372.021 0.792347 0.236885 0
M  V30 4237 H 374.567 1.67437 -0.276211 0
M  V30 4238 H 373.339 3.90095 -0.306822 0
M  V30 4239 H 372.962 3.72181 1.39881 0
M  V30 4240 N 373.959 -0.0401083 1.57549 0
M  V30 4241 C 374.906 -1.04413 2.05831 0
M  V30 4242 C 375.876 -1.36585 0.945184 0
M  V30 4243 O 377.061 -1.47112 1.21502 0
M  V30 4244 C 374.201 -2.34336 2.53339 0
M  V30 4245 C 373.314 -2.08419 3.78398 0
M  V30 4246 C 372.449 -3.32133 4.14561 0
M  V30 4247 C 371.488 -3.01721 5.3257 0
M  V30 4248 N 370.625 -4.17855 5.64218 0
M  V30 4249 H 375.465 -0.625442 2.91363 0
M  V30 4250 H 373.002 -0.297218 1.44066 0
M  V30 4251 H 374.96 -3.10234 2.78946 0
M  V30 4252 H 373.59 -2.73948 1.7074 0
M  V30 4253 H 372.642 -1.23069 3.59942 0
M  V30 4254 H 373.954 -1.81978 4.64419 0
M  V30 4255 H 373.108 -4.16406 4.41238 0
M  V30 4256 H 371.847 -3.61678 3.2717 0
M  V30 4257 H 370.852 -2.15849 5.05657 0
M  V30 4258 H 372.077 -2.73466 6.21605 0
M  V30 4259 H 370.023 -4.47372 4.79786 0
M  V30 4260 H 369.94 -3.94798 6.44725 0
M  V30 4261 H 371.208 -5.03033 5.95465 0
M  V30 4262 N 375.437 -1.54477 -0.31217 0
M  V30 4263 C 376.853 -1.45442 -0.657185 0
M  V30 4264 C 377.053 -0.63653 -1.91182 0
M  V30 4265 O 376.109 -0.139815 -2.52113 0
M  V30 4266 C 377.422 -2.89287 -0.82058 0
M  V30 4267 C 378.97 -2.9926 -0.917188 0
M  V30 4268 C 379.445 -4.44279 -1.11267 0
M  V30 4269 N 380.936 -4.4794 -1.17914 0
M  V30 4270 C 381.671 -5.57318 -1.34848 0
M  V30 4271 N 381.167 -6.76642 -1.48752 0
M  V30 4272 N 382.96 -5.44986 -1.37647 0
M  V30 4273 H 375.111 -2.06129 0.512313 0
M  V30 4274 H 377.374 -0.933088 0.167485 0
M  V30 4275 H 377.08 -3.51687 0.0302604 0
M  V30 4276 H 376.954 -3.36061 -1.71298 0
M  V30 4277 H 379.341 -2.36981 -1.75852 0
M  V30 4278 H 379.422 -2.558 -0.00101257 0
M  V30 4279 H 379.066 -5.07149 -0.27614 0
M  V30 4280 H 378.996 -4.85359 -2.04289 0
M  V30 4281 H 381.487 -3.61969 -1.08567 0
M  V30 4282 H 381.8 -7.55758 -1.61397 0
M  V30 4283 H 380.145 -6.79529 -1.45828 0
M  V30 4284 H 383.336 -4.50715 -1.26388 0
M  V30 4285 H 383.509 -6.3028 -1.50501 0
M  V30 4286 N 376.915 0.57481 -1.46744 0
M  V30 4287 C 378.155 1.34369 -1.54027 0
M  V30 4288 C 378.519 1.91051 -0.190642 0
M  V30 4289 O 379.72 2.68444 -0.138255 0
M  V30 4290 C 377.991 2.43706 -2.61423 0
M  V30 4291 S 379.55 3.30915 -2.88167 0
M  V30 4292 H 376.368 0.45768 -0.544105 0
M  V30 4293 H 378.97 0.659959 -1.84024 0
M  V30 4294 H 377.674 2.0047 -3.58106 0
M  V30 4295 H 377.205 3.16842 -2.33184 0
M  V30 4296 H 379.22 4.42742 -2.24039 0
M  V30 4297 N 378.394 1.34581 0.820102 0
M  V30 4298 C 379.64 1.28294 1.57836 0
M  V30 4299 C 379.995 -0.145099 1.91852 0
M  V30 4300 O 379.288 -1.09209 1.57429 0
M  V30 4301 C 379.482 2.10997 2.8847 0
M  V30 4302 C 379.311 3.61698 2.67216 0
M  V30 4303 C 378.081 4.3097 2.63805 0
M  V30 4304 C 380.279 4.55638 2.38534 0
M  V30 4305 N 378.261 5.67502 2.34126 0
M  V30 4306 C 379.632 5.80194 2.18574 0
M  V30 4307 C 381.687 4.44523 2.24285 0
M  V30 4308 C 380.39 6.94886 1.8581 0
M  V30 4309 C 382.416 5.5905 1.92916 0
M  V30 4310 C 381.778 6.82627 1.73782 0
M  V30 4311 H 377.877 0.524697 0.579842 0
M  V30 4312 H 380.461 1.69323 0.961139 0
M  V30 4313 H 378.632 1.7226 3.48111 0
M  V30 4314 H 380.364 1.96333 3.53886 0
M  V30 4315 H 377.119 3.83438 2.77978 0
M  V30 4316 H 377.543 6.39525 2.22118 0
M  V30 4317 H 382.185 3.49599 2.37782 0
M  V30 4318 H 379.903 7.89789 1.7105 0
M  V30 4319 H 383.489 5.52396 1.82619 0
M  V30 4320 H 382.369 7.69748 1.49861 0
M  V30 4321 N 379.872 -1.04064 1.18357 0
M  V30 4322 C 380.802 -2.14001 0.934113 0
M  V30 4323 C 381.783 -1.69616 -0.128186 0
M  V30 4324 O 382.968 -1.94185 0.0244093 0
M  V30 4325 C 380.098 -3.44253 0.459066 0
M  V30 4326 C 379.052 -4.02261 1.46185 0
M  V30 4327 C 378.378 -5.27992 0.844322 0
M  V30 4328 C 379.678 -4.38432 2.83856 0
M  V30 4329 H 381.372 -2.35127 1.85352 0
M  V30 4330 H 378.918 -1.12998 0.892604 0
M  V30 4331 H 380.871 -4.20522 0.271907 0
M  V30 4332 H 379.595 -3.22813 -0.495912 0
M  V30 4333 H 378.254 -3.28074 1.63595 0
M  V30 4334 H 377.902 -5.02862 -0.117845 0
M  V30 4335 H 377.602 -5.67765 1.51384 0
M  V30 4336 H 379.126 -6.06938 0.667693 0
M  V30 4337 H 380.54 -5.05688 2.70098 0
M  V30 4338 H 378.937 -4.89254 3.47491 0
M  V30 4339 H 380.007 -3.4826 3.37406 0
M  V30 4340 N 381.35 -0.985608 -1.22978 0
M  V30 4341 C 382.596 -0.667998 -1.92118 0
M  V30 4342 C 382.951 0.790454 -1.75413 0
M  V30 4343 O 382.244 1.56336 -1.10768 0
M  V30 4344 C 382.438 -1.00014 -3.43121 0
M  V30 4345 C 382.267 -2.48933 -3.74516 0
M  V30 4346 C 381.037 -3.15218 -3.94925 0
M  V30 4347 C 383.235 -3.47024 -3.79577 0
M  V30 4348 N 381.217 -4.53689 -4.13569 0
M  V30 4349 C 382.588 -4.70923 -4.03276 0
M  V30 4350 C 384.643 -3.41432 -3.62393 0
M  V30 4351 C 383.346 -5.89914 -4.11574 0
M  V30 4352 C 385.372 -4.59793 -3.71947 0
M  V30 4353 C 384.734 -5.82489 -3.96088 0
M  V30 4354 H 380.833 -0.295589 -0.723983 0
M  V30 4355 H 383.417 -1.26413 -1.4808 0
M  V30 4356 H 381.588 -0.432655 -3.85983 0
M  V30 4357 H 383.32 -0.63927 -3.99619 0
M  V30 4358 H 380.075 -2.65702 -3.92045 0
M  V30 4359 H 380.499 -5.25492 -4.26834 0
M  V30 4360 H 385.141 -2.47594 -3.4272 0
M  V30 4361 H 382.859 -6.84164 -4.30053 0
M  V30 4362 H 386.445 -4.57048 -3.59998 0
M  V30 4363 H 385.325 -6.72546 -4.033 0
M  V30 4364 N 382.828 1.3818 -0.7579 0
M  V30 4365 C 384.074 2.00316 -0.316453 0
M  V30 4366 C 384.407 1.60026 1.10025 0
M  V30 4367 O 383.682 0.839835 1.75434 0
M  V30 4368 C 383.965 3.57349 -0.444245 0
M  V30 4369 C 383.818 4.07591 -1.90236 0
M  V30 4370 C 385.137 4.3981 0.1598 0
M  V30 4371 H 382.256 0.727741 -0.116459 0
M  V30 4372 H 384.898 1.6406 -0.958352 0
M  V30 4373 H 383.048 3.88365 0.102233 0
M  V30 4374 H 384.72 3.87199 -2.50748 0
M  V30 4375 H 382.963 3.60297 -2.41595 0
M  V30 4376 H 383.634 5.16677 -1.94291 0
M  V30 4377 H 386.11 4.14971 -0.306314 0
M  V30 4378 H 384.986 5.48885 0.0401675 0
M  V30 4379 H 385.247 4.24102 1.24859 0
M  V30 4380 N 384.306 0.507319 1.49211 0
M  V30 4381 C 385.552 -0.0269732 2.03382 0
M  V30 4382 C 385.907 -1.34111 1.37957 0
M  V30 4383 O 385.2 -1.84733 0.508351 0
M  V30 4384 C 385.394 -0.229513 3.56662 0
M  V30 4385 C 385.223 1.06344 4.36945 0
M  V30 4386 C 383.993 1.617 4.78729 0
M  V30 4387 C 386.191 1.96833 4.75143 0
M  V30 4388 N 384.173 2.8552 5.43463 0
M  V30 4389 C 385.544 3.0523 5.39661 0
M  V30 4390 C 387.599 1.97434 4.57082 0
M  V30 4391 C 386.302 4.14265 5.88028 0
M  V30 4392 C 388.328 3.05448 5.06414 0
M  V30 4393 C 387.69 4.12564 5.70938 0
M  V30 4394 H 383.789 0.0310673 0.781383 0
M  V30 4395 H 386.373 0.683579 1.82305 0
M  V30 4396 H 384.544 -0.909127 3.7761 0
M  V30 4397 H 386.276 -0.761377 3.97473 0
M  V30 4398 H 383.031 1.16132 4.59141 0
M  V30 4399 H 383.455 3.48499 5.80412 0
M  V30 4400 H 388.097 1.15924 4.06597 0
M  V30 4401 H 385.815 4.96569 6.3753 0
M  V30 4402 H 389.401 3.06941 4.94246 0
M  V30 4403 H 388.281 4.94767 6.0842 0
M  V30 4404 N 385.784 -1.5574 0.241426 0
M  V30 4405 C 386.694 -2.2479 -0.671305 0
M  V30 4406 C 387.71 -1.26217 -1.19772 0
M  V30 4407 O 388.886 -1.59079 -1.23514 0
M  V30 4408 C 385.951 -2.92966 -1.85396 0
M  V30 4409 C 385.012 -4.06935 -1.36756 0
M  V30 4410 C 384.245 -4.71851 -2.49384 0
M  V30 4411 O 384.468 -4.35823 -3.67987 0
M  V30 4412 O 383.402 -5.60467 -2.19454 0
M  V30 4413 H 387.228 -3.0349 -0.112966 0
M  V30 4414 H 384.813 -1.49397 0.0101513 0
M  V30 4415 H 386.695 -3.35927 -2.54423 0
M  V30 4416 H 385.37 -2.17211 -2.40002 0
M  V30 4417 H 384.277 -3.68503 -0.644726 0
M  V30 4418 H 385.61 -4.84492 -0.867647 0
M  V30 4419 N 387.262 0.0317525 -1.57568 0
M  V30 4420 C 388.225 1.01783 -2.0536 0
M  V30 4421 C 389.225 1.29203 -0.957253 0
M  V30 4422 O 390.415 1.24251 -1.22095 0
M  V30 4423 C 387.547 2.35137 -2.46827 0
M  V30 4424 H 388.74 0.605062 -2.93733 0
M  V30 4425 H 386.293 0.278514 -1.53799 0
M  V30 4426 H 387.028 2.81168 -1.61602 0
M  V30 4427 H 386.813 2.16566 -3.26866 0
M  V30 4428 H 388.303 3.05938 -2.84239 0
M  V30 4429 N 388.74 1.54641 0.303973 0
M  V30 4430 C 389.987 1.7378 1.03955 0
M  V30 4431 C 390.315 0.521986 1.87365 0
M  V30 4432 O 389.57 -0.496099 1.89308 0
M  V30 4433 C 389.869 2.97753 1.97681 0
M  V30 4434 C 389.535 4.31671 1.30271 0
M  V30 4435 C 388.197 4.68075 1.11619 0
M  V30 4436 C 390.549 5.147 0.82055 0
M  V30 4437 C 387.877 5.8509 0.434304 0
M  V30 4438 C 390.229 6.32416 0.152395 0
M  V30 4439 C 388.893 6.67484 -0.0461067 0
M  V30 4440 H 388.163 0.635908 0.380398 0
M  V30 4441 H 390.81 1.88896 0.314718 0
M  V30 4442 H 389.115 2.77406 2.76682 0
M  V30 4443 H 390.812 3.09756 2.54661 0
M  V30 4444 H 387.402 4.03041 1.45795 0
M  V30 4445 H 391.586 4.87077 0.952374 0
M  V30 4446 H 386.842 6.10806 0.269495 0
M  V30 4447 H 391.016 6.96023 -0.229126 0
M  V30 4448 H 388.643 7.58011 -0.576494 0
M  V30 4449 N 390.218 -0.567019 1.47046 0
M  V30 4450 C 391.464 -1.32658 1.53394 0
M  V30 4451 C 391.797 -1.93254 0.19148 0
M  V30 4452 O 391.072 -1.77338 -0.798844 0
M  V30 4453 C 391.355 -2.44412 2.64452 0
M  V30 4454 C 391.208 -1.88749 4.08282 0
M  V30 4455 C 392.527 -3.46387 2.71485 0
M  V30 4456 H 389.646 -0.48098 0.558415 0
M  V30 4457 H 392.288 -0.635481 1.79058 0
M  V30 4458 H 390.438 -3.03363 2.427 0
M  V30 4459 H 392.11 -1.34134 4.41368 0
M  V30 4460 H 390.353 -1.19481 4.17021 0
M  V30 4461 H 391.024 -2.69491 4.81745 0
M  V30 4462 H 393.5 -2.9734 2.91081 0
M  V30 4463 H 392.376 -4.2202 3.50985 0
M  V30 4464 H 392.637 -4.04616 1.78153 0
M  V30 4465 N 391.696 -1.35014 -0.812953 0
M  V30 4466 C 392.926 -1.30841 -1.59888 0
M  V30 4467 C 393.334 0.117576 -1.88834 0
M  V30 4468 O 392.677 1.07807 -1.48739 0
M  V30 4469 C 392.739 -2.0412 -2.95931 0
M  V30 4470 C 392.403 -3.53336 -2.89832 0
M  V30 4471 C 393.4 -4.48052 -2.63714 0
M  V30 4472 C 391.085 -3.95894 -3.0915 0
M  V30 4473 C 393.079 -5.833 -2.56982 0
M  V30 4474 C 390.766 -5.31239 -3.0204 0
M  V30 4475 C 391.764 -6.24754 -2.75991 0
M  V30 4476 O 391.452 -7.57617 -2.68833 0
M  V30 4477 H 391.184 -0.451215 -0.50337 0
M  V30 4478 H 393.738 -1.78354 -1.01877 0
M  V30 4479 H 391.968 -1.51235 -3.559 0
M  V30 4480 H 393.657 -1.93107 -3.57022 0
M  V30 4481 H 394.423 -4.16492 -2.48515 0
M  V30 4482 H 390.302 -3.23495 -3.28438 0
M  V30 4483 H 393.846 -6.56263 -2.36569 0
M  V30 4484 H 389.743 -5.62415 -3.16796 0
M  V30 4485 H 390.511 -7.67469 -2.84487 0
M  V30 4486 N 393.175 1.03435 -1.18907 0
M  V30 4487 C 394.138 2.09756 -0.923844 0
M  V30 4488 C 395.138 1.60528 0.093416 0
M  V30 4489 O 396.328 1.73631 -0.140727 0
M  V30 4490 C 393.46 3.38692 -0.387354 0
M  V30 4491 H 394.653 2.34719 -1.86674 0
M  V30 4492 H 392.206 1.19959 -1.00197 0
M  V30 4493 H 392.941 3.19396 0.561845 0
M  V30 4494 H 392.726 3.75742 -1.12074 0
M  V30 4495 H 394.216 4.17016 -0.220694 0
M  V30 4496 N 394.653 0.992116 1.22453 0
M  V30 4497 C 395.9 0.667534 1.91181 0
M  V30 4498 C 396.228 -0.800317 1.77271 0
M  V30 4499 O 395.483 -1.59421 1.13505 0
M  V30 4500 C 395.782 1.01832 3.42586 0
M  V30 4501 C 395.448 2.47831 3.76684 0
M  V30 4502 C 394.11 2.87729 3.85701 0
M  V30 4503 C 396.462 3.42466 3.92895 0
M  V30 4504 C 393.79 4.21252 4.08367 0
M  V30 4505 C 396.142 4.75648 4.17064 0
M  V30 4506 C 394.806 5.15288 4.24305 0
M  V30 4507 H 394.076 0.244268 0.699581 0
M  V30 4508 H 396.723 1.24816 1.45235 0
M  V30 4509 H 395.028 0.355769 3.90181 0
M  V30 4510 H 396.725 0.745228 3.94014 0
M  V30 4511 H 393.315 2.15905 3.70247 0
M  V30 4512 H 397.499 3.12814 3.85307 0
M  V30 4513 H 392.755 4.51554 4.122 0
M  V30 4514 H 396.929 5.48924 4.2855 0
M  V30 4515 H 394.556 6.18769 4.41621 0
M  V30 4516 N 396.131 -1.37776 0.765217 0
M  V30 4517 C 397.38 -1.99092 0.323307 0
M  V30 4518 C 397.693 -1.61434 -1.10446 0
M  V30 4519 O 398.899 -2.15805 -1.64743 0
M  V30 4520 C 397.355 -3.56019 0.527098 0
M  V30 4521 C 396.963 -4.0262 1.96471 0
M  V30 4522 C 398.707 -4.2424 0.148483 0
M  V30 4523 C 396.614 -5.52233 2.11644 0
M  V30 4524 H 395.544 -0.744846 0.117137 0
M  V30 4525 H 398.195 -1.57391 0.943417 0
M  V30 4526 H 396.577 -3.95667 -0.162372 0
M  V30 4527 H 397.751 -3.74234 2.68859 0
M  V30 4528 H 396.066 -3.47161 2.29931 0
M  V30 4529 H 398.663 -5.34159 0.240456 0
M  V30 4530 H 399.006 -4.06446 -0.900422 0
M  V30 4531 H 399.539 -3.89872 0.79025 0
M  V30 4532 H 396.278 -5.74945 3.1483 0
M  V30 4533 H 395.798 -5.82324 1.4373 0
M  V30 4534 H 397.477 -6.18106 1.91193 0
M  V30 4535 N 397.609 -0.515225 -1.4894 0
M  V30 4536 C 398.539 0.244628 -2.32215 0
M  V30 4537 C 399.52 0.949136 -1.41157 0
M  V30 4538 O 400.705 0.937783 -1.70057 0
M  V30 4539 C 397.835 1.30096 -3.22013 0
M  V30 4540 C 396.789 0.715486 -4.21977 0
M  V30 4541 C 396.115 1.87339 -5.00808 0
M  V30 4542 C 397.415 -0.302982 -5.2142 0
M  V30 4543 H 399.109 -0.450501 -2.95991 0
M  V30 4544 H 396.655 -0.218098 -1.42339 0
M  V30 4545 H 398.608 1.84037 -3.79089 0
M  V30 4546 H 397.332 2.02547 -2.56207 0
M  V30 4547 H 395.991 0.197715 -3.66066 0
M  V30 4548 H 395.639 2.58592 -4.31438 0
M  V30 4549 H 395.339 1.48764 -5.68457 0
M  V30 4550 H 396.863 2.41686 -5.60732 0
M  V30 4551 H 398.277 0.148802 -5.73107 0
M  V30 4552 H 396.674 -0.60532 -5.97039 0
M  V30 4553 H 397.744 -1.21395 -4.69459 0
M  V30 4554 N 399.087 1.5561 -0.249682 0
M  V30 4555 C 400.02 2.17537 0.689408 0
M  V30 4556 C 400.998 1.12829 1.17083 0
M  V30 4557 O 402.182 1.41229 1.24846 0
M  V30 4558 C 399.309 2.77828 1.93725 0
M  V30 4559 C 398.355 3.95615 1.59346 0
M  V30 4560 S 399.188 5.30988 0.69367 0
M  V30 4561 C 400.344 5.94734 1.95046 0
M  V30 4562 H 400.577 2.96852 0.163142 0
M  V30 4563 H 398.11 1.54362 -0.0341166 0
M  V30 4564 H 400.068 3.13199 2.65361 0
M  V30 4565 H 398.729 1.98454 2.43465 0
M  V30 4566 H 397.922 4.364 2.52132 0
M  V30 4567 H 397.524 3.61535 0.957512 0
M  V30 4568 H 399.816 6.12419 2.89739 0
M  V30 4569 H 400.759 6.90109 1.58604 0
M  V30 4570 H 401.167 5.23832 2.10381 0
M  V30 4571 N 400.565 -0.0233959 1.57583 0
M  V30 4572 C 401.515 -1.03023 2.03397 0
M  V30 4573 C 402.499 -1.31701 0.924315 0
M  V30 4574 O 403.691 -1.31191 1.18819 0
M  V30 4575 C 400.82 -2.32961 2.52159 0
M  V30 4576 C 399.906 -2.07349 3.69956 0
M  V30 4577 N 400.297 -1.51814 4.82479 0
M  V30 4578 C 398.595 -2.37606 3.77438 0
M  V30 4579 C 399.296 -1.42136 5.64068 0
M  V30 4580 N 398.272 -1.89891 5.09355 0
M  V30 4581 H 402.074 -0.594962 2.87815 0
M  V30 4582 H 399.588 -0.229586 1.60769 0
M  V30 4583 H 401.585 -3.05906 2.83244 0
M  V30 4584 H 400.245 -2.77162 1.69149 0
M  V30 4585 H 401.256 -1.20008 5.03804 0
M  V30 4586 H 397.933 -2.84842 3.05239 0
M  V30 4587 H 399.323 -0.996405 6.64471 0
M  V30 4588 N 402.043 -1.548 -0.295768 0
M  V30 4589 C 403.268 -1.78653 -1.05346 0
M  V30 4590 C 403.693 -0.546894 -1.79974 0
M  V30 4591 O 403.051 0.502763 -1.7419 0
M  V30 4592 C 403.099 -2.99679 -2.00561 0
M  V30 4593 O 402.203 -2.7317 -3.08953 0
M  V30 4594 H 401.544 -0.59116 -0.302367 0
M  V30 4595 H 404.074 -2.01895 -0.331598 0
M  V30 4596 H 404.084 -3.27793 -2.42932 0
M  V30 4597 H 402.759 -3.89562 -1.4565 0
M  V30 4598 H 401.336 -2.56089 -2.71059 0
M  V30 4599 N 403.521 0.559213 -1.47345 0
M  V30 4600 C 404.749 1.34194 -1.57479 0
M  V30 4601 C 405.164 1.87463 -0.224261 0
M  V30 4602 O 404.521 1.64888 0.782185 0
M  V30 4603 C 404.572 2.51324 -2.59843 0
M  V30 4604 O 404.293 2.00256 -3.89653 0
M  V30 4605 C 405.794 3.43563 -2.80142 0
M  V30 4606 H 403.014 0.409136 -0.531835 0
M  V30 4607 H 405.558 0.677609 -1.92947 0
M  V30 4608 H 403.713 3.13699 -2.27314 0
M  V30 4609 H 404.127 2.76708 -4.4557 0
M  V30 4610 H 405.601 4.2217 -3.55635 0
M  V30 4611 H 406.078 3.9698 -1.87892 0
M  V30 4612 H 406.684 2.87005 -3.1386 0
M  V30 4613 N 404.999 1.35443 0.805782 0
M  V30 4614 C 406.224 1.32037 1.59941 0
M  V30 4615 C 406.649 -0.0994215 1.87837 0
M  V30 4616 O 406.007 -1.06648 1.46615 0
M  V30 4617 C 406.055 2.13354 2.90711 0
M  V30 4618 O 405.159 1.5148 3.83572 0
M  V30 4619 H 404.5 0.452666 0.485787 0
M  V30 4620 H 407.03 1.78496 1.00002 0
M  V30 4621 H 407.04 2.25338 3.40128 0
M  V30 4622 H 405.715 3.16572 2.69732 0
M  V30 4623 H 404.292 1.4834 3.42125 0
M  V30 4624 N 406.477 -1.02803 1.19454 0
M  V30 4625 C 407.407 -2.12999 0.956758 0
M  V30 4626 C 408.388 -1.69743 -0.110188 0
M  V30 4627 O 409.573 -1.94148 0.0450038 0
M  V30 4628 C 406.703 -3.43746 0.495553 0
M  V30 4629 C 405.657 -4.00688 1.50443 0
M  V30 4630 C 404.983 -5.27067 0.900275 0
M  V30 4631 C 406.283 -4.35397 2.8849 0
M  V30 4632 H 407.977 -2.33148 1.87836 0
M  V30 4633 H 405.523 -1.12045 0.904539 0
M  V30 4634 H 407.476 -4.2021 0.316493 0
M  V30 4635 H 406.2 -3.23321 -0.461646 0
M  V30 4636 H 404.859 -3.2632 1.67065 0
M  V30 4637 H 404.507 -5.02959 -0.064503 0
M  V30 4638 H 404.207 -5.66127 1.57397 0
M  V30 4639 H 405.731 -6.06196 0.73203 0
M  V30 4640 H 407.145 -5.02795 2.75446 0
M  V30 4641 H 405.542 -4.85541 3.52661 0
M  V30 4642 H 406.612 -3.44662 3.41081 0
M  V30 4643 N 407.956 -0.998596 -1.21925 0
M  V30 4644 C 408.889 -0.498517 -2.22688 0
M  V30 4645 C 409.867 0.444301 -1.56412 0
M  V30 4646 O 411.051 0.368518 -1.84863 0
M  V30 4647 C 408.178 0.276639 -3.37568 0
M  V30 4648 C 407.224 -0.61302 -4.22071 0
M  V30 4649 S 408.057 -2.07168 -4.93803 0
M  V30 4650 C 409.213 -1.30617 -6.12119 0
M  V30 4651 H 409.446 -1.35234 -2.64762 0
M  V30 4652 H 406.979 -0.806018 -1.31692 0
M  V30 4653 H 408.937 0.717817 -4.04175 0
M  V30 4654 H 407.598 1.10581 -2.93991 0
M  V30 4655 H 406.791 -0.0162909 -5.03997 0
M  V30 4656 H 406.393 -0.991202 -3.60626 0
M  V30 4657 H 408.685 -0.57675 -6.75041 0
M  V30 4658 H 409.628 -2.10091 -6.76215 0
M  V30 4659 H 410.036 -0.816957 -5.58557 0
M  V30 4660 N 409.434 1.37368 -0.772513 0
M  V30 4661 C 410.364 2.32856 -0.173304 0
M  V30 4662 C 411.345 1.55818 0.682262 0
M  V30 4663 O 412.53 1.84052 0.619566 0
M  V30 4664 C 409.66 3.40048 0.706007 0
M  V30 4665 C 408.614 4.27973 -0.0483144 0
M  V30 4666 C 407.94 5.26184 0.950491 0
M  V30 4667 C 409.24 5.07665 -1.22776 0
M  V30 4668 H 410.934 2.83217 -0.971002 0
M  V30 4669 H 408.48 1.3617 -0.468377 0
M  V30 4670 H 410.433 4.05827 1.13501 0
M  V30 4671 H 409.157 2.88214 1.53623 0
M  V30 4672 H 407.816 3.63726 -0.458107 0
M  V30 4673 H 407.464 4.7063 1.77529 0
M  V30 4674 H 407.164 5.85872 0.450314 0
M  V30 4675 H 408.688 5.94838 1.37842 0
M  V30 4676 H 410.102 5.66578 -0.875366 0
M  V30 4677 H 408.499 5.76681 -1.66007 0
M  V30 4678 H 409.569 4.40294 -2.03149 0
M  V30 4679 N 410.912 0.523116 1.48665 0
M  V30 4680 C 412.137 -0.0117284 2.07397 0
M  V30 4681 C 412.562 -1.28031 1.37803 0
M  V30 4682 O 411.92 -1.75836 0.441762 0
M  V30 4683 C 411.968 -0.225786 3.59892 0
M  V30 4684 O 411.072 -1.29592 3.91509 0
M  V30 4685 H 410.413 0.0360673 0.66302 0
M  V30 4686 H 412.943 0.729066 1.9117 0
M  V30 4687 H 412.953 -0.450552 4.05505 0
M  V30 4688 H 411.628 0.700944 4.09951 0
M  V30 4689 H 410.205 -1.05436 3.57684 0
M  V30 4690 N 412.39 -1.55475 0.257931 0
M  V30 4691 C 413.615 -2.04064 -0.370488 0
M  V30 4692 C 414.04 -1.13565 -1.49948 0
M  V30 4693 O 413.398 -0.130781 -1.80828 0
M  V30 4694 C 413.446 -3.50554 -0.845237 0
M  V30 4695 O 412.55 -3.63173 -1.95394 0
M  V30 4696 H 411.891 -0.659257 -0.0792243 0
M  V30 4697 H 414.421 -2.00903 0.387212 0
M  V30 4698 H 414.431 -3.91588 -1.14555 0
M  V30 4699 H 413.106 -4.15896 -0.0191259 0
M  V30 4700 H 411.683 -3.34039 -1.65748 0
M  V30 4701 N 413.868 0.0150385 -1.57593 0
M  V30 4702 C 415.279 0.559832 -1.78109 0
M  V30 4703 C 415.63 1.74814 -0.890756 0
M  V30 4704 O 414.755 2.16216 -0.0892482 0
M  V30 4705 C 415.35 1.02238 -3.23006 0
M  V30 4706 C 413.909 1.51258 -3.44671 0
M  V30 4707 C 413.056 0.456955 -2.73509 0
M  V30 4708 H 416.007 -0.211169 -1.57289 0
M  V30 4709 H 416.028 1.88912 -3.30292 0
M  V30 4710 H 415.54 0.157302 -3.87781 0
M  V30 4711 H 413.641 2.39905 -2.8509 0
M  V30 4712 H 413.754 1.55042 -4.5332 0
M  V30 4713 H 412.118 0.915196 -2.37689 0
M  V30 4714 H 412.901 -0.398896 -3.40975 0
M  V30 4715 N 415.346 1.54954 0.287554 0
M  V30 4716 C 416.574 1.78881 1.03967 0
M  V30 4717 C 416.989 0.554894 1.80462 0
M  V30 4718 O 416.346 -0.475676 1.76192 0
M  V30 4719 C 416.397 3.00488 2.0097 0
M  V30 4720 O 416.118 4.19113 1.27577 0
M  V30 4721 C 417.619 3.36907 2.88112 0
M  V30 4722 H 414.839 0.596259 0.307761 0
M  V30 4723 H 417.383 2.01937 0.322749 0
M  V30 4724 H 415.538 2.79601 2.68145 0
M  V30 4725 H 415.952 4.87765 1.92835 0
M  V30 4726 H 417.426 4.25205 3.52001 0
M  V30 4727 H 417.903 2.55659 3.57121 0
M  V30 4728 H 418.509 3.60001 2.26449 0
M  V30 4729 N 416.824 -0.551391 1.4764 0
M  V30 4730 C 417.754 -1.66757 1.63445 0
M  V30 4731 C 418.735 -1.63077 0.483742 0
M  V30 4732 O 419.92 -1.80607 0.71377 0
M  V30 4733 C 417.05 -3.05387 1.65396 0
M  V30 4734 C 416.004 -3.23918 2.79752 0
M  V30 4735 C 415.33 -4.63393 2.66779 0
M  V30 4736 C 416.63 -3.08735 4.21284 0
M  V30 4737 H 418.324 -1.53786 2.56886 0
M  V30 4738 H 415.87 -0.738415 1.23626 0
M  V30 4739 H 417.823 -3.83325 1.75043 0
M  V30 4740 H 416.547 -3.19332 0.685195 0
M  V30 4741 H 415.206 -2.48391 2.69625 0
M  V30 4742 H 414.854 -4.74144 1.67918 0
M  V30 4743 H 414.554 -4.7674 3.43501 0
M  V30 4744 H 416.078 -5.43458 2.78364 0
M  V30 4745 H 417.492 -3.76484 4.32357 0
M  V30 4746 H 415.889 -3.33588 4.98838 0
M  V30 4747 H 416.959 -2.0541 4.39243 0
M  V30 4748 N 418.302 -1.35869 -0.798587 0
M  V30 4749 C 419.249 -1.29446 -1.91082 0
M  V30 4750 C 420.219 -0.16487 -1.6528 0
M  V30 4751 O 421.404 -0.349888 -1.87564 0
M  V30 4752 C 418.544 -1.0804 -3.27752 0
M  V30 4753 C 417.657 -2.29993 -3.65687 0
M  V30 4754 C 416.792 -2.01673 -4.91428 0
M  V30 4755 C 415.831 -3.19636 -5.22015 0
M  V30 4756 N 414.968 -2.91039 -6.38937 0
M  V30 4757 H 419.808 -2.24553 -1.95907 0
M  V30 4758 H 417.345 -1.11615 -0.958148 0
M  V30 4759 H 419.303 -0.936586 -4.06551 0
M  V30 4760 H 417.933 -0.16592 -3.22373 0
M  V30 4761 H 416.985 -2.55211 -2.82085 0
M  V30 4762 H 418.297 -3.18052 -3.84245 0
M  V30 4763 H 417.451 -1.84168 -5.78072 0
M  V30 4764 H 416.19 -1.10911 -4.74921 0
M  V30 4765 H 415.195 -3.37709 -4.33858 0
M  V30 4766 H 416.42 -4.11211 -5.40447 0
M  V30 4767 H 414.366 -2.0288 -6.2384 0
M  V30 4768 H 414.283 -3.72635 -6.57784 0
M  V30 4769 H 415.551 -2.77093 -7.28587 0
M  V30 4770 N 419.78 1.02168 -1.19998 0
M  V30 4771 C 421.196 1.27969 -0.953737 0
M  V30 4772 C 421.396 1.98079 0.369703 0
M  V30 4773 O 420.452 2.27306 1.09947 0
M  V30 4774 C 421.765 2.11971 -2.13281 0
M  V30 4775 C 423.313 2.25255 -2.17323 0
M  V30 4776 C 423.788 3.12632 -3.34702 0
M  V30 4777 N 425.279 3.2022 -3.34684 0
M  V30 4778 C 426.014 3.88039 -4.22153 0
M  V30 4779 N 425.51 4.58027 -5.19791 0
M  V30 4780 N 427.303 3.84511 -4.10009 0
M  V30 4781 H 419.454 0.550794 -2.05134 0
M  V30 4782 H 421.717 0.305683 -0.897364 0
M  V30 4783 H 421.423 1.67785 -3.09097 0
M  V30 4784 H 421.297 3.12699 -2.10949 0
M  V30 4785 H 423.684 2.68667 -1.22073 0
M  V30 4786 H 423.765 1.24053 -2.23706 0
M  V30 4787 H 423.409 2.69926 -4.30235 0
M  V30 4788 H 423.339 4.13909 -3.25556 0
M  V30 4789 H 425.83 2.70382 -2.64012 0
M  V30 4790 H 426.143 5.07429 -5.82868 0
M  V30 4791 H 424.488 4.56869 -5.23733 0
M  V30 4792 H 427.679 3.28978 -3.33003 0
M  V30 4793 H 427.852 4.3709 -4.78389 0
M  V30 4794 N 421.258 1.00505 1.21394 0
M  V30 4795 C 422.507 0.683159 1.89778 0
M  V30 4796 C 422.82 -0.789471 1.7896 0
M  V30 4797 O 424.026 -1.22344 2.42372 0
M  V30 4798 C 422.482 1.17146 3.40301 0
M  V30 4799 C 422.09 2.67017 3.5973 0
M  V30 4800 C 423.834 0.924461 4.14311 0
M  V30 4801 C 421.741 3.09387 5.04017 0
M  V30 4802 H 420.671 0.25183 0.710702 0
M  V30 4803 H 423.322 1.21622 1.37406 0
M  V30 4804 H 421.704 0.566451 3.91928 0
M  V30 4805 H 422.878 3.32968 3.18542 0
M  V30 4806 H 421.193 2.89732 2.99073 0
M  V30 4807 H 423.79 1.21658 5.20676 0
M  V30 4808 H 424.133 -0.139286 4.16067 0
M  V30 4809 H 424.666 1.49226 3.6875 0
M  V30 4810 H 421.405 4.14989 5.07409 0
M  V30 4811 H 420.925 2.48149 5.46061 0
M  V30 4812 H 422.604 3.01371 5.72525 0
M  V30 4813 N 422.737 -1.36956 0.779787 0
M  V30 4814 C 423.667 -2.32761 0.185651 0
M  V30 4815 C 424.648 -1.56177 -0.673989 0
M  V30 4816 O 425.833 -1.84378 -0.609797 0
M  V30 4817 C 422.963 -3.40418 -0.687964 0
M  V30 4818 C 421.917 -4.27941 0.0710102 0
M  V30 4819 C 421.243 -5.26681 -0.922573 0
M  V30 4820 C 422.543 -5.07006 1.25467 0
M  V30 4821 H 424.237 -2.82698 0.986008 0
M  V30 4822 H 421.783 -1.3592 0.475592 0
M  V30 4823 H 423.736 -4.06423 -1.11348 0
M  V30 4824 H 422.46 -2.89025 -1.52093 0
M  V30 4825 H 421.119 -3.63478 0.47739 0
M  V30 4826 H 420.767 -4.71565 -1.7503 0
M  V30 4827 H 420.467 -5.86103 -0.419237 0
M  V30 4828 H 421.991 -5.9556 -1.34686 0
M  V30 4829 H 423.405 -5.66105 0.905401 0
M  V30 4830 H 421.802 -5.75793 1.69063 0
M  V30 4831 H 422.872 -4.3921 2.05481 0
M  V30 4832 N 424.215 -0.530993 -1.48385 0
M  V30 4833 C 425.162 0.231223 -2.29639 0
M  V30 4834 C 426.132 0.932864 -1.37429 0
M  V30 4835 O 427.317 0.933692 -1.66394 0
M  V30 4836 C 424.457 1.27155 -3.2082 0
M  V30 4837 C 423.57 0.578655 -4.28107 0
M  V30 4838 C 422.705 1.602 -5.06467 0
M  V30 4839 C 421.744 0.892625 -6.05556 0
M  V30 4840 N 420.881 1.86157 -6.76971 0
M  V30 4841 H 425.721 -0.467848 -2.94305 0
M  V30 4842 H 423.258 -0.242556 -1.45086 0
M  V30 4843 H 425.216 1.88703 -3.72085 0
M  V30 4844 H 423.846 1.939 -2.58075 0
M  V30 4845 H 422.898 -0.150782 -3.80101 0
M  V30 4846 H 424.21 0.0217065 -4.98795 0
M  V30 4847 H 423.364 2.29173 -5.61751 0
M  V30 4848 H 422.103 2.19285 -4.35621 0
M  V30 4849 H 421.108 0.188829 -5.49476 0
M  V30 4850 H 422.333 0.307878 -6.78402 0
M  V30 4851 H 420.279 2.44147 -6.08875 0
M  V30 4852 H 420.196 1.35608 -7.43738 0
M  V30 4853 H 421.464 2.54325 -7.36844 0
M  V30 4854 N 425.693 1.55336 -0.266172 0
M  V30 4855 C 426.941 1.99003 0.35246 0
M  V30 4856 C 427.262 1.15591 1.57047 0
M  V30 4857 O 426.532 0.243268 1.94384 0
M  V30 4858 H 425.112 0.735025 0.133217 0
M  V30 4859 H 427.774 1.91367 -0.369434 0
M  V30 4860 H 426.87 3.05289 0.648453 0
M  V30 4861 N 427.171 -0.0066808 1.57599 0
M  V30 4862 C 428.118 -1.00024 2.08 0
M  V30 4863 C 429.088 -1.34549 0.973943 0
M  V30 4864 O 430.273 -1.44502 1.24595 0
M  V30 4865 C 427.413 -2.2891 2.58252 0
M  V30 4866 C 426.526 -2.00346 3.82734 0
M  V30 4867 C 425.661 -3.23265 4.21513 0
M  V30 4868 C 424.7 -2.90357 5.3885 0
M  V30 4869 N 423.837 -4.05793 5.72954 0
M  V30 4870 H 428.677 -0.563499 2.92624 0
M  V30 4871 H 426.214 -0.266592 1.44664 0
M  V30 4872 H 428.172 -3.04247 2.85464 0
M  V30 4873 H 426.802 -2.70265 1.76512 0
M  V30 4874 H 425.854 -1.15406 3.62471 0
M  V30 4875 H 427.166 -1.72086 4.68175 0
M  V30 4876 H 426.32 -4.06953 4.49971 0
M  V30 4877 H 425.059 -3.54657 3.34768 0
M  V30 4878 H 424.064 -2.05075 5.10122 0
M  V30 4879 H 425.289 -2.60219 6.27266 0
M  V30 4880 H 423.235 -4.37094 4.89167 0
M  V30 4881 H 423.152 -3.81034 6.52954 0
M  V30 4882 H 424.42 -4.90289 6.06001 0
M  V30 4883 N 428.649 -1.55105 -0.279332 0
M  V30 4884 C 429.889 -1.7716 -1.01949 0
M  V30 4885 C 430.253 -0.557511 -1.83728 0
M  V30 4886 O 431.454 -0.656198 -2.60667 0
M  V30 4887 C 429.725 -3.0372 -1.88385 0
M  V30 4888 S 431.284 -3.46868 -2.68752 0
M  V30 4889 H 428.102 -0.62253 -0.343478 0
M  V30 4890 H 430.704 -1.93329 -0.290572 0
M  V30 4891 H 429.408 -3.90184 -1.2722 0
M  V30 4892 H 428.939 -2.902 -2.65608 0
M  V30 4893 H 430.954 -3.05643 -3.90892 0
M  V30 4894 O 430.166 0.425144 -1.55804 0
M  V30 4895 H 430.857 1.07829 -1.60912 0
M  V30 END ATOM
M  V30 BEGIN BOND
M  V30 END BOND
M  V30 END CTAB
M  END
$$$$
