drugbank_target|Q9NY72 Sodium channel subunit beta-3 (DB00243; DB00313; DB00776; DB00907; DB05541; DB13269; DB13961)
 OpenBabel12092120363D

  0  0  0     0  0            999 V3000
M  V30 BEGIN CTAB
M  V30 COUNTS 3441 3481 0 0 0
M  V30 BEGIN ATOM
M  V30 1 H -0.908 1.98254 -0.117106 0
M  V30 2 N 0 1.576 0 0
M  V30 3 C 0.933 2.03868 1.02534 0
M  V30 4 C 1.911 0.928543 1.3348 0
M  V30 5 O 3.095 1.19667 1.45644 0
M  V30 6 C 0.222 2.43627 2.35294 0
M  V30 7 C -0.732 3.65373 2.2001 0
M  V30 8 S 0.101 5.13292 1.52614 0
M  V30 9 C 1.257 5.56322 2.86805 0
M  V30 10 H 1.49 2.90518 0.631377 0
M  V30 11 H -0.977 1.52953 0.210867 0
M  V30 12 H 0.981 2.67203 3.11629 0
M  V30 13 H -0.358 1.57376 2.7183 0
M  V30 14 H -1.165 3.90944 3.18086 0
M  V30 15 H -1.563 3.418 1.51819 0
M  V30 16 H 0.729 5.58782 3.83104 0
M  V30 17 H 1.672 6.56266 2.65933 0
M  V30 18 H 2.08 4.83886 2.90714 0
M  V30 19 N 1.4781 -0.272755 1.55222 0
M  V30 20 C 2.8891 -0.84378 1.66545 0
M  V30 21 C 3.2401 -1.87035 0.592641 0
M  V30 22 O 2.3651 -2.14761 -0.265818 0
M  V30 23 C 2.9601 -1.53723 3.01918 0
M  V30 24 C 1.5191 -2.05628 3.15268 0
M  V30 25 C 0.6661 -0.898424 2.62343 0
M  V30 26 H 3.6171 -0.0490998 1.58624 0
M  V30 27 H 3.6381 -2.40421 2.94921 0
M  V30 28 H 3.1501 -0.78983 3.79978 0
M  V30 29 H 1.2511 -2.83329 2.41983 0
M  V30 30 H 1.3641 -2.27142 4.21833 0
M  V30 31 H -0.2719 -1.29186 2.19506 0
M  V30 32 H 0.5111 -0.164528 3.42906 0
M  V30 33 N 2.9562 -1.48159 -0.537278 0
M  V30 34 C 3.9192 -1.61665 -1.62472 0
M  V30 35 C 4.9192 -0.490395 -1.5314 0
M  V30 36 O 6.1092 -0.755998 -1.5694 0
M  V30 37 C 3.2412 -1.57997 -3.02076 0
M  V30 38 H 4.4342 -2.58621 -1.51839 0
M  V30 39 H 1.9872 -1.36647 -0.758771 0
M  V30 40 H 2.7222 -0.624913 -3.18222 0
M  V30 41 H 2.5072 -2.39755 -3.10258 0
M  V30 42 H 3.9972 -1.70627 -3.81151 0
M  V30 43 N 4.4343 0.785586 -1.36625 0
M  V30 44 C 5.6813 1.54362 -1.31067 0
M  V30 45 C 6.0093 1.94195 0.10893 0
M  V30 46 O 5.2643 1.63262 1.07908 0
M  V30 47 C 5.5633 2.83007 -2.1827 0
M  V30 48 C 5.2293 2.62294 -3.6676 0
M  V30 49 C 3.8913 2.56353 -4.0723 0
M  V30 50 C 6.2433 2.43371 -4.6089 0
M  V30 51 C 3.5713 2.29461 -5.39967 0
M  V30 52 C 5.9233 2.18005 -5.93849 0
M  V30 53 C 4.5873 2.105 -6.3344 0
M  V30 54 H 3.8573 0.564851 -0.479609 0
M  V30 55 H 6.5043 0.906028 -1.68711 0
M  V30 56 H 4.8093 3.51253 -1.73576 0
M  V30 57 H 6.5063 3.40817 -2.11292 0
M  V30 58 H 3.0963 2.67774 -3.34656 0
M  V30 59 H 7.2803 2.46959 -4.30494 0
M  V30 60 H 2.5363 2.22135 -5.69619 0
M  V30 61 H 6.7103 2.02359 -6.66351 0
M  V30 62 H 4.3373 1.89425 -7.36222 0
M  V30 63 N 5.9124 1.20967 1.01018 0
M  V30 64 C 6.8604 0.961223 2.1181 0
M  V30 65 C 7.8544 -0.0897034 1.69162 0
M  V30 66 O 9.0604 0.0612271 1.79896 0
M  V30 67 H 5.4354 0.29355 0.692338 0
M  V30 68 H 7.4064 1.90178 2.29946 0
M  V30 69 C 6.1554 0.536854 3.4353 0
M  V30 70 H 5.4784 1.33713 3.76777 0
M  V30 71 H 6.9184 0.402286 4.22087 0
M  V30 72 C 5.3774 -0.751574 3.2841 0
M  V30 73 O 5.9074 -1.80841 3.58691 0
M  V30 74 N 4.1134 -0.716079 2.81639 0
M  V30 75 H 3.6604 0.144236 2.57196 0
M  V30 76 H 3.6184 -1.57847 2.71904 0
M  V30 77 N 7.3905 -1.2043 1.01659 0
M  V30 78 C 8.8065 -1.41852 0.731442 0
M  V30 79 C 9.0065 -1.89358 -0.688898 0
M  V30 80 O 8.0625 -2.06247 -1.45666 0
M  V30 81 C 9.3755 -2.44019 1.75714 0
M  V30 82 C 10.9235 -2.57785 1.77527 0
M  V30 83 C 11.3985 -3.63194 2.79023 0
M  V30 84 N 12.8895 -3.70678 2.77763 0
M  V30 85 C 13.6245 -4.51897 3.52954 0
M  V30 86 N 13.1205 -5.36921 4.37821 0
M  V30 87 N 14.9135 -4.4643 3.41551 0
M  V30 88 H 7.0645 -0.879093 1.93354 0
M  V30 89 H 9.3275 -0.448425 0.835236 0
M  V30 90 H 9.0335 -2.1611 2.77469 0
M  V30 91 H 8.9075 -3.43007 1.56927 0
M  V30 92 H 11.2945 -2.85023 0.764569 0
M  V30 93 H 11.3755 -1.58992 2.00387 0
M  V30 94 H 11.0195 -3.36699 3.80258 0
M  V30 95 H 10.9495 -4.61609 2.53425 0
M  V30 96 H 13.4405 -3.09944 2.16201 0
M  V30 97 H 13.7535 -5.95981 4.91962 0
M  V30 98 H 12.0985 -5.36424 4.41899 0
M  V30 99 H 15.2895 -3.79042 2.74672 0
M  V30 100 H 15.4625 -5.09491 4.00404 0
M  V30 101 N 8.8686 -0.792821 -1.36206 0
M  V30 102 C 9.7986 -0.207853 -2.32573 0
M  V30 103 C 10.7796 0.659055 -1.56813 0
M  V30 104 O 11.9646 0.592176 -1.84951 0
M  V30 105 C 9.0946 0.655449 -3.41059 0
M  V30 106 C 8.0486 -0.111842 -4.27854 0
M  V30 107 C 7.3746 0.872274 -5.27537 0
M  V30 108 C 8.6746 -1.30299 -5.05786 0
M  V30 109 H 10.3686 -1.01294 -2.81744 0
M  V30 110 H 7.9146 -0.48854 -1.3546 0
M  V30 111 H 9.8676 1.07464 -4.07467 0
M  V30 112 H 8.5916 1.49328 -2.90463 0
M  V30 113 H 7.2506 -0.512053 -3.63006 0
M  V30 114 H 6.8986 1.70523 -4.73214 0
M  V30 115 H 6.5986 0.363291 -5.86476 0
M  V30 116 H 8.1226 1.28996 -5.96818 0
M  V30 117 H 9.5366 -0.959379 -5.65216 0
M  V30 118 H 7.9336 -1.7455 -5.74154 0
M  V30 119 H 9.0036 -2.09663 -4.37229 0
M  V30 120 N 10.3467 1.47872 -0.545128 0
M  V30 121 C 11.5937 2.02493 -0.0165858 0
M  V30 122 C 11.9217 1.42073 1.32836 0
M  V30 123 O 11.1767 0.561459 1.87473 0
M  V30 124 C 11.4757 3.57131 0.13867 0
M  V30 125 C 11.1417 4.36411 -1.13384 0
M  V30 126 C 9.8037 4.57792 -1.48256 0
M  V30 127 C 12.1557 4.82223 -1.97764 0
M  V30 128 C 9.4837 5.22233 -2.67376 0
M  V30 129 C 11.8357 5.47977 -3.16076 0
M  V30 130 C 10.4997 5.67593 -3.51275 0
M  V30 131 H 9.7697 0.740975 -0.00606918 0
M  V30 132 H 12.4167 1.77683 -0.714207 0
M  V30 133 H 10.7217 3.80865 0.919172 0
M  V30 134 H 12.4187 3.97031 0.562782 0
M  V30 135 H 9.0087 4.2004 -0.852297 0
M  V30 136 H 13.1927 4.65493 -1.72132 0
M  V30 137 H 8.4487 5.35616 -2.94831 0
M  V30 138 H 12.6227 5.8244 -3.81755 0
M  V30 139 H 10.2497 6.17298 -4.43675 0
M  V30 140 N 11.8248 0.280983 1.55075 0
M  V30 141 C 13.2358 -0.215629 1.85451 0
M  V30 142 C 13.5868 -1.54991 1.203 0
M  V30 143 O 12.7118 -2.10699 0.493435 0
M  V30 144 C 13.3068 -0.398026 3.36454 0
M  V30 145 C 11.8658 -0.838866 3.66933 0
M  V30 146 C 11.0128 0.064458 2.77225 0
M  V30 147 H 13.9638 0.502601 1.50531 0
M  V30 148 H 13.9848 -1.23569 3.59876 0
M  V30 149 H 13.4968 0.573241 3.83843 0
M  V30 150 H 11.5978 -1.8214 3.25048 0
M  V30 151 H 11.7108 -0.672123 4.74362 0
M  V30 152 H 10.0748 -0.452863 2.50642 0
M  V30 153 H 10.8578 1.03172 3.2743 0
M  V30 154 N 13.3029 -1.57598 0.00835791 0
M  V30 155 C 14.2329 -2.1198 -0.979113 0
M  V30 156 C 15.2139 -1.03091 -1.35301 0
M  V30 157 O 16.3989 -1.30818 -1.43528 0
M  V30 158 C 13.5289 -2.62995 -2.26828 0
M  V30 159 C 12.4829 -3.76485 -2.03576 0
M  V30 160 C 11.8089 -4.13846 -3.38579 0
M  V30 161 C 13.1089 -5.0342 -1.39161 0
M  V30 162 H 14.8029 -2.94738 -0.526281 0
M  V30 163 H 12.3489 -1.41783 -0.251704 0
M  V30 164 H 14.3019 -2.99669 -2.96271 0
M  V30 165 H 13.0259 -1.7737 -2.7424 0
M  V30 166 H 11.6849 -3.40217 -1.36557 0
M  V30 167 H 11.3329 -3.25232 -3.83709 0
M  V30 168 H 11.0329 -4.90312 -3.23834 0
M  V30 169 H 12.5569 -4.53086 -4.09323 0
M  V30 170 H 13.9709 -5.37812 -1.98573 0
M  V30 171 H 12.3679 -5.84746 -1.34878 0
M  V30 172 H 13.4379 -4.83548 -0.361868 0
M  V30 173 N 14.781 0.264519 -1.55364 0
M  V30 174 C 15.744 1.31046 -1.88042 0
M  V30 175 C 16.744 1.41943 -0.755569 0
M  V30 176 O 17.934 1.40947 -1.02369 0
M  V30 177 C 15.066 2.69067 -2.09323 0
M  V30 178 H 16.259 1.03297 -2.81549 0
M  V30 179 H 13.812 0.502989 -1.47986 0
M  V30 180 H 14.547 3.01982 -1.18226 0
M  V30 181 H 14.332 2.62542 -2.91229 0
M  V30 182 H 15.822 3.44623 -2.35848 0
M  V30 183 N 16.2591 1.48442 0.529413 0
M  V30 184 C 17.4841 1.60406 1.31471 0
M  V30 185 C 17.9091 0.264738 1.86228 0
M  V30 186 O 17.2671 -0.763668 1.64432 0
M  V30 187 C 17.3151 2.65419 2.44101 0
M  V30 188 O 16.4191 2.22618 3.47153 0
M  V30 189 H 15.7601 0.537863 0.389357 0
M  V30 190 H 18.2901 1.94432 0.636965 0
M  V30 191 H 18.3001 2.86709 2.90279 0
M  V30 192 H 16.9751 3.62652 2.03608 0
M  V30 193 H 15.5521 2.11543 3.0709 0
M  V30 194 N 17.7372 -0.778329 1.37039 0
M  V30 195 C 18.6672 -1.90546 1.34962 0
M  V30 196 C 19.6482 -1.68681 0.219274 0
M  V30 197 O 20.8332 -1.89634 0.418624 0
M  V30 198 C 17.9632 -3.27734 1.14925 0
M  V30 199 C 16.9172 -3.64147 2.24902 0
M  V30 200 C 16.2432 -4.99806 1.89996 0
M  V30 201 C 17.5432 -3.71579 3.67051 0
M  V30 202 H 19.2372 -1.92541 2.29277 0
M  V30 203 H 16.7832 -0.924948 1.10366 0
M  V30 204 H 18.7362 -4.06215 1.12104 0
M  V30 205 H 17.4602 -3.26154 0.170631 0
M  V30 206 H 16.1192 -2.8797 2.26868 0
M  V30 207 H 15.7672 -4.94759 0.906796 0
M  V30 208 H 15.4672 -5.25139 2.63634 0
M  V30 209 H 16.9912 -5.80694 1.88749 0
M  V30 210 H 18.4052 -4.40227 3.67251 0
M  V30 211 H 16.8022 -4.08405 4.39688 0
M  V30 212 H 17.8722 -2.72404 4.01154 0
M  V30 213 N 19.2153 -1.21501 -1.00376 0
M  V30 214 C 20.4613 -1.03452 -1.74429 0
M  V30 215 C 20.7943 0.430764 -1.89362 0
M  V30 216 O 20.0693 1.31962 -1.42886 0
M  V30 217 C 20.3523 -1.73375 -3.15615 0
M  V30 218 C 20.2053 -3.27431 -3.08397 0
M  V30 219 C 21.5243 -1.47732 -4.14564 0
M  V30 220 H 18.6433 -0.377226 -0.633143 0
M  V30 221 H 21.2853 -1.49693 -1.17013 0
M  V30 222 H 19.4353 -1.34064 -3.64636 0
M  V30 223 H 21.1073 -3.76119 -2.67081 0
M  V30 224 H 19.3503 -3.5767 -2.45468 0
M  V30 225 H 20.0213 -3.71524 -4.08258 0
M  V30 226 H 22.4973 -1.8186 -3.74254 0
M  V30 227 H 21.3733 -1.99169 -5.11491 0
M  V30 228 H 21.6343 -0.407589 -4.40217 0
M  V30 229 N 20.6934 1.19889 -1.02296 0
M  V30 230 C 21.6234 2.25141 -0.619174 0
M  V30 231 C 22.6044 1.66051 0.368915 0
M  V30 232 O 23.7894 1.92546 0.252941 0
M  V30 233 C 20.9194 3.4728 0.0368783 0
M  V30 234 C 19.8734 4.19005 -0.872865 0
M  V30 235 C 19.1994 5.34637 -0.0822402 0
M  V30 236 C 20.4994 4.74452 -2.18387 0
M  V30 237 H 22.1934 2.59171 -1.49903 0
M  V30 238 H 19.7394 1.24579 -0.722222 0
M  V30 239 H 21.6924 4.20098 0.330958 0
M  V30 240 H 20.4164 3.12433 0.95149 0
M  V30 241 H 19.0754 3.48061 -1.15105 0
M  V30 242 H 18.7234 4.96034 0.83422 0
M  V30 243 H 18.4234 5.83557 -0.688149 0
M  V30 244 H 19.9474 6.10255 0.205238 0
M  V30 245 H 21.3614 5.39055 -1.95172 0
M  V30 246 H 19.7584 5.33834 -2.74119 0
M  V30 247 H 20.8284 3.92844 -2.84257 0
M  V30 248 N 22.1715 0.800033 1.35784 0
M  V30 249 C 23.4205 0.37387 1.98205 0
M  V30 250 C 23.7335 -1.06302 1.64193 0
M  V30 251 O 24.9395 -1.59198 2.19928 0
M  V30 252 C 23.3955 0.617532 3.54562 0
M  V30 253 C 23.0035 2.06654 3.9749 0
M  V30 254 C 24.7475 0.256401 4.23725 0
M  V30 255 C 22.6545 2.2563 5.46667 0
M  V30 256 H 21.5845 0.136055 0.741623 0
M  V30 257 H 24.2355 0.983166 1.54939 0
M  V30 258 H 22.6175 -0.0616248 3.95952 0
M  V30 259 H 23.7915 2.78296 3.67271 0
M  V30 260 H 22.1065 2.38691 3.41197 0
M  V30 261 H 24.7035 0.376318 5.33374 0
M  V30 262 H 25.0465 -0.796692 4.08606 0
M  V30 263 H 25.5795 0.889214 3.87734 0
M  V30 264 H 22.3185 3.2936 5.66747 0
M  V30 265 H 21.8385 1.58504 5.78478 0
M  V30 266 H 23.5175 2.06861 6.1304 0
M  V30 267 N 23.6496 -1.47581 0.552962 0
M  V30 268 C 24.8796 -2.06575 0.0320091 0
M  V30 269 C 25.2876 -1.4067 -1.26525 0
M  V30 270 O 24.6306 -0.495808 -1.76883 0
M  V30 271 C 24.6926 -3.58705 -0.238913 0
M  V30 272 C 24.3566 -4.46625 0.968272 0
M  V30 273 C 25.3536 -4.85 1.87274 0
M  V30 274 C 23.0386 -4.88201 1.18175 0
M  V30 275 C 25.0326 -5.63745 2.9744 0
M  V30 276 C 22.7196 -5.66712 2.28651 0
M  V30 277 C 23.7176 -6.04394 3.18114 0
M  V30 278 O 23.4056 -6.81324 4.26676 0
M  V30 279 H 23.1376 -0.674763 0.0408689 0
M  V30 280 H 25.6916 -1.90634 0.764719 0
M  V30 281 H 23.9216 -3.72844 -1.02588 0
M  V30 282 H 25.6106 -3.99735 -0.704731 0
M  V30 283 H 26.3766 -4.53482 1.71984 0
M  V30 284 H 22.2556 -4.58339 0.494593 0
M  V30 285 H 25.7996 -5.93077 3.67296 0
M  V30 286 H 21.6966 -5.97642 2.43915 0
M  V30 287 H 22.4646 -6.99712 4.24671 0
M  V30 288 N 25.1277 -0.289203 -1.54924 0
M  V30 289 C 26.3737 0.316922 -2.00916 0
M  V30 290 C 26.7287 1.52424 -1.17408 0
M  V30 291 O 26.0217 1.90097 -0.239536 0
M  V30 292 C 26.2157 0.736119 -3.49737 0
M  V30 293 C 26.0447 -0.429036 -4.47649 0
M  V30 294 C 24.8147 -0.917311 -4.96904 0
M  V30 295 C 27.0127 -1.27016 -4.98369 0
M  V30 296 N 24.9947 -2.05046 -5.78644 0
M  V30 297 C 26.3657 -2.25097 -5.77695 0
M  V30 298 C 28.4207 -1.30188 -4.80578 0
M  V30 299 C 27.1237 -3.26114 -6.41126 0
M  V30 300 C 29.1497 -2.30057 -5.44819 0
M  V30 301 C 28.5117 -3.2687 -6.23968 0
M  V30 302 H 24.6107 0.0807535 -0.777819 0
M  V30 303 H 27.1947 -0.416434 -1.90194 0
M  V30 304 H 25.3657 1.43867 -3.60773 0
M  V30 305 H 27.0977 1.32078 -3.82541 0
M  V30 306 H 23.8527 -0.494248 -4.71014 0
M  V30 307 H 24.2767 -2.62108 -6.24202 0
M  V30 308 H 28.9187 -0.567163 -4.18979 0
M  V30 309 H 26.6367 -4.00512 -7.01866 0
M  V30 310 H 30.2227 -2.33271 -5.32988 0
M  V30 311 H 29.1027 -4.02883 -6.72796 0
M  V30 312 N 26.6058 1.57591 -0.0167156 0
M  V30 313 C 27.8518 1.91567 0.665582 0
M  V30 314 C 28.1848 0.892298 1.72487 0
M  V30 315 O 27.4598 -0.0867127 1.94307 0
M  V30 316 C 27.7428 3.36069 1.29342 0
M  V30 317 C 27.5958 4.49135 0.244541 0
M  V30 318 C 28.9148 3.803 2.21495 0
M  V30 319 H 26.0338 0.69666 0.240488 0
M  V30 320 H 28.6758 1.89866 -0.0714356 0
M  V30 321 H 26.8258 3.3765 1.92158 0
M  V30 322 H 28.4978 4.59689 -0.385228 0
M  V30 323 H 26.7408 4.3165 -0.431379 0
M  V30 324 H 27.4118 5.47242 0.723207 0
M  V30 325 H 29.8878 3.80377 1.68678 0
M  V30 326 H 28.7638 4.82127 2.62382 0
M  V30 327 H 29.0248 3.15104 3.101 0
M  V30 328 N 28.0839 -0.256276 1.55502 0
M  V30 329 C 29.3089 -1.00766 1.81276 0
M  V30 330 C 29.7339 -1.78524 0.59252 0
M  V30 331 O 29.0919 -1.75413 -0.45827 0
M  V30 332 C 29.1399 -1.92869 3.04687 0
M  V30 333 O 28.2439 -3.019 2.80945 0
M  V30 334 H 27.5849 -0.287224 0.598664 0
M  V30 335 H 30.1149 -0.280109 2.02674 0
M  V30 336 H 30.1249 -2.34511 3.33869 0
M  V30 337 H 28.7999 -1.35689 3.93143 0
M  V30 338 H 27.3769 -2.64454 2.62904 0
M  V30 339 N 29.562 -1.4872 -0.521534 0
M  V30 340 C 30.808 -1.574 -1.27879 0
M  V30 341 C 31.141 -0.250817 -1.92573 0
M  V30 342 O 30.416 0.743934 -1.79711 0
M  V30 343 C 30.699 -2.71843 -2.36164 0
M  V30 344 C 30.552 -4.13893 -1.76105 0
M  V30 345 C 31.871 -2.82008 -3.37875 0
M  V30 346 H 28.99 -0.572941 -0.463581 0
M  V30 347 H 31.632 -1.80927 -0.580119 0
M  V30 348 H 29.782 -2.51914 -2.95756 0
M  V30 349 H 31.454 -4.45284 -1.20499 0
M  V30 350 H 29.697 -4.20498 -1.06601 0
M  V30 351 H 30.368 -4.89804 -2.5455 0
M  V30 352 H 32.844 -3.00086 -2.88249 0
M  V30 353 H 31.72 -3.63796 -4.11028 0
M  V30 354 H 31.981 -1.90511 -3.98946 0
M  V30 355 N 31.0401 0.771051 -1.3745 0
M  V30 356 C 32.2801 1.54264 -1.34096 0
M  V30 357 C 32.6441 1.91858 0.0737639 0
M  V30 358 O 33.8451 2.67797 0.23203 0
M  V30 359 C 32.1161 2.77326 -2.25445 0
M  V30 360 S 33.6751 3.67383 -2.39948 0
M  V30 361 H 30.4931 0.528122 -0.476034 0
M  V30 362 H 33.0951 0.906633 -1.73206 0
M  V30 363 H 31.7991 2.47788 -3.27153 0
M  V30 364 H 31.3301 3.45886 -1.87421 0
M  V30 365 H 33.3451 4.69334 -1.61059 0
M  V30 366 N 32.5182 1.22032 0.997298 0
M  V30 367 C 33.7652 1.04222 1.73621 0
M  V30 368 C 34.0932 -0.423264 1.89839 0
M  V30 369 O 33.3482 -1.3302 1.43542 0
M  V30 370 C 33.6472 1.69345 3.14733 0
M  V30 371 C 33.3132 3.19226 3.18442 0
M  V30 372 C 31.9752 3.60124 3.19161 0
M  V30 373 C 34.3272 4.15181 3.15078 0
M  V30 374 C 31.6552 4.95467 3.14212 0
M  V30 375 C 34.0072 5.50495 3.1167 0
M  V30 376 C 32.6712 5.90779 3.10703 0
M  V30 377 H 31.9412 0.381374 0.635323 0
M  V30 378 H 34.5882 1.51732 1.16831 0
M  V30 379 H 32.8932 1.14147 3.74803 0
M  V30 380 H 34.5902 1.53059 3.7064 0
M  V30 381 H 31.1802 2.86659 3.18629 0
M  V30 382 H 35.3642 3.84605 3.13676 0
M  V30 383 H 30.6202 5.25916 3.11805 0
M  V30 384 H 34.7942 6.24576 3.08022 0
M  V30 385 H 32.4212 6.9562 3.06622 0
M  V30 386 N 33.9963 -1.19345 1.0293 0
M  V30 387 C 35.4073 -1.70725 0.755633 0
M  V30 388 C 35.7583 -1.82326 -0.724676 0
M  V30 389 O 34.8833 -1.49471 -1.56484 0
M  V30 390 C 35.4783 -3.10084 1.36503 0
M  V30 391 C 34.0373 -3.58723 1.13994 0
M  V30 392 C 33.1843 -2.35577 1.46283 0
M  V30 393 H 36.1353 -1.0418 1.19718 0
M  V30 394 H 36.1563 -3.72787 0.762217 0
M  V30 395 H 35.6683 -3.01609 2.44241 0
M  V30 396 H 33.7693 -3.72512 0.0807901 0
M  V30 397 H 33.8823 -4.42816 1.82894 0
M  V30 398 H 32.2463 -2.38935 0.88217 0
M  V30 399 H 33.0293 -2.29731 2.55105 0
M  V30 400 N 35.4744 -0.807222 -1.35358 0
M  V30 401 C 36.7204 -0.388463 -1.99045 0
M  V30 402 C 37.0534 1.04184 -1.63888 0
M  V30 403 O 36.3284 1.72292 -0.902535 0
M  V30 404 C 36.6114 -0.572783 -3.55515 0
M  V30 405 C 36.4644 -2.04807 -4.00468 0
M  V30 406 C 37.7834 0.00114064 -4.401 0
M  V30 407 H 34.9024 -0.142619 -0.723069 0
M  V30 408 H 37.5444 -1.01687 -1.60498 0
M  V30 409 H 35.6944 -0.0378425 -3.88482 0
M  V30 410 H 37.3664 -2.64544 -3.77908 0
M  V30 411 H 35.6094 -2.54427 -3.51353 0
M  V30 412 H 36.2804 -2.12792 -5.09337 0
M  V30 413 H 38.7564 -0.455716 -4.13597 0
M  V30 414 H 37.6324 -0.157737 -5.48673 0
M  V30 415 H 37.8934 1.09488 -4.28328 0
M  V30 416 N 36.9525 1.47285 -0.560781 0
M  V30 417 C 38.1925 2.0436 -0.0404627 0
M  V30 418 C 38.5565 1.42534 1.28639 0
M  V30 419 O 39.7575 1.90677 1.89462 0
M  V30 420 C 38.0285 3.57369 0.0471856 0
M  V30 421 S 39.5875 4.3579 0.513109 0
M  V30 422 H 36.4055 0.710492 -0.0268674 0
M  V30 423 H 39.0075 1.80611 -0.748323 0
M  V30 424 H 37.7115 3.9989 -0.922817 0
M  V30 425 H 37.2425 3.8562 0.778491 0
M  V30 426 H 39.2575 4.63476 1.77212 0
M  V30 427 N 38.4306 0.297415 1.54768 0
M  V30 428 C 39.6766 -0.313376 2.00364 0
M  V30 429 C 40.0096 -1.53815 1.18553 0
M  V30 430 O 39.2846 -1.92739 0.261103 0
M  V30 431 C 39.5676 -0.673525 3.53745 0
M  V30 432 C 39.4206 0.560133 4.46299 0
M  V30 433 C 40.7396 -1.50143 4.13697 0
M  V30 434 H 37.8586 -0.112428 0.728374 0
M  V30 435 H 40.5006 0.4088 1.8555 0
M  V30 436 H 38.6506 -1.28881 3.665 0
M  V30 437 H 40.3226 1.19863 4.45455 0
M  V30 438 H 38.5656 1.19405 4.17043 0
M  V30 439 H 39.2366 0.26405 5.51368 0
M  V30 440 H 41.7126 -0.981588 4.04356 0
M  V30 441 H 40.5886 -1.72221 5.21182 0
M  V30 442 H 40.8496 -2.48952 3.65343 0
M  V30 443 N 39.9087 -1.5758 0.0250728 0
M  V30 444 C 40.8187 -2.1343 -0.973905 0
M  V30 445 C 41.8347 -1.08556 -1.35984 0
M  V30 446 O 43.0107 -1.40592 -1.44207 0
M  V30 447 C 40.0757 -2.64703 -2.23904 0
M  V30 448 C 39.1367 -3.84276 -1.91391 0
M  V30 449 C 38.3697 -4.33095 -3.11873 0
M  V30 450 O 38.5927 -3.81107 -4.24398 0
M  V30 451 O 37.5267 -5.24984 -2.94406 0
M  V30 452 H 41.3527 -2.99057 -0.529036 0
M  V30 453 H 38.9377 -1.48118 -0.195288 0
M  V30 454 H 40.8197 -2.97769 -2.98181 0
M  V30 455 H 39.4947 -1.82161 -2.6758 0
M  V30 456 H 38.4017 -3.56143 -1.14511 0
M  V30 457 H 39.7347 -4.67968 -1.52534 0
M  V30 458 N 41.3868 0.248026 -1.55636 0
M  V30 459 C 42.6328 0.97767 -1.77678 0
M  V30 460 C 42.9658 1.85016 -0.590135 0
M  V30 461 O 42.2408 1.90095 0.411611 0
M  V30 462 C 42.5238 1.83914 -3.09593 0
M  V30 463 C 42.3768 0.99491 -4.38659 0
M  V30 464 C 43.6958 2.82183 -3.37729 0
M  V30 465 H 40.8148 0.354005 -0.646413 0
M  V30 466 H 43.4568 0.248253 -1.88371 0
M  V30 467 H 41.6068 2.46104 -3.00608 0
M  V30 468 H 43.2788 0.391789 -4.59633 0
M  V30 469 H 41.5218 0.299231 -4.32767 0
M  V30 470 H 42.1928 1.63145 -5.2734 0
M  V30 471 H 44.6688 2.30129 -3.4667 0
M  V30 472 H 43.5448 3.39582 -4.31249 0
M  V30 473 H 43.8058 3.58588 -2.58586 0
M  V30 474 N 42.8649 1.48995 0.513639 0
M  V30 475 C 44.2759 1.5119 1.09537 0
M  V30 476 C 44.6269 0.290906 1.94031 0
M  V30 477 O 43.7519 -0.60049 2.07902 0
M  V30 478 C 44.3469 2.73964 1.99322 0
M  V30 479 C 42.9059 2.78978 2.52682 0
M  V30 480 C 42.0529 2.44934 1.30009 0
M  V30 481 H 45.0039 1.55875 0.298125 0
M  V30 482 H 45.0249 2.53409 2.83838 0
M  V30 483 H 44.5369 3.62813 1.37799 0
M  V30 484 H 42.6379 1.94378 3.1788 0
M  V30 485 H 42.7509 3.8083 2.90698 0
M  V30 486 H 41.1149 1.9644 1.62122 0
M  V30 487 H 41.8979 3.36043 0.702131 0
M  V30 488 N 44.343 -0.763751 1.37857 0
M  V30 489 C 45.568 -1.55805 1.36893 0
M  V30 490 C 45.993 -1.88054 -0.0416135 0
M  V30 491 O 45.351 -1.49825 -1.02089 0
M  V30 492 C 45.399 -2.84012 2.22192 0
M  V30 493 O 44.503 -3.78732 1.63204 0
M  V30 494 H 43.844 -0.471638 0.46739 0
M  V30 495 H 46.374 -0.944657 1.81487 0
M  V30 496 H 46.384 -3.33037 2.35691 0
M  V30 497 H 45.059 -2.59869 3.24716 0
M  V30 498 H 43.636 -3.37402 1.58791 0
M  V30 499 N 45.8211 -1.22559 -0.990812 0
M  V30 500 C 46.7311 -1.01394 -2.11557 0
M  V30 501 C 47.7471 0.0383962 -1.73958 0
M  V30 502 O 48.9231 -0.154787 -2.00804 0
M  V30 503 C 45.9881 -0.596569 -3.41529 0
M  V30 504 C 45.0491 -1.72276 -3.93217 0
M  V30 505 C 44.2821 -1.32521 -5.16985 0
M  V30 506 O 44.5051 -0.204909 -5.70032 0
M  V30 507 O 43.4391 -2.14247 -5.62478 0
M  V30 508 H 47.2651 -1.95633 -2.32296 0
M  V30 509 H 44.8501 -1.01172 -1.0993 0
M  V30 510 H 46.7321 -0.374263 -4.19735 0
M  V30 511 H 45.4071 0.316939 -3.22145 0
M  V30 512 H 44.3141 -1.99961 -3.16174 0
M  V30 513 H 45.6471 -2.61421 -4.17037 0
M  V30 514 N 47.2992 1.18797 -1.03562 0
M  V30 515 C 48.5272 1.92599 -0.755869 0
M  V30 516 C 48.9422 1.75886 0.686271 0
M  V30 517 O 48.2992 1.08517 1.46732 0
M  V30 518 C 48.3502 3.44159 -1.10619 0
M  V30 519 O 48.0712 3.60341 -2.4917 0
M  V30 520 C 49.5722 4.3507 -0.850214 0
M  V30 521 H 46.7922 0.611587 -0.276048 0
M  V30 522 H 49.3362 1.50742 -1.38192 0
M  V30 523 H 47.4912 3.83823 -0.525194 0
M  V30 524 H 47.9052 4.54128 -2.62427 0
M  V30 525 H 49.3792 5.39989 -1.14523 0
M  V30 526 H 49.8562 4.38673 0.215176 0
M  V30 527 H 50.4622 4.01097 -1.41426 0
M  V30 528 N 48.7773 0.814389 1.34928 0
M  V30 529 C 49.6873 0.231978 2.3345 0
M  V30 530 C 50.7033 -0.629139 1.62228 0
M  V30 531 O 51.8793 -0.539052 1.94052 0
M  V30 532 C 48.9443 -0.603482 3.41407 0
M  V30 533 C 48.0053 0.279037 4.28392 0
M  V30 534 C 47.2383 -0.516643 5.31193 0
M  V30 535 O 47.4613 -1.75068 5.4287 0
M  V30 536 O 46.3953 0.0965652 6.01823 0
M  V30 537 H 50.2213 1.04721 2.85074 0
M  V30 538 H 47.8063 0.576343 1.37836 0
M  V30 539 H 49.6883 -1.07908 4.0735 0
M  V30 540 H 48.3633 -1.39618 2.92042 0
M  V30 541 H 47.2703 0.801948 3.65403 0
M  V30 542 H 48.6033 1.03588 4.81176 0
M  V30 543 N 50.2554 -1.46986 0.568584 0
M  V30 544 C 51.2184 -2.28624 -0.162366 0
M  V30 545 C 52.2184 -1.37596 -0.832103 0
M  V30 546 O 53.4084 -1.60115 -0.68622 0
M  V30 547 C 50.5404 -3.17596 -1.23878 0
M  V30 548 H 51.7334 -2.94722 0.554899 0
M  V30 549 H 49.2864 -1.52863 0.325976 0
M  V30 550 H 50.0214 -2.56214 -1.98808 0
M  V30 551 H 49.8064 -3.846 -0.763219 0
M  V30 552 H 51.2964 -3.79078 -1.75185 0
M  V30 553 N 51.7335 -0.305618 -1.54608 0
M  V30 554 C 52.9795 0.302746 -2.00528 0
M  V30 555 C 53.3125 1.53184 -1.19367 0
M  V30 556 O 52.5875 1.92598 -0.271321 0
M  V30 557 C 52.8705 0.654756 -3.54097 0
M  V30 558 C 52.7235 -0.583793 -4.45995 0
M  V30 559 C 54.0425 1.47947 -4.14487 0
M  V30 560 H 51.1615 0.108564 -0.72896 0
M  V30 561 H 53.8035 -0.418634 -1.85331 0
M  V30 562 H 51.9535 1.26935 -3.67178 0
M  V30 563 H 53.6255 -1.22224 -4.44814 0
M  V30 564 H 51.8685 -1.21615 -4.16404 0
M  V30 565 H 52.5395 -0.293287 -5.5122 0
M  V30 566 H 55.0155 0.96013 -4.04871 0
M  V30 567 H 53.8915 1.69454 -5.22088 0
M  V30 568 H 54.1525 2.47011 -3.66658 0
M  V30 569 N 53.2116 1.57565 -0.0334293 0
M  V30 570 C 54.1436 2.0739 0.975811 0
M  V30 571 C 55.1566 0.998166 1.2861 0
M  V30 572 O 56.3456 1.27426 1.25 0
M  V30 573 C 53.4456 2.4871 2.30209 0
M  V30 574 C 52.6186 3.79413 2.17634 0
M  V30 575 C 51.6776 4.07237 3.33233 0
M  V30 576 O 50.7036 4.77425 3.09927 0
M  V30 577 N 51.9056 3.5775 4.5716 0
M  V30 578 H 54.6706 2.94598 0.55066 0
M  V30 579 H 52.2316 1.61173 0.15323 0
M  V30 580 H 54.2236 2.64413 3.06378 0
M  V30 581 H 52.7936 1.66845 2.64351 0
M  V30 582 H 52.0136 3.73465 1.26165 0
M  V30 583 H 53.3016 4.65038 2.0644 0
M  V30 584 H 52.6996 3.00976 4.78989 0
M  V30 585 H 51.2566 3.78724 5.30482 0
M  V30 586 N 54.6897 -0.239769 1.55765 0
M  V30 587 C 55.9377 -0.964892 1.77579 0
M  V30 588 C 56.2587 -1.85582 0.598699 0
M  V30 589 O 55.5287 -1.92075 -0.385226 0
M  V30 590 H 54.1087 -0.359265 0.654933 0
M  V30 591 H 56.7707 -0.256001 1.93211 0
M  V30 592 H 55.8667 -1.58243 2.69009 0
M  V30 593 N 56.1678 -1.49265 -0.50573 0
M  V30 594 C 57.1158 -1.66065 -1.62866 0
M  V30 595 C 58.1098 -0.526636 -1.61006 0
M  V30 596 O 59.3158 -0.706126 -1.65571 0
M  V30 597 H 55.6908 -0.52356 -0.539805 0
M  V30 598 H 57.6618 -2.60329 -1.45848 0
M  V30 599 C 56.4108 -1.74008 -3.01026 0
M  V30 600 H 55.7338 -2.6064 -3.03161 0
M  V30 601 H 57.1738 -1.89798 -3.79147 0
M  V30 602 C 55.6328 -0.483868 -3.33407 0
M  V30 603 O 56.1628 0.392548 -3.99777 0
M  V30 604 N 54.3688 -0.348236 -2.88506 0
M  V30 605 H 53.9158 -1.06242 -2.34671 0
M  V30 606 H 53.8738 0.491204 -3.10539 0
M  V30 607 N 57.6459 0.756429 -1.3826 0
M  V30 608 C 59.0569 1.33359 -1.30661 0
M  V30 609 C 59.4079 1.96161 0.0388875 0
M  V30 610 O 58.5329 1.94874 0.940918 0
M  V30 611 C 59.1279 2.42477 -2.36622 0
M  V30 612 C 57.6869 2.95922 -2.3261 0
M  V30 613 C 56.8339 1.69275 -2.19639 0
M  V30 614 H 59.7849 0.55552 -1.4866 0
M  V30 615 H 59.8059 3.22345 -2.02174 0
M  V30 616 H 59.3179 1.96739 -3.34538 0
M  V30 617 H 57.4189 3.45996 -1.38267 0
M  V30 618 H 57.5319 3.50494 -3.26636 0
M  V30 619 H 55.8959 1.92793 -1.66442 0
M  V30 620 H 56.6789 1.25619 -3.19491 0
M  V30 621 N 59.124 1.23083 0.984299 0
M  V30 622 C 60.057 0.951786 2.07404 0
M  V30 623 C 61.035 -0.10848 1.62238 0
M  V30 624 O 62.219 0.0249467 1.88483 0
M  V30 625 C 59.346 0.433142 3.35919 0
M  V30 626 C 58.392 1.47941 4.0002 0
M  V30 627 S 59.225 3.05556 4.39768 0
M  V30 628 C 60.381 2.55351 5.71442 0
M  V30 629 H 60.614 1.87456 2.30754 0
M  V30 630 H 58.147 1.06284 1.11996 0
M  V30 631 H 60.105 0.140506 4.10259 0
M  V30 632 H 58.766 -0.468656 3.10584 0
M  V30 633 H 57.959 1.06658 4.92585 0
M  V30 634 H 57.561 1.7212 3.3204 0
M  V30 635 H 59.853 1.97128 6.48187 0
M  V30 636 H 60.796 3.46441 6.17563 0
M  V30 637 H 61.204 1.96339 5.29255 0
M  V30 638 N 60.6021 -1.18246 1.0419 0
M  V30 639 C 61.5491 -2.2192 0.634037 0
M  V30 640 C 62.5191 -1.62179 -0.358765 0
M  V30 641 O 63.7041 -1.89122 -0.252466 0
M  V30 642 C 60.8441 -3.451 0.00445535 0
M  V30 643 C 59.9571 -4.19174 1.04487 0
M  V30 644 C 59.0921 -5.29813 0.383676 0
M  V30 645 C 58.1311 -5.9566 1.4091 0
M  V30 646 N 57.2681 -6.97834 0.772784 0
M  V30 647 H 62.1081 -2.56164 1.52263 0
M  V30 648 H 59.6451 -1.25843 0.761701 0
M  V30 649 H 61.6031 -4.15485 -0.377919 0
M  V30 650 H 60.2331 -3.11472 -0.847652 0
M  V30 651 H 59.2851 -3.47604 1.54518 0
M  V30 652 H 60.5971 -4.64267 1.82368 0
M  V30 653 H 59.7511 -6.06677 -0.0528366 0
M  V30 654 H 58.4901 -4.85825 -0.427208 0
M  V30 655 H 57.4951 -5.17535 1.85574 0
M  V30 656 H 58.7201 -6.4173 2.22171 0
M  V30 657 H 56.6661 -6.55998 -0.0177708 0
M  V30 658 H 56.5831 -7.41186 1.48928 0
M  V30 659 H 57.8511 -7.78665 0.36071 0
M  V30 660 N 62.0802 -0.821533 -1.34494 0
M  V30 661 C 63.0102 -0.257138 -2.3208 0
M  V30 662 C 63.9912 0.625645 -1.58176 0
M  V30 663 O 65.1762 0.552811 -1.86166 0
M  V30 664 C 62.3062 0.582958 -3.42372 0
M  V30 665 C 61.2602 -0.202571 -4.2752 0
M  V30 666 C 60.5862 0.760179 -5.29269 0
M  V30 667 C 61.8862 -1.40998 -5.02908 0
M  V30 668 H 63.5802 -1.07247 -2.79532 0
M  V30 669 H 61.1262 -0.517163 -1.34393 0
M  V30 670 H 63.0792 0.987972 -4.09655 0
M  V30 671 H 61.8032 1.43133 -2.93565 0
M  V30 672 H 60.4622 -0.588936 -3.61838 0
M  V30 673 H 60.1102 1.60447 -4.76724 0
M  V30 674 H 59.8102 0.238809 -5.87115 0
M  V30 675 H 61.3342 1.16308 -5.9942 0
M  V30 676 H 62.7482 -1.07905 -5.63054 0
M  V30 677 H 61.1452 -1.86689 -5.70322 0
M  V30 678 H 62.2152 -2.1889 -4.32684 0
M  V30 679 N 63.5583 1.46682 -0.576371 0
M  V30 680 C 64.9743 1.57822 -0.237562 0
M  V30 681 C 65.1743 1.57237 1.26011 0
M  V30 682 O 64.2303 1.48596 2.04146 0
M  V30 683 C 65.5433 2.87499 -0.881168 0
M  V30 684 C 67.0913 3.01119 -0.85417 0
M  V30 685 C 67.5663 4.33524 -1.4772 0
M  V30 686 N 69.0573 4.40207 -1.44125 0
M  V30 687 C 69.7923 5.4126 -1.89276 0
M  V30 688 N 69.2883 6.49021 -2.42371 0
M  V30 689 N 71.0813 5.32422 -1.80231 0
M  V30 690 H 63.2323 1.45306 -1.54919 0
M  V30 691 H 65.4953 0.692733 -0.647167 0
M  V30 692 H 65.2013 2.9372 -1.93447 0
M  V30 693 H 65.0753 3.75224 -0.385592 0
M  V30 694 H 67.4623 2.94485 0.190491 0
M  V30 695 H 67.5433 2.14887 -1.3877 0
M  V30 696 H 67.1873 4.40916 -2.52103 0
M  V30 697 H 67.1173 5.1852 -0.918947 0
M  V30 698 H 69.6083 3.62931 -1.05307 0
M  V30 699 H 69.9213 7.2233 -2.74698 0
M  V30 700 H 68.2663 6.49858 -2.46393 0
M  V30 701 H 71.4573 4.47137 -1.38514 0
M  V30 702 H 71.6303 6.11034 -2.15735 0
M  V30 703 N 65.0364 0.313813 1.54444 0
M  V30 704 C 66.2764 -0.292389 2.02298 0
M  V30 705 C 66.6404 -1.50105 1.19719 0
M  V30 706 O 67.8414 -2.17947 1.5733 0
M  V30 707 C 66.1124 -0.627682 3.51845 0
M  V30 708 S 67.6714 -1.21493 4.21646 0
M  V30 709 H 64.4894 -0.0890247 0.705405 0
M  V30 710 H 67.0914 0.444668 1.90376 0
M  V30 711 H 65.7954 0.260265 4.09574 0
M  V30 712 H 65.3264 -1.39519 3.67829 0
M  V30 713 H 67.3414 -2.5022 4.28491 0
M  V30 714 N 66.5145 -1.57545 0.0417849 0
M  V30 715 C 67.7635 -1.91494 -0.633492 0
M  V30 716 C 68.0765 -0.921084 -1.72556 0
M  V30 717 O 69.2825 -1.15228 -2.45835 0
M  V30 718 C 67.7385 -3.40072 -1.17808 0
M  V30 719 C 67.3465 -4.47843 -0.118633 0
M  V30 720 C 69.0905 -3.8307 -1.82915 0
M  V30 721 C 66.9975 -5.87529 -0.675578 0
M  V30 722 H 65.9275 -0.714653 -0.24039 0
M  V30 723 H 68.5785 -1.83175 0.109148 0
M  V30 724 H 66.9605 -3.43364 -1.97274 0
M  V30 725 H 68.1345 -4.56128 0.654494 0
M  V30 726 H 66.4495 -4.14128 0.434414 0
M  V30 727 H 69.0465 -4.84794 -2.25563 0
M  V30 728 H 69.3895 -3.1881 -2.67705 0
M  V30 729 H 69.9225 -3.82255 -1.10119 0
M  V30 730 H 66.6615 -6.55362 0.134475 0
M  V30 731 H 66.1815 -5.82824 -1.4169 0
M  V30 732 H 67.8605 -6.36491 -1.1614 0
M  V30 733 N 67.9926 0.231505 -1.5589 0
M  V30 734 C 69.2176 0.978689 -1.82856 0
M  V30 735 C 69.6426 1.77559 -0.620846 0
M  V30 736 O 69.0006 1.76119 0.430305 0
M  V30 737 C 69.0486 1.87997 -3.07716 0
M  V30 738 O 68.1526 2.97393 -2.85712 0
M  V30 739 H 67.4936 0.277663 -0.603158 0
M  V30 740 H 70.0236 0.24783 -2.03093 0
M  V30 741 H 70.0336 2.2917 -3.37558 0
M  V30 742 H 68.7086 1.29417 -3.95252 0
M  V30 743 H 67.2856 2.60238 -2.67078 0
M  V30 744 N 69.4707 1.49531 0.497807 0
M  V30 745 C 70.7107 1.60799 1.26187 0
M  V30 746 C 71.0747 0.289627 1.89803 0
M  V30 747 O 72.2757 0.277512 2.67364 0
M  V30 748 C 70.5467 2.73729 2.29798 0
M  V30 749 S 72.1057 3.04968 3.155 0
M  V30 750 H 68.9237 0.567145 0.428798 0
M  V30 751 H 71.5257 1.87204 0.563477 0
M  V30 752 H 70.2297 3.68036 1.81597 0
M  V30 753 H 69.7607 2.49328 3.04301 0
M  V30 754 H 71.7757 2.46735 4.30507 0
M  V30 755 N 70.9488 -0.749086 1.3866 0
M  V30 756 C 71.8818 -1.87111 1.30631 0
M  V30 757 C 72.8598 -1.61572 0.18251 0
M  V30 758 O 74.0438 -1.85019 0.360592 0
M  V30 759 C 71.1708 -3.22815 1.02511 0
M  V30 760 C 70.2168 -3.67234 2.1689 0
M  V30 761 S 71.0498 -3.78245 3.79066 0
M  V30 762 C 72.2058 -5.16761 3.53142 0
M  V30 763 H 72.4388 -1.93636 2.25594 0
M  V30 764 H 69.9718 -0.912525 1.24549 0
M  V30 765 H 71.9298 -4.01181 0.869701 0
M  V30 766 H 70.5908 -3.13964 0.0925884 0
M  V30 767 H 69.7838 -4.65677 1.92771 0
M  V30 768 H 69.3858 -2.96034 2.28561 0
M  V30 769 H 71.6778 -6.02656 3.09534 0
M  V30 770 H 72.6208 -5.45902 4.50995 0
M  V30 771 H 73.0288 -4.85771 2.87554 0
M  V30 772 N 72.4269 -1.23603 -0.977757 0
M  V30 773 C 73.3739 -1.01954 -2.07061 0
M  V30 774 C 74.3439 0.0638697 -1.65977 0
M  V30 775 O 75.5289 -0.0887624 -1.90593 0
M  V30 776 C 72.6689 -0.619658 -3.39491 0
M  V30 777 C 71.7819 -1.77547 -3.93829 0
M  V30 778 C 70.9169 -1.32212 -5.14484 0
M  V30 779 C 69.9559 -2.44852 -5.60994 0
M  V30 780 N 69.0929 -2.00456 -6.72876 0
M  V30 781 H 73.9329 -1.95495 -2.24913 0
M  V30 782 H 71.4699 -0.973861 -1.10247 0
M  V30 783 H 73.4279 -0.368898 -4.15566 0
M  V30 784 H 72.0579 0.278752 -3.21594 0
M  V30 785 H 71.1099 -2.14016 -3.14486 0
M  V30 786 H 72.4219 -2.62219 -4.24314 0
M  V30 787 H 71.5759 -1.02965 -5.97899 0
M  V30 788 H 70.3149 -0.445808 -4.85658 0
M  V30 789 H 69.3199 -2.74871 -4.76157 0
M  V30 790 H 70.5449 -3.33024 -5.91837 0
M  V30 791 H 68.4909 -1.15208 -6.45804 0
M  V30 792 H 68.4079 -2.78687 -7.02759 0
M  V30 793 H 69.6759 -1.7432 -7.59758 0
M  V30 794 N 73.905 1.17692 -1.04816 0
M  V30 795 C 75.321 1.39863 -0.768794 0
M  V30 796 C 75.521 1.91118 0.638451 0
M  V30 797 O 74.577 2.10036 1.40146 0
M  V30 798 C 75.89 2.39274 -1.82122 0
M  V30 799 C 77.438 2.52987 -1.843 0
M  V30 800 C 77.913 3.55669 -2.88555 0
M  V30 801 N 79.404 3.63183 -2.87493 0
M  V30 802 C 80.139 4.42381 -3.64811 0
M  V30 803 N 79.635 5.25125 -4.51903 0
M  V30 804 N 81.428 4.37217 -3.53267 0
M  V30 805 H 73.579 0.82752 -1.95617 0
M  V30 806 H 75.842 0.426123 -0.846831 0
M  V30 807 H 75.548 2.08678 -2.83102 0
M  V30 808 H 75.422 3.38725 -1.65967 0
M  V30 809 H 77.809 2.82896 -0.839869 0
M  V30 810 H 77.89 1.53623 -2.04532 0
M  V30 811 H 77.534 3.26499 -3.89051 0
M  V30 812 H 77.464 4.54728 -2.65575 0
M  V30 813 H 79.955 3.04103 -2.24343 0
M  V30 814 H 80.268 5.82728 -5.07591 0
M  V30 815 H 78.613 5.24519 -4.55966 0
M  V30 816 H 81.804 3.71626 -2.84625 0
M  V30 817 H 81.977 4.98696 -4.13771 0
M  V30 818 N 75.3831 0.828654 1.34056 0
M  V30 819 C 76.2931 0.256725 2.33191 0
M  V30 820 C 77.3091 -0.611898 1.62886 0
M  V30 821 O 78.4851 -0.51844 1.94613 0
M  V30 822 C 75.5501 -0.567238 3.42028 0
M  V30 823 C 74.6111 0.324458 4.28072 0
M  V30 824 C 73.8441 -0.460274 5.31712 0
M  V30 825 O 74.0671 -1.693 5.44696 0
M  V30 826 O 73.0011 0.160391 6.01686 0
M  V30 827 H 76.8271 1.07739 2.83947 0
M  V30 828 H 74.4121 0.59093 1.37217 0
M  V30 829 H 76.2941 -1.03582 4.08471 0
M  V30 830 H 74.9691 -1.36513 2.93506 0
M  V30 831 H 73.8761 0.840659 3.64532 0
M  V30 832 H 75.2091 1.08685 4.8005 0
M  V30 833 N 76.8612 -1.46375 0.584142 0
M  V30 834 C 77.7712 -2.34115 -0.150728 0
M  V30 835 C 78.7872 -1.49838 -0.884567 0
M  V30 836 O 79.9632 -1.82704 -0.847429 0
M  V30 837 C 77.0282 -3.2705 -1.15062 0
M  V30 838 C 76.0892 -4.27228 -0.421293 0
M  V30 839 C 75.3222 -5.15722 -1.37355 0
M  V30 840 O 75.5452 -5.07176 -2.61014 0
M  V30 841 O 74.4792 -5.95383 -0.883355 0
M  V30 842 H 78.3052 -2.98309 0.569708 0
M  V30 843 H 75.8902 -1.45373 0.344535 0
M  V30 844 H 77.7722 -3.84381 -1.72712 0
M  V30 845 H 76.4472 -2.65451 -1.8525 0
M  V30 846 H 75.3542 -3.7358 0.197085 0
M  V30 847 H 76.6872 -4.91616 0.239641 0
M  V30 848 N 78.3393 -0.321999 -1.54275 0
M  V30 849 C 79.5853 0.281461 -2.00837 0
M  V30 850 C 79.9183 1.51909 -1.20985 0
M  V30 851 O 79.1933 1.923 -0.291733 0
M  V30 852 C 79.4763 0.617162 -3.54772 0
M  V30 853 C 79.3293 -0.631064 -4.45351 0
M  V30 854 C 80.6483 1.43542 -4.16033 0
M  V30 855 H 77.7673 0.100826 -0.730071 0
M  V30 856 H 80.4093 -0.438268 -1.84876 0
M  V30 857 H 78.5593 1.23034 -3.68504 0
M  V30 858 H 80.2313 -1.26934 -4.43492 0
M  V30 859 H 78.4743 -1.26025 -4.15091 0
M  V30 860 H 79.1453 -0.351735 -5.50878 0
M  V30 861 H 81.6213 0.917134 -4.05867 0
M  V30 862 H 80.4973 1.63907 -5.23856 0
M  V30 863 H 80.7583 2.43108 -3.69257 0
M  V30 864 N 79.8174 1.5752 -0.0501392 0
M  V30 865 C 80.7274 2.14952 0.939827 0
M  V30 866 C 81.7434 1.10706 1.34239 0
M  V30 867 O 82.9194 1.42869 1.41952 0
M  V30 868 C 79.9844 2.68232 2.19665 0
M  V30 869 C 79.0454 3.87272 1.85253 0
M  V30 870 C 78.2784 4.38002 3.04943 0
M  V30 871 O 78.5014 3.87811 4.18281 0
M  V30 872 O 77.4354 5.29602 2.86017 0
M  V30 873 H 81.2614 2.9986 0.481392 0
M  V30 874 H 78.8464 1.4841 0.171699 0
M  V30 875 H 80.7284 3.02475 2.93406 0
M  V30 876 H 79.4034 1.86395 2.64648 0
M  V30 877 H 78.3104 3.5792 1.0883 0
M  V30 878 H 79.6434 4.70336 1.4507 0
M  V30 879 N 81.2955 -0.223234 1.56011 0
M  V30 880 C 82.2585 -1.26014 1.9145 0
M  V30 881 C 83.2585 -1.3989 0.792937 0
M  V30 882 O 84.4485 -1.38184 1.0607 0
M  V30 883 C 81.5805 -2.63422 2.16383 0
M  V30 884 H 82.7735 -0.95796 2.84189 0
M  V30 885 H 80.3265 -0.463576 1.49267 0
M  V30 886 H 81.0615 -2.98741 1.2619 0
M  V30 887 H 80.8465 -2.54728 2.98088 0
M  V30 888 H 82.3365 -3.38249 2.44903 0
M  V30 889 N 82.7736 -1.49793 -0.48987 0
M  V30 890 C 84.0016 -1.63568 -1.26701 0
M  V30 891 C 84.4166 -0.311465 -1.86213 0
M  V30 892 O 83.7736 0.704416 -1.68357 0
M  V30 893 C 83.8246 -2.71284 -2.38929 0
M  V30 894 O 83.5456 -3.9857 -1.81861 0
M  V30 895 C 85.0466 -2.95864 -3.3012 0
M  V30 896 H 82.2666 -0.550342 -0.383881 0
M  V30 897 H 84.8106 -1.95898 -0.586864 0
M  V30 898 H 82.9656 -2.417 -3.02753 0
M  V30 899 H 83.3796 -4.57993 -2.55622 0
M  V30 900 H 84.8536 -3.74941 -4.05121 0
M  V30 901 H 85.3306 -2.06206 -3.87783 0
M  V30 902 H 85.9366 -3.26907 -2.72051 0
M  V30 903 N 84.2517 0.741722 -1.39055 0
M  V30 904 C 85.4797 1.53098 -1.39171 0
M  V30 905 C 85.8947 1.88794 0.0155099 0
M  V30 906 O 85.2517 1.53626 0.985159 0
M  V30 907 C 85.3027 2.82274 -2.2584 0
M  V30 908 O 85.0237 2.48097 -3.61081 0
M  V30 909 C 86.5247 3.76343 -2.34266 0
M  V30 910 H 83.7447 0.473335 -0.4756 0
M  V30 911 H 86.2887 0.917045 -1.82785 0
M  V30 912 H 84.4437 3.40015 -1.85656 0
M  V30 913 H 84.8577 3.31029 -4.06842 0
M  V30 914 H 86.3317 4.63898 -2.9917 0
M  V30 915 H 86.8087 4.17619 -1.35982 0
M  V30 916 H 87.4147 3.24523 -2.74891 0
M  V30 917 N 85.7298 1.2412 0.971189 0
M  V30 918 C 86.9758 1.08041 1.71625 0
M  V30 919 C 87.3088 -0.380407 1.90438 0
M  V30 920 O 86.5838 -1.28127 1.46334 0
M  V30 921 C 86.8668 1.81682 3.10908 0
M  V30 922 C 86.7198 3.35493 2.99608 0
M  V30 923 C 88.0388 1.58671 4.10501 0
M  V30 924 H 85.1578 0.39388 0.622919 0
M  V30 925 H 87.7998 1.52743 1.13003 0
M  V30 926 H 85.9498 1.43684 3.60953 0
M  V30 927 H 87.6218 3.83068 2.57015 0
M  V30 928 H 85.8648 3.64052 2.35899 0
M  V30 929 H 86.5358 3.82217 3.98264 0
M  V30 930 H 89.0118 1.91719 3.69301 0
M  V30 931 H 87.8878 2.1266 5.06031 0
M  V30 932 H 88.1488 0.524161 4.38982 0
M  V30 933 N 87.2079 -1.17134 1.05439 0
M  V30 934 C 88.4539 -1.87733 0.767077 0
M  V30 935 C 88.7869 -1.8098 -0.704253 0
M  V30 936 O 88.0619 -1.21951 -1.5152 0
M  V30 937 C 88.3449 -3.37659 1.25133 0
M  V30 938 C 88.1979 -3.53149 2.78578 0
M  V30 939 C 89.5169 -4.31768 0.852324 0
M  V30 940 H 86.6359 -0.681687 0.280129 0
M  V30 941 H 89.2779 -1.37732 1.30881 0
M  V30 942 H 87.4279 -3.80373 0.790469 0
M  V30 943 H 89.0999 -3.19434 3.32806 0
M  V30 944 H 87.3429 -2.95345 3.17732 0
M  V30 945 H 88.0139 -4.58403 3.07523 0
M  V30 946 H 90.4899 -3.96909 1.24911 0
M  V30 947 H 89.3659 -5.35199 1.21873 0
M  V30 948 H 89.6269 -4.41429 -0.243485 0
M  V30 949 N 88.686 -0.835752 -1.33615 0
M  V30 950 C 89.596 -0.269088 -2.33052 0
M  V30 951 C 90.612 0.603251 -1.63208 0
M  V30 952 O 91.788 0.508112 -1.94885 0
M  V30 953 C 88.853 0.549091 -3.42324 0
M  V30 954 C 87.914 -0.347156 -4.27894 0
M  V30 955 C 87.147 0.43207 -5.31948 0
M  V30 956 O 87.37 1.66409 -5.45586 0
M  V30 957 O 86.304 -0.192298 -6.01593 0
M  V30 958 H 90.13 -1.09243 -2.83372 0
M  V30 959 H 87.715 -0.598198 -1.36901 0
M  V30 960 H 89.597 1.01414 -4.09015 0
M  V30 961 H 88.272 1.34955 -2.94226 0
M  V30 962 H 87.179 -0.859979 -3.64081 0
M  V30 963 H 88.512 -1.1123 -4.79467 0
M  V30 964 N 90.1641 1.46063 -0.591896 0
M  V30 965 C 91.4101 2.03203 -0.0894879 0
M  V30 966 C 91.7651 1.45407 1.25994 0
M  V30 967 O 91.0581 0.61326 1.8152 0
M  V30 968 C 91.2521 3.57391 0.0249813 0
M  V30 969 C 91.0811 4.30142 -1.3118 0
M  V30 970 C 89.8511 4.68688 -1.88838 0
M  V30 971 C 92.0491 4.63098 -2.23708 0
M  V30 972 N 90.0311 5.26228 -3.1616 0
M  V30 973 C 91.4021 5.21305 -3.3562 0
M  V30 974 C 93.4571 4.45031 -2.23274 0
M  V30 975 C 92.1601 5.63351 -4.47245 0
M  V30 976 C 94.1861 4.881 -3.33935 0
M  V30 977 C 93.5481 5.46386 -4.44569 0
M  V30 978 H 89.6471 0.778323 -0.0757431 0
M  V30 979 H 92.2311 1.78094 -0.78681 0
M  V30 980 H 90.4021 3.82195 0.69149 0
M  V30 981 H 92.1341 4.0118 0.532613 0
M  V30 982 H 88.8891 4.5174 -1.42223 0
M  V30 983 H 89.3131 5.59512 -3.8115 0
M  V30 984 H 93.9551 3.99295 -1.39008 0
M  V30 985 H 91.6731 6.08061 -5.32247 0
M  V30 986 H 95.2591 4.75866 -3.34728 0
M  V30 987 H 94.1391 5.79102 -5.28782 0
M  V30 988 N 91.6422 0.330177 1.54103 0
M  V30 989 C 92.8892 -0.270405 2.00686 0
M  V30 990 C 93.2172 -1.51621 1.21825 0
M  V30 991 O 92.4722 -1.93536 0.29025 0
M  V30 992 C 92.7712 -0.643134 3.51566 0
M  V30 993 C 92.4372 0.504251 4.48072 0
M  V30 994 C 91.0992 0.819163 4.74176 0
M  V30 995 C 93.4512 1.27465 5.05373 0
M  V30 996 C 90.7792 1.90708 5.5484 0
M  V30 997 C 93.1312 2.35271 5.87223 0
M  V30 998 C 91.7952 2.67336 6.11627 0
M  V30 999 H 91.0652 -0.0989482 0.734364 0
M  V30 1000 H 93.7122 0.455324 1.86008 0
M  V30 1001 H 92.0172 -1.44938 3.64006 0
M  V30 1002 H 93.7142 -1.11949 3.85056 0
M  V30 1003 H 90.3042 0.248733 4.27878 0
M  V30 1004 H 94.4882 1.04462 4.85182 0
M  V30 1005 H 89.7442 2.15991 5.71977 0
M  V30 1006 H 93.9182 2.95405 6.30641 0
M  V30 1007 H 91.5452 3.51763 6.73919 0
M  V30 1008 N 93.1203 -1.57491 0.0584922 0
M  V30 1009 C 94.3503 -1.9701 -0.622134 0
M  V30 1010 C 94.7583 -0.935034 -1.6448 0
M  V30 1011 O 94.1013 0.0882904 -1.83488 0
M  V30 1012 C 94.1633 -3.32794 -1.35972 0
M  V30 1013 C 93.8273 -4.54343 -0.492043 0
M  V30 1014 C 94.8243 -5.19323 0.244901 0
M  V30 1015 C 92.5093 -5.00534 -0.420821 0
M  V30 1016 C 94.5033 -6.28835 1.04143 0
M  V30 1017 C 92.1903 -6.09921 0.379389 0
M  V30 1018 C 93.1883 -6.73933 1.10919 0
M  V30 1019 O 92.8763 -7.81216 1.89623 0
M  V30 1020 H 92.6083 -0.653127 -0.174359 0
M  V30 1021 H 95.1623 -2.05029 0.123418 0
M  V30 1022 H 93.3923 -3.21351 -2.15105 0
M  V30 1023 H 95.0813 -3.5701 -1.93129 0
M  V30 1024 H 95.8473 -4.8459 0.19939 0
M  V30 1025 H 91.7263 -4.50496 -0.978474 0
M  V30 1026 H 95.2703 -6.7873 1.61157 0
M  V30 1027 H 91.1673 -6.44089 0.426512 0
M  V30 1028 H 91.9353 -7.98029 1.81913 0
M  V30 1029 N 94.5984 0.214957 -1.56127 0
M  V30 1030 C 96.0144 0.564948 -1.49267 0
M  V30 1031 C 96.2144 1.86827 -0.754838 0
M  V30 1032 O 95.2704 2.50745 -0.297198 0
M  V30 1033 C 96.5834 0.638071 -2.93852 0
M  V30 1034 C 98.1314 0.728253 -3.0441 0
M  V30 1035 C 98.6064 0.832663 -4.50367 0
M  V30 1036 N 100.097 0.896712 -4.54437 0
M  V30 1037 C 100.832 0.997324 -5.6466 0
M  V30 1038 N 100.328 1.06147 -6.8462 0
M  V30 1039 N 102.121 1.03297 -5.52527 0
M  V30 1040 H 94.2724 -0.640211 -2.02522 0
M  V30 1041 H 96.5354 -0.225507 -0.920788 0
M  V30 1042 H 96.2414 -0.250126 -3.50809 0
M  V30 1043 H 96.1154 1.49947 -3.46115 0
M  V30 1044 H 98.5024 1.60689 -2.47514 0
M  V30 1045 H 98.5834 -0.158952 -2.55306 0
M  V30 1046 H 98.2274 -0.0415417 -5.07883 0
M  V30 1047 H 98.1574 1.73538 -4.97184 0
M  V30 1048 H 100.648 0.857188 -3.6805 0
M  V30 1049 H 100.961 1.1382 -7.64372 0
M  V30 1050 H 99.3064 1.03049 -6.87318 0
M  V30 1051 H 102.497 0.979558 -4.57736 0
M  V30 1052 H 102.67 1.10793 -6.38458 0
M  V30 1053 N 96.0765 1.50051 0.48192 0
M  V30 1054 C 97.4875 1.5348 1.06305 0
M  V30 1055 C 97.8385 0.331997 1.93371 0
M  V30 1056 O 96.9635 -0.556256 2.09129 0
M  V30 1057 C 97.5585 2.7813 1.93466 0
M  V30 1058 C 96.1175 2.84275 2.46707 0
M  V30 1059 C 95.2645 2.47637 1.24785 0
M  V30 1060 H 98.2155 1.56472 0.264995 0
M  V30 1061 H 98.2365 2.59372 2.78399 0
M  V30 1062 H 97.7485 3.65654 1.30072 0
M  V30 1063 H 95.8495 2.01077 3.13686 0
M  V30 1064 H 95.9625 3.8691 2.82555 0
M  V30 1065 H 94.3265 1.99835 1.57918 0
M  V30 1066 H 95.1095 3.37457 0.630694 0
M  V30 1067 N 97.5546 -0.734337 1.39446 0
M  V30 1068 C 98.4646 -1.87879 1.40495 0
M  V30 1069 C 99.4806 -1.714 0.299672 0
M  V30 1070 O 100.657 -1.93991 0.541249 0
M  V30 1071 C 97.7216 -3.23477 1.24754 0
M  V30 1072 C 96.7826 -3.52344 2.45259 0
M  V30 1073 C 96.0156 -4.81473 2.30259 0
M  V30 1074 O 96.2386 -5.55237 1.30643 0
M  V30 1075 O 95.1726 -5.10254 3.19256 0
M  V30 1076 H 98.9986 -1.89949 2.36966 0
M  V30 1077 H 96.5836 -0.882243 1.20569 0
M  V30 1078 H 98.4656 -4.04509 1.18111 0
M  V30 1079 H 97.1406 -3.22176 0.313781 0
M  V30 1080 H 96.0476 -2.71396 2.57478 0
M  V30 1081 H 97.3806 -3.58426 3.37331 0
M  V30 1082 N 99.0327 -1.24633 -0.964593 0
M  V30 1083 C 100.281 -1.08573 -1.70459 0
M  V30 1084 C 100.602 0.375655 -1.91347 0
M  V30 1085 O 99.8717 1.26779 -1.49345 0
M  V30 1086 H 98.4517 -0.398784 -0.631649 0
M  V30 1087 H 101.114 -1.56601 -1.16026 0
M  V30 1088 H 100.21 -1.58623 -2.68785 0
M  V30 1089 N 100.511 1.16574 -1.06058 0
M  V30 1090 C 101.759 1.86677 -0.77434 0
M  V30 1091 C 102.08 1.81959 0.701147 0
M  V30 1092 O 101.35 1.2515 1.50713 0
M  V30 1093 H 99.9298 0.691134 -0.283449 0
M  V30 1094 H 102.592 1.41378 -1.34158 0
M  V30 1095 H 101.688 2.92181 -1.09711 0
M  V30 1096 N 101.989 0.842826 1.3317 0
M  V30 1097 C 102.936 0.276885 2.29133 0
M  V30 1098 C 103.906 -0.609527 1.54512 0
M  V30 1099 O 105.091 -0.546955 1.82792 0
M  V30 1100 C 102.231 -0.538707 3.40869 0
M  V30 1101 C 101.344 0.372169 4.30394 0
M  V30 1102 C 100.479 -0.454908 5.29249 0
M  V30 1103 C 99.5179 0.45411 6.10413 0
M  V30 1104 N 98.6549 -0.335075 7.013 0
M  V30 1105 H 103.495 1.10052 2.76934 0
M  V30 1106 H 101.032 0.554161 1.36262 0
M  V30 1107 H 102.99 -1.02709 4.0436 0
M  V30 1108 H 101.62 -1.32727 2.9425 0
M  V30 1109 H 100.672 0.97888 3.6759 0
M  V30 1110 H 101.984 1.0703 4.87182 0
M  V30 1111 H 101.138 -1.00695 5.98285 0
M  V30 1112 H 99.8769 -1.18646 4.73048 0
M  V30 1113 H 98.8819 1.01813 5.40291 0
M  V30 1114 H 100.107 1.18409 6.68697 0
M  V30 1115 H 98.0529 -1.04994 6.47543 0
M  V30 1116 H 97.9699 0.304262 7.55387 0
M  V30 1117 H 99.2379 -0.869224 7.74638 0
M  V30 1118 N 103.467 -1.45747 0.599634 0
M  V30 1119 C 104.744 -1.95585 0.0240846 0
M  V30 1120 C 105.124 -1.54217 -1.44154 0
M  V30 1121 O 104.472 -0.800903 -2.14004 0
M  V30 1122 C 104.682 -3.48344 0.21385 0
M  V30 1123 C 106.03 -4.24504 0.0904902 0
M  V30 1124 O 107.054 -3.55911 0.143558 0
M  V30 1125 O 105.913 -5.46491 -0.0310766 0
M  V30 1126 H 103.007 -0.82602 -0.0402478 0
M  V30 1127 H 105.553 -1.55951 0.669139 0
M  V30 1128 H 104.325 -3.71397 1.23206 0
M  V30 1129 H 103.948 -3.9485 -0.466842 0
M  V30 1130 N 104.945 -0.338344 -1.53925 0
M  V30 1131 C 106.192 0.259758 -2.00827 0
M  V30 1132 C 106.52 1.50973 -1.22628 0
M  V30 1133 O 105.775 1.93379 -0.300509 0
M  V30 1134 C 106.074 0.62448 -3.51902 0
M  V30 1135 C 105.74 -0.528006 -4.47798 0
M  V30 1136 C 104.402 -0.844298 -4.73735 0
M  V30 1137 C 106.754 -1.30143 -5.0469 0
M  V30 1138 C 104.082 -1.93648 -5.53821 0
M  V30 1139 C 106.434 -2.38382 -5.85967 0
M  V30 1140 C 105.098 -2.70576 -6.10201 0
M  V30 1141 H 104.368 0.0950523 -0.734878 0
M  V30 1142 H 107.015 -0.465182 -1.85764 0
M  V30 1143 H 105.32 1.43006 -3.64769 0
M  V30 1144 H 107.017 1.09905 -3.85645 0
M  V30 1145 H 103.607 -0.271421 -4.2774 0
M  V30 1146 H 107.791 -1.07033 -4.84621 0
M  V30 1147 H 103.047 -2.19021 -5.70824 0
M  V30 1148 H 107.221 -2.98746 -6.29066 0
M  V30 1149 H 104.848 -3.55333 -6.72044 0
M  V30 1150 N 106.423 1.57458 -0.0668435 0
M  V30 1151 C 107.353 2.15468 0.899764 0
M  V30 1152 C 108.334 1.08042 1.31381 0
M  V30 1153 O 109.519 1.36054 1.38574 0
M  V30 1154 C 106.649 2.71232 2.16911 0
M  V30 1155 C 105.603 3.83781 1.89463 0
M  V30 1156 C 104.929 4.26127 3.22986 0
M  V30 1157 C 106.229 5.08238 1.20381 0
M  V30 1158 H 107.923 2.96488 0.416529 0
M  V30 1159 H 105.469 1.4262 0.198908 0
M  V30 1160 H 107.422 3.10458 2.84945 0
M  V30 1161 H 106.146 1.87426 2.67468 0
M  V30 1162 H 104.805 3.45051 1.23836 0
M  V30 1163 H 104.453 3.39249 3.71374 0
M  V30 1164 H 104.153 5.01993 3.05413 0
M  V30 1165 H 105.677 4.67966 3.92225 0
M  V30 1166 H 107.091 5.44811 1.78475 0
M  V30 1167 H 105.488 5.89349 1.13083 0
M  V30 1168 H 106.558 4.84558 0.182153 0
M  V30 1169 N 107.901 -0.206675 1.56239 0
M  V30 1170 C 109.15 -0.926964 1.79138 0
M  V30 1171 C 109.463 -1.84901 0.638043 0
M  V30 1172 O 110.669 -2.60906 0.751033 0
M  V30 1173 C 109.125 -1.6986 3.17294 0
M  V30 1174 C 108.733 -0.821956 4.40395 0
M  V30 1175 C 110.477 -2.40922 3.4951 0
M  V30 1176 C 108.384 -1.59179 5.69575 0
M  V30 1177 H 107.314 -0.349864 0.667915 0
M  V30 1178 H 109.965 -0.180487 1.8261 0
M  V30 1179 H 108.347 -2.48853 3.08039 0
M  V30 1180 H 109.521 -0.0715019 4.60745 0
M  V30 1181 H 107.836 -0.222741 4.15804 0
M  V30 1182 H 110.433 -2.99047 4.43255 0
M  V30 1183 H 110.776 -3.14542 2.72707 0
M  V30 1184 H 111.309 -1.68905 3.60161 0
M  V30 1185 H 108.048 -0.898589 6.49312 0
M  V30 1186 H 107.568 -2.31648 5.53262 0
M  V30 1187 H 109.247 -2.14862 6.10281 0
M  V30 1188 N 109.379 -1.50304 -0.473955 0
M  V30 1189 C 110.609 -1.64663 -1.24778 0
M  V30 1190 C 111.017 -0.328174 -1.86332 0
M  V30 1191 O 110.36 0.699536 -1.69859 0
M  V30 1192 C 110.422 -2.6778 -2.39863 0
M  V30 1193 C 110.086 -4.11413 -1.98969 0
M  V30 1194 C 111.083 -4.97372 -1.51385 0
M  V30 1195 C 108.768 -4.57312 -2.07777 0
M  V30 1196 C 110.762 -6.27277 -1.13148 0
M  V30 1197 C 108.449 -5.87223 -1.69152 0
M  V30 1198 C 109.447 -6.72031 -1.21915 0
M  V30 1199 O 109.135 -7.99518 -0.838237 0
M  V30 1200 H 108.867 -0.556602 -0.383627 0
M  V30 1201 H 111.421 -1.9726 -0.572491 0
M  V30 1202 H 109.651 -2.30419 -3.10554 0
M  V30 1203 H 111.34 -2.71388 -3.01833 0
M  V30 1204 H 112.106 -4.63128 -1.44004 0
M  V30 1205 H 107.985 -3.91449 -2.43493 0
M  V30 1206 H 111.529 -6.93425 -0.762077 0
M  V30 1207 H 107.426 -6.20989 -1.76191 0
M  V30 1208 H 108.194 -8.12764 -0.967339 0
M  V30 1209 N 110.857 0.726932 -1.39834 0
M  V30 1210 C 111.767 1.87131 -1.41489 0
M  V30 1211 C 112.783 1.71239 -0.308757 0
M  V30 1212 O 113.959 1.93701 -0.551529 0
M  V30 1213 C 111.024 3.22811 -1.26468 0
M  V30 1214 C 110.085 3.51039 -2.47124 0
M  V30 1215 C 109.318 4.80245 -2.3281 0
M  V30 1216 O 109.541 5.54537 -1.33585 0
M  V30 1217 O 108.475 5.08554 -3.21957 0
M  V30 1218 H 112.301 1.8869 -2.3797 0
M  V30 1219 H 109.886 0.875837 -1.21035 0
M  V30 1220 H 111.768 4.03877 -1.20255 0
M  V30 1221 H 110.443 3.22005 -0.330862 0
M  V30 1222 H 109.35 2.70027 -2.58914 0
M  V30 1223 H 110.683 3.56632 -3.39227 0
M  V30 1224 N 112.336 1.25143 0.95797 0
M  V30 1225 C 113.566 1.12261 1.73439 0
M  V30 1226 C 113.974 -0.326715 1.86358 0
M  V30 1227 O 113.317 -1.2367 1.35836 0
M  V30 1228 C 113.379 1.69966 3.16784 0
M  V30 1229 C 113.043 3.18936 3.27305 0
M  V30 1230 C 114.04 4.15968 3.11877 0
M  V30 1231 C 111.725 3.59083 3.51234 0
M  V30 1232 C 113.719 5.51126 3.20217 0
M  V30 1233 C 111.406 4.9438 3.5921 0
M  V30 1234 C 112.404 5.90211 3.43716 0
M  V30 1235 O 112.092 7.23046 3.51368 0
M  V30 1236 H 111.824 0.392476 0.550399 0
M  V30 1237 H 114.378 1.65927 1.21068 0
M  V30 1238 H 112.608 1.10744 3.70503 0
M  V30 1239 H 114.297 1.52232 3.76272 0
M  V30 1240 H 115.063 3.86292 2.93264 0
M  V30 1241 H 110.942 2.84989 3.62356 0
M  V30 1242 H 114.486 6.25905 3.0804 0
M  V30 1243 H 110.383 5.23723 3.77339 0
M  V30 1244 H 111.151 7.31097 3.6802 0
M  V30 1245 N 113.814 -1.1601 1.06675 0
M  V30 1246 C 115.23 -1.38622 0.790948 0
M  V30 1247 C 115.43 -1.92109 -0.607965 0
M  V30 1248 O 114.486 -2.12239 -1.36787 0
M  V30 1249 C 115.799 -2.36347 1.85905 0
M  V30 1250 C 117.347 -2.50023 1.88301 0
M  V30 1251 C 117.822 -3.51033 2.94176 0
M  V30 1252 N 119.313 -3.58563 2.93235 0
M  V30 1253 C 120.048 -4.36521 3.71803 0
M  V30 1254 N 119.544 -5.17869 4.602 0
M  V30 1255 N 121.337 -4.31541 3.60178 0
M  V30 1256 H 113.488 -0.796294 1.96908 0
M  V30 1257 H 115.751 -0.412597 0.853503 0
M  V30 1258 H 115.457 -2.04147 2.86386 0
M  V30 1259 H 115.331 -3.36042 1.71334 0
M  V30 1260 H 117.718 -2.81524 0.884769 0
M  V30 1261 H 117.799 -1.5035 2.06951 0
M  V30 1262 H 117.443 -3.20268 3.94196 0
M  V30 1263 H 117.373 -4.50445 2.72776 0
M  V30 1264 H 119.864 -3.00496 2.29152 0
M  V30 1265 H 120.177 -5.74578 5.16797 0
M  V30 1266 H 118.522 -5.17199 4.64253 0
M  V30 1267 H 121.713 -3.67051 2.90502 0
M  V30 1268 H 121.886 -4.9205 4.21653 0
M  V30 1269 N 115.292 -0.849877 -1.32721 0
M  V30 1270 C 116.24 -0.279745 -2.30912 0
M  V30 1271 C 117.234 0.594278 -1.58634 0
M  V30 1272 O 118.44 0.482613 -1.73409 0
M  V30 1273 H 114.815 -0.0717521 -0.748569 0
M  V30 1274 H 116.786 -1.12222 -2.76494 0
M  V30 1275 C 115.535 0.521108 -3.43773 0
M  V30 1276 H 114.858 -0.142141 -3.99547 0
M  V30 1277 H 116.298 0.885693 -4.14646 0
M  V30 1278 C 114.757 1.70442 -2.90605 0
M  V30 1279 O 115.287 2.8034 -2.87702 0
M  V30 1280 N 113.493 1.52991 -2.47067 0
M  V30 1281 H 113.04 0.635914 -2.49628 0
M  V30 1282 H 112.998 2.32311 -2.11847 0
M  V30 1283 N 116.77 1.45427 -0.607355 0
M  V30 1284 C 118.018 2.01841 -0.102253 0
M  V30 1285 C 118.339 1.47832 1.27164 0
M  V30 1286 O 117.609 0.672497 1.83995 0
M  V30 1287 H 116.189 0.746188 -0.0348101 0
M  V30 1288 H 118.851 1.78229 -0.7887 0
M  V30 1289 H 117.947 3.12057 -0.0518585 0
M  V30 1290 N 118.248 0.346503 1.53744 0
M  V30 1291 C 119.198 -0.524953 2.21874 0
M  V30 1292 C 120.182 -1.06376 1.20718 0
M  V30 1293 O 121.374 -0.996972 1.46251 0
M  V30 1294 C 118.503 -1.6739 2.99726 0
M  V30 1295 C 117.589 -1.14888 4.08242 0
M  V30 1296 N 117.98 -0.345329 5.0462 0
M  V30 1297 C 116.278 -1.4255 4.22606 0
M  V30 1298 C 116.979 -0.0600706 5.81669 0
M  V30 1299 N 115.955 -0.65252 5.39669 0
M  V30 1300 H 119.757 0.0960091 2.93743 0
M  V30 1301 H 117.271 0.15352 1.61673 0
M  V30 1302 H 119.268 -2.3102 3.47038 0
M  V30 1303 H 117.928 -2.29811 2.29384 0
M  V30 1304 H 118.939 0.0138439 5.17898 0
M  V30 1305 H 115.616 -2.05389 3.63486 0
M  V30 1306 H 117.006 0.588321 6.69319 0
M  V30 1307 N 119.726 -1.57421 0.075193 0
M  V30 1308 C 120.658 -2.09904 -0.920483 0
M  V30 1309 C 121.671 -1.03191 -1.25918 0
M  V30 1310 O 122.86 -1.30695 -1.21577 0
M  V30 1311 C 119.96 -2.54726 -2.23534 0
M  V30 1312 C 119.133 -3.8505 -2.07498 0
M  V30 1313 C 118.192 -4.15929 -3.22319 0
M  V30 1314 O 117.218 -4.85474 -2.9716 0
M  V30 1315 N 118.42 -3.69745 -4.47514 0
M  V30 1316 H 121.185 -2.95954 -0.472359 0
M  V30 1317 H 118.746 -1.61523 -0.110444 0
M  V30 1318 H 120.738 -2.72443 -2.9926 0
M  V30 1319 H 119.308 -1.73795 -2.59835 0
M  V30 1320 H 118.528 -3.76679 -1.16219 0
M  V30 1321 H 119.816 -4.70348 -1.94038 0
M  V30 1322 H 119.214 -3.13569 -4.7084 0
M  V30 1323 H 117.771 -3.92655 -5.20255 0
M  V30 1324 N 121.204 0.198386 -1.56346 0
M  V30 1325 C 122.114 1.2664 -1.97483 0
M  V30 1326 C 123.13 1.49989 -0.882002 0
M  V30 1327 O 124.306 1.62668 -1.18748 0
M  V30 1328 C 121.371 2.59141 -2.30319 0
M  V30 1329 C 120.432 2.43892 -3.53292 0
M  V30 1330 C 119.665 3.70074 -3.84553 0
M  V30 1331 O 119.888 4.74101 -3.1715 0
M  V30 1332 O 118.822 3.658 -4.7799 0
M  V30 1333 H 122.648 0.947304 -2.88548 0
M  V30 1334 H 120.233 0.403123 -1.43859 0
M  V30 1335 H 122.115 3.37352 -2.5253 0
M  V30 1336 H 120.79 2.90684 -1.42423 0
M  V30 1337 H 119.697 1.63803 -3.36332 0
M  V30 1338 H 121.03 2.17282 -4.41644 0
M  V30 1339 N 122.682 1.50554 0.465978 0
M  V30 1340 C 123.928 1.62038 1.21949 0
M  V30 1341 C 124.261 0.322116 1.9151 0
M  V30 1342 O 123.536 -0.676723 1.82348 0
M  V30 1343 C 123.819 2.80421 2.25912 0
M  V30 1344 C 123.672 4.20144 1.60622 0
M  V30 1345 C 124.991 2.94354 3.27176 0
M  V30 1346 H 122.11 0.589752 0.441998 0
M  V30 1347 H 124.752 1.82956 0.51257 0
M  V30 1348 H 122.902 2.62717 2.86203 0
M  V30 1349 H 124.574 4.49449 1.03889 0
M  V30 1350 H 122.817 4.24165 0.909211 0
M  V30 1351 H 123.488 4.98914 2.36196 0
M  V30 1352 H 125.964 3.10578 2.76913 0
M  V30 1353 H 124.84 3.788 3.97242 0
M  V30 1354 H 125.101 2.05186 3.916 0
M  V30 1355 N 124.16 -0.719506 1.40217 0
M  V30 1356 C 125.07 -1.86378 1.42479 0
M  V30 1357 C 126.086 -1.71073 0.317834 0
M  V30 1358 O 127.262 -1.93406 0.561794 0
M  V30 1359 C 124.327 -3.22136 1.28178 0
M  V30 1360 C 123.388 -3.49723 2.48982 0
M  V30 1361 C 122.621 -4.79004 2.35353 0
M  V30 1362 O 122.844 -5.53821 1.36524 0
M  V30 1363 O 121.778 -5.06839 3.2465 0
M  V30 1364 H 125.604 -1.87425 2.38968 0
M  V30 1365 H 123.189 -0.869405 1.21498 0
M  V30 1366 H 125.071 -4.03234 1.22395 0
M  V30 1367 H 123.746 -3.21825 0.347934 0
M  V30 1368 H 122.653 -2.6865 2.60342 0
M  V30 1369 H 123.986 -3.54828 3.41113 0
M  V30 1370 N 125.638 -1.25649 -0.95132 0
M  V30 1371 C 126.863 -1.13443 -1.73624 0
M  V30 1372 C 127.288 0.307565 -1.85568 0
M  V30 1373 O 126.646 1.22282 -1.33854 0
M  V30 1374 C 126.694 -1.79723 -3.12621 0
M  V30 1375 O 125.798 -1.07912 -3.98031 0
M  V30 1376 H 125.139 -0.395872 -0.533086 0
M  V30 1377 H 127.669 -1.66276 -1.1922 0
M  V30 1378 H 127.679 -1.86141 -3.63064 0
M  V30 1379 H 126.354 -2.84633 -3.03244 0
M  V30 1380 H 124.931 -1.09398 -3.56492 0
M  V30 1381 N 127.117 1.15442 -1.07289 0
M  V30 1382 C 128.528 1.67803 -0.818475 0
M  V30 1383 C 128.879 1.8489 0.656507 0
M  V30 1384 O 128.004 1.55176 1.50829 0
M  V30 1385 C 128.599 3.04805 -1.47917 0
M  V30 1386 C 127.158 3.54245 -1.27229 0
M  V30 1387 C 126.305 2.29986 -1.54925 0
M  V30 1388 H 129.256 0.996646 -1.23502 0
M  V30 1389 H 129.277 3.69702 -0.90005 0
M  V30 1390 H 128.789 2.92336 -2.55267 0
M  V30 1391 H 126.89 3.71956 -0.21899 0
M  V30 1392 H 127.003 4.35723 -1.99203 0
M  V30 1393 H 125.367 2.35496 -0.970242 0
M  V30 1394 H 126.15 2.20105 -2.63455 0
M  V30 1395 N 128.595 0.856903 1.32268 0
M  V30 1396 C 129.842 0.461386 1.97174 0
M  V30 1397 C 130.17 -0.983491 1.67803 0
M  V30 1398 O 129.425 -1.70541 0.959903 0
M  V30 1399 C 129.724 0.649919 3.51441 0
M  V30 1400 C 129.39 2.0656 4.00804 0
M  V30 1401 C 128.052 2.45279 4.13995 0
M  V30 1402 C 130.404 2.98947 4.26943 0
M  V30 1403 C 127.732 3.75653 4.50668 0
M  V30 1404 C 130.084 4.28822 4.65075 0
M  V30 1405 C 128.748 4.67472 4.76472 0
M  V30 1406 H 128.018 0.168833 0.72151 0
M  V30 1407 H 130.665 1.08739 1.57633 0
M  V30 1408 H 128.97 -0.0593018 3.91755 0
M  V30 1409 H 130.667 0.32391 3.9969 0
M  V30 1410 H 127.257 1.75495 3.91024 0
M  V30 1411 H 131.441 2.70265 4.16258 0
M  V30 1412 H 126.697 4.05379 4.57688 0
M  V30 1413 H 130.871 5.0047 4.84255 0
M  V30 1414 H 128.498 5.68539 5.04646 0
M  V30 1415 N 130.073 -1.45103 0.615059 0
M  V30 1416 C 131.005 -2.28786 -0.13762 0
M  V30 1417 C 132.018 -1.40376 -0.824525 0
M  V30 1418 O 133.207 -1.64681 -0.688662 0
M  V30 1419 C 130.307 -3.16322 -1.21628 0
M  V30 1420 C 129.48 -4.33054 -0.615039 0
M  V30 1421 C 128.539 -5.01743 -1.58556 0
M  V30 1422 O 127.565 -5.58293 -1.10895 0
M  V30 1423 N 128.767 -5.01714 -2.91998 0
M  V30 1424 H 131.532 -2.94025 0.580483 0
M  V30 1425 H 129.093 -1.55373 0.45507 0
M  V30 1426 H 131.085 -3.59139 -1.86552 0
M  V30 1427 H 129.655 -2.52943 -1.83681 0
M  V30 1428 H 128.875 -3.93627 0.21245 0
M  V30 1429 H 130.163 -5.08431 -0.193704 0
M  V30 1430 H 129.561 -4.57075 -3.33316 0
M  V30 1431 H 128.118 -5.48371 -3.52325 0
M  V30 1432 N 131.551 -0.354651 -1.53558 0
M  V30 1433 C 132.799 0.237972 -2.00694 0
M  V30 1434 C 133.12 1.50173 -1.24391 0
M  V30 1435 O 132.39 1.92673 -0.354135 0
M  V30 1436 H 130.97 0.0909256 -0.741446 0
M  V30 1437 H 133.632 -0.478368 -1.88938 0
M  V30 1438 H 132.728 0.47264 -3.085 0
M  V30 1439 N 133.029 1.57378 -0.0835403 0
M  V30 1440 C 134.445 1.57246 0.273109 0
M  V30 1441 C 134.645 1.09385 1.69225 0
M  V30 1442 O 133.701 0.765051 2.40631 0
M  V30 1443 C 135.014 3.00614 0.0720628 0
M  V30 1444 C 136.562 3.12684 0.1407 0
M  V30 1445 C 137.037 4.57989 -0.0322094 0
M  V30 1446 N 138.528 4.63194 0.0230085 0
M  V30 1447 C 139.263 5.73335 -0.0861941 0
M  V30 1448 N 138.759 6.9235 -0.24958 0
M  V30 1449 N 140.552 5.62093 -0.0282886 0
M  V30 1450 H 132.703 1.86801 -1.0109 0
M  V30 1451 H 134.966 0.861687 -0.395222 0
M  V30 1452 H 134.672 3.39786 -0.907662 0
M  V30 1453 H 134.546 3.68193 0.81936 0
M  V30 1454 H 136.933 2.73391 1.11092 0
M  V30 1455 H 137.014 2.47719 -0.637896 0
M  V30 1456 H 136.658 4.97973 -0.999247 0
M  V30 1457 H 136.588 5.21 0.765937 0
M  V30 1458 H 139.079 3.77613 0.14722 0
M  V30 1459 H 139.392 7.72117 -0.324733 0
M  V30 1460 H 137.737 6.94415 -0.285097 0
M  V30 1461 H 140.928 4.67997 0.0981408 0
M  V30 1462 H 141.101 6.47895 -0.116845 0
M  V30 1463 N 134.507 -0.190092 1.56449 0
M  V30 1464 C 135.437 -1.23816 1.97969 0
M  V30 1465 C 136.418 -1.47201 0.852395 0
M  V30 1466 O 137.603 -1.58854 1.1171 0
M  V30 1467 C 134.733 -2.5813 2.3235 0
M  V30 1468 C 133.687 -2.49348 3.47864 0
M  V30 1469 C 133.013 -3.8798 3.67934 0
M  V30 1470 C 134.313 -2.01424 4.81898 0
M  V30 1471 H 136.007 -0.89311 2.85769 0
M  V30 1472 H 133.553 -0.428177 1.37487 0
M  V30 1473 H 135.506 -3.31637 2.59991 0
M  V30 1474 H 134.23 -2.94386 1.41438 0
M  V30 1475 H 132.889 -1.78297 3.20321 0
M  V30 1476 H 132.537 -4.21597 2.74344 0
M  V30 1477 H 132.237 -3.82978 4.45648 0
M  V30 1478 H 133.761 -4.63101 3.97957 0
M  V30 1479 H 135.175 -2.64693 5.08538 0
M  V30 1480 H 133.572 -2.07413 5.63116 0
M  V30 1481 H 134.642 -0.967677 4.75146 0
M  V30 1482 N 135.985 -1.50799 -0.457987 0
M  V30 1483 C 136.917 -1.66786 -1.57211 0
M  V30 1484 C 137.93 -0.548962 -1.53265 0
M  V30 1485 O 139.119 -0.8226 -1.58416 0
M  V30 1486 C 136.219 -1.64834 -2.96113 0
M  V30 1487 C 135.392 -2.92971 -3.24787 0
M  V30 1488 C 134.451 -2.83485 -4.43309 0
M  V30 1489 O 133.477 -3.5744 -4.42973 0
M  V30 1490 N 134.679 -1.97929 -5.45714 0
M  V30 1491 H 137.444 -2.62889 -1.43909 0
M  V30 1492 H 135.005 -1.48427 -0.646617 0
M  V30 1493 H 136.997 -1.56084 -3.7339 0
M  V30 1494 H 135.567 -0.764118 -3.03117 0
M  V30 1495 H 134.787 -3.15749 -2.36 0
M  V30 1496 H 136.075 -3.77834 -3.40762 0
M  V30 1497 H 135.473 -1.37182 -5.48815 0
M  V30 1498 H 134.03 -1.95073 -6.21924 0
M  V30 1499 N 137.463 0.71206 -1.40597 0
M  V30 1500 C 138.709 1.47292 -1.40274 0
M  V30 1501 C 139.064 1.92399 -0.00576812 0
M  V30 1502 O 138.357 1.65507 0.965297 0
M  V30 1503 C 138.551 2.71039 -2.32965 0
M  V30 1504 C 138.38 2.38035 -3.81536 0
M  V30 1505 C 137.15 2.29203 -4.50327 0
M  V30 1506 C 139.348 2.02076 -4.72938 0
M  V30 1507 N 137.33 1.88911 -5.84111 0
M  V30 1508 C 138.701 1.72412 -5.95545 0
M  V30 1509 C 140.756 1.88742 -4.60739 0
M  V30 1510 C 139.459 1.30756 -7.07316 0
M  V30 1511 C 141.485 1.4849 -5.72455 0
M  V30 1512 C 140.847 1.19726 -6.94151 0
M  V30 1513 H 136.946 0.536919 -0.568544 0
M  V30 1514 H 139.53 0.825424 -1.76337 0
M  V30 1515 H 137.701 3.33533 -1.99023 0
M  V30 1516 H 139.433 3.37404 -2.23474 0
M  V30 1517 H 136.188 2.47059 -4.04053 0
M  V30 1518 H 136.612 1.71293 -6.54972 0
M  V30 1519 H 141.254 2.0964 -3.67166 0
M  V30 1520 H 138.972 1.08601 -8.00769 0
M  V30 1521 H 142.558 1.38747 -5.65014 0
M  V30 1522 H 141.438 0.890482 -7.79128 0
M  V30 1523 N 138.941 1.26152 0.944643 0
M  V30 1524 C 139.889 1.07215 2.06417 0
M  V30 1525 C 140.883 9.2007e-05 1.694 0
M  V30 1526 O 142.089 0.1565 1.79318 0
M  V30 1527 H 138.464 0.329837 0.675805 0
M  V30 1528 H 140.435 2.02099 2.19541 0
M  V30 1529 C 139.184 0.718197 3.40202 0
M  V30 1530 H 138.507 1.53497 3.69159 0
M  V30 1531 H 139.947 0.625459 4.19361 0
M  V30 1532 C 138.406 -0.576435 3.31932 0
M  V30 1533 O 138.936 -1.61574 3.67773 0
M  V30 1534 N 137.142 -0.565781 2.85039 0
M  V30 1535 H 136.689 0.280367 2.5607 0
M  V30 1536 H 136.647 -1.43213 2.79888 0
M  V30 1537 N 140.419 -1.14872 1.07899 0
M  V30 1538 C 141.667 -1.85422 0.803941 0
M  V30 1539 C 141.988 -1.83051 -0.67211 0
M  V30 1540 O 141.258 -1.27532 -1.48703 0
M  V30 1541 H 139.838 -0.686537 0.294408 0
M  V30 1542 H 142.5 -1.39226 1.3639 0
M  V30 1543 H 141.596 -2.90399 1.14346 0
M  V30 1544 N 141.898 -0.863906 -1.31812 0
M  V30 1545 C 143.123 -0.48527 -2.01643 0
M  V30 1546 C 143.548 0.913058 -1.64453 0
M  V30 1547 O 142.906 1.6014 -0.849985 0
M  V30 1548 C 142.954 -0.642625 -3.54828 0
M  V30 1549 O 142.058 0.320659 -4.11151 0
M  V30 1550 H 141.399 -0.193793 -0.635091 0
M  V30 1551 H 143.929 -1.16565 -1.68148 0
M  V30 1552 H 143.939 -0.533628 -4.04495 0
M  V30 1553 H 142.614 -1.66227 -3.81237 0
M  V30 1554 H 141.191 0.167126 -3.72525 0
M  V30 1555 N 143.376 1.44774 -0.622745 0
M  V30 1556 C 144.323 2.30635 0.0871679 0
M  V30 1557 C 145.293 1.42994 0.845097 0
M  V30 1558 O 146.478 1.71907 0.827812 0
M  V30 1559 C 143.618 3.28144 1.06844 0
M  V30 1560 C 142.731 4.30888 0.309809 0
M  V30 1561 C 141.866 5.15494 1.28215 0
M  V30 1562 C 140.905 6.09953 0.512198 0
M  V30 1563 N 140.042 6.87287 1.43458 0
M  V30 1564 H 144.882 2.90803 -0.650974 0
M  V30 1565 H 142.419 1.43286 -0.33281 0
M  V30 1566 H 144.377 3.83157 1.65066 0
M  V30 1567 H 143.007 2.69695 1.77382 0
M  V30 1568 H 142.059 3.78414 -0.388181 0
M  V30 1569 H 143.371 4.97955 -0.290254 0
M  V30 1570 H 142.525 5.74983 1.93596 0
M  V30 1571 H 141.264 4.48481 1.91614 0
M  V30 1572 H 140.269 5.49581 -0.155151 0
M  V30 1573 H 141.494 6.78999 -0.116958 0
M  V30 1574 H 139.44 6.2295 2.05594 0
M  V30 1575 H 139.357 7.50763 0.888335 0
M  V30 1576 H 140.625 7.51306 2.07749 0
M  V30 1577 N 144.854 0.36279 1.53368 0
M  V30 1578 C 146.131 -0.284021 1.93527 0
M  V30 1579 C 146.511 -1.66628 1.29608 0
M  V30 1580 O 145.859 -2.23942 0.45413 0
M  V30 1581 C 146.069 -0.337028 3.47369 0
M  V30 1582 C 147.417 -0.578708 4.20638 0
M  V30 1583 O 148.441 -0.418352 3.53735 0
M  V30 1584 O 147.3 -0.89074 5.39192 0
M  V30 1585 H 144.394 -0.169743 0.809393 0
M  V30 1586 H 146.94 0.41537 1.64538 0
M  V30 1587 H 145.712 0.632217 3.86159 0
M  V30 1588 H 145.335 -1.08243 3.82582 0
M  V30 1589 N 146.332 -1.57332 0.0918853 0
M  V30 1590 C 147.262 -2.16872 -0.865371 0
M  V30 1591 C 148.243 -1.10118 -1.29646 0
M  V30 1592 O 149.428 -1.38242 -1.36392 0
M  V30 1593 C 146.558 -2.74649 -2.12569 0
M  V30 1594 C 145.512 -3.86747 -1.83333 0
M  V30 1595 C 144.838 -4.31212 -3.16166 0
M  V30 1596 C 146.138 -5.10089 -1.1228 0
M  V30 1597 H 147.832 -2.97114 -0.369307 0
M  V30 1598 H 145.378 -1.42918 -0.176194 0
M  V30 1599 H 147.331 -3.14952 -2.7997 0
M  V30 1600 H 146.055 -1.91657 -2.64452 0
M  V30 1601 H 144.714 -3.46978 -1.18331 0
M  V30 1602 H 144.362 -3.45115 -3.6593 0
M  V30 1603 H 144.062 -5.06788 -2.97388 0
M  V30 1604 H 145.586 -4.74146 -3.84731 0
M  V30 1605 H 147 -5.47582 -1.69785 0
M  V30 1606 H 145.397 -5.91073 -1.03693 0
M  V30 1607 H 146.467 -4.84786 -0.105041 0
M  V30 1608 N 147.81 0.181792 -1.56548 0
M  V30 1609 C 148.742 1.24956 -1.92142 0
M  V30 1610 C 149.755 1.41022 -0.813422 0
M  V30 1611 O 150.944 1.41212 -1.09186 0
M  V30 1612 C 148.044 2.61981 -2.14987 0
M  V30 1613 C 147.217 2.6735 -3.46183 0
M  V30 1614 C 146.276 3.85664 -3.5798 0
M  V30 1615 O 145.302 3.72148 -4.30691 0
M  V30 1616 N 146.504 5.01683 -2.92053 0
M  V30 1617 H 149.269 0.947329 -2.84334 0
M  V30 1618 H 146.83 0.371629 -1.57577 0
M  V30 1619 H 148.822 3.3958 -2.20154 0
M  V30 1620 H 147.392 2.84637 -1.2923 0
M  V30 1621 H 146.612 1.75925 -3.52766 0
M  V30 1622 H 147.9 2.67939 -4.32534 0
M  V30 1623 H 147.298 5.15564 -2.32832 0
M  V30 1624 H 145.855 5.77181 -3.0283 0
M  V30 1625 N 149.288 1.51039 0.449983 0
M  V30 1626 C 150.565 1.53612 1.21089 0
M  V30 1627 C 150.945 0.292997 2.09057 0
M  V30 1628 O 150.293 -0.72259 2.16774 0
M  V30 1629 C 150.503 2.84337 2.0237 0
M  V30 1630 C 151.851 3.35807 2.59843 0
M  V30 1631 O 152.875 2.85802 2.12593 0
M  V30 1632 O 151.734 4.23029 3.45989 0
M  V30 1633 H 148.828 0.617057 0.550608 0
M  V30 1634 H 151.374 1.63344 0.460082 0
M  V30 1635 H 150.146 3.66278 1.37681 0
M  V30 1636 H 149.769 2.77708 2.84542 0
M  V30 1637 N 150.766 -0.704594 1.40972 0
M  V30 1638 C 152.012 -1.46675 1.40051 0
M  V30 1639 C 152.345 -1.94199 0.00641102 0
M  V30 1640 O 151.62 -1.68916 -0.964235 0
M  V30 1641 C 151.903 -2.68505 2.39952 0
M  V30 1642 C 151.756 -2.26805 3.88432 0
M  V30 1643 C 153.075 -3.70686 2.37233 0
M  V30 1644 H 150.194 -0.532015 0.510028 0
M  V30 1645 H 152.836 -0.803255 1.72185 0
M  V30 1646 H 150.986 -3.25114 2.1268 0
M  V30 1647 H 152.658 -1.75592 4.26574 0
M  V30 1648 H 150.901 -1.58685 4.03734 0
M  V30 1649 H 151.572 -3.14181 4.53866 0
M  V30 1650 H 154.048 -3.23731 2.61415 0
M  V30 1651 H 152.924 -4.53553 3.09162 0
M  V30 1652 H 153.185 -4.19754 1.38777 0
M  V30 1653 N 152.244 -1.26651 -0.937939 0
M  V30 1654 C 153.469 -1.15279 -1.72411 0
M  V30 1655 C 153.894 0.287866 -1.85884 0
M  V30 1656 O 153.252 1.20855 -1.35143 0
M  V30 1657 C 153.3 -1.83028 -3.10698 0
M  V30 1658 O 152.404 -1.12128 -3.96864 0
M  V30 1659 H 151.745 -0.401504 -0.528858 0
M  V30 1660 H 154.275 -1.67531 -1.1745 0
M  V30 1661 H 154.285 -1.89981 -3.6107 0
M  V30 1662 H 152.96 -2.87833 -3.00208 0
M  V30 1663 H 151.537 -1.13173 -3.55312 0
M  V30 1664 N 153.722 1.14298 -1.08507 0
M  V30 1665 C 154.971 1.84708 -0.810305 0
M  V30 1666 C 155.284 1.83903 0.666271 0
M  V30 1667 O 156.49 2.50112 1.05624 0
M  V30 1668 C 154.946 3.31572 -1.39957 0
M  V30 1669 C 154.554 3.40791 -2.90801 0
M  V30 1670 C 156.298 4.07087 -1.20334 0
M  V30 1671 C 154.205 4.81872 -3.4286 0
M  V30 1672 H 153.135 0.691985 -0.299454 0
M  V30 1673 H 155.786 1.28841 -1.30661 0
M  V30 1674 H 154.168 3.87183 -0.830976 0
M  V30 1675 H 155.342 2.95225 -3.53806 0
M  V30 1676 H 153.657 2.78732 -3.0935 0
M  V30 1677 H 156.254 5.11225 -1.56693 0
M  V30 1678 H 156.597 4.16054 -0.143237 0
M  V30 1679 H 157.13 3.57779 -1.73893 0
M  V30 1680 H 153.869 4.78094 -4.48449 0
M  V30 1681 H 153.389 5.27972 -2.84615 0
M  V30 1682 H 155.068 5.50765 -3.39509 0
M  V30 1683 N 155.201 0.870884 1.31352 0
M  V30 1684 C 156.429 0.49677 2.00848 0
M  V30 1685 C 156.844 -0.910998 1.65367 0
M  V30 1686 O 156.201 -1.59696 0.883374 0
M  V30 1687 C 156.252 0.645308 3.55694 0
M  V30 1688 O 155.973 1.99764 3.89905 0
M  V30 1689 C 157.474 0.272326 4.42463 0
M  V30 1690 H 154.694 0.193462 0.642506 0
M  V30 1691 H 157.238 1.1723 1.67563 0
M  V30 1692 H 155.393 0.0173176 3.87396 0
M  V30 1693 H 155.807 2.00607 4.84621 0
M  V30 1694 H 157.281 0.427208 5.50344 0
M  V30 1695 H 157.758 -0.788587 4.32062 0
M  V30 1696 H 158.364 0.876054 4.1618 0
M  V30 1697 N 156.679 -1.44442 0.630414 0
M  V30 1698 C 157.925 -2.02351 0.134816 0
M  V30 1699 C 158.258 -1.4947 -1.23986 0
M  V30 1700 O 157.533 -0.678475 -1.82283 0
M  V30 1701 C 157.816 -3.59898 0.120707 0
M  V30 1702 C 157.669 -4.23063 1.52767 0
M  V30 1703 C 158.988 -4.36585 -0.555127 0
M  V30 1704 H 156.107 -0.73527 0.0504646 0
M  V30 1705 H 158.749 -1.72022 0.806751 0
M  V30 1706 H 156.899 -3.85868 -0.451477 0
M  V30 1707 H 158.571 -4.08202 2.14869 0
M  V30 1708 H 156.814 -3.80586 2.08175 0
M  V30 1709 H 157.485 -5.32071 1.46984 0
M  V30 1710 H 159.961 -4.16044 -0.0685429 0
M  V30 1711 H 158.837 -5.46294 -0.534185 0
M  V30 1712 H 159.098 -4.11138 -1.62535 0
M  V30 1713 N 158.157 -0.370918 -1.53173 0
M  V30 1714 C 159.087 0.464847 -2.28826 0
M  V30 1715 C 160.068 1.07936 -1.31468 0
M  V30 1716 O 161.253 1.0956 -1.60344 0
M  V30 1717 C 158.383 1.60196 -3.08147 0
M  V30 1718 C 157.337 1.11443 -4.13237 0
M  V30 1719 C 156.663 2.3422 -4.80672 0
M  V30 1720 C 157.963 0.195384 -5.21934 0
M  V30 1721 H 159.657 -0.166329 -2.98938 0
M  V30 1722 H 157.203 -0.0814359 -1.4377 0
M  V30 1723 H 159.156 2.19332 -3.59822 0
M  V30 1724 H 157.88 2.26045 -2.35735 0
M  V30 1725 H 156.539 0.545727 -3.62515 0
M  V30 1726 H 156.187 2.98537 -4.04827 0
M  V30 1727 H 155.887 2.02269 -5.51689 0
M  V30 1728 H 157.411 2.94032 -5.35143 0
M  V30 1729 H 158.825 0.694375 -5.69079 0
M  V30 1730 H 157.222 -0.0335027 -6.00091 0
M  V30 1731 H 158.292 -0.760961 -4.78892 0
M  V30 1732 N 159.635 1.57281 -0.100228 0
M  V30 1733 C 160.583 2.15542 0.874328 0
M  V30 1734 C 161.577 1.09962 1.28859 0
M  V30 1735 O 162.783 1.28298 1.26252 0
M  V30 1736 H 159.158 0.689567 0.300003 0
M  V30 1737 H 161.129 2.96241 0.35829 0
M  V30 1738 C 159.878 2.75454 2.1218 0
M  V30 1739 H 159.201 3.56384 1.81193 0
M  V30 1740 H 160.641 3.19781 2.78417 0
M  V30 1741 C 159.1 1.71602 2.89921 0
M  V30 1742 O 159.63 1.15804 3.84646 0
M  V30 1743 N 157.836 1.41975 2.53558 0
M  V30 1744 H 157.383 1.87539 1.76598 0
M  V30 1745 H 157.341 0.727274 3.05873 0
M  V30 1746 N 161.113 -0.173488 1.56642 0
M  V30 1747 C 162.359 -0.891784 1.8214 0
M  V30 1748 C 162.692 -1.8199 0.677736 0
M  V30 1749 O 161.967 -1.91842 -0.320446 0
M  V30 1750 C 162.25 -1.68933 3.18015 0
M  V30 1751 C 162.103 -0.784487 4.42906 0
M  V30 1752 C 163.422 -2.65748 3.50808 0
M  V30 1753 H 160.541 -0.322761 0.662567 0
M  V30 1754 H 163.183 -0.158095 1.89341 0
M  V30 1755 H 161.333 -2.31482 3.12007 0
M  V30 1756 H 163.005 -0.172046 4.60979 0
M  V30 1757 H 161.248 -0.0924117 4.33702 0
M  V30 1758 H 161.919 -1.37799 5.34524 0
M  V30 1759 H 164.395 -2.13327 3.57255 0
M  V30 1760 H 163.271 -3.18619 4.4696 0
M  V30 1761 H 163.532 -3.45842 2.75401 0
M  V30 1762 N 162.591 -1.51276 -0.441967 0
M  V30 1763 C 163.819 -1.67516 -1.21434 0
M  V30 1764 C 164.234 -0.37055 -1.85128 0
M  V30 1765 O 163.591 0.650498 -1.70513 0
M  V30 1766 C 163.642 -2.78748 -2.30177 0
M  V30 1767 O 163.363 -4.04154 -1.69089 0
M  V30 1768 C 164.864 -3.06217 -3.20541 0
M  V30 1769 H 162.084 -0.562276 -0.366178 0
M  V30 1770 H 164.628 -1.97666 -0.524244 0
M  V30 1771 H 162.783 -2.5121 -2.94911 0
M  V30 1772 H 163.197 -4.65894 -2.40922 0
M  V30 1773 H 164.671 -3.8764 -3.92987 0
M  V30 1774 H 165.148 -2.18439 -3.81026 0
M  V30 1775 H 165.754 -3.35397 -2.61513 0
M  V30 1776 N 164.069 0.697108 -1.41344 0
M  V30 1777 C 164.999 1.82353 -1.45841 0
M  V30 1778 C 165.98 1.67115 -0.317247 0
M  V30 1779 O 167.165 1.86871 -0.528474 0
M  V30 1780 C 164.295 3.20476 -1.33838 0
M  V30 1781 C 163.249 3.50415 -2.4575 0
M  V30 1782 C 162.575 4.87878 -2.18813 0
M  V30 1783 C 163.875 3.49546 -3.88091 0
M  V30 1784 H 165.569 1.78846 -2.40113 0
M  V30 1785 H 163.115 0.859028 -1.15571 0
M  V30 1786 H 165.068 3.98988 -1.35596 0
M  V30 1787 H 163.792 3.24604 -0.360498 0
M  V30 1788 H 162.451 2.74253 -2.43271 0
M  V30 1789 H 162.099 4.8863 -1.19371 0
M  V30 1790 H 161.799 5.08875 -2.93803 0
M  V30 1791 H 163.323 5.68702 -2.22284 0
M  V30 1792 H 164.737 4.18066 -3.92293 0
M  V30 1793 H 163.134 3.82075 -4.62751 0
M  V30 1794 H 164.204 2.48552 -4.16353 0
M  V30 1795 N 165.547 1.27147 0.931209 0
M  V30 1796 C 166.495 1.09398 2.05268 0
M  V30 1797 C 167.489 0.0180591 1.6939 0
M  V30 1798 O 168.695 0.17551 1.79142 0
M  V30 1799 H 165.07 0.336986 0.672268 0
M  V30 1800 H 167.041 2.04416 2.17386 0
M  V30 1801 C 165.79 0.75424 3.39421 0
M  V30 1802 H 165.113 1.57404 3.67511 0
M  V30 1803 H 166.553 0.669903 4.18674 0
M  V30 1804 C 165.012 -0.541197 3.32525 0
M  V30 1805 O 165.542 -1.57664 3.69466 0
M  V30 1806 N 163.748 -0.535517 2.85623 0
M  V30 1807 H 163.295 0.307511 2.55758 0
M  V30 1808 H 163.253 -1.40236 2.81392 0
M  V30 1809 N 167.025 -1.13721 1.09112 0
M  V30 1810 C 168.302 -1.81155 0.737706 0
M  V30 1811 C 168.682 -1.96253 -0.777683 0
M  V30 1812 O 168.03 -1.52807 -1.69889 0
M  V30 1813 C 168.24 -3.16392 1.47299 0
M  V30 1814 C 169.588 -3.91787 1.63671 0
M  V30 1815 O 170.612 -3.26005 1.43524 0
M  V30 1816 O 169.471 -5.0977 1.96969 0
M  V30 1817 H 166.565 -0.783518 0.26463 0
M  V30 1818 H 169.111 -1.20676 1.19312 0
M  V30 1819 H 167.883 -3.0061 2.50498 0
M  V30 1820 H 167.506 -3.8457 1.00953 0
M  V30 1821 N 168.503 -0.877838 -1.30888 0
M  V30 1822 C 169.728 -0.506629 -2.01117 0
M  V30 1823 C 170.153 0.895564 -1.65412 0
M  V30 1824 O 169.511 1.5923 -0.866922 0
M  V30 1825 C 169.559 -0.680223 -3.54126 0
M  V30 1826 O 168.663 0.277033 -4.11468 0
M  V30 1827 H 168.004 -0.200518 -0.633 0
M  V30 1828 H 170.534 -1.18342 -1.66902 0
M  V30 1829 H 170.544 -0.5765 -4.03907 0
M  V30 1830 H 169.219 -1.70261 -3.79452 0
M  V30 1831 H 167.796 0.127606 -3.72682 0
M  V30 1832 N 169.982 1.44106 -0.638065 0
M  V30 1833 C 171.23 2.01579 -0.145043 0
M  V30 1834 C 171.551 1.50496 1.24 0
M  V30 1835 O 170.821 0.711374 1.82527 0
M  V30 1836 H 169.401 0.745282 -0.05063 0
M  V30 1837 H 172.063 1.76516 -0.826327 0
M  V30 1838 H 171.159 3.11877 -0.118039 0
M  V30 1839 N 171.46 0.379036 1.52974 0
M  V30 1840 C 172.39 -0.452706 2.29069 0
M  V30 1841 C 173.371 -1.07237 1.32039 0
M  V30 1842 O 174.556 -1.08708 1.60923 0
M  V30 1843 C 171.686 -1.5856 3.08992 0
M  V30 1844 C 170.64 -1.0925 4.13822 0
M  V30 1845 C 169.966 -2.31668 4.81907 0
M  V30 1846 C 171.266 -0.167702 5.22031 0
M  V30 1847 H 172.96 0.182181 2.98845 0
M  V30 1848 H 170.506 0.0890592 1.43724 0
M  V30 1849 H 172.459 -2.1742 3.6098 0
M  V30 1850 H 171.183 -2.24792 2.36931 0
M  V30 1851 H 169.842 -0.526494 3.628 0
M  V30 1852 H 169.49 -2.96386 4.06404 0
M  V30 1853 H 169.19 -1.9934 5.52754 0
M  V30 1854 H 170.714 -2.91189 5.36695 0
M  V30 1855 H 172.128 -0.664186 5.6944 0
M  V30 1856 H 170.525 0.0653265 6.00064 0
M  V30 1857 H 171.595 0.786347 4.78482 0
M  V30 1858 N 172.938 -1.57226 0.108567 0
M  V30 1859 C 174.168 -1.9889 -0.559142 0
M  V30 1860 C 174.576 -0.986889 -1.61422 0
M  V30 1861 O 173.919 0.0298705 -1.83676 0
M  V30 1862 C 173.981 -3.36952 -1.25315 0
M  V30 1863 C 173.645 -4.55679 -0.347248 0
M  V30 1864 C 174.642 -5.18281 0.409996 0
M  V30 1865 C 172.327 -5.0162 -0.261367 0
M  V30 1866 C 174.321 -6.25203 1.24096 0
M  V30 1867 C 172.008 -6.08405 0.573238 0
M  V30 1868 C 173.006 -6.70063 1.32304 0
M  V30 1869 O 172.694 -7.74788 2.14381 0
M  V30 1870 H 172.426 -0.658343 -0.153492 0
M  V30 1871 H 174.98 -2.04532 0.188584 0
M  V30 1872 H 173.21 -3.28032 -2.04773 0
M  V30 1873 H 174.899 -3.62974 -1.81673 0
M  V30 1874 H 175.665 -4.8371 0.353457 0
M  V30 1875 H 171.544 -4.53381 -0.834656 0
M  V30 1876 H 175.088 -6.73259 1.82669 0
M  V30 1877 H 170.985 -6.42406 0.631208 0
M  V30 1878 H 171.753 -7.91837 2.07209 0
M  V30 1879 N 174.416 0.165178 -1.56732 0
M  V30 1880 C 175.644 0.896218 -1.86482 0
M  V30 1881 C 176.059 1.75555 -0.694675 0
M  V30 1882 O 175.416 1.79379 0.33607 0
M  V30 1883 C 175.467 1.76792 -3.1532 0
M  V30 1884 O 175.188 0.943239 -4.27825 0
M  V30 1885 C 176.689 2.6081 -3.58459 0
M  V30 1886 H 173.909 0.260064 -0.618553 0
M  V30 1887 H 176.453 0.163428 -2.03846 0
M  V30 1888 H 174.608 2.45398 -2.99764 0
M  V30 1889 H 175.022 1.53998 -5.01383 0
M  V30 1890 H 176.496 3.17579 -4.51495 0
M  V30 1891 H 176.973 3.35977 -2.82872 0
M  V30 1892 H 177.579 1.97526 -3.76648 0
M  V30 1893 N 175.894 1.51508 0.433938 0
M  V30 1894 C 177.134 1.66006 1.19253 0
M  V30 1895 C 177.498 0.369868 1.88404 0
M  V30 1896 O 178.699 0.39066 2.65946 0
M  V30 1897 C 176.97 2.83229 2.17981 0
M  V30 1898 S 178.529 3.18075 3.02281 0
M  V30 1899 H 175.347 0.584821 0.404358 0
M  V30 1900 H 177.949 1.89425 0.48357 0
M  V30 1901 H 176.653 3.75407 1.65824 0
M  V30 1902 H 176.184 2.6201 2.93453 0
M  V30 1903 H 178.199 2.64772 4.19655 0
M  V30 1904 N 177.372 -0.689602 1.41712 0
M  V30 1905 C 178.32 -1.82475 1.44242 0
M  V30 1906 C 179.314 -1.66354 0.319774 0
M  V30 1907 O 180.52 -1.73143 0.492089 0
M  V30 1908 H 176.895 -0.601416 0.451445 0
M  V30 1909 H 178.866 -1.77458 2.39899 0
M  V30 1910 C 177.615 -3.20535 1.3473 0
M  V30 1911 H 176.938 -3.33559 2.20405 0
M  V30 1912 H 178.378 -4.00023 1.40562 0
M  V30 1913 C 176.837 -3.36846 0.0603281 0
M  V30 1914 O 177.367 -3.91656 -0.892663 0
M  V30 1915 N 175.573 -2.90595 -0.0177039 0
M  V30 1916 H 175.12 -2.46178 0.758572 0
M  V30 1917 H 175.078 -3.01886 -0.878201 0
M  V30 1918 N 178.85 -1.27639 -0.924453 0
M  V30 1919 C 180.096 -1.14336 -1.67497 0
M  V30 1920 C 180.429 0.309465 -1.91718 0
M  V30 1921 O 179.704 1.22608 -1.50989 0
M  V30 1922 C 179.987 -1.93096 -3.0395 0
M  V30 1923 C 179.84 -3.46381 -2.8695 0
M  V30 1924 C 181.159 -1.73798 -4.0433 0
M  V30 1925 H 178.278 -0.416728 -0.607871 0
M  V30 1926 H 180.92 -1.56832 -1.07256 0
M  V30 1927 H 179.07 -1.56982 -3.55372 0
M  V30 1928 H 180.742 -3.92343 -2.42621 0
M  V30 1929 H 178.985 -3.72557 -2.22225 0
M  V30 1930 H 179.656 -3.96735 -3.83804 0
M  V30 1931 H 182.132 -2.05293 -3.61931 0
M  V30 1932 H 181.008 -2.31294 -4.97789 0
M  V30 1933 H 181.269 -0.686725 -4.36734 0
M  V30 1934 N 180.328 1.1314 -1.09713 0
M  V30 1935 C 181.553 1.88862 -0.857081 0
M  V30 1936 C 181.978 1.78729 0.586304 0
M  V30 1937 O 181.336 1.13692 1.41222 0
M  V30 1938 C 181.384 3.36325 -1.30069 0
M  V30 1939 O 180.488 4.09815 -0.461007 0
M  V30 1940 H 179.829 0.587108 -0.310162 0
M  V30 1941 H 182.359 1.43129 -1.46203 0
M  V30 1942 H 182.369 3.87157 -1.28738 0
M  V30 1943 H 181.044 3.43017 -2.35185 0
M  V30 1944 H 179.621 3.68986 -0.538888 0
M  V30 1945 N 181.806 0.884767 1.30421 0
M  V30 1946 C 183.222 0.57874 1.48737 0
M  V30 1947 C 183.422 -0.883567 1.81095 0
M  V30 1948 O 182.478 -1.6648 1.89844 0
M  V30 1949 C 183.791 1.49171 2.61091 0
M  V30 1950 C 185.339 1.49532 2.74971 0
M  V30 1951 C 185.814 2.39421 3.90438 0
M  V30 1952 N 187.305 2.37383 3.97748 0
M  V30 1953 C 188.04 3.03647 4.86401 0
M  V30 1954 N 187.536 3.79136 5.79852 0
M  V30 1955 N 189.329 2.9288 4.79768 0
M  V30 1956 H 181.48 1.83075 1.0769 0
M  V30 1957 H 183.743 0.783637 0.533495 0
M  V30 1958 H 183.449 2.53291 2.44001 0
M  V30 1959 H 183.323 1.20113 3.57565 0
M  V30 1960 H 185.71 0.46163 2.91467 0
M  V30 1961 H 185.791 1.8262 1.79119 0
M  V30 1962 H 185.435 3.42874 3.74699 0
M  V30 1963 H 185.365 2.03649 4.85628 0
M  V30 1964 H 187.856 1.82525 3.30897 0
M  V30 1965 H 188.169 4.26789 6.4426 0
M  V30 1966 H 186.514 3.83243 5.79784 0
M  V30 1967 H 189.705 2.33433 4.05742 0
M  V30 1968 H 189.878 3.448 5.4865 0
M  V30 1969 N 183.284 -1.43765 0.645699 0
M  V30 1970 C 184.194 -2.34544 -0.0512957 0
M  V30 1971 C 185.21 -1.53455 -0.82022 0
M  V30 1972 O 186.386 -1.86133 -0.769176 0
M  V30 1973 C 183.451 -3.31636 -1.01087 0
M  V30 1974 C 182.512 -4.2863 -0.239712 0
M  V30 1975 C 181.745 -5.21084 -1.15358 0
M  V30 1976 O 181.968 -5.1779 -2.39269 0
M  V30 1977 O 180.902 -5.98593 -0.630038 0
M  V30 1978 H 184.728 -2.95624 0.695718 0
M  V30 1979 H 182.313 -1.43781 0.405882 0
M  V30 1980 H 184.195 -3.9136 -1.56254 0
M  V30 1981 H 182.87 -2.73069 -1.73824 0
M  V30 1982 H 181.777 -3.72408 0.355356 0
M  V30 1983 H 183.11 -4.90157 0.447936 0
M  V30 1984 N 184.763 -0.387143 -1.52771 0
M  V30 1985 C 186.01 0.195735 -2.01552 0
M  V30 1986 C 186.338 1.46995 -1.27369 0
M  V30 1987 O 185.593 1.92325 -0.361879 0
M  V30 1988 C 185.892 0.512209 -3.53711 0
M  V30 1989 C 185.558 -0.670202 -4.45891 0
M  V30 1990 C 184.22 -0.994586 -4.70809 0
M  V30 1991 C 186.572 -1.46134 -5.00294 0
M  V30 1992 C 183.9 -2.11169 -5.4738 0
M  V30 1993 C 186.252 -2.56903 -5.78086 0
M  V30 1994 C 184.916 -2.89852 -6.01284 0
M  V30 1995 H 184.186 0.0716246 -0.73753 0
M  V30 1996 H 186.833 -0.524046 -1.8419 0
M  V30 1997 H 185.138 1.31329 -3.69134 0
M  V30 1998 H 186.835 0.975804 -3.88946 0
M  V30 1999 H 183.425 -0.407366 -4.2666 0
M  V30 2000 H 187.609 -1.22397 -4.80971 0
M  V30 2001 H 182.865 -2.3707 -5.63567 0
M  V30 2002 H 187.039 -3.18608 -6.19243 0
M  V30 2003 H 184.666 -3.76533 -6.60399 0
M  V30 2004 N 186.241 1.57166 -0.116904 0
M  V30 2005 C 187.151 2.18745 0.847812 0
M  V30 2006 C 188.167 1.163 1.29423 0
M  V30 2007 O 189.343 1.48761 1.35765 0
M  V30 2008 C 186.408 2.77307 2.0809 0
M  V30 2009 C 185.469 3.94781 1.68661 0
M  V30 2010 C 184.702 4.50541 2.86091 0
M  V30 2011 O 184.925 4.05202 4.01456 0
M  V30 2012 O 183.859 5.41256 2.63298 0
M  V30 2013 H 187.685 3.01632 0.353778 0
M  V30 2014 H 185.27 1.49005 0.108599 0
M  V30 2015 H 187.152 3.14647 2.80313 0
M  V30 2016 H 185.827 1.97452 2.56504 0
M  V30 2017 H 184.734 3.62214 0.935518 0
M  V30 2018 H 186.067 4.76065 1.24991 0
M  V30 2019 N 187.719 -0.156864 1.56817 0
M  V30 2020 C 188.966 -0.871125 1.82805 0
M  V30 2021 C 189.294 -1.81611 0.696262 0
M  V30 2022 O 188.549 -1.93141 -0.315459 0
M  V30 2023 C 188.848 -1.68737 3.1506 0
M  V30 2024 C 188.514 -0.890045 4.42028 0
M  V30 2025 C 187.176 -0.670042 4.76512 0
M  V30 2026 C 189.528 -0.331769 5.20143 0
M  V30 2027 C 186.856 0.119104 5.86579 0
M  V30 2028 C 189.208 0.444365 6.31037 0
M  V30 2029 C 187.872 0.675035 6.64078 0
M  V30 2030 H 187.142 -0.318767 0.668931 0
M  V30 2031 H 189.789 -0.135274 1.91022 0
M  V30 2032 H 188.094 -2.49304 3.0225 0
M  V30 2033 H 189.791 -2.24331 3.3238 0
M  V30 2034 H 186.381 -1.07157 4.14988 0
M  V30 2035 H 190.565 -0.489043 4.93885 0
M  V30 2036 H 185.821 0.307417 6.10627 0
M  V30 2037 H 189.995 0.884139 6.90765 0
M  V30 2038 H 187.622 1.28839 7.49203 0
M  V30 2039 N 189.197 -1.51736 -0.425897 0
M  V30 2040 C 190.107 -1.76738 -1.54275 0
M  V30 2041 C 191.123 -0.65211 -1.61318 0
M  V30 2042 O 192.299 -0.935654 -1.78346 0
M  V30 2043 C 189.364 -1.89755 -2.90162 0
M  V30 2044 C 188.425 -3.13633 -2.93143 0
M  V30 2045 C 187.658 -3.2602 -4.22548 0
M  V30 2046 O 187.881 -2.44067 -5.15546 0
M  V30 2047 O 186.815 -4.19071 -4.32046 0
M  V30 2048 H 190.641 -2.71502 -1.36089 0
M  V30 2049 H 188.226 -1.36376 -0.610069 0
M  V30 2050 H 190.108 -2.00236 -3.70788 0
M  V30 2051 H 188.783 -0.981785 -3.08452 0
M  V30 2052 H 187.69 -3.08622 -2.11431 0
M  V30 2053 H 189.023 -4.04936 -2.798 0
M  V30 2054 N 190.675 0.682077 -1.42076 0
M  V30 2055 C 191.638 1.77756 -1.44691 0
M  V30 2056 C 192.638 1.5726 -0.335535 0
M  V30 2057 O 193.828 1.63686 -0.596037 0
M  V30 2058 C 190.96 3.16301 -1.27146 0
M  V30 2059 H 192.153 1.76826 -2.42224 0
M  V30 2060 H 189.706 0.891012 -1.28416 0
M  V30 2061 H 190.441 3.22862 -0.305075 0
M  V30 2062 H 190.226 3.32581 -2.07683 0
M  V30 2063 H 191.716 3.96241 -1.31843 0
M  V30 2064 N 192.153 1.28127 0.917671 0
M  V30 2065 C 193.103 1.08361 2.00604 0
M  V30 2066 C 194.087 0.00847518 1.60898 0
M  V30 2067 O 195.279 0.228167 1.75523 0
M  V30 2068 C 192.408 0.743376 3.35155 0
M  V30 2069 C 191.494 1.85716 3.81275 0
M  V30 2070 N 191.885 3.09822 3.99805 0
M  V30 2071 C 190.183 1.74612 4.10398 0
M  V30 2072 C 190.884 3.82368 4.38372 0
M  V30 2073 N 189.86 3.10192 4.4641 0
M  V30 2074 H 193.662 2.02531 2.12975 0
M  V30 2075 H 191.176 1.18989 1.10523 0
M  V30 2076 H 193.173 0.582859 4.12805 0
M  V30 2077 H 191.833 -0.190595 3.2414 0
M  V30 2078 H 192.844 3.45475 3.85833 0
M  V30 2079 H 189.521 0.883657 4.08041 0
M  V30 2080 H 190.911 4.89082 4.60704 0
M  V30 2081 N 193.631 -1.12557 1.10312 0
M  V30 2082 C 195.047 -1.36036 0.834649 0
M  V30 2083 C 195.247 -1.93946 -0.546539 0
M  V30 2084 O 194.303 -2.16484 -1.29966 0
M  V30 2085 C 195.616 -2.30312 1.9333 0
M  V30 2086 C 197.164 -2.43906 1.9616 0
M  V30 2087 C 197.639 -3.41496 3.05195 0
M  V30 2088 N 199.13 -3.49053 3.04494 0
M  V30 2089 C 199.865 -4.24471 3.85502 0
M  V30 2090 N 199.361 -5.02966 4.76442 0
M  V30 2091 N 201.154 -4.19864 3.73725 0
M  V30 2092 H 193.305 -0.733246 1.99342 0
M  V30 2093 H 195.568 -0.385234 0.866198 0
M  V30 2094 H 195.274 -1.94933 2.92735 0
M  V30 2095 H 195.148 -3.30421 1.81939 0
M  V30 2096 H 197.535 -2.78567 0.973886 0
M  V30 2097 H 197.616 -1.4369 2.11629 0
M  V30 2098 H 197.26 -3.07565 4.04186 0
M  V30 2099 H 197.19 -4.41539 2.86968 0
M  V30 2100 H 199.681 -2.93053 2.38596 0
M  V30 2101 H 199.994 -5.57846 5.34815 0
M  V30 2102 H 198.339 -5.02167 4.80472 0
M  V30 2103 H 201.53 -3.57623 3.02032 0
M  V30 2104 H 201.703 -4.78386 4.37093 0
M  V30 2105 N 195.109 -0.891671 -1.2995 0
M  V30 2106 C 196.52 -0.563104 -1.78006 0
M  V30 2107 C 196.871 0.920978 -1.73241 0
M  V30 2108 O 195.996 1.71987 -1.31337 0
M  V30 2109 C 196.591 -1.01539 -3.23226 0
M  V30 2110 C 195.15 -0.738124 -3.69092 0
M  V30 2111 C 194.297 -1.19461 -2.50249 0
M  V30 2112 H 197.248 -1.07522 -1.16725 0
M  V30 2113 H 197.269 -0.347217 -3.78912 0
M  V30 2114 H 196.781 -2.09555 -3.26662 0
M  V30 2115 H 194.882 0.329766 -3.71138 0
M  V30 2116 H 194.995 -1.33037 -4.60259 0
M  V30 2117 H 193.359 -0.613787 -2.47194 0
M  V30 2118 H 194.142 -2.28265 -2.56417 0
M  V30 2119 N 196.587 1.43421 -0.653314 0
M  V30 2120 C 197.834 2.01812 -0.166745 0
M  V30 2121 C 198.162 1.51535 1.21931 0
M  V30 2122 O 197.417 0.698975 1.82792 0
M  V30 2123 C 197.716 3.57176 -0.126623 0
M  V30 2124 C 197.382 4.26798 -1.45444 0
M  V30 2125 C 196.044 4.45534 -1.81805 0
M  V30 2126 C 198.396 4.66225 -2.32989 0
M  V30 2127 C 195.724 5.00961 -3.05377 0
M  V30 2128 C 198.076 5.23021 -3.55853 0
M  V30 2129 C 196.74 5.39973 -3.9241 0
M  V30 2130 H 196.01 0.738484 -0.0610162 0
M  V30 2131 H 198.657 1.71896 -0.84404 0
M  V30 2132 H 196.962 3.86634 0.634123 0
M  V30 2133 H 198.659 4.00112 0.266723 0
M  V30 2134 H 195.249 4.12561 -1.16153 0
M  V30 2135 H 199.433 4.51443 -2.06187 0
M  V30 2136 H 194.689 5.12271 -3.3375 0
M  V30 2137 H 198.863 5.52518 -4.23907 0
M  V30 2138 H 196.49 5.82687 -4.88242 0
M  V30 2139 N 198.065 0.39524 1.52563 0
M  V30 2140 C 199.311 -0.185318 2.01952 0
M  V30 2141 C 199.644 -1.45964 1.28095 0
M  V30 2142 O 198.919 -1.90689 0.38315 0
M  V30 2143 C 199.202 -0.447193 3.57312 0
M  V30 2144 C 199.055 0.842828 4.41833 0
M  V30 2145 C 200.374 -1.23529 4.22408 0
M  V30 2146 H 197.493 -0.0658788 0.73405 0
M  V30 2147 H 200.135 0.525975 1.82575 0
M  V30 2148 H 198.285 -1.05312 3.73954 0
M  V30 2149 H 199.957 1.4795 4.36931 0
M  V30 2150 H 198.2 1.45686 4.08605 0
M  V30 2151 H 198.871 0.614165 5.48573 0
M  V30 2152 H 201.347 -0.722445 4.0978 0
M  V30 2153 H 200.223 -1.38727 5.3108 0
M  V30 2154 H 200.484 -2.25213 3.80436 0
M  V30 2155 N 199.544 -1.57102 0.125237 0
M  V30 2156 C 200.491 -2.15641 -0.822655 0
M  V30 2157 C 201.461 -1.08313 -1.25927 0
M  V30 2158 O 202.646 -1.36251 -1.33567 0
M  V30 2159 C 199.786 -2.76504 -2.06494 0
M  V30 2160 C 198.899 -3.98158 -1.67612 0
M  V30 2161 C 198.034 -4.47088 -2.86854 0
M  V30 2162 C 197.073 -5.6126 -2.44242 0
M  V30 2163 N 196.21 -6.04905 -3.56419 0
M  V30 2164 H 201.05 -2.96313 -0.316625 0
M  V30 2165 H 198.587 -1.46388 -0.144588 0
M  V30 2166 H 200.545 -3.09925 -2.79289 0
M  V30 2167 H 199.175 -1.98512 -2.54545 0
M  V30 2168 H 198.227 -3.70858 -0.846661 0
M  V30 2169 H 199.539 -4.80934 -1.32301 0
M  V30 2170 H 198.693 -4.82451 -3.67867 0
M  V30 2171 H 197.432 -3.63275 -3.25396 0
M  V30 2172 H 196.437 -5.25495 -1.61663 0
M  V30 2173 H 197.662 -6.46843 -2.0681 0
M  V30 2174 H 195.608 -5.24032 -3.94623 0
M  V30 2175 H 195.525 -6.82552 -3.25051 0
M  V30 2176 H 196.793 -6.44907 -4.37853 0
M  V30 2177 N 201.022 0.148545 -1.56898 0
M  V30 2178 C 202.25 0.876389 -1.87422 0
M  V30 2179 C 202.665 1.74809 -0.713256 0
M  V30 2180 O 202.022 1.79725 0.317025 0
M  V30 2181 C 202.073 1.73438 -3.17178 0
M  V30 2182 O 201.794 0.897809 -4.28802 0
M  V30 2183 C 203.295 2.56993 -3.61205 0
M  V30 2184 H 200.515 0.253489 -0.621277 0
M  V30 2185 H 203.059 0.141798 -2.04008 0
M  V30 2186 H 201.214 2.42205 -3.0235 0
M  V30 2187 H 201.628 1.48672 -5.02988 0
M  V30 2188 H 203.102 3.12773 -4.54838 0
M  V30 2189 H 203.579 3.32958 -2.86419 0
M  V30 2190 H 204.185 1.9352 -3.78722 0
M  V30 2191 N 202.5 1.5196 0.417844 0
M  V30 2192 C 203.728 1.69426 1.18753 0
M  V30 2193 C 204.143 0.399955 1.84515 0
M  V30 2194 O 203.5 -0.623288 1.71527 0
M  V30 2195 C 203.551 2.82375 2.25714 0
M  V30 2196 O 203.272 4.06793 1.62638 0
M  V30 2197 C 204.773 3.11277 3.15628 0
M  V30 2198 H 201.993 0.568031 0.357186 0
M  V30 2199 H 204.537 1.98475 0.49273 0
M  V30 2200 H 202.692 2.5587 2.90877 0
M  V30 2201 H 203.106 4.69667 2.3348 0
M  V30 2202 H 204.58 3.93843 3.86771 0
M  V30 2203 H 205.057 2.24473 3.77503 0
M  V30 2204 H 205.663 3.39515 2.56144 0
M  V30 2205 N 203.978 -0.674533 1.42435 0
M  V30 2206 C 205.394 -0.98769 1.25367 0
M  V30 2207 C 205.594 -2.00879 0.158044 0
M  V30 2208 O 204.65 -2.48075 -0.470633 0
M  V30 2209 C 205.963 -1.49224 2.6106 0
M  V30 2210 C 207.511 -1.61 2.68417 0
M  V30 2211 C 207.986 -2.14852 4.04478 0
M  V30 2212 N 209.477 -2.22185 4.06434 0
M  V30 2213 C 210.212 -2.64928 5.08528 0
M  V30 2214 N 209.708 -3.07121 6.21006 0
M  V30 2215 N 211.501 -2.64679 4.95885 0
M  V30 2216 H 203.652 0.00152503 2.124 0
M  V30 2217 H 205.915 -0.0618434 0.945981 0
M  V30 2218 H 205.621 -0.816453 3.42092 0
M  V30 2219 H 205.495 -2.47094 2.84999 0
M  V30 2220 H 207.882 -2.27686 1.87732 0
M  V30 2221 H 207.963 -0.616195 2.48267 0
M  V30 2222 H 207.607 -1.48775 4.85622 0
M  V30 2223 H 207.537 -3.15024 4.2198 0
M  V30 2224 H 210.028 -1.92435 3.25234 0
M  V30 2225 H 210.341 -3.38423 6.94759 0
M  V30 2226 H 208.686 -3.04978 6.24511 0
M  V30 2227 H 211.877 -2.31078 4.07088 0
M  V30 2228 H 212.05 -2.9767 5.75584 0
M  V30 2229 N 205.456 -1.28612 -0.910864 0
M  V30 2230 C 206.386 -1.15326 -2.03032 0
M  V30 2231 C 207.367 -0.0502924 -1.70026 0
M  V30 2232 O 208.552 -0.227797 -1.92859 0
M  V30 2233 C 205.682 -0.817343 -3.37545 0
M  V30 2234 C 204.636 -1.8754 -3.84724 0
M  V30 2235 C 203.962 -1.39305 -5.16235 0
M  V30 2236 C 205.262 -3.28244 -4.06267 0
M  V30 2237 H 206.956 -2.08975 -2.14406 0
M  V30 2238 H 204.502 -1.00612 -1.03021 0
M  V30 2239 H 206.455 -0.711151 -4.15356 0
M  V30 2240 H 205.179 0.154846 -3.26233 0
M  V30 2241 H 203.838 -1.97079 -3.09121 0
M  V30 2242 H 203.486 -0.409846 -5.01328 0
M  V30 2243 H 203.186 -2.10057 -5.48771 0
M  V30 2244 H 204.71 -1.30014 -5.96598 0
M  V30 2245 H 206.124 -3.21611 -4.74594 0
M  V30 2246 H 204.521 -3.96855 -4.5014 0
M  V30 2247 H 205.591 -3.72048 -3.10979 0
M  V30 2248 N 206.934 1.1197 -1.10907 0
M  V30 2249 C 208.183 1.82947 -0.849302 0
M  V30 2250 C 208.496 1.85275 0.627112 0
M  V30 2251 O 209.702 2.52296 1.00295 0
M  V30 2252 C 208.158 3.28529 -1.46959 0
M  V30 2253 C 207.766 3.34546 -2.97965 0
M  V30 2254 C 209.51 4.04443 -1.28942 0
M  V30 2255 C 207.417 4.74491 -3.53004 0
M  V30 2256 H 206.347 0.685477 -0.314065 0
M  V30 2257 H 208.998 1.2604 -1.33365 0
M  V30 2258 H 207.38 3.85333 -0.912917 0
M  V30 2259 H 208.554 2.87654 -3.59989 0
M  V30 2260 H 206.869 2.72108 -3.15192 0
M  V30 2261 H 209.466 5.07787 -1.67502 0
M  V30 2262 H 209.809 4.15656 -0.231456 0
M  V30 2263 H 210.342 3.5401 -1.81443 0
M  V30 2264 H 207.081 4.68474 -4.58489 0
M  V30 2265 H 206.601 5.21816 -2.9575 0
M  V30 2266 H 208.28 5.4344 -3.51115 0
M  V30 2267 N 208.412 0.89855 1.29475 0
M  V30 2268 C 209.823 0.572537 1.77705 0
M  V30 2269 C 210.174 -0.911778 1.73727 0
M  V30 2270 O 209.299 -1.71288 1.32247 0
M  V30 2271 C 209.894 1.03252 3.22683 0
M  V30 2272 C 208.453 0.757687 3.68695 0
M  V30 2273 C 207.6 1.20787 2.49612 0
M  V30 2274 H 210.551 1.08139 1.16153 0
M  V30 2275 H 210.572 0.367307 3.78723 0
M  V30 2276 H 210.084 2.11285 3.25546 0
M  V30 2277 H 208.185 -0.310079 3.71308 0
M  V30 2278 H 208.298 1.35476 4.59547 0
M  V30 2279 H 206.662 0.626888 2.46865 0
M  V30 2280 H 207.445 2.29622 2.55203 0
M  V30 2281 N 209.89 -1.43072 0.660911 0
M  V30 2282 C 210.82 -2.33497 -0.0122829 0
M  V30 2283 C 211.801 -1.49903 -0.803925 0
M  V30 2284 O 212.986 -1.78546 -0.763864 0
M  V30 2285 C 210.116 -3.33363 -0.973994 0
M  V30 2286 C 209.07 -4.27003 -0.291928 0
M  V30 2287 C 208.396 -5.16967 -1.36562 0
M  V30 2288 C 209.696 -5.15816 0.820462 0
M  V30 2289 H 211.39 -2.90038 0.742873 0
M  V30 2290 H 208.936 -1.39461 0.358688 0
M  V30 2291 H 210.889 -3.95524 -1.45392 0
M  V30 2292 H 209.613 -2.75095 -1.7604 0
M  V30 2293 H 208.272 -3.66217 0.167623 0
M  V30 2294 H 207.92 -4.55034 -2.14366 0
M  V30 2295 H 207.62 -5.80441 -0.914454 0
M  V30 2296 H 209.144 -5.82003 -1.84675 0
M  V30 2297 H 210.558 -5.71742 0.422366 0
M  V30 2298 H 208.955 -5.8805 1.19656 0
M  V30 2299 H 210.025 -4.55045 1.67518 0
M  V30 2300 N 211.368 -0.403325 -1.52352 0
M  V30 2301 C 212.784 -0.0539281 -1.59509 0
M  V30 2302 C 212.984 1.43307 -1.41652 0
M  V30 2303 O 212.04 2.19924 -1.24056 0
M  V30 2304 C 213.353 -0.543654 -2.95745 0
M  V30 2305 C 214.901 -0.501125 -3.08962 0
M  V30 2306 C 215.376 -0.967267 -4.47669 0
M  V30 2307 N 216.867 -0.923849 -4.53893 0
M  V30 2308 C 217.602 -1.25578 -5.5948 0
M  V30 2309 N 217.098 -1.65889 -6.72646 0
M  V30 2310 N 218.891 -1.17613 -5.49658 0
M  V30 2311 H 211.042 -1.37123 -1.62206 0
M  V30 2312 H 213.305 -0.56294 -0.76276 0
M  V30 2313 H 213.011 -1.58275 -3.14073 0
M  V30 2314 H 212.885 0.0498042 -3.77167 0
M  V30 2315 H 215.272 0.528909 -2.90321 0
M  V30 2316 H 215.353 -1.13056 -2.2946 0
M  V30 2317 H 214.997 -1.9956 -4.67053 0
M  V30 2318 H 214.927 -0.314698 -5.25659 0
M  V30 2319 H 217.418 -0.627403 -3.72655 0
M  V30 2320 H 217.731 -1.89543 -7.49195 0
M  V30 2321 H 216.076 -1.69787 -6.73942 0
M  V30 2322 H 219.267 -0.860115 -4.6013 0
M  V30 2323 H 219.44 -1.43812 -6.3184 0
M  V30 2324 N 212.846 1.57033 -0.133567 0
M  V30 2325 C 214.092 1.95976 0.521649 0
M  V30 2326 C 214.425 1.01779 1.65393 0
M  V30 2327 O 213.7 0.0576581 1.94415 0
M  V30 2328 C 213.983 3.44738 1.04057 0
M  V30 2329 C 213.836 4.49711 -0.0892897 0
M  V30 2330 C 215.155 3.95682 1.92675 0
M  V30 2331 H 212.274 0.712579 0.188149 0
M  V30 2332 H 214.916 1.88813 -0.212076 0
M  V30 2333 H 213.066 3.50973 1.66583 0
M  V30 2334 H 214.738 4.55565 -0.725152 0
M  V30 2335 H 212.981 4.27261 -0.750378 0
M  V30 2336 H 213.652 5.51099 0.315284 0
M  V30 2337 H 216.128 3.91841 1.39998 0
M  V30 2338 H 215.004 5.00262 2.25897 0
M  V30 2339 H 215.265 3.37239 2.85872 0
M  V30 2340 N 214.325 -0.140222 1.56975 0
M  V30 2341 C 215.553 -0.866437 1.87884 0
M  V30 2342 C 215.968 -1.74428 0.722517 0
M  V30 2343 O 215.325 -1.79891 -0.30749 0
M  V30 2344 C 215.376 -1.71753 3.18093 0
M  V30 2345 O 215.097 -0.875056 4.29272 0
M  V30 2346 C 216.598 -2.55074 3.62563 0
M  V30 2347 H 213.818 -0.25019 0.622612 0
M  V30 2348 H 216.362 -0.130977 2.0408 0
M  V30 2349 H 214.517 -2.40598 3.03631 0
M  V30 2350 H 214.931 -1.46002 5.03769 0
M  V30 2351 H 216.405 -3.10356 4.5649 0
M  V30 2352 H 216.882 -3.31434 2.88181 0
M  V30 2353 H 217.488 -1.91509 3.79743 0
M  V30 2354 N 215.803 -1.52179 -0.40978 0
M  V30 2355 C 216.713 -1.78364 -1.52392 0
M  V30 2356 C 217.729 -0.669183 -1.60617 0
M  V30 2357 O 218.905 -0.954518 -1.77344 0
M  V30 2358 C 215.97 -1.92822 -2.88133 0
M  V30 2359 C 215.031 -3.16725 -2.898 0
M  V30 2360 C 214.264 -3.30483 -4.19067 0
M  V30 2361 O 214.487 -2.49522 -5.12928 0
M  V30 2362 O 213.421 -4.2363 -4.27576 0
M  V30 2363 H 217.247 -2.72931 -1.33201 0
M  V30 2364 H 214.832 -1.37016 -0.59557 0
M  V30 2365 H 216.714 -2.04157 -3.68643 0
M  V30 2366 H 215.389 -1.01444 -3.07393 0
M  V30 2367 H 214.296 -3.10848 -2.08146 0
M  V30 2368 H 215.629 -4.07881 -2.75489 0
M  V30 2369 N 217.281 0.66697 -1.42791 0
M  V30 2370 C 218.191 1.80962 -1.49299 0
M  V30 2371 C 219.207 1.69775 -0.381108 0
M  V30 2372 O 220.383 1.91188 -0.633188 0
M  V30 2373 C 217.448 3.17156 -1.40045 0
M  V30 2374 C 216.509 3.40242 -2.6179 0
M  V30 2375 C 215.742 4.69939 -2.52969 0
M  V30 2376 O 215.965 5.48372 -1.56985 0
M  V30 2377 O 214.899 4.94441 -3.43237 0
M  V30 2378 H 218.725 1.78427 -2.45759 0
M  V30 2379 H 216.31 0.823713 -1.24641 0
M  V30 2380 H 218.192 3.98413 -1.37276 0
M  V30 2381 H 216.867 3.20312 -0.467138 0
M  V30 2382 H 215.774 2.58802 -2.70134 0
M  V30 2383 H 217.107 3.41923 -3.54047 0
M  V30 2384 N 218.759 1.29093 0.90403 0
M  V30 2385 C 219.722 1.1386 1.98919 0
M  V30 2386 C 220.722 0.0753457 1.60623 0
M  V30 2387 O 221.912 0.321931 1.71199 0
M  V30 2388 C 219.044 0.740198 3.32767 0
M  V30 2389 H 220.237 2.10246 2.13861 0
M  V30 2390 H 217.79 1.12218 1.08797 0
M  V30 2391 H 218.525 -0.223997 3.23525 0
M  V30 2392 H 218.31 1.50838 3.61926 0
M  V30 2393 H 219.8 0.656546 4.12407 0
M  V30 2394 N 220.237 -1.11381 1.11499 0
M  V30 2395 C 221.485 -1.8277 0.862524 0
M  V30 2396 C 221.806 -1.85097 -0.613534 0
M  V30 2397 O 221.076 -1.32198 -1.4457 0
M  V30 2398 H 219.656 -0.676823 0.316101 0
M  V30 2399 H 222.318 -1.34816 1.4075 0
M  V30 2400 H 221.414 -2.86614 1.23527 0
M  V30 2401 N 221.715 -0.905404 -1.28997 0
M  V30 2402 C 222.625 -0.392246 -2.31298 0
M  V30 2403 C 223.641 0.515889 -1.66176 0
M  V30 2404 O 224.817 0.404093 -1.97304 0
M  V30 2405 C 221.882 0.36686 -3.44754 0
M  V30 2406 C 220.943 -0.573485 -4.25452 0
M  V30 2407 C 220.176 0.149488 -5.33491 0
M  V30 2408 O 220.399 1.37255 -5.5364 0
M  V30 2409 O 219.333 -0.510919 -5.99728 0
M  V30 2410 H 223.159 -1.2411 -2.77183 0
M  V30 2411 H 220.744 -0.669926 -1.33538 0
M  V30 2412 H 222.626 0.795907 -4.13816 0
M  V30 2413 H 221.301 1.19169 -3.00966 0
M  V30 2414 H 220.208 -1.05176 -3.59011 0
M  V30 2415 H 221.541 -1.36489 -4.72897 0
M  V30 2416 N 223.193 1.4272 -0.668489 0
M  V30 2417 C 224.47 1.95248 -0.117373 0
M  V30 2418 C 224.85 1.60919 1.36632 0
M  V30 2419 O 224.198 0.902095 2.09939 0
M  V30 2420 C 224.408 3.46927 -0.379806 0
M  V30 2421 C 225.756 4.23588 -0.292923 0
M  V30 2422 O 226.78 3.5482 -0.313204 0
M  V30 2423 O 225.639 5.46017 -0.229697 0
M  V30 2424 H 222.733 0.827 0.00079152 0
M  V30 2425 H 225.279 1.52581 -0.742783 0
M  V30 2426 H 224.051 3.65096 -1.40786 0
M  V30 2427 H 223.674 3.96627 0.277923 0
M  V30 2428 N 224.671 0.411399 1.52136 0
M  V30 2429 C 225.918 -0.163645 2.01838 0
M  V30 2430 C 226.246 -1.4495 1.29691 0
M  V30 2431 O 225.501 -1.91725 0.392431 0
M  V30 2432 C 225.8 -0.455872 3.54481 0
M  V30 2433 C 225.466 0.741055 4.44769 0
M  V30 2434 C 224.128 1.06936 4.69167 0
M  V30 2435 C 226.48 1.54075 4.97906 0
M  V30 2436 C 223.808 2.19851 5.43951 0
M  V30 2437 C 226.16 2.66067 5.73926 0
M  V30 2438 C 224.824 2.99381 5.96596 0
M  V30 2439 H 224.094 -0.0598821 0.738576 0
M  V30 2440 H 226.741 0.553283 1.83333 0
M  V30 2441 H 225.046 -1.2544 3.71177 0
M  V30 2442 H 226.743 -0.913802 3.90449 0
M  V30 2443 H 223.333 0.475192 4.25958 0
M  V30 2444 H 227.517 1.30033 4.78963 0
M  V30 2445 H 222.773 2.46006 5.59724 0
M  V30 2446 H 226.947 3.28419 6.14096 0
M  V30 2447 H 224.574 3.86992 6.54325 0
M  V30 2448 N 226.149 -1.5696 0.141893 0
M  V30 2449 C 227.377 -2.00322 -0.517579 0
M  V30 2450 C 227.792 -1.02193 -1.58752 0
M  V30 2451 O 227.149 -0.0181619 -1.82491 0
M  V30 2452 C 227.2 -3.43618 -1.12289 0
M  V30 2453 O 226.921 -4.37995 -0.0956929 0
M  V30 2454 C 228.422 -4.02231 -1.86347 0
M  V30 2455 H 225.642 -0.657243 -0.135177 0
M  V30 2456 H 228.186 -2.03146 0.234973 0
M  V30 2457 H 226.341 -3.41662 -1.82609 0
M  V30 2458 H 226.755 -5.21729 -0.538469 0
M  V30 2459 H 228.229 -5.04509 -2.23997 0
M  V30 2460 H 228.706 -3.42655 -2.74744 0
M  V30 2461 H 229.312 -4.07802 -1.20737 0
M  V30 2462 N 227.627 0.131896 -1.57047 0
M  V30 2463 C 228.852 0.860418 -1.8871 0
M  V30 2464 C 229.277 1.73251 -0.73251 0
M  V30 2465 O 228.635 1.785 0.317429 0
M  V30 2466 C 228.683 1.68047 -3.19049 0
M  V30 2467 O 227.787 2.7862 -3.04047 0
M  V30 2468 H 227.128 0.238743 -0.619595 0
M  V30 2469 H 229.658 0.118169 -2.04258 0
M  V30 2470 H 229.668 2.07238 -3.51449 0
M  V30 2471 H 228.343 1.04018 -4.02682 0
M  V30 2472 H 226.92 2.42726 -2.83088 0
M  V30 2473 N 229.106 1.52395 0.401703 0
M  V30 2474 C 230.352 1.67065 1.14966 0
M  V30 2475 C 230.685 0.403052 1.89971 0
M  V30 2476 O 229.96 -0.598774 1.85054 0
M  V30 2477 C 230.243 2.8975 2.13815 0
M  V30 2478 C 230.096 4.26578 1.42658 0
M  V30 2479 C 231.415 3.07965 3.14397 0
M  V30 2480 H 228.534 0.607968 0.416587 0
M  V30 2481 H 231.176 1.84965 0.434511 0
M  V30 2482 H 229.326 2.74619 2.74803 0
M  V30 2483 H 230.998 4.53451 0.847329 0
M  V30 2484 H 229.241 4.27639 0.72849 0
M  V30 2485 H 229.912 5.08483 2.14823 0
M  V30 2486 H 232.388 3.22043 2.63491 0
M  V30 2487 H 231.264 3.95308 3.80819 0
M  V30 2488 H 231.525 2.21611 3.82545 0
M  V30 2489 N 230.584 -0.659388 1.43143 0
M  V30 2490 C 231.83 -1.42145 1.44647 0
M  V30 2491 C 232.163 -1.9408 0.0681907 0
M  V30 2492 O 231.438 -1.71899 -0.910007 0
M  V30 2493 C 231.721 -2.60735 2.48373 0
M  V30 2494 C 231.574 -2.14332 3.95451 0
M  V30 2495 C 232.893 -3.62951 2.48906 0
M  V30 2496 H 230.012 -0.51552 0.526696 0
M  V30 2497 H 232.654 -0.748069 1.74654 0
M  V30 2498 H 230.804 -3.18184 2.22916 0
M  V30 2499 H 232.476 -1.61932 4.31944 0
M  V30 2500 H 230.719 -1.4576 4.08578 0
M  V30 2501 H 231.39 -2.99583 4.63631 0
M  V30 2502 H 233.866 -3.1525 2.71582 0
M  V30 2503 H 232.742 -4.43487 3.23435 0
M  V30 2504 H 233.003 -4.15126 1.52061 0
M  V30 2505 N 232.062 -1.29571 -0.897171 0
M  V30 2506 C 233.287 -1.20705 -1.68656 0
M  V30 2507 C 233.712 0.228582 -1.86706 0
M  V30 2508 O 233.07 1.16494 -1.3892 0
M  V30 2509 C 233.118 -1.9282 -3.04717 0
M  V30 2510 O 232.222 -1.24697 -3.93096 0
M  V30 2511 H 231.563 -0.418126 -0.515816 0
M  V30 2512 H 234.093 -1.71183 -1.12061 0
M  V30 2513 H 234.103 -2.01372 -3.54843 0
M  V30 2514 H 232.778 -2.97239 -2.90899 0
M  V30 2515 H 231.355 -1.2442 -3.51531 0
M  V30 2516 N 233.54 1.10788 -1.12088 0
M  V30 2517 C 234.45 2.20599 -0.798338 0
M  V30 2518 C 235.466 1.72712 0.21135 0
M  V30 2519 O 236.642 2.01348 0.0458477 0
M  V30 2520 C 233.707 3.45771 -0.253674 0
M  V30 2521 C 232.768 4.08411 -1.32283 0
M  V30 2522 C 232.001 5.27608 -0.80406 0
M  V30 2523 O 232.224 5.69241 0.363478 0
M  V30 2524 O 231.158 5.8101 -1.57198 0
M  V30 2525 H 234.984 2.50614 -1.7154 0
M  V30 2526 H 232.569 1.19454 -0.897275 0
M  V30 2527 H 234.451 4.21376 0.0453691 0
M  V30 2528 H 233.126 3.1739 0.636005 0
M  V30 2529 H 232.033 3.34507 -1.67499 0
M  V30 2530 H 233.366 4.40986 -2.18614 0
M  V30 2531 N 235.018 0.912232 1.28515 0
M  V30 2532 C 236.267 0.540504 1.94323 0
M  V30 2533 C 236.58 -0.920044 1.72611 0
M  V30 2534 O 237.786 -1.39986 2.32629 0
M  V30 2535 C 236.242 0.915803 3.48053 0
M  V30 2536 C 235.85 2.39598 3.78546 0
M  V30 2537 C 237.594 0.614588 4.20027 0
M  V30 2538 C 235.501 2.71148 5.25578 0
M  V30 2539 H 234.431 0.198418 0.727424 0
M  V30 2540 H 237.082 1.11094 1.46049 0
M  V30 2541 H 235.464 0.274168 3.9505 0
M  V30 2542 H 236.638 3.08422 3.42364 0
M  V30 2543 H 234.953 2.66749 3.1974 0
M  V30 2544 H 237.55 0.827002 5.28266 0
M  V30 2545 H 237.893 -0.447531 4.13887 0
M  V30 2546 H 238.426 1.21462 3.78803 0
M  V30 2547 H 235.165 3.76207 5.36794 0
M  V30 2548 H 234.685 2.0696 5.62963 0
M  V30 2549 H 236.364 2.58072 5.93302 0
M  V30 2550 N 236.496 -1.42363 0.676048 0
M  V30 2551 C 237.429 -2.28141 -0.0516916 0
M  V30 2552 C 238.407 -1.41135 -0.807439 0
M  V30 2553 O 239.591 -1.70573 -0.802305 0
M  V30 2554 C 236.718 -3.21007 -1.08039 0
M  V30 2555 C 235.764 -4.24426 -0.420076 0
M  V30 2556 S 236.597 -5.29134 0.823246 0
M  V30 2557 C 237.753 -6.25566 -0.204344 0
M  V30 2558 H 237.986 -2.89515 0.675884 0
M  V30 2559 H 235.519 -1.47211 0.465635 0
M  V30 2560 H 237.477 -3.75048 -1.66881 0
M  V30 2561 H 236.138 -2.58766 -1.78042 0
M  V30 2562 H 235.331 -4.89596 -1.19633 0
M  V30 2563 H 234.933 -3.7388 0.0947845 0
M  V30 2564 H 237.225 -6.69098 -1.06369 0
M  V30 2565 H 238.168 -7.06895 0.412915 0
M  V30 2566 H 238.576 -5.61811 -0.55038 0
M  V30 2567 N 237.974 -0.419461 -1.51915 0
M  V30 2568 C 238.907 0.445751 -2.23804 0
M  V30 2569 C 239.885 1.03951 -1.25031 0
M  V30 2570 O 241.069 1.08541 -1.54114 0
M  V30 2571 C 238.196 1.61964 -2.97465 0
M  V30 2572 C 237.242 1.14828 -4.10751 0
M  V30 2573 S 238.075 0.104938 -5.35397 0
M  V30 2574 C 239.231 1.28391 -6.1259 0
M  V30 2575 H 239.464 -0.164627 -2.96844 0
M  V30 2576 H 236.997 -0.203833 -1.53049 0
M  V30 2577 H 238.955 2.29271 -3.40507 0
M  V30 2578 H 237.616 2.20139 -2.24048 0
M  V30 2579 H 236.809 2.02561 -4.61503 0
M  V30 2580 H 236.411 0.553712 -3.69878 0
M  V30 2581 H 238.703 2.20563 -6.40592 0
M  V30 2582 H 239.646 0.816724 -7.03374 0
M  V30 2583 H 240.054 1.51439 -5.43807 0
M  V30 2584 N 239.452 1.56882 -0.150215 0
M  V30 2585 C 240.682 2.00302 0.506213 0
M  V30 2586 C 241.09 1.02934 1.58749 0
M  V30 2587 O 240.433 0.0188384 1.8369 0
M  V30 2588 C 240.495 3.40156 1.16337 0
M  V30 2589 C 240.159 4.56439 0.226311 0
M  V30 2590 C 241.156 5.17012 -0.547265 0
M  V30 2591 C 238.841 5.02136 0.128279 0
M  V30 2592 C 240.835 6.21693 -1.40629 0
M  V30 2593 C 238.522 6.06672 -0.734345 0
M  V30 2594 C 239.52 6.6632 -1.50023 0
M  V30 2595 O 239.208 7.68831 -2.34848 0
M  V30 2596 H 238.94 0.662182 0.135984 0
M  V30 2597 H 241.494 2.03961 -0.242746 0
M  V30 2598 H 239.724 3.33346 1.96004 0
M  V30 2599 H 241.413 3.67663 1.71985 0
M  V30 2600 H 242.179 4.82603 -0.48158 0
M  V30 2601 H 238.058 4.55435 0.714157 0
M  V30 2602 H 241.602 6.68179 -2.00455 0
M  V30 2603 H 237.499 6.40507 -0.801309 0
M  V30 2604 H 238.267 7.86065 -2.28131 0
M  V30 2605 N 240.93 -0.123565 1.57115 0
M  V30 2606 C 242.179 -0.830704 1.83799 0
M  V30 2607 C 242.492 -1.81259 0.735158 0
M  V30 2608 O 243.698 -2.56558 0.888278 0
M  V30 2609 C 242.154 -1.52802 3.25852 0
M  V30 2610 C 241.762 -0.587356 4.44133 0
M  V30 2611 C 243.506 -2.22056 3.61789 0
M  V30 2612 C 241.413 -1.28764 5.77212 0
M  V30 2613 H 240.343 -0.313967 0.685522 0
M  V30 2614 H 242.994 -0.0834359 1.8331 0
M  V30 2615 H 241.376 -2.32175 3.20797 0
M  V30 2616 H 242.55 0.172829 4.60476 0
M  V30 2617 H 240.865 -0.00201892 4.164 0
M  V30 2618 H 243.462 -2.75131 4.58483 0
M  V30 2619 H 243.805 -2.99644 2.88997 0
M  V30 2620 H 244.338 -1.49576 3.68608 0
M  V30 2621 H 241.077 -0.55314 6.53162 0
M  V30 2622 H 240.597 -2.01995 5.64764 0
M  V30 2623 H 242.276 -1.8221 6.20813 0
M  V30 2624 N 242.408 -1.52605 -0.393616 0
M  V30 2625 C 243.338 -1.80022 -1.48709 0
M  V30 2626 C 244.319 -0.651995 -1.57108 0
M  V30 2627 O 245.504 -0.89913 -1.72132 0
M  V30 2628 C 242.634 -1.96492 -2.86371 0
M  V30 2629 C 241.588 -3.12161 -2.92813 0
M  V30 2630 C 240.914 -3.13877 -4.3288 0
M  V30 2631 C 242.214 -4.51322 -2.6288 0
M  V30 2632 H 243.908 -2.71589 -1.26015 0
M  V30 2633 H 241.454 -1.30684 -0.604778 0
M  V30 2634 H 243.407 -2.14255 -3.62867 0
M  V30 2635 H 242.131 -1.01611 -3.10391 0
M  V30 2636 H 240.79 -2.94173 -2.18764 0
M  V30 2637 H 240.438 -2.16687 -4.53933 0
M  V30 2638 H 240.138 -3.91576 -4.38112 0
M  V30 2639 H 241.662 -3.33789 -5.1129 0
M  V30 2640 H 243.076 -4.69435 -3.29096 0
M  V30 2641 H 241.473 -5.31053 -2.79468 0
M  V30 2642 H 242.543 -4.58353 -1.58242 0
M  V30 2643 N 243.887 0.651787 -1.4349 0
M  V30 2644 C 244.817 1.77621 -1.51569 0
M  V30 2645 C 245.798 1.66022 -0.370253 0
M  V30 2646 O 246.983 1.85095 -0.587658 0
M  V30 2647 C 244.113 3.16056 -1.43966 0
M  V30 2648 C 243.067 3.4242 -2.56774 0
M  V30 2649 C 242.393 4.8067 -2.34223 0
M  V30 2650 C 243.693 3.37023 -3.99015 0
M  V30 2651 H 245.387 1.71117 -2.45681 0
M  V30 2652 H 242.933 0.821825 -1.18246 0
M  V30 2653 H 244.886 3.94472 -1.48221 0
M  V30 2654 H 243.61 3.23293 -0.463586 0
M  V30 2655 H 242.269 2.66375 -2.51873 0
M  V30 2656 H 241.917 4.84585 -1.34856 0
M  V30 2657 H 241.617 4.9927 -3.09844 0
M  V30 2658 H 243.141 5.61342 -2.40265 0
M  V30 2659 H 244.555 4.05374 -4.05395 0
M  V30 2660 H 242.952 3.67159 -4.74673 0
M  V30 2661 H 244.022 2.3518 -4.2405 0
M  V30 2662 N 245.365 1.30045 0.890287 0
M  V30 2663 C 246.611 1.18737 1.64406 0
M  V30 2664 C 246.944 -0.258525 1.92472 0
M  V30 2665 O 246.219 -1.18562 1.54186 0
M  V30 2666 C 246.502 2.01087 2.98724 0
M  V30 2667 C 246.355 3.53867 2.77665 0
M  V30 2668 C 247.674 1.84457 3.9958 0
M  V30 2669 H 244.793 0.432698 0.596608 0
M  V30 2670 H 247.435 1.5962 1.0306 0
M  V30 2671 H 245.585 1.66349 3.51084 0
M  V30 2672 H 247.257 3.98637 2.32133 0
M  V30 2673 H 245.5 3.78318 2.12269 0
M  V30 2674 H 246.171 4.06772 3.7315 0
M  V30 2675 H 248.647 2.14817 3.56361 0
M  V30 2676 H 247.523 2.44411 4.91482 0
M  V30 2677 H 247.784 0.802276 4.3476 0
M  V30 2678 N 246.843 -1.10192 1.12674 0
M  V30 2679 C 248.09 -1.82205 0.883606 0
M  V30 2680 C 248.418 -1.8532 -0.590492 0
M  V30 2681 O 247.673 -1.31137 -1.45264 0
M  V30 2682 C 247.972 -3.28552 1.4067 0
M  V30 2683 C 247.638 -3.45582 2.89627 0
M  V30 2684 C 246.3 -3.49937 3.30299 0
M  V30 2685 C 248.652 -3.50768 3.85501 0
M  V30 2686 C 245.98 -3.57049 4.65546 0
M  V30 2687 C 248.332 -3.59414 5.20581 0
M  V30 2688 C 246.996 -3.62034 5.60792 0
M  V30 2689 H 246.266 -0.666735 0.323334 0
M  V30 2690 H 248.913 -1.29868 1.40736 0
M  V30 2691 H 247.218 -3.83473 0.80347 0
M  V30 2692 H 248.915 -3.82788 1.19475 0
M  V30 2693 H 245.505 -3.42871 2.57172 0
M  V30 2694 H 249.689 -3.46651 3.55171 0
M  V30 2695 H 244.945 -3.57361 4.96088 0
M  V30 2696 H 249.119 -3.62371 5.94693 0
M  V30 2697 H 246.746 -3.67298 6.6558 0
M  V30 2698 N 248.321 -0.919034 -1.28029 0
M  V30 2699 C 249.251 -0.428581 -2.29533 0
M  V30 2700 C 250.232 0.50659 -1.62381 0
M  V30 2701 O 251.417 0.413195 -1.89753 0
M  V30 2702 C 248.547 0.327388 -3.45753 0
M  V30 2703 C 247.501 -0.519137 -4.2484 0
M  V30 2704 C 246.827 0.365486 -5.33449 0
M  V30 2705 C 248.127 -1.77914 -4.91064 0
M  V30 2706 H 249.821 -1.27687 -2.70807 0
M  V30 2707 H 247.367 -0.615428 -1.30186 0
M  V30 2708 H 249.32 0.681378 -4.15855 0
M  V30 2709 H 248.044 1.20963 -3.03374 0
M  V30 2710 H 246.703 -0.855717 -3.56473 0
M  V30 2711 H 246.351 1.24642 -4.87312 0
M  V30 2712 H 246.051 -0.197356 -5.87268 0
M  V30 2713 H 247.575 0.715241 -6.06396 0
M  V30 2714 H 248.989 -1.49374 -5.53498 0
M  V30 2715 H 247.386 -2.2848 -5.54903 0
M  V30 2716 H 248.456 -2.50382 -4.15255 0
M  V30 2717 N 249.799 1.42003 -0.683588 0
M  V30 2718 C 251.027 2.05746 -0.218182 0
M  V30 2719 C 251.442 1.51396 1.12804 0
M  V30 2720 O 250.799 0.657303 1.70252 0
M  V30 2721 C 250.85 3.61171 -0.154131 0
M  V30 2722 O 250.571 4.13508 -1.44716 0
M  V30 2723 C 252.072 4.42042 0.333713 0
M  V30 2724 H 249.292 0.662888 -0.10402 0
M  V30 2725 H 251.836 1.81987 -0.9328 0
M  V30 2726 H 249.991 3.84012 0.511231 0
M  V30 2727 H 250.405 5.07453 -1.32632 0
M  V30 2728 H 251.879 5.51028 0.327423 0
M  V30 2729 H 252.356 4.17269 1.37053 0
M  V30 2730 H 252.962 4.24239 -0.300222 0
M  V30 2731 N 251.277 0.427512 1.51691 0
M  V30 2732 C 252.207 -0.3796 2.30394 0
M  V30 2733 C 253.188 -1.02982 1.35384 0
M  V30 2734 O 254.373 -1.03534 1.643 0
M  V30 2735 C 251.503 -1.48649 3.1388 0
M  V30 2736 C 250.457 -0.960294 4.17088 0
M  V30 2737 C 249.783 -2.16219 4.89033 0
M  V30 2738 C 251.083 -0.00153679 5.223 0
M  V30 2739 H 252.777 0.277164 2.98114 0
M  V30 2740 H 250.323 0.134739 1.43368 0
M  V30 2741 H 252.276 -2.05826 3.67714 0
M  V30 2742 H 251 -2.1714 2.43962 0
M  V30 2743 H 249.659 -0.410806 3.64291 0
M  V30 2744 H 249.307 -2.83307 4.15628 0
M  V30 2745 H 249.007 -1.81654 5.58816 0
M  V30 2746 H 250.531 -2.73968 5.45687 0
M  V30 2747 H 251.945 -0.482687 5.71264 0
M  V30 2748 H 250.342 0.256199 5.99553 0
M  V30 2749 H 251.412 0.938174 4.75738 0
M  V30 2750 N 252.755 -1.56801 0.158532 0
M  V30 2751 C 254.001 -1.97559 -0.483957 0
M  V30 2752 C 254.356 -1.04239 -1.61716 0
M  V30 2753 O 253.649 -0.079603 -1.91435 0
M  V30 2754 C 253.843 -3.4235 -1.02623 0
M  V30 2755 C 253.672 -4.49669 0.0528929 0
M  V30 2756 C 252.442 -5.02838 0.498234 0
M  V30 2757 C 254.64 -5.0725 0.848616 0
M  V30 2758 N 252.622 -5.93775 1.559 0
M  V30 2759 C 253.993 -5.94506 1.7596 0
M  V30 2760 C 256.048 -4.89788 0.895121 0
M  V30 2761 C 254.751 -6.66169 2.71314 0
M  V30 2762 C 256.777 -5.62161 1.83654 0
M  V30 2763 C 256.139 -6.49134 2.73503 0
M  V30 2764 H 252.238 -0.768332 -0.145566 0
M  V30 2765 H 254.822 -1.93012 0.255799 0
M  V30 2766 H 252.993 -3.47467 -1.73555 0
M  V30 2767 H 254.725 -3.70145 -1.63629 0
M  V30 2768 H 251.48 -4.73498 0.0983222 0
M  V30 2769 H 251.904 -6.43948 2.08949 0
M  V30 2770 H 256.546 -4.22255 0.21453 0
M  V30 2771 H 254.264 -7.32923 3.40367 0
M  V30 2772 H 257.85 -5.5064 1.87847 0
M  V30 2773 H 256.73 -7.04153 3.45163 0
M  V30 2774 N 254.233 0.115231 -1.57178 0
M  V30 2775 C 255.163 1.1423 -2.03651 0
M  V30 2776 C 256.144 1.42967 -0.921655 0
M  V30 2777 O 257.329 1.53343 -1.19162 0
M  V30 2778 C 254.459 2.4675 -2.44401 0
M  V30 2779 C 253.413 2.32467 -3.59365 0
M  V30 2780 C 252.739 3.69984 -3.86026 0
M  V30 2781 C 254.039 1.78203 -4.90959 0
M  V30 2782 H 255.733 0.755749 -2.89705 0
M  V30 2783 H 253.279 0.362093 -1.39373 0
M  V30 2784 H 255.232 3.18854 -2.75517 0
M  V30 2785 H 253.956 2.87302 -1.55322 0
M  V30 2786 H 252.615 1.62811 -3.28463 0
M  V30 2787 H 252.263 4.08028 -2.94147 0
M  V30 2788 H 251.963 3.61279 -4.63412 0
M  V30 2789 H 253.487 4.43587 -4.19599 0
M  V30 2790 H 254.901 2.40128 -5.20587 0
M  V30 2791 H 253.298 1.8031 -5.72371 0
M  V30 2792 H 254.368 0.739876 -4.79222 0
M  V30 2793 N 255.711 1.52812 0.385517 0
M  V30 2794 C 256.641 1.80808 1.47752 0
M  V30 2795 C 257.622 0.660318 1.5676 0
M  V30 2796 O 258.807 0.908246 1.71652 0
M  V30 2797 C 255.937 1.98008 2.85324 0
M  V30 2798 C 254.891 3.13709 2.91154 0
M  V30 2799 C 254.217 3.16169 4.31209 0
M  V30 2800 C 255.517 4.52709 2.60483 0
M  V30 2801 H 257.211 2.72253 1.24573 0
M  V30 2802 H 254.757 1.31003 0.597839 0
M  V30 2803 H 256.71 2.16176 3.61726 0
M  V30 2804 H 255.434 1.03255 3.09848 0
M  V30 2805 H 254.093 2.95329 2.17201 0
M  V30 2806 H 253.741 2.19092 4.52778 0
M  V30 2807 H 253.441 3.93894 4.36029 0
M  V30 2808 H 254.965 3.36496 5.09512 0
M  V30 2809 H 256.379 4.71173 3.26602 0
M  V30 2810 H 254.776 5.32528 2.76648 0
M  V30 2811 H 255.846 4.59186 1.55809 0
M  V30 2812 N 257.189 -0.644168 1.43834 0
M  V30 2813 C 258.438 -1.39985 1.45214 0
M  V30 2814 C 258.751 -1.95421 0.0835494 0
M  V30 2815 O 259.957 -2.71488 -0.0251748 0
M  V30 2816 C 258.413 -2.53384 2.55587 0
M  V30 2817 C 258.021 -2.04517 3.98594 0
M  V30 2818 C 259.765 -3.30685 2.66172 0
M  V30 2819 C 257.672 -3.1518 5.00416 0
M  V30 2820 H 256.602 -0.526005 0.540218 0
M  V30 2821 H 259.253 -0.694367 1.69855 0
M  V30 2822 H 257.635 -3.26446 2.24163 0
M  V30 2823 H 258.809 -1.38405 4.39523 0
M  V30 2824 H 257.124 -1.40068 3.92135 0
M  V30 2825 H 259.721 -4.13158 3.39418 0
M  V30 2826 H 260.064 -3.79312 1.71546 0
M  V30 2827 H 260.597 -2.64708 2.96942 0
M  V30 2828 H 257.336 -2.71511 5.96625 0
M  V30 2829 H 256.856 -3.79974 4.64091 0
M  V30 2830 H 258.535 -3.80166 5.23529 0
M  V30 2831 N 258.668 -1.30515 -0.883378 0
M  V30 2832 C 259.578 -1.18959 -2.02203 0
M  V30 2833 C 260.594 -0.109172 -1.73657 0
M  V30 2834 O 261.77 -0.324413 -1.9877 0
M  V30 2835 C 258.835 -0.883871 -3.35244 0
M  V30 2836 C 257.896 -2.04982 -3.77201 0
M  V30 2837 C 257.129 -1.75859 -5.03894 0
M  V30 2838 O 257.352 -0.687276 -5.66244 0
M  V30 2839 O 256.286 -2.61146 -5.42297 0
M  V30 2840 H 260.112 -2.14616 -2.1488 0
M  V30 2841 H 257.697 -1.10124 -1.0096 0
M  V30 2842 H 259.579 -0.728644 -4.15053 0
M  V30 2843 H 258.254 0.0427798 -3.23672 0
M  V30 2844 H 257.161 -2.26038 -2.9809 0
M  V30 2845 H 258.494 -2.95825 -3.93381 0
M  V30 2846 N 260.146 1.09593 -1.13257 0
M  V30 2847 C 261.079 2.15451 -0.752061 0
M  V30 2848 C 262.057 1.60493 0.260913 0
M  V30 2849 O 263.241 1.8788 0.152819 0
M  V30 2850 C 260.368 3.38506 -0.114594 0
M  V30 2851 C 259.414 4.12183 -1.09579 0
M  V30 2852 S 260.247 4.6661 -2.62745 0
M  V30 2853 C 261.403 5.92966 -2.00354 0
M  V30 2854 H 261.636 2.47395 -1.64872 0
M  V30 2855 H 259.169 1.21515 -0.952545 0
M  V30 2856 H 261.127 4.09757 0.246808 0
M  V30 2857 H 259.788 3.04784 0.759309 0
M  V30 2858 H 258.981 5.00445 -0.597545 0
M  V30 2859 H 258.583 3.46785 -1.40057 0
M  V30 2860 H 260.875 6.63882 -1.35156 0
M  V30 2861 H 261.818 6.47467 -2.86691 0
M  V30 2862 H 262.226 5.45405 -1.4558 0
M  V30 2863 N 261.624 0.925811 1.2754 0
M  V30 2864 C 262.873 0.561084 1.93739 0
M  V30 2865 C 263.186 -0.901685 1.73577 0
M  V30 2866 O 264.392 -1.37511 2.34101 0
M  V30 2867 C 262.848 0.952668 3.47062 0
M  V30 2868 C 262.456 2.43599 3.75983 0
M  V30 2869 C 264.2 0.659103 4.19352 0
M  V30 2870 C 262.107 2.76707 5.22673 0
M  V30 2871 H 261.037 0.206122 0.725279 0
M  V30 2872 H 263.688 1.12637 1.44863 0
M  V30 2873 H 262.07 0.316053 3.94737 0
M  V30 2874 H 263.244 3.12035 3.39073 0
M  V30 2875 H 261.559 2.70125 3.16893 0
M  V30 2876 H 264.156 0.882985 5.27359 0
M  V30 2877 H 264.499 -0.403607 4.14339 0
M  V30 2878 H 265.032 1.25473 3.77494 0
M  V30 2879 H 261.771 3.8188 5.32774 0
M  V30 2880 H 261.291 2.12919 5.60737 0
M  V30 2881 H 262.97 2.6435 5.90532 0
M  V30 2882 N 263.102 -1.41638 0.69111 0
M  V30 2883 C 264.332 -2.0533 0.228758 0
M  V30 2884 C 264.74 -1.52089 -1.12541 0
M  V30 2885 O 264.083 -0.662145 -1.71351 0
M  V30 2886 C 264.145 -3.59349 0.10407 0
M  V30 2887 C 263.809 -4.35362 1.38956 0
M  V30 2888 C 264.806 -4.64942 2.32648 0
M  V30 2889 C 262.491 -4.74714 1.64169 0
M  V30 2890 C 264.485 -5.32828 3.49818 0
M  V30 2891 C 262.172 -5.42338 2.81625 0
M  V30 2892 C 263.17 -5.71322 3.74273 0
M  V30 2893 O 262.858 -6.37554 4.89673 0
M  V30 2894 H 262.59 -0.667796 0.104997 0
M  V30 2895 H 265.144 -1.82477 0.942938 0
M  V30 2896 H 263.374 -3.80924 -0.665839 0
M  V30 2897 H 265.063 -4.04633 -0.320519 0
M  V30 2898 H 265.829 -4.35025 2.14425 0
M  V30 2899 H 261.708 -4.51538 0.929202 0
M  V30 2900 H 265.252 -5.55368 4.22152 0
M  V30 2901 H 261.149 -5.71673 2.99768 0
M  V30 2902 H 261.917 -6.56049 4.8943 0
M  V30 2903 N 264.58 -0.43555 -1.51462 0
M  V30 2904 C 265.82 0.130708 -2.03982 0
M  V30 2905 C 266.184 1.40117 -1.31268 0
M  V30 2906 O 267.385 2.04755 -1.74152 0
M  V30 2907 C 265.656 0.346102 -3.5572 0
M  V30 2908 S 267.215 0.876022 -4.29967 0
M  V30 2909 H 264.033 0.0326881 -0.710248 0
M  V30 2910 H 266.635 -0.594544 -1.8624 0
M  V30 2911 H 265.339 -0.584911 -4.0621 0
M  V30 2912 H 264.87 1.09849 -3.77752 0
M  V30 2913 H 266.885 2.15379 -4.47019 0
M  V30 2914 N 266.058 1.56714 -0.166846 0
M  V30 2915 C 267.288 2.00828 0.48494 0
M  V30 2916 C 267.696 1.04612 1.57648 0
M  V30 2917 O 267.039 0.0383201 1.8366 0
M  V30 2918 C 267.101 3.4137 1.12723 0
M  V30 2919 C 266.765 4.56654 0.177886 0
M  V30 2920 C 267.762 5.16402 -0.60207 0
M  V30 2921 C 265.447 5.02244 0.0750139 0
M  V30 2922 C 267.441 6.20167 -1.47215 0
M  V30 2923 C 265.128 6.05859 -0.798649 0
M  V30 2924 C 266.126 6.64691 -1.57082 0
M  V30 2925 O 265.814 7.66297 -2.42989 0
M  V30 2926 H 265.546 0.663587 0.128953 0
M  V30 2927 H 268.1 2.03692 -0.264365 0
M  V30 2928 H 266.33 3.35406 1.92457 0
M  V30 2929 H 268.019 3.69466 1.68076 0
M  V30 2930 H 268.785 4.82065 -0.53274 0
M  V30 2931 H 264.664 4.56167 0.665812 0
M  V30 2932 H 268.208 6.66016 -2.07531 0
M  V30 2933 H 264.105 6.39621 -0.869199 0
M  V30 2934 H 264.873 7.83601 -2.36455 0
M  V30 2935 N 267.536 -0.106894 1.57237 0
M  V30 2936 C 268.952 -0.46078 1.52804 0
M  V30 2937 C 269.152 -1.81184 0.881746 0
M  V30 2938 O 268.208 -2.48102 0.469224 0
M  V30 2939 C 269.521 -0.434127 2.9755 0
M  V30 2940 C 271.069 -0.516821 3.08704 0
M  V30 2941 C 271.544 -0.520436 4.55033 0
M  V30 2942 N 273.035 -0.58153 4.59535 0
M  V30 2943 C 273.77 -0.605973 5.70189 0
M  V30 2944 N 273.266 -0.587331 6.90306 0
M  V30 2945 N 275.059 -0.649895 5.5833 0
M  V30 2946 H 267.21 0.778203 1.9763 0
M  V30 2947 H 269.473 0.288403 0.903066 0
M  V30 2948 H 269.179 0.491197 3.48253 0
M  V30 2949 H 269.053 -1.25748 3.55622 0
M  V30 2950 H 271.44 -1.43256 2.57995 0
M  V30 2951 H 271.521 0.334449 2.53604 0
M  V30 2952 H 271.165 0.391313 5.0639 0
M  V30 2953 H 271.095 -1.38876 5.07958 0
M  V30 2954 H 273.586 -0.60161 3.73081 0
M  V30 2955 H 273.899 -0.60894 7.70397 0
M  V30 2956 H 272.244 -0.554564 6.92784 0
M  V30 2957 H 275.435 -0.661907 4.63397 0
M  V30 2958 H 275.608 -0.665476 6.44574 0
M  V30 2959 N 269.014 -1.53014 -0.377408 0
M  V30 2960 C 269.961 -1.78616 -1.46168 0
M  V30 2961 C 270.931 -0.629917 -1.53692 0
M  V30 2962 O 272.116 -0.870861 -1.69766 0
M  V30 2963 C 269.256 -1.97123 -2.8326 0
M  V30 2964 C 268.369 -3.24831 -2.84796 0
M  V30 2965 C 267.504 -3.33591 -4.13389 0
M  V30 2966 C 266.543 -4.55377 -4.09021 0
M  V30 2967 N 265.68 -4.61355 -5.29241 0
M  V30 2968 H 270.52 -2.71142 -1.23637 0
M  V30 2969 H 268.057 -1.34326 -0.599577 0
M  V30 2970 H 270.015 -2.05839 -3.62886 0
M  V30 2971 H 268.645 -1.07946 -3.04216 0
M  V30 2972 H 267.697 -3.25128 -1.97474 0
M  V30 2973 H 269.009 -4.14523 -2.77439 0
M  V30 2974 H 268.163 -3.41554 -5.01424 0
M  V30 2975 H 266.902 -2.41894 -4.23484 0
M  V30 2976 H 265.907 -4.47527 -3.19373 0
M  V30 2977 H 267.132 -5.48402 -4.00539 0
M  V30 2978 H 265.078 -3.72554 -5.39944 0
M  V30 2979 H 264.995 -5.44935 -5.24006 0
M  V30 2980 H 266.263 -4.73586 -6.19141 0
M  V30 2981 N 270.492 0.636531 -1.44174 0
M  V30 2982 C 271.738 1.39826 -1.4689 0
M  V30 2983 C 272.071 1.93947 -0.0990585 0
M  V30 2984 O 271.346 1.73325 0.882544 0
M  V30 2985 C 271.629 2.56751 -2.5249 0
M  V30 2986 C 271.482 2.08014 -3.98811 0
M  V30 2987 C 272.801 3.58946 -2.54649 0
M  V30 2988 H 269.92 0.507075 -0.53483 0
M  V30 2989 H 272.562 0.720188 -1.75822 0
M  V30 2990 H 270.712 3.14597 -2.2795 0
M  V30 2991 H 272.384 1.5504 -4.34466 0
M  V30 2992 H 270.627 1.39242 -4.10846 0
M  V30 2993 H 271.298 2.92169 -4.68339 0
M  V30 2994 H 273.774 3.1089 -2.76563 0
M  V30 2995 H 272.65 4.38286 -3.3045 0
M  V30 2996 H 272.911 4.12655 -1.58646 0
M  V30 2997 N 271.97 1.30982 0.876444 0
M  V30 2998 C 273.195 1.23373 1.66715 0
M  V30 2999 C 273.62 -0.19885 1.87046 0
M  V30 3000 O 272.978 -1.1427 1.40756 0
M  V30 3001 C 273.026 1.97644 3.01611 0
M  V30 3002 O 272.13 1.30935 3.91062 0
M  V30 3003 H 271.471 0.426279 0.509099 0
M  V30 3004 H 274.001 1.72944 1.09323 0
M  V30 3005 H 274.011 2.06992 3.51594 0
M  V30 3006 H 272.686 3.01829 2.86133 0
M  V30 3007 H 271.263 1.29996 3.49507 0
M  V30 3008 N 273.449 -1.08991 1.13837 0
M  V30 3009 C 274.396 -2.15748 0.819835 0
M  V30 3010 C 275.366 -1.64636 -0.220026 0
M  V30 3011 O 276.551 -1.90582 -0.0912757 0
M  V30 3012 C 273.691 -3.4382 0.296913 0
M  V30 3013 C 272.804 -4.0881 1.39636 0
M  V30 3014 C 271.939 -5.24655 0.831314 0
M  V30 3015 C 270.978 -5.81575 1.90886 0
M  V30 3016 N 270.115 -6.88774 1.36142 0
M  V30 3017 H 274.955 -2.42338 1.73426 0
M  V30 3018 H 272.492 -1.18935 0.865613 0
M  V30 3019 H 274.45 -4.17193 -0.0244339 0
M  V30 3020 H 273.08 -3.17535 -0.580628 0
M  V30 3021 H 272.132 -3.33258 1.83422 0
M  V30 3022 H 273.444 -4.47141 2.21058 0
M  V30 3023 H 272.598 -6.04942 0.461515 0
M  V30 3024 H 271.337 -4.87698 -0.013932 0
M  V30 3025 H 270.342 -4.99946 2.28767 0
M  V30 3026 H 271.567 -6.20592 2.75758 0
M  V30 3027 H 269.513 -6.53788 0.538254 0
M  V30 3028 H 269.43 -7.25898 2.11208 0
M  V30 3029 H 270.698 -7.72806 1.01933 0
M  V30 3030 N 274.927 -0.932562 -1.27047 0
M  V30 3031 C 275.89 -0.440064 -2.24936 0
M  V30 3032 C 276.89 0.444071 -1.54547 0
M  V30 3033 O 278.08 0.244465 -1.72476 0
M  V30 3034 C 275.212 0.36678 -3.38921 0
M  V30 3035 H 276.405 -1.305 -2.70018 0
M  V30 3036 H 273.958 -0.713707 -1.39054 0
M  V30 3037 H 274.693 1.25033 -2.99228 0
M  V30 3038 H 274.478 -0.267204 -3.91188 0
M  V30 3039 H 275.968 0.701567 -4.11665 0
M  V30 3040 N 276.405 1.4127 -0.698611 0
M  V30 3041 C 277.315 2.34573 -0.0357891 0
M  V30 3042 C 278.331 1.56393 0.762701 0
M  V30 3043 O 279.507 1.8886 0.699564 0
M  V30 3044 C 276.572 3.35159 0.887089 0
M  V30 3045 C 275.633 4.29225 0.0804634 0
M  V30 3046 C 274.866 5.25006 0.959387 0
M  V30 3047 O 275.089 5.26314 2.19886 0
M  V30 3048 O 274.023 6.00519 0.407439 0
M  V30 3049 H 277.849 2.92838 -0.804957 0
M  V30 3050 H 275.434 1.42175 -0.458966 0
M  V30 3051 H 277.316 3.9689 1.41621 0
M  V30 3052 H 275.991 2.79333 1.6357 0
M  V30 3053 H 274.898 3.70833 -0.493328 0
M  V30 3054 H 276.231 4.88157 -0.629547 0
M  V30 3055 N 277.883 0.443576 1.51229 0
M  V30 3056 C 278.793 -0.370721 2.31652 0
M  V30 3057 C 279.809 -1.02186 1.40833 0
M  V30 3058 O 280.985 -1.01586 1.73903 0
M  V30 3059 C 278.05 -1.45376 3.14749 0
M  V30 3060 C 277.111 -0.822099 4.21355 0
M  V30 3061 C 276.344 -1.85353 5.0048 0
M  V30 3062 O 276.567 -3.07656 4.80316 0
M  V30 3063 O 275.501 -1.4406 5.84406 0
M  V30 3064 H 279.327 0.286002 3.0235 0
M  V30 3065 H 276.912 0.20598 1.47973 0
M  V30 3066 H 278.794 -2.08173 3.66391 0
M  V30 3067 H 277.469 -2.09445 2.46809 0
M  V30 3068 H 276.376 -0.155909 3.73775 0
M  V30 3069 H 277.709 -0.224797 4.91686 0
M  V30 3070 N 279.361 -1.56624 0.175154 0
M  V30 3071 C 280.324 -2.16934 -0.739738 0
M  V30 3072 C 281.324 -1.11842 -1.15533 0
M  V30 3073 O 282.514 -1.37335 -1.07167 0
M  V30 3074 C 279.646 -2.75531 -2.00738 0
M  V30 3075 H 280.839 -2.99131 -0.214639 0
M  V30 3076 H 278.392 -1.56123 -0.0744197 0
M  V30 3077 H 279.127 -1.97078 -2.57548 0
M  V30 3078 H 278.912 -3.52444 -1.71831 0
M  V30 3079 H 280.402 -3.21904 -2.66021 0
M  V30 3080 N 280.839 0.0985539 -1.57292 0
M  V30 3081 C 281.802 1.10402 -2.00858 0
M  V30 3082 C 282.802 1.33146 -0.901593 0
M  V30 3083 O 283.992 1.29318 -1.16716 0
M  V30 3084 C 281.124 2.45394 -2.36632 0
M  V30 3085 H 282.317 0.729099 -2.90902 0
M  V30 3086 H 279.87 0.343495 -1.52479 0
M  V30 3087 H 280.605 2.87769 -1.49531 0
M  V30 3088 H 280.39 2.30235 -3.17387 0
M  V30 3089 H 281.88 3.17718 -2.71007 0
M  V30 3090 N 282.317 1.53212 0.369288 0
M  V30 3091 C 283.249 1.75668 1.47219 0
M  V30 3092 C 284.262 0.637387 1.49804 0
M  V30 3093 O 285.451 0.913561 1.5335 0
M  V30 3094 C 282.551 1.81818 2.85999 0
M  V30 3095 C 281.724 3.11409 3.07153 0
M  V30 3096 C 280.783 3.08849 4.26026 0
M  V30 3097 O 279.809 3.82659 4.2138 0
M  V30 3098 N 281.011 2.29409 5.33246 0
M  V30 3099 H 283.776 2.70832 1.28337 0
M  V30 3100 H 281.337 1.51944 0.55898 0
M  V30 3101 H 283.329 1.77588 3.63655 0
M  V30 3102 H 281.899 0.939544 2.98146 0
M  V30 3103 H 281.119 3.28971 2.1719 0
M  V30 3104 H 282.407 3.97059 3.18154 0
M  V30 3105 H 281.805 1.68946 5.39883 0
M  V30 3106 H 280.362 2.31001 6.09493 0
M  V30 3107 N 283.795 -0.628877 1.44509 0
M  V30 3108 C 284.705 -1.7694 1.54044 0
M  V30 3109 C 285.721 -1.68705 0.425987 0
M  V30 3110 O 286.897 -1.89442 0.683656 0
M  V30 3111 C 283.962 -3.13332 1.48405 0
M  V30 3112 C 283.023 -3.33181 2.70719 0
M  V30 3113 C 282.256 -4.63067 2.6534 0
M  V30 3114 O 282.479 -5.44017 1.71469 0
M  V30 3115 O 281.413 -4.85167 3.56226 0
M  V30 3116 H 285.239 -1.71848 2.50403 0
M  V30 3117 H 282.824 -0.790378 1.26781 0
M  V30 3118 H 284.706 -3.94634 1.47791 0
M  V30 3119 H 283.381 -3.1896 0.551898 0
M  V30 3120 H 282.288 -2.51549 2.769 0
M  V30 3121 H 283.621 -3.32416 3.62988 0
M  V30 3122 N 285.273 -1.31445 -0.869486 0
M  V30 3123 C 286.221 -1.19067 -1.99814 0
M  V30 3124 C 287.215 -0.0988569 -1.69111 0
M  V30 3125 O 288.421 -0.260781 -1.78101 0
M  V30 3126 H 284.796 -0.368677 -0.655425 0
M  V30 3127 H 286.767 -2.14555 -2.07385 0
M  V30 3128 C 285.516 -0.915323 -3.35436 0
M  V30 3129 H 284.839 -1.74759 -3.59582 0
M  V30 3130 H 286.279 -0.868895 -4.15001 0
M  V30 3131 C 284.738 0.381928 -3.34728 0
M  V30 3132 O 285.268 1.39857 -3.76567 0
M  V30 3133 N 283.474 0.398633 -2.87853 0
M  V30 3134 H 283.021 -0.429186 -2.54 0
M  V30 3135 H 282.979 1.26651 -2.87762 0
M  V30 3136 N 286.751 1.08385 -1.14413 0
M  V30 3137 C 287.714 2.13486 -0.834048 0
M  V30 3138 C 288.714 1.59988 0.161418 0
M  V30 3139 O 289.904 1.74071 -0.0669575 0
M  V30 3140 C 287.036 3.4003 -0.243354 0
M  V30 3141 H 288.229 2.42425 -1.7655 0
M  V30 3142 H 285.782 1.24101 -0.950189 0
M  V30 3143 H 286.517 3.16726 0.696807 0
M  V30 3144 H 286.302 3.80157 -0.960367 0
M  V30 3145 H 287.792 4.17577 -0.0436242 0
M  V30 3146 N 288.23 0.939286 1.26551 0
M  V30 3147 C 289.455 0.602008 1.98471 0
M  V30 3148 C 289.88 -0.815624 1.69497 0
M  V30 3149 O 289.238 -1.54912 0.941905 0
M  V30 3150 C 289.286 0.848407 3.50477 0
M  V30 3151 O 288.39 -0.0804009 4.12322 0
M  V30 3152 H 287.731 0.23049 0.622712 0
M  V30 3153 H 290.261 1.2617 1.61066 0
M  V30 3154 H 290.271 0.768553 4.00696 0
M  V30 3155 H 288.946 1.88171 3.70897 0
M  V30 3156 H 287.523 0.0503508 3.72866 0
M  V30 3157 N 289.708 -1.40897 0.706093 0
M  V30 3158 C 290.985 -1.94868 0.169099 0
M  V30 3159 C 291.365 -1.64485 -1.32318 0
M  V30 3160 O 290.713 -0.95744 -2.07474 0
M  V30 3161 C 290.923 -3.45798 0.471654 0
M  V30 3162 C 292.271 -4.22663 0.405127 0
M  V30 3163 O 293.295 -3.53865 0.407168 0
M  V30 3164 O 292.154 -5.45216 0.374383 0
M  V30 3165 H 289.248 -0.82673 0.0211352 0
M  V30 3166 H 291.794 -1.50558 0.782976 0
M  V30 3167 H 290.566 -3.61235 1.50416 0
M  V30 3168 H 290.189 -3.97225 -0.172666 0
M  V30 3169 N 291.186 -0.45159 -1.50991 0
M  V30 3170 C 292.416 0.108177 -2.06317 0
M  V30 3171 C 292.824 1.35774 -1.31765 0
M  V30 3172 O 292.167 1.79838 -0.374694 0
M  V30 3173 C 292.229 0.481659 -3.56259 0
M  V30 3174 C 291.893 -0.663114 -4.52163 0
M  V30 3175 C 292.89 -1.53947 -4.96585 0
M  V30 3176 C 290.575 -0.8479 -4.95092 0
M  V30 3177 C 292.569 -2.58518 -5.82621 0
M  V30 3178 C 290.256 -1.89686 -5.80915 0
M  V30 3179 C 291.254 -2.76388 -6.24579 0
M  V30 3180 O 290.942 -3.79482 -7.08695 0
M  V30 3181 H 290.674 0.00499183 -0.675982 0
M  V30 3182 H 293.228 -0.633659 -1.95381 0
M  V30 3183 H 291.458 1.27641 -3.65027 0
M  V30 3184 H 293.147 0.974233 -3.94035 0
M  V30 3185 H 293.913 -1.4083 -4.64103 0
M  V30 3186 H 289.792 -0.18258 -4.60638 0
M  V30 3187 H 293.336 -3.26224 -6.16623 0
M  V30 3188 H 289.233 -2.02817 -6.12809 0
M  V30 3189 H 290.001 -3.76234 -7.26905 0
M  V30 3190 N 292.664 1.56529 -0.183458 0
M  V30 3191 C 293.594 2.21549 0.737456 0
M  V30 3192 C 294.575 1.17489 1.23005 0
M  V30 3193 O 295.76 1.45959 1.281 0
M  V30 3194 C 292.89 2.86575 1.96194 0
M  V30 3195 C 291.844 3.96778 1.60473 0
M  V30 3196 C 291.17 4.48911 2.90487 0
M  V30 3197 C 292.47 5.15767 0.823497 0
M  V30 3198 H 294.164 2.98761 0.195453 0
M  V30 3199 H 291.71 1.43702 0.0925686 0
M  V30 3200 H 293.663 3.30739 2.61131 0
M  V30 3201 H 292.387 2.06749 2.52828 0
M  V30 3202 H 291.046 3.53286 0.978997 0
M  V30 3203 H 290.694 3.65862 3.45186 0
M  V30 3204 H 290.394 5.23265 2.67335 0
M  V30 3205 H 291.918 4.95771 3.56432 0
M  V30 3206 H 293.332 5.56549 1.37571 0
M  V30 3207 H 291.729 5.96114 0.690551 0
M  V30 3208 H 292.799 4.84574 -0.177782 0
M  V30 3209 N 294.142 -0.090211 1.57342 0
M  V30 3210 C 295.105 -1.09335 2.01441 0
M  V30 3211 C 296.105 -1.32666 0.908641 0
M  V30 3212 O 297.295 -1.28697 1.174 0
M  V30 3213 C 294.427 -2.44136 2.3793 0
M  V30 3214 H 295.62 -0.713662 2.91285 0
M  V30 3215 H 293.173 -0.335404 1.52659 0
M  V30 3216 H 293.908 -2.86972 1.51055 0
M  V30 3217 H 293.693 -2.28548 3.18603 0
M  V30 3218 H 295.183 -3.16277 2.72688 0
M  V30 3219 N 295.62 -1.53406 -0.361157 0
M  V30 3220 C 296.869 -1.69022 -1.10066 0
M  V30 3221 C 297.182 -0.450838 -1.90333 0
M  V30 3222 O 298.388 -0.487617 -2.67085 0
M  V30 3223 C 296.844 -2.98812 -2.00598 0
M  V30 3224 C 296.452 -4.30027 -1.25621 0
M  V30 3225 C 298.196 -3.23795 -2.74513 0
M  V30 3226 C 296.103 -5.50903 -2.1508 0
M  V30 3227 H 295.033 -0.629776 -0.414606 0
M  V30 3228 H 297.684 -1.79907 -0.361348 0
M  V30 3229 H 296.066 -2.8174 -2.78278 0
M  V30 3230 H 297.24 -4.57745 -0.529739 0
M  V30 3231 H 295.555 -4.11522 -0.635496 0
M  V30 3232 H 298.152 -4.11289 -3.41681 0
M  V30 3233 H 298.495 -2.40045 -3.40123 0
M  V30 3234 H 299.028 -3.41561 -2.03914 0
M  V30 3235 H 295.767 -6.37143 -1.54041 0
M  V30 3236 H 295.287 -5.27459 -2.85565 0
M  V30 3237 H 296.966 -5.85865 -2.74538 0
M  V30 3238 N 297.098 0.621204 -1.44841 0
M  V30 3239 C 298.509 1.20298 -1.42777 0
M  V30 3240 C 298.86 1.95639 -0.148259 0
M  V30 3241 O 297.985 2.02955 0.750892 0
M  V30 3242 C 298.58 2.1882 -2.58657 0
M  V30 3243 C 297.139 2.72403 -2.59756 0
M  V30 3244 C 296.286 1.4757 -2.34773 0
M  V30 3245 H 299.237 0.411297 -1.53278 0
M  V30 3246 H 299.258 3.01607 -2.31977 0
M  V30 3247 H 298.77 1.63957 -3.51766 0
M  V30 3248 H 296.871 3.31242 -1.70615 0
M  V30 3249 H 296.984 3.17765 -3.58556 0
M  V30 3250 H 295.348 1.76051 -1.8406 0
M  V30 3251 H 296.131 0.945954 -3.3001 0
M  V30 3252 N 298.576 1.31904 0.862503 0
M  V30 3253 C 299.801 1.25135 1.65397 0
M  V30 3254 C 300.226 -0.179 1.87246 0
M  V30 3255 O 299.584 -1.1277 1.4196 0
M  V30 3256 C 299.632 2.00832 2.99498 0
M  V30 3257 O 298.736 1.35075 3.89652 0
M  V30 3258 H 298.077 0.431655 0.504549 0
M  V30 3259 H 300.607 1.74094 1.07483 0
M  V30 3260 H 300.617 2.10709 3.49379 0
M  V30 3261 H 299.292 3.04847 2.82916 0
M  V30 3262 H 297.869 1.33696 3.48109 0
M  V30 3263 N 300.054 -1.07777 1.14986 0
M  V30 3264 C 300.964 -2.18404 0.856546 0
M  V30 3265 C 301.98 -1.73211 -0.165485 0
M  V30 3266 O 303.156 -2.01399 0.00755219 0
M  V30 3267 C 300.221 -3.44977 0.34526 0
M  V30 3268 C 299.282 -4.0476 1.43065 0
M  V30 3269 C 298.515 -5.25291 0.943663 0
M  V30 3270 O 298.738 -5.70004 -0.212426 0
M  V30 3271 O 297.672 -5.76638 1.72547 0
M  V30 3272 H 301.498 -2.45978 1.78125 0
M  V30 3273 H 299.083 -1.17033 0.928631 0
M  V30 3274 H 300.965 -4.21348 0.0663671 0
M  V30 3275 H 299.64 -3.18965 -0.551631 0
M  V30 3276 H 298.547 -3.29949 1.76309 0
M  V30 3277 H 299.88 -4.35035 2.30229 0
M  V30 3278 N 301.532 -0.945985 -1.26051 0
M  V30 3279 C 302.48 -0.450259 -2.282 0
M  V30 3280 C 303.474 0.47497 -1.62605 0
M  V30 3281 O 304.68 0.352653 -1.76512 0
M  V30 3282 H 301.055 -0.127081 -0.741184 0
M  V30 3283 H 303.026 -1.32422 -2.67408 0
M  V30 3284 C 301.775 0.26467 -3.46691 0
M  V30 3285 H 301.098 -0.438123 -3.97392 0
M  V30 3286 H 302.538 0.575678 -4.20074 0
M  V30 3287 C 300.997 1.48416 -3.02447 0
M  V30 3288 O 301.527 2.58227 -3.07704 0
M  V30 3289 N 299.733 1.34243 -2.57735 0
M  V30 3290 H 299.28 0.448994 -2.53657 0
M  V30 3291 H 299.238 2.15957 -2.28495 0
M  V30 3292 N 303.011 1.40521 -0.713556 0
M  V30 3293 C 303.958 2.30723 -0.059684 0
M  V30 3294 C 304.928 1.48079 0.752448 0
M  V30 3295 O 306.113 1.76823 0.71681 0
M  V30 3296 C 303.253 3.34274 0.857594 0
M  V30 3297 C 302.366 4.31986 0.0351536 0
M  V30 3298 C 301.501 5.22605 0.951724 0
M  V30 3299 C 300.54 6.11976 0.123253 0
M  V30 3300 N 299.677 6.9502 0.99459 0
M  V30 3301 H 304.517 2.86074 -0.834596 0
M  V30 3302 H 302.054 1.40879 -0.42326 0
M  V30 3303 H 304.012 3.92879 1.40364 0
M  V30 3304 H 302.642 2.8043 1.59871 0
M  V30 3305 H 301.694 3.7518 -0.628052 0
M  V30 3306 H 303.006 4.95101 -0.606347 0
M  V30 3307 H 302.16 5.86131 1.56638 0
M  V30 3308 H 300.899 4.59759 1.62705 0
M  V30 3309 H 299.904 5.47482 -0.50435 0
M  V30 3310 H 301.129 6.76881 -0.548539 0
M  V30 3311 H 299.075 6.34764 1.6556 0
M  V30 3312 H 298.992 7.54892 0.40908 0
M  V30 3313 H 300.26 7.62997 1.59549 0
M  V30 3314 N 304.489 0.459591 1.5075 0
M  V30 3315 C 305.399 -0.34613 2.32033 0
M  V30 3316 C 306.415 -1.00686 1.41909 0
M  V30 3317 O 307.591 -0.997361 1.7497 0
M  V30 3318 C 304.656 -1.42029 3.16273 0
M  V30 3319 C 303.717 -0.777362 4.22203 0
M  V30 3320 C 302.95 -1.80034 5.02418 0
M  V30 3321 O 303.173 -3.02544 4.83553 0
M  V30 3322 O 302.107 -1.37853 5.85901 0
M  V30 3323 H 305.933 0.318054 3.0203 0
M  V30 3324 H 303.518 0.221663 1.47746 0
M  V30 3325 H 305.4 -2.04275 3.68578 0
M  V30 3326 H 304.075 -2.06815 2.49016 0
M  V30 3327 H 302.982 -0.116256 3.73919 0
M  V30 3328 H 304.315 -0.172634 4.91897 0
M  V30 3329 N 305.967 -1.56429 0.191757 0
M  V30 3330 C 306.915 -2.20273 -0.747174 0
M  V30 3331 C 307.909 -1.17288 -1.22229 0
M  V30 3332 O 309.115 -1.35441 -1.18557 0
M  V30 3333 H 305.49 -0.705885 -0.259289 0
M  V30 3334 H 307.461 -2.97826 -0.184963 0
M  V30 3335 C 306.21 -2.87356 -1.95759 0
M  V30 3336 H 305.533 -3.66341 -1.60106 0
M  V30 3337 H 306.973 -3.3547 -2.59299 0
M  V30 3338 C 305.432 -1.88213 -2.79423 0
M  V30 3339 O 305.962 -1.38033 -3.7724 0
M  V30 3340 N 304.168 -1.56516 -2.44849 0
M  V30 3341 H 303.715 -1.97516 -1.65364 0
M  V30 3342 H 303.673 -0.904369 -3.01112 0
M  V30 3343 N 307.445 0.0818655 -1.57387 0
M  V30 3344 C 308.67 0.799946 -1.91352 0
M  V30 3345 C 309.095 1.70833 -0.787258 0
M  V30 3346 O 308.453 1.79419 0.26048 0
M  V30 3347 C 308.501 1.57812 -3.24234 0
M  V30 3348 O 307.605 2.68806 -3.12757 0
M  V30 3349 H 306.946 0.21891 -0.626877 0
M  V30 3350 H 309.476 0.0531256 -2.04531 0
M  V30 3351 H 309.486 1.95952 -3.57864 0
M  V30 3352 H 308.161 0.911548 -4.05788 0
M  V30 3353 H 306.738 2.33597 -2.90666 0
M  V30 3354 N 308.923 1.53595 0.353017 0
M  V30 3355 C 309.886 1.80232 1.41594 0
M  V30 3356 C 310.886 0.673081 1.46035 0
M  V30 3357 O 312.076 0.941335 1.46576 0
M  V30 3358 C 309.208 1.93578 2.80607 0
M  V30 3359 H 310.401 2.75174 1.19244 0
M  V30 3360 H 307.954 1.44864 0.586872 0
M  V30 3361 H 308.689 1.00746 3.08254 0
M  V30 3362 H 308.474 2.75724 2.78781 0
M  V30 3363 H 309.964 2.15735 3.57558 0
M  V30 3364 N 310.401 -0.613514 1.45168 0
M  V30 3365 C 311.647 -1.37471 1.49096 0
M  V30 3366 C 311.98 -1.93765 0.129901 0
M  V30 3367 O 311.255 -1.74707 -0.854858 0
M  V30 3368 C 311.538 -2.52701 2.56542 0
M  V30 3369 C 311.391 -2.01643 4.0207 0
M  V30 3370 C 312.71 -3.54849 2.60327 0
M  V30 3371 H 309.829 -0.498502 0.54283 0
M  V30 3372 H 312.471 -0.692125 1.76945 0
M  V30 3373 H 310.621 -3.10931 2.32926 0
M  V30 3374 H 312.293 -1.48108 4.36877 0
M  V30 3375 H 310.536 -1.32688 4.13009 0
M  V30 3376 H 311.207 -2.84681 4.72928 0
M  V30 3377 H 313.683 -3.0645 2.81474 0
M  V30 3378 H 312.559 -4.32973 3.37381 0
M  V30 3379 H 312.82 -4.10079 1.6519 0
M  V30 3380 N 311.879 -1.3236 -0.855495 0
M  V30 3381 C 313.29 -1.2056 -1.42556 0
M  V30 3382 C 313.641 0.182209 -1.95352 0
M  V30 3383 O 312.766 1.08088 -1.87472 0
M  V30 3384 C 313.361 -2.1826 -2.59129 0
M  V30 3385 C 311.92 -2.10351 -3.12137 0
M  V30 3386 C 311.067 -2.06674 -1.84882 0
M  V30 3387 H 314.018 -1.442 -0.662727 0
M  V30 3388 H 314.039 -1.78064 -3.36264 0
M  V30 3389 H 313.551 -3.19257 -2.20673 0
M  V30 3390 H 311.652 -1.12599 -3.55179 0
M  V30 3391 H 311.765 -3.00135 -3.73438 0
M  V30 3392 H 310.129 -1.51901 -2.04446 0
M  V30 3393 H 310.912 -3.09451 -1.48643 0
M  V30 3394 N 313.357 1.07166 -1.15556 0
M  V30 3395 C 314.603 1.80065 -0.932984 0
M  V30 3396 C 314.936 1.86586 0.53845 0
M  V30 3397 O 314.211 1.35098 1.39924 0
M  V30 3398 C 314.494 3.25022 -1.55025 0
M  V30 3399 C 314.347 3.26634 -3.09242 0
M  V30 3400 C 315.666 4.22341 -1.2376 0
M  V30 3401 H 312.785 0.653697 -0.340366 0
M  V30 3402 H 315.427 1.25389 -1.4275 0
M  V30 3403 H 313.577 3.71712 -1.12972 0
M  V30 3404 H 315.249 2.88173 -3.60214 0
M  V30 3405 H 313.492 2.65539 -3.43033 0
M  V30 3406 H 314.163 4.28854 -3.47546 0
M  V30 3407 H 316.639 3.8405 -1.60139 0
M  V30 3408 H 315.515 5.22053 -1.69564 0
M  V30 3409 H 315.776 4.41828 -0.154938 0
M  V30 3410 N 314.835 0.952656 1.25548 0
M  V30 3411 C 315.745 0.47782 2.29682 0
M  V30 3412 C 316.761 -0.453859 1.67977 0
M  V30 3413 O 317.937 -0.330587 1.98668 0
M  V30 3414 C 315.002 -0.238655 3.45878 0
M  V30 3415 C 314.063 0.730994 4.23031 0
M  V30 3416 C 313.296 0.0486165 5.33678 0
M  V30 3417 O 313.519 -1.16612 5.58353 0
M  V30 3418 O 312.453 0.733152 5.97418 0
M  V30 3419 H 316.279 1.34312 2.72386 0
M  V30 3420 H 313.864 0.719026 1.30959 0
M  V30 3421 H 315.746 -0.641774 4.16484 0
M  V30 3422 H 314.421 -1.07916 3.05181 0
M  V30 3423 H 313.328 1.18428 3.5486 0
M  V30 3424 H 314.661 1.53946 4.67506 0
M  V30 3425 N 316.313 -1.40141 0.720998 0
M  V30 3426 C 317.223 -2.34486 0.0731031 0
M  V30 3427 C 318.239 -1.57587 -0.737723 0
M  V30 3428 O 319.415 -1.89949 -0.669429 0
M  V30 3429 C 316.48 -3.36528 -0.833656 0
M  V30 3430 C 315.541 -4.29298 -0.0121673 0
M  V30 3431 C 314.774 -5.26466 -0.875742 0
M  V30 3432 O 314.997 -5.29745 -2.11485 0
M  V30 3433 O 313.931 -6.01092 -0.31185 0
M  V30 3434 H 317.757 -2.9152 0.851444 0
M  V30 3435 H 315.342 -1.41427 0.481527 0
M  V30 3436 H 317.224 -3.99093 -1.35289 0
M  V30 3437 H 315.899 -2.81899 -1.59105 0
M  V30 3438 H 314.806 -3.70001 0.552262 0
M  V30 3439 H 316.139 -4.87094 0.707129 0
M  V30 3440 O 317.83 -0.609464 -1.49559 0
M  V30 3441 H 318.521 -0.121877 -1.93316 0
M  V30 END ATOM
M  V30 BEGIN BOND
M  V30 END BOND
M  V30 END CTAB
M  END
$$$$
