drugbank_target|Q9NY59 Sphingomyelin phosphodiesterase 3 (DB00144)
 OpenBabel12092120083D

  0  0  0     0  0            999 V3000
M  V30 BEGIN CTAB
M  V30 COUNTS 9835 9953 0 0 0
M  V30 BEGIN ATOM
M  V30 1 H -0.908 1.98254 -0.117106 0
M  V30 2 N 0 1.576 0 0
M  V30 3 C 0.933 2.03868 1.02534 0
M  V30 4 C 1.911 0.928543 1.3348 0
M  V30 5 O 3.095 1.19667 1.45644 0
M  V30 6 C 0.222 2.43627 2.35294 0
M  V30 7 C -0.732 3.65373 2.2001 0
M  V30 8 S 0.101 5.13292 1.52614 0
M  V30 9 C 1.257 5.56322 2.86805 0
M  V30 10 H 1.49 2.90518 0.631377 0
M  V30 11 H -0.977 1.52953 0.210867 0
M  V30 12 H 0.981 2.67203 3.11629 0
M  V30 13 H -0.358 1.57376 2.7183 0
M  V30 14 H -1.165 3.90944 3.18086 0
M  V30 15 H -1.563 3.418 1.51819 0
M  V30 16 H 0.729 5.58782 3.83104 0
M  V30 17 H 1.672 6.56266 2.65933 0
M  V30 18 H 2.08 4.83886 2.90714 0
M  V30 19 N 1.4781 -0.272755 1.55222 0
M  V30 20 C 2.7241 -1.00581 1.761 0
M  V30 21 C 3.0571 -1.85932 0.560625 0
M  V30 22 O 2.3321 -1.89416 -0.441801 0
M  V30 23 C 2.6151 -1.88816 3.06628 0
M  V30 24 C 2.4681 -1.06457 4.37021 0
M  V30 25 C 3.7871 -2.8752 3.33197 0
M  V30 26 H 0.9061 -0.364244 0.640699 0
M  V30 27 H 3.5481 -0.278189 1.87952 0
M  V30 28 H 1.6981 -2.50856 2.96654 0
M  V30 29 H 3.3701 -0.464863 4.58952 0
M  V30 30 H 1.6131 -0.368043 4.32236 0
M  V30 31 H 2.2841 -1.71514 5.24678 0
M  V30 32 H 4.7601 -2.35615 3.42965 0
M  V30 33 H 3.6361 -3.46399 4.25792 0
M  V30 34 H 3.8971 -3.62657 2.52849 0
M  V30 35 N 2.9562 -1.48159 -0.537278 0
M  V30 36 C 3.8862 -1.65029 -1.6519 0
M  V30 37 C 4.8672 -0.499281 -1.62607 0
M  V30 38 O 6.0522 -0.730972 -1.79918 0
M  V30 39 C 3.1822 -1.68303 -3.03795 0
M  V30 40 C 2.1362 -2.8283 -3.21234 0
M  V30 41 C 1.4622 -2.71189 -4.60826 0
M  V30 42 C 2.7622 -4.24211 -3.04701 0
M  V30 43 H 4.4562 -2.58341 -1.51328 0
M  V30 44 H 2.0022 -1.24325 -0.726585 0
M  V30 45 H 3.9552 -1.78693 -3.81637 0
M  V30 46 H 2.6792 -0.715635 -3.18663 0
M  V30 47 H 1.3382 -2.71983 -2.45807 0
M  V30 48 H 0.9862 -1.72435 -4.7252 0
M  V30 49 H 0.6862 -3.48035 -4.7344 0
M  V30 50 H 2.2102 -2.83537 -5.40777 0
M  V30 51 H 3.6242 -4.3593 -3.72341 0
M  V30 52 H 2.0212 -5.01998 -3.28813 0
M  V30 53 H 3.0912 -4.41184 -2.01209 0
M  V30 54 N 4.4343 0.785586 -1.36625 0
M  V30 55 C 5.6643 1.5722 -1.34036 0
M  V30 56 C 6.0723 1.89033 0.0795062 0
M  V30 57 O 5.4153 1.50881 1.04789 0
M  V30 58 C 5.4773 2.91759 -2.10041 0
M  V30 59 C 5.1413 2.82654 -3.59104 0
M  V30 60 C 6.1383 2.54634 -4.53274 0
M  V30 61 C 3.8233 3.01111 -4.02042 0
M  V30 62 C 5.8173 2.45177 -5.88359 0
M  V30 63 C 3.5043 2.91276 -5.37216 0
M  V30 64 C 4.5023 2.63348 -6.30188 0
M  V30 65 O 4.1903 2.53514 -7.6288 0
M  V30 66 H 3.9223 0.494177 -0.461265 0
M  V30 67 H 6.4763 0.982632 -1.8037 0
M  V30 68 H 4.7063 3.52781 -1.58375 0
M  V30 69 H 6.3953 3.53059 -2.00261 0
M  V30 70 H 7.1613 2.40073 -4.21414 0
M  V30 71 H 3.0403 3.21854 -3.30047 0
M  V30 72 H 6.5843 2.23299 -6.60896 0
M  V30 73 H 2.4813 3.054 -5.68684 0
M  V30 74 H 3.2493 2.68967 -7.73045 0
M  V30 75 N 5.9124 1.20967 1.01018 0
M  V30 76 C 7.1404 1.04956 1.78303 0
M  V30 77 C 7.5554 -0.400915 1.84494 0
M  V30 78 O 6.9124 -1.27826 1.30257 0
M  V30 79 C 6.9634 1.63403 3.22462 0
M  V30 80 O 6.6844 3.02775 3.16637 0
M  V30 81 C 8.1854 1.52432 4.16268 0
M  V30 82 H 5.4054 0.368858 0.560522 0
M  V30 83 H 7.9494 1.60193 1.27116 0
M  V30 84 H 6.1044 1.1227 3.70775 0
M  V30 85 H 6.5184 3.30626 4.07169 0
M  V30 86 H 7.9924 1.98078 5.15237 0
M  V30 87 H 8.4694 0.477875 4.36592 0
M  V30 88 H 9.0754 2.02787 3.73841 0
M  V30 89 N 7.3905 -1.2043 1.01659 0
M  V30 90 C 8.6185 -1.93777 0.725132 0
M  V30 91 C 9.0335 -1.74772 -0.714166 0
M  V30 92 O 8.3905 -1.06169 -1.4844 0
M  V30 93 C 8.4415 -3.45876 1.05129 0
M  V30 94 O 8.1625 -3.6426 2.43406 0
M  V30 95 C 9.6635 -4.36368 0.780891 0
M  V30 96 H 6.8835 -0.615901 0.266284 0
M  V30 97 H 9.4275 -1.52922 1.35776 0
M  V30 98 H 7.5825 -3.8461 0.464065 0
M  V30 99 H 7.9965 -4.58246 2.55169 0
M  V30 100 H 9.4705 -5.41743 1.05918 0
M  V30 101 H 9.9475 -4.38275 -0.284937 0
M  V30 102 H 10.5535 -4.03296 1.35027 0
M  V30 103 N 8.8686 -0.792821 -1.36206 0
M  V30 104 C 10.2796 -0.429513 -1.81692 0
M  V30 105 C 10.6306 1.04695 -1.65932 0
M  V30 106 O 9.7556 1.81256 -1.18218 0
M  V30 107 C 10.3506 -0.772831 -3.29868 0
M  V30 108 C 8.9096 -0.462307 -3.7355 0
M  V30 109 C 8.0566 -1.00569 -2.5842 0
M  V30 110 H 11.0076 -0.985672 -1.24379 0
M  V30 111 H 11.0286 -0.0651928 -3.80444 0
M  V30 112 H 10.5406 -1.84747 -3.41307 0
M  V30 113 H 8.6416 0.604158 -3.67669 0
M  V30 114 H 8.7546 -0.985299 -4.68859 0
M  V30 115 H 7.1186 -0.428734 -2.51066 0
M  V30 116 H 7.9016 -2.08616 -2.72643 0
M  V30 117 N 10.3467 1.47872 -0.545128 0
M  V30 118 C 11.5937 2.02493 -0.0165858 0
M  V30 119 C 11.9217 1.42073 1.32836 0
M  V30 120 O 11.1767 0.561459 1.87473 0
M  V30 121 C 11.4757 3.57131 0.13867 0
M  V30 122 C 11.1417 4.36411 -1.13384 0
M  V30 123 C 9.8037 4.57792 -1.48256 0
M  V30 124 C 12.1557 4.82223 -1.97764 0
M  V30 125 C 9.4837 5.22233 -2.67376 0
M  V30 126 C 11.8357 5.47977 -3.16076 0
M  V30 127 C 10.4997 5.67593 -3.51275 0
M  V30 128 H 9.7697 0.740975 -0.00606918 0
M  V30 129 H 12.4167 1.77683 -0.714207 0
M  V30 130 H 10.7217 3.80865 0.919172 0
M  V30 131 H 12.4187 3.97031 0.562782 0
M  V30 132 H 9.0087 4.2004 -0.852297 0
M  V30 133 H 13.1927 4.65493 -1.72132 0
M  V30 134 H 8.4487 5.35616 -2.94831 0
M  V30 135 H 12.6227 5.8244 -3.81755 0
M  V30 136 H 10.2497 6.17298 -4.43675 0
M  V30 137 N 11.8248 0.280983 1.55075 0
M  V30 138 C 13.2358 -0.215629 1.85451 0
M  V30 139 C 13.5868 -1.54991 1.203 0
M  V30 140 O 12.7118 -2.10699 0.493435 0
M  V30 141 C 13.3068 -0.398026 3.36454 0
M  V30 142 C 11.8658 -0.838866 3.66933 0
M  V30 143 C 11.0128 0.064458 2.77225 0
M  V30 144 H 13.9638 0.502601 1.50531 0
M  V30 145 H 13.9848 -1.23569 3.59876 0
M  V30 146 H 13.4968 0.573241 3.83843 0
M  V30 147 H 11.5978 -1.8214 3.25048 0
M  V30 148 H 11.7108 -0.672123 4.74362 0
M  V30 149 H 10.0748 -0.452863 2.50642 0
M  V30 150 H 10.8578 1.03172 3.2743 0
M  V30 151 N 13.3029 -1.57598 0.00835791 0
M  V30 152 C 14.2509 -2.10078 -0.998508 0
M  V30 153 C 15.2449 -1.02262 -1.35051 0
M  V30 154 O 16.4509 -1.20719 -1.33518 0
M  V30 155 H 12.8259 -0.670903 -0.339696 0
M  V30 156 H 14.7969 -2.93648 -0.530398 0
M  V30 157 C 13.5459 -2.62615 -2.27879 0
M  V30 158 H 12.8689 -3.45213 -2.01662 0
M  V30 159 H 14.3089 -3.03004 -2.96588 0
M  V30 160 C 12.7679 -1.54407 -2.99433 0
M  V30 161 O 13.2979 -0.931812 -3.90743 0
M  V30 162 N 11.5039 -1.2695 -2.61404 0
M  V30 163 H 11.0509 -1.76924 -1.87232 0
M  V30 164 H 11.0089 -0.547704 -3.09593 0
M  V30 165 N 14.781 0.264519 -1.55364 0
M  V30 166 C 16.006 1.01726 -1.80739 0
M  V30 167 C 16.431 1.78836 -0.583044 0
M  V30 168 O 15.789 1.75167 0.467566 0
M  V30 169 C 15.837 1.94482 -3.03659 0
M  V30 170 O 14.941 3.03386 -2.7934 0
M  V30 171 H 14.282 0.290395 -0.597132 0
M  V30 172 H 16.812 0.290854 -2.02522 0
M  V30 173 H 16.822 2.36278 -3.32621 0
M  V30 174 H 15.497 1.37772 -3.92418 0
M  V30 175 H 14.074 2.65844 -2.61498 0
M  V30 176 N 16.2591 1.48442 0.529413 0
M  V30 177 C 17.4991 1.58086 1.29569 0
M  V30 178 C 17.8631 0.249302 1.90375 0
M  V30 179 O 19.0641 0.220738 2.67892 0
M  V30 180 C 17.3351 2.68793 2.35552 0
M  V30 181 S 18.8941 2.98207 3.21898 0
M  V30 182 H 15.7121 0.557922 0.440732 0
M  V30 183 H 18.3141 1.85966 0.603059 0
M  V30 184 H 17.0181 3.64102 1.89363 0
M  V30 185 H 16.5491 2.42817 3.09522 0
M  V30 186 H 18.5641 2.37548 4.35644 0
M  V30 187 N 17.7372 -0.778329 1.37039 0
M  V30 188 C 18.6672 -1.90546 1.34962 0
M  V30 189 C 19.6482 -1.68681 0.219274 0
M  V30 190 O 20.8332 -1.89634 0.418624 0
M  V30 191 C 17.9632 -3.27734 1.14925 0
M  V30 192 C 16.9172 -3.64147 2.24902 0
M  V30 193 C 16.2432 -4.99806 1.89996 0
M  V30 194 C 17.5432 -3.71579 3.67051 0
M  V30 195 H 19.2372 -1.92541 2.29277 0
M  V30 196 H 16.7832 -0.924948 1.10366 0
M  V30 197 H 18.7362 -4.06215 1.12104 0
M  V30 198 H 17.4602 -3.26154 0.170631 0
M  V30 199 H 16.1192 -2.8797 2.26868 0
M  V30 200 H 15.7672 -4.94759 0.906796 0
M  V30 201 H 15.4672 -5.25139 2.63634 0
M  V30 202 H 16.9912 -5.80694 1.88749 0
M  V30 203 H 18.4052 -4.40227 3.67251 0
M  V30 204 H 16.8022 -4.08405 4.39688 0
M  V30 205 H 17.8722 -2.72404 4.01154 0
M  V30 206 N 19.2153 -1.21501 -1.00376 0
M  V30 207 C 20.4403 -1.05977 -1.78279 0
M  V30 208 C 20.8653 0.385994 -1.84097 0
M  V30 209 O 20.2233 1.27849 -1.28547 0
M  V30 210 C 20.2713 -1.66302 -3.19963 0
M  V30 211 O 19.3753 -0.909333 -4.0225 0
M  V30 212 H 18.7163 -0.372906 -0.549397 0
M  V30 213 H 21.2463 -1.6107 -1.26165 0
M  V30 214 H 21.2563 -1.70574 -3.70632 0
M  V30 215 H 19.9313 -2.71515 -3.15043 0
M  V30 216 H 18.5083 -0.941795 -3.60811 0
M  V30 217 N 20.6934 1.19889 -1.02296 0
M  V30 218 C 21.6564 2.21116 -0.603351 0
M  V30 219 C 22.6564 1.5738 0.329884 0
M  V30 220 O 23.8464 1.73802 0.117702 0
M  V30 221 C 20.9784 3.40696 0.117992 0
M  V30 222 H 22.1714 2.59754 -1.49893 0
M  V30 223 H 19.7244 1.33463 -0.813468 0
M  V30 224 H 20.4594 3.07569 1.0282 0
M  V30 225 H 20.2444 3.88188 -0.552511 0
M  V30 226 H 21.7344 4.15692 0.398696 0
M  V30 227 N 22.1715 0.800033 1.35784 0
M  V30 228 C 23.1015 0.220184 2.3246 0
M  V30 229 C 24.0825 -0.65073 1.57161 0
M  V30 230 O 25.2675 -0.582359 1.85263 0
M  V30 231 C 22.3975 -0.637353 3.41402 0
M  V30 232 C 21.3515 0.134531 4.27789 0
M  V30 233 C 20.6775 -0.844285 5.27992 0
M  V30 234 C 21.9775 1.32979 5.05088 0
M  V30 235 H 23.6715 1.02787 2.81203 0
M  V30 236 H 21.2175 0.495717 1.35199 0
M  V30 237 H 23.1705 -1.05302 4.08031 0
M  V30 238 H 21.8945 -1.47785 2.91251 0
M  V30 239 H 20.5535 0.531296 3.6273 0
M  V30 240 H 20.2015 -1.68011 4.74111 0
M  V30 241 H 19.9015 -0.332184 5.8666 0
M  V30 242 H 21.4255 -1.2583 5.97494 0
M  V30 243 H 22.8395 0.98934 5.64699 0
M  V30 244 H 21.2365 1.77593 5.7322 0
M  V30 245 H 22.3065 2.11978 4.36111 0
M  V30 246 N 23.6496 -1.47581 0.552962 0
M  V30 247 C 24.5996 -2.26961 -0.217423 0
M  V30 248 C 25.5836 -1.34099 -0.889168 0
M  V30 249 O 26.7756 -1.58483 -0.788176 0
M  V30 250 C 23.9046 -3.19756 -1.24944 0
M  V30 251 C 22.9906 -4.20097 -0.581327 0
M  V30 252 N 23.3816 -5.04614 0.346171 0
M  V30 253 C 21.6796 -4.38099 -0.835767 0
M  V30 254 C 22.3806 -5.77052 0.733854 0
M  V30 255 N 21.3566 -5.43526 0.0896567 0
M  V30 256 H 25.1586 -2.89688 0.495761 0
M  V30 257 H 22.6726 -1.58068 0.372597 0
M  V30 258 H 24.6696 -3.75305 -1.81527 0
M  V30 259 H 23.3296 -2.58585 -1.96376 0
M  V30 260 H 24.3406 -5.12869 0.720098 0
M  V30 261 H 21.0176 -3.88102 -1.53892 0
M  V30 262 H 22.4076 -6.5504 1.49574 0
M  V30 263 N 25.1277 -0.289203 -1.54924 0
M  V30 264 C 26.3677 0.324536 -2.01807 0
M  V30 265 C 26.7317 1.5199 -1.17316 0
M  V30 266 O 27.9327 2.20422 -1.53843 0
M  V30 267 C 26.2037 0.683578 -3.50802 0
M  V30 268 S 27.7627 1.28185 -4.19659 0
M  V30 269 H 24.5807 0.100236 -0.703899 0
M  V30 270 H 27.1827 -0.414325 -1.91059 0
M  V30 271 H 25.8867 -0.195073 -4.09936 0
M  V30 272 H 25.4177 1.45354 -3.65562 0
M  V30 273 H 27.4327 2.57006 -4.24456 0
M  V30 274 N 26.6058 1.57591 -0.0167156 0
M  V30 275 C 27.8518 1.91567 0.665582 0
M  V30 276 C 28.1848 0.892298 1.72487 0
M  V30 277 O 27.4598 -0.0867127 1.94307 0
M  V30 278 C 27.7428 3.36069 1.29342 0
M  V30 279 C 27.5958 4.49135 0.244541 0
M  V30 280 C 28.9148 3.803 2.21495 0
M  V30 281 H 26.0338 0.69666 0.240488 0
M  V30 282 H 28.6758 1.89866 -0.0714356 0
M  V30 283 H 26.8258 3.3765 1.92158 0
M  V30 284 H 28.4978 4.59689 -0.385228 0
M  V30 285 H 26.7408 4.3165 -0.431379 0
M  V30 286 H 27.4118 5.47242 0.723207 0
M  V30 287 H 29.8878 3.80377 1.68678 0
M  V30 288 H 28.7638 4.82127 2.62382 0
M  V30 289 H 29.0248 3.15104 3.101 0
M  V30 290 N 28.0839 -0.256276 1.55502 0
M  V30 291 C 29.3089 -1.00766 1.81276 0
M  V30 292 C 29.7339 -1.78524 0.59252 0
M  V30 293 O 29.0919 -1.75413 -0.45827 0
M  V30 294 C 29.1399 -1.92869 3.04687 0
M  V30 295 O 28.2439 -3.019 2.80945 0
M  V30 296 H 27.5849 -0.287224 0.598664 0
M  V30 297 H 30.1149 -0.280109 2.02674 0
M  V30 298 H 30.1249 -2.34511 3.33869 0
M  V30 299 H 28.7999 -1.35689 3.93143 0
M  V30 300 H 27.3769 -2.64454 2.62904 0
M  V30 301 N 29.562 -1.4872 -0.521534 0
M  V30 302 C 30.808 -1.58378 -1.27624 0
M  V30 303 C 31.163 -0.258028 -1.90662 0
M  V30 304 O 30.456 0.739917 -1.76736 0
M  V30 305 C 30.65 -2.66497 -2.38148 0
M  V30 306 C 30.479 -4.09456 -1.85945 0
M  V30 307 C 29.249 -4.76495 -1.68168 0
M  V30 308 C 31.447 -4.95353 -1.3831 0
M  V30 309 N 29.429 -6.0384 -1.1068 0
M  V30 310 C 30.8 -6.13012 -0.928238 0
M  V30 311 C 32.855 -4.81512 -1.26692 0
M  V30 312 C 31.558 -7.18354 -0.368701 0
M  V30 313 C 33.584 -5.86984 -0.721368 0
M  V30 314 C 32.946 -7.03857 -0.276623 0
M  V30 315 H 29.045 -0.634045 -0.457724 0
M  V30 316 H 31.629 -1.85639 -0.587049 0
M  V30 317 H 29.8 -2.41043 -3.04553 0
M  V30 318 H 31.532 -2.65791 -3.05184 0
M  V30 319 H 28.287 -4.32962 -1.91939 0
M  V30 320 H 28.711 -6.71778 -0.839217 0
M  V30 321 H 33.353 -3.91487 -1.5968 0
M  V30 322 H 31.071 -8.08096 -0.0265122 0
M  V30 323 H 34.657 -5.78329 -0.634531 0
M  V30 324 H 33.537 -7.84077 0.138947 0
M  V30 325 N 31.0401 0.771051 -1.3745 0
M  V30 326 C 32.0031 1.86598 -1.33093 0
M  V30 327 C 33.0031 1.59076 -0.234845 0
M  V30 328 O 34.1931 1.67145 -0.490732 0
M  V30 329 C 31.3251 3.23747 -1.06773 0
M  V30 330 H 32.5181 1.91873 -2.30488 0
M  V30 331 H 30.0711 0.970876 -1.2249 0
M  V30 332 H 30.8061 3.24148 -0.099129 0
M  V30 333 H 30.5911 3.45115 -1.86112 0
M  V30 334 H 32.0811 4.03824 -1.06377 0
M  V30 335 N 32.5182 1.22032 0.997298 0
M  V30 336 C 33.4482 1.01065 2.10495 0
M  V30 337 C 34.4292 -0.0669542 1.69968 0
M  V30 338 O 35.6142 0.0943987 1.9397 0
M  V30 339 C 32.7442 0.582874 3.42374 0
M  V30 340 C 31.6982 1.60592 3.96729 0
M  V30 341 C 31.0242 1.03412 5.24605 0
M  V30 342 C 32.3242 2.99478 4.27914 0
M  V30 343 H 34.0182 1.93708 2.28292 0
M  V30 344 H 31.5642 0.932761 1.09707 0
M  V30 345 H 33.5172 0.423332 4.19268 0
M  V30 346 H 32.2412 -0.379213 3.24391 0
M  V30 347 H 30.9002 1.75316 3.21963 0
M  V30 348 H 30.5482 0.063518 5.0296 0
M  V30 349 H 30.2482 1.71754 5.61938 0
M  V30 350 H 31.7722 0.886066 6.04137 0
M  V30 351 H 33.1862 2.88153 4.95622 0
M  V30 352 H 31.5832 3.64903 4.76409 0
M  V30 353 H 32.6532 3.49742 3.3587 0
M  V30 354 N 33.9963 -1.19345 1.0293 0
M  V30 355 C 35.2453 -1.88363 0.721256 0
M  V30 356 C 35.5583 -1.80514 -0.753254 0
M  V30 357 O 36.7643 -2.44788 -1.17436 0
M  V30 358 C 35.2203 -3.37872 1.23978 0
M  V30 359 C 34.8283 -3.54278 2.74211 0
M  V30 360 C 36.5723 -4.12365 1.00775 0
M  V30 361 C 34.4793 -4.97682 3.19479 0
M  V30 362 H 33.4093 -0.705484 0.266098 0
M  V30 363 H 36.0603 -1.34928 1.24365 0
M  V30 364 H 34.4423 -3.90707 0.6453 0
M  V30 365 H 35.6163 -3.11769 3.39318 0
M  V30 366 H 33.9313 -2.93174 2.95699 0
M  V30 367 H 36.5283 -5.18119 1.32123 0
M  V30 368 H 36.8713 -4.16263 -0.0554308 0
M  V30 369 H 37.4043 -3.65668 1.56625 0
M  V30 370 H 34.1433 -4.98945 4.25128 0
M  V30 371 H 33.6633 -5.4095 2.591 0
M  V30 372 H 35.3423 -5.66337 3.12845 0
M  V30 373 N 35.4744 -0.807222 -1.35358 0
M  V30 374 C 36.7214 -0.387888 -1.9875 0
M  V30 375 C 37.0494 1.04509 -1.64037 0
M  V30 376 O 36.3044 1.73986 -0.895946 0
M  V30 377 C 36.6034 -0.519036 -3.53611 0
M  V30 378 C 36.2694 -1.91542 -4.08194 0
M  V30 379 C 34.9314 -2.29745 -4.22813 0
M  V30 380 C 37.2834 -2.82896 -4.37744 0
M  V30 381 C 34.6114 -3.58668 -4.643 0
M  V30 382 C 36.9634 -4.11265 -4.8067 0
M  V30 383 C 35.6274 -4.49466 -4.93494 0
M  V30 384 H 34.8974 -0.141938 -0.727279 0
M  V30 385 H 37.5444 -1.02814 -1.6156 0
M  V30 386 H 35.8494 0.204658 -3.91265 0
M  V30 387 H 37.5464 -0.175345 -4.00616 0
M  V30 388 H 34.1364 -1.60862 -3.97268 0
M  V30 389 H 38.3204 -2.54629 -4.26002 0
M  V30 390 H 33.5764 -3.88113 -4.72418 0
M  V30 391 H 37.7504 -4.82153 -5.02496 0
M  V30 392 H 35.3774 -5.49418 -5.25399 0
M  V30 393 N 36.9525 1.47285 -0.560781 0
M  V30 394 C 38.3635 1.86258 -0.128343 0
M  V30 395 C 38.7145 1.46699 1.30284 0
M  V30 396 O 37.8395 0.871698 1.98067 0
M  V30 397 C 38.4345 3.38044 -0.22614 0
M  V30 398 C 36.9935 3.76096 0.151283 0
M  V30 399 C 36.1405 2.71335 -0.572084 0
M  V30 400 H 39.0915 1.38752 -0.770297 0
M  V30 401 H 39.1125 3.76441 0.554322 0
M  V30 402 H 38.6245 3.66806 -1.26788 0
M  V30 403 H 36.7255 3.52951 1.19399 0
M  V30 404 H 36.8385 4.78641 -0.209765 0
M  V30 405 H 35.2025 2.54696 -0.0147653 0
M  V30 406 H 35.9855 3.02938 -1.61504 0
M  V30 407 N 38.4306 0.297415 1.54768 0
M  V30 408 C 39.6706 -0.313829 2.01976 0
M  V30 409 C 40.0346 -1.51366 1.1812 0
M  V30 410 O 41.2356 -2.19603 1.5501 0
M  V30 411 C 39.5066 -0.664964 3.51159 0
M  V30 412 S 41.0656 -1.25958 4.20333 0
M  V30 413 H 37.8836 -0.0965014 0.704421 0
M  V30 414 H 40.4856 0.424451 1.90837 0
M  V30 415 H 39.1896 0.21681 4.09827 0
M  V30 416 H 38.7206 -1.43413 3.66328 0
M  V30 417 H 40.7356 -2.54751 4.25813 0
M  V30 418 N 39.9087 -1.5758 0.0250728 0
M  V30 419 C 41.1387 -1.95646 -0.663783 0
M  V30 420 C 41.5467 -0.899935 -1.66427 0
M  V30 421 O 40.8897 0.127191 -1.83259 0
M  V30 422 C 40.9517 -3.29835 -1.43 0
M  V30 423 C 40.6157 -4.53197 -0.588305 0
M  V30 424 C 41.6127 -5.19726 0.13469 0
M  V30 425 C 39.2977 -4.99529 -0.526897 0
M  V30 426 C 41.2917 -6.30902 0.90781 0
M  V30 427 C 38.9787 -6.10589 0.24993 0
M  V30 428 C 39.9767 -6.76134 0.965994 0
M  V30 429 O 39.6647 -7.85062 1.7301 0
M  V30 430 H 39.3967 -0.649282 -0.188174 0
M  V30 431 H 41.9507 -2.05245 0.0799006 0
M  V30 432 H 40.1807 -3.16716 -2.21873 0
M  V30 433 H 41.8697 -3.52833 -2.00658 0
M  V30 434 H 42.6357 -4.84904 0.0965562 0
M  V30 435 H 38.5147 -4.48319 -1.07381 0
M  V30 436 H 42.0587 -6.81995 1.46724 0
M  V30 437 H 37.9557 -6.44849 0.289795 0
M  V30 438 H 38.7237 -8.01708 1.64944 0
M  V30 439 N 41.3868 0.248026 -1.55636 0
M  V30 440 C 42.6328 0.973427 -1.78594 0
M  V30 441 C 42.9878 1.83007 -0.593823 0
M  V30 442 O 42.2808 1.87097 0.412961 0
M  V30 443 C 42.4748 1.86819 -3.04686 0
M  V30 444 C 42.3038 1.09965 -4.36048 0
M  V30 445 C 41.0738 0.805204 -4.98843 0
M  V30 446 C 43.2718 0.477783 -5.12076 0
M  V30 447 N 41.2538 0.0124859 -6.13899 0
M  V30 448 C 42.6248 -0.179565 -6.1974 0
M  V30 449 C 44.6798 0.388136 -4.96385 0
M  V30 450 C 43.3828 -0.91795 -7.13419 0
M  V30 451 C 45.4088 -0.336716 -5.90441 0
M  V30 452 C 44.7708 -0.982705 -6.97511 0
M  V30 453 H 40.8698 0.337348 -0.705493 0
M  V30 454 H 43.4538 0.24667 -1.93131 0
M  V30 455 H 41.6248 2.56698 -2.9148 0
M  V30 456 H 43.3568 2.52907 -3.15944 0
M  V30 457 H 40.1118 1.11671 -4.60246 0
M  V30 458 H 40.5358 -0.371933 -6.75978 0
M  V30 459 H 45.1778 0.873237 -4.13684 0
M  V30 460 H 42.8958 -1.41466 -7.95621 0
M  V30 461 H 46.4818 -0.406731 -5.80377 0
M  V30 462 H 45.3618 -1.53464 -7.69037 0
M  V30 463 N 42.8649 1.48995 0.513639 0
M  V30 464 C 43.7949 1.67636 1.62544 0
M  V30 465 C 44.7759 0.525087 1.61793 0
M  V30 466 O 45.9609 0.759502 1.78732 0
M  V30 467 C 43.0909 1.73114 3.01079 0
M  V30 468 C 42.0449 2.87905 3.16693 0
M  V30 469 C 41.3709 2.78486 4.56453 0
M  V30 470 C 42.6709 4.29005 2.97913 0
M  V30 471 H 44.3649 2.60716 1.47198 0
M  V30 472 H 41.9109 1.25465 0.706714 0
M  V30 473 H 43.8639 1.84742 3.78746 0
M  V30 474 H 42.5879 0.766241 3.17484 0
M  V30 475 H 41.2469 2.75859 2.41448 0
M  V30 476 H 40.8949 1.7993 4.69717 0
M  V30 477 H 40.5949 3.55523 4.67843 0
M  V30 478 H 42.1189 2.92104 5.36197 0
M  V30 479 H 43.5329 4.41798 3.65359 0
M  V30 480 H 41.9299 5.07166 3.20785 0
M  V30 481 H 42.9999 4.44329 1.94165 0
M  V30 482 N 44.343 -0.763751 1.37857 0
M  V30 483 C 45.589 -1.52483 1.33704 0
M  V30 484 C 45.922 -1.94051 -0.0759612 0
M  V30 485 O 45.197 -1.64675 -1.03501 0
M  V30 486 C 45.48 -2.78441 2.28348 0
M  V30 487 C 45.333 -2.43075 3.78463 0
M  V30 488 C 46.652 -3.80415 2.21298 0
M  V30 489 H 43.771 -0.553169 0.487005 0
M  V30 490 H 46.413 -0.875562 1.68624 0
M  V30 491 H 44.563 -3.33842 1.987 0
M  V30 492 H 46.235 -1.93527 4.18742 0
M  V30 493 H 44.478 -1.75666 3.96641 0
M  V30 494 H 45.149 -3.33149 4.40132 0
M  V30 495 H 47.625 -3.34527 2.47449 0
M  V30 496 H 46.501 -4.66257 2.89647 0
M  V30 497 H 46.762 -4.25262 1.20849 0
M  V30 498 N 45.8211 -1.22559 -0.990812 0
M  V30 499 C 47.0981 -0.959875 -1.70428 0
M  V30 500 C 47.4781 0.524455 -2.04481 0
M  V30 501 O 46.8261 1.49302 -1.72977 0
M  V30 502 C 47.0361 -1.85955 -2.95333 0
M  V30 503 C 48.3841 -2.11687 -3.68068 0
M  V30 504 O 49.4081 -1.8342 -3.05345 0
M  V30 505 O 48.2671 -2.59572 -4.80921 0
M  V30 506 H 45.3611 -0.361154 -0.743974 0
M  V30 507 H 47.9071 -1.33554 -1.04697 0
M  V30 508 H 46.6791 -2.86346 -2.66687 0
M  V30 509 H 46.3021 -1.4856 -3.68803 0
M  V30 510 N 47.2992 1.18797 -1.03562 0
M  V30 511 C 48.7152 1.40671 -0.753917 0
M  V30 512 C 48.9152 1.9043 0.658686 0
M  V30 513 O 47.9712 2.08538 1.42366 0
M  V30 514 C 49.2842 2.41192 -1.79574 0
M  V30 515 C 50.8322 2.54928 -1.81606 0
M  V30 516 C 51.3072 3.58709 -2.84766 0
M  V30 517 N 52.7982 3.66212 -2.83625 0
M  V30 518 C 53.5332 4.46225 -3.60098 0
M  V30 519 N 53.0292 5.29888 -4.46308 0
M  V30 520 N 54.8222 4.40939 -3.4861 0
M  V30 521 H 46.9732 0.848221 -1.94728 0
M  V30 522 H 49.2362 0.435081 -0.842264 0
M  V30 523 H 48.9422 2.11669 -2.80872 0
M  V30 524 H 48.8162 3.40467 -1.62365 0
M  V30 525 H 51.2032 2.83771 -0.809817 0
M  V30 526 H 51.2842 1.55784 -2.02891 0
M  V30 527 H 50.9282 3.30607 -3.85566 0
M  V30 528 H 50.8582 4.57519 -2.60737 0
M  V30 529 H 53.3492 3.06466 -2.21105 0
M  V30 530 H 53.6622 5.88078 -5.01382 0
M  V30 531 H 52.0072 5.29326 -4.50377 0
M  V30 532 H 55.1982 3.74624 -2.80668 0
M  V30 533 H 55.3712 5.03056 -4.08459 0
M  V30 534 N 48.7773 0.814389 1.34928 0
M  V30 535 C 49.7073 0.244827 2.32213 0
M  V30 536 C 50.6883 -0.634024 1.57842 0
M  V30 537 O 51.8733 -0.562676 1.8587 0
M  V30 538 C 49.0033 -0.601106 3.42058 0
M  V30 539 C 47.9573 0.179896 4.27622 0
M  V30 540 C 47.2833 -0.788237 5.28858 0
M  V30 541 C 48.5833 1.38329 5.03649 0
M  V30 542 H 50.2773 1.05763 2.80097 0
M  V30 543 H 47.8233 0.510029 1.34665 0
M  V30 544 H 49.7763 -1.00968 4.09125 0
M  V30 545 H 48.5003 -1.44688 2.92802 0
M  V30 546 H 47.1593 0.569739 3.62146 0
M  V30 547 H 46.8073 -1.62973 4.75866 0
M  V30 548 H 46.5073 -0.269942 5.8698 0
M  V30 549 H 48.0313 -1.19485 5.98795 0
M  V30 550 H 49.4453 1.04918 5.63618 0
M  V30 551 H 47.8423 1.83662 5.71304 0
M  V30 552 H 48.9123 2.16592 4.33839 0
M  V30 553 N 50.2554 -1.46986 0.568584 0
M  V30 554 C 51.2184 -2.28624 -0.162366 0
M  V30 555 C 52.2184 -1.37596 -0.832103 0
M  V30 556 O 53.4084 -1.60115 -0.68622 0
M  V30 557 C 50.5404 -3.17596 -1.23878 0
M  V30 558 H 51.7334 -2.94722 0.554899 0
M  V30 559 H 49.2864 -1.52863 0.325976 0
M  V30 560 H 50.0214 -2.56214 -1.98808 0
M  V30 561 H 49.8064 -3.846 -0.763219 0
M  V30 562 H 51.2964 -3.79078 -1.75185 0
M  V30 563 N 51.7335 -0.305618 -1.54608 0
M  V30 564 C 52.6965 0.555591 -2.22364 0
M  V30 565 C 53.6965 1.05768 -1.21119 0
M  V30 566 O 54.8865 0.952972 -1.45822 0
M  V30 567 C 52.0185 1.76974 -2.91364 0
M  V30 568 H 53.2115 -0.0364572 -2.99878 0
M  V30 569 H 50.7645 -0.0565007 -1.56198 0
M  V30 570 H 51.4995 2.40151 -2.17941 0
M  V30 571 H 51.2845 1.41732 -3.65588 0
M  V30 572 H 52.7745 2.38148 -3.43038 0
M  V30 573 N 53.2116 1.57565 -0.0334293 0
M  V30 574 C 54.4366 1.96689 0.657895 0
M  V30 575 C 54.8616 0.910057 1.64619 0
M  V30 576 O 54.2196 -0.128598 1.80843 0
M  V30 577 C 54.2676 3.34905 1.33683 0
M  V30 578 O 53.3716 3.31574 2.45219 0
M  V30 579 H 52.7126 0.641205 0.172489 0
M  V30 580 H 55.2426 2.04372 -0.0965621 0
M  V30 581 H 55.2526 3.71234 1.69262 0
M  V30 582 H 53.9276 4.11366 0.612411 0
M  V30 583 H 52.5046 3.06968 2.11719 0
M  V30 584 N 54.6897 -0.239769 1.55765 0
M  V30 585 C 55.9367 -0.966801 1.7793 0
M  V30 586 C 56.2647 -1.85046 0.599015 0
M  V30 587 O 55.5197 -1.91197 -0.417395 0
M  V30 588 C 55.8187 -1.852 3.05672 0
M  V30 589 C 55.4847 -1.1231 4.36689 0
M  V30 590 C 54.1467 -0.921689 4.72291 0
M  V30 591 C 56.4987 -0.607019 5.17653 0
M  V30 592 C 53.8267 -0.191996 5.86386 0
M  V30 593 C 56.1787 0.109241 6.32506 0
M  V30 594 C 54.8427 0.322073 6.66723 0
M  V30 595 H 54.1127 -0.353778 0.651093 0
M  V30 596 H 56.7597 -0.23634 1.90036 0
M  V30 597 H 55.0647 -2.64975 2.8861 0
M  V30 598 H 56.7617 -2.41635 3.20021 0
M  V30 599 H 53.3517 -1.29004 4.08725 0
M  V30 600 H 57.5357 -0.750153 4.90598 0
M  V30 601 H 52.7917 -0.0166949 6.11398 0
M  V30 602 H 56.9657 0.516737 6.9448 0
M  V30 603 H 54.5927 0.88944 7.54979 0
M  V30 604 N 56.1678 -1.49265 -0.50573 0
M  V30 605 C 57.4168 -1.57761 -1.25675 0
M  V30 606 C 57.7298 -0.267371 -1.93764 0
M  V30 607 O 58.9358 -0.230827 -2.70517 0
M  V30 608 C 57.3918 -2.78332 -2.28165 0
M  V30 609 C 56.9998 -4.16096 -1.66037 0
M  V30 610 C 58.7438 -2.96155 -3.04125 0
M  V30 611 C 56.6508 -5.27895 -2.6661 0
M  V30 612 H 55.5808 -0.587391 -0.472745 0
M  V30 613 H 58.2318 -1.75644 -0.53118 0
M  V30 614 H 56.6138 -2.53934 -3.03865 0
M  V30 615 H 57.7878 -4.50612 -0.963622 0
M  V30 616 H 56.1028 -4.03591 -1.02484 0
M  V30 617 H 58.6998 -3.76849 -3.79327 0
M  V30 618 H 59.0428 -2.06534 -3.61455 0
M  V30 619 H 59.5758 -3.2057 -2.35541 0
M  V30 620 H 56.3148 -6.1956 -2.14068 0
M  V30 621 H 55.8348 -4.97839 -3.34539 0
M  V30 622 H 57.5138 -5.57031 -3.29129 0
M  V30 623 N 57.6459 0.756429 -1.3826 0
M  V30 624 C 59.0569 1.33359 -1.30661 0
M  V30 625 C 59.4079 1.96161 0.0388875 0
M  V30 626 O 58.5329 1.94874 0.940918 0
M  V30 627 C 59.1279 2.42477 -2.36622 0
M  V30 628 C 57.6869 2.95922 -2.3261 0
M  V30 629 C 56.8339 1.69275 -2.19639 0
M  V30 630 H 59.7849 0.55552 -1.4866 0
M  V30 631 H 59.8059 3.22345 -2.02174 0
M  V30 632 H 59.3179 1.96739 -3.34538 0
M  V30 633 H 57.4189 3.45996 -1.38267 0
M  V30 634 H 57.5319 3.50494 -3.26636 0
M  V30 635 H 55.8959 1.92793 -1.66442 0
M  V30 636 H 56.6789 1.25619 -3.19491 0
M  V30 637 N 59.124 1.23083 0.984299 0
M  V30 638 C 60.352 1.08714 1.76037 0
M  V30 639 C 60.767 -0.361691 1.85303 0
M  V30 640 O 60.124 -1.25034 1.32939 0
M  V30 641 C 60.175 1.70206 3.18923 0
M  V30 642 O 59.896 3.09423 3.10144 0
M  V30 643 C 61.397 1.61227 4.12941 0
M  V30 644 H 58.617 0.380664 0.552572 0
M  V30 645 H 61.161 1.62853 1.23689 0
M  V30 646 H 59.316 1.20109 3.6831 0
M  V30 647 H 59.73 3.39188 4.00065 0
M  V30 648 H 61.204 2.08962 5.10919 0
M  V30 649 H 61.681 0.570375 4.35481 0
M  V30 650 H 62.287 2.10671 3.69456 0
M  V30 651 N 60.6021 -1.18246 1.0419 0
M  V30 652 C 61.8301 -1.92195 0.766072 0
M  V30 653 C 62.2451 -1.76247 -0.676933 0
M  V30 654 O 61.6021 -1.09293 -1.46155 0
M  V30 655 C 61.6531 -3.43568 1.12442 0
M  V30 656 O 61.3741 -3.59015 2.51078 0
M  V30 657 C 62.8751 -4.34613 0.873275 0
M  V30 658 H 60.0951 -0.610114 0.279288 0
M  V30 659 H 62.6391 -1.50007 1.38989 0
M  V30 660 H 60.7941 -3.8354 0.545542 0
M  V30 661 H 61.2081 -4.5273 2.64831 0
M  V30 662 H 62.6821 -5.39374 1.17385 0
M  V30 663 H 63.1591 -4.38781 -0.191909 0
M  V30 664 H 63.7651 -4.00341 1.43551 0
M  V30 665 N 62.0802 -0.821533 -1.34494 0
M  V30 666 C 63.3102 -0.421272 -2.02259 0
M  V30 667 C 63.7182 0.977047 -1.6202 0
M  V30 668 O 63.0612 1.64348 -0.820703 0
M  V30 669 C 63.1232 -0.44231 -3.56769 0
M  V30 670 C 62.7872 -1.79372 -4.20327 0
M  V30 671 C 63.7842 -2.75435 -4.40944 0
M  V30 672 C 61.4692 -2.08182 -4.57127 0
M  V30 673 C 63.4632 -3.98482 -4.97484 0
M  V30 674 C 61.1502 -3.31489 -5.13379 0
M  V30 675 C 62.1482 -4.26457 -5.33501 0
M  V30 676 O 61.8362 -5.47585 -5.88562 0
M  V30 677 H 61.5682 -0.167473 -0.654927 0
M  V30 678 H 64.1222 -1.11073 -1.72777 0
M  V30 679 H 62.3522 0.303836 -3.85505 0
M  V30 680 H 64.0412 -0.0622925 -4.05852 0
M  V30 681 H 64.8072 -2.54473 -4.12878 0
M  V30 682 H 60.6862 -1.35066 -4.4077 0
M  V30 683 H 64.2302 -4.72618 -5.13106 0
M  V30 684 H 60.1272 -3.52316 -5.40873 0
M  V30 685 H 60.8952 -5.49086 -6.06998 0
M  V30 686 N 63.5583 1.46682 -0.576371 0
M  V30 687 C 64.4683 2.34032 0.163141 0
M  V30 688 C 65.4843 1.49367 0.892501 0
M  V30 689 O 66.6603 1.82252 0.857106 0
M  V30 690 C 63.7253 3.26435 1.16795 0
M  V30 691 C 62.7863 4.26998 0.443944 0
M  V30 692 C 62.0193 5.14986 1.40088 0
M  V30 693 O 62.2423 5.05785 2.637 0
M  V30 694 O 61.1763 5.94906 0.914917 0
M  V30 695 H 65.0023 2.98607 -0.55388 0
M  V30 696 H 62.5873 1.45554 -0.336821 0
M  V30 697 H 64.4693 3.83459 1.74748 0
M  V30 698 H 63.1443 2.64465 1.86655 0
M  V30 699 H 62.0513 3.7368 -0.177271 0
M  V30 700 H 63.3843 4.91736 -0.213566 0
M  V30 701 N 65.0364 0.313813 1.54444 0
M  V30 702 C 65.9834 -0.55655 2.23989 0
M  V30 703 C 66.9534 -1.11943 1.22711 0
M  V30 704 O 68.1384 -1.16158 1.51367 0
M  V30 705 C 65.2784 -1.71635 2.99392 0
M  V30 706 C 64.3914 -1.18364 4.15468 0
M  V30 707 C 63.5264 -2.30834 4.78424 0
M  V30 708 C 62.5654 -1.74762 5.86622 0
M  V30 709 N 61.7024 -2.80855 6.43479 0
M  V30 710 H 66.5424 0.0430893 2.97969 0
M  V30 711 H 64.0794 0.0330359 1.47063 0
M  V30 712 H 66.0374 -2.39868 3.41349 0
M  V30 713 H 64.6674 -2.28742 2.27765 0
M  V30 714 H 63.7194 -0.393163 3.78363 0
M  V30 715 H 65.0314 -0.733262 4.93381 0
M  V30 716 H 64.1854 -3.0699 5.23299 0
M  V30 717 H 62.9244 -2.79204 3.99871 0
M  V30 718 H 61.9294 -0.970995 5.41158 0
M  V30 719 H 63.1544 -1.2728 6.67066 0
M  V30 720 H 61.1004 -3.28535 5.67804 0
M  V30 721 H 61.0174 -2.40351 7.16776 0
M  V30 722 H 62.2854 -3.5687 6.93011 0
M  V30 723 N 66.5145 -1.57545 0.0417849 0
M  V30 724 C 67.9305 -1.56467 -0.314704 0
M  V30 725 C 68.1305 -1.04859 -1.72066 0
M  V30 726 O 67.1865 -0.700983 -2.42575 0
M  V30 727 C 68.4995 -3.00317 -0.15174 0
M  V30 728 C 70.0475 -3.12201 -0.223553 0
M  V30 729 C 70.5225 -4.57913 -0.0892295 0
M  V30 730 N 72.0135 -4.6297 -0.145808 0
M  V30 731 C 72.7485 -5.73362 -0.0658459 0
M  V30 732 N 72.2445 -6.92769 0.0659282 0
M  V30 733 N 74.0375 -5.6197 -0.12075 0
M  V30 734 H 66.1885 -1.89416 0.961014 0
M  V30 735 H 68.4515 -0.871862 0.372237 0
M  V30 736 H 68.1575 -3.42073 0.817254 0
M  V30 737 H 68.0315 -3.65892 -0.916692 0
M  V30 738 H 70.4185 -2.70349 -1.18301 0
M  V30 739 H 70.4995 -2.49323 0.571994 0
M  V30 740 H 70.1435 -5.00448 0.866867 0
M  V30 741 H 70.0735 -5.18786 -0.903802 0
M  V30 742 H 72.5645 -3.7709 -0.247286 0
M  V30 743 H 72.8775 -7.72707 0.119905 0
M  V30 744 H 71.2225 -6.94927 0.100885 0
M  V30 745 H 74.4135 -4.67572 -0.222187 0
M  V30 746 H 74.5865 -6.47977 -0.0549735 0
M  V30 747 N 67.9926 0.231505 -1.5589 0
M  V30 748 C 68.9246 1.31006 -1.8807 0
M  V30 749 C 69.9376 1.43539 -0.768145 0
M  V30 750 O 71.1266 1.44614 -1.04638 0
M  V30 751 C 68.2266 2.68688 -2.06543 0
M  V30 752 C 67.3996 2.78228 -3.37502 0
M  V30 753 C 66.4586 3.96857 -3.4553 0
M  V30 754 O 65.4846 3.85662 -4.18633 0
M  V30 755 N 66.6866 5.1072 -2.75944 0
M  V30 756 H 69.4516 1.03731 -2.81176 0
M  V30 757 H 67.0126 0.421573 -1.56315 0
M  V30 758 H 69.0046 3.46412 -2.09239 0
M  V30 759 H 67.5746 2.88605 -1.20109 0
M  V30 760 H 66.7946 1.87059 -3.46991 0
M  V30 761 H 68.0826 2.81564 -4.23791 0
M  V30 762 H 67.4806 5.2271 -2.16311 0
M  V30 763 H 66.0376 5.86523 -2.84314 0
M  V30 764 N 69.4707 1.49531 0.497807 0
M  V30 765 C 70.8867 1.36365 0.829266 0
M  V30 766 C 71.0867 0.399184 1.97506 0
M  V30 767 O 70.1427 -0.167977 2.51941 0
M  V30 768 C 71.4557 2.77153 1.16647 0
M  V30 769 C 73.0037 2.85877 1.27449 0
M  V30 770 C 73.4787 4.2744 1.64497 0
M  V30 771 N 74.9697 4.30265 1.7154 0
M  V30 772 C 75.7047 5.3677 2.01656 0
M  V30 773 N 75.2007 6.53516 2.29976 0
M  V30 774 N 76.9937 5.24189 2.02934 0
M  V30 775 H 69.1447 2.10831 -0.257703 0
M  V30 776 H 71.4077 0.946534 -0.0527091 0
M  V30 777 H 71.1137 3.49442 0.397872 0
M  V30 778 H 70.9877 3.12722 2.10915 0
M  V30 779 H 73.3747 2.13824 2.0338 0
M  V30 780 H 73.4557 2.53887 0.312244 0
M  V30 781 H 73.0997 5.00021 0.891151 0
M  V30 782 H 73.0297 4.56896 2.61827 0
M  V30 783 H 75.5207 3.4607 1.51802 0
M  V30 784 H 75.8337 7.30506 2.52153 0
M  V30 785 H 74.1787 6.56737 2.27425 0
M  V30 786 H 77.3697 4.31988 1.80289 0
M  V30 787 H 77.5427 6.07286 2.26071 0
M  V30 788 N 70.9488 -0.749086 1.3866 0
M  V30 789 C 71.9118 -1.84457 1.36045 0
M  V30 790 C 72.9118 -1.58682 0.260122 0
M  V30 791 O 74.1018 -1.66343 0.517261 0
M  V30 792 C 71.2338 -3.22008 1.11911 0
M  V30 793 H 72.4268 -1.88182 2.33512 0
M  V30 794 H 69.9798 -0.951266 1.24019 0
M  V30 795 H 70.7148 -3.2395 0.150686 0
M  V30 796 H 70.4998 -3.42111 1.91579 0
M  V30 797 H 71.9898 -4.0208 1.12788 0
M  V30 798 N 72.4269 -1.23603 -0.977757 0
M  V30 799 C 73.7039 -0.977897 -1.69401 0
M  V30 800 C 74.0839 0.502738 -2.05026 0
M  V30 801 O 73.4319 1.47459 -1.74551 0
M  V30 802 C 73.6419 -1.89077 -2.93345 0
M  V30 803 C 74.9899 -2.15579 -3.65802 0
M  V30 804 O 76.0139 -1.86648 -3.03383 0
M  V30 805 O 74.8729 -2.64658 -4.78141 0
M  V30 806 H 71.9669 -0.369025 -0.740101 0
M  V30 807 H 74.5129 -1.34657 -1.03274 0
M  V30 808 H 73.2849 -2.89158 -2.63634 0
M  V30 809 H 72.9079 -1.52463 -3.67207 0
M  V30 810 N 73.905 1.17692 -1.04816 0
M  V30 811 C 75.182 1.83768 -0.669963 0
M  V30 812 C 75.562 1.93232 0.849986 0
M  V30 813 O 74.91 1.46397 1.75443 0
M  V30 814 C 75.12 3.21641 -1.35455 0
M  V30 815 C 76.468 3.97592 -1.49017 0
M  V30 816 O 77.492 3.31107 -1.31326 0
M  V30 817 O 76.351 5.16729 -1.77914 0
M  V30 818 H 73.445 0.792799 -0.235368 0
M  V30 819 H 75.991 1.25021 -1.14751 0
M  V30 820 H 74.763 3.097 -2.39168 0
M  V30 821 H 74.386 3.88052 -0.866107 0
M  V30 822 N 75.3831 0.828654 1.34056 0
M  V30 823 C 76.7941 0.477534 1.8049 0
M  V30 824 C 77.1451 -1.00258 1.6865 0
M  V30 825 O 76.2701 -1.78057 1.22982 0
M  V30 826 C 76.8651 0.860018 3.27703 0
M  V30 827 C 75.4241 0.561185 3.72193 0
M  V30 828 C 74.5711 1.07385 2.55663 0
M  V30 829 H 77.5221 1.0183 1.21722 0
M  V30 830 H 77.5431 0.166038 3.80138 0
M  V30 831 H 77.0551 1.93731 3.36288 0
M  V30 832 H 75.1561 -0.506465 3.69142 0
M  V30 833 H 75.2691 1.10926 4.66082 0
M  V30 834 H 73.6331 0.495149 2.49841 0
M  V30 835 H 74.4161 2.15771 2.67016 0
M  V30 836 N 76.8612 -1.46375 0.584142 0
M  V30 837 C 78.1012 -2.0427 0.0729695 0
M  V30 838 C 78.4652 -1.44563 -1.26355 0
M  V30 839 O 79.6662 -1.93667 -1.86405 0
M  V30 840 C 77.9372 -3.57399 0.00967464 0
M  V30 841 S 79.4962 -4.36551 -0.443714 0
M  V30 842 H 76.3142 -0.709975 0.0381673 0
M  V30 843 H 78.9162 -1.79398 0.776962 0
M  V30 844 H 77.6202 -3.98372 0.986319 0
M  V30 845 H 77.1512 -3.8681 -0.717044 0
M  V30 846 H 79.1662 -4.66237 -1.69816 0
M  V30 847 N 78.3393 -0.321999 -1.54275 0
M  V30 848 C 79.5793 0.281657 -2.0245 0
M  V30 849 C 79.9433 1.49468 -1.20513 0
M  V30 850 O 81.1443 2.17109 -1.58484 0
M  V30 851 C 79.4153 0.609014 -3.52173 0
M  V30 852 S 80.9743 1.19255 -4.22284 0
M  V30 853 H 77.7923 0.0852825 -0.705867 0
M  V30 854 H 80.3943 -0.454758 -1.90137 0
M  V30 855 H 79.0983 -0.281982 -4.0943 0
M  V30 856 H 78.6293 1.37567 -3.68563 0
M  V30 857 H 80.6443 2.47944 -4.29812 0
M  V30 858 N 79.8174 1.5752 -0.0501392 0
M  V30 859 C 80.7474 2.14502 0.922566 0
M  V30 860 C 81.7284 1.06642 1.3252 0
M  V30 861 O 82.9134 1.34577 1.4001 0
M  V30 862 C 80.0434 2.68916 2.19776 0
M  V30 863 C 78.9974 3.8175 1.93523 0
M  V30 864 C 78.3234 4.22677 3.27487 0
M  V30 865 C 79.6234 5.06932 1.25765 0
M  V30 866 H 81.3174 2.9603 0.447952 0
M  V30 867 H 78.8634 1.42401 0.214024 0
M  V30 868 H 80.8164 3.07419 2.88222 0
M  V30 869 H 79.5404 1.84578 2.69441 0
M  V30 870 H 78.1994 3.43718 1.27489 0
M  V30 871 H 77.8474 3.35291 3.74952 0
M  V30 872 H 77.5474 4.98725 3.1072 0
M  V30 873 H 79.0714 4.63779 3.97166 0
M  V30 874 H 80.4854 5.42888 1.84244 0
M  V30 875 H 78.8824 5.88116 1.19328 0
M  V30 876 H 79.9524 4.84337 0.233536 0
M  V30 877 N 81.2955 -0.223234 1.56011 0
M  V30 878 C 82.2275 -1.30006 1.88762 0
M  V30 879 C 83.2405 -1.43129 0.775746 0
M  V30 880 O 84.4295 -1.44057 1.05403 0
M  V30 881 C 81.5295 -2.67589 2.07965 0
M  V30 882 C 80.7025 -2.76434 3.38973 0
M  V30 883 C 79.7615 -3.95019 3.47629 0
M  V30 884 O 78.7875 -3.83436 4.20672 0
M  V30 885 N 79.9895 -5.09249 2.78649 0
M  V30 886 H 82.7545 -1.02238 2.81722 0
M  V30 887 H 80.3155 -0.413278 1.56536 0
M  V30 888 H 82.3075 -3.45297 2.11073 0
M  V30 889 H 80.8775 -2.87964 1.21638 0
M  V30 890 H 80.0975 -1.85216 3.47978 0
M  V30 891 H 81.3855 -2.79313 4.25278 0
M  V30 892 H 80.7835 -5.21556 2.19081 0
M  V30 893 H 79.3405 -5.85007 2.8742 0
M  V30 894 N 82.7736 -1.49793 -0.48987 0
M  V30 895 C 83.7036 -1.70201 -1.59856 0
M  V30 896 C 84.6846 -0.55076 -1.60937 0
M  V30 897 O 85.8696 -0.787841 -1.77501 0
M  V30 898 C 82.9996 -1.77882 -2.98287 0
M  V30 899 C 81.9536 -2.92907 -3.12073 0
M  V30 900 C 81.2796 -2.85712 -4.51965 0
M  V30 901 C 82.5796 -4.3369 -2.91051 0
M  V30 902 H 84.2736 -2.63025 -1.43032 0
M  V30 903 H 81.8196 -1.26574 -0.686664 0
M  V30 904 H 83.7726 -1.90744 -3.75759 0
M  V30 905 H 82.4966 -0.816653 -3.16225 0
M  V30 906 H 81.1556 -2.79665 -2.37029 0
M  V30 907 H 80.8036 -1.8738 -4.66795 0
M  V30 908 H 80.5036 -3.62921 -4.62128 0
M  V30 909 H 82.0276 -3.00598 -5.31482 0
M  V30 910 H 83.4416 -4.47555 -3.58284 0
M  V30 911 H 81.8386 -5.12205 -3.12675 0
M  V30 912 H 82.9086 -4.47362 -1.87071 0
M  V30 913 N 84.2517 0.741722 -1.39055 0
M  V30 914 C 85.1817 1.869 -1.39966 0
M  V30 915 C 86.1627 1.6804 -0.26392 0
M  V30 916 O 87.3477 1.88458 -0.468755 0
M  V30 917 C 84.4777 3.24572 -1.23574 0
M  V30 918 C 83.4317 3.58056 -2.34477 0
M  V30 919 C 82.7577 4.94593 -2.0318 0
M  V30 920 C 84.0577 3.61716 -3.76774 0
M  V30 921 H 85.7517 1.86395 -2.34302 0
M  V30 922 H 83.2977 0.895361 -1.1278 0
M  V30 923 H 85.2507 4.031 -1.22834 0
M  V30 924 H 83.9747 3.25587 -0.257045 0
M  V30 925 H 82.6337 2.81854 -2.34423 0
M  V30 926 H 82.2817 4.92181 -1.03765 0
M  V30 927 H 81.9817 5.17964 -2.77465 0
M  V30 928 H 83.5057 5.75486 -2.04079 0
M  V30 929 H 84.9197 4.30335 -3.78794 0
M  V30 930 H 83.3167 3.96603 -4.50362 0
M  V30 931 H 84.3867 2.61672 -4.08235 0
M  V30 932 N 85.7298 1.2412 0.971189 0
M  V30 933 C 86.9698 1.09066 1.7287 0
M  V30 934 C 87.3338 -0.364794 1.88503 0
M  V30 935 O 88.5348 -0.636748 2.61149 0
M  V30 936 C 86.8058 1.80629 3.08396 0
M  V30 937 S 88.3648 1.81263 3.99611 0
M  V30 938 H 85.1828 0.390145 0.594397 0
M  V30 939 H 87.7848 1.57397 1.15959 0
M  V30 940 H 86.4888 2.85647 2.94676 0
M  V30 941 H 86.0198 1.32617 3.70373 0
M  V30 942 H 88.0348 0.877804 4.88374 0
M  V30 943 N 87.2079 -1.17134 1.05439 0
M  V30 944 C 88.4359 -1.91372 0.786414 0
M  V30 945 C 88.8509 -1.76955 -0.658202 0
M  V30 946 O 88.2079 -1.10838 -1.44987 0
M  V30 947 C 88.2589 -3.42356 1.1608 0
M  V30 948 O 87.9799 -3.56332 2.54871 0
M  V30 949 C 89.4809 -4.33663 0.919322 0
M  V30 950 H 86.7009 -0.607118 0.285743 0
M  V30 951 H 89.2449 -1.48525 1.40572 0
M  V30 952 H 87.3999 -3.82939 0.586191 0
M  V30 953 H 87.8139 -4.49896 2.69618 0
M  V30 954 H 89.2879 -5.38099 1.231 0
M  V30 955 H 89.7649 -4.38959 -0.145359 0
M  V30 956 H 90.3709 -3.98796 1.47789 0
M  V30 957 N 88.686 -0.835752 -1.33615 0
M  V30 958 C 89.649 -0.272 -2.2758 0
M  V30 959 C 90.649 0.557487 -1.50827 0
M  V30 960 O 91.839 0.37173 -1.70188 0
M  V30 961 C 88.971 0.617173 -3.35267 0
M  V30 962 H 90.164 -1.10111 -2.78954 0
M  V30 963 H 87.717 -0.608594 -1.43965 0
M  V30 964 H 88.452 1.46884 -2.89129 0
M  V30 965 H 88.237 0.0237066 -3.92093 0
M  V30 966 H 89.727 1.005 -4.05326 0
M  V30 967 N 90.1641 1.46063 -0.591896 0
M  V30 968 C 91.0941 2.33172 0.123673 0
M  V30 969 C 92.0751 1.45897 0.87453 0
M  V30 970 O 93.2601 1.74698 0.848181 0
M  V30 971 C 90.3901 3.28336 1.13194 0
M  V30 972 C 89.3441 4.25124 0.495324 0
M  V30 973 C 88.6701 5.09863 1.61071 0
M  V30 974 C 89.9701 5.19143 -0.573425 0
M  V30 975 H 91.6641 2.93252 -0.603646 0
M  V30 976 H 89.2101 1.41014 -0.291741 0
M  V30 977 H 91.1631 3.88137 1.64097 0
M  V30 978 H 89.8871 2.66383 1.88965 0
M  V30 979 H 88.5461 3.66599 0.00729452 0
M  V30 980 H 88.1941 4.44288 2.35832 0
M  V30 981 H 87.8941 5.75417 1.19035 0
M  V30 982 H 89.4181 5.72529 2.12233 0
M  V30 983 H 90.8321 5.73106 -0.1491 0
M  V30 984 H 89.2291 5.93089 -0.914636 0
M  V30 985 H 90.2991 4.62519 -1.45617 0
M  V30 986 N 91.6422 0.330177 1.54103 0
M  V30 987 C 92.8892 -0.270405 2.00686 0
M  V30 988 C 93.2172 -1.51621 1.21825 0
M  V30 989 O 92.4722 -1.93536 0.29025 0
M  V30 990 C 92.7712 -0.643134 3.51566 0
M  V30 991 C 92.4372 0.504251 4.48072 0
M  V30 992 C 91.0992 0.819163 4.74176 0
M  V30 993 C 93.4512 1.27465 5.05373 0
M  V30 994 C 90.7792 1.90708 5.5484 0
M  V30 995 C 93.1312 2.35271 5.87223 0
M  V30 996 C 91.7952 2.67336 6.11627 0
M  V30 997 H 91.0652 -0.0989482 0.734364 0
M  V30 998 H 93.7122 0.455324 1.86008 0
M  V30 999 H 92.0172 -1.44938 3.64006 0
M  V30 1000 H 93.7142 -1.11949 3.85056 0
M  V30 1001 H 90.3042 0.248733 4.27878 0
M  V30 1002 H 94.4882 1.04462 4.85182 0
M  V30 1003 H 89.7442 2.15991 5.71977 0
M  V30 1004 H 93.9182 2.95405 6.30641 0
M  V30 1005 H 91.5452 3.51763 6.73919 0
M  V30 1006 N 93.1203 -1.57491 0.0584922 0
M  V30 1007 C 94.3483 -1.97296 -0.623037 0
M  V30 1008 C 94.7633 -0.936338 -1.63946 0
M  V30 1009 O 94.1203 0.0785981 -1.82331 0
M  V30 1010 C 94.1713 -3.37183 -1.30345 0
M  V30 1011 O 93.8923 -4.36872 -0.32773 0
M  V30 1012 C 95.3933 -3.91788 -2.07406 0
M  V30 1013 H 92.6133 -0.649153 -0.169826 0
M  V30 1014 H 95.1573 -2.04106 0.12696 0
M  V30 1015 H 93.3123 -3.31502 -2.00463 0
M  V30 1016 H 93.7263 -5.18141 -0.814269 0
M  V30 1017 H 95.2003 -4.91926 -2.50425 0
M  V30 1018 H 95.6773 -3.27609 -2.92521 0
M  V30 1019 H 96.2833 -4.00829 -1.42184 0
M  V30 1020 N 94.5984 0.214957 -1.56127 0
M  V30 1021 C 96.0094 0.781386 -1.69562 0
M  V30 1022 C 96.3604 1.84707 -0.66165 0
M  V30 1023 O 95.4854 2.156 0.185927 0
M  V30 1024 C 96.0804 1.42411 -3.07416 0
M  V30 1025 C 94.6394 1.93786 -3.22683 0
M  V30 1026 C 93.7864 0.800438 -2.65496 0
M  V30 1027 H 96.7374 -0.00980633 -1.58697 0
M  V30 1028 H 96.7584 2.29309 -3.0364 0
M  V30 1029 H 96.2704 0.64826 -3.82648 0
M  V30 1030 H 94.3714 2.74152 -2.52332 0
M  V30 1031 H 94.4844 2.1133 -4.29973 0
M  V30 1032 H 92.8484 1.2095 -2.2415 0
M  V30 1033 H 93.6314 0.0371471 -3.4328 0
M  V30 1034 N 96.0765 1.50051 0.48192 0
M  V30 1035 C 97.3255 1.59741 1.23149 0
M  V30 1036 C 97.6385 0.298163 1.93314 0
M  V30 1037 O 98.8445 0.273835 2.70116 0
M  V30 1038 C 97.3005 2.81926 2.23708 0
M  V30 1039 C 96.9085 4.18685 1.59396 0
M  V30 1040 C 98.6525 3.00956 2.99375 0
M  V30 1041 C 96.5595 5.3207 2.58178 0
M  V30 1042 H 95.4895 0.594838 0.46334 0
M  V30 1043 H 98.1405 1.76467 0.503169 0
M  V30 1044 H 96.5225 2.58736 2.99786 0
M  V30 1045 H 97.6965 4.52088 0.891811 0
M  V30 1046 H 96.0115 4.05171 0.960503 0
M  V30 1047 H 98.6085 3.82836 3.73283 0
M  V30 1048 H 98.9515 2.12258 3.58123 0
M  V30 1049 H 99.4845 3.24277 2.30411 0
M  V30 1050 H 96.2235 6.22888 2.04184 0
M  V30 1051 H 95.7435 5.03098 3.26577 0
M  V30 1052 H 97.4225 5.62196 3.20225 0
M  V30 1053 N 97.5546 -0.734337 1.39446 0
M  V30 1054 C 98.7846 -1.52137 1.39778 0
M  V30 1055 C 99.1926 -1.89198 -0.00929312 0
M  V30 1056 O 98.5356 -1.54666 -0.991168 0
M  V30 1057 C 98.5976 -2.83762 2.20724 0
M  V30 1058 C 98.2616 -2.69131 3.69347 0
M  V30 1059 C 99.2586 -2.37635 4.62413 0
M  V30 1060 C 96.9436 -2.85982 4.1294 0
M  V30 1061 C 98.9376 -2.23172 5.97054 0
M  V30 1062 C 96.6246 -2.71137 5.47657 0
M  V30 1063 C 97.6226 -2.39777 6.39528 0
M  V30 1064 O 97.3106 -2.25026 7.71763 0
M  V30 1065 H 97.0426 -0.476717 0.479288 0
M  V30 1066 H 99.5966 -0.915012 1.83893 0
M  V30 1067 H 97.8266 -3.4666 1.71359 0
M  V30 1068 H 99.5156 -3.45383 2.13226 0
M  V30 1069 H 100.282 -2.24267 4.30034 0
M  V30 1070 H 96.1606 -3.09383 3.41765 0
M  V30 1071 H 99.7046 -1.98617 6.68728 0
M  V30 1072 H 95.6016 -2.84083 5.79626 0
M  V30 1073 H 96.3696 -2.40091 7.82495 0
M  V30 1074 N 99.0327 -1.24633 -0.964593 0
M  V30 1075 C 99.9627 -1.06611 -2.07741 0
M  V30 1076 C 100.944 0.0218666 -1.70086 0
M  V30 1077 O 102.129 -0.145793 -1.93652 0
M  V30 1078 C 99.2587 -0.673444 -3.40708 0
M  V30 1079 C 98.2127 -1.71054 -3.92332 0
M  V30 1080 C 97.5387 -1.17285 -5.21678 0
M  V30 1081 C 98.8387 -3.10718 -4.19824 0
M  V30 1082 H 100.533 -1.99693 -2.23076 0
M  V30 1083 H 98.0787 -0.96152 -1.07195 0
M  V30 1084 H 100.032 -0.534345 -4.17998 0
M  V30 1085 H 98.7557 0.293073 -3.25282 0
M  V30 1086 H 97.4147 -1.83791 -3.17201 0
M  V30 1087 H 97.0627 -0.196847 -5.02615 0
M  V30 1088 H 96.7627 -1.86592 -5.57187 0
M  V30 1089 H 98.2867 -1.04593 -6.01575 0
M  V30 1090 H 99.7007 -3.01192 -4.87808 0
M  V30 1091 H 98.0977 -3.77406 -4.66567 0
M  V30 1092 H 99.1677 -3.58524 -3.26479 0
M  V30 1093 N 100.511 1.16574 -1.06058 0
M  V30 1094 C 101.474 2.19085 -0.673392 0
M  V30 1095 C 102.474 1.5835 0.279648 0
M  V30 1096 O 103.664 1.74088 0.0623488 0
M  V30 1097 C 100.796 3.40899 0.00954234 0
M  V30 1098 H 101.989 2.54853 -1.58081 0
M  V30 1099 H 99.5418 1.30808 -0.855516 0
M  V30 1100 H 100.277 3.10684 0.929826 0
M  V30 1101 H 100.062 3.86233 -0.67573 0
M  V30 1102 H 101.552 4.1675 0.266245 0
M  V30 1103 N 101.989 0.842826 1.3317 0
M  V30 1104 C 102.919 0.294028 2.31641 0
M  V30 1105 C 103.9 -0.600401 1.59151 0
M  V30 1106 O 105.085 -0.523124 1.87022 0
M  V30 1107 C 102.215 -0.528416 3.43257 0
M  V30 1108 C 101.169 0.27056 4.27144 0
M  V30 1109 C 100.495 -0.675881 5.30411 0
M  V30 1110 C 101.795 1.48981 5.00602 0
M  V30 1111 H 103.489 1.11681 2.77791 0
M  V30 1112 H 101.035 0.538478 1.33553 0
M  V30 1113 H 102.988 -0.922674 4.11175 0
M  V30 1114 H 101.712 -1.38445 2.95805 0
M  V30 1115 H 100.371 0.646427 3.60856 0
M  V30 1116 H 100.019 -1.52842 4.79216 0
M  V30 1117 H 99.7189 -0.145374 5.8742 0
M  V30 1118 H 101.243 -1.06757 6.01195 0
M  V30 1119 H 102.657 1.16849 5.61266 0
M  V30 1120 H 101.054 1.95739 5.6728 0
M  V30 1121 H 102.124 2.25746 4.29147 0
M  V30 1122 N 103.467 -1.45747 0.599634 0
M  V30 1123 C 104.397 -2.33235 -0.111306 0
M  V30 1124 C 105.378 -1.46359 -0.866781 0
M  V30 1125 O 106.563 -1.75146 -0.838904 0
M  V30 1126 C 103.693 -3.28932 -1.11451 0
M  V30 1127 C 102.647 -4.25381 -0.472772 0
M  V30 1128 C 101.973 -5.1071 -1.58365 0
M  V30 1129 C 103.273 -5.18831 0.600948 0
M  V30 1130 H 104.967 -2.92927 0.61919 0
M  V30 1131 H 102.513 -1.40857 0.299215 0
M  V30 1132 H 104.466 -3.89002 -1.62036 0
M  V30 1133 H 103.19 -2.67381 -1.8755 0
M  V30 1134 H 101.849 -3.66598 0.0121472 0
M  V30 1135 H 101.497 -4.45533 -2.33473 0
M  V30 1136 H 101.197 -5.7604 -1.15982 0
M  V30 1137 H 102.721 -5.73647 -2.09194 0
M  V30 1138 H 104.135 -5.73019 0.179491 0
M  V30 1139 H 102.532 -5.92595 0.946076 0
M  V30 1140 H 103.602 -4.6174 1.48068 0
M  V30 1141 N 104.945 -0.338344 -1.53925 0
M  V30 1142 C 106.191 0.260143 -2.01125 0
M  V30 1143 C 106.524 1.50617 -1.22589 0
M  V30 1144 O 105.799 1.91979 -0.312113 0
M  V30 1145 C 106.082 0.579499 -3.55407 0
M  V30 1146 C 105.935 -0.678264 -4.44657 0
M  V30 1147 C 107.254 1.39122 -4.17532 0
M  V30 1148 H 104.373 0.0930772 -0.731099 0
M  V30 1149 H 107.015 -0.457852 -1.84401 0
M  V30 1150 H 105.165 1.19118 -3.69788 0
M  V30 1151 H 106.837 -1.31631 -4.42121 0
M  V30 1152 H 105.08 -1.3042 -4.13731 0
M  V30 1153 H 105.751 -0.410143 -5.50474 0
M  V30 1154 H 108.227 0.874035 -4.06817 0
M  V30 1155 H 107.103 1.58342 -5.25565 0
M  V30 1156 H 107.364 2.39178 -3.71815 0
M  V30 1157 N 106.423 1.57458 -0.0668435 0
M  V30 1158 C 107.386 2.11323 0.887422 0
M  V30 1159 C 108.386 1.03618 1.22964 0
M  V30 1160 O 109.576 1.29626 1.16373 0
M  V30 1161 C 106.708 2.61048 2.19242 0
M  V30 1162 H 107.901 2.96942 0.420194 0
M  V30 1163 H 105.454 1.55239 0.181793 0
M  V30 1164 H 106.189 1.78868 2.70512 0
M  V30 1165 H 105.974 3.39769 1.95702 0
M  V30 1166 H 107.464 3.02814 2.87565 0
M  V30 1167 N 107.901 -0.206675 1.56239 0
M  V30 1168 C 109.126 -0.949474 1.8439 0
M  V30 1169 C 109.551 -1.76549 0.649016 0
M  V30 1170 O 108.909 -1.76782 -0.402231 0
M  V30 1171 C 108.957 -1.83078 3.10668 0
M  V30 1172 O 108.061 -2.9281 2.90407 0
M  V30 1173 H 107.402 -0.268033 0.607499 0
M  V30 1174 H 109.932 -0.215488 2.03462 0
M  V30 1175 H 109.942 -2.2377 3.41161 0
M  V30 1176 H 108.617 -1.23112 3.97261 0
M  V30 1177 H 107.194 -2.55956 2.71184 0
M  V30 1178 N 109.379 -1.50304 -0.473955 0
M  V30 1179 C 110.309 -1.71886 -1.58042 0
M  V30 1180 C 111.29 -0.567799 -1.60344 0
M  V30 1181 O 112.475 -0.806623 -1.76656 0
M  V30 1182 C 109.605 -1.81036 -2.96384 0
M  V30 1183 C 108.559 -2.962 -3.08949 0
M  V30 1184 C 107.885 -2.9049 -4.48909 0
M  V30 1185 C 109.185 -4.36752 -2.86434 0
M  V30 1186 H 110.879 -2.64527 -1.40234 0
M  V30 1187 H 108.425 -1.27295 -0.673201 0
M  V30 1188 H 110.378 -1.94719 -3.73714 0
M  V30 1189 H 109.102 -0.850147 -3.15341 0
M  V30 1190 H 107.761 -2.82164 -2.3405 0
M  V30 1191 H 107.409 -1.92321 -4.64781 0
M  V30 1192 H 107.109 -3.67802 -4.58253 0
M  V30 1193 H 108.633 -3.06218 -5.28264 0
M  V30 1194 H 110.047 -4.5133 -3.53517 0
M  V30 1195 H 108.444 -5.15493 -3.07225 0
M  V30 1196 H 109.514 -4.49321 -1.82316 0
M  V30 1197 N 110.857 0.726932 -1.39834 0
M  V30 1198 C 112.268 1.30558 -1.3346 0
M  V30 1199 C 112.619 1.962 -0.00273003 0
M  V30 1200 O 111.744 1.96826 0.899371 0
M  V30 1201 C 112.339 2.37404 -2.41713 0
M  V30 1202 C 110.898 2.90921 -2.38835 0
M  V30 1203 C 110.045 1.64578 -2.2318 0
M  V30 1204 H 112.996 0.523862 -1.49804 0
M  V30 1205 H 113.017 3.17984 -2.08966 0
M  V30 1206 H 112.529 1.89599 -3.38635 0
M  V30 1207 H 110.63 3.42985 -1.45575 0
M  V30 1208 H 110.743 3.43487 -3.33997 0
M  V30 1209 H 109.107 1.89219 -1.70494 0
M  V30 1210 H 109.89 1.18814 -3.22084 0
M  V30 1211 N 112.336 1.25143 0.95797 0
M  V30 1212 C 113.583 1.09692 1.70217 0
M  V30 1213 C 113.911 -0.362654 1.91089 0
M  V30 1214 O 113.166 -1.28386 1.47701 0
M  V30 1215 C 113.465 1.79272 3.09187 0
M  V30 1216 C 113.131 3.29196 3.08125 0
M  V30 1217 C 111.793 3.70096 3.07543 0
M  V30 1218 C 114.145 4.24995 3.0171 0
M  V30 1219 C 111.473 5.05213 2.9829 0
M  V30 1220 C 113.825 5.60132 2.93999 0
M  V30 1221 C 112.489 6.00365 2.9175 0
M  V30 1222 H 111.759 0.401393 0.622868 0
M  V30 1223 H 114.406 1.55372 1.11945 0
M  V30 1224 H 112.711 1.26014 3.70982 0
M  V30 1225 H 114.408 1.64773 3.65583 0
M  V30 1226 H 110.998 2.96651 3.09348 0
M  V30 1227 H 115.182 3.9439 3.01281 0
M  V30 1228 H 110.438 5.35569 2.94916 0
M  V30 1229 H 114.612 6.3406 2.87996 0
M  V30 1230 H 112.239 7.05023 2.84336 0
M  V30 1231 N 113.814 -1.1601 1.06675 0
M  V30 1232 C 114.777 -2.18724 0.685001 0
M  V30 1233 C 115.777 -1.58496 -0.271246 0
M  V30 1234 O 116.967 -1.74119 -0.0531156 0
M  V30 1235 C 114.099 -3.40899 0.00853648 0
M  V30 1236 H 115.292 -2.54011 1.59431 0
M  V30 1237 H 112.845 -1.30352 0.862441 0
M  V30 1238 H 113.58 -3.11173 -0.913337 0
M  V30 1239 H 113.365 -3.8587 0.696204 0
M  V30 1240 H 114.855 -4.16886 -0.24414 0
M  V30 1241 N 115.292 -0.849877 -1.32721 0
M  V30 1242 C 116.539 -0.450923 -1.97416 0
M  V30 1243 C 116.867 0.992376 -1.67279 0
M  V30 1244 O 116.122 1.71048 -0.950845 0
M  V30 1245 C 116.421 -0.631272 -3.51781 0
M  V30 1246 C 116.087 -2.04432 -4.01894 0
M  V30 1247 C 114.749 -2.4308 -4.1529 0
M  V30 1248 C 117.101 -2.96679 -4.28522 0
M  V30 1249 C 114.429 -3.73257 -4.52654 0
M  V30 1250 C 116.781 -4.26349 -4.67343 0
M  V30 1251 C 115.445 -4.64939 -4.78945 0
M  V30 1252 H 114.715 -0.165004 -0.722395 0
M  V30 1253 H 117.362 -1.07901 -1.58207 0
M  V30 1254 H 115.667 0.0800767 -3.91718 0
M  V30 1255 H 117.364 -0.302709 -3.99856 0
M  V30 1256 H 113.954 -1.73419 -3.91949 0
M  V30 1257 H 118.138 -2.68054 -4.17685 0
M  V30 1258 H 113.394 -4.02946 -4.59831 0
M  V30 1259 H 117.568 -4.97895 -4.86902 0
M  V30 1260 H 115.195 -5.65855 -5.07654 0
M  V30 1261 N 116.77 1.45427 -0.607355 0
M  V30 1262 C 117.7 2.3329 0.0989352 0
M  V30 1263 C 118.681 1.46816 0.859007 0
M  V30 1264 O 119.866 1.75588 0.829604 0
M  V30 1265 C 116.996 3.29518 1.09705 0
M  V30 1266 C 115.95 4.25626 0.450206 0
M  V30 1267 C 115.276 5.11542 1.55655 0
M  V30 1268 C 116.576 5.18505 -0.628455 0
M  V30 1269 H 118.27 2.92595 -0.634716 0
M  V30 1270 H 115.816 1.40696 -0.306681 0
M  V30 1271 H 117.769 3.89855 1.59971 0
M  V30 1272 H 116.493 2.68372 1.86129 0
M  V30 1273 H 115.152 3.66586 -0.0315886 0
M  V30 1274 H 114.8 4.46765 2.31107 0
M  V30 1275 H 114.5 5.76647 1.12925 0
M  V30 1276 H 116.024 5.74748 2.06148 0
M  V30 1277 H 117.438 5.72916 -0.209877 0
M  V30 1278 H 115.835 5.92085 -0.977489 0
M  V30 1279 H 116.905 4.60948 -1.50514 0
M  V30 1280 N 118.248 0.346503 1.53744 0
M  V30 1281 C 119.496 -0.248612 2.00565 0
M  V30 1282 C 119.817 -1.5083 1.23593 0
M  V30 1283 O 119.087 -1.92858 0.343912 0
M  V30 1284 H 117.667 -0.0948564 0.740953 0
M  V30 1285 H 120.329 0.468341 1.89189 0
M  V30 1286 H 119.425 -0.488994 3.08245 0
M  V30 1287 N 119.726 -1.57421 0.075193 0
M  V30 1288 C 120.973 -1.93618 -0.593146 0
M  V30 1289 C 121.301 -0.955484 -1.69413 0
M  V30 1290 O 120.556 0.0283251 -1.9568 0
M  V30 1291 C 120.855 -3.36428 -1.20626 0
M  V30 1292 C 120.521 -4.50307 -0.231078 0
M  V30 1293 C 119.183 -4.81186 0.0371936 0
M  V30 1294 C 121.535 -5.19374 0.435888 0
M  V30 1295 C 118.863 -5.78466 0.979461 0
M  V30 1296 C 121.215 -6.17665 1.3665 0
M  V30 1297 C 119.879 -6.46958 1.6432 0
M  V30 1298 H 119.149 -0.708499 -0.217047 0
M  V30 1299 H 121.796 -1.90937 0.146793 0
M  V30 1300 H 120.101 -3.35592 -2.02201 0
M  V30 1301 H 121.798 -3.61727 -1.73073 0
M  V30 1302 H 118.388 -4.26227 -0.450357 0
M  V30 1303 H 122.572 -4.95711 0.241748 0
M  V30 1304 H 117.828 -5.99487 1.20106 0
M  V30 1305 H 122.002 -6.70284 1.88924 0
M  V30 1306 H 119.629 -7.2215 2.37494 0
M  V30 1307 N 121.204 0.198386 -1.56346 0
M  V30 1308 C 122.134 1.24865 -1.9731 0
M  V30 1309 C 123.115 1.47651 -0.844576 0
M  V30 1310 O 124.3 1.59444 -1.10866 0
M  V30 1311 C 121.43 2.59358 -2.30977 0
M  V30 1312 C 120.384 2.5119 -3.46537 0
M  V30 1313 C 119.71 3.89926 -3.65871 0
M  V30 1314 C 121.01 2.03977 -4.80823 0
M  V30 1315 H 122.704 0.908252 -2.85291 0
M  V30 1316 H 120.25 0.435462 -1.37258 0
M  V30 1317 H 122.203 3.33011 -2.58228 0
M  V30 1318 H 120.927 2.95132 -1.39874 0
M  V30 1319 H 119.586 1.79993 -3.19371 0
M  V30 1320 H 119.234 4.23046 -2.72105 0
M  V30 1321 H 118.934 3.85336 -4.4361 0
M  V30 1322 H 120.458 4.65205 -3.95495 0
M  V30 1323 H 121.872 2.67386 -5.07127 0
M  V30 1324 H 120.269 2.10397 -5.62008 0
M  V30 1325 H 121.339 0.992861 -4.74626 0
M  V30 1326 N 122.682 1.50554 0.465978 0
M  V30 1327 C 123.929 1.61798 1.21768 0
M  V30 1328 C 124.257 0.320696 1.91838 0
M  V30 1329 O 123.512 -0.693724 1.82992 0
M  V30 1330 C 123.811 2.75152 2.28093 0
M  V30 1331 C 123.477 4.15454 1.75239 0
M  V30 1332 C 122.139 4.53628 1.60546 0
M  V30 1333 C 124.491 5.03121 1.36083 0
M  V30 1334 C 121.819 5.77204 1.05128 0
M  V30 1335 C 124.171 6.27249 0.821056 0
M  V30 1336 C 122.835 6.64221 0.660795 0
M  V30 1337 H 122.105 0.592063 0.445582 0
M  V30 1338 H 124.752 1.84503 0.512927 0
M  V30 1339 H 123.057 2.46556 3.04496 0
M  V30 1340 H 124.754 2.81055 2.86023 0
M  V30 1341 H 121.344 3.85341 1.87644 0
M  V30 1342 H 125.528 4.74257 1.46267 0
M  V30 1343 H 120.784 6.0452 0.91462 0
M  V30 1344 H 124.958 6.94537 0.509018 0
M  V30 1345 H 122.585 7.59854 0.229226 0
M  V30 1346 N 124.16 -0.719506 1.40217 0
M  V30 1347 C 125.406 -1.48034 1.39491 0
M  V30 1348 C 125.761 -1.92399 -0.00443536 0
M  V30 1349 O 125.054 -1.64993 -0.974061 0
M  V30 1350 C 125.248 -2.72271 2.31524 0
M  V30 1351 C 125.077 -2.40055 3.80268 0
M  V30 1352 C 123.847 -2.31588 4.49105 0
M  V30 1353 C 126.045 -2.04581 4.71859 0
M  V30 1354 N 124.027 -1.92006 5.83101 0
M  V30 1355 C 125.398 -1.75568 5.94623 0
M  V30 1356 C 127.453 -1.91183 4.59732 0
M  V30 1357 C 126.156 -1.34505 7.06612 0
M  V30 1358 C 128.182 -1.51524 5.71659 0
M  V30 1359 C 127.544 -1.23406 6.93506 0
M  V30 1360 H 123.643 -0.539927 0.565688 0
M  V30 1361 H 126.227 -0.834764 1.75897 0
M  V30 1362 H 124.398 -3.34584 1.97251 0
M  V30 1363 H 126.13 -3.38584 2.21682 0
M  V30 1364 H 122.885 -2.49199 4.02737 0
M  V30 1365 H 123.309 -1.74764 6.54054 0
M  V30 1366 H 127.951 -2.11584 3.66049 0
M  V30 1367 H 125.669 -1.12846 8.00182 0
M  V30 1368 H 129.255 -1.41741 5.6427 0
M  V30 1369 H 128.135 -0.931788 7.78645 0
M  V30 1370 N 125.638 -1.25649 -0.95132 0
M  V30 1371 C 126.863 -1.13443 -1.73624 0
M  V30 1372 C 127.288 0.307565 -1.85568 0
M  V30 1373 O 126.646 1.22282 -1.33854 0
M  V30 1374 C 126.694 -1.79723 -3.12621 0
M  V30 1375 O 125.798 -1.07912 -3.98031 0
M  V30 1376 H 125.139 -0.395872 -0.533086 0
M  V30 1377 H 127.669 -1.66276 -1.1922 0
M  V30 1378 H 127.679 -1.86141 -3.63064 0
M  V30 1379 H 126.354 -2.84633 -3.03244 0
M  V30 1380 H 124.931 -1.09398 -3.56492 0
M  V30 1381 N 127.117 1.15442 -1.07289 0
M  V30 1382 C 128.528 1.67803 -0.818475 0
M  V30 1383 C 128.879 1.8489 0.656507 0
M  V30 1384 O 128.004 1.55176 1.50829 0
M  V30 1385 C 128.599 3.04805 -1.47917 0
M  V30 1386 C 127.158 3.54245 -1.27229 0
M  V30 1387 C 126.305 2.29986 -1.54925 0
M  V30 1388 H 129.256 0.996646 -1.23502 0
M  V30 1389 H 129.277 3.69702 -0.90005 0
M  V30 1390 H 128.789 2.92336 -2.55267 0
M  V30 1391 H 126.89 3.71956 -0.21899 0
M  V30 1392 H 127.003 4.35723 -1.99203 0
M  V30 1393 H 125.367 2.35496 -0.970242 0
M  V30 1394 H 126.15 2.20105 -2.63455 0
M  V30 1395 N 128.595 0.856903 1.32268 0
M  V30 1396 C 129.525 0.31858 2.31316 0
M  V30 1397 C 130.506 -0.583487 1.59779 0
M  V30 1398 O 131.691 -0.503259 1.87566 0
M  V30 1399 C 128.821 -0.491979 3.43798 0
M  V30 1400 C 127.775 0.315849 4.26833 0
M  V30 1401 C 127.101 -0.619586 5.31098 0
M  V30 1402 C 128.401 1.54282 4.98993 0
M  V30 1403 H 130.095 1.14621 2.76591 0
M  V30 1404 H 127.641 0.552613 1.32974 0
M  V30 1405 H 129.594 -0.879012 4.1213 0
M  V30 1406 H 128.318 -1.35299 2.97257 0
M  V30 1407 H 126.977 0.684664 3.6015 0
M  V30 1408 H 126.625 -1.47751 4.8081 0
M  V30 1409 H 126.325 -0.0830621 5.87541 0
M  V30 1410 H 127.849 -1.00375 6.02293 0
M  V30 1411 H 129.263 1.22796 5.59995 0
M  V30 1412 H 127.66 2.01745 5.65172 0
M  V30 1413 H 128.73 2.30285 4.26728 0
M  V30 1414 N 130.073 -1.45103 0.615059 0
M  V30 1415 C 131.005 -2.28786 -0.13762 0
M  V30 1416 C 132.018 -1.40376 -0.824525 0
M  V30 1417 O 133.207 -1.64681 -0.688662 0
M  V30 1418 C 130.307 -3.16322 -1.21628 0
M  V30 1419 C 129.48 -4.33054 -0.615039 0
M  V30 1420 C 128.539 -5.01743 -1.58556 0
M  V30 1421 O 127.565 -5.58293 -1.10895 0
M  V30 1422 N 128.767 -5.01714 -2.91998 0
M  V30 1423 H 131.532 -2.94025 0.580483 0
M  V30 1424 H 129.093 -1.55373 0.45507 0
M  V30 1425 H 131.085 -3.59139 -1.86552 0
M  V30 1426 H 129.655 -2.52943 -1.83681 0
M  V30 1427 H 128.875 -3.93627 0.21245 0
M  V30 1428 H 130.163 -5.08431 -0.193704 0
M  V30 1429 H 129.561 -4.57075 -3.33316 0
M  V30 1430 H 128.118 -5.48371 -3.52325 0
M  V30 1431 N 131.551 -0.354651 -1.53558 0
M  V30 1432 C 132.776 0.242153 -2.05981 0
M  V30 1433 C 133.201 1.42553 -1.2272 0
M  V30 1434 O 132.559 1.79656 -0.243604 0
M  V30 1435 C 132.607 0.624367 -3.55154 0
M  V30 1436 O 131.711 1.72301 -3.74681 0
M  V30 1437 H 131.052 0.0378432 -0.662921 0
M  V30 1438 H 133.582 -0.512087 -1.98088 0
M  V30 1439 H 133.592 0.898433 -3.97985 0
M  V30 1440 H 132.267 -0.240989 -4.15201 0
M  V30 1441 H 130.844 1.44535 -3.4375 0
M  V30 1442 N 133.029 1.57378 -0.0835403 0
M  V30 1443 C 133.992 2.12252 0.864959 0
M  V30 1444 C 134.992 1.04916 1.21858 0
M  V30 1445 O 136.182 1.30853 1.14991 0
M  V30 1446 C 133.314 2.63358 2.16461 0
M  V30 1447 H 134.507 2.97371 0.388676 0
M  V30 1448 H 132.06 1.55423 0.165317 0
M  V30 1449 H 132.795 1.81727 2.686 0
M  V30 1450 H 132.58 3.41826 1.92087 0
M  V30 1451 H 134.07 3.05847 2.84337 0
M  V30 1452 N 134.507 -0.190092 1.56449 0
M  V30 1453 C 135.923 -0.54113 1.50146 0
M  V30 1454 C 136.123 -1.85603 0.784465 0
M  V30 1455 O 135.179 -2.5024 0.337051 0
M  V30 1456 C 136.492 -0.591241 2.9483 0
M  V30 1457 C 138.04 -0.679732 3.0553 0
M  V30 1458 C 138.515 -0.760908 4.51635 0
M  V30 1459 N 140.006 -0.824302 4.55806 0
M  V30 1460 C 140.741 -0.907365 5.66175 0
M  V30 1461 N 140.237 -0.952422 6.86222 0
M  V30 1462 N 142.03 -0.94494 5.541 0
M  V30 1463 H 134.181 0.67235 2.01478 0
M  V30 1464 H 136.444 0.240127 0.917084 0
M  V30 1465 H 136.15 0.305905 3.50367 0
M  V30 1466 H 136.024 -1.44422 3.48457 0
M  V30 1467 H 138.411 -1.56731 2.50039 0
M  V30 1468 H 138.492 0.199549 2.5502 0
M  V30 1469 H 138.136 0.122336 5.07753 0
M  V30 1470 H 138.066 -1.65606 4.99882 0
M  V30 1471 H 140.557 -0.798526 3.69367 0
M  V30 1472 H 140.87 -1.01645 7.66086 0
M  V30 1473 H 139.215 -0.921014 6.8887 0
M  V30 1474 H 142.406 -0.906612 4.59236 0
M  V30 1475 H 142.579 -1.00622 6.4014 0
M  V30 1476 N 135.985 -1.50799 -0.457987 0
M  V30 1477 C 137.401 -1.38515 -0.792819 0
M  V30 1478 C 137.601 -0.451409 -1.96379 0
M  V30 1479 O 136.657 0.10112 -2.52297 0
M  V30 1480 C 137.97 -2.80149 -1.09258 0
M  V30 1481 C 139.518 -2.89156 -1.19825 0
M  V30 1482 C 139.993 -4.31651 -1.53106 0
M  V30 1483 N 141.484 -4.34662 -1.60072 0
M  V30 1484 C 142.219 -5.41928 -1.87354 0
M  V30 1485 N 141.715 -6.59384 -2.12568 0
M  V30 1486 N 143.508 -5.29385 -1.88965 0
M  V30 1487 H 135.659 -2.10073 0.313511 0
M  V30 1488 H 137.922 -0.944803 0.0777862 0
M  V30 1489 H 137.628 -3.50374 -0.305084 0
M  V30 1490 H 137.502 -3.18204 -2.02549 0
M  V30 1491 H 139.889 -2.19141 -1.97639 0
M  V30 1492 H 139.97 -2.54626 -0.244821 0
M  V30 1493 H 139.614 -5.02208 -0.758266 0
M  V30 1494 H 139.544 -4.63678 -2.49621 0
M  V30 1495 H 142.035 -3.49973 -1.42573 0
M  V30 1496 H 142.348 -7.36934 -2.32696 0
M  V30 1497 H 140.693 -6.62535 -2.09933 0
M  V30 1498 H 143.884 -4.36616 -1.68772 0
M  V30 1499 H 144.057 -6.13066 -2.09891 0
M  V30 1500 N 137.463 0.71206 -1.40597 0
M  V30 1501 C 138.874 1.29135 -1.34837 0
M  V30 1502 C 139.225 1.96186 -0.0235395 0
M  V30 1503 O 138.35 1.97768 0.878444 0
M  V30 1504 C 138.945 2.34827 -2.44217 0
M  V30 1505 C 137.504 2.88371 -2.41907 0
M  V30 1506 C 136.651 1.62202 -2.24913 0
M  V30 1507 H 139.602 0.507944 -1.50352 0
M  V30 1508 H 139.623 3.15749 -2.12327 0
M  V30 1509 H 139.135 1.85996 -3.40627 0
M  V30 1510 H 137.236 3.41422 -1.49204 0
M  V30 1511 H 137.349 3.39925 -3.37621 0
M  V30 1512 H 135.713 1.874 -1.72492 0
M  V30 1513 H 136.496 1.15391 -3.23326 0
M  V30 1514 N 138.941 1.26152 0.944643 0
M  V30 1515 C 140.171 1.14094 1.72239 0
M  V30 1516 C 140.579 -0.306931 1.86694 0
M  V30 1517 O 139.922 -1.22222 1.3714 0
M  V30 1518 C 139.984 1.73316 3.14963 0
M  V30 1519 C 139.648 3.2239 3.23904 0
M  V30 1520 C 140.645 4.19252 3.07447 0
M  V30 1521 C 138.33 3.62788 3.47405 0
M  V30 1522 C 140.324 5.54491 3.14353 0
M  V30 1523 C 138.011 4.98162 3.53947 0
M  V30 1524 C 139.009 5.93823 3.37436 0
M  V30 1525 O 138.697 7.26732 3.43679 0
M  V30 1526 H 138.429 0.398292 0.546205 0
M  V30 1527 H 140.983 1.67201 1.19301 0
M  V30 1528 H 139.213 1.14667 3.69308 0
M  V30 1529 H 140.902 1.56214 3.74636 0
M  V30 1530 H 141.668 3.8938 2.8915 0
M  V30 1531 H 137.547 2.88816 3.59313 0
M  V30 1532 H 141.091 6.29137 3.01384 0
M  V30 1533 H 136.988 5.27695 3.71763 0
M  V30 1534 H 137.756 7.3496 3.60245 0
M  V30 1535 N 140.419 -1.14872 1.07899 0
M  V30 1536 C 141.668 -1.85135 0.800499 0
M  V30 1537 C 141.981 -1.83547 -0.676014 0
M  V30 1538 O 143.187 -2.49548 -1.06948 0
M  V30 1539 C 141.643 -3.3231 1.38197 0
M  V30 1540 C 141.251 -3.42329 2.8899 0
M  V30 1541 C 142.995 -4.0772 1.18174 0
M  V30 1542 C 140.902 -4.83684 3.403 0
M  V30 1543 H 139.832 -0.693563 0.29578 0
M  V30 1544 H 142.483 -1.29532 1.29976 0
M  V30 1545 H 140.865 -3.87618 0.810431 0
M  V30 1546 H 142.039 -2.97097 3.52236 0
M  V30 1547 H 140.354 -2.80369 3.07867 0
M  V30 1548 H 142.951 -5.12049 1.5398 0
M  V30 1549 H 143.294 -4.16124 0.12117 0
M  V30 1550 H 143.827 -3.58696 1.71994 0
M  V30 1551 H 140.566 -4.80465 4.45907 0
M  V30 1552 H 140.086 -5.29474 2.81811 0
M  V30 1553 H 141.765 -5.52558 3.36584 0
M  V30 1554 N 141.898 -0.863906 -1.31812 0
M  V30 1555 C 143.128 -0.485406 -2.00817 0
M  V30 1556 C 143.536 0.925007 -1.65046 0
M  V30 1557 O 142.879 1.61653 -0.872574 0
M  V30 1558 C 142.941 -0.555589 -3.55181 0
M  V30 1559 C 142.605 -1.92654 -4.14407 0
M  V30 1560 C 143.602 -2.89324 -4.31958 0
M  V30 1561 C 141.287 -2.2262 -4.50273 0
M  V30 1562 C 143.281 -4.14108 -4.84555 0
M  V30 1563 C 140.968 -3.47654 -5.02573 0
M  V30 1564 C 141.966 -4.43214 -5.19664 0
M  V30 1565 O 141.654 -5.66033 -5.70843 0
M  V30 1566 H 141.386 -0.188224 -0.649267 0
M  V30 1567 H 143.94 -1.16514 -1.69156 0
M  V30 1568 H 142.17 0.181037 -3.86276 0
M  V30 1569 H 143.859 -0.19138 -4.05449 0
M  V30 1570 H 144.625 -2.6748 -4.04573 0
M  V30 1571 H 140.504 -1.4902 -4.3625 0
M  V30 1572 H 144.048 -4.88703 -4.9781 0
M  V30 1573 H 139.945 -3.69345 -5.29391 0
M  V30 1574 H 140.713 -5.6812 -5.89222 0
M  V30 1575 N 143.376 1.44774 -0.622745 0
M  V30 1576 C 144.601 2.06999 -0.128968 0
M  V30 1577 C 145.026 1.4617 1.1839 0
M  V30 1578 O 144.384 0.560007 1.72434 0
M  V30 1579 C 144.432 3.60595 -0.0188351 0
M  V30 1580 O 143.536 3.99398 1.02739 0
M  V30 1581 H 142.877 0.659047 -0.0809544 0
M  V30 1582 H 145.407 1.85784 -0.85705 0
M  V30 1583 H 145.417 4.07627 0.174476 0
M  V30 1584 H 144.092 4.04252 -0.977384 0
M  V30 1585 H 142.669 3.64011 0.809326 0
M  V30 1586 N 144.854 0.36279 1.53368 0
M  V30 1587 C 146.27 0.0116182 1.59596 0
M  V30 1588 C 146.47 -1.47012 1.37803 0
M  V30 1589 O 145.526 -2.23136 1.18181 0
M  V30 1590 C 146.839 0.465052 2.97082 0
M  V30 1591 C 148.387 0.419033 3.10182 0
M  V30 1592 C 148.862 0.848235 4.50077 0
M  V30 1593 N 150.353 0.803183 4.56183 0
M  V30 1594 C 151.088 1.107 5.62613 0
M  V30 1595 N 150.584 1.47996 6.76808 0
M  V30 1596 N 152.377 1.02998 5.52583 0
M  V30 1597 H 144.528 1.32775 1.65785 0
M  V30 1598 H 146.791 0.542518 0.777417 0
M  V30 1599 H 146.497 1.49892 3.18159 0
M  V30 1600 H 146.371 -0.149786 3.76902 0
M  V30 1601 H 148.758 -0.605696 2.88817 0
M  V30 1602 H 148.839 1.06933 2.32377 0
M  V30 1603 H 148.483 1.87107 4.7218 0
M  V30 1604 H 148.413 0.175218 5.26308 0
M  V30 1605 H 150.904 0.52838 3.74188 0
M  V30 1606 H 151.217 1.69613 7.53957 0
M  V30 1607 H 149.562 1.51859 6.78206 0
M  V30 1608 H 152.753 0.737817 4.62249 0
M  V30 1609 H 152.926 1.2701 6.35431 0
M  V30 1610 N 146.332 -1.57332 0.0918853 0
M  V30 1611 C 147.262 -2.16872 -0.865371 0
M  V30 1612 C 148.243 -1.10118 -1.29646 0
M  V30 1613 O 149.428 -1.38242 -1.36392 0
M  V30 1614 C 146.558 -2.74649 -2.12569 0
M  V30 1615 C 145.512 -3.86747 -1.83333 0
M  V30 1616 C 144.838 -4.31212 -3.16166 0
M  V30 1617 C 146.138 -5.10089 -1.1228 0
M  V30 1618 H 147.832 -2.97114 -0.369307 0
M  V30 1619 H 145.378 -1.42918 -0.176194 0
M  V30 1620 H 147.331 -3.14952 -2.7997 0
M  V30 1621 H 146.055 -1.91657 -2.64452 0
M  V30 1622 H 144.714 -3.46978 -1.18331 0
M  V30 1623 H 144.362 -3.45115 -3.6593 0
M  V30 1624 H 144.062 -5.06788 -2.97388 0
M  V30 1625 H 145.586 -4.74146 -3.84731 0
M  V30 1626 H 147 -5.47582 -1.69785 0
M  V30 1627 H 145.397 -5.91073 -1.03693 0
M  V30 1628 H 146.467 -4.84786 -0.105041 0
M  V30 1629 N 147.81 0.181792 -1.56548 0
M  V30 1630 C 148.72 1.24538 -1.98815 0
M  V30 1631 C 149.736 1.49045 -0.897861 0
M  V30 1632 O 150.912 1.61399 -1.20467 0
M  V30 1633 C 147.977 2.56683 -2.33055 0
M  V30 1634 C 147.038 2.40131 -3.55859 0
M  V30 1635 C 146.271 3.65975 -3.88456 0
M  V30 1636 O 146.494 4.70711 -3.22161 0
M  V30 1637 O 145.428 3.6071 -4.81842 0
M  V30 1638 H 149.254 0.916647 -2.89536 0
M  V30 1639 H 146.839 0.387842 -1.44278 0
M  V30 1640 H 148.721 3.34655 -2.56094 0
M  V30 1641 H 147.396 2.89157 -1.45498 0
M  V30 1642 H 146.303 1.60226 -3.38051 0
M  V30 1643 H 147.636 2.12585 -4.43924 0
M  V30 1644 N 149.288 1.51039 0.449983 0
M  V30 1645 C 150.565 1.53612 1.21089 0
M  V30 1646 C 150.945 0.292997 2.09057 0
M  V30 1647 O 150.293 -0.72259 2.16774 0
M  V30 1648 C 150.503 2.84337 2.0237 0
M  V30 1649 C 151.851 3.35807 2.59843 0
M  V30 1650 O 152.875 2.85802 2.12593 0
M  V30 1651 O 151.734 4.23029 3.45989 0
M  V30 1652 H 148.828 0.617057 0.550608 0
M  V30 1653 H 151.374 1.63344 0.460082 0
M  V30 1654 H 150.146 3.66278 1.37681 0
M  V30 1655 H 149.769 2.77708 2.84542 0
M  V30 1656 N 150.766 -0.704594 1.40972 0
M  V30 1657 C 151.713 -1.81862 1.42109 0
M  V30 1658 C 152.683 -1.63781 0.276593 0
M  V30 1659 O 153.868 -1.84759 0.4763 0
M  V30 1660 C 151.008 -3.19669 1.30022 0
M  V30 1661 C 150.121 -3.49246 2.54267 0
M  V30 1662 C 149.256 -4.76618 2.3454 0
M  V30 1663 C 148.295 -4.99133 3.54306 0
M  V30 1664 N 147.432 -6.17726 3.33706 0
M  V30 1665 H 152.272 -1.80226 2.37324 0
M  V30 1666 H 149.809 -0.880238 1.17857 0
M  V30 1667 H 151.767 -3.99263 1.21018 0
M  V30 1668 H 150.397 -3.20506 0.384192 0
M  V30 1669 H 149.449 -2.64125 2.73756 0
M  V30 1670 H 150.761 -3.61788 3.43381 0
M  V30 1671 H 149.915 -5.64249 2.22952 0
M  V30 1672 H 148.654 -4.66305 1.42867 0
M  V30 1673 H 147.659 -4.09953 3.66359 0
M  V30 1674 H 148.884 -5.11311 4.4692 0
M  V30 1675 H 146.83 -6.08642 2.44725 0
M  V30 1676 H 146.747 -6.30995 4.16391 0
M  V30 1677 H 148.015 -7.08115 3.25873 0
M  V30 1678 N 152.244 -1.26651 -0.937939 0
M  V30 1679 C 153.492 -1.12165 -1.68118 0
M  V30 1680 C 153.813 0.334983 -1.92101 0
M  V30 1681 O 153.083 1.23583 -1.52 0
M  V30 1682 H 151.663 -0.412093 -0.623048 0
M  V30 1683 H 154.325 -1.59027 -1.12678 0
M  V30 1684 H 153.421 -1.64289 -2.6536 0
M  V30 1685 N 153.722 1.14298 -1.08507 0
M  V30 1686 C 154.652 2.21542 -0.737646 0
M  V30 1687 C 155.633 1.67773 0.280377 0
M  V30 1688 O 156.818 1.93616 0.150521 0
M  V30 1689 C 153.948 3.46988 -0.147259 0
M  V30 1690 C 152.902 4.13789 -1.09374 0
M  V30 1691 C 152.228 5.33449 -0.365524 0
M  V30 1692 C 153.528 4.62208 -2.4323 0
M  V30 1693 H 155.222 2.5086 -1.6343 0
M  V30 1694 H 152.768 1.20576 -0.787243 0
M  V30 1695 H 154.721 4.21262 0.107808 0
M  V30 1696 H 153.445 3.17037 0.784538 0
M  V30 1697 H 152.104 3.4147 -1.33393 0
M  V30 1698 H 151.752 4.99759 0.57011 0
M  V30 1699 H 151.452 5.79088 -0.996512 0
M  V30 1700 H 152.976 6.10485 -0.118534 0
M  V30 1701 H 154.39 5.27952 -2.23472 0
M  V30 1702 H 152.787 5.18553 -3.02031 0
M  V30 1703 H 153.857 3.77224 -3.04681 0
M  V30 1704 N 155.201 0.870884 1.31352 0
M  V30 1705 C 156.164 0.332243 2.26779 0
M  V30 1706 C 157.164 -0.517302 1.52252 0
M  V30 1707 O 158.354 -0.326477 1.71113 0
M  V30 1708 C 155.486 -0.528066 3.36785 0
M  V30 1709 H 156.679 1.17469 2.75937 0
M  V30 1710 H 154.232 0.64655 1.423 0
M  V30 1711 H 154.967 -1.39167 2.92922 0
M  V30 1712 H 154.752 0.0802582 3.92018 0
M  V30 1713 H 156.242 -0.897179 4.07849 0
M  V30 1714 N 156.679 -1.44442 0.630414 0
M  V30 1715 C 157.927 -2.01653 0.134351 0
M  V30 1716 C 158.248 -1.49836 -1.24796 0
M  V30 1717 O 157.518 -0.701684 -1.82902 0
M  V30 1718 H 156.098 -0.74554 0.0466769 0
M  V30 1719 H 158.76 -1.76952 0.816955 0
M  V30 1720 H 157.856 -3.11935 0.101498 0
M  V30 1721 N 158.157 -0.370918 -1.53173 0
M  V30 1722 C 159.405 0.216673 -2.00935 0
M  V30 1723 C 159.726 1.48845 -1.25977 0
M  V30 1724 O 158.996 1.92286 -0.374551 0
M  V30 1725 H 157.576 0.0830565 -0.742368 0
M  V30 1726 H 160.238 -0.49838 -1.8842 0
M  V30 1727 H 159.334 0.439893 -3.08984 0
M  V30 1728 N 159.635 1.57281 -0.100228 0
M  V30 1729 C 160.598 2.13158 0.842398 0
M  V30 1730 C 161.598 1.06202 1.20738 0
M  V30 1731 O 162.788 1.32066 1.13597 0
M  V30 1732 C 159.92 2.65639 2.13655 0
M  V30 1733 H 161.113 2.97766 0.357114 0
M  V30 1734 H 158.666 1.5559 0.148823 0
M  V30 1735 H 159.401 1.84566 2.66657 0
M  V30 1736 H 159.186 3.43844 1.88451 0
M  V30 1737 H 160.676 3.08846 2.81077 0
M  V30 1738 N 161.113 -0.173488 1.56642 0
M  V30 1739 C 162.076 -1.19859 1.95362 0
M  V30 1740 C 163.076 -1.37296 0.83704 0
M  V30 1741 O 164.266 -1.34739 1.10413 0
M  V30 1742 C 161.398 -2.56405 2.24654 0
M  V30 1743 H 162.591 -0.867062 2.87092 0
M  V30 1744 H 160.144 -0.415853 1.50666 0
M  V30 1745 H 160.879 -2.94576 1.35631 0
M  V30 1746 H 160.664 -2.45115 3.06041 0
M  V30 1747 H 162.154 -3.30287 2.5554 0
M  V30 1748 N 162.591 -1.51276 -0.441967 0
M  V30 1749 C 163.521 -1.752 -1.54361 0
M  V30 1750 C 164.502 -0.601682 -1.59103 0
M  V30 1751 O 165.687 -0.843913 -1.74905 0
M  V30 1752 C 162.817 -1.87282 -2.92477 0
M  V30 1753 C 161.771 -3.02687 -3.02596 0
M  V30 1754 C 161.097 -2.99947 -4.42647 0
M  V30 1755 C 162.397 -4.4273 -2.77106 0
M  V30 1756 H 164.091 -2.67442 -1.34592 0
M  V30 1757 H 161.637 -1.28694 -0.646048 0
M  V30 1758 H 163.59 -2.02602 -3.695 0
M  V30 1759 H 162.314 -0.916844 -3.13467 0
M  V30 1760 H 160.973 -2.87065 -2.28012 0
M  V30 1761 H 160.621 -2.02136 -4.60597 0
M  V30 1762 H 160.321 -3.77439 -4.50348 0
M  V30 1763 H 161.845 -3.17354 -5.2165 0
M  V30 1764 H 163.259 -4.58727 -3.43864 0
M  V30 1765 H 161.656 -5.21893 -2.96222 0
M  V30 1766 H 162.726 -4.53087 -1.72744 0
M  V30 1767 N 164.069 0.697108 -1.41344 0
M  V30 1768 C 164.999 1.82353 -1.45841 0
M  V30 1769 C 165.98 1.67115 -0.317247 0
M  V30 1770 O 167.165 1.86871 -0.528474 0
M  V30 1771 C 164.295 3.20476 -1.33838 0
M  V30 1772 C 163.249 3.50415 -2.4575 0
M  V30 1773 C 162.575 4.87878 -2.18813 0
M  V30 1774 C 163.875 3.49546 -3.88091 0
M  V30 1775 H 165.569 1.78846 -2.40113 0
M  V30 1776 H 163.115 0.859028 -1.15571 0
M  V30 1777 H 165.068 3.98988 -1.35596 0
M  V30 1778 H 163.792 3.24604 -0.360498 0
M  V30 1779 H 162.451 2.74253 -2.43271 0
M  V30 1780 H 162.099 4.8863 -1.19371 0
M  V30 1781 H 161.799 5.08875 -2.93803 0
M  V30 1782 H 163.323 5.68702 -2.22284 0
M  V30 1783 H 164.737 4.18066 -3.92293 0
M  V30 1784 H 163.134 3.82075 -4.62751 0
M  V30 1785 H 164.204 2.48552 -4.16353 0
M  V30 1786 N 165.547 1.27147 0.931209 0
M  V30 1787 C 166.772 1.16191 1.71797 0
M  V30 1788 C 167.197 -0.278004 1.86034 0
M  V30 1789 O 166.555 -1.20137 1.35782 0
M  V30 1790 C 166.603 1.84673 3.09723 0
M  V30 1791 O 165.707 1.14231 3.96264 0
M  V30 1792 H 165.048 0.404303 0.526721 0
M  V30 1793 H 167.578 1.68152 1.1656 0
M  V30 1794 H 167.588 1.91893 3.60057 0
M  V30 1795 H 166.263 2.89421 2.98677 0
M  V30 1796 H 164.84 1.15056 3.54706 0
M  V30 1797 N 167.025 -1.13721 1.09112 0
M  V30 1798 C 167.935 -2.22638 0.73957 0
M  V30 1799 C 168.951 -1.72091 -0.257068 0
M  V30 1800 O 170.127 -2.01155 -0.0992154 0
M  V30 1801 C 167.192 -3.46322 0.16191 0
M  V30 1802 C 166.253 -4.11775 1.21408 0
M  V30 1803 C 165.486 -5.29555 0.663891 0
M  V30 1804 O 165.709 -5.68077 -0.514274 0
M  V30 1805 O 164.643 -5.84973 1.41738 0
M  V30 1806 H 168.469 -2.55074 1.64836 0
M  V30 1807 H 166.054 -1.21791 0.865289 0
M  V30 1808 H 167.936 -4.21107 -0.157073 0
M  V30 1809 H 166.611 -3.15593 -0.719932 0
M  V30 1810 H 165.518 -3.3883 1.58571 0
M  V30 1811 H 166.851 -4.46627 2.06845 0
M  V30 1812 N 168.503 -0.877838 -1.30888 0
M  V30 1813 C 169.749 -0.502773 -1.97088 0
M  V30 1814 C 170.104 0.936274 -1.68082 0
M  V30 1815 O 169.397 1.65162 -0.971196 0
M  V30 1816 C 169.591 -0.705748 -3.50363 0
M  V30 1817 C 169.42 -2.16297 -3.94266 0
M  V30 1818 C 168.19 -2.80614 -4.20219 0
M  V30 1819 C 170.388 -3.13606 -4.07622 0
M  V30 1820 N 168.37 -4.17007 -4.50532 0
M  V30 1821 C 169.741 -4.35051 -4.41736 0
M  V30 1822 C 171.796 -3.09491 -3.90026 0
M  V30 1823 C 170.499 -5.52911 -4.60089 0
M  V30 1824 C 172.525 -4.26616 -4.09576 0
M  V30 1825 C 171.887 -5.46825 -4.44029 0
M  V30 1826 H 167.986 -0.233168 -0.746429 0
M  V30 1827 H 170.57 -1.13408 -1.58261 0
M  V30 1828 H 168.741 -0.103976 -3.88261 0
M  V30 1829 H 170.473 -0.298291 -4.03599 0
M  V30 1830 H 167.228 -2.3152 -4.13153 0
M  V30 1831 H 167.652 -4.87426 -4.69834 0
M  V30 1832 H 172.294 -2.17657 -3.62471 0
M  V30 1833 H 170.012 -6.45255 -4.86489 0
M  V30 1834 H 173.598 -4.24894 -3.97438 0
M  V30 1835 H 172.478 -6.35947 -4.58848 0
M  V30 1836 N 169.982 1.44106 -0.638065 0
M  V30 1837 C 170.929 2.30715 0.062701 0
M  V30 1838 C 171.899 1.43882 0.829883 0
M  V30 1839 O 173.084 1.72775 0.809532 0
M  V30 1840 C 170.224 3.29258 1.03358 0
M  V30 1841 C 169.337 4.31192 0.26409 0
M  V30 1842 C 168.472 5.16825 1.22741 0
M  V30 1843 C 167.511 6.10462 0.447475 0
M  V30 1844 N 166.648 6.8877 1.36161 0
M  V30 1845 H 171.488 2.90096 -0.681781 0
M  V30 1846 H 169.025 1.42925 -0.347988 0
M  V30 1847 H 170.983 3.84886 1.60992 0
M  V30 1848 H 169.613 2.71562 1.74511 0
M  V30 1849 H 168.665 3.77981 -0.428295 0
M  V30 1850 H 169.977 4.97619 -0.343052 0
M  V30 1851 H 169.131 5.77004 1.87487 0
M  V30 1852 H 167.87 4.50488 1.86847 0
M  V30 1853 H 166.875 5.49386 -0.213433 0
M  V30 1854 H 168.1 6.78837 -0.188968 0
M  V30 1855 H 166.046 6.25096 1.98975 0
M  V30 1856 H 165.963 7.51663 0.808656 0
M  V30 1857 H 167.231 7.53467 1.99769 0
M  V30 1858 N 171.46 0.379036 1.52974 0
M  V30 1859 C 172.708 -0.206014 2.01047 0
M  V30 1860 C 173.029 -1.48175 1.26765 0
M  V30 1861 O 172.299 -1.92085 0.384743 0
M  V30 1862 H 170.879 -0.0791184 0.742798 0
M  V30 1863 H 173.541 0.508366 1.88153 0
M  V30 1864 H 172.637 -0.423501 3.09213 0
M  V30 1865 N 172.938 -1.57226 0.108567 0
M  V30 1866 C 174.166 -1.99179 -0.559954 0
M  V30 1867 C 174.581 -0.988022 -1.60884 0
M  V30 1868 O 173.938 0.0205512 -1.82488 0
M  V30 1869 C 173.989 -3.41159 -1.19552 0
M  V30 1870 O 173.71 -4.37694 -0.188577 0
M  V30 1871 C 175.211 -3.98188 -1.94837 0
M  V30 1872 H 172.431 -0.654228 -0.149088 0
M  V30 1873 H 174.975 -2.03598 0.19183 0
M  V30 1874 H 173.13 -3.37711 -1.89815 0
M  V30 1875 H 173.544 -5.20469 -0.649014 0
M  V30 1876 H 175.018 -4.99644 -2.34648 0
M  V30 1877 H 175.495 -3.3675 -2.81951 0
M  V30 1878 H 176.101 -4.0515 -1.2936 0
M  V30 1879 N 174.416 0.165178 -1.56732 0
M  V30 1880 C 175.664 0.879068 -1.8198 0
M  V30 1881 C 175.985 1.82514 -0.686561 0
M  V30 1882 O 175.255 1.93694 0.293146 0
M  V30 1883 H 173.835 0.327608 -0.671329 0
M  V30 1884 H 176.497 0.163526 -1.94213 0
M  V30 1885 H 175.593 1.45228 -2.76252 0
M  V30 1886 N 175.894 1.51508 0.433938 0
M  V30 1887 C 177.305 1.56784 1.01369 0
M  V30 1888 C 177.656 0.393349 1.92217 0
M  V30 1889 O 176.781 -0.489441 2.10792 0
M  V30 1890 C 177.376 2.84144 1.8452 0
M  V30 1891 C 175.935 2.9198 2.37539 0
M  V30 1892 C 175.082 2.51482 1.16843 0
M  V30 1893 H 178.033 1.57236 0.215081 0
M  V30 1894 H 178.054 2.68098 2.70007 0
M  V30 1895 H 177.566 3.69607 1.18373 0
M  V30 1896 H 175.667 2.10955 3.0713 0
M  V30 1897 H 175.78 3.95704 2.70103 0
M  V30 1898 H 174.144 2.04758 1.51481 0
M  V30 1899 H 174.927 3.39293 0.523015 0
M  V30 1900 N 177.372 -0.689602 1.41712 0
M  V30 1901 C 178.62 -1.4468 1.4111 0
M  V30 1902 C 178.941 -1.94986 0.0232196 0
M  V30 1903 O 178.211 -1.72097 -0.935913 0
M  V30 1904 H 176.791 -0.536847 0.519427 0
M  V30 1905 H 179.453 -0.815825 1.77004 0
M  V30 1906 H 178.549 -2.30706 2.10193 0
M  V30 1907 N 178.85 -1.27639 -0.924453 0
M  V30 1908 C 179.797 -1.10644 -2.0255 0
M  V30 1909 C 180.767 -0.00658438 -1.66099 0
M  V30 1910 O 181.952 -0.16952 -1.90045 0
M  V30 1911 C 179.092 -0.76309 -3.36557 0
M  V30 1912 C 178.205 -1.94091 -3.85944 0
M  V30 1913 C 177.34 -1.53914 -5.08413 0
M  V30 1914 C 176.379 -2.68425 -5.50104 0
M  V30 1915 N 175.516 -2.28815 -6.63768 0
M  V30 1916 H 180.356 -2.04858 -2.16419 0
M  V30 1917 H 177.893 -1.01974 -1.06017 0
M  V30 1918 H 179.851 -0.544822 -4.13627 0
M  V30 1919 H 178.481 0.142102 -3.22487 0
M  V30 1920 H 177.533 -2.27162 -3.05125 0
M  V30 1921 H 178.845 -2.7998 -4.12811 0
M  V30 1922 H 177.999 -1.28231 -5.92994 0
M  V30 1923 H 176.738 -0.651391 -4.8333 0
M  V30 1924 H 175.743 -2.94819 -4.64071 0
M  V30 1925 H 176.968 -3.57826 -5.7718 0
M  V30 1926 H 174.914 -1.42495 -6.40337 0
M  V30 1927 H 174.831 -3.08242 -6.90306 0
M  V30 1928 H 176.099 -2.06387 -7.51681 0
M  V30 1929 N 180.328 1.1314 -1.09713 0
M  V30 1930 C 181.553 1.88862 -0.857081 0
M  V30 1931 C 181.978 1.78729 0.586304 0
M  V30 1932 O 181.336 1.13692 1.41222 0
M  V30 1933 C 181.384 3.36325 -1.30069 0
M  V30 1934 O 180.488 4.09815 -0.461007 0
M  V30 1935 H 179.829 0.587108 -0.310162 0
M  V30 1936 H 182.359 1.43129 -1.46203 0
M  V30 1937 H 182.369 3.87157 -1.28738 0
M  V30 1938 H 181.044 3.43017 -2.35185 0
M  V30 1939 H 179.621 3.68986 -0.538888 0
M  V30 1940 N 181.806 0.884767 1.30421 0
M  V30 1941 C 183.053 0.503105 1.96151 0
M  V30 1942 C 183.381 -0.947676 1.69851 0
M  V30 1943 O 182.636 -1.68467 0.995861 0
M  V30 1944 C 182.935 0.724318 3.49983 0
M  V30 1945 C 182.601 2.15015 3.96332 0
M  V30 1946 C 181.263 2.54005 4.08699 0
M  V30 1947 C 183.615 3.07936 4.20505 0
M  V30 1948 C 180.943 3.85128 4.42599 0
M  V30 1949 C 183.295 4.3859 4.55874 0
M  V30 1950 C 181.959 4.77474 4.66449 0
M  V30 1951 H 181.229 0.184099 0.717766 0
M  V30 1952 H 183.876 1.12058 1.55291 0
M  V30 1953 H 182.181 0.0238086 3.91793 0
M  V30 1954 H 183.878 0.408617 3.98913 0
M  V30 1955 H 180.468 1.8375 3.87213 0
M  V30 1956 H 184.652 2.79033 4.10431 0
M  V30 1957 H 179.908 4.14996 4.48986 0
M  V30 1958 H 184.082 5.10629 4.7353 0
M  V30 1959 H 181.709 5.79115 4.92473 0
M  V30 1960 N 183.284 -1.43765 0.645699 0
M  V30 1961 C 184.524 -2.03776 0.159542 0
M  V30 1962 C 184.888 -1.49792 -1.2011 0
M  V30 1963 O 186.089 -2.01398 -1.78023 0
M  V30 1964 C 184.36 -3.57036 0.161251 0
M  V30 1965 S 185.919 -4.3804 -0.258159 0
M  V30 1966 H 182.737 -0.707717 0.0682454 0
M  V30 1967 H 185.339 -1.75941 0.852352 0
M  V30 1968 H 184.043 -3.9383 1.15439 0
M  V30 1969 H 183.574 -3.89503 -0.552339 0
M  V30 1970 H 185.589 -4.7302 -1.49889 0
M  V30 1971 N 184.763 -0.387143 -1.52771 0
M  V30 1972 C 186.01 0.195735 -2.01552 0
M  V30 1973 C 186.338 1.46995 -1.27369 0
M  V30 1974 O 185.593 1.92325 -0.361879 0
M  V30 1975 C 185.892 0.512209 -3.53711 0
M  V30 1976 C 185.558 -0.670202 -4.45891 0
M  V30 1977 C 184.22 -0.994586 -4.70809 0
M  V30 1978 C 186.572 -1.46134 -5.00294 0
M  V30 1979 C 183.9 -2.11169 -5.4738 0
M  V30 1980 C 186.252 -2.56903 -5.78086 0
M  V30 1981 C 184.916 -2.89852 -6.01284 0
M  V30 1982 H 184.186 0.0716246 -0.73753 0
M  V30 1983 H 186.833 -0.524046 -1.8419 0
M  V30 1984 H 185.138 1.31329 -3.69134 0
M  V30 1985 H 186.835 0.975804 -3.88946 0
M  V30 1986 H 183.425 -0.407366 -4.2666 0
M  V30 1987 H 187.609 -1.22397 -4.80971 0
M  V30 1988 H 182.865 -2.3707 -5.63567 0
M  V30 1989 H 187.039 -3.18608 -6.19243 0
M  V30 1990 H 184.666 -3.76533 -6.60399 0
M  V30 1991 N 186.241 1.57166 -0.116904 0
M  V30 1992 C 187.204 2.14039 0.819742 0
M  V30 1993 C 188.204 1.07477 1.19605 0
M  V30 1994 O 189.394 1.33263 1.1219 0
M  V30 1995 C 186.526 2.67891 2.10826 0
M  V30 1996 H 187.719 2.98128 0.325511 0
M  V30 1997 H 185.272 1.55739 0.132312 0
M  V30 1998 H 186.007 1.87384 2.64685 0
M  V30 1999 H 185.792 3.45823 1.84793 0
M  V30 2000 H 187.282 3.11809 2.77785 0
M  V30 2001 N 187.719 -0.156864 1.56817 0
M  V30 2002 C 188.947 -0.886316 1.86955 0
M  V30 2003 C 189.362 -1.75185 0.703975 0
M  V30 2004 O 188.719 -1.79555 -0.326552 0
M  V30 2005 C 188.77 -1.75117 3.16253 0
M  V30 2006 O 188.491 -0.920537 4.2832 0
M  V30 2007 C 189.992 -2.58905 3.59837 0
M  V30 2008 H 187.212 -0.25678 0.619923 0
M  V30 2009 H 189.756 -0.152615 2.0393 0
M  V30 2010 H 187.911 -2.43805 3.01062 0
M  V30 2011 H 188.325 -1.51337 5.02192 0
M  V30 2012 H 189.799 -3.1518 4.53172 0
M  V30 2013 H 190.276 -3.34472 2.84649 0
M  V30 2014 H 190.882 -1.95526 3.7769 0
M  V30 2015 N 189.197 -1.51736 -0.425897 0
M  V30 2016 C 190.16 -1.73271 -1.50032 0
M  V30 2017 C 191.16 -0.602639 -1.4908 0
M  V30 2018 O 192.35 -0.87033 -1.509 0
M  V30 2019 C 189.482 -1.79969 -2.89523 0
M  V30 2020 H 190.675 -2.69172 -1.32237 0
M  V30 2021 H 188.228 -1.41899 -0.65532 0
M  V30 2022 H 188.963 -0.859241 -3.1271 0
M  V30 2023 H 188.748 -2.62109 -2.91619 0
M  V30 2024 H 190.238 -1.9843 -3.67444 0
M  V30 2025 N 190.675 0.682077 -1.42076 0
M  V30 2026 C 191.623 1.81707 -1.45208 0
M  V30 2027 C 192.617 1.66183 -0.328591 0
M  V30 2028 O 193.823 1.7288 -0.501264 0
M  V30 2029 H 190.198 0.599014 -0.454628 0
M  V30 2030 H 192.169 1.76183 -2.40836 0
M  V30 2031 C 190.918 3.19816 -1.36428 0
M  V30 2032 H 190.241 3.32385 -2.22171 0
M  V30 2033 H 191.681 3.99272 -1.42681 0
M  V30 2034 C 190.14 3.36809 -0.078191 0
M  V30 2035 O 190.67 3.92124 0.87188 0
M  V30 2036 N 188.876 2.906 0.00229266 0
M  V30 2037 H 188.423 2.45772 -0.771616 0
M  V30 2038 H 188.381 3.02347 0.862179 0
M  V30 2039 N 192.153 1.28127 0.917671 0
M  V30 2040 C 193.399 1.15223 1.66888 0
M  V30 2041 C 193.732 -0.299293 1.9188 0
M  V30 2042 O 193.007 -1.21805 1.51637 0
M  V30 2043 C 193.29 1.94706 3.02922 0
M  V30 2044 C 193.143 3.47898 2.85109 0
M  V30 2045 C 194.462 1.75939 4.03402 0
M  V30 2046 H 191.581 0.419946 0.605652 0
M  V30 2047 H 194.223 1.57398 1.06423 0
M  V30 2048 H 192.373 1.58864 3.54534 0
M  V30 2049 H 194.045 3.93624 2.40537 0
M  V30 2050 H 192.288 3.7373 2.20246 0
M  V30 2051 H 192.959 3.98765 3.81694 0
M  V30 2052 H 195.435 2.07209 3.60837 0
M  V30 2053 H 194.311 2.33931 4.96556 0
M  V30 2054 H 194.572 0.709877 4.36364 0
M  V30 2055 N 193.631 -1.12557 1.10312 0
M  V30 2056 C 194.871 -1.8568 0.854543 0
M  V30 2057 C 195.235 -1.82091 -0.608843 0
M  V30 2058 O 196.436 -2.50544 -0.973717 0
M  V30 2059 C 194.707 -3.2942 1.38626 0
M  V30 2060 S 196.266 -4.19931 1.27293 0
M  V30 2061 H 193.084 -0.640427 0.308827 0
M  V30 2062 H 195.686 -1.35599 1.40831 0
M  V30 2063 H 194.39 -3.2959 2.44537 0
M  V30 2064 H 193.921 -3.84566 0.82902 0
M  V30 2065 H 195.936 -4.95668 0.229776 0
M  V30 2066 N 195.109 -0.891671 -1.2995 0
M  V30 2067 C 196.039 -0.379797 -2.30391 0
M  V30 2068 C 197.02 0.540919 -1.6127 0
M  V30 2069 O 198.205 0.453352 -1.88834 0
M  V30 2070 C 195.335 0.400654 -3.44981 0
M  V30 2071 C 194.289 -0.428905 -4.25846 0
M  V30 2072 C 193.615 0.478557 -5.32554 0
M  V30 2073 C 194.915 -1.67458 -4.94727 0
M  V30 2074 H 196.609 -1.21914 -2.73454 0
M  V30 2075 H 194.155 -0.587675 -1.31462 0
M  V30 2076 H 196.108 0.769434 -4.14316 0
M  V30 2077 H 194.832 1.27371 -3.0074 0
M  V30 2078 H 193.491 -0.779911 -3.58208 0
M  V30 2079 H 193.139 1.34951 -4.84559 0
M  V30 2080 H 192.839 -0.0727433 -5.87555 0
M  V30 2081 H 194.363 0.843705 -6.04743 0
M  V30 2082 H 195.777 -1.376 -5.56542 0
M  V30 2083 H 194.174 -2.16659 -5.59624 0
M  V30 2084 H 195.244 -2.41518 -4.20473 0
M  V30 2085 N 196.587 1.43421 -0.653314 0
M  V30 2086 C 197.517 2.33487 0.0246656 0
M  V30 2087 C 198.498 1.49475 0.811863 0
M  V30 2088 O 199.683 1.78139 0.773322 0
M  V30 2089 C 196.813 3.32841 0.99166 0
M  V30 2090 C 195.767 4.26842 0.314568 0
M  V30 2091 C 195.093 5.16236 1.39302 0
M  V30 2092 C 196.393 5.16243 -0.793095 0
M  V30 2093 H 198.087 2.90427 -0.727481 0
M  V30 2094 H 195.633 1.39649 -0.351287 0
M  V30 2095 H 197.586 3.94747 1.47487 0
M  V30 2096 H 196.31 2.74158 1.77497 0
M  V30 2097 H 194.969 3.663 -0.148199 0
M  V30 2098 H 194.617 4.53891 2.16776 0
M  V30 2099 H 194.317 5.79948 0.945223 0
M  V30 2100 H 195.841 5.81015 1.87759 0
M  V30 2101 H 197.255 5.71958 -0.392039 0
M  V30 2102 H 195.652 5.88676 -1.16536 0
M  V30 2103 H 196.722 4.55927 -1.65103 0
M  V30 2104 N 198.065 0.39524 1.52563 0
M  V30 2105 C 199.476 -0.0774719 1.86539 0
M  V30 2106 C 199.827 -1.45641 1.31466 0
M  V30 2107 O 198.952 -2.06459 0.648367 0
M  V30 2108 C 199.547 -0.147356 3.38479 0
M  V30 2109 C 198.106 -0.564373 3.72145 0
M  V30 2110 C 197.253 0.269919 2.75983 0
M  V30 2111 H 200.204 0.612876 1.46388 0
M  V30 2112 H 200.225 -0.965343 3.68051 0
M  V30 2113 H 199.737 0.856387 3.78534 0
M  V30 2114 H 197.838 -1.57527 3.37663 0
M  V30 2115 H 197.951 -0.318402 4.78041 0
M  V30 2116 H 196.315 -0.265696 2.5331 0
M  V30 2117 H 197.098 1.27175 3.18875 0
M  V30 2118 N 199.544 -1.57102 0.125237 0
M  V30 2119 C 200.821 -1.86953 -0.575142 0
M  V30 2120 C 201.201 -1.02749 -1.84407 0
M  V30 2121 O 200.549 -0.108144 -2.28244 0
M  V30 2122 C 200.759 -3.38198 -0.861583 0
M  V30 2123 C 202.107 -4.06937 -1.21192 0
M  V30 2124 O 203.131 -3.43252 -0.951645 0
M  V30 2125 O 201.99 -5.19364 -1.70068 0
M  V30 2126 H 199.084 -0.774147 -0.290906 0
M  V30 2127 H 201.63 -1.68942 0.160211 0
M  V30 2128 H 200.402 -3.91282 0.0373647 0
M  V30 2129 H 200.025 -3.61661 -1.65188 0
M  V30 2130 N 201.022 0.148545 -1.56898 0
M  V30 2131 C 202.247 0.880385 -1.87787 0
M  V30 2132 C 202.672 1.74018 -0.714093 0
M  V30 2133 O 202.03 1.78153 0.336343 0
M  V30 2134 C 202.078 1.71422 -3.17249 0
M  V30 2135 O 201.182 2.8183 -3.01074 0
M  V30 2136 H 200.523 0.245301 -0.617028 0
M  V30 2137 H 203.053 0.139826 -2.04122 0
M  V30 2138 H 203.063 2.10954 -3.49231 0
M  V30 2139 H 201.738 1.08284 -4.01556 0
M  V30 2140 H 200.315 2.45715 -2.80497 0
M  V30 2141 N 202.5 1.5196 0.417844 0
M  V30 2142 C 203.43 1.77634 1.51554 0
M  V30 2143 C 204.411 0.626918 1.58126 0
M  V30 2144 O 205.596 0.871632 1.7354 0
M  V30 2145 C 202.726 1.91911 2.8946 0
M  V30 2146 C 201.68 3.07463 2.97743 0
M  V30 2147 C 201.006 3.06951 4.37819 0
M  V30 2148 C 202.306 4.47082 2.70027 0
M  V30 2149 H 204 2.6955 1.3032 0
M  V30 2150 H 201.546 1.29706 0.625492 0
M  V30 2151 H 203.499 2.08455 3.6623 0
M  V30 2152 H 202.223 0.966598 3.11969 0
M  V30 2153 H 200.882 2.90656 2.23416 0
M  V30 2154 H 200.53 2.09438 4.57323 0
M  V30 2155 H 200.23 3.84556 4.44286 0
M  V30 2156 H 201.754 3.25613 5.16535 0
M  V30 2157 H 203.168 4.6414 3.36522 0
M  V30 2158 H 201.565 5.2654 2.87881 0
M  V30 2159 H 202.635 4.55777 1.65514 0
M  V30 2160 N 203.978 -0.674533 1.42435 0
M  V30 2161 C 204.941 -1.76986 1.45632 0
M  V30 2162 C 205.941 -1.5708 0.343871 0
M  V30 2163 O 207.131 -1.63367 0.604709 0
M  V30 2164 C 204.263 -3.15623 1.28822 0
M  V30 2165 H 205.456 -1.75539 2.43158 0
M  V30 2166 H 203.009 -0.884189 1.28887 0
M  V30 2167 H 203.744 -3.22696 0.322193 0
M  V30 2168 H 203.529 -3.31475 2.09444 0
M  V30 2169 H 205.019 -3.95537 1.33942 0
M  V30 2170 N 205.456 -1.28612 -0.910864 0
M  V30 2171 C 206.872 -1.06381 -1.18976 0
M  V30 2172 C 207.072 0.191998 -2.00583 0
M  V30 2173 O 206.128 0.892869 -2.36187 0
M  V30 2174 C 207.441 -2.31295 -1.92154 0
M  V30 2175 C 208.989 -2.36503 -2.05025 0
M  V30 2176 C 209.464 -3.61191 -2.81612 0
M  V30 2177 N 210.955 -3.61847 -2.89172 0
M  V30 2178 C 211.69 -4.55004 -3.4894 0
M  V30 2179 N 211.186 -5.58482 -4.09963 0
M  V30 2180 N 212.979 -4.42594 -3.46506 0
M  V30 2181 H 205.13 -2.09221 -0.366094 0
M  V30 2182 H 207.393 -0.921003 -0.224629 0
M  V30 2183 H 207.099 -3.228 -1.39618 0
M  V30 2184 H 206.973 -2.37934 -2.9269 0
M  V30 2185 H 209.36 -1.45494 -2.5674 0
M  V30 2186 H 209.441 -2.33857 -1.03657 0
M  V30 2187 H 209.085 -4.52545 -2.30576 0
M  V30 2188 H 209.015 -3.61092 -3.83302 0
M  V30 2189 H 211.506 -2.87022 -2.45819 0
M  V30 2190 H 211.819 -6.25704 -4.53557 0
M  V30 2191 H 210.164 -5.62305 -4.08459 0
M  V30 2192 H 213.355 -3.60953 -2.98045 0
M  V30 2193 H 213.528 -5.15381 -3.92793 0
M  V30 2194 N 206.934 1.1197 -1.10907 0
M  V30 2195 C 208.18 1.8386 -0.855773 0
M  V30 2196 C 208.513 1.84134 0.617103 0
M  V30 2197 O 207.788 1.29041 1.45529 0
M  V30 2198 C 208.071 3.31305 -1.411 0
M  V30 2199 C 207.924 3.39456 -2.9511 0
M  V30 2200 C 209.243 4.2721 -1.05736 0
M  V30 2201 H 206.362 0.667545 -0.312334 0
M  V30 2202 H 209.004 1.31331 -1.37303 0
M  V30 2203 H 207.154 3.76169 -0.97105 0
M  V30 2204 H 208.826 3.03191 -3.47668 0
M  V30 2205 H 207.069 2.79849 -3.31462 0
M  V30 2206 H 207.74 4.43209 -3.29044 0
M  V30 2207 H 210.216 3.90497 -1.43706 0
M  V30 2208 H 209.092 5.28775 -1.47269 0
M  V30 2209 H 209.353 4.42088 0.0325958 0
M  V30 2210 N 208.412 0.89855 1.29475 0
M  V30 2211 C 209.36 0.365253 2.29714 0
M  V30 2212 C 210.354 -0.534993 1.6073 0
M  V30 2213 O 211.56 -0.417921 1.75081 0
M  V30 2214 H 207.935 0.0994853 0.74539 0
M  V30 2215 H 209.906 1.22406 2.72138 0
M  V30 2216 C 208.655 -0.393159 3.4547 0
M  V30 2217 H 207.978 0.290332 3.98744 0
M  V30 2218 H 209.418 -0.731189 4.17648 0
M  V30 2219 C 207.877 -1.59539 2.9673 0
M  V30 2220 O 208.407 -2.69469 2.97908 0
M  V30 2221 N 206.613 -1.43716 2.52575 0
M  V30 2222 H 206.16 -0.542828 2.51816 0
M  V30 2223 H 206.118 -2.24288 2.20323 0
M  V30 2224 N 209.89 -1.43072 0.660911 0
M  V30 2225 C 210.838 -2.32569 -0.0378199 0
M  V30 2226 C 211.832 -1.49046 -0.805092 0
M  V30 2227 O 213.038 -1.65206 -0.714624 0
M  V30 2228 H 209.413 -0.75136 -0.031019 0
M  V30 2229 H 211.384 -2.89216 0.734609 0
M  V30 2230 C 210.133 -3.33453 -0.985124 0
M  V30 2231 H 209.456 -3.97752 -0.404147 0
M  V30 2232 H 210.896 -3.98691 -1.44297 0
M  V30 2233 C 209.355 -2.64642 -2.08486 0
M  V30 2234 O 209.885 -2.46776 -3.16961 0
M  V30 2235 N 208.091 -2.23891 -1.8526 0
M  V30 2236 H 207.638 -2.38621 -0.970449 0
M  V30 2237 H 207.596 -1.78181 -2.59034 0
M  V30 2238 N 211.368 -0.403325 -1.52352 0
M  V30 2239 C 212.298 0.416205 -2.29761 0
M  V30 2240 C 213.279 1.05123 -1.33728 0
M  V30 2241 O 214.464 1.06134 -1.62632 0
M  V30 2242 C 211.594 1.53624 -3.11475 0
M  V30 2243 C 210.548 1.02653 -4.15507 0
M  V30 2244 C 209.874 2.23971 -4.85532 0
M  V30 2245 C 211.174 0.08463 -5.22231 0
M  V30 2246 H 212.868 -0.229701 -2.98518 0
M  V30 2247 H 210.414 -0.111913 -1.43564 0
M  V30 2248 H 212.367 2.1165 -3.64393 0
M  V30 2249 H 211.091 2.20994 -2.40477 0
M  V30 2250 H 209.75 0.46871 -3.63591 0
M  V30 2251 H 209.398 2.89883 -4.11068 0
M  V30 2252 H 209.098 1.90521 -5.55856 0
M  V30 2253 H 210.622 2.82614 -5.41259 0
M  V30 2254 H 212.036 0.573509 -5.70424 0
M  V30 2255 H 210.433 -0.160783 -5.99885 0
M  V30 2256 H 211.503 -0.86237 -4.7717 0
M  V30 2257 N 212.846 1.57033 -0.133567 0
M  V30 2258 C 214.093 1.95686 0.520877 0
M  V30 2259 C 214.421 1.0177 1.6575 0
M  V30 2260 O 213.676 0.0443195 1.9565 0
M  V30 2261 C 213.975 3.40674 1.08057 0
M  V30 2262 C 213.641 4.50855 0.0637899 0
M  V30 2263 C 212.303 4.80716 -0.215757 0
M  V30 2264 C 214.655 5.17398 -0.62835 0
M  V30 2265 C 211.983 5.74433 -1.19348 0
M  V30 2266 C 214.335 6.12167 -1.5948 0
M  V30 2267 C 212.999 6.40414 -1.88218 0
M  V30 2268 H 212.269 0.716067 0.190602 0
M  V30 2269 H 214.916 1.9026 -0.217556 0
M  V30 2270 H 213.221 3.42865 1.89606 0
M  V30 2271 H 214.918 3.67902 1.59529 0
M  V30 2272 H 211.508 4.27605 0.291855 0
M  V30 2273 H 215.692 4.94472 -0.425562 0
M  V30 2274 H 210.948 5.94616 -1.42272 0
M  V30 2275 H 215.122 6.6281 -2.13671 0
M  V30 2276 H 212.749 7.12838 -2.64133 0
M  V30 2277 N 214.325 -0.140222 1.56975 0
M  V30 2278 C 215.273 -1.19207 1.99731 0
M  V30 2279 C 216.267 -1.44089 0.890777 0
M  V30 2280 O 217.473 -1.44301 1.07597 0
M  V30 2281 H 213.848 -0.40142 0.635898 0
M  V30 2282 H 215.819 -0.804813 2.87342 0
M  V30 2283 C 214.568 -2.51617 2.39967 0
M  V30 2284 H 213.891 -2.33303 3.24669 0
M  V30 2285 H 215.331 -3.23827 2.73701 0
M  V30 2286 C 213.79 -3.12654 1.25496 0
M  V30 2287 O 214.32 -3.97786 0.559371 0
M  V30 2288 N 212.526 -2.72206 1.01746 0
M  V30 2289 H 212.073 -2.03074 1.58489 0
M  V30 2290 H 212.031 -3.13377 0.253461 0
M  V30 2291 N 215.803 -1.52179 -0.40978 0
M  V30 2292 C 217.031 -1.70054 -1.17853 0
M  V30 2293 C 217.446 -0.409735 -1.843 0
M  V30 2294 O 216.803 0.614183 -1.71855 0
M  V30 2295 C 216.854 -2.83568 -2.24213 0
M  V30 2296 O 216.575 -4.0765 -1.60478 0
M  V30 2297 C 218.076 -3.12947 -3.13973 0
M  V30 2298 H 215.296 -0.569917 -0.354169 0
M  V30 2299 H 217.84 -1.98734 -0.482198 0
M  V30 2300 H 215.995 -2.57409 -2.89516 0
M  V30 2301 H 216.409 -4.70899 -2.30986 0
M  V30 2302 H 217.883 -3.95889 -3.84677 0
M  V30 2303 H 218.36 -2.26472 -3.76307 0
M  V30 2304 H 218.966 -3.40868 -2.5434 0
M  V30 2305 N 217.281 0.66697 -1.42791 0
M  V30 2306 C 218.213 1.7925 -1.42836 0
M  V30 2307 C 219.226 1.59496 -0.326333 0
M  V30 2308 O 220.415 1.6847 -0.589916 0
M  V30 2309 C 217.515 3.16476 -1.21229 0
M  V30 2310 C 216.688 3.63011 -2.44013 0
M  V30 2311 C 215.747 4.78993 -2.17834 0
M  V30 2312 O 214.773 4.89137 -2.91091 0
M  V30 2313 N 215.975 5.68248 -1.18635 0
M  V30 2314 H 218.74 1.79695 -2.39854 0
M  V30 2315 H 216.301 0.850338 -1.37771 0
M  V30 2316 H 218.293 3.91734 -1.01621 0
M  V30 2317 H 216.863 3.10884 -0.32706 0
M  V30 2318 H 216.083 2.78346 -2.79137 0
M  V30 2319 H 217.371 3.90845 -3.25757 0
M  V30 2320 H 216.769 5.62712 -0.580615 0
M  V30 2321 H 215.326 6.43285 -1.05013 0
M  V30 2322 N 218.759 1.29093 0.90403 0
M  V30 2323 C 219.722 1.1386 1.98919 0
M  V30 2324 C 220.722 0.0753457 1.60623 0
M  V30 2325 O 221.912 0.321931 1.71199 0
M  V30 2326 C 219.044 0.740198 3.32767 0
M  V30 2327 H 220.237 2.10246 2.13861 0
M  V30 2328 H 217.79 1.12218 1.08797 0
M  V30 2329 H 218.525 -0.223997 3.23525 0
M  V30 2330 H 218.31 1.50838 3.61926 0
M  V30 2331 H 219.8 0.656546 4.12407 0
M  V30 2332 N 220.237 -1.11381 1.11499 0
M  V30 2333 C 221.653 -1.35143 0.849031 0
M  V30 2334 C 221.853 -1.94515 -0.525938 0
M  V30 2335 O 220.909 -2.1785 -1.27662 0
M  V30 2336 C 222.222 -2.28249 1.95762 0
M  V30 2337 C 223.77 -2.41812 1.98736 0
M  V30 2338 C 224.245 -3.3824 3.088 0
M  V30 2339 N 225.736 -3.45803 3.08179 0
M  V30 2340 C 226.471 -4.20358 3.89982 0
M  V30 2341 N 225.967 -4.97884 4.8175 0
M  V30 2342 N 227.76 -4.15877 3.78157 0
M  V30 2343 H 219.911 -0.712062 2.00109 0
M  V30 2344 H 222.174 -0.376025 0.870235 0
M  V30 2345 H 221.88 -1.91817 2.94787 0
M  V30 2346 H 221.754 -3.28473 1.85433 0
M  V30 2347 H 224.141 -2.77518 1.00338 0
M  V30 2348 H 224.222 -1.41437 2.13141 0
M  V30 2349 H 223.866 -3.03261 4.07425 0
M  V30 2350 H 223.796 -4.38471 2.91635 0
M  V30 2351 H 226.287 -2.90506 2.41691 0
M  V30 2352 H 226.6 -5.52142 5.40702 0
M  V30 2353 H 224.945 -4.97043 4.85771 0
M  V30 2354 H 228.136 -3.544 3.05808 0
M  V30 2355 H 228.309 -4.73723 4.42143 0
M  V30 2356 N 221.715 -0.905404 -1.28997 0
M  V30 2357 C 222.678 -0.392253 -2.25819 0
M  V30 2358 C 223.678 0.476753 -1.5357 0
M  V30 2359 O 224.868 0.280994 -1.71919 0
M  V30 2360 C 222 0.438588 -3.38067 0
M  V30 2361 H 223.193 -1.24743 -2.72725 0
M  V30 2362 H 220.746 -0.684051 -1.40536 0
M  V30 2363 H 221.481 1.31352 -2.96508 0
M  V30 2364 H 221.266 -0.184167 -3.91667 0
M  V30 2365 H 222.756 0.78873 -4.10084 0
M  V30 2366 N 223.193 1.4272 -0.668489 0
M  V30 2367 C 224.14 2.30796 0.0137489 0
M  V30 2368 C 225.11 1.4561 0.799177 0
M  V30 2369 O 226.295 1.74453 0.772702 0
M  V30 2370 C 223.435 3.31377 0.963507 0
M  V30 2371 C 222.548 4.31655 0.172569 0
M  V30 2372 C 221.683 5.19312 1.1175 0
M  V30 2373 C 220.722 6.11274 0.317886 0
M  V30 2374 N 219.859 6.91504 1.2152 0
M  V30 2375 H 224.699 2.88585 -0.743161 0
M  V30 2376 H 222.236 1.42154 -0.378226 0
M  V30 2377 H 224.194 3.88214 1.52792 0
M  V30 2378 H 222.824 2.75202 1.68712 0
M  V30 2379 H 221.876 3.76988 -0.508374 0
M  V30 2380 H 223.188 4.96779 -0.448527 0
M  V30 2381 H 222.342 5.80851 1.75206 0
M  V30 2382 H 221.081 4.5435 1.77249 0
M  V30 2383 H 220.086 5.48809 -0.329918 0
M  V30 2384 H 221.311 6.78283 -0.332917 0
M  V30 2385 H 219.257 6.29176 1.85671 0
M  V30 2386 H 219.174 7.53209 0.649036 0
M  V30 2387 H 220.442 7.57535 1.83742 0
M  V30 2388 N 224.671 0.411399 1.52136 0
M  V30 2389 C 225.581 -0.419774 2.30814 0
M  V30 2390 C 226.597 -1.0515 1.38634 0
M  V30 2391 O 227.773 -1.05252 1.71709 0
M  V30 2392 C 224.838 -1.52019 3.11594 0
M  V30 2393 C 223.899 -0.91129 4.19516 0
M  V30 2394 C 223.132 -1.95927 4.96436 0
M  V30 2395 O 223.355 -3.17775 4.73683 0
M  V30 2396 O 222.289 -1.56423 5.81219 0
M  V30 2397 H 226.115 0.221805 3.02889 0
M  V30 2398 H 223.7 0.174547 1.48377 0
M  V30 2399 H 225.582 -2.15898 3.61892 0
M  V30 2400 H 224.257 -2.14633 2.42311 0
M  V30 2401 H 223.164 -0.235157 3.7336 0
M  V30 2402 H 224.497 -0.32904 4.91099 0
M  V30 2403 N 226.149 -1.5696 0.141893 0
M  V30 2404 C 227.398 -1.95135 -0.510427 0
M  V30 2405 C 227.711 -1.02896 -1.66348 0
M  V30 2406 O 228.917 -1.30629 -2.38009 0
M  V30 2407 C 227.373 -3.46876 -0.959427 0
M  V30 2408 C 226.981 -4.47691 0.166419 0
M  V30 2409 C 228.725 -3.93927 -1.58183 0
M  V30 2410 C 226.632 -5.90636 -0.300565 0
M  V30 2411 H 225.562 -0.728494 -0.194454 0
M  V30 2412 H 228.213 -1.8211 0.22542 0
M  V30 2413 H 226.595 -3.55215 -1.75038 0
M  V30 2414 H 227.769 -4.51043 0.94325 0
M  V30 2415 H 226.084 -4.10527 0.696905 0
M  V30 2416 H 228.681 -4.98158 -1.94275 0
M  V30 2417 H 229.024 -3.3519 -2.46888 0
M  V30 2418 H 229.557 -3.88484 -0.855863 0
M  V30 2419 H 226.296 -6.5318 0.550989 0
M  V30 2420 H 225.816 -5.90655 -1.04338 0
M  V30 2421 H 227.495 -6.42588 -0.754265 0
M  V30 2422 N 227.627 0.131896 -1.57047 0
M  V30 2423 C 228.875 0.840269 -1.83804 0
M  V30 2424 C 229.196 1.81017 -0.72512 0
M  V30 2425 O 228.466 1.94272 0.251995 0
M  V30 2426 H 227.046 0.313294 -0.678127 0
M  V30 2427 H 229.708 0.122294 -1.94516 0
M  V30 2428 H 228.804 1.39335 -2.79271 0
M  V30 2429 N 229.106 1.52395 0.401703 0
M  V30 2430 C 230.038 1.72505 1.50912 0
M  V30 2431 C 231.051 0.605468 1.51122 0
M  V30 2432 O 232.24 0.880828 1.55254 0
M  V30 2433 C 229.34 1.75711 2.89791 0
M  V30 2434 C 228.513 3.04824 3.1369 0
M  V30 2435 C 227.572 2.99743 4.32482 0
M  V30 2436 O 226.598 3.73635 4.29402 0
M  V30 2437 N 227.8 2.18047 5.37992 0
M  V30 2438 H 230.565 2.68049 1.34052 0
M  V30 2439 H 228.126 1.50724 0.591084 0
M  V30 2440 H 230.118 1.69834 3.6734 0
M  V30 2441 H 228.688 0.876092 3.00072 0
M  V30 2442 H 227.908 3.2429 2.24119 0
M  V30 2443 H 229.196 3.90221 3.26504 0
M  V30 2444 H 228.594 1.57456 5.43345 0
M  V30 2445 H 227.151 2.18021 6.14256 0
M  V30 2446 N 230.584 -0.659388 1.43143 0
M  V30 2447 C 232 -0.974337 1.26407 0
M  V30 2448 C 232.2 -2.007 0.179341 0
M  V30 2449 O 231.256 -2.4856 -0.444295 0
M  V30 2450 C 232.569 -1.46447 2.62628 0
M  V30 2451 C 234.117 -1.58144 2.7011 0
M  V30 2452 C 234.592 -2.1055 4.06734 0
M  V30 2453 N 236.083 -2.17861 4.08767 0
M  V30 2454 C 236.818 -2.59519 5.1131 0
M  V30 2455 N 236.314 -3.00518 6.24228 0
M  V30 2456 N 238.107 -2.59404 4.98664 0
M  V30 2457 H 230.258 0.0240528 2.12386 0
M  V30 2458 H 232.521 -0.0518065 0.946583 0
M  V30 2459 H 232.227 -0.780123 3.42939 0
M  V30 2460 H 232.101 -2.44058 2.87603 0
M  V30 2461 H 234.488 -2.25682 1.90136 0
M  V30 2462 H 234.569 -0.589828 2.48907 0
M  V30 2463 H 234.213 -1.43616 4.87172 0
M  V30 2464 H 234.143 -3.10531 4.25298 0
M  V30 2465 H 236.634 -1.88975 3.27257 0
M  V30 2466 H 236.947 -3.31036 6.98309 0
M  V30 2467 H 235.292 -2.98337 6.2771 0
M  V30 2468 H 238.483 -2.26747 4.09516 0
M  V30 2469 H 238.656 -2.91548 5.78709 0
M  V30 2470 N 232.062 -1.29571 -0.897171 0
M  V30 2471 C 233.311 -1.1706 -1.64256 0
M  V30 2472 C 233.624 0.276476 -1.93636 0
M  V30 2473 O 234.83 0.52294 -2.66416 0
M  V30 2474 C 233.286 -2.0475 -2.95982 0
M  V30 2475 C 232.894 -3.54295 -2.74187 0
M  V30 2476 C 234.638 -2.0097 -3.73914 0
M  V30 2477 C 232.545 -4.34081 -4.01656 0
M  V30 2478 H 231.475 -0.43452 -0.616205 0
M  V30 2479 H 234.126 -1.54229 -0.994268 0
M  V30 2480 H 232.508 -1.60452 -3.62038 0
M  V30 2481 H 233.682 -4.06662 -2.1671 0
M  V30 2482 H 231.997 -3.59773 -2.09648 0
M  V30 2483 H 234.594 -2.57838 -4.68427 0
M  V30 2484 H 234.937 -0.990273 -4.0435 0
M  V30 2485 H 235.47 -2.43325 -3.14703 0
M  V30 2486 H 232.209 -5.36671 -3.76384 0
M  V30 2487 H 231.729 -3.86483 -4.58684 0
M  V30 2488 H 233.408 -4.44877 -4.69781 0
M  V30 2489 N 233.54 1.10788 -1.12088 0
M  V30 2490 C 234.956 1.34691 -0.856186 0
M  V30 2491 C 235.156 1.94791 0.515615 0
M  V30 2492 O 234.212 2.18524 1.26505 0
M  V30 2493 C 235.525 2.27208 -1.9697 0
M  V30 2494 C 237.073 2.40755 -2.00016 0
M  V30 2495 C 237.548 3.36598 -3.1059 0
M  V30 2496 N 239.039 3.44164 -3.10008 0
M  V30 2497 C 239.774 4.18284 -3.92206 0
M  V30 2498 N 239.27 4.95322 -4.84384 0
M  V30 2499 N 241.063 4.13865 -3.80357 0
M  V30 2500 H 233.214 0.70144 -2.00483 0
M  V30 2501 H 235.477 0.371405 -0.872217 0
M  V30 2502 H 235.183 1.90251 -2.958 0
M  V30 2503 H 235.057 3.27485 -1.87172 0
M  V30 2504 H 237.444 2.76982 -1.01808 0
M  V30 2505 H 237.525 1.40305 -2.13888 0
M  V30 2506 H 237.169 3.01096 -4.09028 0
M  V30 2507 H 237.099 4.36918 -2.93956 0
M  V30 2508 H 239.59 2.8922 -2.43228 0
M  V30 2509 H 239.903 5.49267 -5.43623 0
M  V30 2510 H 238.248 4.94459 -4.884 0
M  V30 2511 H 241.439 3.52773 -3.07683 0
M  V30 2512 H 241.612 4.71372 -4.44649 0
M  V30 2513 N 235.018 0.912232 1.28515 0
M  V30 2514 C 235.966 0.389597 2.29314 0
M  V30 2515 C 236.96 -0.517915 1.61289 0
M  V30 2516 O 238.166 -0.399328 1.75515 0
M  V30 2517 H 234.541 0.107386 0.744293 0
M  V30 2518 H 236.512 1.25286 2.70825 0
M  V30 2519 C 235.261 -0.356496 3.45868 0
M  V30 2520 H 234.584 0.332608 3.98414 0
M  V30 2521 H 236.024 -0.686851 4.184 0
M  V30 2522 C 234.483 -1.56383 2.98406 0
M  V30 2523 O 235.013 -2.66294 3.00749 0
M  V30 2524 N 233.219 -1.41029 2.54085 0
M  V30 2525 H 232.766 -0.516089 2.52377 0
M  V30 2526 H 232.724 -2.21939 2.22689 0
M  V30 2527 N 236.496 -1.42363 0.676048 0
M  V30 2528 C 237.744 -2.01123 0.198437 0
M  V30 2529 C 238.065 -1.53731 -1.19966 0
M  V30 2530 O 237.335 -0.759518 -1.80577 0
M  V30 2531 H 235.915 -0.743678 0.0703721 0
M  V30 2532 H 238.577 -1.74263 0.872837 0
M  V30 2533 H 237.673 -3.11454 0.200686 0
M  V30 2534 N 237.974 -0.419461 -1.51915 0
M  V30 2535 C 238.937 0.389116 -2.25873 0
M  V30 2536 C 239.937 0.964924 -1.28631 0
M  V30 2537 O 241.127 0.842179 -1.52489 0
M  V30 2538 C 238.259 1.54874 -3.03689 0
M  V30 2539 H 239.452 -0.258799 -2.98781 0
M  V30 2540 H 237.005 -0.172209 -1.55348 0
M  V30 2541 H 237.74 2.23323 -2.35154 0
M  V30 2542 H 237.525 1.14223 -3.75094 0
M  V30 2543 H 239.015 2.12046 -3.59759 0
M  V30 2544 N 239.452 1.56882 -0.150215 0
M  V30 2545 C 240.415 2.1573 0.774157 0
M  V30 2546 C 241.415 1.0999 1.17298 0
M  V30 2547 O 242.605 1.35613 1.09338 0
M  V30 2548 C 239.737 2.72302 2.05096 0
M  V30 2549 H 240.93 2.98752 0.262201 0
M  V30 2550 H 238.483 1.55985 0.099248 0
M  V30 2551 H 239.218 1.92956 2.6065 0
M  V30 2552 H 239.003 3.49665 1.77416 0
M  V30 2553 H 240.493 3.17632 2.71109 0
M  V30 2554 N 240.93 -0.123565 1.57115 0
M  V30 2555 C 242.346 -0.476961 1.52306 0
M  V30 2556 C 242.546 -1.82109 0.86248 0
M  V30 2557 O 241.602 -2.48586 0.442884 0
M  V30 2558 C 242.915 -0.465661 2.97073 0
M  V30 2559 C 244.463 -0.549534 3.08138 0
M  V30 2560 C 244.938 -0.568669 4.54456 0
M  V30 2561 N 246.429 -0.630237 4.58892 0
M  V30 2562 C 247.164 -0.666415 5.69514 0
M  V30 2563 N 246.66 -0.660514 6.89644 0
M  V30 2564 N 248.453 -0.709077 5.5761 0
M  V30 2565 H 240.604 0.757198 1.98445 0
M  V30 2566 H 242.867 0.278808 0.906074 0
M  V30 2567 H 242.573 0.454232 3.48754 0
M  V30 2568 H 242.447 -1.29513 3.54269 0
M  V30 2569 H 244.834 -1.45985 2.56461 0
M  V30 2570 H 244.915 0.307532 2.53945 0
M  V30 2571 H 244.559 0.337581 5.06777 0
M  V30 2572 H 244.489 -1.44256 5.06456 0
M  V30 2573 H 246.98 -0.641146 3.72421 0
M  V30 2574 H 247.293 -0.690616 7.69708 0
M  V30 2575 H 245.638 -0.628012 6.92157 0
M  V30 2576 H 248.829 -0.711019 4.62668 0
M  V30 2577 H 249.002 -0.733804 6.43832 0
M  V30 2578 N 242.408 -1.52605 -0.393616 0
M  V30 2579 C 243.819 -1.59417 -0.971761 0
M  V30 2580 C 244.17 -0.444173 -1.91106 0
M  V30 2581 O 243.295 0.433382 -2.12016 0
M  V30 2582 C 243.89 -2.88936 -1.76921 0
M  V30 2583 C 242.449 -2.98175 -2.29714 0
M  V30 2584 C 241.596 -2.54491 -1.10135 0
M  V30 2585 H 244.547 -1.57751 -0.173317 0
M  V30 2586 H 244.568 -2.75163 -2.62804 0
M  V30 2587 H 244.08 -3.72616 -1.08532 0
M  V30 2588 H 242.181 -2.19024 -3.01429 0
M  V30 2589 H 242.294 -4.02726 -2.59517 0
M  V30 2590 H 240.658 -2.08702 -1.45999 0
M  V30 2591 H 241.441 -3.4056 -0.432874 0
M  V30 2592 N 243.887 0.651787 -1.4349 0
M  V30 2593 C 244.819 1.77725 -1.44729 0
M  V30 2594 C 245.832 1.59141 -0.343231 0
M  V30 2595 O 247.021 1.67835 -0.607751 0
M  V30 2596 C 244.121 3.15172 -1.24579 0
M  V30 2597 C 243.294 3.60402 -2.47849 0
M  V30 2598 C 242.353 4.76656 -2.22902 0
M  V30 2599 O 241.379 4.86022 -2.96263 0
M  V30 2600 N 242.581 5.66958 -1.24656 0
M  V30 2601 H 245.346 1.77141 -2.41746 0
M  V30 2602 H 242.907 0.835678 -1.38665 0
M  V30 2603 H 244.899 3.90634 -1.0577 0
M  V30 2604 H 243.469 3.1052 -0.360015 0
M  V30 2605 H 242.689 2.75369 -2.82073 0
M  V30 2606 H 243.977 3.87368 -3.29884 0
M  V30 2607 H 243.375 5.62065 -0.640265 0
M  V30 2608 H 241.932 6.42135 -1.1183 0
M  V30 2609 N 245.365 1.30045 0.890287 0
M  V30 2610 C 246.614 1.17929 1.63633 0
M  V30 2611 C 246.927 -0.266204 1.9378 0
M  V30 2612 O 248.133 -0.508804 2.6669 0
M  V30 2613 C 246.589 2.06317 2.94892 0
M  V30 2614 C 246.197 3.55745 2.72305 0
M  V30 2615 C 247.941 2.0295 3.72843 0
M  V30 2616 C 245.848 4.36205 3.99348 0
M  V30 2617 H 244.778 0.437782 0.613892 0
M  V30 2618 H 247.429 1.54754 0.986075 0
M  V30 2619 H 245.811 1.6237 3.61182 0
M  V30 2620 H 246.985 4.07805 2.1455 0
M  V30 2621 H 245.3 3.6088 2.07737 0
M  V30 2622 H 247.897 2.60319 4.67053 0
M  V30 2623 H 248.24 1.0117 4.0382 0
M  V30 2624 H 248.773 2.4499 3.13408 0
M  V30 2625 H 245.512 5.38659 3.73533 0
M  V30 2626 H 245.032 3.8891 4.56628 0
M  V30 2627 H 246.711 4.47362 4.67415 0
M  V30 2628 N 246.843 -1.10192 1.12674 0
M  V30 2629 C 247.79 -2.16606 0.796906 0
M  V30 2630 C 248.76 -1.64394 -0.237476 0
M  V30 2631 O 249.945 -1.90474 -0.111484 0
M  V30 2632 C 247.085 -3.44116 0.26043 0
M  V30 2633 C 246.198 -4.10268 1.35293 0
M  V30 2634 C 245.333 -5.25507 0.775621 0
M  V30 2635 C 244.372 -5.83567 1.84706 0
M  V30 2636 N 243.509 -6.90179 1.28829 0
M  V30 2637 H 248.349 -2.44163 1.70846 0
M  V30 2638 H 245.886 -1.19846 0.85295 0
M  V30 2639 H 247.844 -4.17143 -0.0686814 0
M  V30 2640 H 246.474 -3.16901 -0.614274 0
M  V30 2641 H 245.526 -3.35184 1.79877 0
M  V30 2642 H 246.838 -4.4946 2.16303 0
M  V30 2643 H 245.992 -6.05398 0.397327 0
M  V30 2644 H 244.731 -4.87656 -0.0656581 0
M  V30 2645 H 243.736 -5.02344 2.23452 0
M  V30 2646 H 244.961 -6.23482 2.69161 0
M  V30 2647 H 242.907 -6.54322 0.468881 0
M  V30 2648 H 242.824 -7.28097 2.03497 0
M  V30 2649 H 244.092 -7.73844 0.937311 0
M  V30 2650 N 248.321 -0.919034 -1.28029 0
M  V30 2651 C 249.57 -0.550802 -1.94034 0
M  V30 2652 C 249.883 0.910877 -1.73096 0
M  V30 2653 O 251.089 1.3875 -2.33368 0
M  V30 2654 C 249.545 -0.934249 -3.47563 0
M  V30 2655 C 249.153 -2.41602 -3.7727 0
M  V30 2656 C 250.897 -0.636854 -4.19696 0
M  V30 2657 C 248.804 -2.73932 -5.24133 0
M  V30 2658 H 247.734 -0.202273 -0.726362 0
M  V30 2659 H 250.385 -1.11867 -1.45458 0
M  V30 2660 H 248.767 -0.295115 -3.94899 0
M  V30 2661 H 249.941 -3.10233 -3.40723 0
M  V30 2662 H 248.256 -2.68441 -3.18321 0
M  V30 2663 H 250.853 -0.855005 -5.2782 0
M  V30 2664 H 251.196 0.425575 -4.14119 0
M  V30 2665 H 251.729 -1.23469 -3.78154 0
M  V30 2666 H 248.468 -3.79049 -5.34792 0
M  V30 2667 H 247.988 -2.09942 -5.61858 0
M  V30 2668 H 249.667 -2.61215 -5.91925 0
M  V30 2669 N 249.799 1.42003 -0.683588 0
M  V30 2670 C 251.029 2.05448 -0.217866 0
M  V30 2671 C 251.437 1.51491 1.13346 0
M  V30 2672 O 250.78 0.653048 1.717 0
M  V30 2673 C 250.842 3.59399 -0.0850118 0
M  V30 2674 C 250.506 4.36093 -1.36645 0
M  V30 2675 C 251.503 4.66169 -2.30179 0
M  V30 2676 C 249.188 4.75578 -1.61649 0
M  V30 2677 C 251.182 5.34676 -3.46988 0
M  V30 2678 C 248.869 5.43824 -2.78745 0
M  V30 2679 C 249.867 5.73299 -3.71238 0
M  V30 2680 O 249.555 6.40142 -4.86285 0
M  V30 2681 H 249.287 0.668344 -0.101454 0
M  V30 2682 H 251.841 1.82974 -0.933248 0
M  V30 2683 H 250.071 3.80566 0.686031 0
M  V30 2684 H 251.76 4.04457 0.341973 0
M  V30 2685 H 252.526 4.36156 -2.12115 0
M  V30 2686 H 248.405 4.52025 -0.905243 0
M  V30 2687 H 251.949 5.57599 -4.19201 0
M  V30 2688 H 247.846 5.73254 -2.96732 0
M  V30 2689 H 248.614 6.58636 -4.85944 0
M  V30 2690 N 251.277 0.427512 1.51691 0
M  V30 2691 C 252.526 -0.143679 2.01188 0
M  V30 2692 C 252.839 -1.44642 1.31674 0
M  V30 2693 O 254.045 -2.09997 1.72086 0
M  V30 2694 C 252.501 -0.306602 3.58592 0
M  V30 2695 C 252.109 0.985125 4.37035 0
M  V30 2696 C 253.853 -0.832091 4.16265 0
M  V30 2697 C 251.76 0.788382 5.86122 0
M  V30 2698 H 250.69 -0.0574701 0.751807 0
M  V30 2699 H 253.341 0.555772 1.74881 0
M  V30 2700 H 251.723 -1.06882 3.81303 0
M  V30 2701 H 252.897 1.75492 4.26074 0
M  V30 2702 H 251.212 1.4384 3.90767 0
M  V30 2703 H 253.809 -0.995617 5.25349 0
M  V30 2704 H 254.152 -1.81186 3.74803 0
M  V30 2705 H 254.685 -0.128444 3.97593 0
M  V30 2706 H 251.424 1.74025 6.31978 0
M  V30 2707 H 250.944 0.0582143 5.99772 0
M  V30 2708 H 252.623 0.437722 6.45518 0
M  V30 2709 N 252.755 -1.56801 0.158532 0
M  V30 2710 C 254.032 -1.88131 -0.535357 0
M  V30 2711 C 254.412 -1.06638 -1.82186 0
M  V30 2712 O 253.76 -0.156533 -2.27963 0
M  V30 2713 C 253.97 -3.39949 -0.789653 0
M  V30 2714 C 255.318 -4.09416 -1.12533 0
M  V30 2715 O 256.342 -3.45194 -0.878622 0
M  V30 2716 O 255.201 -5.22855 -1.59014 0
M  V30 2717 H 252.295 -0.780143 -0.27442 0
M  V30 2718 H 254.841 -1.68564 0.19601 0
M  V30 2719 H 253.613 -3.91115 0.120353 0
M  V30 2720 H 253.236 -3.65084 -1.57479 0
M  V30 2721 N 254.233 0.115231 -1.57178 0
M  V30 2722 C 255.458 0.840354 -1.89612 0
M  V30 2723 C 255.883 1.72464 -0.750845 0
M  V30 2724 O 255.241 1.78826 0.298478 0
M  V30 2725 C 255.289 1.64654 -3.20814 0
M  V30 2726 O 254.393 2.7538 -3.06985 0
M  V30 2727 H 253.734 0.232158 -0.622092 0
M  V30 2728 H 256.264 0.0964977 -2.04372 0
M  V30 2729 H 256.274 2.03499 -3.53627 0
M  V30 2730 H 254.949 0.997416 -4.03763 0
M  V30 2731 H 253.526 2.3971 -2.85646 0
M  V30 2732 N 255.711 1.52812 0.385517 0
M  V30 2733 C 257.122 1.5993 0.963293 0
M  V30 2734 C 257.473 0.454302 1.90868 0
M  V30 2735 O 256.598 -0.422132 2.12243 0
M  V30 2736 C 257.193 2.89871 1.75387 0
M  V30 2737 C 255.752 2.99389 2.28129 0
M  V30 2738 C 254.899 2.55071 1.08783 0
M  V30 2739 H 257.85 1.5784 0.164948 0
M  V30 2740 H 257.871 2.76553 2.61341 0
M  V30 2741 H 257.383 3.73186 1.06554 0
M  V30 2742 H 255.484 2.20619 3.00263 0
M  V30 2743 H 255.597 4.04096 2.57377 0
M  V30 2744 H 253.961 2.09473 1.4489 0
M  V30 2745 H 254.744 3.40785 0.414807 0
M  V30 2746 N 257.189 -0.644168 1.43834 0
M  V30 2747 C 258.417 -1.43147 1.49387 0
M  V30 2748 C 258.832 -1.88452 0.114583 0
M  V30 2749 O 258.189 -1.60047 -0.876989 0
M  V30 2750 C 258.24 -2.66046 2.44748 0
M  V30 2751 O 257.961 -2.22633 3.77314 0
M  V30 2752 C 259.462 -3.59311 2.59635 0
M  V30 2753 H 256.682 -0.439447 0.507077 0
M  V30 2754 H 259.226 -0.78895 1.88669 0
M  V30 2755 H 257.381 -3.26418 2.08638 0
M  V30 2756 H 257.795 -3.02216 4.28679 0
M  V30 2757 H 259.269 -4.42187 3.30416 0
M  V30 2758 H 259.746 -4.07259 1.64427 0
M  V30 2759 H 260.352 -3.04816 2.96593 0
M  V30 2760 N 258.668 -1.30515 -0.883378 0
M  V30 2761 C 259.616 -1.16941 -2.01066 0
M  V30 2762 C 260.61 -0.0809148 -1.69207 0
M  V30 2763 O 261.816 -0.241877 -1.78367 0
M  V30 2764 H 258.191 -0.361705 -0.659298 0
M  V30 2765 H 260.162 -2.12344 -2.09649 0
M  V30 2766 C 258.911 -0.879694 -3.36388 0
M  V30 2767 H 258.234 -1.70936 -3.61415 0
M  V30 2768 H 259.674 -0.82483 -4.159 0
M  V30 2769 C 258.133 0.417409 -3.34304 0
M  V30 2770 O 258.663 1.43843 -3.75063 0
M  V30 2771 N 256.869 0.429141 -2.87414 0
M  V30 2772 H 256.416 -0.402222 -2.5444 0
M  V30 2773 H 256.374 1.29696 -2.86403 0
M  V30 2774 N 260.146 1.09593 -1.13257 0
M  V30 2775 C 261.374 1.855 -0.916378 0
M  V30 2776 C 261.789 1.81069 0.534738 0
M  V30 2777 O 261.146 1.20562 1.37007 0
M  V30 2778 C 261.197 3.33546 -1.39388 0
M  V30 2779 O 260.918 3.37927 -2.78813 0
M  V30 2780 C 262.419 4.26299 -1.21588 0
M  V30 2781 H 259.639 0.585991 -0.326887 0
M  V30 2782 H 262.183 1.38488 -1.5047 0
M  V30 2783 H 260.338 3.77992 -0.848597 0
M  V30 2784 H 260.752 4.30254 -2.9997 0
M  V30 2785 H 262.226 5.28341 -1.59876 0
M  V30 2786 H 262.703 4.38918 -0.157376 0
M  V30 2787 H 263.309 3.87668 -1.7491 0
M  V30 2788 N 261.624 0.925811 1.2754 0
M  V30 2789 C 262.849 0.580924 1.99098 0
M  V30 2790 C 263.274 -0.833555 1.68622 0
M  V30 2791 O 262.632 -1.55903 0.925422 0
M  V30 2792 C 262.68 0.811186 3.51358 0
M  V30 2793 O 261.784 -0.124129 4.12213 0
M  V30 2794 H 261.125 0.223873 0.625122 0
M  V30 2795 H 263.655 1.24455 1.62395 0
M  V30 2796 H 263.665 0.72601 4.01489 0
M  V30 2797 H 262.34 1.84227 3.72872 0
M  V30 2798 H 260.917 0.0108006 3.72898 0
M  V30 2799 N 263.102 -1.41638 0.69111 0
M  V30 2800 C 264.351 -2.00526 0.217318 0
M  V30 2801 C 264.664 -1.55353 -1.18848 0
M  V30 2802 O 265.87 -2.06769 -1.75951 0
M  V30 2803 C 264.326 -3.58313 0.337639 0
M  V30 2804 C 263.934 -4.12469 1.74852 0
M  V30 2805 C 265.678 -4.24431 -0.0766066 0
M  V30 2806 C 263.585 -5.62675 1.82074 0
M  V30 2807 H 262.515 -0.750008 0.0774893 0
M  V30 2808 H 265.166 -1.6217 0.858661 0
M  V30 2809 H 263.548 -3.9425 -0.371879 0
M  V30 2810 H 264.722 -3.8796 2.48644 0
M  V30 2811 H 263.037 -3.58861 2.11205 0
M  V30 2812 H 265.634 -5.34683 -0.0430284 0
M  V30 2813 H 265.977 -4.01101 -1.1146 0
M  V30 2814 H 266.51 -3.93512 0.582476 0
M  V30 2815 H 263.249 -5.90826 2.83911 0
M  V30 2816 H 262.769 -5.89124 1.12661 0
M  V30 2817 H 264.448 -6.27371 1.58159 0
M  V30 2818 N 264.58 -0.43555 -1.51462 0
M  V30 2819 C 265.805 0.132627 -2.06976 0
M  V30 2820 C 266.23 1.35848 -1.30104 0
M  V30 2821 O 265.588 1.78112 -0.338493 0
M  V30 2822 C 265.636 0.43523 -3.57964 0
M  V30 2823 O 264.74 1.52198 -3.83288 0
M  V30 2824 H 264.081 0.00265 -0.663995 0
M  V30 2825 H 266.611 -0.616369 -1.95095 0
M  V30 2826 H 266.621 0.686206 -4.02188 0
M  V30 2827 H 265.296 -0.460739 -4.1334 0
M  V30 2828 H 263.873 1.2611 -3.50928 0
M  V30 2829 N 266.058 1.56714 -0.166846 0
M  V30 2830 C 267.021 2.16539 0.751232 0
M  V30 2831 C 268.021 1.11228 1.16125 0
M  V30 2832 O 269.211 1.36765 1.07894 0
M  V30 2833 C 266.343 2.74462 2.02196 0
M  V30 2834 H 267.536 2.99013 0.230499 0
M  V30 2835 H 265.089 1.56081 0.0826982 0
M  V30 2836 H 265.824 1.95709 2.58589 0
M  V30 2837 H 265.609 3.51527 1.73698 0
M  V30 2838 H 267.099 3.20489 2.67725 0
M  V30 2839 N 267.536 -0.106894 1.57237 0
M  V30 2840 C 268.499 -1.11466 2.0027 0
M  V30 2841 C 269.499 -1.33623 0.894519 0
M  V30 2842 O 270.689 -1.29935 1.16028 0
M  V30 2843 C 267.821 -2.46646 2.35327 0
M  V30 2844 H 269.014 -0.744516 2.90512 0
M  V30 2845 H 266.567 -0.351576 1.52295 0
M  V30 2846 H 267.302 -2.88558 1.48003 0
M  V30 2847 H 267.087 -2.31915 3.16161 0
M  V30 2848 H 268.577 -3.19151 2.69318 0
M  V30 2849 N 269.014 -1.53014 -0.377408 0
M  V30 2850 C 270.239 -1.72818 -1.14668 0
M  V30 2851 C 270.664 -0.450725 -1.8262 0
M  V30 2852 O 270.022 0.59439 -1.7128 0
M  V30 2853 C 270.07 -2.88627 -2.16164 0
M  V30 2854 O 269.174 -2.56409 -3.22998 0
M  V30 2855 H 268.515 -0.574301 -0.333278 0
M  V30 2856 H 271.045 -1.99853 -0.438152 0
M  V30 2857 H 271.055 -3.14455 -2.59966 0
M  V30 2858 H 269.73 -3.81294 -1.66095 0
M  V30 2859 H 268.307 -2.4136 -2.84253 0
M  V30 2860 N 270.492 0.636531 -1.44174 0
M  V30 2861 C 271.739 1.39619 -1.46672 0
M  V30 2862 C 272.067 1.94257 -0.0972691 0
M  V30 2863 O 271.322 1.73768 0.900175 0
M  V30 2864 C 271.621 2.58309 -2.47005 0
M  V30 2865 C 271.287 2.21992 -3.92467 0
M  V30 2866 C 269.949 2.118 -4.32081 0
M  V30 2867 C 272.301 1.9321 -4.84065 0
M  V30 2868 C 269.629 1.71007 -5.61225 0
M  V30 2869 C 271.981 1.53911 -6.13591 0
M  V30 2870 C 270.645 1.42257 -6.52165 0
M  V30 2871 H 269.915 0.510902 -0.536712 0
M  V30 2872 H 272.562 0.722328 -1.77355 0
M  V30 2873 H 270.867 3.30903 -2.09786 0
M  V30 2874 H 272.564 3.16533 -2.46186 0
M  V30 2875 H 269.154 2.30841 -3.61124 0
M  V30 2876 H 273.338 1.99997 -4.54219 0
M  V30 2877 H 268.594 1.60583 -5.89935 0
M  V30 2878 H 272.768 1.30677 -6.8403 0
M  V30 2879 H 270.395 1.10419 -7.52138 0
M  V30 2880 N 271.97 1.30982 0.876444 0
M  V30 2881 C 273.195 1.23373 1.66715 0
M  V30 2882 C 273.62 -0.19885 1.87046 0
M  V30 2883 O 272.978 -1.1427 1.40756 0
M  V30 2884 C 273.026 1.97644 3.01611 0
M  V30 2885 O 272.13 1.30935 3.91062 0
M  V30 2886 H 271.471 0.426279 0.509099 0
M  V30 2887 H 274.001 1.72944 1.09323 0
M  V30 2888 H 274.011 2.06992 3.51594 0
M  V30 2889 H 272.686 3.01829 2.86133 0
M  V30 2890 H 271.263 1.29996 3.49507 0
M  V30 2891 N 273.449 -1.08991 1.13837 0
M  V30 2892 C 274.674 -1.85551 0.926585 0
M  V30 2893 C 275.099 -1.80782 -0.519566 0
M  V30 2894 O 274.457 -1.18855 -1.36906 0
M  V30 2895 C 274.505 -3.31266 1.42462 0
M  V30 2896 O 273.609 -4.07822 0.612789 0
M  V30 2897 H 272.95 -0.575192 0.331738 0
M  V30 2898 H 275.48 -1.37604 1.51414 0
M  V30 2899 H 275.49 -3.82112 1.43019 0
M  V30 2900 H 274.165 -3.34052 2.47754 0
M  V30 2901 H 272.742 -3.66731 0.675463 0
M  V30 2902 N 274.927 -0.932562 -1.27047 0
M  V30 2903 C 275.857 -0.452902 -2.29066 0
M  V30 2904 C 276.838 0.489338 -1.62909 0
M  V30 2905 O 278.023 0.393046 -1.90181 0
M  V30 2906 C 275.153 0.290698 -3.46081 0
M  V30 2907 C 274.107 -0.564168 -4.24265 0
M  V30 2908 C 273.433 0.308886 -5.33807 0
M  V30 2909 C 274.733 -1.83112 -4.89149 0
M  V30 2910 H 276.427 -1.30552 -2.69437 0
M  V30 2911 H 273.973 -0.629201 -1.29526 0
M  V30 2912 H 275.926 0.637233 -4.16554 0
M  V30 2913 H 274.65 1.17738 -3.0464 0
M  V30 2914 H 273.309 -0.893477 -3.55545 0
M  V30 2915 H 272.957 1.19467 -4.88607 0
M  V30 2916 H 272.657 -0.259633 -5.87026 0
M  V30 2917 H 274.181 0.650884 -6.07121 0
M  V30 2918 H 275.595 -1.55236 -5.51883 0
M  V30 2919 H 273.992 -2.34353 -5.52448 0
M  V30 2920 H 275.062 -2.54772 -4.12576 0
M  V30 2921 N 276.405 1.4127 -0.698611 0
M  V30 2922 C 277.651 2.01478 -0.231207 0
M  V30 2923 C 277.984 1.55215 1.16713 0
M  V30 2924 O 277.259 0.764672 1.78838 0
M  V30 2925 C 277.542 3.58912 -0.292281 0
M  V30 2926 C 277.395 4.15293 -1.72778 0
M  V30 2927 C 278.714 4.38736 0.346194 0
M  V30 2928 H 275.833 0.732025 -0.0854878 0
M  V30 2929 H 278.475 1.67977 -0.887906 0
M  V30 2930 H 276.625 3.87582 0.26686 0
M  V30 2931 H 278.297 3.97486 -2.341 0
M  V30 2932 H 276.54 3.7022 -2.26096 0
M  V30 2933 H 277.211 5.24452 -1.72202 0
M  V30 2934 H 279.687 4.15897 -0.130035 0
M  V30 2935 H 278.563 5.48221 0.272932 0
M  V30 2936 H 278.824 4.18425 1.42734 0
M  V30 2937 N 277.883 0.443576 1.51229 0
M  V30 2938 C 279.108 -0.121648 2.07043 0
M  V30 2939 C 279.533 -1.35156 1.30823 0
M  V30 2940 O 278.891 -1.7793 0.347934 0
M  V30 2941 C 278.939 -0.41624 3.5819 0
M  V30 2942 O 278.043 -1.50163 3.8409 0
M  V30 2943 H 277.384 0.000871367 0.663999 0
M  V30 2944 H 279.914 0.626706 1.94765 0
M  V30 2945 H 279.924 -0.664867 4.02546 0
M  V30 2946 H 278.599 0.482653 4.1309 0
M  V30 2947 H 277.176 -1.24248 3.51592 0
M  V30 2948 N 279.361 -1.56624 0.175154 0
M  V30 2949 C 280.772 -1.83561 -0.340916 0
M  V30 2950 C 281.123 -1.09511 -1.62794 0
M  V30 2951 O 280.248 -0.349389 -2.13561 0
M  V30 2952 C 280.843 -3.32979 -0.625313 0
M  V30 2953 C 279.402 -3.60399 -1.08581 0
M  V30 2954 C 278.549 -2.77024 -0.123722 0
M  V30 2955 H 281.5 -1.53593 0.399344 0
M  V30 2956 H 281.521 -3.50666 -1.47694 0
M  V30 2957 H 281.033 -3.86847 0.311575 0
M  V30 2958 H 279.134 -3.11945 -2.03767 0
M  V30 2959 H 279.247 -4.68711 -0.992317 0
M  V30 2960 H 277.611 -2.46993 -0.621821 0
M  V30 2961 H 278.394 -3.33674 0.807256 0
M  V30 2962 N 280.839 0.0985539 -1.57292 0
M  V30 2963 C 281.771 1.14595 -1.98496 0
M  V30 2964 C 282.784 1.36512 -0.887031 0
M  V30 2965 O 283.973 1.35225 -1.16518 0
M  V30 2966 C 281.073 2.50216 -2.28572 0
M  V30 2967 C 280.246 2.48624 -3.59868 0
M  V30 2968 C 279.305 3.66146 -3.7792 0
M  V30 2969 O 278.331 3.48795 -4.49812 0
M  V30 2970 N 279.533 4.85496 -3.18235 0
M  V30 2971 H 282.298 0.795277 -2.88956 0
M  V30 2972 H 279.859 0.287579 -1.59325 0
M  V30 2973 H 281.851 3.27432 -2.37845 0
M  V30 2974 H 280.421 2.77387 -1.44136 0
M  V30 2975 H 279.641 1.56978 -3.61596 0
M  V30 2976 H 280.929 2.44635 -4.46129 0
M  V30 2977 H 280.327 5.02497 -2.59833 0
M  V30 2978 H 278.884 5.60317 -3.32999 0
M  V30 2979 N 282.317 1.53212 0.369288 0
M  V30 2980 C 283.565 1.68881 1.11012 0
M  V30 2981 C 283.886 0.441285 1.89941 0
M  V30 2982 O 283.156 -0.544623 1.88177 0
M  V30 2983 H 281.736 0.622569 0.412816 0
M  V30 2984 H 284.398 1.90391 0.416802 0
M  V30 2985 H 283.494 2.54822 1.80201 0
M  V30 2986 N 283.795 -0.628877 1.44509 0
M  V30 2987 C 285.043 -1.38565 1.4712 0
M  V30 2988 C 285.364 -1.94712 0.105899 0
M  V30 2989 O 284.634 -1.75912 -0.862079 0
M  V30 2990 H 283.214 -0.514333 0.541729 0
M  V30 2991 H 285.876 -0.740018 1.80305 0
M  V30 2992 H 284.972 -2.21583 2.19789 0
M  V30 2993 N 285.273 -1.31445 -0.869486 0
M  V30 2994 C 286.55 -1.11795 -1.60503 0
M  V30 2995 C 286.93 0.327168 -2.08549 0
M  V30 2996 O 286.278 1.32135 -1.8642 0
M  V30 2997 C 286.488 -2.13258 -2.76265 0
M  V30 2998 C 287.836 -2.45805 -3.46215 0
M  V30 2999 O 288.86 -2.11688 -2.86473 0
M  V30 3000 O 287.719 -3.04228 -4.5399 0
M  V30 3001 H 284.813 -0.430421 -0.706163 0
M  V30 3002 H 287.359 -1.42925 -0.914907 0
M  V30 3003 H 286.131 -3.10461 -2.3818 0
M  V30 3004 H 285.754 -1.83035 -3.52964 0
M  V30 3005 N 286.751 1.08385 -1.14413 0
M  V30 3006 C 287.999 1.80419 -0.910679 0
M  V30 3007 C 288.32 1.86658 0.564243 0
M  V30 3008 O 287.59 1.35985 1.41014 0
M  V30 3009 H 286.17 0.668204 -0.333934 0
M  V30 3010 H 288.832 1.31037 -1.44275 0
M  V30 3011 H 287.928 2.83238 -1.31082 0
M  V30 3012 N 288.23 0.939286 1.26551 0
M  V30 3013 C 289.476 0.586715 1.94128 0
M  V30 3014 C 289.809 -0.8717 1.73537 0
M  V30 3015 O 289.084 -1.62339 1.07127 0
M  V30 3016 C 289.367 0.927497 3.4795 0
M  V30 3017 C 289.22 2.44052 3.77834 0
M  V30 3018 C 290.539 0.441569 4.37879 0
M  V30 3019 H 287.658 0.21463 0.705055 0
M  V30 3020 H 290.3 1.17316 1.49455 0
M  V30 3021 H 288.45 0.428431 3.8613 0
M  V30 3022 H 290.122 3.01216 3.4938 0
M  V30 3023 H 288.365 2.8848 3.23978 0
M  V30 3024 H 289.036 2.62947 4.85348 0
M  V30 3025 H 291.512 0.869448 4.06915 0
M  V30 3026 H 290.388 0.708856 5.44304 0
M  V30 3027 H 290.649 -0.658467 4.37169 0
M  V30 3028 N 289.708 -1.40897 0.706093 0
M  V30 3029 C 290.671 -2.29131 0.0562841 0
M  V30 3030 C 291.671 -1.44901 -0.697166 0
M  V30 3031 O 292.861 -1.65926 -0.530484 0
M  V30 3032 C 289.993 -3.27957 -0.93043 0
M  V30 3033 H 291.186 -2.88091 0.833284 0
M  V30 3034 H 288.739 -1.4906 0.470192 0
M  V30 3035 H 289.474 -2.73997 -1.73482 0
M  V30 3036 H 289.259 -3.90124 -0.393166 0
M  V30 3037 H 290.749 -3.94049 -1.38256 0
M  V30 3038 N 291.186 -0.45159 -1.50991 0
M  V30 3039 C 292.602 -0.104647 -1.59257 0
M  V30 3040 C 292.802 1.38728 -1.4614 0
M  V30 3041 O 291.858 2.15866 -1.30989 0
M  V30 3042 C 293.171 -0.637468 -2.93865 0
M  V30 3043 C 294.719 -0.599166 -3.07212 0
M  V30 3044 C 295.194 -1.1092 -4.44366 0
M  V30 3045 N 296.685 -1.06778 -4.50725 0
M  V30 3046 C 297.42 -1.43314 -5.55201 0
M  V30 3047 N 296.916 -1.87204 -6.67028 0
M  V30 3048 N 298.709 -1.3504 -5.45638 0
M  V30 3049 H 290.86 -1.42214 -1.57762 0
M  V30 3050 H 293.123 -0.586921 -0.744465 0
M  V30 3051 H 292.829 -1.68187 -3.08879 0
M  V30 3052 H 292.703 -0.0702139 -3.77135 0
M  V30 3053 H 295.09 0.436277 -2.91857 0
M  V30 3054 H 295.171 -1.20299 -2.25747 0
M  V30 3055 H 294.815 -2.14318 -4.60467 0
M  V30 3056 H 294.745 -0.481773 -5.24392 0
M  V30 3057 H 297.236 -0.745643 -3.70471 0
M  V30 3058 H 297.549 -2.13282 -7.42786 0
M  V30 3059 H 295.894 -1.91142 -6.68199 0
M  V30 3060 H 299.085 -1.00607 -4.57161 0
M  V30 3061 H 299.258 -1.63841 -6.26945 0
M  V30 3062 N 292.664 1.56529 -0.183458 0
M  V30 3063 C 293.627 2.17324 0.728223 0
M  V30 3064 C 294.627 1.12453 1.14939 0
M  V30 3065 O 295.817 1.37902 1.06437 0
M  V30 3066 C 292.949 2.76591 1.99274 0
M  V30 3067 H 294.142 2.99241 0.198772 0
M  V30 3068 H 291.695 1.5616 0.0661391 0
M  V30 3069 H 292.43 1.98441 2.56499 0
M  V30 3070 H 292.215 3.5335 1.69959 0
M  V30 3071 H 293.705 3.23311 2.6431 0
M  V30 3072 N 294.142 -0.090211 1.57342 0
M  V30 3073 C 295.388 -0.793982 1.86611 0
M  V30 3074 C 295.721 -1.78142 0.773252 0
M  V30 3075 O 294.996 -1.93271 -0.218304 0
M  V30 3076 C 295.279 -1.51839 3.26523 0
M  V30 3077 C 295.132 -0.548609 4.46442 0
M  V30 3078 C 296.451 -2.46779 3.64401 0
M  V30 3079 H 293.57 -0.287186 0.678744 0
M  V30 3080 H 296.212 -0.0575076 1.89913 0
M  V30 3081 H 294.362 -2.14617 3.23839 0
M  V30 3082 H 296.034 0.0725513 4.61243 0
M  V30 3083 H 294.277 0.137614 4.33582 0
M  V30 3084 H 294.948 -1.09271 5.41076 0
M  V30 3085 H 297.424 -1.94089 3.68061 0
M  V30 3086 H 296.3 -2.94479 4.63221 0
M  V30 3087 H 296.561 -3.30758 2.93346 0
M  V30 3088 N 295.62 -1.53406 -0.361157 0
M  V30 3089 C 297.031 -1.61442 -0.937728 0
M  V30 3090 C 297.382 -0.48461 -1.90121 0
M  V30 3091 O 296.507 0.388312 -2.12888 0
M  V30 3092 C 297.102 -2.92624 -1.70753 0
M  V30 3093 C 295.661 -3.02981 -2.23337 0
M  V30 3094 C 294.808 -2.5677 -1.04712 0
M  V30 3095 H 297.759 -1.58083 -0.139816 0
M  V30 3096 H 297.78 -2.80675 -2.56908 0
M  V30 3097 H 297.292 -3.74834 -1.00604 0
M  V30 3098 H 295.393 -2.25368 -2.96715 0
M  V30 3099 H 295.506 -4.0814 -2.50916 0
M  V30 3100 H 293.87 -2.11752 -1.41539 0
M  V30 3101 H 294.653 -3.41402 -0.360539 0
M  V30 3102 N 297.098 0.621204 -1.44841 0
M  V30 3103 C 298.346 1.37783 -1.47852 0
M  V30 3104 C 298.667 1.94653 -0.116224 0
M  V30 3105 O 297.937 1.76367 0.852737 0
M  V30 3106 H 296.517 0.511453 -0.544449 0
M  V30 3107 H 299.179 0.730446 -1.80694 0
M  V30 3108 H 298.275 2.20414 -2.20961 0
M  V30 3109 N 298.576 1.31904 0.862503 0
M  V30 3110 C 299.801 1.25135 1.65397 0
M  V30 3111 C 300.226 -0.179 1.87246 0
M  V30 3112 O 299.584 -1.1277 1.4196 0
M  V30 3113 C 299.632 2.00832 2.99498 0
M  V30 3114 O 298.736 1.35075 3.89652 0
M  V30 3115 H 298.077 0.431655 0.504549 0
M  V30 3116 H 300.607 1.74094 1.07483 0
M  V30 3117 H 300.617 2.10709 3.49379 0
M  V30 3118 H 299.292 3.04847 2.82916 0
M  V30 3119 H 297.869 1.33696 3.48109 0
M  V30 3120 N 300.054 -1.07777 1.14986 0
M  V30 3121 C 301.303 -1.79669 0.916617 0
M  V30 3122 C 301.616 -1.87474 -0.557917 0
M  V30 3123 O 302.822 -2.55845 -0.908617 0
M  V30 3124 C 301.278 -3.22848 1.59051 0
M  V30 3125 C 300.886 -3.23257 3.10176 0
M  V30 3126 C 302.63 -3.99379 1.43864 0
M  V30 3127 C 300.537 -4.61063 3.70372 0
M  V30 3128 H 299.467 -0.673349 0.33929 0
M  V30 3129 H 302.118 -1.21003 1.37951 0
M  V30 3130 H 300.5 -3.8168 1.0553 0
M  V30 3131 H 301.674 -2.74095 3.70417 0
M  V30 3132 H 299.989 -2.60222 3.25074 0
M  V30 3133 H 302.586 -5.0122 1.86232 0
M  V30 3134 H 302.929 -4.14511 0.385564 0
M  V30 3135 H 303.462 -3.47032 1.94457 0
M  V30 3136 H 300.201 -4.51135 4.7556 0
M  V30 3137 H 299.721 -5.1048 3.14913 0
M  V30 3138 H 301.4 -5.30034 3.71043 0
M  V30 3139 N 301.532 -0.945985 -1.26051 0
M  V30 3140 C 302.479 -0.45809 -2.26208 0
M  V30 3141 C 303.449 0.484816 -1.58867 0
M  V30 3142 O 304.634 0.399969 -1.86561 0
M  V30 3143 C 301.774 0.266131 -3.44072 0
M  V30 3144 C 300.887 -0.713005 -4.26075 0
M  V30 3145 C 300.022 0.0329013 -5.3119 0
M  V30 3146 C 299.061 -0.93774 -6.04874 0
M  V30 3147 N 298.198 -0.223274 -7.01745 0
M  V30 3148 H 303.038 -1.3171 -2.67313 0
M  V30 3149 H 300.575 -0.66069 -1.31428 0
M  V30 3150 H 302.533 0.702514 -4.11243 0
M  V30 3151 H 301.163 1.08925 -3.03867 0
M  V30 3152 H 300.215 -1.26789 -3.58648 0
M  V30 3153 H 301.527 -1.45406 -4.77136 0
M  V30 3154 H 300.681 0.528335 -6.04395 0
M  V30 3155 H 299.42 0.806801 -4.8098 0
M  V30 3156 H 298.425 -1.44425 -5.30492 0
M  V30 3157 H 299.65 -1.71172 -6.57173 0
M  V30 3158 H 297.596 0.532046 -6.53839 0
M  V30 3159 H 297.513 -0.90357 -7.50581 0
M  V30 3160 H 298.781 0.250907 -7.79096 0
M  V30 3161 N 303.011 1.40521 -0.713556 0
M  V30 3162 C 304.427 1.54839 -0.386907 0
M  V30 3163 C 304.627 1.68532 1.1045 0
M  V30 3164 O 303.683 1.67377 1.89053 0
M  V30 3165 C 304.996 2.77792 -1.15118 0
M  V30 3166 C 306.544 2.91607 -1.13729 0
M  V30 3167 C 307.019 4.1747 -1.88368 0
M  V30 3168 N 308.51 4.24466 -1.85427 0
M  V30 3169 C 309.245 5.20755 -2.40004 0
M  V30 3170 N 308.741 6.22965 -3.03129 0
M  V30 3171 N 310.534 5.1282 -2.30158 0
M  V30 3172 H 302.685 1.29879 -1.68063 0
M  V30 3173 H 304.948 0.627896 -0.710247 0
M  V30 3174 H 304.654 2.73944 -2.20561 0
M  V30 3175 H 304.528 3.6984 -0.741477 0
M  V30 3176 H 306.915 2.94959 -0.0910608 0
M  V30 3177 H 306.996 2.00682 -1.5862 0
M  V30 3178 H 306.64 4.1488 -2.9298 0
M  V30 3179 H 306.57 5.074 -1.40898 0
M  V30 3180 H 309.061 3.51241 -1.3942 0
M  V30 3181 H 309.374 6.92859 -3.42295 0
M  V30 3182 H 307.719 6.23415 -3.07212 0
M  V30 3183 H 310.91 4.31899 -1.80501 0
M  V30 3184 H 311.083 5.87689 -2.72993 0
M  V30 3185 N 304.489 0.459591 1.5075 0
M  V30 3186 C 305.717 -0.0973749 2.06671 0
M  V30 3187 C 306.132 -1.34524 1.32472 0
M  V30 3188 O 305.489 -1.7827 0.390634 0
M  V30 3189 C 305.54 -0.39714 3.59312 0
M  V30 3190 O 305.261 0.801214 4.30711 0
M  V30 3191 C 306.762 -1.00234 4.31819 0
M  V30 3192 H 303.982 0.00195854 0.670997 0
M  V30 3193 H 306.526 0.645072 1.94059 0
M  V30 3194 H 304.681 -1.08951 3.71764 0
M  V30 3195 H 305.095 0.538857 5.21725 0
M  V30 3196 H 306.569 -1.16193 5.39632 0
M  V30 3197 H 307.046 -1.98939 3.91561 0
M  V30 3198 H 307.652 -0.348699 4.23868 0
M  V30 3199 N 305.967 -1.56429 0.191757 0
M  V30 3200 C 306.93 -2.17707 -0.716688 0
M  V30 3201 C 307.93 -1.13061 -1.14341 0
M  V30 3202 O 309.12 -1.38464 -1.05704 0
M  V30 3203 C 306.252 -2.77644 -1.97804 0
M  V30 3204 H 307.445 -2.99342 -0.1829 0
M  V30 3205 H 304.998 -1.56193 -0.0578566 0
M  V30 3206 H 305.733 -1.99799 -2.55443 0
M  V30 3207 H 305.518 -3.54246 -1.68083 0
M  V30 3208 H 307.008 -3.24708 -2.62592 0
M  V30 3209 N 307.445 0.0818655 -1.57387 0
M  V30 3210 C 308.67 0.799946 -1.91352 0
M  V30 3211 C 309.095 1.70833 -0.787258 0
M  V30 3212 O 308.453 1.79419 0.26048 0
M  V30 3213 C 308.501 1.57812 -3.24234 0
M  V30 3214 O 307.605 2.68806 -3.12757 0
M  V30 3215 H 306.946 0.21891 -0.626877 0
M  V30 3216 H 309.476 0.0531256 -2.04531 0
M  V30 3217 H 309.486 1.95952 -3.57864 0
M  V30 3218 H 308.161 0.911548 -4.05788 0
M  V30 3219 H 306.738 2.33597 -2.90666 0
M  V30 3220 N 308.923 1.53595 0.353017 0
M  V30 3221 C 310.169 1.70638 1.09593 0
M  V30 3222 C 310.502 0.463286 1.88593 0
M  V30 3223 O 309.777 -0.539597 1.86865 0
M  V30 3224 C 310.06 2.96406 2.04489 0
M  V30 3225 C 309.913 4.30901 1.29014 0
M  V30 3226 C 311.232 3.17812 3.0444 0
M  V30 3227 H 308.351 0.620913 0.397034 0
M  V30 3228 H 310.993 1.86254 0.375446 0
M  V30 3229 H 309.143 2.83223 2.65927 0
M  V30 3230 H 310.815 4.55917 0.702638 0
M  V30 3231 H 309.058 4.29741 0.592071 0
M  V30 3232 H 309.729 5.1506 1.98537 0
M  V30 3233 H 312.205 3.30263 2.53112 0
M  V30 3234 H 311.081 4.07223 3.6805 0
M  V30 3235 H 311.342 2.33669 3.75301 0
M  V30 3236 N 310.401 -0.613514 1.45168 0
M  V30 3237 C 311.311 -1.75296 1.55912 0
M  V30 3238 C 312.327 -1.68244 0.443856 0
M  V30 3239 O 313.503 -1.88706 0.70371 0
M  V30 3240 C 310.568 -3.1174 1.5172 0
M  V30 3241 C 309.629 -3.30291 2.74238 0
M  V30 3242 C 308.862 -4.60226 2.70236 0
M  V30 3243 O 309.085 -5.42168 1.77229 0
M  V30 3244 O 308.019 -4.81361 3.61352 0
M  V30 3245 H 311.845 -1.69183 2.52212 0
M  V30 3246 H 309.43 -0.776886 1.27612 0
M  V30 3247 H 311.312 -3.93044 1.51968 0
M  V30 3248 H 309.987 -3.18357 0.585697 0
M  V30 3249 H 308.894 -2.48598 2.79553 0
M  V30 3250 H 310.227 -3.28547 3.66494 0
M  V30 3251 N 311.879 -1.3236 -0.855495 0
M  V30 3252 C 313.109 -1.25688 -1.6397 0
M  V30 3253 C 313.517 0.177592 -1.88365 0
M  V30 3254 O 312.86 1.12485 -1.45234 0
M  V30 3255 C 312.922 -1.94602 -3.02275 0
M  V30 3256 C 312.586 -3.43937 -3.00926 0
M  V30 3257 C 313.583 -4.39435 -2.77835 0
M  V30 3258 C 311.268 -3.85858 -3.21588 0
M  V30 3259 C 313.262 -5.74829 -2.75409 0
M  V30 3260 C 310.949 -5.21361 -3.18789 0
M  V30 3261 C 311.947 -6.15658 -2.95727 0
M  V30 3262 O 311.635 -7.48681 -2.928 0
M  V30 3263 H 311.367 -0.434972 -0.51747 0
M  V30 3264 H 313.921 -1.75023 -1.075 0
M  V30 3265 H 312.151 -1.39836 -3.60531 0
M  V30 3266 H 313.84 -1.81651 -3.62985 0
M  V30 3267 H 314.606 -4.08374 -2.6164 0
M  V30 3268 H 310.485 -3.12883 -3.38564 0
M  V30 3269 H 314.029 -6.48404 -2.57328 0
M  V30 3270 H 309.926 -5.52052 -3.34528 0
M  V30 3271 H 310.694 -7.5803 -3.0876 0
M  V30 3272 N 313.357 1.07166 -1.15556 0
M  V30 3273 C 314.304 2.14417 -0.854055 0
M  V30 3274 C 315.274 1.64965 0.193806 0
M  V30 3275 O 316.459 1.90703 0.0609443 0
M  V30 3276 C 313.599 3.43304 -0.351574 0
M  V30 3277 C 312.712 4.06537 -1.46123 0
M  V30 3278 C 311.847 5.23266 -0.914677 0
M  V30 3279 C 310.886 5.78464 -2.00114 0
M  V30 3280 N 310.023 6.86521 -1.47083 0
M  V30 3281 H 314.863 2.39548 -1.77259 0
M  V30 3282 H 312.4 1.17543 -0.884425 0
M  V30 3283 H 314.358 4.17179 -0.0419409 0
M  V30 3284 H 312.988 3.18419 0.530037 0
M  V30 3285 H 312.04 3.30297 -1.88701 0
M  V30 3286 H 313.352 4.43567 -2.28144 0
M  V30 3287 H 312.506 6.04131 -0.557698 0
M  V30 3288 H 311.245 4.87658 -0.0636583 0
M  V30 3289 H 310.25 4.96243 -2.36692 0
M  V30 3290 H 311.475 6.16126 -2.85597 0
M  V30 3291 H 309.421 6.52849 -0.642198 0
M  V30 3292 H 309.338 7.22446 -2.22729 0
M  V30 3293 H 310.606 7.71087 -1.14215 0
M  V30 3294 N 314.835 0.952656 1.25548 0
M  V30 3295 C 316.083 0.605176 1.92826 0
M  V30 3296 C 316.404 -0.860261 1.74999 0
M  V30 3297 O 315.674 -1.6125 1.11244 0
M  V30 3298 H 314.254 0.220832 0.713612 0
M  V30 3299 H 316.916 1.21047 1.52754 0
M  V30 3300 H 316.012 0.832798 3.00784 0
M  V30 3301 N 316.313 -1.40141 0.720998 0
M  V30 3302 C 317.59 -1.94677 0.189757 0
M  V30 3303 C 317.97 -1.65879 -1.30566 0
M  V30 3304 O 317.318 -0.979391 -2.06447 0
M  V30 3305 C 317.528 -3.45279 0.508304 0
M  V30 3306 C 318.876 -4.22209 0.449934 0
M  V30 3307 O 319.9 -3.53413 0.444677 0
M  V30 3308 O 318.759 -5.44788 0.432189 0
M  V30 3309 H 315.853 -0.826459 0.0299026 0
M  V30 3310 H 318.399 -1.49719 0.7989 0
M  V30 3311 H 317.171 -3.59619 1.54239 0
M  V30 3312 H 316.794 -3.97386 -0.130525 0
M  V30 3313 N 317.792 -0.46758 -1.50504 0
M  V30 3314 C 319.04 0.0884469 -2.01906 0
M  V30 3315 C 319.361 1.40532 -1.35188 0
M  V30 3316 O 318.631 1.89515 -0.496079 0
M  V30 3317 H 317.211 0.0356765 -0.746148 0
M  V30 3318 H 319.873 -0.6172 -1.84869 0
M  V30 3319 H 318.969 0.2425 -3.11156 0
M  V30 3320 N 319.27 1.56325 -0.20005 0
M  V30 3321 C 320.518 1.97329 0.436547 0
M  V30 3322 C 320.839 1.08826 1.61808 0
M  V30 3323 O 320.109 0.160604 1.95241 0
M  V30 3324 H 318.689 0.728714 0.164272 0
M  V30 3325 H 321.351 1.92761 -0.287937 0
M  V30 3326 H 320.447 3.02264 0.777353 0
M  V30 3327 N 320.748 -0.0735177 1.57428 0
M  V30 3328 C 322.164 -0.428264 1.53747 0
M  V30 3329 C 322.364 -1.79272 0.91998 0
M  V30 3330 O 321.42 -2.47051 0.521745 0
M  V30 3331 C 322.733 -0.370914 2.98404 0
M  V30 3332 C 324.281 -0.451224 3.0973 0
M  V30 3333 C 324.756 -0.4238 4.56035 0
M  V30 3334 N 326.247 -0.483925 4.60665 0
M  V30 3335 C 326.982 -0.484891 5.71346 0
M  V30 3336 N 326.478 -0.440775 6.91396 0
M  V30 3337 N 328.271 -0.531319 5.59583 0
M  V30 3338 H 320.422 0.819949 1.95935 0
M  V30 3339 H 322.685 0.307493 0.896745 0
M  V30 3340 H 322.391 0.564956 3.47133 0
M  V30 3341 H 322.265 -1.18176 3.5821 0
M  V30 3342 H 324.652 -1.37752 2.60976 0
M  V30 3343 H 324.733 0.388167 2.52838 0
M  V30 3344 H 324.377 0.498638 5.05446 0
M  V30 3345 H 324.307 -1.2807 5.10789 0
M  V30 3346 H 326.798 -0.522338 3.74273 0
M  V30 3347 H 327.111 -0.44539 7.71515 0
M  V30 3348 H 325.456 -0.40749 6.93804 0
M  V30 3349 H 328.647 -0.563464 4.64696 0
M  V30 3350 H 328.82 -0.528603 6.4584 0
M  V30 3351 N 322.226 -1.5378 -0.344866 0
M  V30 3352 C 323.176 -1.78057 -1.42407 0
M  V30 3353 C 324.16 -0.635732 -1.47808 0
M  V30 3354 O 325.352 -0.89508 -1.527 0
M  V30 3355 C 322.481 -1.99242 -2.79566 0
M  V30 3356 C 321.567 -3.19787 -2.78562 0
M  V30 3357 N 321.958 -4.41284 -2.47189 0
M  V30 3358 C 320.256 -3.2093 -3.0971 0
M  V30 3359 C 320.957 -5.23128 -2.54385 0
M  V30 3360 N 319.933 -4.59813 -2.89953 0
M  V30 3361 H 323.735 -2.69588 -1.17046 0
M  V30 3362 H 321.249 -1.52687 -0.553217 0
M  V30 3363 H 323.246 -2.14768 -3.57324 0
M  V30 3364 H 321.906 -1.08953 -3.05875 0
M  V30 3365 H 322.917 -4.68657 -2.20411 0
M  V30 3366 H 319.594 -2.40603 -3.41199 0
M  V30 3367 H 320.984 -6.30096 -2.333 0
M  V30 3368 N 323.704 0.605807 -1.45491 0
M  V30 3369 C 325.115 1.18777 -1.44045 0
M  V30 3370 C 325.466 1.95471 -0.169001 0
M  V30 3371 O 324.591 2.0374 0.729324 0
M  V30 3372 C 325.186 2.16064 -2.60963 0
M  V30 3373 C 323.745 2.69633 -2.62631 0
M  V30 3374 C 322.892 1.45072 -2.36325 0
M  V30 3375 H 325.843 0.395017 -1.53705 0
M  V30 3376 H 325.864 2.9913 -2.35163 0
M  V30 3377 H 325.376 1.60217 -3.53486 0
M  V30 3378 H 323.477 3.29414 -1.74119 0
M  V30 3379 H 323.59 3.13944 -3.61906 0
M  V30 3380 H 321.954 1.74089 -1.85917 0
M  V30 3381 H 322.737 0.910899 -3.30995 0
M  V30 3382 N 325.182 1.32811 0.848464 0
M  V30 3383 C 326.43 1.23479 1.59991 0
M  V30 3384 C 326.751 -0.201853 1.93952 0
M  V30 3385 O 326.021 -1.12818 1.60153 0
M  V30 3386 H 324.601 0.454034 0.593179 0
M  V30 3387 H 327.263 1.66412 1.01455 0
M  V30 3388 H 326.359 1.82178 2.53412 0
M  V30 3389 N 326.66 -1.06551 1.16123 0
M  V30 3390 C 327.937 -1.76097 0.85142 0
M  V30 3391 C 328.317 -2.00802 -0.6513 0
M  V30 3392 O 327.665 -1.63302 -1.59827 0
M  V30 3393 C 327.875 -3.06384 1.67122 0
M  V30 3394 C 329.223 -3.80585 1.88255 0
M  V30 3395 O 330.247 -3.16218 1.63966 0
M  V30 3396 O 329.106 -4.96212 2.2899 0
M  V30 3397 H 326.2 -0.765102 0.313923 0
M  V30 3398 H 328.746 -1.12844 1.26745 0
M  V30 3399 H 327.518 -2.84071 2.69108 0
M  V30 3400 H 327.141 -3.77371 1.25206 0
M  V30 3401 N 328.138 -0.959301 -1.25041 0
M  V30 3402 C 329.048 -0.489994 -2.29426 0
M  V30 3403 C 330.064 0.444944 -1.68215 0
M  V30 3404 O 331.24 0.320046 -1.98841 0
M  V30 3405 C 328.305 0.220309 -3.45999 0
M  V30 3406 C 327.366 -0.753418 -4.22637 0
M  V30 3407 C 326.599 -0.076918 -5.33645 0
M  V30 3408 O 326.822 1.13649 -5.58963 0
M  V30 3409 O 325.756 -0.764824 -5.97021 0
M  V30 3410 H 329.582 -1.35755 -2.71669 0
M  V30 3411 H 327.167 -0.725961 -1.30576 0
M  V30 3412 H 329.049 0.619677 -4.16819 0
M  V30 3413 H 327.724 1.06296 -3.0575 0
M  V30 3414 H 326.631 -1.20308 -3.54227 0
M  V30 3415 H 327.964 -1.56423 -4.66683 0
M  V30 3416 N 329.616 1.39756 -0.72842 0
M  V30 3417 C 330.579 2.29012 -0.0927297 0
M  V30 3418 C 331.579 1.45992 0.674025 0
M  V30 3419 O 332.769 1.66749 0.50402 0
M  V30 3420 C 329.901 3.29396 0.878137 0
M  V30 3421 H 331.094 2.86729 -0.879011 0
M  V30 3422 H 328.647 1.48293 -0.493847 0
M  V30 3423 H 329.382 2.76722 1.69101 0
M  V30 3424 H 329.167 3.907 0.331051 0
M  V30 3425 H 330.657 3.96199 1.3197 0
M  V30 3426 N 331.094 0.475555 1.50254 0
M  V30 3427 C 332.057 -0.305016 2.27161 0
M  V30 3428 C 333.057 -0.916519 1.32123 0
M  V30 3429 O 334.247 -0.785003 1.5551 0
M  V30 3430 C 331.379 -1.43496 3.09227 0
M  V30 3431 H 332.572 0.369511 2.97615 0
M  V30 3432 H 330.125 0.229747 1.54602 0
M  V30 3433 H 330.86 -2.14441 2.43281 0
M  V30 3434 H 330.645 -1.00223 3.79075 0
M  V30 3435 H 332.135 -1.98548 3.67381 0
M  V30 3436 N 332.573 -1.56217 0.208337 0
M  V30 3437 C 333.521 -2.21053 -0.723769 0
M  V30 3438 C 334.515 -1.18578 -1.20978 0
M  V30 3439 O 335.721 -1.36691 -1.17114 0
M  V30 3440 H 332.096 -0.708595 -0.251788 0
M  V30 3441 H 334.067 -2.98006 -0.153365 0
M  V30 3442 C 332.816 -2.89417 -1.927 0
M  V30 3443 H 332.139 -3.68019 -1.56212 0
M  V30 3444 H 333.579 -3.38201 -2.55727 0
M  V30 3445 C 332.038 -1.91166 -2.77411 0
M  V30 3446 O 332.568 -1.42026 -3.75754 0
M  V30 3447 N 330.774 -1.59105 -2.43175 0
M  V30 3448 H 330.321 -1.99259 -1.63259 0
M  V30 3449 H 330.279 -0.936255 -3.00136 0
M  V30 3450 N 334.051 0.0651679 -1.57465 0
M  V30 3451 C 335.299 0.761555 -1.87202 0
M  V30 3452 C 335.62 1.77778 -0.801243 0
M  V30 3453 O 334.89 1.95166 0.16937 0
M  V30 3454 H 333.47 0.284251 -0.690804 0
M  V30 3455 H 336.132 0.0396827 -1.9486 0
M  V30 3456 H 335.228 1.27365 -2.84929 0
M  V30 3457 N 335.529 1.53961 0.336706 0
M  V30 3458 C 336.94 1.62914 0.911925 0
M  V30 3459 C 337.291 0.514795 1.89326 0
M  V30 3460 O 336.416 -0.354395 2.13478 0
M  V30 3461 C 337.011 2.95304 1.66076 0
M  V30 3462 C 335.57 3.06496 2.18489 0
M  V30 3463 C 334.717 2.58403 1.00613 0
M  V30 3464 H 337.668 1.58285 0.114649 0
M  V30 3465 H 337.689 2.84727 2.5241 0
M  V30 3466 H 337.201 3.76387 0.946276 0
M  V30 3467 H 335.302 2.3006 2.93092 0
M  V30 3468 H 335.415 4.1208 2.44391 0
M  V30 3469 H 333.779 2.13977 1.38152 0
M  V30 3470 H 334.562 3.41932 0.306179 0
M  V30 3471 N 337.007 -0.598083 1.45811 0
M  V30 3472 C 337.97 -1.69018 1.54808 0
M  V30 3473 C 338.97 -1.55037 0.426652 0
M  V30 3474 O 340.16 -1.59932 0.690456 0
M  V30 3475 C 337.292 -3.0835 1.45371 0
M  V30 3476 H 338.485 -1.62403 2.52121 0
M  V30 3477 H 336.038 -0.814626 1.33392 0
M  V30 3478 H 336.773 -3.20534 0.492793 0
M  V30 3479 H 336.558 -3.19907 2.26721 0
M  V30 3480 H 338.048 -3.8788 1.54721 0
M  V30 3481 N 338.485 -1.33259 -0.841409 0
M  V30 3482 C 339.71 -1.2775 -1.63385 0
M  V30 3483 C 340.135 0.149188 -1.87507 0
M  V30 3484 O 339.493 1.10498 -1.43736 0
M  V30 3485 C 339.541 -2.05571 -2.96265 0
M  V30 3486 O 338.645 -1.41257 -3.87453 0
M  V30 3487 H 337.986 -0.439627 -0.497618 0
M  V30 3488 H 340.516 -1.75782 -1.04699 0
M  V30 3489 H 340.526 -2.16241 -3.45982 0
M  V30 3490 H 339.201 -3.09309 -2.7803 0
M  V30 3491 H 337.778 -1.39217 -3.45938 0
M  V30 3492 N 339.963 1.05934 -1.16686 0
M  V30 3493 C 341.211 1.78447 -0.948744 0
M  V30 3494 C 341.532 1.87813 0.524523 0
M  V30 3495 O 340.802 1.38945 1.38098 0
M  V30 3496 H 339.382 0.660971 -0.348033 0
M  V30 3497 H 342.044 1.27947 -1.47022 0
M  V30 3498 H 341.14 2.80394 -1.37061 0
M  V30 3499 N 341.441 0.965919 1.2453 0
M  V30 3500 C 342.718 0.543777 1.87889 0
M  V30 3501 C 343.098 -0.97909 1.87021 0
M  V30 3502 O 342.446 -1.84969 1.3416 0
M  V30 3503 C 342.656 1.13327 3.30088 0
M  V30 3504 C 344.004 1.21707 4.06783 0
M  V30 3505 O 345.028 1.08566 3.39252 0
M  V30 3506 O 343.887 1.42456 5.27606 0
M  V30 3507 H 340.981 0.181054 0.806938 0
M  V30 3508 H 343.527 1.06007 1.32516 0
M  V30 3509 H 342.299 2.17612 3.25209 0
M  V30 3510 H 341.922 0.600911 3.93033 0
M  V30 3511 N 342.919 -1.39368 0.735821 0
M  V30 3512 C 344.33 -1.83313 0.354015 0
M  V30 3513 C 344.681 -1.61461 -1.11466 0
M  V30 3514 O 343.806 -1.10621 -1.85989 0
M  V30 3515 C 344.401 -3.32781 0.635769 0
M  V30 3516 C 342.96 -3.75142 0.307448 0
M  V30 3517 C 342.107 -2.62358 0.897974 0
M  V30 3518 H 345.058 -1.28349 0.933398 0
M  V30 3519 H 345.079 -3.80388 -0.0921773 0
M  V30 3520 H 344.591 -3.48654 1.70476 0
M  V30 3521 H 342.692 -3.64857 -0.755674 0
M  V30 3522 H 342.805 -4.72532 0.790583 0
M  V30 3523 H 341.169 -2.52624 0.324551 0
M  V30 3524 H 341.952 -2.81036 1.97164 0
M  V30 3525 N 344.397 -0.483516 -1.5 0
M  V30 3526 C 345.643 0.0672592 -2.02688 0
M  V30 3527 C 345.976 1.38247 -1.36387 0
M  V30 3528 O 345.251 1.88131 -0.493675 0
M  V30 3529 C 345.534 0.238109 -3.59312 0
M  V30 3530 C 345.387 -1.099 -4.36168 0
M  V30 3531 C 346.706 0.986916 -4.28892 0
M  V30 3532 H 343.825 0.0229696 -0.736642 0
M  V30 3533 H 346.467 -0.631527 -1.79197 0
M  V30 3534 H 344.617 0.8333 -3.79458 0
M  V30 3535 H 346.289 -1.73172 -4.27562 0
M  V30 3536 H 344.532 -1.69261 -3.99416 0
M  V30 3537 H 345.203 -0.932954 -5.44059 0
M  V30 3538 H 347.679 0.482302 -4.13295 0
M  V30 3539 H 346.555 1.07527 -5.38265 0
M  V30 3540 H 346.816 2.0265 -3.92919 0
M  V30 3541 N 345.875 1.56104 -0.216619 0
M  V30 3542 C 347.152 1.89988 0.465165 0
M  V30 3543 C 347.532 1.13326 1.78102 0
M  V30 3544 O 346.88 0.241033 2.27225 0
M  V30 3545 C 347.09 3.42646 0.662939 0
M  V30 3546 C 348.438 4.13311 0.972602 0
M  V30 3547 O 349.462 3.48217 0.749901 0
M  V30 3548 O 348.321 5.28396 1.39499 0
M  V30 3549 H 345.415 0.78979 0.245276 0
M  V30 3550 H 347.961 1.67721 -0.258436 0
M  V30 3551 H 346.733 3.90399 -0.26543 0
M  V30 3552 H 346.356 3.70677 1.43821 0
M  V30 3553 N 347.353 -0.0568162 1.57498 0
M  V30 3554 C 348.578 -0.769402 1.92601 0
M  V30 3555 C 349.003 -1.69559 0.814336 0
M  V30 3556 O 348.361 -1.79811 -0.231903 0
M  V30 3557 C 348.409 -1.52634 3.26704 0
M  V30 3558 O 347.513 -2.63797 3.16994 0
M  V30 3559 H 346.854 -0.208909 0.63028 0
M  V30 3560 H 349.384 -0.0205798 2.0459 0
M  V30 3561 H 349.394 -1.90234 3.60936 0
M  V30 3562 H 348.069 -0.846875 4.07186 0
M  V30 3563 H 346.646 -2.28943 2.94346 0
M  V30 3564 N 348.832 -1.54138 -0.328536 0
M  V30 3565 C 350.057 -1.76378 -1.09112 0
M  V30 3566 C 350.482 -0.508596 -1.81094 0
M  V30 3567 O 349.84 0.539598 -1.73084 0
M  V30 3568 C 349.888 -2.95358 -2.06872 0
M  V30 3569 O 348.992 -2.66556 -3.14677 0
M  V30 3570 H 348.333 -0.584614 -0.314838 0
M  V30 3571 H 350.863 -2.01146 -0.374348 0
M  V30 3572 H 350.873 -3.22566 -2.4983 0
M  V30 3573 H 349.548 -3.86385 -1.5388 0
M  V30 3574 H 348.125 -2.50282 -2.7643 0
M  V30 3575 N 350.31 0.590341 -1.46126 0
M  V30 3576 C 351.535 1.37991 -1.54833 0
M  V30 3577 C 351.96 1.87163 -0.187506 0
M  V30 3578 O 351.318 1.61133 0.831008 0
M  V30 3579 C 351.366 2.54867 -2.55098 0
M  V30 3580 O 350.47 3.56061 -2.08073 0
M  V30 3581 H 349.811 0.411265 -0.521303 0
M  V30 3582 H 352.341 0.716819 -1.91632 0
M  V30 3583 H 352.351 3.01886 -2.74461 0
M  V30 3584 H 351.026 2.18429 -3.53923 0
M  V30 3585 H 349.603 3.15574 -1.98664 0
M  V30 3586 N 351.788 1.33704 0.83433 0
M  V30 3587 C 353.199 1.22813 1.4062 0
M  V30 3588 C 353.55 -0.151107 1.95617 0
M  V30 3589 O 352.675 -1.05092 1.89168 0
M  V30 3590 C 353.27 2.22355 2.55624 0
M  V30 3591 C 351.829 2.1529 3.08751 0
M  V30 3592 C 350.976 2.09589 1.8157 0
M  V30 3593 H 353.927 1.45236 0.639702 0
M  V30 3594 H 353.948 1.83391 3.33389 0
M  V30 3595 H 353.46 3.22728 2.15566 0
M  V30 3596 H 351.561 1.18235 3.53343 0
M  V30 3597 H 351.674 3.06038 3.68616 0
M  V30 3598 H 350.038 1.55134 2.02004 0
M  V30 3599 H 350.821 3.11777 1.43701 0
M  V30 3600 N 353.266 -1.05314 1.17247 0
M  V30 3601 C 354.176 -2.16538 0.90268 0
M  V30 3602 C 355.192 -1.73523 -0.128707 0
M  V30 3603 O 356.368 -2.01337 0.0502701 0
M  V30 3604 C 353.433 -3.44167 0.418356 0
M  V30 3605 C 352.494 -4.01635 1.51618 0
M  V30 3606 C 351.727 -5.23171 1.05487 0
M  V30 3607 O 351.95 -5.70327 -0.0914715 0
M  V30 3608 O 350.884 -5.72848 1.8474 0
M  V30 3609 H 354.71 -2.42145 1.83302 0
M  V30 3610 H 352.295 -1.15037 0.953246 0
M  V30 3611 H 354.177 -4.21112 0.155726 0
M  V30 3612 H 352.852 -3.20063 -0.48385 0
M  V30 3613 H 351.759 -3.26135 1.83268 0
M  V30 3614 H 353.092 -4.30053 2.39405 0
M  V30 3615 N 354.744 -0.972509 -1.24016 0
M  V30 3616 C 356.021 -0.553733 -1.87598 0
M  V30 3617 C 356.401 0.969158 -1.87538 0
M  V30 3618 O 355.749 1.84255 -1.35139 0
M  V30 3619 C 355.959 -1.15076 -3.29482 0
M  V30 3620 C 357.307 -1.23862 -4.06132 0
M  V30 3621 O 358.331 -1.10363 -3.38672 0
M  V30 3622 O 357.19 -1.45252 -5.26844 0
M  V30 3623 H 354.284 -0.185331 -0.805966 0
M  V30 3624 H 356.83 -1.06709 -1.31952 0
M  V30 3625 H 355.602 -2.19333 -3.2405 0
M  V30 3626 H 355.225 -0.621746 -3.92709 0
M  V30 3627 N 356.222 1.38976 -0.743202 0
M  V30 3628 C 357.185 2.28901 -0.117014 0
M  V30 3629 C 358.185 1.46698 0.658503 0
M  V30 3630 O 359.375 1.67274 0.486305 0
M  V30 3631 C 356.507 3.30309 0.84315 0
M  V30 3632 H 357.7 2.8578 -0.909373 0
M  V30 3633 H 355.253 1.47761 -0.509547 0
M  V30 3634 H 355.988 2.785 1.66157 0
M  V30 3635 H 355.773 3.91029 0.289594 0
M  V30 3636 H 357.263 3.97577 1.2776 0
M  V30 3637 N 357.7 0.491464 1.49741 0
M  V30 3638 C 358.94 -0.0549118 2.04326 0
M  V30 3639 C 359.304 -1.35148 1.36378 0
M  V30 3640 O 360.505 -1.9815 1.81631 0
M  V30 3641 C 358.776 -0.213841 3.5676 0
M  V30 3642 S 360.335 -0.715839 4.32922 0
M  V30 3643 H 357.153 -0.00630513 0.710972 0
M  V30 3644 H 359.755 0.663257 1.83905 0
M  V30 3645 H 358.459 0.73527 4.0376 0
M  V30 3646 H 357.99 -0.957529 3.81569 0
M  V30 3647 H 360.005 -1.9864 4.54705 0
M  V30 3648 N 359.178 -1.55987 0.224894 0
M  V30 3649 C 360.427 -1.97566 -0.406273 0
M  V30 3650 C 360.74 -1.11569 -1.6066 0
M  V30 3651 O 361.946 -1.43062 -2.3075 0
M  V30 3652 C 360.402 -3.51474 -0.774207 0
M  V30 3653 C 360.01 -4.46179 0.403496 0
M  V30 3654 C 361.754 -4.01758 -1.37079 0
M  V30 3655 C 359.661 -5.91399 0.0129412 0
M  V30 3656 H 358.591 -0.737777 -0.155565 0
M  V30 3657 H 361.242 -1.80659 0.321635 0
M  V30 3658 H 359.624 -3.63994 -1.55963 0
M  V30 3659 H 360.798 -4.45409 1.18101 0
M  V30 3660 H 359.113 -4.06255 0.913536 0
M  V30 3661 H 361.71 -5.07756 -1.67596 0
M  V30 3662 H 362.053 -3.47805 -2.28773 0
M  V30 3663 H 362.586 -3.92475 -0.648733 0
M  V30 3664 H 359.325 -6.49341 0.896451 0
M  V30 3665 H 358.845 -5.95356 -0.728821 0
M  V30 3666 H 360.524 -6.45683 -0.412582 0
M  V30 3667 N 360.656 0.0484629 -1.57525 0
M  V30 3668 C 361.902 0.744226 -1.88651 0
M  V30 3669 C 362.235 1.76029 -0.820212 0
M  V30 3670 O 361.51 1.93782 0.166985 0
M  V30 3671 C 361.793 1.43128 -3.30434 0
M  V30 3672 C 361.646 0.43005 -4.47739 0
M  V30 3673 C 362.965 2.37031 -3.70816 0
M  V30 3674 H 360.084 0.269089 -0.68612 0
M  V30 3675 H 362.726 0.00713532 -1.89999 0
M  V30 3676 H 360.876 2.05956 -3.29415 0
M  V30 3677 H 362.548 -0.194816 -4.60888 0
M  V30 3678 H 360.791 -0.252522 -4.33064 0
M  V30 3679 H 361.462 0.948874 -5.43783 0
M  V30 3680 H 363.938 1.84263 -3.73077 0
M  V30 3681 H 362.814 2.82094 -4.70865 0
M  V30 3682 H 363.075 3.22864 -3.02012 0
M  V30 3683 N 362.134 1.5431 0.320358 0
M  V30 3684 C 363.55 1.45091 0.664889 0
M  V30 3685 C 363.75 0.626382 1.91517 0
M  V30 3686 O 362.806 0.126443 2.52183 0
M  V30 3687 C 364.119 2.88848 0.83591 0
M  V30 3688 C 365.667 2.9877 0.933046 0
M  V30 3689 C 366.142 4.43683 1.13621 0
M  V30 3690 N 367.633 4.47309 1.20287 0
M  V30 3691 C 368.368 5.56595 1.37801 0
M  V30 3692 N 367.864 6.75844 1.52338 0
M  V30 3693 N 369.657 5.44248 1.40535 0
M  V30 3694 H 361.808 2.06398 -0.501374 0
M  V30 3695 H 364.071 0.933963 -0.162534 0
M  V30 3696 H 363.777 3.51698 -0.0116092 0
M  V30 3697 H 363.651 3.35148 1.73078 0
M  V30 3698 H 366.038 2.36045 1.77107 0
M  V30 3699 H 366.119 2.55796 0.0145782 0
M  V30 3700 H 365.763 5.06995 0.303032 0
M  V30 3701 H 365.693 4.84269 2.0686 0
M  V30 3702 H 368.184 3.61388 1.10485 0
M  V30 3703 H 368.497 7.54892 1.65403 0
M  V30 3704 H 366.842 6.78746 1.4943 0
M  V30 3705 H 370.033 4.50038 1.28777 0
M  V30 3706 H 370.206 6.29473 1.53842 0
M  V30 3707 N 363.613 -0.582584 1.46437 0
M  V30 3708 C 364.862 -1.337 1.5102 0
M  V30 3709 C 365.175 -1.94891 0.166359 0
M  V30 3710 O 366.381 -2.71351 0.0899954 0
M  V30 3711 C 364.837 -2.42315 2.66104 0
M  V30 3712 C 364.445 -1.87427 4.06909 0
M  V30 3713 C 366.189 -3.19099 2.79958 0
M  V30 3714 C 364.096 -2.93672 5.13333 0
M  V30 3715 H 363.026 -0.502619 0.562041 0
M  V30 3716 H 365.677 -0.621701 1.72647 0
M  V30 3717 H 364.059 -3.16645 2.37807 0
M  V30 3718 H 365.233 -1.19639 4.44998 0
M  V30 3719 H 363.548 -1.2331 3.97723 0
M  V30 3720 H 366.145 -3.9839 3.56636 0
M  V30 3721 H 366.488 -3.71695 1.87479 0
M  V30 3722 H 367.021 -2.51875 3.07902 0
M  V30 3723 H 363.76 -2.45962 6.07604 0
M  V30 3724 H 363.28 -3.59948 4.79789 0
M  V30 3725 H 364.959 -3.5762 5.39182 0
M  V30 3726 N 365.091 -1.34144 -0.827227 0
M  V30 3727 C 366.339 -1.26009 -1.58007 0
M  V30 3728 C 366.66 0.170971 -1.94249 0
M  V30 3729 O 365.93 1.10256 -1.61927 0
M  V30 3730 H 364.51 -0.463414 -0.585881 0
M  V30 3731 H 367.172 -1.68005 -0.987951 0
M  V30 3732 H 366.268 -1.86187 -2.50481 0
M  V30 3733 N 366.569 1.04691 -1.17803 0
M  V30 3734 C 367.817 1.7743 -0.967617 0
M  V30 3735 C 368.138 1.88359 0.504574 0
M  V30 3736 O 367.408 1.40402 1.36617 0
M  V30 3737 H 365.988 0.657242 -0.355024 0
M  V30 3738 H 368.65 1.2638 -1.48371 0
M  V30 3739 H 367.746 2.78924 -1.40027 0
M  V30 3740 N 368.047 0.979072 1.23499 0
M  V30 3741 C 368.957 0.526431 2.28617 0
M  V30 3742 C 369.973 -0.418126 1.68901 0
M  V30 3743 O 371.149 -0.288372 1.99325 0
M  V30 3744 C 368.214 -0.165235 3.46306 0
M  V30 3745 C 367.275 0.82056 4.21385 0
M  V30 3746 C 366.508 0.161807 5.33455 0
M  V30 3747 O 366.731 -1.04742 5.60701 0
M  V30 3748 O 365.665 0.859708 5.95729 0
M  V30 3749 H 369.491 1.4006 2.69475 0
M  V30 3750 H 367.076 0.746643 1.29405 0
M  V30 3751 H 368.958 -0.553287 4.17752 0
M  V30 3752 H 367.633 -1.01419 3.07402 0
M  V30 3753 H 366.54 1.25929 3.52268 0
M  V30 3754 H 367.873 1.63828 4.64135 0
M  V30 3755 N 369.525 -1.3858 0.750561 0
M  V30 3756 C 370.435 -2.34278 0.122825 0
M  V30 3757 C 371.451 -1.59116 -0.704131 0
M  V30 3758 O 372.627 -1.91326 -0.628987 0
M  V30 3759 C 369.692 -3.38221 -0.762086 0
M  V30 3760 C 368.753 -4.29227 0.078896 0
M  V30 3761 C 367.986 -5.28205 -0.763874 0
M  V30 3762 O 368.209 -5.34112 -2.00201 0
M  V30 3763 O 367.143 -6.01618 -0.18428 0
M  V30 3764 H 370.969 -2.89649 0.913088 0
M  V30 3765 H 368.554 -1.40374 0.511417 0
M  V30 3766 H 370.436 -4.01872 -1.26793 0
M  V30 3767 H 369.111 -2.85211 -1.5309 0
M  V30 3768 H 368.018 -3.68747 0.630621 0
M  V30 3769 H 369.351 -4.85484 0.810289 0
M  V30 3770 N 371.003 -0.499398 -1.49478 0
M  V30 3771 C 372.251 0.0455996 -2.02049 0
M  V30 3772 C 372.572 1.37633 -1.38138 0
M  V30 3773 O 371.842 1.8842 -0.536166 0
M  V30 3774 H 370.422 0.0198416 -0.746736 0
M  V30 3775 H 373.084 -0.656274 -1.83519 0
M  V30 3776 H 372.18 0.176445 -3.11601 0
M  V30 3777 N 372.481 1.55866 -0.233164 0
M  V30 3778 C 373.729 1.9821 0.394593 0
M  V30 3779 C 374.05 1.12234 1.59463 0
M  V30 3780 O 373.32 0.201981 1.94856 0
M  V30 3781 H 371.9 0.732034 0.148778 0
M  V30 3782 H 374.562 1.92107 -0.32876 0
M  V30 3783 H 373.658 3.03845 0.713063 0
M  V30 3784 N 373.959 -0.0401083 1.57549 0
M  V30 3785 C 375.375 -0.395556 1.54621 0
M  V30 3786 C 375.575 -1.77281 0.957799 0
M  V30 3787 O 374.631 -2.45888 0.574031 0
M  V30 3788 C 375.944 -0.307535 2.99123 0
M  V30 3789 C 377.492 -0.385425 3.10618 0
M  V30 3790 C 377.967 -0.326973 4.56831 0
M  V30 3791 N 379.458 -0.386102 4.61588 0
M  V30 3792 C 380.193 -0.363591 5.72246 0
M  V30 3793 N 379.689 -0.29402 6.92176 0
M  V30 3794 N 381.482 -0.412503 5.60584 0
M  V30 3795 H 373.633 0.861325 1.94152 0
M  V30 3796 H 375.896 0.326445 0.890021 0
M  V30 3797 H 375.602 0.638461 3.45856 0
M  V30 3798 H 375.476 -1.10552 3.60636 0
M  V30 3799 H 377.863 -1.32185 2.63839 0
M  V30 3800 H 377.944 0.44171 2.51957 0
M  V30 3801 H 377.588 0.605738 5.04275 0
M  V30 3802 H 377.518 -1.17207 5.13391 0
M  V30 3803 H 380.009 -0.442832 3.75296 0
M  V30 3804 H 380.322 -0.28164 7.72287 0
M  V30 3805 H 378.667 -0.260232 6.94513 0
M  V30 3806 H 381.858 -0.464769 4.65787 0
M  V30 3807 H 382.031 -0.391492 6.46816 0
M  V30 3808 N 375.437 -1.54477 -0.31217 0
M  V30 3809 C 376.848 -1.64344 -0.885891 0
M  V30 3810 C 377.199 -0.54485 -1.88483 0
M  V30 3811 O 376.324 0.320387 -2.14015 0
M  V30 3812 C 376.919 -2.97908 -1.61357 0
M  V30 3813 C 375.478 -3.09933 -2.13585 0
M  V30 3814 C 374.625 -2.59971 -0.964897 0
M  V30 3815 H 377.576 -1.58448 -0.0894528 0
M  V30 3816 H 377.597 -2.88706 -2.47848 0
M  V30 3817 H 377.109 -3.77845 -0.886277 0
M  V30 3818 H 375.21 -2.34694 -2.89395 0
M  V30 3819 H 375.323 -4.15916 -2.37804 0
M  V30 3820 H 373.687 -2.16147 -1.34731 0
M  V30 3821 H 374.47 -3.42376 -0.251742 0
M  V30 3822 N 376.915 0.57481 -1.46744 0
M  V30 3823 C 378.326 1.15695 -1.46532 0
M  V30 3824 C 378.677 1.95068 -0.210425 0
M  V30 3825 O 377.802 2.05241 0.685944 0
M  V30 3826 C 378.397 2.1048 -2.65487 0
M  V30 3827 C 376.956 2.64002 -2.68291 0
M  V30 3828 C 376.103 1.40026 -2.39349 0
M  V30 3829 H 379.054 0.362325 -1.54509 0
M  V30 3830 H 379.075 2.94074 -2.41455 0
M  V30 3831 H 378.587 1.52683 -3.56805 0
M  V30 3832 H 376.688 3.25646 -1.81067 0
M  V30 3833 H 376.801 3.06197 -3.68483 0
M  V30 3834 H 375.165 1.70106 -1.89568 0
M  V30 3835 H 375.948 0.840485 -3.32852 0
M  V30 3836 N 378.394 1.34581 0.820102 0
M  V30 3837 C 379.304 1.28471 1.96297 0
M  V30 3838 C 380.32 0.191902 1.72939 0
M  V30 3839 O 381.496 0.418879 1.96996 0
M  V30 3840 C 378.561 1.04281 3.30645 0
M  V30 3841 C 377.622 2.22745 3.66992 0
M  V30 3842 C 376.855 1.997 4.9493 0
M  V30 3843 O 377.078 0.956656 5.6232 0
M  V30 3844 O 376.012 2.86723 5.2922 0
M  V30 3845 H 379.838 2.24624 2.04396 0
M  V30 3846 H 377.423 1.14816 0.955913 0
M  V30 3847 H 379.305 0.925841 4.11104 0
M  V30 3848 H 377.98 0.111697 3.23507 0
M  V30 3849 H 376.887 2.40003 2.86966 0
M  V30 3850 H 378.22 3.14257 3.78819 0
M  V30 3851 N 379.872 -1.04064 1.18357 0
M  V30 3852 C 380.835 -2.10243 0.912707 0
M  V30 3853 C 381.835 -1.60477 -0.101928 0
M  V30 3854 O 383.025 -1.73703 0.131517 0
M  V30 3855 C 380.157 -3.38893 0.369387 0
M  V30 3856 H 381.35 -2.35706 1.85426 0
M  V30 3857 H 378.903 -1.20489 0.995594 0
M  V30 3858 H 379.638 -3.19094 -0.578776 0
M  V30 3859 H 379.423 -3.76331 1.1008 0
M  V30 3860 H 380.913 -4.17128 0.198575 0
M  V30 3861 N 381.35 -0.985608 -1.22978 0
M  V30 3862 C 382.627 -0.573599 -1.87001 0
M  V30 3863 C 383.007 0.949213 -1.88555 0
M  V30 3864 O 382.355 1.82811 -1.37086 0
M  V30 3865 C 382.565 -1.18564 -3.28243 0
M  V30 3866 C 383.913 -1.28163 -4.04796 0
M  V30 3867 O 384.937 -1.13949 -3.37482 0
M  V30 3868 O 383.796 -1.50832 -5.25273 0
M  V30 3869 H 380.89 -0.193868 -0.803955 0
M  V30 3870 H 383.436 -1.08102 -1.30813 0
M  V30 3871 H 382.208 -2.22758 -3.21706 0
M  V30 3872 H 381.831 -0.663363 -3.92027 0
M  V30 3873 N 382.828 1.3818 -0.7579 0
M  V30 3874 C 384.105 1.94106 -0.241306 0
M  V30 3875 C 384.485 1.69282 1.26122 0
M  V30 3876 O 383.833 1.03378 2.03777 0
M  V30 3877 C 384.043 3.43809 -0.59967 0
M  V30 3878 C 385.391 4.20868 -0.561717 0
M  V30 3879 O 386.415 3.5211 -0.538222 0
M  V30 3880 O 385.274 5.43451 -0.576478 0
M  V30 3881 H 382.368 0.825376 -0.0518042 0
M  V30 3882 H 384.914 1.47548 -0.838315 0
M  V30 3883 H 383.686 3.55403 -1.6372 0
M  V30 3884 H 383.309 3.97592 0.0251197 0
M  V30 3885 N 384.306 0.507319 1.49211 0
M  V30 3886 C 385.717 0.0611118 1.866 0
M  V30 3887 C 386.068 -1.35488 1.41907 0
M  V30 3888 O 385.193 -2.0108 0.799726 0
M  V30 3889 C 385.788 0.104125 3.3864 0
M  V30 3890 C 384.347 -0.28677 3.75306 0
M  V30 3891 C 383.494 0.473893 2.73221 0
M  V30 3892 H 386.445 0.719775 1.41439 0
M  V30 3893 H 386.466 -0.689672 3.74198 0
M  V30 3894 H 385.978 1.13482 3.71138 0
M  V30 3895 H 384.079 -1.32046 3.48417 0
M  V30 3896 H 384.192 0.0370745 4.79086 0
M  V30 3897 H 382.556 -0.0770644 2.54583 0
M  V30 3898 H 383.339 1.50478 3.08563 0
M  V30 3899 N 385.784 -1.5574 0.241426 0
M  V30 3900 C 387.03 -1.99104 -0.385406 0
M  V30 3901 C 387.363 -1.1293 -1.57988 0
M  V30 3902 O 386.638 -0.191449 -1.93555 0
M  V30 3903 C 386.921 -3.51087 -0.800616 0
M  V30 3904 C 386.774 -4.48028 0.398874 0
M  V30 3905 C 388.093 -4.08015 -1.64959 0
M  V30 3906 H 385.212 -0.723848 -0.138614 0
M  V30 3907 H 387.854 -1.86903 0.341642 0
M  V30 3908 H 386.004 -3.61615 -1.4201 0
M  V30 3909 H 387.676 -4.49487 1.03726 0
M  V30 3910 H 385.919 -4.21077 1.04293 0
M  V30 3911 H 386.59 -5.51962 0.0651056 0
M  V30 3912 H 389.066 -4.00555 -1.12672 0
M  V30 3913 H 387.942 -5.14635 -1.90898 0
M  V30 3914 H 388.203 -3.56131 -2.61961 0
M  V30 3915 N 387.262 0.0317525 -1.57568 0
M  V30 3916 C 388.673 0.578692 -1.77505 0
M  V30 3917 C 389.024 1.75749 -0.872164 0
M  V30 3918 O 388.149 2.16298 -0.0663106 0
M  V30 3919 C 388.744 1.05658 -3.21904 0
M  V30 3920 C 387.303 1.54906 -3.43047 0
M  V30 3921 C 386.45 0.485939 -2.73009 0
M  V30 3922 H 389.401 -0.194475 -1.57504 0
M  V30 3923 H 389.422 1.92404 -3.28269 0
M  V30 3924 H 388.934 0.198422 -3.87592 0
M  V30 3925 H 387.035 2.42915 -2.82529 0
M  V30 3926 H 387.148 1.59841 -4.5165 0
M  V30 3927 H 385.512 0.940354 -2.36705 0
M  V30 3928 H 386.295 -0.362709 -3.41379 0
M  V30 3929 N 388.74 1.54641 0.303973 0
M  V30 3930 C 389.988 1.73437 1.0375 0
M  V30 3931 C 390.309 0.521449 1.87899 0
M  V30 3932 O 389.579 -0.46432 1.90318 0
M  V30 3933 H 388.159 0.639518 0.386039 0
M  V30 3934 H 390.821 1.91988 0.335675 0
M  V30 3935 H 389.917 2.62235 1.69231 0
M  V30 3936 N 390.218 -0.567019 1.47046 0
M  V30 3937 C 391.466 -1.322 1.52864 0
M  V30 3938 C 391.787 -1.94088 0.188388 0
M  V30 3939 O 391.057 -1.7941 -0.786693 0
M  V30 3940 H 389.637 -0.490894 0.563056 0
M  V30 3941 H 392.299 -0.662879 1.83281 0
M  V30 3942 H 391.395 -2.12062 2.2899 0
M  V30 3943 N 391.696 -1.35014 -0.812953 0
M  V30 3944 C 392.628 -1.23262 -1.93233 0
M  V30 3945 C 393.641 -0.157371 -1.62038 0
M  V30 3946 O 394.83 -0.410096 -1.73725 0
M  V30 3947 C 391.93 -0.87392 -3.27438 0
M  V30 3948 C 391.103 -2.04622 -3.86586 0
M  V30 3949 C 390.162 -1.66432 -4.99186 0
M  V30 3950 O 389.188 -2.38222 -5.16951 0
M  V30 3951 N 390.39 -0.584248 -5.77552 0
M  V30 3952 H 393.155 -2.19699 -2.03844 0
M  V30 3953 H 390.716 -1.281 -0.99005 0
M  V30 3954 H 392.708 -0.600039 -4.00227 0
M  V30 3955 H 391.278 0.00057392 -3.126 0
M  V30 3956 H 390.498 -2.48427 -3.06068 0
M  V30 3957 H 391.786 -2.82999 -4.22835 0
M  V30 3958 H 391.184 0.0123526 -5.65699 0
M  V30 3959 H 389.741 -0.37013 -6.50748 0
M  V30 3960 N 393.175 1.03435 -1.18907 0
M  V30 3961 C 394.138 2.09756 -0.923844 0
M  V30 3962 C 395.138 1.60528 0.093416 0
M  V30 3963 O 396.328 1.73631 -0.140727 0
M  V30 3964 C 393.46 3.38692 -0.387354 0
M  V30 3965 H 394.653 2.34719 -1.86674 0
M  V30 3966 H 392.206 1.19959 -1.00197 0
M  V30 3967 H 392.941 3.19396 0.561845 0
M  V30 3968 H 392.726 3.75742 -1.12074 0
M  V30 3969 H 394.216 4.17016 -0.220694 0
M  V30 3970 N 394.653 0.992116 1.22453 0
M  V30 3971 C 396.069 0.702713 1.43297 0
M  V30 3972 C 396.269 -0.726909 1.87932 0
M  V30 3973 O 395.325 -1.49792 2.0327 0
M  V30 3974 C 396.638 1.70762 2.47509 0
M  V30 3975 C 398.186 1.72298 2.61309 0
M  V30 3976 C 398.661 2.71649 3.68742 0
M  V30 3977 N 400.152 2.70239 3.76199 0
M  V30 3978 C 400.887 3.43778 4.58917 0
M  V30 3979 N 400.383 4.26914 5.45633 0
M  V30 3980 N 402.176 3.32487 4.5322 0
M  V30 3981 H 394.327 1.91543 0.917871 0
M  V30 3982 H 396.59 0.826031 0.465162 0
M  V30 3983 H 396.296 2.73059 2.21657 0
M  V30 3984 H 396.17 1.49985 3.46099 0
M  V30 3985 H 398.557 0.706989 2.86506 0
M  V30 3986 H 398.638 1.97143 1.62997 0
M  V30 3987 H 398.282 3.73397 3.44292 0
M  V30 3988 H 398.212 2.44074 4.66622 0
M  V30 3989 H 400.703 2.09912 3.14237 0
M  V30 3990 H 401.016 4.79855 6.05771 0
M  V30 3991 H 399.361 4.31002 5.45218 0
M  V30 3992 H 402.552 2.6698 3.84499 0
M  V30 3993 H 402.725 3.90058 5.17454 0
M  V30 3994 N 396.131 -1.37776 0.765217 0
M  V30 3995 C 397.079 -2.32209 0.134798 0
M  V30 3996 C 398.073 -1.54607 -0.692315 0
M  V30 3997 O 399.279 -1.70052 -0.590109 0
M  V30 3998 H 395.654 -0.751591 0.0248005 0
M  V30 3999 H 397.625 -2.8297 0.947119 0
M  V30 4000 C 396.374 -3.39841 -0.735063 0
M  V30 4001 H 395.697 -3.99654 -0.107991 0
M  V30 4002 H 397.137 -4.08296 -1.14326 0
M  V30 4003 C 395.596 -2.79378 -1.88281 0
M  V30 4004 O 396.126 -2.69608 -2.97783 0
M  V30 4005 N 394.332 -2.37016 -1.68142 0
M  V30 4006 H 393.879 -2.45162 -0.790772 0
M  V30 4007 H 393.837 -1.96905 -2.45104 0
M  V30 4008 N 397.609 -0.515225 -1.4894 0
M  V30 4009 C 398.857 0.0241671 -2.02086 0
M  V30 4010 C 399.178 1.3616 -1.3959 0
M  V30 4011 O 398.448 1.87841 -0.556121 0
M  V30 4012 H 397.028 0.0119203 -0.746905 0
M  V30 4013 H 399.69 -0.675702 -1.82812 0
M  V30 4014 H 398.786 0.143385 -3.1177 0
M  V30 4015 N 399.087 1.5561 -0.249682 0
M  V30 4016 C 400.05 2.20217 0.635394 0
M  V30 4017 C 401.05 1.17227 1.10066 0
M  V30 4018 O 402.24 1.42292 1.00492 0
M  V30 4019 C 399.372 2.84794 1.87363 0
M  V30 4020 H 400.565 2.99814 0.0716752 0
M  V30 4021 H 398.118 1.563 -0.000153234 0
M  V30 4022 H 398.853 2.09142 2.47851 0
M  V30 4023 H 398.638 3.60241 1.5482 0
M  V30 4024 H 400.128 3.3423 2.5036 0
M  V30 4025 N 400.565 -0.0233959 1.57583 0
M  V30 4026 C 401.813 -0.711654 1.89156 0
M  V30 4027 C 402.134 -1.75591 0.848096 0
M  V30 4028 O 401.404 -1.95547 -0.117566 0
M  V30 4029 H 399.984 -0.265835 0.698098 0
M  V30 4030 H 402.646 0.0119948 1.94896 0
M  V30 4031 H 401.742 -1.19766 2.88206 0
M  V30 4032 N 402.043 -1.548 -0.295768 0
M  V30 4033 C 403.291 -1.73985 -1.02828 0
M  V30 4034 C 403.612 -0.531406 -1.87619 0
M  V30 4035 O 402.882 0.454221 -1.90561 0
M  V30 4036 H 401.462 -0.641556 -0.382642 0
M  V30 4037 H 404.124 -1.92163 -0.325489 0
M  V30 4038 H 403.22 -2.63129 -1.67838 0
M  V30 4039 N 403.521 0.559213 -1.47345 0
M  V30 4040 C 404.769 1.31388 -1.53563 0
M  V30 4041 C 405.09 1.93985 -0.198678 0
M  V30 4042 O 404.36 1.79825 0.777167 0
M  V30 4043 H 402.94 0.487901 -0.565652 0
M  V30 4044 H 405.602 0.65315 -1.8363 0
M  V30 4045 H 404.698 2.10844 -2.30111 0
M  V30 4046 N 404.999 1.35443 0.805782 0
M  V30 4047 C 406.41 1.25768 1.37983 0
M  V30 4048 C 406.761 -0.10958 1.95894 0
M  V30 4049 O 405.886 -1.01056 1.91355 0
M  V30 4050 C 406.481 2.27727 2.5085 0
M  V30 4051 C 405.04 2.2179 3.04115 0
M  V30 4052 C 404.187 2.13393 1.77084 0
M  V30 4053 H 407.138 1.4656 0.608752 0
M  V30 4054 H 407.159 1.90422 3.29424 0
M  V30 4055 H 406.671 3.27227 2.08671 0
M  V30 4056 H 404.772 1.25703 3.50756 0
M  V30 4057 H 404.885 3.13788 3.62042 0
M  V30 4058 H 403.249 1.59384 1.98668 0
M  V30 4059 H 404.032 3.14755 1.37056 0
M  V30 4060 N 406.477 -1.02803 1.19454 0
M  V30 4061 C 407.893 -1.28473 0.946937 0
M  V30 4062 C 408.093 -1.97881 -0.380202 0
M  V30 4063 O 407.149 -2.26719 -1.11151 0
M  V30 4064 C 408.462 -2.13099 2.12154 0
M  V30 4065 C 410.01 -2.26404 2.16126 0
M  V30 4066 C 410.485 -3.14402 3.33039 0
M  V30 4067 N 411.976 -3.21991 3.32981 0
M  V30 4068 C 412.711 -3.90272 4.20089 0
M  V30 4069 N 412.207 -4.60777 5.17355 0
M  V30 4070 N 414 -3.8668 4.07964 0
M  V30 4071 H 406.151 -0.561665 2.04839 0
M  V30 4072 H 408.414 -0.310438 0.89573 0
M  V30 4073 H 408.12 -1.69422 3.08203 0
M  V30 4074 H 407.994 -3.13813 2.09287 0
M  V30 4075 H 410.381 -2.69311 1.20647 0
M  V30 4076 H 410.462 -1.25237 2.23045 0
M  V30 4077 H 410.106 -2.72204 4.28798 0
M  V30 4078 H 410.036 -4.1563 3.23356 0
M  V30 4079 H 412.527 -2.71778 2.62574 0
M  V30 4080 H 412.84 -5.10513 5.80169 0
M  V30 4081 H 411.185 -4.5964 5.21302 0
M  V30 4082 H 414.376 -3.30739 3.31254 0
M  V30 4083 H 414.549 -4.39621 4.76064 0
M  V30 4084 N 407.956 -0.998596 -1.21925 0
M  V30 4085 C 409.204 -0.676325 -1.90448 0
M  V30 4086 C 409.525 0.794719 -1.78071 0
M  V30 4087 O 408.795 1.5701 -1.17152 0
M  V30 4088 H 407.375 -0.247165 -0.704925 0
M  V30 4089 H 410.037 -1.26633 -1.48156 0
M  V30 4090 H 409.133 -0.943858 -2.97486 0
M  V30 4091 N 409.434 1.37368 -0.772513 0
M  V30 4092 C 410.366 2.28899 -0.117502 0
M  V30 4093 C 411.379 1.4867 0.663405 0
M  V30 4094 O 412.568 1.71314 0.501372 0
M  V30 4095 C 409.668 3.2788 0.857192 0
M  V30 4096 C 408.841 4.37207 0.129938 0
M  V30 4097 C 407.9 5.16257 1.01811 0
M  V30 4098 O 406.926 5.67159 0.481601 0
M  V30 4099 N 408.128 5.31058 2.3443 0
M  V30 4100 H 410.893 2.85752 -0.903662 0
M  V30 4101 H 408.454 1.49353 -0.62493 0
M  V30 4102 H 410.446 3.77647 1.45482 0
M  V30 4103 H 409.016 2.7179 1.54432 0
M  V30 4104 H 408.236 3.88827 -0.648605 0
M  V30 4105 H 409.524 5.07434 -0.372559 0
M  V30 4106 H 408.922 4.91287 2.80452 0
M  V30 4107 H 407.479 5.84131 2.89197 0
M  V30 4108 N 410.912 0.523116 1.48665 0
M  V30 4109 C 412.14 -0.0096312 2.06898 0
M  V30 4110 C 412.555 -1.28784 1.38059 0
M  V30 4111 O 411.912 -1.76453 0.465893 0
M  V30 4112 C 411.963 -0.244386 3.60673 0
M  V30 4113 O 411.684 0.983172 4.26925 0
M  V30 4114 C 413.185 -0.818289 4.35682 0
M  V30 4115 H 410.405 0.0304161 0.67031 0
M  V30 4116 H 412.949 0.726799 1.91149 0
M  V30 4117 H 411.104 -0.930847 3.76051 0
M  V30 4118 H 411.518 0.759653 5.1897 0
M  V30 4119 H 412.992 -0.93201 5.44075 0
M  V30 4120 H 413.469 -1.82153 3.99646 0
M  V30 4121 H 414.075 -0.168609 4.24966 0
M  V30 4122 N 412.39 -1.55475 0.257931 0
M  V30 4123 C 413.801 -1.8511 -0.243135 0
M  V30 4124 C 414.152 -1.17986 -1.5676 0
M  V30 4125 O 413.277 -0.462102 -2.11409 0
M  V30 4126 C 413.872 -3.35826 -0.447929 0
M  V30 4127 C 412.431 -3.65647 -0.893245 0
M  V30 4128 C 411.578 -2.7729 0.0232965 0
M  V30 4129 H 414.529 -1.51261 0.480199 0
M  V30 4130 H 414.55 -3.58002 -1.28898 0
M  V30 4131 H 414.062 -3.84652 0.516196 0
M  V30 4132 H 412.163 -3.22308 -1.86945 0
M  V30 4133 H 412.276 -4.73312 -0.742469 0
M  V30 4134 H 410.64 -2.49942 -0.490021 0
M  V30 4135 H 411.423 -3.28926 0.982994 0
M  V30 4136 N 413.868 0.0150385 -1.57593 0
M  V30 4137 C 414.816 1.02958 -2.08572 0
M  V30 4138 C 415.81 1.36554 -1.00246 0
M  V30 4139 O 417.016 1.35295 -1.18724 0
M  V30 4140 H 413.391 0.349619 -0.665786 0
M  V30 4141 H 415.362 0.573932 -2.92829 0
M  V30 4142 C 414.111 2.31752 -2.59203 0
M  V30 4143 H 413.434 2.06765 -3.42182 0
M  V30 4144 H 414.874 3.01053 -2.98568 0
M  V30 4145 C 413.333 3.01692 -1.49945 0
M  V30 4146 O 413.863 3.92083 -0.873704 0
M  V30 4147 N 412.069 2.6326 -1.23056 0
M  V30 4148 H 411.616 1.89838 -1.74125 0
M  V30 4149 H 411.574 3.10372 -0.501685 0
M  V30 4150 N 415.346 1.54954 0.287554 0
M  V30 4151 C 416.296 1.8322 1.357 0
M  V30 4152 C 417.28 0.690152 1.45347 0
M  V30 4153 O 418.472 0.951137 1.49273 0
M  V30 4154 C 415.601 2.09481 2.71979 0
M  V30 4155 C 414.687 3.29906 2.66502 0
M  V30 4156 N 415.078 4.50154 2.30641 0
M  V30 4157 C 413.376 3.32203 2.97585 0
M  V30 4158 C 414.077 5.32209 2.34794 0
M  V30 4159 N 413.053 4.70258 2.72688 0
M  V30 4160 H 416.855 2.73746 1.0696 0
M  V30 4161 H 414.369 1.54635 0.496167 0
M  V30 4162 H 416.366 2.27882 3.49107 0
M  V30 4163 H 415.026 1.2023 3.0162 0
M  V30 4164 H 416.037 4.76515 2.02865 0
M  V30 4165 H 412.714 2.53101 3.32034 0
M  V30 4166 H 414.104 6.38321 2.09753 0
M  V30 4167 N 416.824 -0.551391 1.4764 0
M  V30 4168 C 417.772 -1.67896 1.60978 0
M  V30 4169 C 418.766 -1.62549 0.476877 0
M  V30 4170 O 419.972 -1.67664 0.654878 0
M  V30 4171 H 416.347 -0.555649 0.506713 0
M  V30 4172 H 418.318 -1.53784 2.55721 0
M  V30 4173 C 417.067 -3.06234 1.64669 0
M  V30 4174 H 416.39 -3.11033 2.51194 0
M  V30 4175 H 417.83 -3.84804 1.7805 0
M  V30 4176 C 416.289 -3.34737 0.381115 0
M  V30 4177 O 416.819 -3.98381 -0.515297 0
M  V30 4178 N 415.025 -2.8944 0.259354 0
M  V30 4179 H 414.572 -2.37827 0.98976 0
M  V30 4180 H 414.53 -3.08882 -0.586464 0
M  V30 4181 N 418.302 -1.35869 -0.798587 0
M  V30 4182 C 419.234 -1.25305 -1.91915 0
M  V30 4183 C 420.247 -0.174548 -1.61862 0
M  V30 4184 O 421.436 -0.428499 -1.73281 0
M  V30 4185 C 418.536 -0.9086 -3.26493 0
M  V30 4186 C 417.709 -2.08711 -3.84394 0
M  V30 4187 C 416.768 -1.71717 -4.97393 0
M  V30 4188 O 415.794 -2.43692 -5.14396 0
M  V30 4189 N 416.996 -0.645473 -5.769 0
M  V30 4190 H 419.761 -2.21849 -2.01502 0
M  V30 4191 H 417.322 -1.29143 -0.976408 0
M  V30 4192 H 419.314 -0.642455 -3.99568 0
M  V30 4193 H 417.884 -0.0325815 -3.12583 0
M  V30 4194 H 417.104 -2.51659 -3.03416 0
M  V30 4195 H 418.392 -2.87468 -4.19809 0
M  V30 4196 H 417.79 -0.047648 -5.6568 0
M  V30 4197 H 416.347 -0.43913 -6.50319 0
M  V30 4198 N 419.78 1.02168 -1.19998 0
M  V30 4199 C 420.712 2.10705 -0.901994 0
M  V30 4200 C 421.725 1.6244 0.108216 0
M  V30 4201 O 422.914 1.78082 -0.12214 0
M  V30 4202 C 420.014 3.37291 -0.329834 0
M  V30 4203 C 419.187 4.14714 -1.39035 0
M  V30 4204 C 418.246 5.19606 -0.830432 0
M  V30 4205 O 417.272 5.48809 -1.50989 0
M  V30 4206 N 418.474 5.79366 0.362696 0
M  V30 4207 H 421.239 2.36856 -1.83628 0
M  V30 4208 H 418.8 1.18518 -1.10296 0
M  V30 4209 H 420.792 4.04657 0.0587633 0
M  V30 4210 H 419.362 3.0843 0.508891 0
M  V30 4211 H 418.582 3.42392 -1.9535 0
M  V30 4212 H 419.87 4.63226 -2.10474 0
M  V30 4213 H 419.268 5.57968 0.932081 0
M  V30 4214 H 417.825 6.48106 0.69299 0
M  V30 4215 N 421.258 1.00505 1.21394 0
M  V30 4216 C 422.535 0.603277 1.86064 0
M  V30 4217 C 422.915 -0.919095 1.90042 0
M  V30 4218 O 422.263 -1.80607 1.39977 0
M  V30 4219 C 422.473 1.23772 3.26315 0
M  V30 4220 C 423.821 1.34586 4.02705 0
M  V30 4221 O 424.845 1.19304 3.35626 0
M  V30 4222 O 423.704 1.59169 5.22807 0
M  V30 4223 H 420.798 0.206634 0.800769 0
M  V30 4224 H 423.344 1.1017 1.29076 0
M  V30 4225 H 422.116 2.27848 3.18121 0
M  V30 4226 H 421.739 0.725648 3.90922 0
M  V30 4227 N 422.737 -1.36956 0.779787 0
M  V30 4228 C 423.985 -1.99097 0.347079 0
M  V30 4229 C 424.306 -1.62206 -1.08232 0
M  V30 4230 O 423.576 -0.891373 -1.74446 0
M  V30 4231 H 422.156 -0.736409 0.125342 0
M  V30 4232 H 424.818 -1.67308 0.999696 0
M  V30 4233 H 423.914 -3.09107 0.431162 0
M  V30 4234 N 424.215 -0.530993 -1.48385 0
M  V30 4235 C 425.492 0.0671788 -1.95485 0
M  V30 4236 C 425.872 1.51191 -1.47324 0
M  V30 4237 O 425.22 2.17507 -0.700202 0
M  V30 4238 C 425.43 -0.0511206 -3.48963 0
M  V30 4239 C 426.778 0.107632 -4.24464 0
M  V30 4240 O 427.802 0.0226248 -3.56193 0
M  V30 4241 O 426.661 0.285972 -5.45751 0
M  V30 4242 H 423.755 0.0787365 -0.823243 0
M  V30 4243 H 426.301 -0.595662 -1.58902 0
M  V30 4244 H 425.073 -1.05747 -3.7674 0
M  V30 4245 H 424.696 0.650525 -3.92242 0
M  V30 4246 N 425.693 1.55336 -0.266172 0
M  V30 4247 C 426.918 2.04258 0.359661 0
M  V30 4248 C 427.343 1.14359 1.49344 0
M  V30 4249 O 426.701 0.140369 1.80756 0
M  V30 4250 C 426.749 3.50997 0.826635 0
M  V30 4251 O 425.853 3.64204 1.93466 0
M  V30 4252 H 425.194 0.659668 0.075727 0
M  V30 4253 H 427.724 2.00694 -0.39786 0
M  V30 4254 H 427.734 3.9219 1.12477 0
M  V30 4255 H 426.409 4.159 -0.00293032 0
M  V30 4256 H 424.986 3.34913 1.63974 0
M  V30 4257 N 427.171 -0.0066808 1.57599 0
M  V30 4258 C 428.419 -0.691552 1.899 0
M  V30 4259 C 428.74 -1.74682 0.866672 0
M  V30 4260 O 428.01 -1.95661 -0.0968189 0
M  V30 4261 H 426.59 -0.258416 0.700878 0
M  V30 4262 H 429.252 0.0326655 1.94873 0
M  V30 4263 H 428.348 -1.16702 2.8946 0
M  V30 4264 N 428.649 -1.55105 -0.279332 0
M  V30 4265 C 429.874 -1.7976 -1.03446 0
M  V30 4266 C 430.299 -0.565952 -1.79384 0
M  V30 4267 O 429.657 0.484259 -1.74713 0
M  V30 4268 C 429.705 -3.0179 -1.97371 0
M  V30 4269 O 428.809 -2.76432 -3.06038 0
M  V30 4270 H 428.15 -0.594334 -0.29608 0
M  V30 4271 H 430.68 -2.02235 -0.310165 0
M  V30 4272 H 430.69 -3.30351 -2.39441 0
M  V30 4273 H 429.365 -3.91085 -1.4151 0
M  V30 4274 H 427.942 -2.58949 -2.68328 0
M  V30 4275 N 430.127 0.543554 -1.4793 0
M  V30 4276 C 431.057 1.65888 -1.64327 0
M  V30 4277 C 432.038 1.62818 -0.492383 0
M  V30 4278 O 433.223 1.80226 -0.723338 0
M  V30 4279 C 430.353 3.04506 -1.67013 0
M  V30 4280 C 429.307 3.2243 -2.81466 0
M  V30 4281 C 428.633 4.61972 -2.69233 0
M  V30 4282 C 429.933 3.06496 -4.22915 0
M  V30 4283 H 431.627 1.52421 -2.57698 0
M  V30 4284 H 429.173 0.731849 -1.24016 0
M  V30 4285 H 431.126 3.82391 -1.77074 0
M  V30 4286 H 429.85 3.18964 -0.70212 0
M  V30 4287 H 428.509 2.46957 -2.70938 0
M  V30 4288 H 428.157 4.73247 -1.7043 0
M  V30 4289 H 427.857 4.74911 -3.46025 0
M  V30 4290 H 429.381 5.41974 -2.81242 0
M  V30 4291 H 430.795 3.74186 -4.34348 0
M  V30 4292 H 429.192 3.30938 -5.006 0
M  V30 4293 H 430.262 2.03077 -4.40327 0
M  V30 4294 N 431.605 1.3629 0.791371 0
M  V30 4295 C 432.853 1.30154 1.5461 0
M  V30 4296 C 433.174 -0.119409 1.94634 0
M  V30 4297 O 432.444 -1.05924 1.64794 0
M  V30 4298 H 431.024 0.478784 0.573389 0
M  V30 4299 H 433.686 1.70565 0.94306 0
M  V30 4300 H 432.782 1.92762 2.45457 0
M  V30 4301 N 433.083 -1.0153 1.20538 0
M  V30 4302 C 434.308 -1.79283 1.04271 0
M  V30 4303 C 434.733 -1.8372 -0.403544 0
M  V30 4304 O 434.091 -1.27321 -1.2907 0
M  V30 4305 C 434.139 -3.21535 1.63241 0
M  V30 4306 O 433.243 -4.03099 0.870908 0
M  V30 4307 H 432.584 -0.55293 0.367647 0
M  V30 4308 H 435.114 -1.27696 1.59859 0
M  V30 4309 H 435.124 -3.72243 1.6703 0
M  V30 4310 H 433.799 -3.1762 2.68497 0
M  V30 4311 H 432.376 -3.61693 0.907323 0
M  V30 4312 N 434.561 -1.01147 -1.20859 0
M  V30 4313 C 435.972 -0.730205 -1.71828 0
M  V30 4314 C 436.323 0.751662 -1.8123 0
M  V30 4315 O 435.448 1.58686 -1.47132 0
M  V30 4316 C 436.043 -1.31885 -3.12077 0
M  V30 4317 C 434.602 -1.08656 -3.60376 0
M  V30 4318 C 433.749 -1.42769 -2.37723 0
M  V30 4319 H 436.7 -1.18158 -1.05945 0
M  V30 4320 H 436.721 -0.706793 -3.73878 0
M  V30 4321 H 436.233 -2.39737 -3.05201 0
M  V30 4322 H 434.334 -0.0254814 -3.72591 0
M  V30 4323 H 434.447 -1.76301 -4.45483 0
M  V30 4324 H 432.811 -0.846603 -2.40218 0
M  V30 4325 H 433.594 -2.51666 -2.33493 0
M  V30 4326 N 436.039 1.36541 -0.78704 0
M  V30 4327 C 437.264 2.0409 -0.369053 0
M  V30 4328 C 437.689 1.58957 1.00569 0
M  V30 4329 O 437.047 0.756926 1.64743 0
M  V30 4330 C 437.095 3.57924 -0.438466 0
M  V30 4331 O 436.199 4.08642 0.555479 0
M  V30 4332 H 435.54 0.645142 -0.157122 0
M  V30 4333 H 438.07 1.74545 -1.06749 0
M  V30 4334 H 438.08 4.06887 -0.301218 0
M  V30 4335 H 436.755 3.90127 -1.44132 0
M  V30 4336 H 435.332 3.70958 0.380088 0
M  V30 4337 N 437.518 0.538854 1.48102 0
M  V30 4338 C 438.481 -0.208395 2.28251 0
M  V30 4339 C 439.481 -0.859656 1.35892 0
M  V30 4340 O 440.671 -0.71834 1.58699 0
M  V30 4341 C 437.803 -1.30252 3.15035 0
M  V30 4342 H 438.996 0.495407 2.9578 0
M  V30 4343 H 436.549 0.295112 1.53489 0
M  V30 4344 H 437.284 -2.0393 2.52157 0
M  V30 4345 H 437.069 -0.840551 3.82985 0
M  V30 4346 H 438.559 -1.82787 3.75471 0
M  V30 4347 N 438.996 -1.55193 0.274407 0
M  V30 4348 C 440.221 -2.04446 -0.348824 0
M  V30 4349 C 440.646 -1.15149 -1.48735 0
M  V30 4350 O 440.004 -0.149952 -1.80679 0
M  V30 4351 C 440.052 -3.51431 -0.808009 0
M  V30 4352 O 439.156 -3.65225 -1.91531 0
M  V30 4353 H 438.497 -0.66006 -0.0722276 0
M  V30 4354 H 441.027 -2.00481 0.408498 0
M  V30 4355 H 441.037 -3.92781 -1.10395 0
M  V30 4356 H 439.712 -4.15892 0.0249865 0
M  V30 4357 H 438.289 -3.35778 -1.62196 0
M  V30 4358 N 440.474 -0.00167713 -1.576 0
M  V30 4359 C 441.89 0.354422 -1.55615 0
M  V30 4360 C 442.09 1.74679 -1.00447 0
M  V30 4361 O 441.146 2.4428 -0.639022 0
M  V30 4362 C 442.459 0.22812 -2.99833 0
M  V30 4363 C 444.007 0.302934 -3.11531 0
M  V30 4364 C 444.482 0.205737 -4.57538 0
M  V30 4365 N 445.973 0.263584 -4.62449 0
M  V30 4366 C 446.708 0.211742 -5.73009 0
M  V30 4367 N 446.204 0.110399 -6.92712 0
M  V30 4368 N 447.997 0.263729 -5.61481 0
M  V30 4369 H 440.148 -0.912498 -1.918 0
M  V30 4370 H 442.411 -0.349928 -0.881053 0
M  V30 4371 H 442.117 -0.729934 -3.44042 0
M  V30 4372 H 441.991 1.00951 -3.6344 0
M  V30 4373 H 444.378 1.25143 -2.67251 0
M  V30 4374 H 444.459 -0.508357 -2.50698 0
M  V30 4375 H 444.103 -0.739225 -5.02492 0
M  V30 4376 H 444.033 1.03554 -5.16318 0
M  V30 4377 H 446.524 0.343173 -3.76339 0
M  V30 4378 H 446.837 0.0767828 -7.72762 0
M  V30 4379 H 445.182 0.0760025 -6.94958 0
M  V30 4380 H 448.373 0.34111 -4.66855 0
M  V30 4381 H 448.546 0.219862 -6.47627 0
M  V30 4382 N 441.952 1.55251 0.271103 0
M  V30 4383 C 442.862 1.9136 1.35714 0
M  V30 4384 C 443.878 0.811075 1.5394 0
M  V30 4385 O 445.054 1.11031 1.6803 0
M  V30 4386 C 442.119 2.1798 2.69603 0
M  V30 4387 C 441.18 3.4153 2.60107 0
M  V30 4388 C 440.413 3.66871 3.8761 0
M  V30 4389 O 440.636 2.94689 4.8838 0
M  V30 4390 O 439.57 4.60405 3.87699 0
M  V30 4391 H 443.396 2.83815 1.08088 0
M  V30 4392 H 440.981 1.41821 0.469792 0
M  V30 4393 H 442.863 2.36518 3.48765 0
M  V30 4394 H 441.538 1.28708 2.97012 0
M  V30 4395 H 440.445 3.28325 1.79314 0
M  V30 4396 H 441.778 4.31027 2.37647 0
M  V30 4397 N 443.43 -0.535701 1.48216 0
M  V30 4398 C 444.655 -1.32149 1.59848 0
M  V30 4399 C 445.08 -1.86338 0.256842 0
M  V30 4400 O 444.438 -1.64107 -0.770632 0
M  V30 4401 C 444.486 -2.45224 2.64381 0
M  V30 4402 O 443.59 -3.48093 2.21144 0
M  V30 4403 H 442.931 -0.391634 0.536208 0
M  V30 4404 H 445.461 -0.645202 1.94161 0
M  V30 4405 H 445.471 -2.91491 2.85476 0
M  V30 4406 H 444.146 -2.05143 3.61786 0
M  V30 4407 H 442.723 -3.07984 2.10239 0
M  V30 4408 N 444.908 -1.36708 -0.784132 0
M  V30 4409 C 445.838 -1.34153 -1.91116 0
M  V30 4410 C 446.819 -0.212121 -1.68772 0
M  V30 4411 O 448.004 -0.410581 -1.8981 0
M  V30 4412 C 445.134 -1.13535 -3.28218 0
M  V30 4413 C 444.088 -2.23356 -3.65097 0
M  V30 4414 C 443.414 -1.87875 -5.00607 0
M  V30 4415 C 444.714 -3.65473 -3.73131 0
M  V30 4416 H 446.408 -2.28459 -1.93512 0
M  V30 4417 H 443.954 -1.09973 -0.929618 0
M  V30 4418 H 445.907 -1.10381 -4.06687 0
M  V30 4419 H 444.631 -0.156804 -3.26223 0
M  V30 4420 H 443.29 -2.25645 -2.88929 0
M  V30 4421 H 442.938 -0.885814 -4.95139 0
M  V30 4422 H 442.638 -2.61406 -5.26252 0
M  V30 4423 H 444.162 -1.86286 -5.81489 0
M  V30 4424 H 445.576 -3.65382 -4.41779 0
M  V30 4425 H 443.973 -4.37953 -4.10265 0
M  V30 4426 H 445.043 -3.99995 -2.74102 0
M  V30 4427 N 446.386 1.0089 -1.21074 0
M  V30 4428 C 447.632 1.74866 -1.02712 0
M  V30 4429 C 447.965 1.89178 0.438787 0
M  V30 4430 O 447.24 1.42325 1.32567 0
M  V30 4431 C 447.523 3.16347 -1.72036 0
M  V30 4432 C 447.376 3.09782 -3.26121 0
M  V30 4433 C 448.695 4.15187 -1.45973 0
M  V30 4434 H 445.814 0.634736 -0.374539 0
M  V30 4435 H 448.456 1.17646 -1.49196 0
M  V30 4436 H 446.606 3.65201 -1.32517 0
M  V30 4437 H 448.278 2.68673 -3.74983 0
M  V30 4438 H 446.521 2.46982 -3.56626 0
M  V30 4439 H 447.192 4.09829 -3.6979 0
M  V30 4440 H 449.668 3.75022 -1.80272 0
M  V30 4441 H 448.544 5.12331 -1.96999 0
M  V30 4442 H 448.805 4.40386 -0.388924 0
M  V30 4443 N 447.864 1.01787 1.20321 0
M  V30 4444 C 448.811 0.589197 2.23153 0
M  V30 4445 C 449.781 -0.391367 1.61423 0
M  V30 4446 O 450.966 -0.290518 1.88575 0
M  V30 4447 C 448.106 -0.0650747 3.45039 0
M  V30 4448 C 447.219 0.960207 4.21194 0
M  V30 4449 C 446.354 0.276854 5.30478 0
M  V30 4450 C 445.393 1.2888 5.98378 0
M  V30 4451 N 444.53 0.632031 6.99249 0
M  V30 4452 H 449.37 1.47071 2.59179 0
M  V30 4453 H 446.907 0.736192 1.27352 0
M  V30 4454 H 448.865 -0.461552 4.14639 0
M  V30 4455 H 447.495 -0.910233 3.09701 0
M  V30 4456 H 446.547 1.47484 3.50646 0
M  V30 4457 H 447.859 1.72977 4.67847 0
M  V30 4458 H 447.013 -0.175056 6.06447 0
M  V30 4459 H 445.752 -0.525004 4.84866 0
M  V30 4460 H 444.757 1.75109 5.21169 0
M  V30 4461 H 445.982 2.09196 6.46076 0
M  V30 4462 H 443.928 -0.149935 6.55829 0
M  V30 4463 H 443.845 1.33964 7.44036 0
M  V30 4464 H 445.113 0.203755 7.79234 0
M  V30 4465 N 449.342 -1.36122 0.79427 0
M  V30 4466 C 450.59 -1.98718 0.368177 0
M  V30 4467 C 450.911 -1.63345 -1.06506 0
M  V30 4468 O 450.181 -0.909825 -1.73491 0
M  V30 4469 H 448.761 -0.735038 0.133146 0
M  V30 4470 H 451.423 -1.66239 1.01739 0
M  V30 4471 H 450.519 -3.08633 0.463923 0
M  V30 4472 N 450.82 -0.546701 -1.47814 0
M  V30 4473 C 452.236 -0.205717 -1.58269 0
M  V30 4474 C 452.436 1.29153 -1.54667 0
M  V30 4475 O 451.492 2.07098 -1.44453 0
M  V30 4476 C 452.805 -0.823065 -2.89216 0
M  V30 4477 C 454.353 -0.793328 -3.02779 0
M  V30 4478 C 454.828 -1.38955 -4.36412 0
M  V30 4479 N 456.319 -1.35227 -4.43021 0
M  V30 4480 C 457.054 -1.78333 -5.44963 0
M  V30 4481 N 456.55 -2.29246 -6.53772 0
M  V30 4482 N 458.343 -1.69467 -5.35945 0
M  V30 4483 H 450.494 -1.5196 -1.48398 0
M  V30 4484 H 452.757 -0.633078 -0.705632 0
M  V30 4485 H 452.463 -1.8749 -2.97558 0
M  V30 4486 H 452.337 -0.309915 -3.75925 0
M  V30 4487 H 454.724 0.249784 -2.94041 0
M  V30 4488 H 454.805 -1.34412 -2.17639 0
M  V30 4489 H 454.449 -2.43168 -4.45906 0
M  V30 4490 H 454.379 -0.814291 -5.20266 0
M  V30 4491 H 456.87 -0.979739 -3.64979 0
M  V30 4492 H 457.183 -2.60089 -7.27718 0
M  V30 4493 H 455.528 -2.3325 -6.5469 0
M  V30 4494 H 458.719 -1.29477 -4.49837 0
M  V30 4495 H 458.892 -2.03381 -6.15256 0
M  V30 4496 N 452.299 1.55045 -0.282633 0
M  V30 4497 C 453.262 2.21515 0.588539 0
M  V30 4498 C 454.262 1.19535 1.07554 0
M  V30 4499 O 455.452 1.44391 0.974514 0
M  V30 4500 C 452.584 2.88704 1.8128 0
M  V30 4501 H 453.777 2.99899 0.00806397 0
M  V30 4502 H 451.33 1.56265 -0.0333067 0
M  V30 4503 H 452.065 2.14352 2.43359 0
M  V30 4504 H 451.85 3.63443 1.47144 0
M  V30 4505 H 453.34 3.39465 2.43214 0
M  V30 4506 N 453.777 0.010035 1.57597 0
M  V30 4507 C 455.025 -0.671371 1.90623 0
M  V30 4508 C 455.346 -1.73753 0.885151 0
M  V30 4509 O 454.616 -1.95752 -0.0760611 0
M  V30 4510 H 453.196 -0.250968 0.703579 0
M  V30 4511 H 455.858 0.0533325 1.94827 0
M  V30 4512 H 454.954 -1.13626 2.90681 0
M  V30 4513 N 455.255 -1.55392 -0.262866 0
M  V30 4514 C 456.666 -1.67079 -0.833158 0
M  V30 4515 C 457.017 -0.604539 -1.86654 0
M  V30 4516 O 456.142 0.252138 -2.14926 0
M  V30 4517 C 456.737 -3.02891 -1.51797 0
M  V30 4518 C 455.296 -3.16571 -2.03617 0
M  V30 4519 C 454.443 -2.62909 -0.881701 0
M  V30 4520 H 457.394 -1.58652 -0.0389986 0
M  V30 4521 H 457.415 -2.96445 -2.38538 0
M  V30 4522 H 456.927 -3.80473 -0.765619 0
M  V30 4523 H 455.028 -2.43782 -2.81782 0
M  V30 4524 H 455.141 -4.23271 -2.24452 0
M  V30 4525 H 453.505 -2.20324 -1.27786 0
M  V30 4526 H 454.288 -3.43003 -0.14269 0
M  V30 4527 N 456.733 0.527833 -1.48498 0
M  V30 4528 C 458.01 1.28905 -1.47115 0
M  V30 4529 C 458.39 2.10297 -0.184007 0
M  V30 4530 O 457.738 2.12728 0.834218 0
M  V30 4531 C 457.948 2.16866 -2.73441 0
M  V30 4532 C 459.296 2.76936 -3.21857 0
M  V30 4533 O 460.32 2.27152 -2.74373 0
M  V30 4534 O 459.179 3.67496 -4.04486 0
M  V30 4535 H 456.273 0.581918 -0.587623 0
M  V30 4536 H 458.819 0.544311 -1.60734 0
M  V30 4537 H 457.591 1.56521 -3.58632 0
M  V30 4538 H 457.214 2.98583 -2.62553 0
M  V30 4539 N 458.211 1.37122 0.776871 0
M  V30 4540 C 459.439 1.3523 1.5659 0
M  V30 4541 C 459.854 -0.0635518 1.88693 0
M  V30 4542 O 459.211 -1.02394 1.51069 0
M  V30 4543 C 459.262 2.18583 2.8793 0
M  V30 4544 O 458.983 3.5465 2.57206 0
M  V30 4545 C 460.484 2.24612 3.82183 0
M  V30 4546 H 457.704 0.4634 0.485285 0
M  V30 4547 H 460.248 1.80392 0.963266 0
M  V30 4548 H 458.403 1.76943 3.4463 0
M  V30 4549 H 458.817 3.98286 3.41275 0
M  V30 4550 H 460.291 2.87267 4.71361 0
M  V30 4551 H 460.768 1.25309 4.20944 0
M  V30 4552 H 461.374 2.66543 3.31414 0
M  V30 4553 N 459.689 -1.00246 1.21608 0
M  V30 4554 C 460.914 -1.78167 1.06167 0
M  V30 4555 C 461.339 -1.84138 -0.384035 0
M  V30 4556 O 460.697 -1.28683 -1.27712 0
M  V30 4557 C 460.745 -3.19786 1.66642 0
M  V30 4558 O 459.849 -4.02153 0.913613 0
M  V30 4559 H 459.19 -0.549 0.37349 0
M  V30 4560 H 461.72 -1.25994 1.61204 0
M  V30 4561 H 461.73 -3.70451 1.70969 0
M  V30 4562 H 460.405 -3.14754 2.7185 0
M  V30 4563 H 458.982 -3.60711 0.945635 0
M  V30 4564 N 461.167 -1.02423 -1.1978 0
M  V30 4565 C 462.13 -0.605703 -2.21052 0
M  V30 4566 C 463.13 0.328209 -1.57415 0
M  V30 4567 O 464.32 0.115853 -1.73814 0
M  V30 4568 C 461.452 0.114366 -3.40708 0
M  V30 4569 H 462.645 -1.5017 -2.59594 0
M  V30 4570 H 460.198 -0.814888 -1.33376 0
M  V30 4571 H 460.933 1.02492 -3.07678 0
M  V30 4572 H 460.718 -0.556641 -3.88129 0
M  V30 4573 H 462.208 0.394272 -4.15735 0
M  V30 4574 N 462.645 1.35699 -0.801477 0
M  V30 4575 C 463.87 2.03687 -0.390678 0
M  V30 4576 C 464.295 1.60015 0.988778 0
M  V30 4577 O 463.653 0.774357 1.63931 0
M  V30 4578 C 463.701 3.57439 -0.476404 0
M  V30 4579 O 462.805 4.09208 0.512106 0
M  V30 4580 H 462.146 0.64344 -0.163956 0
M  V30 4581 H 464.676 1.73403 -1.08594 0
M  V30 4582 H 464.686 4.06544 -0.344357 0
M  V30 4583 H 463.361 3.88576 -1.48262 0
M  V30 4584 H 461.938 3.7134 0.340721 0
M  V30 4585 N 464.123 0.554532 1.47522 0
M  V30 4586 C 465.371 0.0294208 2.02079 0
M  V30 4587 C 465.692 -1.32411 1.43151 0
M  V30 4588 O 464.962 -1.863 0.605728 0
M  V30 4589 H 463.542 0.00788672 0.746958 0
M  V30 4590 H 466.204 0.723934 1.80956 0
M  V30 4591 H 465.3 -0.0606745 3.12041 0
M  V30 4592 N 465.601 -1.54893 0.290851 0
M  V30 4593 C 466.511 -2.26812 -0.59945 0
M  V30 4594 C 467.527 -1.29963 -1.15696 0
M  V30 4595 O 468.703 -1.62928 -1.18391 0
M  V30 4596 C 465.768 -2.98716 -1.75982 0
M  V30 4597 C 464.829 -4.1108 -1.2374 0
M  V30 4598 C 464.062 -4.79546 -2.34246 0
M  V30 4599 O 464.285 -4.47309 -3.53936 0
M  V30 4600 O 463.219 -5.67165 -2.01512 0
M  V30 4601 H 467.045 -3.03696 -0.0163561 0
M  V30 4602 H 464.63 -1.49289 0.0576755 0
M  V30 4603 H 466.512 -3.43851 -2.43607 0
M  V30 4604 H 465.187 -2.24737 -2.3297 0
M  V30 4605 H 464.094 -3.70367 -0.527163 0
M  V30 4606 H 465.427 -4.87007 -0.71307 0
M  V30 4607 N 467.08 -0.0183926 -1.57589 0
M  V30 4608 C 468.491 0.521927 -1.79256 0
M  V30 4609 C 468.842 1.72885 -0.927636 0
M  V30 4610 O 467.967 2.15978 -0.135091 0
M  V30 4611 C 468.562 0.953632 -3.25102 0
M  V30 4612 C 467.121 1.43913 -3.47801 0
M  V30 4613 C 466.268 0.398837 -2.74417 0
M  V30 4614 H 469.219 -0.244485 -1.56805 0
M  V30 4615 H 469.24 1.81863 -3.34224 0
M  V30 4616 H 468.752 0.0750123 -3.88028 0
M  V30 4617 H 466.853 2.33804 -2.90115 0
M  V30 4618 H 466.966 1.45391 -4.56507 0
M  V30 4619 H 465.33 0.864572 -2.39577 0
M  V30 4620 H 466.113 -0.471132 -3.40052 0
M  V30 4621 N 468.558 1.5553 0.254621 0
M  V30 4622 C 469.806 1.7665 0.981793 0
M  V30 4623 C 470.127 0.580963 1.86145 0
M  V30 4624 O 469.397 -0.403537 1.91699 0
M  V30 4625 H 467.977 0.651475 0.365498 0
M  V30 4626 H 470.639 1.92958 0.274426 0
M  V30 4627 H 469.735 2.67486 1.60802 0
M  V30 4628 N 470.036 -0.519951 1.48776 0
M  V30 4629 C 470.999 -1.60574 1.6355 0
M  V30 4630 C 471.999 -1.52557 0.508234 0
M  V30 4631 O 473.189 -1.56047 0.774262 0
M  V30 4632 C 470.321 -3.00211 1.61512 0
M  V30 4633 H 471.514 -1.4881 2.60376 0
M  V30 4634 H 469.067 -0.742772 1.37523 0
M  V30 4635 H 469.802 -3.17471 0.662009 0
M  V30 4636 H 469.587 -3.07439 2.43359 0
M  V30 4637 H 471.077 -3.79134 1.75064 0
M  V30 4638 N 471.514 -1.37532 -0.769588 0
M  V30 4639 C 472.462 -1.33561 -1.90432 0
M  V30 4640 C 473.456 -0.224027 -1.67912 0
M  V30 4641 O 474.662 -0.392174 -1.75676 0
M  V30 4642 H 471.037 -0.416279 -0.626271 0
M  V30 4643 H 473.008 -2.29348 -1.90899 0
M  V30 4644 C 471.757 -1.16162 -3.27722 0
M  V30 4645 H 471.08 -2.00951 -3.45628 0
M  V30 4646 H 472.52 -1.17434 -4.07413 0
M  V30 4647 C 470.979 0.132583 -3.36639 0
M  V30 4648 O 471.509 1.11539 -3.85904 0
M  V30 4649 N 469.715 0.184013 -2.90017 0
M  V30 4650 H 469.262 -0.616415 -2.50116 0
M  V30 4651 H 469.22 1.04956 -2.96364 0
M  V30 4652 N 472.992 0.995999 -1.22138 0
M  V30 4653 C 474.217 1.77601 -1.0711 0
M  V30 4654 C 474.642 1.84339 0.374264 0
M  V30 4655 O 474 1.29359 1.27028 0
M  V30 4656 C 474.048 3.18897 -1.68336 0
M  V30 4657 O 473.152 4.01663 -0.934928 0
M  V30 4658 H 472.493 0.547011 -0.376397 0
M  V30 4659 H 475.023 1.25137 -1.6187 0
M  V30 4660 H 475.033 3.69539 -1.72931 0
M  V30 4661 H 473.708 3.13308 -2.73516 0
M  V30 4662 H 472.285 3.60204 -0.964751 0
M  V30 4663 N 474.47 1.03057 1.19235 0
M  V30 4664 C 475.417 0.612832 2.22515 0
M  V30 4665 C 476.387 -0.374224 1.61829 0
M  V30 4666 O 477.572 -0.270501 1.88873 0
M  V30 4667 C 474.712 -0.028475 3.45088 0
M  V30 4668 C 473.825 1.00483 4.20151 0
M  V30 4669 C 472.96 0.333102 5.30155 0
M  V30 4670 C 471.999 1.3522 5.96977 0
M  V30 4671 N 471.136 0.70616 6.9854 0
M  V30 4672 H 475.976 1.49812 2.57605 0
M  V30 4673 H 473.513 0.749658 1.26564 0
M  V30 4674 H 475.471 -0.417548 4.15105 0
M  V30 4675 H 474.101 -0.877334 3.10649 0
M  V30 4676 H 473.153 1.51194 3.49062 0
M  V30 4677 H 474.465 1.77929 4.65986 0
M  V30 4678 H 473.619 -0.110725 6.06599 0
M  V30 4679 H 472.358 -0.473547 4.85396 0
M  V30 4680 H 471.363 1.80627 5.19282 0
M  V30 4681 H 472.588 2.16037 6.4382 0
M  V30 4682 H 470.534 -0.0803667 6.55951 0
M  V30 4683 H 470.451 1.41848 7.42573 0
M  V30 4684 H 471.719 0.286391 7.78974 0
M  V30 4685 N 475.948 -1.35272 0.808662 0
M  V30 4686 C 476.878 -2.32315 0.234981 0
M  V30 4687 C 477.859 -1.57572 -0.64071 0
M  V30 4688 O 479.044 -1.8563 -0.570551 0
M  V30 4689 C 476.174 -3.41801 -0.615601 0
M  V30 4690 C 475.128 -4.27694 0.161767 0
M  V30 4691 C 474.454 -5.28519 -0.810649 0
M  V30 4692 C 475.754 -5.04231 1.36193 0
M  V30 4693 H 477.448 -2.80543 1.04575 0
M  V30 4694 H 474.994 -1.3488 0.504315 0
M  V30 4695 H 476.947 -4.08693 -1.02702 0
M  V30 4696 H 475.671 -2.92186 -1.45928 0
M  V30 4697 H 474.33 -3.62384 0.554382 0
M  V30 4698 H 473.978 -4.75171 -1.64988 0
M  V30 4699 H 473.678 -5.8686 -0.294822 0
M  V30 4700 H 475.202 -5.98283 -1.22023 0
M  V30 4701 H 476.616 -5.64058 1.02528 0
M  V30 4702 H 475.013 -5.72077 1.81239 0
M  V30 4703 H 476.083 -4.34753 2.14751 0
M  V30 4704 N 477.426 -0.562348 -1.47226 0
M  V30 4705 C 478.356 0.170627 -2.32876 0
M  V30 4706 C 479.337 0.903748 -1.44106 0
M  V30 4707 O 480.522 0.883206 -1.72954 0
M  V30 4708 C 477.652 1.19786 -3.25989 0
M  V30 4709 C 476.606 0.580875 -4.2404 0
M  V30 4710 C 475.932 1.71311 -5.06514 0
M  V30 4711 C 477.232 -0.468714 -5.20193 0
M  V30 4712 H 478.926 -0.544441 -2.94408 0
M  V30 4713 H 476.472 -0.263271 -1.41573 0
M  V30 4714 H 478.425 1.71884 -3.84752 0
M  V30 4715 H 477.149 1.94294 -2.62521 0
M  V30 4716 H 475.808 0.0811538 -3.6651 0
M  V30 4717 H 475.456 2.44736 -4.39447 0
M  V30 4718 H 475.156 1.30604 -5.72902 0
M  V30 4719 H 476.68 2.23725 -5.68137 0
M  V30 4720 H 478.094 -0.0336028 -5.7329 0
M  V30 4721 H 476.491 -0.794957 -5.94811 0
M  V30 4722 H 477.561 -1.36269 -4.65359 0
M  V30 4723 N 478.904 1.54736 -0.299062 0
M  V30 4724 C 480.134 2.04215 0.312992 0
M  V30 4725 C 480.542 1.17596 1.48215 0
M  V30 4726 O 479.885 0.193835 1.82674 0
M  V30 4727 C 479.947 3.49696 0.833862 0
M  V30 4728 C 479.611 4.56518 -0.20977 0
M  V30 4729 C 480.608 5.09442 -1.03756 0
M  V30 4730 C 478.293 5.01073 -0.35091 0
M  V30 4731 C 480.287 6.05459 -1.99244 0
M  V30 4732 C 477.974 5.9691 -1.30924 0
M  V30 4733 C 478.972 6.48987 -2.1285 0
M  V30 4734 O 478.66 7.42947 -3.07059 0
M  V30 4735 H 478.392 0.672128 0.0722494 0
M  V30 4736 H 480.946 2.00718 -0.436043 0
M  V30 4737 H 479.176 3.5051 1.63339 0
M  V30 4738 H 480.865 3.82381 1.36159 0
M  V30 4739 H 481.631 4.75816 -0.939376 0
M  V30 4740 H 477.51 4.60168 0.276813 0
M  V30 4741 H 481.054 6.46031 -2.63229 0
M  V30 4742 H 476.951 6.29953 -1.40815 0
M  V30 4743 H 477.719 7.60743 -3.02015 0
M  V30 4744 N 480.382 0.0267497 1.57577 0
M  V30 4745 C 481.329 -0.955894 2.10075 0
M  V30 4746 C 482.299 -1.32453 1.00226 0
M  V30 4747 O 483.484 -1.41826 1.27632 0
M  V30 4748 C 480.624 -2.2338 2.6305 0
M  V30 4749 C 479.737 -1.92183 3.86898 0
M  V30 4750 C 478.872 -3.14251 4.28275 0
M  V30 4751 C 477.911 -2.78862 5.44888 0
M  V30 4752 N 477.048 -3.93548 5.81433 0
M  V30 4753 H 481.888 -0.501303 2.93753 0
M  V30 4754 H 479.425 -0.235847 1.45197 0
M  V30 4755 H 481.383 -2.98124 2.91853 0
M  V30 4756 H 480.013 -2.6646 1.82205 0
M  V30 4757 H 479.065 -1.07692 3.64838 0
M  V30 4758 H 480.377 -1.62117 4.7172 0
M  V30 4759 H 479.531 -3.97317 4.58502 0
M  V30 4760 H 478.27 -3.47476 3.42215 0
M  V30 4761 H 477.275 -1.94208 5.14357 0
M  V30 4762 H 478.5 -2.46855 6.32645 0
M  V30 4763 H 476.446 -4.2662 4.98328 0
M  V30 4764 H 476.363 -3.67098 6.6089 0
M  V30 4765 H 477.631 -4.77325 6.16264 0
M  V30 4766 N 481.861 -1.55662 -0.24637 0
M  V30 4767 C 482.824 -1.89558 -1.28842 0
M  V30 4768 C 483.824 -0.772082 -1.41052 0
M  V30 4769 O 485.014 -1.04007 -1.39743 0
M  V30 4770 C 482.146 -2.12449 -2.66605 0
M  V30 4771 H 483.339 -2.82735 -1.00004 0
M  V30 4772 H 480.892 -1.48562 -0.485684 0
M  V30 4773 H 481.627 -1.21742 -3.00582 0
M  V30 4774 H 481.412 -2.94273 -2.59125 0
M  V30 4775 H 482.902 -2.39854 -3.41847 0
M  V30 4776 N 483.339 0.512053 -1.4905 0
M  V30 4777 C 484.564 1.2959 -1.6193 0
M  V30 4778 C 484.989 1.85906 -0.286454 0
M  V30 4779 O 484.347 1.65312 0.744426 0
M  V30 4780 C 484.395 2.40987 -2.68249 0
M  V30 4781 O 483.499 3.44531 -2.26654 0
M  V30 4782 H 482.84 0.383053 -0.542371 0
M  V30 4783 H 485.37 0.614231 -1.95162 0
M  V30 4784 H 485.38 2.86913 -2.90078 0
M  V30 4785 H 484.055 1.99361 -3.65004 0
M  V30 4786 H 482.632 3.046 -2.15112 0
M  V30 4787 N 484.817 1.37938 0.762283 0
M  V30 4788 C 486.063 1.33866 1.52341 0
M  V30 4789 C 486.396 -0.0738961 1.94059 0
M  V30 4790 O 485.671 -1.03326 1.64785 0
M  V30 4791 C 485.954 2.28644 2.78197 0
M  V30 4792 C 485.807 3.78722 2.42672 0
M  V30 4793 C 487.126 2.21702 3.80179 0
M  V30 4794 H 484.245 0.487593 0.55265 0
M  V30 4795 H 486.887 1.68717 0.873767 0
M  V30 4796 H 485.037 1.99055 3.33631 0
M  V30 4797 H 486.709 4.18948 1.93081 0
M  V30 4798 H 484.952 3.96827 1.75244 0
M  V30 4799 H 485.623 4.40486 3.3268 0
M  V30 4800 H 488.099 2.47805 3.34263 0
M  V30 4801 H 486.975 2.90143 4.65949 0
M  V30 4802 H 487.236 1.21301 4.25133 0
M  V30 4803 N 486.295 -0.989507 1.22664 0
M  V30 4804 C 487.541 -1.7321 1.05481 0
M  V30 4805 C 487.874 -1.89852 -0.408635 0
M  V30 4806 O 487.149 -1.44416 -1.30285 0
M  V30 4807 C 487.432 -3.1357 1.77047 0
M  V30 4808 C 487.285 -3.04555 3.31008 0
M  V30 4809 C 488.604 -4.12812 1.5256 0
M  V30 4810 H 485.723 -0.628697 0.384589 0
M  V30 4811 H 488.365 -1.15258 1.51049 0
M  V30 4812 H 486.515 -3.63046 1.3831 0
M  V30 4813 H 488.187 -2.62674 3.7921 0
M  V30 4814 H 486.43 -2.41278 3.6051 0
M  V30 4815 H 487.101 -4.03894 3.76263 0
M  V30 4816 H 489.577 -3.72106 1.86215 0
M  V30 4817 H 488.453 -5.09132 2.05124 0
M  V30 4818 H 488.714 -4.39711 0.458936 0
M  V30 4819 N 487.773 -1.03688 -1.18687 0
M  V30 4820 C 488.72 -0.624624 -2.22187 0
M  V30 4821 C 489.69 0.365636 -1.62026 0
M  V30 4822 O 490.875 0.260481 -1.89014 0
M  V30 4823 C 488.015 0.0101738 -3.45099 0
M  V30 4824 C 487.128 -1.02709 -4.19613 0
M  V30 4825 C 486.263 -0.361213 -5.2997 0
M  V30 4826 C 485.302 -1.38384 -5.96252 0
M  V30 4827 N 484.439 -0.743196 -6.98155 0
M  V30 4828 H 489.279 -1.51176 -2.56807 0
M  V30 4829 H 486.816 -0.75636 -1.26165 0
M  V30 4830 H 488.774 0.395528 -4.15321 0
M  V30 4831 H 487.404 0.860848 -3.1111 0
M  V30 4832 H 486.456 -1.53043 -3.48256 0
M  V30 4833 H 487.768 -1.80398 -4.65036 0
M  V30 4834 H 486.922 0.0785537 -6.06649 0
M  V30 4835 H 485.661 0.447799 -4.8564 0
M  V30 4836 H 484.666 -1.83378 -5.18317 0
M  V30 4837 H 485.891 -2.19448 -6.42666 0
M  V30 4838 H 483.837 0.0455789 -6.55984 0
M  V30 4839 H 483.754 -1.45784 -7.41811 0
M  V30 4840 H 485.022 -0.327698 -7.78811 0
M  V30 4841 N 489.251 1.34841 -0.815825 0
M  V30 4842 C 490.198 2.29644 -0.230664 0
M  V30 4843 C 491.168 1.53253 0.640533 0
M  V30 4844 O 492.353 1.81653 0.583672 0
M  V30 4845 C 489.493 3.39715 0.607275 0
M  V30 4846 C 488.606 4.31056 -0.28538 0
M  V30 4847 C 487.741 5.28225 0.561446 0
M  V30 4848 C 486.78 6.11204 -0.331035 0
M  V30 4849 N 485.917 7.00483 0.476302 0
M  V30 4850 H 490.757 2.79095 -1.0445 0
M  V30 4851 H 488.294 1.37351 -0.526595 0
M  V30 4852 H 490.252 4.02208 1.10835 0
M  V30 4853 H 488.882 2.91517 1.38629 0
M  V30 4854 H 487.934 3.69487 -0.904621 0
M  V30 4855 H 489.246 4.89239 -0.97193 0
M  V30 4856 H 488.4 5.96135 1.12728 0
M  V30 4857 H 487.139 4.70562 1.28153 0
M  V30 4858 H 486.144 5.42232 -0.909069 0
M  V30 4859 H 487.369 6.70947 -1.04912 0
M  V30 4860 H 485.315 6.45296 1.18019 0
M  V30 4861 H 485.232 7.55847 -0.152008 0
M  V30 4862 H 486.5 7.7273 1.02512 0
M  V30 4863 N 490.729 0.570148 1.46925 0
M  V30 4864 C 491.692 -0.159933 2.28641 0
M  V30 4865 C 492.692 -0.830638 1.37685 0
M  V30 4866 O 493.882 -0.684516 1.60187 0
M  V30 4867 C 491.014 -1.2354 3.17727 0
M  V30 4868 H 492.207 0.558035 2.94662 0
M  V30 4869 H 489.76 0.327603 1.52828 0
M  V30 4870 H 490.495 -1.98535 2.56426 0
M  V30 4871 H 490.28 -0.759125 3.84681 0
M  V30 4872 H 491.77 -1.74782 3.79264 0
M  V30 4873 N 492.207 -1.54576 0.307264 0
M  V30 4874 C 493.17 -2.22423 -0.553224 0
M  V30 4875 C 494.17 -1.21231 -1.05639 0
M  V30 4876 O 495.36 -1.45923 -0.951419 0
M  V30 4877 C 492.492 -2.91552 -1.76664 0
M  V30 4878 H 493.685 -2.99874 0.0396484 0
M  V30 4879 H 491.238 -1.56192 0.0581629 0
M  V30 4880 H 491.973 -2.18196 -2.39918 0
M  V30 4881 H 491.758 -3.65738 -1.41343 0
M  V30 4882 H 493.248 -3.43292 -2.37783 0
M  V30 4883 N 493.685 -0.035106 -1.57561 0
M  V30 4884 C 494.648 0.929819 -2.09492 0
M  V30 4885 C 495.648 1.25026 -1.01119 0
M  V30 4886 O 496.838 1.18961 -1.27255 0
M  V30 4887 C 493.97 2.24457 -2.56577 0
M  V30 4888 H 495.163 0.479935 -2.96035 0
M  V30 4889 H 492.716 0.213033 -1.54841 0
M  V30 4890 H 493.451 2.74061 -1.73382 0
M  V30 4891 H 493.236 2.02508 -3.35757 0
M  V30 4892 H 494.726 2.93607 -2.96959 0
M  V30 4893 N 495.163 1.55791 0.238111 0
M  V30 4894 C 496.579 1.48411 0.587045 0
M  V30 4895 C 496.779 0.72702 1.87927 0
M  V30 4896 O 495.835 0.259942 2.51158 0
M  V30 4897 C 497.148 2.92873 0.681623 0
M  V30 4898 C 498.696 3.03295 0.773363 0
M  V30 4899 C 499.171 4.49082 0.899428 0
M  V30 4900 N 500.662 4.53056 0.964075 0
M  V30 4901 C 501.397 5.63117 1.08104 0
M  V30 4902 N 500.893 6.82969 1.16299 0
M  V30 4903 N 502.686 5.50933 1.11488 0
M  V30 4904 H 494.837 2.0345 -0.610076 0
M  V30 4905 H 497.1 0.924034 -0.211813 0
M  V30 4906 H 496.806 3.51142 -0.19802 0
M  V30 4907 H 496.68 3.43851 1.55069 0
M  V30 4908 H 499.067 2.45101 1.64346 0
M  V30 4909 H 499.148 2.55513 -0.121034 0
M  V30 4910 H 498.792 5.07889 0.0338586 0
M  V30 4911 H 498.722 4.94553 1.809 0
M  V30 4912 H 501.213 3.66737 0.91173 0
M  V30 4913 H 501.526 7.62598 1.25155 0
M  V30 4914 H 499.871 6.85712 1.13241 0
M  V30 4915 H 503.062 4.56231 1.0474 0
M  V30 4916 H 503.235 6.36743 1.20259 0
M  V30 4917 N 496.642 -0.504142 1.49319 0
M  V30 4918 C 498.058 -0.835039 1.36012 0
M  V30 4919 C 498.258 -1.97674 0.390808 0
M  V30 4920 O 497.314 -2.51867 -0.178655 0
M  V30 4921 C 498.627 -1.17821 2.76656 0
M  V30 4922 C 500.175 -1.2866 2.85334 0
M  V30 4923 C 500.65 -1.66307 4.26739 0
M  V30 4924 N 502.141 -1.73362 4.29534 0
M  V30 4925 C 502.876 -2.0393 5.35911 0
M  V30 4926 N 502.372 -2.32744 6.52535 0
M  V30 4927 N 504.165 -2.05155 5.23324 0
M  V30 4928 H 496.316 0.248764 2.10938 0
M  V30 4929 H 498.579 0.0486962 0.946748 0
M  V30 4930 H 498.285 -0.412682 3.4927 0
M  V30 4931 H 498.159 -2.12239 3.11825 0
M  V30 4932 H 500.546 -2.04285 2.1296 0
M  V30 4933 H 500.627 -0.323004 2.53752 0
M  V30 4934 H 500.271 -0.91234 4.99639 0
M  V30 4935 H 500.201 -2.63761 4.55782 0
M  V30 4936 H 502.692 -1.53268 3.45424 0
M  V30 4937 H 503.005 -2.55248 7.2943 0
M  V30 4938 H 501.35 -2.30207 6.55767 0
M  V30 4939 H 504.541 -1.82119 4.3122 0
M  V30 4940 H 504.714 -2.28644 6.06322 0
M  V30 4941 N 498.12 -1.38341 -0.754957 0
M  V30 4942 C 499.536 -1.19508 -1.05783 0
M  V30 4943 C 499.736 -0.0428005 -2.01455 0
M  V30 4944 O 498.792 0.611861 -2.44975 0
M  V30 4945 C 500.105 -2.52091 -1.63923 0
M  V30 4946 C 501.653 -2.58762 -1.76101 0
M  V30 4947 C 502.128 -3.91517 -2.37652 0
M  V30 4948 N 503.619 -3.93049 -2.45085 0
M  V30 4949 C 504.354 -4.9253 -2.93602 0
M  V30 4950 N 503.85 -6.02408 -3.42165 0
M  V30 4951 N 505.643 -4.79921 -2.92629 0
M  V30 4952 H 497.794 -2.1206 -0.120056 0
M  V30 4953 H 500.057 -0.94089 -0.11589 0
M  V30 4954 H 499.763 -3.36858 -1.01093 0
M  V30 4955 H 499.637 -2.70388 -2.63003 0
M  V30 4956 H 502.024 -1.74391 -2.38058 0
M  V30 4957 H 502.105 -2.44333 -0.757294 0
M  V30 4958 H 501.749 -4.76309 -1.76329 0
M  V30 4959 H 501.679 -4.03256 -3.38662 0
M  V30 4960 H 504.17 -3.13685 -2.10736 0
M  V30 4961 H 504.483 -6.74248 -3.77637 0
M  V30 4962 H 502.828 -6.0603 -3.40225 0
M  V30 4963 H 506.019 -3.93194 -2.54001 0
M  V30 4964 H 506.192 -5.57601 -3.30128 0
M  V30 4965 N 499.598 0.982988 -1.23187 0
M  V30 4966 C 501.014 1.2487 -0.993967 0
M  V30 4967 C 501.214 1.99155 0.306498 0
M  V30 4968 O 500.27 2.30688 1.0266 0
M  V30 4969 C 501.583 2.05078 -2.19917 0
M  V30 4970 C 503.131 2.18227 -2.2438 0
M  V30 4971 C 503.606 3.01825 -3.44479 0
M  V30 4972 N 505.097 3.09411 -3.44702 0
M  V30 4973 C 505.832 3.74412 -4.34285 0
M  V30 4974 N 505.328 4.41259 -5.341 0
M  V30 4975 N 507.121 3.71273 -4.22035 0
M  V30 4976 H 499.272 0.485253 -2.06783 0
M  V30 4977 H 501.535 0.276979 -0.906635 0
M  V30 4978 H 501.241 1.57867 -3.14279 0
M  V30 4979 H 501.115 3.05829 -2.2079 0
M  V30 4980 H 503.502 2.64648 -1.30559 0
M  V30 4981 H 503.583 1.16873 -2.2754 0
M  V30 4982 H 503.227 2.56102 -4.38605 0
M  V30 4983 H 503.157 4.03342 -3.38559 0
M  V30 4984 H 505.648 2.61845 -2.7248 0
M  V30 4985 H 505.961 4.88629 -5.98717 0
M  V30 4986 H 504.306 4.39975 -5.38002 0
M  V30 4987 H 507.497 3.18217 -3.43301 0
M  V30 4988 H 507.67 4.21649 -4.92053 0
M  V30 4989 N 501.076 1.04316 1.18135 0
M  V30 4990 C 502.026 0.606731 2.19779 0
M  V30 4991 C 503.01 -0.352144 1.56999 0
M  V30 4992 O 504.202 -0.170795 1.76174 0
M  V30 4993 C 501.331 -0.0262443 3.4329 0
M  V30 4994 C 500.417 0.955928 4.13186 0
M  V30 4995 N 500.808 2.12395 4.59045 0
M  V30 4996 C 499.106 0.782473 4.39082 0
M  V30 4997 C 499.807 2.74458 5.12882 0
M  V30 4998 N 498.783 2.02316 5.04548 0
M  V30 4999 H 502.585 1.49679 2.5293 0
M  V30 5000 H 500.099 0.912088 1.34368 0
M  V30 5001 H 502.096 -0.356617 4.15372 0
M  V30 5002 H 500.756 -0.911811 3.11635 0
M  V30 5003 H 501.767 2.50272 4.53414 0
M  V30 5004 H 498.444 -0.0527906 4.17467 0
M  V30 5005 H 499.834 3.73459 5.5855 0
M  V30 5006 N 502.554 -1.34406 0.822964 0
M  V30 5007 C 503.965 -1.8069 0.469879 0
M  V30 5008 C 504.316 -1.68223 -1.00972 0
M  V30 5009 O 503.441 -1.22226 -1.78577 0
M  V30 5010 C 504.036 -3.28064 0.846118 0
M  V30 5011 C 502.595 -3.72428 0.545402 0
M  V30 5012 C 501.742 -2.56116 1.06301 0
M  V30 5013 H 504.693 -1.22153 1.01313 0
M  V30 5014 H 504.714 -3.80205 0.149922 0
M  V30 5015 H 504.226 -3.37107 1.92304 0
M  V30 5016 H 502.327 -3.68924 -0.522109 0
M  V30 5017 H 502.44 -4.66548 1.0895 0
M  V30 5018 H 500.804 -2.50048 0.484554 0
M  V30 5019 H 501.587 -2.67928 2.14638 0
M  V30 5020 N 504.032 -0.577932 -1.46621 0
M  V30 5021 C 505.309 0.00495287 -1.95599 0
M  V30 5022 C 505.689 1.46428 -1.5206 0
M  V30 5023 O 505.037 2.1517 -0.769046 0
M  V30 5024 C 505.247 -0.162114 -3.48623 0
M  V30 5025 C 506.595 -0.0274623 -4.24591 0
M  V30 5026 O 507.619 -0.0907067 -3.56084 0
M  V30 5027 O 506.478 0.1122 -5.46385 0
M  V30 5028 H 503.572 0.0525057 -0.825332 0
M  V30 5029 H 506.118 -0.645914 -1.56927 0
M  V30 5030 H 504.89 -1.17679 -3.73185 0
M  V30 5031 H 504.513 0.525407 -3.94113 0
M  V30 5032 N 505.51 1.54411 -0.315457 0
M  V30 5033 C 506.42 2.27737 0.56329 0
M  V30 5034 C 507.436 1.31787 1.13614 0
M  V30 5035 O 508.612 1.64791 1.15784 0
M  V30 5036 C 505.677 3.01478 1.71207 0
M  V30 5037 C 504.738 4.12997 1.17185 0
M  V30 5038 C 503.971 4.83212 2.26588 0
M  V30 5039 O 504.194 4.52884 3.46775 0
M  V30 5040 O 503.128 5.70299 1.92463 0
M  V30 5041 H 506.954 3.03683 -0.0319614 0
M  V30 5042 H 504.539 1.49178 -0.0814188 0
M  V30 5043 H 506.421 3.47683 2.38106 0
M  V30 5044 H 505.096 2.28414 2.29366 0
M  V30 5045 H 504.003 3.71159 0.468174 0
M  V30 5046 H 505.336 4.8808 0.635501 0
M  V30 5047 N 506.988 0.0434614 1.5754 0
M  V30 5048 C 507.951 -0.918696 2.09982 0
M  V30 5049 C 508.951 -1.24488 1.01781 0
M  V30 5050 O 510.141 -1.18284 1.27885 0
M  V30 5051 C 507.273 -2.23093 2.57764 0
M  V30 5052 H 508.466 -0.464229 2.96285 0
M  V30 5053 H 506.019 -0.204818 1.54952 0
M  V30 5054 H 506.754 -2.73137 1.74832 0
M  V30 5055 H 506.539 -2.00724 3.36827 0
M  V30 5056 H 508.029 -2.92028 2.98512 0
M  V30 5057 N 508.466 -1.55915 -0.229846 0
M  V30 5058 C 509.713 -1.78542 -0.955452 0
M  V30 5059 C 510.041 -0.610785 -1.84661 0
M  V30 5060 O 509.296 0.405213 -1.91459 0
M  V30 5061 C 509.595 -3.06845 -1.8325 0
M  V30 5062 C 509.261 -4.37395 -1.09528 0
M  V30 5063 C 507.923 -4.72868 -0.891598 0
M  V30 5064 C 510.275 -5.18029 -0.574046 0
M  V30 5065 C 507.603 -5.86496 -0.154655 0
M  V30 5066 C 509.955 -6.32423 0.149513 0
M  V30 5067 C 508.619 -6.66504 0.364519 0
M  V30 5068 H 507.889 -0.653333 -0.349625 0
M  V30 5069 H 510.536 -1.90183 -0.224235 0
M  V30 5070 H 508.841 -2.90291 -2.63132 0
M  V30 5071 H 510.538 -3.21553 -2.39592 0
M  V30 5072 H 507.128 -4.09538 -1.26399 0
M  V30 5073 H 511.312 -4.91066 -0.718899 0
M  V30 5074 H 506.568 -6.11396 0.0222356 0
M  V30 5075 H 510.742 -6.94137 0.560947 0
M  V30 5076 H 508.369 -7.54397 0.937495 0
M  V30 5077 N 509.944 0.496216 -1.49584 0
M  V30 5078 C 511.221 1.25755 -1.49816 0
M  V30 5079 C 511.601 2.09859 -0.228572 0
M  V30 5080 O 510.949 2.14449 0.788908 0
M  V30 5081 C 511.159 2.11017 -2.7798 0
M  V30 5082 C 512.507 2.70047 -3.27658 0
M  V30 5083 O 513.531 2.21281 -2.79129 0
M  V30 5084 O 512.39 3.58834 -4.1219 0
M  V30 5085 H 509.484 0.569322 -0.599834 0
M  V30 5086 H 512.03 0.510094 -1.61852 0
M  V30 5087 H 510.802 1.48879 -3.61871 0
M  V30 5088 H 510.425 2.92947 -2.68827 0
M  V30 5089 N 511.423 1.38739 0.74761 0
M  V30 5090 C 512.373 1.32948 1.85226 0
M  V30 5091 C 513.357 0.212642 1.59489 0
M  V30 5092 O 514.549 0.449121 1.71207 0
M  V30 5093 C 511.678 1.16279 3.23008 0
M  V30 5094 C 510.764 2.32611 3.54617 0
M  V30 5095 N 511.155 3.58065 3.57244 0
M  V30 5096 C 509.453 2.25293 3.84914 0
M  V30 5097 C 510.154 4.34919 3.8629 0
M  V30 5098 N 509.13 3.64348 4.03425 0
M  V30 5099 H 512.932 2.27927 1.85544 0
M  V30 5100 H 510.446 1.32056 0.945253 0
M  V30 5101 H 512.443 1.10214 4.02068 0
M  V30 5102 H 511.103 0.222394 3.23937 0
M  V30 5103 H 512.114 3.91656 3.3886 0
M  V30 5104 H 508.791 1.39446 3.93524 0
M  V30 5105 H 510.181 5.43605 3.94896 0
M  V30 5106 N 512.901 -0.976442 1.23707 0
M  V30 5107 C 513.811 -2.10359 1.03856 0
M  V30 5108 C 514.827 -1.73991 -0.0180919 0
M  V30 5109 O 516.003 -2.0061 0.178211 0
M  V30 5110 C 513.068 -3.40809 0.636387 0
M  V30 5111 C 512.129 -3.91179 1.76854 0
M  V30 5112 C 511.362 -5.15404 1.38546 0
M  V30 5113 O 511.585 -5.69754 0.27142 0
M  V30 5114 O 510.519 -5.5994 2.20797 0
M  V30 5115 H 514.345 -2.29997 1.98331 0
M  V30 5116 H 511.93 -1.08742 1.02448 0
M  V30 5117 H 513.812 -4.19269 0.423223 0
M  V30 5118 H 512.487 -3.22493 -0.279322 0
M  V30 5119 H 511.394 -3.13819 2.03638 0
M  V30 5120 H 512.727 -4.13958 2.6627 0
M  V30 5121 N 514.379 -1.04941 -1.1758 0
M  V30 5122 C 515.625 -0.759112 -1.88057 0
M  V30 5123 C 515.958 0.711918 -1.8068 0
M  V30 5124 O 515.233 1.52035 -1.21308 0
M  V30 5125 C 515.516 -1.237 -3.38187 0
M  V30 5126 C 515.369 -2.77078 -3.54327 0
M  V30 5127 C 516.688 -0.834014 -4.32125 0
M  V30 5128 H 513.807 -0.277237 -0.682868 0
M  V30 5129 H 516.449 -1.30296 -1.38286 0
M  V30 5130 H 514.599 -0.774337 -3.80705 0
M  V30 5131 H 516.271 -3.31449 -3.20842 0
M  V30 5132 H 514.514 -3.16477 -2.96689 0
M  V30 5133 H 515.185 -3.05577 -4.59703 0
M  V30 5134 H 517.661 -1.23228 -3.97434 0
M  V30 5135 H 516.537 -1.19603 -5.35711 0
M  V30 5136 H 516.798 0.262195 -4.41322 0
M  V30 5137 N 515.857 1.33968 -0.830081 0
M  V30 5138 C 517.082 2.02813 -0.433796 0
M  V30 5139 C 517.507 1.62076 0.954614 0
M  V30 5140 O 516.865 0.808955 1.62252 0
M  V30 5141 C 516.913 3.56348 -0.552115 0
M  V30 5142 O 516.017 4.10202 0.425191 0
M  V30 5143 H 515.358 0.639817 -0.177567 0
M  V30 5144 H 517.888 1.7106 -1.12248 0
M  V30 5145 H 517.898 4.05722 -0.430513 0
M  V30 5146 H 516.573 3.85344 -1.56471 0
M  V30 5147 H 515.15 3.71979 0.261878 0
M  V30 5148 N 517.335 0.585699 1.46312 0
M  V30 5149 C 518.298 -0.135673 2.28798 0
M  V30 5150 C 519.298 -0.815988 1.38558 0
M  V30 5151 O 520.488 -0.667487 1.60904 0
M  V30 5152 C 517.62 -1.20163 3.1902 0
M  V30 5153 H 518.813 0.589257 2.94054 0
M  V30 5154 H 516.366 0.343794 1.52472 0
M  V30 5155 H 517.101 -1.95804 2.58517 0
M  V30 5156 H 516.886 -0.718282 3.85465 0
M  V30 5157 H 518.376 -1.70749 3.81096 0
M  V30 5158 N 518.813 -1.54241 0.323641 0
M  V30 5159 C 520.06 -2.0057 -0.27891 0
M  V30 5160 C 520.388 -1.21181 -1.52136 0
M  V30 5161 O 519.643 -0.282043 -1.93657 0
M  V30 5162 C 519.942 -3.5129 -0.658031 0
M  V30 5163 C 519.608 -4.48281 0.485252 0
M  V30 5164 C 518.27 -4.74519 0.799055 0
M  V30 5165 C 520.622 -5.05909 1.25322 0
M  V30 5166 C 517.95 -5.55643 1.88354 0
M  V30 5167 C 520.302 -5.88215 2.32779 0
M  V30 5168 C 518.966 -6.12755 2.64741 0
M  V30 5169 H 518.236 -0.733938 -0.10206 0
M  V30 5170 H 520.883 -1.862 0.447435 0
M  V30 5171 H 519.188 -3.63388 -1.4648 0
M  V30 5172 H 520.885 -3.84578 -1.1358 0
M  V30 5173 H 517.475 -4.27979 0.230593 0
M  V30 5174 H 521.659 -4.8562 1.02404 0
M  V30 5175 H 516.915 -5.72888 2.13564 0
M  V30 5176 H 521.089 -6.31888 2.92729 0
M  V30 5177 H 518.716 -6.75404 3.48904 0
M  V30 5178 N 520.291 -0.0518155 -1.57515 0
M  V30 5179 C 521.538 0.621823 -1.92716 0
M  V30 5180 C 521.866 1.70813 -0.930229 0
M  V30 5181 O 521.121 1.95616 0.0573708 0
M  V30 5182 C 521.42 1.25607 -3.34601 0
M  V30 5183 C 521.086 0.297901 -4.49915 0
M  V30 5184 C 519.748 0.034243 -4.81188 0
M  V30 5185 C 522.1 -0.358738 -5.19964 0
M  V30 5186 C 519.428 -0.893479 -5.79857 0
M  V30 5187 C 521.78 -1.27466 -6.19625 0
M  V30 5188 C 520.444 -1.54698 -6.49326 0
M  V30 5189 H 519.714 0.227541 -0.705199 0
M  V30 5190 H 522.361 -0.118432 -1.91133 0
M  V30 5191 H 520.666 2.07161 -3.32553 0
M  V30 5192 H 522.363 1.78424 -3.59118 0
M  V30 5193 H 518.953 0.513581 -4.25512 0
M  V30 5194 H 523.137 -0.168133 -4.96015 0
M  V30 5195 H 518.393 -1.11193 -6.01204 0
M  V30 5196 H 522.567 -1.78953 -6.73015 0
M  V30 5197 H 520.194 -2.26748 -7.25596 0
M  V30 5198 N 521.769 1.56035 0.221574 0
M  V30 5199 C 523.18 1.69229 0.788567 0
M  V30 5200 C 523.531 0.653814 1.84986 0
M  V30 5201 O 522.656 -0.195065 2.15519 0
M  V30 5202 C 523.251 3.06809 1.43713 0
M  V30 5203 C 521.81 3.21858 1.95152 0
M  V30 5204 C 520.957 2.65155 0.811685 0
M  V30 5205 H 523.908 1.587 -0.00307894 0
M  V30 5206 H 523.929 3.02666 2.30594 0
M  V30 5207 H 523.441 3.82369 0.664475 0
M  V30 5208 H 521.542 2.51167 2.7522 0
M  V30 5209 H 521.655 4.29073 2.1315 0
M  V30 5210 H 520.019 2.23635 1.21899 0
M  V30 5211 H 520.802 3.43261 0.0516987 0
M  V30 5212 N 523.247 -0.488276 1.49845 0
M  V30 5213 C 524.21 -1.57069 1.66919 0
M  V30 5214 C 525.21 -1.51445 0.540479 0
M  V30 5215 O 526.4 -1.5437 0.807188 0
M  V30 5216 C 523.532 -2.96718 1.67844 0
M  V30 5217 H 524.725 -1.43254 2.63474 0
M  V30 5218 H 522.278 -0.713435 1.39068 0
M  V30 5219 H 523.013 -3.15996 0.7292 0
M  V30 5220 H 522.798 -3.02208 2.49826 0
M  V30 5221 H 524.288 -3.75335 1.83066 0
M  V30 5222 N 524.725 -1.39134 -0.740242 0
M  V30 5223 C 525.673 -1.3757 -1.87556 0
M  V30 5224 C 526.667 -0.259593 -1.67399 0
M  V30 5225 O 527.873 -0.429349 -1.74804 0
M  V30 5226 H 524.248 -0.42947 -0.6173 0
M  V30 5227 H 526.219 -2.33345 -1.85991 0
M  V30 5228 C 524.968 -1.23087 -3.25184 0
M  V30 5229 H 524.291 -2.08237 -3.41288 0
M  V30 5230 H 525.731 -1.26049 -4.0483 0
M  V30 5231 C 524.19 0.0611471 -3.36845 0
M  V30 5232 O 524.72 1.03328 -3.88183 0
M  V30 5233 N 522.926 0.122454 -2.90342 0
M  V30 5234 H 522.473 -0.669329 -2.48752 0
M  V30 5235 H 522.431 0.986463 -2.98523 0
M  V30 5236 N 526.204 0.969867 -1.24223 0
M  V30 5237 C 527.134 2.08191 -1.05729 0
M  V30 5238 C 528.115 1.70075 0.0290765 0
M  V30 5239 O 529.3 1.93712 -0.137583 0
M  V30 5240 C 526.43 3.40991 -0.658995 0
M  V30 5241 C 525.384 3.93054 -1.69389 0
M  V30 5242 C 524.71 5.22171 -1.15072 0
M  V30 5243 C 526.01 4.21137 -3.08935 0
M  V30 5244 H 527.704 2.23921 -1.98746 0
M  V30 5245 H 525.25 1.07602 -0.956967 0
M  V30 5246 H 527.203 4.18221 -0.51662 0
M  V30 5247 H 525.927 3.25155 0.30686 0
M  V30 5248 H 524.586 3.17977 -1.82444 0
M  V30 5249 H 524.234 5.02694 -0.175539 0
M  V30 5250 H 523.934 5.57973 -1.84229 0
M  V30 5251 H 525.458 6.02013 -1.02042 0
M  V30 5252 H 526.872 4.8908 -2.99121 0
M  V30 5253 H 525.269 4.68163 -3.75425 0
M  V30 5254 H 526.339 3.27996 -3.57137 0
M  V30 5255 N 527.682 1.05563 1.17022 0
M  V30 5256 C 528.959 0.68165 1.83338 0
M  V30 5257 C 529.339 -0.837665 1.93769 0
M  V30 5258 O 528.687 -1.74507 1.47511 0
M  V30 5259 C 528.897 1.375 3.20772 0
M  V30 5260 C 530.245 1.51545 3.96635 0
M  V30 5261 O 531.269 1.33431 3.30264 0
M  V30 5262 O 530.128 1.812 5.15586 0
M  V30 5263 H 527.222 0.240412 0.791285 0
M  V30 5264 H 529.768 1.15545 1.24288 0
M  V30 5265 H 528.54 2.41135 3.08171 0
M  V30 5266 H 528.163 0.890798 3.87493 0
M  V30 5267 N 529.16 -1.33526 0.837174 0
M  V30 5268 C 530.407 -1.97837 0.432064 0
M  V30 5269 C 530.735 -1.66324 -1.00829 0
M  V30 5270 O 529.99 -0.93448 -1.71948 0
M  V30 5271 C 530.289 -3.52367 0.597675 0
M  V30 5272 C 529.955 -4.03826 2.00587 0
M  V30 5273 C 528.617 -4.1759 2.39106 0
M  V30 5274 C 530.969 -4.31333 2.92576 0
M  V30 5275 C 528.297 -4.56195 3.68921 0
M  V30 5276 C 530.649 -4.7139 4.2187 0
M  V30 5277 C 529.313 -4.8336 4.60347 0
M  V30 5278 H 528.583 -0.723937 0.158104 0
M  V30 5279 H 531.23 -1.5923 1.06387 0
M  V30 5280 H 529.535 -3.91624 -0.117452 0
M  V30 5281 H 531.232 -4.00126 0.26454 0
M  V30 5282 H 527.822 -3.93586 1.69671 0
M  V30 5283 H 532.006 -4.20224 2.64056 0
M  V30 5284 H 527.262 -4.63655 3.9854 0
M  V30 5285 H 531.436 -4.91631 4.93226 0
M  V30 5286 H 529.063 -5.1303 5.60985 0
M  V30 5287 N 530.638 -0.59345 -1.46 0
M  V30 5288 C 531.568 0.121192 -2.33185 0
M  V30 5289 C 532.549 0.872977 -1.4599 0
M  V30 5290 O 533.734 0.846321 -1.74789 0
M  V30 5291 C 530.864 1.12844 -3.28456 0
M  V30 5292 C 529.818 0.4908 -4.25177 0
M  V30 5293 C 529.144 1.60529 -5.10034 0
M  V30 5294 C 530.444 -0.578949 -5.19081 0
M  V30 5295 H 532.138 -0.606767 -2.93187 0
M  V30 5296 H 529.684 -0.293242 -1.40983 0
M  V30 5297 H 531.637 1.63684 -3.88311 0
M  V30 5298 H 530.361 1.88681 -2.66584 0
M  V30 5299 H 529.02 0.00339328 -3.666 0
M  V30 5300 H 528.668 2.35359 -4.44539 0
M  V30 5301 H 528.368 1.18422 -5.75543 0
M  V30 5302 H 529.892 2.11623 -5.72755 0
M  V30 5303 H 531.306 -0.155199 -5.7309 0
M  V30 5304 H 529.703 -0.920947 -5.92991 0
M  V30 5305 H 530.773 -1.46109 -4.62364 0
M  V30 5306 N 532.116 1.54067 -0.331816 0
M  V30 5307 C 533.356 2.02625 0.26876 0
M  V30 5308 C 533.72 1.21462 1.48697 0
M  V30 5309 O 534.921 1.59863 2.16096 0
M  V30 5310 C 533.192 3.52554 0.586577 0
M  V30 5311 S 534.751 4.23035 1.16563 0
M  V30 5312 H 531.569 0.706395 0.0807862 0
M  V30 5313 H 534.171 1.89844 -0.466856 0
M  V30 5314 H 532.875 4.09242 -0.308046 0
M  V30 5315 H 532.406 3.69432 1.35217 0
M  V30 5316 H 534.421 4.31382 2.45203 0
M  V30 5317 N 533.594 0.0601682 1.57485 0
M  V30 5318 C 534.524 -0.90889 2.15085 0
M  V30 5319 C 535.505 -1.31838 1.07484 0
M  V30 5320 O 536.69 -1.3915 1.35466 0
M  V30 5321 C 533.82 -2.18059 2.7031 0
M  V30 5322 C 532.774 -1.91088 3.82974 0
M  V30 5323 C 532.1 -3.24789 4.24754 0
M  V30 5324 C 533.4 -1.22535 5.07723 0
M  V30 5325 H 535.094 -0.429093 2.96309 0
M  V30 5326 H 532.64 -0.204952 1.42534 0
M  V30 5327 H 534.593 -2.86258 3.09248 0
M  V30 5328 H 533.317 -2.6826 1.8629 0
M  V30 5329 H 531.976 -1.25297 3.44523 0
M  V30 5330 H 531.624 -3.72809 3.37672 0
M  V30 5331 H 531.324 -3.07538 5.00694 0
M  V30 5332 H 532.848 -3.94205 4.66299 0
M  V30 5333 H 534.262 -1.80783 5.4405 0
M  V30 5334 H 532.659 -1.1558 5.88864 0
M  V30 5335 H 533.729 -0.202692 4.84476 0
M  V30 5336 N 535.072 -1.5615 -0.213296 0
M  V30 5337 C 536.004 -1.89586 -1.28802 0
M  V30 5338 C 537.017 -0.784844 -1.42633 0
M  V30 5339 O 538.206 -1.06319 -1.43383 0
M  V30 5340 C 535.306 -2.09665 -2.66259 0
M  V30 5341 C 534.479 -3.40726 -2.7427 0
M  V30 5342 C 533.538 -3.50137 -3.92798 0
M  V30 5343 O 532.564 -4.23105 -3.8075 0
M  V30 5344 N 533.766 -2.81886 -5.07465 0
M  V30 5345 H 536.531 -2.82368 -1.00442 0
M  V30 5346 H 534.092 -1.56796 -0.403302 0
M  V30 5347 H 536.084 -2.13268 -3.43946 0
M  V30 5348 H 534.654 -1.23469 -2.87183 0
M  V30 5349 H 533.874 -3.4915 -1.82997 0
M  V30 5350 H 535.162 -4.27048 -2.76599 0
M  V30 5351 H 534.56 -2.22397 -5.2015 0
M  V30 5352 H 533.117 -2.91139 -5.83165 0
M  V30 5353 N 536.55 0.480323 -1.50102 0
M  V30 5354 C 537.46 1.60547 -1.71061 0
M  V30 5355 C 538.476 1.63564 -0.593529 0
M  V30 5356 O 539.652 1.81604 -0.870751 0
M  V30 5357 C 536.717 2.96814 -1.79171 0
M  V30 5358 C 535.778 3.04259 -3.02861 0
M  V30 5359 C 535.011 4.34027 -3.10574 0
M  V30 5360 O 535.234 5.24009 -2.25323 0
M  V30 5361 O 534.168 4.46873 -4.03223 0
M  V30 5362 H 537.994 1.45788 -2.6642 0
M  V30 5363 H 535.579 0.658838 -1.34088 0
M  V30 5364 H 537.461 3.77765 -1.86738 0
M  V30 5365 H 536.136 3.11791 -0.869947 0
M  V30 5366 H 535.043 2.22419 -3.008 0
M  V30 5367 H 536.376 2.94216 -3.94586 0
M  V30 5368 N 538.028 1.39524 0.732853 0
M  V30 5369 C 539.274 1.37068 1.49467 0
M  V30 5370 C 539.607 -0.0327166 1.94172 0
M  V30 5371 O 538.882 -0.998071 1.66939 0
M  V30 5372 C 539.165 2.34494 2.73285 0
M  V30 5373 C 539.018 3.83784 2.34585 0
M  V30 5374 C 540.337 2.29717 3.75391 0
M  V30 5375 H 537.456 0.499206 0.542183 0
M  V30 5376 H 540.098 1.70532 0.837783 0
M  V30 5377 H 538.248 2.06087 3.29333 0
M  V30 5378 H 539.92 4.22949 1.84151 0
M  V30 5379 H 538.163 4.00455 1.66787 0
M  V30 5380 H 538.834 4.47444 3.23262 0
M  V30 5381 H 541.31 2.54839 3.28932 0
M  V30 5382 H 540.186 2.99962 4.59689 0
M  V30 5383 H 540.447 1.30291 4.22465 0
M  V30 5384 N 539.506 -0.963266 1.24736 0
M  V30 5385 C 540.753 -1.7068 1.0897 0
M  V30 5386 C 541.081 -1.90934 -0.370751 0
M  V30 5387 O 540.336 -1.47155 -1.29011 0
M  V30 5388 C 540.635 -3.09944 1.7796 0
M  V30 5389 C 540.301 -3.09518 3.27887 0
M  V30 5390 C 538.963 -3.09109 3.68789 0
M  V30 5391 C 541.315 -3.03509 4.23712 0
M  V30 5392 C 538.643 -3.00429 5.03944 0
M  V30 5393 C 540.995 -2.96371 5.5888 0
M  V30 5394 C 539.659 -2.94293 5.99123 0
M  V30 5395 H 538.929 -0.624564 0.398749 0
M  V30 5396 H 541.576 -1.12603 1.54896 0
M  V30 5397 H 539.881 -3.71513 1.2444 0
M  V30 5398 H 541.578 -3.66278 1.63222 0
M  V30 5399 H 538.168 -3.10603 2.95337 0
M  V30 5400 H 542.352 -3.0295 3.93109 0
M  V30 5401 H 537.608 -2.97183 5.34314 0
M  V30 5402 H 541.782 -2.90681 6.32833 0
M  V30 5403 H 539.409 -2.87322 7.03811 0
M  V30 5404 N 540.985 -1.06182 -1.16461 0
M  V30 5405 C 542.262 -0.691364 -1.82974 0
M  V30 5406 C 542.642 0.827377 -1.9421 0
M  V30 5407 O 541.99 1.73723 -1.48434 0
M  V30 5408 C 542.2 -1.39199 -3.20038 0
M  V30 5409 C 543.548 -1.53647 -3.95825 0
M  V30 5410 O 544.572 -1.35181 -3.29552 0
M  V30 5411 O 543.431 -1.83932 -5.14618 0
M  V30 5412 H 540.525 -0.244605 -0.789998 0
M  V30 5413 H 543.071 -1.16203 -1.23673 0
M  V30 5414 H 541.843 -2.42766 -3.06888 0
M  V30 5415 H 541.466 -0.911335 -3.87015 0
M  V30 5416 N 542.463 1.3308 -0.844243 0
M  V30 5417 C 543.41 2.29104 -0.279323 0
M  V30 5418 C 544.38 1.54577 0.607882 0
M  V30 5419 O 545.565 1.8285 0.545009 0
M  V30 5420 C 542.705 3.40927 0.53508 0
M  V30 5421 C 541.818 4.30354 -0.376749 0
M  V30 5422 C 540.953 5.29297 0.449276 0
M  V30 5423 C 539.992 6.10365 -0.460606 0
M  V30 5424 N 539.129 7.01335 0.327612 0
M  V30 5425 H 543.969 2.76817 -1.10346 0
M  V30 5426 H 541.506 1.36203 -0.555611 0
M  V30 5427 H 543.464 4.04469 1.02278 0
M  V30 5428 H 542.094 2.94391 1.32414 0
M  V30 5429 H 541.146 3.67485 -0.982791 0
M  V30 5430 H 542.458 4.87067 -1.07549 0
M  V30 5431 H 541.612 5.98392 1.00058 0
M  V30 5432 H 540.351 4.73174 1.18143 0
M  V30 5433 H 539.356 5.40182 -1.02388 0
M  V30 5434 H 540.581 6.68571 -1.1912 0
M  V30 5435 H 538.527 6.47655 1.04305 0
M  V30 5436 H 538.444 7.55355 -0.3123 0
M  V30 5437 H 539.712 7.74731 0.86098 0
M  V30 5438 N 543.941 0.601185 1.45683 0
M  V30 5439 C 545.357 0.264315 1.57396 0
M  V30 5440 C 545.557 -1.23324 1.59353 0
M  V30 5441 O 544.613 -2.01594 1.52039 0
M  V30 5442 C 545.926 0.929839 2.85962 0
M  V30 5443 C 547.474 0.905156 2.99626 0
M  V30 5444 C 547.949 1.55057 4.30954 0
M  V30 5445 N 549.44 1.51576 4.37697 0
M  V30 5446 C 550.175 1.98436 5.37969 0
M  V30 5447 N 549.671 2.53352 6.44813 0
M  V30 5448 N 551.464 1.89242 5.29286 0
M  V30 5449 H 543.615 1.57363 1.42656 0
M  V30 5450 H 545.878 0.658831 0.681649 0
M  V30 5451 H 545.584 1.98404 2.90394 0
M  V30 5452 H 545.458 0.449224 3.74515 0
M  V30 5453 H 547.845 -0.14048 2.94765 0
M  V30 5454 H 547.926 1.42397 2.12501 0
M  V30 5455 H 547.57 2.5955 4.36573 0
M  V30 5456 H 547.5 1.00682 5.16886 0
M  V30 5457 H 549.991 1.11452 3.61091 0
M  V30 5458 H 550.304 2.86918 7.17564 0
M  V30 5459 H 548.649 2.57388 6.45582 0
M  V30 5460 H 551.84 1.46083 4.44722 0
M  V30 5461 H 552.013 2.26075 6.07284 0
M  V30 5462 N 545.419 -1.53889 0.339982 0
M  V30 5463 C 546.382 -2.23547 -0.50592 0
M  V30 5464 C 547.382 -1.23445 -1.03044 0
M  V30 5465 O 548.572 -1.47909 -0.920253 0
M  V30 5466 C 545.704 -2.95234 -1.7044 0
M  V30 5467 H 546.897 -2.99722 0.103247 0
M  V30 5468 H 544.45 -1.56033 0.0912804 0
M  V30 5469 H 545.185 -2.23236 -2.35236 0
M  V30 5470 H 544.97 -3.68654 -1.33553 0
M  V30 5471 H 546.46 -3.48258 -2.30447 0
M  V30 5472 N 546.897 -0.0685191 -1.57451 0
M  V30 5473 C 547.86 0.885173 -2.11417 0
M  V30 5474 C 548.86 1.22853 -1.03748 0
M  V30 5475 O 550.05 1.16235 -1.2975 0
M  V30 5476 C 547.182 2.18964 -2.61281 0
M  V30 5477 H 548.375 0.417034 -2.96986 0
M  V30 5478 H 545.928 0.18014 -1.55258 0
M  V30 5479 H 546.663 2.70321 -1.79156 0
M  V30 5480 H 546.448 1.9534 -3.39977 0
M  V30 5481 H 547.938 2.87242 -3.0312 0
M  V30 5482 N 548.375 1.56261 0.205012 0
M  V30 5483 C 549.603 1.84141 0.943386 0
M  V30 5484 C 550.018 0.649772 1.77266 0
M  V30 5485 O 549.375 -0.381612 1.78466 0
M  V30 5486 C 549.426 3.10719 1.84759 0
M  V30 5487 O 549.147 4.25286 1.05181 0
M  V30 5488 C 550.648 3.51706 2.69848 0
M  V30 5489 H 547.868 0.611734 0.275721 0
M  V30 5490 H 550.412 2.03364 0.215253 0
M  V30 5491 H 548.567 2.93422 2.52947 0
M  V30 5492 H 548.981 4.97301 1.66709 0
M  V30 5493 H 550.455 4.43266 3.28967 0
M  V30 5494 H 550.932 2.7423 3.43067 0
M  V30 5495 H 551.538 3.71499 2.07047 0
M  V30 5496 N 549.853 -0.472356 1.50355 0
M  V30 5497 C 550.8 -1.57051 1.69126 0
M  V30 5498 C 551.77 -1.5733 0.532574 0
M  V30 5499 O 552.955 -1.7488 0.762994 0
M  V30 5500 C 550.095 -2.95033 1.79024 0
M  V30 5501 C 549.208 -3.04552 3.06386 0
M  V30 5502 C 548.343 -4.33441 3.07087 0
M  V30 5503 C 547.382 -4.36697 4.28908 0
M  V30 5504 N 546.519 -5.57056 4.27356 0
M  V30 5505 H 551.359 -1.40351 2.62879 0
M  V30 5506 H 548.896 -0.682403 1.30314 0
M  V30 5507 H 550.854 -3.75048 1.82744 0
M  V30 5508 H 549.484 -3.10371 0.887109 0
M  V30 5509 H 548.536 -2.17419 3.12143 0
M  V30 5510 H 549.848 -3.02818 3.96362 0
M  V30 5511 H 549.002 -5.21801 3.09529 0
M  V30 5512 H 547.741 -4.37782 2.14939 0
M  V30 5513 H 546.746 -3.46734 4.2668 0
M  V30 5514 H 547.971 -4.34049 5.22282 0
M  V30 5515 H 545.917 -5.62184 3.3806 0
M  V30 5516 H 545.834 -5.57058 5.111 0
M  V30 5517 H 547.102 -6.47545 4.33942 0
M  V30 5518 N 551.331 -1.39911 -0.725443 0
M  V30 5519 C 552.261 -1.42138 -1.85254 0
M  V30 5520 C 553.242 -0.283513 -1.67721 0
M  V30 5521 O 554.427 -0.490717 -1.87898 0
M  V30 5522 C 551.557 -1.27354 -3.23107 0
M  V30 5523 C 550.511 -2.3864 -3.55296 0
M  V30 5524 C 549.837 -2.08939 -4.92188 0
M  V30 5525 C 551.137 -3.8097 -3.57295 0
M  V30 5526 H 552.831 -2.36461 -1.83648 0
M  V30 5527 H 550.377 -1.13817 -0.882138 0
M  V30 5528 H 552.33 -1.2753 -4.01639 0
M  V30 5529 H 551.054 -0.295025 -3.25265 0
M  V30 5530 H 549.713 -2.37696 -2.79099 0
M  V30 5531 H 549.361 -1.09502 -4.90936 0
M  V30 5532 H 549.061 -2.83491 -5.14691 0
M  V30 5533 H 550.585 -2.10781 -5.73065 0
M  V30 5534 H 551.999 -3.8379 -4.25885 0
M  V30 5535 H 550.396 -4.5496 -3.9132 0
M  V30 5536 H 551.466 -4.11261 -2.5689 0
M  V30 5537 N 552.809 0.956637 -1.25245 0
M  V30 5538 C 553.756 2.053 -1.05454 0
M  V30 5539 C 554.726 1.66062 0.0356889 0
M  V30 5540 O 555.911 1.90415 -0.121099 0
M  V30 5541 C 553.051 3.38391 -0.677191 0
M  V30 5542 C 552.164 3.90758 -1.84206 0
M  V30 5543 C 551.299 5.12165 -1.40926 0
M  V30 5544 C 550.338 5.56757 -2.54338 0
M  V30 5545 N 549.475 6.69376 -2.11848 0
M  V30 5546 H 554.315 2.21562 -1.99284 0
M  V30 5547 H 551.852 1.08578 -0.992434 0
M  V30 5548 H 553.81 4.1488 -0.43938 0
M  V30 5549 H 552.44 3.22021 0.224127 0
M  V30 5550 H 551.492 3.10808 -2.19323 0
M  V30 5551 H 552.804 4.19802 -2.69383 0
M  V30 5552 H 551.958 5.96065 -1.13098 0
M  V30 5553 H 550.697 4.84832 -0.528175 0
M  V30 5554 H 549.702 4.71423 -2.82913 0
M  V30 5555 H 550.927 5.861 -3.43022 0
M  V30 5556 H 548.873 6.43756 -1.26153 0
M  V30 5557 H 548.79 6.97927 -2.90574 0
M  V30 5558 H 550.058 7.5669 -1.87191 0
M  V30 5559 N 554.287 1.06798 1.15896 0
M  V30 5560 C 555.197 0.694564 2.24083 0
M  V30 5561 C 556.213 -0.291687 1.71538 0
M  V30 5562 O 557.389 -0.139723 2.00915 0
M  V30 5563 C 554.454 0.0921014 3.46578 0
M  V30 5564 C 553.515 1.13087 4.14137 0
M  V30 5565 C 552.748 0.557064 5.30785 0
M  V30 5566 O 552.971 -0.628623 5.66925 0
M  V30 5567 O 551.905 1.29924 5.8771 0
M  V30 5568 H 555.731 1.59663 2.58344 0
M  V30 5569 H 553.316 0.840575 1.2351 0
M  V30 5570 H 555.198 -0.241884 4.20705 0
M  V30 5571 H 553.873 -0.78337 3.14078 0
M  V30 5572 H 552.78 1.51712 3.41957 0
M  V30 5573 H 554.113 1.97805 4.50704 0
M  V30 5574 N 555.766 -1.3263 0.851289 0
M  V30 5575 C 556.698 -2.27824 0.250757 0
M  V30 5576 C 557.711 -1.52285 -0.575598 0
M  V30 5577 O 558.9 -1.73946 -0.400638 0
M  V30 5578 C 556 -3.3232 -0.664571 0
M  V30 5579 C 555.173 -4.37221 0.125187 0
M  V30 5580 C 554.232 -5.21314 -0.715385 0
M  V30 5581 O 553.258 -5.69002 -0.150111 0
M  V30 5582 N 554.46 -5.43823 -2.03069 0
M  V30 5583 H 557.225 -2.79997 1.06873 0
M  V30 5584 H 554.786 -1.45455 0.710943 0
M  V30 5585 H 556.778 -3.85486 -1.23216 0
M  V30 5586 H 555.348 -2.80331 -1.38323 0
M  V30 5587 H 554.568 -3.84384 0.874199 0
M  V30 5588 H 555.856 -5.04399 0.667774 0
M  V30 5589 H 555.254 -5.06803 -2.51332 0
M  V30 5590 H 553.811 -5.99998 -2.54648 0
M  V30 5591 N 557.244 -0.608902 -1.45362 0
M  V30 5592 C 558.174 0.0964526 -2.33301 0
M  V30 5593 C 559.155 0.857444 -1.46908 0
M  V30 5594 O 560.34 0.827735 -1.75676 0
M  V30 5595 C 557.47 1.09354 -3.29635 0
M  V30 5596 C 556.424 0.445676 -4.25673 0
M  V30 5597 C 555.75 1.5511 -5.11708 0
M  V30 5598 C 557.05 -0.633972 -5.18438 0
M  V30 5599 H 558.744 -0.637829 -2.92527 0
M  V30 5600 H 556.29 -0.308178 -1.40664 0
M  V30 5601 H 558.243 1.59556 -3.90025 0
M  V30 5602 H 556.967 1.85843 -2.6857 0
M  V30 5603 H 555.626 -0.0354897 -3.66583 0
M  V30 5604 H 555.274 2.30631 -4.4701 0
M  V30 5605 H 554.974 1.12311 -5.76767 0
M  V30 5606 H 556.498 2.05537 -5.74967 0
M  V30 5607 H 557.912 -0.215974 -5.72893 0
M  V30 5608 H 556.309 -0.983789 -5.91981 0
M  V30 5609 H 557.379 -1.51005 -4.60788 0
M  V30 5610 N 558.722 1.53707 -0.348139 0
M  V30 5611 C 559.672 2.2193 0.522592 0
M  V30 5612 C 560.656 1.20831 1.06248 0
M  V30 5613 O 561.848 1.46357 0.995415 0
M  V30 5614 C 558.977 2.99904 1.6707 0
M  V30 5615 C 558.063 4.08364 1.14454 0
M  V30 5616 N 558.454 5.04656 0.339958 0
M  V30 5617 C 556.752 4.22757 1.421 0
M  V30 5618 C 557.453 5.81675 0.0538806 0
M  V30 5619 N 556.429 5.39739 0.646776 0
M  V30 5620 H 560.231 2.93733 -0.099135 0
M  V30 5621 H 557.745 1.61656 -0.15524 0
M  V30 5622 H 559.742 3.47284 2.30651 0
M  V30 5623 H 558.402 2.29629 2.29566 0
M  V30 5624 H 559.413 5.17896 -0.0193552 0
M  V30 5625 H 556.09 3.63704 2.05002 0
M  V30 5626 H 557.48 6.69256 -0.595443 0
M  V30 5627 N 560.2 0.0768682 1.57412 0
M  V30 5628 C 561.448 -0.589918 1.93299 0
M  V30 5629 C 561.769 -1.69842 0.958049 0
M  V30 5630 O 561.039 -1.95899 0.00703261 0
M  V30 5631 H 559.619 -0.220901 0.713591 0
M  V30 5632 H 562.281 0.135917 1.94425 0
M  V30 5633 H 561.377 -1.01195 2.95239 0
M  V30 5634 N 561.678 -1.56367 -0.196722 0
M  V30 5635 C 562.908 -1.84371 -0.932254 0
M  V30 5636 C 563.316 -0.657013 -1.77426 0
M  V30 5637 O 562.659 0.383576 -1.79651 0
M  V30 5638 C 562.721 -3.06454 -1.87952 0
M  V30 5639 C 562.385 -4.40425 -1.21962 0
M  V30 5640 C 563.382 -5.16457 -0.597343 0
M  V30 5641 C 561.067 -4.8716 -1.22396 0
M  V30 5642 C 563.061 -6.37399 0.0117913 0
M  V30 5643 C 560.748 -6.08038 -0.610995 0
M  V30 5644 C 561.746 -6.83 0.00580487 0
M  V30 5645 O 561.434 -8.01589 0.609173 0
M  V30 5646 H 561.166 -0.616377 -0.277589 0
M  V30 5647 H 563.72 -2.04329 -0.209452 0
M  V30 5648 H 561.95 -2.82377 -2.64197 0
M  V30 5649 H 563.639 -3.21118 -2.48271 0
M  V30 5650 H 564.405 -4.81445 -0.586142 0
M  V30 5651 H 560.284 -4.2877 -1.69345 0
M  V30 5652 H 563.828 -6.9585 0.493836 0
M  V30 5653 H 559.725 -6.42519 -0.619693 0
M  V30 5654 H 560.493 -8.16935 0.505919 0
M  V30 5655 N 563.156 0.464375 -1.50603 0
M  V30 5656 C 564.403 1.21596 -1.61928 0
M  V30 5657 C 564.731 1.91804 -0.322737 0
M  V30 5658 O 563.986 1.83065 0.691776 0
M  V30 5659 C 564.285 2.278 -2.75394 0
M  V30 5660 C 563.951 1.74797 -4.1564 0
M  V30 5661 C 562.613 1.60063 -4.53799 0
M  V30 5662 C 564.965 1.35548 -5.03266 0
M  V30 5663 C 562.293 1.04514 -5.77316 0
M  V30 5664 C 564.645 0.814381 -6.27336 0
M  V30 5665 C 563.309 0.653726 -6.64291 0
M  V30 5666 H 562.579 0.444951 -0.592536 0
M  V30 5667 H 565.226 0.510964 -1.84557 0
M  V30 5668 H 563.531 3.04233 -2.46879 0
M  V30 5669 H 565.228 2.85723 -2.81359 0
M  V30 5670 H 561.818 1.87234 -3.8554 0
M  V30 5671 H 566.002 1.45763 -4.74412 0
M  V30 5672 H 561.258 0.908186 -6.04617 0
M  V30 5673 H 565.432 0.501626 -6.94591 0
M  V30 5674 H 563.059 0.22114 -7.59878 0
M  V30 5675 N 564.634 1.40294 0.718013 0
M  V30 5676 C 565.544 1.42678 1.86226 0
M  V30 5677 C 566.56 0.319655 1.71039 0
M  V30 5678 O 567.736 0.563852 1.93346 0
M  V30 5679 C 564.801 1.2852 3.21999 0
M  V30 5680 C 563.862 2.49354 3.49458 0
M  V30 5681 C 563.095 2.35863 4.78753 0
M  V30 5682 O 563.318 1.37114 5.53675 0
M  V30 5683 O 562.252 3.25189 5.06494 0
M  V30 5684 H 566.078 2.39167 1.87171 0
M  V30 5685 H 563.663 1.2159 0.868112 0
M  V30 5686 H 565.545 1.22824 4.03103 0
M  V30 5687 H 564.22 0.351359 3.21787 0
M  V30 5688 H 563.127 2.60628 2.68373 0
M  V30 5689 H 564.46 3.41491 3.54464 0
M  V30 5690 N 566.112 -0.949982 1.2575 0
M  V30 5691 C 567.342 -1.72721 1.13363 0
M  V30 5692 C 567.75 -1.86562 -0.314842 0
M  V30 5693 O 567.093 -1.36621 -1.22803 0
M  V30 5694 C 567.155 -3.15695 1.7198 0
M  V30 5695 C 566.819 -3.25268 3.21014 0
M  V30 5696 C 567.816 -3.09222 4.17945 0
M  V30 5697 C 565.501 -3.4894 3.61312 0
M  V30 5698 C 567.495 -3.16701 5.53154 0
M  V30 5699 C 565.182 -3.56055 4.96657 0
M  V30 5700 C 566.18 -3.3995 5.92387 0
M  V30 5701 O 565.868 -3.46757 7.25269 0
M  V30 5702 H 565.6 -0.547888 0.395973 0
M  V30 5703 H 568.154 -1.20009 1.66694 0
M  V30 5704 H 566.384 -3.69791 1.13101 0
M  V30 5705 H 568.073 -3.75295 1.54624 0
M  V30 5706 H 568.839 -2.90798 3.88151 0
M  V30 5707 H 564.718 -3.60534 2.87291 0
M  V30 5708 H 568.262 -3.04048 6.27854 0
M  V30 5709 H 564.159 -3.73997 5.26115 0
M  V30 5710 H 564.927 -3.63358 7.33426 0
M  V30 5711 N 567.59 -1.07411 -1.15328 0
M  V30 5712 C 568.839 -0.792643 -1.85473 0
M  V30 5713 C 569.152 0.683789 -1.83259 0
M  V30 5714 O 570.358 1.08005 -2.49093 0
M  V30 5715 C 568.814 -1.36787 -3.32892 0
M  V30 5716 C 568.422 -2.87536 -3.43551 0
M  V30 5717 C 570.166 -1.16444 -4.08217 0
M  V30 5718 C 568.073 -3.38247 -4.85122 0
M  V30 5719 H 567.003 -0.292838 -0.694811 0
M  V30 5720 H 569.654 -1.29426 -1.30082 0
M  V30 5721 H 568.036 -0.793993 -3.87958 0
M  V30 5722 H 569.21 -3.50973 -2.98588 0
M  V30 5723 H 567.525 -3.06676 -2.81672 0
M  V30 5724 H 570.122 -1.51808 -5.12697 0
M  V30 5725 H 570.465 -0.10353 -4.16171 0
M  V30 5726 H 570.998 -1.70472 -3.59422 0
M  V30 5727 H 567.737 -4.43866 -4.82351 0
M  V30 5728 H 567.257 -2.79564 -5.30664 0
M  V30 5729 H 568.936 -3.34238 -5.5398 0
M  V30 5730 N 569.068 1.32177 -0.85831 0
M  V30 5731 C 569.998 2.31282 -0.321041 0
M  V30 5732 C 570.979 1.59841 0.581786 0
M  V30 5733 O 572.164 1.87619 0.501262 0
M  V30 5734 C 569.294 3.4385 0.48832 0
M  V30 5735 C 568.248 4.26799 -0.320391 0
M  V30 5736 C 567.574 5.31164 0.613934 0
M  V30 5737 C 568.874 4.98829 -1.54813 0
M  V30 5738 H 570.568 2.76469 -1.14915 0
M  V30 5739 H 568.114 1.32916 -0.554028 0
M  V30 5740 H 570.067 4.12224 0.874626 0
M  V30 5741 H 568.791 2.97401 1.34983 0
M  V30 5742 H 567.45 3.60077 -0.688497 0
M  V30 5743 H 567.098 4.80967 1.47239 0
M  V30 5744 H 566.798 5.8755 0.0768097 0
M  V30 5745 H 568.322 6.024 0.997336 0
M  V30 5746 H 569.736 5.59864 -1.23392 0
M  V30 5747 H 568.133 5.64957 -2.02346 0
M  V30 5748 H 569.203 4.26483 -2.30739 0
M  V30 5749 N 570.547 0.616602 1.45037 0
M  V30 5750 C 571.777 0.121791 2.06241 0
M  V30 5751 C 572.185 -1.20289 1.46038 0
M  V30 5752 O 571.528 -1.7456 0.572242 0
M  V30 5753 C 571.59 -0.0827345 3.59405 0
M  V30 5754 C 571.254 1.16153 4.41993 0
M  V30 5755 C 572.251 2.08183 4.76399 0
M  V30 5756 C 569.936 1.39288 4.82601 0
M  V30 5757 C 571.93 3.21668 5.5028 0
M  V30 5758 C 569.617 2.53073 5.56235 0
M  V30 5759 C 570.615 3.44091 5.89992 0
M  V30 5760 O 570.303 4.55894 6.6213 0
M  V30 5761 H 570.035 0.0701667 0.672349 0
M  V30 5762 H 572.589 0.846877 1.87129 0
M  V30 5763 H 570.819 -0.862812 3.76952 0
M  V30 5764 H 572.508 -0.530273 4.02421 0
M  V30 5765 H 573.274 1.91538 4.45576 0
M  V30 5766 H 569.153 0.693396 4.55755 0
M  V30 5767 H 572.697 3.92733 5.76547 0
M  V30 5768 H 568.594 2.69667 5.86472 0
M  V30 5769 H 569.362 4.5469 6.80587 0
M  V30 5770 N 572.025 -1.5352 0.356285 0
M  V30 5771 C 573.302 -1.93405 -0.292223 0
M  V30 5772 C 573.682 -1.28901 -1.67176 0
M  V30 5773 O 573.03 -0.444632 -2.24132 0
M  V30 5774 C 573.24 -3.47223 -0.35175 0
M  V30 5775 C 574.588 -4.20389 -0.596534 0
M  V30 5776 O 575.612 -3.53554 -0.433344 0
M  V30 5777 O 574.471 -5.3881 -0.913589 0
M  V30 5778 H 571.565 -0.808666 -0.173172 0
M  V30 5779 H 574.111 -1.64713 0.408391 0
M  V30 5780 H 572.883 -3.86423 0.615841 0
M  V30 5781 H 572.506 -3.8212 -1.09864 0
M  V30 5782 N 573.503 -0.0852151 -1.57369 0
M  V30 5783 C 574.749 0.581666 -1.94279 0
M  V30 5784 C 575.082 1.68444 -0.966446 0
M  V30 5785 O 574.357 1.945 0.00215277 0
M  V30 5786 C 574.64 1.14609 -3.41375 0
M  V30 5787 C 574.493 0.0490414 -4.49773 0
M  V30 5788 C 575.812 2.04751 -3.8957 0
M  V30 5789 H 572.931 0.209972 -0.706456 0
M  V30 5790 H 575.573 -0.153915 -1.89376 0
M  V30 5791 H 573.723 1.77297 -3.45685 0
M  V30 5792 H 575.395 -0.584721 -4.57579 0
M  V30 5793 H 573.638 -0.618638 -4.29366 0
M  V30 5794 H 574.309 0.484601 -5.49869 0
M  V30 5795 H 576.785 1.51981 -3.87351 0
M  V30 5796 H 575.661 2.41173 -4.93079 0
M  V30 5797 H 575.922 2.96107 -3.28288 0
M  V30 5798 N 574.981 1.5647 0.188427 0
M  V30 5799 C 576.229 1.80655 0.905986 0
M  V30 5800 C 576.55 0.659391 1.83513 0
M  V30 5801 O 575.82 -0.321868 1.93238 0
M  V30 5802 H 574.4 0.666391 0.337538 0
M  V30 5803 H 577.062 1.93949 0.192339 0
M  V30 5804 H 576.158 2.74066 1.49313 0
M  V30 5805 N 576.459 -0.456382 1.50847 0
M  V30 5806 C 577.705 -1.20914 1.62811 0
M  V30 5807 C 578.038 -1.91301 0.334304 0
M  V30 5808 O 577.313 -1.82775 -0.665098 0
M  V30 5809 C 577.596 -2.24122 2.81853 0
M  V30 5810 C 577.449 -1.57944 4.21158 0
M  V30 5811 C 578.768 -3.25295 2.96431 0
M  V30 5812 H 575.887 -0.438233 0.592554 0
M  V30 5813 H 578.529 -0.50091 1.83278 0
M  V30 5814 H 576.679 -2.84524 2.64534 0
M  V30 5815 H 578.351 -1.01025 4.50102 0
M  V30 5816 H 576.594 -0.882185 4.24735 0
M  V30 5817 H 577.265 -2.33014 5.00408 0
M  V30 5818 H 579.741 -2.7493 3.12335 0
M  V30 5819 H 578.617 -3.94822 3.81322 0
M  V30 5820 H 578.878 -3.90286 2.07676 0
M  V30 5821 N 577.937 -1.40673 -0.710563 0
M  V30 5822 C 579.167 -1.4234 -1.49742 0
M  V30 5823 C 579.575 -0.022821 -1.89186 0
M  V30 5824 O 578.918 0.964773 -1.56326 0
M  V30 5825 C 578.98 -2.25509 -2.79975 0
M  V30 5826 C 578.644 -3.73862 -2.62824 0
M  V30 5827 C 579.641 -4.66379 -2.29752 0
M  V30 5828 C 577.326 -4.17735 -2.78932 0
M  V30 5829 C 579.32 -6.00756 -2.13006 0
M  V30 5830 C 577.007 -5.5218 -2.61802 0
M  V30 5831 C 578.005 -6.43505 -2.28888 0
M  V30 5832 O 577.693 -7.75472 -2.11894 0
M  V30 5833 H 577.425 -0.487311 -0.468513 0
M  V30 5834 H 579.979 -1.8542 -0.883668 0
M  V30 5835 H 578.209 -1.77218 -3.43701 0
M  V30 5836 H 579.898 -2.19058 -3.41714 0
M  V30 5837 H 580.664 -4.33778 -2.16936 0
M  V30 5838 H 576.543 -3.46967 -3.03537 0
M  V30 5839 H 580.087 -6.72003 -1.87237 0
M  V30 5840 H 575.984 -5.84365 -2.74204 0
M  V30 5841 H 576.752 -7.86458 -2.26775 0
M  V30 5842 N 579.415 0.9433 -1.26252 0
M  V30 5843 C 580.663 1.68592 -1.11451 0
M  V30 5844 C 580.984 1.91957 0.343123 0
M  V30 5845 O 580.254 1.51475 1.24226 0
M  V30 5846 H 578.834 0.624789 -0.409448 0
M  V30 5847 H 581.496 1.13351 -1.58548 0
M  V30 5848 H 580.592 2.66054 -1.63162 0
M  V30 5849 N 580.893 1.08022 1.14757 0
M  V30 5850 C 582.133 0.816959 1.87364 0
M  V30 5851 C 582.497 -0.645407 1.80827 0
M  V30 5852 O 583.698 -1.024 2.48531 0
M  V30 5853 C 581.969 1.31961 3.32146 0
M  V30 5854 S 583.528 1.18806 4.2241 0
M  V30 5855 H 580.346 0.295862 0.646519 0
M  V30 5856 H 582.948 1.3807 1.38408 0
M  V30 5857 H 581.652 2.37847 3.3445 0
M  V30 5858 H 581.183 0.751371 3.86158 0
M  V30 5859 H 583.198 0.129865 4.9603 0
M  V30 5860 N 582.371 -1.3172 0.865308 0
M  V30 5861 C 583.303 -2.27545 0.274906 0
M  V30 5862 C 584.316 -1.52887 -0.559413 0
M  V30 5863 O 585.505 -1.74361 -0.382166 0
M  V30 5864 C 582.605 -3.33006 -0.629286 0
M  V30 5865 C 581.778 -4.37063 0.171553 0
M  V30 5866 C 580.837 -5.22044 -0.660052 0
M  V30 5867 O 579.863 -5.69129 -0.0897527 0
M  V30 5868 N 581.065 -5.45946 -1.97289 0
M  V30 5869 H 583.83 -2.78848 1.09836 0
M  V30 5870 H 581.391 -1.44693 0.726331 0
M  V30 5871 H 583.383 -3.86772 -1.19121 0
M  V30 5872 H 581.953 -2.81782 -1.35342 0
M  V30 5873 H 581.173 -3.83436 0.914919 0
M  V30 5874 H 582.461 -5.03662 0.721235 0
M  V30 5875 H 581.859 -5.0944 -2.45942 0
M  V30 5876 H 580.416 -6.02665 -2.4827 0
M  V30 5877 N 583.85 -0.624285 -1.44708 0
M  V30 5878 C 585.098 -0.125802 -2.01708 0
M  V30 5879 C 585.418 1.2543 -1.49306 0
M  V30 5880 O 584.689 1.83198 -0.693924 0
M  V30 5881 H 583.269 -0.0435161 -0.745731 0
M  V30 5882 H 585.931 -0.809446 -1.77296 0
M  V30 5883 H 585.027 -0.0882734 -3.11975 0
M  V30 5884 N 585.328 1.53329 -0.364422 0
M  V30 5885 C 586.568 2.0315 0.22572 0
M  V30 5886 C 586.932 1.24589 1.46087 0
M  V30 5887 O 588.133 1.64411 2.12656 0
M  V30 5888 C 586.404 3.53718 0.511663 0
M  V30 5889 S 587.963 4.25412 1.07564 0
M  V30 5890 H 584.781 0.70795 0.0657843 0
M  V30 5891 H 587.383 1.88811 -0.507019 0
M  V30 5892 H 586.087 4.08497 -0.394784 0
M  V30 5893 H 585.618 3.72217 1.27351 0
M  V30 5894 H 587.633 4.36486 2.35997 0
M  V30 5895 N 586.806 0.0935595 1.57322 0
M  V30 5896 C 588.046 -0.573901 1.96178 0
M  V30 5897 C 588.41 -1.65445 0.97426 0
M  V30 5898 O 589.611 -2.37901 1.25126 0
M  V30 5899 C 587.882 -1.11612 3.39526 0
M  V30 5900 S 589.441 -1.79566 4.00377 0
M  V30 5901 H 586.259 -0.187315 0.685882 0
M  V30 5902 H 588.861 0.172597 1.94737 0
M  V30 5903 H 587.565 -0.31815 4.09165 0
M  V30 5904 H 587.096 -1.89848 3.4456 0
M  V30 5905 H 589.111 -3.07978 3.89056 0
M  V30 5906 N 588.284 -1.56567 -0.180126 0
M  V30 5907 C 589.509 -1.85975 -0.918041 0
M  V30 5908 C 589.934 -0.678888 -1.75422 0
M  V30 5909 O 589.292 0.372168 -1.77439 0
M  V30 5910 C 589.34 -3.13731 -1.77779 0
M  V30 5911 O 588.444 -2.95335 -2.87838 0
M  V30 5912 H 587.785 -0.61196 -0.257683 0
M  V30 5913 H 590.315 -2.03798 -0.180923 0
M  V30 5914 H 590.325 -3.4491 -2.17948 0
M  V30 5915 H 589 -3.99293 -1.16352 0
M  V30 5916 H 587.577 -2.7549 -2.51316 0
M  V30 5917 N 589.762 0.448376 -1.51087 0
M  V30 5918 C 591.009 1.19872 -1.63209 0
M  V30 5919 C 591.337 1.91451 -0.343062 0
M  V30 5920 O 590.592 1.83789 0.672321 0
M  V30 5921 C 590.891 2.24866 -2.77795 0
M  V30 5922 C 590.557 1.70378 -4.17471 0
M  V30 5923 C 589.219 1.55241 -4.55471 0
M  V30 5924 C 591.571 1.30203 -5.04675 0
M  V30 5925 C 588.899 0.983844 -5.78392 0
M  V30 5926 C 591.251 0.747798 -6.28165 0
M  V30 5927 C 589.915 0.583233 -6.64947 0
M  V30 5928 H 589.185 0.438642 -0.597222 0
M  V30 5929 H 591.832 0.49136 -1.85089 0
M  V30 5930 H 590.137 3.01598 -2.50092 0
M  V30 5931 H 591.834 2.82723 -2.84374 0
M  V30 5932 H 588.424 1.83134 -3.87505 0
M  V30 5933 H 592.608 1.40723 -4.75932 0
M  V30 5934 H 587.864 0.844007 -6.05546 0
M  V30 5935 H 592.038 0.427927 -6.95084 0
M  V30 5936 H 589.665 0.140532 -7.6007 0
M  V30 5937 N 591.24 1.41047 0.703093 0
M  V30 5938 C 592.187 1.42302 1.81711 0
M  V30 5939 C 593.157 0.278336 1.63751 0
M  V30 5940 O 594.342 0.478266 1.84709 0
M  V30 5941 C 591.482 1.30362 3.19531 0
M  V30 5942 C 590.595 2.54638 3.48975 0
M  V30 5943 C 589.73 2.35047 4.76368 0
M  V30 5944 C 588.769 3.54837 4.98756 0
M  V30 5945 N 587.906 3.34363 6.1737 0
M  V30 5946 H 592.746 2.37516 1.79973 0
M  V30 5947 H 590.283 1.1795 0.878983 0
M  V30 5948 H 592.241 1.21443 3.99134 0
M  V30 5949 H 590.871 0.387602 3.20464 0
M  V30 5950 H 589.923 2.74037 2.63833 0
M  V30 5951 H 591.235 3.43766 3.61423 0
M  V30 5952 H 590.389 2.23552 5.64012 0
M  V30 5953 H 589.128 1.43363 4.66153 0
M  V30 5954 H 588.133 3.66795 4.09563 0
M  V30 5955 H 589.358 4.47464 5.10835 0
M  V30 5956 H 587.304 2.45373 6.08382 0
M  V30 5957 H 587.221 4.17063 6.30551 0
M  V30 5958 H 588.489 3.26626 7.07768 0
M  V30 5959 N 592.718 -0.936591 1.26751 0
M  V30 5960 C 593.958 -1.69796 1.13792 0
M  V30 5961 C 594.322 -1.89437 -0.312671 0
M  V30 5962 O 595.523 -2.62806 -0.564489 0
M  V30 5963 C 593.794 -3.03297 1.89065 0
M  V30 5964 S 595.353 -3.94461 1.92214 0
M  V30 5965 H 592.171 -0.583412 0.406389 0
M  V30 5966 H 594.773 -1.11575 1.60535 0
M  V30 5967 H 593.477 -2.86687 2.93665 0
M  V30 5968 H 593.008 -3.66575 1.42781 0
M  V30 5969 H 595.023 -4.85767 1.01215 0
M  V30 5970 N 594.196 -1.08629 -1.14182 0
M  V30 5971 C 595.126 -0.740003 -2.21464 0
M  V30 5972 C 596.107 0.278591 -1.67803 0
M  V30 5973 O 597.292 0.148461 -1.93632 0
M  V30 5974 C 594.422 -0.150952 -3.46972 0
M  V30 5975 C 593.376 -1.09815 -4.13672 0
M  V30 5976 C 592.702 -0.3712 -5.3341 0
M  V30 5977 C 594.002 -2.43722 -4.61949 0
M  V30 5978 H 595.696 -1.63697 -2.50686 0
M  V30 5979 H 593.242 -0.788526 -1.20492 0
M  V30 5980 H 595.195 0.103325 -4.21273 0
M  V30 5981 H 593.919 0.781164 -3.1712 0
M  V30 5982 H 592.578 -1.33756 -3.41328 0
M  V30 5983 H 592.226 0.564792 -4.99819 0
M  V30 5984 H 591.926 -1.00267 -5.78982 0
M  V30 5985 H 593.45 -0.12503 -6.10472 0
M  V30 5986 H 594.864 -2.24034 -5.27714 0
M  V30 5987 H 593.261 -3.02582 -5.18232 0
M  V30 5988 H 594.331 -3.05082 -3.76899 0
M  V30 5989 N 595.674 1.31259 -0.872281 0
M  V30 5990 C 596.622 2.30404 -0.318897 0
M  V30 5991 C 597.616 1.5962 0.567267 0
M  V30 5992 O 598.822 1.74204 0.453111 0
M  V30 5993 H 595.197 0.747243 -0.0844474 0
M  V30 5994 H 597.168 2.74549 -1.16899 0
M  V30 5995 C 595.917 3.44608 0.462683 0
M  V30 5996 H 595.24 3.99248 -0.209936 0
M  V30 5997 H 596.68 4.1609 0.815187 0
M  V30 5998 C 595.139 2.93456 1.65485 0
M  V30 5999 O 595.669 2.92418 2.75417 0
M  V30 6000 N 593.875 2.49628 1.48776 0
M  V30 6001 H 593.422 2.50671 0.593452 0
M  V30 6002 H 593.38 2.15759 2.28682 0
M  V30 6003 N 597.152 0.631951 1.44375 0
M  V30 6004 C 598.377 0.142146 2.06912 0
M  V30 6005 C 598.802 -1.17456 1.4692 0
M  V30 6006 O 598.16 -1.72074 0.570975 0
M  V30 6007 C 598.208 0.0417952 3.60576 0
M  V30 6008 O 597.312 -1.00194 4.00044 0
M  V30 6009 H 596.653 0.0851491 0.658518 0
M  V30 6010 H 599.183 0.868863 1.85235 0
M  V30 6011 H 599.193 -0.148517 4.0773 0
M  V30 6012 H 597.868 1.0031 4.03622 0
M  V30 6013 H 596.445 -0.786131 3.64519 0
M  V30 6014 N 598.631 -1.53133 0.372548 0
M  V30 6015 C 599.879 -2.00958 -0.214534 0
M  V30 6016 C 600.2 -1.26135 -1.48711 0
M  V30 6017 O 599.47 -0.376597 -1.92246 0
M  V30 6018 H 598.05 -0.742456 -0.0822664 0
M  V30 6019 H 600.712 -1.88367 0.500385 0
M  V30 6020 H 599.808 -3.09031 -0.436605 0
M  V30 6021 N 600.109 -0.101901 -1.5727 0
M  V30 6022 C 601.039 0.851544 -2.17419 0
M  V30 6023 C 602.02 1.28942 -1.10941 0
M  V30 6024 O 603.205 1.35509 -1.39107 0
M  V30 6025 C 600.335 2.10816 -2.75996 0
M  V30 6026 C 599.289 1.80867 -3.87906 0
M  V30 6027 C 598.615 3.13413 -4.33216 0
M  V30 6028 C 599.915 1.0903 -5.10793 0
M  V30 6029 H 601.609 0.350381 -2.97343 0
M  V30 6030 H 599.155 0.16709 -1.43027 0
M  V30 6031 H 601.108 2.77959 -3.16729 0
M  V30 6032 H 599.832 2.63227 -1.93337 0
M  V30 6033 H 598.491 1.16119 -3.47724 0
M  V30 6034 H 598.139 3.63725 -3.47438 0
M  V30 6035 H 597.839 2.94155 -5.08671 0
M  V30 6036 H 599.363 3.81704 -4.76586 0
M  V30 6037 H 600.777 1.66295 -5.48652 0
M  V30 6038 H 599.174 0.99927 -5.91722 0
M  V30 6039 H 600.244 0.0741704 -4.84843 0
M  V30 6040 N 601.587 1.56661 0.17182 0
M  V30 6041 C 602.517 1.99401 1.21498 0
M  V30 6042 C 603.498 0.869516 1.46197 0
M  V30 6043 O 604.683 1.13556 1.57539 0
M  V30 6044 C 601.813 2.35346 2.55401 0
M  V30 6045 C 600.767 3.5075 2.45272 0
M  V30 6046 C 600.093 3.72437 3.8366 0
M  V30 6047 C 601.393 4.84216 1.95787 0
M  V30 6048 H 603.087 2.86792 0.859699 0
M  V30 6049 H 600.633 1.37977 0.412103 0
M  V30 6050 H 602.586 2.63843 3.2858 0
M  V30 6051 H 601.31 1.44864 2.92715 0
M  V30 6052 H 599.969 3.2238 1.74547 0
M  V30 6053 H 599.617 2.79246 4.18367 0
M  V30 6054 H 599.317 4.50087 3.77751 0
M  V30 6055 H 600.841 4.03334 4.58426 0
M  V30 6056 H 602.255 5.11592 2.5874 0
M  V30 6057 H 600.652 5.65498 2.00827 0
M  V30 6058 H 601.722 4.76243 0.912159 0
M  V30 6059 N 603.065 -0.440357 1.51323 0
M  V30 6060 C 604.312 -1.19004 1.63842 0
M  V30 6061 C 604.64 -1.91266 0.35321 0
M  V30 6062 O 603.895 -1.84143 -0.662565 0
M  V30 6063 C 604.194 -2.2339 2.78984 0
M  V30 6064 C 603.86 -1.68162 4.18369 0
M  V30 6065 C 602.522 -1.52823 4.56288 0
M  V30 6066 C 604.874 -1.27524 5.05358 0
M  V30 6067 C 602.202 -0.953157 5.78906 0
M  V30 6068 C 604.554 -0.714474 6.28552 0
M  V30 6069 C 603.218 -0.547961 6.65247 0
M  V30 6070 H 602.488 -0.435468 0.59954 0
M  V30 6071 H 605.135 -0.481538 1.85347 0
M  V30 6072 H 603.44 -3.00267 2.51688 0
M  V30 6073 H 605.137 -2.81211 2.85869 0
M  V30 6074 H 601.727 -1.81077 3.8847 0
M  V30 6075 H 605.911 -1.38197 4.76671 0
M  V30 6076 H 601.167 -0.811882 6.05986 0
M  V30 6077 H 605.341 -0.391059 6.95301 0
M  V30 6078 H 602.968 -0.100222 7.60134 0
M  V30 6079 N 604.543 -1.41418 -0.695603 0
M  V30 6080 C 605.506 -1.42988 -1.79129 0
M  V30 6081 C 606.506 -0.320514 -1.57573 0
M  V30 6082 O 607.696 -0.58039 -1.64247 0
M  V30 6083 C 604.828 -1.24122 -3.175 0
M  V30 6084 H 606.021 -2.40526 -1.7913 0
M  V30 6085 H 603.574 -1.2756 -0.903225 0
M  V30 6086 H 604.309 -0.274253 -3.23138 0
M  V30 6087 H 604.094 -2.045 -3.34547 0
M  V30 6088 H 605.584 -1.28056 -3.97481 0
M  V30 6089 N 606.021 0.929856 -1.27246 0
M  V30 6090 C 607.246 1.71674 -1.16374 0
M  V30 6091 C 607.671 1.86064 0.276024 0
M  V30 6092 O 607.029 1.3591 1.19992 0
M  V30 6093 C 607.077 3.09526 -1.85003 0
M  V30 6094 O 606.181 3.96142 -1.14653 0
M  V30 6095 H 605.522 0.52629 -0.404863 0
M  V30 6096 H 608.052 1.16381 -1.68276 0
M  V30 6097 H 608.062 3.59852 -1.92276 0
M  V30 6098 H 606.737 2.98369 -2.89739 0
M  V30 6099 H 605.314 3.54584 -1.15433 0
M  V30 6100 N 607.499 1.09233 1.13605 0
M  V30 6101 C 608.915 0.82163 1.36826 0
M  V30 6102 C 609.115 -0.565021 1.93416 0
M  V30 6103 O 608.171 -1.32026 2.15234 0
M  V30 6104 C 609.484 1.91124 2.32147 0
M  V30 6105 C 611.032 1.93824 2.45767 0
M  V30 6106 C 611.507 3.01923 3.44393 0
M  V30 6107 N 612.998 3.01149 3.51942 0
M  V30 6108 C 613.733 3.81434 4.2813 0
M  V30 6109 N 613.229 4.71621 5.07489 0
M  V30 6110 N 615.022 3.69702 4.23411 0
M  V30 6111 H 607.173 1.98633 0.752234 0
M  V30 6112 H 609.436 0.862482 0.393482 0
M  V30 6113 H 609.142 2.90862 1.97717 0
M  V30 6114 H 609.016 1.78777 3.32142 0
M  V30 6115 H 611.403 0.94726 2.79483 0
M  V30 6116 H 611.484 2.10248 1.45703 0
M  V30 6117 H 611.128 4.01232 3.11408 0
M  V30 6118 H 611.058 2.82742 4.44257 0
M  V30 6119 H 613.549 2.35789 2.95317 0
M  V30 6120 H 613.862 5.29468 5.62924 0
M  V30 6121 H 612.207 4.75658 5.06729 0
M  V30 6122 H 615.398 2.98606 3.60489 0
M  V30 6123 H 615.571 4.32509 4.82535 0
M  V30 6124 N 608.977 -1.30795 0.87923 0
M  V30 6125 C 610.207 -2.00237 0.50881 0
M  V30 6126 C 610.615 -1.66115 -0.905682 0
M  V30 6127 O 609.958 -0.89138 -1.60624 0
M  V30 6128 C 610.02 -3.54508 0.597003 0
M  V30 6129 C 609.684 -4.12131 1.97477 0
M  V30 6130 C 610.681 -4.28552 2.94346 0
M  V30 6131 C 608.366 -4.47644 2.2786 0
M  V30 6132 C 610.36 -4.79689 4.19735 0
M  V30 6133 C 608.047 -4.98481 3.53496 0
M  V30 6134 C 609.045 -5.14456 4.49248 0
M  V30 6135 O 608.733 -5.64199 5.72656 0
M  V30 6136 H 608.465 -0.647026 0.195788 0
M  V30 6137 H 611.019 -1.67785 1.1848 0
M  V30 6138 H 609.249 -3.86461 -0.135945 0
M  V30 6139 H 610.938 -4.05198 0.238684 0
M  V30 6140 H 611.704 -4.01424 2.72183 0
M  V30 6141 H 607.583 -4.34481 1.54102 0
M  V30 6142 H 611.127 -4.92073 4.9448 0
M  V30 6143 H 607.024 -5.25044 3.75498 0
M  V30 6144 H 607.792 -5.82551 5.74957 0
M  V30 6145 N 610.455 -0.639598 -1.44038 0
M  V30 6146 C 611.866 -0.228866 -1.85292 0
M  V30 6147 C 612.217 1.22161 -1.53529 0
M  V30 6148 O 611.342 1.93064 -0.977518 0
M  V30 6149 C 611.937 -0.408592 -3.36327 0
M  V30 6150 C 610.496 -0.0522953 -3.76364 0
M  V30 6151 C 609.643 -0.717959 -2.67844 0
M  V30 6152 H 612.594 -0.844194 -1.34384 0
M  V30 6153 H 612.615 0.349968 -3.78887 0
M  V30 6154 H 612.127 -1.46435 -3.59414 0
M  V30 6155 H 610.228 1.0014 -3.58891 0
M  V30 6156 H 610.341 -0.468261 -4.76806 0
M  V30 6157 H 608.705 -0.152459 -2.54243 0
M  V30 6158 H 609.488 -1.77648 -2.93762 0
M  V30 6159 N 611.933 1.52934 -0.380664 0
M  V30 6160 C 613.182 2.00651 0.205477 0
M  V30 6161 C 613.495 1.27164 1.48623 0
M  V30 6162 O 614.701 1.65547 2.15189 0
M  V30 6163 C 613.157 3.57479 0.416726 0
M  V30 6164 C 612.765 4.39857 -0.850268 0
M  V30 6165 C 614.509 4.13509 0.959702 0
M  V30 6166 C 612.416 5.88269 -0.607773 0
M  V30 6167 H 611.346 0.749684 0.0805614 0
M  V30 6168 H 613.997 1.76508 -0.501732 0
M  V30 6169 H 612.379 3.77836 1.18557 0
M  V30 6170 H 613.553 4.31269 -1.62307 0
M  V30 6171 H 611.868 3.95005 -1.31756 0
M  V30 6172 H 614.465 5.22039 1.15669 0
M  V30 6173 H 614.808 3.69054 1.92626 0
M  V30 6174 H 615.341 3.9701 0.250645 0
M  V30 6175 H 612.08 6.3703 -1.54509 0
M  V30 6176 H 611.6 5.99667 0.126247 0
M  V30 6177 H 613.279 6.46558 -0.239014 0
M  V30 6178 N 613.412 0.11024 1.57214 0
M  V30 6179 C 614.345 -0.880224 2.1054 0
M  V30 6180 C 615.323 -1.26658 1.01964 0
M  V30 6181 O 616.507 -1.36917 1.29561 0
M  V30 6182 C 613.634 -2.17676 2.59489 0
M  V30 6183 C 612.68 -1.93914 3.79868 0
M  V30 6184 S 613.513 -1.16336 5.2271 0
M  V30 6185 C 614.669 -2.47188 5.75021 0
M  V30 6186 H 614.902 -0.426614 2.94223 0
M  V30 6187 H 612.435 -0.10336 1.54054 0
M  V30 6188 H 614.393 -2.92175 2.88347 0
M  V30 6189 H 613.054 -2.60156 1.76005 0
M  V30 6190 H 612.247 -2.8996 4.12236 0
M  V30 6191 H 611.849 -1.27539 3.51582 0
M  V30 6192 H 614.141 -3.43079 5.84211 0
M  V30 6193 H 615.084 -2.19377 6.7326 0
M  V30 6194 H 615.492 -2.56154 5.03036 0
M  V30 6195 N 614.89 -1.56749 -0.16351 0
M  V30 6196 C 616.167 -1.73321 -0.906599 0
M  V30 6197 C 616.547 -0.673779 -2.00059 0
M  V30 6198 O 615.895 0.310121 -2.26386 0
M  V30 6199 C 616.105 -3.168 -1.46419 0
M  V30 6200 C 617.453 -3.77993 -1.93407 0
M  V30 6201 O 618.477 -3.20127 -1.56196 0
M  V30 6202 O 617.336 -4.79615 -2.61976 0
M  V30 6203 H 614.43 -0.708073 -0.427272 0
M  V30 6204 H 616.976 -1.69029 -0.150727 0
M  V30 6205 H 615.748 -3.85396 -0.677189 0
M  V30 6206 H 615.371 -3.2545 -2.28403 0
M  V30 6207 N 616.368 0.432326 -1.51554 0
M  V30 6208 C 617.614 1.18309 -1.64714 0
M  V30 6209 C 617.947 1.90745 -0.364696 0
M  V30 6210 O 617.222 1.8381 0.635936 0
M  V30 6211 C 617.505 2.1961 -2.85383 0
M  V30 6212 C 617.358 1.51223 -4.23617 0
M  V30 6213 C 618.677 3.20538 -3.01569 0
M  V30 6214 H 615.796 0.428751 -0.599451 0
M  V30 6215 H 618.438 0.471689 -1.84052 0
M  V30 6216 H 616.588 2.8028 -2.69027 0
M  V30 6217 H 618.26 0.938516 -4.51652 0
M  V30 6218 H 616.503 0.814501 -4.26085 0
M  V30 6219 H 617.174 2.25024 -5.04052 0
M  V30 6220 H 619.65 2.69926 -3.16669 0
M  V30 6221 H 618.526 3.88706 -3.87555 0
M  V30 6222 H 618.787 3.86933 -2.13859 0
M  V30 6223 N 617.846 1.41785 0.688094 0
M  V30 6224 C 618.809 1.43936 1.78368 0
M  V30 6225 C 619.809 0.328866 1.57401 0
M  V30 6226 O 620.999 0.589093 1.63937 0
M  V30 6227 C 618.131 1.25804 3.16838 0
M  V30 6228 H 619.324 2.41472 1.77852 0
M  V30 6229 H 616.877 1.28037 0.896448 0
M  V30 6230 H 617.612 0.291386 3.22988 0
M  V30 6231 H 617.397 2.06272 3.33458 0
M  V30 6232 H 618.887 1.30162 3.96797 0
M  V30 6233 N 619.324 -0.923095 1.27737 0
M  V30 6234 C 620.554 -1.70277 1.17001 0
M  V30 6235 C 620.962 -1.87188 -0.275199 0
M  V30 6236 O 620.305 -1.39195 -1.19877 0
M  V30 6237 C 620.367 -3.11976 1.78637 0
M  V30 6238 C 620.031 -3.18386 3.27841 0
M  V30 6239 C 621.028 -3.00287 4.2441 0
M  V30 6240 C 618.713 -3.41198 3.68632 0
M  V30 6241 C 620.707 -3.04896 5.59747 0
M  V30 6242 C 618.394 -3.4544 5.04097 0
M  V30 6243 C 619.392 -3.27309 5.99465 0
M  V30 6244 O 619.08 -3.31295 7.32461 0
M  V30 6245 H 618.812 -0.539366 0.407505 0
M  V30 6246 H 621.366 -1.16446 1.69202 0
M  V30 6247 H 619.596 -3.67308 1.20919 0
M  V30 6248 H 621.285 -3.7193 1.6255 0
M  V30 6249 H 622.051 -2.825 3.94232 0
M  V30 6250 H 617.93 -3.54359 2.94873 0
M  V30 6251 H 621.474 -2.90662 6.34162 0
M  V30 6252 H 617.371 -3.62753 5.33929 0
M  V30 6253 H 618.139 -3.47719 7.40968 0
M  V30 6254 N 620.802 -1.09834 -1.13024 0
M  V30 6255 C 621.752 -0.710899 -2.16634 0
M  V30 6256 C 622.736 0.276836 -1.58501 0
M  V30 6257 O 623.928 0.0865457 -1.76788 0
M  V30 6258 C 621.057 -0.137574 -3.43024 0
M  V30 6259 C 620.143 -1.15198 -4.08155 0
M  V30 6260 N 620.534 -2.34054 -4.48388 0
M  V30 6261 C 618.832 -0.991074 -4.34849 0
M  V30 6262 C 619.533 -2.98616 -4.99203 0
M  V30 6263 N 618.509 -2.26159 -4.94321 0
M  V30 6264 H 622.311 -1.61576 -2.455 0
M  V30 6265 H 619.825 -0.975158 -1.29863 0
M  V30 6266 H 621.822 0.158031 -4.166 0
M  V30 6267 H 620.482 0.762088 -3.1563 0
M  V30 6268 H 621.493 -2.7162 -4.40957 0
M  V30 6269 H 618.17 -0.146448 -4.17243 0
M  V30 6270 H 619.56 -3.99683 -5.40096 0
M  V30 6271 N 622.28 1.30327 -0.886154 0
M  V30 6272 C 623.52 1.97886 -0.511912 0
M  V30 6273 C 623.884 1.68417 0.921944 0
M  V30 6274 O 625.085 2.29319 1.40237 0
M  V30 6275 C 623.356 3.48775 -0.780444 0
M  V30 6276 S 624.915 4.35844 -0.508482 0
M  V30 6277 H 621.733 0.685024 -0.190428 0
M  V30 6278 H 624.335 1.58413 -1.14567 0
M  V30 6279 H 623.039 3.67714 -1.82248 0
M  V30 6280 H 622.57 3.93171 -0.134284 0
M  V30 6281 H 624.585 4.91893 0.65239 0
M  V30 6282 N 623.758 0.647228 1.43697 0
M  V30 6283 C 624.988 0.16551 2.05936 0
M  V30 6284 C 625.396 -1.17164 1.48557 0
M  V30 6285 O 624.739 -1.73307 0.60914 0
M  V30 6286 C 624.801 -0.00648082 3.59499 0
M  V30 6287 C 624.465 1.25503 4.39429 0
M  V30 6288 C 625.462 2.18241 4.71876 0
M  V30 6289 C 623.147 1.49494 4.79538 0
M  V30 6290 C 625.141 3.33268 5.43333 0
M  V30 6291 C 622.828 2.64815 5.50742 0
M  V30 6292 C 623.826 3.56528 5.82561 0
M  V30 6293 O 623.514 4.69836 6.52311 0
M  V30 6294 H 623.246 0.0844124 0.670709 0
M  V30 6295 H 625.8 0.88638 1.8529 0
M  V30 6296 H 624.03 -0.782661 3.78697 0
M  V30 6297 H 625.719 -0.444794 4.03456 0
M  V30 6298 H 626.485 2.00946 4.41413 0
M  V30 6299 H 622.364 0.789912 4.54182 0
M  V30 6300 H 625.908 4.04874 5.68087 0
M  V30 6301 H 621.805 2.82047 5.8062 0
M  V30 6302 H 622.573 4.69024 6.70789 0
M  V30 6303 N 625.236 -1.5273 0.388769 0
M  V30 6304 C 626.647 -1.86505 -0.0853788 0
M  V30 6305 C 626.998 -1.30847 -1.46197 0
M  V30 6306 O 626.123 -0.639609 -2.06732 0
M  V30 6307 C 626.718 -3.38414 -0.161703 0
M  V30 6308 C 625.277 -3.71902 -0.580144 0
M  V30 6309 C 624.424 -2.76095 0.258218 0
M  V30 6310 H 627.375 -1.46647 0.606665 0
M  V30 6311 H 627.396 -3.67638 -0.980936 0
M  V30 6312 H 626.908 -3.78893 0.840333 0
M  V30 6313 H 625.009 -3.36992 -1.58957 0
M  V30 6314 H 625.122 -4.77902 -0.338663 0
M  V30 6315 H 623.486 -2.53195 -0.276432 0
M  V30 6316 H 624.269 -3.19411 1.25822 0
M  V30 6317 N 626.714 -0.118576 -1.57153 0
M  V30 6318 C 627.662 0.849114 -2.16547 0
M  V30 6319 C 628.656 1.27567 -1.11458 0
M  V30 6320 O 629.862 1.24746 -1.29763 0
M  V30 6321 H 626.237 0.291935 -0.693021 0
M  V30 6322 H 628.208 0.323693 -2.96639 0
M  V30 6323 C 626.957 2.08951 -2.77912 0
M  V30 6324 H 626.28 1.77021 -3.58474 0
M  V30 6325 H 627.72 2.74666 -3.23008 0
M  V30 6326 C 626.179 2.87899 -1.74974 0
M  V30 6327 O 626.709 3.83268 -1.20285 0
M  V30 6328 N 624.915 2.51884 -1.44924 0
M  V30 6329 H 624.462 1.74397 -1.89587 0
M  V30 6330 H 624.42 3.05003 -0.762921 0
M  V30 6331 N 628.193 1.56834 0.155195 0
M  V30 6332 C 629.14 1.97646 1.19184 0
M  V30 6333 C 630.11 0.842788 1.4313 0
M  V30 6334 O 631.295 1.1042 1.55602 0
M  V30 6335 C 628.435 2.35527 2.52232 0
M  V30 6336 C 627.548 3.62147 2.35529 0
M  V30 6337 C 626.683 3.89167 3.61555 0
M  V30 6338 C 625.722 5.09084 3.39853 0
M  V30 6339 N 624.859 5.32156 4.5799 0
M  V30 6340 H 629.699 2.8601 0.836802 0
M  V30 6341 H 627.236 1.41507 0.401758 0
M  V30 6342 H 629.194 2.55516 3.29799 0
M  V30 6343 H 627.824 1.50253 2.85699 0
M  V30 6344 H 626.876 3.4998 1.49057 0
M  V30 6345 H 628.188 4.49871 2.15448 0
M  V30 6346 H 627.342 4.09611 4.47553 0
M  V30 6347 H 626.081 2.9985 3.84632 0
M  V30 6348 H 625.086 4.88522 2.52243 0
M  V30 6349 H 626.311 5.99947 3.18183 0
M  V30 6350 H 624.257 4.45791 4.81255 0
M  V30 6351 H 624.174 6.14133 4.40882 0
M  V30 6352 H 625.442 5.57091 5.45225 0
M  V30 6353 N 629.671 -0.424282 1.51781 0
M  V30 6354 C 630.911 -1.18194 1.66762 0
M  V30 6355 C 631.275 -1.88164 0.381857 0
M  V30 6356 O 632.476 -2.65692 0.407586 0
M  V30 6357 C 630.747 -2.16173 2.84612 0
M  V30 6358 S 632.306 -3.0025 3.19993 0
M  V30 6359 H 629.124 -0.400626 0.587384 0
M  V30 6360 H 631.726 -0.471499 1.89729 0
M  V30 6361 H 630.43 -1.6343 3.76455 0
M  V30 6362 H 629.961 -2.91778 2.63873 0
M  V30 6363 H 631.976 -4.1796 2.67439 0
M  V30 6364 N 631.149 -1.42148 -0.680565 0
M  V30 6365 C 632.097 -1.45401 -1.81552 0
M  V30 6366 C 633.091 -0.33036 -1.66147 0
M  V30 6367 O 634.297 -0.503103 -1.72826 0
M  V30 6368 H 630.672 -0.455265 -0.59853 0
M  V30 6369 H 632.643 -2.41024 -1.75926 0
M  V30 6370 C 631.392 -1.36769 -3.19671 0
M  V30 6371 H 630.715 -2.22525 -3.32149 0
M  V30 6372 H 632.155 -1.43106 -3.9912 0
M  V30 6373 C 630.614 -0.0817752 -3.36801 0
M  V30 6374 O 631.144 0.867707 -3.92216 0
M  V30 6375 N 629.35 -0.000799811 -2.906 0
M  V30 6376 H 628.897 -0.774231 -2.4569 0
M  V30 6377 H 628.855 0.858961 -3.02439 0
M  V30 6378 N 632.627 0.916307 -1.28225 0
M  V30 6379 C 633.904 1.64429 -1.05936 0
M  V30 6380 C 634.284 2.07234 0.402139 0
M  V30 6381 O 633.632 1.81535 1.3877 0
M  V30 6382 C 633.842 2.83773 -2.03159 0
M  V30 6383 C 635.19 3.54852 -2.33164 0
M  V30 6384 O 636.214 2.93918 -2.01223 0
M  V30 6385 O 635.073 4.64663 -2.87664 0
M  V30 6386 H 632.167 0.721221 -0.404683 0
M  V30 6387 H 634.713 0.965838 -1.39534 0
M  V30 6388 H 633.485 2.49217 -3.01673 0
M  V30 6389 H 633.108 3.59333 -1.70192 0
M  V30 6390 N 634.105 1.10431 1.1244 0
M  V30 6391 C 635.382 0.758797 1.80282 0
M  V30 6392 C 635.762 -0.754727 1.97147 0
M  V30 6393 O 635.11 -1.68094 1.54779 0
M  V30 6394 C 635.32 1.50982 3.14651 0
M  V30 6395 C 636.668 1.68232 3.8985 0
M  V30 6396 O 637.692 1.47319 3.24308 0
M  V30 6397 O 636.551 2.02905 5.07437 0
M  V30 6398 H 633.645 0.273756 0.780376 0
M  V30 6399 H 636.191 1.20713 1.19275 0
M  V30 6400 H 634.963 2.53989 2.97666 0
M  V30 6401 H 634.586 1.05435 3.83366 0
M  V30 6402 N 635.583 -1.29855 0.893053 0
M  V30 6403 C 636.546 -2.26183 0.370687 0
M  V30 6404 C 637.546 -1.53108 -0.491385 0
M  V30 6405 O 638.736 -1.71643 -0.297386 0
M  V30 6406 C 635.868 -3.37633 -0.470827 0
M  V30 6407 H 637.061 -2.73903 1.22135 0
M  V30 6408 H 634.614 -1.41183 0.67061 0
M  V30 6409 H 635.349 -2.95241 -1.34175 0
M  V30 6410 H 635.134 -3.91825 0.146784 0
M  V30 6411 H 636.624 -4.09313 -0.827825 0
M  V30 6412 N 637.061 -0.65484 -1.43351 0
M  V30 6413 C 637.991 0.0221809 -2.33489 0
M  V30 6414 C 638.972 0.810272 -1.49561 0
M  V30 6415 O 640.157 0.771426 -1.78221 0
M  V30 6416 C 637.287 0.988117 -3.32947 0
M  V30 6417 C 636.241 0.310026 -4.26876 0
M  V30 6418 C 635.567 1.38752 -5.16384 0
M  V30 6419 C 636.867 -0.798589 -5.16159 0
M  V30 6420 H 638.561 -0.730571 -2.9035 0
M  V30 6421 H 636.107 -0.352773 -1.39612 0
M  V30 6422 H 638.06 1.47067 -3.94904 0
M  V30 6423 H 636.784 1.77205 -2.74346 0
M  V30 6424 H 635.443 -0.152097 -3.66284 0
M  V30 6425 H 635.091 2.16293 -4.54121 0
M  V30 6426 H 634.791 0.939051 -5.80048 0
M  V30 6427 H 636.315 1.87141 -5.81215 0
M  V30 6428 H 637.729 -0.398126 -5.71916 0
M  V30 6429 H 636.126 -1.17163 -5.88552 0
M  V30 6430 H 637.196 -1.65588 -4.55751 0
M  V30 6431 N 638.539 1.52521 -0.396863 0
M  V30 6432 C 639.502 2.2527 0.422604 0
M  V30 6433 C 640.502 1.27184 0.983913 0
M  V30 6434 O 641.692 1.51222 0.864723 0
M  V30 6435 C 638.824 3.01356 1.59365 0
M  V30 6436 H 640.017 2.99133 -0.214416 0
M  V30 6437 H 637.57 1.55587 -0.149128 0
M  V30 6438 H 638.305 2.31813 2.26789 0
M  V30 6439 H 638.09 3.73357 1.19779 0
M  V30 6440 H 639.58 3.56571 2.17363 0
M  V30 6441 N 640.017 0.126909 1.57088 0
M  V30 6442 C 641.242 -0.53997 2.00248 0
M  V30 6443 C 641.667 -1.58927 1.00618 0
M  V30 6444 O 641.025 -1.81288 -0.0210131 0
M  V30 6445 C 641.073 -1.13565 3.4225 0
M  V30 6446 O 640.177 -2.25103 3.45547 0
M  V30 6447 H 639.518 -0.13412 0.650314 0
M  V30 6448 H 642.048 0.217718 2.03438 0
M  V30 6449 H 642.058 -1.46925 3.80627 0
M  V30 6450 H 640.733 -0.367122 4.14277 0
M  V30 6451 H 639.31 -1.93123 3.18995 0
M  V30 6452 N 641.495 -1.56914 -0.146875 0
M  V30 6453 C 642.442 -1.98275 -1.18134 0
M  V30 6454 C 643.412 -0.850367 -1.42681 0
M  V30 6455 O 644.597 -1.11244 -1.55014 0
M  V30 6456 C 641.737 -2.36861 -2.5098 0
M  V30 6457 C 640.85 -3.63391 -2.33605 0
M  V30 6458 C 639.985 -3.91079 -3.59486 0
M  V30 6459 C 639.024 -5.10879 -3.37149 0
M  V30 6460 N 638.161 -5.34577 -4.55161 0
M  V30 6461 H 643.001 -2.8645 -0.821622 0
M  V30 6462 H 640.538 -1.41718 -0.394248 0
M  V30 6463 H 642.496 -2.57262 -3.28439 0
M  V30 6464 H 641.126 -1.51766 -2.84898 0
M  V30 6465 H 640.178 -3.50766 -1.47199 0
M  V30 6466 H 641.49 -4.51007 -2.13059 0
M  V30 6467 H 640.644 -4.11979 -4.45374 0
M  V30 6468 H 639.383 -3.01885 -3.83036 0
M  V30 6469 H 638.388 -4.89853 -2.49649 0
M  V30 6470 H 639.613 -6.01626 -3.14997 0
M  V30 6471 H 637.559 -4.48337 -4.78884 0
M  V30 6472 H 637.476 -6.16463 -4.37618 0
M  V30 6473 H 638.744 -5.59975 -5.42263 0
M  V30 6474 N 642.974 0.416227 -1.52004 0
M  V30 6475 C 644.222 1.16153 -1.65387 0
M  V30 6476 C 644.543 1.91208 -0.382669 0
M  V30 6477 O 643.813 1.86413 0.602231 0
M  V30 6478 H 642.393 0.431765 -0.60958 0
M  V30 6479 H 645.055 0.475151 -1.89019 0
M  V30 6480 H 644.151 1.87952 -2.4916 0
M  V30 6481 N 644.452 1.42507 0.673017 0
M  V30 6482 C 645.415 1.4582 1.76831 0
M  V30 6483 C 646.415 0.345542 1.57043 0
M  V30 6484 O 647.605 0.606447 1.63303 0
M  V30 6485 C 644.737 1.29158 3.15485 0
M  V30 6486 H 645.93 2.43345 1.7528 0
M  V30 6487 H 643.483 1.28981 0.882817 0
M  V30 6488 H 644.218 0.325626 3.22661 0
M  V30 6489 H 644.003 2.09797 3.31252 0
M  V30 6490 H 645.493 1.34363 3.95394 0
M  V30 6491 N 645.93 -0.909495 1.28709 0
M  V30 6492 C 646.86 -2.0291 1.15542 0
M  V30 6493 C 647.841 -1.7002 0.0521017 0
M  V30 6494 O 649.026 -1.92835 0.229849 0
M  V30 6495 C 646.156 -3.37458 0.820935 0
M  V30 6496 C 645.11 -3.84524 1.87949 0
M  V30 6497 C 644.436 -5.16086 1.39854 0
M  V30 6498 C 645.736 -4.05918 3.28676 0
M  V30 6499 H 647.43 -2.14183 2.09203 0
M  V30 6500 H 644.976 -1.02913 1.00722 0
M  V30 6501 H 646.929 -4.1528 0.715571 0
M  V30 6502 H 645.653 -3.26249 -0.151374 0
M  V30 6503 H 644.312 -3.08911 1.97408 0
M  V30 6504 H 643.96 -5.01284 0.41518 0
M  V30 6505 H 643.66 -5.48547 2.1064 0
M  V30 6506 H 645.184 -5.96459 1.30649 0
M  V30 6507 H 646.598 -4.74252 3.22115 0
M  V30 6508 H 644.995 -4.49717 3.97334 0
M  V30 6509 H 646.065 -3.10583 3.72379 0
M  V30 6510 N 647.408 -1.11026 -1.11852 0
M  V30 6511 C 648.655 -0.85646 -1.83497 0
M  V30 6512 C 648.983 0.617938 -1.84423 0
M  V30 6513 O 648.238 1.47194 -1.28966 0
M  V30 6514 C 648.537 -1.35777 -3.30604 0
M  V30 6515 C 648.203 -2.84465 -3.49843 0
M  V30 6516 C 646.865 -3.25068 -3.54802 0
M  V30 6517 C 649.217 -3.80251 -3.56453 0
M  V30 6518 C 646.545 -4.60194 -3.63921 0
M  V30 6519 C 648.897 -5.15188 -3.67102 0
M  V30 6520 C 647.561 -5.55356 -3.70319 0
M  V30 6521 H 646.831 -0.313401 -0.671462 0
M  V30 6522 H 649.478 -1.38792 -1.31943 0
M  V30 6523 H 647.783 -0.746455 -3.84624 0
M  V30 6524 H 649.48 -1.13779 -3.8452 0
M  V30 6525 H 646.07 -2.52054 -3.46651 0
M  V30 6526 H 650.254 -3.49986 -3.51886 0
M  V30 6527 H 645.51 -4.90728 -3.64686 0
M  V30 6528 H 649.684 -5.89248 -3.71159 0
M  V30 6529 H 647.311 -6.60054 -3.77138 0
M  V30 6530 N 648.886 1.2938 -0.899927 0
M  V30 6531 C 649.816 2.30144 -0.39446 0
M  V30 6532 C 650.797 1.61611 0.530639 0
M  V30 6533 O 651.982 1.89119 0.441319 0
M  V30 6534 C 649.112 3.45229 0.37868 0
M  V30 6535 C 648.066 4.25564 -0.456012 0
M  V30 6536 C 647.392 5.32848 0.444637 0
M  V30 6537 C 648.692 4.93651 -1.70605 0
M  V30 6538 H 650.386 2.72673 -1.23653 0
M  V30 6539 H 647.932 1.31086 -0.596034 0
M  V30 6540 H 649.885 4.14797 0.743037 0
M  V30 6541 H 648.609 3.01545 1.25453 0
M  V30 6542 H 647.268 3.57704 -0.802704 0
M  V30 6543 H 646.916 4.85408 1.31863 0
M  V30 6544 H 646.616 5.87497 -0.110154 0
M  V30 6545 H 648.14 6.05268 0.805182 0
M  V30 6546 H 649.554 5.55655 -1.41141 0
M  V30 6547 H 647.951 5.58233 -2.20217 0
M  V30 6548 H 649.021 4.18926 -2.4419 0
M  V30 6549 N 650.364 0.662433 1.43002 0
M  V30 6550 C 651.311 -0.0235324 2.30788 0
M  V30 6551 C 652.281 -0.805342 1.4527 0
M  V30 6552 O 653.466 -0.78009 1.74124 0
M  V30 6553 C 650.606 -0.977545 3.30965 0
M  V30 6554 C 649.719 -0.190865 4.31578 0
M  V30 6555 C 648.854 -1.13951 5.18834 0
M  V30 6556 C 647.893 -0.343796 6.11134 0
M  V30 6557 N 647.03 -1.2445 6.90982 0
M  V30 6558 H 651.87 0.730921 2.88897 0
M  V30 6559 H 649.407 0.372197 1.42313 0
M  V30 6560 H 651.365 -1.54437 3.87563 0
M  V30 6561 H 649.995 -1.69877 2.74484 0
M  V30 6562 H 649.047 0.492388 3.772 0
M  V30 6563 H 650.359 0.427464 4.96965 0
M  V30 6564 H 649.513 -1.77666 5.80103 0
M  V30 6565 H 648.252 -1.79174 4.53595 0
M  V30 6566 H 647.257 0.30665 5.48944 0
M  V30 6567 H 648.482 0.304161 6.78419 0
M  V30 6568 H 646.428 -1.88336 6.28383 0
M  V30 6569 H 646.345 -0.680959 7.52927 0
M  V30 6570 H 647.613 -1.86952 7.56749 0
M  V30 6571 N 651.842 -1.52309 0.404946 0
M  V30 6572 C 653.088 -2.02065 -0.172455 0
M  V30 6573 C 653.421 -1.29022 -1.45145 0
M  V30 6574 O 652.696 -0.395284 -1.90441 0
M  V30 6575 C 652.979 -3.5759 -0.424433 0
M  V30 6576 C 652.832 -4.41287 0.870945 0
M  V30 6577 C 654.151 -4.23186 -1.20837 0
M  V30 6578 H 651.27 -0.734454 -0.0612035 0
M  V30 6579 H 653.912 -1.82236 0.53759 0
M  V30 6580 H 652.062 -3.74617 -1.02929 0
M  V30 6581 H 653.734 -4.3598 1.50729 0
M  V30 6582 H 651.977 -4.07669 1.48284 0
M  V30 6583 H 652.648 -5.48171 0.649083 0
M  V30 6584 H 655.124 -4.10232 -0.696338 0
M  V30 6585 H 654 -5.31953 -1.35343 0
M  V30 6586 H 654.261 -3.81862 -2.22786 0
M  V30 6587 N 653.32 -0.135238 -1.57019 0
M  V30 6588 C 654.252 0.839675 -2.13265 0
M  V30 6589 C 655.265 1.21887 -1.07923 0
M  V30 6590 O 656.454 1.16499 -1.35241 0
M  V30 6591 C 653.554 2.13647 -2.63075 0
M  V30 6592 C 652.727 1.92646 -3.92691 0
M  V30 6593 C 651.786 3.06205 -4.27931 0
M  V30 6594 O 650.812 2.78409 -4.96465 0
M  V30 6595 N 652.014 4.33072 -3.86561 0
M  V30 6596 H 654.779 0.359026 -2.97542 0
M  V30 6597 H 652.34 0.0486979 -1.61827 0
M  V30 6598 H 654.332 2.88641 -2.8367 0
M  V30 6599 H 652.902 2.5301 -1.83588 0
M  V30 6600 H 652.122 1.01754 -3.80841 0
M  V30 6601 H 653.41 1.75939 -4.77413 0
M  V30 6602 H 652.808 4.58526 -3.31316 0
M  V30 6603 H 651.365 5.04885 -4.12231 0
M  V30 6604 N 654.798 1.5699 0.138552 0
M  V30 6605 C 656.044 1.84081 0.85099 0
M  V30 6606 C 656.377 0.718107 1.80435 0
M  V30 6607 O 655.652 -0.277633 1.92508 0
M  V30 6608 C 655.935 3.21699 1.61808 0
M  V30 6609 C 655.788 4.44544 0.685633 0
M  V30 6610 C 657.107 3.5664 2.57868 0
M  V30 6611 H 654.226 0.669592 0.307922 0
M  V30 6612 H 656.868 1.89646 0.11588 0
M  V30 6613 H 655.018 3.17086 2.24474 0
M  V30 6614 H 656.69 4.61248 0.0693179 0
M  V30 6615 H 654.933 4.338 -0.00421993 0
M  V30 6616 H 655.604 5.3746 1.25858 0
M  V30 6617 H 658.08 3.61918 2.05316 0
M  V30 6618 H 656.956 4.53946 3.08584 0
M  V30 6619 H 657.217 2.83036 3.39622 0
M  V30 6620 N 656.276 -0.40816 1.52223 0
M  V30 6621 C 657.524 -1.15274 1.66001 0
M  V30 6622 C 657.845 -1.91003 0.392803 0
M  V30 6623 O 657.115 -1.8673 -0.592336 0
M  V30 6624 H 655.695 -0.428526 0.611861 0
M  V30 6625 H 658.357 -0.46512 1.89269 0
M  V30 6626 H 657.453 -1.86628 2.50153 0
M  V30 6627 N 657.755 -1.42862 -0.66545 0
M  V30 6628 C 658.98 -1.47456 -1.45848 0
M  V30 6629 C 659.405 -0.0900312 -1.87884 0
M  V30 6630 O 658.763 0.913587 -1.56599 0
M  V30 6631 C 658.811 -2.41514 -2.67774 0
M  V30 6632 O 657.915 -1.89296 -3.66389 0
M  V30 6633 H 657.256 -0.499236 -0.437789 0
M  V30 6634 H 659.786 -1.8765 -0.815394 0
M  V30 6635 H 659.796 -2.58409 -3.15735 0
M  V30 6636 H 658.471 -3.42099 -2.36519 0
M  V30 6637 H 657.048 -1.82003 -3.25468 0
M  V30 6638 N 659.233 0.902656 -1.29189 0
M  V30 6639 C 660.461 1.68639 -1.19869 0
M  V30 6640 C 660.876 1.87254 0.241121 0
M  V30 6641 O 660.233 1.40745 1.16177 0
M  V30 6642 C 660.284 3.07251 -1.90471 0
M  V30 6643 O 660.005 2.89488 -3.28829 0
M  V30 6644 C 661.506 4.01653 -1.8759 0
M  V30 6645 H 658.726 0.526802 -0.415596 0
M  V30 6646 H 661.27 1.12901 -1.7051 0
M  V30 6647 H 659.425 3.59774 -1.43672 0
M  V30 6648 H 659.839 3.77296 -3.64346 0
M  V30 6649 H 661.313 4.96339 -2.4156 0
M  V30 6650 H 661.79 4.30881 -0.850756 0
M  V30 6651 H 662.396 3.55061 -2.34119 0
M  V30 6652 N 660.711 1.11618 1.11262 0
M  V30 6653 C 662.122 0.881942 1.64556 0
M  V30 6654 C 662.473 -0.585442 1.87262 0
M  V30 6655 O 661.598 -1.44795 1.60821 0
M  V30 6656 C 662.193 1.59446 2.98935 0
M  V30 6657 C 660.752 1.40661 3.4913 0
M  V30 6658 C 659.899 1.63593 2.23903 0
M  V30 6659 H 662.85 1.27217 0.94877 0
M  V30 6660 H 662.871 1.04054 3.65996 0
M  V30 6661 H 662.383 2.66241 2.82378 0
M  V30 6662 H 660.484 0.360835 3.70849 0
M  V30 6663 H 660.597 2.15693 4.27801 0
M  V30 6664 H 658.961 1.05944 2.3162 0
M  V30 6665 H 659.744 2.71666 2.09886 0
M  V30 6666 N 662.189 -1.289 0.906776 0
M  V30 6667 C 663.121 -2.26556 0.347159 0
M  V30 6668 C 664.134 -1.54589 -0.51049 0
M  V30 6669 O 665.323 -1.75489 -0.326501 0
M  V30 6670 C 662.423 -3.3484 -0.523024 0
M  V30 6671 C 661.596 -4.36296 0.310515 0
M  V30 6672 C 660.655 -5.23879 -0.493634 0
M  V30 6673 O 659.681 -5.69127 0.0913569 0
M  V30 6674 N 660.883 -5.51946 -1.7982 0
M  V30 6675 H 663.648 -2.75212 1.18652 0
M  V30 6676 H 661.209 -1.42309 0.771996 0
M  V30 6677 H 663.201 -3.90366 -1.06756 0
M  V30 6678 H 661.771 -2.85946 -1.26309 0
M  V30 6679 H 660.991 -3.80331 1.03644 0
M  V30 6680 H 662.279 -5.01113 0.881106 0
M  V30 6681 H 661.677 -5.17006 -2.2961 0
M  V30 6682 H 660.234 -6.10258 -2.28971 0
M  V30 6683 N 663.667 -0.670007 -1.42649 0
M  V30 6684 C 664.944 -0.119451 -1.95235 0
M  V30 6685 C 665.324 1.36461 -1.61064 0
M  V30 6686 O 664.672 2.09843 -0.904329 0
M  V30 6687 C 664.882 -0.383498 -3.46887 0
M  V30 6688 C 666.23 -0.297431 -4.23557 0
M  V30 6689 O 667.254 -0.31698 -3.54787 0
M  V30 6690 O 666.113 -0.235507 -5.45992 0
M  V30 6691 H 663.207 -8.85474e-05 -0.827 0
M  V30 6692 H 665.753 -0.744406 -1.52501 0
M  V30 6693 H 664.525 -1.41174 -3.64946 0
M  V30 6694 H 664.148 0.273702 -3.96657 0
M  V30 6695 N 665.145 1.52092 -0.413018 0
M  V30 6696 C 666.077 2.24819 0.445994 0
M  V30 6697 C 667.09 1.27925 1.00692 0
M  V30 6698 O 668.279 1.53845 0.905204 0
M  V30 6699 C 665.379 2.96951 1.6332 0
M  V30 6700 C 664.552 4.20746 1.19548 0
M  V30 6701 C 663.611 4.75668 2.25003 0
M  V30 6702 O 662.637 5.38148 1.85434 0
M  V30 6703 N 663.839 4.57579 3.57214 0
M  V30 6704 H 666.604 2.99176 -0.177209 0
M  V30 6705 H 664.165 1.60102 -0.240601 0
M  V30 6706 H 666.157 3.30586 2.33441 0
M  V30 6707 H 664.727 2.25756 2.16225 0
M  V30 6708 H 663.947 3.92881 0.32224 0
M  V30 6709 H 665.235 5.01132 0.880033 0
M  V30 6710 H 664.633 4.07758 3.92109 0
M  V30 6711 H 663.19 4.95642 4.23299 0
M  V30 6712 N 666.623 0.143563 1.56945 0
M  V30 6713 C 668.039 -0.212877 1.58174 0
M  V30 6714 C 668.239 -1.64926 1.15766 0
M  V30 6715 O 667.295 -2.37535 0.856361 0
M  V30 6716 C 668.608 0.0427573 3.0067 0
M  V30 6717 C 670.156 -0.0212221 3.12993 0
M  V30 6718 C 670.631 0.207036 4.57532 0
M  V30 6719 N 672.122 0.153845 4.62944 0
M  V30 6720 C 672.857 0.305018 5.72588 0
M  V30 6721 N 672.353 0.513722 6.90893 0
M  V30 6722 N 674.146 0.242862 5.61575 0
M  V30 6723 H 666.297 1.08148 1.82805 0
M  V30 6724 H 668.56 0.427831 0.84597 0
M  V30 6725 H 668.266 1.03672 3.36073 0
M  V30 6726 H 668.14 -0.678195 3.71053 0
M  V30 6727 H 670.527 -1.00574 2.77433 0
M  V30 6728 H 670.608 0.732004 2.45103 0
M  V30 6729 H 670.252 1.18863 4.93795 0
M  V30 6730 H 670.182 -0.566473 5.23544 0
M  V30 6731 H 672.673 -0.00294866 3.779 0
M  V30 6732 H 672.986 0.619273 7.70315 0
M  V30 6733 H 671.331 0.550001 6.9282 0
M  V30 6734 H 674.522 0.0806015 4.68031 0
M  V30 6735 H 674.695 0.364112 6.46976 0
M  V30 6736 N 668.101 -1.57061 -0.130224 0
M  V30 6737 C 669.35 -1.83446 -0.838488 0
M  V30 6738 C 669.663 -0.727468 -1.81569 0
M  V30 6739 O 670.869 -0.877394 -2.56932 0
M  V30 6740 C 669.325 -3.25201 -1.54182 0
M  V30 6741 C 668.933 -4.4388 -0.606178 0
M  V30 6742 C 670.677 -3.60844 -2.23588 0
M  V30 6743 C 668.584 -5.76661 -1.31209 0
M  V30 6744 H 667.514 -0.684185 -0.316871 0
M  V30 6745 H 670.165 -1.83273 -0.0912059 0
M  V30 6746 H 668.547 -3.1981 -2.33533 0
M  V30 6747 H 669.721 -4.60545 0.153308 0
M  V30 6748 H 668.036 -4.16395 -0.0196705 0
M  V30 6749 H 670.633 -4.57313 -2.77072 0
M  V30 6750 H 670.976 -2.87724 -3.00867 0
M  V30 6751 H 671.509 -3.67971 -1.51137 0
M  V30 6752 H 668.248 -6.52922 -0.580823 0
M  V30 6753 H 667.768 -5.63902 -2.04387 0
M  V30 6754 H 669.447 -6.20035 -1.8484 0
M  V30 6755 N 669.579 0.400081 -1.52437 0
M  V30 6756 C 670.825 1.14788 -1.67187 0
M  V30 6757 C 671.158 1.89928 -0.405074 0
M  V30 6758 O 670.433 1.85118 0.596804 0
M  V30 6759 C 670.716 2.13507 -2.89977 0
M  V30 6760 C 670.569 1.42204 -4.2673 0
M  V30 6761 C 671.888 3.14069 -3.083 0
M  V30 6762 H 669.007 0.415939 -0.608411 0
M  V30 6763 H 671.649 0.432542 -1.85011 0
M  V30 6764 H 669.799 2.7451 -2.74912 0
M  V30 6765 H 671.471 0.842503 -4.53541 0
M  V30 6766 H 669.714 0.723939 -4.27717 0
M  V30 6767 H 670.385 2.14281 -5.08712 0
M  V30 6768 H 672.861 2.63148 -3.22323 0
M  V30 6769 H 671.737 3.80398 -3.95713 0
M  V30 6770 H 671.998 3.82309 -2.22018 0
M  V30 6771 N 671.057 1.43213 0.657864 0
M  V30 6772 C 672.305 1.44298 1.41501 0
M  V30 6773 C 672.626 0.0666478 1.94886 0
M  V30 6774 O 671.896 -0.897345 1.74139 0
M  V30 6775 H 670.476 0.531257 0.525143 0
M  V30 6776 H 673.138 1.78777 0.776195 0
M  V30 6777 H 672.234 2.1528 2.25966 0
M  V30 6778 N 672.536 -0.895792 1.29666 0
M  V30 6779 C 673.766 -1.67757 1.20586 0
M  V30 6780 C 674.174 -1.87729 -0.235432 0
M  V30 6781 O 673.517 -1.41706 -1.16898 0
M  V30 6782 C 673.579 -3.08117 1.85215 0
M  V30 6783 C 673.243 -3.1136 3.3452 0
M  V30 6784 C 674.24 -2.91217 4.30684 0
M  V30 6785 C 671.925 -3.33302 3.75786 0
M  V30 6786 C 673.919 -2.92955 5.66089 0
M  V30 6787 C 671.606 -3.3467 5.11311 0
M  V30 6788 C 672.604 -3.14519 6.06273 0
M  V30 6789 O 672.292 -3.15684 7.39323 0
M  V30 6790 H 672.024 -0.530601 0.418854 0
M  V30 6791 H 674.578 -1.12831 1.71634 0
M  V30 6792 H 672.808 -3.64661 1.28683 0
M  V30 6793 H 674.497 -3.68399 1.70403 0
M  V30 6794 H 675.263 -2.74074 4.00136 0
M  V30 6795 H 671.142 -3.48025 3.02324 0
M  V30 6796 H 674.686 -2.77145 6.40185 0
M  V30 6797 H 670.583 -3.51346 5.41504 0
M  V30 6798 H 671.351 -3.31924 7.48177 0
M  V30 6799 N 674.014 -1.12206 -1.10668 0
M  V30 6800 C 675.263 -0.870595 -1.81944 0
M  V30 6801 C 675.576 0.605447 -1.85994 0
M  V30 6802 O 676.782 0.973433 -2.53449 0
M  V30 6803 C 675.238 -1.50783 -3.26791 0
M  V30 6804 C 674.846 -3.01849 -3.31046 0
M  V30 6805 C 676.59 -1.33653 -4.02911 0
M  V30 6806 C 674.497 -3.58518 -4.70339 0
M  V30 6807 H 673.427 -0.322043 -0.681765 0
M  V30 6808 H 676.078 -1.34827 -1.24475 0
M  V30 6809 H 674.46 -0.957825 -3.84242 0
M  V30 6810 H 675.634 -3.63321 -2.83433 0
M  V30 6811 H 673.949 -3.18346 -2.68411 0
M  V30 6812 H 676.546 -1.73416 -5.05797 0
M  V30 6813 H 676.889 -0.279949 -4.15358 0
M  V30 6814 H 677.422 -1.85562 -3.51868 0
M  V30 6815 H 674.161 -4.63925 -4.63091 0
M  V30 6816 H 673.681 -3.01819 -5.18329 0
M  V30 6817 H 675.36 -3.57434 -5.39305 0
M  V30 6818 N 675.492 1.28418 -0.913599 0
M  V30 6819 C 676.455 2.25564 -0.406624 0
M  V30 6820 C 677.455 1.5387 0.466965 0
M  V30 6821 O 678.645 1.72094 0.270042 0
M  V30 6822 C 675.777 3.38339 0.417053 0
M  V30 6823 H 676.97 2.71926 -1.26477 0
M  V30 6824 H 674.523 1.40098 -0.692986 0
M  V30 6825 H 675.258 2.97339 1.29461 0
M  V30 6826 H 675.043 3.91542 -0.209102 0
M  V30 6827 H 676.533 4.10578 0.762602 0
M  V30 6828 N 676.97 0.677563 1.42291 0
M  V30 6829 C 678.21 0.204894 2.0337 0
M  V30 6830 C 678.574 -1.16744 1.5243 0
M  V30 6831 O 679.775 -1.73492 2.05314 0
M  V30 6832 C 678.046 0.240742 3.56588 0
M  V30 6833 S 679.605 -0.16052 4.38506 0
M  V30 6834 H 676.423 0.0839932 0.706021 0
M  V30 6835 H 679.025 0.891332 1.73999 0
M  V30 6836 H 677.729 1.24184 3.91161 0
M  V30 6837 H 677.26 -0.465439 3.90637 0
M  V30 6838 H 679.275 -1.39315 4.76241 0
M  V30 6839 N 678.448 -1.51871 0.421078 0
M  V30 6840 C 679.676 -2.06356 -0.14994 0
M  V30 6841 C 680.091 -1.29006 -1.37851 0
M  V30 6842 O 679.448 -0.345139 -1.79207 0
M  V30 6843 C 679.499 -3.58185 -0.488454 0
M  V30 6844 O 679.22 -4.32611 0.691341 0
M  V30 6845 C 680.721 -4.29129 -1.11191 0
M  V30 6846 H 677.941 -0.67083 -0.0151186 0
M  V30 6847 H 680.485 -1.95638 0.595476 0
M  V30 6848 H 678.64 -3.68871 -1.18376 0
M  V30 6849 H 679.054 -5.22927 0.405906 0
M  V30 6850 H 680.528 -5.36501 -1.29889 0
M  V30 6851 H 681.005 -3.86371 -2.0884 0
M  V30 6852 H 681.611 -4.22843 -0.456458 0
M  V30 6853 N 679.926 -0.151884 -1.56866 0
M  V30 6854 C 680.876 0.797799 -2.13586 0
M  V30 6855 C 681.86 1.20613 -1.06496 0
M  V30 6856 O 683.052 1.17173 -1.32663 0
M  V30 6857 C 680.181 2.03493 -2.76488 0
M  V30 6858 C 679.267 1.64948 -3.90708 0
M  V30 6859 N 679.658 0.972513 -4.96363 0
M  V30 6860 C 677.956 1.94186 -4.01507 0
M  V30 6861 C 678.657 0.785661 -5.7637 0
M  V30 6862 N 677.633 1.32105 -5.27304 0
M  V30 6863 H 681.435 0.271403 -2.92644 0
M  V30 6864 H 678.949 0.049487 -1.62325 0
M  V30 6865 H 680.946 2.72532 -3.15487 0
M  V30 6866 H 679.606 2.56646 -1.98904 0
M  V30 6867 H 680.617 0.632724 -5.1402 0
M  V30 6868 H 677.294 2.49154 -3.35005 0
M  V30 6869 H 678.684 0.251749 -6.71428 0
M  V30 6870 N 681.404 1.57128 0.121893 0
M  V30 6871 C 682.334 2.03165 1.15092 0
M  V30 6872 C 683.315 0.915587 1.43356 0
M  V30 6873 O 684.5 1.1851 1.53847 0
M  V30 6874 C 681.63 2.43352 2.47784 0
M  V30 6875 C 680.584 3.58376 2.33989 0
M  V30 6876 C 679.91 3.84454 3.71617 0
M  V30 6877 C 681.21 4.90199 1.80283 0
M  V30 6878 H 682.904 2.89382 0.768023 0
M  V30 6879 H 680.45 1.39218 0.367998 0
M  V30 6880 H 682.403 2.74163 3.20019 0
M  V30 6881 H 681.127 1.54103 2.87958 0
M  V30 6882 H 679.786 3.2777 1.64202 0
M  V30 6883 H 679.434 2.92414 4.09271 0
M  V30 6884 H 679.134 4.61877 3.6324 0
M  V30 6885 H 680.658 4.17714 4.45362 0
M  V30 6886 H 682.072 5.19565 2.42333 0
M  V30 6887 H 680.469 5.71601 1.82735 0
M  V30 6888 H 681.539 4.78904 0.760184 0
M  V30 6889 N 682.882 -0.391992 1.52647 0
M  V30 6890 C 683.832 -1.47815 1.73594 0
M  V30 6891 C 684.816 -1.49693 0.589979 0
M  V30 6892 O 686.008 -1.5538 0.847701 0
M  V30 6893 C 683.137 -2.85561 1.90551 0
M  V30 6894 C 682.223 -2.88264 3.1107 0
M  V30 6895 N 682.614 -2.60642 4.33474 0
M  V30 6896 C 680.912 -3.19432 3.11254 0
M  V30 6897 C 681.613 -2.70351 5.15058 0
M  V30 6898 N 680.589 -3.03956 4.50679 0
M  V30 6899 H 684.391 -1.2528 2.65861 0
M  V30 6900 H 681.905 -0.599907 1.50913 0
M  V30 6901 H 683.902 -3.63759 2.03678 0
M  V30 6902 H 682.562 -3.09081 0.994952 0
M  V30 6903 H 683.573 -2.34718 4.61658 0
M  V30 6904 H 680.25 -3.48436 2.29997 0
M  V30 6905 H 681.64 -2.52565 6.22624 0
M  V30 6906 N 684.36 -1.4356 -0.65026 0
M  V30 6907 C 685.323 -1.48615 -1.74489 0
M  V30 6908 C 686.323 -0.370483 -1.56474 0
M  V30 6909 O 687.513 -0.632351 -1.62317 0
M  V30 6910 C 684.645 -1.34161 -3.13391 0
M  V30 6911 H 685.838 -2.46103 -1.71387 0
M  V30 6912 H 683.391 -1.30369 -0.862186 0
M  V30 6913 H 684.126 -0.376918 -3.22102 0
M  V30 6914 H 683.911 -2.1504 -3.27872 0
M  V30 6915 H 685.401 -1.40637 -3.93206 0
M  V30 6916 N 685.838 0.888903 -1.30139 0
M  V30 6917 C 687.249 1.45578 -1.16893 0
M  V30 6918 C 687.6 1.94825 0.231866 0
M  V30 6919 O 686.725 1.84661 1.12824 0
M  V30 6920 C 687.32 2.646 -2.11595 0
M  V30 6921 C 685.879 3.17389 -2.02339 0
M  V30 6922 C 685.026 1.90081 -2.01902 0
M  V30 6923 H 687.977 0.69921 -1.42467 0
M  V30 6924 H 687.998 3.40687 -1.69449 0
M  V30 6925 H 687.51 2.28726 -3.13538 0
M  V30 6926 H 685.611 3.5793 -1.03523 0
M  V30 6927 H 685.724 3.80955 -2.90534 0
M  V30 6928 H 684.088 2.08246 -1.46648 0
M  V30 6929 H 684.871 1.5647 -3.05568 0
M  V30 6930 N 687.317 1.12792 1.10072 0
M  V30 6931 C 688.249 0.757003 2.16338 0
M  V30 6932 C 689.262 -0.218144 1.61332 0
M  V30 6933 O 690.451 0.0010727 1.785 0
M  V30 6934 C 687.551 0.100303 3.38752 0
M  V30 6935 C 686.724 1.10586 4.2319 0
M  V30 6936 C 685.783 0.47609 5.24042 0
M  V30 6937 O 684.809 1.13418 5.57786 0
M  V30 6938 N 686.011 -0.754823 5.75572 0
M  V30 6939 H 688.776 1.6714 2.48766 0
M  V30 6940 H 686.337 1.02003 1.25726 0
M  V30 6941 H 688.329 -0.333092 4.03327 0
M  V30 6942 H 686.899 -0.716915 3.04268 0
M  V30 6943 H 686.119 1.71677 3.54853 0
M  V30 6944 H 687.407 1.78571 4.76435 0
M  V30 6945 H 686.805 -1.30838 5.50362 0
M  V30 6946 H 685.362 -1.13098 6.41913 0
M  V30 6947 N 688.795 -1.27931 0.920396 0
M  V30 6948 C 689.705 -2.30824 0.419212 0
M  V30 6949 C 690.721 -1.66767 -0.496461 0
M  V30 6950 O 691.897 -1.97763 -0.38104 0
M  V30 6951 C 688.962 -3.45158 -0.326601 0
M  V30 6952 C 688.023 -4.24754 0.623098 0
M  V30 6953 C 687.256 -5.33629 -0.0872172 0
M  V30 6954 O 687.479 -5.55204 -1.30784 0
M  V30 6955 O 686.413 -5.99091 0.580875 0
M  V30 6956 H 690.239 -2.75716 1.27337 0
M  V30 6957 H 687.824 -1.32747 0.685465 0
M  V30 6958 H 689.706 -4.14716 -0.747559 0
M  V30 6959 H 688.381 -3.02336 -1.15648 0
M  V30 6960 H 687.288 -3.57759 1.09359 0
M  V30 6961 H 688.621 -4.71272 1.41998 0
M  V30 6962 N 690.273 -0.685099 -1.4193 0
M  V30 6963 C 691.55 -0.140152 -1.95097 0
M  V30 6964 C 691.93 1.34745 -1.62502 0
M  V30 6965 O 691.278 2.08872 -0.926534 0
M  V30 6966 C 691.488 -0.420268 -3.4646 0
M  V30 6967 C 692.836 -0.342338 -4.23218 0
M  V30 6968 O 693.86 -0.354592 -3.54431 0
M  V30 6969 O 692.719 -0.293404 -5.45712 0
M  V30 6970 H 689.813 -0.00885998 -0.826953 0
M  V30 6971 H 692.359 -0.760539 -1.51703 0
M  V30 6972 H 691.131 -1.45037 -3.63428 0
M  V30 6973 H 690.754 0.231616 -3.96925 0
M  V30 6974 N 691.751 1.51645 -0.429126 0
M  V30 6975 C 692.976 2.06917 0.141399 0
M  V30 6976 C 693.401 1.29527 1.36398 0
M  V30 6977 O 692.759 0.33094 1.78254 0
M  V30 6978 C 692.807 3.57776 0.4504 0
M  V30 6979 O 691.911 3.82639 1.53821 0
M  V30 6980 H 691.252 0.663978 0.0054647 0
M  V30 6981 H 693.782 1.95355 -0.608093 0
M  V30 6982 H 693.792 4.01894 0.703249 0
M  V30 6983 H 692.467 4.13532 -0.443213 0
M  V30 6984 H 691.044 3.5039 1.27597 0
M  V30 6985 N 693.229 0.160201 1.56784 0
M  V30 6986 C 694.192 -0.760405 2.16219 0
M  V30 6987 C 695.192 -1.16595 1.10735 0
M  V30 6988 O 696.382 -1.08472 1.36306 0
M  V30 6989 C 693.514 -2.03358 2.73603 0
M  V30 6990 H 694.707 -0.243173 2.98912 0
M  V30 6991 H 692.26 -0.0893139 1.56045 0
M  V30 6992 H 692.995 -2.59416 1.94612 0
M  V30 6993 H 692.78 -1.75186 3.50788 0
M  V30 6994 H 694.27 -2.69081 3.19351 0
M  V30 6995 N 694.707 -1.5719 -0.113559 0
M  V30 6996 C 695.956 -1.84325 -0.818984 0
M  V30 6997 C 696.269 -0.746685 -1.80787 0
M  V30 6998 O 697.475 -0.904596 -2.55987 0
M  V30 6999 C 695.931 -3.26818 -1.50724 0
M  V30 7000 C 695.539 -4.44498 -0.559065 0
M  V30 7001 C 697.283 -3.63196 -2.19748 0
M  V30 7002 C 695.19 -5.7802 -1.25086 0
M  V30 7003 H 694.12 -0.687507 -0.309596 0
M  V30 7004 H 696.771 -1.8336 -0.0717621 0
M  V30 7005 H 695.153 -3.22269 -2.30128 0
M  V30 7006 H 696.327 -4.60356 0.202146 0
M  V30 7007 H 694.642 -4.16393 0.024495 0
M  V30 7008 H 697.239 -4.60226 -2.72206 0
M  V30 7009 H 697.582 -2.90899 -2.97798 0
M  V30 7010 H 698.115 -3.69553 -1.47226 0
M  V30 7011 H 694.854 -6.53501 -0.511539 0
M  V30 7012 H 694.374 -5.66038 -1.98395 0
M  V30 7013 H 696.053 -6.2196 -1.78253 0
M  V30 7014 N 696.185 0.383891 -1.52853 0
M  V30 7015 C 697.601 0.724316 -1.42218 0
M  V30 7016 C 697.801 1.93943 -0.546654 0
M  V30 7017 O 696.857 2.5249 -0.0220562 0
M  V30 7018 C 698.17 0.954635 -2.85144 0
M  V30 7019 C 699.718 1.05579 -2.94656 0
M  V30 7020 C 700.193 1.3187 -4.38605 0
M  V30 7021 N 701.684 1.38681 -4.41952 0
M  V30 7022 C 702.419 1.60699 -5.50421 0
M  V30 7023 N 701.915 1.80154 -6.68967 0
M  V30 7024 N 703.708 1.6292 -5.37972 0
M  V30 7025 H 695.859 -0.4156 -2.08294 0
M  V30 7026 H 698.122 -0.123776 -0.939885 0
M  V30 7027 H 697.828 0.133829 -3.51445 0
M  V30 7028 H 697.702 1.86788 -3.27704 0
M  V30 7029 H 700.089 1.86716 -2.2852 0
M  V30 7030 H 700.17 0.120338 -2.55517 0
M  V30 7031 H 699.814 0.512416 -5.05309 0
M  V30 7032 H 699.744 2.26708 -4.75301 0
M  V30 7033 H 702.235 1.25334 -3.56511 0
M  V30 7034 H 702.548 1.96476 -7.47407 0
M  V30 7035 H 700.893 1.77368 -6.71986 0
M  V30 7036 H 704.084 1.47276 -4.44328 0
M  V30 7037 H 704.257 1.79739 -6.22574 0
M  V30 7038 N 697.663 1.43903 0.642637 0
M  V30 7039 C 698.903 1.47591 1.41408 0
M  V30 7040 C 699.267 0.101313 1.91733 0
M  V30 7041 O 700.468 0.0128797 2.68797 0
M  V30 7042 C 698.739 2.4977 2.55636 0
M  V30 7043 S 700.298 2.72417 3.43998 0
M  V30 7044 H 697.116 0.522163 0.482563 0
M  V30 7045 H 699.718 1.80745 0.745085 0
M  V30 7046 H 698.422 3.48365 2.16956 0
M  V30 7047 H 697.953 2.1815 3.27375 0
M  V30 7048 H 699.968 2.03142 4.52712 0
M  V30 7049 N 699.141 -0.881989 1.30609 0
M  V30 7050 C 700.389 -1.63082 1.19368 0
M  V30 7051 C 700.71 -1.93376 -0.251147 0
M  V30 7052 O 699.98 -1.5723 -1.16857 0
M  V30 7053 H 698.56 -0.604542 0.438791 0
M  V30 7054 H 701.222 -1.05658 1.63776 0
M  V30 7055 H 700.318 -2.57966 1.7567 0
M  V30 7056 N 700.619 -1.13374 -1.09472 0
M  V30 7057 C 701.551 -0.768466 -2.15933 0
M  V30 7058 C 702.564 0.209585 -1.61445 0
M  V30 7059 O 703.753 -0.010539 -1.78497 0
M  V30 7060 C 700.853 -0.118266 -3.38694 0
M  V30 7061 C 700.026 -1.12829 -4.22597 0
M  V30 7062 C 699.085 -0.503875 -5.23782 0
M  V30 7063 O 698.111 -1.16374 -5.57177 0
M  V30 7064 N 699.313 0.724288 -5.75964 0
M  V30 7065 H 702.078 -1.68457 -2.47876 0
M  V30 7066 H 699.639 -1.02668 -1.25183 0
M  V30 7067 H 701.631 0.311698 -4.03498 0
M  V30 7068 H 700.201 0.700769 -3.04644 0
M  V30 7069 H 699.421 -1.73556 -3.53938 0
M  V30 7070 H 700.709 -1.81095 -4.75481 0
M  V30 7071 H 700.107 1.27918 -5.51048 0
M  V30 7072 H 698.664 1.09692 -6.42504 0
M  V30 7073 N 702.098 1.27442 -0.927168 0
M  V30 7074 C 703.028 2.29256 -0.443188 0
M  V30 7075 C 704.009 1.62701 0.49624 0
M  V30 7076 O 705.194 1.90013 0.401105 0
M  V30 7077 C 702.324 3.45955 0.305366 0
M  V30 7078 C 701.278 4.24501 -0.546178 0
M  V30 7079 C 700.604 5.33671 0.331512 0
M  V30 7080 C 701.904 4.89921 -1.81037 0
M  V30 7081 H 703.598 2.69988 -1.29409 0
M  V30 7082 H 701.144 1.29792 -0.623705 0
M  V30 7083 H 703.097 4.1628 0.654885 0
M  V30 7084 H 701.821 3.04138 1.19029 0
M  V30 7085 H 700.48 3.55921 -0.878398 0
M  V30 7086 H 700.128 4.88096 1.21537 0
M  V30 7087 H 699.828 5.87131 -0.234746 0
M  V30 7088 H 701.352 6.0684 0.676614 0
M  V30 7089 H 702.766 5.52536 -1.52895 0
M  V30 7090 H 701.163 5.53436 -2.32009 0
M  V30 7091 H 702.233 4.13652 -2.53021 0
M  V30 7092 N 703.576 0.692616 1.41565 0
M  V30 7093 C 704.853 0.150496 1.9502 0
M  V30 7094 C 705.233 -1.33881 1.63215 0
M  V30 7095 O 704.581 -2.08378 0.937598 0
M  V30 7096 C 704.791 0.438636 3.46233 0
M  V30 7097 C 706.139 0.364777 4.2303 0
M  V30 7098 O 707.163 0.373383 3.54238 0
M  V30 7099 O 706.022 0.32234 5.45549 0
M  V30 7100 H 703.116 0.0132454 0.826894 0
M  V30 7101 H 705.662 0.768574 1.51298 0
M  V30 7102 H 704.434 1.46962 3.62654 0
M  V30 7103 H 704.057 -0.210562 3.97042 0
M  V30 7104 N 705.054 -1.51416 0.437162 0
M  V30 7105 C 705.984 -2.30631 -0.364922 0
M  V30 7106 C 706.965 -1.36037 -1.02118 0
M  V30 7107 O 708.15 -1.64956 -1.02485 0
M  V30 7108 C 705.28 -3.1482 -1.46648 0
M  V30 7109 C 704.234 -4.17691 -0.933717 0
M  V30 7110 C 703.56 -4.904 -2.13101 0
M  V30 7111 C 704.86 -5.2229 0.0317201 0
M  V30 7112 H 706.554 -2.97932 0.29614 0
M  V30 7113 H 704.1 -1.4328 0.143865 0
M  V30 7114 H 706.053 -3.69017 -2.03481 0
M  V30 7115 H 704.777 -2.4534 -2.15583 0
M  V30 7116 H 703.436 -3.64545 -0.387602 0
M  V30 7117 H 703.084 -4.17423 -2.80654 0
M  V30 7118 H 702.784 -5.59962 -1.78092 0
M  V30 7119 H 704.308 -5.4742 -2.70487 0
M  V30 7120 H 705.722 -5.7156 -0.446302 0
M  V30 7121 H 704.119 -5.99378 0.29437 0
M  V30 7122 H 705.189 -4.75131 0.968447 0
M  V30 7123 N 706.532 -0.168513 -1.56696 0
M  V30 7124 C 707.462 0.758563 -2.20835 0
M  V30 7125 C 708.443 1.24121 -1.1631 0
M  V30 7126 O 709.628 1.29487 -1.4473 0
M  V30 7127 C 706.758 1.9892 -2.8469 0
M  V30 7128 C 705.712 1.64252 -3.95228 0
M  V30 7129 C 705.038 2.94757 -4.46119 0
M  V30 7130 C 706.338 0.872675 -5.14958 0
M  V30 7131 H 708.032 0.223953 -2.98561 0
M  V30 7132 H 705.578 0.106277 -1.43607 0
M  V30 7133 H 707.531 2.64275 -3.28233 0
M  V30 7134 H 706.255 2.5479 -2.04327 0
M  V30 7135 H 704.914 1.01266 -3.52336 0
M  V30 7136 H 704.562 3.48662 -3.62552 0
M  V30 7137 H 704.262 2.72316 -5.2069 0
M  V30 7138 H 705.786 3.61147 -4.92347 0
M  V30 7139 H 707.2 1.42875 -5.55211 0
M  V30 7140 H 705.597 0.747402 -5.95428 0
M  V30 7141 H 706.667 -0.131535 -4.84722 0
M  V30 7142 N 708.01 1.57248 0.105221 0
M  V30 7143 C 708.942 1.98008 1.15436 0
M  V30 7144 C 709.955 0.881236 1.36887 0
M  V30 7145 O 711.144 1.15943 1.35718 0
M  V30 7146 C 708.244 2.27509 2.51183 0
M  V30 7147 C 707.417 3.58811 2.50147 0
M  V30 7148 C 706.476 3.76365 3.67745 0
M  V30 7149 O 705.502 4.48329 3.50699 0
M  V30 7150 N 706.704 3.16174 4.86841 0
M  V30 7151 H 709.469 2.88616 0.807519 0
M  V30 7152 H 707.03 1.59202 0.29433 0
M  V30 7153 H 709.022 2.36455 3.28438 0
M  V30 7154 H 707.592 1.42959 2.77995 0
M  V30 7155 H 706.812 3.60927 1.5851 0
M  V30 7156 H 708.1 4.45088 2.46524 0
M  V30 7157 H 707.498 2.57701 5.03594 0
M  V30 7158 H 706.055 3.30621 5.61723 0
M  V30 7159 N 709.488 -0.375779 1.53054 0
M  V30 7160 C 710.765 -1.13453 1.59336 0
M  V30 7161 C 711.145 -2.07379 0.394614 0
M  V30 7162 O 710.493 -2.2004 -0.616 0
M  V30 7163 C 710.703 -1.8826 2.93869 0
M  V30 7164 C 712.051 -2.43155 3.48081 0
M  V30 7165 O 713.075 -1.984 2.95831 0
M  V30 7166 O 711.934 -3.24944 4.39401 0
M  V30 7167 H 709.028 -0.519856 0.643179 0
M  V30 7168 H 711.574 -0.379865 1.65394 0
M  V30 7169 H 710.346 -1.19652 3.72558 0
M  V30 7170 H 709.969 -2.70658 2.91256 0
M  V30 7171 N 710.966 -1.44241 -0.634997 0
M  V30 7172 C 712.212 -1.48033 -1.39492 0
M  V30 7173 C 712.567 -0.109791 -1.92086 0
M  V30 7174 O 711.86 0.874394 -1.70484 0
M  V30 7175 C 712.054 -2.47279 -2.58046 0
M  V30 7176 C 711.883 -3.93848 -2.17057 0
M  V30 7177 C 710.653 -4.62061 -2.04518 0
M  V30 7178 C 712.851 -4.83172 -1.76208 0
M  V30 7179 N 710.833 -5.93471 -1.57051 0
M  V30 7180 C 712.204 -6.03996 -1.39958 0
M  V30 7181 C 714.259 -4.70271 -1.63554 0
M  V30 7182 C 712.962 -7.13351 -0.923196 0
M  V30 7183 C 714.988 -5.79646 -1.1732 0
M  V30 7184 C 714.35 -6.99609 -0.820181 0
M  V30 7185 H 710.449 -0.596743 -0.505392 0
M  V30 7186 H 713.033 -1.80542 -0.72887 0
M  V30 7187 H 711.204 -2.16766 -3.22284 0
M  V30 7188 H 712.936 -2.41391 -3.24827 0
M  V30 7189 H 709.691 -4.1682 -2.24851 0
M  V30 7190 H 710.115 -6.63275 -1.35628 0
M  V30 7191 H 714.757 -3.77964 -1.8948 0
M  V30 7192 H 712.475 -8.0547 -0.651441 0
M  V30 7193 H 716.061 -5.71689 -1.07993 0
M  V30 7194 H 714.941 -7.82803 -0.467901 0
M  V30 7195 N 712.444 0.87505 -1.31075 0
M  V30 7196 C 713.374 1.99775 -1.20881 0
M  V30 7197 C 714.355 1.69822 -0.0971612 0
M  V30 7198 O 715.54 1.92158 -0.280895 0
M  V30 7199 C 712.67 3.35163 -0.910118 0
M  V30 7200 C 711.624 3.79406 -1.98078 0
M  V30 7201 C 710.95 5.12197 -1.53488 0
M  V30 7202 C 712.25 3.97061 -3.39323 0
M  V30 7203 H 713.944 2.08562 -2.14808 0
M  V30 7204 H 711.49 1.00207 -1.03415 0
M  V30 7205 H 713.443 4.13237 -0.825423 0
M  V30 7206 H 712.167 3.26536 0.064822 0
M  V30 7207 H 710.826 3.03568 -2.05528 0
M  V30 7208 H 710.474 5.00007 -0.547941 0
M  V30 7209 H 710.174 5.4277 -2.2511 0
M  V30 7210 H 711.698 5.92785 -1.46417 0
M  V30 7211 H 713.112 4.65545 -3.34576 0
M  V30 7212 H 711.509 4.39025 -4.09118 0
M  V30 7213 H 712.579 3.00601 -3.80483 0
M  V30 7214 N 713.922 1.13953 1.08869 0
M  V30 7215 C 714.885 0.824991 2.13838 0
M  V30 7216 C 715.885 -0.168198 1.59918 0
M  V30 7217 O 717.075 0.0595778 1.74098 0
M  V30 7218 C 714.207 0.228938 3.4013 0
M  V30 7219 H 715.4 1.75521 2.43171 0
M  V30 7220 H 712.953 0.94492 1.24503 0
M  V30 7221 H 713.688 -0.710227 3.16427 0
M  V30 7222 H 713.473 0.944243 3.80561 0
M  V30 7223 H 714.963 0.0259223 4.17592 0
M  V30 7224 N 715.4 -1.26948 0.933913 0
M  V30 7225 C 716.677 -1.89212 0.495784 0
M  V30 7226 C 717.057 -1.84469 -1.02637 0
M  V30 7227 O 716.405 -1.29409 -1.88323 0
M  V30 7228 C 716.615 -3.32865 1.0489 0
M  V30 7229 C 717.963 -4.09749 1.11315 0
M  V30 7230 O 718.987 -3.41905 0.998966 0
M  V30 7231 O 717.846 -5.31061 1.28983 0
M  V30 7232 H 714.94 -0.811284 0.160459 0
M  V30 7233 H 717.486 -1.35171 1.02601 0
M  V30 7234 H 716.258 -3.30642 2.09265 0
M  V30 7235 H 715.881 -3.94435 0.500692 0
M  V30 7236 N 716.879 -0.700114 -1.41195 0
M  V30 7237 C 718.126 -0.233006 -2.01155 0
M  V30 7238 C 718.454 1.16883 -1.55462 0
M  V30 7239 O 717.709 1.80395 -0.758695 0
M  V30 7240 C 718.008 -0.243986 -3.56566 0
M  V30 7241 C 717.674 -1.59397 -4.21786 0
M  V30 7242 C 716.336 -1.96355 -4.39316 0
M  V30 7243 C 718.688 -2.48192 -4.58312 0
M  V30 7244 C 716.016 -3.21683 -4.9065 0
M  V30 7245 C 718.368 -3.72857 -5.11039 0
M  V30 7246 C 717.032 -4.09951 -5.26779 0
M  V30 7247 H 716.302 -0.085263 -0.736078 0
M  V30 7248 H 718.949 -0.9001 -1.69028 0
M  V30 7249 H 717.254 0.506663 -3.8851 0
M  V30 7250 H 718.951 0.135031 -4.00773 0
M  V30 7251 H 715.541 -1.29654 -4.08519 0
M  V30 7252 H 719.725 -2.20918 -4.4442 0
M  V30 7253 H 714.981 -3.50412 -5.01021 0
M  V30 7254 H 719.155 -4.41844 -5.38282 0
M  V30 7255 H 716.782 -5.07136 -5.66319 0
M  V30 7256 N 718.357 1.51182 -0.445186 0
M  V30 7257 C 719.773 1.59299 -0.0978954 0
M  V30 7258 C 719.973 1.4555 1.39346 0
M  V30 7259 O 719.029 1.30073 2.16419 0
M  V30 7260 C 720.342 2.94133 -0.625005 0
M  V30 7261 C 721.89 3.07463 -0.586137 0
M  V30 7262 C 722.365 4.44832 -1.09035 0
M  V30 7263 N 723.856 4.51173 -1.04867 0
M  V30 7264 C 724.591 5.55804 -1.40959 0
M  V30 7265 N 724.087 6.67816 -1.84375 0
M  V30 7266 N 725.88 5.46205 -1.32726 0
M  V30 7267 H 718.031 1.58363 -1.41544 0
M  V30 7268 H 720.294 0.746946 -0.58376 0
M  V30 7269 H 720 3.09589 -1.66876 0
M  V30 7270 H 719.874 3.77161 -0.0542262 0
M  V30 7271 H 722.261 2.9167 0.448646 0
M  V30 7272 H 722.342 2.26255 -1.19341 0
M  V30 7273 H 721.986 4.61372 -2.12364 0
M  V30 7274 H 721.916 5.24591 -0.459539 0
M  V30 7275 H 724.407 3.70783 -0.729932 0
M  V30 7276 H 724.72 7.43683 -2.10131 0
M  V30 7277 H 723.065 6.69003 -1.88308 0
M  V30 7278 H 726.256 4.57583 -0.986678 0
M  V30 7279 H 726.429 6.27634 -1.61182 0
M  V30 7280 N 719.835 0.176821 1.56605 0
M  V30 7281 C 720.782 -0.751312 2.18229 0
M  V30 7282 C 721.752 -1.22297 1.12395 0
M  V30 7283 O 722.937 -1.29015 1.40569 0
M  V30 7284 C 720.077 -1.97291 2.83143 0
M  V30 7285 C 719.19 -1.54431 4.03454 0
M  V30 7286 C 718.325 -2.72 4.56278 0
M  V30 7287 C 717.364 -2.25657 5.68986 0
M  V30 7288 N 716.501 -3.36338 6.16296 0
M  V30 7289 H 721.341 -0.219033 2.97194 0
M  V30 7290 H 718.878 -0.0963803 1.46784 0
M  V30 7291 H 720.836 -2.68949 3.1894 0
M  V30 7292 H 719.466 -2.4788 2.06773 0
M  V30 7293 H 718.518 -0.724273 3.73441 0
M  V30 7294 H 719.83 -1.16417 4.85024 0
M  V30 7295 H 718.984 -3.51806 4.94285 0
M  V30 7296 H 717.723 -3.13277 3.73777 0
M  V30 7297 H 716.728 -1.44299 5.30526 0
M  V30 7298 H 717.953 -1.85432 6.53293 0
M  V30 7299 H 715.899 -3.7718 5.36723 0
M  V30 7300 H 715.816 -3.02435 6.9287 0
M  V30 7301 H 717.084 -4.16413 6.58954 0
M  V30 7302 N 721.313 -1.57302 -0.09688 0
M  V30 7303 C 722.538 -1.9058 -0.818169 0
M  V30 7304 C 722.963 -0.770921 -1.71576 0
M  V30 7305 O 722.321 0.277588 -1.79162 0
M  V30 7306 C 722.369 -3.22714 -1.60898 0
M  V30 7307 O 721.473 -3.10178 -2.71779 0
M  V30 7308 H 720.814 -0.624759 -0.224882 0
M  V30 7309 H 723.344 -2.04471 -0.07264 0
M  V30 7310 H 723.354 -3.55978 -1.99358 0
M  V30 7311 H 722.029 -4.04899 -0.950227 0
M  V30 7312 H 720.606 -2.88424 -2.3636 0
M  V30 7313 N 722.791 0.367657 -1.53252 0
M  V30 7314 C 724.019 1.13119 -1.73239 0
M  V30 7315 C 724.434 1.831 -0.460404 0
M  V30 7316 O 723.791 1.73483 0.566557 0
M  V30 7317 C 723.842 2.16308 -2.89643 0
M  V30 7318 O 723.563 1.49175 -4.1192 0
M  V30 7319 C 725.064 3.05224 -3.21486 0
M  V30 7320 H 722.284 0.338318 -0.579467 0
M  V30 7321 H 724.828 0.42721 -1.99988 0
M  V30 7322 H 722.983 2.82307 -2.65295 0
M  V30 7323 H 723.397 2.17912 -4.7709 0
M  V30 7324 H 724.871 3.73613 -4.06346 0
M  V30 7325 H 725.348 3.69919 -2.36763 0
M  V30 7326 H 725.954 2.44843 -3.47753 0
M  V30 7327 N 724.269 1.44576 0.627338 0
M  V30 7328 C 725.494 1.51271 1.41887 0
M  V30 7329 C 725.919 0.139814 1.8758 0
M  V30 7330 O 725.277 -0.871746 1.58966 0
M  V30 7331 C 725.325 2.48529 2.61277 0
M  V30 7332 O 724.429 1.98944 3.61241 0
M  V30 7333 H 723.77 0.510668 0.424399 0
M  V30 7334 H 726.3 1.89746 0.765356 0
M  V30 7335 H 726.31 2.66689 3.08773 0
M  V30 7336 H 724.985 3.48249 2.27366 0
M  V30 7337 H 723.562 1.90568 3.20528 0
M  V30 7338 N 725.747 -0.868086 1.31537 0
M  V30 7339 C 726.972 -1.65926 1.24432 0
M  V30 7340 C 727.397 -1.87169 -0.186936 0
M  V30 7341 O 726.755 -1.4148 -1.13371 0
M  V30 7342 C 726.803 -3.00347 1.9956 0
M  V30 7343 O 725.907 -3.90221 1.33422 0
M  V30 7344 H 725.248 -0.506375 0.429512 0
M  V30 7345 H 727.778 -1.0822 1.73637 0
M  V30 7346 H 727.788 -3.50269 2.09226 0
M  V30 7347 H 726.463 -2.84205 3.03645 0
M  V30 7348 H 725.04 -3.48672 1.32219 0
M  V30 7349 N 727.225 -1.14528 -1.08264 0
M  V30 7350 C 728.45 -0.938381 -1.84957 0
M  V30 7351 C 728.875 0.508044 -1.81109 0
M  V30 7352 O 728.233 1.36146 -1.19724 0
M  V30 7353 C 728.281 -1.44568 -3.30352 0
M  V30 7354 O 727.385 -0.638745 -4.07423 0
M  V30 7355 H 726.726 -0.335394 -0.573068 0
M  V30 7356 H 729.256 -1.52287 -1.36637 0
M  V30 7357 H 729.266 -1.45449 -3.81194 0
M  V30 7358 H 727.941 -2.49876 -3.32468 0
M  V30 7359 H 726.518 -0.698801 -3.66294 0
M  V30 7360 N 728.703 1.26451 -0.940633 0
M  V30 7361 C 729.928 1.98407 -0.60412 0
M  V30 7362 C 730.353 1.69584 0.81382 0
M  V30 7363 O 729.711 0.943553 1.54812 0
M  V30 7364 C 729.759 3.50387 -0.852136 0
M  V30 7365 O 728.863 4.1233 0.076013 0
M  V30 7366 H 728.204 0.622466 -0.231153 0
M  V30 7367 H 730.734 1.60932 -1.26342 0
M  V30 7368 H 730.744 4.00614 -0.772816 0
M  V30 7369 H 729.419 3.70696 -1.88566 0
M  V30 7370 H 727.996 3.7286 -0.0543187 0
M  V30 7371 N 730.181 0.707592 1.40822 0
M  V30 7372 C 731.144 0.0587224 2.29125 0
M  V30 7373 C 732.144 -0.695624 1.44975 0
M  V30 7374 O 733.334 -0.528718 1.65983 0
M  V30 7375 C 730.466 -0.926939 3.28056 0
M  V30 7376 H 731.659 0.836349 2.88002 0
M  V30 7377 H 729.212 0.471778 1.4901 0
M  V30 7378 H 729.947 -1.7319 2.74182 0
M  V30 7379 H 729.732 -0.389015 3.90165 0
M  V30 7380 H 731.222 -1.37837 3.94196 0
M  V30 7381 N 731.66 -1.50943 0.453197 0
M  V30 7382 C 732.623 -2.26684 -0.338705 0
M  V30 7383 C 733.623 -1.30748 -0.936032 0
M  V30 7384 O 734.813 -1.54327 -0.808002 0
M  V30 7385 C 731.945 -3.07063 -1.48071 0
M  V30 7386 H 733.138 -2.98131 0.325289 0
M  V30 7387 H 730.691 -1.54926 0.206771 0
M  V30 7388 H 731.426 -2.4007 -2.18029 0
M  V30 7389 H 731.211 -3.77545 -1.0584 0
M  V30 7390 H 732.701 -3.64393 -2.0398 0
M  V30 7391 N 733.138 -0.185124 -1.56509 0
M  V30 7392 C 734.086 0.756505 -2.19954 0
M  V30 7393 C 735.08 1.22725 -1.16769 0
M  V30 7394 O 736.286 1.1913 -1.34937 0
M  V30 7395 H 732.661 0.262279 -0.704779 0
M  V30 7396 H 734.632 0.197587 -2.97745 0
M  V30 7397 C 733.381 1.96975 -2.86524 0
M  V30 7398 H 732.704 1.61658 -3.65659 0
M  V30 7399 H 734.144 2.60719 -3.34367 0
M  V30 7400 C 732.603 2.80219 -1.87027 0
M  V30 7401 O 733.133 3.77821 -1.36433 0
M  V30 7402 N 731.339 2.4551 -1.55477 0
M  V30 7403 H 730.886 1.66199 -1.96813 0
M  V30 7404 H 730.844 3.01493 -0.891597 0
M  V30 7405 N 734.616 1.57351 0.0885366 0
M  V30 7406 C 736.027 1.75303 0.642308 0
M  V30 7407 C 736.378 0.808238 1.78779 0
M  V30 7408 O 735.503 -0.01171 2.16397 0
M  V30 7409 C 736.098 3.17885 1.17194 0
M  V30 7410 C 734.657 3.37239 1.67172 0
M  V30 7411 C 733.804 2.7108 0.584045 0
M  V30 7412 H 736.755 1.58103 -0.137567 0
M  V30 7413 H 736.776 3.2112 2.04114 0
M  V30 7414 H 736.288 3.86625 0.338024 0
M  V30 7415 H 734.389 2.73588 2.52943 0
M  V30 7416 H 734.502 4.45594 1.76019 0
M  V30 7417 H 732.866 2.33161 1.02508 0
M  V30 7418 H 733.649 3.42464 -0.239403 0
M  V30 7419 N 736.094 -0.359525 1.53444 0
M  V30 7420 C 737.004 -1.46445 1.83278 0
M  V30 7421 C 738.02 -1.5833 0.721629 0
M  V30 7422 O 739.196 -1.7411 1.01231 0
M  V30 7423 C 736.261 -2.81638 2.02191 0
M  V30 7424 C 735.322 -2.7923 3.26082 0
M  V30 7425 C 734.555 -4.07974 3.44082 0
M  V30 7426 O 734.778 -5.04447 2.66251 0
M  V30 7427 O 733.712 -4.13417 4.37458 0
M  V30 7428 H 737.538 -1.24156 2.77162 0
M  V30 7429 H 735.123 -0.550201 1.389 0
M  V30 7430 H 737.005 -3.61732 2.16167 0
M  V30 7431 H 735.68 -3.03892 1.11496 0
M  V30 7432 H 734.587 -1.97813 3.17523 0
M  V30 7433 H 735.92 -2.6193 4.16718 0
M  V30 7434 N 737.572 -1.44907 -0.619662 0
M  V30 7435 C 738.482 -1.55168 -1.75955 0
M  V30 7436 C 739.498 -0.43672 -1.6843 0
M  V30 7437 O 740.674 -0.695704 -1.89002 0
M  V30 7438 C 737.739 -1.50397 -3.12381 0
M  V30 7439 C 736.8 -2.72835 -3.31451 0
M  V30 7440 C 736.033 -2.68283 -4.61368 0
M  V30 7441 O 736.256 -1.74929 -5.42914 0
M  V30 7442 O 735.19 -3.59308 -4.82889 0
M  V30 7443 H 739.016 -2.51493 -1.7025 0
M  V30 7444 H 736.601 -1.27282 -0.782289 0
M  V30 7445 H 738.483 -1.50301 -3.93685 0
M  V30 7446 H 737.158 -0.572197 -3.18603 0
M  V30 7447 H 736.065 -2.78496 -2.49781 0
M  V30 7448 H 737.398 -3.65098 -3.30098 0
M  V30 7449 N 739.05 0.861098 -1.31996 0
M  V30 7450 C 739.98 1.98482 -1.22993 0
M  V30 7451 C 740.961 1.6971 -0.115168 0
M  V30 7452 O 742.146 1.91849 -0.30126 0
M  V30 7453 C 739.276 3.34179 -0.945615 0
M  V30 7454 C 738.23 3.77284 -2.02091 0
M  V30 7455 C 737.556 5.1054 -1.58912 0
M  V30 7456 C 738.856 3.93439 -3.43515 0
M  V30 7457 H 740.55 2.06271 -2.17008 0
M  V30 7458 H 738.096 0.991043 -1.04472 0
M  V30 7459 H 740.049 4.12338 -0.869206 0
M  V30 7460 H 738.773 3.26586 0.0301849 0
M  V30 7461 H 737.432 3.01371 -2.08737 0
M  V30 7462 H 737.08 4.99397 -0.600942 0
M  V30 7463 H 736.78 5.40352 -2.30854 0
M  V30 7464 H 738.304 5.91199 -1.52696 0
M  V30 7465 H 739.718 4.6197 -3.39495 0
M  V30 7466 H 738.115 4.34661 -4.13751 0
M  V30 7467 H 739.185 2.96548 -3.8365 0
M  V30 7468 N 740.528 1.15101 1.07655 0
M  V30 7469 C 741.774 0.925343 1.80458 0
M  V30 7470 C 742.107 -0.546354 1.86356 0
M  V30 7471 O 741.382 -1.40496 1.34503 0
M  V30 7472 C 741.665 1.53646 3.25676 0
M  V30 7473 C 741.518 3.07854 3.27942 0
M  V30 7474 C 742.837 1.21968 4.22861 0
M  V30 7475 H 739.956 0.337592 0.655134 0
M  V30 7476 H 742.598 1.42217 1.25993 0
M  V30 7477 H 740.748 1.11395 3.72187 0
M  V30 7478 H 742.42 3.58989 2.89697 0
M  V30 7479 H 740.663 3.41904 2.66991 0
M  V30 7480 H 741.334 3.45725 4.30324 0
M  V30 7481 H 743.81 1.5851 3.84726 0
M  V30 7482 H 742.686 1.67349 5.22767 0
M  V30 7483 H 742.947 0.136207 4.4189 0
M  V30 7484 N 742.006 -1.2595 0.947325 0
M  V30 7485 C 742.969 -2.24407 0.466285 0
M  V30 7486 C 743.969 -1.55054 -0.426005 0
M  V30 7487 O 745.159 -1.7275 -0.224319 0
M  V30 7488 C 742.291 -3.39326 -0.327201 0
M  V30 7489 H 743.484 -2.68477 1.33642 0
M  V30 7490 H 741.037 -1.38211 0.729887 0
M  V30 7491 H 741.772 -3.00667 -1.21532 0
M  V30 7492 H 741.557 -3.9085 0.312839 0
M  V30 7493 H 743.047 -4.12455 -0.653477 0
M  V30 7494 N 743.484 -0.715051 -1.40445 0
M  V30 7495 C 744.731 -0.254328 -2.00897 0
M  V30 7496 C 745.059 1.15228 -1.56693 0
M  V30 7497 O 744.314 1.7958 -0.777786 0
M  V30 7498 C 744.613 -0.281791 -3.56287 0
M  V30 7499 C 744.279 -1.63862 -4.20071 0
M  V30 7500 C 742.941 -2.01003 -4.37208 0
M  V30 7501 C 745.293 -2.53039 -4.55654 0
M  V30 7502 C 742.621 -3.26869 -4.8721 0
M  V30 7503 C 744.973 -3.78256 -5.07055 0
M  V30 7504 C 743.637 -4.15515 -5.22401 0
M  V30 7505 H 742.907 -0.0930652 -0.735133 0
M  V30 7506 H 745.554 -0.917977 -1.68064 0
M  V30 7507 H 743.859 0.465428 -3.89026 0
M  V30 7508 H 745.556 0.0925158 -4.00893 0
M  V30 7509 H 742.146 -1.33979 -4.07121 0
M  V30 7510 H 746.33 -2.2562 -4.42051 0
M  V30 7511 H 741.586 -3.55706 -4.97276 0
M  V30 7512 H 745.76 -4.47528 -5.33565 0
M  V30 7513 H 743.387 -5.13114 -5.60909 0
M  V30 7514 N 744.962 1.50701 -0.461195 0
M  V30 7515 C 746.239 1.94958 0.158296 0
M  V30 7516 C 746.619 1.40111 1.57899 0
M  V30 7517 O 745.967 0.597976 2.20537 0
M  V30 7518 C 746.177 3.48821 0.11172 0
M  V30 7519 C 747.525 4.23499 0.30552 0
M  V30 7520 O 748.549 3.557 0.188758 0
M  V30 7521 O 747.408 5.43823 0.540244 0
M  V30 7522 H 744.502 0.818674 0.117054 0
M  V30 7523 H 747.048 1.61508 -0.520888 0
M  V30 7524 H 745.82 3.81263 -0.880577 0
M  V30 7525 H 745.443 3.88781 0.832791 0
M  V30 7526 N 746.441 0.193421 1.56409 0
M  V30 7527 C 747.687 -0.446449 1.97825 0
M  V30 7528 C 748.02 -1.61386 1.08019 0
M  V30 7529 O 747.295 -1.94053 0.131839 0
M  V30 7530 C 747.578 -0.908199 3.48459 0
M  V30 7531 C 747.431 0.260914 4.49043 0
M  V30 7532 C 748.75 -1.77428 4.0275 0
M  V30 7533 H 745.869 -0.160807 0.719243 0
M  V30 7534 H 748.511 0.284006 1.87865 0
M  V30 7535 H 746.661 -1.53062 3.57077 0
M  V30 7536 H 748.333 0.898548 4.52464 0
M  V30 7537 H 746.576 0.912949 4.24085 0
M  V30 7538 H 747.247 -0.104657 5.51901 0
M  V30 7539 H 749.723 -1.24936 3.96901 0
M  V30 7540 H 748.599 -2.06633 5.08521 0
M  V30 7541 H 748.86 -2.72788 3.47907 0
M  V30 7542 N 747.919 -1.57396 -0.0801906 0
M  V30 7543 C 749.165 -1.87113 -0.782083 0
M  V30 7544 C 749.498 -0.78458 -1.77646 0
M  V30 7545 O 748.773 0.205993 -1.93406 0
M  V30 7546 C 749.056 -3.27483 -1.49756 0
M  V30 7547 C 748.909 -4.46782 -0.520171 0
M  V30 7548 C 750.228 -3.65965 -2.44454 0
M  V30 7549 H 747.347 -0.680559 -0.282858 0
M  V30 7550 H 749.989 -1.89946 -0.0454139 0
M  V30 7551 H 748.139 -3.25199 -2.12551 0
M  V30 7552 H 749.811 -4.61187 0.101919 0
M  V30 7553 H 748.054 -4.33485 0.165219 0
M  V30 7554 H 748.725 -5.41761 -1.05824 0
M  V30 7555 H 751.201 -3.69289 -1.91742 0
M  V30 7556 H 750.077 -4.65086 -2.91524 0
M  V30 7557 H 750.338 -2.95446 -3.28883 0
M  V30 7558 N 749.397 0.351382 -1.53633 0
M  V30 7559 C 750.637 1.10102 -1.72212 0
M  V30 7560 C 751.001 1.86128 -0.471198 0
M  V30 7561 O 752.202 2.63445 -0.533887 0
M  V30 7562 C 750.473 2.02348 -2.94602 0
M  V30 7563 S 752.032 2.84641 -3.33954 0
M  V30 7564 H 748.85 0.372145 -0.60583 0
M  V30 7565 H 751.452 0.38044 -1.91763 0
M  V30 7566 H 750.156 1.45283 -3.83824 0
M  V30 7567 H 749.687 2.78856 -2.77493 0
M  V30 7568 H 751.702 4.04724 -2.87076 0
M  V30 7569 N 750.875 1.45233 0.611969 0
M  V30 7570 C 752.123 1.48727 1.36838 0
M  V30 7571 C 752.444 0.128616 1.94575 0
M  V30 7572 O 751.714 -0.84149 1.76906 0
M  V30 7573 H 750.294 0.547695 0.507976 0
M  V30 7574 H 752.956 1.81156 0.718925 0
M  V30 7575 H 752.052 2.2236 2.19003 0
M  V30 7576 N 752.353 -0.854086 1.3245 0
M  V30 7577 C 753.63 -1.59188 1.1366 0
M  V30 7578 C 754.01 -2.08917 -0.302807 0
M  V30 7579 O 753.358 -1.8795 -1.29951 0
M  V30 7580 C 753.568 -2.73757 2.16467 0
M  V30 7581 C 754.916 -3.43323 2.49829 0
M  V30 7582 O 755.94 -2.83983 2.15017 0
M  V30 7583 O 754.799 -4.50409 3.09506 0
M  V30 7584 H 751.893 -0.701092 0.438633 0
M  V30 7585 H 754.439 -0.898165 1.43983 0
M  V30 7586 H 753.211 -2.3454 3.1322 0
M  V30 7587 H 752.834 -3.50804 1.87142 0
M  V30 7588 N 753.831 -1.1567 -1.07043 0
M  V30 7589 C 755.078 -0.933517 -1.79699 0
M  V30 7590 C 755.406 0.539162 -1.86878 0
M  V30 7591 O 754.661 1.41592 -1.35093 0
M  V30 7592 C 754.96 -1.49677 -3.24548 0
M  V30 7593 C 754.626 -2.99047 -3.37463 0
M  V30 7594 C 753.288 -3.39824 -3.40695 0
M  V30 7595 C 755.64 -3.95027 -3.40004 0
M  V30 7596 C 752.968 -4.75215 -3.44075 0
M  V30 7597 C 755.32 -5.30295 -3.44921 0
M  V30 7598 C 753.984 -5.70562 -3.46432 0
M  V30 7599 H 753.254 -0.341598 -0.657565 0
M  V30 7600 H 755.901 -1.44263 -1.25938 0
M  V30 7601 H 754.206 -0.908915 -3.81111 0
M  V30 7602 H 755.903 -1.29986 -3.79348 0
M  V30 7603 H 752.493 -2.6653 -3.35648 0
M  V30 7604 H 756.677 -3.64596 -3.36725 0
M  V30 7605 H 751.933 -5.05754 -3.43545 0
M  V30 7606 H 756.107 -6.0446 -3.45833 0
M  V30 7607 H 753.734 -6.75456 -3.48803 0
M  V30 7608 N 755.309 1.25446 -0.953992 0
M  V30 7609 C 756.257 2.27909 -0.46478 0
M  V30 7610 C 757.251 1.62904 0.464607 0
M  V30 7611 O 758.457 1.76733 0.341407 0
M  V30 7612 H 754.832 0.74036 -0.131798 0
M  V30 7613 H 756.803 2.66559 -1.34122 0
M  V30 7614 C 755.552 3.46853 0.242589 0
M  V30 7615 H 754.875 3.97105 -0.463418 0
M  V30 7616 H 756.315 4.20432 0.548919 0
M  V30 7617 C 754.774 3.03386 1.46487 0
M  V30 7618 O 755.304 3.09342 2.56262 0
M  V30 7619 N 753.51 2.58584 1.32599 0
M  V30 7620 H 753.057 2.53938 0.432834 0
M  V30 7621 H 753.015 2.29866 2.14497 0
M  V30 7622 N 756.787 0.722489 1.40064 0
M  V30 7623 C 758.034 0.264979 2.00759 0
M  V30 7624 C 758.362 -1.14395 1.57302 0
M  V30 7625 O 757.617 -1.79165 0.787298 0
M  V30 7626 C 757.916 0.300682 3.56133 0
M  V30 7627 C 757.582 1.66087 4.19197 0
M  V30 7628 C 756.244 2.03319 4.36136 0
M  V30 7629 C 758.596 2.55452 4.54306 0
M  V30 7630 C 755.924 3.29448 4.8547 0
M  V30 7631 C 758.276 3.8094 5.05042 0
M  V30 7632 C 756.94 4.1828 5.2019 0
M  V30 7633 H 756.21 0.0969625 0.734629 0
M  V30 7634 H 758.857 0.926877 1.67575 0
M  V30 7635 H 757.162 -0.44479 3.89267 0
M  V30 7636 H 758.859 -0.0712542 4.00937 0
M  V30 7637 H 755.449 1.36137 4.06405 0
M  V30 7638 H 759.633 2.27961 4.40849 0
M  V30 7639 H 754.889 3.58338 4.95382 0
M  V30 7640 H 759.063 4.50351 5.31184 0
M  V30 7641 H 756.69 5.16081 5.58179 0
M  V30 7642 N 758.265 -1.50454 0.469181 0
M  V30 7643 C 759.542 -1.9504 -0.147955 0
M  V30 7644 C 759.922 -1.40946 -1.57154 0
M  V30 7645 O 759.27 -0.609663 -2.20217 0
M  V30 7646 C 759.48 -3.48875 -0.0932198 0
M  V30 7647 C 760.828 -4.23655 -0.283056 0
M  V30 7648 O 761.852 -3.55795 -0.169892 0
M  V30 7649 O 760.711 -5.44102 -0.511396 0
M  V30 7650 H 757.805 -0.819283 -0.11271 0
M  V30 7651 H 760.351 -1.6123 0.529446 0
M  V30 7652 H 759.123 -3.80791 0.900784 0
M  V30 7653 H 758.746 -3.89217 -0.812161 0
M  V30 7654 N 759.743 -0.201713 -1.56304 0
M  V30 7655 C 760.691 0.733133 -2.20744 0
M  V30 7656 C 761.685 1.2148 -1.18064 0
M  V30 7657 O 762.891 1.17692 -1.36193 0
M  V30 7658 H 759.266 0.254789 -0.707521 0
M  V30 7659 H 761.237 0.165996 -2.97938 0
M  V30 7660 C 759.986 1.93925 -2.88597 0
M  V30 7661 H 759.309 1.5777 -3.67353 0
M  V30 7662 H 760.749 2.57158 -3.37114 0
M  V30 7663 C 759.208 2.78219 -1.89989 0
M  V30 7664 O 759.738 3.76353 -1.40432 0
M  V30 7665 N 757.944 2.43847 -1.58072 0
M  V30 7666 H 757.491 1.64103 -1.98565 0
M  V30 7667 H 757.449 3.0053 -0.923524 0
M  V30 7668 N 761.222 1.57436 0.0718424 0
M  V30 7669 C 762.462 1.89082 0.776351 0
M  V30 7670 C 762.826 0.795494 1.74745 0
M  V30 7671 O 764.027 0.995025 2.49705 0
M  V30 7672 C 762.298 3.25958 1.46582 0
M  V30 7673 S 763.857 3.79352 2.2054 0
M  V30 7674 H 760.675 0.662472 0.25817 0
M  V30 7675 H 763.277 1.95473 0.0324536 0
M  V30 7676 H 761.981 4.03577 0.745237 0
M  V30 7677 H 761.512 3.22764 2.24915 0
M  V30 7678 H 763.527 3.54634 3.47058 0
M  V30 7679 N 762.7 -0.34323 1.53817 0
M  V30 7680 C 763.925 -1.1079 1.75329 0
M  V30 7681 C 764.35 -1.81571 0.491293 0
M  V30 7682 O 763.708 -1.72561 -0.556089 0
M  V30 7683 C 763.756 -2.09681 2.9337 0
M  V30 7684 O 762.86 -3.17207 2.63541 0
M  V30 7685 H 762.201 -0.320402 0.581583 0
M  V30 7686 H 764.731 -0.393525 2.0078 0
M  V30 7687 H 764.741 -2.52897 3.20168 0
M  V30 7688 H 763.416 -1.5756 3.84899 0
M  V30 7689 H 761.993 -2.78806 2.47632 0
M  V30 7690 N 764.178 -1.45556 -0.604258 0
M  V30 7691 C 765.403 -1.53509 -1.39462 0
M  V30 7692 C 765.828 -0.169638 -1.87333 0
M  V30 7693 O 765.186 0.846346 -1.60333 0
M  V30 7694 C 765.234 -2.52654 -2.5729 0
M  V30 7695 O 764.338 -2.04666 -3.5803 0
M  V30 7696 H 763.679 -0.517355 -0.416221 0
M  V30 7697 H 766.209 -1.90939 -0.735072 0
M  V30 7698 H 766.219 -2.71568 -3.04491 0
M  V30 7699 H 764.894 -3.51823 -2.21797 0
M  V30 7700 H 763.471 -1.95643 -3.17456 0
M  V30 7701 N 765.656 0.84705 -1.32902 0
M  V30 7702 C 766.933 1.58583 -1.14503 0
M  V30 7703 C 767.313 2.09075 0.291724 0
M  V30 7704 O 766.661 1.88636 1.28952 0
M  V30 7705 C 766.871 2.72605 -2.17916 0
M  V30 7706 C 768.219 3.41993 -2.51646 0
M  V30 7707 O 769.243 2.82838 -2.1652 0
M  V30 7708 O 768.102 4.48761 -3.1189 0
M  V30 7709 H 765.196 0.698756 -0.442345 0
M  V30 7710 H 767.742 0.890516 -1.44457 0
M  V30 7711 H 766.514 2.32876 -3.14459 0
M  V30 7712 H 766.137 3.49807 -1.89 0
M  V30 7713 N 767.134 1.16236 1.06428 0
M  V30 7714 C 768.411 0.853294 1.76006 0
M  V30 7715 C 768.791 -0.649162 2.00871 0
M  V30 7716 O 768.139 -1.59653 1.63472 0
M  V30 7717 C 768.349 1.67448 3.06206 0
M  V30 7718 C 769.697 1.8866 3.80385 0
M  V30 7719 O 770.721 1.64303 3.16043 0
M  V30 7720 O 769.58 2.29518 4.95968 0
M  V30 7721 H 766.674 0.314737 0.764767 0
M  V30 7722 H 769.22 1.26865 1.12709 0
M  V30 7723 H 767.992 2.69411 2.83784 0
M  V30 7724 H 767.615 1.25608 3.77238 0
M  V30 7725 N 768.612 -1.24939 0.960631 0
M  V30 7726 C 769.559 -2.25658 0.484459 0
M  V30 7727 C 770.529 -1.59422 -0.466242 0
M  V30 7728 O 771.714 -1.87015 -0.378169 0
M  V30 7729 C 768.854 -3.44359 -0.225958 0
M  V30 7730 C 767.967 -4.25214 0.762682 0
M  V30 7731 C 767.102 -5.31192 0.0290931 0
M  V30 7732 C 766.141 -6.03739 1.00827 0
M  V30 7733 N 765.278 -7.01437 0.305155 0
M  V30 7734 H 770.118 -2.65758 1.34821 0
M  V30 7735 H 767.655 -1.30648 0.675983 0
M  V30 7736 H 769.613 -4.12035 -0.654472 0
M  V30 7737 H 768.243 -3.05118 -1.05371 0
M  V30 7738 H 767.295 -3.57144 1.30966 0
M  V30 7739 H 768.607 -4.75406 1.50964 0
M  V30 7740 H 767.761 -6.04971 -0.457763 0
M  V30 7741 H 766.5 -4.81889 -0.750614 0
M  V30 7742 H 765.505 -5.2877 1.50607 0
M  V30 7743 H 766.73 -6.55131 1.7883 0
M  V30 7744 H 764.676 -6.54415 -0.455704 0
M  V30 7745 H 764.593 -7.49475 0.991104 0
M  V30 7746 H 765.861 -7.79336 -0.159966 0
M  V30 7747 N 770.09 -0.729906 -1.39679 0
M  V30 7748 C 771.02 -0.101618 -2.33279 0
M  V30 7749 C 772.001 0.729854 -1.53646 0
M  V30 7750 O 773.186 0.67587 -1.82059 0
M  V30 7751 C 770.316 0.81024 -3.37716 0
M  V30 7752 C 769.27 0.0833126 -4.27919 0
M  V30 7753 C 768.596 1.11185 -5.23012 0
M  V30 7754 C 769.896 -1.07107 -5.112 0
M  V30 7755 H 771.59 -0.883452 -2.86069 0
M  V30 7756 H 769.136 -0.426283 -1.37546 0
M  V30 7757 H 771.089 1.25927 -4.02145 0
M  V30 7758 H 769.813 1.62413 -2.83354 0
M  V30 7759 H 768.472 -0.346043 -3.64963 0
M  V30 7760 H 768.12 1.91917 -4.64948 0
M  V30 7761 H 767.82 0.63026 -5.8421 0
M  V30 7762 H 769.344 1.56068 -5.90318 0
M  V30 7763 H 770.758 -0.700726 -5.69002 0
M  V30 7764 H 769.155 -1.48196 -5.81514 0
M  V30 7765 H 770.225 -1.89513 -4.46332 0
M  V30 7766 N 771.568 1.50203 -0.477153 0
M  V30 7767 C 772.478 2.32421 0.319027 0
M  V30 7768 C 773.494 1.43075 0.990233 0
M  V30 7769 O 774.67 1.76123 0.976873 0
M  V30 7770 C 771.735 3.17909 1.38328 0
M  V30 7771 C 770.796 4.23082 0.728036 0
M  V30 7772 C 770.029 5.04484 1.74158 0
M  V30 7773 O 770.252 4.8705 2.96881 0
M  V30 7774 O 769.186 5.8747 1.31006 0
M  V30 7775 H 773.012 3.01638 -0.353281 0
M  V30 7776 H 770.597 1.47478 -0.238891 0
M  V30 7777 H 772.479 3.70937 1.9996 0
M  V30 7778 H 771.154 2.51413 2.03895 0
M  V30 7779 H 770.061 3.7403 0.07261 0
M  V30 7780 H 771.394 4.92065 0.115216 0
M  V30 7781 N 773.046 0.209999 1.56195 0
M  V30 7782 C 773.978 -0.736967 2.17029 0
M  V30 7783 C 774.991 -1.16599 1.13616 0
M  V30 7784 O 776.18 -1.09914 1.40646 0
M  V30 7785 C 773.28 -2.00852 2.72969 0
M  V30 7786 C 772.453 -1.73691 4.01435 0
M  V30 7787 C 771.512 -2.85439 4.42053 0
M  V30 7788 O 770.538 -2.54405 5.09183 0
M  V30 7789 N 771.74 -4.14135 4.06783 0
M  V30 7790 H 774.505 -0.216656 2.98916 0
M  V30 7791 H 772.066 0.0285672 1.61875 0
M  V30 7792 H 774.058 -2.74778 2.97118 0
M  V30 7793 H 772.628 -2.43963 1.95451 0
M  V30 7794 H 771.848 -0.834676 3.85262 0
M  V30 7795 H 773.136 -1.52961 4.85263 0
M  V30 7796 H 772.534 -4.42196 3.52816 0
M  V30 7797 H 771.091 -4.84642 4.35851 0
M  V30 7798 N 774.524 -1.57472 -0.0634922 0
M  V30 7799 C 775.456 -2.00999 -1.10145 0
M  V30 7800 C 776.469 -0.917219 -1.34503 0
M  V30 7801 O 777.658 -1.19501 -1.32596 0
M  V30 7802 C 774.758 -2.34089 -2.45063 0
M  V30 7803 C 773.931 -3.65317 -2.40546 0
M  V30 7804 C 772.99 -3.85982 -3.57637 0
M  V30 7805 O 772.016 -4.5747 -3.38689 0
M  V30 7806 N 773.218 -3.28971 -4.78287 0
M  V30 7807 H 775.983 -2.90656 -0.730714 0
M  V30 7808 H 773.544 -1.59926 -0.252017 0
M  V30 7809 H 775.536 -2.4508 -3.22053 0
M  V30 7810 H 774.106 -1.50279 -2.74107 0
M  V30 7811 H 773.326 -3.65003 -1.48885 0
M  V30 7812 H 774.614 -4.51468 -2.34636 0
M  V30 7813 H 774.012 -2.70962 -4.96584 0
M  V30 7814 H 772.569 -3.45398 -5.5276 0
M  V30 7815 N 776.003 0.335068 -1.53997 0
M  V30 7816 C 776.953 1.4127 -1.7896 0
M  V30 7817 C 777.937 1.474 -0.64513 0
M  V30 7818 O 779.129 1.52127 -0.904785 0
M  V30 7819 C 776.258 2.78292 -2.01018 0
M  V30 7820 C 775.344 2.7652 -3.21555 0
M  V30 7821 N 775.735 2.44374 -4.42849 0
M  V30 7822 C 774.033 3.0766 -3.22895 0
M  V30 7823 C 774.734 2.51049 -5.24737 0
M  V30 7824 N 773.71 2.8702 -4.6165 0
M  V30 7825 H 777.512 1.15327 -2.70327 0
M  V30 7826 H 775.026 0.543483 -1.53036 0
M  V30 7827 H 777.023 3.55949 -2.17039 0
M  V30 7828 H 775.683 3.05175 -1.10898 0
M  V30 7829 H 776.694 2.17422 -4.70051 0
M  V30 7830 H 773.371 3.3966 -2.42771 0
M  V30 7831 H 774.761 2.29283 -6.31569 0
M  V30 7832 N 777.481 1.45874 0.596531 0
M  V30 7833 C 778.706 1.54247 1.38646 0
M  V30 7834 C 779.131 0.179571 1.87241 0
M  V30 7835 O 778.489 -0.837831 1.6078 0
M  V30 7836 C 778.537 2.54015 2.55946 0
M  V30 7837 O 777.641 2.06561 3.5694 0
M  V30 7838 H 776.982 0.519555 0.413471 0
M  V30 7839 H 779.512 1.91327 0.724936 0
M  V30 7840 H 779.522 2.73179 3.03047 0
M  V30 7841 H 778.197 3.52994 2.19928 0
M  V30 7842 H 776.774 1.97324 3.16414 0
M  V30 7843 N 778.959 -0.83999 1.33349 0
M  V30 7844 C 779.889 -1.965 1.26135 0
M  V30 7845 C 780.87 -1.69505 0.142152 0
M  V30 7846 O 782.055 -1.91346 0.331743 0
M  V30 7847 C 779.185 -3.32632 0.99866 0
M  V30 7848 C 778.139 -3.74021 2.08068 0
M  V30 7849 C 777.465 -5.07947 1.67014 0
M  V30 7850 C 778.765 -3.87925 3.49731 0
M  V30 7851 H 780.459 -2.02793 2.20262 0
M  V30 7852 H 778.005 -0.974297 1.06035 0
M  V30 7853 H 779.958 -4.10903 0.934696 0
M  V30 7854 H 778.682 -3.26593 0.0217759 0
M  V30 7855 H 777.341 -2.98012 2.13505 0
M  V30 7856 H 776.989 -4.98378 0.680316 0
M  V30 7857 H 776.689 -5.36611 2.39422 0
M  V30 7858 H 778.213 -5.88695 1.62082 0
M  V30 7859 H 779.627 -4.5651 3.46802 0
M  V30 7860 H 778.024 -4.28023 4.20614 0
M  V30 7861 H 779.094 -2.90407 3.88319 0
M  V30 7862 N 780.437 -1.16799 -1.0581 0
M  V30 7863 C 781.684 -0.952524 -1.78699 0
M  V30 7864 C 782.012 0.51931 -1.87439 0
M  V30 7865 O 781.267 1.40151 -1.36587 0
M  V30 7866 C 781.566 -1.53111 -3.22942 0
M  V30 7867 C 781.232 -3.0261 -3.34273 0
M  V30 7868 C 779.894 -3.43418 -3.37072 0
M  V30 7869 C 782.246 -3.98611 -3.35795 0
M  V30 7870 C 779.574 -4.78838 -3.39015 0
M  V30 7871 C 781.926 -5.33923 -3.39277 0
M  V30 7872 C 780.59 -5.74205 -3.40361 0
M  V30 7873 H 779.86 -0.348553 -0.653905 0
M  V30 7874 H 782.507 -1.45591 -1.244 0
M  V30 7875 H 780.812 -0.949286 -3.80126 0
M  V30 7876 H 782.509 -1.34002 -3.77948 0
M  V30 7877 H 779.099 -2.70075 -3.32803 0
M  V30 7878 H 783.283 -3.68146 -3.32839 0
M  V30 7879 H 778.539 -5.09369 -3.38161 0
M  V30 7880 H 782.713 -6.08094 -3.39403 0
M  V30 7881 H 780.34 -6.79117 -3.4162 0
M  V30 7882 N 781.915 1.24427 -0.967243 0
M  V30 7883 C 783.143 1.96541 -0.646477 0
M  V30 7884 C 783.558 1.71753 0.783996 0
M  V30 7885 O 782.915 1.00102 1.52597 0
M  V30 7886 C 782.966 3.4983 -0.911098 0
M  V30 7887 O 782.687 3.7377 -2.28534 0
M  V30 7888 C 784.188 4.3916 -0.604458 0
M  V30 7889 H 781.408 0.626129 -0.241255 0
M  V30 7890 H 783.952 1.58268 -1.29505 0
M  V30 7891 H 782.107 3.86168 -0.308741 0
M  V30 7892 H 782.521 4.68154 -2.365 0
M  V30 7893 H 783.995 5.4557 -0.840069 0
M  V30 7894 H 784.472 4.36771 0.461273 0
M  V30 7895 H 785.078 4.08409 -1.1867 0
M  V30 7896 N 783.393 0.737304 1.3929 0
M  V30 7897 C 784.343 0.0748537 2.27877 0
M  V30 7898 C 785.327 -0.71022 1.44377 0
M  V30 7899 O 786.519 -0.578851 1.67267 0
M  V30 7900 C 783.648 -0.82991 3.33118 0
M  V30 7901 C 782.734 -0.0388619 4.24082 0
M  V30 7902 N 783.125 0.989182 4.96033 0
M  V30 7903 C 781.423 -0.268167 4.45193 0
M  V30 7904 C 782.124 1.46639 5.62914 0
M  V30 7905 N 781.1 0.784581 5.37908 0
M  V30 7906 H 784.902 0.862457 2.80961 0
M  V30 7907 H 782.416 0.571845 1.51999 0
M  V30 7908 H 784.413 -1.31999 3.95452 0
M  V30 7909 H 783.073 -1.61665 2.81593 0
M  V30 7910 H 784.084 1.3706 4.99435 0
M  V30 7911 H 780.761 -1.02953 4.04607 0
M  V30 7912 H 782.151 2.32182 6.30508 0
M  V30 7913 N 784.871 -1.49948 0.485112 0
M  V30 7914 C 786.101 -2.06506 -0.0621921 0
M  V30 7915 C 786.509 -1.34756 -1.32806 0
M  V30 7916 O 785.852 -0.41466 -1.78959 0
M  V30 7917 C 785.914 -3.57243 -0.402182 0
M  V30 7918 C 785.578 -4.50574 0.763671 0
M  V30 7919 C 786.575 -4.93032 1.6497 0
M  V30 7920 C 784.26 -4.9308 0.957973 0
M  V30 7921 C 786.254 -5.76718 2.71432 0
M  V30 7922 C 783.941 -5.76546 2.0258 0
M  V30 7923 C 784.939 -6.18267 2.90232 0
M  V30 7924 O 784.627 -7.00066 3.95174 0
M  V30 7925 H 784.359 -0.675925 0.0100672 0
M  V30 7926 H 786.913 -1.93922 0.677023 0
M  V30 7927 H 785.143 -3.6778 -1.19478 0
M  V30 7928 H 786.832 -3.96107 -0.886219 0
M  V30 7929 H 787.598 -4.60851 1.51134 0
M  V30 7930 H 783.477 -4.60117 0.285144 0
M  V30 7931 H 787.021 -6.09203 3.39878 0
M  V30 7932 H 782.918 -6.0814 2.16417 0
M  V30 7933 H 783.686 -7.18343 3.92333 0
M  V30 7934 N 786.349 -0.21828 -1.56081 0
M  V30 7935 C 787.765 0.137168 -1.59009 0
M  V30 7936 C 787.965 1.59215 -1.23503 0
M  V30 7937 O 787.021 2.33178 -0.968716 0
M  V30 7938 C 788.334 -0.186162 -3.00123 0
M  V30 7939 C 789.882 -0.128135 -3.12738 0
M  V30 7940 C 790.357 -0.425094 -4.56023 0
M  V30 7941 N 791.848 -0.374547 -4.61683 0
M  V30 7942 C 792.583 -0.57786 -5.70481 0
M  V30 7943 N 792.079 -0.842771 -6.87655 0
M  V30 7944 N 793.872 -0.510521 -5.59777 0
M  V30 7945 H 786.023 -1.16746 -1.77437 0
M  V30 7946 H 788.286 -0.467706 -0.824594 0
M  V30 7947 H 787.992 -1.19589 -3.30744 0
M  V30 7948 H 787.866 0.500388 -3.73866 0
M  V30 7949 H 790.253 0.872224 -2.81915 0
M  V30 7950 H 790.334 -0.848112 -2.41331 0
M  V30 7951 H 789.978 -1.42288 -4.87562 0
M  V30 7952 H 789.908 0.316038 -5.25651 0
M  V30 7953 H 792.399 -0.177356 -3.77484 0
M  V30 7954 H 792.712 -0.986095 -7.66483 0
M  V30 7955 H 791.057 -0.879929 -6.89407 0
M  V30 7956 H 794.248 -0.303813 -4.67113 0
M  V30 7957 H 794.421 -0.672378 -6.44502 0
M  V30 7958 N 787.827 1.57504 0.0551401 0
M  V30 7959 C 789.104 1.79155 0.785048 0
M  V30 7960 C 789.484 0.809995 1.94942 0
M  V30 7961 O 788.832 -0.153432 2.27984 0
M  V30 7962 C 789.042 3.26134 1.24247 0
M  V30 7963 C 790.39 3.90419 1.66908 0
M  V30 7964 O 791.414 3.30126 1.33772 0
M  V30 7965 O 790.273 4.96523 2.28314 0
M  V30 7966 H 787.367 0.735825 0.377479 0
M  V30 7967 H 789.913 1.69666 0.0339285 0
M  V30 7968 H 788.685 3.89145 0.410089 0
M  V30 7969 H 788.308 3.40411 2.05441 0
M  V30 7970 N 789.305 -0.326896 1.54172 0
M  V30 7971 C 790.716 -0.901533 1.63491 0
M  V30 7972 C 791.067 -1.88994 0.52684 0
M  V30 7973 O 790.192 -2.137 -0.340794 0
M  V30 7974 C 790.787 -1.64192 2.96355 0
M  V30 7975 C 789.346 -2.16533 3.07881 0
M  V30 7976 C 788.493 -0.98966 2.59039 0
M  V30 7977 H 791.444 -0.104568 1.58355 0
M  V30 7978 H 791.465 -2.50592 2.86328 0
M  V30 7979 H 790.977 -0.922291 3.76982 0
M  V30 7980 H 789.078 -2.91622 2.31922 0
M  V30 7981 H 789.191 -2.41762 4.13628 0
M  V30 7982 H 787.555 -1.36787 2.14852 0
M  V30 7983 H 788.338 -0.284401 3.4212 0
M  V30 7984 N 790.784 -1.46188 -0.588786 0
M  V30 7985 C 792.024 -1.52738 -1.35833 0
M  V30 7986 C 792.388 -0.172403 -1.91224 0
M  V30 7987 O 793.589 -0.112633 -2.68564 0
M  V30 7988 C 791.86 -2.59085 -2.4619 0
M  V30 7989 S 793.419 -2.84997 -3.3365 0
M  V30 7990 H 790.237 -0.539713 -0.462851 0
M  V30 7991 H 792.839 -1.83386 -0.677489 0
M  V30 7992 H 791.543 -3.56177 -2.03878 0
M  V30 7993 H 791.074 -2.3015 -3.19053 0
M  V30 7994 H 793.089 -2.19804 -4.4486 0
M  V30 7995 N 792.262 0.832906 -1.33792 0
M  V30 7996 C 793.678 1.1245 -1.13257 0
M  V30 7997 C 793.878 2.01369 0.0725832 0
M  V30 7998 O 792.934 2.41071 0.751082 0
M  V30 7999 C 794.247 1.78084 -2.42294 0
M  V30 8000 C 795.795 1.90624 -2.48257 0
M  V30 8001 C 796.27 2.59673 -3.77271 0
M  V30 8002 N 797.761 2.67181 -3.78376 0
M  V30 8003 C 798.496 3.21313 -4.74916 0
M  V30 8004 N 797.992 3.76086 -5.81835 0
M  V30 8005 N 799.785 3.19621 -4.62384 0
M  V30 8006 H 791.936 0.241244 -2.11026 0
M  V30 8007 H 794.199 0.169557 -0.932713 0
M  V30 8008 H 793.905 1.20209 -3.30519 0
M  V30 8009 H 793.779 2.78049 -2.5489 0
M  V30 8010 H 796.166 2.4765 -1.60478 0
M  V30 8011 H 796.247 0.89591 -2.39598 0
M  V30 8012 H 795.891 2.03304 -4.65435 0
M  V30 8013 H 795.821 3.61189 -3.8321 0
M  V30 8014 H 798.312 2.28346 -3.01108 0
M  V30 8015 H 798.625 4.15612 -6.51526 0
M  V30 8016 H 796.97 3.74357 -5.85561 0
M  V30 8017 H 800.161 2.76091 -3.7801 0
M  V30 8018 H 800.334 3.61504 -5.37791 0
M  V30 8019 N 793.74 1.17359 1.05189 0
M  V30 8020 C 794.67 0.91365 2.14883 0
M  V30 8021 C 795.651 -0.144365 1.69486 0
M  V30 8022 O 796.836 0.00587861 1.94199 0
M  V30 8023 C 793.966 0.426196 3.44675 0
M  V30 8024 C 792.92 1.4234 4.03638 0
M  V30 8025 C 792.246 0.793902 5.28773 0
M  V30 8026 C 793.546 2.7966 4.41121 0
M  V30 8027 H 795.24 1.831 2.36885 0
M  V30 8028 H 792.786 0.881781 1.13845 0
M  V30 8029 H 794.739 0.231767 4.20762 0
M  V30 8030 H 793.463 -0.526693 3.22325 0
M  V30 8031 H 792.122 1.60457 3.2962 0
M  V30 8032 H 791.77 -0.165824 5.02727 0
M  V30 8033 H 791.47 1.45959 5.69183 0
M  V30 8034 H 792.994 0.609747 6.07548 0
M  V30 8035 H 794.408 2.6526 5.08242 0
M  V30 8036 H 792.805 3.42807 4.92548 0
M  V30 8037 H 793.875 3.34068 3.51464 0
M  V30 8038 N 795.218 -1.23913 0.973828 0
M  V30 8039 C 796.466 -1.91771 0.637817 0
M  V30 8040 C 796.787 -1.76434 -0.830435 0
M  V30 8041 O 796.057 -1.13965 -1.59339 0
M  V30 8042 H 794.637 -0.709761 0.232912 0
M  V30 8043 H 797.299 -1.50677 1.23622 0
M  V30 8044 H 796.395 -2.99327 0.883731 0
M  V30 8045 N 796.696 -0.74468 -1.38897 0
M  V30 8046 C 798.107 -0.36568 -1.83084 0
M  V30 8047 C 798.458 1.10436 -1.62168 0
M  V30 8048 O 797.583 1.85281 -1.11804 0
M  V30 8049 C 798.178 -0.656946 -3.3237 0
M  V30 8050 C 796.737 -0.331329 -3.74939 0
M  V30 8051 C 795.884 -0.914661 -2.61781 0
M  V30 8052 H 798.835 -0.941551 -1.27752 0
M  V30 8053 H 798.856 0.0679546 -3.80439 0
M  V30 8054 H 798.368 -1.72693 -3.47561 0
M  V30 8055 H 796.469 0.732426 -3.6533 0
M  V30 8056 H 796.582 -0.820655 -4.72019 0
M  V30 8057 H 794.946 -0.34063 -2.52412 0
M  V30 8058 H 795.729 -1.98949 -2.79775 0
M  V30 8059 N 798.174 1.49689 -0.493057 0
M  V30 8060 C 799.422 2.02027 0.0541642 0
M  V30 8061 C 799.743 1.37554 1.38217 0
M  V30 8062 O 799.013 0.528174 1.88646 0
M  V30 8063 H 797.593 0.746646 0.0230069 0
M  V30 8064 H 800.255 1.83795 -0.648489 0
M  V30 8065 H 799.351 3.11523 0.189652 0
M  V30 8066 N 799.652 0.226554 1.55963 0
M  V30 8067 C 800.562 -0.692725 2.24139 0
M  V30 8068 C 801.578 -1.20971 1.25068 0
M  V30 8069 O 802.754 -1.25027 1.57893 0
M  V30 8070 C 799.819 -1.88183 2.91184 0
M  V30 8071 C 798.88 -1.40633 4.05612 0
M  V30 8072 C 798.113 -2.53875 4.6945 0
M  V30 8073 O 798.336 -3.72129 4.32292 0
M  V30 8074 O 797.27 -2.24792 5.58348 0
M  V30 8075 H 801.096 -0.141921 3.03368 0
M  V30 8076 H 798.681 -0.0041049 1.49399 0
M  V30 8077 H 800.563 -2.57617 3.33484 0
M  V30 8078 H 799.238 -2.42064 2.14911 0
M  V30 8079 H 798.145 -0.67986 3.67871 0
M  V30 8080 H 799.478 -0.913838 4.83642 0
M  V30 8081 N 801.13 -1.57531 -0.0467866 0
M  V30 8082 C 802.04 -2.08768 -1.07018 0
M  V30 8083 C 803.056 -1.02245 -1.40791 0
M  V30 8084 O 804.232 -1.33873 -1.50466 0
M  V30 8085 C 801.297 -2.54221 -2.35738 0
M  V30 8086 C 800.358 -3.75152 -2.08709 0
M  V30 8087 C 799.591 -4.18428 -3.31291 0
M  V30 8088 O 799.814 -3.61365 -4.4133 0
M  V30 8089 O 798.748 -5.11018 -3.18032 0
M  V30 8090 H 802.574 -2.96334 -0.664812 0
M  V30 8091 H 800.159 -1.47074 -0.262605 0
M  V30 8092 H 802.041 -2.83866 -3.11445 0
M  V30 8093 H 800.716 -1.69774 -2.75605 0
M  V30 8094 H 799.623 -3.50553 -1.30627 0
M  V30 8095 H 800.956 -4.60528 -1.73708 0
M  V30 8096 N 802.608 0.318715 -1.54344 0
M  V30 8097 C 803.555 1.39242 -1.84066 0
M  V30 8098 C 804.525 1.51175 -0.688134 0
M  V30 8099 O 805.71 1.66318 -0.935039 0
M  V30 8100 C 802.85 2.75528 -2.07794 0
M  V30 8101 C 801.963 2.72187 -3.35467 0
M  V30 8102 C 801.098 4.00352 -3.4913 0
M  V30 8103 C 800.137 3.91338 -4.7066 0
M  V30 8104 N 799.274 5.11242 -4.81224 0
M  V30 8105 H 804.114 1.13196 -2.75664 0
M  V30 8106 H 801.651 0.547857 -1.36517 0
M  V30 8107 H 803.609 3.54763 -2.19543 0
M  V30 8108 H 802.239 2.99873 -1.19482 0
M  V30 8109 H 801.291 1.84917 -3.3243 0
M  V30 8110 H 802.603 2.61411 -4.24812 0
M  V30 8111 H 801.757 4.88019 -3.60448 0
M  V30 8112 H 800.496 4.1394 -2.57886 0
M  V30 8113 H 799.501 3.02055 -4.59394 0
M  V30 8114 H 800.726 3.7931 -5.63294 0
M  V30 8115 H 798.672 5.25327 -3.92897 0
M  V30 8116 H 798.589 5.0282 -5.64543 0
M  V30 8117 H 799.857 6.0061 -4.96879 0
M  V30 8118 N 804.086 1.46499 0.581025 0
M  V30 8119 C 805.497 1.4604 1.16315 0
M  V30 8120 C 805.848 0.202154 1.95156 0
M  V30 8121 O 804.973 -0.694638 2.04948 0
M  V30 8122 C 805.568 2.64593 2.11604 0
M  V30 8123 C 804.127 2.6717 2.65136 0
M  V30 8124 C 803.274 2.38753 1.4104 0
M  V30 8125 H 806.225 1.54354 0.368871 0
M  V30 8126 H 806.246 2.40207 2.95095 0
M  V30 8127 H 805.758 3.56154 1.54194 0
M  V30 8128 H 803.859 1.79685 3.26411 0
M  V30 8129 H 803.972 3.67182 3.07757 0
M  V30 8130 H 802.336 1.88845 1.70908 0
M  V30 8131 H 803.119 3.32493 0.854588 0
M  V30 8132 N 805.565 -0.825799 1.34232 0
M  V30 8133 C 806.811 -1.58379 1.27623 0
M  V30 8134 C 807.166 -1.91789 -0.15323 0
M  V30 8135 O 806.459 -1.56965 -1.09875 0
M  V30 8136 C 806.653 -2.89362 2.09772 0
M  V30 8137 C 806.482 -2.68747 3.60562 0
M  V30 8138 C 805.252 -2.6563 4.29848 0
M  V30 8139 C 807.45 -2.40463 4.54623 0
M  V30 8140 N 805.432 -2.3653 5.66504 0
M  V30 8141 C 806.803 -2.21032 5.79262 0
M  V30 8142 C 808.858 -2.26168 4.43568 0
M  V30 8143 C 807.561 -1.88754 6.94093 0
M  V30 8144 C 809.587 -1.95284 5.58228 0
M  V30 8145 C 808.949 -1.76674 6.81884 0
M  V30 8146 H 805.048 -0.582062 0.522234 0
M  V30 8147 H 807.632 -0.968308 1.68914 0
M  V30 8148 H 805.803 -3.48838 1.70783 0
M  V30 8149 H 807.535 -3.54716 1.94831 0
M  V30 8150 H 804.29 -2.79601 3.82257 0
M  V30 8151 H 804.714 -2.24827 6.38578 0
M  V30 8152 H 809.356 -2.39262 3.48588 0
M  V30 8153 H 807.074 -1.74397 7.89057 0
M  V30 8154 H 810.66 -1.84959 5.51617 0
M  V30 8155 H 809.54 -1.53123 7.69105 0
M  V30 8156 N 807.043 -1.17915 -1.04565 0
M  V30 8157 C 808.006 -0.903787 -2.10628 0
M  V30 8158 C 809.006 0.10873 -1.60432 0
M  V30 8159 O 810.196 -0.124152 -1.73757 0
M  V30 8160 C 807.328 -0.355017 -3.39046 0
M  V30 8161 H 808.521 -1.84425 -2.3649 0
M  V30 8162 H 806.074 -0.990477 -1.2091 0
M  V30 8163 H 806.809 0.592297 -3.18845 0
M  V30 8164 H 806.594 -1.08484 -3.76794 0
M  V30 8165 H 808.084 -0.180891 -4.17208 0
M  V30 8166 N 808.521 1.23394 -0.980386 0
M  V30 8167 C 809.77 1.91116 -0.644785 0
M  V30 8168 C 810.083 1.77333 0.825367 0
M  V30 8169 O 811.289 2.39858 1.27203 0
M  V30 8170 C 809.745 3.42592 -1.10266 0
M  V30 8171 C 809.353 3.65037 -2.59715 0
M  V30 8172 C 811.097 4.1609 -0.8408 0
M  V30 8173 C 809.004 5.10148 -2.9917 0
M  V30 8174 H 807.934 0.715632 -0.23746 0
M  V30 8175 H 810.585 1.39829 -1.18828 0
M  V30 8176 H 808.967 3.92989 -0.487372 0
M  V30 8177 H 810.141 3.25186 -3.26482 0
M  V30 8178 H 808.456 3.04849 -2.83647 0
M  V30 8179 H 811.053 5.23021 -1.11143 0
M  V30 8180 H 811.396 4.15702 0.223085 0
M  V30 8181 H 811.929 3.71681 -1.41767 0
M  V30 8182 H 808.668 5.15668 -4.04682 0
M  V30 8183 H 808.188 5.50949 -2.37097 0
M  V30 8184 H 809.867 5.7848 -2.89775 0
M  V30 8185 N 809.999 0.752036 1.385 0
M  V30 8186 C 811.247 0.306895 1.99756 0
M  V30 8187 C 811.568 -1.11478 1.59992 0
M  V30 8188 O 810.838 -1.76206 0.856045 0
M  V30 8189 H 809.418 0.11048 0.738785 0
M  V30 8190 H 812.08 0.965785 1.69289 0
M  V30 8191 H 811.176 0.368797 3.09913 0
M  V30 8192 N 811.477 -1.49425 0.500989 0
M  V30 8193 C 812.705 -2.06861 -0.0403443 0
M  V30 8194 C 813.12 -1.36132 -1.30819 0
M  V30 8195 O 812.477 -0.439647 -1.77125 0
M  V30 8196 C 812.528 -3.6027 -0.297902 0
M  V30 8197 O 812.249 -4.28338 0.919686 0
M  V30 8198 C 813.75 -4.34419 -0.882876 0
M  V30 8199 H 810.97 -0.670688 0.0204619 0
M  V30 8200 H 813.514 -1.92207 0.698342 0
M  V30 8201 H 811.669 -3.74627 -0.98657 0
M  V30 8202 H 812.083 -5.2004 0.682528 0
M  V30 8203 H 813.557 -5.42631 -1.01268 0
M  V30 8204 H 814.034 -3.96898 -1.88066 0
M  V30 8205 H 814.64 -4.24669 -0.231677 0
M  V30 8206 N 812.955 -0.234822 -1.55841 0
M  V30 8207 C 813.885 0.664217 -2.23854 0
M  V30 8208 C 814.866 1.19076 -1.2147 0
M  V30 8209 O 816.051 1.23232 -1.50091 0
M  V30 8210 C 813.181 1.86666 -2.9287 0
M  V30 8211 C 812.135 1.47341 -4.01839 0
M  V30 8212 C 811.461 2.75571 -4.58219 0
M  V30 8213 C 812.761 0.653479 -5.18196 0
M  V30 8214 H 814.455 0.0971213 -2.99242 0
M  V30 8215 H 812.001 0.0452724 -1.43929 0
M  V30 8216 H 813.954 2.50116 -3.39146 0
M  V30 8217 H 812.678 2.45894 -2.1495 0
M  V30 8218 H 811.337 0.862314 -3.56314 0
M  V30 8219 H 810.985 3.32971 -3.77014 0
M  V30 8220 H 810.685 2.49987 -5.31771 0
M  V30 8221 H 812.209 3.39939 -5.07221 0
M  V30 8222 H 813.623 1.19198 -5.60771 0
M  V30 8223 H 812.02 0.494188 -5.98062 0
M  V30 8224 H 813.09 -0.337004 -4.83728 0
M  V30 8225 N 814.433 1.57553 0.0384317 0
M  V30 8226 C 815.363 2.0898 1.04161 0
M  V30 8227 C 816.344 0.99029 1.38301 0
M  V30 8228 O 817.529 1.26499 1.47349 0
M  V30 8229 C 814.659 2.56145 2.34536 0
M  V30 8230 C 813.613 3.70275 2.14663 0
M  V30 8231 C 812.939 4.03612 3.50715 0
M  V30 8232 C 814.239 4.99067 1.54045 0
M  V30 8233 H 815.933 2.93046 0.613548 0
M  V30 8234 H 813.479 1.40973 0.293684 0
M  V30 8235 H 815.432 2.90741 3.05037 0
M  V30 8236 H 814.156 1.6915 2.79385 0
M  V30 8237 H 812.815 3.36013 1.46597 0
M  V30 8238 H 812.463 3.13698 3.93195 0
M  V30 8239 H 812.163 4.80482 3.38247 0
M  V30 8240 H 813.687 4.40735 4.22593 0
M  V30 8241 H 815.101 5.3168 2.14451 0
M  V30 8242 H 813.498 5.80484 1.52178 0
M  V30 8243 H 814.568 4.8226 0.505259 0
M  V30 8244 N 815.911 -0.310526 1.54511 0
M  V30 8245 C 817.188 -1.06593 1.64004 0
M  V30 8246 C 817.568 -2.05519 0.482216 0
M  V30 8247 O 816.916 -2.22455 -0.52212 0
M  V30 8248 C 817.126 -1.75627 3.01589 0
M  V30 8249 C 818.474 -2.28173 3.58081 0
M  V30 8250 O 819.498 -1.85674 3.03979 0
M  V30 8251 O 818.357 -3.06015 4.52788 0
M  V30 8252 H 815.451 -0.492109 0.664649 0
M  V30 8253 H 817.997 -0.309374 1.66856 0
M  V30 8254 H 816.769 -1.03743 3.77297 0
M  V30 8255 H 816.392 -2.58061 3.02473 0
M  V30 8256 N 817.389 -1.46805 -0.573248 0
M  V30 8257 C 818.617 -1.56191 -1.3569 0
M  V30 8258 C 819.032 -0.206362 -1.87669 0
M  V30 8259 O 818.389 0.797883 -1.64134 0
M  V30 8260 C 818.44 -2.57433 -2.53792 0
M  V30 8261 O 818.161 -3.87724 -2.03965 0
M  V30 8262 C 819.662 -2.76851 -3.4622 0
M  V30 8263 H 816.882 -0.527907 -0.414192 0
M  V30 8264 H 819.426 -1.92292 -0.695989 0
M  V30 8265 H 817.581 -2.24311 -3.15854 0
M  V30 8266 H 817.995 -4.42909 -2.80948 0
M  V30 8267 H 819.469 -3.5159 -4.25545 0
M  V30 8268 H 819.946 -1.84095 -3.98755 0
M  V30 8269 H 820.552 -3.11107 -2.89987 0
M  V30 8270 N 818.867 0.818669 -1.34668 0
M  V30 8271 C 819.815 1.95123 -1.26609 0
M  V30 8272 C 820.809 1.68611 -0.163348 0
M  V30 8273 O 822.015 1.76975 -0.328586 0
M  V30 8274 H 818.39 0.640871 -0.393431 0
M  V30 8275 H 820.361 1.99043 -2.22316 0
M  V30 8276 C 819.11 3.31697 -1.04272 0
M  V30 8277 H 818.433 3.52648 -1.8836 0
M  V30 8278 H 819.873 4.11382 -1.0267 0
M  V30 8279 C 818.332 3.35942 0.253858 0
M  V30 8280 O 818.862 3.81632 1.25378 0
M  V30 8281 N 817.068 2.89165 0.288447 0
M  V30 8282 H 816.615 2.52176 -0.525845 0
M  V30 8283 H 816.573 2.92387 1.15572 0
M  V30 8284 N 820.346 1.18468 1.03938 0
M  V30 8285 C 821.594 0.978895 1.76811 0
M  V30 8286 C 821.915 -0.49257 1.88676 0
M  V30 8287 O 821.185 -1.3572 1.41269 0
M  V30 8288 H 819.765 0.359201 0.654968 0
M  V30 8289 H 822.427 1.49173 1.25433 0
M  V30 8290 H 821.523 1.418 2.78027 0
M  V30 8291 N 821.824 -1.22873 0.986916 0
M  V30 8292 C 822.754 -2.2688 0.552064 0
M  V30 8293 C 823.735 -1.64883 -0.418048 0
M  V30 8294 O 824.92 -1.9171 -0.30999 0
M  V30 8295 C 822.05 -3.47018 -0.139959 0
M  V30 8296 C 821.004 -4.21411 0.748091 0
M  V30 8297 C 820.33 -5.34645 -0.0765132 0
M  V30 8298 C 821.63 -4.80726 2.04206 0
M  V30 8299 H 823.324 -2.63507 1.42143 0
M  V30 8300 H 820.87 -1.26668 0.68492 0
M  V30 8301 H 822.823 -4.18931 -0.455527 0
M  V30 8302 H 821.547 -3.0947 -1.04382 0
M  V30 8303 H 820.206 -3.51325 1.04721 0
M  V30 8304 H 819.854 -4.93339 -0.981109 0
M  V30 8305 H 819.554 -5.85342 0.514606 0
M  V30 8306 H 821.078 -6.09377 -0.386313 0
M  V30 8307 H 822.492 -5.44612 1.79083 0
M  V30 8308 H 820.889 -5.41737 2.5815 0
M  V30 8309 H 821.959 -4.01109 2.72469 0
M  V30 8310 N 823.302 -0.75937 -1.38099 0
M  V30 8311 C 824.532 -0.328634 -2.0397 0
M  V30 8312 C 824.94 1.04989 -1.57398 0
M  V30 8313 O 824.283 1.67918 -0.744932 0
M  V30 8314 C 824.345 -0.279216 -3.58414 0
M  V30 8315 C 824.009 -1.60025 -4.28067 0
M  V30 8316 C 825.006 -2.55048 -4.53041 0
M  V30 8317 C 822.691 -1.87128 -4.66142 0
M  V30 8318 C 824.685 -3.7539 -5.15132 0
M  V30 8319 C 822.372 -3.07742 -5.27956 0
M  V30 8320 C 823.37 -4.01694 -5.52387 0
M  V30 8321 O 823.058 -5.20186 -6.12912 0
M  V30 8322 H 822.79 -0.137443 -0.66188 0
M  V30 8323 H 825.344 -1.03082 -1.77661 0
M  V30 8324 H 823.574 0.479254 -3.83719 0
M  V30 8325 H 825.263 0.122781 -4.05714 0
M  V30 8326 H 826.029 -2.35387 -4.24049 0
M  V30 8327 H 821.908 -1.14833 -4.46469 0
M  V30 8328 H 825.452 -4.48737 -5.34117 0
M  V30 8329 H 821.349 -3.27294 -5.56371 0
M  V30 8330 H 822.117 -5.20846 -6.31397 0
M  V30 8331 N 824.78 1.49157 -0.508906 0
M  V30 8332 C 826.057 1.95363 0.0961913 0
M  V30 8333 C 826.437 1.45064 1.53362 0
M  V30 8334 O 825.785 0.667835 2.18523 0
M  V30 8335 C 825.995 3.49 0.000688881 0
M  V30 8336 C 827.343 4.24257 0.170632 0
M  V30 8337 O 828.367 3.5612 0.0754994 0
M  V30 8338 O 827.226 5.45267 0.366957 0
M  V30 8339 H 824.32 0.821984 0.0909489 0
M  V30 8340 H 826.866 1.59769 -0.572007 0
M  V30 8341 H 825.638 3.78269 -1.00143 0
M  V30 8342 H 825.261 3.91233 0.708682 0
M  V30 8343 N 826.258 0.243083 1.55714 0
M  V30 8344 C 827.168 -0.668913 2.24862 0
M  V30 8345 C 828.184 -1.19638 1.26344 0
M  V30 8346 O 829.36 -1.23345 1.5921 0
M  V30 8347 C 826.425 -1.85084 2.93163 0
M  V30 8348 C 825.486 -1.36323 4.07081 0
M  V30 8349 C 824.719 -2.48882 4.72116 0
M  V30 8350 O 824.942 -3.67523 4.36214 0
M  V30 8351 O 823.876 -2.18857 5.60701 0
M  V30 8352 H 827.702 -0.109737 3.03502 0
M  V30 8353 H 825.287 0.0117411 1.49395 0
M  V30 8354 H 827.169 -2.54065 3.36197 0
M  V30 8355 H 825.844 -2.39771 2.17466 0
M  V30 8356 H 824.751 -0.640804 3.68571 0
M  V30 8357 H 826.084 -0.86249 4.84584 0
M  V30 8358 N 827.736 -1.57571 -0.0300757 0
M  V30 8359 C 829.013 -1.80381 -0.756447 0
M  V30 8360 C 829.393 -0.840906 -1.93628 0
M  V30 8361 O 828.741 0.117143 -2.282 0
M  V30 8362 C 828.951 -3.2807 -1.19043 0
M  V30 8363 C 830.299 -3.93025 -1.60676 0
M  V30 8364 O 831.323 -3.32213 -1.28503 0
M  V30 8365 O 830.182 -5.00092 -2.20386 0
M  V30 8366 H 827.276 -0.741737 -0.365725 0
M  V30 8367 H 829.822 -1.69699 -0.00693177 0
M  V30 8368 H 828.594 -3.89748 -0.348128 0
M  V30 8369 H 828.217 -3.43637 -1.99999 0
M  V30 8370 N 829.214 0.302327 -1.54673 0
M  V30 8371 C 830.46 1.03924 -1.74149 0
M  V30 8372 C 830.793 1.86968 -0.525041 0
M  V30 8373 O 830.068 1.88538 0.477868 0
M  V30 8374 C 830.351 1.94633 -3.02969 0
M  V30 8375 C 830.204 1.14778 -4.34909 0
M  V30 8376 C 831.523 2.93826 -3.27649 0
M  V30 8377 H 828.642 0.376405 -0.633631 0
M  V30 8378 H 831.284 0.314007 -1.87387 0
M  V30 8379 H 829.434 2.56471 -2.91813 0
M  V30 8380 H 831.106 0.552363 -4.57981 0
M  V30 8381 H 829.349 0.450462 -4.31455 0
M  V30 8382 H 830.02 1.81495 -5.21309 0
M  V30 8383 H 832.496 2.42117 -3.38406 0
M  V30 8384 H 831.372 3.54462 -4.19104 0
M  V30 8385 H 831.633 3.67416 -2.45882 0
M  V30 8386 N 830.692 1.47107 0.565454 0
M  V30 8387 C 831.932 1.5488 1.33385 0
M  V30 8388 C 832.296 0.202804 1.90926 0
M  V30 8389 O 833.497 0.155345 2.68351 0
M  V30 8390 C 831.768 2.62969 2.42037 0
M  V30 8391 S 833.327 2.90269 3.29074 0
M  V30 8392 H 830.145 0.547008 0.454206 0
M  V30 8393 H 832.747 1.8444 0.648228 0
M  V30 8394 H 831.451 3.59376 1.98185 0
M  V30 8395 H 830.982 2.35197 3.15351 0
M  V30 8396 H 832.997 2.26854 4.41307 0
M  V30 8397 N 832.17 -0.811516 1.35101 0
M  V30 8398 C 833.398 -1.59981 1.31201 0
M  V30 8399 C 833.813 -1.8847 -0.111552 0
M  V30 8400 O 833.17 -1.48414 -1.06205 0
M  V30 8401 C 833.221 -2.934 2.11184 0
M  V30 8402 O 832.942 -2.66148 3.4799 0
M  V30 8403 C 834.443 -3.87776 2.14813 0
M  V30 8404 H 831.663 -0.496921 0.450899 0
M  V30 8405 H 834.207 -1.00886 1.77883 0
M  V30 8406 H 832.362 -3.49022 1.68115 0
M  V30 8407 H 832.776 -3.51301 3.89471 0
M  V30 8408 H 834.25 -4.7852 2.75178 0
M  V30 8409 H 834.727 -4.23997 1.14556 0
M  V30 8410 H 835.333 -3.3809 2.58022 0
M  V30 8411 N 833.648 -1.19017 -1.03309 0
M  V30 8412 C 835.059 -0.993206 -1.5809 0
M  V30 8413 C 835.41 0.45505 -1.9085 0
M  V30 8414 O 834.535 1.33372 -1.70414 0
M  V30 8415 C 835.13 -1.79661 -2.87241 0
M  V30 8416 C 833.689 -1.64377 -3.38611 0
M  V30 8417 C 832.836 -1.78628 -2.12102 0
M  V30 8418 H 835.787 -1.3345 -0.858879 0
M  V30 8419 H 835.808 -1.29019 -3.57958 0
M  V30 8420 H 835.32 -2.85061 -2.63366 0
M  V30 8421 H 833.421 -0.615447 -3.67482 0
M  V30 8422 H 833.534 -2.44651 -4.11926 0
M  V30 8423 H 831.898 -1.21648 -2.23772 0
M  V30 8424 H 832.681 -2.8548 -1.90673 0
M  V30 8425 N 835.127 1.22348 -0.993418 0
M  V30 8426 C 836.404 1.86632 -0.585495 0
M  V30 8427 C 836.784 1.89156 0.937187 0
M  V30 8428 O 836.132 1.38247 1.81934 0
M  V30 8429 C 836.342 3.27481 -1.20652 0
M  V30 8430 C 837.69 4.03971 -1.30738 0
M  V30 8431 O 838.714 3.3675 -1.16096 0
M  V30 8432 O 837.573 5.24302 -1.54173 0
M  V30 8433 H 834.667 0.802704 -0.198984 0
M  V30 8434 H 837.213 1.30122 -1.08933 0
M  V30 8435 H 835.985 3.20281 -2.24802 0
M  V30 8436 H 835.608 3.91597 -0.688312 0
M  V30 8437 N 836.605 0.766683 1.37694 0
M  V30 8438 C 837.553 0.137269 2.32195 0
M  V30 8439 C 838.547 -0.69067 1.54681 0
M  V30 8440 O 839.753 -0.588299 1.70115 0
M  V30 8441 H 836.128 0.0256003 0.751564 0
M  V30 8442 H 838.099 0.950129 2.82869 0
M  V30 8443 C 836.848 -0.731446 3.39919 0
M  V30 8444 H 836.171 -0.103738 3.99665 0
M  V30 8445 H 837.611 -1.13891 4.08417 0
M  V30 8446 C 836.07 -1.87984 2.79578 0
M  V30 8447 O 836.6 -2.97496 2.69924 0
M  V30 8448 N 834.806 -1.6789 2.37195 0
M  V30 8449 H 834.353 -0.788162 2.45246 0
M  V30 8450 H 834.311 -2.44894 1.97165 0
M  V30 8451 N 838.083 -1.48885 0.516809 0
M  V30 8452 C 839.013 -2.32241 -0.242157 0
M  V30 8453 C 839.994 -1.41258 -0.947633 0
M  V30 8454 O 841.179 -1.70156 -0.935973 0
M  V30 8455 C 838.309 -3.22151 -1.29754 0
M  V30 8456 C 837.263 -4.22053 -0.710995 0
M  V30 8457 C 836.589 -5.01007 -1.86806 0
M  V30 8458 C 837.889 -5.21388 0.30853 0
M  V30 8459 H 839.583 -2.95943 0.453651 0
M  V30 8460 H 837.129 -1.42316 0.219612 0
M  V30 8461 H 839.082 -3.79284 -1.83634 0
M  V30 8462 H 837.806 -2.56423 -2.02274 0
M  V30 8463 H 836.465 -3.66087 -0.193819 0
M  V30 8464 H 836.113 -4.31713 -2.58133 0
M  V30 8465 H 835.813 -5.68615 -1.48159 0
M  V30 8466 H 837.337 -5.60989 -2.4109 0
M  V30 8467 H 838.751 -5.73122 -0.142703 0
M  V30 8468 H 837.148 -5.96975 0.611673 0
M  V30 8469 H 838.218 -4.69329 1.21894 0
M  V30 8470 N 839.561 -0.251338 -1.55583 0
M  V30 8471 C 840.493 0.679167 -2.18906 0
M  V30 8472 C 841.506 1.13545 -1.16667 0
M  V30 8473 O 842.695 1.06146 -1.4351 0
M  V30 8474 C 839.795 1.93544 -2.78198 0
M  V30 8475 C 838.968 1.62987 -4.05899 0
M  V30 8476 C 838.027 2.73618 -4.49466 0
M  V30 8477 O 837.053 2.40815 -5.15749 0
M  V30 8478 N 838.255 4.03204 -4.1762 0
M  V30 8479 H 841.02 0.137328 -2.99385 0
M  V30 8480 H 838.581 -0.0714754 -1.61742 0
M  V30 8481 H 840.573 2.66804 -3.04299 0
M  V30 8482 H 839.143 2.38695 -2.0185 0
M  V30 8483 H 838.363 0.732237 -3.8734 0
M  V30 8484 H 839.651 1.40041 -4.89148 0
M  V30 8485 H 839.049 4.32686 -3.64416 0
M  V30 8486 H 837.606 4.72916 -4.48547 0
M  V30 8487 N 841.039 1.57585 0.0217189 0
M  V30 8488 C 841.986 2.07036 1.02004 0
M  V30 8489 C 842.956 0.96106 1.35473 0
M  V30 8490 O 844.141 1.23211 1.45684 0
M  V30 8491 C 841.281 2.56056 2.31364 0
M  V30 8492 C 840.394 3.80805 2.03989 0
M  V30 8493 C 839.529 4.18409 3.27272 0
M  V30 8494 C 838.568 5.36055 2.95486 0
M  V30 8495 N 837.705 5.69056 4.11242 0
M  V30 8496 H 842.545 2.92073 0.591396 0
M  V30 8497 H 840.082 1.44403 0.280384 0
M  V30 8498 H 842.04 2.82548 3.06957 0
M  V30 8499 H 840.67 1.73925 2.71937 0
M  V30 8500 H 839.722 3.61354 1.1886 0
M  V30 8501 H 841.034 4.66512 1.76546 0
M  V30 8502 H 840.188 4.46068 4.11228 0
M  V30 8503 H 838.927 3.31369 3.57835 0
M  V30 8504 H 837.932 5.08142 2.09933 0
M  V30 8505 H 839.157 6.24755 2.66193 0
M  V30 8506 H 837.103 4.84974 4.41742 0
M  V30 8507 H 837.02 6.49288 3.87247 0
M  V30 8508 H 838.288 6.01295 4.96049 0
M  V30 8509 N 842.517 -0.29412 1.54831 0
M  V30 8510 C 843.763 -1.02999 1.74697 0
M  V30 8511 C 844.096 -1.86687 0.534949 0
M  V30 8512 O 843.371 -1.88789 -0.467863 0
M  V30 8513 C 843.654 -1.93024 3.03996 0
M  V30 8514 C 843.507 -1.1247 4.35512 0
M  V30 8515 C 844.826 -2.92085 3.29203 0
M  V30 8516 H 841.945 -0.373039 0.635618 0
M  V30 8517 H 844.587 -0.304065 1.87551 0
M  V30 8518 H 842.737 -2.5492 2.93169 0
M  V30 8519 H 844.409 -0.528067 4.58268 0
M  V30 8520 H 842.652 -0.427574 4.31688 0
M  V30 8521 H 843.323 -1.78728 5.22265 0
M  V30 8522 H 845.799 -2.40319 3.39685 0
M  V30 8523 H 844.675 -3.52234 4.20978 0
M  V30 8524 H 844.936 -3.66107 2.47827 0
M  V30 8525 N 843.995 -1.47404 -0.557645 0
M  V30 8526 C 844.925 -1.62736 -1.67449 0
M  V30 8527 C 845.906 -0.476824 -1.6328 0
M  V30 8528 O 847.091 -0.706108 -1.80908 0
M  V30 8529 C 844.221 -1.641 -3.06086 0
M  V30 8530 C 843.175 -2.78377 -3.25101 0
M  V30 8531 C 842.501 -2.64812 -4.6452 0
M  V30 8532 C 843.801 -4.19971 -3.10518 0
M  V30 8533 H 845.495 -2.56232 -1.54873 0
M  V30 8534 H 843.041 -1.23312 -0.743649 0
M  V30 8535 H 844.994 -1.73417 -3.84063 0
M  V30 8536 H 843.718 -0.671652 -3.19619 0
M  V30 8537 H 842.377 -2.6857 -2.49531 0
M  V30 8538 H 842.025 -1.65906 -4.74852 0
M  V30 8539 H 841.725 -3.41477 -4.78191 0
M  V30 8540 H 843.249 -2.76057 -5.44633 0
M  V30 8541 H 844.663 -4.30757 -3.78313 0
M  V30 8542 H 843.06 -4.97419 -3.35699 0
M  V30 8543 H 844.13 -4.38369 -2.0727 0
M  V30 8544 N 845.473 0.80434 -1.35529 0
M  V30 8545 C 846.383 1.94784 -1.30753 0
M  V30 8546 C 847.399 1.72703 -0.212071 0
M  V30 8547 O 848.575 1.96494 -0.441841 0
M  V30 8548 C 845.64 3.29406 -1.08133 0
M  V30 8549 C 844.701 3.64367 -2.27013 0
M  V30 8550 C 843.934 4.92566 -2.05463 0
M  V30 8551 O 844.157 5.61166 -1.02222 0
M  V30 8552 O 843.091 5.25838 -2.92879 0
M  V30 8553 H 846.917 2.01761 -2.26994 0
M  V30 8554 H 844.502 0.942448 -1.15924 0
M  V30 8555 H 846.384 4.09995 -0.973756 0
M  V30 8556 H 845.059 3.23355 -0.149444 0
M  V30 8557 H 843.966 2.84146 -2.43335 0
M  V30 8558 H 845.299 3.75125 -3.18656 0
M  V30 8559 N 846.951 1.19563 1.02676 0
M  V30 8560 C 848.176 1.02556 1.80269 0
M  V30 8561 C 848.601 -0.421056 1.83327 0
M  V30 8562 O 847.959 -1.30279 1.26084 0
M  V30 8563 C 848.007 1.60165 3.23078 0
M  V30 8564 O 847.111 0.832404 4.03912 0
M  V30 8565 H 846.452 0.362354 0.556413 0
M  V30 8566 H 848.982 1.58633 1.29216 0
M  V30 8567 H 848.992 1.6347 3.7382 0
M  V30 8568 H 847.667 2.65454 3.20167 0
M  V30 8569 H 846.244 0.872768 3.62543 0
M  V30 8570 N 848.429 -1.21819 0.999893 0
M  V30 8571 C 849.339 -2.27691 0.565159 0
M  V30 8572 C 850.355 -1.69587 -0.389398 0
M  V30 8573 O 851.531 -1.99786 -0.254499 0
M  V30 8574 C 848.596 -3.46537 -0.106432 0
M  V30 8575 C 847.657 -4.19932 0.891964 0
M  V30 8576 C 846.89 -5.33103 0.252327 0
M  V30 8577 O 847.113 -5.62398 -0.952103 0
M  V30 8578 O 846.047 -5.94184 0.960698 0
M  V30 8579 H 849.873 -2.67059 1.44613 0
M  V30 8580 H 847.458 -1.28119 0.768499 0
M  V30 8581 H 849.34 -4.18631 -0.482301 0
M  V30 8582 H 848.015 -3.09079 -0.961865 0
M  V30 8583 H 846.922 -3.5008 1.3189 0
M  V30 8584 H 848.255 -4.61287 1.71682 0
M  V30 8585 N 849.908 -0.773975 -1.37286 0
M  V30 8586 C 850.818 -0.162571 -2.34036 0
M  V30 8587 C 851.834 0.677022 -1.60289 0
M  V30 8588 O 853.01 0.596423 -1.92366 0
M  V30 8589 C 850.075 0.70457 -3.39465 0
M  V30 8590 C 849.136 -0.151738 -4.29032 0
M  V30 8591 C 848.369 0.674111 -5.29426 0
M  V30 8592 O 848.592 1.91107 -5.37433 0
M  V30 8593 O 847.526 0.0821398 -6.01844 0
M  V30 8594 H 851.352 -0.962119 -2.88057 0
M  V30 8595 H 848.937 -0.53517 -1.39486 0
M  V30 8596 H 850.819 1.19954 -4.03967 0
M  V30 8597 H 849.494 1.48227 -2.87768 0
M  V30 8598 H 848.401 -0.693118 -3.67623 0
M  V30 8599 H 849.734 -0.892575 -4.84039 0
M  V30 8600 N 851.386 1.48609 -0.524698 0
M  V30 8601 C 852.634 2.02097 0.0112991 0
M  V30 8602 C 852.955 1.40455 1.35268 0
M  V30 8603 O 852.225 0.56807 1.87483 0
M  V30 8604 H 850.805 0.746966 0.00716426 0
M  V30 8605 H 853.467 1.82378 -0.687329 0
M  V30 8606 H 852.563 3.11855 0.123531 0
M  V30 8607 N 852.864 0.259585 1.55447 0
M  V30 8608 C 854.28 -0.094961 1.59317 0
M  V30 8609 C 854.48 -1.55884 1.2768 0
M  V30 8610 O 853.536 -2.30528 1.0302 0
M  V30 8611 C 854.849 0.265669 2.99524 0
M  V30 8612 C 856.397 0.211007 3.12288 0
M  V30 8613 C 856.872 0.545851 4.54736 0
M  V30 8614 N 858.363 0.496823 4.60528 0
M  V30 8615 C 859.098 0.728909 5.68748 0
M  V30 8616 N 858.594 1.02479 6.85179 0
M  V30 8617 N 860.387 0.658756 5.58226 0
M  V30 8618 H 852.538 1.2141 1.7428 0
M  V30 8619 H 854.801 0.489404 0.811904 0
M  V30 8620 H 854.507 1.28316 3.27457 0
M  V30 8621 H 854.381 -0.401089 3.75061 0
M  V30 8622 H 856.768 -0.797172 2.84129 0
M  V30 8623 H 856.849 0.911799 2.38998 0
M  V30 8624 H 856.493 1.55164 4.83618 0
M  V30 8625 H 856.423 -0.17656 5.26304 0
M  V30 8626 H 858.914 0.277376 3.76881 0
M  V30 8627 H 859.227 1.18897 7.63599 0
M  V30 8628 H 857.572 1.0624 6.86832 0
M  V30 8629 H 860.763 0.427553 4.66143 0
M  V30 8630 H 860.936 0.84302 6.42493 0
M  V30 8631 N 854.342 -1.57594 -0.0133615 0
M  V30 8632 C 855.758 -1.5527 -0.369255 0
M  V30 8633 C 855.958 -0.987751 -1.7563 0
M  V30 8634 O 855.014 -0.615683 -2.44879 0
M  V30 8635 C 856.327 -2.99602 -0.25672 0
M  V30 8636 C 857.875 -3.11227 -0.332647 0
M  V30 8637 C 858.35 -4.57321 -0.249387 0
M  V30 8638 N 859.841 -4.62177 -0.3077 0
M  V30 8639 C 860.576 -5.72781 -0.26641 0
M  V30 8640 N 860.072 -6.92575 -0.176494 0
M  V30 8641 N 861.865 -5.61204 -0.317295 0
M  V30 8642 H 854.016 -1.92662 0.894154 0
M  V30 8643 H 856.279 -0.884352 0.341505 0
M  V30 8644 H 855.985 -3.44723 0.697072 0
M  V30 8645 H 855.859 -3.6246 -1.04415 0
M  V30 8646 H 858.246 -2.66045 -1.27688 0
M  V30 8647 H 858.327 -2.51171 0.484412 0
M  V30 8648 H 857.971 -5.03174 0.691242 0
M  V30 8649 H 857.901 -5.15306 -1.08476 0
M  V30 8650 H 860.392 -3.75994 -0.379069 0
M  V30 8651 H 860.705 -7.72653 -0.150518 0
M  V30 8652 H 859.05 -6.94854 -0.142314 0
M  V30 8653 H 862.241 -4.66509 -0.385643 0
M  V30 8654 H 862.414 -6.47388 -0.28165 0
M  V30 8655 N 855.82 0.285905 -1.54985 0
M  V30 8656 C 856.73 1.37534 -1.90057 0
M  V30 8657 C 857.746 1.54707 -0.796348 0
M  V30 8658 O 858.922 1.69082 -1.09423 0
M  V30 8659 C 855.987 2.7167 -2.15398 0
M  V30 8660 C 855.048 2.63354 -3.39033 0
M  V30 8661 C 854.281 3.91093 -3.63155 0
M  V30 8662 O 854.504 4.91169 -2.90015 0
M  V30 8663 O 853.438 3.92075 -4.56685 0
M  V30 8664 H 857.264 1.10791 -2.8277 0
M  V30 8665 H 854.849 0.483303 -1.41367 0
M  V30 8666 H 856.731 3.51006 -2.33179 0
M  V30 8667 H 855.406 2.98226 -1.25868 0
M  V30 8668 H 854.313 1.82438 -3.26599 0
M  V30 8669 H 855.646 2.41749 -4.2874 0
M  V30 8670 N 857.298 1.47698 0.54982 0
M  V30 8671 C 858.528 1.58101 1.32995 0
M  V30 8672 C 858.936 0.232939 1.87761 0
M  V30 8673 O 858.279 -0.785058 1.6608 0
M  V30 8674 C 858.341 2.55228 2.53178 0
M  V30 8675 C 858.005 4.00756 2.19645 0
M  V30 8676 C 859.002 4.89025 1.76496 0
M  V30 8677 C 856.687 4.46147 2.30777 0
M  V30 8678 C 858.681 6.20707 1.44919 0
M  V30 8679 C 856.368 5.77856 1.98812 0
M  V30 8680 C 857.366 6.64957 1.55952 0
M  V30 8681 O 857.054 7.94217 1.24396 0
M  V30 8682 H 856.786 0.536362 0.411451 0
M  V30 8683 H 859.34 1.94092 0.67212 0
M  V30 8684 H 857.57 2.14319 3.21876 0
M  V30 8685 H 859.259 2.55678 3.15251 0
M  V30 8686 H 860.025 4.55201 1.67383 0
M  V30 8687 H 855.904 3.78552 2.63096 0
M  V30 8688 H 859.448 6.88649 1.11392 0
M  V30 8689 H 855.345 6.11219 2.0756 0
M  V30 8690 H 856.113 8.06789 1.37964 0
M  V30 8691 N 858.776 -0.797141 1.35954 0
M  V30 8692 C 859.706 -1.92387 1.32323 0
M  V30 8693 C 860.687 -1.68967 0.196007 0
M  V30 8694 O 861.872 -1.90193 0.39245 0
M  V30 8695 C 859.002 -3.29286 1.10398 0
M  V30 8696 C 857.956 -3.67212 2.19862 0
M  V30 8697 C 857.282 -5.02377 1.8309 0
M  V30 8698 C 858.582 -3.76602 3.61896 0
M  V30 8699 H 860.276 -1.95683 2.26602 0
M  V30 8700 H 857.822 -0.94007 1.09081 0
M  V30 8701 H 859.775 -4.07721 1.06495 0
M  V30 8702 H 858.499 -3.26358 0.125668 0
M  V30 8703 H 857.158 -2.91069 2.22878 0
M  V30 8704 H 856.806 -4.95961 0.838527 0
M  V30 8705 H 856.506 -5.28722 2.56372 0
M  V30 8706 H 858.03 -5.8324 1.80729 0
M  V30 8707 H 859.444 -4.45246 3.6115 0
M  V30 8708 H 857.841 -4.14425 4.34018 0
M  V30 8709 H 858.911 -2.77906 3.97361 0
M  V30 8710 N 860.254 -1.20106 -1.0204 0
M  V30 8711 C 861.217 -0.948261 -2.08664 0
M  V30 8712 C 862.217 0.0746753 -1.60627 0
M  V30 8713 O 863.407 -0.160981 -1.73455 0
M  V30 8714 C 860.539 -0.426854 -3.38217 0
M  V30 8715 H 861.732 -1.894 -2.32524 0
M  V30 8716 H 859.285 -1.0159 -1.18782 0
M  V30 8717 H 860.02 0.524532 -3.2003 0
M  V30 8718 H 859.805 -1.16451 -3.74408 0
M  V30 8719 H 861.295 -0.269346 -4.1673 0
M  V30 8720 N 861.732 1.21287 -1.00634 0
M  V30 8721 C 862.979 1.90389 -0.6898 0
M  V30 8722 C 863.307 1.78193 0.779574 0
M  V30 8723 O 862.562 1.15358 1.58085 0
M  V30 8724 C 862.861 3.41374 -1.05824 0
M  V30 8725 C 862.527 3.73766 -2.5221 0
M  V30 8726 C 861.189 3.82317 -2.92211 0
M  V30 8727 C 863.541 3.88871 -3.47028 0
M  V30 8728 C 860.869 4.03423 -4.2599 0
M  V30 8729 C 863.221 4.11484 -4.80483 0
M  V30 8730 C 861.885 4.18263 -5.20204 0
M  V30 8731 H 861.155 0.696683 -0.252416 0
M  V30 8732 H 863.802 1.43769 -1.26502 0
M  V30 8733 H 862.107 3.8974 -0.401281 0
M  V30 8734 H 863.804 3.93118 -0.79116 0
M  V30 8735 H 860.394 3.67702 -2.20212 0
M  V30 8736 H 864.578 3.8163 -3.17289 0
M  V30 8737 H 859.834 4.06902 -4.56334 0
M  V30 8738 H 864.008 4.22115 -5.53888 0
M  V30 8739 H 861.635 4.34369 -6.23881 0
M  V30 8740 N 863.21 0.781244 1.36873 0
M  V30 8741 C 864.621 0.414093 1.8205 0
M  V30 8742 C 864.972 -1.06098 1.65039 0
M  V30 8743 O 864.097 -1.82251 1.16677 0
M  V30 8744 C 864.692 0.744837 3.30511 0
M  V30 8745 C 863.251 0.430621 3.73929 0
M  V30 8746 C 862.398 0.983746 2.59264 0
M  V30 8747 H 865.349 0.975091 1.2521 0
M  V30 8748 H 865.37 0.032936 3.80486 0
M  V30 8749 H 864.882 1.81847 3.42861 0
M  V30 8750 H 862.983 -0.635308 3.67144 0
M  V30 8751 H 863.096 0.945514 4.69677 0
M  V30 8752 H 861.46 0.407433 2.5142 0
M  V30 8753 H 862.243 2.06297 2.74402 0
M  V30 8754 N 864.689 -1.48329 0.532571 0
M  V30 8755 C 865.917 -2.069 0.00354299 0
M  V30 8756 C 866.332 -1.38876 -1.27902 0
M  V30 8757 O 865.689 -0.477119 -1.76153 0
M  V30 8758 C 865.74 -3.60821 -0.221416 0
M  V30 8759 O 865.461 -4.26291 1.01034 0
M  V30 8760 C 866.962 -4.36194 -0.790531 0
M  V30 8761 H 864.182 -0.670103 0.0346836 0
M  V30 8762 H 866.726 -1.90682 0.738955 0
M  V30 8763 H 864.881 -3.76636 -0.906884 0
M  V30 8764 H 865.295 -5.18475 0.792683 0
M  V30 8765 H 866.769 -5.44657 -0.897347 0
M  V30 8766 H 867.246 -4.00798 -1.79605 0
M  V30 8767 H 867.852 -4.25064 -0.141546 0
M  V30 8768 N 866.167 -0.267825 -1.55308 0
M  V30 8769 C 867.392 0.357487 -2.04296 0
M  V30 8770 C 867.817 1.49222 -1.14518 0
M  V30 8771 O 867.175 1.80741 -0.142292 0
M  V30 8772 C 867.223 0.822899 -3.51085 0
M  V30 8773 O 866.327 1.93078 -3.6441 0
M  V30 8774 H 865.668 0.075025 -0.659748 0
M  V30 8775 H 868.198 -0.399996 -2.00652 0
M  V30 8776 H 868.208 1.12059 -3.92309 0
M  V30 8777 H 866.883 -0.0073562 -4.15899 0
M  V30 8778 H 865.46 1.63618 -3.35087 0
M  V30 8779 N 867.645 1.57599 0.00500368 0
M  V30 8780 C 868.592 2.08106 0.998025 0
M  V30 8781 C 869.562 0.975374 1.34446 0
M  V30 8782 O 870.747 1.24749 1.44369 0
M  V30 8783 C 867.887 2.58496 2.28635 0
M  V30 8784 C 867 3.82947 1.99939 0
M  V30 8785 C 866.135 4.21857 3.22816 0
M  V30 8786 C 865.174 5.39159 2.89783 0
M  V30 8787 N 864.311 5.73386 4.05183 0
M  V30 8788 H 869.151 2.92684 0.560385 0
M  V30 8789 H 866.688 1.44692 0.265053 0
M  V30 8790 H 868.646 2.85787 3.03943 0
M  V30 8791 H 867.276 1.768 2.70077 0
M  V30 8792 H 866.328 3.62594 1.1502 0
M  V30 8793 H 867.64 4.68358 1.71588 0
M  V30 8794 H 866.794 4.50404 4.06474 0
M  V30 8795 H 865.533 3.35145 3.54301 0
M  V30 8796 H 864.538 5.1034 2.04532 0
M  V30 8797 H 865.763 6.27543 2.59551 0
M  V30 8798 H 863.709 4.89632 4.36574 0
M  V30 8799 H 863.626 6.53359 3.80339 0
M  V30 8800 H 864.894 6.06522 4.89644 0
M  V30 8801 N 869.123 -0.277682 1.55134 0
M  V30 8802 C 870.348 -1.03254 1.7987 0
M  V30 8803 C 870.773 -1.79324 0.567861 0
M  V30 8804 O 870.131 -1.74764 -0.4824 0
M  V30 8805 C 870.179 -1.9705 3.02 0
M  V30 8806 O 869.283 -3.05744 2.76757 0
M  V30 8807 H 868.624 -0.295447 0.594649 0
M  V30 8808 H 871.154 -0.308013 2.02268 0
M  V30 8809 H 871.164 -2.3909 3.30606 0
M  V30 8810 H 869.839 -1.41094 3.91236 0
M  V30 8811 H 868.416 -2.68052 2.59235 0
M  V30 8812 N 870.601 -1.47988 -0.541979 0
M  V30 8813 C 871.826 -1.59286 -1.32826 0
M  V30 8814 C 872.251 -0.24894 -1.86445 0
M  V30 8815 O 871.609 0.777581 -1.63778 0
M  V30 8816 C 871.657 -2.6334 -2.46343 0
M  V30 8817 O 870.761 -2.19667 -3.49028 0
M  V30 8818 H 870.102 -0.534543 -0.393903 0
M  V30 8819 H 872.632 -1.93885 -0.653427 0
M  V30 8820 H 872.642 -2.84238 -2.92699 0
M  V30 8821 H 871.317 -3.60913 -2.06675 0
M  V30 8822 H 869.894 -2.08932 -3.08872 0
M  V30 8823 N 872.079 0.78992 -1.36375 0
M  V30 8824 C 873.327 1.54472 -1.30319 0
M  V30 8825 C 873.648 1.94647 0.117338 0
M  V30 8826 O 872.918 1.64906 1.05748 0
M  V30 8827 H 871.498 0.572879 -0.479394 0
M  V30 8828 H 874.16 0.941245 -1.70665 0
M  V30 8829 H 873.256 2.45252 -1.93024 0
M  V30 8830 N 873.557 1.20646 1.01402 0
M  V30 8831 C 874.489 0.915392 2.10127 0
M  V30 8832 C 875.502 -0.0978705 1.62506 0
M  V30 8833 O 876.691 0.133477 1.78 0
M  V30 8834 C 873.791 0.351304 3.37074 0
M  V30 8835 C 872.964 1.41673 4.13821 0
M  V30 8836 C 872.023 0.8635 5.19067 0
M  V30 8837 O 871.049 1.54481 5.47836 0
M  V30 8838 N 872.251 -0.325799 5.79585 0
M  V30 8839 H 875.016 1.85132 2.35682 0
M  V30 8840 H 872.577 1.11048 1.17813 0
M  V30 8841 H 874.569 -0.032996 4.04687 0
M  V30 8842 H 873.139 -0.489242 3.08748 0
M  V30 8843 H 872.359 1.97526 3.41141 0
M  V30 8844 H 873.647 2.1342 4.61876 0
M  V30 8845 H 873.045 -0.896534 5.58551 0
M  V30 8846 H 871.602 -0.651708 6.48534 0
M  V30 8847 N 875.035 -1.20752 1.01276 0
M  V30 8848 C 875.982 -2.234 0.579732 0
M  V30 8849 C 876.952 -1.61256 -0.398206 0
M  V30 8850 O 878.137 -1.8845 -0.29851 0
M  V30 8851 C 875.277 -3.45008 -0.0797006 0
M  V30 8852 C 874.39 -4.21597 0.942343 0
M  V30 8853 C 873.525 -5.30591 0.254364 0
M  V30 8854 C 872.564 -5.98919 1.26343 0
M  V30 8855 N 871.701 -6.99511 0.602384 0
M  V30 8856 H 876.541 -2.59801 1.45971 0
M  V30 8857 H 874.078 -1.27663 0.730787 0
M  V30 8858 H 876.036 -4.1444 -0.479125 0
M  V30 8859 H 874.666 -3.09312 -0.923354 0
M  V30 8860 H 873.718 -3.51268 1.45996 0
M  V30 8861 H 875.03 -4.68576 1.70992 0
M  V30 8862 H 874.184 -6.06368 -0.200763 0
M  V30 8863 H 872.923 -4.84639 -0.545553 0
M  V30 8864 H 871.928 -5.21906 1.72898 0
M  V30 8865 H 873.153 -6.46957 2.06456 0
M  V30 8866 H 871.099 -6.55759 -0.177734 0
M  V30 8867 H 871.016 -7.44597 1.30809 0
M  V30 8868 H 872.284 -7.79313 0.17072 0
M  V30 8869 N 876.513 -0.788492 -1.36457 0
M  V30 8870 C 877.761 -0.359749 -1.98872 0
M  V30 8871 C 878.082 1.07197 -1.62892 0
M  V30 8872 O 877.352 1.73875 -0.902463 0
M  V30 8873 H 875.932 -0.130029 -0.735596 0
M  V30 8874 H 878.594 -1.01033 -1.66668 0
M  V30 8875 H 877.69 -0.450835 -3.08827 0
M  V30 8876 N 877.991 1.48044 -0.54043 0
M  V30 8877 C 879.407 1.58354 -0.199006 0
M  V30 8878 C 879.607 1.54118 1.29807 0
M  V30 8879 O 878.663 1.43573 2.07709 0
M  V30 8880 C 879.976 2.89563 -0.810797 0
M  V30 8881 C 881.524 3.03113 -0.780486 0
M  V30 8882 C 881.999 4.36997 -1.37104 0
M  V30 8883 N 883.49 4.43591 -1.33347 0
M  V30 8884 C 884.225 5.45714 -1.76021 0
M  V30 8885 N 883.721 6.54738 -2.26473 0
M  V30 8886 N 885.514 5.36659 -1.67194 0
M  V30 8887 H 877.665 1.49041 -1.51329 0
M  V30 8888 H 879.928 0.708309 -0.630081 0
M  V30 8889 H 879.634 2.9835 -1.86227 0
M  V30 8890 H 879.508 3.76053 -0.293977 0
M  V30 8891 H 881.895 2.93932 0.262246 0
M  V30 8892 H 881.976 2.18207 -1.33489 0
M  V30 8893 H 881.62 4.46932 -2.41276 0
M  V30 8894 H 881.55 5.20607 -0.792229 0
M  V30 8895 H 884.041 3.65391 -0.964259 0
M  V30 8896 H 884.354 7.28814 -2.57002 0
M  V30 8897 H 882.699 6.55673 -2.30473 0
M  V30 8898 H 885.89 4.50382 -1.27569 0
M  V30 8899 H 886.063 6.16113 -2.00771 0
M  V30 8900 N 879.47 0.276058 1.55163 0
M  V30 8901 C 880.417 -0.611006 2.22565 0
M  V30 8902 C 881.387 -1.14902 1.19945 0
M  V30 8903 O 882.572 -1.19815 1.48489 0
M  V30 8904 C 879.712 -1.78885 2.95117 0
M  V30 8905 C 878.825 -1.2846 4.12458 0
M  V30 8906 C 877.96 -2.42432 4.72652 0
M  V30 8907 C 876.999 -1.89015 5.82185 0
M  V30 8908 N 876.136 -2.96463 6.36439 0
M  V30 8909 H 880.976 -0.0295849 2.97985 0
M  V30 8910 H 878.513 -0.00283607 1.471 0
M  V30 8911 H 880.471 -2.48121 3.35398 0
M  V30 8912 H 879.101 -2.34229 2.22119 0
M  V30 8913 H 878.153 -0.485312 3.77292 0
M  V30 8914 H 879.465 -0.853358 4.91446 0
M  V30 8915 H 878.619 -3.19659 5.15658 0
M  V30 8916 H 877.358 -2.88872 3.92943 0
M  V30 8917 H 876.363 -1.10267 5.38629 0
M  V30 8918 H 877.588 -1.43509 6.63763 0
M  V30 8919 H 875.534 -3.42283 5.59623 0
M  V30 8920 H 875.451 -2.57759 7.10701 0
M  V30 8921 H 876.719 -3.73663 6.84103 0
M  V30 8922 N 880.948 -1.576 0.00335426 0
M  V30 8923 C 881.858 -2.12067 -1.00322 0
M  V30 8924 C 882.874 -1.06672 -1.37467 0
M  V30 8925 O 884.05 -1.38592 -1.46131 0
M  V30 8926 C 881.115 -2.61593 -2.27531 0
M  V30 8927 C 880.176 -3.81602 -1.96668 0
M  V30 8928 C 879.409 -4.28756 -3.17811 0
M  V30 8929 O 879.632 -3.75222 -4.2961 0
M  V30 8930 O 878.566 -5.20877 -3.01613 0
M  V30 8931 H 882.392 -2.98299 -0.570199 0
M  V30 8932 H 879.977 -1.47835 -0.215682 0
M  V30 8933 H 881.859 -2.93631 -3.02256 0
M  V30 8934 H 880.534 -1.78457 -2.70065 0
M  V30 8935 H 879.441 -3.54531 -1.19408 0
M  V30 8936 H 880.774 -4.65822 -1.58968 0
M  V30 8937 N 882.426 0.269451 -1.5528 0
M  V30 8938 C 883.356 1.33729 -1.91413 0
M  V30 8939 C 884.337 1.51348 -0.776391 0
M  V30 8940 O 885.522 1.64332 -1.03482 0
M  V30 8941 C 882.652 2.69618 -2.18914 0
M  V30 8942 C 881.606 2.66725 -3.34726 0
M  V30 8943 C 880.932 4.06199 -3.47716 0
M  V30 8944 C 882.232 2.25684 -4.71025 0
M  V30 8945 H 883.926 1.03736 -2.80854 0
M  V30 8946 H 881.472 0.497579 -1.3513 0
M  V30 8947 H 883.425 3.44436 -2.42779 0
M  V30 8948 H 882.149 3.01201 -1.26275 0
M  V30 8949 H 880.808 1.94365 -3.10834 0
M  V30 8950 H 880.456 4.3501 -2.52537 0
M  V30 8951 H 880.156 4.05157 -4.25583 0
M  V30 8952 H 881.68 4.8275 -3.73877 0
M  V30 8953 H 883.094 2.90225 -4.94411 0
M  V30 8954 H 881.491 2.35797 -5.51833 0
M  V30 8955 H 882.561 1.20819 -4.69607 0
M  V30 8956 N 883.904 1.48273 0.534124 0
M  V30 8957 C 884.834 1.6538 1.64839 0
M  V30 8958 C 885.815 0.502741 1.62501 0
M  V30 8959 O 887 0.734799 1.79762 0
M  V30 8960 C 884.13 1.68949 3.03436 0
M  V30 8961 C 883.084 2.83513 3.20631 0
M  V30 8962 C 882.41 2.72169 4.60248 0
M  V30 8963 C 883.71 4.24858 3.03797 0
M  V30 8964 H 885.404 2.58663 1.50777 0
M  V30 8965 H 882.95 1.24479 0.723937 0
M  V30 8966 H 884.903 1.79505 3.81256 0
M  V30 8967 H 883.627 0.722415 3.1851 0
M  V30 8968 H 882.286 2.72505 2.45227 0
M  V30 8969 H 881.934 1.7344 4.72152 0
M  V30 8970 H 881.634 3.49042 4.72698 0
M  V30 8971 H 883.158 2.84687 5.40172 0
M  V30 8972 H 884.572 4.36721 3.71413 0
M  V30 8973 H 882.969 5.02697 3.27743 0
M  V30 8974 H 884.039 4.41611 2.0027 0
M  V30 8975 N 885.382 -0.782676 1.36792 0
M  V30 8976 C 886.329 -1.89558 1.31667 0
M  V30 8977 C 887.299 -1.65076 0.184147 0
M  V30 8978 O 888.484 -1.87143 0.371753 0
M  V30 8979 C 885.624 -3.26469 1.11858 0
M  V30 8980 C 884.737 -3.62978 2.34245 0
M  V30 8981 C 883.872 -4.89041 2.07394 0
M  V30 8982 C 882.911 -5.18249 3.25706 0
M  V30 8983 N 882.048 -6.35497 2.98476 0
M  V30 8984 H 886.888 -1.93274 2.26824 0
M  V30 8985 H 884.425 -0.945057 1.12726 0
M  V30 8986 H 886.383 -4.05431 0.983968 0
M  V30 8987 H 885.013 -3.22158 0.203531 0
M  V30 8988 H 884.065 -2.79087 2.58485 0
M  V30 8989 H 885.377 -3.80507 3.22514 0
M  V30 8990 H 884.531 -5.75883 1.90901 0
M  V30 8991 H 883.27 -4.73594 1.16446 0
M  V30 8992 H 882.275 -4.29887 3.4275 0
M  V30 8993 H 883.5 -5.35611 4.1749 0
M  V30 8994 H 881.446 -6.21429 2.10146 0
M  V30 8995 H 881.363 -6.5339 3.80286 0
M  V30 8996 H 882.631 -7.25304 2.85577 0
M  V30 8997 N 886.86 -1.21182 -1.00761 0
M  V30 8998 C 888.108 -1.02543 -1.74153 0
M  V30 8999 C 888.429 0.442372 -1.89916 0
M  V30 9000 O 887.699 1.31927 -1.44818 0
M  V30 9001 H 886.279 -0.37644 -0.645214 0
M  V30 9002 H 888.941 -1.52446 -1.21434 0
M  V30 9003 H 888.037 -1.49122 -2.7417 0
M  V30 9004 N 888.338 1.20213 -1.01915 0
M  V30 9005 C 889.286 2.25125 -0.584936 0
M  V30 9006 C 890.28 1.65138 0.377602 0
M  V30 9007 O 891.486 1.78294 0.247245 0
M  V30 9008 H 887.861 0.732333 -0.170858 0
M  V30 9009 H 889.832 2.59075 -1.48063 0
M  V30 9010 C 888.581 3.47651 0.058389 0
M  V30 9011 H 887.904 3.9409 -0.673263 0
M  V30 9012 H 889.344 4.2275 0.325285 0
M  V30 9013 C 887.803 3.10725 1.30199 0
M  V30 9014 O 888.333 3.22491 2.39505 0
M  V30 9015 N 886.539 2.6525 1.18706 0
M  V30 9016 H 886.086 2.55875 0.297618 0
M  V30 9017 H 886.044 2.40913 2.02011 0
M  V30 9018 N 889.816 0.795718 1.36037 0
M  V30 9019 C 891.064 0.370291 1.98679 0
M  V30 9020 C 891.385 -1.06332 1.63458 0
M  V30 9021 O 890.655 -1.73394 0.911671 0
M  V30 9022 H 889.235 0.133928 0.734896 0
M  V30 9023 H 891.897 1.01915 1.6613 0
M  V30 9024 H 890.993 0.467207 3.08583 0
M  V30 9025 N 891.294 -1.47756 0.548274 0
M  V30 9026 C 892.71 -1.58247 0.207401 0
M  V30 9027 C 892.91 -1.54804 -1.28988 0
M  V30 9028 O 891.966 -1.44673 -2.06944 0
M  V30 9029 C 893.279 -2.89129 0.826142 0
M  V30 9030 C 894.827 -3.02695 0.79655 0
M  V30 9031 C 895.302 -4.36264 1.3942 0
M  V30 9032 N 896.793 -4.42877 1.35698 0
M  V30 9033 C 897.528 -5.44773 1.78913 0
M  V30 9034 N 897.024 -6.53528 2.29942 0
M  V30 9035 N 898.817 -5.35765 1.70038 0
M  V30 9036 H 890.968 -1.48236 1.52117 0
M  V30 9037 H 893.231 -0.704957 0.633829 0
M  V30 9038 H 892.937 -2.97358 1.87806 0
M  V30 9039 H 892.811 -3.75891 0.313916 0
M  V30 9040 H 895.198 -2.94067 -0.246655 0
M  V30 9041 H 895.279 -2.17496 1.34644 0
M  V30 9042 H 894.923 -4.45646 2.43642 0
M  V30 9043 H 894.853 -5.20179 0.819827 0
M  V30 9044 H 897.344 -3.64874 0.983623 0
M  V30 9045 H 897.657 -7.27441 2.60863 0
M  V30 9046 H 896.002 -6.54442 2.33947 0
M  V30 9047 H 899.193 -4.49699 1.29955 0
M  V30 9048 H 899.366 -6.1504 2.04035 0
M  V30 9049 N 892.772 -0.284283 -1.55015 0
M  V30 9050 C 894.188 0.069603 -1.59448 0
M  V30 9051 C 894.388 1.53833 -1.30144 0
M  V30 9052 O 893.444 2.2886 -1.06674 0
M  V30 9053 C 894.757 -0.313287 -2.99064 0
M  V30 9054 C 896.305 -0.260662 -3.11913 0
M  V30 9055 C 896.78 -0.618127 -4.5381 0
M  V30 9056 N 898.271 -0.570026 -4.59679 0
M  V30 9057 C 899.006 -0.8193 -5.67517 0
M  V30 9058 N 898.502 -1.13367 -6.83462 0
M  V30 9059 N 900.295 -0.747482 -5.57108 0
M  V30 9060 H 892.446 -1.24167 -1.72326 0
M  V30 9061 H 894.709 -0.502259 -0.804015 0
M  V30 9062 H 894.415 -1.33509 -3.25374 0
M  V30 9063 H 894.289 0.341369 -3.75652 0
M  V30 9064 H 896.676 0.751869 -2.85361 0
M  V30 9065 H 896.757 -0.949706 -2.37517 0
M  V30 9066 H 896.401 -1.62839 -4.81088 0
M  V30 9067 H 896.331 0.092807 -5.26518 0
M  V30 9068 H 898.822 -0.3373 -3.76392 0
M  V30 9069 H 899.135 -1.3103 -7.61611 0
M  V30 9070 H 897.48 -1.17154 -6.85055 0
M  V30 9071 H 900.671 -0.501658 -4.65404 0
M  V30 9072 H 900.844 -0.945128 -6.4107 0
M  V30 9073 N 894.251 1.57596 -0.0117121 0
M  V30 9074 C 895.5 1.9025 0.669921 0
M  V30 9075 C 895.813 0.887986 1.74282 0
M  V30 9076 O 897.019 1.10516 2.47989 0
M  V30 9077 C 895.475 3.37762 1.24277 0
M  V30 9078 C 895.083 4.47535 0.204076 0
M  V30 9079 C 896.827 3.79509 1.90192 0
M  V30 9080 C 894.734 5.86132 0.787577 0
M  V30 9081 H 893.664 0.709935 0.253984 0
M  V30 9082 H 896.315 1.8335 -0.0741718 0
M  V30 9083 H 894.697 3.39537 2.03791 0
M  V30 9084 H 895.871 4.57294 -0.56733 0
M  V30 9085 H 894.186 4.14881 -0.355305 0
M  V30 9086 H 896.783 4.80402 2.34773 0
M  V30 9087 H 897.126 3.13643 2.7374 0
M  V30 9088 H 897.659 3.80084 1.17394 0
M  V30 9089 H 894.398 6.55499 -0.00938418 0
M  V30 9090 H 893.918 5.80014 1.52787 0
M  V30 9091 H 895.597 6.34158 1.28265 0
M  V30 9092 N 895.729 -0.261212 1.5542 0
M  V30 9093 C 897.006 -1.01321 1.67312 0
M  V30 9094 C 897.386 -2.0388 0.547356 0
M  V30 9095 O 896.734 -2.24003 -0.451083 0
M  V30 9096 C 896.944 -1.65943 3.07024 0
M  V30 9097 C 898.292 -2.16666 3.65159 0
M  V30 9098 O 899.316 -1.75909 3.09733 0
M  V30 9099 O 898.175 -2.91455 4.62294 0
M  V30 9100 H 895.269 -0.470714 0.679968 0
M  V30 9101 H 897.815 -0.256133 1.67756 0
M  V30 9102 H 896.587 -0.916868 3.80407 0
M  V30 9103 H 896.21 -2.48308 3.1053 0
M  V30 9104 N 897.207 -1.48554 -0.526253 0
M  V30 9105 C 898.437 -1.60197 -1.30463 0
M  V30 9106 C 898.845 -0.26278 -1.87366 0
M  V30 9107 O 898.188 0.758537 -1.67308 0
M  V30 9108 C 898.25 -2.59223 -2.49085 0
M  V30 9109 C 897.914 -4.04199 -2.13241 0
M  V30 9110 C 898.911 -4.91771 -1.68694 0
M  V30 9111 C 896.596 -4.49762 -2.2365 0
M  V30 9112 C 898.59 -6.22934 -1.35026 0
M  V30 9113 C 896.277 -5.80945 -1.89594 0
M  V30 9114 C 897.275 -6.67354 -1.45353 0
M  V30 9115 O 896.963 -7.96096 -1.11745 0
M  V30 9116 H 896.695 -0.54284 -0.402866 0
M  V30 9117 H 899.249 -1.95137 -0.641157 0
M  V30 9118 H 897.479 -2.19412 -3.18426 0
M  V30 9119 H 899.168 -2.60661 -3.11144 0
M  V30 9120 H 899.934 -4.57806 -1.6012 0
M  V30 9121 H 895.813 -3.8269 -2.5704 0
M  V30 9122 H 899.357 -6.90334 -1.00422 0
M  V30 9123 H 895.254 -6.14444 -1.9781 0
M  V30 9124 H 896.022 -8.08882 -1.25111 0
M  V30 9125 N 898.685 0.775411 -1.37205 0
M  V30 9126 C 899.618 1.8957 -1.27037 0
M  V30 9127 C 900.596 1.61891 -0.151643 0
M  V30 9128 O 901.78 1.85673 -0.325218 0
M  V30 9129 C 898.907 3.24712 -0.963316 0
M  V30 9130 C 897.953 3.71306 -2.09842 0
M  V30 9131 S 898.786 3.8541 -3.71778 0
M  V30 9132 C 899.942 5.23406 -3.43216 0
M  V30 9133 H 900.175 1.97905 -2.21857 0
M  V30 9134 H 897.708 0.936127 -1.22784 0
M  V30 9135 H 899.666 4.02768 -0.792983 0
M  V30 9136 H 898.327 3.14083 -0.0326561 0
M  V30 9137 H 897.52 4.69271 -1.83849 0
M  V30 9138 H 897.122 3.00341 -2.2287 0
M  V30 9139 H 899.414 6.08454 -2.97977 0
M  V30 9140 H 900.357 5.54409 -4.40495 0
M  V30 9141 H 900.765 4.9117 -2.78231 0
M  V30 9142 N 900.163 1.21714 1.00117 0
M  V30 9143 C 901.093 1.00397 2.10815 0
M  V30 9144 C 902.074 -0.0723502 1.69946 0
M  V30 9145 O 903.259 0.0882398 1.93999 0
M  V30 9146 C 900.389 0.572001 3.42557 0
M  V30 9147 C 899.343 1.59331 3.97237 0
M  V30 9148 C 898.669 1.01746 5.2493 0
M  V30 9149 C 899.969 2.98117 4.28863 0
M  V30 9150 H 901.663 1.92983 2.28906 0
M  V30 9151 H 899.209 0.929273 1.10002 0
M  V30 9152 H 901.162 0.410018 4.19401 0
M  V30 9153 H 899.886 -0.38951 3.24269 0
M  V30 9154 H 898.545 1.74293 3.22518 0
M  V30 9155 H 898.193 0.0475491 5.02978 0
M  V30 9156 H 897.893 1.69969 5.62481 0
M  V30 9157 H 899.417 0.866881 6.04415 0
M  V30 9158 H 900.831 2.86578 4.96534 0
M  V30 9159 H 899.228 3.63389 4.77565 0
M  V30 9160 H 900.298 3.48674 3.36979 0
M  V30 9161 N 901.641 -1.19671 1.02551 0
M  V30 9162 C 902.591 -2.20655 0.574037 0
M  V30 9163 C 903.575 -1.56459 -0.375412 0
M  V30 9164 O 904.767 -1.75901 -0.196929 0
M  V30 9165 C 901.896 -3.43213 -0.0772031 0
M  V30 9166 C 900.982 -4.1456 0.894485 0
M  V30 9167 N 901.373 -4.62147 2.05557 0
M  V30 9168 C 899.671 -4.40196 0.717205 0
M  V30 9169 C 900.372 -5.16899 2.66814 0
M  V30 9170 N 899.348 -5.07496 1.94804 0
M  V30 9171 H 903.15 -2.55124 1.45908 0
M  V30 9172 H 900.664 -1.35707 0.89204 0
M  V30 9173 H 902.661 -4.14797 -0.41824 0
M  V30 9174 H 901.321 -3.10247 -0.957973 0
M  V30 9175 H 902.332 -4.5708 2.43513 0
M  V30 9176 H 899.009 -4.17342 -0.114758 0
M  V30 9177 H 900.399 -5.64032 3.65126 0
M  V30 9178 N 903.119 -0.802921 -1.35613 0
M  V30 9179 C 904.082 -0.216422 -2.28176 0
M  V30 9180 C 905.082 0.594101 -1.49422 0
M  V30 9181 O 906.272 0.41312 -1.6923 0
M  V30 9182 C 903.404 0.698746 -3.33662 0
M  V30 9183 H 904.597 -1.03276 -2.81557 0
M  V30 9184 H 902.15 -0.573307 -1.45406 0
M  V30 9185 H 902.885 1.53891 -2.85461 0
M  V30 9186 H 902.67 0.119314 -3.91918 0
M  V30 9187 H 904.16 1.10354 -4.02755 0
M  V30 9188 N 904.597 1.47463 -0.556102 0
M  V30 9189 C 905.507 2.33785 0.195378 0
M  V30 9190 C 906.523 1.48123 0.913 0
M  V30 9191 O 907.699 1.81053 0.882141 0
M  V30 9192 C 904.764 3.24795 1.21282 0
M  V30 9193 C 903.825 4.26346 0.502747 0
M  V30 9194 C 903.058 5.13007 1.47172 0
M  V30 9195 O 903.281 5.02103 2.70646 0
M  V30 9196 O 902.215 5.93588 0.996814 0
M  V30 9197 H 906.041 2.99341 -0.512676 0
M  V30 9198 H 903.626 1.46004 -0.31673 0
M  V30 9199 H 905.508 3.81015 1.80016 0
M  V30 9200 H 904.183 2.61868 1.90282 0
M  V30 9201 H 903.09 3.73889 -0.125757 0
M  V30 9202 H 904.423 4.91984 -0.145779 0
M  V30 9203 N 906.075 0.2925 1.54862 0
M  V30 9204 C 906.985 -0.597036 2.26876 0
M  V30 9205 C 908.001 -1.15558 1.30086 0
M  V30 9206 O 909.177 -1.18217 1.63054 0
M  V30 9207 C 906.242 -1.75664 2.98903 0
M  V30 9208 C 905.303 -1.23303 4.11212 0
M  V30 9209 C 904.536 -2.33736 4.79795 0
M  V30 9210 O 904.759 -3.53459 4.47686 0
M  V30 9211 O 903.693 -2.00908 5.67379 0
M  V30 9212 H 907.519 -0.0131242 3.03697 0
M  V30 9213 H 905.104 0.0592642 1.49282 0
M  V30 9214 H 906.986 -2.43241 3.4411 0
M  V30 9215 H 905.661 -2.32731 2.24984 0
M  V30 9216 H 904.568 -0.523222 3.70423 0
M  V30 9217 H 905.901 -0.707887 4.87083 0
M  V30 9218 N 907.553 -1.57587 0.0200696 0
M  V30 9219 C 908.801 -1.91046 -0.65922 0
M  V30 9220 C 909.122 -0.896197 -1.73186 0
M  V30 9221 O 908.392 0.0635952 -1.95797 0
M  V30 9222 H 906.972 -0.705163 -0.246483 0
M  V30 9223 H 909.634 -1.94789 0.0657368 0
M  V30 9224 H 908.73 -2.91399 -1.11773 0
M  V30 9225 N 909.032 0.252966 -1.55557 0
M  V30 9226 C 909.962 1.31691 -1.9282 0
M  V30 9227 C 910.943 1.50516 -0.7924 0
M  V30 9228 O 912.128 1.63225 -1.05219 0
M  V30 9229 C 909.258 2.67281 -2.21762 0
M  V30 9230 C 908.212 2.6316 -3.37536 0
M  V30 9231 C 907.538 4.02488 -3.52005 0
M  V30 9232 C 908.838 2.20675 -4.73392 0
M  V30 9233 H 910.532 1.00751 -2.81939 0
M  V30 9234 H 908.078 0.483219 -1.3565 0
M  V30 9235 H 910.031 3.41842 -2.46419 0
M  V30 9236 H 908.755 2.99845 -1.29463 0
M  V30 9237 H 907.414 1.91057 -3.12878 0
M  V30 9238 H 907.062 4.32307 -2.57137 0
M  V30 9239 H 906.762 4.00621 -4.29857 0
M  V30 9240 H 908.286 4.78758 -3.78977 0
M  V30 9241 H 909.7 2.84965 -4.97461 0
M  V30 9242 H 908.097 2.29931 -5.54303 0
M  V30 9243 H 909.167 1.15831 -4.70862 0
M  V30 9244 N 910.51 1.48831 0.518367 0
M  V30 9245 C 911.75 1.59045 1.28391 0
M  V30 9246 C 912.114 0.263443 1.90184 0
M  V30 9247 O 913.315 0.24064 2.67721 0
M  V30 9248 C 911.586 2.70536 2.33548 0
M  V30 9249 S 913.145 3.00591 3.19673 0
M  V30 9250 H 909.963 0.561182 0.436573 0
M  V30 9251 H 912.565 1.86409 0.589222 0
M  V30 9252 H 911.269 3.65499 1.86652 0
M  V30 9253 H 910.8 2.4511 3.07708 0
M  V30 9254 H 912.815 2.40779 4.33866 0
M  V30 9255 N 911.988 -0.768124 1.37614 0
M  V30 9256 C 913.399 -1.34462 1.29525 0
M  V30 9257 C 913.75 -1.96121 -0.0555168 0
M  V30 9258 O 912.875 -1.94069 -0.957406 0
M  V30 9259 C 913.47 -2.44475 2.34558 0
M  V30 9260 C 912.029 -2.97883 2.30093 0
M  V30 9261 C 911.176 -1.71131 2.18196 0
M  V30 9262 H 914.127 -0.568103 1.48183 0
M  V30 9263 H 914.148 -3.24047 1.99434 0
M  V30 9264 H 913.66 -1.99568 3.32858 0
M  V30 9265 H 911.761 -3.47156 1.35328 0
M  V30 9266 H 911.874 -3.53251 3.23652 0
M  V30 9267 H 910.238 -1.94197 1.64802 0
M  V30 9268 H 911.021 -1.28323 3.18415 0
M  V30 9269 N 913.466 -1.22244 -0.994698 0
M  V30 9270 C 914.743 -0.954459 -1.70732 0
M  V30 9271 C 915.123 0.530945 -2.04314 0
M  V30 9272 O 914.471 1.49851 -1.72502 0
M  V30 9273 C 914.681 -1.85016 -2.95922 0
M  V30 9274 C 916.029 -2.10517 -3.68738 0
M  V30 9275 O 917.053 -1.82449 -3.05926 0
M  V30 9276 O 915.912 -2.58044 -4.81742 0
M  V30 9277 H 913.006 -0.35879 -0.745116 0
M  V30 9278 H 915.552 -1.33221 -1.0512 0
M  V30 9279 H 914.324 -2.85498 -2.67594 0
M  V30 9280 H 913.947 -1.47388 -3.69273 0
M  V30 9281 N 914.944 1.19125 -1.03184 0
M  V30 9282 C 916.19 1.89428 -0.740857 0
M  V30 9283 C 916.545 1.78302 0.72291 0
M  V30 9284 O 915.838 1.16656 1.51994 0
M  V30 9285 C 916.032 3.39052 -1.13041 0
M  V30 9286 C 915.861 3.64739 -2.6305 0
M  V30 9287 C 914.631 3.82603 -3.30066 0
M  V30 9288 C 916.829 3.66052 -3.61262 0
M  V30 9289 N 914.811 3.95947 -4.69147 0
M  V30 9290 C 916.182 3.85003 -4.85976 0
M  V30 9291 C 918.237 3.49093 -3.55019 0
M  V30 9292 C 916.94 3.88753 -6.05197 0
M  V30 9293 C 918.966 3.54122 -4.73658 0
M  V30 9294 C 918.328 3.73561 -5.97187 0
M  V30 9295 H 914.427 0.71217 -0.323014 0
M  V30 9296 H 917.011 1.43146 -1.31974 0
M  V30 9297 H 915.182 3.8405 -0.579699 0
M  V30 9298 H 916.914 3.96887 -0.791369 0
M  V30 9299 H 913.669 3.81615 -2.80476 0
M  V30 9300 H 914.093 4.06461 -5.41404 0
M  V30 9301 H 918.735 3.33018 -2.60497 0
M  V30 9302 H 916.453 4.03619 -7.00084 0
M  V30 9303 H 920.039 3.42286 -4.70459 0
M  V30 9304 H 918.919 3.7733 -6.87453 0
M  V30 9305 N 916.422 0.810101 1.35185 0
M  V30 9306 C 917.369 0.220927 2.2974 0
M  V30 9307 C 918.339 -0.647024 1.5298 0
M  V30 9308 O 919.524 -0.591367 1.81404 0
M  V30 9309 C 916.664 -0.62167 3.39454 0
M  V30 9310 C 915.777 0.267104 4.31173 0
M  V30 9311 C 914.912 -0.583833 5.27982 0
M  V30 9312 C 913.951 0.305123 6.11339 0
M  V30 9313 N 913.088 -0.505992 7.00274 0
M  V30 9314 H 917.928 1.03266 2.79536 0
M  V30 9315 H 915.465 0.520768 1.37573 0
M  V30 9316 H 917.423 -1.12539 4.01735 0
M  V30 9317 H 916.053 -1.39863 2.90926 0
M  V30 9318 H 915.105 0.88895 3.69867 0
M  V30 9319 H 916.417 0.951182 4.89647 0
M  V30 9320 H 915.571 -1.15254 5.95652 0
M  V30 9321 H 914.31 -1.30146 4.70014 0
M  V30 9322 H 913.315 0.886075 5.42613 0
M  V30 9323 H 914.54 1.02067 6.71386 0
M  V30 9324 H 912.486 -1.20753 6.4479 0
M  V30 9325 H 912.403 0.119966 7.55905 0
M  V30 9326 H 913.671 -1.05787 7.72288 0
M  V30 9327 N 917.9 -1.47166 0.563914 0
M  V30 9328 C 918.863 -2.28571 -0.169624 0
M  V30 9329 C 919.863 -1.37331 -0.836467 0
M  V30 9330 O 921.053 -1.59896 -0.6913 0
M  V30 9331 C 918.185 -3.17201 -1.24886 0
M  V30 9332 H 919.378 -2.94896 0.545539 0
M  V30 9333 H 916.931 -1.52966 0.321121 0
M  V30 9334 H 917.666 -2.55582 -1.99621 0
M  V30 9335 H 917.451 -3.84356 -0.775426 0
M  V30 9336 H 918.941 -3.7852 -1.76388 0
M  V30 9337 N 919.378 -0.300708 -1.54705 0
M  V30 9338 C 920.288 0.584996 -2.27189 0
M  V30 9339 C 921.304 1.14866 -1.30697 0
M  V30 9340 O 922.48 1.17351 -1.63679 0
M  V30 9341 C 919.545 1.74076 -2.99831 0
M  V30 9342 C 918.606 1.2112 -4.1186 0
M  V30 9343 C 917.839 2.31188 -4.81028 0
M  V30 9344 O 918.062 3.5108 -4.49554 0
M  V30 9345 O 916.996 1.97897 -5.68437 0
M  V30 9346 H 920.822 -0.00298177 -3.037 0
M  V30 9347 H 918.407 -0.0671802 -1.49249 0
M  V30 9348 H 920.289 2.41413 -3.45395 0
M  V30 9349 H 918.964 2.31535 -2.26215 0
M  V30 9350 H 917.871 0.50357 -3.70695 0
M  V30 9351 H 919.204 0.682046 -4.87452 0
M  V30 9352 N 920.856 1.57574 -0.0284266 0
M  V30 9353 C 922.102 1.92056 0.651327 0
M  V30 9354 C 922.435 0.905092 1.71819 0
M  V30 9355 O 921.71 -0.0722703 1.94366 0
M  V30 9356 C 921.993 3.37021 1.26841 0
M  V30 9357 C 921.846 4.49304 0.211157 0
M  V30 9358 C 923.165 3.81936 2.18662 0
M  V30 9359 H 920.284 0.698428 0.235304 0
M  V30 9360 H 922.926 1.89807 -0.0855435 0
M  V30 9361 H 921.076 3.39068 1.89644 0
M  V30 9362 H 922.748 4.5939 -0.419379 0
M  V30 9363 H 920.991 4.31317 -0.463445 0
M  V30 9364 H 921.662 5.47764 0.682518 0
M  V30 9365 H 924.138 3.8162 1.65847 0
M  V30 9366 H 923.014 4.84064 2.58792 0
M  V30 9367 H 923.275 3.174 3.07749 0
M  V30 9368 N 922.334 -0.244713 1.55689 0
M  V30 9369 C 923.244 -1.32447 1.93636 0
M  V30 9370 C 924.26 -1.52541 0.837086 0
M  V30 9371 O 925.436 -1.66121 1.13867 0
M  V30 9372 C 922.501 -2.65864 2.22525 0
M  V30 9373 C 921.562 -2.54273 3.45896 0
M  V30 9374 C 920.795 -3.81327 3.73397 0
M  V30 9375 O 921.018 -4.83307 3.02936 0
M  V30 9376 O 919.952 -3.79829 4.66919 0
M  V30 9377 H 923.778 -1.03255 2.85608 0
M  V30 9378 H 921.363 -0.445652 1.42598 0
M  V30 9379 H 923.245 -3.447 2.42404 0
M  V30 9380 H 921.92 -2.94784 1.33731 0
M  V30 9381 H 920.827 -1.73715 3.31321 0
M  V30 9382 H 922.16 -2.30297 4.34999 0
M  V30 9383 N 923.813 -1.49104 -0.510467 0
M  V30 9384 C 924.723 -1.67792 -1.6396 0
M  V30 9385 C 925.739 -0.560454 -1.64727 0
M  V30 9386 O 926.915 -0.833985 -1.83321 0
M  V30 9387 C 923.98 -1.73154 -3.00364 0
M  V30 9388 C 923.041 -2.9667 -3.10299 0
M  V30 9389 C 922.274 -3.01767 -4.40196 0
M  V30 9390 O 922.497 -2.1472 -5.28443 0
M  V30 9391 O 921.431 -3.94137 -4.54906 0
M  V30 9392 H 925.257 -2.63428 -1.51126 0
M  V30 9393 H 922.842 -1.32734 -0.685719 0
M  V30 9394 H 924.724 -1.79089 -3.81451 0
M  V30 9395 H 923.399 -0.806952 -3.1348 0
M  V30 9396 H 922.306 -2.96257 -2.28435 0
M  V30 9397 H 923.639 -3.88578 -3.02106 0
M  V30 9398 N 925.291 0.760815 -1.38019 0
M  V30 9399 C 926.538 1.51973 -1.3383 0
M  V30 9400 C 926.866 1.9436 0.0738855 0
M  V30 9401 O 926.121 1.65181 1.04946 0
M  V30 9402 C 926.42 2.79024 -2.23339 0
M  V30 9403 C 926.086 2.55636 -3.71431 0
M  V30 9404 C 924.748 2.48966 -4.11788 0
M  V30 9405 C 927.1 2.35018 -4.65205 0
M  V30 9406 C 924.428 2.19684 -5.44018 0
M  V30 9407 C 926.78 2.07258 -5.97685 0
M  V30 9408 C 925.444 1.9904 -6.37134 0
M  V30 9409 H 924.714 0.556108 -0.489719 0
M  V30 9410 H 927.361 0.87545 -1.70318 0
M  V30 9411 H 925.666 3.48065 -1.79883 0
M  V30 9412 H 927.363 3.36951 -2.17405 0
M  V30 9413 H 923.953 2.61695 -3.39432 0
M  V30 9414 H 928.137 2.39154 -4.34878 0
M  V30 9415 H 923.393 2.11825 -5.73533 0
M  V30 9416 H 927.567 1.90307 -6.69893 0
M  V30 9417 H 925.194 1.76115 -7.39519 0
M  V30 9418 N 926.769 1.22769 0.988202 0
M  V30 9419 C 927.994 1.08239 1.76915 0
M  V30 9420 C 928.419 -0.362519 1.84574 0
M  V30 9421 O 927.777 -1.26202 1.30165 0
M  V30 9422 C 927.825 1.70363 3.17819 0
M  V30 9423 O 926.929 0.960484 4.01059 0
M  V30 9424 H 926.27 0.379872 0.544604 0
M  V30 9425 H 928.8 1.62663 1.24104 0
M  V30 9426 H 928.81 1.7528 3.6843 0
M  V30 9427 H 927.485 2.75505 3.1156 0
M  V30 9428 H 926.062 0.987667 3.59582 0
M  V30 9429 N 928.247 -1.18576 1.03814 0
M  V30 9430 C 929.494 -1.88493 0.740036 0
M  V30 9431 C 929.822 -1.80198 -0.732056 0
M  V30 9432 O 929.077 -1.19509 -1.54971 0
M  V30 9433 C 929.376 -3.38448 1.14837 0
M  V30 9434 C 929.042 -3.66947 2.62031 0
M  V30 9435 C 927.704 -3.74435 3.02244 0
M  V30 9436 C 930.056 -3.79534 3.57217 0
M  V30 9437 C 927.384 -3.91986 4.36536 0
M  V30 9438 C 929.736 -3.986 4.91223 0
M  V30 9439 C 928.4 -4.04323 5.31111 0
M  V30 9440 H 927.67 -0.689746 0.270798 0
M  V30 9441 H 930.317 -1.40364 1.3027 0
M  V30 9442 H 928.622 -3.88539 0.504472 0
M  V30 9443 H 930.319 -3.90882 0.89511 0
M  V30 9444 H 926.909 -3.61734 2.29883 0
M  V30 9445 H 931.093 -3.73083 3.27296 0
M  V30 9446 H 926.349 -3.9466 4.66962 0
M  V30 9447 H 930.523 -4.07281 5.64885 0
M  V30 9448 H 928.15 -4.17676 6.35178 0
M  V30 9449 N 929.725 -0.817259 -1.34754 0
M  V30 9450 C 930.974 -0.39908 -1.97713 0
M  V30 9451 C 931.287 1.04203 -1.65533 0
M  V30 9452 O 932.493 1.56384 -2.21937 0
M  V30 9453 C 930.949 -0.662634 -3.53747 0
M  V30 9454 C 930.557 -2.11699 -3.94826 0
M  V30 9455 C 932.301 -0.31034 -4.23364 0
M  V30 9456 C 930.208 -2.32573 -5.4375 0
M  V30 9457 H 929.138 -0.145488 -0.739831 0
M  V30 9458 H 931.789 -1.00282 -1.53674 0
M  V30 9459 H 930.171 0.0111972 -3.95998 0
M  V30 9460 H 931.345 -2.82951 -3.63697 0
M  V30 9461 H 929.66 -2.43017 -3.3813 0
M  V30 9462 H 932.257 -0.44421 -5.32852 0
M  V30 9463 H 932.6 0.744594 -4.09587 0
M  V30 9464 H 933.133 -0.938518 -3.8657 0
M  V30 9465 H 929.872 -3.36551 -5.62507 0
M  V30 9466 H 929.392 -1.65858 -5.76412 0
M  V30 9467 H 931.071 -2.14651 -6.10356 0
M  V30 9468 N 931.203 1.46865 -0.571711 0
M  V30 9469 C 932.431 2.06818 -0.0583975 0
M  V30 9470 C 932.846 1.42218 1.24175 0
M  V30 9471 O 932.203 0.523655 1.74826 0
M  V30 9472 C 932.254 3.61281 0.125673 0
M  V30 9473 O 931.975 4.23462 -1.123 0
M  V30 9474 C 933.476 4.38137 0.674604 0
M  V30 9475 H 930.696 0.668948 -0.052438 0
M  V30 9476 H 933.24 1.88656 -0.789251 0
M  V30 9477 H 931.395 3.78908 0.806707 0
M  V30 9478 H 931.809 5.16192 -0.929869 0
M  V30 9479 H 933.283 5.46845 0.752626 0
M  V30 9480 H 933.76 4.05419 1.68915 0
M  V30 9481 H 934.366 4.2529 0.0287979 0
M  V30 9482 N 932.681 0.308908 1.54543 0
M  V30 9483 C 933.613 -0.597453 2.21276 0
M  V30 9484 C 934.626 -1.09137 1.20801 0
M  V30 9485 O 935.815 -1.00747 1.47351 0
M  V30 9486 C 932.915 -1.83085 2.85189 0
M  V30 9487 C 932.088 -1.4781 4.11669 0
M  V30 9488 C 931.147 -2.56748 4.59311 0
M  V30 9489 O 930.173 -2.21507 5.24331 0
M  V30 9490 N 931.375 -3.87427 4.32297 0
M  V30 9491 H 934.14 -0.0261183 2.99689 0
M  V30 9492 H 931.701 0.131456 1.61365 0
M  V30 9493 H 933.693 -2.55326 3.13992 0
M  V30 9494 H 932.263 -2.31039 2.1057 0
M  V30 9495 H 931.483 -0.587974 3.8979 0
M  V30 9496 H 932.771 -1.2179 4.94009 0
M  V30 9497 H 932.169 -4.18863 3.80224 0
M  V30 9498 H 930.726 -4.55942 4.6579 0
M  V30 9499 N 934.159 -1.57557 0.0367827 0
M  V30 9500 C 935.089 -2.13712 -0.940719 0
M  V30 9501 C 936.07 -1.05515 -1.33419 0
M  V30 9502 O 937.255 -1.33385 -1.41146 0
M  V30 9503 C 934.385 -2.67043 -2.22048 0
M  V30 9504 C 933.339 -3.80096 -1.96752 0
M  V30 9505 C 932.665 -4.19886 -3.31059 0
M  V30 9506 C 933.965 -5.05848 -1.30058 0
M  V30 9507 H 935.659 -2.9564 -0.473033 0
M  V30 9508 H 933.205 -1.42214 -0.226089 0
M  V30 9509 H 935.158 -3.04964 -2.90818 0
M  V30 9510 H 933.882 -1.82287 -2.70996 0
M  V30 9511 H 932.541 -3.42625 -1.30398 0
M  V30 9512 H 932.189 -3.32101 -3.77781 0
M  V30 9513 H 931.889 -4.96073 -3.14937 0
M  V30 9514 H 933.413 -4.60395 -4.01084 0
M  V30 9515 H 934.827 -5.41306 -1.8884 0
M  V30 9516 H 933.224 -5.87084 -1.24309 0
M  V30 9517 H 934.294 -4.84122 -0.274591 0
M  V30 9518 N 935.637 0.236453 -1.55816 0
M  V30 9519 C 936.862 0.98449 -1.82545 0
M  V30 9520 C 937.287 1.77755 -0.615206 0
M  V30 9521 O 936.645 1.75982 0.435895 0
M  V30 9522 C 936.693 1.88973 -3.07118 0
M  V30 9523 O 935.797 2.98298 -2.84766 0
M  V30 9524 H 935.138 0.279577 -0.602273 0
M  V30 9525 H 937.668 0.254277 -2.03014 0
M  V30 9526 H 937.678 2.3024 -3.36829 0
M  V30 9527 H 936.353 1.30671 -3.94839 0
M  V30 9528 H 934.93 2.61085 -2.6625 0
M  V30 9529 N 937.115 1.49373 0.502552 0
M  V30 9530 C 938.363 1.58467 1.25429 0
M  V30 9531 C 938.684 0.272593 1.93085 0
M  V30 9532 O 937.954 -0.707947 1.82661 0
M  V30 9533 H 936.534 0.583866 0.46595 0
M  V30 9534 H 939.196 1.8599 0.582568 0
M  V30 9535 H 938.292 2.37993 2.01906 0
M  V30 9536 N 938.594 -0.753485 1.38421 0
M  V30 9537 C 939.524 -1.8808 1.38377 0
M  V30 9538 C 940.505 -1.68258 0.249664 0
M  V30 9539 O 941.69 -1.88848 0.45276 0
M  V30 9540 C 938.82 -3.25608 1.20818 0
M  V30 9541 C 937.774 -3.60032 2.31433 0
M  V30 9542 C 937.1 -4.96297 1.9898 0
M  V30 9543 C 938.4 -3.64898 3.73694 0
M  V30 9544 H 940.094 -1.88375 2.32713 0
M  V30 9545 H 937.64 -0.90489 1.12017 0
M  V30 9546 H 939.593 -4.04127 1.19412 0
M  V30 9547 H 938.317 -3.25793 0.229433 0
M  V30 9548 H 936.976 -2.83831 2.32025 0
M  V30 9549 H 936.624 -4.93043 0.995889 0
M  V30 9550 H 936.324 -5.20298 2.73063 0
M  V30 9551 H 937.848 -5.77196 1.99193 0
M  V30 9552 H 939.262 -4.33531 3.75132 0
M  V30 9553 H 937.659 -4.00407 4.46983 0
M  V30 9554 H 938.729 -2.65124 4.06002 0
M  V30 9555 N 940.072 -1.23292 -0.981677 0
M  V30 9556 C 941.3 -1.09088 -1.75805 0
M  V30 9557 C 941.715 0.357746 -1.8538 0
M  V30 9558 O 941.072 1.24751 -1.33205 0
M  V30 9559 C 941.123 -1.70885 -3.1856 0
M  V30 9560 O 940.844 -3.10082 -3.09484 0
M  V30 9561 C 942.345 -1.62106 -4.12597 0
M  V30 9562 H 939.565 -0.38184 -0.55176 0
M  V30 9563 H 942.109 -1.63116 -1.23342 0
M  V30 9564 H 940.264 -1.20893 -3.68054 0
M  V30 9565 H 940.678 -3.40039 -3.99342 0
M  V30 9566 H 942.152 -2.10049 -5.10474 0
M  V30 9567 H 942.629 -0.579642 -4.35358 0
M  V30 9568 H 943.235 -2.11457 -3.69007 0
M  V30 9569 N 941.55 1.18024 -1.04442 0
M  V30 9570 C 942.827 1.8398 -0.664125 0
M  V30 9571 C 943.207 1.92961 0.856116 0
M  V30 9572 O 942.555 1.45839 1.75907 0
M  V30 9573 C 942.765 3.22069 -1.34433 0
M  V30 9574 C 944.113 3.98063 -1.47754 0
M  V30 9575 O 945.137 3.31523 -1.30274 0
M  V30 9576 O 943.996 5.17291 -1.76272 0
M  V30 9577 H 941.09 0.793543 -0.23285 0
M  V30 9578 H 943.636 1.25385 -1.14354 0
M  V30 9579 H 942.408 3.10458 -2.38184 0
M  V30 9580 H 942.031 3.88325 -0.853782 0
M  V30 9581 N 943.028 0.824394 1.34319 0
M  V30 9582 C 943.978 0.219624 2.2694 0
M  V30 9583 C 944.962 -0.616964 1.48601 0
M  V30 9584 O 946.154 -0.471303 1.7061 0
M  V30 9585 C 943.283 -0.616379 3.37721 0
M  V30 9586 C 942.369 0.230917 4.23471 0
M  V30 9587 N 942.76 1.30264 4.88738 0
M  V30 9588 C 941.058 0.0155016 4.45997 0
M  V30 9589 C 941.759 1.82141 5.52449 0
M  V30 9590 N 940.735 1.12508 5.3183 0
M  V30 9591 H 944.537 1.03939 2.74907 0
M  V30 9592 H 942.051 0.667353 1.48055 0
M  V30 9593 H 944.048 -1.06582 4.03046 0
M  V30 9594 H 942.708 -1.43429 2.91304 0
M  V30 9595 H 943.719 1.68545 4.89707 0
M  V30 9596 H 940.396 -0.770128 4.10336 0
M  V30 9597 H 941.786 2.7181 6.14466 0
M  V30 9598 N 944.506 -1.46559 0.579492 0
M  V30 9599 C 945.436 -2.33059 -0.143437 0
M  V30 9600 C 946.417 -1.4515 -0.886868 0
M  V30 9601 O 947.602 -1.73973 -0.862961 0
M  V30 9602 C 944.732 -3.27364 -1.15973 0
M  V30 9603 C 943.686 -4.24689 -0.531348 0
M  V30 9604 C 943.012 -5.08479 -1.65388 0
M  V30 9605 C 944.312 -5.1961 0.529391 0
M  V30 9606 H 946.006 -2.93753 0.578762 0
M  V30 9607 H 943.552 -1.41256 0.279775 0
M  V30 9608 H 945.505 -3.86732 -1.67382 0
M  V30 9609 H 944.229 -2.64771 -1.91217 0
M  V30 9610 H 942.888 -3.6658 -0.0383749 0
M  V30 9611 H 942.536 -4.42273 -2.3959 0
M  V30 9612 H 942.236 -5.74387 -1.23909 0
M  V30 9613 H 943.76 -5.70709 -2.17079 0
M  V30 9614 H 945.174 -5.73212 0.100506 0
M  V30 9615 H 943.571 -5.93843 0.86432 0
M  V30 9616 H 944.641 -4.63737 1.4169 0
M  V30 9617 N 945.984 -0.3171 -1.54377 0
M  V30 9618 C 947.395 0.172287 -1.85903 0
M  V30 9619 C 947.746 1.52141 -1.23885 0
M  V30 9620 O 946.871 2.0949 -0.542476 0
M  V30 9621 C 947.466 0.319392 -3.37291 0
M  V30 9622 C 946.025 0.752998 -3.68791 0
M  V30 9623 C 945.172 -0.129143 -2.76999 0
M  V30 9624 H 948.123 -0.537597 -1.49317 0
M  V30 9625 H 948.144 1.15137 -3.62662 0
M  V30 9626 H 947.656 -0.662671 -3.82401 0
M  V30 9627 H 945.757 1.74504 -3.2921 0
M  V30 9628 H 945.87 0.561228 -4.75801 0
M  V30 9629 H 944.234 0.394242 -2.5163 0
M  V30 9630 H 945.017 -1.10785 -3.24933 0
M  V30 9631 N 947.462 1.57535 -0.0451378 0
M  V30 9632 C 948.708 1.92736 0.630921 0
M  V30 9633 C 949.041 0.923265 1.70849 0
M  V30 9634 O 948.316 -0.0516512 1.94431 0
M  V30 9635 C 948.599 3.38348 1.23259 0
M  V30 9636 C 948.452 4.49503 0.16349 0
M  V30 9637 C 949.771 3.84233 2.14599 0
M  V30 9638 H 946.89 0.700884 0.227883 0
M  V30 9639 H 949.532 1.89706 -0.10567 0
M  V30 9640 H 947.682 3.41061 1.86037 0
M  V30 9641 H 949.354 4.58919 -0.46808 0
M  V30 9642 H 947.597 4.30802 -0.509166 0
M  V30 9643 H 948.268 5.48457 0.624382 0
M  V30 9644 H 950.744 3.83358 1.6179 0
M  V30 9645 H 949.62 4.86781 2.53644 0
M  V30 9646 H 949.881 3.20646 3.04366 0
M  V30 9647 N 948.94 -0.228186 1.55939 0
M  V30 9648 C 949.903 -1.26621 1.91049 0
M  V30 9649 C 950.903 -1.40141 0.788491 0
M  V30 9650 O 952.093 -1.3852 1.05631 0
M  V30 9651 C 949.225 -2.64108 2.15545 0
M  V30 9652 H 950.418 -0.966978 2.83883 0
M  V30 9653 H 947.971 -0.468313 1.49119 0
M  V30 9654 H 948.706 -2.99141 1.25241 0
M  V30 9655 H 948.491 -2.55673 2.97277 0
M  V30 9656 H 949.981 -3.39025 2.43827 0
M  V30 9657 N 950.418 -1.49637 -0.494624 0
M  V30 9658 C 951.351 -1.61387 -1.61337 0
M  V30 9659 C 952.329 -0.462704 -1.55878 0
M  V30 9660 O 953.513 -0.679103 -1.75842 0
M  V30 9661 C 950.64 -1.57471 -2.99867 0
M  V30 9662 C 949.686 -2.77863 -3.23565 0
M  V30 9663 S 950.519 -4.3946 -3.05999 0
M  V30 9664 C 951.675 -4.382 -4.46914 0
M  V30 9665 H 951.908 -2.56024 -1.51126 0
M  V30 9666 H 949.441 -1.38607 -0.680253 0
M  V30 9667 H 951.399 -1.55898 -3.79745 0
M  V30 9668 H 950.06 -0.641107 -3.07488 0
M  V30 9669 H 949.253 -2.71361 -4.24711 0
M  V30 9670 H 948.855 -2.76882 -2.51421 0
M  V30 9671 H 951.147 -4.10312 -5.3912 0
M  V30 9672 H 952.09 -5.39645 -4.58464 0
M  V30 9673 H 952.498 -3.68197 -4.27891 0
M  V30 9674 N 951.896 0.746133 -1.38819 0
M  V30 9675 C 953.312 1.0502 -1.20179 0
M  V30 9676 C 953.512 2.01423 -0.0556271 0
M  V30 9677 O 952.568 2.45359 0.59625 0
M  V30 9678 C 953.881 1.62315 -2.53129 0
M  V30 9679 C 955.429 1.74449 -2.59878 0
M  V30 9680 C 955.904 2.35155 -3.93022 0
M  V30 9681 N 957.395 2.42577 -3.94602 0
M  V30 9682 C 958.13 2.9046 -4.94389 0
M  V30 9683 N 957.626 3.38322 -6.04574 0
M  V30 9684 N 959.419 2.89568 -4.81775 0
M  V30 9685 H 951.57 0.106551 -2.12133 0
M  V30 9686 H 953.833 0.109897 -0.941609 0
M  V30 9687 H 953.539 0.98946 -3.37495 0
M  V30 9688 H 953.413 2.61276 -2.72057 0
M  V30 9689 H 955.8 2.36943 -1.75903 0
M  V30 9690 H 955.881 0.741721 -2.4481 0
M  V30 9691 H 955.525 1.73292 -4.77422 0
M  V30 9692 H 955.455 3.36088 -4.05404 0
M  V30 9693 H 957.946 2.08735 -3.15021 0
M  V30 9694 H 958.259 3.73336 -6.76639 0
M  V30 9695 H 956.604 3.3636 -6.08184 0
M  V30 9696 H 959.795 2.51492 -3.94803 0
M  V30 9697 H 959.968 3.26571 -5.59692 0
M  V30 9698 N 953.375 1.23811 0.975125 0
M  V30 9699 C 954.305 1.04846 2.08638 0
M  V30 9700 C 955.286 -0.0362859 1.70061 0
M  V30 9701 O 956.471 0.12937 1.93769 0
M  V30 9702 C 953.601 0.644534 3.41267 0
M  V30 9703 C 952.555 1.67722 3.93768 0
M  V30 9704 C 951.881 1.12857 5.22654 0
M  V30 9705 C 953.181 3.07147 4.22443 0
M  V30 9706 H 954.875 1.97795 2.24761 0
M  V30 9707 H 952.421 0.952397 1.08006 0
M  V30 9708 H 954.374 0.498887 4.18436 0
M  V30 9709 H 953.098 -0.320641 3.25022 0
M  V30 9710 H 951.757 1.81095 3.18748 0
M  V30 9711 H 951.405 0.154227 5.02764 0
M  V30 9712 H 951.105 1.81862 5.58749 0
M  V30 9713 H 952.629 0.994891 6.0244 0
M  V30 9714 H 954.043 2.97045 4.90344 0
M  V30 9715 H 952.44 3.73437 4.6975 0
M  V30 9716 H 953.51 3.55743 3.29507 0
M  V30 9717 N 954.853 -1.17469 1.05066 0
M  V30 9718 C 955.786 -2.2031 0.594863 0
M  V30 9719 C 956.764 -1.58196 -0.375878 0
M  V30 9720 O 957.948 -1.8629 -0.287798 0
M  V30 9721 C 955.075 -3.38452 -0.129614 0
M  V30 9722 C 954.121 -4.19007 0.795943 0
M  V30 9723 S 954.954 -4.8433 2.28441 0
M  V30 9724 C 956.11 -6.05862 1.57107 0
M  V30 9725 H 956.343 -2.58632 1.46618 0
M  V30 9726 H 953.876 -1.28063 0.862511 0
M  V30 9727 H 955.834 -4.06914 -0.541416 0
M  V30 9728 H 954.495 -2.98521 -0.976948 0
M  V30 9729 H 953.688 -5.0345 0.235396 0
M  V30 9730 H 953.29 -3.55976 1.14705 0
M  V30 9731 H 955.582 -6.71895 0.86969 0
M  V30 9732 H 956.525 -6.66442 2.39292 0
M  V30 9733 H 956.933 -5.54477 1.05903 0
M  V30 9734 N 956.331 -0.831506 -1.3388 0
M  V30 9735 C 957.577 -0.424302 -1.98312 0
M  V30 9736 C 957.91 1.01211 -1.65741 0
M  V30 9737 O 957.185 1.70636 -0.933464 0
M  V30 9738 C 957.468 -0.636815 -3.54424 0
M  V30 9739 C 957.321 -2.11997 -3.96708 0
M  V30 9740 C 958.64 -0.0782411 -4.4003 0
M  V30 9741 H 955.759 -0.155637 -0.720379 0
M  V30 9742 H 958.401 -1.04566 -1.58638 0
M  V30 9743 H 956.551 -0.107907 -3.8835 0
M  V30 9744 H 958.223 -2.71317 -3.73075 0
M  V30 9745 H 956.466 -2.60723 -3.46707 0
M  V30 9746 H 957.137 -2.21944 -5.05416 0
M  V30 9747 H 959.613 -0.530243 -4.12708 0
M  V30 9748 H 958.489 -0.256676 -5.483 0
M  V30 9749 H 958.75 1.01745 -4.30233 0
M  V30 9750 N 957.809 1.4625 -0.587256 0
M  V30 9751 C 959.034 2.07252 -0.0784517 0
M  V30 9752 C 959.459 1.43239 1.21919 0
M  V30 9753 O 958.817 0.517791 1.73749 0
M  V30 9754 C 958.865 3.60534 0.0691037 0
M  V30 9755 O 957.969 3.96773 1.12448 0
M  V30 9756 H 957.31 0.660825 -0.064859 0
M  V30 9757 H 959.84 1.87819 -0.811491 0
M  V30 9758 H 959.85 4.0708 0.273826 0
M  V30 9759 H 958.525 4.06516 -0.878514 0
M  V30 9760 H 957.102 3.6193 0.897852 0
M  V30 9761 N 959.287 0.325282 1.54207 0
M  V30 9762 C 960.512 -0.281418 2.05482 0
M  V30 9763 C 960.937 -1.44869 1.19977 0
M  V30 9764 O 960.295 -1.80088 0.209275 0
M  V30 9765 C 960.343 -0.692029 3.53897 0
M  V30 9766 O 959.447 -1.7942 3.71325 0
M  V30 9767 H 958.788 -0.0504872 0.662078 0
M  V30 9768 H 961.318 0.474191 1.99029 0
M  V30 9769 H 961.328 -0.974219 3.96198 0
M  V30 9770 H 960.003 0.161709 4.15586 0
M  V30 9771 H 958.58 -1.51069 3.40929 0
M  V30 9772 N 960.765 -1.57509 0.0534917 0
M  V30 9773 C 962.013 -1.92402 -0.618548 0
M  V30 9774 C 962.334 -0.93273 -1.71246 0
M  V30 9775 O 961.604 0.0220495 -1.95888 0
M  V30 9776 H 960.184 -0.710233 -0.23147 0
M  V30 9777 H 962.846 -1.94606 0.10704 0
M  V30 9778 H 961.942 -2.93704 -1.05566 0
M  V30 9779 N 962.243 0.219913 -1.56058 0
M  V30 9780 C 963.153 1.29349 -1.95719 0
M  V30 9781 C 964.169 1.5119 -0.861248 0
M  V30 9782 O 965.345 1.64289 -1.16495 0
M  V30 9783 C 962.41 2.6229 -2.26726 0
M  V30 9784 C 961.471 2.48738 -3.49897 0
M  V30 9785 C 960.704 3.75339 -3.79416 0
M  V30 9786 O 960.927 4.78427 -3.10586 0
M  V30 9787 O 959.861 3.72352 -4.72903 0
M  V30 9788 H 963.687 0.986979 -2.87215 0
M  V30 9789 H 961.272 0.42291 -1.43289 0
M  V30 9790 H 963.154 3.408 -2.47857 0
M  V30 9791 H 961.829 2.92619 -1.38404 0
M  V30 9792 H 960.736 1.68422 -3.34043 0
M  V30 9793 H 962.069 2.23347 -4.38608 0
M  V30 9794 N 963.721 1.49897 0.486681 0
M  V30 9795 C 964.631 1.70379 1.6127 0
M  V30 9796 C 965.647 0.58659 1.63814 0
M  V30 9797 O 966.823 0.863044 1.81971 0
M  V30 9798 C 963.888 1.77911 2.97571 0
M  V30 9799 C 962.949 3.01569 3.0554 0
M  V30 9800 C 962.182 3.08732 4.35339 0
M  V30 9801 O 962.405 2.23099 5.2496 0
M  V30 9802 O 961.339 4.01325 4.48578 0
M  V30 9803 H 965.165 2.65799 1.46916 0
M  V30 9804 H 962.75 1.33808 0.664516 0
M  V30 9805 H 964.632 1.85135 3.78554 0
M  V30 9806 H 963.307 0.856722 3.12157 0
M  V30 9807 H 962.214 2.99854 2.23693 0
M  V30 9808 H 963.547 3.93335 2.95886 0
M  V30 9809 N 965.199 -0.738761 1.39212 0
M  V30 9810 C 966.109 -1.88324 1.39897 0
M  V30 9811 C 967.125 -1.71494 0.294229 0
M  V30 9812 O 968.301 -1.94162 0.535087 0
M  V30 9813 C 965.366 -3.23871 1.23726 0
M  V30 9814 C 964.427 -3.53121 2.44139 0
M  V30 9815 C 963.66 -4.82202 2.2873 0
M  V30 9816 O 963.883 -5.55649 1.28879 0
M  V30 9817 O 962.817 -5.11265 3.17634 0
M  V30 9818 H 966.643 -1.90701 2.36362 0
M  V30 9819 H 964.228 -0.886067 1.20288 0
M  V30 9820 H 966.11 -4.04882 1.16826 0
M  V30 9821 H 964.785 -3.22274 0.303551 0
M  V30 9822 H 963.692 -2.72212 2.56615 0
M  V30 9823 H 965.025 -3.59495 3.36191 0
M  V30 9824 N 966.677 -1.24326 -0.968545 0
M  V30 9825 C 967.64 -1.03591 -2.04454 0
M  V30 9826 C 968.64 0.0064809 -1.60799 0
M  V30 9827 O 969.83 -0.234404 -1.72616 0
M  V30 9828 C 966.962 -0.56992 -3.36102 0
M  V30 9829 H 968.155 -1.99092 -2.24282 0
M  V30 9830 H 965.708 -1.06537 -1.14366 0
M  V30 9831 H 966.443 0.388325 -3.21967 0
M  V30 9832 H 966.228 -1.32227 -3.69132 0
M  V30 9833 H 967.718 -0.445854 -4.15213 0
M  V30 9834 O 968.194 1.10088 -1.18164 0
M  V30 9835 H 968.885 1.70287 -0.923145 0
M  V30 END ATOM
M  V30 BEGIN BOND
M  V30 END BOND
M  V30 END CTAB
M  END
$$$$
