drugbank_target|Q9NYY3 Serine/threonine-protein kinase PLK2 (DB12010)
 OpenBabel12092121183D

  0  0  0     0  0            999 V3000
M  V30 BEGIN CTAB
M  V30 COUNTS 10941 11071 0 0 0
M  V30 BEGIN ATOM
M  V30 1 H -0.908 1.98254 -0.117106 0
M  V30 2 N 0 1.576 0 0
M  V30 3 C 0.933 2.03868 1.02534 0
M  V30 4 C 1.911 0.928543 1.3348 0
M  V30 5 O 3.095 1.19667 1.45644 0
M  V30 6 C 0.222 2.43627 2.35294 0
M  V30 7 C -0.732 3.65373 2.2001 0
M  V30 8 S 0.101 5.13292 1.52614 0
M  V30 9 C 1.257 5.56322 2.86805 0
M  V30 10 H 1.49 2.90518 0.631377 0
M  V30 11 H -0.977 1.52953 0.210867 0
M  V30 12 H 0.981 2.67203 3.11629 0
M  V30 13 H -0.358 1.57376 2.7183 0
M  V30 14 H -1.165 3.90944 3.18086 0
M  V30 15 H -1.563 3.418 1.51819 0
M  V30 16 H 0.729 5.58782 3.83104 0
M  V30 17 H 1.672 6.56266 2.65933 0
M  V30 18 H 2.08 4.83886 2.90714 0
M  V30 19 N 1.4781 -0.272755 1.55222 0
M  V30 20 C 2.3881 -1.35918 1.91216 0
M  V30 21 C 3.4041 -1.54026 0.809436 0
M  V30 22 O 4.5801 -1.68148 1.10852 0
M  V30 23 C 1.6451 -2.69834 2.17693 0
M  V30 24 C 0.7061 -2.6047 3.41253 0
M  V30 25 C -0.0609 -3.88 3.66458 0
M  V30 26 O 0.1621 -4.88693 2.94169 0
M  V30 27 O -0.9039 -3.88189 4.59992 0
M  V30 28 H 2.9221 -1.0839 2.83699 0
M  V30 29 H 0.5071 -0.471301 1.41771 0
M  V30 30 H 2.3891 -3.49017 2.36147 0
M  V30 31 H 1.0641 -2.97148 1.28392 0
M  V30 32 H -0.0289 -1.79663 3.28134 0
M  V30 33 H 1.3041 -2.38106 4.30774 0
M  V30 34 N 2.9562 -1.48159 -0.537278 0
M  V30 35 C 3.8862 -1.65029 -1.6519 0
M  V30 36 C 4.8672 -0.499281 -1.62607 0
M  V30 37 O 6.0522 -0.730972 -1.79918 0
M  V30 38 C 3.1822 -1.68303 -3.03795 0
M  V30 39 C 2.1362 -2.8283 -3.21234 0
M  V30 40 C 1.4622 -2.71189 -4.60826 0
M  V30 41 C 2.7622 -4.24211 -3.04701 0
M  V30 42 H 4.4562 -2.58341 -1.51328 0
M  V30 43 H 2.0022 -1.24325 -0.726585 0
M  V30 44 H 3.9552 -1.78693 -3.81637 0
M  V30 45 H 2.6792 -0.715635 -3.18663 0
M  V30 46 H 1.3382 -2.71983 -2.45807 0
M  V30 47 H 0.9862 -1.72435 -4.7252 0
M  V30 48 H 0.6862 -3.48035 -4.7344 0
M  V30 49 H 2.2102 -2.83537 -5.40777 0
M  V30 50 H 3.6242 -4.3593 -3.72341 0
M  V30 51 H 2.0212 -5.01998 -3.28813 0
M  V30 52 H 3.0912 -4.41184 -2.01209 0
M  V30 53 N 4.4343 0.785586 -1.36625 0
M  V30 54 C 5.3643 1.91259 -1.33949 0
M  V30 55 C 6.3453 1.68795 -0.210325 0
M  V30 56 O 7.5303 1.89854 -0.408561 0
M  V30 57 C 4.6603 3.28339 -1.13186 0
M  V30 58 C 3.6143 3.65335 -2.22967 0
M  V30 59 C 2.9403 5.00806 -1.87342 0
M  V30 60 C 4.2403 3.7352 -3.65075 0
M  V30 61 H 5.9343 1.93755 -2.28253 0
M  V30 62 H 3.4803 0.930788 -1.09874 0
M  V30 63 H 5.4333 4.06804 -1.09948 0
M  V30 64 H 4.1573 3.2624 -0.153332 0
M  V30 65 H 2.8163 2.89169 -2.25337 0
M  V30 66 H 2.4643 4.95233 -0.880545 0
M  V30 67 H 2.1643 5.26529 -2.60846 0
M  V30 68 H 3.6883 5.81687 -1.85667 0
M  V30 69 H 5.1023 4.42168 -3.64911 0
M  V30 70 H 3.4993 4.10731 -4.37516 0
M  V30 71 H 4.5693 2.74527 -3.99703 0
M  V30 72 N 5.9124 1.20967 1.01018 0
M  V30 73 C 7.3284 0.965905 1.27053 0
M  V30 74 C 7.5284 -0.350785 1.98423 0
M  V30 75 O 6.5844 -1.07773 2.28344 0
M  V30 76 C 7.8974 2.15294 2.09926 0
M  V30 77 C 9.4454 2.19463 2.23171 0
M  V30 78 C 9.9204 3.3767 3.09424 0
M  V30 79 N 11.4114 3.37724 3.17012 0
M  V30 80 C 12.1464 4.25837 3.83993 0
M  V30 81 N 11.6424 5.24138 4.53047 0
M  V30 82 N 13.4354 4.1366 3.80581 0
M  V30 83 H 5.5864 2.0565 0.531194 0
M  V30 84 H 7.8494 0.90024 0.297106 0
M  V30 85 H 7.5554 3.10684 1.64828 0
M  V30 86 H 7.4294 2.13923 3.10672 0
M  V30 87 H 9.8164 1.24632 2.6749 0
M  V30 88 H 9.8974 2.2488 1.21912 0
M  V30 89 H 9.5414 4.32791 2.65808 0
M  V30 90 H 9.4714 3.29491 4.10784 0
M  V30 91 H 11.9624 2.6658 2.6785 0
M  V30 92 H 12.2754 5.87684 5.01844 0
M  V30 93 H 10.6204 5.28068 4.5185 0
M  V30 94 H 13.8114 3.36127 3.25785 0
M  V30 95 H 13.9844 4.82538 4.32505 0
M  V30 96 N 7.3905 -1.2043 1.01659 0
M  V30 97 C 8.6185 -1.93777 0.725132 0
M  V30 98 C 9.0335 -1.74772 -0.714166 0
M  V30 99 O 8.3905 -1.06169 -1.4844 0
M  V30 100 C 8.4415 -3.45876 1.05129 0
M  V30 101 O 8.1625 -3.6426 2.43406 0
M  V30 102 C 9.6635 -4.36368 0.780891 0
M  V30 103 H 6.8835 -0.615901 0.266284 0
M  V30 104 H 9.4275 -1.52922 1.35776 0
M  V30 105 H 7.5825 -3.8461 0.464065 0
M  V30 106 H 7.9965 -4.58246 2.55169 0
M  V30 107 H 9.4705 -5.41743 1.05918 0
M  V30 108 H 9.9475 -4.38275 -0.284937 0
M  V30 109 H 10.5535 -4.03296 1.35027 0
M  V30 110 N 8.8686 -0.792821 -1.36206 0
M  V30 111 C 10.1176 -0.363353 -1.984 0
M  V30 112 C 10.4306 1.07172 -1.63626 0
M  V30 113 O 11.6366 1.60362 -2.19081 0
M  V30 114 C 10.0926 -0.59872 -3.54885 0
M  V30 115 C 9.7006 -2.04543 -3.9858 0
M  V30 116 C 11.4446 -0.233926 -4.23855 0
M  V30 117 C 9.3516 -2.22727 -5.47856 0
M  V30 118 H 8.2816 -0.13212 -0.742334 0
M  V30 119 H 10.9326 -0.974935 -1.55458 0
M  V30 120 H 9.3146 0.0826222 -3.95914 0
M  V30 121 H 10.4886 -2.76345 -3.68741 0
M  V30 122 H 8.8036 -2.36879 -3.42458 0
M  V30 123 H 11.4006 -0.348027 -5.33566 0
M  V30 124 H 11.7436 0.818351 -4.08177 0
M  V30 125 H 12.2766 -0.868639 -3.882 0
M  V30 126 H 9.0156 -3.2635 -5.68486 0
M  V30 127 H 8.5356 -1.55434 -5.7931 0
M  V30 128 H 10.2146 -2.03607 -6.14128 0
M  V30 129 N 10.3467 1.47872 -0.545128 0
M  V30 130 C 11.5747 2.06889 -0.021084 0
M  V30 131 C 11.9897 1.39955 1.2672 0
M  V30 132 O 11.3467 0.492036 1.75742 0
M  V30 133 C 11.3977 3.60996 0.190817 0
M  V30 134 O 11.1187 4.25419 -1.04644 0
M  V30 135 C 12.6197 4.36849 0.753521 0
M  V30 136 H 9.8397 0.669785 -0.0403635 0
M  V30 137 H 12.3837 1.90049 -0.755095 0
M  V30 138 H 10.5387 3.77391 0.87492 0
M  V30 139 H 10.9527 5.17785 -0.836611 0
M  V30 140 H 12.4267 5.45399 0.851139 0
M  V30 141 H 12.9037 4.02306 1.762 0
M  V30 142 H 13.5097 4.25169 0.105503 0
M  V30 143 N 11.8248 0.280983 1.55075 0
M  V30 144 C 13.0548 -0.336804 2.03836 0
M  V30 145 C 13.4628 -1.49577 1.15859 0
M  V30 146 O 12.8058 -1.82888 0.172503 0
M  V30 147 C 12.8678 -0.874616 3.48699 0
M  V30 148 C 12.5318 0.156478 4.56732 0
M  V30 149 C 13.5288 0.978032 5.10618 0
M  V30 150 C 11.2138 0.292409 5.01448 0
M  V30 151 C 13.2078 1.92165 6.07743 0
M  V30 152 C 10.8948 1.23949 5.98398 0
M  V30 153 C 11.8928 2.05261 6.51427 0
M  V30 154 O 11.5808 2.98367 7.4648 0
M  V30 155 H 11.3128 -0.0800885 0.671239 0
M  V30 156 H 13.8668 0.412589 2.01213 0
M  V30 157 H 12.0968 -1.67418 3.4858 0
M  V30 158 H 13.7858 -1.40612 3.80766 0
M  V30 159 H 14.5518 0.883782 4.7688 0
M  V30 160 H 10.4308 -0.330498 4.59814 0
M  V30 161 H 13.9748 2.55672 6.49059 0
M  V30 162 H 9.8718 1.33454 6.31554 0
M  V30 163 H 10.6398 2.93116 7.64215 0
M  V30 164 N 13.3029 -1.57598 0.00835791 0
M  V30 165 C 14.2349 -2.05811 -1.00868 0
M  V30 166 C 15.2479 -0.977579 -1.30182 0
M  V30 167 O 16.4369 -1.25421 -1.27011 0
M  V30 168 C 13.5369 -2.45016 -2.34137 0
M  V30 169 C 12.7099 -3.75903 -2.23643 0
M  V30 170 C 11.7689 -4.01884 -3.3967 0
M  V30 171 O 10.7949 -4.72433 -3.17483 0
M  V30 172 N 11.9969 -3.50432 -4.62793 0
M  V30 173 H 14.7619 -2.93684 -0.597458 0
M  V30 174 H 12.3229 -1.60909 -0.178852 0
M  V30 175 H 14.3149 -2.59506 -3.10546 0
M  V30 176 H 12.8849 -1.62618 -2.66972 0
M  V30 177 H 12.1049 -3.7141 -1.32091 0
M  V30 178 H 13.3929 -4.61695 -2.13812 0
M  V30 179 H 12.7909 -2.93317 -4.83716 0
M  V30 180 H 11.3479 -3.70236 -5.3644 0
M  V30 181 N 14.781 0.264519 -1.55364 0
M  V30 182 C 16.192 0.834936 -1.6699 0
M  V30 183 C 16.543 1.86718 -0.602552 0
M  V30 184 O 15.668 2.14899 0.254425 0
M  V30 185 C 16.263 1.5212 -3.02729 0
M  V30 186 C 14.822 2.03954 -3.16354 0
M  V30 187 C 13.969 0.884498 -2.62815 0
M  V30 188 H 16.92 0.0406869 -1.58648 0
M  V30 189 H 16.941 2.38853 -2.96191 0
M  V30 190 H 16.453 0.769668 -3.80392 0
M  V30 191 H 14.554 2.82041 -2.43482 0
M  V30 192 H 14.667 2.24902 -4.23032 0
M  V30 193 H 13.031 1.2802 -2.20188 0
M  V30 194 H 13.814 0.14634 -3.42988 0
M  V30 195 N 16.2591 1.48442 0.529413 0
M  V30 196 C 17.2221 1.62524 1.61612 0
M  V30 197 C 18.2221 0.498509 1.52877 0
M  V30 198 O 19.4121 0.76431 1.56537 0
M  V30 199 C 16.5441 1.59597 3.01233 0
M  V30 200 H 17.7371 2.59423 1.50465 0
M  V30 201 H 15.2901 1.37047 0.751514 0
M  V30 202 H 16.0251 0.641781 3.17886 0
M  V30 203 H 15.8101 2.41397 3.08982 0
M  V30 204 H 17.3001 1.72646 3.80241 0
M  V30 205 N 17.7372 -0.778329 1.37039 0
M  V30 206 C 18.7002 -1.87301 1.32102 0
M  V30 207 C 19.7002 -1.59198 0.226405 0
M  V30 208 O 20.8902 -1.67403 0.481861 0
M  V30 209 C 18.0222 -3.24309 1.05055 0
M  V30 210 H 19.2152 -1.93093 2.29467 0
M  V30 211 H 16.7682 -0.977358 1.21973 0
M  V30 212 H 17.5032 -3.24196 0.0819373 0
M  V30 213 H 17.2882 -3.46098 1.84279 0
M  V30 214 H 18.7782 -4.04382 1.04234 0
M  V30 215 N 19.2153 -1.21501 -1.00376 0
M  V30 216 C 20.4403 -1.05977 -1.78279 0
M  V30 217 C 20.8653 0.385994 -1.84097 0
M  V30 218 O 20.2233 1.27849 -1.28547 0
M  V30 219 C 20.2713 -1.66302 -3.19963 0
M  V30 220 O 19.3753 -0.909333 -4.0225 0
M  V30 221 H 18.7163 -0.372906 -0.549397 0
M  V30 222 H 21.2463 -1.6107 -1.26165 0
M  V30 223 H 21.2563 -1.70574 -3.70632 0
M  V30 224 H 19.9313 -2.71515 -3.15043 0
M  V30 225 H 18.5083 -0.941795 -3.60811 0
M  V30 226 N 20.6934 1.19889 -1.02296 0
M  V30 227 C 21.9214 1.9339 -0.735399 0
M  V30 228 C 22.3364 1.75148 0.704887 0
M  V30 229 O 21.6934 1.06954 1.47875 0
M  V30 230 C 21.7444 3.45313 -1.06962 0
M  V30 231 O 21.4654 3.62964 -2.45334 0
M  V30 232 C 22.9664 4.35948 -0.804021 0
M  V30 233 H 20.1864 0.61448 -0.269546 0
M  V30 234 H 22.7304 1.522 -1.36585 0
M  V30 235 H 20.8854 3.84359 -0.484455 0
M  V30 236 H 21.2994 4.56886 -2.57595 0
M  V30 237 H 22.7734 5.41174 -1.0879 0
M  V30 238 H 23.2504 4.3842 0.261691 0
M  V30 239 H 23.8564 4.02574 -1.37164 0
M  V30 240 N 22.1715 0.800033 1.35784 0
M  V30 241 C 23.1185 0.203848 2.29898 0
M  V30 242 C 24.0885 -0.658375 1.52495 0
M  V30 243 O 25.2735 -0.604832 1.8096 0
M  V30 244 C 22.4135 -0.64688 3.38983 0
M  V30 245 C 21.5265 0.235054 4.3136 0
M  V30 246 C 20.6615 -0.623054 5.27533 0
M  V30 247 C 19.7005 0.259682 6.11549 0
M  V30 248 N 18.8375 -0.558019 6.99879 0
M  V30 249 H 23.6775 1.01186 2.80295 0
M  V30 250 H 21.2145 0.51053 1.37957 0
M  V30 251 H 23.1725 -1.15521 4.00887 0
M  V30 252 H 21.8025 -1.42021 2.89879 0
M  V30 253 H 20.8545 0.861438 3.70518 0
M  V30 254 H 22.1665 0.914768 4.9034 0
M  V30 255 H 21.3205 -1.19678 5.94779 0
M  V30 256 H 20.0595 -1.33636 4.69034 0
M  V30 257 H 19.0645 0.845726 5.43256 0
M  V30 258 H 20.2895 0.970748 6.72126 0
M  V30 259 H 18.2355 -1.25542 6.43875 0
M  V30 260 H 18.1525 0.0637872 7.55973 0
M  V30 261 H 19.4205 -1.11523 7.71481 0
M  V30 262 N 23.6496 -1.47581 0.552962 0
M  V30 263 C 24.5826 -2.26883 -0.244857 0
M  V30 264 C 25.5606 -1.33784 -0.924147 0
M  V30 265 O 26.7446 -1.6316 -0.943981 0
M  V30 266 C 23.8716 -3.10695 -1.34856 0
M  V30 267 C 22.9176 -4.19339 -0.778268 0
M  V30 268 S 23.7506 -5.34207 0.37184 0
M  V30 269 C 24.9066 -6.21584 -0.733779 0
M  V30 270 H 25.1396 -2.94202 0.428087 0
M  V30 271 H 22.6726 -1.50628 0.339197 0
M  V30 272 H 24.6306 -3.59555 -1.98066 0
M  V30 273 H 23.2916 -2.42746 -1.99332 0
M  V30 274 H 22.4846 -4.77695 -1.60696 0
M  V30 275 H 22.0866 -3.73338 -0.222422 0
M  V30 276 H 24.3786 -6.57676 -1.62692 0
M  V30 277 H 25.3216 -7.07851 -0.187668 0
M  V30 278 H 25.7296 -5.55125 -1.02454 0
M  V30 279 N 25.1277 -0.289203 -1.54924 0
M  V30 280 C 26.3677 0.324536 -2.01807 0
M  V30 281 C 26.7317 1.5199 -1.17316 0
M  V30 282 O 27.9327 2.20422 -1.53843 0
M  V30 283 C 26.2037 0.683578 -3.50802 0
M  V30 284 S 27.7627 1.28185 -4.19659 0
M  V30 285 H 24.5807 0.100236 -0.703899 0
M  V30 286 H 27.1827 -0.414325 -1.91059 0
M  V30 287 H 25.8867 -0.195073 -4.09936 0
M  V30 288 H 25.4177 1.45354 -3.65562 0
M  V30 289 H 27.4327 2.57006 -4.24456 0
M  V30 290 N 26.6058 1.57591 -0.0167156 0
M  V30 291 C 27.5158 2.1291 0.98521 0
M  V30 292 C 28.5318 1.07834 1.36557 0
M  V30 293 O 29.7078 1.39826 1.44951 0
M  V30 294 C 26.7728 2.63512 2.25305 0
M  V30 295 C 25.8338 3.83256 1.93426 0
M  V30 296 C 25.0668 4.31435 3.14165 0
M  V30 297 O 25.2898 3.78851 4.26413 0
M  V30 298 O 24.2238 5.23416 2.97186 0
M  V30 299 H 28.0498 2.98772 0.544888 0
M  V30 300 H 25.6348 1.48012 0.203141 0
M  V30 301 H 27.5168 2.96183 2.99756 0
M  V30 302 H 26.1918 1.8074 2.68542 0
M  V30 303 H 25.0988 3.55531 1.16398 0
M  V30 304 H 26.4318 4.67153 1.55013 0
M  V30 305 N 28.0839 -0.256276 1.55502 0
M  V30 306 C 29.0159 -1.33981 1.85962 0
M  V30 307 C 30.0289 -1.44743 0.745212 0
M  V30 308 O 31.2179 -1.4626 1.02324 0
M  V30 309 C 28.3179 -2.7194 2.02242 0
M  V30 310 C 27.4909 -2.83562 3.33033 0
M  V30 311 C 26.5499 -4.02304 3.39172 0
M  V30 312 O 25.5759 -3.92273 4.12444 0
M  V30 313 N 26.7779 -5.15045 2.67784 0
M  V30 314 H 29.5429 -1.08191 2.7949 0
M  V30 315 H 27.1039 -0.446388 1.55624 0
M  V30 316 H 29.0959 -3.49697 2.03701 0
M  V30 317 H 27.6659 -2.90479 1.15502 0
M  V30 318 H 26.8859 -1.92555 3.43971 0
M  V30 319 H 28.1739 -2.88271 4.19258 0
M  V30 320 H 27.5719 -5.26085 2.07968 0
M  V30 321 H 26.1289 -5.90972 2.74947 0
M  V30 322 N 29.562 -1.4872 -0.521534 0
M  V30 323 C 30.525 -1.63379 -1.60748 0
M  V30 324 C 31.525 -0.50661 -1.52611 0
M  V30 325 O 32.715 -0.772601 -1.5613 0
M  V30 326 C 29.847 -1.61192 -3.00383 0
M  V30 327 H 31.04 -2.60217 -1.49087 0
M  V30 328 H 28.593 -1.37444 -0.744235 0
M  V30 329 H 29.328 -0.65863 -3.17541 0
M  V30 330 H 29.113 -2.43032 -3.07698 0
M  V30 331 H 30.603 -1.7466 -3.7932 0
M  V30 332 N 31.0401 0.771051 -1.3745 0
M  V30 333 C 31.9701 1.89827 -1.3597 0
M  V30 334 C 32.9511 1.68562 -0.228216 0
M  V30 335 O 34.1361 1.8941 -0.428675 0
M  V30 336 C 31.2661 3.2712 -1.16662 0
M  V30 337 C 30.2201 3.6295 -2.2683 0
M  V30 338 C 29.5461 4.98791 -1.92644 0
M  V30 339 C 30.8461 3.69627 -3.69017 0
M  V30 340 H 32.5401 1.91323 -2.30295 0
M  V30 341 H 30.0861 0.919082 -1.10855 0
M  V30 342 H 32.0391 4.05615 -1.14256 0
M  V30 343 H 30.7631 3.26059 -0.187926 0
M  V30 344 H 29.4221 2.86763 -2.28392 0
M  V30 345 H 29.0701 4.94271 -0.933021 0
M  V30 346 H 28.7701 5.23733 -2.66416 0
M  V30 347 H 30.2941 5.79685 -1.91826 0
M  V30 348 H 31.7081 4.38273 -3.69581 0
M  V30 349 H 30.1051 4.06067 -4.41848 0
M  V30 350 H 31.1751 2.70273 -4.02592 0
M  V30 351 N 32.5182 1.22032 0.997298 0
M  V30 352 C 33.7662 1.04016 1.73278 0
M  V30 353 C 34.0872 -0.426255 1.90284 0
M  V30 354 O 33.3572 -1.30694 1.45931 0
M  V30 355 H 31.9372 0.381897 0.642 0
M  V30 356 H 34.5992 1.5347 1.20137 0
M  V30 357 H 33.6952 1.51441 2.72896 0
M  V30 358 N 33.9963 -1.19345 1.0293 0
M  V30 359 C 34.9433 -2.2258 0.610464 0
M  V30 360 C 35.9133 -1.6179 -0.375946 0
M  V30 361 O 37.0983 -1.88844 -0.272511 0
M  V30 362 C 34.2383 -3.45085 -0.0321473 0
M  V30 363 C 33.3513 -4.20258 1.00035 0
M  V30 364 C 32.4863 -5.3019 0.32746 0
M  V30 365 C 31.5253 -5.97121 1.34584 0
M  V30 366 N 30.6623 -6.98615 0.698726 0
M  V30 367 H 35.5023 -2.57764 1.49538 0
M  V30 368 H 33.0393 -1.26644 0.748311 0
M  V30 369 H 34.9973 -4.15061 -0.421966 0
M  V30 370 H 33.6273 -3.10555 -0.88064 0
M  V30 371 H 32.6793 -3.49223 1.50823 0
M  V30 372 H 33.9913 -4.66175 1.77433 0
M  V30 373 H 33.1453 -6.06587 -0.11718 0
M  V30 374 H 31.8843 -4.85345 -0.478713 0
M  V30 375 H 30.8893 -5.19474 1.80074 0
M  V30 376 H 32.1143 -6.4405 2.15352 0
M  V30 377 H 30.0603 -6.55942 -0.0873471 0
M  V30 378 H 29.9773 -7.42724 1.41058 0
M  V30 379 H 31.2453 -7.79004 0.278102 0
M  V30 380 N 35.4744 -0.807222 -1.35358 0
M  V30 381 C 36.7224 -0.387122 -1.98358 0
M  V30 382 C 37.0434 1.04942 -1.64354 0
M  V30 383 O 36.3134 1.72615 -0.926339 0
M  V30 384 H 34.8934 -0.140154 -0.733734 0
M  V30 385 H 37.5554 -1.0332 -1.6526 0
M  V30 386 H 36.6514 -0.493352 -3.08176 0
M  V30 387 N 36.9525 1.47285 -0.560781 0
M  V30 388 C 38.1925 2.0436 -0.0404627 0
M  V30 389 C 38.5565 1.42534 1.28639 0
M  V30 390 O 39.7575 1.90677 1.89462 0
M  V30 391 C 38.0285 3.57369 0.0471856 0
M  V30 392 S 39.5875 4.3579 0.513109 0
M  V30 393 H 36.4055 0.710492 -0.0268674 0
M  V30 394 H 39.0075 1.80611 -0.748323 0
M  V30 395 H 37.7115 3.9989 -0.922817 0
M  V30 396 H 37.2425 3.8562 0.778491 0
M  V30 397 H 39.2575 4.63476 1.77212 0
M  V30 398 N 38.4306 0.297415 1.54768 0
M  V30 399 C 39.6786 -0.312295 1.99673 0
M  V30 400 C 39.9996 -1.54686 1.18732 0
M  V30 401 O 39.2696 -1.93854 0.282382 0
M  V30 402 H 37.8496 -0.118381 0.73756 0
M  V30 403 H 40.5116 0.407915 1.90583 0
M  V30 404 H 39.6076 -0.586813 3.06534 0
M  V30 405 N 39.9087 -1.5758 0.0250728 0
M  V30 406 C 40.8717 -2.08896 -0.943139 0
M  V30 407 C 41.8717 -1.00321 -1.25668 0
M  V30 408 O 43.0617 -1.26495 -1.19769 0
M  V30 409 C 40.1937 -2.55143 -2.26086 0
M  V30 410 H 41.3867 -2.95723 -0.498775 0
M  V30 411 H 38.9397 -1.54703 -0.222888 0
M  V30 412 H 39.6747 -1.71633 -2.75159 0
M  V30 413 H 39.4597 -3.34461 -2.04641 0
M  V30 414 H 40.9497 -2.95083 -2.95492 0
M  V30 415 N 41.3868 0.248026 -1.55636 0
M  V30 416 C 42.6638 0.998988 -1.68165 0
M  V30 417 C 43.0438 2.03409 -0.564621 0
M  V30 418 O 42.3918 2.24378 0.432076 0
M  V30 419 C 42.6018 1.63334 -3.0842 0
M  V30 420 C 43.9498 2.13562 -3.66983 0
M  V30 421 O 44.9738 1.73277 -3.11213 0
M  V30 422 O 43.8328 2.87526 -4.64749 0
M  V30 423 H 40.9268 0.464933 -0.683935 0
M  V30 424 H 43.4728 0.241902 -1.67967 0
M  V30 425 H 42.2448 0.884583 -3.8117 0
M  V30 426 H 41.8678 2.45666 -3.12624 0
M  V30 427 N 42.8649 1.48995 0.513639 0
M  V30 428 C 44.0899 1.61792 1.29762 0
M  V30 429 C 44.5149 0.284475 1.85936 0
M  V30 430 O 43.8729 -0.746185 1.65232 0
M  V30 431 C 43.9209 2.67993 2.41272 0
M  V30 432 O 43.0249 2.26287 3.44772 0
M  V30 433 H 42.3659 0.541963 0.38363 0
M  V30 434 H 44.8959 1.95097 0.616307 0
M  V30 435 H 44.9059 2.89772 2.87221 0
M  V30 436 H 43.5809 3.64791 1.9975 0
M  V30 437 H 42.1579 2.14788 3.04829 0
M  V30 438 N 44.343 -0.763751 1.37857 0
M  V30 439 C 45.29 -1.87726 1.34267 0
M  V30 440 C 46.26 -1.64807 0.206879 0
M  V30 441 O 47.445 -1.86613 0.397508 0
M  V30 442 C 44.585 -3.24896 1.16346 0
M  V30 443 C 43.698 -3.59716 2.39225 0
M  V30 444 C 42.833 -4.86137 2.14114 0
M  V30 445 C 41.872 -5.13711 3.32817 0
M  V30 446 N 41.009 -6.31323 3.07206 0
M  V30 447 H 45.849 -1.90129 2.29466 0
M  V30 448 H 43.386 -0.929433 1.14017 0
M  V30 449 H 45.344 -4.04036 1.03975 0
M  V30 450 H 43.974 -3.21847 0.247909 0
M  V30 451 H 43.026 -2.75498 2.62307 0
M  V30 452 H 44.338 -3.76027 3.27728 0
M  V30 453 H 43.492 -5.73198 1.9882 0
M  V30 454 H 42.231 -4.71945 1.22961 0
M  V30 455 H 41.236 -4.25123 3.48641 0
M  V30 456 H 42.461 -5.29807 4.24832 0
M  V30 457 H 40.407 -6.18474 2.1869 0
M  V30 458 H 40.324 -6.48087 3.89254 0
M  V30 459 H 41.592 -7.213 2.95546 0
M  V30 460 N 45.8211 -1.22559 -0.990812 0
M  V30 461 C 46.7681 -0.997519 -2.0813 0
M  V30 462 C 47.7381 0.0814702 -1.659 0
M  V30 463 O 48.9231 -0.0685424 -1.90677 0
M  V30 464 C 46.0631 -0.583615 -3.40129 0
M  V30 465 C 45.1761 -1.7336 -3.9569 0
M  V30 466 C 44.3111 -1.26748 -5.15857 0
M  V30 467 C 43.3501 -2.38888 -5.63559 0
M  V30 468 N 42.4871 -1.93308 -6.74964 0
M  V30 469 H 47.3271 -1.93099 -2.26973 0
M  V30 470 H 44.8641 -0.962114 -1.11273 0
M  V30 471 H 46.8221 -0.324801 -4.15934 0
M  V30 472 H 45.4521 0.312845 -3.2128 0
M  V30 473 H 44.5041 -2.10669 -3.16738 0
M  V30 474 H 45.8161 -2.57704 -4.27071 0
M  V30 475 H 44.9701 -0.966173 -5.98957 0
M  V30 476 H 43.7091 -0.394272 -4.86104 0
M  V30 477 H 42.7141 -2.69805 -4.79046 0
M  V30 478 H 43.9391 -3.26728 -5.95336 0
M  V30 479 H 41.8851 -1.08352 -6.4699 0
M  V30 480 H 41.8021 -2.71217 -7.05675 0
M  V30 481 H 43.0701 -1.66252 -7.61564 0
M  V30 482 N 47.2992 1.18797 -1.03562 0
M  V30 483 C 48.2462 2.22253 -0.622259 0
M  V30 484 C 49.2162 1.61987 0.36736 0
M  V30 485 O 50.4012 1.88986 0.262492 0
M  V30 486 C 47.5412 3.45097 0.0138462 0
M  V30 487 C 46.6542 4.19722 -1.02263 0
M  V30 488 C 45.7892 5.30009 -0.355573 0
M  V30 489 C 44.8282 5.96399 -1.37749 0
M  V30 490 N 43.9652 6.98234 -0.735766 0
M  V30 491 H 48.8052 2.56968 -1.50903 0
M  V30 492 H 46.3422 1.26245 -0.755017 0
M  V30 493 H 48.3002 4.15279 0.399948 0
M  V30 494 H 46.9302 3.11018 0.864158 0
M  V30 495 H 45.9822 3.48418 -1.52673 0
M  V30 496 H 47.2942 4.65227 -1.79903 0
M  V30 497 H 46.4482 6.0664 0.0850095 0
M  V30 498 H 45.1872 4.85592 0.452967 0
M  V30 499 H 44.1922 5.18512 -1.82826 0
M  V30 500 H 45.4172 6.42899 -2.18764 0
M  V30 501 H 43.3632 6.55979 0.0525597 0
M  V30 502 H 43.2802 7.41965 -1.44995 0
M  V30 503 H 44.5482 7.78845 -0.31941 0
M  V30 504 N 48.7773 0.814389 1.34928 0
M  V30 505 C 50.1933 0.499084 1.51596 0
M  V30 506 C 50.3933 -0.978319 1.76157 0
M  V30 507 O 49.4493 -1.76309 1.80752 0
M  V30 508 C 50.7623 1.35121 2.68631 0
M  V30 509 C 52.3103 1.34746 2.82511 0
M  V30 510 C 52.7853 2.18388 4.0258 0
M  V30 511 N 54.2763 2.15966 4.09772 0
M  V30 512 C 55.0113 2.77437 5.01813 0
M  V30 513 N 54.5073 3.47866 5.99134 0
M  V30 514 N 56.3003 2.67037 4.94619 0
M  V30 515 H 48.4513 1.7711 1.17243 0
M  V30 516 H 50.7143 0.754256 0.574284 0
M  V30 517 H 50.4203 2.40001 2.57085 0
M  V30 518 H 50.2943 1.00991 3.63429 0
M  V30 519 H 52.6813 0.30648 2.93504 0
M  V30 520 H 52.7623 1.72869 1.88547 0
M  V30 521 H 52.4063 3.2253 3.92347 0
M  V30 522 H 52.3363 1.77621 4.9574 0
M  V30 523 H 54.8273 1.64729 3.40107 0
M  V30 524 H 55.1403 3.92038 6.65977 0
M  V30 525 H 53.4853 3.51972 5.99284 0
M  V30 526 H 56.6763 2.11597 4.17546 0
M  V30 527 H 56.8493 3.15232 5.66156 0
M  V30 528 N 50.2554 -1.46986 0.568584 0
M  V30 529 C 51.6664 -1.86188 0.138219 0
M  V30 530 C 52.0174 -1.47388 -1.29504 0
M  V30 531 O 51.1424 -0.88219 -1.97602 0
M  V30 532 C 51.7374 -3.3792 0.244065 0
M  V30 533 C 50.2964 -3.76171 -0.131335 0
M  V30 534 C 49.4434 -2.71027 0.586465 0
M  V30 535 H 52.3944 -1.38342 0.777645 0
M  V30 536 H 52.4154 -3.76729 -0.534351 0
M  V30 537 H 51.9274 -3.66128 1.28731 0
M  V30 538 H 50.0284 -3.5358 -1.17526 0
M  V30 539 H 50.1414 -4.78523 0.235146 0
M  V30 540 H 48.5054 -2.54684 0.0282722 0
M  V30 541 H 49.2884 -3.02077 1.63109 0
M  V30 542 N 51.7335 -0.305618 -1.54608 0
M  V30 543 C 53.1445 0.186098 -1.8577 0
M  V30 544 C 53.4955 1.53058 -1.22751 0
M  V30 545 O 52.6205 2.09888 -0.526893 0
M  V30 546 C 53.2155 0.344449 -3.37044 0
M  V30 547 C 51.7745 0.780384 -3.68221 0
M  V30 548 C 50.9215 -0.108554 -2.77087 0
M  V30 549 H 53.8725 -0.526485 -1.49712 0
M  V30 550 H 53.8935 1.17828 -3.61796 0
M  V30 551 H 53.4055 -0.634235 -3.82883 0
M  V30 552 H 51.5065 1.76945 -3.27904 0
M  V30 553 H 51.6195 0.596572 -4.75371 0
M  V30 554 H 49.9835 0.412931 -2.5133 0
M  V30 555 H 50.7665 -1.08368 -3.25747 0
M  V30 556 N 53.2116 1.57565 -0.0334293 0
M  V30 557 C 54.1436 2.0739 0.975811 0
M  V30 558 C 55.1566 0.998166 1.2861 0
M  V30 559 O 56.3456 1.27426 1.25 0
M  V30 560 C 53.4456 2.4871 2.30209 0
M  V30 561 C 52.6186 3.79413 2.17634 0
M  V30 562 C 51.6776 4.07237 3.33233 0
M  V30 563 O 50.7036 4.77425 3.09927 0
M  V30 564 N 51.9056 3.5775 4.5716 0
M  V30 565 H 54.6706 2.94598 0.55066 0
M  V30 566 H 52.2316 1.61173 0.15323 0
M  V30 567 H 54.2236 2.64413 3.06378 0
M  V30 568 H 52.7936 1.66845 2.64351 0
M  V30 569 H 52.0136 3.73465 1.26165 0
M  V30 570 H 53.3016 4.65038 2.0644 0
M  V30 571 H 52.6996 3.00976 4.78989 0
M  V30 572 H 51.2566 3.78724 5.30482 0
M  V30 573 N 54.6897 -0.239769 1.55765 0
M  V30 574 C 56.1007 -0.808263 1.68297 0
M  V30 575 C 56.4517 -1.85736 0.632181 0
M  V30 576 O 55.5767 -2.15277 -0.220204 0
M  V30 577 C 56.1717 -1.47284 3.05111 0
M  V30 578 C 54.7307 -1.98895 3.19559 0
M  V30 579 C 53.8777 -0.842575 2.64189 0
M  V30 580 H 56.8287 -0.0154422 1.58692 0
M  V30 581 H 56.8497 -2.34111 2.99954 0
M  V30 582 H 56.3617 -0.709053 3.81568 0
M  V30 583 H 54.4627 -2.78132 2.47938 0
M  V30 584 H 54.5757 -2.18143 4.26556 0
M  V30 585 H 52.9397 -1.24501 2.22197 0
M  V30 586 H 53.7227 -0.0917552 3.43177 0
M  V30 587 N 56.1678 -1.49265 -0.50573 0
M  V30 588 C 57.5788 -1.51769 -1.08734 0
M  V30 589 C 57.9298 -0.301192 -1.93874 0
M  V30 590 O 57.0548 0.589456 -2.08217 0
M  V30 591 C 57.6498 -2.75017 -1.97867 0
M  V30 592 C 56.2088 -2.80314 -2.51199 0
M  V30 593 C 55.3558 -2.4562 -1.28709 0
M  V30 594 H 58.3068 -1.56031 -0.289855 0
M  V30 595 H 58.3278 -2.5491 -2.82491 0
M  V30 596 H 57.8398 -3.63539 -1.35873 0
M  V30 597 H 55.9408 -1.96061 -3.16845 0
M  V30 598 H 56.0538 -3.82366 -2.88675 0
M  V30 599 H 54.4178 -1.97297 -1.61078 0
M  V30 600 H 55.2008 -3.36411 -0.6843 0
M  V30 601 N 57.6459 0.756429 -1.3826 0
M  V30 602 C 58.5559 1.9009 -1.37488 0
M  V30 603 C 59.5719 1.71855 -0.272366 0
M  V30 604 O 60.7479 1.94827 -0.510318 0
M  V30 605 C 57.8129 3.25421 -1.19592 0
M  V30 606 C 56.8739 3.56202 -2.39622 0
M  V30 607 C 56.1069 4.85075 -2.2257 0
M  V30 608 O 56.3299 5.57246 -1.21793 0
M  V30 609 O 55.2639 5.15269 -3.11098 0
M  V30 610 H 59.0899 1.93695 -2.33914 0
M  V30 611 H 56.6749 0.901313 -1.1915 0
M  V30 612 H 58.5569 4.06337 -1.11661 0
M  V30 613 H 57.2319 3.22634 -0.262486 0
M  V30 614 H 56.1389 2.75458 -2.53128 0
M  V30 615 H 57.4719 3.63747 -3.31586 0
M  V30 616 N 59.124 1.23083 0.984299 0
M  V30 617 C 60.034 1.02515 2.11016 0
M  V30 618 C 61.05 -0.0291702 1.73976 0
M  V30 619 O 62.226 0.165434 2.00719 0
M  V30 620 C 59.291 0.614673 3.41208 0
M  V30 621 C 58.352 1.74359 3.92297 0
M  V30 622 C 57.585 1.35261 5.16275 0
M  V30 623 O 57.808 0.235136 5.69915 0
M  V30 624 O 56.742 2.17227 5.61334 0
M  V30 625 H 60.568 1.96862 2.31255 0
M  V30 626 H 58.153 1.01753 1.09392 0
M  V30 627 H 60.035 0.396518 4.1953 0
M  V30 628 H 58.71 -0.299851 3.22308 0
M  V30 629 H 57.617 2.01635 3.1511 0
M  V30 630 H 58.95 2.63629 4.15645 0
M  V30 631 N 60.6021 -1.18246 1.0419 0
M  V30 632 C 61.8271 -1.92736 0.765996 0
M  V30 633 C 62.2521 -1.75728 -0.67091 0
M  V30 634 O 61.6101 -1.06825 -1.46486 0
M  V30 635 C 61.6581 -3.42148 1.13875 0
M  V30 636 O 60.7621 -4.11548 0.264954 0
M  V30 637 H 60.1031 -0.601238 0.281797 0
M  V30 638 H 62.6331 -1.49942 1.39207 0
M  V30 639 H 62.6431 -3.92858 1.1012 0
M  V30 640 H 61.3181 -3.53848 2.18551 0
M  V30 641 H 59.8951 -3.71137 0.362226 0
M  V30 642 N 62.0802 -0.821533 -1.34494 0
M  V30 643 C 63.0122 -0.199946 -2.28326 0
M  V30 644 C 64.0252 0.609377 -1.50965 0
M  V30 645 O 65.2142 0.439285 -1.7301 0
M  V30 646 C 62.3142 0.738431 -3.30757 0
M  V30 647 C 61.4872 -0.0277632 -4.37391 0
M  V30 648 C 60.5462 0.831332 -5.19591 0
M  V30 649 O 59.5722 0.276822 -5.68526 0
M  V30 650 N 60.7742 2.15132 -5.39165 0
M  V30 651 H 63.5392 -1.00609 -2.82308 0
M  V30 652 H 61.1002 -0.678366 -1.47003 0
M  V30 653 H 63.0922 1.31773 -3.82646 0
M  V30 654 H 61.6622 1.44533 -2.7718 0
M  V30 655 H 60.8822 -0.788359 -3.86236 0
M  V30 656 H 62.1702 -0.555251 -5.05761 0
M  V30 657 H 61.5682 2.62559 -5.01078 0
M  V30 658 H 60.1252 2.6795 -5.94177 0
M  V30 659 N 63.5583 1.46682 -0.576371 0
M  V30 660 C 64.9693 1.86112 -0.148091 0
M  V30 661 C 65.3203 1.48073 1.2872 0
M  V30 662 O 64.4453 0.892656 1.97131 0
M  V30 663 C 65.0403 3.37786 -0.261982 0
M  V30 664 C 63.5993 3.76235 0.111384 0
M  V30 665 C 62.7463 2.70713 -0.60083 0
M  V30 666 H 65.6973 1.37927 -0.78497 0
M  V30 667 H 65.7183 3.77007 0.514364 0
M  V30 668 H 65.2303 3.6544 -1.30671 0
M  V30 669 H 63.3313 3.54198 1.15649 0
M  V30 670 H 63.4443 4.78391 -0.26052 0
M  V30 671 H 61.8083 2.54666 -0.0417783 0
M  V30 672 H 62.5913 3.01208 -1.64708 0
M  V30 673 N 65.0364 0.313813 1.54444 0
M  V30 674 C 66.4474 -0.176243 1.85866 0
M  V30 675 C 66.7984 -1.52405 1.23561 0
M  V30 676 O 65.9234 -2.09605 0.538016 0
M  V30 677 C 66.5184 -0.32657 3.37222 0
M  V30 678 C 65.0774 -0.760846 3.6863 0
M  V30 679 C 64.2244 0.123247 2.77026 0
M  V30 680 H 67.1754 0.534418 1.49431 0
M  V30 681 H 67.1964 -1.15908 3.62416 0
M  V30 682 H 66.7084 0.654531 3.82541 0
M  V30 683 H 64.8094 -1.75204 3.28838 0
M  V30 684 H 64.9224 -0.571353 4.75681 0
M  V30 685 H 63.2864 -0.399597 2.51546 0
M  V30 686 H 64.0694 1.10094 3.25168 0
M  V30 687 N 66.5145 -1.57545 0.0417849 0
M  V30 688 C 67.4465 -2.07904 -0.964799 0
M  V30 689 C 68.4595 -1.00497 -1.28079 0
M  V30 690 O 69.6485 -1.28087 -1.24322 0
M  V30 691 C 66.7485 -2.49928 -2.28887 0
M  V30 692 C 65.9215 -3.80562 -2.15619 0
M  V30 693 C 64.9805 -4.08999 -3.31069 0
M  V30 694 O 64.0065 -4.79061 -3.0739 0
M  V30 695 N 65.2085 -3.6017 -4.55256 0
M  V30 696 H 67.9735 -2.94886 -0.535029 0
M  V30 697 H 65.5345 -1.61252 -0.144681 0
M  V30 698 H 67.5265 -2.66034 -3.04972 0
M  V30 699 H 66.0965 -1.68245 -2.63463 0
M  V30 700 H 65.3165 -3.74129 -1.24183 0
M  V30 701 H 66.6045 -4.66126 -2.03971 0
M  V30 702 H 66.0025 -3.03512 -4.77386 0
M  V30 703 H 64.5595 -3.81532 -5.28466 0
M  V30 704 N 67.9926 0.231505 -1.5589 0
M  V30 705 C 69.2176 0.978689 -1.82856 0
M  V30 706 C 69.6426 1.77559 -0.620846 0
M  V30 707 O 69.0006 1.76119 0.430305 0
M  V30 708 C 69.0486 1.87997 -3.07716 0
M  V30 709 O 68.1526 2.97393 -2.85712 0
M  V30 710 H 67.4936 0.277663 -0.603158 0
M  V30 711 H 70.0236 0.24783 -2.03093 0
M  V30 712 H 70.0336 2.2917 -3.37558 0
M  V30 713 H 68.7086 1.29417 -3.95252 0
M  V30 714 H 67.2856 2.60238 -2.67078 0
M  V30 715 N 69.4707 1.49531 0.497807 0
M  V30 716 C 70.4027 1.62559 1.61578 0
M  V30 717 C 71.4157 0.508134 1.54667 0
M  V30 718 O 72.6047 0.780309 1.60541 0
M  V30 719 C 69.7047 1.56925 3.00379 0
M  V30 720 C 68.8777 2.84257 3.3244 0
M  V30 721 C 67.9367 2.71632 4.50669 0
M  V30 722 O 66.9627 3.4557 4.52294 0
M  V30 723 N 68.1647 1.83391 5.5077 0
M  V30 724 H 70.9297 2.58981 1.50828 0
M  V30 725 H 68.4907 1.4666 0.685743 0
M  V30 726 H 70.4827 1.46129 3.77397 0
M  V30 727 H 69.0527 0.683483 3.05037 0
M  V30 728 H 68.2727 3.09381 2.44289 0
M  V30 729 H 69.5607 3.68666 3.5066 0
M  V30 730 H 68.9587 1.22583 5.52259 0
M  V30 731 H 67.5157 1.78515 6.26878 0
M  V30 732 N 70.9488 -0.749086 1.3866 0
M  V30 733 C 71.9118 -1.84457 1.36045 0
M  V30 734 C 72.9118 -1.58682 0.260122 0
M  V30 735 O 74.1018 -1.66343 0.517261 0
M  V30 736 C 71.2338 -3.22008 1.11911 0
M  V30 737 H 72.4268 -1.88182 2.33512 0
M  V30 738 H 69.9798 -0.951266 1.24019 0
M  V30 739 H 70.7148 -3.2395 0.150686 0
M  V30 740 H 70.4998 -3.42111 1.91579 0
M  V30 741 H 71.9898 -4.0208 1.12788 0
M  V30 742 N 72.4269 -1.23603 -0.977757 0
M  V30 743 C 73.3589 -0.977369 -2.07317 0
M  V30 744 C 74.3719 0.0495845 -1.62724 0
M  V30 745 O 75.5609 -0.186261 -1.77526 0
M  V30 746 C 72.6609 -0.451216 -3.35883 0
M  V30 747 C 71.8339 -1.53896 -4.09432 0
M  V30 748 C 70.8929 -1.01721 -5.16274 0
M  V30 749 O 69.9189 -1.70676 -5.43009 0
M  V30 750 N 71.1209 0.153594 -5.80297 0
M  V30 751 H 73.8859 -1.92047 -2.30082 0
M  V30 752 H 71.4469 -1.14497 -1.14465 0
M  V30 753 H 73.4389 -0.0871574 -4.04606 0
M  V30 754 H 72.0089 0.397368 -3.10064 0
M  V30 755 H 71.2289 -2.07566 -3.35127 0
M  V30 756 H 72.5169 -2.27037 -4.55337 0
M  V30 757 H 71.9149 0.730323 -5.60966 0
M  V30 758 H 70.4719 0.458892 -6.50183 0
M  V30 759 N 73.905 1.17692 -1.04816 0
M  V30 760 C 75.151 1.88137 -0.75711 0
M  V30 761 C 75.484 1.80604 0.713841 0
M  V30 762 O 74.759 1.21146 1.52164 0
M  V30 763 C 75.042 3.38318 -1.2334 0
M  V30 764 C 74.895 3.54622 -2.76701 0
M  V30 765 C 76.214 4.32214 -0.829415 0
M  V30 766 H 73.333 0.683163 -0.27651 0
M  V30 767 H 75.975 1.38424 -1.30149 0
M  V30 768 H 74.125 3.80787 -0.770286 0
M  V30 769 H 75.797 3.21194 -3.31107 0
M  V30 770 H 74.04 2.97026 -3.16161 0
M  V30 771 H 74.711 4.60028 -3.05088 0
M  V30 772 H 77.187 3.97565 -1.22805 0
M  V30 773 H 76.063 5.35838 -1.19033 0
M  V30 774 H 76.324 4.41294 0.266891 0
M  V30 775 N 75.3831 0.828654 1.34056 0
M  V30 776 C 76.7941 0.477534 1.8049 0
M  V30 777 C 77.1451 -1.00258 1.6865 0
M  V30 778 O 76.2701 -1.78057 1.22982 0
M  V30 779 C 76.8651 0.860018 3.27703 0
M  V30 780 C 75.4241 0.561185 3.72193 0
M  V30 781 C 74.5711 1.07385 2.55663 0
M  V30 782 H 77.5221 1.0183 1.21722 0
M  V30 783 H 77.5431 0.166038 3.80138 0
M  V30 784 H 77.0551 1.93731 3.36288 0
M  V30 785 H 75.1561 -0.506465 3.69142 0
M  V30 786 H 75.2691 1.10926 4.66082 0
M  V30 787 H 73.6331 0.495149 2.49841 0
M  V30 788 H 74.4161 2.15771 2.67016 0
M  V30 789 N 76.8612 -1.46375 0.584142 0
M  V30 790 C 78.2722 -1.86031 0.157959 0
M  V30 791 C 78.6232 -1.48753 -1.27933 0
M  V30 792 O 77.7482 -0.903098 -1.96655 0
M  V30 793 C 78.3432 -3.37642 0.279892 0
M  V30 794 C 76.9022 -3.76289 -0.09143 0
M  V30 795 C 76.0492 -2.7039 0.615178 0
M  V30 796 H 79.0002 -1.37509 0.792274 0
M  V30 797 H 79.0212 -3.77275 -0.494364 0
M  V30 798 H 78.5332 -3.64742 1.32607 0
M  V30 799 H 76.6342 -3.54806 -1.13769 0
M  V30 800 H 76.7472 -4.78246 0.285886 0
M  V30 801 H 75.1112 -2.5464 0.0552833 0
M  V30 802 H 75.8942 -3.0033 1.66303 0
M  V30 803 N 78.3393 -0.321999 -1.54275 0
M  V30 804 C 79.3023 0.531975 -2.22941 0
M  V30 805 C 80.3023 1.04478 -1.22234 0
M  V30 806 O 81.4923 0.937452 -1.46825 0
M  V30 807 C 78.6243 1.73874 -2.93224 0
M  V30 808 H 79.8173 -0.0682612 -2.99822 0
M  V30 809 H 77.3703 -0.0730644 -1.56129 0
M  V30 810 H 78.1053 2.37825 -2.20476 0
M  V30 811 H 77.8903 1.37847 -3.6707 0
M  V30 812 H 79.3803 2.34496 -3.45545 0
M  V30 813 N 79.8174 1.5752 -0.0501392 0
M  V30 814 C 80.7804 2.1037 0.909786 0
M  V30 815 C 81.7804 1.02308 1.24056 0
M  V30 816 O 82.9704 1.28385 1.17741 0
M  V30 817 C 80.1024 2.58708 2.21998 0
M  V30 818 H 81.2954 2.96479 0.451665 0
M  V30 819 H 78.8484 1.55038 0.198248 0
M  V30 820 H 79.5834 1.75989 2.72394 0
M  V30 821 H 79.3684 3.37675 1.99295 0
M  V30 822 H 80.8584 2.99747 2.9076 0
M  V30 823 N 81.2955 -0.223234 1.56011 0
M  V30 824 C 82.7065 -0.790368 1.69145 0
M  V30 825 C 83.0575 -1.85055 0.651845 0
M  V30 826 O 82.1825 -2.15498 -0.197359 0
M  V30 827 C 82.7775 -1.4404 3.06656 0
M  V30 828 C 81.3365 -1.95494 3.2165 0
M  V30 829 C 80.4835 -0.814506 2.65068 0
M  V30 830 H 83.4345 0.00139011 1.587 0
M  V30 831 H 83.4555 -2.30916 3.0242 0
M  V30 832 H 82.9675 -0.668543 3.82298 0
M  V30 833 H 81.0685 -2.75487 2.50874 0
M  V30 834 H 81.1815 -2.13607 4.28846 0
M  V30 835 H 79.5455 -1.22137 2.23505 0
M  V30 836 H 80.3285 -0.0553515 3.43255 0
M  V30 837 N 82.7736 -1.49793 -0.48987 0
M  V30 838 C 83.7236 -1.63673 -1.5873 0
M  V30 839 C 84.7076 -0.491956 -1.53195 0
M  V30 840 O 85.8996 -0.745461 -1.60536 0
M  V30 841 C 83.0286 -1.71689 -2.97284 0
M  V30 842 C 82.1146 -2.91781 -3.07774 0
M  V30 843 N 82.5056 -4.15714 -2.88124 0
M  V30 844 C 80.8036 -2.89949 -3.38889 0
M  V30 845 C 81.5046 -4.965 -3.03088 0
M  V30 846 N 80.4806 -4.30083 -3.3246 0
M  V30 847 H 84.2826 -2.57204 -1.42208 0
M  V30 848 H 81.7966 -1.46719 -0.69623 0
M  V30 849 H 83.7936 -1.79732 -3.76168 0
M  V30 850 H 82.4536 -0.793024 -3.14867 0
M  V30 851 H 83.4646 -4.45515 -2.64077 0
M  V30 852 H 80.1416 -2.06987 -3.62578 0
M  V30 853 H 81.5316 -6.04991 -2.92294 0
M  V30 854 N 84.2517 0.741722 -1.39055 0
M  V30 855 C 85.2017 1.84661 -1.33732 0
M  V30 856 C 86.1857 1.59397 -0.219401 0
M  V30 857 O 87.3777 1.71015 -0.456375 0
M  V30 858 C 84.5067 3.22512 -1.17647 0
M  V30 859 C 83.5927 3.53628 -2.34112 0
M  V30 860 N 83.9837 3.55723 -3.59576 0
M  V30 861 C 82.2817 3.83956 -2.26923 0
M  V30 862 C 82.9827 3.84443 -4.36553 0
M  V30 863 N 81.9587 4.01877 -3.66055 0
M  V30 864 H 85.7607 1.84576 -2.28711 0
M  V30 865 H 83.2747 0.939647 -1.32455 0
M  V30 866 H 85.2717 4.01597 -1.11917 0
M  V30 867 H 83.9317 3.2384 -0.236124 0
M  V30 868 H 84.9427 3.37196 -3.93089 0
M  V30 869 H 81.6197 3.92929 -1.41113 0
M  V30 870 H 83.0097 3.92588 -5.45274 0
M  V30 871 N 85.7298 1.2412 0.971189 0
M  V30 872 C 86.6798 0.997551 2.05019 0
M  V30 873 C 87.6638 -0.0597747 1.60789 0
M  V30 874 O 88.8558 0.153516 1.76333 0
M  V30 875 C 85.9848 0.600557 3.38006 0
M  V30 876 C 85.0708 1.69377 3.88809 0
M  V30 877 N 85.4618 2.92586 4.12586 0
M  V30 878 C 83.7598 1.57048 4.17435 0
M  V30 879 C 84.4608 3.63431 4.54195 0
M  V30 880 N 83.4368 2.90979 4.59165 0
M  V30 881 H 87.2388 1.93316 2.21374 0
M  V30 882 H 84.7528 1.14194 1.1547 0
M  V30 883 H 86.7498 0.40725 4.14906 0
M  V30 884 H 85.4098 -0.327903 3.2304 0
M  V30 885 H 86.4208 3.288 4.00139 0
M  V30 886 H 83.0978 0.709798 4.11422 0
M  V30 887 H 84.4878 4.69102 4.81033 0
M  V30 888 N 87.2079 -1.17134 1.05439 0
M  V30 889 C 88.1579 -2.1919 0.627675 0
M  V30 890 C 89.1419 -1.57328 -0.337147 0
M  V30 891 O 90.3339 -1.76329 -0.153976 0
M  V30 892 C 87.4629 -3.43299 0.00651435 0
M  V30 893 C 86.5489 -4.12255 0.995312 0
M  V30 894 N 86.9399 -4.56997 2.16765 0
M  V30 895 C 85.2379 -4.38316 0.824336 0
M  V30 896 C 85.9389 -5.10239 2.7934 0
M  V30 897 N 84.9149 -5.02595 2.07122 0
M  V30 898 H 88.7169 -2.5149 1.52086 0
M  V30 899 H 86.2309 -1.33491 0.924868 0
M  V30 900 H 88.2279 -4.15693 -0.316965 0
M  V30 901 H 86.8879 -3.1249 -0.882033 0
M  V30 902 H 87.8989 -4.51006 2.54587 0
M  V30 903 H 84.5759 -4.17498 -0.0129526 0
M  V30 904 H 85.9659 -5.54961 3.78772 0
M  V30 905 N 88.686 -0.835752 -1.33615 0
M  V30 906 C 89.636 -0.238856 -2.26745 0
M  V30 907 C 90.62 0.604343 -1.49119 0
M  V30 908 O 91.812 0.456822 -1.71003 0
M  V30 909 C 88.941 0.587725 -3.38232 0
M  V30 910 C 88.027 -0.266811 -4.2326 0
M  V30 911 N 88.418 -1.34403 -4.87616 0
M  V30 912 C 86.716 -0.0533131 -4.45968 0
M  V30 913 C 87.417 -1.86819 -5.50884 0
M  V30 914 N 86.393 -1.17013 -5.30857 0
M  V30 915 H 90.195 -1.06266 -2.74016 0
M  V30 916 H 87.709 -0.679881 -1.47483 0
M  V30 917 H 89.706 1.03161 -4.03935 0
M  V30 918 H 88.366 1.40954 -2.9251 0
M  V30 919 H 89.377 -1.7269 -4.88261 0
M  V30 920 H 86.054 0.735312 -4.10974 0
M  V30 921 H 87.444 -2.7701 -6.1214 0
M  V30 922 N 90.1641 1.46063 -0.591896 0
M  V30 923 C 91.1141 2.27458 0.157172 0
M  V30 924 C 92.0981 1.3641 0.853301 0
M  V30 925 O 93.2901 1.60517 0.74588 0
M  V30 926 C 90.4191 3.22956 1.16423 0
M  V30 927 C 89.5051 4.2149 0.469742 0
M  V30 928 N 89.8961 5.03519 -0.479839 0
M  V30 929 C 88.1941 4.40161 0.719319 0
M  V30 930 C 88.8951 5.74904 -0.886591 0
M  V30 931 N 87.8711 5.43097 -0.233731 0
M  V30 932 H 91.6731 2.88272 -0.572392 0
M  V30 933 H 89.1871 1.57024 -0.414375 0
M  V30 934 H 91.1841 3.79986 1.71513 0
M  V30 935 H 89.8441 2.63701 1.89451 0
M  V30 936 H 90.8551 5.1078 -0.855823 0
M  V30 937 H 87.5321 3.92046 1.43548 0
M  V30 938 H 88.9221 6.50844 -1.66888 0
M  V30 939 N 91.6422 0.330177 1.54103 0
M  V30 940 C 92.8672 -0.274893 2.0557 0
M  V30 941 C 93.2922 -1.44487 1.20437 0
M  V30 942 O 92.6502 -1.80021 0.214991 0
M  V30 943 C 92.6982 -0.68079 3.54115 0
M  V30 944 O 91.8022 -1.7824 3.71893 0
M  V30 945 H 91.1432 -0.0483849 0.662235 0
M  V30 946 H 93.6732 0.480508 1.98878 0
M  V30 947 H 93.6832 -0.961635 3.96505 0
M  V30 948 H 92.3582 0.174903 4.15532 0
M  V30 949 H 90.9352 -1.49985 3.41407 0
M  V30 950 N 93.1203 -1.57491 0.0584922 0
M  V30 951 C 94.0703 -2.08474 -0.923188 0
M  V30 952 C 95.0543 -0.991479 -1.26722 0
M  V30 953 O 96.2463 -1.25473 -1.24842 0
M  V30 954 C 93.3753 -2.6392 -2.19548 0
M  V30 955 C 92.4613 -3.80227 -1.87852 0
M  V30 956 N 92.8523 -4.89714 -1.26546 0
M  V30 957 C 91.1503 -3.89271 -2.17679 0
M  V30 958 C 91.8513 -5.70689 -1.12644 0
M  V30 959 N 90.8273 -5.18531 -1.63176 0
M  V30 960 H 94.6293 -2.90517 -0.444653 0
M  V30 961 H 92.1433 -1.61745 -0.145764 0
M  V30 962 H 94.1403 -2.98752 -2.9078 0
M  V30 963 H 92.8003 -1.83318 -2.68001 0
M  V30 964 H 93.8113 -5.09358 -0.936757 0
M  V30 965 H 90.4883 -3.19623 -2.68602 0
M  V30 966 H 91.8783 -6.6875 -0.6499 0
M  V30 967 N 94.5984 0.214957 -1.56127 0
M  V30 968 C 95.8234 0.95924 -1.83884 0
M  V30 969 C 96.2484 1.7689 -0.639644 0
M  V30 970 O 95.6064 1.76566 0.411601 0
M  V30 971 C 95.6544 1.84723 -3.09693 0
M  V30 972 O 94.7584 2.94346 -2.8885 0
M  V30 973 H 94.0994 0.27125 -0.606069 0
M  V30 974 H 96.6294 0.226276 -2.03345 0
M  V30 975 H 96.6394 2.25576 -3.39969 0
M  V30 976 H 95.3144 1.25218 -3.96602 0
M  V30 977 H 93.8914 2.57391 -2.69823 0
M  V30 978 N 96.0765 1.50051 0.48192 0
M  V30 979 C 97.3245 1.60181 1.23234 0
M  V30 980 C 97.6455 0.299176 1.92691 0
M  V30 981 O 96.9155 -0.682708 1.83619 0
M  V30 982 H 95.4955 0.590232 0.457859 0
M  V30 983 H 98.1575 1.86775 0.556881 0
M  V30 984 H 97.2535 2.40753 1.98607 0
M  V30 985 N 97.5546 -0.734337 1.39446 0
M  V30 986 C 98.9656 -1.31264 1.32766 0
M  V30 987 C 99.3166 -1.96198 -0.00767497 0
M  V30 988 O 98.4416 -1.96346 -0.909796 0
M  V30 989 C 99.0366 -2.38682 2.4045 0
M  V30 990 C 97.5956 -2.92184 2.37288 0
M  V30 991 C 96.7426 -1.6576 2.22304 0
M  V30 992 H 99.6936 -0.531799 1.49525 0
M  V30 993 H 99.7146 -3.19087 2.07276 0
M  V30 994 H 99.2266 -1.91392 3.37625 0
M  V30 995 H 97.3276 -3.43752 1.43754 0
M  V30 996 H 97.4406 -3.45253 3.3217 0
M  V30 997 H 95.8046 -1.9012 1.69489 0
M  V30 998 H 96.5876 -1.20521 3.21449 0
M  V30 999 N 99.0327 -1.24633 -0.964593 0
M  V30 1000 C 99.9427 -1.05859 -2.09359 0
M  V30 1001 C 100.959 0.00148855 -1.74 0
M  V30 1002 O 102.135 -0.197346 -2.00431 0
M  V30 1003 C 99.1997 -0.668879 -3.40187 0
M  V30 1004 C 98.2607 -1.80578 -3.89474 0
M  V30 1005 C 97.4937 -1.43457 -5.14058 0
M  V30 1006 O 97.7167 -0.325775 -5.69469 0
M  V30 1007 O 96.6507 -2.2613 -5.57807 0
M  V30 1008 H 100.477 -2.00516 -2.28094 0
M  V30 1009 H 98.0617 -1.03481 -1.0776 0
M  V30 1010 H 99.9437 -0.463211 -4.18846 0
M  V30 1011 H 98.6187 0.248536 -3.22744 0
M  V30 1012 H 97.5257 -2.06623 -3.11862 0
M  V30 1013 H 98.8587 -2.70208 -4.11398 0
M  V30 1014 N 100.511 1.16574 -1.06058 0
M  V30 1015 C 101.76 1.86385 -0.770944 0
M  V30 1016 C 102.073 1.82448 0.705129 0
M  V30 1017 O 103.279 2.47815 1.10905 0
M  V30 1018 C 101.735 3.34466 -1.32893 0
M  V30 1019 C 101.343 3.46883 -2.83507 0
M  V30 1020 C 103.087 4.09548 -1.11672 0
M  V30 1021 C 100.994 4.89036 -3.32562 0
M  V30 1022 H 99.9238 0.698181 -0.284709 0
M  V30 1023 H 102.575 1.31583 -1.27899 0
M  V30 1024 H 100.957 3.88859 -0.748662 0
M  V30 1025 H 102.131 3.02663 -3.47465 0
M  V30 1026 H 100.446 2.85232 -3.03368 0
M  V30 1027 H 103.043 5.14434 -1.45814 0
M  V30 1028 H 103.386 4.16264 -0.0549535 0
M  V30 1029 H 103.919 3.61387 -1.66265 0
M  V30 1030 H 100.658 4.87499 -4.38207 0
M  V30 1031 H 100.178 5.3389 -2.73351 0
M  V30 1032 H 101.857 5.57843 -3.2775 0
M  V30 1033 N 101.989 0.842826 1.3317 0
M  V30 1034 C 103.214 0.453129 2.02389 0
M  V30 1035 C 103.639 -0.939105 1.6298 0
M  V30 1036 O 102.997 -1.61472 0.8244 0
M  V30 1037 C 103.045 0.586094 3.55805 0
M  V30 1038 O 102.149 -0.386029 4.10589 0
M  V30 1039 H 101.49 0.183664 0.638094 0
M  V30 1040 H 104.02 1.13875 1.69981 0
M  V30 1041 H 104.03 0.469209 4.05293 0
M  V30 1042 H 102.705 1.6014 3.83833 0
M  V30 1043 H 101.282 -0.226371 3.72212 0
M  V30 1044 N 103.467 -1.45747 0.599634 0
M  V30 1045 C 104.883 -1.57424 0.26264 0
M  V30 1046 C 105.083 -1.59222 -1.23493 0
M  V30 1047 O 104.139 -1.51825 -2.01756 0
M  V30 1048 C 105.452 -2.86061 0.926795 0
M  V30 1049 C 107 -2.99722 0.901967 0
M  V30 1050 C 107.475 -4.31119 1.54598 0
M  V30 1051 N 108.966 -4.37858 1.5111 0
M  V30 1052 C 109.701 -5.3818 1.97863 0
M  V30 1053 N 109.197 -6.45083 2.52666 0
M  V30 1054 N 110.99 -5.29487 1.88679 0
M  V30 1055 H 103.141 -1.42823 1.57211 0
M  V30 1056 H 105.404 -0.68235 0.658105 0
M  V30 1057 H 105.11 -2.90605 1.98095 0
M  V30 1058 H 104.984 -3.74563 0.445238 0
M  V30 1059 H 107.371 -2.9475 -0.143617 0
M  V30 1060 H 107.452 -2.12652 1.42171 0
M  V30 1061 H 107.096 -4.36849 2.59085 0
M  V30 1062 H 107.026 -5.16992 1.00132 0
M  V30 1063 H 109.517 -3.61209 1.11068 0
M  V30 1064 H 109.83 -7.17869 2.86155 0
M  V30 1065 H 108.175 -6.45856 2.56701 0
M  V30 1066 H 111.366 -4.44877 1.4561 0
M  V30 1067 H 111.539 -6.07524 2.25429 0
M  V30 1068 N 104.945 -0.338344 -1.53925 0
M  V30 1069 C 106.194 0.260732 -2.00008 0
M  V30 1070 C 106.507 1.52073 -1.23017 0
M  V30 1071 O 107.713 2.19672 -1.5955 0
M  V30 1072 C 106.169 0.51515 -3.56194 0
M  V30 1073 C 105.777 -0.728645 -4.42035 0
M  V30 1074 C 107.521 1.07337 -4.10706 0
M  V30 1075 C 105.428 -0.445315 -5.89721 0
M  V30 1076 H 104.358 0.101205 -0.747177 0
M  V30 1077 H 107.009 -0.452866 -1.77824 0
M  V30 1078 H 105.391 1.28932 -3.74423 0
M  V30 1079 H 106.565 -1.50352 -4.35581 0
M  V30 1080 H 104.88 -1.20813 -3.98489 0
M  V30 1081 H 107.477 1.30022 -5.18651 0
M  V30 1082 H 107.82 2.0273 -3.63602 0
M  V30 1083 H 108.353 0.360034 -3.96167 0
M  V30 1084 H 105.092 -1.36883 -6.41049 0
M  V30 1085 H 104.612 0.291569 -5.99091 0
M  V30 1086 H 106.291 -0.0606218 -6.46972 0
M  V30 1087 N 106.423 1.57458 -0.0668435 0
M  V30 1088 C 107.672 1.92477 0.602947 0
M  V30 1089 C 107.985 0.948419 1.71068 0
M  V30 1090 O 109.191 1.19124 2.43971 0
M  V30 1091 C 107.647 3.41903 1.12383 0
M  V30 1092 C 107.255 4.47975 0.04737 0
M  V30 1093 C 108.999 3.85931 1.76797 0
M  V30 1094 C 106.906 5.88529 0.582022 0
M  V30 1095 H 105.836 0.718387 0.22899 0
M  V30 1096 H 108.487 1.82978 -0.138276 0
M  V30 1097 H 106.869 3.46459 1.91787 0
M  V30 1098 H 108.043 4.55029 -0.726978 0
M  V30 1099 H 106.358 4.13384 -0.500243 0
M  V30 1100 H 108.955 4.88322 2.17821 0
M  V30 1101 H 109.298 3.23029 2.62599 0
M  V30 1102 H 109.831 3.83958 1.04024 0
M  V30 1103 H 106.57 6.55065 -0.238721 0
M  V30 1104 H 106.09 5.85004 1.324 0
M  V30 1105 H 107.769 6.38258 1.05999 0
M  V30 1106 N 107.901 -0.206675 1.56239 0
M  V30 1107 C 109.147 -0.930218 1.80208 0
M  V30 1108 C 109.48 -1.83387 0.638981 0
M  V30 1109 O 108.755 -1.91119 -0.361066 0
M  V30 1110 C 109.038 -1.75641 3.1436 0
M  V30 1111 C 108.891 -0.878257 4.41142 0
M  V30 1112 C 110.21 -2.73129 3.45092 0
M  V30 1113 H 107.329 -0.336742 0.655571 0
M  V30 1114 H 109.971 -0.198222 1.88963 0
M  V30 1115 H 108.121 -2.38048 3.07027 0
M  V30 1116 H 109.793 -0.269787 4.6051 0
M  V30 1117 H 108.036 -0.184385 4.33408 0
M  V30 1118 H 108.707 -1.49106 5.3148 0
M  V30 1119 H 111.183 -2.20856 3.52649 0
M  V30 1120 H 110.059 -3.28028 4.40101 0
M  V30 1121 H 110.32 -3.51606 2.68003 0
M  V30 1122 N 109.379 -1.50304 -0.473955 0
M  V30 1123 C 110.656 -1.51667 -1.23518 0
M  V30 1124 C 111.036 -0.259701 -2.09496 0
M  V30 1125 O 110.384 0.756986 -2.15597 0
M  V30 1126 C 110.594 -2.81082 -2.06868 0
M  V30 1127 C 111.942 -3.31631 -2.65153 0
M  V30 1128 O 112.966 -2.82384 -2.17113 0
M  V30 1129 O 111.825 -4.17471 -3.52675 0
M  V30 1130 H 108.919 -0.60822 -0.560355 0
M  V30 1131 H 111.465 -1.62592 -0.486011 0
M  V30 1132 H 110.237 -3.64041 -1.4349 0
M  V30 1133 H 109.86 -2.73146 -2.88924 0
M  V30 1134 N 110.857 0.726932 -1.39834 0
M  V30 1135 C 112.268 1.30558 -1.3346 0
M  V30 1136 C 112.619 1.962 -0.00273003 0
M  V30 1137 O 111.744 1.96826 0.899371 0
M  V30 1138 C 112.339 2.37404 -2.41713 0
M  V30 1139 C 110.898 2.90921 -2.38835 0
M  V30 1140 C 110.045 1.64578 -2.2318 0
M  V30 1141 H 112.996 0.523862 -1.49804 0
M  V30 1142 H 113.017 3.17984 -2.08966 0
M  V30 1143 H 112.529 1.89599 -3.38635 0
M  V30 1144 H 110.63 3.42985 -1.45575 0
M  V30 1145 H 110.743 3.43487 -3.33997 0
M  V30 1146 H 109.107 1.89219 -1.70494 0
M  V30 1147 H 109.89 1.18814 -3.22084 0
M  V30 1148 N 112.336 1.25143 0.95797 0
M  V30 1149 C 113.564 1.12424 1.73691 0
M  V30 1150 C 113.979 -0.322304 1.86029 0
M  V30 1151 O 113.336 -1.22186 1.35561 0
M  V30 1152 C 113.387 1.76933 3.15241 0
M  V30 1153 O 113.108 3.15932 3.03511 0
M  V30 1154 C 114.609 1.6995 4.09429 0
M  V30 1155 H 111.829 0.3923 0.544373 0
M  V30 1156 H 114.373 1.6544 1.20207 0
M  V30 1157 H 112.528 1.27895 3.6568 0
M  V30 1158 H 112.942 3.47598 3.9278 0
M  V30 1159 H 114.416 2.19753 5.06372 0
M  V30 1160 H 114.893 0.662619 4.34173 0
M  V30 1161 H 115.499 2.18461 3.64904 0
M  V30 1162 N 113.814 -1.1601 1.06675 0
M  V30 1163 C 115.042 -1.90527 0.806667 0
M  V30 1164 C 115.457 -1.77643 -0.639396 0
M  V30 1165 O 114.814 -1.12369 -1.43803 0
M  V30 1166 C 114.865 -3.41106 1.19705 0
M  V30 1167 O 114.586 -3.53608 2.58636 0
M  V30 1168 C 116.087 -4.32663 0.965266 0
M  V30 1169 H 113.307 -0.604053 0.292166 0
M  V30 1170 H 115.851 -1.47026 1.4214 0
M  V30 1171 H 114.006 -3.82296 0.626774 0
M  V30 1172 H 114.42 -4.47011 2.74375 0
M  V30 1173 H 115.894 -5.36763 1.288 0
M  V30 1174 H 116.371 -4.39089 -0.0987936 0
M  V30 1175 H 116.977 -3.97206 1.52011 0
M  V30 1176 N 115.292 -0.849877 -1.32721 0
M  V30 1177 C 116.54 -0.450032 -1.97026 0
M  V30 1178 C 116.861 0.996604 -1.67609 0
M  V30 1179 O 116.131 1.6958 -0.980786 0
M  V30 1180 H 114.711 -0.163426 -0.728904 0
M  V30 1181 H 117.373 -1.08526 -1.6189 0
M  V30 1182 H 116.469 -0.591146 -3.0645 0
M  V30 1183 N 116.77 1.45427 -0.607355 0
M  V30 1184 C 117.717 2.3053 0.111625 0
M  V30 1185 C 118.687 1.4209 0.860216 0
M  V30 1186 O 119.872 1.71019 0.845998 0
M  V30 1187 C 117.012 3.26992 1.10319 0
M  V30 1188 C 116.125 4.30535 0.355493 0
M  V30 1189 C 115.26 5.14105 1.33676 0
M  V30 1190 C 114.299 6.09376 0.576862 0
M  V30 1191 N 113.436 6.85727 1.5074 0
M  V30 1192 H 118.276 2.91477 -0.620093 0
M  V30 1193 H 115.813 1.43631 -0.317594 0
M  V30 1194 H 117.771 3.81385 1.6912 0
M  V30 1195 H 116.401 2.67799 1.80232 0
M  V30 1196 H 115.453 3.78805 -0.348023 0
M  V30 1197 H 116.765 4.98235 -0.237423 0
M  V30 1198 H 115.919 5.72897 1.99684 0
M  V30 1199 H 114.658 4.46423 1.9636 0
M  V30 1200 H 113.663 5.49715 -0.0968519 0
M  V30 1201 H 114.888 6.79085 -0.0449341 0
M  V30 1202 H 112.834 6.20735 2.12189 0
M  V30 1203 H 112.751 7.49778 0.967913 0
M  V30 1204 H 114.019 7.4906 2.15706 0
M  V30 1205 N 118.248 0.346503 1.53744 0
M  V30 1206 C 119.664 -0.00530975 1.59599 0
M  V30 1207 C 119.864 -1.48465 1.36236 0
M  V30 1208 O 118.92 -2.24376 1.15808 0
M  V30 1209 C 120.233 0.433516 2.97559 0
M  V30 1210 C 121.781 0.386111 3.10609 0
M  V30 1211 C 122.256 0.800451 4.50951 0
M  V30 1212 N 123.747 0.754753 4.5701 0
M  V30 1213 C 124.482 1.04727 5.63755 0
M  V30 1214 N 123.978 1.4081 6.7834 0
M  V30 1215 N 125.771 0.971316 5.53644 0
M  V30 1216 H 117.922 1.31009 1.67184 0
M  V30 1217 H 120.185 0.534242 0.783128 0
M  V30 1218 H 119.891 1.46509 3.19731 0
M  V30 1219 H 119.765 -0.189753 3.76722 0
M  V30 1220 H 122.152 -0.636295 2.88158 0
M  V30 1221 H 122.233 1.04462 2.33498 0
M  V30 1222 H 121.877 1.82088 4.74137 0
M  V30 1223 H 121.807 0.119386 5.26465 0
M  V30 1224 H 124.298 0.488662 3.74727 0
M  V30 1225 H 124.611 1.61607 7.55714 0
M  V30 1226 H 122.956 1.44657 6.79779 0
M  V30 1227 H 126.147 0.688748 4.63005 0
M  V30 1228 H 126.32 1.20263 6.36742 0
M  V30 1229 N 119.726 -1.57421 0.075193 0
M  V30 1230 C 120.956 -1.97659 -0.601203 0
M  V30 1231 C 121.364 -0.952427 -1.63479 0
M  V30 1232 O 120.707 0.0688241 -1.83571 0
M  V30 1233 C 120.769 -3.34218 -1.32434 0
M  V30 1234 C 120.433 -4.5484 -0.443826 0
M  V30 1235 C 121.43 -5.19034 0.299969 0
M  V30 1236 C 119.115 -5.00952 -0.367709 0
M  V30 1237 C 121.109 -6.27695 1.10807 0
M  V30 1238 C 118.796 -6.09484 0.444058 0
M  V30 1239 C 119.794 -6.72719 1.18061 0
M  V30 1240 O 119.482 -7.79161 1.97898 0
M  V30 1241 H 119.214 -0.65494 -0.167422 0
M  V30 1242 H 121.768 -2.04886 0.145157 0
M  V30 1243 H 119.998 -3.23615 -2.11685 0
M  V30 1244 H 121.687 -3.59038 -1.89331 0
M  V30 1245 H 122.453 -4.84351 0.250776 0
M  V30 1246 H 118.332 -4.51509 -0.930638 0
M  V30 1247 H 121.876 -6.76982 1.68347 0
M  V30 1248 H 117.773 -6.43601 0.494803 0
M  V30 1249 H 118.541 -7.96055 1.90367 0
M  V30 1250 N 121.204 0.198386 -1.56346 0
M  V30 1251 C 122.444 0.92609 -1.82217 0
M  V30 1252 C 122.808 1.80584 -0.652195 0
M  V30 1253 O 124.009 2.56907 -0.790716 0
M  V30 1254 C 122.28 1.72354 -3.13096 0
M  V30 1255 S 123.839 2.50371 -3.6036 0
M  V30 1256 H 120.657 0.310677 -0.639532 0
M  V30 1257 H 123.259 0.189755 -1.94577 0
M  V30 1258 H 121.963 1.0678 -3.96265 0
M  V30 1259 H 121.494 2.50175 -3.03605 0
M  V30 1260 H 123.509 3.74488 -3.25535 0
M  V30 1261 N 122.682 1.50554 0.465978 0
M  V30 1262 C 124.098 1.38093 0.800154 0
M  V30 1263 C 124.298 0.440988 1.96615 0
M  V30 1264 O 123.354 -0.114499 2.5224 0
M  V30 1265 C 124.667 2.79565 1.10742 0
M  V30 1266 C 126.215 2.88516 1.21357 0
M  V30 1267 C 126.69 4.30833 1.55393 0
M  V30 1268 N 128.181 4.33807 1.62375 0
M  V30 1269 C 128.916 5.40927 1.90225 0
M  V30 1270 N 128.412 6.58247 2.16062 0
M  V30 1271 N 130.205 5.28376 1.9177 0
M  V30 1272 H 122.356 2.10237 -0.302366 0
M  V30 1273 H 124.619 0.945203 -0.0727746 0
M  V30 1274 H 124.325 3.50208 0.323661 0
M  V30 1275 H 124.199 3.17125 2.04234 0
M  V30 1276 H 126.586 2.1809 1.98799 0
M  V30 1277 H 126.667 2.54492 0.258321 0
M  V30 1278 H 126.311 5.01799 0.784889 0
M  V30 1279 H 126.241 4.62347 2.52076 0
M  V30 1280 H 128.732 3.49212 1.44427 0
M  V30 1281 H 129.045 7.3569 2.36601 0
M  V30 1282 H 127.39 6.61413 2.13444 0
M  V30 1283 H 130.581 4.35715 1.71085 0
M  V30 1284 H 130.754 6.11944 2.13139 0
M  V30 1285 N 124.16 -0.719506 1.40217 0
M  V30 1286 C 125.408 -1.47641 1.3801 0
M  V30 1287 C 125.729 -1.94992 -0.018145 0
M  V30 1288 O 124.999 -1.70073 -0.972207 0
M  V30 1289 H 123.579 -0.547744 0.507923 0
M  V30 1290 H 126.241 -0.853187 1.75233 0
M  V30 1291 H 125.337 -2.35112 2.05253 0
M  V30 1292 N 125.638 -1.25649 -0.95132 0
M  V30 1293 C 126.585 -1.06323 -2.04851 0
M  V30 1294 C 127.555 0.0286491 -1.66075 0
M  V30 1295 O 128.74 -0.12917 -1.90362 0
M  V30 1296 C 125.88 -0.691529 -3.381 0
M  V30 1297 C 124.993 -1.85861 -3.89974 0
M  V30 1298 C 124.128 -1.43096 -5.11563 0
M  V30 1299 C 123.167 -2.56696 -5.55674 0
M  V30 1300 N 122.304 -2.14684 -6.68472 0
M  V30 1301 H 127.144 -2.00222 -2.20715 0
M  V30 1302 H 124.681 -0.997027 -1.08156 0
M  V30 1303 H 126.639 -0.456963 -4.1469 0
M  V30 1304 H 125.269 0.210474 -3.22113 0
M  V30 1305 H 124.321 -2.20639 -3.09875 0
M  V30 1306 H 125.633 -2.71161 -4.18657 0
M  V30 1307 H 124.787 -1.15624 -5.9558 0
M  V30 1308 H 123.526 -0.548722 -4.84603 0
M  V30 1309 H 122.531 -2.84909 -4.7022 0
M  V30 1310 H 123.756 -3.45503 -5.8464 0
M  V30 1311 H 121.702 -1.28881 -6.43215 0
M  V30 1312 H 121.619 -2.9353 -6.96689 0
M  V30 1313 H 122.887 -1.90397 -7.5589 0
M  V30 1314 N 127.117 1.15442 -1.07289 0
M  V30 1315 C 128.363 1.86489 -0.796846 0
M  V30 1316 C 128.696 1.82078 0.675371 0
M  V30 1317 O 127.971 1.24346 1.4956 0
M  V30 1318 C 128.254 3.35626 -1.30489 0
M  V30 1319 C 128.107 3.48673 -2.84161 0
M  V30 1320 C 129.426 4.30357 -0.920907 0
M  V30 1321 H 126.545 0.677144 -0.290939 0
M  V30 1322 H 129.187 1.35633 -1.33056 0
M  V30 1323 H 127.337 3.79068 -0.850883 0
M  V30 1324 H 129.009 3.14099 -3.37846 0
M  V30 1325 H 127.252 2.90253 -3.22391 0
M  V30 1326 H 127.923 4.53453 -3.14777 0
M  V30 1327 H 130.399 3.94871 -1.3121 0
M  V30 1328 H 129.275 5.33193 -1.30372 0
M  V30 1329 H 129.536 4.4176 0.173226 0
M  V30 1330 N 128.595 0.856903 1.32268 0
M  V30 1331 C 129.525 0.31858 2.31316 0
M  V30 1332 C 130.506 -0.583487 1.59779 0
M  V30 1333 O 131.691 -0.503259 1.87566 0
M  V30 1334 C 128.821 -0.491979 3.43798 0
M  V30 1335 C 127.775 0.315849 4.26833 0
M  V30 1336 C 127.101 -0.619586 5.31098 0
M  V30 1337 C 128.401 1.54282 4.98993 0
M  V30 1338 H 130.095 1.14621 2.76591 0
M  V30 1339 H 127.641 0.552613 1.32974 0
M  V30 1340 H 129.594 -0.879012 4.1213 0
M  V30 1341 H 128.318 -1.35299 2.97257 0
M  V30 1342 H 126.977 0.684664 3.6015 0
M  V30 1343 H 126.625 -1.47751 4.8081 0
M  V30 1344 H 126.325 -0.0830621 5.87541 0
M  V30 1345 H 127.849 -1.00375 6.02293 0
M  V30 1346 H 129.263 1.22796 5.59995 0
M  V30 1347 H 127.66 2.01745 5.65172 0
M  V30 1348 H 128.73 2.30285 4.26728 0
M  V30 1349 N 130.073 -1.45103 0.615059 0
M  V30 1350 C 131.321 -2.01784 0.112955 0
M  V30 1351 C 131.642 -1.48504 -1.26378 0
M  V30 1352 O 130.912 -0.682245 -1.83636 0
M  V30 1353 H 129.492 -0.745993 0.0387668 0
M  V30 1354 H 132.154 -1.77808 0.798141 0
M  V30 1355 H 131.25 -3.12025 0.0684069 0
M  V30 1356 N 131.551 -0.354651 -1.53558 0
M  V30 1357 C 132.498 0.496968 -2.25386 0
M  V30 1358 C 133.468 1.0865 -1.25636 0
M  V30 1359 O 134.653 1.12104 -1.54394 0
M  V30 1360 C 131.793 1.63637 -3.03837 0
M  V30 1361 C 130.906 1.07307 -4.18461 0
M  V30 1362 C 130.041 2.18068 -4.84376 0
M  V30 1363 C 129.08 1.59147 -5.91049 0
M  V30 1364 N 128.217 2.63695 -6.50699 0
M  V30 1365 H 133.057 -0.122075 -2.9775 0
M  V30 1366 H 130.594 -0.0720154 -1.46924 0
M  V30 1367 H 132.552 2.30734 -3.47589 0
M  V30 1368 H 131.182 2.22623 -2.33749 0
M  V30 1369 H 130.234 0.292708 -3.79272 0
M  V30 1370 H 131.546 0.602193 -4.95152 0
M  V30 1371 H 130.7 2.93007 -5.31255 0
M  V30 1372 H 129.439 2.68504 -4.07133 0
M  V30 1373 H 128.444 0.827175 -5.43542 0
M  V30 1374 H 129.669 1.09549 -6.70206 0
M  V30 1375 H 127.615 3.13365 -5.76315 0
M  V30 1376 H 127.532 2.21263 -7.22896 0
M  V30 1377 H 128.8 3.3837 -7.02229 0
M  V30 1378 N 133.029 1.57378 -0.0835403 0
M  V30 1379 C 134.277 1.93547 0.581718 0
M  V30 1380 C 134.598 0.96524 1.69435 0
M  V30 1381 O 133.868 0.0153369 1.95894 0
M  V30 1382 H 132.448 0.714521 0.217874 0
M  V30 1383 H 135.11 1.94366 -0.144158 0
M  V30 1384 H 134.206 2.95665 0.999423 0
M  V30 1385 N 134.507 -0.190092 1.56449 0
M  V30 1386 C 135.755 -0.907908 1.80559 0
M  V30 1387 C 136.076 -1.83583 0.657438 0
M  V30 1388 O 135.346 -1.93203 -0.323924 0
M  V30 1389 H 133.926 -0.338247 0.666032 0
M  V30 1390 H 136.588 -0.194403 1.93928 0
M  V30 1391 H 135.684 -1.49604 2.73907 0
M  V30 1392 N 135.985 -1.50799 -0.457987 0
M  V30 1393 C 137.232 -1.62442 -1.20908 0
M  V30 1394 C 137.56 -0.330865 -1.91665 0
M  V30 1395 O 136.815 0.68401 -1.83357 0
M  V30 1396 C 137.114 -2.76358 -2.2663 0
M  V30 1397 C 136.78 -4.16378 -1.73033 0
M  V30 1398 C 135.442 -4.54473 -1.58138 0
M  V30 1399 C 137.794 -5.03836 -1.33413 0
M  V30 1400 C 135.122 -5.77754 -1.02065 0
M  V30 1401 C 137.474 -6.27676 -0.78778 0
M  V30 1402 C 136.138 -6.64562 -0.625561 0
M  V30 1403 H 135.408 -0.594417 -0.442435 0
M  V30 1404 H 138.055 -1.84772 -0.503136 0
M  V30 1405 H 136.36 -2.48167 -3.03184 0
M  V30 1406 H 138.057 -2.82568 -2.84528 0
M  V30 1407 H 134.647 -3.86331 -1.85598 0
M  V30 1408 H 138.831 -4.75026 -1.4375 0
M  V30 1409 H 134.087 -6.04997 -0.882547 0
M  V30 1410 H 138.261 -6.94797 -0.472177 0
M  V30 1411 H 135.888 -7.59965 -0.188926 0
M  V30 1412 N 137.463 0.71206 -1.40597 0
M  V30 1413 C 138.426 1.80785 -1.40888 0
M  V30 1414 C 139.426 1.57937 -0.302103 0
M  V30 1415 O 140.616 1.64913 -0.561182 0
M  V30 1416 C 137.748 3.18927 -1.20409 0
M  V30 1417 H 138.941 1.81924 -2.38419 0
M  V30 1418 H 136.494 0.91805 -1.26497 0
M  V30 1419 H 137.229 3.23436 -0.236522 0
M  V30 1420 H 137.014 3.36911 -2.00582 0
M  V30 1421 H 138.504 3.98949 -1.23408 0
M  V30 1422 N 138.941 1.26152 0.944643 0
M  V30 1423 C 139.888 1.07408 2.04285 0
M  V30 1424 C 140.858 -0.0198413 1.66088 0
M  V30 1425 O 142.043 0.139264 1.90291 0
M  V30 1426 C 139.183 0.70945 3.37729 0
M  V30 1427 C 138.296 1.87926 3.88983 0
M  V30 1428 C 137.431 1.45807 5.10797 0
M  V30 1429 C 136.47 2.5964 5.54305 0
M  V30 1430 N 135.607 2.18226 6.67324 0
M  V30 1431 H 140.447 2.01389 2.1965 0
M  V30 1432 H 137.984 1.00275 1.07626 0
M  V30 1433 H 139.942 0.478948 4.14442 0
M  V30 1434 H 138.572 -0.193389 3.2222 0
M  V30 1435 H 137.624 2.22279 3.08701 0
M  V30 1436 H 138.936 2.73377 4.17213 0
M  V30 1437 H 138.09 1.18781 5.94959 0
M  V30 1438 H 136.829 0.574414 4.84305 0
M  V30 1439 H 135.834 2.87399 4.68702 0
M  V30 1440 H 137.059 3.48599 5.828 0
M  V30 1441 H 135.005 1.3229 6.42523 0
M  V30 1442 H 134.922 2.97221 6.95123 0
M  V30 1443 H 136.19 1.94403 7.54869 0
M  V30 1444 N 140.419 -1.14872 1.07899 0
M  V30 1445 C 141.659 -1.8745 0.814965 0
M  V30 1446 C 142.023 -1.80758 -0.64733 0
M  V30 1447 O 143.224 -2.48422 -1.02664 0
M  V30 1448 C 141.495 -3.32286 1.31607 0
M  V30 1449 S 143.054 -4.22537 1.18357 0
M  V30 1450 H 139.872 -0.646833 0.295174 0
M  V30 1451 H 142.474 -1.38555 1.37923 0
M  V30 1452 H 141.178 -3.34703 2.37491 0
M  V30 1453 H 140.709 -3.86238 0.747261 0
M  V30 1454 H 142.724 -4.96044 0.124586 0
M  V30 1455 N 141.898 -0.863906 -1.31812 0
M  V30 1456 C 143.128 -0.485406 -2.00817 0
M  V30 1457 C 143.536 0.925007 -1.65046 0
M  V30 1458 O 142.879 1.61653 -0.872574 0
M  V30 1459 C 142.941 -0.555589 -3.55181 0
M  V30 1460 C 142.605 -1.92654 -4.14407 0
M  V30 1461 C 143.602 -2.89324 -4.31958 0
M  V30 1462 C 141.287 -2.2262 -4.50273 0
M  V30 1463 C 143.281 -4.14108 -4.84555 0
M  V30 1464 C 140.968 -3.47654 -5.02573 0
M  V30 1465 C 141.966 -4.43214 -5.19664 0
M  V30 1466 O 141.654 -5.66033 -5.70843 0
M  V30 1467 H 141.386 -0.188224 -0.649267 0
M  V30 1468 H 143.94 -1.16514 -1.69156 0
M  V30 1469 H 142.17 0.181037 -3.86276 0
M  V30 1470 H 143.859 -0.19138 -4.05449 0
M  V30 1471 H 144.625 -2.6748 -4.04573 0
M  V30 1472 H 140.504 -1.4902 -4.3625 0
M  V30 1473 H 144.048 -4.88703 -4.9781 0
M  V30 1474 H 139.945 -3.69345 -5.29391 0
M  V30 1475 H 140.713 -5.6812 -5.89222 0
M  V30 1476 N 143.376 1.44774 -0.622745 0
M  V30 1477 C 144.286 2.34433 0.0886031 0
M  V30 1478 C 145.302 1.52131 0.844529 0
M  V30 1479 O 146.478 1.84886 0.798691 0
M  V30 1480 C 143.543 3.29986 1.0635 0
M  V30 1481 C 142.604 4.28195 0.307873 0
M  V30 1482 C 141.837 5.19183 1.23633 0
M  V30 1483 O 142.06 5.13918 2.47476 0
M  V30 1484 O 140.994 5.97515 0.725189 0
M  V30 1485 H 144.82 2.96693 -0.648599 0
M  V30 1486 H 142.405 1.44408 -0.382957 0
M  V30 1487 H 144.287 3.88825 1.6246 0
M  V30 1488 H 142.962 2.70269 1.78146 0
M  V30 1489 H 141.869 3.72927 -0.296064 0
M  V30 1490 H 143.202 4.90808 -0.3699 0
M  V30 1491 N 144.854 0.36279 1.53368 0
M  V30 1492 C 145.787 -0.528507 2.21996 0
M  V30 1493 C 146.765 -1.0852 1.21087 0
M  V30 1494 O 147.949 -1.14186 1.4998 0
M  V30 1495 C 145.076 -1.72893 2.91249 0
M  V30 1496 C 144.122 -1.29994 4.06207 0
M  V30 1497 S 144.955 -0.303575 5.34639 0
M  V30 1498 C 146.111 -1.51039 6.07403 0
M  V30 1499 H 146.344 0.0543423 2.9725 0
M  V30 1500 H 143.877 0.146889 1.537 0
M  V30 1501 H 145.835 -2.41751 3.31763 0
M  V30 1502 H 144.496 -2.28303 2.15724 0
M  V30 1503 H 143.689 -2.19549 4.53667 0
M  V30 1504 H 143.291 -0.690608 3.67569 0
M  V30 1505 H 145.583 -2.44186 6.31965 0
M  V30 1506 H 146.526 -1.07721 6.99858 0
M  V30 1507 H 146.934 -1.71518 5.37812 0
M  V30 1508 N 146.332 -1.57332 0.0918853 0
M  V30 1509 C 147.56 -1.98574 -0.581048 0
M  V30 1510 C 147.975 -0.970903 -1.61923 0
M  V30 1511 O 147.332 0.0399054 -1.82456 0
M  V30 1512 C 147.383 -3.39872 -1.23164 0
M  V30 1513 O 147.104 -4.37469 -0.234989 0
M  V30 1514 C 148.605 -3.96099 -1.99049 0
M  V30 1515 H 145.825 -0.65261 -0.156018 0
M  V30 1516 H 148.369 -2.0379 0.170225 0
M  V30 1517 H 146.524 -3.35679 -1.93386 0
M  V30 1518 H 146.938 -5.19751 -0.70418 0
M  V30 1519 H 148.412 -4.97127 -2.39934 0
M  V30 1520 H 148.889 -3.3374 -2.85507 0
M  V30 1521 H 149.495 -4.03755 -1.3365 0
M  V30 1522 N 147.81 0.181792 -1.56548 0
M  V30 1523 C 149.087 0.926765 -1.72251 0
M  V30 1524 C 149.467 2.00831 -0.650386 0
M  V30 1525 O 148.815 2.26008 0.336521 0
M  V30 1526 C 149.025 1.50106 -3.1507 0
M  V30 1527 C 150.373 1.97805 -3.75711 0
M  V30 1528 O 151.397 1.59922 -3.18282 0
M  V30 1529 O 150.256 2.67555 -4.76525 0
M  V30 1530 H 147.35 0.435506 -0.703039 0
M  V30 1531 H 149.896 0.170443 -1.68842 0
M  V30 1532 H 148.668 0.72212 -3.84579 0
M  V30 1533 H 148.291 2.32186 -3.22763 0
M  V30 1534 N 149.288 1.51039 0.449983 0
M  V30 1535 C 150.218 1.74379 1.55288 0
M  V30 1536 C 151.199 0.593236 1.5942 0
M  V30 1537 O 152.384 0.834625 1.7535 0
M  V30 1538 C 149.514 1.85728 2.93466 0
M  V30 1539 C 148.468 3.01078 3.04197 0
M  V30 1540 C 147.794 2.97595 4.44231 0
M  V30 1541 C 149.094 4.41254 2.7945 0
M  V30 1542 H 150.788 2.66725 1.36008 0
M  V30 1543 H 148.334 1.2835 0.652864 0
M  V30 1544 H 150.287 2.0064 3.70569 0
M  V30 1545 H 149.011 0.900207 3.13949 0
M  V30 1546 H 147.67 2.85851 2.29531 0
M  V30 1547 H 147.318 1.99691 4.61663 0
M  V30 1548 H 147.018 3.75046 4.52343 0
M  V30 1549 H 148.542 3.14583 5.23326 0
M  V30 1550 H 149.956 4.56897 3.46292 0
M  V30 1551 H 148.353 5.20315 2.98985 0
M  V30 1552 H 149.423 4.52164 1.75144 0
M  V30 1553 N 150.766 -0.704594 1.40972 0
M  V30 1554 C 151.994 -1.49354 1.43182 0
M  V30 1555 C 152.409 -1.88768 0.0345508 0
M  V30 1556 O 151.766 -1.56184 -0.944081 0
M  V30 1557 C 151.817 -2.76187 2.33244 0
M  V30 1558 O 151.538 -2.38436 3.67532 0
M  V30 1559 C 153.039 -3.7 2.44162 0
M  V30 1560 H 150.259 -0.460559 0.487982 0
M  V30 1561 H 152.803 -0.868261 1.85153 0
M  V30 1562 H 150.958 -3.34974 1.94606 0
M  V30 1563 H 151.372 -3.20126 4.15475 0
M  V30 1564 H 152.846 -4.55803 3.11364 0
M  V30 1565 H 153.323 -4.13867 1.47006 0
M  V30 1566 H 153.929 -3.17121 2.83398 0
M  V30 1567 N 152.244 -1.26651 -0.937939 0
M  V30 1568 C 153.192 -1.08308 -2.05845 0
M  V30 1569 C 154.186 -0.0090757 -1.69398 0
M  V30 1570 O 155.392 -0.166007 -1.79233 0
M  V30 1571 H 151.767 -0.333416 -0.674046 0
M  V30 1572 H 153.738 -2.03261 -2.18467 0
M  V30 1573 C 152.487 -0.736229 -3.39816 0
M  V30 1574 H 151.81 -1.55453 -3.6834 0
M  V30 1575 H 153.25 -0.64769 -4.19024 0
M  V30 1576 C 151.709 0.558824 -3.32233 0
M  V30 1577 O 152.239 1.59621 -3.68624 0
M  V30 1578 N 150.445 0.550657 -2.85335 0
M  V30 1579 H 149.992 -0.293943 -2.55917 0
M  V30 1580 H 149.95 1.41726 -2.80644 0
M  V30 1581 N 153.722 1.14298 -1.08507 0
M  V30 1582 C 154.67 2.21483 -0.710483 0
M  V30 1583 C 155.664 1.66998 0.284234 0
M  V30 1584 O 156.87 1.79401 0.146692 0
M  V30 1585 H 153.245 0.721578 -0.211729 0
M  V30 1586 H 155.216 2.50348 -1.62384 0
M  V30 1587 C 153.965 3.4743 -0.137007 0
M  V30 1588 H 153.288 3.89686 -0.893592 0
M  V30 1589 H 154.728 4.2391 0.0872789 0
M  V30 1590 C 153.187 3.17548 1.12538 0
M  V30 1591 O 153.717 3.35437 2.21009 0
M  V30 1592 N 151.923 2.71499 1.03617 0
M  V30 1593 H 151.47 2.57143 0.153403 0
M  V30 1594 H 151.428 2.51881 1.88158 0
M  V30 1595 N 155.201 0.870884 1.31352 0
M  V30 1596 C 156.148 0.325425 2.28494 0
M  V30 1597 C 157.118 -0.576615 1.5577 0
M  V30 1598 O 158.303 -0.508059 1.83911 0
M  V30 1599 C 155.443 -0.466283 3.41935 0
M  V30 1600 C 154.556 0.463378 4.29508 0
M  V30 1601 C 153.691 -0.342544 5.30094 0
M  V30 1602 C 152.73 0.583486 6.09313 0
M  V30 1603 N 151.867 -0.186244 7.01853 0
M  V30 1604 H 156.707 1.15901 2.74538 0
M  V30 1605 H 154.244 0.58294 1.35056 0
M  V30 1606 H 156.202 -0.941085 4.06447 0
M  V30 1607 H 154.832 -1.26456 2.97 0
M  V30 1608 H 153.884 1.05663 3.65431 0
M  V30 1609 H 155.196 1.1734 4.84802 0
M  V30 1610 H 154.35 -0.879816 6.00287 0
M  V30 1611 H 153.089 -1.08585 4.75458 0
M  V30 1612 H 152.094 1.13251 5.3801 0
M  V30 1613 H 153.319 1.32566 6.66035 0
M  V30 1614 H 151.265 -0.912348 6.49625 0
M  V30 1615 H 151.182 0.464422 7.54572 0
M  V30 1616 H 152.45 -0.704716 7.76308 0
M  V30 1617 N 156.679 -1.44442 0.630414 0
M  V30 1618 C 157.925 -2.02351 0.134816 0
M  V30 1619 C 158.258 -1.4947 -1.23986 0
M  V30 1620 O 157.533 -0.678475 -1.82283 0
M  V30 1621 C 157.816 -3.59898 0.120707 0
M  V30 1622 C 157.669 -4.23063 1.52767 0
M  V30 1623 C 158.988 -4.36585 -0.555127 0
M  V30 1624 H 156.107 -0.73527 0.0504646 0
M  V30 1625 H 158.749 -1.72022 0.806751 0
M  V30 1626 H 156.899 -3.85868 -0.451477 0
M  V30 1627 H 158.571 -4.08202 2.14869 0
M  V30 1628 H 156.814 -3.80586 2.08175 0
M  V30 1629 H 157.485 -5.32071 1.46984 0
M  V30 1630 H 159.961 -4.16044 -0.0685429 0
M  V30 1631 H 158.837 -5.46294 -0.534185 0
M  V30 1632 H 159.098 -4.11138 -1.62535 0
M  V30 1633 N 158.157 -0.370918 -1.53173 0
M  V30 1634 C 159.387 0.217389 -2.05453 0
M  V30 1635 C 159.795 1.42568 -1.24382 0
M  V30 1636 O 159.138 1.81571 -0.278839 0
M  V30 1637 C 159.2 0.669827 -3.53205 0
M  V30 1638 C 158.864 -0.4225 -4.55043 0
M  V30 1639 C 159.861 -1.27407 -5.04047 0
M  V30 1640 C 157.546 -0.58427 -4.9889 0
M  V30 1641 C 159.54 -2.27271 -5.95505 0
M  V30 1642 C 157.227 -1.58627 -5.90153 0
M  V30 1643 C 158.225 -2.42892 -6.38351 0
M  V30 1644 O 157.913 -3.41382 -7.27814 0
M  V30 1645 H 157.645 0.0408171 -0.674767 0
M  V30 1646 H 160.199 -0.5292 -1.98466 0
M  V30 1647 H 158.429 1.4681 -3.57748 0
M  V30 1648 H 160.118 1.18173 -3.88317 0
M  V30 1649 H 160.884 -1.16031 -4.70916 0
M  V30 1650 H 156.763 0.061851 -4.60959 0
M  V30 1651 H 160.307 -2.93079 -6.33049 0
M  V30 1652 H 156.204 -1.70048 -6.22699 0
M  V30 1653 H 156.972 -3.37173 -7.45826 0
M  V30 1654 N 159.635 1.57281 -0.100228 0
M  V30 1655 C 160.598 2.13158 0.842398 0
M  V30 1656 C 161.598 1.06202 1.20738 0
M  V30 1657 O 162.788 1.32066 1.13597 0
M  V30 1658 C 159.92 2.65639 2.13655 0
M  V30 1659 H 161.113 2.97766 0.357114 0
M  V30 1660 H 158.666 1.5559 0.148823 0
M  V30 1661 H 159.401 1.84566 2.66657 0
M  V30 1662 H 159.186 3.43844 1.88451 0
M  V30 1663 H 160.676 3.08846 2.81077 0
M  V30 1664 N 161.113 -0.173488 1.56642 0
M  V30 1665 C 162.076 -1.19859 1.95362 0
M  V30 1666 C 163.076 -1.37296 0.83704 0
M  V30 1667 O 164.266 -1.34739 1.10413 0
M  V30 1668 C 161.398 -2.56405 2.24654 0
M  V30 1669 H 162.591 -0.867062 2.87092 0
M  V30 1670 H 160.144 -0.415853 1.50666 0
M  V30 1671 H 160.879 -2.94576 1.35631 0
M  V30 1672 H 160.664 -2.45115 3.06041 0
M  V30 1673 H 162.154 -3.30287 2.5554 0
M  V30 1674 N 162.591 -1.51276 -0.441967 0
M  V30 1675 C 163.538 -1.72256 -1.53612 0
M  V30 1676 C 164.508 -0.564164 -1.56225 0
M  V30 1677 O 165.693 -0.798074 -1.73307 0
M  V30 1678 C 162.833 -1.84932 -2.91366 0
M  V30 1679 C 161.946 -3.12459 -2.98317 0
M  V30 1680 C 161.081 -3.15758 -4.27166 0
M  V30 1681 C 160.12 -4.37619 -4.27967 0
M  V30 1682 N 159.257 -4.38493 -5.48333 0
M  V30 1683 H 164.097 -2.65654 -1.35026 0
M  V30 1684 H 161.634 -1.31662 -0.656009 0
M  V30 1685 H 163.592 -1.90263 -3.7129 0
M  V30 1686 H 162.222 -0.949461 -3.08521 0
M  V30 1687 H 161.274 -3.1646 -2.11086 0
M  V30 1688 H 162.586 -4.02382 -2.94771 0
M  V30 1689 H 161.74 -3.19979 -5.15459 0
M  V30 1690 H 160.479 -2.23715 -4.33362 0
M  V30 1691 H 159.484 -4.33579 -3.38067 0
M  V30 1692 H 160.709 -5.30921 -4.23438 0
M  V30 1693 H 158.655 -3.49318 -5.55259 0
M  V30 1694 H 158.572 -5.22219 -5.46647 0
M  V30 1695 H 159.84 -4.469 -6.38671 0
M  V30 1696 N 164.069 0.697108 -1.41344 0
M  V30 1697 C 165.318 1.45279 -1.39918 0
M  V30 1698 C 165.631 1.95597 -0.0109624 0
M  V30 1699 O 166.837 2.71208 0.125919 0
M  V30 1700 C 165.293 2.62695 -2.46007 0
M  V30 1701 C 164.901 2.19169 -3.90729 0
M  V30 1702 C 166.645 3.40336 -2.53715 0
M  V30 1703 C 164.552 3.33535 -4.88373 0
M  V30 1704 H 163.482 0.545692 -0.520323 0
M  V30 1705 H 166.133 0.756929 -1.67161 0
M  V30 1706 H 164.515 3.34541 -2.11892 0
M  V30 1707 H 165.689 1.54623 -4.34083 0
M  V30 1708 H 164.004 1.54525 -3.86666 0
M  V30 1709 H 166.601 4.2547 -3.2385 0
M  V30 1710 H 166.944 3.85418 -1.5735 0
M  V30 1711 H 167.477 2.75546 -2.86913 0
M  V30 1712 H 164.216 2.93468 -5.86137 0
M  V30 1713 H 163.736 3.96936 -4.49668 0
M  V30 1714 H 165.415 3.99335 -5.09059 0
M  V30 1715 N 165.547 1.27147 0.931209 0
M  V30 1716 C 166.796 1.12664 1.67302 0
M  V30 1717 C 167.109 -0.327718 1.92835 0
M  V30 1718 O 168.315 -0.593392 2.64936 0
M  V30 1719 C 166.771 1.9683 3.01307 0
M  V30 1720 C 166.379 3.46901 2.83485 0
M  V30 1721 C 168.123 1.90985 3.79111 0
M  V30 1722 C 166.03 4.23279 4.13024 0
M  V30 1723 H 164.96 0.41803 0.627509 0
M  V30 1724 H 167.611 1.51539 1.03481 0
M  V30 1725 H 165.993 1.50797 3.66164 0
M  V30 1726 H 167.167 4.00773 2.27415 0
M  V30 1727 H 165.482 3.54088 2.19113 0
M  V30 1728 H 168.079 2.45328 4.75098 0
M  V30 1729 H 168.422 0.882718 4.06834 0
M  V30 1730 H 168.955 2.34895 3.21044 0
M  V30 1731 H 165.694 5.26503 3.90481 0
M  V30 1732 H 165.214 3.74186 4.6877 0
M  V30 1733 H 166.893 4.32265 4.81411 0
M  V30 1734 N 167.025 -1.13721 1.09112 0
M  V30 1735 C 168.436 -1.6648 0.845068 0
M  V30 1736 C 168.787 -1.85911 -0.62701 0
M  V30 1737 O 167.912 -1.57556 -1.48341 0
M  V30 1738 C 168.507 -3.02413 1.52748 0
M  V30 1739 C 167.066 -3.52176 1.32849 0
M  V30 1740 C 166.213 -2.27492 1.58564 0
M  V30 1741 H 169.164 -0.976872 1.25072 0
M  V30 1742 H 169.185 -3.68223 0.958752 0
M  V30 1743 H 168.697 -2.88238 2.59885 0
M  V30 1744 H 166.798 -3.7156 0.278137 0
M  V30 1745 H 166.911 -4.32499 2.0611 0
M  V30 1746 H 165.275 -2.33923 1.00758 0
M  V30 1747 H 166.058 -2.15886 2.66924 0
M  V30 1748 N 168.503 -0.877838 -1.30888 0
M  V30 1749 C 169.453 -0.310872 -2.25871 0
M  V30 1750 C 170.437 0.556596 -1.50966 0
M  V30 1751 O 171.629 0.402187 -1.7237 0
M  V30 1752 C 168.758 0.479821 -3.3993 0
M  V30 1753 C 167.844 -0.401333 -4.22197 0
M  V30 1754 N 168.235 -1.49848 -4.83093 0
M  V30 1755 C 166.533 -0.195167 -4.45573 0
M  V30 1756 C 167.234 -2.0425 -5.44662 0
M  V30 1757 N 166.21 -1.33843 -5.26865 0
M  V30 1758 H 170.012 -1.1493 -2.70496 0
M  V30 1759 H 167.526 -0.726458 -1.45246 0
M  V30 1760 H 169.523 0.902582 -4.07012 0
M  V30 1761 H 168.183 1.31577 -2.96846 0
M  V30 1762 H 169.194 -1.88137 -4.82519 0
M  V30 1763 H 165.871 0.604192 -4.13105 0
M  V30 1764 H 167.261 -2.96345 -6.03017 0
M  V30 1765 N 169.982 1.44106 -0.638065 0
M  V30 1766 C 171.207 2.0685 -0.150916 0
M  V30 1767 C 171.632 1.47417 1.16833 0
M  V30 1768 O 170.99 0.578264 1.71831 0
M  V30 1769 C 171.038 3.60555 -0.05708 0
M  V30 1770 O 170.142 4.00465 0.984972 0
M  V30 1771 H 169.483 0.658151 -0.0879399 0
M  V30 1772 H 172.013 1.84865 -0.876707 0
M  V30 1773 H 172.023 4.07789 0.131232 0
M  V30 1774 H 170.698 4.03193 -1.02021 0
M  V30 1775 H 169.275 3.64849 0.770672 0
M  V30 1776 N 171.46 0.379036 1.52974 0
M  V30 1777 C 172.876 0.0285448 1.59574 0
M  V30 1778 C 173.076 -1.45542 1.39355 0
M  V30 1779 O 172.132 -2.2187 1.20541 0
M  V30 1780 C 173.445 0.496535 2.96572 0
M  V30 1781 C 174.993 0.451909 3.0972 0
M  V30 1782 C 175.468 0.895924 4.49152 0
M  V30 1783 N 176.959 0.851522 4.55306 0
M  V30 1784 C 177.694 1.16661 5.61407 0
M  V30 1785 N 177.19 1.55166 6.752 0
M  V30 1786 N 178.983 1.08853 5.51459 0
M  V30 1787 H 171.134 1.34525 1.64367 0
M  V30 1788 H 173.397 0.550733 0.771619 0
M  V30 1789 H 173.103 1.53258 3.16552 0
M  V30 1790 H 172.977 -0.109802 3.7704 0
M  V30 1791 H 175.364 -0.575029 2.89443 0
M  V30 1792 H 175.445 1.09392 2.3123 0
M  V30 1793 H 175.089 1.92104 4.70168 0
M  V30 1794 H 175.019 0.23103 5.26093 0
M  V30 1795 H 177.51 0.568038 3.73606 0
M  V30 1796 H 177.823 1.776 7.52116 0
M  V30 1797 H 176.168 1.59044 6.76557 0
M  V30 1798 H 179.359 0.786803 4.6144 0
M  V30 1799 H 179.532 1.33742 6.34048 0
M  V30 1800 N 172.938 -1.57226 0.108567 0
M  V30 1801 C 174.184 -1.95121 -0.552761 0
M  V30 1802 C 174.517 -0.991345 -1.66991 0
M  V30 1803 O 173.792 -0.0267211 -1.94482 0
M  V30 1804 C 174.075 -3.43039 -1.09528 0
M  V30 1805 C 173.928 -4.49797 0.0177332 0
M  V30 1806 C 175.247 -3.92567 -1.98945 0
M  V30 1807 H 172.366 -0.709496 -0.199461 0
M  V30 1808 H 175.008 -1.89126 0.182011 0
M  V30 1809 H 173.158 -3.48279 -1.72146 0
M  V30 1810 H 174.83 -4.56661 0.652584 0
M  V30 1811 H 173.073 -4.284 0.682309 0
M  V30 1812 H 173.744 -5.50528 -0.402919 0
M  V30 1813 H 176.22 -3.89565 -1.46214 0
M  V30 1814 H 175.096 -4.96605 -2.33827 0
M  V30 1815 H 175.357 -3.32648 -2.91201 0
M  V30 1816 N 174.416 0.165178 -1.56732 0
M  V30 1817 C 175.379 1.18822 -1.95995 0
M  V30 1818 C 176.379 1.3685 -0.84431 0
M  V30 1819 O 177.569 1.34152 -1.11126 0
M  V30 1820 C 174.701 2.5521 -2.26011 0
M  V30 1821 H 175.894 0.851825 -2.87548 0
M  V30 1822 H 173.447 0.407857 -1.50885 0
M  V30 1823 H 174.182 2.93852 -1.37191 0
M  V30 1824 H 173.967 2.43489 -3.07336 0
M  V30 1825 H 175.457 3.28927 -2.57288 0
M  V30 1826 N 175.894 1.51508 0.433938 0
M  V30 1827 C 176.841 1.73068 1.52696 0
M  V30 1828 C 177.811 0.572441 1.55924 0
M  V30 1829 O 178.996 0.807253 1.72882 0
M  V30 1830 C 176.136 1.86474 2.90381 0
M  V30 1831 C 175.249 3.14037 2.96656 0
M  V30 1832 C 174.384 3.18019 4.25485 0
M  V30 1833 C 173.423 4.39882 4.2564 0
M  V30 1834 N 172.56 4.41394 5.45999 0
M  V30 1835 H 177.4 2.66366 1.33615 0
M  V30 1836 H 174.937 1.32008 0.649018 0
M  V30 1837 H 176.895 1.92229 3.70275 0
M  V30 1838 H 175.525 0.965809 3.08013 0
M  V30 1839 H 174.577 3.17575 2.09404 0
M  V30 1840 H 175.889 4.0394 2.92633 0
M  V30 1841 H 175.043 3.22708 5.13755 0
M  V30 1842 H 173.782 2.2601 4.3217 0
M  V30 1843 H 172.787 4.35366 3.35763 0
M  V30 1844 H 174.012 5.33159 4.20617 0
M  V30 1845 H 171.958 3.52258 5.53399 0
M  V30 1846 H 171.875 5.25111 5.4387 0
M  V30 1847 H 173.143 4.50281 6.36292 0
M  V30 1848 N 177.372 -0.689602 1.41712 0
M  V30 1849 C 178.783 -1.26973 1.36875 0
M  V30 1850 C 179.134 -1.96124 0.054748 0
M  V30 1851 O 178.259 -1.99141 -0.84687 0
M  V30 1852 C 178.854 -2.30912 2.47922 0
M  V30 1853 C 177.413 -2.84486 2.46464 0
M  V30 1854 C 176.56 -1.58603 2.27465 0
M  V30 1855 H 179.511 -0.48396 1.51141 0
M  V30 1856 H 179.532 -3.12331 2.17323 0
M  V30 1857 H 179.044 -1.80554 3.43543 0
M  V30 1858 H 177.145 -3.39005 1.54617 0
M  V30 1859 H 177.258 -3.34511 3.42986 0
M  V30 1860 H 175.622 -1.84632 1.75451 0
M  V30 1861 H 176.405 -1.10233 3.25121 0
M  V30 1862 N 178.85 -1.27639 -0.924453 0
M  V30 1863 C 179.8 -1.07295 -2.01176 0
M  V30 1864 C 180.784 5.77352e-05 -1.609 0
M  V30 1865 O 181.976 -0.218855 -1.75642 0
M  V30 1866 C 179.105 -0.725592 -3.35544 0
M  V30 1867 C 178.191 -1.83691 -3.82254 0
M  V30 1868 N 178.582 -3.07697 -4.01443 0
M  V30 1869 C 176.88 -1.72433 -4.11319 0
M  V30 1870 C 177.581 -3.80037 -4.40394 0
M  V30 1871 N 176.557 -3.0782 -4.48049 0
M  V30 1872 H 180.359 -2.01399 -2.14046 0
M  V30 1873 H 177.873 -1.18401 -1.11153 0
M  V30 1874 H 179.87 -0.560959 -4.13109 0
M  V30 1875 H 178.53 0.207782 -3.24034 0
M  V30 1876 H 179.541 -3.43424 -3.8766 0
M  V30 1877 H 176.218 -0.862005 -4.08504 0
M  V30 1878 H 177.608 -4.86632 -4.63291 0
M  V30 1879 N 180.328 1.1314 -1.09713 0
M  V30 1880 C 181.26 2.18343 -0.697056 0
M  V30 1881 C 182.273 1.60669 0.262551 0
M  V30 1882 O 183.462 1.78435 0.0481527 0
M  V30 1883 C 180.562 3.38899 -0.00684728 0
M  V30 1884 C 179.735 4.26078 -0.988741 0
M  V30 1885 C 178.794 5.25155 -0.331394 0
M  V30 1886 O 177.82 5.60701 -0.979926 0
M  V30 1887 N 179.022 5.73271 0.913261 0
M  V30 1888 H 181.787 2.5328 -1.60216 0
M  V30 1889 H 179.348 1.28491 -0.984971 0
M  V30 1890 H 181.34 4.02255 0.444191 0
M  V30 1891 H 179.91 3.02175 0.800551 0
M  V30 1892 H 179.13 3.59453 -1.61826 0
M  V30 1893 H 180.418 4.81178 -1.65364 0
M  V30 1894 H 179.816 5.46544 1.45966 0
M  V30 1895 H 178.373 6.3855 1.30757 0
M  V30 1896 N 181.806 0.884767 1.30421 0
M  V30 1897 C 183.222 0.57874 1.48737 0
M  V30 1898 C 183.422 -0.883567 1.81095 0
M  V30 1899 O 182.478 -1.6648 1.89844 0
M  V30 1900 C 183.791 1.49171 2.61091 0
M  V30 1901 C 185.339 1.49532 2.74971 0
M  V30 1902 C 185.814 2.39421 3.90438 0
M  V30 1903 N 187.305 2.37383 3.97748 0
M  V30 1904 C 188.04 3.03647 4.86401 0
M  V30 1905 N 187.536 3.79136 5.79852 0
M  V30 1906 N 189.329 2.9288 4.79768 0
M  V30 1907 H 181.48 1.83075 1.0769 0
M  V30 1908 H 183.743 0.783637 0.533495 0
M  V30 1909 H 183.449 2.53291 2.44001 0
M  V30 1910 H 183.323 1.20113 3.57565 0
M  V30 1911 H 185.71 0.46163 2.91467 0
M  V30 1912 H 185.791 1.8262 1.79119 0
M  V30 1913 H 185.435 3.42874 3.74699 0
M  V30 1914 H 185.365 2.03649 4.85628 0
M  V30 1915 H 187.856 1.82525 3.30897 0
M  V30 1916 H 188.169 4.26789 6.4426 0
M  V30 1917 H 186.514 3.83243 5.79784 0
M  V30 1918 H 189.705 2.33433 4.05742 0
M  V30 1919 H 189.878 3.448 5.4865 0
M  V30 1920 N 183.284 -1.43765 0.645699 0
M  V30 1921 C 184.194 -2.34544 -0.0512957 0
M  V30 1922 C 185.21 -1.53455 -0.82022 0
M  V30 1923 O 186.386 -1.86133 -0.769176 0
M  V30 1924 C 183.451 -3.31636 -1.01087 0
M  V30 1925 C 182.512 -4.2863 -0.239712 0
M  V30 1926 C 181.745 -5.21084 -1.15358 0
M  V30 1927 O 181.968 -5.1779 -2.39269 0
M  V30 1928 O 180.902 -5.98593 -0.630038 0
M  V30 1929 H 184.728 -2.95624 0.695718 0
M  V30 1930 H 182.313 -1.43781 0.405882 0
M  V30 1931 H 184.195 -3.9136 -1.56254 0
M  V30 1932 H 182.87 -2.73069 -1.73824 0
M  V30 1933 H 181.777 -3.72408 0.355356 0
M  V30 1934 H 183.11 -4.90157 0.447936 0
M  V30 1935 N 184.763 -0.387143 -1.52771 0
M  V30 1936 C 185.71 0.449048 -2.26389 0
M  V30 1937 C 186.68 1.05961 -1.27912 0
M  V30 1938 O 187.865 1.08804 -1.56737 0
M  V30 1939 C 185.005 1.57155 -3.0724 0
M  V30 1940 C 184.118 0.984066 -4.20643 0
M  V30 1941 C 183.253 2.07745 -4.88892 0
M  V30 1942 C 182.292 1.46574 -5.94292 0
M  V30 1943 N 181.429 2.49834 -6.56146 0
M  V30 1944 H 186.269 -0.185205 -2.97424 0
M  V30 1945 H 183.806 -0.103164 -1.46738 0
M  V30 1946 H 185.764 2.23309 -3.52405 0
M  V30 1947 H 184.394 2.17615 -2.38419 0
M  V30 1948 H 183.446 0.212193 -3.79808 0
M  V30 1949 H 184.758 0.497029 -4.96318 0
M  V30 1950 H 183.912 2.81673 -5.3735 0
M  V30 1951 H 182.651 2.59807 -4.12737 0
M  V30 1952 H 181.656 0.711696 -5.45174 0
M  V30 1953 H 182.881 0.953088 -6.72379 0
M  V30 1954 H 180.827 3.0107 -5.82832 0
M  V30 1955 H 180.744 2.05879 -7.27427 0
M  V30 1956 H 182.012 3.23399 -7.09249 0
M  V30 1957 N 186.241 1.57166 -0.116904 0
M  V30 1958 C 187.49 1.94298 0.541407 0
M  V30 1959 C 187.803 1.00236 1.67964 0
M  V30 1960 O 189.009 1.26826 2.40057 0
M  V30 1961 C 187.465 3.45306 1.01449 0
M  V30 1962 C 187.073 4.47899 -0.0951738 0
M  V30 1963 C 188.817 3.91361 1.6443 0
M  V30 1964 C 186.724 5.90083 0.394491 0
M  V30 1965 H 185.654 0.725308 0.206019 0
M  V30 1966 H 188.305 1.82446 -0.196419 0
M  V30 1967 H 186.687 3.52385 1.80667 0
M  V30 1968 H 187.861 4.52486 -0.871374 0
M  V30 1969 H 186.176 4.11583 -0.631505 0
M  V30 1970 H 188.773 4.95004 2.02176 0
M  V30 1971 H 189.116 3.3122 2.52189 0
M  V30 1972 H 189.649 3.87073 0.917559 0
M  V30 1973 H 186.388 6.53974 -0.447004 0
M  V30 1974 H 185.908 5.88921 1.13722 0
M  V30 1975 H 187.587 6.41307 0.856399 0
M  V30 1976 N 187.719 -0.156864 1.56817 0
M  V30 1977 C 188.996 -0.899244 1.73704 0
M  V30 1978 C 189.376 -1.99771 0.682254 0
M  V30 1979 O 188.724 -2.26515 -0.300522 0
M  V30 1980 C 188.934 -1.45075 3.17418 0
M  V30 1981 C 190.282 -1.91802 3.7881 0
M  V30 1982 O 191.306 -1.54838 3.20786 0
M  V30 1983 O 190.165 -2.5994 4.80722 0
M  V30 1984 H 187.259 -0.424267 0.709878 0
M  V30 1985 H 189.805 -0.143561 1.69092 0
M  V30 1986 H 188.577 -0.660846 3.85679 0
M  V30 1987 H 188.2 -2.27021 3.26416 0
M  V30 1988 N 189.197 -1.51736 -0.425897 0
M  V30 1989 C 190.144 -1.73875 -1.51776 0
M  V30 1990 C 191.114 -0.580702 -1.55618 0
M  V30 1991 O 192.299 -0.81641 -1.72451 0
M  V30 1992 C 189.439 -1.88012 -2.89388 0
M  V30 1993 C 188.552 -3.15606 -2.94986 0
M  V30 1994 C 187.687 -3.20271 -4.23793 0
M  V30 1995 C 186.726 -4.42134 -4.23302 0
M  V30 1996 N 185.863 -4.44284 -5.43651 0
M  V30 1997 H 190.703 -2.67071 -1.32201 0
M  V30 1998 H 188.24 -1.32351 -0.642008 0
M  V30 1999 H 190.198 -1.9419 -3.69251 0
M  V30 2000 H 188.828 -0.98213 -3.07496 0
M  V30 2001 H 187.88 -3.18681 -2.07717 0
M  V30 2002 H 189.192 -4.05486 -2.90486 0
M  V30 2003 H 188.346 -3.25428 -5.12036 0
M  V30 2004 H 187.085 -2.28299 -4.30965 0
M  V30 2005 H 186.09 -4.3714 -3.3345 0
M  V30 2006 H 187.315 -5.35382 -4.17783 0
M  V30 2007 H 185.261 -3.55188 -5.51523 0
M  V30 2008 H 185.178 -5.27988 -5.41078 0
M  V30 2009 H 186.446 -4.53649 -6.33895 0
M  V30 2010 N 190.675 0.682077 -1.42076 0
M  V30 2011 C 191.585 1.82535 -1.47371 0
M  V30 2012 C 192.601 1.7017 -0.363079 0
M  V30 2013 O 193.777 1.91848 -0.612875 0
M  V30 2014 C 190.842 3.18624 -1.36674 0
M  V30 2015 C 189.903 3.42999 -2.58167 0
M  V30 2016 C 189.136 4.72595 -2.4797 0
M  V30 2017 O 189.359 5.50006 -1.5116 0
M  V30 2018 O 188.293 4.98054 -3.37974 0
M  V30 2019 H 192.119 1.81023 -2.43853 0
M  V30 2020 H 189.704 0.836887 -1.2376 0
M  V30 2021 H 191.586 3.99847 -1.33043 0
M  V30 2022 H 190.261 3.20789 -0.433138 0
M  V30 2023 H 189.168 2.61653 -2.67373 0
M  V30 2024 H 190.501 3.45659 -3.50401 0
M  V30 2025 N 192.153 1.28127 0.917671 0
M  V30 2026 C 193.402 1.14432 1.66097 0
M  V30 2027 C 193.715 -0.307247 1.93172 0
M  V30 2028 O 194.921 -0.565259 2.65551 0
M  V30 2029 C 193.377 2.00015 2.99202 0
M  V30 2030 C 192.985 3.49889 2.79789 0
M  V30 2031 C 194.729 1.94996 3.77064 0
M  V30 2032 C 192.636 4.27636 4.08511 0
M  V30 2033 H 191.566 0.424662 0.62304 0
M  V30 2034 H 194.217 1.52628 1.01868 0
M  V30 2035 H 192.599 1.54672 3.64544 0
M  V30 2036 H 193.773 4.03162 2.23152 0
M  V30 2037 H 192.088 3.56392 2.15345 0
M  V30 2038 H 194.685 2.50354 4.72469 0
M  V30 2039 H 195.028 0.925819 4.05875 0
M  V30 2040 H 195.561 2.38287 3.18534 0
M  V30 2041 H 192.3 5.30615 3.84874 0
M  V30 2042 H 191.82 3.79137 4.64774 0
M  V30 2043 H 193.499 4.37346 4.76799 0
M  V30 2044 N 193.631 -1.12557 1.10312 0
M  V30 2045 C 194.541 -2.21841 0.763142 0
M  V30 2046 C 195.557 -1.72354 -0.238801 0
M  V30 2047 O 196.733 -2.01249 -0.0778746 0
M  V30 2048 C 193.798 -3.46131 0.198632 0
M  V30 2049 C 192.859 -4.10464 1.25769 0
M  V30 2050 C 192.092 -5.28821 0.72002 0
M  V30 2051 O 192.315 -5.6859 -0.453993 0
M  V30 2052 O 191.249 -5.83437 1.47935 0
M  V30 2053 H 195.075 -2.53312 1.67532 0
M  V30 2054 H 192.66 -1.20867 0.878157 0
M  V30 2055 H 194.542 -4.2125 -0.112401 0
M  V30 2056 H 193.217 -3.16338 -0.686419 0
M  V30 2057 H 192.124 -3.3713 1.62156 0
M  V30 2058 H 193.457 -4.44408 2.11571 0
M  V30 2059 N 195.109 -0.891671 -1.2995 0
M  V30 2060 C 196.039 -0.379797 -2.30391 0
M  V30 2061 C 197.02 0.540919 -1.6127 0
M  V30 2062 O 198.205 0.453352 -1.88834 0
M  V30 2063 C 195.335 0.400654 -3.44981 0
M  V30 2064 C 194.289 -0.428905 -4.25846 0
M  V30 2065 C 193.615 0.478557 -5.32554 0
M  V30 2066 C 194.915 -1.67458 -4.94727 0
M  V30 2067 H 196.609 -1.21914 -2.73454 0
M  V30 2068 H 194.155 -0.587675 -1.31462 0
M  V30 2069 H 196.108 0.769434 -4.14316 0
M  V30 2070 H 194.832 1.27371 -3.0074 0
M  V30 2071 H 193.491 -0.779911 -3.58208 0
M  V30 2072 H 193.139 1.34951 -4.84559 0
M  V30 2073 H 192.839 -0.0727433 -5.87555 0
M  V30 2074 H 194.363 0.843705 -6.04743 0
M  V30 2075 H 195.777 -1.376 -5.56542 0
M  V30 2076 H 194.174 -2.16659 -5.59624 0
M  V30 2077 H 195.244 -2.41518 -4.20473 0
M  V30 2078 N 196.587 1.43421 -0.653314 0
M  V30 2079 C 197.537 2.2792 0.060558 0
M  V30 2080 C 198.521 1.39906 0.794677 0
M  V30 2081 O 199.713 1.63536 0.677128 0
M  V30 2082 C 196.842 3.27603 1.0262 0
M  V30 2083 C 195.928 4.23104 0.290551 0
M  V30 2084 N 196.319 5.01031 -0.692967 0
M  V30 2085 C 194.617 4.42816 0.531984 0
M  V30 2086 C 195.318 5.70626 -1.12963 0
M  V30 2087 N 194.294 5.41617 -0.463867 0
M  V30 2088 H 198.096 2.85585 -0.694143 0
M  V30 2089 H 195.61 1.55126 -0.480602 0
M  V30 2090 H 197.607 3.86918 1.55242 0
M  V30 2091 H 196.267 2.71499 1.78096 0
M  V30 2092 H 197.278 5.0669 -1.07169 0
M  V30 2093 H 193.955 3.97782 1.26791 0
M  V30 2094 H 195.345 6.4318 -1.94343 0
M  V30 2095 N 198.065 0.39524 1.52563 0
M  V30 2096 C 199.481 0.0454682 1.59535 0
M  V30 2097 C 199.681 -1.44056 1.4089 0
M  V30 2098 O 198.737 -2.20579 1.22888 0
M  V30 2099 C 200.05 0.527963 2.96029 0
M  V30 2100 C 201.598 0.484733 3.09224 0
M  V30 2101 C 202.073 0.943512 4.48176 0
M  V30 2102 N 203.564 0.899765 4.54377 0
M  V30 2103 C 204.299 1.22609 5.60138 0
M  V30 2104 N 203.795 1.62319 6.73516 0
M  V30 2105 N 205.588 1.14696 5.50274 0
M  V30 2106 H 197.739 1.36261 1.62931 0
M  V30 2107 H 200.002 0.558887 0.765735 0
M  V30 2108 H 199.708 1.56607 3.14908 0
M  V30 2109 H 199.582 -0.0698056 3.77135 0
M  V30 2110 H 201.969 -0.544298 2.90037 0
M  V30 2111 H 202.05 1.11838 2.30056 0
M  V30 2112 H 201.694 1.9708 4.68104 0
M  V30 2113 H 201.624 0.286817 5.25818 0
M  V30 2114 H 204.115 0.607632 3.72983 0
M  V30 2115 H 204.428 1.85567 7.5019 0
M  V30 2116 H 202.773 1.66211 6.74833 0
M  V30 2117 H 205.964 0.835701 4.6058 0
M  V30 2118 H 206.137 1.40459 6.32594 0
M  V30 2119 N 199.544 -1.57102 0.125237 0
M  V30 2120 C 200.793 -1.94582 -0.531095 0
M  V30 2121 C 201.106 -1.01126 -1.6743 0
M  V30 2122 O 202.312 -1.28097 -2.39381 0
M  V30 2123 C 200.768 -3.45839 -0.996164 0
M  V30 2124 C 200.376 -4.47842 0.118926 0
M  V30 2125 C 202.12 -3.92227 -1.62352 0
M  V30 2126 C 200.027 -5.90284 -0.363192 0
M  V30 2127 H 198.957 -0.726391 -0.20217 0
M  V30 2128 H 201.608 -1.82339 0.206092 0
M  V30 2129 H 199.99 -3.53338 -1.78796 0
M  V30 2130 H 201.164 -4.52018 0.895358 0
M  V30 2131 H 199.479 -4.11243 0.653324 0
M  V30 2132 H 202.076 -4.96069 -1.99548 0
M  V30 2133 H 202.419 -3.32552 -2.50429 0
M  V30 2134 H 202.952 -3.87554 -0.897019 0
M  V30 2135 H 199.691 -6.53728 0.481679 0
M  V30 2136 H 199.211 -5.89515 -1.10597 0
M  V30 2137 H 200.89 -6.41752 -0.822377 0
M  V30 2138 N 201.022 0.148545 -1.56898 0
M  V30 2139 C 201.952 1.18524 -2.01182 0
M  V30 2140 C 202.933 1.4489 -0.891123 0
M  V30 2141 O 204.118 1.55836 -1.15882 0
M  V30 2142 C 201.248 2.51879 -2.39112 0
M  V30 2143 C 200.202 2.40038 -3.54353 0
M  V30 2144 C 199.528 3.78089 -3.78091 0
M  V30 2145 C 200.828 1.88577 -4.87069 0
M  V30 2146 H 202.522 0.817029 -2.88036 0
M  V30 2147 H 200.068 0.391575 -1.38574 0
M  V30 2148 H 202.021 3.24627 -2.68692 0
M  V30 2149 H 200.745 2.90532 -1.49193 0
M  V30 2150 H 199.404 1.69742 -3.24936 0
M  V30 2151 H 199.052 4.14175 -2.85426 0
M  V30 2152 H 198.752 3.71028 -4.55645 0
M  V30 2153 H 200.276 4.52387 -4.10095 0
M  V30 2154 H 201.69 2.51117 -5.15377 0
M  V30 2155 H 200.087 1.9241 -5.68417 0
M  V30 2156 H 201.157 0.84136 -4.77545 0
M  V30 2157 N 202.5 1.5196 0.417844 0
M  V30 2158 C 203.45 1.7106 1.5074 0
M  V30 2159 C 204.434 0.564487 1.50673 0
M  V30 2160 O 205.626 0.821206 1.56797 0
M  V30 2161 C 202.755 1.85677 2.88754 0
M  V30 2162 C 201.841 3.06133 2.93502 0
M  V30 2163 N 202.232 4.28987 2.67962 0
M  V30 2164 C 200.53 3.05787 3.24669 0
M  V30 2165 C 201.231 5.10395 2.79055 0
M  V30 2166 N 200.207 4.45455 3.11561 0
M  V30 2167 H 204.009 2.63696 1.29775 0
M  V30 2168 H 201.523 1.49873 0.625436 0
M  V30 2169 H 203.52 1.97475 3.67164 0
M  V30 2170 H 202.18 0.942348 3.10725 0
M  V30 2171 H 203.191 4.57607 2.4252 0
M  V30 2172 H 199.868 2.2405 3.52289 0
M  V30 2173 H 201.258 6.18247 2.63097 0
M  V30 2174 N 203.978 -0.674533 1.42435 0
M  V30 2175 C 204.928 -1.7807 1.4239 0
M  V30 2176 C 205.912 -1.58169 0.295202 0
M  V30 2177 O 207.104 -1.68643 0.537449 0
M  V30 2178 C 204.233 -3.16532 1.32901 0
M  V30 2179 C 203.319 -3.42055 2.50717 0
M  V30 2180 N 203.71 -3.38162 3.76139 0
M  V30 2181 C 202.008 -3.72692 2.44983 0
M  V30 2182 C 202.709 -3.63177 4.54398 0
M  V30 2183 N 201.685 -3.83954 3.84812 0
M  V30 2184 H 205.487 -1.73454 2.37257 0
M  V30 2185 H 203.001 -0.875381 1.36788 0
M  V30 2186 H 204.998 -3.958 1.30951 0
M  V30 2187 H 203.658 -3.22345 0.390363 0
M  V30 2188 H 204.669 -3.18057 4.0873 0
M  V30 2189 H 201.346 -3.85749 1.59699 0
M  V30 2190 H 202.736 -3.66125 5.63384 0
M  V30 2191 N 205.456 -1.28612 -0.910864 0
M  V30 2192 C 206.403 -1.12786 -2.01365 0
M  V30 2193 C 207.373 -0.024201 -1.66082 0
M  V30 2194 O 208.558 -0.189667 -1.89855 0
M  V30 2195 C 205.698 -0.798743 -3.35729 0
M  V30 2196 C 204.811 -1.98173 -3.83864 0
M  V30 2197 C 203.946 -1.59298 -5.06752 0
M  V30 2198 C 202.985 -2.74245 -5.47226 0
M  V30 2199 N 202.122 -2.35842 -6.61304 0
M  V30 2200 H 206.962 -2.07142 -2.14234 0
M  V30 2201 H 204.499 -1.03093 -1.0493 0
M  V30 2202 H 206.457 -0.588662 -4.13026 0
M  V30 2203 H 205.087 0.10789 -3.2262 0
M  V30 2204 H 204.139 -2.30386 -3.02699 0
M  V30 2205 H 205.451 -2.84343 -4.09818 0
M  V30 2206 H 204.605 -1.34513 -5.916 0
M  V30 2207 H 203.344 -0.702618 -4.82612 0
M  V30 2208 H 202.349 -2.99725 -4.60918 0
M  V30 2209 H 203.574 -3.63928 -5.73353 0
M  V30 2210 H 201.52 -1.49279 -6.38789 0
M  V30 2211 H 201.437 -3.15546 -6.86998 0
M  V30 2212 H 202.705 -2.14348 -7.4945 0
M  V30 2213 N 206.934 1.1197 -1.10907 0
M  V30 2214 C 207.884 2.15946 -0.731538 0
M  V30 2215 C 208.868 1.58758 0.261699 0
M  V30 2216 O 210.06 1.76863 0.0696722 0
M  V30 2217 C 207.189 3.42877 -0.170299 0
M  V30 2218 C 206.275 4.07037 -1.19087 0
M  V30 2219 N 206.666 4.46135 -2.38322 0
M  V30 2220 C 204.964 4.33884 -1.03252 0
M  V30 2221 C 205.665 4.96331 -3.03366 0
M  V30 2222 N 204.641 4.9214 -2.30865 0
M  V30 2223 H 208.443 2.43947 -1.63912 0
M  V30 2224 H 205.957 1.28927 -0.987505 0
M  V30 2225 H 207.954 4.16732 0.118271 0
M  V30 2226 H 206.614 3.16343 0.731935 0
M  V30 2227 H 207.625 4.38345 -2.75815 0
M  V30 2228 H 204.302 4.17084 -0.186256 0
M  V30 2229 H 205.692 5.36257 -4.04818 0
M  V30 2230 N 208.412 0.89855 1.29475 0
M  V30 2231 C 209.658 0.524658 1.95896 0
M  V30 2232 C 209.991 -0.926468 1.70676 0
M  V30 2233 O 209.266 -1.65665 1.01908 0
M  V30 2234 C 209.549 0.81633 3.50725 0
M  V30 2235 C 209.402 2.31907 3.85408 0
M  V30 2236 C 210.721 0.302038 4.39062 0
M  V30 2237 H 207.84 0.19209 0.711527 0
M  V30 2238 H 210.482 1.12502 1.53112 0
M  V30 2239 H 208.632 0.305369 3.87298 0
M  V30 2240 H 210.304 2.89949 3.58786 0
M  V30 2241 H 208.547 2.78027 3.32992 0
M  V30 2242 H 209.218 2.47373 4.93468 0
M  V30 2243 H 211.694 0.739551 4.09475 0
M  V30 2244 H 210.57 0.535331 5.46283 0
M  V30 2245 H 210.831 -0.797216 4.34853 0
M  V30 2246 N 209.89 -1.43072 0.660911 0
M  V30 2247 C 211.136 -2.0202 0.177708 0
M  V30 2248 C 211.469 -1.52066 -1.20787 0
M  V30 2249 O 210.744 -0.716987 -1.80802 0
M  V30 2250 C 211.027 -3.59561 0.197019 0
M  V30 2251 C 210.88 -4.19727 1.61706 0
M  V30 2252 C 212.199 -4.37664 -0.462396 0
M  V30 2253 H 209.318 -0.734034 0.0660494 0
M  V30 2254 H 211.96 -1.70272 0.843058 0
M  V30 2255 H 210.11 -3.86739 -0.369527 0
M  V30 2256 H 211.782 -4.03553 2.23479 0
M  V30 2257 H 210.025 -3.76084 2.16201 0
M  V30 2258 H 210.696 -5.28834 1.58237 0
M  V30 2259 H 213.172 -4.16095 0.0197215 0
M  V30 2260 H 212.048 -5.47305 -0.418188 0
M  V30 2261 H 212.309 -4.14493 -1.53778 0
M  V30 2262 N 211.368 -0.403325 -1.52352 0
M  V30 2263 C 212.3 0.4603 -2.2453 0
M  V30 2264 C 213.313 1.01505 -1.27282 0
M  V30 2265 O 214.502 0.914982 -1.53266 0
M  V30 2266 C 211.602 1.65208 -2.95905 0
M  V30 2267 C 210.775 1.22224 -4.19976 0
M  V30 2268 C 209.834 2.28028 -4.74226 0
M  V30 2269 O 208.86 1.88857 -5.36956 0
M  V30 2270 N 210.062 3.6012 -4.55295 0
M  V30 2271 H 212.827 -0.158156 -2.99282 0
M  V30 2272 H 210.388 -0.230402 -1.60252 0
M  V30 2273 H 212.38 2.35541 -3.29093 0
M  V30 2274 H 210.95 2.17658 -2.24374 0
M  V30 2275 H 210.17 0.34725 -3.92668 0
M  V30 2276 H 211.458 0.911924 -5.00561 0
M  V30 2277 H 210.856 3.94698 -4.05253 0
M  V30 2278 H 209.413 4.26447 -4.92936 0
M  V30 2279 N 212.846 1.57033 -0.133567 0
M  V30 2280 C 214.093 1.95686 0.520877 0
M  V30 2281 C 214.421 1.0177 1.6575 0
M  V30 2282 O 213.676 0.0443195 1.9565 0
M  V30 2283 C 213.975 3.40674 1.08057 0
M  V30 2284 C 213.641 4.50855 0.0637899 0
M  V30 2285 C 212.303 4.80716 -0.215757 0
M  V30 2286 C 214.655 5.17398 -0.62835 0
M  V30 2287 C 211.983 5.74433 -1.19348 0
M  V30 2288 C 214.335 6.12167 -1.5948 0
M  V30 2289 C 212.999 6.40414 -1.88218 0
M  V30 2290 H 212.269 0.716067 0.190602 0
M  V30 2291 H 214.916 1.9026 -0.217556 0
M  V30 2292 H 213.221 3.42865 1.89606 0
M  V30 2293 H 214.918 3.67902 1.59529 0
M  V30 2294 H 211.508 4.27605 0.291855 0
M  V30 2295 H 215.692 4.94472 -0.425562 0
M  V30 2296 H 210.948 5.94616 -1.42272 0
M  V30 2297 H 215.122 6.6281 -2.13671 0
M  V30 2298 H 212.749 7.12838 -2.64133 0
M  V30 2299 N 214.325 -0.140222 1.56975 0
M  V30 2300 C 215.555 -0.865181 1.87612 0
M  V30 2301 C 215.963 -1.74942 0.72055 0
M  V30 2302 O 215.306 -1.80917 -0.318561 0
M  V30 2303 C 215.368 -1.76782 3.13031 0
M  V30 2304 C 215.032 -1.06005 4.44536 0
M  V30 2305 C 216.029 -0.410768 5.18275 0
M  V30 2306 C 213.714 -1.04754 4.91255 0
M  V30 2307 C 215.708 0.241572 6.36942 0
M  V30 2308 C 213.395 -0.391394 6.09845 0
M  V30 2309 C 214.393 0.252029 6.82535 0
M  V30 2310 O 214.081 0.897757 7.98871 0
M  V30 2311 H 213.813 -0.255188 0.625983 0
M  V30 2312 H 216.367 -0.135653 2.04952 0
M  V30 2313 H 214.597 -2.53846 2.91718 0
M  V30 2314 H 216.286 -2.36533 3.29859 0
M  V30 2315 H 217.052 -0.412195 4.83245 0
M  V30 2316 H 212.931 -1.53777 4.34596 0
M  V30 2317 H 216.475 0.744375 6.93617 0
M  V30 2318 H 212.372 -0.387656 6.44335 0
M  V30 2319 H 213.14 0.800102 8.1458 0
M  V30 2320 N 215.803 -1.52179 -0.40978 0
M  V30 2321 C 216.753 -1.71857 -1.49831 0
M  V30 2322 C 217.737 -0.572469 -1.50372 0
M  V30 2323 O 218.929 -0.829509 -1.56359 0
M  V30 2324 C 216.058 -1.87206 -2.87765 0
M  V30 2325 C 215.144 -3.07685 -2.91875 0
M  V30 2326 N 215.535 -4.30403 -2.65683 0
M  V30 2327 C 213.833 -3.07505 -3.23043 0
M  V30 2328 C 214.534 -5.11868 -2.76344 0
M  V30 2329 N 213.51 -4.47101 -3.09195 0
M  V30 2330 H 217.312 -2.64381 -1.28375 0
M  V30 2331 H 214.826 -1.50203 -0.617479 0
M  V30 2332 H 216.823 -1.99419 -3.66111 0
M  V30 2333 H 215.483 -0.958814 -3.10221 0
M  V30 2334 H 216.494 -4.58887 -2.4009 0
M  V30 2335 H 213.171 -2.25915 -3.51096 0
M  V30 2336 H 214.561 -6.19634 -2.59814 0
M  V30 2337 N 217.281 0.66697 -1.42791 0
M  V30 2338 C 218.511 1.45294 -1.46878 0
M  V30 2339 C 218.919 1.89027 -0.0809861 0
M  V30 2340 O 218.262 1.59219 0.916246 0
M  V30 2341 C 218.324 2.72908 -2.34012 0
M  V30 2342 C 217.988 2.51203 -3.81767 0
M  V30 2343 C 218.985 2.15302 -4.73224 0
M  V30 2344 C 216.67 2.65954 -4.26115 0
M  V30 2345 C 218.664 1.94431 -6.07022 0
M  V30 2346 C 216.351 2.44699 -5.59969 0
M  V30 2347 C 217.349 2.08992 -6.5024 0
M  V30 2348 O 217.037 1.87948 -7.81621 0
M  V30 2349 H 216.769 0.453306 -0.501487 0
M  V30 2350 H 219.323 0.826232 -1.88049 0
M  V30 2351 H 217.553 3.38089 -1.87703 0
M  V30 2352 H 219.242 3.34816 -2.29462 0
M  V30 2353 H 220.008 2.03495 -4.40244 0
M  V30 2354 H 215.887 2.92724 -3.56137 0
M  V30 2355 H 219.431 1.66484 -6.77443 0
M  V30 2356 H 215.328 2.56105 -5.9252 0
M  V30 2357 H 216.096 2.02483 -7.93059 0
M  V30 2358 N 218.759 1.29093 0.90403 0
M  V30 2359 C 220.006 1.16813 1.65411 0
M  V30 2360 C 220.334 -0.28128 1.92455 0
M  V30 2361 O 219.589 -1.22006 1.53013 0
M  V30 2362 C 219.888 1.92224 3.01305 0
M  V30 2363 C 219.554 3.41968 2.93885 0
M  V30 2364 C 218.216 3.82807 2.91569 0
M  V30 2365 C 220.568 4.37409 2.83413 0
M  V30 2366 C 217.896 5.1741 2.76594 0
M  V30 2367 C 220.248 5.72097 2.69977 0
M  V30 2368 C 218.912 6.12199 2.66024 0
M  V30 2369 H 218.182 0.42745 0.605283 0
M  V30 2370 H 220.829 1.59981 1.05254 0
M  V30 2371 H 219.134 1.41635 3.65304 0
M  V30 2372 H 220.831 1.80131 3.58265 0
M  V30 2373 H 217.421 3.09504 2.96488 0
M  V30 2374 H 221.605 4.06813 2.84283 0
M  V30 2375 H 216.861 5.47596 2.71935 0
M  V30 2376 H 221.035 6.45704 2.60844 0
M  V30 2377 H 218.662 7.16448 2.54178 0
M  V30 2378 N 220.237 -1.11381 1.11499 0
M  V30 2379 C 221.147 -2.21019 0.786628 0
M  V30 2380 C 222.163 -1.72597 -0.220507 0
M  V30 2381 O 223.339 -2.01321 -0.0565251 0
M  V30 2382 C 220.404 -3.459 0.235333 0
M  V30 2383 C 219.465 -4.09107 1.30115 0
M  V30 2384 C 218.698 -5.28027 0.776068 0
M  V30 2385 O 218.921 -5.6904 -0.393661 0
M  V30 2386 O 217.855 -5.81835 1.54114 0
M  V30 2387 H 221.681 -2.51521 1.70209 0
M  V30 2388 H 219.266 -1.19928 0.890928 0
M  V30 2389 H 221.148 -4.21346 -0.067715 0
M  V30 2390 H 219.823 -3.17049 -0.652828 0
M  V30 2391 H 218.73 -3.35391 1.65722 0
M  V30 2392 H 220.063 -4.42139 2.16273 0
M  V30 2393 N 221.715 -0.905404 -1.28997 0
M  V30 2394 C 222.992 -0.453513 -1.9027 0
M  V30 2395 C 223.372 1.06721 -1.82137 0
M  V30 2396 O 222.72 1.91159 -1.25182 0
M  V30 2397 C 222.93 -0.974494 -3.35119 0
M  V30 2398 C 224.278 -1.0216 -4.12127 0
M  V30 2399 O 225.302 -0.922557 -3.44046 0
M  V30 2400 O 224.161 -1.17121 -5.33802 0
M  V30 2401 H 221.255 -0.142347 -0.814657 0
M  V30 2402 H 223.801 -0.995642 -1.37423 0
M  V30 2403 H 222.573 -2.01848 -3.35221 0
M  V30 2404 H 222.196 -0.412706 -3.95452 0
M  V30 2405 N 223.193 1.4272 -0.668489 0
M  V30 2406 C 224.14 2.30796 0.0137489 0
M  V30 2407 C 225.11 1.4561 0.799177 0
M  V30 2408 O 226.295 1.74453 0.772702 0
M  V30 2409 C 223.435 3.31377 0.963507 0
M  V30 2410 C 222.548 4.31655 0.172569 0
M  V30 2411 C 221.683 5.19312 1.1175 0
M  V30 2412 C 220.722 6.11274 0.317886 0
M  V30 2413 N 219.859 6.91504 1.2152 0
M  V30 2414 H 224.699 2.88585 -0.743161 0
M  V30 2415 H 222.236 1.42154 -0.378226 0
M  V30 2416 H 224.194 3.88214 1.52792 0
M  V30 2417 H 222.824 2.75202 1.68712 0
M  V30 2418 H 221.876 3.76988 -0.508374 0
M  V30 2419 H 223.188 4.96779 -0.448527 0
M  V30 2420 H 222.342 5.80851 1.75206 0
M  V30 2421 H 221.081 4.5435 1.77249 0
M  V30 2422 H 220.086 5.48809 -0.329918 0
M  V30 2423 H 221.311 6.78283 -0.332917 0
M  V30 2424 H 219.257 6.29176 1.85671 0
M  V30 2425 H 219.174 7.53209 0.649036 0
M  V30 2426 H 220.442 7.57535 1.83742 0
M  V30 2427 N 224.671 0.411399 1.52136 0
M  V30 2428 C 225.581 -0.419774 2.30814 0
M  V30 2429 C 226.597 -1.0515 1.38634 0
M  V30 2430 O 227.773 -1.05252 1.71709 0
M  V30 2431 C 224.838 -1.52019 3.11594 0
M  V30 2432 C 223.899 -0.91129 4.19516 0
M  V30 2433 C 223.132 -1.95927 4.96436 0
M  V30 2434 O 223.355 -3.17775 4.73683 0
M  V30 2435 O 222.289 -1.56423 5.81219 0
M  V30 2436 H 226.115 0.221805 3.02889 0
M  V30 2437 H 223.7 0.174547 1.48377 0
M  V30 2438 H 225.582 -2.15898 3.61892 0
M  V30 2439 H 224.257 -2.14633 2.42311 0
M  V30 2440 H 223.164 -0.235157 3.7336 0
M  V30 2441 H 224.497 -0.32904 4.91099 0
M  V30 2442 N 226.149 -1.5696 0.141893 0
M  V30 2443 C 227.097 -2.17784 -0.816874 0
M  V30 2444 C 228.091 -1.1334 -1.25899 0
M  V30 2445 O 229.297 -1.316 -1.22806 0
M  V30 2446 H 225.672 -0.697278 -0.281615 0
M  V30 2447 H 227.643 -2.97087 -0.279621 0
M  V30 2448 C 226.392 -2.80983 -2.04802 0
M  V30 2449 H 225.715 -3.61062 -1.7168 0
M  V30 2450 H 227.155 -3.2705 -2.69841 0
M  V30 2451 C 225.614 -1.79228 -2.8527 0
M  V30 2452 O 226.144 -1.25962 -3.8144 0
M  V30 2453 N 224.35 -1.48647 -2.49704 0
M  V30 2454 H 223.897 -1.92155 -1.71564 0
M  V30 2455 H 223.855 -0.808115 -3.03837 0
M  V30 2456 N 227.627 0.131896 -1.57047 0
M  V30 2457 C 228.876 0.84044 -1.83356 0
M  V30 2458 C 229.189 1.81646 -0.725535 0
M  V30 2459 O 230.395 2.57025 -0.874659 0
M  V30 2460 C 228.851 1.54528 -3.25037 0
M  V30 2461 C 228.459 0.610902 -4.43815 0
M  V30 2462 C 230.203 2.23972 -3.60606 0
M  V30 2463 C 228.11 1.31823 -5.76521 0
M  V30 2464 H 227.04 0.317599 -0.683847 0
M  V30 2465 H 229.691 0.0931561 -1.83263 0
M  V30 2466 H 228.073 2.33873 -3.19561 0
M  V30 2467 H 229.247 -0.148407 -4.60561 0
M  V30 2468 H 227.562 0.0241016 -4.16393 0
M  V30 2469 H 230.159 2.77558 -4.57018 0
M  V30 2470 H 230.502 3.01173 -2.87403 0
M  V30 2471 H 231.035 1.51529 -3.6781 0
M  V30 2472 H 227.774 0.587771 -6.52859 0
M  V30 2473 H 227.294 2.04987 -5.63685 0
M  V30 2474 H 228.973 1.855 -6.19838 0
M  V30 2475 N 229.106 1.52395 0.401703 0
M  V30 2476 C 230.336 1.70429 1.1678 0
M  V30 2477 C 230.744 0.416702 1.84554 0
M  V30 2478 O 230.087 -0.617697 1.73003 0
M  V30 2479 C 230.149 2.78919 2.26814 0
M  V30 2480 C 229.813 4.20437 1.79113 0
M  V30 2481 C 230.81 5.04028 1.27482 0
M  V30 2482 C 228.495 4.66704 1.85722 0
M  V30 2483 C 230.489 6.31961 0.830913 0
M  V30 2484 C 228.176 5.94625 1.40942 0
M  V30 2485 C 229.174 6.77082 0.897128 0
M  V30 2486 O 228.862 8.02607 0.455822 0
M  V30 2487 H 228.594 0.574272 0.356634 0
M  V30 2488 H 231.148 1.99767 0.477724 0
M  V30 2489 H 229.378 2.44973 2.99207 0
M  V30 2490 H 231.067 2.8548 2.88541 0
M  V30 2491 H 231.833 4.69471 1.21744 0
M  V30 2492 H 227.712 4.0262 2.24539 0
M  V30 2493 H 231.256 6.96271 0.430368 0
M  V30 2494 H 227.153 6.28688 1.46362 0
M  V30 2495 H 227.921 8.16453 0.578457 0
M  V30 2496 N 230.584 -0.659388 1.43143 0
M  V30 2497 C 231.833 -1.41518 1.43721 0
M  V30 2498 C 232.146 -1.95499 0.0628176 0
M  V30 2499 O 233.352 -2.71446 -0.0539683 0
M  V30 2500 C 231.808 -2.5608 2.52885 0
M  V30 2501 C 231.416 -2.08733 3.96402 0
M  V30 2502 C 233.16 -3.3349 2.62649 0
M  V30 2503 C 231.067 -3.20469 4.97045 0
M  V30 2504 H 229.997 -0.531705 0.534608 0
M  V30 2505 H 232.648 -0.712343 1.69109 0
M  V30 2506 H 231.03 -3.28805 2.20688 0
M  V30 2507 H 232.204 -1.43059 4.3803 0
M  V30 2508 H 230.519 -1.44219 3.90627 0
M  V30 2509 H 233.116 -4.16734 3.35017 0
M  V30 2510 H 233.459 -3.8111 1.67513 0
M  V30 2511 H 233.992 -2.67842 2.94118 0
M  V30 2512 H 230.731 -2.77824 5.93712 0
M  V30 2513 H 230.251 -3.84874 4.60034 0
M  V30 2514 H 231.93 -3.85698 5.19467 0
M  V30 2515 N 232.062 -1.29571 -0.897171 0
M  V30 2516 C 232.992 -1.17473 -2.01798 0
M  V30 2517 C 233.973 -0.068323 -1.69963 0
M  V30 2518 O 235.158 -0.248239 -1.92607 0
M  V30 2519 C 232.288 -0.853099 -3.36659 0
M  V30 2520 C 231.242 -1.9161 -3.82713 0
M  V30 2521 C 230.568 -1.44773 -5.14728 0
M  V30 2522 C 231.868 -3.32535 -4.02763 0
M  V30 2523 H 233.562 -2.11237 -2.12177 0
M  V30 2524 H 231.108 -1.01699 -1.01948 0
M  V30 2525 H 233.061 -0.755165 -4.14578 0
M  V30 2526 H 231.785 0.120236 -3.26379 0
M  V30 2527 H 230.444 -2.00346 -3.07013 0
M  V30 2528 H 230.092 -0.462995 -5.00865 0
M  V30 2529 H 229.792 -2.15865 -5.46513 0
M  V30 2530 H 231.316 -1.36334 -5.95185 0
M  V30 2531 H 232.73 -3.26626 -4.71156 0
M  V30 2532 H 231.127 -4.01607 -4.45905 0
M  V30 2533 H 232.197 -3.75326 -3.07016 0
M  V30 2534 N 233.54 1.10788 -1.12088 0
M  V30 2535 C 234.47 2.19083 -0.807755 0
M  V30 2536 C 235.451 1.6858 0.226859 0
M  V30 2537 O 236.636 1.93997 0.0888475 0
M  V30 2538 C 233.766 3.46344 -0.257576 0
M  V30 2539 C 232.72 4.101 -1.22483 0
M  V30 2540 C 232.046 5.32016 -0.535052 0
M  V30 2541 C 233.346 4.54236 -2.57811 0
M  V30 2542 H 235.04 2.45534 -1.71328 0
M  V30 2543 H 232.586 1.1801 -0.825205 0
M  V30 2544 H 234.539 4.21392 -0.0262679 0
M  V30 2545 H 233.263 3.19373 0.683278 0
M  V30 2546 H 231.922 3.37054 -1.44189 0
M  V30 2547 H 231.57 5.01319 0.410827 0
M  V30 2548 H 231.27 5.75625 -1.18024 0
M  V30 2549 H 232.794 6.09799 -0.312695 0
M  V30 2550 H 234.208 5.20575 -2.40155 0
M  V30 2551 H 232.605 5.08682 -3.18375 0
M  V30 2552 H 233.675 3.6734 -3.16528 0
M  V30 2553 N 235.018 0.912232 1.28515 0
M  V30 2554 C 235.928 0.404506 2.31086 0
M  V30 2555 C 236.944 -0.50707 1.66448 0
M  V30 2556 O 238.12 -0.393624 1.97516 0
M  V30 2557 C 235.185 -0.348572 3.44943 0
M  V30 2558 C 234.246 0.59604 4.25142 0
M  V30 2559 C 233.479 -0.121194 5.33562 0
M  V30 2560 O 233.702 -1.34317 5.5436 0
M  V30 2561 O 232.636 0.542716 5.99448 0
M  V30 2562 H 236.462 1.25579 2.76521 0
M  V30 2563 H 234.047 0.676998 1.33181 0
M  V30 2564 H 235.929 -0.77395 4.14232 0
M  V30 2565 H 234.604 -1.17571 3.01594 0
M  V30 2566 H 233.511 1.07079 3.58448 0
M  V30 2567 H 234.844 1.38995 4.72167 0
M  V30 2568 N 236.496 -1.42363 0.676048 0
M  V30 2569 C 237.726 -2.05561 0.206967 0
M  V30 2570 C 238.134 -1.50887 -1.14148 0
M  V30 2571 O 237.477 -0.643933 -1.72044 0
M  V30 2572 C 237.539 -3.5944 0.0659508 0
M  V30 2573 C 237.203 -4.36812 1.34331 0
M  V30 2574 C 238.2 -4.67383 2.27704 0
M  V30 2575 C 235.885 -4.76429 1.59125 0
M  V30 2576 C 237.879 -5.36509 3.44147 0
M  V30 2577 C 235.566 -5.45294 2.75857 0
M  V30 2578 C 236.564 -5.75259 3.68193 0
M  V30 2579 O 236.252 -6.42712 4.82883 0
M  V30 2580 H 235.984 -0.668872 0.0979084 0
M  V30 2581 H 238.538 -1.83467 0.923531 0
M  V30 2582 H 236.768 -3.80197 -0.706204 0
M  V30 2583 H 238.457 -4.0427 -0.363418 0
M  V30 2584 H 239.223 -4.37275 2.09799 0
M  V30 2585 H 235.102 -4.52498 0.881258 0
M  V30 2586 H 238.646 -5.59814 4.16238 0
M  V30 2587 H 234.543 -5.7482 2.93688 0
M  V30 2588 H 235.311 -6.61204 4.82444 0
M  V30 2589 N 237.974 -0.419461 -1.51915 0
M  V30 2590 C 239.214 0.152336 -2.03832 0
M  V30 2591 C 239.578 1.41501 -1.29775 0
M  V30 2592 O 240.779 2.06591 -1.7197 0
M  V30 2593 C 239.05 0.383812 -3.55333 0
M  V30 2594 S 240.609 0.921577 -4.29013 0
M  V30 2595 H 237.427 0.0402193 -0.709862 0
M  V30 2596 H 240.029 -0.574758 -1.8686 0
M  V30 2597 H 238.733 -0.541794 -4.06808 0
M  V30 2598 H 238.264 1.13849 -3.76566 0
M  V30 2599 H 240.279 2.20108 -4.4471 0
M  V30 2600 N 239.452 1.56882 -0.150215 0
M  V30 2601 C 240.677 2.01027 0.510184 0
M  V30 2602 C 241.102 1.02966 1.57415 0
M  V30 2603 O 240.46 0.00590158 1.81299 0
M  V30 2604 C 240.508 3.43899 1.08472 0
M  V30 2605 O 239.612 3.4885 2.19948 0
M  V30 2606 H 238.953 0.652233 0.124451 0
M  V30 2607 H 241.483 2.03093 -0.247894 0
M  V30 2608 H 241.493 3.82766 1.41259 0
M  V30 2609 H 240.168 4.14776 0.305582 0
M  V30 2610 H 238.745 3.21827 1.88366 0
M  V30 2611 N 240.93 -0.123565 1.57115 0
M  V30 2612 C 242.346 -0.476961 1.52306 0
M  V30 2613 C 242.546 -1.82109 0.86248 0
M  V30 2614 O 241.602 -2.48586 0.442884 0
M  V30 2615 C 242.915 -0.465661 2.97073 0
M  V30 2616 C 244.463 -0.549534 3.08138 0
M  V30 2617 C 244.938 -0.568669 4.54456 0
M  V30 2618 N 246.429 -0.630237 4.58892 0
M  V30 2619 C 247.164 -0.666415 5.69514 0
M  V30 2620 N 246.66 -0.660514 6.89644 0
M  V30 2621 N 248.453 -0.709077 5.5761 0
M  V30 2622 H 240.604 0.757198 1.98445 0
M  V30 2623 H 242.867 0.278808 0.906074 0
M  V30 2624 H 242.573 0.454232 3.48754 0
M  V30 2625 H 242.447 -1.29513 3.54269 0
M  V30 2626 H 244.834 -1.45985 2.56461 0
M  V30 2627 H 244.915 0.307532 2.53945 0
M  V30 2628 H 244.559 0.337581 5.06777 0
M  V30 2629 H 244.489 -1.44256 5.06456 0
M  V30 2630 H 246.98 -0.641146 3.72421 0
M  V30 2631 H 247.293 -0.690616 7.69708 0
M  V30 2632 H 245.638 -0.628012 6.92157 0
M  V30 2633 H 248.829 -0.711019 4.62668 0
M  V30 2634 H 249.002 -0.733804 6.43832 0
M  V30 2635 N 242.408 -1.52605 -0.393616 0
M  V30 2636 C 243.824 -1.41753 -0.733357 0
M  V30 2637 C 244.024 -0.534293 -1.94287 0
M  V30 2638 O 243.08 -0.0059787 -2.52499 0
M  V30 2639 C 244.393 -2.84531 -0.972772 0
M  V30 2640 C 245.941 -2.93978 -1.07453 0
M  V30 2641 C 246.416 -4.37756 -1.3466 0
M  V30 2642 N 247.907 -4.4106 -1.41492 0
M  V30 2643 C 248.642 -5.49387 -1.642 0
M  V30 2644 N 248.138 -6.67806 -1.8441 0
M  V30 2645 N 249.931 -5.36923 -1.66342 0
M  V30 2646 H 242.082 -2.08555 0.402328 0
M  V30 2647 H 244.345 -0.940654 0.117789 0
M  V30 2648 H 244.051 -3.51353 -0.156204 0
M  V30 2649 H 243.925 -3.26508 -1.88871 0
M  V30 2650 H 246.312 -2.27326 -1.88167 0
M  V30 2651 H 246.393 -2.55435 -0.136605 0
M  V30 2652 H 246.037 -5.04972 -0.544581 0
M  V30 2653 H 245.967 -4.73848 -2.2973 0
M  V30 2654 H 248.458 -3.55705 -1.27601 0
M  V30 2655 H 248.771 -7.46141 -2.01231 0
M  V30 2656 H 247.116 -6.70843 -1.81644 0
M  V30 2657 H 250.307 -4.43381 -1.50102 0
M  V30 2658 H 250.48 -6.21416 -1.837 0
M  V30 2659 N 243.887 0.651787 -1.4349 0
M  V30 2660 C 245.112 1.44434 -1.48841 0
M  V30 2661 C 245.537 1.8779 -0.107955 0
M  V30 2662 O 244.895 1.57464 0.898602 0
M  V30 2663 C 244.943 2.65458 -2.44059 0
M  V30 2664 O 244.047 3.64566 -1.92784 0
M  V30 2665 H 243.388 0.433005 -0.503391 0
M  V30 2666 H 245.918 0.797451 -1.88419 0
M  V30 2667 H 245.928 3.13255 -2.6141 0
M  V30 2668 H 244.603 2.33244 -3.4434 0
M  V30 2669 H 243.18 3.23716 -1.851 0
M  V30 2670 N 245.365 1.30045 0.890287 0
M  V30 2671 C 246.298 1.10301 1.99772 0
M  V30 2672 C 247.276 0.0121631 1.62595 0
M  V30 2673 O 248.46 0.16469 1.87779 0
M  V30 2674 C 245.587 0.681125 3.31781 0
M  V30 2675 C 244.633 1.77206 3.87944 0
M  V30 2676 S 245.466 3.37335 4.15891 0
M  V30 2677 C 246.622 2.97036 5.50927 0
M  V30 2678 H 246.855 2.04057 2.16213 0
M  V30 2679 H 244.388 1.14299 1.03804 0
M  V30 2680 H 246.346 0.444439 4.08087 0
M  V30 2681 H 245.007 -0.236981 3.13205 0
M  V30 2682 H 244.2 1.42903 4.83316 0
M  V30 2683 H 243.802 1.96275 3.18358 0
M  V30 2684 H 246.094 2.44666 6.31779 0
M  V30 2685 H 247.037 3.91296 5.90164 0
M  V30 2686 H 247.445 2.35057 5.13233 0
M  V30 2687 N 246.843 -1.10192 1.12674 0
M  V30 2688 C 247.806 -2.14786 0.799979 0
M  V30 2689 C 248.806 -1.59711 -0.18685 0
M  V30 2690 O 249.996 -1.74156 0.0392558 0
M  V30 2691 C 247.128 -3.40374 0.189228 0
M  V30 2692 H 248.321 -2.45203 1.72671 0
M  V30 2693 H 245.874 -1.25597 0.930326 0
M  V30 2694 H 246.609 -3.15577 -0.747107 0
M  V30 2695 H 246.394 -3.81637 0.899766 0
M  V30 2696 H 247.884 -4.17594 -0.0228143 0
M  V30 2697 N 248.321 -0.919034 -1.28029 0
M  V30 2698 C 249.271 -0.382574 -2.24767 0
M  V30 2699 C 250.255 0.508286 -1.52661 0
M  V30 2700 O 251.447 0.347145 -1.73562 0
M  V30 2701 C 248.576 0.371432 -3.41285 0
M  V30 2702 C 247.662 -0.535449 -4.20706 0
M  V30 2703 N 248.053 -1.65141 -4.78082 0
M  V30 2704 C 246.351 -0.336824 -4.44726 0
M  V30 2705 C 247.052 -2.21475 -5.37888 0
M  V30 2706 N 246.028 -1.50537 -5.22341 0
M  V30 2707 H 249.83 -1.23477 -2.66703 0
M  V30 2708 H 247.344 -0.772299 -1.42861 0
M  V30 2709 H 249.341 0.772638 -4.09678 0
M  V30 2710 H 248.001 1.22066 -3.00882 0
M  V30 2711 H 249.012 -2.03392 -4.7629 0
M  V30 2712 H 245.689 0.47246 -4.14818 0
M  V30 2713 H 247.079 -3.15379 -5.93284 0
M  V30 2714 N 249.799 1.42003 -0.683588 0
M  V30 2715 C 251.048 2.00638 -0.206681 0
M  V30 2716 C 251.361 1.5472 1.19671 0
M  V30 2717 O 252.567 2.05833 1.77045 0
M  V30 2718 C 251.023 3.58487 -0.318632 0
M  V30 2719 C 250.631 4.1339 -1.72663 0
M  V30 2720 C 252.375 4.24384 0.0991141 0
M  V30 2721 C 250.282 5.63633 -1.79087 0
M  V30 2722 H 249.212 0.750408 -0.0735107 0
M  V30 2723 H 251.863 1.62624 -0.850048 0
M  V30 2724 H 250.245 3.94047 0.392781 0
M  V30 2725 H 251.419 3.89273 -2.46583 0
M  V30 2726 H 249.734 3.59976 -2.09299 0
M  V30 2727 H 252.331 5.34652 0.0713833 0
M  V30 2728 H 252.674 4.00505 1.13586 0
M  V30 2729 H 253.207 3.93816 -0.561599 0
M  V30 2730 H 249.946 5.92323 -2.80774 0
M  V30 2731 H 249.466 5.89714 -1.09535 0
M  V30 2732 H 251.145 6.28201 -1.5483 0
M  V30 2733 N 251.277 0.427512 1.51691 0
M  V30 2734 C 252.207 -0.3796 2.30394 0
M  V30 2735 C 253.188 -1.02982 1.35384 0
M  V30 2736 O 254.373 -1.03534 1.643 0
M  V30 2737 C 251.503 -1.48649 3.1388 0
M  V30 2738 C 250.457 -0.960294 4.17088 0
M  V30 2739 C 249.783 -2.16219 4.89033 0
M  V30 2740 C 251.083 -0.00153679 5.223 0
M  V30 2741 H 252.777 0.277164 2.98114 0
M  V30 2742 H 250.323 0.134739 1.43368 0
M  V30 2743 H 252.276 -2.05826 3.67714 0
M  V30 2744 H 251 -2.1714 2.43962 0
M  V30 2745 H 249.659 -0.410806 3.64291 0
M  V30 2746 H 249.307 -2.83307 4.15628 0
M  V30 2747 H 249.007 -1.81654 5.58816 0
M  V30 2748 H 250.531 -2.73968 5.45687 0
M  V30 2749 H 251.945 -0.482687 5.71264 0
M  V30 2750 H 250.342 0.256199 5.99553 0
M  V30 2751 H 251.412 0.938174 4.75738 0
M  V30 2752 N 252.755 -1.56801 0.158532 0
M  V30 2753 C 253.702 -2.17337 -0.776729 0
M  V30 2754 C 254.672 -1.1096 -1.23601 0
M  V30 2755 O 255.857 -1.39054 -1.30647 0
M  V30 2756 C 252.997 -2.80822 -2.00582 0
M  V30 2757 C 252.11 -4.01624 -1.59129 0
M  V30 2758 C 251.245 -4.53072 -2.77306 0
M  V30 2759 C 250.284 -5.66314 -2.32282 0
M  V30 2760 N 249.421 -6.12329 -3.43508 0
M  V30 2761 H 254.261 -2.96918 -0.253701 0
M  V30 2762 H 251.798 -1.46661 -0.113504 0
M  V30 2763 H 253.756 -3.15779 -2.72652 0
M  V30 2764 H 252.386 -2.03866 -2.50277 0
M  V30 2765 H 251.438 -3.72571 -0.767806 0
M  V30 2766 H 252.75 -4.83633 -1.2207 0
M  V30 2767 H 251.904 -4.90145 -3.57551 0
M  V30 2768 H 250.643 -3.70095 -3.17617 0
M  V30 2769 H 249.648 -5.28806 -1.5048 0
M  V30 2770 H 250.873 -6.51085 -1.93043 0
M  V30 2771 H 248.819 -5.32284 -3.83418 0
M  V30 2772 H 248.736 -6.89293 -3.105 0
M  V30 2773 H 250.004 -6.5405 -4.24075 0
M  V30 2774 N 254.233 0.115231 -1.57178 0
M  V30 2775 C 255.196 1.12526 -1.99676 0
M  V30 2776 C 256.196 1.34095 -0.88742 0
M  V30 2777 O 257.386 1.30548 -1.15337 0
M  V30 2778 C 254.518 2.4789 -2.34015 0
M  V30 2779 H 255.711 0.759912 -2.90113 0
M  V30 2780 H 253.264 0.359648 -1.52106 0
M  V30 2781 H 253.999 2.89339 -1.4647 0
M  V30 2782 H 253.784 2.33588 -3.14927 0
M  V30 2783 H 255.274 3.20575 -2.67622 0
M  V30 2784 N 255.711 1.52812 0.385517 0
M  V30 2785 C 257.127 1.4214 0.725829 0
M  V30 2786 C 257.327 0.544589 1.94001 0
M  V30 2787 O 256.383 0.0193693 2.52493 0
M  V30 2788 C 257.696 2.85042 0.957668 0
M  V30 2789 C 259.244 2.94543 1.05892 0
M  V30 2790 C 259.719 4.38464 1.32337 0
M  V30 2791 N 261.21 4.41804 1.39151 0
M  V30 2792 C 261.945 5.5025 1.61285 0
M  V30 2793 N 261.441 6.68775 1.80866 0
M  V30 2794 N 263.234 5.37798 1.63492 0
M  V30 2795 H 255.385 2.08338 -0.413383 0
M  V30 2796 H 257.648 0.940016 -0.122775 0
M  V30 2797 H 257.354 3.51431 0.137568 0
M  V30 2798 H 257.228 3.27505 1.87137 0
M  V30 2799 H 259.615 2.28321 1.86959 0
M  V30 2800 H 259.696 2.55504 0.123057 0
M  V30 2801 H 259.34 5.05254 0.517793 0
M  V30 2802 H 259.27 4.75059 2.27214 0
M  V30 2803 H 261.761 3.56377 1.25713 0
M  V30 2804 H 262.074 7.47197 1.97271 0
M  V30 2805 H 260.419 6.71797 1.78083 0
M  V30 2806 H 263.61 4.44171 1.47749 0
M  V30 2807 H 263.783 6.22382 1.80402 0
M  V30 2808 N 257.189 -0.644168 1.43834 0
M  V30 2809 C 258.136 -1.75671 1.49694 0
M  V30 2810 C 259.106 -1.6246 0.345809 0
M  V30 2811 O 260.291 -1.82573 0.554234 0
M  V30 2812 C 257.431 -3.13867 1.43463 0
M  V30 2813 C 256.544 -3.38147 2.6885 0
M  V30 2814 C 255.679 -4.66241 2.54544 0
M  V30 2815 C 254.718 -4.83657 3.75157 0
M  V30 2816 N 253.855 -6.03016 3.59605 0
M  V30 2817 H 258.695 -1.69998 2.44754 0
M  V30 2818 H 256.232 -0.829458 1.21484 0
M  V30 2819 H 258.19 -3.9377 1.37843 0
M  V30 2820 H 256.82 -3.18588 0.519783 0
M  V30 2821 H 255.872 -2.52276 2.84712 0
M  V30 2822 H 257.184 -3.46899 3.58417 0
M  V30 2823 H 256.338 -5.54285 2.46683 0
M  V30 2824 H 255.077 -4.59826 1.62516 0
M  V30 2825 H 254.082 -3.94046 3.83416 0
M  V30 2826 H 255.307 -4.91896 4.68204 0
M  V30 2827 H 253.253 -5.97715 2.7032 0
M  V30 2828 H 253.17 -6.12766 4.42779 0
M  V30 2829 H 254.438 -6.93657 3.55613 0
M  V30 2830 N 258.668 -1.30515 -0.883378 0
M  V30 2831 C 259.914 -1.19607 -1.63774 0
M  V30 2832 C 260.247 0.248314 -1.92606 0
M  V30 2833 O 259.522 1.17742 -1.54813 0
M  V30 2834 C 259.805 -2.02669 -2.97653 0
M  V30 2835 C 259.658 -3.55335 -2.75784 0
M  V30 2836 C 260.977 -1.86573 -3.98596 0
M  V30 2837 H 258.096 -0.435856 -0.594305 0
M  V30 2838 H 260.738 -1.60165 -1.02212 0
M  V30 2839 H 258.888 -1.68208 -3.50197 0
M  V30 2840 H 260.56 -3.99863 -2.30016 0
M  V30 2841 H 258.803 -3.79438 -2.1026 0
M  V30 2842 H 259.474 -4.08745 -3.70988 0
M  V30 2843 H 261.95 -2.16703 -3.55217 0
M  V30 2844 H 260.826 -2.47014 -4.90179 0
M  V30 2845 H 261.087 -0.825321 -4.34328 0
M  V30 2846 N 260.146 1.09593 -1.13257 0
M  V30 2847 C 261.076 2.18214 -0.830946 0
M  V30 2848 C 262.057 1.68812 0.208966 0
M  V30 2849 O 263.242 1.9408 0.0682666 0
M  V30 2850 C 260.372 3.46051 -0.294296 0
M  V30 2851 C 259.326 4.08778 -1.26826 0
M  V30 2852 C 258.652 5.31419 -0.591449 0
M  V30 2853 C 259.952 4.51476 -2.62615 0
M  V30 2854 H 261.646 2.43703 -1.73923 0
M  V30 2855 H 259.192 1.17128 -0.837675 0
M  V30 2856 H 261.145 4.2134 -0.0709606 0
M  V30 2857 H 259.869 3.20079 0.649366 0
M  V30 2858 H 258.528 3.35505 -1.47756 0
M  V30 2859 H 258.176 5.01727 0.357633 0
M  V30 2860 H 257.876 5.74341 -1.24123 0
M  V30 2861 H 259.4 6.09433 -0.377355 0
M  V30 2862 H 260.814 5.17999 -2.45663 0
M  V30 2863 H 259.211 5.05277 -3.23752 0
M  V30 2864 H 260.281 3.63962 -3.20406 0
M  V30 2865 N 261.624 0.925811 1.2754 0
M  V30 2866 C 262.852 0.581509 1.9856 0
M  V30 2867 C 263.267 -0.840041 1.69082 0
M  V30 2868 O 262.624 -1.55805 0.950312 0
M  V30 2869 C 262.675 0.795589 3.52637 0
M  V30 2870 O 262.396 2.16121 3.81082 0
M  V30 2871 C 263.897 0.459744 4.4091 0
M  V30 2872 H 261.117 0.220538 0.633722 0
M  V30 2873 H 263.661 1.24232 1.6244 0
M  V30 2874 H 261.816 0.18161 3.86974 0
M  V30 2875 H 262.23 2.2098 4.75676 0
M  V30 2876 H 263.704 0.660244 5.48037 0
M  V30 2877 H 264.181 -0.604625 4.35018 0
M  V30 2878 H 264.787 1.05178 4.12089 0
M  V30 2879 N 263.102 -1.41638 0.69111 0
M  V30 2880 C 264.012 -2.34588 0.0233487 0
M  V30 2881 C 265.028 -1.55987 -0.770984 0
M  V30 2882 O 266.204 -1.88486 -0.709569 0
M  V30 2883 C 263.269 -3.34684 -0.904851 0
M  V30 2884 C 262.33 -4.29176 -0.103225 0
M  V30 2885 C 261.563 -5.2449 -0.987216 0
M  V30 2886 O 261.786 -5.2514 -2.22674 0
M  V30 2887 O 260.72 -6.00295 -0.439281 0
M  V30 2888 H 264.546 -2.93261 0.789416 0
M  V30 2889 H 262.131 -1.42417 0.45142 0
M  V30 2890 H 264.013 -3.96133 -1.43724 0
M  V30 2891 H 262.688 -2.78461 -1.65049 0
M  V30 2892 H 261.595 -3.71089 0.473655 0
M  V30 2893 H 262.928 -4.88484 0.60365 0
M  V30 2894 N 264.58 -0.43555 -1.51462 0
M  V30 2895 C 265.991 0.0279871 -1.86679 0
M  V30 2896 C 266.342 1.42104 -1.35281 0
M  V30 2897 O 265.467 2.04667 -0.702878 0
M  V30 2898 C 266.062 0.0575626 -3.38751 0
M  V30 2899 C 264.621 0.465507 -3.7351 0
M  V30 2900 C 263.768 -0.342996 -2.75171 0
M  V30 2901 H 266.719 -0.651473 -1.44712 0
M  V30 2902 H 266.74 0.867421 -3.70481 0
M  V30 2903 H 266.252 -0.956448 -3.7613 0
M  V30 2904 H 264.353 1.48519 -3.41721 0
M  V30 2905 H 264.466 0.191546 -4.78717 0
M  V30 2906 H 262.83 0.198442 -2.53926 0
M  V30 2907 H 263.613 -1.35585 -3.15391 0
M  V30 2908 N 266.058 1.56714 -0.166846 0
M  V30 2909 C 266.968 2.21331 0.777791 0
M  V30 2910 C 267.984 1.20358 1.25658 0
M  V30 2911 O 269.16 1.53005 1.30964 0
M  V30 2912 C 266.225 2.83787 1.99163 0
M  V30 2913 C 265.286 3.99947 1.56016 0
M  V30 2914 C 264.519 4.59415 2.71613 0
M  V30 2915 O 264.742 4.17769 3.88362 0
M  V30 2916 O 263.676 5.49359 2.45945 0
M  V30 2917 H 267.502 3.02605 0.257636 0
M  V30 2918 H 265.087 1.49275 0.0611393 0
M  V30 2919 H 266.969 3.23405 2.70161 0
M  V30 2920 H 265.644 2.05513 2.50092 0
M  V30 2921 H 264.551 3.65007 0.819809 0
M  V30 2922 H 265.884 4.79801 1.09782 0
M  V30 2923 N 267.536 -0.106894 1.57237 0
M  V30 2924 C 268.782 -0.81373 1.85759 0
M  V30 2925 C 269.115 -1.78952 0.754315 0
M  V30 2926 O 268.39 -1.93029 -0.23879 0
M  V30 2927 C 268.673 -1.55293 3.24894 0
M  V30 2928 C 268.526 -0.595929 4.45835 0
M  V30 2929 C 269.845 -2.5063 3.61763 0
M  V30 2930 H 266.964 -0.294369 0.67566 0
M  V30 2931 H 269.606 -0.0776472 1.89841 0
M  V30 2932 H 267.756 -2.1804 3.21544 0
M  V30 2933 H 269.428 0.0236262 4.61294 0
M  V30 2934 H 267.671 0.0916191 4.33703 0
M  V30 2935 H 268.342 -1.15004 5.39887 0
M  V30 2936 H 270.818 -1.97982 3.65981 0
M  V30 2937 H 269.694 -2.99376 4.60071 0
M  V30 2938 H 269.955 -3.3385 2.89821 0
M  V30 2939 N 269.014 -1.53014 -0.377408 0
M  V30 2940 C 270.43 -1.42523 -0.718281 0
M  V30 2941 C 270.63 -0.55487 -1.9371 0
M  V30 2942 O 269.686 -0.0327593 -2.52479 0
M  V30 2943 C 270.999 -2.85546 -0.942539 0
M  V30 2944 C 272.547 -2.95101 -1.04329 0
M  V30 2945 C 273.022 -4.3916 -1.3001 0
M  V30 2946 N 274.513 -4.42536 -1.36806 0
M  V30 2947 C 275.248 -5.51097 -1.58364 0
M  V30 2948 N 274.744 -6.69724 -1.77317 0
M  V30 2949 N 276.537 -5.38657 -1.60638 0
M  V30 2950 H 268.688 -2.08116 0.424426 0
M  V30 2951 H 270.951 -0.939352 0.127759 0
M  V30 2952 H 270.657 -3.51499 -0.118929 0
M  V30 2953 H 270.531 -3.28493 -1.85397 0
M  V30 2954 H 272.918 -2.29309 -1.85745 0
M  V30 2955 H 272.999 -2.55566 -0.109505 0
M  V30 2956 H 272.643 -5.05521 -0.490991 0
M  V30 2957 H 272.573 -4.76258 -2.24691 0
M  V30 2958 H 275.064 -3.57039 -1.23821 0
M  V30 2959 H 275.377 -7.48233 -1.93306 0
M  V30 2960 H 273.722 -6.72732 -1.74518 0
M  V30 2961 H 276.913 -4.44948 -1.45391 0
M  V30 2962 H 277.086 -6.2333 -1.77098 0
M  V30 2963 N 270.492 0.636531 -1.44174 0
M  V30 2964 C 271.722 1.42146 -1.49927 0
M  V30 2965 C 272.13 1.88812 -0.121063 0
M  V30 2966 O 271.473 1.61126 0.882267 0
M  V30 2967 C 271.535 2.67883 -2.39748 0
M  V30 2968 C 271.199 2.43048 -3.8701 0
M  V30 2969 C 272.196 2.05216 -4.77684 0
M  V30 2970 C 269.881 2.56856 -4.3166 0
M  V30 2971 C 271.875 1.81512 -6.11009 0
M  V30 2972 C 269.562 2.32766 -5.65034 0
M  V30 2973 C 270.56 1.95152 -6.54526 0
M  V30 2974 O 270.248 1.71326 -7.85431 0
M  V30 2975 H 269.98 0.442567 -0.51099 0
M  V30 2976 H 272.534 0.786158 -1.8976 0
M  V30 2977 H 270.764 3.34032 -1.94832 0
M  V30 2978 H 272.453 3.29874 -2.36513 0
M  V30 2979 H 273.219 1.94111 -4.44462 0
M  V30 2980 H 269.098 2.85104 -3.62266 0
M  V30 2981 H 272.642 1.52077 -6.80822 0
M  V30 2982 H 268.539 2.43479 -5.97819 0
M  V30 2983 H 269.307 1.85616 -7.97176 0
M  V30 2984 N 271.97 1.30982 0.876444 0
M  V30 2985 C 273.2 1.23063 1.65949 0
M  V30 2986 C 273.608 -0.207537 1.88058 0
M  V30 2987 O 272.951 -1.14781 1.43426 0
M  V30 2988 C 273.013 1.89768 3.05333 0
M  V30 2989 C 272.677 3.39106 3.0636 0
M  V30 2990 C 273.674 4.3496 2.84791 0
M  V30 2991 C 271.359 3.80693 3.27686 0
M  V30 2992 C 273.353 5.70375 2.84519 0
M  V30 2993 C 271.04 5.16223 3.27043 0
M  V30 2994 C 272.038 6.10875 3.05485 0
M  V30 2995 O 271.726 7.43928 3.04674 0
M  V30 2996 H 271.458 0.426685 0.524324 0
M  V30 2997 H 274.012 1.7329 1.10271 0
M  V30 2998 H 272.242 1.34082 3.6271 0
M  V30 2999 H 273.931 1.75853 3.65829 0
M  V30 3000 H 274.697 4.0416 2.68103 0
M  V30 3001 H 270.576 3.07457 3.43499 0
M  V30 3002 H 274.12 6.44228 2.67611 0
M  V30 3003 H 270.017 5.4666 3.43269 0
M  V30 3004 H 270.785 7.53022 3.2078 0
M  V30 3005 N 273.449 -1.08991 1.13837 0
M  V30 3006 C 274.379 -2.17771 0.842507 0
M  V30 3007 C 275.36 -1.6892 -0.20001 0
M  V30 3008 O 276.545 -1.94113 -0.0579731 0
M  V30 3009 C 273.675 -3.4589 0.312644 0
M  V30 3010 C 272.629 -4.08099 1.28992 0
M  V30 3011 C 271.955 -5.31098 0.619623 0
M  V30 3012 C 273.255 -4.50077 2.65005 0
M  V30 3013 H 274.949 -2.42777 1.75213 0
M  V30 3014 H 272.495 -1.16682 0.843875 0
M  V30 3015 H 274.448 -4.21297 0.0933043 0
M  V30 3016 H 273.172 -3.20419 -0.632382 0
M  V30 3017 H 271.831 -3.34717 1.49533 0
M  V30 3018 H 271.479 -5.0191 -0.33102 0
M  V30 3019 H 271.179 -5.73674 1.27167 0
M  V30 3020 H 272.703 -6.09224 0.409669 0
M  V30 3021 H 274.117 -5.16688 2.48407 0
M  V30 3022 H 272.514 -5.03553 3.26427 0
M  V30 3023 H 273.584 -3.62257 3.22332 0
M  V30 3024 N 274.927 -0.932562 -1.27047 0
M  V30 3025 C 276.343 -0.633544 -1.46487 0
M  V30 3026 C 276.543 0.815746 -1.84249 0
M  V30 3027 O 275.599 1.59319 -1.95892 0
M  V30 3028 C 276.912 -1.58758 -2.55375 0
M  V30 3029 C 278.46 -1.59634 -2.69232 0
M  V30 3030 C 278.935 -2.53747 -3.81283 0
M  V30 3031 N 280.426 -2.51982 -3.88664 0
M  V30 3032 C 281.161 -3.21491 -4.74796 0
M  V30 3033 N 280.657 -4.00395 -5.65381 0
M  V30 3034 N 282.45 -3.10485 -4.68568 0
M  V30 3035 H 274.601 -1.86946 -1.00821 0
M  V30 3036 H 276.864 -0.802897 -0.504044 0
M  V30 3037 H 276.57 -2.62172 -2.34432 0
M  V30 3038 H 276.444 -1.33301 -3.52861 0
M  V30 3039 H 278.831 -0.569488 -2.89553 0
M  V30 3040 H 278.912 -1.89142 -1.72218 0
M  V30 3041 H 278.556 -3.56545 -3.61715 0
M  V30 3042 H 278.486 -2.21532 -4.77735 0
M  V30 3043 H 280.977 -1.94681 -3.23895 0
M  V30 3044 H 281.29 -4.50406 -6.27976 0
M  V30 3045 H 279.635 -4.04498 -5.65161 0
M  V30 3046 H 282.826 -2.48331 -3.96799 0
M  V30 3047 H 282.999 -3.64925 -5.35475 0
M  V30 3048 N 276.405 1.4127 -0.698611 0
M  V30 3049 C 277.337 2.292 0.00399731 0
M  V30 3050 C 278.35 1.44944 0.741279 0
M  V30 3051 O 279.539 1.68416 0.591477 0
M  V30 3052 C 276.639 3.22875 1.02979 0
M  V30 3053 C 275.812 4.35904 0.36151 0
M  V30 3054 C 274.871 5.10134 1.29033 0
M  V30 3055 O 273.897 5.63809 0.781562 0
M  V30 3056 N 275.099 5.17885 2.6225 0
M  V30 3057 H 277.864 2.9014 -0.750921 0
M  V30 3058 H 275.425 1.52455 -0.544882 0
M  V30 3059 H 277.417 3.69404 1.65296 0
M  V30 3060 H 275.987 2.63221 1.68622 0
M  V30 3061 H 275.207 3.91719 -0.441584 0
M  V30 3062 H 276.495 5.08696 -0.103055 0
M  V30 3063 H 275.893 4.7573 3.061 0
M  V30 3064 H 274.45 5.6798 3.19754 0
M  V30 3065 N 277.883 0.443576 1.51229 0
M  V30 3066 C 279.132 -0.122332 2.01329 0
M  V30 3067 C 279.445 -1.43237 1.33201 0
M  V30 3068 O 280.651 -2.0816 1.74304 0
M  V30 3069 C 279.107 -0.268551 3.58897 0
M  V30 3070 C 278.715 1.03142 4.35965 0
M  V30 3071 C 280.459 -0.787894 4.17124 0
M  V30 3072 C 278.366 0.850504 5.85252 0
M  V30 3073 H 277.296 -0.0494929 0.752374 0
M  V30 3074 H 279.947 0.574289 1.74282 0
M  V30 3075 H 278.329 -1.02832 3.82415 0
M  V30 3076 H 279.503 1.80001 4.24189 0
M  V30 3077 H 277.818 1.47977 3.89219 0
M  V30 3078 H 280.415 -0.939841 5.26375 0
M  V30 3079 H 280.758 -1.77201 3.76703 0
M  V30 3080 H 281.291 -0.0862669 3.97706 0
M  V30 3081 H 278.03 1.80718 6.30096 0
M  V30 3082 H 277.55 0.121825 5.99676 0
M  V30 3083 H 279.229 0.506163 6.45017 0
M  V30 3084 N 279.361 -1.56624 0.175154 0
M  V30 3085 C 280.607 -1.9729 -0.469506 0
M  V30 3086 C 280.94 -1.06128 -1.62636 0
M  V30 3087 O 280.215 -0.109183 -1.94193 0
M  V30 3088 C 280.498 -3.47375 -0.948804 0
M  V30 3089 C 280.351 -4.49317 0.208491 0
M  V30 3090 C 281.67 -4.00652 -1.82116 0
M  V30 3091 H 278.789 -0.717317 -0.16919 0
M  V30 3092 H 281.431 -1.88184 0.262062 0
M  V30 3093 H 279.581 -3.55267 -1.57219 0
M  V30 3094 H 281.253 -4.53482 0.845682 0
M  V30 3095 H 279.496 -4.25121 0.863395 0
M  V30 3096 H 280.167 -5.51741 -0.169059 0
M  V30 3097 H 282.643 -3.95416 -1.2956 0
M  V30 3098 H 281.519 -5.06075 -2.12554 0
M  V30 3099 H 281.78 -3.44699 -2.7683 0
M  V30 3100 N 280.839 0.0985539 -1.57292 0
M  V30 3101 C 282.064 0.820196 -1.90493 0
M  V30 3102 C 282.489 1.71658 -0.769094 0
M  V30 3103 O 281.847 1.79133 0.279495 0
M  V30 3104 C 281.895 1.61242 -3.22542 0
M  V30 3105 O 280.999 2.72108 -3.09888 0
M  V30 3106 H 280.34 0.225547 -0.62452 0
M  V30 3107 H 282.87 0.0748159 -2.04463 0
M  V30 3108 H 282.88 1.99737 -3.55766 0
M  V30 3109 H 281.555 0.954535 -4.04798 0
M  V30 3110 H 280.132 2.36667 -2.88172 0
M  V30 3111 N 282.317 1.53212 0.369288 0
M  V30 3112 C 283.565 1.68881 1.11012 0
M  V30 3113 C 283.886 0.441285 1.89941 0
M  V30 3114 O 283.156 -0.544623 1.88177 0
M  V30 3115 H 281.736 0.622569 0.412816 0
M  V30 3116 H 284.398 1.90391 0.416802 0
M  V30 3117 H 283.494 2.54822 1.80201 0
M  V30 3118 N 283.795 -0.628877 1.44509 0
M  V30 3119 C 284.725 -1.75187 1.54376 0
M  V30 3120 C 285.706 -1.65411 0.396618 0
M  V30 3121 O 286.891 -1.84137 0.617031 0
M  V30 3122 C 284.021 -3.13725 1.48976 0
M  V30 3123 C 282.975 -3.38291 2.62189 0
M  V30 3124 C 282.301 -4.76883 2.41841 0
M  V30 3125 C 283.601 -3.30632 4.04326 0
M  V30 3126 H 285.295 -1.67187 2.48373 0
M  V30 3127 H 282.841 -0.802909 1.19538 0
M  V30 3128 H 284.794 -3.92064 1.54478 0
M  V30 3129 H 283.518 -3.22515 0.514961 0
M  V30 3130 H 282.177 -2.62334 2.56079 0
M  V30 3131 H 281.825 -4.82378 1.42548 0
M  V30 3132 H 281.525 -4.94278 3.17747 0
M  V30 3133 H 283.049 -5.57449 2.49165 0
M  V30 3134 H 284.463 -3.98873 4.11793 0
M  V30 3135 H 282.86 -3.59561 4.80454 0
M  V30 3136 H 283.93 -2.28404 4.27738 0
M  V30 3137 N 285.273 -1.31445 -0.869486 0
M  V30 3138 C 286.22 -1.19135 -1.97675 0
M  V30 3139 C 287.19 -0.0770266 -1.65921 0
M  V30 3140 O 288.375 -0.249972 -1.89155 0
M  V30 3141 C 285.515 -0.905149 -3.33018 0
M  V30 3142 C 284.628 -2.10285 -3.77365 0
M  V30 3143 C 283.763 -1.75339 -5.01427 0
M  V30 3144 C 282.802 -2.91515 -5.38224 0
M  V30 3145 N 281.939 -2.56762 -6.53466 0
M  V30 3146 H 286.779 -2.13853 -2.07535 0
M  V30 3147 H 284.316 -1.06379 -1.01597 0
M  V30 3148 H 286.274 -0.719765 -4.10944 0
M  V30 3149 H 284.904 0.00519624 -3.228 0
M  V30 3150 H 283.956 -2.39899 -2.95216 0
M  V30 3151 H 285.268 -2.97237 -4.00564 0
M  V30 3152 H 284.422 -1.53266 -5.87022 0
M  V30 3153 H 283.161 -0.855801 -4.80133 0
M  V30 3154 H 282.166 -3.14237 -4.51149 0
M  V30 3155 H 283.391 -3.81985 -5.61484 0
M  V30 3156 H 281.337 -1.69526 -6.33717 0
M  V30 3157 H 281.254 -3.37243 -6.76612 0
M  V30 3158 H 282.522 -2.38083 -7.42251 0
M  V30 3159 N 286.751 1.08385 -1.14413 0
M  V30 3160 C 287.981 1.8425 -0.934644 0
M  V30 3161 C 288.389 1.81907 0.520234 0
M  V30 3162 O 287.732 1.22126 1.37226 0
M  V30 3163 C 287.794 3.32853 -1.35828 0
M  V30 3164 C 287.458 3.5893 -2.82875 0
M  V30 3165 C 288.455 3.53756 -3.80989 0
M  V30 3166 C 286.14 3.86934 -3.20293 0
M  V30 3167 C 288.134 3.76216 -5.14529 0
M  V30 3168 C 285.821 4.09047 -4.54008 0
M  V30 3169 C 286.819 4.03682 -5.50936 0
M  V30 3170 O 286.507 4.25214 -6.82238 0
M  V30 3171 H 286.239 0.588502 -0.332628 0
M  V30 3172 H 288.793 1.37792 -1.52324 0
M  V30 3173 H 287.023 3.8007 -0.713019 0
M  V30 3174 H 288.712 3.90154 -1.11957 0
M  V30 3175 H 289.478 3.32135 -3.53428 0
M  V30 3176 H 285.357 3.9023 -2.45442 0
M  V30 3177 H 288.901 3.71943 -5.90173 0
M  V30 3178 H 284.798 4.30151 -4.8129 0
M  V30 3179 H 285.566 4.42619 -6.88499 0
M  V30 3180 N 288.23 0.939286 1.26551 0
M  V30 3181 C 289.16 0.465044 2.28822 0
M  V30 3182 C 290.141 -0.480692 1.63167 0
M  V30 3183 O 291.326 -0.382955 1.90387 0
M  V30 3184 C 288.456 -0.27234 3.46231 0
M  V30 3185 C 287.41 0.58666 4.2396 0
M  V30 3186 C 286.736 -0.280573 5.33963 0
M  V30 3187 C 288.036 1.85704 4.88171 0
M  V30 3188 H 289.73 1.31979 2.68741 0
M  V30 3189 H 287.276 0.636061 1.29191 0
M  V30 3190 H 289.229 -0.615133 4.16886 0
M  V30 3191 H 287.953 -1.16121 3.0526 0
M  V30 3192 H 286.612 0.91232 3.55067 0
M  V30 3193 H 286.26 -1.16874 4.89234 0
M  V30 3194 H 285.96 0.29076 5.8688 0
M  V30 3195 H 287.484 -0.618678 6.07458 0
M  V30 3196 H 288.898 1.58161 5.51052 0
M  V30 3197 H 287.295 2.37279 5.51197 0
M  V30 3198 H 288.365 2.56957 4.11219 0
M  V30 3199 N 289.708 -1.40897 0.706093 0
M  V30 3200 C 290.658 -2.27987 0.0240746 0
M  V30 3201 C 291.642 -1.42759 -0.742204 0
M  V30 3202 O 292.834 -1.65936 -0.615966 0
M  V30 3203 C 289.963 -3.31186 -0.903907 0
M  V30 3204 C 289.049 -4.2389 -0.133318 0
M  V30 3205 N 289.44 -4.98113 0.878444 0
M  V30 3206 C 287.738 -4.44485 -0.367269 0
M  V30 3207 C 288.439 -5.6604 1.34064 0
M  V30 3208 N 287.415 -5.39522 0.664565 0
M  V30 3209 H 291.217 -2.82812 0.799658 0
M  V30 3210 H 288.731 -1.53235 0.537845 0
M  V30 3211 H 290.728 -3.92413 -1.40775 0
M  V30 3212 H 289.388 -2.77922 -1.67897 0
M  V30 3213 H 290.399 -5.02364 1.25901 0
M  V30 3214 H 287.076 -4.02213 -1.1194 0
M  V30 3215 H 288.466 -6.35524 2.1808 0
M  V30 3216 N 291.186 -0.45159 -1.50991 0
M  V30 3217 C 292.096 0.358431 -2.31846 0
M  V30 3218 C 293.112 1.01438 -1.41373 0
M  V30 3219 O 294.288 1.00663 -1.74439 0
M  V30 3220 C 291.353 1.43704 -3.15515 0
M  V30 3221 C 290.414 0.799742 -4.21785 0
M  V30 3222 C 289.647 1.82696 -5.01456 0
M  V30 3223 O 289.87 3.05105 -4.81941 0
M  V30 3224 O 288.804 1.40958 -5.85162 0
M  V30 3225 H 292.63 -0.302032 -3.02194 0
M  V30 3226 H 290.215 -0.213825 -1.47862 0
M  V30 3227 H 292.097 2.06227 -3.67489 0
M  V30 3228 H 290.772 2.08133 -2.47916 0
M  V30 3229 H 289.679 0.136084 -3.73852 0
M  V30 3230 H 291.012 0.198718 -4.91799 0
M  V30 3231 N 292.664 1.56529 -0.183458 0
M  V30 3232 C 293.596 2.15747 0.773697 0
M  V30 3233 C 294.609 1.1162 1.1851 0
M  V30 3234 O 295.798 1.3876 1.12285 0
M  V30 3235 C 292.898 2.6952 2.05456 0
M  V30 3236 C 292.071 3.98429 1.8048 0
M  V30 3237 C 291.13 4.37145 2.92901 0
M  V30 3238 O 290.156 5.04791 2.6301 0
M  V30 3239 N 291.358 3.99695 4.2098 0
M  V30 3240 H 294.123 2.98505 0.26736 0
M  V30 3241 H 291.684 1.619 -0.0010878 0
M  V30 3242 H 293.676 2.92412 2.79781 0
M  V30 3243 H 292.246 1.91282 2.47245 0
M  V30 3244 H 291.466 3.8379 0.899947 0
M  V30 3245 H 292.754 4.82597 1.61175 0
M  V30 3246 H 292.152 3.4526 4.48121 0
M  V30 3247 H 290.709 4.27562 4.9197 0
M  V30 3248 N 294.142 -0.090211 1.57342 0
M  V30 3249 C 295.052 -1.12735 2.05738 0
M  V30 3250 C 296.068 -1.43557 0.983231 0
M  V30 3251 O 297.244 -1.54101 1.29672 0
M  V30 3252 C 294.309 -2.42659 2.47624 0
M  V30 3253 C 293.37 -2.18975 3.69254 0
M  V30 3254 C 292.603 -3.42704 4.09133 0
M  V30 3255 O 292.826 -4.51127 3.49057 0
M  V30 3256 O 291.76 -3.32003 5.02053 0
M  V30 3257 H 295.586 -0.746279 2.94388 0
M  V30 3258 H 293.171 -0.303064 1.46294 0
M  V30 3259 H 295.053 -3.19155 2.7517 0
M  V30 3260 H 293.728 -2.80182 1.62109 0
M  V30 3261 H 292.635 -1.40244 3.46818 0
M  V30 3262 H 293.968 -1.86342 4.55563 0
M  V30 3263 N 295.62 -1.53406 -0.361157 0
M  V30 3264 C 296.869 -1.69022 -1.10066 0
M  V30 3265 C 297.182 -0.450838 -1.90333 0
M  V30 3266 O 298.388 -0.487617 -2.67085 0
M  V30 3267 C 296.844 -2.98812 -2.00598 0
M  V30 3268 C 296.452 -4.30027 -1.25621 0
M  V30 3269 C 298.196 -3.23795 -2.74513 0
M  V30 3270 C 296.103 -5.50903 -2.1508 0
M  V30 3271 H 295.033 -0.629776 -0.414606 0
M  V30 3272 H 297.684 -1.79907 -0.361348 0
M  V30 3273 H 296.066 -2.8174 -2.78278 0
M  V30 3274 H 297.24 -4.57745 -0.529739 0
M  V30 3275 H 295.555 -4.11522 -0.635496 0
M  V30 3276 H 298.152 -4.11289 -3.41681 0
M  V30 3277 H 298.495 -2.40045 -3.40123 0
M  V30 3278 H 299.028 -3.41561 -2.03914 0
M  V30 3279 H 295.767 -6.37143 -1.54041 0
M  V30 3280 H 295.287 -5.27459 -2.85565 0
M  V30 3281 H 296.966 -5.85865 -2.74538 0
M  V30 3282 N 297.098 0.621204 -1.44841 0
M  V30 3283 C 298.028 1.74366 -1.55303 0
M  V30 3284 C 299.009 1.65199 -0.405385 0
M  V30 3285 O 300.194 1.83807 -0.626787 0
M  V30 3286 C 297.324 3.12931 -1.50637 0
M  V30 3287 C 296.278 3.36896 -2.63979 0
M  V30 3288 C 295.604 4.75594 -2.44366 0
M  V30 3289 C 296.904 3.28483 -4.06074 0
M  V30 3290 H 298.598 1.65867 -2.49256 0
M  V30 3291 H 296.144 0.796558 -1.19962 0
M  V30 3292 H 298.097 3.9124 -1.56555 0
M  V30 3293 H 296.821 3.22237 -0.532057 0
M  V30 3294 H 295.48 2.60972 -2.57467 0
M  V30 3295 H 295.128 4.81616 -1.45105 0
M  V30 3296 H 294.828 4.92586 -3.20364 0
M  V30 3297 H 296.352 5.5612 -2.52117 0
M  V30 3298 H 297.766 3.96684 -4.13902 0
M  V30 3299 H 296.163 3.57008 -4.82354 0
M  V30 3300 H 297.233 2.26133 -4.28943 0
M  V30 3301 N 298.576 1.31904 0.862503 0
M  V30 3302 C 299.526 1.16772 1.95827 0
M  V30 3303 C 300.51 0.0767098 1.60717 0
M  V30 3304 O 301.702 0.302407 1.74398 0
M  V30 3305 C 298.831 0.884858 3.317 0
M  V30 3306 C 297.917 2.0172 3.73055 0
M  V30 3307 N 298.308 3.265 3.86305 0
M  V30 3308 C 296.606 1.91861 4.02623 0
M  V30 3309 C 297.307 4.00616 4.2176 0
M  V30 3310 N 296.283 3.28847 4.32852 0
M  V30 3311 H 300.085 2.11382 2.04193 0
M  V30 3312 H 297.599 1.2357 1.05377 0
M  V30 3313 H 299.596 0.757419 4.09962 0
M  V30 3314 H 298.256 -0.0529448 3.24657 0
M  V30 3315 H 299.267 3.61529 3.70833 0
M  V30 3316 H 295.944 1.05593 4.03926 0
M  V30 3317 H 297.334 5.08182 4.39546 0
M  V30 3318 N 300.054 -1.07777 1.14986 0
M  V30 3319 C 301.47 -1.32373 0.891596 0
M  V30 3320 C 301.67 -1.9609 -0.463788 0
M  V30 3321 O 300.726 -2.21801 -1.20667 0
M  V30 3322 C 302.039 -2.21905 2.02925 0
M  V30 3323 C 303.587 -2.35367 2.06329 0
M  V30 3324 C 304.062 -3.28245 3.19405 0
M  V30 3325 N 305.553 -3.35824 3.19024 0
M  V30 3326 C 306.288 -4.07739 4.03158 0
M  V30 3327 N 305.784 -4.82306 4.97346 0
M  V30 3328 N 307.577 -4.03635 3.91197 0
M  V30 3329 H 299.728 -0.648039 2.02273 0
M  V30 3330 H 301.991 -0.348149 0.881757 0
M  V30 3331 H 301.697 -1.82342 3.0074 0
M  V30 3332 H 301.571 -3.22407 1.95789 0
M  V30 3333 H 303.958 -2.74186 1.09116 0
M  V30 3334 H 304.039 -1.34585 2.17533 0
M  V30 3335 H 303.683 -2.90146 4.16867 0
M  V30 3336 H 303.613 -4.28971 3.05437 0
M  V30 3337 H 306.104 -2.8267 2.50811 0
M  V30 3338 H 306.417 -5.34661 5.57994 0
M  V30 3339 H 304.762 -4.81337 5.01338 0
M  V30 3340 H 307.953 -3.44491 3.16928 0
M  V30 3341 H 308.126 -4.59417 4.5699 0
M  V30 3342 N 301.532 -0.945985 -1.26051 0
M  V30 3343 C 302.809 -0.513816 -1.88731 0
M  V30 3344 C 303.189 1.00872 -1.8544 0
M  V30 3345 O 302.537 1.8708 -1.312 0
M  V30 3346 C 302.747 -1.08062 -3.31849 0
M  V30 3347 C 304.095 -1.1522 -4.08668 0
M  V30 3348 O 305.119 -1.03155 -3.40936 0
M  V30 3349 O 303.978 -1.34044 -5.29806 0
M  V30 3350 H 301.072 -0.168193 -0.809716 0
M  V30 3351 H 303.618 -1.03886 -1.34186 0
M  V30 3352 H 302.39 -2.1241 -3.2863 0
M  V30 3353 H 302.013 -0.538307 -3.93939 0
M  V30 3354 N 303.011 1.40521 -0.713556 0
M  V30 3355 C 303.941 2.33381 -0.0743864 0
M  V30 3356 C 304.922 1.52784 0.747735 0
M  V30 3357 O 306.107 1.81258 0.697071 0
M  V30 3358 C 303.237 3.36748 0.849598 0
M  V30 3359 C 302.191 4.27793 0.133247 0
M  V30 3360 C 301.517 5.21679 1.17281 0
M  V30 3361 C 302.817 5.12415 -1.01134 0
M  V30 3362 H 304.511 2.87081 -0.850007 0
M  V30 3363 H 302.057 1.38034 -0.410201 0
M  V30 3364 H 304.01 4.00648 1.30612 0
M  V30 3365 H 302.734 2.81439 1.65709 0
M  V30 3366 H 301.393 3.65342 -0.303426 0
M  V30 3367 H 301.041 4.62677 1.9733 0
M  V30 3368 H 300.741 5.83435 0.698397 0
M  V30 3369 H 302.265 5.88456 1.62947 0
M  V30 3370 H 303.679 5.69781 -0.634274 0
M  V30 3371 H 302.076 5.83203 -1.41399 0
M  V30 3372 H 303.146 4.48514 -1.84292 0
M  V30 3373 N 304.489 0.459591 1.5075 0
M  V30 3374 C 305.436 -0.340524 2.28274 0
M  V30 3375 C 306.406 -0.997371 1.32822 0
M  V30 3376 O 307.591 -1.01202 1.61749 0
M  V30 3377 C 304.731 -1.42317 3.14388 0
M  V30 3378 C 303.844 -0.782251 4.24859 0
M  V30 3379 C 302.979 -1.84182 4.98247 0
M  V30 3380 C 302.018 -1.18053 6.00608 0
M  V30 3381 N 301.155 -2.18244 6.67319 0
M  V30 3382 H 305.995 0.326899 2.96202 0
M  V30 3383 H 303.532 0.173057 1.46078 0
M  V30 3384 H 305.49 -2.06241 3.62658 0
M  V30 3385 H 304.12 -2.05992 2.4853 0
M  V30 3386 H 303.172 -0.0307404 3.80388 0
M  V30 3387 H 304.484 -0.259663 4.98124 0
M  V30 3388 H 303.638 -2.55714 5.50177 0
M  V30 3389 H 302.377 -2.39819 4.24662 0
M  V30 3390 H 301.382 -0.450776 5.47949 0
M  V30 3391 H 302.607 -0.631202 6.7616 0
M  V30 3392 H 300.553 -2.72919 5.96533 0
M  V30 3393 H 300.47 -1.70938 7.36421 0
M  V30 3394 H 301.738 -2.89191 7.23871 0
M  V30 3395 N 305.967 -1.56429 0.191757 0
M  V30 3396 C 306.897 -2.21937 -0.725696 0
M  V30 3397 C 307.878 -1.1814 -1.2238 0
M  V30 3398 O 309.063 -1.46636 -1.27325 0
M  V30 3399 C 306.193 -2.87611 -1.94672 0
M  V30 3400 C 305.147 -3.97623 -1.58366 0
M  V30 3401 C 304.473 -4.50446 -2.88102 0
M  V30 3402 C 305.773 -5.16197 -0.796133 0
M  V30 3403 H 307.467 -2.98861 -0.179606 0
M  V30 3404 H 305.013 -1.43749 -0.0849464 0
M  V30 3405 H 306.966 -3.3212 -2.59373 0
M  V30 3406 H 305.69 -2.08087 -2.51728 0
M  V30 3407 H 304.349 -3.53801 -0.960247 0
M  V30 3408 H 303.997 -3.67688 -3.43241 0
M  V30 3409 H 303.697 -5.24675 -2.64556 0
M  V30 3410 H 305.221 -4.97654 -3.53798 0
M  V30 3411 H 306.635 -5.57271 -1.34618 0
M  V30 3412 H 305.032 -5.96471 -0.658928 0
M  V30 3413 H 306.102 -4.84473 0.203478 0
M  V30 3414 N 307.445 0.0818655 -1.57387 0
M  V30 3415 C 308.693 0.781368 -1.86384 0
M  V30 3416 C 309.014 1.78618 -0.782342 0
M  V30 3417 O 308.284 1.94976 0.190061 0
M  V30 3418 H 306.864 0.291562 -0.687751 0
M  V30 3419 H 309.526 0.060348 -1.94807 0
M  V30 3420 H 308.622 1.3038 -2.83562 0
M  V30 3421 N 308.923 1.53595 0.353017 0
M  V30 3422 C 309.871 1.81605 1.45335 0
M  V30 3423 C 310.865 0.685923 1.54892 0
M  V30 3424 O 312.071 0.869095 1.57628 0
M  V30 3425 H 308.446 0.575204 0.484401 0
M  V30 3426 H 310.417 2.73679 1.18921 0
M  V30 3427 C 309.166 2.03406 2.81995 0
M  V30 3428 H 308.489 2.89814 2.75405 0
M  V30 3429 H 309.929 2.26975 3.58132 0
M  V30 3430 C 308.388 0.816794 3.26849 0
M  V30 3431 O 308.918 0.0115856 4.01698 0
M  V30 3432 N 307.124 0.636682 2.8354 0
M  V30 3433 H 306.671 1.2931 2.22793 0
M  V30 3434 H 306.629 -0.176336 3.13905 0
M  V30 3435 N 310.401 -0.613514 1.45168 0
M  V30 3436 C 311.648 -1.37268 1.48875 0
M  V30 3437 C 311.976 -1.94077 0.128161 0
M  V30 3438 O 311.231 -1.75178 -0.872416 0
M  V30 3439 C 311.53 -2.54347 2.51083 0
M  V30 3440 C 311.196 -2.1572 3.95949 0
M  V30 3441 C 309.858 -2.04899 4.35396 0
M  V30 3442 C 312.21 -1.85485 4.87078 0
M  V30 3443 C 309.538 -1.62057 5.63875 0
M  V30 3444 C 311.89 -1.4413 6.15962 0
M  V30 3445 C 310.554 -1.31863 6.54346 0
M  V30 3446 H 309.824 -0.502299 0.544773 0
M  V30 3447 H 312.471 -0.694021 1.78481 0
M  V30 3448 H 310.776 -3.27524 2.15024 0
M  V30 3449 H 312.473 -3.12577 2.51191 0
M  V30 3450 H 309.063 -2.25066 3.64751 0
M  V30 3451 H 313.247 -1.92745 4.57343 0
M  V30 3452 H 308.503 -1.51177 5.92415 0
M  V30 3453 H 312.677 -1.19778 6.86022 0
M  V30 3454 H 310.304 -0.984392 7.538 0
M  V30 3455 N 311.879 -1.3236 -0.855495 0
M  V30 3456 C 313.126 -1.22872 -1.60962 0
M  V30 3457 C 313.454 0.209658 -1.93367 0
M  V30 3458 O 312.709 1.16243 -1.57436 0
M  V30 3459 C 313.008 -2.03275 -2.93963 0
M  V30 3460 C 312.674 -3.5264 -2.80991 0
M  V30 3461 C 311.336 -3.93364 -2.7716 0
M  V30 3462 C 313.688 -4.47626 -2.66983 0
M  V30 3463 C 311.016 -5.27319 -2.572 0
M  V30 3464 C 313.368 -5.81723 -2.48558 0
M  V30 3465 C 312.032 -6.2165 -2.4312 0
M  V30 3466 H 311.302 -0.44962 -0.589001 0
M  V30 3467 H 313.949 -1.63777 -0.992442 0
M  V30 3468 H 312.254 -1.55095 -3.59795 0
M  V30 3469 H 313.951 -1.93303 -3.51333 0
M  V30 3470 H 310.541 -3.20295 -2.84797 0
M  V30 3471 H 314.725 -4.17084 -2.68988 0
M  V30 3472 H 309.981 -5.57311 -2.51424 0
M  V30 3473 H 314.155 -6.5494 -2.36699 0
M  V30 3474 H 311.782 -7.25388 -2.27412 0
M  V30 3475 N 313.357 1.07166 -1.15556 0
M  V30 3476 C 314.606 1.79181 -0.926132 0
M  V30 3477 C 314.919 1.87768 0.547967 0
M  V30 3478 O 316.125 2.56323 0.895036 0
M  V30 3479 C 314.581 3.22 -1.60761 0
M  V30 3480 C 314.189 3.21607 -3.11886 0
M  V30 3481 C 315.933 3.9861 -1.4598 0
M  V30 3482 C 313.84 4.59092 -3.72812 0
M  V30 3483 H 312.77 0.67154 -0.342856 0
M  V30 3484 H 315.421 1.2027 -1.3859 0
M  V30 3485 H 313.803 3.81115 -1.07553 0
M  V30 3486 H 314.977 2.72127 -3.71865 0
M  V30 3487 H 313.292 2.58495 -3.2645 0
M  V30 3488 H 315.889 5.00225 -1.88888 0
M  V30 3489 H 316.232 4.143 -0.407541 0
M  V30 3490 H 316.765 3.45996 -1.96295 0
M  V30 3491 H 313.504 4.48606 -4.77946 0
M  V30 3492 H 313.024 5.08803 -3.17616 0
M  V30 3493 H 314.703 5.28059 -3.73848 0
M  V30 3494 N 314.835 0.952656 1.25548 0
M  V30 3495 C 315.783 0.462354 2.27958 0
M  V30 3496 C 316.777 -0.46634 1.62855 0
M  V30 3497 O 317.983 -0.343287 1.76696 0
M  V30 3498 H 314.358 0.13101 0.7405 0
M  V30 3499 H 316.329 1.33839 2.66702 0
M  V30 3500 C 315.078 -0.24628 3.46827 0
M  V30 3501 H 314.401 0.459192 3.97154 0
M  V30 3502 H 315.841 -0.553393 4.20373 0
M  V30 3503 C 314.3 -1.4681 3.0323 0
M  V30 3504 O 314.83 -2.56591 3.09069 0
M  V30 3505 N 313.036 -1.32874 2.58443 0
M  V30 3506 H 312.583 -0.435536 2.53891 0
M  V30 3507 H 312.541 -2.14742 2.29637 0
M  V30 3508 N 316.313 -1.40141 0.720998 0
M  V30 3509 C 317.223 -2.34486 0.0731031 0
M  V30 3510 C 318.239 -1.57587 -0.737723 0
M  V30 3511 O 319.415 -1.89949 -0.669429 0
M  V30 3512 C 316.48 -3.36528 -0.833656 0
M  V30 3513 C 315.541 -4.29298 -0.0121673 0
M  V30 3514 C 314.774 -5.26466 -0.875742 0
M  V30 3515 O 314.997 -5.29745 -2.11485 0
M  V30 3516 O 313.931 -6.01092 -0.31185 0
M  V30 3517 H 317.757 -2.9152 0.851444 0
M  V30 3518 H 315.342 -1.41427 0.481527 0
M  V30 3519 H 317.224 -3.99093 -1.35289 0
M  V30 3520 H 315.899 -2.81899 -1.59105 0
M  V30 3521 H 314.806 -3.70001 0.552262 0
M  V30 3522 H 316.139 -4.87094 0.707129 0
M  V30 3523 N 317.792 -0.46758 -1.50504 0
M  V30 3524 C 318.755 0.317059 -2.26996 0
M  V30 3525 C 319.755 0.923513 -1.31635 0
M  V30 3526 O 320.945 0.793239 -1.55091 0
M  V30 3527 C 318.077 1.45134 -3.08462 0
M  V30 3528 H 319.27 -0.353723 -2.97807 0
M  V30 3529 H 316.823 -0.221545 -1.54722 0
M  V30 3530 H 317.558 2.15728 -2.4214 0
M  V30 3531 H 317.343 1.02232 -3.78538 0
M  V30 3532 H 318.833 2.00493 -3.66323 0
M  V30 3533 N 319.27 1.56325 -0.20005 0
M  V30 3534 C 320.203 2.15234 0.758267 0
M  V30 3535 C 321.181 1.09046 1.20614 0
M  V30 3536 O 322.365 1.37186 1.29276 0
M  V30 3537 C 319.492 2.71524 2.02466 0
M  V30 3538 C 318.538 3.90345 1.71852 0
M  V30 3539 S 319.371 5.28513 0.862249 0
M  V30 3540 C 320.527 5.88227 2.13868 0
M  V30 3541 H 320.76 2.96183 0.2575 0
M  V30 3542 H 318.293 1.54393 0.0150099 0
M  V30 3543 H 320.251 3.04598 2.75191 0
M  V30 3544 H 318.912 1.90607 2.49655 0
M  V30 3545 H 318.105 4.28158 2.65888 0
M  V30 3546 H 317.707 3.58306 1.07205 0
M  V30 3547 H 319.999 6.02891 3.09076 0
M  V30 3548 H 320.942 6.84714 1.80479 0
M  V30 3549 H 321.35 5.16874 2.2694 0
M  V30 3550 N 320.748 -0.0735177 1.57428 0
M  V30 3551 C 321.658 -1.10547 2.06922 0
M  V30 3552 C 322.674 -1.42506 0.998402 0
M  V30 3553 O 323.85 -1.52717 1.31299 0
M  V30 3554 C 320.915 -2.40019 2.50184 0
M  V30 3555 C 319.976 -2.15046 3.71556 0
M  V30 3556 C 319.209 -3.38345 4.12745 0
M  V30 3557 O 319.432 -4.47399 3.53822 0
M  V30 3558 O 318.366 -3.2666 5.05546 0
M  V30 3559 H 322.192 -0.715013 2.95163 0
M  V30 3560 H 319.777 -0.287531 1.46607 0
M  V30 3561 H 321.659 -3.16218 2.78539 0
M  V30 3562 H 320.334 -2.78447 1.65072 0
M  V30 3563 H 319.241 -1.36558 3.48285 0
M  V30 3564 H 320.574 -1.81499 4.57514 0
M  V30 3565 N 322.226 -1.5378 -0.344866 0
M  V30 3566 C 323.156 -1.84662 -1.42906 0
M  V30 3567 C 324.137 -0.701648 -1.54955 0
M  V30 3568 O 325.322 -0.953438 -1.69184 0
M  V30 3569 C 322.452 -2.05503 -2.79974 0
M  V30 3570 C 321.406 -3.21318 -2.82734 0
M  V30 3571 C 320.732 -3.2749 -4.22675 0
M  V30 3572 C 322.032 -4.59456 -2.48389 0
M  V30 3573 H 323.726 -2.75461 -1.17311 0
M  V30 3574 H 321.272 -1.32542 -0.562896 0
M  V30 3575 H 323.225 -2.25691 -3.55867 0
M  V30 3576 H 321.949 -1.11434 -3.07002 0
M  V30 3577 H 320.608 -3.00984 -2.09294 0
M  V30 3578 H 320.256 -2.31019 -4.4681 0
M  V30 3579 H 319.956 -4.05316 -4.25433 0
M  V30 3580 H 321.48 -3.49887 -5.00412 0
M  V30 3581 H 322.894 -4.79667 -3.13995 0
M  V30 3582 H 321.291 -5.39675 -2.62432 0
M  V30 3583 H 322.361 -4.63155 -1.4358 0
M  V30 3584 N 323.704 0.605807 -1.45491 0
M  V30 3585 C 324.651 1.7164 -1.54299 0
M  V30 3586 C 325.621 1.61486 -0.388761 0
M  V30 3587 O 326.806 1.81039 -0.602445 0
M  V30 3588 C 323.946 3.09953 -1.51734 0
M  V30 3589 C 323.059 3.309 -2.77721 0
M  V30 3590 C 322.194 4.59329 -2.66816 0
M  V30 3591 C 321.233 4.7354 -3.87848 0
M  V30 3592 N 320.37 5.9327 -3.75467 0
M  V30 3593 H 325.21 1.63449 -2.49176 0
M  V30 3594 H 322.747 0.796957 -1.23641 0
M  V30 3595 H 324.705 3.89977 -1.48235 0
M  V30 3596 H 323.335 3.17098 -0.604068 0
M  V30 3597 H 322.387 2.44639 -2.913 0
M  V30 3598 H 323.699 3.37274 -3.67488 0
M  V30 3599 H 322.853 5.4755 -2.61292 0
M  V30 3600 H 321.592 4.55355 -1.74651 0
M  V30 3601 H 320.597 3.83741 -3.93729 0
M  V30 3602 H 321.822 4.79309 -4.81082 0
M  V30 3603 H 319.768 5.90338 -2.86072 0
M  V30 3604 H 319.685 6.00811 -4.5887 0
M  V30 3605 H 320.953 6.83984 -3.73879 0
M  V30 3606 N 325.182 1.32811 0.848464 0
M  V30 3607 C 326.428 1.23907 1.60546 0
M  V30 3608 C 326.761 -0.197161 1.93197 0
M  V30 3609 O 326.036 -1.13596 1.5788 0
M  V30 3610 C 326.319 2.10489 2.92175 0
M  V30 3611 C 326.172 3.62522 2.66266 0
M  V30 3612 C 327.491 1.97075 3.93509 0
M  V30 3613 H 324.61 0.451459 0.58254 0
M  V30 3614 H 327.252 1.62818 0.979296 0
M  V30 3615 H 325.402 1.77434 3.45614 0
M  V30 3616 H 327.074 4.05821 2.19334 0
M  V30 3617 H 325.317 3.84879 2.00126 0
M  V30 3618 H 325.988 4.18437 3.6002 0
M  V30 3619 H 328.464 2.26045 3.49346 0
M  V30 3620 H 327.34 2.59923 4.83457 0
M  V30 3621 H 327.601 0.940186 4.31987 0
M  V30 3622 N 326.66 -1.06551 1.16123 0
M  V30 3623 C 327.908 -1.78947 0.939267 0
M  V30 3624 C 328.229 -1.87532 -0.534476 0
M  V30 3625 O 327.499 -1.38211 -1.38833 0
M  V30 3626 H 326.079 -0.662807 0.344523 0
M  V30 3627 H 328.741 -1.28725 1.46342 0
M  V30 3628 H 327.837 -2.81117 1.35572 0
M  V30 3629 N 328.138 -0.959301 -1.25041 0
M  V30 3630 C 329.415 -0.533805 -1.88175 0
M  V30 3631 C 329.795 0.988994 -1.865 0
M  V30 3632 O 329.143 1.85677 -1.33177 0
M  V30 3633 C 329.353 -1.11575 -3.30684 0
M  V30 3634 C 330.701 -1.19548 -4.07423 0
M  V30 3635 O 331.725 -1.06765 -3.39823 0
M  V30 3636 O 330.584 -1.39656 -5.28354 0
M  V30 3637 H 327.678 -0.176772 -0.807887 0
M  V30 3638 H 330.224 -1.05303 -1.33076 0
M  V30 3639 H 328.996 -2.15884 -3.26358 0
M  V30 3640 H 328.619 -0.580059 -3.93346 0
M  V30 3641 N 329.616 1.39756 -0.72842 0
M  V30 3642 C 330.863 2.00645 -0.273487 0
M  V30 3643 C 331.191 1.57786 1.13727 0
M  V30 3644 O 330.446 0.794886 1.7883 0
M  V30 3645 C 330.745 3.56002 -0.315776 0
M  V30 3646 C 330.411 4.18489 -1.67863 0
M  V30 3647 C 329.073 4.3527 -2.05166 0
M  V30 3648 C 331.425 4.53219 -2.57375 0
M  V30 3649 C 328.753 4.84069 -3.31503 0
M  V30 3650 C 331.105 5.03423 -3.83077 0
M  V30 3651 C 329.769 5.18413 -4.20481 0
M  V30 3652 H 329.039 0.734211 -0.100076 0
M  V30 3653 H 331.686 1.6718 -0.933972 0
M  V30 3654 H 329.991 3.89452 0.428285 0
M  V30 3655 H 331.688 4.00963 0.0542575 0
M  V30 3656 H 328.278 4.05824 -1.37858 0
M  V30 3657 H 332.462 4.39878 -2.29827 0
M  V30 3658 H 327.718 4.93859 -3.60435 0
M  V30 3659 H 331.892 5.2927 -4.52599 0
M  V30 3660 H 329.519 5.55987 -5.18443 0
M  V30 3661 N 331.094 0.475555 1.50254 0
M  V30 3662 C 332.342 -0.077738 2.0195 0
M  V30 3663 C 332.663 -1.39813 1.35931 0
M  V30 3664 O 331.933 -1.89249 0.506123 0
M  V30 3665 H 330.513 -0.031719 0.746326 0
M  V30 3666 H 333.175 0.626995 1.84539 0
M  V30 3667 H 332.271 -0.225995 3.11281 0
M  V30 3668 N 332.573 -1.56217 0.208337 0
M  V30 3669 C 333.503 -2.22694 -0.702116 0
M  V30 3670 C 334.484 -1.19432 -1.2112 0
M  V30 3671 O 335.669 -1.47978 -1.25762 0
M  V30 3672 C 332.799 -2.8966 -1.9161 0
M  V30 3673 C 331.753 -3.9928 -1.5414 0
M  V30 3674 C 331.079 -4.53476 -2.83308 0
M  V30 3675 C 332.379 -5.17012 -0.741339 0
M  V30 3676 H 334.073 -2.99034 -0.147898 0
M  V30 3677 H 331.619 -1.43831 -0.0696951 0
M  V30 3678 H 333.572 -3.34852 -2.55836 0
M  V30 3679 H 332.296 -2.10746 -2.49507 0
M  V30 3680 H 330.955 -3.54799 -0.922668 0
M  V30 3681 H 330.603 -3.71308 -3.39322 0
M  V30 3682 H 330.303 -5.27451 -2.58976 0
M  V30 3683 H 331.827 -5.01378 -3.485 0
M  V30 3684 H 333.241 -5.58667 -1.28699 0
M  V30 3685 H 331.638 -5.97137 -0.595627 0
M  V30 3686 H 332.708 -4.8423 0.254851 0
M  V30 3687 N 334.051 0.0651679 -1.57465 0
M  V30 3688 C 335.014 1.06117 -2.03155 0
M  V30 3689 C 336.014 1.31204 -0.929632 0
M  V30 3690 O 337.204 1.26813 -1.19432 0
M  V30 3691 C 334.336 2.4032 -2.41783 0
M  V30 3692 H 335.529 0.667231 -2.92383 0
M  V30 3693 H 333.082 0.311075 -1.53173 0
M  V30 3694 H 333.817 2.84532 -1.55601 0
M  V30 3695 H 333.602 2.23451 -3.22199 0
M  V30 3696 H 335.092 3.11898 -2.77685 0
M  V30 3697 N 335.529 1.53961 0.336706 0
M  V30 3698 C 336.492 1.81724 1.39675 0
M  V30 3699 C 337.492 0.688532 1.45313 0
M  V30 3700 O 338.682 0.956829 1.45569 0
M  V30 3701 C 335.814 1.96543 2.78538 0
M  V30 3702 H 337.007 2.76424 1.16318 0
M  V30 3703 H 334.56 1.45478 0.571474 0
M  V30 3704 H 335.295 1.0401 3.07168 0
M  V30 3705 H 335.08 2.78665 2.75841 0
M  V30 3706 H 336.57 2.19516 3.5525 0
M  V30 3707 N 337.007 -0.598083 1.45811 0
M  V30 3708 C 338.423 -0.919847 1.30426 0
M  V30 3709 C 338.623 -1.99759 0.264303 0
M  V30 3710 O 337.679 -2.50221 -0.338472 0
M  V30 3711 C 338.992 -1.35176 2.68603 0
M  V30 3712 C 340.54 -1.46546 2.76574 0
M  V30 3713 C 341.015 -1.9311 4.15298 0
M  V30 3714 N 342.506 -2.00328 4.1764 0
M  V30 3715 C 343.241 -2.37599 5.21856 0
M  V30 3716 N 342.737 -2.73771 6.36413 0
M  V30 3717 N 344.53 -2.38021 5.09218 0
M  V30 3718 H 336.681 0.114111 2.12093 0
M  V30 3719 H 338.944 -0.0116121 0.947929 0
M  V30 3720 H 338.65 -0.633969 3.45939 0
M  V30 3721 H 338.524 -2.3164 2.97696 0
M  V30 3722 H 340.911 -2.17415 1.99537 0
M  V30 3723 H 340.992 -0.483727 2.51185 0
M  V30 3724 H 340.636 -1.22824 4.92825 0
M  V30 3725 H 340.566 -2.92213 4.38086 0
M  V30 3726 H 343.057 -1.74925 3.34977 0
M  V30 3727 H 343.37 -3.0112 7.11721 0
M  V30 3728 H 341.715 -2.71445 6.39799 0
M  V30 3729 H 344.906 -2.09174 4.18765 0
M  V30 3730 H 345.079 -2.66741 5.90554 0
M  V30 3731 N 338.485 -1.33259 -0.841409 0
M  V30 3732 C 339.415 -1.25926 -1.96634 0
M  V30 3733 C 340.396 -0.140349 -1.6952 0
M  V30 3734 O 341.581 -0.329707 -1.91381 0
M  V30 3735 C 338.711 -0.99512 -3.32738 0
M  V30 3736 C 337.665 -2.0767 -3.74242 0
M  V30 3737 C 336.991 -1.66474 -5.08125 0
M  V30 3738 C 338.291 -3.49318 -3.88297 0
M  V30 3739 H 339.985 -2.20046 -2.03027 0
M  V30 3740 H 337.531 -1.05931 -0.975425 0
M  V30 3741 H 339.484 -0.930323 -4.11002 0
M  V30 3742 H 338.208 -0.0183004 -3.26595 0
M  V30 3743 H 336.867 -2.13187 -2.98239 0
M  V30 3744 H 336.515 -0.675012 -4.9845 0
M  V30 3745 H 336.215 -2.3885 -5.36865 0
M  V30 3746 H 337.739 -1.61455 -5.88867 0
M  V30 3747 H 339.153 -3.46316 -4.56879 0
M  V30 3748 H 337.55 -4.20158 -4.28471 0
M  V30 3749 H 338.62 -3.8801 -2.9082 0
M  V30 3750 N 339.963 1.05934 -1.16686 0
M  V30 3751 C 340.873 2.17014 -0.891183 0
M  V30 3752 C 341.889 1.73453 0.137907 0
M  V30 3753 O 343.065 2.01361 -0.039592 0
M  V30 3754 C 340.13 3.44384 -0.400099 0
M  V30 3755 C 339.191 4.02433 -1.49486 0
M  V30 3756 C 338.424 5.23723 -1.02711 0
M  V30 3757 O 338.647 5.7027 0.121716 0
M  V30 3758 O 337.581 5.7382 -1.81699 0
M  V30 3759 H 341.407 2.43113 -1.82015 0
M  V30 3760 H 338.992 1.15541 -0.947132 0
M  V30 3761 H 340.874 4.21189 -0.133392 0
M  V30 3762 H 339.549 3.19802 0.500817 0
M  V30 3763 H 338.456 3.27102 -1.81535 0
M  V30 3764 H 339.789 4.31317 -2.37121 0
M  V30 3765 N 341.441 0.965919 1.2453 0
M  V30 3766 C 342.852 0.665929 1.7442 0
M  V30 3767 C 343.203 -0.818407 1.78316 0
M  V30 3768 O 342.328 -1.64037 1.41141 0
M  V30 3769 C 342.923 1.20211 3.16757 0
M  V30 3770 C 341.482 0.952059 3.6416 0
M  V30 3771 C 340.629 1.33848 2.42858 0
M  V30 3772 H 343.58 1.14144 1.10258 0
M  V30 3773 H 343.601 0.567544 3.76244 0
M  V30 3774 H 343.113 2.28244 3.13889 0
M  V30 3775 H 341.214 -0.112821 3.72429 0
M  V30 3776 H 341.327 1.59645 4.51719 0
M  V30 3777 H 339.691 0.756864 2.43195 0
M  V30 3778 H 340.474 2.42827 2.42673 0
M  V30 3779 N 342.919 -1.39368 0.735821 0
M  V30 3780 C 343.849 -2.33234 0.111506 0
M  V30 3781 C 344.83 -1.53954 -0.723334 0
M  V30 3782 O 346.015 -1.82344 -0.668147 0
M  V30 3783 C 343.145 -3.38057 -0.795917 0
M  V30 3784 C 342.099 -4.2795 -0.065172 0
M  V30 3785 C 341.425 -5.23479 -1.08967 0
M  V30 3786 C 342.725 -5.10741 1.09273 0
M  V30 3787 H 344.419 -2.85692 0.895571 0
M  V30 3788 H 341.965 -1.37364 0.432109 0
M  V30 3789 H 343.918 -4.02675 -1.24221 0
M  V30 3790 H 342.642 -2.8404 -1.61211 0
M  V30 3791 H 341.301 -3.64813 0.361511 0
M  V30 3792 H 340.949 -4.65758 -1.89944 0
M  V30 3793 H 340.649 -5.84472 -0.605489 0
M  V30 3794 H 342.173 -5.90974 -1.53565 0
M  V30 3795 H 343.587 -5.68699 0.724841 0
M  V30 3796 H 341.984 -5.8088 1.50659 0
M  V30 3797 H 343.054 -4.45525 1.91404 0
M  V30 3798 N 344.397 -0.483516 -1.5 0
M  V30 3799 C 345.307 0.309172 -2.32554 0
M  V30 3800 C 346.323 0.984159 -1.43493 0
M  V30 3801 O 347.499 0.969399 -1.76535 0
M  V30 3802 C 344.564 1.36979 -3.18493 0
M  V30 3803 C 343.625 0.710095 -4.23387 0
M  V30 3804 C 342.858 1.72018 -5.05218 0
M  V30 3805 O 343.081 2.94813 -4.88305 0
M  V30 3806 O 342.015 1.28515 -5.8802 0
M  V30 3807 H 345.841 -0.366064 -3.01486 0
M  V30 3808 H 343.426 -0.24514 -1.47375 0
M  V30 3809 H 345.308 1.98385 -3.71781 0
M  V30 3810 H 343.983 2.02828 -2.52275 0
M  V30 3811 H 342.89 0.0567539 -3.74057 0
M  V30 3812 H 344.223 0.0943557 -4.9211 0
M  V30 3813 N 345.875 1.56104 -0.216619 0
M  V30 3814 C 346.825 2.16703 0.708798 0
M  V30 3815 C 347.809 1.11392 1.16106 0
M  V30 3816 O 349.001 1.37395 1.11587 0
M  V30 3817 C 346.13 2.84666 1.91886 0
M  V30 3818 C 345.216 3.97195 1.48651 0
M  V30 3819 N 345.607 4.99959 0.766434 0
M  V30 3820 C 343.905 4.09193 1.77418 0
M  V30 3821 C 344.606 5.79126 0.546659 0
M  V30 3822 N 343.582 5.32315 1.10188 0
M  V30 3823 H 347.384 2.93516 0.150162 0
M  V30 3824 H 344.898 1.6239 -0.0176768 0
M  V30 3825 H 346.895 3.26486 2.59253 0
M  V30 3826 H 345.555 2.09347 2.48202 0
M  V30 3827 H 346.566 5.16197 0.419634 0
M  V30 3828 H 343.243 3.45021 2.35088 0
M  V30 3829 H 344.633 6.71895 -0.026103 0
M  V30 3830 N 347.353 -0.0568162 1.57498 0
M  V30 3831 C 348.769 -0.411933 1.54192 0
M  V30 3832 C 348.969 -1.78287 0.938942 0
M  V30 3833 O 348.025 -2.46483 0.547919 0
M  V30 3834 C 349.338 -0.339244 2.9878 0
M  V30 3835 C 350.886 -0.418348 3.10192 0
M  V30 3836 C 351.361 -0.375407 4.56459 0
M  V30 3837 N 352.852 -0.435038 4.61153 0
M  V30 3838 C 353.587 -0.424265 5.71828 0
M  V30 3839 N 353.083 -0.367418 6.91825 0
M  V30 3840 N 354.876 -0.471938 5.60115 0
M  V30 3841 H 347.027 0.840684 1.95055 0
M  V30 3842 H 349.29 0.316987 0.893433 0
M  V30 3843 H 348.996 0.601742 3.46514 0
M  V30 3844 H 348.87 -1.14371 3.59443 0
M  V30 3845 H 351.257 -1.34976 2.62422 0
M  V30 3846 H 351.338 0.414962 2.52412 0
M  V30 3847 H 350.982 0.552219 5.04889 0
M  V30 3848 H 350.912 -1.22645 5.12119 0
M  V30 3849 H 353.403 -0.482612 3.74806 0
M  V30 3850 H 353.716 -0.363535 7.71944 0
M  V30 3851 H 352.061 -0.333879 6.94198 0
M  V30 3852 H 355.252 -0.514145 4.65268 0
M  V30 3853 H 355.425 -0.460073 6.46365 0
M  V30 3854 N 348.832 -1.54138 -0.328536 0
M  V30 3855 C 350.248 -1.44736 -0.672574 0
M  V30 3856 C 350.448 -0.616217 -1.91846 0
M  V30 3857 O 349.504 -0.113067 -2.52247 0
M  V30 3858 C 350.817 -2.884 -0.851217 0
M  V30 3859 C 352.365 -2.98271 -0.948877 0
M  V30 3860 C 352.84 -4.43074 -1.15973 0
M  V30 3861 N 354.331 -4.46665 -1.22658 0
M  V30 3862 C 355.066 -5.55857 -1.40751 0
M  V30 3863 N 354.562 -6.75026 -1.5592 0
M  V30 3864 N 356.355 -5.43495 -1.4342 0
M  V30 3865 H 348.506 -2.06661 0.490421 0
M  V30 3866 H 350.769 -0.934812 0.157579 0
M  V30 3867 H 350.475 -3.51699 -0.00704236 0
M  V30 3868 H 350.349 -3.34225 -1.74853 0
M  V30 3869 H 352.736 -2.35102 -1.78356 0
M  V30 3870 H 352.817 -2.55785 -0.0281435 0
M  V30 3871 H 352.461 -5.06827 -0.329915 0
M  V30 3872 H 352.391 -4.83165 -2.09426 0
M  V30 3873 H 354.882 -3.60797 -1.124 0
M  V30 3874 H 355.195 -7.54004 -1.69404 0
M  V30 3875 H 353.54 -6.77944 -1.53027 0
M  V30 3876 H 356.731 -4.49349 -1.31162 0
M  V30 3877 H 356.904 -6.28649 -1.57178 0
M  V30 3878 N 350.31 0.590341 -1.46126 0
M  V30 3879 C 351.726 0.912917 -1.30912 0
M  V30 3880 C 351.926 1.99616 -0.274893 0
M  V30 3881 O 350.982 2.50397 0.325197 0
M  V30 3882 C 352.295 1.3375 -2.69317 0
M  V30 3883 C 353.843 1.45077 -2.77348 0
M  V30 3884 C 354.318 1.90904 -4.16317 0
M  V30 3885 N 355.809 1.9811 -4.18696 0
M  V30 3886 C 356.544 2.34828 -5.23109 0
M  V30 3887 N 356.04 2.70393 -6.37856 0
M  V30 3888 N 357.833 2.35317 -5.10473 0
M  V30 3889 H 349.984 -0.125358 -2.1203 0
M  V30 3890 H 352.247 0.00658481 -0.947977 0
M  V30 3891 H 351.953 0.615614 -3.4627 0
M  V30 3892 H 351.827 2.30058 -2.9892 0
M  V30 3893 H 354.214 2.16353 -2.00687 0
M  V30 3894 H 354.295 0.4704 -2.51438 0
M  V30 3895 H 353.939 1.20209 -4.9347 0
M  V30 3896 H 353.869 2.89886 -4.39629 0
M  V30 3897 H 356.36 1.73146 -3.359 0
M  V30 3898 H 356.673 2.97341 -7.13308 0
M  V30 3899 H 355.018 2.68048 -6.41229 0
M  V30 3900 H 358.209 2.0695 -4.19868 0
M  V30 3901 H 358.382 2.63605 -5.9196 0
M  V30 3902 N 351.788 1.33704 0.83433 0
M  V30 3903 C 353.016 1.28467 1.62185 0
M  V30 3904 C 353.431 -0.143526 1.88254 0
M  V30 3905 O 352.788 -1.08709 1.4659 0
M  V30 3906 C 352.839 2.06174 2.96942 0
M  V30 3907 O 352.56 3.43422 2.72016 0
M  V30 3908 C 354.061 2.08201 3.91366 0
M  V30 3909 H 351.281 0.4424 0.504503 0
M  V30 3910 H 353.825 1.76145 1.03891 0
M  V30 3911 H 351.98 1.62167 3.51825 0
M  V30 3912 H 352.394 3.83453 3.57861 0
M  V30 3913 H 353.868 2.67017 4.83121 0
M  V30 3914 H 354.345 1.07343 4.2588 0
M  V30 3915 H 354.951 2.52246 3.42421 0
M  V30 3916 N 353.266 -1.05314 1.17247 0
M  V30 3917 C 354.515 -1.77685 0.954521 0
M  V30 3918 C 354.828 -1.88616 -0.518025 0
M  V30 3919 O 356.034 -2.57714 -0.854144 0
M  V30 3920 C 354.49 -3.19402 1.65863 0
M  V30 3921 C 354.098 -3.16605 3.16963 0
M  V30 3922 C 355.842 -3.96237 1.52303 0
M  V30 3923 C 353.749 -4.53103 3.80068 0
M  V30 3924 H 352.679 -0.666 0.353496 0
M  V30 3925 H 355.33 -1.1805 1.40486 0
M  V30 3926 H 353.712 -3.79355 1.13602 0
M  V30 3927 H 354.886 -2.66176 3.76148 0
M  V30 3928 H 353.201 -2.53268 3.30521 0
M  V30 3929 H 355.798 -4.97157 1.96822 0
M  V30 3930 H 356.141 -4.136 0.473401 0
M  V30 3931 H 356.674 -3.42829 2.01775 0
M  V30 3932 H 353.413 -4.40946 4.85023 0
M  V30 3933 H 352.933 -5.03686 3.2567 0
M  V30 3934 H 354.612 -5.22045 3.82202 0
M  V30 3935 N 354.744 -0.972509 -1.24016 0
M  V30 3936 C 355.984 -0.644951 -1.93958 0
M  V30 3937 C 356.348 0.80559 -1.74282 0
M  V30 3938 O 357.549 1.2436 -2.38302 0
M  V30 3939 C 355.82 -1.01521 -3.42678 0
M  V30 3940 S 357.379 -0.802927 -4.31391 0
M  V30 3941 H 354.197 -0.236452 -0.670531 0
M  V30 3942 H 356.799 -1.25048 -1.50277 0
M  V30 3943 H 355.503 -2.06769 -3.54506 0
M  V30 3944 H 355.034 -0.400648 -3.91355 0
M  V30 3945 H 357.049 0.317256 -4.95185 0
M  V30 3946 N 356.222 1.38976 -0.743202 0
M  V30 3947 C 357.47 1.99948 -0.29417 0
M  V30 3948 C 357.791 1.59279 1.12495 0
M  V30 3949 O 357.061 0.844808 1.76748 0
M  V30 3950 H 355.641 0.739473 -0.105774 0
M  V30 3951 H 358.303 1.699 -0.954986 0
M  V30 3952 H 357.399 3.10142 -0.349056 0
M  V30 3953 N 357.7 0.491464 1.49741 0
M  V30 3954 C 358.928 -0.0535151 2.06831 0
M  V30 3955 C 359.343 -1.31683 1.35296 0
M  V30 3956 O 358.7 -1.77402 0.42836 0
M  V30 3957 C 358.751 -0.320835 3.60073 0
M  V30 3958 O 358.472 0.892394 4.28915 0
M  V30 3959 C 359.973 -0.910519 4.33848 0
M  V30 3960 H 357.193 0.0161909 0.670805 0
M  V30 3961 H 359.737 0.68609 1.92647 0
M  V30 3962 H 357.892 -1.0104 3.73991 0
M  V30 3963 H 358.306 0.649401 5.20464 0
M  V30 3964 H 359.78 -1.04721 5.41976 0
M  V30 3965 H 360.257 -1.90589 3.95692 0
M  V30 3966 H 360.863 -0.258712 4.24512 0
M  V30 3967 N 359.178 -1.55987 0.224894 0
M  V30 3968 C 360.589 -1.84553 -0.282345 0
M  V30 3969 C 360.94 -1.14634 -1.59227 0
M  V30 3970 O 360.065 -0.417155 -2.12341 0
M  V30 3971 C 360.66 -3.348 -0.519062 0
M  V30 3972 C 359.219 -3.63671 -0.970604 0
M  V30 3973 C 358.366 -2.77277 -0.0355261 0
M  V30 3974 H 361.317 -1.52245 0.448006 0
M  V30 3975 H 361.338 -3.55187 -1.36463 0
M  V30 3976 H 360.85 -3.8566 0.43449 0
M  V30 3977 H 358.951 -3.1827 -1.9374 0
M  V30 3978 H 359.064 -4.71631 -0.842698 0
M  V30 3979 H 357.428 -2.48846 -0.542927 0
M  V30 3980 H 358.211 -3.30937 0.913003 0
M  V30 3981 N 360.656 0.0484629 -1.57525 0
M  V30 3982 C 361.604 1.07359 -2.06341 0
M  V30 3983 C 362.598 1.3865 -0.973269 0
M  V30 3984 O 363.804 1.37783 -1.15827 0
M  V30 3985 H 360.179 0.363662 -0.65822 0
M  V30 3986 H 362.15 0.635916 -2.91545 0
M  V30 3987 C 360.899 2.37198 -2.54229 0
M  V30 3988 H 360.222 2.13977 -3.37719 0
M  V30 3989 H 361.662 3.07319 -2.92115 0
M  V30 3990 C 360.121 3.04805 -1.43511 0
M  V30 3991 O 360.651 3.93848 -0.79034 0
M  V30 3992 N 358.857 2.65811 -1.17444 0
M  V30 3993 H 358.404 1.93488 -1.70059 0
M  V30 3994 H 358.362 3.11366 -0.435737 0
M  V30 3995 N 362.134 1.5431 0.320358 0
M  V30 3996 C 363.364 1.7638 1.07582 0
M  V30 3997 C 363.772 0.513944 1.82086 0
M  V30 3998 O 363.115 -0.525123 1.76035 0
M  V30 3999 C 363.177 2.9055 2.1171 0
M  V30 4000 C 362.841 4.2934 1.56575 0
M  V30 4001 C 363.838 5.10077 1.00586 0
M  V30 4002 C 361.523 4.75893 1.60722 0
M  V30 4003 C 363.517 6.35477 0.494756 0
M  V30 4004 C 361.204 6.0126 1.09224 0
M  V30 4005 C 362.202 6.80886 0.53696 0
M  V30 4006 O 361.89 8.03894 0.0297371 0
M  V30 4007 H 361.622 0.592369 0.325692 0
M  V30 4008 H 364.176 2.02019 0.37116 0
M  V30 4009 H 362.406 2.60489 2.85801 0
M  V30 4010 H 364.095 3.00373 2.73003 0
M  V30 4011 H 364.861 4.75265 0.966869 0
M  V30 4012 H 360.74 4.13957 2.02882 0
M  V30 4013 H 364.284 6.97574 0.0606842 0
M  V30 4014 H 360.181 6.35562 1.12831 0
M  V30 4015 H 360.949 8.18372 0.14486 0
M  V30 4016 N 363.613 -0.582584 1.46437 0
M  V30 4017 C 364.543 -1.70187 1.59871 0
M  V30 4018 C 365.524 -1.64066 0.449042 0
M  V30 4019 O 366.709 -1.82081 0.6753 0
M  V30 4020 C 363.839 -3.08827 1.58881 0
M  V30 4021 C 362.793 -3.29779 2.72819 0
M  V30 4022 C 362.119 -4.68947 2.5689 0
M  V30 4023 C 363.419 -3.17601 4.1464 0
M  V30 4024 H 365.113 -1.592 2.53566 0
M  V30 4025 H 362.659 -0.764472 1.22032 0
M  V30 4026 H 364.612 -3.86951 1.66873 0
M  V30 4027 H 363.336 -3.20713 0.617306 0
M  V30 4028 H 361.995 -2.54054 2.64296 0
M  V30 4029 H 361.643 -4.77599 1.57823 0
M  V30 4030 H 361.343 -4.83919 3.33312 0
M  V30 4031 H 362.867 -5.4924 2.66773 0
M  V30 4032 H 364.281 -3.8557 4.24274 0
M  V30 4033 H 362.678 -3.44094 4.9165 0
M  V30 4034 H 363.748 -2.14681 4.34788 0
M  V30 4035 N 365.091 -1.34144 -0.827227 0
M  V30 4036 C 366.316 -1.29476 -1.62021 0
M  V30 4037 C 366.741 0.129292 -1.87655 0
M  V30 4038 O 366.099 1.08967 -1.449 0
M  V30 4039 C 366.147 -2.08702 -2.94068 0
M  V30 4040 O 365.251 -1.45359 -3.85933 0
M  V30 4041 H 364.592 -0.444881 -0.492927 0
M  V30 4042 H 367.122 -1.76882 -1.02829 0
M  V30 4043 H 367.132 -2.19898 -3.43669 0
M  V30 4044 H 365.807 -3.12241 -2.74734 0
M  V30 4045 H 364.384 -1.42879 -3.44442 0
M  V30 4046 N 366.569 1.04691 -1.17803 0
M  V30 4047 C 367.98 1.59238 -0.974689 0
M  V30 4048 C 368.331 1.90306 0.477292 0
M  V30 4049 O 367.456 1.68846 1.35352 0
M  V30 4050 C 368.051 2.89318 -1.76296 0
M  V30 4051 C 366.61 3.40506 -1.60414 0
M  V30 4052 C 365.757 2.14172 -1.76141 0
M  V30 4053 H 368.708 0.874395 -1.32439 0
M  V30 4054 H 368.729 3.5944 -1.24833 0
M  V30 4055 H 368.241 2.66675 -2.81968 0
M  V30 4056 H 366.342 3.68175 -0.572519 0
M  V30 4057 H 366.455 4.14753 -2.39827 0
M  V30 4058 H 364.819 2.25176 -1.19028 0
M  V30 4059 H 365.602 1.93992 -2.83235 0
M  V30 4060 N 368.047 0.979072 1.23499 0
M  V30 4061 C 368.957 0.526431 2.28617 0
M  V30 4062 C 369.973 -0.418126 1.68901 0
M  V30 4063 O 371.149 -0.288372 1.99325 0
M  V30 4064 C 368.214 -0.165235 3.46306 0
M  V30 4065 C 367.275 0.82056 4.21385 0
M  V30 4066 C 366.508 0.161807 5.33455 0
M  V30 4067 O 366.731 -1.04742 5.60701 0
M  V30 4068 O 365.665 0.859708 5.95729 0
M  V30 4069 H 369.491 1.4006 2.69475 0
M  V30 4070 H 367.076 0.746643 1.29405 0
M  V30 4071 H 368.958 -0.553287 4.17752 0
M  V30 4072 H 367.633 -1.01419 3.07402 0
M  V30 4073 H 366.54 1.25929 3.52268 0
M  V30 4074 H 367.873 1.63828 4.64135 0
M  V30 4075 N 369.525 -1.3858 0.750561 0
M  V30 4076 C 370.771 -2.00481 0.305825 0
M  V30 4077 C 371.104 -1.5944 -1.10872 0
M  V30 4078 O 370.379 -0.83052 -1.75877 0
M  V30 4079 C 370.662 -3.5758 0.425287 0
M  V30 4080 C 370.515 -4.08594 1.88072 0
M  V30 4081 C 371.834 -4.39719 -0.183122 0
M  V30 4082 H 368.953 -0.728348 0.112598 0
M  V30 4083 H 371.595 -1.64566 0.949638 0
M  V30 4084 H 369.745 -3.88306 -0.122828 0
M  V30 4085 H 371.417 -3.88523 2.48691 0
M  V30 4086 H 369.66 -3.61574 2.39681 0
M  V30 4087 H 370.331 -5.177 1.91548 0
M  V30 4088 H 372.807 -4.15128 0.284303 0
M  V30 4089 H 371.683 -5.48856 -0.0692757 0
M  V30 4090 H 371.944 -4.23434 -1.27106 0
M  V30 4091 N 371.003 -0.499398 -1.49478 0
M  V30 4092 C 371.933 0.269244 -2.31943 0
M  V30 4093 C 372.914 0.964054 -1.40143 0
M  V30 4094 O 374.099 0.955767 -1.69052 0
M  V30 4095 C 371.229 1.33504 -3.20615 0
M  V30 4096 C 370.183 0.760202 -4.21195 0
M  V30 4097 C 369.509 1.9264 -4.98792 0
M  V30 4098 C 370.809 -0.247661 -5.21712 0
M  V30 4099 H 372.503 -0.419082 -2.96452 0
M  V30 4100 H 370.049 -0.202988 -1.42562 0
M  V30 4101 H 372.002 1.88048 -3.77115 0
M  V30 4102 H 370.726 2.05253 -2.54045 0
M  V30 4103 H 369.385 0.23653 -3.65836 0
M  V30 4104 H 369.033 2.63154 -4.28671 0
M  V30 4105 H 368.733 1.54785 -5.66847 0
M  V30 4106 H 370.257 2.4762 -5.58137 0
M  V30 4107 H 371.671 0.209579 -5.72917 0
M  V30 4108 H 370.068 -0.541962 -5.97648 0
M  V30 4109 H 371.138 -1.16409 -4.7072 0
M  V30 4110 N 372.481 1.55866 -0.233164 0
M  V30 4111 C 373.429 2.22176 0.68851 0
M  V30 4112 C 374.423 1.20487 1.19076 0
M  V30 4113 O 375.629 1.38536 1.14925 0
M  V30 4114 H 372.004 0.712511 0.240483 0
M  V30 4115 H 373.975 2.98212 0.105935 0
M  V30 4116 C 372.724 2.92446 1.88071 0
M  V30 4117 H 372.047 3.70458 1.50337 0
M  V30 4118 H 373.487 3.42226 2.50314 0
M  V30 4119 C 371.946 1.95555 2.74335 0
M  V30 4120 O 372.476 1.47986 3.73447 0
M  V30 4121 N 370.682 1.62953 2.40613 0
M  V30 4122 H 370.229 2.01831 1.60069 0
M  V30 4123 H 370.187 0.983886 2.98609 0
M  V30 4124 N 373.959 -0.0401083 1.57549 0
M  V30 4125 C 374.906 -1.04413 2.05831 0
M  V30 4126 C 375.876 -1.36585 0.945184 0
M  V30 4127 O 377.061 -1.47112 1.21502 0
M  V30 4128 C 374.201 -2.34336 2.53339 0
M  V30 4129 C 373.314 -2.08419 3.78398 0
M  V30 4130 C 372.449 -3.32133 4.14561 0
M  V30 4131 C 371.488 -3.01721 5.3257 0
M  V30 4132 N 370.625 -4.17855 5.64218 0
M  V30 4133 H 375.465 -0.625442 2.91363 0
M  V30 4134 H 373.002 -0.297218 1.44066 0
M  V30 4135 H 374.96 -3.10234 2.78946 0
M  V30 4136 H 373.59 -2.73948 1.7074 0
M  V30 4137 H 372.642 -1.23069 3.59942 0
M  V30 4138 H 373.954 -1.81978 4.64419 0
M  V30 4139 H 373.108 -4.16406 4.41238 0
M  V30 4140 H 371.847 -3.61678 3.2717 0
M  V30 4141 H 370.852 -2.15849 5.05657 0
M  V30 4142 H 372.077 -2.73466 6.21605 0
M  V30 4143 H 370.023 -4.47372 4.79786 0
M  V30 4144 H 369.94 -3.94798 6.44725 0
M  V30 4145 H 371.208 -5.03033 5.95465 0
M  V30 4146 N 375.437 -1.54477 -0.31217 0
M  V30 4147 C 376.369 -1.81011 -1.40598 0
M  V30 4148 C 377.382 -0.692546 -1.47335 0
M  V30 4149 O 378.571 -0.969847 -1.49854 0
M  V30 4150 C 375.671 -1.92307 -2.79054 0
M  V30 4151 C 374.844 -3.22594 -2.95384 0
M  V30 4152 C 373.903 -3.24448 -4.1427 0
M  V30 4153 O 372.929 -3.98035 -4.06887 0
M  V30 4154 N 374.131 -2.49042 -5.24365 0
M  V30 4155 H 376.896 -2.75408 -1.18196 0
M  V30 4156 H 374.457 -1.53914 -0.502202 0
M  V30 4157 H 376.449 -1.90962 -3.56813 0
M  V30 4158 H 375.019 -1.04955 -2.94454 0
M  V30 4159 H 374.239 -3.36806 -2.04831 0
M  V30 4160 H 375.527 -4.08593 -3.03198 0
M  V30 4161 H 374.925 -1.88867 -5.33241 0
M  V30 4162 H 373.482 -2.53463 -6.005 0
M  V30 4163 N 376.915 0.57481 -1.46744 0
M  V30 4164 C 378.163 1.33009 -1.52161 0
M  V30 4165 C 378.484 1.94185 -0.178092 0
M  V30 4166 O 377.754 1.7899 0.796196 0
M  V30 4167 H 376.334 0.493873 -0.560445 0
M  V30 4168 H 378.996 0.672589 -1.82927 0
M  V30 4169 H 378.092 2.13273 -2.27862 0
M  V30 4170 N 378.394 1.34581 0.820102 0
M  V30 4171 C 379.344 1.22943 1.92013 0
M  V30 4172 C 380.328 0.127802 1.60392 0
M  V30 4173 O 381.52 0.357737 1.73347 0
M  V30 4174 C 378.649 0.989938 3.28717 0
M  V30 4175 C 377.735 2.13486 3.66449 0
M  V30 4176 N 378.126 3.38625 3.75722 0
M  V30 4177 C 376.424 2.04573 3.96315 0
M  V30 4178 C 377.125 4.13832 4.08801 0
M  V30 4179 N 376.101 3.42451 4.22171 0
M  V30 4180 H 379.903 2.17771 1.97365 0
M  V30 4181 H 377.417 1.2686 1.01392 0
M  V30 4182 H 379.414 0.887462 4.07345 0
M  V30 4183 H 378.074 0.0503691 3.24661 0
M  V30 4184 H 379.085 3.73143 3.59144 0
M  V30 4185 H 375.762 1.1839 4.00362 0
M  V30 4186 H 377.152 5.21909 4.23156 0
M  V30 4187 N 379.872 -1.04064 1.18357 0
M  V30 4188 C 381.12 -1.76915 0.977013 0
M  V30 4189 C 381.441 -1.88624 -0.494577 0
M  V30 4190 O 380.711 -1.41125 -1.3587 0
M  V30 4191 H 379.291 -0.65535 0.358504 0
M  V30 4192 H 381.953 -1.25592 1.49039 0
M  V30 4193 H 381.049 -2.78178 1.41504 0
M  V30 4194 N 381.35 -0.985608 -1.22978 0
M  V30 4195 C 382.59 -0.665487 -1.93263 0
M  V30 4196 C 382.954 0.78706 -1.75127 0
M  V30 4197 O 384.155 1.21826 -2.39608 0
M  V30 4198 C 382.426 -1.0515 -3.41582 0
M  V30 4199 S 383.985 -0.848637 -4.30516 0
M  V30 4200 H 380.803 -0.24355 -0.667985 0
M  V30 4201 H 383.405 -1.26635 -1.48942 0
M  V30 4202 H 382.109 -2.10517 -3.52293 0
M  V30 4203 H 381.64 -0.442134 -3.90908 0
M  V30 4204 H 383.655 0.264717 -4.95493 0
M  V30 4205 N 382.828 1.3818 -0.7579 0
M  V30 4206 C 383.738 2.3421 -0.135247 0
M  V30 4207 C 384.754 1.59487 0.695683 0
M  V30 4208 O 385.93 1.91657 0.618832 0
M  V30 4209 C 382.995 3.3862 0.744139 0
M  V30 4210 C 382.056 4.2918 -0.101658 0
M  V30 4211 C 381.289 5.28603 0.735851 0
M  V30 4212 O 381.512 5.35166 1.97366 0
M  V30 4213 O 380.446 6.01707 0.152372 0
M  V30 4214 H 384.272 2.8916 -0.928436 0
M  V30 4215 H 381.857 1.40101 -0.518855 0
M  V30 4216 H 383.739 4.02539 1.2466 0
M  V30 4217 H 382.414 2.86019 1.51575 0
M  V30 4218 H 381.321 3.68407 -0.650167 0
M  V30 4219 H 382.654 4.85048 -0.836024 0
M  V30 4220 N 384.306 0.507319 1.49211 0
M  V30 4221 C 385.531 -0.033725 2.07373 0
M  V30 4222 C 385.956 -1.29485 1.36437 0
M  V30 4223 O 385.314 -1.76294 0.423087 0
M  V30 4224 C 385.362 -0.263945 3.59633 0
M  V30 4225 O 384.466 -1.33737 3.90113 0
M  V30 4226 H 383.807 0.0290331 0.663365 0
M  V30 4227 H 386.337 0.708749 1.91932 0
M  V30 4228 H 386.347 -0.493536 4.05004 0
M  V30 4229 H 385.022 0.657424 4.10671 0
M  V30 4230 H 383.599 -1.09224 3.56545 0
M  V30 4231 N 385.784 -1.5574 0.241426 0
M  V30 4232 C 387.061 -1.90704 -0.434881 0
M  V30 4233 C 387.441 -1.16145 -1.76277 0
M  V30 4234 O 386.789 -0.277152 -2.26813 0
M  V30 4235 C 386.999 -3.43657 -0.608343 0
M  V30 4236 C 388.347 -4.14806 -0.906725 0
M  V30 4237 O 389.371 -3.49366 -0.694408 0
M  V30 4238 O 388.23 -5.30548 -1.31075 0
M  V30 4239 H 385.324 -0.793592 -0.23268 0
M  V30 4240 H 387.87 -1.67288 0.285086 0
M  V30 4241 H 386.642 -3.89927 0.327505 0
M  V30 4242 H 386.265 -3.72918 -1.37906 0
M  V30 4243 N 387.262 0.0317525 -1.57568 0
M  V30 4244 C 388.511 0.722131 -1.8833 0
M  V30 4245 C 388.824 1.76664 -0.839587 0
M  V30 4246 O 390.03 2.50942 -1.03635 0
M  V30 4247 C 388.486 1.33544 -3.34207 0
M  V30 4248 C 388.094 0.327415 -4.46802 0
M  V30 4249 C 389.838 2.00585 -3.7412 0
M  V30 4250 C 387.745 0.948915 -5.83738 0
M  V30 4251 H 386.675 0.273466 -0.702661 0
M  V30 4252 H 389.326 -0.0235811 -1.83485 0
M  V30 4253 H 387.708 2.13077 -3.33788 0
M  V30 4254 H 388.882 -0.441006 -4.58685 0
M  V30 4255 H 387.197 -0.240758 -4.15703 0
M  V30 4256 H 389.794 2.47932 -4.73744 0
M  V30 4257 H 390.137 2.82285 -3.05975 0
M  V30 4258 H 390.67 1.27831 -3.76702 0
M  V30 4259 H 387.409 0.171387 -6.55276 0
M  V30 4260 H 386.929 1.68724 -5.7558 0
M  V30 4261 H 388.608 1.45705 -6.3038 0
M  V30 4262 N 388.74 1.54641 0.303973 0
M  V30 4263 C 389.986 1.74969 1.03718 0
M  V30 4264 C 390.341 0.527461 1.85029 0
M  V30 4265 O 389.634 -0.480143 1.85486 0
M  V30 4266 C 389.828 2.97753 1.97681 0
M  V30 4267 C 389.657 4.318 1.25613 0
M  V30 4268 C 388.427 4.95616 0.984518 0
M  V30 4269 C 390.625 5.10021 0.662081 0
M  V30 4270 N 388.607 6.13455 0.233794 0
M  V30 4271 C 389.978 6.19984 0.0439736 0
M  V30 4272 C 392.033 4.94663 0.566835 0
M  V30 4273 C 390.736 7.16264 -0.66016 0
M  V30 4274 C 392.762 5.91271 -0.123637 0
M  V30 4275 C 392.124 7.00601 -0.730608 0
M  V30 4276 H 388.223 0.692873 0.362562 0
M  V30 4277 H 390.807 1.92116 0.316135 0
M  V30 4278 H 388.978 2.82036 2.6704 0
M  V30 4279 H 390.71 3.06621 2.64132 0
M  V30 4280 H 387.465 4.55921 1.28191 0
M  V30 4281 H 387.889 6.76879 -0.127996 0
M  V30 4282 H 392.531 4.10267 1.02181 0
M  V30 4283 H 390.249 8.00204 -1.12691 0
M  V30 4284 H 393.835 5.81466 -0.197236 0
M  V30 4285 H 392.715 7.7407 -1.2564 0
M  V30 4286 N 390.218 -0.567019 1.47046 0
M  V30 4287 C 391.181 -1.65696 1.58359 0
M  V30 4288 C 392.181 -1.54097 0.459441 0
M  V30 4289 O 393.371 -1.58432 0.724225 0
M  V30 4290 C 390.503 -3.05197 1.51879 0
M  V30 4291 H 391.696 -1.57019 2.5551 0
M  V30 4292 H 389.249 -0.786148 1.3509 0
M  V30 4293 H 389.984 -3.19417 0.560673 0
M  V30 4294 H 389.769 -3.15025 2.33455 0
M  V30 4295 H 391.259 -3.84511 1.62913 0
M  V30 4296 N 391.696 -1.35014 -0.812953 0
M  V30 4297 C 392.626 -1.30069 -1.93919 0
M  V30 4298 C 393.607 -0.176275 -1.69184 0
M  V30 4299 O 394.792 -0.370227 -1.90638 0
M  V30 4300 C 391.922 -1.06547 -3.30552 0
M  V30 4301 C 390.876 -2.15561 -3.69753 0
M  V30 4302 C 390.202 -1.77214 -5.04479 0
M  V30 4303 C 391.502 -3.57476 -3.808 0
M  V30 4304 H 393.196 -2.24303 -1.98314 0
M  V30 4305 H 390.742 -1.07977 -0.952736 0
M  V30 4306 H 392.695 -1.01729 -4.08937 0
M  V30 4307 H 391.419 -0.0875719 -3.26483 0
M  V30 4308 H 390.078 -2.19466 -2.9365 0
M  V30 4309 H 389.726 -0.780589 -4.96906 0
M  V30 4310 H 389.426 -2.50184 -5.31678 0
M  V30 4311 H 390.95 -1.7391 -5.8531 0
M  V30 4312 H 392.364 -3.55929 -4.4943 0
M  V30 4313 H 390.761 -4.29152 -4.19462 0
M  V30 4314 H 391.831 -3.94091 -2.82525 0
M  V30 4315 N 393.175 1.03435 -1.18907 0
M  V30 4316 C 394.423 1.76394 -0.986382 0
M  V30 4317 C 394.744 1.88883 0.484567 0
M  V30 4318 O 394.014 1.41843 1.3512 0
M  V30 4319 H 392.594 0.65344 -0.361975 0
M  V30 4320 H 395.256 1.248 -1.49703 0
M  V30 4321 H 394.352 2.77424 -1.42978 0
M  V30 4322 N 394.653 0.992116 1.22453 0
M  V30 4323 C 395.893 0.675727 1.92907 0
M  V30 4324 C 396.257 -0.777762 1.75542 0
M  V30 4325 O 397.458 -1.20553 2.40251 0
M  V30 4326 C 395.729 1.0696 3.4102 0
M  V30 4327 S 397.288 0.871456 4.30059 0
M  V30 4328 H 394.106 0.247089 0.666684 0
M  V30 4329 H 396.708 1.27423 1.48269 0
M  V30 4330 H 395.412 2.12383 3.51172 0
M  V30 4331 H 394.943 0.462858 3.90668 0
M  V30 4332 H 396.958 -0.238436 4.95627 0
M  V30 4333 N 396.131 -1.37776 0.765217 0
M  V30 4334 C 397.377 -2.00145 0.327072 0
M  V30 4335 C 397.71 -1.60607 -1.09175 0
M  V30 4336 O 396.985 -0.849127 -1.74986 0
M  V30 4337 C 397.268 -3.57109 0.46319 0
M  V30 4338 C 397.121 -4.06576 1.92395 0
M  V30 4339 C 398.44 -4.39888 -0.136473 0
M  V30 4340 H 395.559 -0.727113 0.120316 0
M  V30 4341 H 398.201 -1.63549 0.967039 0
M  V30 4342 H 396.351 -3.88414 -0.0816358 0
M  V30 4343 H 398.023 -3.85864 2.52798 0
M  V30 4344 H 396.266 -3.59011 2.43503 0
M  V30 4345 H 396.937 -5.15639 1.97028 0
M  V30 4346 H 399.413 -4.14803 0.328317 0
M  V30 4347 H 398.289 -5.48899 -0.0110582 0
M  V30 4348 H 398.55 -4.24758 -1.22608 0
M  V30 4349 N 397.609 -0.515225 -1.4894 0
M  V30 4350 C 398.542 0.302518 -2.26186 0
M  V30 4351 C 399.52 0.957895 -1.31389 0
M  V30 4352 O 400.704 0.985198 -1.60705 0
M  V30 4353 C 397.831 1.42719 -3.07163 0
M  V30 4354 C 396.877 0.884736 -4.17223 0
M  V30 4355 S 397.71 -0.235767 -5.34981 0
M  V30 4356 C 398.866 0.891731 -6.19515 0
M  V30 4357 H 399.099 -0.353076 -2.95196 0
M  V30 4358 H 396.632 -0.300753 -1.51443 0
M  V30 4359 H 398.59 2.07152 -3.54398 0
M  V30 4360 H 397.251 2.05445 -2.37595 0
M  V30 4361 H 396.444 1.72801 -4.73451 0
M  V30 4362 H 396.046 0.317362 -3.72651 0
M  V30 4363 H 398.338 1.79377 -6.53322 0
M  V30 4364 H 399.281 0.367751 -7.07144 0
M  V30 4365 H 399.689 1.16548 -5.52338 0
M  V30 4366 N 399.087 1.5561 -0.249682 0
M  V30 4367 C 400.317 2.03116 0.377803 0
M  V30 4368 C 400.725 1.12822 1.51881 0
M  V30 4369 O 400.068 0.13562 1.83199 0
M  V30 4370 C 400.13 3.46866 0.944693 0
M  V30 4371 C 399.794 4.56955 -0.0644259 0
M  V30 4372 C 400.791 5.12485 -0.874957 0
M  V30 4373 C 398.476 5.01936 -0.19132 0
M  V30 4374 C 400.47 6.11491 -1.79881 0
M  V30 4375 C 398.157 6.00773 -1.11868 0
M  V30 4376 C 399.155 6.5543 -1.92095 0
M  V30 4377 O 398.843 7.5234 -2.83267 0
M  V30 4378 H 398.575 0.669489 0.0935961 0
M  V30 4379 H 401.129 2.02004 -0.371966 0
M  V30 4380 H 399.359 3.45136 1.74407 0
M  V30 4381 H 401.048 3.77856 1.48255 0
M  V30 4382 H 401.814 4.78564 -0.787523 0
M  V30 4383 H 397.693 4.59055 0.423072 0
M  V30 4384 H 401.237 6.54078 -2.42543 0
M  V30 4385 H 397.134 6.34114 -1.20703 0
M  V30 4386 H 397.902 7.69966 -2.7766 0
M  V30 4387 N 400.565 -0.0233959 1.57583 0
M  V30 4388 C 401.793 -0.724682 1.93794 0
M  V30 4389 C 402.208 -1.68588 0.849912 0
M  V30 4390 O 401.565 -1.81676 -0.173204 0
M  V30 4391 C 401.616 -1.47684 3.29957 0
M  V30 4392 O 401.337 -0.554222 4.3458 0
M  V30 4393 C 402.838 -2.27477 3.80485 0
M  V30 4394 H 400.058 -0.203317 0.639455 0
M  V30 4395 H 402.602 0.0207653 2.04489 0
M  V30 4396 H 400.757 -2.17412 3.20641 0
M  V30 4397 H 401.171 -1.08232 5.13212 0
M  V30 4398 H 402.645 -2.7564 4.78254 0
M  V30 4399 H 403.122 -3.09144 3.11972 0
M  V30 4400 H 403.728 -1.62813 3.92902 0
M  V30 4401 N 402.043 -1.548 -0.295768 0
M  V30 4402 C 402.976 -1.81003 -1.38972 0
M  V30 4403 C 403.954 -0.661544 -1.48534 0
M  V30 4404 O 405.138 -0.902074 -1.65514 0
M  V30 4405 C 402.265 -1.95141 -2.76835 0
M  V30 4406 C 401.311 -3.17592 -2.84671 0
M  V30 4407 S 402.144 -4.75531 -2.46232 0
M  V30 4408 C 403.3 -4.92613 -3.86114 0
M  V30 4409 H 403.533 -2.73507 -1.16537 0
M  V30 4410 H 401.066 -1.46278 -0.494168 0
M  V30 4411 H 403.024 -2.03972 -3.56238 0
M  V30 4412 H 401.685 -1.03565 -2.96535 0
M  V30 4413 H 400.878 -3.24303 -3.85803 0
M  V30 4414 H 400.48 -3.07235 -2.13267 0
M  V30 4415 H 402.772 -4.76957 -4.81164 0
M  V30 4416 H 403.715 -5.94698 -3.8437 0
M  V30 4417 H 404.123 -4.2073 -3.76359 0
M  V30 4418 N 403.521 0.559213 -1.47345 0
M  V30 4419 C 404.451 1.67622 -1.62558 0
M  V30 4420 C 405.432 1.63331 -0.475087 0
M  V30 4421 O 406.617 1.80983 -0.704182 0
M  V30 4422 C 403.747 3.0626 -1.63774 0
M  V30 4423 C 402.701 3.25397 -2.7803 0
M  V30 4424 C 402.027 4.64801 -2.64318 0
M  V30 4425 C 403.327 3.10965 -4.19641 0
M  V30 4426 H 405.021 1.55146 -2.56067 0
M  V30 4427 H 402.567 0.744961 -1.23233 0
M  V30 4428 H 404.52 3.84247 -1.73008 0
M  V30 4429 H 403.244 3.1969 -0.66825 0
M  V30 4430 H 401.903 2.49817 -2.68304 0
M  V30 4431 H 401.551 4.75028 -1.65401 0
M  V30 4432 H 401.251 4.78555 -3.40968 0
M  V30 4433 H 402.775 5.44926 -2.75478 0
M  V30 4434 H 404.189 3.78772 -4.30354 0
M  V30 4435 H 402.586 3.36229 -4.97062 0
M  V30 4436 H 403.656 2.07736 -4.38148 0
M  V30 4437 N 404.999 1.35443 0.805782 0
M  V30 4438 C 405.929 1.31095 1.93226 0
M  V30 4439 C 406.91 0.185244 1.69088 0
M  V30 4440 O 408.095 0.380332 1.90439 0
M  V30 4441 C 405.225 1.08299 3.29983 0
M  V30 4442 C 404.179 2.17519 3.68605 0
M  V30 4443 C 403.505 1.79887 5.03532 0
M  V30 4444 C 404.805 3.5949 3.78898 0
M  V30 4445 H 406.499 2.25352 1.97122 0
M  V30 4446 H 404.045 1.0848 0.946996 0
M  V30 4447 H 405.998 1.03897 4.08391 0
M  V30 4448 H 404.722 0.104885 3.26432 0
M  V30 4449 H 403.381 2.2102 2.92482 0
M  V30 4450 H 403.029 0.80693 4.96485 0
M  V30 4451 H 402.729 2.53001 5.30344 0
M  V30 4452 H 404.253 1.77011 5.84379 0
M  V30 4453 H 405.667 3.58307 4.47536 0
M  V30 4454 H 404.064 4.31371 4.1718 0
M  V30 4455 H 405.134 3.95584 2.80431 0
M  V30 4456 N 406.477 -1.02803 1.19454 0
M  V30 4457 C 407.725 -1.75869 0.995722 0
M  V30 4458 C 408.046 -1.89138 -0.474543 0
M  V30 4459 O 407.316 -1.42558 -1.34366 0
M  V30 4460 H 405.896 -0.651511 0.365435 0
M  V30 4461 H 408.558 -1.24004 1.50363 0
M  V30 4462 H 407.654 -2.76661 1.44447 0
M  V30 4463 N 407.956 -0.998596 -1.21925 0
M  V30 4464 C 409.372 -0.710303 -1.42923 0
M  V30 4465 C 409.572 0.716933 -1.88314 0
M  V30 4466 O 408.628 1.48712 -2.04062 0
M  V30 4467 C 409.941 -1.72072 -2.466 0
M  V30 4468 C 411.489 -1.73681 -2.60392 0
M  V30 4469 C 411.964 -2.73601 -3.67296 0
M  V30 4470 N 413.455 -2.7223 -3.7476 0
M  V30 4471 C 414.19 -3.46206 -4.57087 0
M  V30 4472 N 413.686 -4.29802 -5.43362 0
M  V30 4473 N 415.479 -3.34886 -4.51451 0
M  V30 4474 H 407.63 -1.92028 -0.9077 0
M  V30 4475 H 409.893 -0.828487 -0.460775 0
M  V30 4476 H 409.599 -2.74231 -2.20206 0
M  V30 4477 H 409.473 -1.51818 -3.45299 0
M  V30 4478 H 411.86 -0.722173 -2.86127 0
M  V30 4479 H 411.941 -1.98005 -1.61949 0
M  V30 4480 H 411.585 -3.75217 -3.42307 0
M  V30 4481 H 411.515 -2.46545 -4.65321 0
M  V30 4482 H 414.006 -2.11576 -3.1312 0
M  V30 4483 H 414.319 -4.83061 -6.03218 0
M  V30 4484 H 412.664 -4.33887 -5.42925 0
M  V30 4485 H 415.855 -2.69015 -3.83078 0
M  V30 4486 H 416.028 -3.92796 -5.15379 0
M  V30 4487 N 409.434 1.37368 -0.772513 0
M  V30 4488 C 410.845 1.8231 -0.402493 0
M  V30 4489 C 411.196 1.6436 1.07146 0
M  V30 4490 O 410.321 1.15514 1.82991 0
M  V30 4491 C 410.916 3.30979 -0.723776 0
M  V30 4492 C 409.475 3.74195 -0.406802 0
M  V30 4493 C 408.622 2.59885 -0.967218 0
M  V30 4494 H 411.573 1.25829 -0.967099 0
M  V30 4495 H 411.594 3.80499 -0.00870832 0
M  V30 4496 H 411.106 3.44011 -1.7966 0
M  V30 4497 H 409.207 3.66732 0.658673 0
M  V30 4498 H 409.32 4.7027 -0.915588 0
M  V30 4499 H 407.684 2.51674 -0.391416 0
M  V30 4500 H 408.467 2.7571 -2.04546 0
M  V30 4501 N 410.912 0.523116 1.48665 0
M  V30 4502 C 412.323 0.0808997 1.86525 0
M  V30 4503 C 412.674 -1.33975 1.43336 0
M  V30 4504 O 411.799 -2.00221 0.821009 0
M  V30 4505 C 412.394 0.140037 3.3851 0
M  V30 4506 C 410.953 -0.246948 3.75589 0
M  V30 4507 C 410.1 0.502845 2.72703 0
M  V30 4508 H 413.051 0.734736 1.40667 0
M  V30 4509 H 413.072 -0.649945 3.74908 0
M  V30 4510 H 412.584 1.17412 3.69914 0
M  V30 4511 H 410.685 -1.28343 3.49798 0
M  V30 4512 H 410.798 0.0878859 4.79019 0
M  V30 4513 H 409.162 -0.0500581 2.54651 0
M  V30 4514 H 409.945 1.53743 3.0695 0
M  V30 4515 N 412.39 -1.55475 0.257931 0
M  V30 4516 C 413.637 -1.99207 -0.363728 0
M  V30 4517 C 413.965 -1.1462 -1.57139 0
M  V30 4518 O 413.22 -0.199653 -1.94679 0
M  V30 4519 C 413.519 -3.48183 -0.806433 0
M  V30 4520 C 413.185 -4.49936 0.294684 0
M  V30 4521 C 411.847 -4.77481 0.597076 0
M  V30 4522 C 414.199 -5.10769 1.03751 0
M  V30 4523 C 411.527 -5.63132 1.64618 0
M  V30 4524 C 413.879 -5.97558 2.07622 0
M  V30 4525 C 412.543 -6.23432 2.38514 0
M  V30 4526 H 411.813 -0.728949 -0.133097 0
M  V30 4527 H 414.46 -1.8793 0.368059 0
M  V30 4528 H 412.765 -3.56848 -1.61761 0
M  V30 4529 H 414.462 -3.79415 -1.29789 0
M  V30 4530 H 411.052 -4.28572 0.0488649 0
M  V30 4531 H 415.236 -4.89527 0.817149 0
M  V30 4532 H 410.492 -5.8143 1.89074 0
M  V30 4533 H 414.666 -6.43735 2.65666 0
M  V30 4534 H 412.293 -6.89594 3.19943 0
M  V30 4535 N 413.868 0.0150385 -1.57593 0
M  V30 4536 C 414.778 1.02791 -2.10882 0
M  V30 4537 C 415.794 1.38702 -1.0506 0
M  V30 4538 O 416.97 1.47739 -1.36877 0
M  V30 4539 C 414.035 2.30568 -2.58919 0
M  V30 4540 C 413.096 2.01108 -3.79281 0
M  V30 4541 C 412.329 3.22794 -4.25018 0
M  V30 4542 O 412.552 4.33959 -3.70183 0
M  V30 4543 O 411.486 3.07672 -5.17322 0
M  V30 4544 H 415.312 0.604973 -2.97613 0
M  V30 4545 H 412.897 0.23292 -1.47573 0
M  V30 4546 H 414.779 3.05662 -2.90084 0
M  V30 4547 H 413.454 2.72129 -1.75293 0
M  V30 4548 H 412.361 1.23537 -3.53114 0
M  V30 4549 H 413.694 1.64394 -4.63935 0
M  V30 4550 N 415.346 1.54954 0.287554 0
M  V30 4551 C 416.574 1.78881 1.03967 0
M  V30 4552 C 416.989 0.554894 1.80462 0
M  V30 4553 O 416.346 -0.475676 1.76192 0
M  V30 4554 C 416.397 3.00488 2.0097 0
M  V30 4555 O 416.118 4.19113 1.27577 0
M  V30 4556 C 417.619 3.36907 2.88112 0
M  V30 4557 H 414.839 0.596259 0.307761 0
M  V30 4558 H 417.383 2.01937 0.322749 0
M  V30 4559 H 415.538 2.79601 2.68145 0
M  V30 4560 H 415.952 4.87765 1.92835 0
M  V30 4561 H 417.426 4.25205 3.52001 0
M  V30 4562 H 417.903 2.55659 3.57121 0
M  V30 4563 H 418.509 3.60001 2.26449 0
M  V30 4564 N 416.824 -0.551391 1.4764 0
M  V30 4565 C 418.052 -1.33357 1.58189 0
M  V30 4566 C 418.467 -1.87342 0.234199 0
M  V30 4567 O 417.824 -1.65301 -0.77343 0
M  V30 4568 C 417.875 -2.49942 2.61173 0
M  V30 4569 O 417.596 -1.98187 3.90709 0
M  V30 4570 C 419.097 -3.42072 2.8196 0
M  V30 4571 H 416.317 -0.40631 0.533998 0
M  V30 4572 H 418.861 -0.667367 1.93304 0
M  V30 4573 H 417.016 -3.12489 2.28975 0
M  V30 4574 H 417.43 -2.74342 4.47031 0
M  V30 4575 H 418.904 -4.20278 3.57869 0
M  V30 4576 H 419.381 -3.95978 1.89995 0
M  V30 4577 H 419.987 -2.85336 3.15378 0
M  V30 4578 N 418.302 -1.35869 -0.798587 0
M  V30 4579 C 419.25 -1.29491 -1.93222 0
M  V30 4580 C 420.244 -0.18836 -1.6835 0
M  V30 4581 O 421.45 -0.354822 -1.76468 0
M  V30 4582 H 417.825 -0.402901 -0.63496 0
M  V30 4583 H 419.796 -2.25247 -1.9572 0
M  V30 4584 C 418.545 -1.09184 -3.30112 0
M  V30 4585 H 417.868 -1.93574 -3.49813 0
M  V30 4586 H 419.308 -1.08766 -4.09812 0
M  V30 4587 C 417.767 0.203959 -3.36282 0
M  V30 4588 O 418.297 1.19699 -3.83451 0
M  V30 4589 N 416.503 0.245488 -2.89561 0
M  V30 4590 H 416.05 -0.563223 -2.51367 0
M  V30 4591 H 416.008 1.11219 -2.94071 0
M  V30 4592 N 419.78 1.02168 -1.19998 0
M  V30 4593 C 420.71 2.12488 -0.96804 0
M  V30 4594 C 421.691 1.69799 0.101185 0
M  V30 4595 O 422.876 1.94121 -0.0552993 0
M  V30 4596 C 420.006 3.43479 -0.513776 0
M  V30 4597 C 418.96 3.99884 -1.52566 0
M  V30 4598 C 418.286 5.26582 -0.928214 0
M  V30 4599 C 419.586 4.33861 -2.90795 0
M  V30 4600 H 421.28 2.32149 -1.89069 0
M  V30 4601 H 418.826 1.11564 -0.910468 0
M  V30 4602 H 420.779 4.20036 -0.338774 0
M  V30 4603 H 419.503 3.23561 0.444493 0
M  V30 4604 H 418.162 3.25429 -1.68794 0
M  V30 4605 H 417.81 5.02986 0.0378289 0
M  V30 4606 H 417.51 5.65284 -1.60397 0
M  V30 4607 H 419.034 6.05799 -0.764167 0
M  V30 4608 H 420.448 5.01327 -2.78109 0
M  V30 4609 H 418.845 4.83664 -3.55231 0
M  V30 4610 H 419.915 3.42848 -3.42904 0
M  V30 4611 N 421.258 1.00505 1.21394 0
M  V30 4612 C 422.205 0.565496 2.23765 0
M  V30 4613 C 423.175 -0.408466 1.60999 0
M  V30 4614 O 424.36 -0.310503 1.88257 0
M  V30 4615 C 421.5 -0.101667 3.4495 0
M  V30 4616 C 420.613 0.915479 4.22188 0
M  V30 4617 C 419.748 0.220574 5.30742 0
M  V30 4618 C 418.787 1.22527 5.99711 0
M  V30 4619 N 417.924 0.557831 6.9988 0
M  V30 4620 H 422.764 1.44314 2.60725 0
M  V30 4621 H 420.301 0.722643 1.28126 0
M  V30 4622 H 422.259 -0.505504 4.14126 0
M  V30 4623 H 420.889 -0.94303 3.08718 0
M  V30 4624 H 419.941 1.43756 3.52191 0
M  V30 4625 H 421.253 1.68005 4.69655 0
M  V30 4626 H 420.407 -0.239368 6.06228 0
M  V30 4627 H 419.146 -0.576401 4.84282 0
M  V30 4628 H 418.151 1.69571 5.22997 0
M  V30 4629 H 419.376 2.02332 6.48258 0
M  V30 4630 H 417.322 -0.219486 6.55633 0
M  V30 4631 H 417.239 1.26065 7.45415 0
M  V30 4632 H 418.507 0.121095 7.79406 0
M  V30 4633 N 422.737 -1.36956 0.779787 0
M  V30 4634 C 423.647 -2.33965 0.172491 0
M  V30 4635 C 424.663 -1.60574 -0.670222 0
M  V30 4636 O 425.839 -1.92617 -0.588263 0
M  V30 4637 C 422.904 -3.39761 -0.690173 0
M  V30 4638 C 421.965 -4.28964 0.169924 0
M  V30 4639 C 421.198 -5.29707 -0.651662 0
M  V30 4640 O 421.421 -5.38238 -1.88827 0
M  V30 4641 O 420.355 -6.01873 -0.0566264 0
M  V30 4642 H 424.181 -2.87647 0.974321 0
M  V30 4643 H 421.766 -1.39258 0.541078 0
M  V30 4644 H 423.648 -4.04471 -1.1824 0
M  V30 4645 H 422.323 -2.88394 -1.47006 0
M  V30 4646 H 421.23 -3.67326 0.708696 0
M  V30 4647 H 422.563 -4.83656 0.913085 0
M  V30 4648 N 424.215 -0.530993 -1.48385 0
M  V30 4649 C 425.443 -0.00134122 -2.069 0
M  V30 4650 C 425.858 1.2805 -1.3874 0
M  V30 4651 O 425.215 1.76204 -0.475244 0
M  V30 4652 C 425.266 0.225256 -3.60798 0
M  V30 4653 O 424.987 -1.0058 -4.26398 0
M  V30 4654 C 426.488 0.795172 -4.3611 0
M  V30 4655 H 423.708 -0.0339704 -0.67014 0
M  V30 4656 H 426.252 -0.736926 -1.90761 0
M  V30 4657 H 424.407 0.910891 -3.76539 0
M  V30 4658 H 424.821 -0.787165 -5.1856 0
M  V30 4659 H 426.295 0.903143 -5.44562 0
M  V30 4660 H 426.772 1.80031 -4.00606 0
M  V30 4661 H 427.378 0.146069 -4.25049 0
M  V30 4662 N 425.693 1.55336 -0.266172 0
M  V30 4663 C 426.923 2.03506 0.356239 0
M  V30 4664 C 427.331 1.14426 1.50676 0
M  V30 4665 O 426.674 0.155043 1.83045 0
M  V30 4666 C 426.736 3.47848 0.90785 0
M  V30 4667 C 426.4 4.56861 -0.112888 0
M  V30 4668 C 427.397 5.11528 -0.929264 0
M  V30 4669 C 425.082 5.01704 -0.244546 0
M  V30 4670 C 427.076 6.09549 -1.86357 0
M  V30 4671 C 424.763 5.99553 -1.18234 0
M  V30 4672 C 425.761 6.53356 -1.99036 0
M  V30 4673 O 425.449 7.49293 -2.91231 0
M  V30 4674 H 425.181 0.670444 0.08649 0
M  V30 4675 H 427.735 2.01598 -0.39337 0
M  V30 4676 H 425.965 3.46967 1.70737 0
M  V30 4677 H 427.654 3.79407 1.44239 0
M  V30 4678 H 428.42 4.77701 -0.838237 0
M  V30 4679 H 424.299 4.59477 0.374359 0
M  V30 4680 H 427.843 6.51469 -2.49467 0
M  V30 4681 H 423.74 6.32799 -1.27421 0
M  V30 4682 H 424.508 7.66978 -2.8581 0
M  V30 4683 N 427.171 -0.0066808 1.57599 0
M  V30 4684 C 428.587 -0.36267 1.55425 0
M  V30 4685 C 428.787 -1.75209 0.995187 0
M  V30 4686 O 427.843 -2.44616 0.626058 0
M  V30 4687 C 429.156 -0.244017 2.99708 0
M  V30 4688 C 430.704 -0.319451 3.11366 0
M  V30 4689 C 431.179 -0.229998 4.57422 0
M  V30 4690 N 432.67 -0.288105 4.62303 0
M  V30 4691 C 433.405 -0.242127 5.72889 0
M  V30 4692 N 432.901 -0.147133 6.92644 0
M  V30 4693 N 434.694 -0.293502 5.61333 0
M  V30 4694 H 426.845 0.902314 1.92281 0
M  V30 4695 H 429.108 0.34525 0.882896 0
M  V30 4696 H 428.814 0.711678 3.44424 0
M  V30 4697 H 428.688 -1.02877 3.629 0
M  V30 4698 H 431.075 -1.26559 2.66584 0
M  V30 4699 H 431.156 0.495055 2.50964 0
M  V30 4700 H 430.8 0.712566 5.02877 0
M  V30 4701 H 430.73 -1.0629 5.15761 0
M  V30 4702 H 433.221 -0.363126 3.76151 0
M  V30 4703 H 433.534 -0.117763 7.7271 0
M  V30 4704 H 431.879 -0.112857 6.94908 0
M  V30 4705 H 435.07 -0.365864 4.66668 0
M  V30 4706 H 435.243 -0.254204 6.47501 0
M  V30 4707 N 428.649 -1.55105 -0.279332 0
M  V30 4708 C 429.889 -1.7716 -1.01949 0
M  V30 4709 C 430.253 -0.557511 -1.83728 0
M  V30 4710 O 431.454 -0.656198 -2.60667 0
M  V30 4711 C 429.725 -3.0372 -1.88385 0
M  V30 4712 S 431.284 -3.46868 -2.68752 0
M  V30 4713 H 428.102 -0.62253 -0.343478 0
M  V30 4714 H 430.704 -1.93329 -0.290572 0
M  V30 4715 H 429.408 -3.90184 -1.2722 0
M  V30 4716 H 428.939 -2.902 -2.65608 0
M  V30 4717 H 430.954 -3.05643 -3.90892 0
M  V30 4718 N 430.127 0.543554 -1.4793 0
M  V30 4719 C 431.376 1.29649 -1.54512 0
M  V30 4720 C 431.689 1.94382 -0.217973 0
M  V30 4721 O 432.895 2.71017 -0.161908 0
M  V30 4722 C 431.351 2.35175 -2.72435 0
M  V30 4723 C 430.959 1.76572 -4.11736 0
M  V30 4724 C 432.703 3.11564 -2.8832 0
M  V30 4725 C 430.61 2.79958 -5.20939 0
M  V30 4726 H 429.54 0.487541 -0.57517 0
M  V30 4727 H 432.191 0.575708 -1.74235 0
M  V30 4728 H 430.573 3.10229 -2.46118 0
M  V30 4729 H 431.747 1.07799 -4.48013 0
M  V30 4730 H 430.062 1.12722 -4.00852 0
M  V30 4731 H 432.659 3.88794 -3.67074 0
M  V30 4732 H 433.002 3.66594 -1.97268 0
M  V30 4733 H 433.535 2.43623 -3.14472 0
M  V30 4734 H 430.274 2.29766 -6.13912 0
M  V30 4735 H 429.794 3.47101 -4.89164 0
M  V30 4736 H 431.473 3.43198 -5.48474 0
M  V30 4737 N 431.605 1.3629 0.791371 0
M  V30 4738 C 433.021 1.16661 1.08914 0
M  V30 4739 C 433.221 -0.0106266 2.01497 0
M  V30 4740 O 432.277 -0.676596 2.43266 0
M  V30 4741 C 433.59 2.47656 1.70549 0
M  V30 4742 C 435.138 2.54002 1.82899 0
M  V30 4743 C 435.613 3.85078 2.47949 0
M  V30 4744 N 437.104 3.86413 2.5542 0
M  V30 4745 C 437.839 4.84572 3.06557 0
M  V30 4746 N 437.335 5.93124 3.58016 0
M  V30 4747 N 439.128 4.71994 3.05251 0
M  V30 4748 H 431.279 2.11668 0.176238 0
M  V30 4749 H 433.542 0.937486 0.140796 0
M  V30 4750 H 433.248 3.34059 1.09989 0
M  V30 4751 H 433.122 2.63319 2.70079 0
M  V30 4752 H 435.509 1.68018 2.42598 0
M  V30 4753 H 435.59 2.42239 0.821808 0
M  V30 4754 H 435.234 4.71467 1.88895 0
M  V30 4755 H 435.164 3.94135 3.49235 0
M  V30 4756 H 437.655 3.07988 2.18979 0
M  V30 4757 H 437.968 6.63999 3.95381 0
M  V30 4758 H 436.313 5.96796 3.56173 0
M  V30 4759 H 439.504 3.86321 2.64336 0
M  V30 4760 H 439.677 5.48653 3.44796 0
M  V30 4761 N 433.083 -1.0153 1.20538 0
M  V30 4762 C 433.993 -2.13557 0.971113 0
M  V30 4763 C 435.009 -1.73845 -0.0734366 0
M  V30 4764 O 436.185 -2.01075 0.114299 0
M  V30 4765 C 433.25 -3.42661 0.527639 0
M  V30 4766 C 432.311 -3.96608 1.64319 0
M  V30 4767 C 431.544 -5.1955 1.22078 0
M  V30 4768 O 431.767 -5.70329 0.0900198 0
M  V30 4769 O 430.701 -5.66681 2.02871 0
M  V30 4770 H 434.527 -2.3619 1.90913 0
M  V30 4771 H 432.112 -1.11946 0.989362 0
M  V30 4772 H 433.994 -4.20404 0.289621 0
M  V30 4773 H 432.669 -3.21441 -0.381779 0
M  V30 4774 H 431.576 -3.20139 1.93551 0
M  V30 4775 H 432.909 -4.22219 2.52966 0
M  V30 4776 N 434.561 -1.01147 -1.20859 0
M  V30 4777 C 435.524 -0.582224 -2.21682 0
M  V30 4778 C 436.524 0.344887 -1.57058 0
M  V30 4779 O 437.714 0.134281 -1.73682 0
M  V30 4780 C 434.846 0.150496 -3.40568 0
M  V30 4781 H 436.039 -1.47408 -2.61172 0
M  V30 4782 H 433.592 -0.800695 -1.34233 0
M  V30 4783 H 434.327 1.0575 -3.06574 0
M  V30 4784 H 434.112 -0.515444 -3.88697 0
M  V30 4785 H 435.602 0.438344 -4.15293 0
M  V30 4786 N 436.039 1.36541 -0.78704 0
M  V30 4787 C 437.455 1.52571 -0.46844 0
M  V30 4788 C 437.655 1.7415 1.01361 0
M  V30 4789 O 436.711 1.77163 1.79915 0
M  V30 4790 C 438.024 2.71299 -1.29682 0
M  V30 4791 C 439.572 2.85169 -1.29027 0
M  V30 4792 C 440.047 4.06898 -2.10233 0
M  V30 4793 N 441.538 4.1404 -2.07666 0
M  V30 4794 C 442.273 5.07301 -2.67271 0
M  V30 4795 N 441.769 6.06021 -3.35724 0
M  V30 4796 N 443.562 4.99898 -2.57018 0
M  V30 4797 H 435.713 1.20788 -1.74711 0
M  V30 4798 H 437.976 0.589364 -0.742532 0
M  V30 4799 H 437.682 2.61868 -2.34773 0
M  V30 4800 H 437.556 3.6539 -0.936479 0
M  V30 4801 H 439.943 2.94062 -0.247284 0
M  V30 4802 H 440.024 1.91992 -1.69035 0
M  V30 4803 H 439.668 3.98766 -3.1456 0
M  V30 4804 H 439.598 4.99218 -1.67597 0
M  V30 4805 H 442.089 3.43357 -1.57843 0
M  V30 4806 H 442.402 6.73741 -3.78541 0
M  V30 4807 H 440.747 6.06253 -3.39826 0
M  V30 4808 H 443.938 4.21724 -2.03142 0
M  V30 4809 H 444.111 5.72392 -3.03761 0
M  V30 4810 N 437.518 0.538854 1.48102 0
M  V30 4811 C 438.748 0.0122958 2.06596 0
M  V30 4812 C 439.156 -1.27861 1.39457 0
M  V30 4813 O 438.499 -1.77348 0.478907 0
M  V30 4814 C 438.561 -0.273131 3.58461 0
M  V30 4815 C 438.225 0.92561 4.47528 0
M  V30 4816 C 439.222 1.82637 4.86765 0
M  V30 4817 C 436.907 1.13511 4.89306 0
M  V30 4818 C 438.901 2.92047 5.66558 0
M  V30 4819 C 436.588 2.23233 5.68868 0
M  V30 4820 C 437.586 3.12333 6.07402 0
M  V30 4821 O 437.274 4.20155 6.85365 0
M  V30 4822 H 437.006 0.0344283 0.675123 0
M  V30 4823 H 439.56 0.746494 1.91355 0
M  V30 4824 H 437.79 -1.06141 3.71848 0
M  V30 4825 H 439.479 -0.742842 3.99045 0
M  V30 4826 H 440.245 1.67649 4.55103 0
M  V30 4827 H 436.124 0.450835 4.5879 0
M  V30 4828 H 439.668 3.6162 5.96554 0
M  V30 4829 H 435.565 2.38201 5.99942 0
M  V30 4830 H 436.333 4.17975 7.03732 0
M  V30 4831 N 438.996 -1.55193 0.274407 0
M  V30 4832 C 440.224 -2.03987 -0.345943 0
M  V30 4833 C 440.639 -1.15279 -1.4952 0
M  V30 4834 O 439.996 -0.172759 -1.8168 0
M  V30 4835 C 440.047 -3.51898 -0.827631 0
M  V30 4836 O 439.768 -4.37231 0.275855 0
M  V30 4837 C 441.269 -4.16577 -1.51587 0
M  V30 4838 H 438.489 -0.666335 -0.0789892 0
M  V30 4839 H 441.033 -2.00423 0.406294 0
M  V30 4840 H 439.188 -3.55909 -1.52996 0
M  V30 4841 H 439.602 -5.24415 -0.0943638 0
M  V30 4842 H 441.076 -5.21678 -1.80433 0
M  V30 4843 H 441.553 -3.64707 -2.44716 0
M  V30 4844 H 442.159 -4.16568 -0.857409 0
M  V30 4845 N 440.474 -0.00167713 -1.576 0
M  V30 4846 C 441.407 1.02317 -2.03977 0
M  V30 4847 C 442.385 1.33381 -0.929963 0
M  V30 4848 O 443.569 1.45517 -1.19822 0
M  V30 4849 C 440.696 2.35035 -2.43878 0
M  V30 4850 C 439.742 2.19621 -3.65607 0
M  V30 4851 S 440.575 1.52068 -5.13455 0
M  V30 4852 C 441.731 2.86212 -5.56627 0
M  V30 4853 H 441.964 0.628285 -2.90585 0
M  V30 4854 H 439.497 0.209239 -1.52976 0
M  V30 4855 H 441.455 3.11345 -2.67534 0
M  V30 4856 H 440.116 2.71663 -1.57665 0
M  V30 4857 H 439.309 3.1767 -3.91282 0
M  V30 4858 H 438.911 1.51455 -3.41961 0
M  V30 4859 H 441.203 3.82509 -5.59189 0
M  V30 4860 H 442.146 2.65235 -6.56549 0
M  V30 4861 H 442.554 2.90199 -4.84195 0
M  V30 4862 N 441.952 1.55251 0.271103 0
M  V30 4863 C 443.363 1.66635 0.842007 0
M  V30 4864 C 443.714 0.594631 1.86972 0
M  V30 4865 O 442.839 -0.263532 2.14789 0
M  V30 4866 C 443.434 3.02082 1.53401 0
M  V30 4867 C 441.993 3.15487 2.05293 0
M  V30 4868 C 441.14 2.62438 0.895631 0
M  V30 4869 H 444.091 1.58629 0.0474117 0
M  V30 4870 H 444.112 2.95176 2.40107 0
M  V30 4871 H 443.624 3.80062 0.785786 0
M  V30 4872 H 441.725 2.42284 2.83071 0
M  V30 4873 H 441.838 4.22075 2.26693 0
M  V30 4874 H 440.202 2.19644 1.28953 0
M  V30 4875 H 440.985 3.42923 0.160878 0
M  V30 4876 N 443.43 -0.535701 1.48216 0
M  V30 4877 C 444.655 -1.32149 1.59848 0
M  V30 4878 C 445.08 -1.86338 0.256842 0
M  V30 4879 O 444.438 -1.64107 -0.770632 0
M  V30 4880 C 444.486 -2.45224 2.64381 0
M  V30 4881 O 443.59 -3.48093 2.21144 0
M  V30 4882 H 442.931 -0.391634 0.536208 0
M  V30 4883 H 445.461 -0.645202 1.94161 0
M  V30 4884 H 445.471 -2.91491 2.85476 0
M  V30 4885 H 444.146 -2.05143 3.61786 0
M  V30 4886 H 442.723 -3.07984 2.10239 0
M  V30 4887 N 444.908 -1.36708 -0.784132 0
M  V30 4888 C 446.133 -1.34565 -1.5782 0
M  V30 4889 C 446.558 0.0695257 -1.87971 0
M  V30 4890 O 445.916 1.04302 -1.48293 0
M  V30 4891 C 445.964 -2.17952 -2.87279 0
M  V30 4892 O 445.068 -1.57563 -3.81114 0
M  V30 4893 H 444.409 -0.460337 -0.478524 0
M  V30 4894 H 446.939 -1.80064 -0.971495 0
M  V30 4895 H 446.949 -2.30721 -3.365 0
M  V30 4896 H 445.624 -3.20823 -2.64661 0
M  V30 4897 H 444.201 -1.53764 -3.39722 0
M  V30 4898 N 446.386 1.0089 -1.21074 0
M  V30 4899 C 447.316 2.1145 -0.990523 0
M  V30 4900 C 448.297 1.69897 0.0831699 0
M  V30 4901 O 449.482 1.94052 -0.0758853 0
M  V30 4902 C 446.612 3.42914 -0.550177 0
M  V30 4903 C 445.566 3.98244 -1.56799 0
M  V30 4904 C 444.892 5.25568 -0.984013 0
M  V30 4905 C 446.192 4.30752 -2.95381 0
M  V30 4906 H 447.886 2.3013 -1.91521 0
M  V30 4907 H 445.432 1.10592 -0.92225 0
M  V30 4908 H 447.385 4.19653 -0.383305 0
M  V30 4909 H 446.109 3.24014 0.41015 0
M  V30 4910 H 444.768 3.23621 -1.72236 0
M  V30 4911 H 444.416 5.02998 -0.0155216 0
M  V30 4912 H 444.116 5.63551 -1.66384 0
M  V30 4913 H 445.64 6.04955 -0.828378 0
M  V30 4914 H 447.054 4.98349 -2.8341 0
M  V30 4915 H 445.451 4.79869 -3.60341 0
M  V30 4916 H 446.521 3.39192 -3.46521 0
M  V30 4917 N 447.864 1.01787 1.20321 0
M  V30 4918 C 448.794 0.609625 2.25401 0
M  V30 4919 C 449.775 -0.375951 1.65893 0
M  V30 4920 O 450.96 -0.261101 1.92437 0
M  V30 4921 C 448.09 -0.0515995 3.47262 0
M  V30 4922 C 447.044 0.855095 4.19371 0
M  V30 4923 C 446.37 0.0595757 5.34667 0
M  V30 4924 C 447.67 2.16374 4.75373 0
M  V30 4925 H 449.364 1.48803 2.59804 0
M  V30 4926 H 446.91 0.716934 1.24884 0
M  V30 4927 H 448.863 -0.348764 4.19954 0
M  V30 4928 H 447.587 -0.964726 3.12027 0
M  V30 4929 H 446.246 1.13628 3.48546 0
M  V30 4930 H 445.894 -0.85524 4.95676 0
M  V30 4931 H 445.594 0.663406 5.83843 0
M  V30 4932 H 447.118 -0.231105 6.10162 0
M  V30 4933 H 448.532 1.92885 5.39878 0
M  V30 4934 H 446.929 2.71853 5.34991 0
M  V30 4935 H 447.999 2.82589 3.94045 0
M  V30 4936 N 449.342 -1.36122 0.79427 0
M  V30 4937 C 450.305 -2.28309 0.201889 0
M  V30 4938 C 451.305 -1.49041 -0.603603 0
M  V30 4939 O 452.495 -1.68964 -0.423888 0
M  V30 4940 C 449.627 -3.3321 -0.719978 0
M  V30 4941 H 450.82 -2.82208 1.01481 0
M  V30 4942 H 448.373 -1.45768 0.564037 0
M  V30 4943 H 449.108 -2.84475 -1.55706 0
M  V30 4944 H 448.893 -3.91835 -0.144266 0
M  V30 4945 H 450.383 -4.02044 -1.12916 0
M  V30 4946 N 450.82 -0.546701 -1.47814 0
M  V30 4947 C 452.231 -0.110564 -1.86372 0
M  V30 4948 C 452.582 1.31678 -1.45449 0
M  V30 4949 O 451.707 1.98889 -0.852758 0
M  V30 4950 C 452.302 -0.193873 -3.38245 0
M  V30 4951 C 450.861 0.187164 -3.75934 0
M  V30 4952 C 450.008 -0.546166 -2.71868 0
M  V30 4953 H 452.959 -0.757022 -1.39481 0
M  V30 4954 H 452.98 0.590218 -3.75895 0
M  V30 4955 H 452.492 -1.23282 -3.67999 0
M  V30 4956 H 450.593 1.22762 -3.51796 0
M  V30 4957 H 450.706 -0.164083 -4.78819 0
M  V30 4958 H 449.07 0.00953904 -2.54698 0
M  V30 4959 H 449.853 -1.58606 -3.04465 0
M  V30 4960 N 452.299 1.55045 -0.282633 0
M  V30 4961 C 453.262 2.21515 0.588539 0
M  V30 4962 C 454.262 1.19535 1.07554 0
M  V30 4963 O 455.452 1.44391 0.974514 0
M  V30 4964 C 452.584 2.88704 1.8128 0
M  V30 4965 H 453.777 2.99899 0.00806397 0
M  V30 4966 H 451.33 1.56265 -0.0333067 0
M  V30 4967 H 452.065 2.14352 2.43359 0
M  V30 4968 H 451.85 3.63443 1.47144 0
M  V30 4969 H 453.34 3.39465 2.43214 0
M  V30 4970 N 453.777 0.010035 1.57597 0
M  V30 4971 C 454.724 -0.978122 2.09049 0
M  V30 4972 C 455.694 -1.33509 0.988159 0
M  V30 4973 O 456.879 -1.43172 1.26121 0
M  V30 4974 C 454.019 -2.26158 2.60666 0
M  V30 4975 C 453.132 -1.96275 3.84838 0
M  V30 4976 C 452.267 -3.18776 4.24918 0
M  V30 4977 C 451.306 -2.84625 5.41899 0
M  V30 4978 N 450.443 -3.99693 5.77226 0
M  V30 4979 H 455.283 -0.532431 2.93205 0
M  V30 4980 H 452.82 -0.251234 1.44939 0
M  V30 4981 H 454.778 -3.01202 2.88675 0
M  V30 4982 H 453.408 -2.68378 1.79369 0
M  V30 4983 H 452.46 -1.11555 3.63675 0
M  V30 4984 H 453.772 -1.67111 4.69974 0
M  V30 4985 H 452.926 -4.02157 4.54262 0
M  V30 4986 H 451.665 -3.51087 3.38511 0
M  V30 4987 H 450.67 -1.99653 5.12268 0
M  V30 4988 H 451.895 -2.53551 6.29991 0
M  V30 4989 H 449.841 -4.31882 4.93776 0
M  V30 4990 H 449.758 -3.74087 6.56959 0
M  V30 4991 H 451.026 -4.83834 6.11167 0
M  V30 4992 N 455.255 -1.55392 -0.262866 0
M  V30 4993 C 456.205 -1.85355 -1.32768 0
M  V30 4994 C 457.189 -0.713188 -1.44231 0
M  V30 4995 O 458.381 -0.974765 -1.47741 0
M  V30 4996 C 455.51 -2.13781 -2.68612 0
M  V30 4997 C 454.596 -3.34104 -2.61219 0
M  V30 4998 N 454.987 -4.53766 -2.2345 0
M  V30 4999 C 453.285 -3.36895 -2.92263 0
M  V30 5000 C 453.986 -5.35877 -2.26298 0
M  V30 5001 N 452.962 -4.74536 -2.65172 0
M  V30 5002 H 456.764 -2.75413 -1.02591 0
M  V30 5003 H 454.278 -1.55405 -0.471503 0
M  V30 5004 H 456.275 -2.33407 -3.45437 0
M  V30 5005 H 454.935 -1.25013 -2.99669 0
M  V30 5006 H 455.946 -4.79682 -1.95258 0
M  V30 5007 H 452.623 -2.58351 -3.27965 0
M  V30 5008 H 454.013 -6.41577 -1.99572 0
M  V30 5009 N 456.733 0.527833 -1.48498 0
M  V30 5010 C 457.663 1.64136 -1.66077 0
M  V30 5011 C 458.644 1.62286 -0.509625 0
M  V30 5012 O 459.829 1.79449 -0.742413 0
M  V30 5013 C 456.959 3.02717 -1.70234 0
M  V30 5014 C 455.913 3.19426 -2.8487 0
M  V30 5015 C 455.239 4.5909 -2.74118 0
M  V30 5016 C 456.539 3.01993 -4.26142 0
M  V30 5017 H 458.233 1.4968 -2.593 0
M  V30 5018 H 455.779 0.718654 -1.24785 0
M  V30 5019 H 457.732 3.80491 -1.8112 0
M  V30 5020 H 456.456 3.18201 -0.735911 0
M  V30 5021 H 455.115 2.4407 -2.73542 0
M  V30 5022 H 454.763 4.71413 -1.7544 0
M  V30 5023 H 454.463 4.71214 -3.51042 0
M  V30 5024 H 455.987 5.3896 -2.86974 0
M  V30 5025 H 457.401 3.69558 -4.38292 0
M  V30 5026 H 455.798 3.2561 -5.04082 0
M  V30 5027 H 456.868 1.98396 -4.42456 0
M  V30 5028 N 458.211 1.37122 0.776871 0
M  V30 5029 C 459.46 1.31373 1.53049 0
M  V30 5030 C 459.773 -0.101016 1.95339 0
M  V30 5031 O 460.979 -0.280953 2.70042 0
M  V30 5032 C 459.435 2.30567 2.76346 0
M  V30 5033 C 459.043 3.77543 2.41175 0
M  V30 5034 C 460.787 2.33818 3.54301 0
M  V30 5035 C 458.694 4.68481 3.60943 0
M  V30 5036 H 457.624 0.488234 0.574581 0
M  V30 5037 H 460.275 1.62554 0.851372 0
M  V30 5038 H 458.657 1.92396 3.46121 0
M  V30 5039 H 459.831 4.24521 1.79216 0
M  V30 5040 H 458.146 3.77187 1.76405 0
M  V30 5041 H 460.743 2.98965 4.4331 0
M  V30 5042 H 461.086 1.3503 3.93793 0
M  V30 5043 H 461.619 2.7067 2.91518 0
M  V30 5044 H 458.358 5.68378 3.26537 0
M  V30 5045 H 457.878 4.2621 4.22025 0
M  V30 5046 H 459.557 4.85366 4.27819 0
M  V30 5047 N 459.689 -1.00246 1.21608 0
M  V30 5048 C 460.652 -2.07233 0.979133 0
M  V30 5049 C 461.652 -1.6072 -0.0508219 0
M  V30 5050 O 462.842 -1.73196 0.186712 0
M  V30 5051 C 459.974 -3.37546 0.477016 0
M  V30 5052 H 461.167 -2.29687 1.92831 0
M  V30 5053 H 458.72 -1.17261 1.03342 0
M  V30 5054 H 459.455 -3.20773 -0.476966 0
M  V30 5055 H 459.24 -3.72638 1.21997 0
M  V30 5056 H 460.73 -4.16285 0.331181 0
M  V30 5057 N 461.167 -1.02423 -1.1978 0
M  V30 5058 C 462.392 -0.7373 -1.93852 0
M  V30 5059 C 462.817 0.696923 -1.74713 0
M  V30 5060 O 462.175 1.48056 -1.04638 0
M  V30 5061 C 462.223 -1.08783 -3.438 0
M  V30 5062 O 461.327 -0.20383 -4.11896 0
M  V30 5063 H 460.668 -0.27284 -0.605355 0
M  V30 5064 H 463.198 -1.36966 -1.51992 0
M  V30 5065 H 463.208 -1.04276 -3.9445 0
M  V30 5066 H 461.883 -2.13274 -3.57053 0
M  V30 5067 H 460.46 -0.307091 -3.71633 0
M  V30 5068 N 462.645 1.35699 -0.801477 0
M  V30 5069 C 463.578 2.2768 -0.153922 0
M  V30 5070 C 464.556 1.47832 0.67709 0
M  V30 5071 O 465.74 1.77104 0.645474 0
M  V30 5072 C 462.867 3.2943 0.786986 0
M  V30 5073 C 461.913 4.26485 0.0362447 0
M  V30 5074 S 462.746 5.19573 -1.2963 0
M  V30 5075 C 463.902 6.24866 -0.359705 0
M  V30 5076 H 464.135 2.82254 -0.9338 0
M  V30 5077 H 461.668 1.42421 -0.596283 0
M  V30 5078 H 463.626 3.8855 1.32436 0
M  V30 5079 H 462.287 2.73745 1.54021 0
M  V30 5080 H 461.48 4.98378 0.750668 0
M  V30 5081 H 461.082 3.71508 -0.431017 0
M  V30 5082 H 463.374 6.75957 0.456954 0
M  V30 5083 H 464.317 7.00307 -1.04768 0
M  V30 5084 H 464.725 5.64484 0.0423274 0
M  V30 5085 N 464.123 0.554532 1.47522 0
M  V30 5086 C 465.053 -0.182974 2.32782 0
M  V30 5087 C 466.034 -0.911377 1.43624 0
M  V30 5088 O 467.219 -0.892366 1.72483 0
M  V30 5089 C 464.349 -1.21513 3.25349 0
M  V30 5090 C 463.303 -0.603355 4.23726 0
M  V30 5091 C 462.629 -1.73995 5.05598 0
M  V30 5092 C 463.929 0.441121 5.20434 0
M  V30 5093 H 465.623 0.52882 2.94693 0
M  V30 5094 H 463.169 0.255759 1.41711 0
M  V30 5095 H 465.122 -1.73922 3.83835 0
M  V30 5096 H 463.846 -1.95683 2.61487 0
M  V30 5097 H 462.505 -0.10059 3.66462 0
M  V30 5098 H 462.153 -2.47063 4.38143 0
M  V30 5099 H 461.853 -1.3364 5.72201 0
M  V30 5100 H 463.377 -2.26735 5.66942 0
M  V30 5101 H 464.791 0.00319931 5.733 0
M  V30 5102 H 463.188 0.763402 5.95224 0
M  V30 5103 H 464.258 1.33799 4.66075 0
M  V30 5104 N 465.601 -1.54893 0.290851 0
M  V30 5105 C 466.826 -2.04804 -0.32712 0
M  V30 5106 C 467.251 -1.16721 -1.47506 0
M  V30 5107 O 466.609 -0.169107 -1.8051 0
M  V30 5108 C 466.657 -3.52268 -0.770689 0
M  V30 5109 O 465.761 -3.67236 -1.87647 0
M  V30 5110 H 465.102 -0.660789 -0.0652227 0
M  V30 5111 H 467.632 -2.00036 0.429739 0
M  V30 5112 H 467.642 -3.9393 -1.06223 0
M  V30 5113 H 466.317 -4.15843 0.069096 0
M  V30 5114 H 464.894 -3.37479 -1.58626 0
M  V30 5115 N 467.08 -0.0183926 -1.57589 0
M  V30 5116 C 468.027 0.967022 -2.09565 0
M  V30 5117 C 468.997 1.32983 -0.995225 0
M  V30 5118 O 470.182 1.42501 -1.26878 0
M  V30 5119 C 467.322 2.24772 -2.61861 0
M  V30 5120 C 466.435 1.94232 -3.85873 0
M  V30 5121 C 465.57 3.16518 -4.26603 0
M  V30 5122 C 464.609 2.81748 -5.43401 0
M  V30 5123 N 463.746 3.96626 -5.79338 0
M  V30 5124 H 468.586 0.516874 -2.93483 0
M  V30 5125 H 466.123 0.243544 -1.4507 0
M  V30 5126 H 468.081 2.99667 -2.90268 0
M  V30 5127 H 466.711 2.67423 -1.8079 0
M  V30 5128 H 465.763 1.09625 -3.64262 0
M  V30 5129 H 467.075 1.64616 -4.70853 0
M  V30 5130 H 466.229 3.99743 -4.56389 0
M  V30 5131 H 464.968 3.49286 -3.40368 0
M  V30 5132 H 463.973 1.96933 -5.1332 0
M  V30 5133 H 465.198 2.50207 -6.31327 0
M  V30 5134 H 463.144 4.29257 -4.96059 0
M  V30 5135 H 463.061 3.70598 -6.58933 0
M  V30 5136 H 464.329 4.80586 -6.13724 0
M  V30 5137 N 468.558 1.5553 0.254621 0
M  V30 5138 C 469.506 1.9048 1.33492 0
M  V30 5139 C 470.5 0.78304 1.50216 0
M  V30 5140 O 471.706 0.967582 1.51782 0
M  V30 5141 H 468.081 0.604846 0.44684 0
M  V30 5142 H 470.052 2.80688 1.01275 0
M  V30 5143 C 468.801 2.20928 2.68489 0
M  V30 5144 H 468.124 3.06742 2.56417 0
M  V30 5145 H 469.564 2.49291 3.42972 0
M  V30 5146 C 468.023 1.023 3.20993 0
M  V30 5147 O 468.553 0.267027 4.00811 0
M  V30 5148 N 466.759 0.815714 2.78917 0
M  V30 5149 H 466.306 1.43217 2.14119 0
M  V30 5150 H 466.264 0.0236532 3.14391 0
M  V30 5151 N 470.036 -0.519951 1.48776 0
M  V30 5152 C 471.447 -1.10177 1.50725 0
M  V30 5153 C 471.798 -1.94153 0.282678 0
M  V30 5154 O 470.923 -2.07645 -0.609298 0
M  V30 5155 C 471.518 -2.00482 2.73116 0
M  V30 5156 C 470.077 -2.53862 2.77905 0
M  V30 5157 C 469.224 -1.31047 2.44381 0
M  V30 5158 H 472.175 -0.30473 1.55747 0
M  V30 5159 H 472.196 -2.8491 2.52203 0
M  V30 5160 H 471.708 -1.39335 3.62225 0
M  V30 5161 H 469.809 -3.18702 1.93029 0
M  V30 5162 H 469.922 -2.9231 3.79594 0
M  V30 5163 H 468.286 -1.62953 1.95751 0
M  V30 5164 H 469.069 -0.71637 3.35743 0
M  V30 5165 N 471.514 -1.37532 -0.769588 0
M  V30 5166 C 472.424 -1.35668 -1.91393 0
M  V30 5167 C 473.44 -0.255954 -1.72107 0
M  V30 5168 O 474.616 -0.491704 -1.95305 0
M  V30 5169 C 471.681 -1.16481 -3.26547 0
M  V30 5170 C 470.742 -2.36212 -3.58472 0
M  V30 5171 C 469.975 -2.17932 -4.87177 0
M  V30 5172 O 470.198 -1.1647 -5.58382 0
M  V30 5173 O 469.132 -3.06167 -5.18214 0
M  V30 5174 H 472.958 -2.32055 -1.95918 0
M  V30 5175 H 470.543 -1.18284 -0.912641 0
M  V30 5176 H 472.425 -1.07778 -4.07384 0
M  V30 5177 H 471.1 -0.231687 -3.2287 0
M  V30 5178 H 470.007 -2.50488 -2.77861 0
M  V30 5179 H 471.34 -3.281 -3.66894 0
M  V30 5180 N 472.992 0.995999 -1.22138 0
M  V30 5181 C 474.269 1.70834 -0.952642 0
M  V30 5182 C 474.649 2.04257 0.533119 0
M  V30 5183 O 473.997 1.72343 1.50034 0
M  V30 5184 C 474.207 2.96119 -1.84701 0
M  V30 5185 C 475.555 3.68962 -2.10124 0
M  V30 5186 O 476.579 3.0612 -1.82124 0
M  V30 5187 O 475.438 4.82017 -2.57531 0
M  V30 5188 H 472.532 0.745498 -0.357997 0
M  V30 5189 H 475.078 1.05262 -1.33109 0
M  V30 5190 H 473.85 2.67898 -2.85213 0
M  V30 5191 H 473.473 3.6943 -1.46995 0
M  V30 5192 N 474.47 1.03057 1.19235 0
M  V30 5193 C 475.886 0.747947 1.40989 0
M  V30 5194 C 476.086 -0.666752 1.90149 0
M  V30 5195 O 475.142 -1.43249 2.07933 0
M  V30 5196 C 476.455 1.7855 2.41951 0
M  V30 5197 C 478.003 1.80524 2.55695 0
M  V30 5198 C 478.478 2.83243 3.59913 0
M  V30 5199 N 479.969 2.8207 3.67411 0
M  V30 5200 C 480.704 3.58204 4.47747 0
M  V30 5201 N 480.2 4.44057 5.31775 0
M  V30 5202 N 481.993 3.46738 4.42413 0
M  V30 5203 H 474.144 1.94367 0.856468 0
M  V30 5204 H 476.407 0.840412 0.438647 0
M  V30 5205 H 476.113 2.79973 2.12857 0
M  V30 5206 H 475.987 1.6092 3.41152 0
M  V30 5207 H 478.374 0.79778 2.84112 0
M  V30 5208 H 478.455 2.02229 1.56643 0
M  V30 5209 H 478.099 3.84161 3.32239 0
M  V30 5210 H 478.029 2.58795 4.5862 0
M  V30 5211 H 480.52 2.19803 3.074 0
M  V30 5212 H 480.833 4.98884 5.90199 0
M  V30 5213 H 479.178 4.48129 5.3123 0
M  V30 5214 H 482.369 2.79077 3.75811 0
M  V30 5215 H 482.542 4.06322 5.04783 0
M  V30 5216 N 475.948 -1.35272 0.808662 0
M  V30 5217 C 477.359 -1.81179 0.450688 0
M  V30 5218 C 477.71 -1.67143 -1.02751 0
M  V30 5219 O 476.835 -1.20325 -1.79864 0
M  V30 5220 C 477.43 -3.28943 0.811275 0
M  V30 5221 C 475.989 -3.72985 0.505871 0
M  V30 5222 C 475.136 -2.57229 1.03578 0
M  V30 5223 H 478.087 -1.2322 1.00012 0
M  V30 5224 H 478.108 -3.80342 0.109588 0
M  V30 5225 H 477.62 -3.39127 1.88718 0
M  V30 5226 H 475.721 -3.68349 -0.561209 0
M  V30 5227 H 475.834 -4.67677 1.03995 0
M  V30 5228 H 474.198 -2.50548 0.458005 0
M  V30 5229 H 474.981 -2.7019 2.11784 0
M  V30 5230 N 477.426 -0.562348 -1.47226 0
M  V30 5231 C 478.651 -0.0432632 -2.07355 0
M  V30 5232 C 479.076 1.24332 -1.41149 0
M  V30 5233 O 478.434 1.74603 -0.488226 0
M  V30 5234 C 478.482 0.130288 -3.60365 0
M  V30 5235 O 477.586 1.19166 -3.94808 0
M  V30 5236 H 476.927 -0.0536334 -0.66183 0
M  V30 5237 H 479.457 -0.779495 -1.89169 0
M  V30 5238 H 479.467 0.342881 -4.06557 0
M  V30 5239 H 478.142 -0.809389 -4.07948 0
M  V30 5240 H 476.719 0.959153 -3.60354 0
M  V30 5241 N 478.904 1.54736 -0.299062 0
M  V30 5242 C 479.834 2.26409 0.571085 0
M  V30 5243 C 480.815 1.2629 1.13951 0
M  V30 5244 O 482 1.55059 1.16921 0
M  V30 5245 C 479.13 3.00338 1.74396 0
M  V30 5246 C 478.084 4.07588 1.30599 0
M  V30 5247 C 477.41 4.69222 2.56387 0
M  V30 5248 C 478.71 5.20455 0.438645 0
M  V30 5249 H 480.404 2.99388 -0.0266991 0
M  V30 5250 H 477.95 1.43993 -0.0142812 0
M  V30 5251 H 479.903 3.49198 2.35878 0
M  V30 5252 H 478.627 2.24934 2.36796 0
M  V30 5253 H 477.286 3.59575 0.71424 0
M  V30 5254 H 476.934 3.9046 3.17097 0
M  V30 5255 H 476.634 5.41653 2.27784 0
M  V30 5256 H 478.158 5.20844 3.18675 0
M  V30 5257 H 479.572 5.65221 0.959085 0
M  V30 5258 H 477.969 5.99594 0.246466 0
M  V30 5259 H 479.039 4.8192 -0.536738 0
M  V30 5260 N 480.382 0.0267497 1.57577 0
M  V30 5261 C 481.659 -0.690926 1.82991 0
M  V30 5262 C 482.039 -1.90471 0.910164 0
M  V30 5263 O 481.387 -2.28474 -0.0347985 0
M  V30 5264 C 481.597 -1.07139 3.32148 0
M  V30 5265 C 482.945 -1.46402 3.98562 0
M  V30 5266 O 483.969 -1.16443 3.36629 0
M  V30 5267 O 482.828 -2.02214 5.07712 0
M  V30 5268 H 479.922 -0.338747 0.75444 0
M  V30 5269 H 482.468 0.0542506 1.69613 0
M  V30 5270 H 481.24 -0.207394 3.9075 0
M  V30 5271 H 480.863 -1.87481 3.50623 0
M  V30 5272 N 481.861 -1.55662 -0.24637 0
M  V30 5273 C 483.138 -1.68272 -0.997198 0
M  V30 5274 C 483.518 -0.566785 -2.03349 0
M  V30 5275 O 482.866 0.429688 -2.24424 0
M  V30 5276 C 483.076 -3.08594 -1.63006 0
M  V30 5277 C 484.424 -3.6721 -2.13171 0
M  V30 5278 O 485.448 -3.11397 -1.72946 0
M  V30 5279 O 484.307 -4.65054 -2.87031 0
M  V30 5280 H 481.401 -0.684429 -0.464205 0
M  V30 5281 H 483.947 -1.67993 -0.240114 0
M  V30 5282 H 482.719 -3.81264 -0.880527 0
M  V30 5283 H 482.342 -3.12886 -2.45333 0
M  V30 5284 N 483.339 0.512053 -1.4905 0
M  V30 5285 C 484.588 1.26343 -1.57227 0
M  V30 5286 C 484.901 1.93876 -0.259155 0
M  V30 5287 O 486.107 2.70612 -0.219358 0
M  V30 5288 C 484.563 2.29343 -2.77362 0
M  V30 5289 C 484.171 1.67799 -4.15388 0
M  V30 5290 C 485.915 3.05378 -2.94864 0
M  V30 5291 C 483.822 2.68845 -5.2676 0
M  V30 5292 H 482.752 0.475231 -0.585382 0
M  V30 5293 H 485.403 0.53862 -1.75417 0
M  V30 5294 H 483.785 3.04938 -2.52643 0
M  V30 5295 H 484.959 0.982715 -4.50199 0
M  V30 5296 H 483.274 1.04194 -4.03153 0
M  V30 5297 H 485.871 3.80921 -3.75238 0
M  V30 5298 H 486.214 3.62327 -2.05 0
M  V30 5299 H 486.747 2.36898 -3.19569 0
M  V30 5300 H 483.486 2.16692 -6.18647 0
M  V30 5301 H 483.006 3.36647 -4.96416 0
M  V30 5302 H 484.685 3.31487 -5.5563 0
M  V30 5303 N 484.817 1.37938 0.762283 0
M  V30 5304 C 486.066 1.32989 1.51647 0
M  V30 5305 C 486.379 -0.0802922 1.95435 0
M  V30 5306 O 487.585 -0.252295 2.70325 0
M  V30 5307 C 486.041 2.33485 2.73885 0
M  V30 5308 C 485.649 3.80079 2.37157 0
M  V30 5309 C 487.393 2.37563 3.51801 0
M  V30 5310 C 485.3 4.72283 3.55954 0
M  V30 5311 H 484.23 0.494301 0.56937 0
M  V30 5312 H 486.881 1.63448 0.834083 0
M  V30 5313 H 485.263 1.96056 3.44061 0
M  V30 5314 H 486.437 4.26398 1.74704 0
M  V30 5315 H 484.752 3.79037 1.72395 0
M  V30 5316 H 487.349 3.0365 4.40114 0
M  V30 5317 H 487.692 1.39199 3.92338 0
M  V30 5318 H 488.225 2.73747 2.8863 0
M  V30 5319 H 484.964 5.7181 3.2049 0
M  V30 5320 H 484.484 4.30663 4.1748 0
M  V30 5321 H 486.163 4.89876 4.22647 0
M  V30 5322 N 486.295 -0.989507 1.22664 0
M  V30 5323 C 487.711 -1.25395 0.987331 0
M  V30 5324 C 487.911 -1.9899 -0.317056 0
M  V30 5325 O 486.967 -2.30141 -1.03882 0
M  V30 5326 C 488.28 -2.06242 2.18826 0
M  V30 5327 C 489.828 -2.19413 2.23219 0
M  V30 5328 C 490.303 -3.03648 3.42873 0
M  V30 5329 N 491.794 -3.11234 3.43056 0
M  V30 5330 C 492.529 -3.7671 4.32293 0
M  V30 5331 N 492.025 -4.44085 5.31752 0
M  V30 5332 N 493.818 -3.73505 4.2006 0
M  V30 5333 H 485.969 -0.496212 2.06522 0
M  V30 5334 H 488.232 -0.281784 0.905153 0
M  V30 5335 H 487.938 -1.59531 3.13437 0
M  V30 5336 H 487.812 -3.06996 2.19165 0
M  V30 5337 H 490.199 -2.65336 1.29154 0
M  V30 5338 H 490.28 -1.18078 2.26917 0
M  V30 5339 H 489.924 -2.58424 4.37241 0
M  V30 5340 H 489.854 -4.05132 3.36416 0
M  V30 5341 H 492.345 -2.63287 2.71088 0
M  V30 5342 H 492.658 -4.91797 5.96117 0
M  V30 5343 H 491.003 -4.42822 5.35662 0
M  V30 5344 H 494.194 -3.20033 3.41609 0
M  V30 5345 H 494.367 -4.24253 4.8981 0
M  V30 5346 N 487.773 -1.03688 -1.18687 0
M  V30 5347 C 488.723 -0.595067 -2.20098 0
M  V30 5348 C 489.707 0.360465 -1.5681 0
M  V30 5349 O 490.899 0.180136 -1.76081 0
M  V30 5350 C 488.028 0.0444495 -3.43271 0
M  V30 5351 C 487.114 -0.934002 -4.13687 0
M  V30 5352 N 487.505 -2.09957 -4.60165 0
M  V30 5353 C 485.803 -0.759177 -4.39491 0
M  V30 5354 C 486.504 -2.71735 -5.1433 0
M  V30 5355 N 485.48 -1.99638 -5.05614 0
M  V30 5356 H 489.282 -1.48336 -2.5372 0
M  V30 5357 H 486.796 -0.904949 -1.3485 0
M  V30 5358 H 488.793 0.37864 -4.15177 0
M  V30 5359 H 487.453 0.928325 -3.11147 0
M  V30 5360 H 488.464 -2.47863 -4.54735 0
M  V30 5361 H 485.141 0.0749292 -4.17433 0
M  V30 5362 H 486.531 -3.70492 -5.60523 0
M  V30 5363 N 489.251 1.34841 -0.815825 0
M  V30 5364 C 490.528 1.92908 -0.323416 0
M  V30 5365 C 490.908 1.74479 1.18828 0
M  V30 5366 O 490.256 1.11928 1.99209 0
M  V30 5367 C 490.466 3.40957 -0.744952 0
M  V30 5368 C 491.814 4.18107 -0.739716 0
M  V30 5369 O 492.838 3.49511 -0.68708 0
M  V30 5370 O 491.697 5.40517 -0.806456 0
M  V30 5371 H 488.791 0.822436 -0.0867646 0
M  V30 5372 H 491.337 1.4386 -0.90014 0
M  V30 5373 H 490.109 3.4814 -1.78646 0
M  V30 5374 H 489.732 3.97341 -0.143535 0
M  V30 5375 N 490.729 0.570148 1.46925 0
M  V30 5376 C 491.976 0.0509529 2.02436 0
M  V30 5377 C 492.304 -1.30405 1.44308 0
M  V30 5378 O 491.559 -1.86493 0.593198 0
M  V30 5379 C 491.858 -0.0780336 3.57315 0
M  V30 5380 C 491.524 1.20775 4.34424 0
M  V30 5381 C 490.186 1.56004 4.5521 0
M  V30 5382 C 492.538 2.0592 4.78797 0
M  V30 5383 C 489.866 2.76201 5.17619 0
M  V30 5384 C 492.218 3.25332 5.42533 0
M  V30 5385 C 490.882 3.60859 5.61549 0
M  V30 5386 H 490.152 0.018645 0.740765 0
M  V30 5387 H 492.799 0.744262 1.76445 0
M  V30 5388 H 491.104 -0.854394 3.82371 0
M  V30 5389 H 492.801 -0.495312 3.97929 0
M  V30 5390 H 489.391 0.923469 4.18533 0
M  V30 5391 H 493.575 1.80008 4.62505 0
M  V30 5392 H 488.831 3.0388 5.30535 0
M  V30 5393 H 493.005 3.91586 5.75876 0
M  V30 5394 H 490.632 4.54088 6.09678 0
M  V30 5395 N 492.207 -1.54576 0.307264 0
M  V30 5396 C 493.454 -2.00263 -0.300167 0
M  V30 5397 C 493.782 -1.19561 -1.53413 0
M  V30 5398 O 493.037 -0.261487 -1.93945 0
M  V30 5399 C 493.336 -3.50572 -0.695253 0
M  V30 5400 C 493.002 -4.48771 0.437679 0
M  V30 5401 C 491.664 -4.7534 0.748681 0
M  V30 5402 C 494.016 -5.0721 1.19949 0
M  V30 5403 C 491.344 -5.5761 1.8245 0
M  V30 5404 C 493.696 -5.90651 2.26527 0
M  V30 5405 C 492.36 -6.15528 2.58227 0
M  V30 5406 H 491.63 -0.732814 -0.109839 0
M  V30 5407 H 494.277 -1.86664 0.427661 0
M  V30 5408 H 492.582 -3.61814 -1.50326 0
M  V30 5409 H 494.279 -3.83352 -1.17653 0
M  V30 5410 H 490.869 -4.282 0.185187 0
M  V30 5411 H 495.053 -4.86679 0.972474 0
M  V30 5412 H 490.309 -5.75121 2.07476 0
M  V30 5413 H 494.483 -6.34957 2.86011 0
M  V30 5414 H 492.11 -6.79066 3.4172 0
M  V30 5415 N 493.685 -0.035106 -1.57561 0
M  V30 5416 C 494.615 0.942993 -2.13612 0
M  V30 5417 C 495.596 1.33531 -1.05373 0
M  V30 5418 O 496.781 1.41287 -1.33235 0
M  V30 5419 C 493.911 2.22332 -2.66807 0
M  V30 5420 C 492.865 1.97156 -3.79886 0
M  V30 5421 C 492.191 3.31506 -4.19533 0
M  V30 5422 C 493.491 1.30596 -5.05709 0
M  V30 5423 H 495.185 0.476179 -2.95589 0
M  V30 5424 H 492.731 0.227602 -1.4219 0
M  V30 5425 H 494.684 2.91142 -3.04654 0
M  V30 5426 H 493.408 2.7119 -1.81999 0
M  V30 5427 H 492.067 1.30763 -3.42486 0
M  V30 5428 H 491.715 3.78134 -3.31698 0
M  V30 5429 H 491.415 3.15465 -4.95738 0
M  V30 5430 H 492.939 4.01574 -4.59968 0
M  V30 5431 H 494.353 1.89416 -5.41105 0
M  V30 5432 H 492.75 1.24934 -5.86951 0
M  V30 5433 H 493.82 0.279742 -4.84092 0
M  V30 5434 N 495.163 1.55791 0.238111 0
M  V30 5435 C 496.095 1.87513 1.31802 0
M  V30 5436 C 497.108 0.762053 1.43863 0
M  V30 5437 O 498.297 1.04024 1.45056 0
M  V30 5438 C 495.397 2.05402 2.69561 0
M  V30 5439 C 494.57 3.3632 2.79656 0
M  V30 5440 C 493.629 3.43844 3.98319 0
M  V30 5441 O 492.655 4.16994 3.87433 0
M  V30 5442 N 493.857 2.73777 5.11885 0
M  V30 5443 H 496.622 2.80734 1.04922 0
M  V30 5444 H 494.183 1.56135 0.428196 0
M  V30 5445 H 496.175 2.07769 3.47296 0
M  V30 5446 H 494.745 1.18884 2.89111 0
M  V30 5447 H 493.965 3.46195 1.88528 0
M  V30 5448 H 495.253 4.22594 2.83358 0
M  V30 5449 H 494.651 2.14094 5.23622 0
M  V30 5450 H 493.208 2.81825 5.87723 0
M  V30 5451 N 496.642 -0.504142 1.49319 0
M  V30 5452 C 497.89 -1.25598 1.58334 0
M  V30 5453 C 498.211 -1.93114 0.270538 0
M  V30 5454 O 497.481 -1.82585 -0.709891 0
M  V30 5455 H 496.061 -0.466571 0.58337 0
M  V30 5456 H 498.723 -0.584547 1.85928 0
M  V30 5457 H 497.819 -2.02159 2.37778 0
M  V30 5458 N 498.12 -1.38341 -0.754957 0
M  V30 5459 C 499.367 -1.34473 -1.51404 0
M  V30 5460 C 499.695 0.0656458 -1.94389 0
M  V30 5461 O 498.95 1.04244 -1.65625 0
M  V30 5462 C 499.249 -2.2452 -2.78075 0
M  V30 5463 C 498.915 -3.72512 -2.54059 0
M  V30 5464 C 497.577 -4.1284 -2.47218 0
M  V30 5465 C 499.929 -4.66197 -2.33044 0
M  V30 5466 C 497.257 -5.44945 -2.17376 0
M  V30 5467 C 499.609 -5.98558 -2.04723 0
M  V30 5468 C 498.273 -6.37972 -1.96337 0
M  V30 5469 H 497.543 -0.492072 -0.554027 0
M  V30 5470 H 500.19 -1.70687 -0.868223 0
M  V30 5471 H 498.495 -1.81357 -3.473 0
M  V30 5472 H 500.192 -2.18832 -3.36026 0
M  V30 5473 H 496.782 -3.40538 -2.60253 0
M  V30 5474 H 500.966 -4.35888 -2.37309 0
M  V30 5475 H 496.222 -5.74426 -2.09391 0
M  V30 5476 H 500.396 -6.70693 -1.87465 0
M  V30 5477 H 498.023 -7.40258 -1.72978 0
M  V30 5478 N 499.598 0.982988 -1.23187 0
M  V30 5479 C 500.826 1.75921 -1.08901 0
M  V30 5480 C 501.241 1.85341 0.359719 0
M  V30 5481 O 500.598 1.33072 1.24892 0
M  V30 5482 C 500.649 3.18742 -1.70545 0
M  V30 5483 O 500.37 3.09814 -3.09753 0
M  V30 5484 C 501.871 4.1277 -1.61667 0
M  V30 5485 H 499.091 0.552166 -0.381252 0
M  V30 5486 H 501.635 1.23516 -1.62985 0
M  V30 5487 H 499.79 3.68182 -1.20501 0
M  V30 5488 H 500.204 3.99703 -3.39614 0
M  V30 5489 H 501.678 5.10697 -2.09506 0
M  V30 5490 H 502.155 4.3542 -0.575009 0
M  V30 5491 H 502.761 3.69232 -2.11064 0
M  V30 5492 N 501.076 1.04316 1.18135 0
M  V30 5493 C 502.487 0.775505 1.69832 0
M  V30 5494 C 502.838 -0.703348 1.8316 0
M  V30 5495 O 501.963 -1.54729 1.51287 0
M  V30 5496 C 502.558 1.40112 3.0847 0
M  V30 5497 C 501.117 1.18172 3.57368 0
M  V30 5498 C 500.264 1.49022 2.33854 0
M  V30 5499 H 503.215 1.20925 1.02775 0
M  V30 5500 H 503.236 0.805672 3.71873 0
M  V30 5501 H 502.748 2.47744 2.98738 0
M  V30 5502 H 500.849 0.124258 3.72393 0
M  V30 5503 H 500.962 1.8805 4.40652 0
M  V30 5504 H 499.326 0.909995 2.37889 0
M  V30 5505 H 500.109 2.57768 2.26738 0
M  V30 5506 N 502.554 -1.34406 0.822964 0
M  V30 5507 C 503.831 -1.92733 0.333641 0
M  V30 5508 C 504.211 -1.75107 -1.17901 0
M  V30 5509 O 503.559 -1.12983 -1.98613 0
M  V30 5510 C 503.769 -3.40557 0.763023 0
M  V30 5511 C 505.117 -4.17709 0.761879 0
M  V30 5512 O 506.141 -3.49141 0.705606 0
M  V30 5513 O 505 -5.40082 0.835109 0
M  V30 5514 H 502.094 -0.821964 0.0911249 0
M  V30 5515 H 504.64 -1.4338 0.907757 0
M  V30 5516 H 503.412 -3.47187 1.8049 0
M  V30 5517 H 503.035 -3.97259 0.164605 0
M  V30 5518 N 504.032 -0.577932 -1.46621 0
M  V30 5519 C 505.448 -0.239242 -1.57797 0
M  V30 5520 C 505.648 1.25843 -1.57371 0
M  V30 5521 O 504.704 2.03988 -1.48813 0
M  V30 5522 C 506.017 -0.884227 -2.87405 0
M  V30 5523 C 507.565 -0.857373 -3.01028 0
M  V30 5524 C 508.04 -1.48181 -4.33366 0
M  V30 5525 N 509.531 -1.44593 -4.40053 0
M  V30 5526 C 510.266 -1.89852 -5.41058 0
M  V30 5527 N 509.762 -2.43062 -6.48762 0
M  V30 5528 N 511.555 -1.80797 -5.3223 0
M  V30 5529 H 503.706 -1.55073 -1.45142 0
M  V30 5530 H 505.969 -0.647903 -0.692044 0
M  V30 5531 H 505.675 -1.93759 -2.93514 0
M  V30 5532 H 505.549 -0.389585 -3.75183 0
M  V30 5533 H 507.936 0.187357 -2.94505 0
M  V30 5534 H 508.017 -1.38999 -2.14739 0
M  V30 5535 H 507.661 -2.52572 -4.40647 0
M  V30 5536 H 507.591 -0.924464 -5.18422 0
M  V30 5537 H 510.082 -1.05694 -3.62819 0
M  V30 5538 H 510.395 -2.75466 -7.22038 0
M  V30 5539 H 508.74 -2.47085 -6.49595 0
M  V30 5540 H 511.931 -1.38989 -4.46989 0
M  V30 5541 H 512.104 -2.16385 -6.10804 0
M  V30 5542 N 505.51 1.54411 -0.315457 0
M  V30 5543 C 506.44 2.27002 0.547039 0
M  V30 5544 C 507.421 1.27492 1.12605 0
M  V30 5545 O 508.606 1.5629 1.15269 0
M  V30 5546 C 505.736 3.02171 1.71201 0
M  V30 5547 C 504.69 4.0895 1.26268 0
M  V30 5548 C 504.016 4.71915 2.51396 0
M  V30 5549 C 505.316 5.20891 0.383419 0
M  V30 5550 H 507.01 2.99343 -0.0584517 0
M  V30 5551 H 504.556 1.4397 -0.0295527 0
M  V30 5552 H 506.509 3.51681 2.32161 0
M  V30 5553 H 505.233 2.27433 2.34397 0
M  V30 5554 H 503.892 3.60312 0.676062 0
M  V30 5555 H 503.54 3.93801 3.12937 0
M  V30 5556 H 503.24 5.44039 2.22026 0
M  V30 5557 H 504.764 5.24195 3.13133 0
M  V30 5558 H 506.178 5.66206 0.899082 0
M  V30 5559 H 504.575 5.99821 0.182857 0
M  V30 5560 H 505.645 4.81324 -0.587821 0
M  V30 5561 N 506.988 0.0434614 1.5754 0
M  V30 5562 C 508.213 -0.645358 1.97104 0
M  V30 5563 C 508.638 -1.64037 0.920521 0
M  V30 5564 O 507.996 -1.80922 -0.11708 0
M  V30 5565 C 508.044 -1.31547 3.35749 0
M  V30 5566 O 507.148 -2.43103 3.33129 0
M  V30 5567 H 506.489 -0.168403 0.64229 0
M  V30 5568 H 509.019 0.109573 2.04306 0
M  V30 5569 H 509.029 -1.66895 3.72304 0
M  V30 5570 H 507.704 -0.586205 4.11748 0
M  V30 5571 H 506.281 -2.0976 3.0831 0
M  V30 5572 N 508.466 -1.55915 -0.229846 0
M  V30 5573 C 509.691 -1.8296 -0.976743 0
M  V30 5574 C 510.116 -0.622735 -1.77493 0
M  V30 5575 O 509.474 0.428431 -1.76165 0
M  V30 5576 C 509.522 -3.07916 -1.8767 0
M  V30 5577 O 508.626 -2.86028 -2.97088 0
M  V30 5578 H 507.967 -0.603453 -0.277021 0
M  V30 5579 H 510.497 -2.0312 -0.245669 0
M  V30 5580 H 510.507 -3.37802 -2.2881 0
M  V30 5581 H 509.182 -3.95389 -1.28996 0
M  V30 5582 H 507.759 -2.67355 -2.59954 0
M  V30 5583 N 509.944 0.496216 -1.49584 0
M  V30 5584 C 511.169 1.27865 -1.63295 0
M  V30 5585 C 511.594 1.85592 -0.306156 0
M  V30 5586 O 510.952 1.66092 0.726851 0
M  V30 5587 C 511 2.38128 -2.7079 0
M  V30 5588 O 510.104 3.42108 -2.30296 0
M  V30 5589 H 509.445 0.377279 -0.546403 0
M  V30 5590 H 511.975 0.593497 -1.95803 0
M  V30 5591 H 511.985 2.8382 -2.93104 0
M  V30 5592 H 510.66 1.95479 -3.67098 0
M  V30 5593 H 509.237 3.02301 -2.18331 0
M  V30 5594 N 511.423 1.38739 0.74761 0
M  V30 5595 C 512.663 1.36695 1.51966 0
M  V30 5596 C 513.027 -0.0411889 1.91956 0
M  V30 5597 O 514.228 -0.186543 2.68152 0
M  V30 5598 C 512.499 2.30119 2.73459 0
M  V30 5599 S 514.058 2.4615 3.63257 0
M  V30 5600 H 510.876 0.484929 0.519966 0
M  V30 5601 H 513.478 1.7472 0.877104 0
M  V30 5602 H 512.182 3.31312 2.422 0
M  V30 5603 H 511.713 1.93265 3.42655 0
M  V30 5604 H 513.728 1.69001 4.66533 0
M  V30 5605 N 512.901 -0.976442 1.23707 0
M  V30 5606 C 514.141 -1.73331 1.08332 0
M  V30 5607 C 514.505 -1.88346 -0.372781 0
M  V30 5608 O 515.706 -2.60877 -0.647813 0
M  V30 5609 C 513.977 -3.09159 1.7932 0
M  V30 5610 S 515.536 -4.00376 1.79567 0
M  V30 5611 H 512.354 -0.596045 0.387622 0
M  V30 5612 H 514.956 -1.16625 1.56904 0
M  V30 5613 H 513.66 -2.95884 2.84395 0
M  V30 5614 H 513.191 -3.70932 1.31046 0
M  V30 5615 H 515.206 -4.88742 0.857094 0
M  V30 5616 N 514.379 -1.04941 -1.1758 0
M  V30 5617 C 515.329 -0.618378 -2.19454 0
M  V30 5618 C 516.313 0.343813 -1.57184 0
M  V30 5619 O 517.505 0.16145 -1.76262 0
M  V30 5620 C 514.634 0.00803847 -3.43299 0
M  V30 5621 C 513.72 -0.977827 -4.12673 0
M  V30 5622 N 514.111 -2.14826 -4.57912 0
M  V30 5623 C 512.409 -0.805748 -4.38661 0
M  V30 5624 C 513.11 -2.77174 -5.11419 0
M  V30 5625 N 512.086 -2.04989 -5.03468 0
M  V30 5626 H 515.888 -1.51018 -2.52132 0
M  V30 5627 H 513.402 -0.919201 -1.33882 0
M  V30 5628 H 515.399 0.334584 -4.15555 0
M  V30 5629 H 514.059 0.895272 -3.12114 0
M  V30 5630 H 515.07 -2.52673 -4.52081 0
M  V30 5631 H 511.747 0.0306506 -4.17489 0
M  V30 5632 H 513.137 -3.76416 -5.56562 0
M  V30 5633 N 515.857 1.33968 -0.830081 0
M  V30 5634 C 517.085 2.0228 -0.434773 0
M  V30 5635 C 517.5 1.62487 0.961419 0
M  V30 5636 O 516.857 0.833849 1.62337 0
M  V30 5637 C 516.908 3.5751 -0.535625 0
M  V30 5638 O 516.629 3.95864 -1.87679 0
M  V30 5639 C 518.13 4.43091 -0.136137 0
M  V30 5640 H 515.35 0.648151 -0.173613 0
M  V30 5641 H 517.894 1.71089 -1.12022 0
M  V30 5642 H 516.049 3.87266 0.101817 0
M  V30 5643 H 516.463 4.9056 -1.85609 0
M  V30 5644 H 517.937 5.51398 -0.257772 0
M  V30 5645 H 518.414 4.29433 0.921076 0
M  V30 5646 H 519.02 4.18677 -0.747662 0
M  V30 5647 N 517.335 0.585699 1.46312 0
M  V30 5648 C 518.581 0.0725284 2.0267 0
M  V30 5649 C 518.914 -1.28523 1.45586 0
M  V30 5650 O 518.189 -1.84283 0.622101 0
M  V30 5651 C 518.472 0.0099788 3.60099 0
M  V30 5652 C 518.325 1.39685 4.27561 0
M  V30 5653 C 519.644 -0.689117 4.34671 0
M  V30 5654 H 516.763 0.0278307 0.736474 0
M  V30 5655 H 519.405 0.753472 1.74421 0
M  V30 5656 H 517.555 -0.56992 3.84297 0
M  V30 5657 H 519.227 2.02215 4.14617 0
M  V30 5658 H 517.47 1.96374 3.86807 0
M  V30 5659 H 518.141 1.30553 5.36339 0
M  V30 5660 H 520.617 -0.196446 4.15636 0
M  V30 5661 H 519.493 -0.701921 5.44393 0
M  V30 5662 H 519.754 -1.75101 4.05946 0
M  V30 5663 N 518.813 -1.54241 0.323641 0
M  V30 5664 C 520.224 -1.85975 -0.164405 0
M  V30 5665 C 520.575 -1.24529 -1.51615 0
M  V30 5666 O 519.7 -0.551351 -2.09258 0
M  V30 5667 C 520.295 -3.37424 -0.305091 0
M  V30 5668 C 518.854 -3.69107 -0.737358 0
M  V30 5669 C 518.001 -2.76942 0.140884 0
M  V30 5670 H 520.952 -1.49088 0.543922 0
M  V30 5671 H 520.973 -3.63147 -1.13598 0
M  V30 5672 H 520.485 -3.82116 0.678876 0
M  V30 5673 H 518.586 -3.29947 -1.73107 0
M  V30 5674 H 518.699 -4.76035 -0.541053 0
M  V30 5675 H 517.063 -2.51795 -0.383572 0
M  V30 5676 H 517.846 -3.24461 1.12162 0
M  V30 5677 N 520.291 -0.0518155 -1.57515 0
M  V30 5678 C 521.568 0.661727 -1.84067 0
M  V30 5679 C 521.948 1.88999 -0.940351 0
M  V30 5680 O 521.296 2.285 -0.00155404 0
M  V30 5681 C 521.506 1.01841 -3.3381 0
M  V30 5682 C 522.854 1.40043 -4.00841 0
M  V30 5683 O 523.878 1.11073 -3.38439 0
M  V30 5684 O 522.737 1.94111 -5.10865 0
M  V30 5685 H 519.831 0.326702 -0.759733 0
M  V30 5686 H 522.377 -0.0812277 -1.69505 0
M  V30 5687 H 521.149 0.145202 -3.91031 0
M  V30 5688 H 520.772 1.81879 -3.53562 0
M  V30 5689 N 521.769 1.56035 0.221574 0
M  V30 5690 C 523.016 1.79047 0.94597 0
M  V30 5691 C 523.344 0.62057 1.84334 0
M  V30 5692 O 522.599 -0.395053 1.91671 0
M  V30 5693 C 522.898 3.07813 1.8162 0
M  V30 5694 C 522.564 4.3797 1.07206 0
M  V30 5695 C 521.226 4.73334 0.866508 0
M  V30 5696 C 523.578 5.18326 0.546565 0
M  V30 5697 C 520.906 5.8657 0.123549 0
M  V30 5698 C 523.258 6.32335 -0.18305 0
M  V30 5699 C 521.922 6.66301 -0.399861 0
M  V30 5700 H 521.192 0.655178 0.346155 0
M  V30 5701 H 523.839 1.90299 0.214146 0
M  V30 5702 H 522.144 2.91682 2.61589 0
M  V30 5703 H 523.841 3.2282 2.37884 0
M  V30 5704 H 520.431 4.10202 1.24226 0
M  V30 5705 H 524.615 4.9144 0.692847 0
M  V30 5706 H 519.871 6.11376 -0.0546591 0
M  V30 5707 H 524.045 6.9383 -0.59775 0
M  V30 5708 H 521.672 7.53889 -0.977489 0
M  V30 5709 N 523.247 -0.488276 1.49845 0
M  V30 5710 C 524.197 -1.58556 1.63842 0
M  V30 5711 C 525.181 -1.53142 0.493586 0
M  V30 5712 O 526.373 -1.60457 0.747169 0
M  V30 5713 C 523.502 -2.97101 1.72005 0
M  V30 5714 C 522.588 -3.07463 2.92108 0
M  V30 5715 N 522.979 -2.87681 4.16021 0
M  V30 5716 C 521.277 -3.3858 2.90309 0
M  V30 5717 C 521.978 -3.0256 4.96822 0
M  V30 5718 N 520.954 -3.32002 4.30437 0
M  V30 5719 H 524.756 -1.41935 2.57355 0
M  V30 5720 H 522.27 -0.694668 1.46793 0
M  V30 5721 H 524.267 -3.75976 1.80132 0
M  V30 5722 H 522.927 -3.14782 0.796375 0
M  V30 5723 H 523.938 -2.63603 4.45796 0
M  V30 5724 H 520.615 -3.62357 2.07372 0
M  V30 5725 H 522.005 -2.9165 6.05301 0
M  V30 5726 N 524.725 -1.39134 -0.740242 0
M  V30 5727 C 525.655 -1.40165 -1.86751 0
M  V30 5728 C 526.636 -0.265708 -1.68012 0
M  V30 5729 O 527.821 -0.47076 -1.88408 0
M  V30 5730 C 524.951 -1.2392 -3.2444 0
M  V30 5731 C 523.905 -2.34858 -3.57807 0
M  V30 5732 C 523.231 -2.03707 -4.94376 0
M  V30 5733 C 524.531 -3.77159 -3.61315 0
M  V30 5734 H 526.225 -2.345 -1.86145 0
M  V30 5735 H 523.771 -1.12875 -0.89416 0
M  V30 5736 H 525.724 -1.23263 -4.02969 0
M  V30 5737 H 524.448 -0.26051 -3.25559 0
M  V30 5738 H 523.107 -2.34723 -2.81604 0
M  V30 5739 H 522.755 -1.04289 -4.9207 0
M  V30 5740 H 522.455 -2.78016 -5.17669 0
M  V30 5741 H 523.979 -2.04691 -5.75268 0
M  V30 5742 H 525.393 -3.79252 -4.29931 0
M  V30 5743 H 523.79 -4.50784 -3.96124 0
M  V30 5744 H 524.86 -4.08513 -2.61238 0
M  V30 5745 N 526.204 0.969867 -1.24223 0
M  V30 5746 C 527.429 1.75289 -1.10853 0
M  V30 5747 C 527.854 1.85091 0.335079 0
M  V30 5748 O 527.212 1.32024 1.24255 0
M  V30 5749 C 527.26 3.15255 -1.75062 0
M  V30 5750 O 526.364 3.99589 -1.01992 0
M  V30 5751 H 525.705 0.538904 -0.387915 0
M  V30 5752 H 528.235 1.21675 -1.64488 0
M  V30 5753 H 528.245 3.65787 -1.80731 0
M  V30 5754 H 526.92 3.07436 -2.801 0
M  V30 5755 H 525.497 3.58077 -1.04094 0
M  V30 5756 N 527.682 1.05563 1.17022 0
M  V30 5757 C 528.907 0.788437 1.91829 0
M  V30 5758 C 529.332 -0.650356 1.76499 0
M  V30 5759 O 528.69 -1.45229 1.08527 0
M  V30 5760 C 528.738 1.1786 3.40795 0
M  V30 5761 O 527.842 0.312965 4.11211 0
M  V30 5762 H 527.183 0.288794 0.597908 0
M  V30 5763 H 529.713 1.40948 1.48307 0
M  V30 5764 H 529.723 1.14697 3.91546 0
M  V30 5765 H 528.398 2.22666 3.51273 0
M  V30 5766 H 526.975 0.405515 3.70689 0
M  V30 5767 N 529.16 -1.33526 0.837174 0
M  V30 5768 C 530.571 -1.80182 0.489017 0
M  V30 5769 C 530.922 -1.69285 -0.991826 0
M  V30 5770 O 530.047 -1.24113 -1.77271 0
M  V30 5771 C 530.642 -3.27149 0.880866 0
M  V30 5772 C 529.201 -3.71828 0.584872 0
M  V30 5773 C 528.348 -2.54974 1.09011 0
M  V30 5774 H 531.299 -1.21071 1.02603 0
M  V30 5775 H 531.32 -3.80024 0.190239 0
M  V30 5776 H 530.832 -3.35048 1.95869 0
M  V30 5777 H 528.933 -3.69457 -0.48295 0
M  V30 5778 H 529.046 -4.65366 1.13892 0
M  V30 5779 H 527.41 -2.4952 0.511047 0
M  V30 5780 H 528.193 -2.65637 2.17467 0
M  V30 5781 N 530.638 -0.59345 -1.46 0
M  V30 5782 C 531.601 0.123538 -2.28867 0
M  V30 5783 C 532.601 0.808628 -1.38989 0
M  V30 5784 O 533.791 0.658945 -1.61256 0
M  V30 5785 C 530.923 1.1847 -3.19653 0
M  V30 5786 H 532.116 -0.604843 -2.93737 0
M  V30 5787 H 529.669 -0.351875 -1.52288 0
M  V30 5788 H 530.404 1.94431 -2.59552 0
M  V30 5789 H 530.189 0.69783 -3.8584 0
M  V30 5790 H 531.679 1.68726 -3.81997 0
M  V30 5791 N 532.116 1.54067 -0.331816 0
M  V30 5792 C 533.063 2.24623 0.530372 0
M  V30 5793 C 534.033 1.24009 1.10503 0
M  V30 5794 O 535.218 1.52712 1.14384 0
M  V30 5795 C 532.358 3.01374 1.68129 0
M  V30 5796 C 531.471 4.16821 1.13507 0
M  V30 5797 C 530.606 4.81085 2.25234 0
M  V30 5798 C 529.645 5.88621 1.67903 0
M  V30 5799 N 528.782 6.46713 2.73326 0
M  V30 5800 H 533.622 2.97898 -0.0778607 0
M  V30 5801 H 531.159 1.47014 -0.0501965 0
M  V30 5802 H 533.117 3.44125 2.35868 0
M  V30 5803 H 531.747 2.30419 2.26069 0
M  V30 5804 H 530.799 3.78796 0.348979 0
M  V30 5805 H 532.111 4.94203 0.675633 0
M  V30 5806 H 531.265 5.26846 3.00862 0
M  V30 5807 H 530.004 4.03102 2.74518 0
M  V30 5808 H 529.009 5.42254 0.907773 0
M  V30 5809 H 530.234 6.68506 1.19487 0
M  V30 5810 H 528.18 5.71599 3.21886 0
M  V30 5811 H 528.097 7.19532 2.3197 0
M  V30 5812 H 529.365 6.97129 3.48758 0
M  V30 5813 N 533.594 0.0601682 1.57485 0
M  V30 5814 C 534.542 -0.928899 2.13247 0
M  V30 5815 C 535.536 -1.31616 1.06647 0
M  V30 5816 O 536.742 -1.29476 1.25043 0
M  V30 5817 H 533.117 -0.317455 0.681708 0
M  V30 5818 H 535.088 -0.433566 2.95233 0
M  V30 5819 C 533.837 -2.19121 2.69965 0
M  V30 5820 H 533.16 -1.90204 3.51657 0
M  V30 5821 H 534.6 -2.86465 3.12592 0
M  V30 5822 C 533.059 -2.94195 1.64168 0
M  V30 5823 O 533.589 -3.87468 1.05978 0
M  V30 5824 N 531.795 -2.57089 1.35476 0
M  V30 5825 H 531.342 -1.81314 1.82984 0
M  V30 5826 H 531.3 -3.07624 0.649196 0
M  V30 5827 N 535.072 -1.5615 -0.213296 0
M  V30 5828 C 536.319 -1.79546 -0.936462 0
M  V30 5829 C 536.647 -0.630337 -1.84003 0
M  V30 5830 O 535.902 0.384883 -1.91878 0
M  V30 5831 C 536.201 -3.08772 -1.79985 0
M  V30 5832 C 535.867 -4.38532 -1.04882 0
M  V30 5833 C 534.529 -4.73787 -0.841393 0
M  V30 5834 C 536.881 -5.18609 -0.51907 0
M  V30 5835 C 534.209 -5.86627 -0.0924403 0
M  V30 5836 C 536.561 -6.32229 0.216581 0
M  V30 5837 C 535.225 -6.6608 0.435191 0
M  V30 5838 H 534.495 -0.657004 -0.342676 0
M  V30 5839 H 537.142 -1.9041 -0.204051 0
M  V30 5840 H 535.447 -2.93065 -2.60038 0
M  V30 5841 H 537.144 -3.24077 -2.36168 0
M  V30 5842 H 533.734 -4.10855 -1.22048 0
M  V30 5843 H 537.918 -4.91801 -0.666775 0
M  V30 5844 H 533.174 -6.11338 0.087081 0
M  V30 5845 H 537.348 -6.93503 0.634538 0
M  V30 5846 H 534.975 -7.5336 1.01746 0
M  V30 5847 N 536.55 0.480323 -1.50102 0
M  V30 5848 C 537.797 1.23307 -1.60629 0
M  V30 5849 C 538.125 1.92135 -0.302375 0
M  V30 5850 O 537.38 1.82321 0.711154 0
M  V30 5851 C 537.679 2.30708 -2.72963 0
M  V30 5852 C 537.345 1.79195 -4.13763 0
M  V30 5853 C 536.007 1.64867 -4.52076 0
M  V30 5854 C 538.359 1.40878 -5.018 0
M  V30 5855 C 535.687 1.10631 -5.76175 0
M  V30 5856 C 538.039 0.880872 -6.26437 0
M  V30 5857 C 536.703 0.724146 -6.6356 0
M  V30 5858 H 535.973 0.451211 -0.587784 0
M  V30 5859 H 538.62 0.53051 -1.84005 0
M  V30 5860 H 536.925 3.06834 -2.43639 0
M  V30 5861 H 538.622 2.88692 -2.78313 0
M  V30 5862 H 535.212 1.91313 -3.83533 0
M  V30 5863 H 539.396 1.50786 -4.7284 0
M  V30 5864 H 534.652 0.972263 -6.0362 0
M  V30 5865 H 538.826 0.575269 -6.9402 0
M  V30 5866 H 536.453 0.301722 -7.59601 0
M  V30 5867 N 538.028 1.39524 0.732853 0
M  V30 5868 C 538.975 1.38416 1.84688 0
M  V30 5869 C 539.945 0.243539 1.64305 0
M  V30 5870 O 541.13 0.438979 1.85681 0
M  V30 5871 C 538.27 1.23555 3.22224 0
M  V30 5872 C 537.383 2.47179 3.54298 0
M  V30 5873 C 536.518 2.2489 4.81246 0
M  V30 5874 C 535.557 3.44178 5.0617 0
M  V30 5875 N 534.694 3.21192 6.24323 0
M  V30 5876 H 539.534 2.33645 1.84971 0
M  V30 5877 H 537.071 1.16059 0.903804 0
M  V30 5878 H 539.029 1.12949 4.0162 0
M  V30 5879 H 537.659 0.31954 3.21215 0
M  V30 5880 H 536.711 2.68379 2.69587 0
M  V30 5881 H 538.023 3.36022 3.68633 0
M  V30 5882 H 537.177 2.11538 5.68627 0
M  V30 5883 H 535.916 1.33443 4.69089 0
M  V30 5884 H 534.921 3.58025 4.17251 0
M  V30 5885 H 536.146 4.36528 5.20212 0
M  V30 5886 H 534.092 2.32413 6.1345 0
M  V30 5887 H 534.009 4.03594 6.39256 0
M  V30 5888 H 535.277 3.1154 7.14537 0
M  V30 5889 N 539.506 -0.963266 1.24736 0
M  V30 5890 C 540.453 -2.05857 1.04363 0
M  V30 5891 C 541.423 -1.6604 -0.0444951 0
M  V30 5892 O 542.608 -1.90477 0.110999 0
M  V30 5893 C 539.748 -3.38745 0.659235 0
M  V30 5894 C 538.861 -3.9173 1.82131 0
M  V30 5895 C 537.996 -5.12906 1.38208 0
M  V30 5896 C 537.035 -5.58098 2.51382 0
M  V30 5897 N 536.172 -6.7049 2.08295 0
M  V30 5898 H 541.012 -2.22616 1.98107 0
M  V30 5899 H 538.549 -1.09103 0.986661 0
M  V30 5900 H 540.507 -4.15107 0.417371 0
M  V30 5901 H 539.137 -3.21898 -0.241201 0
M  V30 5902 H 538.189 -3.11966 2.17672 0
M  V30 5903 H 539.501 -4.21225 2.67153 0
M  V30 5904 H 538.655 -5.96657 1.09935 0
M  V30 5905 H 537.394 -4.85105 0.502456 0
M  V30 5906 H 536.399 -4.72917 2.80409 0
M  V30 5907 H 537.624 -5.87911 3.39909 0
M  V30 5908 H 535.57 -6.44416 1.22737 0
M  V30 5909 H 535.487 -6.99458 2.86869 0
M  V30 5910 H 536.755 -7.57672 1.83175 0
M  V30 5911 N 540.985 -1.06182 -1.16461 0
M  V30 5912 C 541.948 -0.675723 -2.19013 0
M  V30 5913 C 542.948 0.277963 -1.58379 0
M  V30 5914 O 544.138 0.0604962 -1.74095 0
M  V30 5915 C 541.27 0.00591459 -3.40899 0
M  V30 5916 H 542.463 -1.58353 -2.54685 0
M  V30 5917 H 540.016 -0.856908 -1.30716 0
M  V30 5918 H 540.751 0.92652 -3.10783 0
M  V30 5919 H 540.536 -0.67984 -3.86161 0
M  V30 5920 H 542.026 0.26181 -4.16778 0
M  V30 5921 N 542.463 1.3308 -0.844243 0
M  V30 5922 C 543.426 2.27403 -0.286485 0
M  V30 5923 C 544.426 1.51179 0.547872 0
M  V30 5924 O 545.616 1.70421 0.360886 0
M  V30 5925 C 542.748 3.35653 0.595813 0
M  V30 5926 H 543.941 2.78248 -1.11885 0
M  V30 5927 H 541.494 1.43574 -0.617749 0
M  V30 5928 H 542.229 2.90058 1.4504 0
M  V30 5929 H 542.014 3.921 -0.00125994 0
M  V30 5930 H 543.504 4.05958 0.979168 0
M  V30 5931 N 543.941 0.601185 1.45683 0
M  V30 5932 C 544.904 -0.111398 2.28929 0
M  V30 5933 C 545.904 -0.801246 1.39416 0
M  V30 5934 O 547.094 -0.650383 1.61603 0
M  V30 5935 C 544.226 -1.16773 3.20276 0
M  V30 5936 H 545.419 0.620412 2.93413 0
M  V30 5937 H 542.972 0.359946 1.52099 0
M  V30 5938 H 543.707 -1.93051 2.60579 0
M  V30 5939 H 543.492 -0.677358 3.86205 0
M  V30 5940 H 544.982 -1.66698 3.82886 0
M  V30 5941 N 545.419 -1.53889 0.339982 0
M  V30 5942 C 546.382 -2.23547 -0.50592 0
M  V30 5943 C 547.382 -1.23445 -1.03044 0
M  V30 5944 O 548.572 -1.47909 -0.920253 0
M  V30 5945 C 545.704 -2.95234 -1.7044 0
M  V30 5946 H 546.897 -2.99722 0.103247 0
M  V30 5947 H 544.45 -1.56033 0.0912804 0
M  V30 5948 H 545.185 -2.23236 -2.35236 0
M  V30 5949 H 544.97 -3.68654 -1.33553 0
M  V30 5950 H 546.46 -3.48258 -2.30447 0
M  V30 5951 N 546.897 -0.0685191 -1.57451 0
M  V30 5952 C 547.827 0.89747 -2.15564 0
M  V30 5953 C 548.808 1.31266 -1.08181 0
M  V30 5954 O 549.993 1.38429 -1.36202 0
M  V30 5955 C 547.123 2.16623 -2.71463 0
M  V30 5956 C 546.077 1.89054 -3.83982 0
M  V30 5957 C 545.403 3.22532 -4.26471 0
M  V30 5958 C 546.703 1.1984 -5.08366 0
M  V30 5959 H 548.397 0.413373 -2.96533 0
M  V30 5960 H 545.943 0.197391 -1.42641 0
M  V30 5961 H 547.896 2.84614 -3.10761 0
M  V30 5962 H 546.62 2.67269 -1.8771 0
M  V30 5963 H 545.279 1.23469 -3.45183 0
M  V30 5964 H 544.927 3.71013 -3.39644 0
M  V30 5965 H 544.627 3.04879 -5.02317 0
M  V30 5966 H 546.151 3.91727 -4.68383 0
M  V30 5967 H 547.565 1.77896 -5.45001 0
M  V30 5968 H 545.962 1.12456 -5.89469 0
M  V30 5969 H 547.032 0.176996 -4.84577 0
M  V30 5970 N 548.375 1.56261 0.205012 0
M  V30 5971 C 549.622 1.8004 0.926927 0
M  V30 5972 C 549.95 0.640086 1.83666 0
M  V30 5973 O 549.205 -0.374702 1.92079 0
M  V30 5974 C 549.504 3.09722 1.78345 0
M  V30 5975 C 549.17 4.39082 1.02555 0
M  V30 5976 C 547.832 4.74226 0.816256 0
M  V30 5977 C 550.184 5.18877 0.491559 0
M  V30 5978 C 547.512 5.86668 0.0613287 0
M  V30 5979 C 549.864 6.32105 -0.250107 0
M  V30 5980 C 548.528 6.6584 -0.470508 0
M  V30 5981 H 547.798 0.658812 0.339187 0
M  V30 5982 H 550.445 1.90515 0.19395 0
M  V30 5983 H 548.75 2.9444 2.5848 0
M  V30 5984 H 550.447 3.25324 2.34446 0
M  V30 5985 H 547.037 4.11497 1.19868 0
M  V30 5986 H 551.221 4.92147 0.640684 0
M  V30 5987 H 546.477 6.11283 -0.119501 0
M  V30 5988 H 550.651 6.93157 -0.671307 0
M  V30 5989 H 548.278 7.5281 -1.05739 0
M  V30 5990 N 549.853 -0.472356 1.50355 0
M  V30 5991 C 551.101 -1.22211 1.60962 0
M  V30 5992 C 551.422 -1.92497 0.311439 0
M  V30 5993 O 550.692 -1.8405 -0.671002 0
M  V30 5994 H 549.272 -0.454092 0.593135 0
M  V30 5995 H 551.934 -0.544977 1.87126 0
M  V30 5996 H 551.03 -1.9707 2.42012 0
M  V30 5997 N 551.331 -1.39911 -0.725443 0
M  V30 5998 C 552.579 -1.37382 -1.48224 0
M  V30 5999 C 552.9 0.0264107 -1.94982 0
M  V30 6000 O 552.17 0.979408 -1.6966 0
M  V30 6001 H 550.75 -0.505596 -0.549892 0
M  V30 6002 H 553.412 -1.7487 -0.860608 0
M  V30 6003 H 552.508 -2.04254 -2.3598 0
M  V30 6004 N 552.809 0.956637 -1.25245 0
M  V30 6005 C 553.756 2.053 -1.05454 0
M  V30 6006 C 554.726 1.66062 0.0356889 0
M  V30 6007 O 555.911 1.90415 -0.121099 0
M  V30 6008 C 553.051 3.38391 -0.677191 0
M  V30 6009 C 552.164 3.90758 -1.84206 0
M  V30 6010 C 551.299 5.12165 -1.40926 0
M  V30 6011 C 550.338 5.56757 -2.54338 0
M  V30 6012 N 549.475 6.69376 -2.11848 0
M  V30 6013 H 554.315 2.21562 -1.99284 0
M  V30 6014 H 551.852 1.08578 -0.992434 0
M  V30 6015 H 553.81 4.1488 -0.43938 0
M  V30 6016 H 552.44 3.22021 0.224127 0
M  V30 6017 H 551.492 3.10808 -2.19323 0
M  V30 6018 H 552.804 4.19802 -2.69383 0
M  V30 6019 H 551.958 5.96065 -1.13098 0
M  V30 6020 H 550.697 4.84832 -0.528175 0
M  V30 6021 H 549.702 4.71423 -2.82913 0
M  V30 6022 H 550.927 5.861 -3.43022 0
M  V30 6023 H 548.873 6.43756 -1.26153 0
M  V30 6024 H 548.79 6.97927 -2.90574 0
M  V30 6025 H 550.058 7.5669 -1.87191 0
M  V30 6026 N 554.287 1.06798 1.15896 0
M  V30 6027 C 555.234 0.683314 2.20453 0
M  V30 6028 C 556.204 -0.32255 1.62938 0
M  V30 6029 O 557.389 -0.210276 1.89638 0
M  V30 6030 C 554.529 0.0813266 3.45004 0
M  V30 6031 C 553.642 1.13799 4.16742 0
M  V30 6032 C 552.777 0.501598 5.28826 0
M  V30 6033 C 551.816 1.54144 5.92373 0
M  V30 6034 N 550.953 0.928038 6.9594 0
M  V30 6035 H 555.793 1.57932 2.52708 0
M  V30 6036 H 553.33 0.789544 1.24115 0
M  V30 6037 H 555.288 -0.285274 4.16224 0
M  V30 6038 H 553.918 -0.77806 3.13283 0
M  V30 6039 H 552.97 1.62223 3.44075 0
M  V30 6040 H 554.282 1.92664 4.60089 0
M  V30 6041 H 553.436 0.0823162 6.06644 0
M  V30 6042 H 552.175 -0.318883 4.86656 0
M  V30 6043 H 551.18 1.97056 5.13273 0
M  V30 6044 H 552.405 2.3641 6.36621 0
M  V30 6045 H 550.351 0.12836 6.55874 0
M  V30 6046 H 550.268 1.65401 7.37685 0
M  V30 6047 H 551.536 0.534071 7.77668 0
M  V30 6048 N 555.766 -1.3263 0.851289 0
M  V30 6049 C 557.043 -1.91982 0.374448 0
M  V30 6050 C 557.423 -1.77568 -1.14161 0
M  V30 6051 O 556.771 -1.1717 -1.96172 0
M  V30 6052 C 556.981 -3.38862 0.835088 0
M  V30 6053 C 558.329 -4.15999 0.850309 0
M  V30 6054 O 559.353 -3.47566 0.779505 0
M  V30 6055 O 558.212 -5.38189 0.949481 0
M  V30 6056 H 555.306 -0.819846 0.10854 0
M  V30 6057 H 557.852 -1.41422 0.937966 0
M  V30 6058 H 556.624 -3.43281 1.87814 0
M  V30 6059 H 556.247 -3.96821 0.248833 0
M  V30 6060 N 557.244 -0.608902 -1.45362 0
M  V30 6061 C 558.191 0.109172 -2.30542 0
M  V30 6062 C 559.161 0.858704 -1.42181 0
M  V30 6063 O 560.346 0.844178 -1.71109 0
M  V30 6064 C 557.486 1.09971 -3.27109 0
M  V30 6065 C 556.599 0.350911 -4.30572 0
M  V30 6066 C 555.734 1.33129 -5.14247 0
M  V30 6067 C 554.773 0.570377 -6.09437 0
M  V30 6068 N 553.91 1.5001 -6.85887 0
M  V30 6069 H 558.75 -0.623195 -2.91411 0
M  V30 6070 H 556.287 -0.319122 -1.43597 0
M  V30 6071 H 558.245 1.68714 -3.81564 0
M  V30 6072 H 556.875 1.79947 -2.67991 0
M  V30 6073 H 555.927 -0.352054 -3.78767 0
M  V30 6074 H 557.239 -0.242725 -4.98209 0
M  V30 6075 H 556.393 1.99074 -5.73109 0
M  V30 6076 H 555.132 1.95885 -4.46632 0
M  V30 6077 H 554.137 -0.102702 -5.49704 0
M  V30 6078 H 555.362 -0.0521607 -6.7908 0
M  V30 6079 H 553.308 2.11529 -6.2096 0
M  V30 6080 H 553.225 0.959934 -7.49881 0
M  V30 6081 H 554.493 2.14909 -7.49289 0
M  V30 6082 N 558.722 1.53707 -0.348139 0
M  V30 6083 C 559.685 2.23812 0.494058 0
M  V30 6084 C 560.685 1.23989 1.02388 0
M  V30 6085 O 561.875 1.48395 0.912396 0
M  V30 6086 C 559.007 2.96133 1.68872 0
M  V30 6087 H 560.2 2.99663 -0.119141 0
M  V30 6088 H 557.753 1.55983 -0.0995539 0
M  V30 6089 H 558.488 2.24481 2.34049 0
M  V30 6090 H 558.273 3.69357 1.31596 0
M  V30 6091 H 559.763 3.49475 2.28597 0
M  V30 6092 N 560.2 0.0768682 1.57412 0
M  V30 6093 C 561.616 -0.279772 1.57129 0
M  V30 6094 C 561.816 -1.69688 1.08666 0
M  V30 6095 O 560.872 -2.40953 0.754843 0
M  V30 6096 C 562.185 -0.0848055 3.0058 0
M  V30 6097 C 563.733 -0.153954 3.12621 0
M  V30 6098 C 564.208 0.0127946 4.57998 0
M  V30 6099 N 565.699 -0.0426435 4.6318 0
M  V30 6100 C 566.434 0.0618892 5.73367 0
M  V30 6101 N 565.93 0.220229 6.9245 0
M  V30 6102 N 567.723 0.00446072 5.621 0
M  V30 6103 H 559.874 1.00297 1.87228 0
M  V30 6104 H 562.137 0.391565 0.863354 0
M  V30 6105 H 561.843 0.89325 3.40168 0
M  V30 6106 H 561.717 -0.834961 3.67843 0
M  V30 6107 H 564.104 -1.1225 2.72917 0
M  V30 6108 H 564.185 0.627389 2.47987 0
M  V30 6109 H 563.829 0.978128 4.98392 0
M  V30 6110 H 563.759 -0.788016 5.20671 0
M  V30 6111 H 566.25 -0.163226 3.77547 0
M  V30 6112 H 566.563 0.291999 7.72248 0
M  V30 6113 H 564.908 0.255658 6.9453 0
M  V30 6114 H 568.099 -0.117979 4.67951 0
M  V30 6115 H 568.272 0.0893796 6.47938 0
M  V30 6116 N 561.678 -1.56367 -0.196722 0
M  V30 6117 C 562.908 -1.84371 -0.932254 0
M  V30 6118 C 563.316 -0.657013 -1.77426 0
M  V30 6119 O 562.659 0.383576 -1.79651 0
M  V30 6120 C 562.721 -3.06454 -1.87952 0
M  V30 6121 C 562.385 -4.40425 -1.21962 0
M  V30 6122 C 563.382 -5.16457 -0.597343 0
M  V30 6123 C 561.067 -4.8716 -1.22396 0
M  V30 6124 C 563.061 -6.37399 0.0117913 0
M  V30 6125 C 560.748 -6.08038 -0.610995 0
M  V30 6126 C 561.746 -6.83 0.00580487 0
M  V30 6127 O 561.434 -8.01589 0.609173 0
M  V30 6128 H 561.166 -0.616377 -0.277589 0
M  V30 6129 H 563.72 -2.04329 -0.209452 0
M  V30 6130 H 561.95 -2.82377 -2.64197 0
M  V30 6131 H 563.639 -3.21118 -2.48271 0
M  V30 6132 H 564.405 -4.81445 -0.586142 0
M  V30 6133 H 560.284 -4.2877 -1.69345 0
M  V30 6134 H 563.828 -6.9585 0.493836 0
M  V30 6135 H 559.725 -6.42519 -0.619693 0
M  V30 6136 H 560.493 -8.16935 0.505919 0
M  V30 6137 N 563.156 0.464375 -1.50603 0
M  V30 6138 C 564.405 1.21277 -1.61167 0
M  V30 6139 C 564.718 1.92953 -0.320704 0
M  V30 6140 O 565.924 2.69778 -0.30534 0
M  V30 6141 C 564.38 2.20403 -2.84518 0
M  V30 6142 C 563.988 1.54499 -4.20516 0
M  V30 6143 C 565.732 2.95843 -3.0443 0
M  V30 6144 C 563.639 2.51951 -5.35047 0
M  V30 6145 H 562.569 0.456367 -0.600204 0
M  V30 6146 H 565.22 0.48254 -1.77042 0
M  V30 6147 H 563.602 2.96746 -2.62217 0
M  V30 6148 H 564.776 0.83899 -4.53098 0
M  V30 6149 H 563.091 0.913152 -4.06264 0
M  V30 6150 H 565.688 3.6879 -3.87167 0
M  V30 6151 H 566.031 3.55622 -2.16423 0
M  V30 6152 H 566.564 2.26611 -3.26944 0
M  V30 6153 H 563.303 1.96901 -6.25228 0
M  V30 6154 H 562.823 3.20683 -5.06875 0
M  V30 6155 H 564.502 3.13643 -5.65895 0
M  V30 6156 N 564.634 1.40294 0.718013 0
M  V30 6157 C 565.911 1.2894 1.47084 0
M  V30 6158 C 566.291 -0.0933625 2.10893 0
M  V30 6159 O 565.639 -1.10598 1.99951 0
M  V30 6160 C 565.849 2.4264 2.50852 0
M  V30 6161 C 567.197 2.8276 3.16752 0
M  V30 6162 O 568.221 2.42215 2.61171 0
M  V30 6163 O 567.08 3.528 4.17366 0
M  V30 6164 H 564.174 0.506236 0.653952 0
M  V30 6165 H 566.72 1.52208 0.750394 0
M  V30 6166 H 565.492 3.35009 2.022 0
M  V30 6167 H 565.115 2.21129 3.30435 0
M  V30 6168 N 566.112 -0.949982 1.2575 0
M  V30 6169 C 567.34 -1.72972 1.13527 0
M  V30 6170 C 567.755 -1.8623 -0.310453 0
M  V30 6171 O 567.112 -1.36336 -1.2132 0
M  V30 6172 C 567.163 -3.14108 1.78936 0
M  V30 6173 O 566.884 -3.01493 3.17858 0
M  V30 6174 C 568.385 -4.08338 1.72554 0
M  V30 6175 H 565.605 -0.541864 0.395758 0
M  V30 6176 H 568.149 -1.19151 1.66202 0
M  V30 6177 H 566.304 -3.64858 1.30221 0
M  V30 6178 H 566.718 -3.90559 3.50092 0
M  V30 6179 H 568.192 -5.04963 2.22973 0
M  V30 6180 H 568.669 -4.33742 0.690251 0
M  V30 6181 H 569.275 -3.63506 2.2078 0
M  V30 6182 N 567.59 -1.07411 -1.15328 0
M  V30 6183 C 568.54 -0.664788 -2.18093 0
M  V30 6184 C 569.524 0.310395 -1.57878 0
M  V30 6185 O 570.716 0.124026 -1.76565 0
M  V30 6186 C 567.845 -0.0647822 -3.43239 0
M  V30 6187 C 566.931 -1.06514 -4.10506 0
M  V30 6188 N 567.322 -2.24491 -4.53252 0
M  V30 6189 C 565.62 -0.898613 -4.36853 0
M  V30 6190 C 566.321 -2.8796 -5.05424 0
M  V30 6191 N 565.297 -2.15622 -4.99007 0
M  V30 6192 H 569.099 -1.56333 -2.48872 0
M  V30 6193 H 566.613 -0.947393 -1.31902 0
M  V30 6194 H 568.61 0.246363 -4.16171 0
M  V30 6195 H 567.27 0.828866 -3.13943 0
M  V30 6196 H 568.281 -2.62205 -4.46619 0
M  V30 6197 H 564.958 -0.0579118 -4.1746 0
M  V30 6198 H 566.348 -3.88137 -5.48452 0
M  V30 6199 N 569.068 1.32177 -0.85831 0
M  V30 6200 C 570.016 2.30729 -0.294442 0
M  V30 6201 C 571.01 1.59009 0.584165 0
M  V30 6202 O 572.216 1.73713 0.471562 0
M  V30 6203 H 568.591 0.748097 -0.0765171 0
M  V30 6204 H 570.562 2.75774 -1.1398 0
M  V30 6205 C 569.311 3.44098 0.499208 0
M  V30 6206 H 568.634 3.99449 -0.167579 0
M  V30 6207 H 570.074 4.15202 0.859273 0
M  V30 6208 C 568.533 2.91684 1.68588 0
M  V30 6209 O 569.063 2.89481 2.78503 0
M  V30 6210 N 567.269 2.48036 1.51415 0
M  V30 6211 H 566.816 2.50027 0.620006 0
M  V30 6212 H 566.774 2.13322 2.30957 0
M  V30 6213 N 570.547 0.616602 1.45037 0
M  V30 6214 C 571.963 0.280994 1.57107 0
M  V30 6215 C 572.163 -1.21627 1.60653 0
M  V30 6216 O 571.219 -1.9997 1.54169 0
M  V30 6217 C 572.532 0.960116 2.8496 0
M  V30 6218 C 574.08 0.936884 2.98649 0
M  V30 6219 C 574.555 1.59619 4.29285 0
M  V30 6220 N 576.046 1.5621 4.36065 0
M  V30 6221 C 576.781 2.04131 5.35834 0
M  V30 6222 N 576.277 2.60177 6.4209 0
M  V30 6223 N 578.07 1.94845 5.27249 0
M  V30 6224 H 570.221 1.58867 1.40979 0
M  V30 6225 H 572.484 0.666024 0.674623 0
M  V30 6226 H 572.19 2.01473 2.88273 0
M  V30 6227 H 572.064 0.488921 3.74018 0
M  V30 6228 H 574.451 -0.109209 2.94898 0
M  V30 6229 H 574.532 1.44643 2.10979 0
M  V30 6230 H 574.176 2.64166 4.33796 0
M  V30 6231 H 574.106 1.06159 5.15789 0
M  V30 6232 H 576.597 1.15276 3.59889 0
M  V30 6233 H 576.91 2.94513 7.1448 0
M  V30 6234 H 575.255 2.64221 6.42816 0
M  V30 6235 H 578.446 1.50792 4.43147 0
M  V30 6236 H 578.619 2.32504 6.04852 0
M  V30 6237 N 572.025 -1.5352 0.356285 0
M  V30 6238 C 573.271 -2.01414 -0.236653 0
M  V30 6239 C 573.604 -1.24339 -1.49176 0
M  V30 6240 O 572.879 -0.334496 -1.91602 0
M  V30 6241 C 573.162 -3.56059 -0.537982 0
M  V30 6242 C 573.015 -4.43835 0.730112 0
M  V30 6243 C 574.334 -4.19127 -1.34239 0
M  V30 6244 H 571.453 -0.732135 -0.0845386 0
M  V30 6245 H 574.095 -1.83854 0.479341 0
M  V30 6246 H 572.245 -3.71153 -1.14795 0
M  V30 6247 H 573.917 -4.40555 1.36782 0
M  V30 6248 H 572.16 -4.1218 1.3524 0
M  V30 6249 H 572.831 -5.49958 0.474358 0
M  V30 6250 H 575.307 -4.07809 -0.826498 0
M  V30 6251 H 574.183 -5.27378 -1.52198 0
M  V30 6252 H 574.444 -3.74581 -2.34822 0
M  V30 6253 N 573.503 -0.0852151 -1.57369 0
M  V30 6254 C 574.728 0.592872 -1.98746 0
M  V30 6255 C 575.153 1.61538 -0.963689 0
M  V30 6256 O 574.511 1.81168 0.069071 0
M  V30 6257 C 574.559 1.22599 -3.39119 0
M  V30 6258 O 573.663 2.34185 -3.39457 0
M  V30 6259 H 573.004 0.151314 -0.646529 0
M  V30 6260 H 575.534 -0.163703 -2.03944 0
M  V30 6261 H 575.544 1.56965 -3.76598 0
M  V30 6262 H 574.219 0.476831 -4.13158 0
M  V30 6263 H 572.796 2.01512 -3.13763 0
M  V30 6264 N 574.981 1.5647 0.188427 0
M  V30 6265 C 575.928 1.95073 1.23349 0
M  V30 6266 C 576.898 0.812238 1.44886 0
M  V30 6267 O 578.083 1.07095 1.57909 0
M  V30 6268 C 575.223 2.30124 2.57171 0
M  V30 6269 C 574.336 3.57069 2.43157 0
M  V30 6270 C 573.471 3.81411 3.69729 0
M  V30 6271 C 572.51 5.0176 3.50575 0
M  V30 6272 N 571.647 5.22321 4.69175 0
M  V30 6273 H 576.487 2.84171 0.89728 0
M  V30 6274 H 574.024 1.40623 0.431683 0
M  V30 6275 H 575.982 2.48463 3.35145 0
M  V30 6276 H 574.612 1.44159 2.88822 0
M  V30 6277 H 573.664 3.4674 1.56447 0
M  V30 6278 H 574.976 4.452 2.24942 0
M  V30 6279 H 574.13 4.00026 4.56141 0
M  V30 6280 H 572.869 2.91624 3.90905 0
M  V30 6281 H 571.874 4.83061 2.62549 0
M  V30 6282 H 573.099 5.93063 3.30837 0
M  V30 6283 H 571.045 4.35483 4.90602 0
M  V30 6284 H 570.962 6.04643 4.53809 0
M  V30 6285 H 572.23 5.45401 5.56919 0
M  V30 6286 N 576.459 -0.456382 1.50847 0
M  V30 6287 C 577.369 -1.57805 1.73594 0
M  V30 6288 C 578.385 -1.62599 0.619476 0
M  V30 6289 O 579.561 -1.80195 0.899532 0
M  V30 6290 C 576.626 -2.93926 1.8387 0
M  V30 6291 C 575.687 -2.99402 3.07663 0
M  V30 6292 C 574.92 -4.29031 3.1744 0
M  V30 6293 O 575.143 -5.20358 2.33631 0
M  V30 6294 O 574.077 -4.40401 4.10281 0
M  V30 6295 H 577.903 -1.41531 2.68705 0
M  V30 6296 H 575.488 -0.637422 1.3512 0
M  V30 6297 H 577.37 -3.74747 1.92725 0
M  V30 6298 H 576.045 -3.10368 0.91944 0
M  V30 6299 H 574.952 -2.17606 3.043 0
M  V30 6300 H 576.285 -2.87901 3.99216 0
M  V30 6301 N 577.937 -1.40673 -0.710563 0
M  V30 6302 C 579.214 -1.29718 -1.46398 0
M  V30 6303 C 579.594 0.082177 -2.1094 0
M  V30 6304 O 578.942 1.09536 -2.00534 0
M  V30 6305 C 579.152 -2.43967 -2.49562 0
M  V30 6306 C 580.5 -2.84436 -3.15248 0
M  V30 6307 O 581.524 -2.43597 -2.59883 0
M  V30 6308 O 580.383 -3.55008 -4.1549 0
M  V30 6309 H 577.477 -0.509697 -0.651258 0
M  V30 6310 H 580.023 -1.52603 -0.742312 0
M  V30 6311 H 578.795 -3.36076 -2.0042 0
M  V30 6312 H 578.418 -2.22879 -3.29258 0
M  V30 6313 N 579.415 0.9433 -1.26252 0
M  V30 6314 C 580.325 2.07532 -1.09397 0
M  V30 6315 C 581.341 1.73977 -0.0280449 0
M  V30 6316 O 582.517 2.00067 -0.231337 0
M  V30 6317 C 579.582 3.39002 -0.726523 0
M  V30 6318 C 578.643 3.86353 -1.87163 0
M  V30 6319 C 577.876 5.11549 -1.52162 0
M  V30 6320 O 578.099 5.68834 -0.422385 0
M  V30 6321 O 577.033 5.53889 -2.35565 0
M  V30 6322 H 580.859 2.24658 -2.04359 0
M  V30 6323 H 578.444 1.05988 -1.05295 0
M  V30 6324 H 580.326 4.18 -0.534236 0
M  V30 6325 H 579.001 3.2312 0.193721 0
M  V30 6326 H 577.908 3.0831 -2.11886 0
M  V30 6327 H 579.241 4.06752 -2.77152 0
M  V30 6328 N 580.893 1.08022 1.14757 0
M  V30 6329 C 582.17 0.720386 1.81851 0
M  V30 6330 C 582.55 -0.796375 1.95502 0
M  V30 6331 O 581.898 -1.71339 1.51179 0
M  V30 6332 C 582.108 1.44273 3.17783 0
M  V30 6333 C 583.456 1.59925 3.93331 0
M  V30 6334 O 584.48 1.40407 3.2736 0
M  V30 6335 O 583.339 1.92096 5.11626 0
M  V30 6336 H 580.433 0.257142 0.786007 0
M  V30 6337 H 582.979 1.18155 1.21809 0
M  V30 6338 H 581.751 2.47618 3.02987 0
M  V30 6339 H 581.374 0.97279 3.85516 0
M  V30 6340 N 582.371 -1.3172 0.865308 0
M  V30 6341 C 583.62 -1.96145 0.470098 0
M  V30 6342 C 583.933 -1.69182 -0.981674 0
M  V30 6343 O 585.139 -2.27431 -1.48281 0
M  V30 6344 C 583.595 -3.51129 0.789732 0
M  V30 6345 C 583.203 -3.86938 2.25795 0
M  V30 6346 C 584.947 -4.2197 0.462765 0
M  V30 6347 C 582.854 -5.35012 2.52024 0
M  V30 6348 H 581.784 -0.734105 0.172065 0
M  V30 6349 H 584.435 -1.49959 1.05757 0
M  V30 6350 H 582.817 -3.95781 0.131571 0
M  V30 6351 H 583.991 -3.5326 2.95879 0
M  V30 6352 H 582.306 -3.29149 2.55049 0
M  V30 6353 H 584.903 -5.30904 0.636019 0
M  V30 6354 H 585.246 -4.12005 -0.59645 0
M  V30 6355 H 585.779 -3.82936 1.07727 0
M  V30 6356 H 582.518 -5.50008 3.56611 0
M  V30 6357 H 582.038 -5.70058 1.8653 0
M  V30 6358 H 583.717 -6.0222 2.36515 0
M  V30 6359 N 583.85 -0.624285 -1.44708 0
M  V30 6360 C 585.08 -0.132726 -2.06173 0
M  V30 6361 C 585.488 1.19513 -1.46674 0
M  V30 6362 O 584.831 1.74254 -0.581491 0
M  V30 6363 C 584.893 0.0636732 -3.59444 0
M  V30 6364 C 584.557 -1.18496 -4.4137 0
M  V30 6365 C 585.553 -2.10706 -4.75288 0
M  V30 6366 C 583.239 -1.41846 -4.81856 0
M  V30 6367 C 585.233 -3.24582 -5.48567 0
M  V30 6368 C 582.92 -2.5602 -5.54885 0
M  V30 6369 C 583.918 -3.47215 -5.88159 0
M  V30 6370 O 583.606 -4.59399 -6.59703 0
M  V30 6371 H 583.338 -0.0737313 -0.671967 0
M  V30 6372 H 585.892 -0.856789 -1.86677 0
M  V30 6373 H 584.122 0.842809 -3.77404 0
M  V30 6374 H 585.811 0.508924 -4.02697 0
M  V30 6375 H 586.577 -1.93898 -4.44554 0
M  V30 6376 H 582.456 -0.717556 -4.55381 0
M  V30 6377 H 586 -3.95785 -5.74456 0
M  V30 6378 H 581.897 -2.72774 -5.85034 0
M  V30 6379 H 582.665 -4.58293 -6.78166 0
M  V30 6380 N 585.328 1.53329 -0.364422 0
M  V30 6381 C 586.275 2.25698 0.482607 0
M  V30 6382 C 587.245 1.26325 1.07848 0
M  V30 6383 O 588.43 1.55104 1.11119 0
M  V30 6384 C 585.57 3.04873 1.61699 0
M  V30 6385 C 584.683 4.19135 1.0464 0
M  V30 6386 C 583.818 4.85754 2.14979 0
M  V30 6387 C 582.857 5.9205 1.5538 0
M  V30 6388 N 581.994 6.52365 2.59547 0
M  V30 6389 H 586.834 2.97666 -0.141032 0
M  V30 6390 H 584.371 1.46875 -0.0813692 0
M  V30 6391 H 586.329 3.49051 2.28516 0
M  V30 6392 H 584.959 2.35162 2.2113 0
M  V30 6393 H 584.011 3.79451 0.268553 0
M  V30 6394 H 585.323 4.95525 0.570653 0
M  V30 6395 H 584.477 5.3311 2.89619 0
M  V30 6396 H 583.216 4.08834 2.65906 0
M  V30 6397 H 582.221 5.44058 0.792549 0
M  V30 6398 H 583.446 6.7089 1.0528 0
M  V30 6399 H 581.392 5.78298 3.09689 0
M  V30 6400 H 581.309 7.2429 2.16655 0
M  V30 6401 H 582.577 7.0437 3.33892 0
M  V30 6402 N 586.806 0.0935595 1.57322 0
M  V30 6403 C 587.736 -0.863062 2.16964 0
M  V30 6404 C 588.717 -1.29528 1.10256 0
M  V30 6405 O 589.902 -1.36245 1.38387 0
M  V30 6406 C 587.032 -2.12276 2.74875 0
M  V30 6407 C 585.986 -1.82921 3.86942 0
M  V30 6408 C 585.312 -3.15707 4.31548 0
M  V30 6409 C 586.612 -1.11737 5.10208 0
M  V30 6410 H 588.306 -0.366145 2.97153 0
M  V30 6411 H 585.852 -0.174673 1.42937 0
M  V30 6412 H 587.805 -2.79634 3.1525 0
M  V30 6413 H 586.529 -2.64248 1.91938 0
M  V30 6414 H 585.188 -1.17961 3.47103 0
M  V30 6415 H 584.836 -3.65563 3.45504 0
M  V30 6416 H 584.536 -2.96849 5.07104 0
M  V30 6417 H 586.06 -3.84226 4.74555 0
M  V30 6418 H 587.474 -1.69203 5.47762 0
M  V30 6419 H 585.871 -1.03064 5.91183 0
M  V30 6420 H 586.941 -0.0998818 4.84797 0
M  V30 6421 N 588.284 -1.56567 -0.180126 0
M  V30 6422 C 589.7 -1.50488 -0.531559 0
M  V30 6423 C 589.9 -0.796267 -1.851 0
M  V30 6424 O 588.956 -0.352978 -2.50021 0
M  V30 6425 C 590.269 -2.95201 -0.572456 0
M  V30 6426 C 591.817 -3.05957 -0.660264 0
M  V30 6427 C 592.292 -4.5211 -0.732135 0
M  V30 6428 N 593.783 -4.56322 -0.795262 0
M  V30 6429 C 594.518 -5.66742 -0.871296 0
M  V30 6430 N 594.014 -6.86815 -0.908708 0
M  V30 6431 N 595.807 -5.54691 -0.909639 0
M  V30 6432 H 587.958 -2.01045 0.685165 0
M  V30 6433 H 590.221 -0.915536 0.245962 0
M  V30 6434 H 589.927 -3.50165 0.328208 0
M  V30 6435 H 589.801 -3.49369 -1.422 0
M  V30 6436 H 592.188 -2.51032 -1.55136 0
M  V30 6437 H 592.269 -2.54888 0.215783 0
M  V30 6438 H 591.913 -5.07664 0.154664 0
M  V30 6439 H 591.843 -5.00926 -1.6242 0
M  V30 6440 H 594.334 -3.69868 -0.77499 0
M  V30 6441 H 594.647 -7.66718 -0.967654 0
M  V30 6442 H 592.992 -6.89443 -0.877132 0
M  V30 6443 H 596.183 -4.59804 -0.877353 0
M  V30 6444 H 596.356 -6.40768 -0.965434 0
M  V30 6445 N 589.762 0.448376 -1.51087 0
M  V30 6446 C 590.712 1.54156 -1.67988 0
M  V30 6447 C 591.696 1.5178 -0.534015 0
M  V30 6448 O 592.888 1.58419 -0.789448 0
M  V30 6449 C 590.017 2.92437 -1.79822 0
M  V30 6450 C 589.103 2.99611 -3.00157 0
M  V30 6451 N 589.494 2.7655 -4.23502 0
M  V30 6452 C 587.792 3.30764 -2.99184 0
M  V30 6453 C 588.493 2.89281 -5.0467 0
M  V30 6454 N 587.469 3.20473 -4.39088 0
M  V30 6455 H 591.271 1.35061 -2.61028 0
M  V30 6456 H 588.785 0.655504 -1.48583 0
M  V30 6457 H 590.782 3.71068 -1.90037 0
M  V30 6458 H 589.442 3.1256 -0.879554 0
M  V30 6459 H 590.453 2.5169 -4.52628 0
M  V30 6460 H 587.13 3.56732 -2.16907 0
M  V30 6461 H 588.52 2.75499 -6.12821 0
M  V30 6462 N 591.24 1.41047 0.703093 0
M  V30 6463 C 592.517 1.30493 1.45708 0
M  V30 6464 C 592.897 -0.0709892 2.10981 0
M  V30 6465 O 592.245 -1.08471 2.01113 0
M  V30 6466 C 592.455 2.45287 2.48265 0
M  V30 6467 C 593.803 2.86104 3.13735 0
M  V30 6468 O 594.827 2.44971 2.58587 0
M  V30 6469 O 593.686 3.57206 4.13601 0
M  V30 6470 H 590.78 0.513144 0.648546 0
M  V30 6471 H 593.326 1.52995 0.734208 0
M  V30 6472 H 592.098 3.37135 1.98635 0
M  V30 6473 H 591.721 2.24622 3.28071 0
M  V30 6474 N 592.718 -0.936591 1.26751 0
M  V30 6475 C 593.648 -2.05315 1.11212 0
M  V30 6476 C 594.629 -1.70092 0.0160262 0
M  V30 6477 O 595.814 -1.93279 0.188894 0
M  V30 6478 C 592.944 -3.39123 0.749171 0
M  V30 6479 C 591.898 -3.88425 1.79751 0
M  V30 6480 C 591.224 -5.18936 1.28876 0
M  V30 6481 C 592.524 -4.12798 3.19992 0
M  V30 6482 H 594.218 -2.18573 2.04613 0
M  V30 6483 H 591.764 -1.05027 0.985159 0
M  V30 6484 H 593.717 -4.16704 0.627323 0
M  V30 6485 H 592.441 -3.25855 -0.220543 0
M  V30 6486 H 591.1 -3.13028 1.90811 0
M  V30 6487 H 590.748 -5.02051 0.308757 0
M  V30 6488 H 590.448 -5.52892 1.98958 0
M  V30 6489 H 591.972 -5.99096 1.17967 0
M  V30 6490 H 593.386 -4.80977 3.11983 0
M  V30 6491 H 591.783 -4.58044 3.87705 0
M  V30 6492 H 592.853 -3.18412 3.65707 0
M  V30 6493 N 594.196 -1.08629 -1.14182 0
M  V30 6494 C 595.143 -0.718299 -2.19338 0
M  V30 6495 C 596.113 0.296587 -1.63431 0
M  V30 6496 O 597.298 0.180079 -1.89948 0
M  V30 6497 C 594.438 -0.136203 -3.44831 0
M  V30 6498 C 593.551 -1.20414 -4.14879 0
M  V30 6499 C 592.686 -0.585666 -5.27962 0
M  V30 6500 C 591.725 -1.63548 -5.89846 0
M  V30 6501 N 590.862 -1.03864 -6.94375 0
M  V30 6502 H 595.702 -1.61932 -2.50164 0
M  V30 6503 H 593.239 -0.80919 -1.22844 0
M  V30 6504 H 595.197 0.219021 -4.16625 0
M  V30 6505 H 593.827 0.728121 -3.14481 0
M  V30 6506 H 592.879 -1.67676 -3.41451 0
M  V30 6507 H 594.191 -1.99959 -4.56966 0
M  V30 6508 H 593.345 -0.178818 -6.06436 0
M  V30 6509 H 592.084 0.24142 -4.87102 0
M  V30 6510 H 591.089 -2.05197 -5.10073 0
M  V30 6511 H 592.314 -2.46509 -6.3278 0
M  V30 6512 H 590.26 -0.232687 -6.55587 0
M  V30 6513 H 590.177 -1.77116 -7.3496 0
M  V30 6514 H 591.445 -0.657724 -7.7672 0
M  V30 6515 N 595.674 1.31259 -0.872281 0
M  V30 6516 C 596.621 2.28459 -0.327857 0
M  V30 6517 C 597.591 1.55831 0.574957 0
M  V30 6518 O 598.776 1.83965 0.506101 0
M  V30 6519 C 595.916 3.41985 0.462644 0
M  V30 6520 C 595.029 4.29458 -0.467949 0
M  V30 6521 C 594.164 5.30131 0.336903 0
M  V30 6522 C 593.203 6.0925 -0.58997 0
M  V30 6523 N 592.34 7.01872 0.178775 0
M  V30 6524 H 597.18 2.74414 -1.16193 0
M  V30 6525 H 594.717 1.34994 -0.584376 0
M  V30 6526 H 596.675 4.06547 0.936759 0
M  V30 6527 H 595.305 2.97134 1.2614 0
M  V30 6528 H 594.357 3.65318 -1.06052 0
M  V30 6529 H 595.669 4.84677 -1.17856 0
M  V30 6530 H 594.823 6.0038 0.873427 0
M  V30 6531 H 593.562 4.75573 1.08079 0
M  V30 6532 H 592.567 5.37889 -1.13823 0
M  V30 6533 H 593.792 6.65894 -1.33275 0
M  V30 6534 H 591.738 6.49721 0.905435 0
M  V30 6535 H 591.655 7.54522 -0.472452 0
M  V30 6536 H 592.923 7.76382 0.696454 0
M  V30 6537 N 597.152 0.631951 1.44375 0
M  V30 6538 C 598.38 0.143867 2.06399 0
M  V30 6539 C 598.795 -1.18188 1.47231 0
M  V30 6540 O 598.152 -1.72511 0.595498 0
M  V30 6541 C 598.203 0.0238253 3.61492 0
M  V30 6542 O 597.924 1.29715 4.18456 0
M  V30 6543 C 599.425 -0.492856 4.40552 0
M  V30 6544 H 596.645 0.0800542 0.666207 0
M  V30 6545 H 599.189 0.866586 1.85231 0
M  V30 6546 H 597.344 -0.649338 3.81919 0
M  V30 6547 H 597.758 1.14252 5.11905 0
M  V30 6548 H 599.232 -0.525861 5.49489 0
M  V30 6549 H 599.709 -1.52006 4.12057 0
M  V30 6550 H 600.315 0.147085 4.25046 0
M  V30 6551 N 598.631 -1.53133 0.372548 0
M  V30 6552 C 599.856 -2.0625 -0.218098 0
M  V30 6553 C 600.281 -1.24375 -1.41111 0
M  V30 6554 O 599.639 -0.264554 -1.79359 0
M  V30 6555 C 599.687 -3.55858 -0.582876 0
M  V30 6556 O 598.791 -3.76667 -1.67917 0
M  V30 6557 H 598.132 -0.663317 -0.030104 0
M  V30 6558 H 600.662 -1.97477 0.535169 0
M  V30 6559 H 600.672 -3.99007 -0.851925 0
M  V30 6560 H 599.347 -4.14892 0.289428 0
M  V30 6561 H 597.924 -3.45413 -1.40513 0
M  V30 6562 N 600.109 -0.101901 -1.5727 0
M  V30 6563 C 601.358 0.559922 -1.93772 0
M  V30 6564 C 601.671 1.68913 -0.98629 0
M  V30 6565 O 602.877 2.41256 -1.24529 0
M  V30 6566 C 601.333 1.04739 -3.44322 0
M  V30 6567 C 600.941 -0.05243 -4.47969 0
M  V30 6568 C 602.685 1.68157 -3.89774 0
M  V30 6569 C 600.592 0.450781 -5.8968 0
M  V30 6570 H 599.522 0.212931 -0.723309 0
M  V30 6571 H 602.173 -0.179001 -1.82625 0
M  V30 6572 H 600.555 1.84021 -3.50645 0
M  V30 6573 H 601.729 -0.828157 -4.53297 0
M  V30 6574 H 600.044 -0.592202 -4.12167 0
M  V30 6575 H 602.641 2.0689 -4.93052 0
M  V30 6576 H 602.984 2.55338 -3.28798 0
M  V30 6577 H 603.517 0.954453 -3.8618 0
M  V30 6578 H 600.256 -0.38458 -6.54371 0
M  V30 6579 H 599.776 1.19336 -5.87809 0
M  V30 6580 H 601.455 0.917555 -6.40461 0
M  V30 6581 N 601.587 1.56661 0.17182 0
M  V30 6582 C 602.815 1.861 0.904115 0
M  V30 6583 C 603.23 0.687227 1.75848 0
M  V30 6584 O 602.587 -0.343671 1.79235 0
M  V30 6585 C 602.638 3.14568 1.78127 0
M  V30 6586 O 602.359 4.27422 0.961366 0
M  V30 6587 C 603.86 3.5735 2.62327 0
M  V30 6588 H 601.08 0.617445 0.262684 0
M  V30 6589 H 603.624 2.03775 0.172068 0
M  V30 6590 H 601.779 2.98721 2.46666 0
M  V30 6591 H 602.193 5.00725 1.56123 0
M  V30 6592 H 603.667 4.50144 3.1949 0
M  V30 6593 H 604.144 2.81445 3.37173 0
M  V30 6594 H 604.75 3.75807 1.99121 0
M  V30 6595 N 603.065 -0.440357 1.51323 0
M  V30 6596 C 603.997 -1.55254 1.68609 0
M  V30 6597 C 605.01 -1.52614 0.566812 0
M  V30 6598 O 606.199 -1.57445 0.841032 0
M  V30 6599 C 603.299 -2.94169 1.68279 0
M  V30 6600 C 602.472 -3.21346 2.96742 0
M  V30 6601 C 601.531 -4.3997 2.8864 0
M  V30 6602 O 600.557 -4.38771 3.62586 0
M  V30 6603 N 601.759 -5.43367 2.04285 0
M  V30 6604 H 604.524 -1.40831 2.6455 0
M  V30 6605 H 602.085 -0.629251 1.49171 0
M  V30 6606 H 604.077 -3.71543 1.60431 0
M  V30 6607 H 602.647 -3.02205 0.799441 0
M  V30 6608 H 601.867 -2.32299 3.18482 0
M  V30 6609 H 603.155 -3.3633 3.81785 0
M  V30 6610 H 602.553 -5.47176 1.43578 0
M  V30 6611 H 601.11 -6.19605 2.02318 0
M  V30 6612 N 604.543 -1.41418 -0.695603 0
M  V30 6613 C 605.475 -1.39195 -1.82092 0
M  V30 6614 C 606.488 -0.294132 -1.60121 0
M  V30 6615 O 607.677 -0.555854 -1.69625 0
M  V30 6616 C 604.777 -1.14828 -3.18854 0
M  V30 6617 C 603.95 -2.36649 -3.67853 0
M  V30 6618 C 603.009 -2.08139 -4.83285 0
M  V30 6619 O 602.035 -2.81177 -4.94902 0
M  V30 6620 N 603.237 -1.07162 -5.70523 0
M  V30 6621 H 606.002 -2.36185 -1.84491 0
M  V30 6622 H 603.563 -1.3603 -0.877923 0
M  V30 6623 H 605.555 -0.937075 -3.93702 0
M  V30 6624 H 604.125 -0.264358 -3.1148 0
M  V30 6625 H 603.345 -2.73472 -2.83913 0
M  V30 6626 H 604.633 -3.17816 -3.97329 0
M  V30 6627 H 604.031 -0.467124 -5.63768 0
M  V30 6628 H 602.588 -0.920311 -6.4527 0
M  V30 6629 N 606.021 0.929856 -1.27246 0
M  V30 6630 C 607.432 1.49223 -1.12203 0
M  V30 6631 C 607.783 1.93989 0.293731 0
M  V30 6632 O 606.908 1.80978 1.18642 0
M  V30 6633 C 607.503 2.71198 -2.0307 0
M  V30 6634 C 606.062 3.23666 -1.92139 0
M  V30 6635 C 605.209 1.96409 -1.95752 0
M  V30 6636 H 608.16 0.744181 -1.4017 0
M  V30 6637 H 608.181 3.45905 -1.58524 0
M  V30 6638 H 607.693 2.38585 -3.06102 0
M  V30 6639 H 605.794 3.61042 -0.920834 0
M  V30 6640 H 605.907 3.90006 -2.78267 0
M  V30 6641 H 604.271 2.12806 -1.39949 0
M  V30 6642 H 605.054 1.66113 -3.00436 0
M  V30 6643 N 607.499 1.09233 1.13605 0
M  V30 6644 C 608.724 0.849067 1.89224 0
M  V30 6645 C 609.149 -0.593875 1.78479 0
M  V30 6646 O 608.507 -1.41703 1.13092 0
M  V30 6647 C 608.555 1.28642 3.36873 0
M  V30 6648 O 607.659 0.44363 4.10007 0
M  V30 6649 H 607 0.30767 0.588417 0
M  V30 6650 H 609.53 1.45595 1.43748 0
M  V30 6651 H 609.54 1.27096 3.87699 0
M  V30 6652 H 608.215 2.33729 3.44011 0
M  V30 6653 H 606.792 0.523241 3.69211 0
M  V30 6654 N 608.977 -1.30795 0.87923 0
M  V30 6655 C 609.924 -2.28282 0.339968 0
M  V30 6656 C 610.894 -1.56134 -0.566685 0
M  V30 6657 O 612.079 -1.84231 -0.496338 0
M  V30 6658 C 609.219 -3.42225 -0.444501 0
M  V30 6659 C 608.332 -4.29204 0.490717 0
M  V30 6660 C 607.467 -5.30302 -0.308784 0
M  V30 6661 C 606.506 -6.08929 0.622272 0
M  V30 6662 N 605.643 -7.01957 -0.14155 0
M  V30 6663 H 610.483 -2.73794 1.17647 0
M  V30 6664 H 608.02 -1.34682 0.591527 0
M  V30 6665 H 609.978 -4.07038 -0.915186 0
M  V30 6666 H 608.608 -2.97799 -1.24562 0
M  V30 6667 H 607.66 -3.6475 1.07988 0
M  V30 6668 H 608.972 -4.84045 1.20425 0
M  V30 6669 H 608.126 -6.00835 -0.841575 0
M  V30 6670 H 606.865 -4.7614 -1.05556 0
M  V30 6671 H 605.87 -5.37278 1.16674 0
M  V30 6672 H 607.095 -6.65178 1.36804 0
M  V30 6673 H 605.041 -6.50192 -0.870966 0
M  V30 6674 H 604.958 -7.54261 0.51246 0
M  V30 6675 H 606.226 -7.76741 -0.655271 0
M  V30 6676 N 610.455 -0.639598 -1.44038 0
M  V30 6677 C 611.405 0.0823038 -2.27851 0
M  V30 6678 C 612.389 0.807991 -1.39141 0
M  V30 6679 O 613.581 0.692702 -1.62882 0
M  V30 6680 C 610.71 1.05742 -3.26609 0
M  V30 6681 C 609.796 0.330911 -4.22807 0
M  V30 6682 N 610.187 -0.645126 -5.01669 0
M  V30 6683 C 608.485 0.574214 -4.42288 0
M  V30 6684 C 609.186 -1.07513 -5.71678 0
M  V30 6685 N 608.162 -0.412164 -5.42035 0
M  V30 6686 H 611.964 -0.666861 -2.86234 0
M  V30 6687 H 609.478 -0.465777 -1.55577 0
M  V30 6688 H 611.475 1.58927 -3.85419 0
M  V30 6689 H 610.135 1.80679 -2.69787 0
M  V30 6690 H 611.146 -1.02329 -5.0769 0
M  V30 6691 H 607.823 1.30581 -3.96554 0
M  V30 6692 H 609.213 -1.88196 -6.45005 0
M  V30 6693 N 611.933 1.52934 -0.380664 0
M  V30 6694 C 613.349 1.59571 -0.0302429 0
M  V30 6695 C 613.549 1.39509 1.45394 0
M  V30 6696 O 612.605 1.20777 2.21741 0
M  V30 6697 C 613.918 2.96519 -0.499691 0
M  V30 6698 C 615.466 3.09672 -0.455204 0
M  V30 6699 C 615.941 4.49056 -0.900703 0
M  V30 6700 N 617.432 4.55215 -0.856367 0
M  V30 6701 C 618.167 5.61282 -1.17259 0
M  V30 6702 N 617.663 6.75035 -1.55885 0
M  V30 6703 N 619.456 5.51343 -1.0944 0
M  V30 6704 H 611.607 1.64224 -1.347 0
M  V30 6705 H 613.87 0.771033 -0.551554 0
M  V30 6706 H 613.576 3.16388 -1.53595 0
M  V30 6707 H 613.45 3.77052 0.105789 0
M  V30 6708 H 615.837 2.89504 0.571949 0
M  V30 6709 H 615.918 2.31113 -1.09638 0
M  V30 6710 H 615.562 4.69964 -1.92604 0
M  V30 6711 H 615.492 5.26068 -0.236629 0
M  V30 6712 H 617.983 3.73546 -0.572013 0
M  V30 6713 H 618.296 7.51926 -1.784 0
M  V30 6714 H 616.641 6.76388 -1.59764 0
M  V30 6715 H 619.832 4.61356 -0.791713 0
M  V30 6716 H 620.005 6.33905 -1.34417 0
M  V30 6717 N 613.412 0.11024 1.57214 0
M  V30 6718 C 614.64 -0.557834 1.99238 0
M  V30 6719 C 615.055 -1.60778 0.989734 0
M  V30 6720 O 614.412 -1.82491 -0.0186092 0
M  V30 6721 C 614.463 -1.19189 3.41286 0
M  V30 6722 O 614.184 -0.183919 4.37714 0
M  V30 6723 C 615.685 -1.94413 3.98395 0
M  V30 6724 H 612.905 -0.148392 0.654386 0
M  V30 6725 H 615.449 0.193996 2.03578 0
M  V30 6726 H 613.604 -1.89456 3.37913 0
M  V30 6727 H 614.018 -0.643475 5.20538 0
M  V30 6728 H 615.492 -2.34116 4.99894 0
M  V30 6729 H 615.969 -2.81592 3.3705 0
M  V30 6730 H 616.575 -1.28928 4.05287 0
M  V30 6731 N 614.89 -1.56749 -0.16351 0
M  V30 6732 C 616.167 -1.73321 -0.906599 0
M  V30 6733 C 616.547 -0.673779 -2.00059 0
M  V30 6734 O 615.895 0.310121 -2.26386 0
M  V30 6735 C 616.105 -3.168 -1.46419 0
M  V30 6736 C 617.453 -3.77993 -1.93407 0
M  V30 6737 O 618.477 -3.20127 -1.56196 0
M  V30 6738 O 617.336 -4.79615 -2.61976 0
M  V30 6739 H 614.43 -0.708073 -0.427272 0
M  V30 6740 H 616.976 -1.69029 -0.150727 0
M  V30 6741 H 615.748 -3.85396 -0.677189 0
M  V30 6742 H 615.371 -3.2545 -2.28403 0
M  V30 6743 N 616.368 0.432326 -1.51554 0
M  V30 6744 C 617.278 1.55023 -1.76082 0
M  V30 6745 C 618.294 1.61593 -0.645265 0
M  V30 6746 O 619.47 1.78742 -0.928086 0
M  V30 6747 C 616.535 2.90964 -1.88523 0
M  V30 6748 C 615.596 2.9447 -3.12388 0
M  V30 6749 C 614.829 4.23926 -3.24225 0
M  V30 6750 O 615.052 5.16576 -2.4188 0
M  V30 6751 O 613.986 4.33818 -4.17235 0
M  V30 6752 H 617.812 1.37238 -2.70923 0
M  V30 6753 H 615.397 0.615845 -1.36117 0
M  V30 6754 H 617.279 3.71633 -1.98662 0
M  V30 6755 H 615.954 3.08865 -0.9687 0
M  V30 6756 H 614.861 2.12737 -3.07723 0
M  V30 6757 H 616.194 2.81514 -4.03746 0
M  V30 6758 N 617.846 1.41785 0.688094 0
M  V30 6759 C 618.756 1.46596 1.83158 0
M  V30 6760 C 619.772 0.355862 1.70322 0
M  V30 6761 O 620.948 0.604737 1.92106 0
M  V30 6762 C 618.013 1.35322 3.192 0
M  V30 6763 C 617.074 2.56711 3.4409 0
M  V30 6764 C 616.307 2.45965 4.73642 0
M  V30 6765 O 616.53 1.48827 5.50642 0
M  V30 6766 O 615.464 3.35859 4.99482 0
M  V30 6767 H 619.29 2.43083 1.82056 0
M  V30 6768 H 616.875 1.23404 0.842126 0
M  V30 6769 H 618.757 1.31347 4.00407 0
M  V30 6770 H 617.432 0.419536 3.2097 0
M  V30 6771 H 616.339 2.66262 2.62784 0
M  V30 6772 H 617.672 3.48933 3.47141 0
M  V30 6773 N 619.324 -0.923095 1.27737 0
M  V30 6774 C 620.254 -2.04124 1.13383 0
M  V30 6775 C 621.235 -1.70066 0.0340658 0
M  V30 6776 O 622.42 -1.93068 0.209383 0
M  V30 6777 C 619.55 -3.3831 0.785097 0
M  V30 6778 C 618.504 -3.86496 1.8386 0
M  V30 6779 C 617.83 -5.1754 1.34373 0
M  V30 6780 C 619.13 -4.09381 3.24353 0
M  V30 6781 H 620.824 -2.1639 2.06919 0
M  V30 6782 H 618.37 -1.03976 0.996243 0
M  V30 6783 H 620.323 -4.16016 0.671485 0
M  V30 6784 H 619.047 -3.2607 -0.185969 0
M  V30 6785 H 617.706 -3.10987 1.9412 0
M  V30 6786 H 617.354 -5.01696 0.361989 0
M  V30 6787 H 617.054 -5.50751 2.04811 0
M  V30 6788 H 618.578 -5.97811 1.24315 0
M  V30 6789 H 619.992 -4.77641 3.17067 0
M  V30 6790 H 618.389 -4.53906 3.92542 0
M  V30 6791 H 619.459 -3.14515 3.69064 0
M  V30 6792 N 620.802 -1.09834 -1.13024 0
M  V30 6793 C 621.734 -0.699379 -2.18269 0
M  V30 6794 C 622.747 0.260841 -1.60697 0
M  V30 6795 O 623.936 0.0462538 -1.7844 0
M  V30 6796 C 621.036 -0.0104537 -3.38898 0
M  V30 6797 C 620.209 -0.993275 -4.25973 0
M  V30 6798 C 619.268 -0.336982 -5.2512 0
M  V30 6799 O 618.294 -0.985892 -5.60597 0
M  V30 6800 N 619.496 0.90716 -5.73368 0
M  V30 6801 H 622.261 -1.60486 -2.5311 0
M  V30 6802 H 619.822 -0.986337 -1.28386 0
M  V30 6803 H 621.814 0.43991 -4.02302 0
M  V30 6804 H 620.384 0.797335 -3.0226 0
M  V30 6805 H 619.604 -1.62208 -3.5928 0
M  V30 6806 H 620.892 -1.65876 -4.81002 0
M  V30 6807 H 620.29 1.45384 -5.46699 0
M  V30 6808 H 618.847 1.30077 -6.38689 0
M  V30 6809 N 622.28 1.30327 -0.886154 0
M  V30 6810 C 623.691 1.78243 -0.555554 0
M  V30 6811 C 624.042 1.72849 0.928314 0
M  V30 6812 O 623.167 1.30607 1.72542 0
M  V30 6813 C 623.762 3.23654 -1.00168 0
M  V30 6814 C 622.321 3.69401 -0.722471 0
M  V30 6815 C 621.468 2.50753 -1.18399 0
M  V30 6816 H 624.419 1.1718 -1.07026 0
M  V30 6817 H 624.44 3.79056 -0.331152 0
M  V30 6818 H 623.952 3.27548 -2.08169 0
M  V30 6819 H 622.053 3.70995 0.345496 0
M  V30 6820 H 622.166 4.60818 -1.31085 0
M  V30 6821 H 620.53 2.47452 -0.603303 0
M  V30 6822 H 621.313 2.57383 -2.27176 0
M  V30 6823 N 623.758 0.647228 1.43697 0
M  V30 6824 C 625.169 0.238689 1.85168 0
M  V30 6825 C 625.52 -1.21345 1.54175 0
M  V30 6826 O 624.645 -1.92542 0.987743 0
M  V30 6827 C 625.24 0.426422 3.36106 0
M  V30 6828 C 623.799 0.0722541 3.76331 0
M  V30 6829 C 622.946 0.732153 2.6746 0
M  V30 6830 H 625.897 0.851309 1.33934 0
M  V30 6831 H 625.918 -0.32987 3.79067 0
M  V30 6832 H 625.43 1.48339 3.58632 0
M  V30 6833 H 623.531 -0.982355 3.59417 0
M  V30 6834 H 623.644 0.493541 4.76551 0
M  V30 6835 H 622.008 0.16594 2.54159 0
M  V30 6836 H 622.791 1.79204 2.92816 0
M  V30 6837 N 625.236 -1.5273 0.388769 0
M  V30 6838 C 626.464 -2.05992 -0.193677 0
M  V30 6839 C 626.879 -1.26053 -1.40557 0
M  V30 6840 O 626.236 -0.307049 -1.79898 0
M  V30 6841 C 626.287 -3.57068 -0.564321 0
M  V30 6842 O 626.008 -4.3398 0.599422 0
M  V30 6843 C 627.509 -4.26674 -1.20269 0
M  V30 6844 H 624.729 -0.670358 -0.0293445 0
M  V30 6845 H 627.273 -1.96857 0.553844 0
M  V30 6846 H 625.428 -3.66277 -1.26174 0
M  V30 6847 H 625.842 -5.2367 0.294895 0
M  V30 6848 H 627.316 -5.33625 -1.4124 0
M  V30 6849 H 627.793 -3.81854 -2.16989 0
M  V30 6850 H 628.399 -4.2178 -0.546047 0
M  V30 6851 N 626.714 -0.118576 -1.57153 0
M  V30 6852 C 627.942 0.54726 -1.99531 0
M  V30 6853 C 628.357 1.60251 -0.998246 0
M  V30 6854 O 627.714 1.82498 0.00893106 0
M  V30 6855 C 627.765 1.17378 -3.41913 0
M  V30 6856 O 627.486 0.160703 -4.37805 0
M  V30 6857 C 628.987 1.92297 -3.9942 0
M  V30 6858 H 626.207 0.144919 -0.655164 0
M  V30 6859 H 628.751 -0.20479 -2.03472 0
M  V30 6860 H 626.906 1.87661 -3.38913 0
M  V30 6861 H 627.32 0.61586 -5.20872 0
M  V30 6862 H 628.794 2.31462 -5.01128 0
M  V30 6863 H 629.271 2.79801 -3.38538 0
M  V30 6864 H 629.877 1.26777 -4.05965 0
M  V30 6865 N 628.193 1.56834 0.155195 0
M  V30 6866 C 629.421 1.87049 0.884326 0
M  V30 6867 C 629.836 0.705839 1.7511 0
M  V30 6868 O 629.193 -0.324641 1.79589 0
M  V30 6869 C 629.244 3.1644 1.74781 0
M  V30 6870 O 628.965 4.28417 0.915978 0
M  V30 6871 C 630.466 3.60113 2.58522 0
M  V30 6872 H 627.686 0.620196 0.25612 0
M  V30 6873 H 630.23 2.03946 0.150445 0
M  V30 6874 H 628.385 3.01321 2.43484 0
M  V30 6875 H 628.799 5.02353 1.50803 0
M  V30 6876 H 630.273 4.53508 3.14698 0
M  V30 6877 H 630.75 2.85005 3.34169 0
M  V30 6878 H 631.356 3.77898 1.95124 0
M  V30 6879 N 629.671 -0.424282 1.51781 0
M  V30 6880 C 630.917 -1.17434 1.6534 0
M  V30 6881 C 631.25 -1.90549 0.374806 0
M  V30 6882 O 630.525 -1.84145 -0.626179 0
M  V30 6883 C 630.808 -2.18093 2.86544 0
M  V30 6884 C 630.661 -1.48975 4.24413 0
M  V30 6885 C 631.98 -3.18934 3.03264 0
M  V30 6886 H 629.099 -0.425566 0.601716 0
M  V30 6887 H 631.741 -0.461921 1.84299 0
M  V30 6888 H 629.891 -2.78849 2.7051 0
M  V30 6889 H 631.563 -0.914551 4.52143 0
M  V30 6890 H 629.806 -0.791893 4.26511 0
M  V30 6891 H 630.477 -2.22347 5.05238 0
M  V30 6892 H 632.953 -2.68243 3.18096 0
M  V30 6893 H 631.829 -3.86645 3.89611 0
M  V30 6894 H 632.09 -3.85793 2.15908 0
M  V30 6895 N 631.149 -1.42148 -0.680565 0
M  V30 6896 C 632.112 -1.4488 -1.77602 0
M  V30 6897 C 633.112 -0.337209 -1.57224 0
M  V30 6898 O 634.302 -0.597778 -1.63622 0
M  V30 6899 C 631.434 -1.27483 -3.16166 0
M  V30 6900 H 632.627 -2.42412 -1.76568 0
M  V30 6901 H 630.18 -1.28511 -0.889645 0
M  V30 6902 H 630.915 -0.30851 -3.22829 0
M  V30 6903 H 630.7 -2.08037 -3.3236 0
M  V30 6904 H 632.19 -1.32265 -3.96101 0
M  V30 6905 N 632.627 0.916307 -1.28225 0
M  V30 6906 C 634.043 1.19425 -1.05876 0
M  V30 6907 C 634.243 2.005 0.2005 0
M  V30 6908 O 633.299 2.35806 0.902873 0
M  V30 6909 C 634.612 1.93133 -2.30478 0
M  V30 6910 C 636.16 2.06026 -2.35632 0
M  V30 6911 C 636.635 2.83141 -3.59994 0
M  V30 6912 N 638.126 2.90704 -3.60618 0
M  V30 6913 C 638.861 3.50865 -4.53521 0
M  V30 6914 N 638.357 4.12327 -5.56739 0
M  V30 6915 N 640.15 3.48379 -4.41122 0
M  V30 6916 H 632.301 0.37496 -2.09064 0
M  V30 6917 H 634.564 0.228531 -0.920042 0
M  V30 6918 H 634.27 1.40985 -3.22205 0
M  V30 6919 H 634.144 2.93696 -2.36691 0
M  V30 6920 H 636.531 2.57355 -1.44404 0
M  V30 6921 H 636.612 1.04647 -2.33415 0
M  V30 6922 H 636.256 2.32492 -4.51564 0
M  V30 6923 H 636.186 3.84829 -3.59464 0
M  V30 6924 H 638.677 2.47034 -2.85977 0
M  V30 6925 H 638.99 4.56205 -6.23776 0
M  V30 6926 H 637.335 4.10839 -5.60568 0
M  V30 6927 H 640.526 2.99572 -3.59686 0
M  V30 6928 H 640.699 3.94974 -5.13712 0
M  V30 6929 N 634.105 1.10431 1.1244 0
M  V30 6930 C 635.33 0.869089 1.88313 0
M  V30 6931 C 635.755 -0.574912 1.79099 0
M  V30 6932 O 635.113 -1.40496 1.14589 0
M  V30 6933 C 635.161 1.32208 3.3549 0
M  V30 6934 O 634.265 0.487092 4.09513 0
M  V30 6935 H 633.606 0.313894 0.585121 0
M  V30 6936 H 636.136 1.47111 1.42195 0
M  V30 6937 H 636.146 1.31201 3.86329 0
M  V30 6938 H 634.821 2.37364 3.41513 0
M  V30 6939 H 633.398 0.562372 3.68635 0
M  V30 6940 N 635.583 -1.29855 0.893053 0
M  V30 6941 C 636.831 -1.9544 0.514566 0
M  V30 6942 C 637.152 -1.70795 -0.940959 0
M  V30 6943 O 636.422 -1.03601 -1.66264 0
M  V30 6944 H 635.002 -0.723137 0.187302 0
M  V30 6945 H 637.664 -1.58234 1.13789 0
M  V30 6946 H 636.76 -3.04341 0.691581 0
M  V30 6947 N 637.061 -0.65484 -1.43351 0
M  V30 6948 C 638.289 -0.176685 -2.06144 0
M  V30 6949 C 638.704 1.15831 -1.49093 0
M  V30 6950 O 638.061 1.71542 -0.622868 0
M  V30 6951 C 638.112 -0.0813326 -3.61408 0
M  V30 6952 O 637.833 -1.36355 -4.1634 0
M  V30 6953 C 639.334 0.422706 -4.4128 0
M  V30 6954 H 636.554 -0.0906429 -0.66485 0
M  V30 6955 H 639.098 -0.895945 -1.83829 0
M  V30 6956 H 637.253 0.588496 -3.82904 0
M  V30 6957 H 637.667 -1.22381 -5.10023 0
M  V30 6958 H 639.141 0.438375 -5.50257 0
M  V30 6959 H 639.618 1.45432 -4.14423 0
M  V30 6960 H 640.224 -0.214687 -4.24758 0
M  V30 6961 N 638.539 1.52521 -0.396863 0
M  V30 6962 C 639.95 1.86547 0.0754868 0
M  V30 6963 C 640.301 1.31621 1.45501 0
M  V30 6964 O 639.426 0.650563 2.0639 0
M  V30 6965 C 640.021 3.38495 0.143754 0
M  V30 6966 C 638.58 3.72205 0.560413 0
M  V30 6967 C 637.727 2.75954 -0.272856 0
M  V30 6968 H 640.678 1.46323 -0.614434 0
M  V30 6969 H 640.699 3.68153 0.961425 0
M  V30 6970 H 640.211 3.78442 -0.860415 0
M  V30 6971 H 638.312 3.3783 1.57167 0
M  V30 6972 H 638.425 4.78074 0.313314 0
M  V30 6973 H 636.789 2.53339 0.263 0
M  V30 6974 H 637.572 3.1874 -1.27515 0
M  V30 6975 N 640.017 0.126909 1.57088 0
M  V30 6976 C 640.98 -0.806097 2.14557 0
M  V30 6977 C 641.98 -1.18918 1.08236 0
M  V30 6978 O 643.17 -1.11339 1.33975 0
M  V30 6979 C 640.302 -2.09116 2.69227 0
M  V30 6980 H 641.495 -0.306522 2.98329 0
M  V30 6981 H 639.048 -0.122393 1.5582 0
M  V30 6982 H 639.783 -2.63486 1.89065 0
M  V30 6983 H 639.568 -1.82588 3.46993 0
M  V30 6984 H 641.058 -2.75794 3.13572 0
M  V30 6985 N 641.495 -1.56914 -0.146875 0
M  V30 6986 C 642.741 -1.83628 -0.860741 0
M  V30 6987 C 643.074 -0.708528 -1.80813 0
M  V30 6988 O 642.349 0.287838 -1.92358 0
M  V30 6989 C 642.632 -3.20836 -1.63511 0
M  V30 6990 C 642.485 -4.44174 -0.709199 0
M  V30 6991 C 643.804 -3.55268 -2.59756 0
M  V30 6992 H 640.923 -0.667949 -0.311468 0
M  V30 6993 H 643.565 -1.89582 -0.125936 0
M  V30 6994 H 641.715 -3.15891 -2.26153 0
M  V30 6995 H 643.387 -4.61205 -0.0937781 0
M  V30 6996 H 641.63 -4.33796 -0.0187856 0
M  V30 6997 H 642.301 -5.36785 -1.28707 0
M  V30 6998 H 644.777 -3.60824 -2.07232 0
M  V30 6999 H 643.653 -4.52303 -3.10987 0
M  V30 7000 H 643.914 -2.81231 -3.41118 0
M  V30 7001 N 642.974 0.416227 -1.52004 0
M  V30 7002 C 643.884 1.53147 -1.77717 0
M  V30 7003 C 644.9 1.609 -0.662368 0
M  V30 7004 O 646.076 1.77747 -0.946991 0
M  V30 7005 C 643.141 2.88948 -1.91598 0
M  V30 7006 C 642.202 2.9114 -3.15493 0
M  V30 7007 C 641.435 4.20464 -3.28703 0
M  V30 7008 O 641.658 5.13981 -2.47345 0
M  V30 7009 O 640.592 4.29368 -4.21813 0
M  V30 7010 H 644.418 1.34357 -2.72363 0
M  V30 7011 H 642.003 0.601373 -1.36762 0
M  V30 7012 H 643.885 3.69505 -2.02593 0
M  V30 7013 H 642.56 3.07821 -1.00141 0
M  V30 7014 H 641.467 2.09461 -3.09962 0
M  V30 7015 H 642.8 2.77216 -4.06709 0
M  V30 7016 N 644.452 1.42507 0.673017 0
M  V30 7017 C 645.4 1.46362 1.80779 0
M  V30 7018 C 646.394 0.339166 1.6597 0
M  V30 7019 O 647.6 0.512262 1.72557 0
M  V30 7020 H 643.975 0.458433 0.596107 0
M  V30 7021 H 645.946 2.41953 1.74646 0
M  V30 7022 C 644.695 1.38462 3.18941 0
M  V30 7023 H 644.018 2.24283 3.30964 0
M  V30 7024 H 645.458 1.45221 3.98355 0
M  V30 7025 C 643.917 0.0996354 3.36753 0
M  V30 7026 O 644.447 -0.846894 3.92671 0
M  V30 7027 N 642.653 0.016211 2.90595 0
M  V30 7028 H 642.2 0.78725 2.45276 0
M  V30 7029 H 642.158 -0.84291 3.0289 0
M  V30 7030 N 645.93 -0.909495 1.28709 0
M  V30 7031 C 646.877 -2.01245 1.13 0
M  V30 7032 C 647.847 -1.6608 0.0259684 0
M  V30 7033 O 649.032 -1.89835 0.191687 0
M  V30 7034 C 646.172 -3.35644 0.802315 0
M  V30 7035 C 645.285 -3.83653 1.98582 0
M  V30 7036 C 644.42 -5.06582 1.59837 0
M  V30 7037 C 643.459 -5.46934 2.74827 0
M  V30 7038 N 642.596 -6.61053 2.36546 0
M  V30 7039 H 647.436 -2.14013 2.0737 0
M  V30 7040 H 644.973 -1.0482 1.03205 0
M  V30 7041 H 646.931 -4.12963 0.593057 0
M  V30 7042 H 645.561 -3.22631 -0.104457 0
M  V30 7043 H 644.613 -3.02454 2.30708 0
M  V30 7044 H 645.925 -4.09515 2.84779 0
M  V30 7045 H 645.079 -5.91457 1.35143 0
M  V30 7046 H 643.818 -4.82537 0.707753 0
M  V30 7047 H 642.823 -4.60599 3.00215 0
M  V30 7048 H 644.048 -5.72965 3.64538 0
M  V30 7049 H 641.994 -6.3863 1.49959 0
M  V30 7050 H 641.911 -6.86662 3.16277 0
M  V30 7051 H 643.179 -7.49221 2.15146 0
M  V30 7052 N 647.408 -1.11026 -1.11852 0
M  V30 7053 C 648.34 -0.72249 -2.17515 0
M  V30 7054 C 649.353 0.243782 -1.60964 0
M  V30 7055 O 650.542 0.0273252 -1.78479 0
M  V30 7056 C 647.642 -0.0463979 -3.38868 0
M  V30 7057 C 646.815 -1.0384 -4.24895 0
M  V30 7058 C 645.874 -0.392659 -5.24733 0
M  V30 7059 O 644.9 -1.0453 -5.5952 0
M  V30 7060 N 646.102 0.846296 -5.74298 0
M  V30 7061 H 648.867 -1.63161 -2.51393 0
M  V30 7062 H 646.428 -0.999899 -1.27333 0
M  V30 7063 H 648.42 0.397215 -4.02746 0
M  V30 7064 H 646.99 0.765231 -3.03089 0
M  V30 7065 H 646.21 -1.6601 -3.57539 0
M  V30 7066 H 647.498 -1.70968 -4.79215 0
M  V30 7067 H 646.896 1.39578 -5.4821 0
M  V30 7068 H 645.453 1.23296 -6.40032 0
M  V30 7069 N 648.886 1.2938 -0.899927 0
M  V30 7070 C 649.818 2.26737 -0.335139 0
M  V30 7071 C 650.831 1.54316 0.518681 0
M  V30 7072 O 652.02 1.75313 0.335803 0
M  V30 7073 C 649.12 3.34558 0.540774 0
M  V30 7074 C 648.293 4.36455 -0.287372 0
M  V30 7075 C 647.352 5.2361 0.52141 0
M  V30 7076 O 646.378 5.69167 -0.0611735 0
M  V30 7077 N 647.58 5.50985 1.82745 0
M  V30 7078 H 650.345 2.75838 -1.17191 0
M  V30 7079 H 647.906 1.42716 -0.764438 0
M  V30 7080 H 649.898 3.89794 1.08825 0
M  V30 7081 H 648.468 2.85272 1.27823 0
M  V30 7082 H 647.688 3.80875 -1.01626 0
M  V30 7083 H 648.976 5.01573 -0.854518 0
M  V30 7084 H 648.374 5.15781 2.32349 0
M  V30 7085 H 646.931 6.09036 2.32204 0
M  V30 7086 N 650.364 0.662433 1.43002 0
M  V30 7087 C 651.613 0.176873 2.00923 0
M  V30 7088 C 651.926 -1.21954 1.52927 0
M  V30 7089 O 653.132 -1.80081 2.03182 0
M  V30 7090 C 651.588 0.265379 3.5892 0
M  V30 7091 C 651.196 1.66507 4.15908 0
M  V30 7092 C 652.94 -0.162103 4.2419 0
M  V30 7093 C 650.847 1.707 5.66229 0
M  V30 7094 H 649.777 0.0623627 0.751417 0
M  V30 7095 H 652.428 0.825813 1.63868 0
M  V30 7096 H 650.81 -0.451235 3.93421 0
M  V30 7097 H 651.984 2.40777 3.92891 0
M  V30 7098 H 650.299 2.03932 3.63044 0
M  V30 7099 H 652.896 -0.150745 5.34487 0
M  V30 7100 H 653.239 -1.19519 3.98774 0
M  V30 7101 H 653.772 0.503075 3.94606 0
M  V30 7102 H 650.511 2.7195 5.96426 0
M  V30 7103 H 650.031 1.00768 5.91275 0
M  V30 7104 H 651.71 1.45487 6.3043 0
M  V30 7105 N 651.842 -1.52309 0.404946 0
M  V30 7106 C 653.09 -2.01368 -0.17186 0
M  V30 7107 C 653.411 -1.29261 -1.46002 0
M  V30 7108 O 652.681 -0.41729 -1.91404 0
M  V30 7109 H 651.261 -0.744034 -0.0664993 0
M  V30 7110 H 653.923 -1.87263 0.540228 0
M  V30 7111 H 653.019 -3.09888 -0.370957 0
M  V30 7112 N 653.32 -0.135238 -1.57019 0
M  V30 7113 C 654.597 0.563227 -1.87316 0
M  V30 7114 C 654.977 1.83749 -1.03921 0
M  V30 7115 O 654.325 2.2817 -0.122675 0
M  V30 7116 C 654.535 0.840031 -3.3874 0
M  V30 7117 C 655.883 1.18598 -4.077 0
M  V30 7118 O 656.907 0.92977 -3.43851 0
M  V30 7119 O 655.766 1.66758 -5.20436 0
M  V30 7120 H 652.86 0.285971 -0.775983 0
M  V30 7121 H 655.406 -0.170965 -1.68837 0
M  V30 7122 H 654.178 -0.0622785 -3.9125 0
M  V30 7123 H 653.801 1.62882 -3.62706 0
M  V30 7124 N 654.798 1.5699 0.138552 0
M  V30 7125 C 655.761 1.97984 1.15478 0
M  V30 7126 C 656.761 0.867416 1.35398 0
M  V30 7127 O 657.951 1.13387 1.32246 0
M  V30 7128 C 655.083 2.3031 2.51337 0
M  V30 7129 H 656.276 2.88953 0.802896 0
M  V30 7130 H 653.829 1.51555 0.382189 0
M  V30 7131 H 654.564 1.42159 2.91481 0
M  V30 7132 H 654.349 3.11425 2.38237 0
M  V30 7133 H 655.839 2.62834 3.24512 0
M  V30 7134 N 656.276 -0.40816 1.52223 0
M  V30 7135 C 657.525 -1.15212 1.65557 0
M  V30 7136 C 657.838 -1.9163 0.392096 0
M  V30 7137 O 659.044 -2.68458 0.405256 0
M  V30 7138 C 657.5 -2.09691 2.92502 0
M  V30 7139 C 657.108 -1.38785 4.25961 0
M  V30 7140 C 658.852 -2.8434 3.152 0
M  V30 7141 C 656.759 -2.31919 5.44029 0
M  V30 7142 H 655.689 -0.433776 0.616729 0
M  V30 7143 H 658.34 -0.4165 1.78711 0
M  V30 7144 H 656.722 -2.8681 2.7305 0
M  V30 7145 H 657.896 -0.670248 4.55899 0
M  V30 7146 H 656.211 -0.761741 4.09373 0
M  V30 7147 H 658.808 -3.54166 4.00587 0
M  V30 7148 H 659.151 -3.47344 2.29473 0
M  V30 7149 H 659.684 -2.14321 3.35129 0
M  V30 7150 H 656.423 -1.7356 6.32105 0
M  V30 7151 H 655.943 -3.0165 5.18428 0
M  V30 7152 H 657.622 -2.92424 5.77146 0
M  V30 7153 N 657.755 -1.42862 -0.66545 0
M  V30 7154 C 659.171 -1.25993 -0.979687 0
M  V30 7155 C 659.371 -0.170831 -2.00775 0
M  V30 7156 O 658.427 0.454827 -2.4837 0
M  V30 7157 C 659.74 -2.62005 -1.47559 0
M  V30 7158 C 661.288 -2.69437 -1.59288 0
M  V30 7159 C 661.763 -4.05838 -2.12272 0
M  V30 7160 N 663.254 -4.0784 -2.19592 0
M  V30 7161 C 663.989 -5.10205 -2.61684 0
M  V30 7162 N 663.485 -6.22949 -3.03161 0
M  V30 7163 N 665.278 -4.9756 -2.61516 0
M  V30 7164 H 657.429 -2.12395 0.0150493 0
M  V30 7165 H 659.692 -0.946355 -0.0558187 0
M  V30 7166 H 659.398 -3.42605 -0.794654 0
M  V30 7167 H 659.272 -2.86566 -2.45275 0
M  V30 7168 H 661.659 -1.89178 -2.26486 0
M  V30 7169 H 661.74 -2.48655 -0.600374 0
M  V30 7170 H 661.384 -4.86559 -1.4568 0
M  V30 7171 H 661.314 -4.23977 -3.12331 0
M  V30 7172 H 663.805 -3.26452 -1.90361 0
M  V30 7173 H 664.118 -6.96899 -3.33993 0
M  V30 7174 H 662.463 -6.2644 -3.00995 0
M  V30 7175 H 665.654 -4.08551 -2.28481 0
M  V30 7176 H 665.827 -5.77468 -2.93999 0
M  V30 7177 N 659.233 0.902656 -1.29189 0
M  V30 7178 C 660.166 2.00816 -1.0839 0
M  V30 7179 C 661.144 1.626 0.00335266 0
M  V30 7180 O 662.328 1.87928 -0.146765 0
M  V30 7181 C 659.455 3.32415 -0.649435 0
M  V30 7182 C 658.501 3.89617 -1.73496 0
M  V30 7183 S 659.334 4.19091 -3.33351 0
M  V30 7184 C 660.49 5.53736 -2.91766 0
M  V30 7185 H 660.723 2.18151 -2.01984 0
M  V30 7186 H 658.256 1.0489 -1.13303 0
M  V30 7187 H 660.214 4.08492 -0.405479 0
M  V30 7188 H 658.875 3.12964 0.266857 0
M  V30 7189 H 658.068 4.84658 -1.38284 0
M  V30 7190 H 657.67 3.20217 -1.93229 0
M  V30 7191 H 659.962 6.34085 -2.38627 0
M  V30 7192 H 660.905 5.93871 -3.85647 0
M  V30 7193 H 661.313 5.15453 -2.30149 0
M  V30 7194 N 660.711 1.11618 1.11262 0
M  V30 7195 C 661.96 0.860934 1.82403 0
M  V30 7196 C 662.273 -0.615303 1.8567 0
M  V30 7197 O 663.479 -0.986861 2.52929 0
M  V30 7198 C 661.935 1.49048 3.27586 0
M  V30 7199 C 661.543 3.00089 3.32642 0
M  V30 7200 C 663.287 1.31515 4.03614 0
M  V30 7201 C 661.194 3.56019 4.72234 0
M  V30 7202 H 660.124 0.318423 0.683464 0
M  V30 7203 H 662.775 1.34165 1.25188 0
M  V30 7204 H 661.157 0.937434 3.84744 0
M  V30 7205 H 662.331 3.61813 2.85356 0
M  V30 7206 H 660.646 3.16919 2.70096 0
M  V30 7207 H 663.243 1.70732 5.0671 0
M  V30 7208 H 663.586 0.257917 4.155 0
M  V30 7209 H 664.119 1.83694 3.52848 0
M  V30 7210 H 660.858 4.61463 4.65545 0
M  V30 7211 H 660.378 2.99066 5.19923 0
M  V30 7212 H 662.057 3.54568 5.41193 0
M  V30 7213 N 662.189 -1.289 0.906776 0
M  V30 7214 C 663.435 -1.95558 0.53712 0
M  V30 7215 C 663.768 -1.71262 -0.915582 0
M  V30 7216 O 663.043 -1.02961 -1.65013 0
M  V30 7217 C 663.326 -3.50198 0.838645 0
M  V30 7218 C 663.179 -3.83923 2.34357 0
M  V30 7219 C 664.498 -4.38861 0.329988 0
M  V30 7220 H 661.617 -0.710289 0.196617 0
M  V30 7221 H 664.259 -1.52392 1.13475 0
M  V30 7222 H 662.409 -3.87096 0.330024 0
M  V30 7223 H 664.081 -3.56933 2.92227 0
M  V30 7224 H 662.324 -3.31215 2.80141 0
M  V30 7225 H 662.995 -4.91883 2.5051 0
M  V30 7226 H 665.471 -4.08996 0.765609 0
M  V30 7227 H 664.347 -5.45931 0.570105 0
M  V30 7228 H 664.608 -4.35352 -0.769511 0
M  V30 7229 N 663.667 -0.670007 -1.42649 0
M  V30 7230 C 665.083 -0.33911 -1.55956 0
M  V30 7231 C 665.283 1.1558 -1.65056 0
M  V30 7232 O 664.339 1.94111 -1.61485 0
M  V30 7233 C 665.652 -1.06522 -2.812 0
M  V30 7234 C 667.2 -1.04708 -2.94966 0
M  V30 7235 C 667.675 -1.75442 -4.23065 0
M  V30 7236 N 669.166 -1.72286 -4.29967 0
M  V30 7237 C 669.901 -2.23877 -5.27889 0
M  V30 7238 N 669.397 -2.83829 -6.31991 0
M  V30 7239 N 671.19 -2.14279 -5.19654 0
M  V30 7240 H 663.341 -1.6399 -1.34986 0
M  V30 7241 H 665.604 -0.690603 -0.649439 0
M  V30 7242 H 665.31 -2.12033 -2.80597 0
M  V30 7243 H 665.184 -0.627398 -3.71946 0
M  V30 7244 H 667.571 -0.000315966 -2.951 0
M  V30 7245 H 667.652 -1.52374 -2.05465 0
M  V30 7246 H 667.296 -2.80084 -4.23693 0
M  V30 7247 H 667.226 -1.25229 -5.11493 0
M  V30 7248 H 669.717 -1.28554 -3.55362 0
M  V30 7249 H 670.03 -3.20827 -7.03057 0
M  V30 7250 H 668.375 -2.87896 -6.32567 0
M  V30 7251 H 671.566 -1.67135 -4.37245 0
M  V30 7252 H 671.739 -2.54792 -5.95806 0
M  V30 7253 N 665.145 1.52092 -0.413018 0
M  V30 7254 C 666.393 2.01456 0.161178 0
M  V30 7255 C 666.714 1.30034 1.45314 0
M  V30 7256 O 665.984 0.427435 1.9118 0
M  V30 7257 H 664.564 0.744376 0.0625526 0
M  V30 7258 H 667.226 1.86974 -0.550151 0
M  V30 7259 H 666.322 3.1008 0.354517 0
M  V30 7260 N 666.623 0.143563 1.56945 0
M  V30 7261 C 667.851 -0.515447 2.00377 0
M  V30 7262 C 668.266 -1.58643 1.02361 0
M  V30 7263 O 667.623 -1.82489 0.0201039 0
M  V30 7264 C 667.674 -1.11923 3.43737 0
M  V30 7265 O 667.395 -0.0910318 4.38005 0
M  V30 7266 C 668.896 -1.85918 4.02429 0
M  V30 7267 H 666.116 -0.134478 0.657386 0
M  V30 7268 H 668.66 0.237135 2.0312 0
M  V30 7269 H 666.815 -1.82245 3.41856 0
M  V30 7270 H 667.229 -0.532916 5.21786 0
M  V30 7271 H 668.703 -2.2346 5.04747 0
M  V30 7272 H 669.18 -2.7438 3.42947 0
M  V30 7273 H 669.786 -1.20303 4.07931 0
M  V30 7274 N 668.101 -1.57061 -0.130224 0
M  V30 7275 C 669.031 -2.02552 -1.16168 0
M  V30 7276 C 670.012 -0.907971 -1.4384 0
M  V30 7277 O 671.197 -1.17693 -1.54473 0
M  V30 7278 C 668.327 -2.42035 -2.49071 0
M  V30 7279 C 667.281 -3.5713 -2.35886 0
M  V30 7280 C 666.607 -3.82478 -3.7365 0
M  V30 7281 C 667.907 -4.89236 -1.8288 0
M  V30 7282 H 669.601 -2.8897 -0.783359 0
M  V30 7283 H 667.147 -1.39021 -0.375376 0
M  V30 7284 H 669.1 -2.72462 -3.21469 0
M  V30 7285 H 667.824 -1.52573 -2.88771 0
M  V30 7286 H 666.483 -3.26895 -1.65938 0
M  V30 7287 H 666.131 -2.9024 -4.10816 0
M  V30 7288 H 665.831 -4.59944 -3.65685 0
M  V30 7289 H 667.355 -4.15347 -4.47571 0
M  V30 7290 H 668.769 -5.18272 -2.45085 0
M  V30 7291 H 667.166 -5.70624 -1.85763 0
M  V30 7292 H 668.236 -4.78494 -0.785571 0
M  V30 7293 N 669.579 0.400081 -1.52437 0
M  V30 7294 C 670.827 1.14392 -1.6661 0
M  V30 7295 C 671.148 1.90792 -0.402927 0
M  V30 7296 O 670.418 1.87042 0.582425 0
M  V30 7297 H 668.998 0.425275 -0.614125 0
M  V30 7298 H 671.66 0.455076 -1.89513 0
M  V30 7299 H 670.756 1.85298 -2.51139 0
M  V30 7300 N 671.057 1.43213 0.657864 0
M  V30 7301 C 672.282 1.48227 1.45064 0
M  V30 7302 C 672.707 0.0999939 1.87834 0
M  V30 7303 O 672.065 -0.905269 1.57081 0
M  V30 7304 C 672.113 2.42931 2.6649 0
M  V30 7305 O 671.217 1.91237 3.6538 0
M  V30 7306 H 670.558 0.501551 0.435135 0
M  V30 7307 H 673.088 1.8808 0.805431 0
M  V30 7308 H 673.098 2.6008 3.1436 0
M  V30 7309 H 671.773 3.43348 2.34701 0
M  V30 7310 H 670.35 1.83726 3.24498 0
M  V30 7311 N 672.536 -0.895792 1.29666 0
M  V30 7312 C 673.776 -1.6609 1.19136 0
M  V30 7313 C 674.14 -1.90336 -0.252245 0
M  V30 7314 O 675.341 -2.64469 -0.480593 0
M  V30 7315 C 673.612 -2.97129 1.98618 0
M  V30 7316 S 675.171 -3.88146 2.04666 0
M  V30 7317 H 671.989 -0.570188 0.424744 0
M  V30 7318 H 674.591 -1.06411 1.64003 0
M  V30 7319 H 673.295 -2.77199 3.02637 0
M  V30 7320 H 672.826 -3.61847 1.54371 0
M  V30 7321 H 674.841 -4.82301 1.16618 0
M  V30 7322 N 674.014 -1.12206 -1.10668 0
M  V30 7323 C 675.239 -0.898938 -1.86906 0
M  V30 7324 C 675.664 0.546346 -1.79991 0
M  V30 7325 O 675.022 1.38655 -1.1681 0
M  V30 7326 C 675.07 -1.37529 -3.33344 0
M  V30 7327 O 674.174 -0.55218 -4.08687 0
M  V30 7328 H 673.515 -0.323163 -0.580053 0
M  V30 7329 H 676.045 -1.49355 -1.39837 0
M  V30 7330 H 676.055 -1.3733 -3.84193 0
M  V30 7331 H 674.73 -2.42767 -3.37693 0
M  V30 7332 H 673.307 -0.620947 -3.67694 0
M  V30 7333 N 675.492 1.28418 -0.913599 0
M  V30 7334 C 676.717 1.99643 -0.561899 0
M  V30 7335 C 677.142 1.67819 0.849608 0
M  V30 7336 O 676.5 0.910503 1.56779 0
M  V30 7337 C 676.548 3.52116 -0.777622 0
M  V30 7338 O 675.652 4.12076 0.163457 0
M  V30 7339 H 674.993 0.627229 -0.217898 0
M  V30 7340 H 677.523 1.63575 -1.229 0
M  V30 7341 H 677.533 4.02163 -0.687666 0
M  V30 7342 H 676.208 3.74613 -1.8066 0
M  V30 7343 H 674.785 3.72892 0.0247827 0
M  V30 7344 N 676.97 0.677563 1.42291 0
M  V30 7345 C 678.195 0.207901 2.06355 0
M  V30 7346 C 678.62 -1.12723 1.50583 0
M  V30 7347 O 677.978 -1.70171 0.62543 0
M  V30 7348 C 678.026 0.156489 3.6026 0
M  V30 7349 O 677.13 -0.874162 4.03029 0
M  V30 7350 H 676.471 0.106056 0.655475 0
M  V30 7351 H 679.001 0.927354 1.82377 0
M  V30 7352 H 679.011 -0.0187258 4.07996 0
M  V30 7353 H 677.686 1.13101 4.00226 0
M  V30 7354 H 676.263 -0.669764 3.66836 0
M  V30 7355 N 678.448 -1.51871 0.421078 0
M  V30 7356 C 679.673 -2.0684 -0.152371 0
M  V30 7357 C 680.098 -1.28802 -1.37083 0
M  V30 7358 O 679.456 -0.321482 -1.78427 0
M  V30 7359 C 679.504 -3.57532 -0.469368 0
M  V30 7360 O 678.608 -3.81818 -1.55848 0
M  V30 7361 H 677.949 -0.663939 -0.00898586 0
M  V30 7362 H 680.479 -1.95674 0.597724 0
M  V30 7363 H 680.489 -4.01515 -0.724553 0
M  V30 7364 H 679.164 -4.13761 0.421276 0
M  V30 7365 H 677.741 -3.49709 -1.29453 0
M  V30 7366 N 679.926 -0.151884 -1.56866 0
M  V30 7367 C 680.836 0.798876 -2.20579 0
M  V30 7368 C 681.852 1.268 -1.19154 0
M  V30 7369 O 683.028 1.32418 -1.51748 0
M  V30 7370 C 680.093 2.01861 -2.81874 0
M  V30 7371 C 679.154 1.59825 -3.9844 0
M  V30 7372 C 678.387 2.75984 -4.56802 0
M  V30 7373 O 678.61 3.92331 -4.14044 0
M  V30 7374 O 677.544 2.51175 -5.46987 0
M  V30 7375 H 681.37 0.2865 -3.02346 0
M  V30 7376 H 678.955 0.0753806 -1.4921 0
M  V30 7377 H 680.837 2.73235 -3.20813 0
M  V30 7378 H 679.512 2.52042 -2.03117 0
M  V30 7379 H 678.419 0.854601 -3.64208 0
M  V30 7380 H 679.752 1.14355 -4.78731 0
M  V30 7381 N 681.404 1.57128 0.121893 0
M  V30 7382 C 682.644 1.86517 0.836113 0
M  V30 7383 C 683.008 0.739497 1.77188 0
M  V30 7384 O 684.209 0.91508 2.52744 0
M  V30 7385 C 682.48 3.21129 1.56878 0
M  V30 7386 S 684.039 3.72143 2.32497 0
M  V30 7387 H 680.857 0.653923 0.279115 0
M  V30 7388 H 683.459 1.95271 0.0946254 0
M  V30 7389 H 682.163 4.01002 0.873255 0
M  V30 7390 H 681.694 3.15446 2.35069 0
M  V30 7391 H 683.709 3.43413 3.58164 0
M  V30 7392 N 682.882 -0.391992 1.52647 0
M  V30 7393 C 683.812 -1.48517 1.8018 0
M  V30 7394 C 684.793 -1.57039 0.653667 0
M  V30 7395 O 685.978 -1.72036 0.900962 0
M  V30 7396 C 683.108 -2.86161 1.96797 0
M  V30 7397 C 682.062 -2.92481 3.12472 0
M  V30 7398 C 681.388 -4.32546 3.14338 0
M  V30 7399 C 682.688 -2.624 4.51601 0
M  V30 7400 H 684.382 -1.25726 2.71723 0
M  V30 7401 H 681.928 -0.603387 1.30749 0
M  V30 7402 H 683.881 -3.62639 2.14641 0
M  V30 7403 H 682.605 -3.10283 1.01941 0
M  V30 7404 H 681.264 -2.18451 2.94406 0
M  V30 7405 H 680.912 -4.53703 2.1717 0
M  V30 7406 H 680.612 -4.37695 3.92042 0
M  V30 7407 H 682.136 -5.10934 3.34333 0
M  V30 7408 H 683.55 -3.28596 4.69785 0
M  V30 7409 H 681.947 -2.78903 5.3135 0
M  V30 7410 H 683.017 -1.57754 4.58521 0
M  V30 7411 N 684.36 -1.4356 -0.65026 0
M  V30 7412 C 685.27 -1.514 -1.79207 0
M  V30 7413 C 686.286 -0.400895 -1.69319 0
M  V30 7414 O 687.462 -0.655458 -1.90436 0
M  V30 7415 C 684.527 -1.43737 -3.155 0
M  V30 7416 C 683.588 -2.65743 -3.37163 0
M  V30 7417 C 682.821 -2.58436 -4.66954 0
M  V30 7418 O 683.044 -1.63374 -5.46503 0
M  V30 7419 O 681.978 -3.48984 -4.90402 0
M  V30 7420 H 685.804 -2.47825 -1.75547 0
M  V30 7421 H 683.389 -1.25594 -0.809111 0
M  V30 7422 H 685.271 -1.41916 -3.96784 0
M  V30 7423 H 683.946 -0.504488 -3.19745 0
M  V30 7424 H 682.853 -2.73136 -2.55632 0
M  V30 7425 H 684.186 -3.58014 -3.37768 0
M  V30 7426 N 685.838 0.888903 -1.30139 0
M  V30 7427 C 687.115 1.62145 -1.094 0
M  V30 7428 C 687.495 2.08041 0.358091 0
M  V30 7429 O 686.843 1.84438 1.34888 0
M  V30 7430 C 687.053 2.794 -2.09133 0
M  V30 7431 C 688.401 3.49826 -2.40638 0
M  V30 7432 O 689.425 2.89583 -2.07412 0
M  V30 7433 O 688.284 4.58457 -2.97455 0
M  V30 7434 H 685.378 0.712475 -0.41989 0
M  V30 7435 H 687.924 0.936023 -1.41551 0
M  V30 7436 H 686.696 2.42762 -3.06891 0
M  V30 7437 H 686.319 3.55643 -1.77776 0
M  V30 7438 N 687.317 1.12792 1.10072 0
M  V30 7439 C 688.542 0.908838 1.86427 0
M  V30 7440 C 688.967 -0.536793 1.80278 0
M  V30 7441 O 688.325 -1.38033 1.17543 0
M  V30 7442 C 688.373 1.39295 3.3261 0
M  V30 7443 O 687.477 0.573846 4.08388 0
M  V30 7444 H 686.818 0.326234 0.578331 0
M  V30 7445 H 689.348 1.50094 1.39043 0
M  V30 7446 H 689.358 1.39366 3.83459 0
M  V30 7447 H 688.033 2.44555 3.36401 0
M  V30 7448 H 686.61 0.640438 3.67359 0
M  V30 7449 N 688.795 -1.27931 0.920396 0
M  V30 7450 C 690.023 -1.98805 0.573087 0
M  V30 7451 C 690.438 -1.68724 -0.847201 0
M  V30 7452 O 689.795 -0.943699 -1.56207 0
M  V30 7453 C 689.846 -3.52971 0.780633 0
M  V30 7454 O 689.567 -3.81994 2.14504 0
M  V30 7455 C 691.068 -4.411 0.44105 0
M  V30 7456 H 688.288 -0.634651 0.21785 0
M  V30 7457 H 690.832 -1.62965 1.23542 0
M  V30 7458 H 688.987 -3.87048 0.165204 0
M  V30 7459 H 689.401 -4.76609 2.18962 0
M  V30 7460 H 690.875 -5.48312 0.637006 0
M  V30 7461 H 691.352 -4.34758 -0.62306 0
M  V30 7462 H 691.958 -4.12532 1.0343 0
M  V30 7463 N 690.273 -0.685099 -1.4193 0
M  V30 7464 C 691.206 0.0371639 -2.2817 0
M  V30 7465 C 692.184 0.798436 -1.41647 0
M  V30 7466 O 693.368 0.791428 -1.71081 0
M  V30 7467 C 690.495 1.05993 -3.21688 0
M  V30 7468 C 689.541 0.393043 -4.24685 0
M  V30 7469 S 690.374 -0.856921 -5.28599 0
M  V30 7470 C 691.53 0.164508 -6.25684 0
M  V30 7471 H 691.763 -0.694305 -2.89079 0
M  V30 7472 H 689.296 -0.474999 -1.46912 0
M  V30 7473 H 691.254 1.64489 -3.76103 0
M  V30 7474 H 689.915 1.7639 -2.59895 0
M  V30 7475 H 689.108 1.16513 -4.90348 0
M  V30 7476 H 688.71 -0.118589 -3.73812 0
M  V30 7477 H 691.002 1.02106 -6.69762 0
M  V30 7478 H 691.945 -0.457917 -7.06618 0
M  V30 7479 H 692.353 0.514596 -5.6215 0
M  V30 7480 N 691.751 1.51645 -0.429126 0
M  V30 7481 C 692.999 2.01616 0.139802 0
M  V30 7482 C 693.32 1.31568 1.43927 0
M  V30 7483 O 692.59 0.447688 1.90716 0
M  V30 7484 H 691.17 0.744998 0.054654 0
M  V30 7485 H 693.832 1.8638 -0.569952 0
M  V30 7486 H 692.928 3.10439 0.321609 0
M  V30 7487 N 693.229 0.160201 1.56784 0
M  V30 7488 C 694.454 -0.497373 2.01348 0
M  V30 7489 C 694.879 -1.56757 1.03966 0
M  V30 7490 O 694.237 -1.81292 0.0174455 0
M  V30 7491 C 694.285 -1.0628 3.44582 0
M  V30 7492 O 693.389 -2.17723 3.50244 0
M  V30 7493 H 692.73 -0.120295 0.653012 0
M  V30 7494 H 695.26 0.260821 2.02931 0
M  V30 7495 H 695.27 -1.38819 3.83658 0
M  V30 7496 H 693.945 -0.279166 4.14962 0
M  V30 7497 H 692.522 -1.86313 3.2302 0
M  V30 7498 N 694.707 -1.5719 -0.113559 0
M  V30 7499 C 695.953 -1.85412 -0.821597 0
M  V30 7500 C 696.286 -0.746722 -1.7927 0
M  V30 7501 O 695.561 0.246971 -1.92926 0
M  V30 7502 C 695.844 -3.24233 -1.56669 0
M  V30 7503 C 695.697 -4.45578 -0.614823 0
M  V30 7504 C 697.016 -3.60697 -2.52161 0
M  V30 7505 H 694.135 -0.674406 -0.29723 0
M  V30 7506 H 696.777 -1.89807 -0.085694 0
M  V30 7507 H 694.927 -3.20617 -2.19401 0
M  V30 7508 H 696.599 -4.613 0.00407137 0
M  V30 7509 H 694.842 -4.33738 0.0732332 0
M  V30 7510 H 695.513 -5.39395 -1.17292 0
M  V30 7511 H 697.989 -3.65139 -1.99532 0
M  V30 7512 H 696.865 -4.58798 -3.01323 0
M  V30 7513 H 697.126 -2.88403 -3.35076 0
M  V30 7514 N 696.185 0.383891 -1.52853 0
M  V30 7515 C 697.148 1.45197 -1.77343 0
M  V30 7516 C 698.148 1.47362 -0.643522 0
M  V30 7517 O 699.338 1.48443 -0.911613 0
M  V30 7518 C 696.47 2.8445 -1.87885 0
M  V30 7519 H 697.663 1.24764 -2.72716 0
M  V30 7520 H 695.216 0.615939 -1.43652 0
M  V30 7521 H 695.951 3.10222 -0.94515 0
M  V30 7522 H 695.736 2.8428 -2.70051 0
M  V30 7523 H 697.226 3.61832 -2.08488 0
M  V30 7524 N 697.663 1.43903 0.642637 0
M  V30 7525 C 698.94 1.36556 1.40043 0
M  V30 7526 C 699.32 0.0185588 2.11092 0
M  V30 7527 O 698.668 -0.998438 2.05532 0
M  V30 7528 C 698.878 2.55596 2.37638 0
M  V30 7529 C 700.226 2.99153 3.01318 0
M  V30 7530 O 701.25 2.55719 2.47965 0
M  V30 7531 O 700.109 3.74427 3.98078 0
M  V30 7532 H 697.203 0.540189 0.626198 0
M  V30 7533 H 699.749 1.55971 0.668657 0
M  V30 7534 H 698.521 3.45256 1.84158 0
M  V30 7535 H 698.144 2.38334 3.18249 0
M  V30 7536 N 699.141 -0.881989 1.30609 0
M  V30 7537 C 700.369 -1.66711 1.22536 0
M  V30 7538 C 700.784 -1.87614 -0.2113 0
M  V30 7539 O 700.141 -1.42576 -1.13923 0
M  V30 7540 C 700.192 -3.04182 1.95335 0
M  V30 7541 O 699.913 -2.8422 3.33393 0
M  V30 7542 C 701.414 -3.98617 1.93956 0
M  V30 7543 H 698.634 -0.520124 0.423925 0
M  V30 7544 H 701.178 -1.10174 1.72285 0
M  V30 7545 H 699.333 -3.57442 1.49378 0
M  V30 7546 H 699.747 -3.71452 3.70302 0
M  V30 7547 H 701.221 -4.92433 2.49426 0
M  V30 7548 H 701.698 -4.29473 0.919198 0
M  V30 7549 H 702.304 -3.51292 2.39738 0
M  V30 7550 N 700.619 -1.13374 -1.09472 0
M  V30 7551 C 701.865 -0.896516 -1.81908 0
M  V30 7552 C 702.198 0.575933 -1.85463 0
M  V30 7553 O 701.473 1.42618 -1.32251 0
M  V30 7554 C 701.756 -1.48445 -3.28079 0
M  V30 7555 C 701.609 -3.02598 -3.32798 0
M  V30 7556 C 702.928 -1.15226 -4.24748 0
M  V30 7557 H 700.047 -0.327127 -0.660422 0
M  V30 7558 H 702.689 -1.40195 -1.2824 0
M  V30 7559 H 700.839 -1.0546 -3.73912 0
M  V30 7560 H 702.511 -3.54335 -2.95372 0
M  V30 7561 H 700.754 -3.37613 -2.72397 0
M  V30 7562 H 701.425 -3.38835 -4.3577 0
M  V30 7563 H 703.901 -1.52369 -3.87199 0
M  V30 7564 H 702.777 -1.59012 -5.25363 0
M  V30 7565 H 703.038 -0.0658891 -4.42051 0
M  V30 7566 N 702.098 1.27442 -0.927168 0
M  V30 7567 C 703.061 2.2512 -0.430525 0
M  V30 7568 C 704.061 1.54357 0.450619 0
M  V30 7569 O 705.251 1.72371 0.251774 0
M  V30 7570 C 702.383 3.38763 0.381144 0
M  V30 7571 H 703.576 2.70569 -1.29354 0
M  V30 7572 H 701.129 1.39355 -0.707806 0
M  V30 7573 H 701.864 2.98695 1.263 0
M  V30 7574 H 701.649 3.91298 -0.250618 0
M  V30 7575 H 703.139 4.11364 0.719012 0
M  V30 7576 N 703.576 0.692616 1.41565 0
M  V30 7577 C 704.992 0.363878 1.55397 0
M  V30 7578 C 705.192 -1.1294 1.66874 0
M  V30 7579 O 704.248 -1.91517 1.64552 0
M  V30 7580 C 705.561 1.10982 2.7947 0
M  V30 7581 C 707.109 1.09387 2.93263 0
M  V30 7582 C 707.584 1.8215 4.20221 0
M  V30 7583 N 709.075 1.79105 4.27172 0
M  V30 7584 C 709.81 2.32247 5.2426 0
M  V30 7585 N 709.306 2.93847 6.27396 0
M  V30 7586 N 711.099 2.22519 5.1618 0
M  V30 7587 H 703.25 1.66116 1.3236 0
M  V30 7588 H 705.513 0.700848 0.63837 0
M  V30 7589 H 705.219 2.1647 2.77188 0
M  V30 7590 H 705.093 0.686492 3.709 0
M  V30 7591 H 707.48 0.0472638 2.95062 0
M  V30 7592 H 707.561 1.55623 2.03015 0
M  V30 7593 H 707.205 2.86789 4.19183 0
M  V30 7594 H 707.135 1.33351 5.09436 0
M  V30 7595 H 709.626 1.34191 3.53272 0
M  V30 7596 H 709.939 3.31972 6.97864 0
M  V30 7597 H 708.284 2.97924 6.27906 0
M  V30 7598 H 711.475 1.7407 4.34531 0
M  V30 7599 H 711.648 2.64239 5.91677 0
M  V30 7600 N 705.054 -1.51416 0.437162 0
M  V30 7601 C 706.3 -2.02386 -0.129555 0
M  V30 7602 C 706.633 -1.32071 -1.42376 0
M  V30 7603 O 705.908 -0.43559 -1.8956 0
M  V30 7604 C 706.191 -3.5841 -0.348487 0
M  V30 7605 C 706.044 -4.39341 0.964352 0
M  V30 7606 C 707.363 -4.25654 -1.11834 0
M  V30 7607 H 704.482 -0.735587 -0.0456109 0
M  V30 7608 H 707.124 -1.81055 0.576124 0
M  V30 7609 H 705.274 -3.76716 -0.949592 0
M  V30 7610 H 706.946 -4.32685 1.59942 0
M  V30 7611 H 705.189 -4.04432 1.56898 0
M  V30 7612 H 705.86 -5.4667 0.765212 0
M  V30 7613 H 708.336 -4.11617 -0.609165 0
M  V30 7614 H 707.212 -5.34704 -1.24029 0
M  V30 7615 H 707.473 -3.86502 -2.14636 0
M  V30 7616 N 706.532 -0.168513 -1.56696 0
M  V30 7617 C 707.462 0.758563 -2.20835 0
M  V30 7618 C 708.443 1.24121 -1.1631 0
M  V30 7619 O 709.628 1.29487 -1.4473 0
M  V30 7620 C 706.758 1.9892 -2.8469 0
M  V30 7621 C 705.712 1.64252 -3.95228 0
M  V30 7622 C 705.038 2.94757 -4.46119 0
M  V30 7623 C 706.338 0.872675 -5.14958 0
M  V30 7624 H 708.032 0.223953 -2.98561 0
M  V30 7625 H 705.578 0.106277 -1.43607 0
M  V30 7626 H 707.531 2.64275 -3.28233 0
M  V30 7627 H 706.255 2.5479 -2.04327 0
M  V30 7628 H 704.914 1.01266 -3.52336 0
M  V30 7629 H 704.562 3.48662 -3.62552 0
M  V30 7630 H 704.262 2.72316 -5.2069 0
M  V30 7631 H 705.786 3.61147 -4.92347 0
M  V30 7632 H 707.2 1.42875 -5.55211 0
M  V30 7633 H 705.597 0.747402 -5.95428 0
M  V30 7634 H 706.667 -0.131535 -4.84722 0
M  V30 7635 N 708.01 1.57248 0.105221 0
M  V30 7636 C 709.426 1.52853 0.459153 0
M  V30 7637 C 709.626 0.883674 1.8109 0
M  V30 7638 O 708.682 0.471864 2.48052 0
M  V30 7639 C 709.995 2.97596 0.43096 0
M  V30 7640 C 711.543 3.08758 0.513536 0
M  V30 7641 C 712.018 4.55089 0.515593 0
M  V30 7642 N 713.509 4.59597 0.576639 0
M  V30 7643 C 714.244 5.70253 0.599904 0
M  V30 7644 N 713.74 6.90368 0.579985 0
M  V30 7645 N 715.533 5.58399 0.643953 0
M  V30 7646 H 707.684 1.97547 -0.780306 0
M  V30 7647 H 709.947 0.902758 -0.289363 0
M  V30 7648 H 709.653 3.48201 -0.494903 0
M  V30 7649 H 709.527 3.55756 1.2537 0
M  V30 7650 H 711.914 2.58148 1.42982 0
M  V30 7651 H 711.995 2.53568 -0.337148 0
M  V30 7652 H 711.639 5.06348 -0.396701 0
M  V30 7653 H 711.569 5.08105 1.38335 0
M  V30 7654 H 714.06 3.73144 0.597639 0
M  V30 7655 H 714.373 7.70462 0.600741 0
M  V30 7656 H 712.718 6.92843 0.547191 0
M  V30 7657 H 715.909 4.63467 0.656975 0
M  V30 7658 H 716.082 6.44644 0.658616 0
M  V30 7659 N 709.488 -0.375779 1.53054 0
M  V30 7660 C 710.736 -1.11727 1.68409 0
M  V30 7661 C 711.057 -1.90127 0.43323 0
M  V30 7662 O 710.327 -1.87945 -0.552595 0
M  V30 7663 H 708.907 -0.415451 0.620813 0
M  V30 7664 H 711.569 -0.424869 1.90213 0
M  V30 7665 H 710.665 -1.8128 2.54055 0
M  V30 7666 N 710.966 -1.44241 -0.634997 0
M  V30 7667 C 712.206 -1.48339 -1.40623 0
M  V30 7668 C 712.57 -0.111479 -1.91676 0
M  V30 7669 O 713.771 -0.0271345 -2.68786 0
M  V30 7670 C 712.042 -2.51122 -2.54308 0
M  V30 7671 S 713.601 -2.74237 -3.42548 0
M  V30 7672 H 710.419 -0.524715 -0.479787 0
M  V30 7673 H 713.021 -1.81138 -0.735489 0
M  V30 7674 H 711.725 -3.49511 -2.15106 0
M  V30 7675 H 711.256 -2.19883 -3.26213 0
M  V30 7676 H 713.271 -2.0554 -4.51628 0
M  V30 7677 N 712.444 0.87505 -1.31075 0
M  V30 7678 C 713.374 1.99775 -1.20881 0
M  V30 7679 C 714.355 1.69822 -0.0971612 0
M  V30 7680 O 715.54 1.92158 -0.280895 0
M  V30 7681 C 712.67 3.35163 -0.910118 0
M  V30 7682 C 711.624 3.79406 -1.98078 0
M  V30 7683 C 710.95 5.12197 -1.53488 0
M  V30 7684 C 712.25 3.97061 -3.39323 0
M  V30 7685 H 713.944 2.08562 -2.14808 0
M  V30 7686 H 711.49 1.00207 -1.03415 0
M  V30 7687 H 713.443 4.13237 -0.825423 0
M  V30 7688 H 712.167 3.26536 0.064822 0
M  V30 7689 H 710.826 3.03568 -2.05528 0
M  V30 7690 H 710.474 5.00007 -0.547941 0
M  V30 7691 H 710.174 5.4277 -2.2511 0
M  V30 7692 H 711.698 5.92785 -1.46417 0
M  V30 7693 H 713.112 4.65545 -3.34576 0
M  V30 7694 H 711.509 4.39025 -4.09118 0
M  V30 7695 H 712.579 3.00601 -3.80483 0
M  V30 7696 N 713.922 1.13953 1.08869 0
M  V30 7697 C 714.832 0.835666 2.19212 0
M  V30 7698 C 715.848 -0.182005 1.73045 0
M  V30 7699 O 717.024 -0.0116661 2.01397 0
M  V30 7700 C 714.089 0.312325 3.4529 0
M  V30 7701 C 713.15 1.39196 4.06107 0
M  V30 7702 C 712.383 0.893496 5.26168 0
M  V30 7703 O 712.606 -0.266807 5.69776 0
M  V30 7704 O 711.54 1.67037 5.78258 0
M  V30 7705 H 715.366 1.75769 2.47667 0
M  V30 7706 H 712.951 0.917421 1.17914 0
M  V30 7707 H 714.833 0.0261582 4.21392 0
M  V30 7708 H 713.508 -0.582042 3.18424 0
M  V30 7709 H 712.415 1.73152 3.31616 0
M  V30 7710 H 713.748 2.26068 4.37212 0
M  V30 7711 N 715.4 -1.26948 0.933913 0
M  V30 7712 C 716.348 -2.2862 0.428463 0
M  V30 7713 C 717.342 -1.62144 -0.490464 0
M  V30 7714 O 718.548 -1.76167 -0.36948 0
M  V30 7715 H 714.923 -0.742363 0.120003 0
M  V30 7716 H 716.894 -2.68659 1.29865 0
M  V30 7717 C 715.643 -3.46423 -0.29774 0
M  V30 7718 H 714.966 -3.97792 0.400183 0
M  V30 7719 H 716.406 -4.19505 -0.615736 0
M  V30 7720 C 714.865 -3.01017 -1.51295 0
M  V30 7721 O 715.395 -3.05226 -2.61151 0
M  V30 7722 N 713.601 -2.56442 -1.36696 0
M  V30 7723 H 713.148 -2.53217 -0.473178 0
M  V30 7724 H 713.106 -2.26424 -2.18127 0
M  V30 7725 N 716.879 -0.700114 -1.41195 0
M  V30 7726 C 717.812 0.0129614 -2.28196 0
M  V30 7727 C 718.79 0.783367 -1.42486 0
M  V30 7728 O 719.974 0.773238 -1.71911 0
M  V30 7729 C 717.101 1.02575 -3.22794 0
M  V30 7730 C 716.147 0.347977 -4.25078 0
M  V30 7731 S 716.98 -0.912938 -5.27661 0
M  V30 7732 C 718.136 0.0981362 -6.25823 0
M  V30 7733 H 718.369 -0.724927 -2.88326 0
M  V30 7734 H 715.902 -0.490554 -1.464 0
M  V30 7735 H 717.86 1.60491 -3.77826 0
M  V30 7736 H 716.521 1.73624 -2.61751 0
M  V30 7737 H 715.714 1.11305 -4.91556 0
M  V30 7738 H 715.316 -0.15823 -3.73665 0
M  V30 7739 H 717.608 0.949965 -6.70807 0
M  V30 7740 H 718.551 -0.532838 -7.06092 0
M  V30 7741 H 718.959 0.454944 -5.62664 0
M  V30 7742 N 718.357 1.51182 -0.445186 0
M  V30 7743 C 719.768 1.86693 0.0160999 0
M  V30 7744 C 720.119 1.36183 1.4124 0
M  V30 7745 O 719.244 0.715895 2.04215 0
M  V30 7746 C 719.839 3.38781 0.0359918 0
M  V30 7747 C 718.398 3.73799 0.441715 0
M  V30 7748 C 717.545 2.74947 -0.360511 0
M  V30 7749 H 720.496 1.44294 -0.660674 0
M  V30 7750 H 720.517 3.71026 0.843813 0
M  V30 7751 H 720.029 3.75513 -0.980378 0
M  V30 7752 H 718.13 3.42659 1.4634 0
M  V30 7753 H 718.243 4.78829 0.16106 0
M  V30 7754 H 716.607 2.54047 0.182269 0
M  V30 7755 H 717.39 3.14521 -1.3759 0
M  V30 7756 N 719.835 0.176821 1.56605 0
M  V30 7757 C 720.745 -0.763682 2.21822 0
M  V30 7758 C 721.761 -1.24889 1.21156 0
M  V30 7759 O 722.937 -1.29987 1.53836 0
M  V30 7760 C 720.002 -1.97352 2.8505 0
M  V30 7761 C 719.063 -1.53466 4.00932 0
M  V30 7762 C 718.296 -2.68682 4.61135 0
M  V30 7763 O 718.519 -3.85694 4.20234 0
M  V30 7764 O 717.453 -2.42442 5.50913 0
M  V30 7765 H 721.279 -0.238363 3.02763 0
M  V30 7766 H 718.864 -0.0516331 1.49311 0
M  V30 7767 H 720.746 -2.68096 3.25119 0
M  V30 7768 H 719.421 -2.48779 2.07101 0
M  V30 7769 H 718.328 -0.796551 3.65521 0
M  V30 7770 H 719.661 -1.06724 4.8049 0
M  V30 7771 N 721.313 -1.57302 -0.09688 0
M  V30 7772 C 722.276 -2.00976 -1.10188 0
M  V30 7773 C 723.276 -0.903009 -1.3305 0
M  V30 7774 O 724.466 -1.16853 -1.29194 0
M  V30 7775 C 721.598 -2.36893 -2.45142 0
M  V30 7776 H 722.791 -2.9098 -0.726003 0
M  V30 7777 H 720.344 -1.52515 -0.341872 0
M  V30 7778 H 721.079 -1.49837 -2.8761 0
M  V30 7779 H 720.864 -3.17632 -2.29897 0
M  V30 7780 H 722.354 -2.71345 -3.1743 0
M  V30 7781 N 722.791 0.367657 -1.53252 0
M  V30 7782 C 724.068 1.12606 -1.59935 0
M  V30 7783 C 724.448 2.07167 -0.405606 0
M  V30 7784 O 723.796 2.20364 0.604323 0
M  V30 7785 C 724.006 1.86699 -2.94863 0
M  V30 7786 C 725.354 2.41306 -3.49366 0
M  V30 7787 O 726.378 1.96828 -2.96879 0
M  V30 7788 O 725.237 3.2261 -4.41118 0
M  V30 7789 H 722.331 0.516438 -0.645926 0
M  V30 7790 H 724.877 0.371088 -1.65593 0
M  V30 7791 H 723.649 1.17674 -3.73187 0
M  V30 7792 H 723.272 2.6911 -2.92687 0
M  V30 7793 N 724.269 1.44576 0.627338 0
M  V30 7794 C 725.509 1.49083 1.39834 0
M  V30 7795 C 725.873 0.121643 1.91614 0
M  V30 7796 O 727.074 0.0413885 2.68768 0
M  V30 7797 C 725.345 2.52467 2.52973 0
M  V30 7798 S 726.904 2.7605 3.41089 0
M  V30 7799 H 723.722 0.527252 0.476997 0
M  V30 7800 H 726.324 1.81525 0.725872 0
M  V30 7801 H 725.028 3.50646 2.13249 0
M  V30 7802 H 724.559 2.2161 3.25042 0
M  V30 7803 H 726.574 2.07932 4.50531 0
M  V30 7804 N 725.747 -0.868086 1.31537 0
M  V30 7805 C 726.996 -1.61607 1.20689 0
M  V30 7806 C 727.309 -1.94204 -0.233275 0
M  V30 7807 O 728.515 -2.67515 -0.463465 0
M  V30 7808 C 726.971 -2.91348 2.11292 0
M  V30 7809 C 726.579 -2.66227 3.60315 0
M  V30 7810 C 728.323 -3.69344 2.09249 0
M  V30 7811 C 726.23 -3.91887 4.42921 0
M  V30 7812 H 725.16 -0.606373 0.448138 0
M  V30 7813 H 727.811 -0.959666 1.56405 0
M  V30 7814 H 726.193 -3.58374 1.68477 0
M  V30 7815 H 727.367 -2.07597 4.11388 0
M  V30 7816 H 725.682 -2.01582 3.64354 0
M  V30 7817 H 728.279 -4.62567 2.68209 0
M  V30 7818 H 728.622 -4.02044 1.0801 0
M  V30 7819 H 729.155 -3.09205 2.50274 0
M  V30 7820 H 725.894 -3.64336 5.44922 0
M  V30 7821 H 725.414 -4.49961 3.96605 0
M  V30 7822 H 727.093 -4.59754 4.55231 0
M  V30 7823 N 727.225 -1.14528 -1.08264 0
M  V30 7824 C 728.636 -0.925261 -1.6216 0
M  V30 7825 C 728.987 0.535587 -1.88748 0
M  V30 7826 O 728.112 1.4048 -1.64604 0
M  V30 7827 C 728.707 -1.67316 -2.94603 0
M  V30 7828 C 727.266 -1.49868 -3.45278 0
M  V30 7829 C 726.413 -1.69471 -2.19487 0
M  V30 7830 H 729.364 -1.29687 -0.914707 0
M  V30 7831 H 729.385 -1.13721 -3.63109 0
M  V30 7832 H 728.897 -2.73635 -2.75219 0
M  V30 7833 H 726.998 -0.459032 -3.69762 0
M  V30 7834 H 727.111 -2.2696 -4.21931 0
M  V30 7835 H 725.475 -1.12048 -2.2873 0
M  V30 7836 H 726.258 -2.77136 -2.0261 0
M  V30 7837 N 728.703 1.26451 -0.940633 0
M  V30 7838 C 729.65 2.264 -0.448497 0
M  V30 7839 C 730.62 1.5866 0.491546 0
M  V30 7840 O 731.805 1.86389 0.407874 0
M  V30 7841 C 728.945 3.43956 0.280715 0
M  V30 7842 C 728.058 4.26374 -0.694937 0
M  V30 7843 C 727.193 5.31171 0.0554186 0
M  V30 7844 C 726.232 6.05266 -0.912091 0
M  V30 7845 N 725.369 7.01833 -0.193524 0
M  V30 7846 H 730.209 2.67869 -1.30576 0
M  V30 7847 H 727.746 1.31707 -0.655112 0
M  V30 7848 H 729.704 4.10941 0.71994 0
M  V30 7849 H 728.334 3.03403 1.10212 0
M  V30 7850 H 727.386 3.59183 -1.25267 0
M  V30 7851 H 728.698 4.77748 -1.43382 0
M  V30 7852 H 727.852 6.04166 0.553951 0
M  V30 7853 H 726.591 4.80634 0.827183 0
M  V30 7854 H 725.596 5.31099 -1.42175 0
M  V30 7855 H 726.821 6.57893 -1.68385 0
M  V30 7856 H 724.767 6.53607 0.559758 0
M  V30 7857 H 724.684 7.50957 -0.871744 0
M  V30 7858 H 725.952 7.78983 0.283932 0
M  V30 7859 N 730.181 0.707592 1.40822 0
M  V30 7860 C 731.091 0.0507246 2.34545 0
M  V30 7861 C 732.107 -0.752727 1.56876 0
M  V30 7862 O 733.283 -0.687524 1.89302 0
M  V30 7863 C 730.348 -0.865731 3.35717 0
M  V30 7864 C 729.409 -0.0531313 4.29267 0
M  V30 7865 C 728.642 -0.925939 5.25606 0
M  V30 7866 O 728.865 -2.16531 5.27703 0
M  V30 7867 O 727.799 -0.369194 6.00767 0
M  V30 7868 H 731.625 0.823587 2.9232 0
M  V30 7869 H 729.21 0.46801 1.4188 0
M  V30 7870 H 731.092 -1.39091 3.97783 0
M  V30 7871 H 729.767 -1.61788 2.80368 0
M  V30 7872 H 728.674 0.516931 3.70511 0
M  V30 7873 H 730.007 0.660617 4.87747 0
M  V30 7874 N 731.66 -1.50943 0.453197 0
M  V30 7875 C 732.592 -2.25922 -0.38623 0
M  V30 7876 C 733.605 -1.3055 -0.972652 0
M  V30 7877 O 734.794 -1.56191 -0.864097 0
M  V30 7878 C 731.894 -3.01176 -1.5539 0
M  V30 7879 C 731.067 -4.23768 -1.0835 0
M  V30 7880 C 730.126 -4.81466 -2.12313 0
M  V30 7881 O 729.152 -5.42875 -1.71101 0
M  V30 7882 N 730.354 -4.66889 -3.44956 0
M  V30 7883 H 733.119 -2.98601 0.256468 0
M  V30 7884 H 730.68 -1.59408 0.282965 0
M  V30 7885 H 732.672 -3.36659 -2.24594 0
M  V30 7886 H 731.242 -2.31409 -2.10163 0
M  V30 7887 H 730.462 -3.93597 -0.217961 0
M  V30 7888 H 731.75 -5.03289 -0.746857 0
M  V30 7889 H 731.148 -4.18011 -3.81161 0
M  V30 7890 H 729.705 -5.06691 -4.1001 0
M  V30 7891 N 733.138 -0.185124 -1.56509 0
M  V30 7892 C 734.068 0.735098 -2.21627 0
M  V30 7893 C 735.049 1.2288 -1.1762 0
M  V30 7894 O 736.234 1.27945 -1.46095 0
M  V30 7895 C 733.364 1.95889 -2.86783 0
M  V30 7896 C 732.318 1.6005 -3.96948 0
M  V30 7897 C 731.644 2.90009 -4.4922 0
M  V30 7898 C 732.944 0.818008 -5.15855 0
M  V30 7899 H 734.638 0.192274 -2.98782 0
M  V30 7900 H 732.184 0.0910393 -1.43712 0
M  V30 7901 H 734.137 2.60779 -3.31017 0
M  V30 7902 H 732.861 2.52608 -2.07018 0
M  V30 7903 H 731.52 0.975237 -3.5339 0
M  V30 7904 H 731.168 3.44797 -3.6623 0
M  V30 7905 H 730.868 2.66778 -5.23549 0
M  V30 7906 H 732.392 3.55904 -4.9615 0
M  V30 7907 H 733.806 1.36979 -5.56695 0
M  V30 7908 H 732.203 0.684207 -5.96187 0
M  V30 7909 H 733.273 -0.182939 -4.84555 0
M  V30 7910 N 734.616 1.57351 0.0885366 0
M  V30 7911 C 735.841 1.91011 0.80805 0
M  V30 7912 C 736.266 0.780009 1.71165 0
M  V30 7913 O 735.624 -0.268083 1.79307 0
M  V30 7914 C 735.672 3.23562 1.59185 0
M  V30 7915 O 734.776 3.11615 2.7013 0
M  V30 7916 H 734.117 0.625943 0.221565 0
M  V30 7917 H 736.647 2.04507 0.0617954 0
M  V30 7918 H 736.657 3.5703 1.97468 0
M  V30 7919 H 735.332 4.05398 0.928741 0
M  V30 7920 H 733.909 2.89673 2.34827 0
M  V30 7921 N 736.094 -0.359525 1.53444 0
M  V30 7922 C 737.322 -1.12198 1.73837 0
M  V30 7923 C 737.737 -1.82854 0.470107 0
M  V30 7924 O 737.094 -1.73781 -0.557349 0
M  V30 7925 C 737.145 -2.14769 2.90786 0
M  V30 7926 O 736.866 -1.46989 4.12706 0
M  V30 7927 C 738.367 -3.03514 3.231 0
M  V30 7928 H 735.587 -0.33524 0.581253 0
M  V30 7929 H 738.131 -0.416598 2.00212 0
M  V30 7930 H 736.286 -2.80896 2.66788 0
M  V30 7931 H 736.7 -2.15378 4.78239 0
M  V30 7932 H 738.174 -3.71453 4.08322 0
M  V30 7933 H 738.651 -3.68658 2.38721 0
M  V30 7934 H 739.257 -2.42996 3.49046 0
M  V30 7935 N 737.572 -1.44907 -0.619662 0
M  V30 7936 C 738.797 -1.52021 -1.41083 0
M  V30 7937 C 739.222 -0.14976 -1.87503 0
M  V30 7938 O 738.58 0.863303 -1.59426 0
M  V30 7939 C 738.628 -2.49911 -2.59955 0
M  V30 7940 O 737.732 -2.00857 -3.60181 0
M  V30 7941 H 737.073 -0.512912 -0.421684 0
M  V30 7942 H 739.603 -1.90149 -0.755282 0
M  V30 7943 H 739.613 -2.68323 -3.07354 0
M  V30 7944 H 738.288 -3.4945 -2.25516 0
M  V30 7945 H 736.865 -1.92265 -3.19513 0
M  V30 7946 N 739.05 0.861098 -1.31996 0
M  V30 7947 C 740.297 1.61481 -1.22188 0
M  V30 7948 C 740.625 1.93276 0.217853 0
M  V30 7949 O 739.88 1.56942 1.16909 0
M  V30 7950 C 740.179 2.94822 -2.02027 0
M  V30 7951 C 739.845 2.82483 -3.51446 0
M  V30 7952 C 738.507 2.78825 -3.92186 0
M  V30 7953 C 740.859 2.68878 -4.46491 0
M  V30 7954 C 738.187 2.59433 -5.26224 0
M  V30 7955 C 740.539 2.51022 -5.80664 0
M  V30 7956 C 739.203 2.45753 -6.20614 0
M  V30 7957 H 738.473 0.590902 -0.447119 0
M  V30 7958 H 741.12 0.999376 -1.63355 0
M  V30 7959 H 739.425 3.6045 -1.53569 0
M  V30 7960 H 741.122 3.52149 -1.91812 0
M  V30 7961 H 737.712 2.86152 -3.19085 0
M  V30 7962 H 741.896 2.70754 -4.1594 0
M  V30 7963 H 737.152 2.53784 -5.5624 0
M  V30 7964 H 741.326 2.39473 -6.53931 0
M  V30 7965 H 738.953 2.30485 -7.24417 0
M  V30 7966 N 740.528 1.15101 1.07655 0
M  V30 7967 C 741.46 0.802722 2.14684 0
M  V30 7968 C 742.473 -0.183874 1.61758 0
M  V30 7969 O 743.662 0.0389349 1.78458 0
M  V30 7970 C 740.762 0.172135 3.38463 0
M  V30 7971 C 739.935 1.19538 4.20749 0
M  V30 7972 C 738.994 0.58714 5.22914 0
M  V30 7973 O 738.02 1.25224 5.55255 0
M  V30 7974 N 739.222 -0.632566 5.77043 0
M  V30 7975 H 741.987 1.72379 2.45164 0
M  V30 7976 H 739.548 1.04647 1.23534 0
M  V30 7977 H 741.54 -0.247465 4.03943 0
M  V30 7978 H 740.11 -0.652214 3.0572 0
M  V30 7979 H 739.33 1.79165 3.51132 0
M  V30 7980 H 740.618 1.88636 4.7254 0
M  V30 7981 H 740.016 -1.19135 5.53013 0
M  V30 7982 H 738.573 -0.994566 6.44167 0
M  V30 7983 N 742.006 -1.2595 0.947325 0
M  V30 7984 C 743.252 -1.94081 0.608604 0
M  V30 7985 C 743.607 -1.72899 -0.844021 0
M  V30 7986 O 742.9 -1.05908 -1.59669 0
M  V30 7987 C 743.094 -3.46034 0.894158 0
M  V30 7988 C 742.923 -3.81994 2.37299 0
M  V30 7989 C 741.693 -4.04431 3.02925 0
M  V30 7990 C 743.891 -3.90069 3.35188 0
M  V30 7991 N 741.873 -4.27325 4.40757 0
M  V30 7992 C 743.244 -4.17567 4.58299 0
M  V30 7993 C 745.299 -3.72721 3.30127 0
M  V30 7994 C 744.002 -4.2952 5.76979 0
M  V30 7995 C 746.028 -3.8591 4.48138 0
M  V30 7996 C 745.39 -4.13812 5.70034 0
M  V30 7997 H 741.489 -0.73273 0.273187 0
M  V30 7998 H 744.073 -1.51898 1.218 0
M  V30 7999 H 742.244 -3.87131 0.313758 0
M  V30 8000 H 743.976 -4.01396 0.516082 0
M  V30 8001 H 740.731 -4.0003 2.53521 0
M  V30 8002 H 741.155 -4.42792 5.12118 0
M  V30 8003 H 745.797 -3.50172 2.36938 0
M  V30 8004 H 743.515 -4.50888 6.70616 0
M  V30 8005 H 747.101 -3.73882 4.45762 0
M  V30 8006 H 745.981 -4.23791 6.59827 0
M  V30 8007 N 743.484 -0.715051 -1.40445 0
M  V30 8008 C 744.73 -0.254705 -2.01194 0
M  V30 8009 C 745.063 1.14894 -1.56567 0
M  V30 8010 O 744.338 1.77933 -0.785491 0
M  V30 8011 C 744.621 -0.334148 -3.58546 0
M  V30 8012 C 744.474 -1.77613 -4.13248 0
M  V30 8013 C 745.793 0.294968 -4.3911 0
M  V30 8014 H 742.912 -0.094025 -0.730978 0
M  V30 8015 H 745.554 -0.907449 -1.66929 0
M  V30 8016 H 743.704 0.221609 -3.87867 0
M  V30 8017 H 745.376 -2.38723 -3.94727 0
M  V30 8018 H 743.619 -2.30402 -3.67556 0
M  V30 8019 H 744.29 -1.78311 -5.22407 0
M  V30 8020 H 746.766 -0.178563 -4.15717 0
M  V30 8021 H 745.642 0.208934 -5.48502 0
M  V30 8022 H 745.903 1.37841 -4.20062 0
M  V30 8023 N 744.962 1.50701 -0.461195 0
M  V30 8024 C 746.19 2.06681 0.0951756 0
M  V30 8025 C 746.605 1.32615 1.34382 0
M  V30 8026 O 745.962 0.392531 1.78229 0
M  V30 8027 C 746.013 3.59354 0.393316 0
M  V30 8028 O 745.734 4.30626 -0.805797 0
M  V30 8029 C 747.235 4.31926 0.997744 0
M  V30 8030 H 744.455 0.670995 -0.00267259 0
M  V30 8031 H 746.999 1.93991 -0.647137 0
M  V30 8032 H 745.154 3.7188 1.08555 0
M  V30 8033 H 745.568 5.21667 -0.544409 0
M  V30 8034 H 747.042 5.39756 1.15619 0
M  V30 8035 H 747.519 3.91772 1.98523 0
M  V30 8036 H 748.125 4.23905 0.344188 0
M  V30 8037 N 746.441 0.193421 1.56409 0
M  V30 8038 C 747.388 -0.728124 2.19014 0
M  V30 8039 C 748.358 -1.21098 1.13686 0
M  V30 8040 O 749.543 -1.27517 1.4193 0
M  V30 8041 C 746.683 -1.94277 2.8522 0
M  V30 8042 C 745.796 -1.50143 4.05069 0
M  V30 8043 C 744.931 -2.67145 4.59137 0
M  V30 8044 C 743.97 -2.19609 5.71348 0
M  V30 8045 N 743.107 -3.29782 6.19829 0
M  V30 8046 H 747.947 -0.187499 2.9741 0
M  V30 8047 H 745.484 -0.0808064 1.46878 0
M  V30 8048 H 747.442 -2.65551 3.21774 0
M  V30 8049 H 746.072 -2.45673 2.09391 0
M  V30 8050 H 745.124 -0.684624 3.74189 0
M  V30 8051 H 746.436 -1.11266 4.86232 0
M  V30 8052 H 745.59 -3.46544 4.97988 0
M  V30 8053 H 744.329 -3.09295 3.77078 0
M  V30 8054 H 743.334 -1.38664 5.32027 0
M  V30 8055 H 744.559 -1.78492 6.55223 0
M  V30 8056 H 742.505 -3.71466 5.40693 0
M  V30 8057 H 742.422 -2.95069 6.96039 0
M  V30 8058 H 743.69 -4.094 6.63334 0
M  V30 8059 N 747.919 -1.57396 -0.0801906 0
M  V30 8060 C 749.165 -1.87979 -0.776884 0
M  V30 8061 C 749.52 -0.786098 -1.75608 0
M  V30 8062 O 748.813 0.210541 -1.9044 0
M  V30 8063 C 749.007 -3.22915 -1.53169 0
M  V30 8064 C 748.836 -4.45306 -0.627099 0
M  V30 8065 C 747.606 -5.04593 -0.267201 0
M  V30 8066 C 749.804 -5.14249 0.0724916 0
M  V30 8067 N 747.786 -6.10513 0.643995 0
M  V30 8068 C 749.157 -6.14267 0.841191 0
M  V30 8069 C 751.212 -4.97689 0.144847 0
M  V30 8070 C 749.915 -6.99514 1.67551 0
M  V30 8071 C 751.941 -5.83455 0.966112 0
M  V30 8072 C 751.303 -6.83005 1.72288 0
M  V30 8073 H 747.402 -0.737519 -0.259979 0
M  V30 8074 H 749.986 -1.94661 -0.0387512 0
M  V30 8075 H 748.157 -3.17256 -2.2406 0
M  V30 8076 H 749.889 -3.41174 -2.17675 0
M  V30 8077 H 746.644 -4.69548 -0.618194 0
M  V30 8078 H 747.068 -6.68125 1.09259 0
M  V30 8079 H 751.71 -4.20649 -0.4259 0
M  V30 8080 H 749.428 -7.75934 2.25726 0
M  V30 8081 H 753.014 -5.727 1.02497 0
M  V30 8082 H 751.894 -7.48219 2.34813 0
M  V30 8083 N 749.397 0.351382 -1.53633 0
M  V30 8084 C 750.643 1.09411 -1.70754 0
M  V30 8085 C 750.976 1.88544 -0.465293 0
M  V30 8086 O 750.251 1.86923 0.537608 0
M  V30 8087 C 750.534 2.04173 -2.96623 0
M  V30 8088 C 750.387 1.28556 -4.31038 0
M  V30 8089 C 751.706 3.04102 -3.18136 0
M  V30 8090 H 748.825 0.396373 -0.621335 0
M  V30 8091 H 751.467 0.373464 -1.86293 0
M  V30 8092 H 749.617 2.65625 -2.83506 0
M  V30 8093 H 751.289 0.697786 -4.55992 0
M  V30 8094 H 749.532 0.587498 -4.29803 0
M  V30 8095 H 750.203 1.97989 -5.15271 0
M  V30 8096 H 752.679 2.5276 -3.30532 0
M  V30 8097 H 751.555 3.67616 -4.07615 0
M  V30 8098 H 751.816 3.75053 -2.34068 0
M  V30 8099 N 750.875 1.45233 0.611969 0
M  V30 8100 C 752.152 1.39495 1.37115 0
M  V30 8101 C 752.532 0.0633303 2.11005 0
M  V30 8102 O 751.88 -0.954617 2.07604 0
M  V30 8103 C 752.09 2.60579 2.32163 0
M  V30 8104 C 753.438 3.05477 2.94905 0
M  V30 8105 O 754.462 2.60921 2.42485 0
M  V30 8106 O 753.321 3.82787 3.90047 0
M  V30 8107 H 750.415 0.55335 0.614599 0
M  V30 8108 H 752.961 1.57355 0.635423 0
M  V30 8109 H 751.733 3.49085 1.76793 0
M  V30 8110 H 751.356 2.45031 3.13122 0
M  V30 8111 N 752.353 -0.854086 1.3245 0
M  V30 8112 C 753.583 -1.63836 1.25862 0
M  V30 8113 C 753.991 -1.88383 -0.175588 0
M  V30 8114 O 753.334 -1.45353 -1.1233 0
M  V30 8115 C 753.396 -3.02068 1.94923 0
M  V30 8116 C 753.06 -3.0056 3.44257 0
M  V30 8117 C 754.057 -2.77368 4.39731 0
M  V30 8118 C 751.742 -3.21177 3.862 0
M  V30 8119 C 753.736 -2.74797 5.75122 0
M  V30 8120 C 751.423 -3.18234 5.217 0
M  V30 8121 C 752.421 -2.95072 6.15972 0
M  V30 8122 O 752.109 -2.92003 7.48992 0
M  V30 8123 H 751.841 -0.517007 0.435523 0
M  V30 8124 H 754.395 -1.07314 1.75137 0
M  V30 8125 H 752.625 -3.60382 1.40219 0
M  V30 8126 H 754.314 -3.62791 1.82037 0
M  V30 8127 H 755.08 -2.61205 4.08653 0
M  V30 8128 H 750.959 -3.38231 3.13243 0
M  V30 8129 H 754.503 -2.56638 6.48678 0
M  V30 8130 H 750.4 -3.33941 5.52407 0
M  V30 8131 H 751.168 -3.07953 7.58358 0
M  V30 8132 N 753.831 -1.1567 -1.07043 0
M  V30 8133 C 755.056 -0.957946 -1.83952 0
M  V30 8134 C 755.481 0.488807 -1.81638 0
M  V30 8135 O 754.839 1.34869 -1.21162 0
M  V30 8136 C 754.887 -1.48064 -3.288 0
M  V30 8137 O 753.991 -0.681921 -4.06723 0
M  V30 8138 H 753.332 -0.341453 -0.569479 0
M  V30 8139 H 755.862 -1.53728 -1.35015 0
M  V30 8140 H 755.872 -1.49484 -3.7963 0
M  V30 8141 H 754.547 -2.53388 -3.29799 0
M  V30 8142 H 753.124 -0.737612 -3.65532 0
M  V30 8143 N 755.309 1.25446 -0.953992 0
M  V30 8144 C 756.257 2.27909 -0.46478 0
M  V30 8145 C 757.251 1.62904 0.464607 0
M  V30 8146 O 758.457 1.76733 0.341407 0
M  V30 8147 H 754.832 0.74036 -0.131798 0
M  V30 8148 H 756.803 2.66559 -1.34122 0
M  V30 8149 C 755.552 3.46853 0.242589 0
M  V30 8150 H 754.875 3.97105 -0.463418 0
M  V30 8151 H 756.315 4.20432 0.548919 0
M  V30 8152 C 754.774 3.03386 1.46487 0
M  V30 8153 O 755.304 3.09342 2.56262 0
M  V30 8154 N 753.51 2.58584 1.32599 0
M  V30 8155 H 753.057 2.53938 0.432834 0
M  V30 8156 H 753.015 2.29866 2.14497 0
M  V30 8157 N 756.787 0.722489 1.40064 0
M  V30 8158 C 757.734 0.0743738 2.3068 0
M  V30 8159 C 758.704 -0.743004 1.48555 0
M  V30 8160 O 759.889 -0.705536 1.77276 0
M  V30 8161 C 757.029 -0.836292 3.34814 0
M  V30 8162 C 756.142 -0.00764663 4.31999 0
M  V30 8163 C 755.277 -0.918428 5.232 0
M  V30 8164 C 754.316 -0.0842838 6.12042 0
M  V30 8165 N 753.453 -0.950316 6.95639 0
M  V30 8166 H 758.293 0.852794 2.85537 0
M  V30 8167 H 755.83 0.432222 1.40607 0
M  V30 8168 H 757.788 -1.3786 3.93765 0
M  V30 8169 H 756.418 -1.58082 2.81443 0
M  V30 8170 H 755.47 0.651928 3.74772 0
M  V30 8171 H 756.782 0.63786 4.94705 0
M  V30 8172 H 755.936 -1.52902 5.87116 0
M  V30 8173 H 754.675 -1.59774 4.60786 0
M  V30 8174 H 753.68 0.5392 5.4715 0
M  V30 8175 H 754.905 0.591628 6.76518 0
M  V30 8176 H 752.851 -1.61515 6.35806 0
M  V30 8177 H 752.768 -0.361004 7.55138 0
M  V30 8178 H 754.036 -1.54687 7.63997 0
M  V30 8179 N 758.265 -1.50454 0.469181 0
M  V30 8180 C 759.495 -2.06429 -0.0840913 0
M  V30 8181 C 759.903 -1.3334 -1.34227 0
M  V30 8182 O 759.246 -0.395656 -1.79389 0
M  V30 8183 C 759.308 -3.56797 -0.440049 0
M  V30 8184 C 758.972 -4.51359 0.715838 0
M  V30 8185 C 759.969 -4.94754 1.59732 0
M  V30 8186 C 757.654 -4.94069 0.905621 0
M  V30 8187 C 759.648 -5.79564 2.653 0
M  V30 8188 C 757.335 -5.78662 1.96453 0
M  V30 8189 C 758.333 -6.21311 2.83658 0
M  V30 8190 O 758.021 -7.04218 3.87727 0
M  V30 8191 H 757.753 -0.675994 0.00289751 0
M  V30 8192 H 760.307 -1.94629 0.656417 0
M  V30 8193 H 758.537 -3.66492 -1.23372 0
M  V30 8194 H 760.226 -3.95145 -0.928181 0
M  V30 8195 H 760.992 -4.62428 1.46237 0
M  V30 8196 H 756.871 -4.60394 0.236326 0
M  V30 8197 H 760.415 -6.12774 3.33398 0
M  V30 8198 H 756.312 -6.10401 2.09955 0
M  V30 8199 H 757.08 -7.22464 3.84692 0
M  V30 8200 N 759.743 -0.201713 -1.56304 0
M  V30 8201 C 760.991 0.434447 -1.97375 0
M  V30 8202 C 761.312 1.61692 -1.08998 0
M  V30 8203 O 760.582 1.95223 -0.162682 0
M  V30 8204 H 759.162 0.163497 -0.728888 0
M  V30 8205 H 761.824 -0.289988 -1.92731 0
M  V30 8206 H 760.92 0.774136 -3.02347 0
M  V30 8207 N 761.222 1.57436 0.0718424 0
M  V30 8208 C 762.469 1.87248 0.771007 0
M  V30 8209 C 762.797 0.793441 1.7758 0
M  V30 8210 O 762.052 -0.210565 1.94564 0
M  V30 8211 C 762.351 3.23723 1.51455 0
M  V30 8212 C 762.017 4.46194 0.649736 0
M  V30 8213 C 760.679 4.79438 0.411409 0
M  V30 8214 C 763.031 5.21176 0.05004 0
M  V30 8215 C 760.359 5.85077 -0.436096 0
M  V30 8216 C 762.711 6.27712 -0.784919 0
M  V30 8217 C 761.375 6.59457 -1.03312 0
M  V30 8218 H 760.645 0.685188 0.282132 0
M  V30 8219 H 763.292 1.91474 0.0317896 0
M  V30 8220 H 761.597 3.15287 2.32597 0
M  V30 8221 H 763.294 3.44023 2.06031 0
M  V30 8222 H 759.884 4.20175 0.84562 0
M  V30 8223 H 764.068 4.95806 0.221282 0
M  V30 8224 H 759.324 6.08071 -0.637136 0
M  V30 8225 H 763.498 6.84974 -1.25635 0
M  V30 8226 H 761.125 7.4114 -1.6916 0
M  V30 8227 N 762.7 -0.34323 1.53817 0
M  V30 8228 C 763.948 -1.0813 1.70741 0
M  V30 8229 C 764.269 -1.89165 0.473461 0
M  V30 8230 O 763.539 -1.89075 -0.512605 0
M  V30 8231 H 762.119 -0.40219 0.629486 0
M  V30 8232 H 764.781 -0.384426 1.91071 0
M  V30 8233 H 763.877 -1.7585 2.57843 0
M  V30 8234 N 764.178 -1.45556 -0.604258 0
M  V30 8235 C 765.408 -1.53056 -1.38771 0
M  V30 8236 C 765.816 -0.163092 -1.88496 0
M  V30 8237 O 765.159 0.846157 -1.63052 0
M  V30 8238 C 765.221 -2.45656 -2.62476 0
M  V30 8239 C 764.885 -3.92328 -2.34367 0
M  V30 8240 C 765.882 -4.82137 -1.94525 0
M  V30 8241 C 763.567 -4.37275 -2.47177 0
M  V30 8242 C 765.561 -6.14901 -1.67856 0
M  V30 8243 C 763.248 -5.70079 -2.20122 0
M  V30 8244 C 764.246 -6.58711 -1.80524 0
M  V30 8245 O 763.934 -7.89053 -1.53788 0
M  V30 8246 H 763.666 -0.520721 -0.431075 0
M  V30 8247 H 766.22 -1.91464 -0.743693 0
M  V30 8248 H 764.45 -2.02225 -3.29609 0
M  V30 8249 H 766.139 -2.43802 -3.24523 0
M  V30 8250 H 766.905 -4.48675 -1.84162 0
M  V30 8251 H 762.784 -3.68527 -2.76964 0
M  V30 8252 H 766.328 -6.8404 -1.36874 0
M  V30 8253 H 762.225 -6.03095 -2.30102 0
M  V30 8254 H 762.993 -8.01113 -1.67812 0
M  V30 8255 N 765.656 0.84705 -1.32902 0
M  V30 8256 C 766.588 1.96308 -1.18304 0
M  V30 8257 C 767.601 1.62386 -0.116082 0
M  V30 8258 O 768.79 1.74713 -0.365751 0
M  V30 8259 C 765.89 3.29556 -0.790305 0
M  V30 8260 C 765.063 3.91668 -1.94717 0
M  V30 8261 C 764.122 5.0326 -1.53674 0
M  V30 8262 O 763.148 5.22847 -2.24989 0
M  V30 8263 N 764.35 5.78852 -0.437075 0
M  V30 8264 H 767.115 2.09369 -2.14441 0
M  V30 8265 H 764.676 1.02233 -1.25539 0
M  V30 8266 H 766.668 4.01624 -0.49799 0
M  V30 8267 H 765.238 3.12497 0.0801286 0
M  V30 8268 H 764.458 3.12292 -2.40557 0
M  V30 8269 H 765.746 4.299 -2.72146 0
M  V30 8270 H 765.144 5.65484 0.156316 0
M  V30 8271 H 763.701 6.51479 -0.204399 0
M  V30 8272 N 767.134 1.16236 1.06428 0
M  V30 8273 C 768.064 0.890807 2.1584 0
M  V30 8274 C 769.045 -0.162333 1.69324 0
M  V30 8275 O 770.23 -0.0147191 1.94194 0
M  V30 8276 C 767.36 0.389615 3.45108 0
M  V30 8277 C 766.314 1.38051 4.05125 0
M  V30 8278 C 765.64 0.737773 5.29586 0
M  V30 8279 C 766.94 2.74965 4.44062 0
M  V30 8280 H 768.634 1.80577 2.38814 0
M  V30 8281 H 766.18 0.869657 1.14774 0
M  V30 8282 H 768.133 0.187127 4.20984 0
M  V30 8283 H 766.857 -0.560851 3.21748 0
M  V30 8284 H 765.516 1.56952 3.31303 0
M  V30 8285 H 765.164 -0.219135 5.02522 0
M  V30 8286 H 764.864 1.39914 5.70699 0
M  V30 8287 H 766.388 0.545275 6.0816 0
M  V30 8288 H 767.802 2.59855 5.11027 0
M  V30 8289 H 766.199 3.37563 4.96156 0
M  V30 8290 H 767.269 3.30321 3.54987 0
M  V30 8291 N 768.612 -1.24939 0.960631 0
M  V30 8292 C 769.837 -1.9742 0.635608 0
M  V30 8293 C 770.262 -1.70857 -0.786737 0
M  V30 8294 O 769.62 -0.968063 -1.53291 0
M  V30 8295 C 769.668 -3.48987 0.907771 0
M  V30 8296 O 768.772 -4.12399 -0.0104053 0
M  V30 8297 H 768.113 -0.61871 0.241027 0
M  V30 8298 H 770.643 -1.58901 1.28886 0
M  V30 8299 H 770.653 -3.99334 0.836453 0
M  V30 8300 H 769.328 -3.6765 1.94439 0
M  V30 8301 H 767.905 -3.72727 0.113631 0
M  V30 8302 N 770.09 -0.729906 -1.39679 0
M  V30 8303 C 771.367 -0.202149 -1.94553 0
M  V30 8304 C 771.747 1.29507 -1.66707 0
M  V30 8305 O 771.095 2.05819 -0.992517 0
M  V30 8306 C 771.305 -0.530279 -3.44948 0
M  V30 8307 C 772.653 -0.476808 -4.21914 0
M  V30 8308 O 773.677 -0.467171 -3.53123 0
M  V30 8309 O 772.536 -0.466869 -5.44502 0
M  V30 8310 H 769.63 -0.0351644 -0.826252 0
M  V30 8311 H 772.176 -0.808417 -1.49207 0
M  V30 8312 H 770.948 -1.56526 -3.5863 0
M  V30 8313 H 770.571 0.10522 -3.97461 0
M  V30 8314 N 771.568 1.50203 -0.477153 0
M  V30 8315 C 772.518 2.25561 0.332625 0
M  V30 8316 C 773.502 1.29401 0.956249 0
M  V30 8317 O 774.694 1.54267 0.867795 0
M  V30 8318 C 771.823 3.12984 1.41052 0
M  V30 8319 C 770.909 4.16595 0.79433 0
M  V30 8320 N 771.3 5.05722 -0.0889633 0
M  V30 8321 C 769.598 4.33279 1.0576 0
M  V30 8322 C 770.299 5.80039 -0.439286 0
M  V30 8323 N 769.275 5.43278 0.187018 0
M  V30 8324 H 773.077 2.91836 -0.347718 0
M  V30 8325 H 770.591 1.59759 -0.291686 0
M  V30 8326 H 772.588 3.65582 2.00388 0
M  V30 8327 H 771.248 2.48258 2.09279 0
M  V30 8328 H 772.259 5.15869 -0.458205 0
M  V30 8329 H 768.936 3.79769 1.7344 0
M  V30 8330 H 770.326 6.61802 -1.1605 0
M  V30 8331 N 773.046 0.209999 1.56195 0
M  V30 8332 C 774.274 -0.429996 2.02382 0
M  V30 8333 C 774.689 -1.54159 1.08998 0
M  V30 8334 O 774.046 -1.82239 0.0974856 0
M  V30 8335 C 774.097 -0.972433 3.48175 0
M  V30 8336 O 773.818 0.0948231 4.37997 0
M  V30 8337 C 775.319 -1.68683 4.09952 0
M  V30 8338 H 772.539 -0.106475 0.662498 0
M  V30 8339 H 775.083 0.323072 2.01932 0
M  V30 8340 H 773.238 -1.67582 3.49278 0
M  V30 8341 H 773.652 -0.31113 5.23576 0
M  V30 8342 H 775.126 -2.01851 5.13771 0
M  V30 8343 H 775.603 -2.59587 3.54276 0
M  V30 8344 H 776.209 -1.02893 4.12666 0
M  V30 8345 N 774.524 -1.57472 -0.0634922 0
M  V30 8346 C 775.77 -1.87932 -0.762194 0
M  V30 8347 C 776.103 -0.803377 -1.76804 0
M  V30 8348 O 775.378 0.185468 -1.93614 0
M  V30 8349 C 775.661 -3.29053 -1.46275 0
M  V30 8350 C 775.514 -4.47309 -0.472755 0
M  V30 8351 C 776.833 -3.68537 -2.40558 0
M  V30 8352 H 773.952 -0.683521 -0.275624 0
M  V30 8353 H 776.594 -1.89983 -0.0252651 0
M  V30 8354 H 774.744 -3.27435 -2.0909 0
M  V30 8355 H 776.416 -4.61053 0.150828 0
M  V30 8356 H 774.659 -4.33286 0.211187 0
M  V30 8357 H 775.33 -5.42853 -1.00072 0
M  V30 8358 H 777.806 -3.71302 -1.87814 0
M  V30 8359 H 776.682 -4.68152 -2.86574 0
M  V30 8360 H 776.943 -2.98917 -3.25731 0
M  V30 8361 N 776.003 0.335068 -1.53997 0
M  V30 8362 C 777.251 1.07223 -1.71312 0
M  V30 8363 C 777.572 1.88911 -0.483486 0
M  V30 8364 O 776.842 1.89344 0.50257 0
M  V30 8365 H 775.422 0.398846 -0.63161 0
M  V30 8366 H 778.084 0.374288 -1.91272 0
M  V30 8367 H 777.18 1.7448 -2.58772 0
M  V30 8368 N 777.481 1.45874 0.596531 0
M  V30 8369 C 778.727 1.5069 1.35722 0
M  V30 8370 C 779.06 0.152506 1.936 0
M  V30 8371 O 778.335 -0.834411 1.75692 0
M  V30 8372 C 778.618 2.59474 2.4969 0
M  V30 8373 C 778.471 4.04396 1.96937 0
M  V30 8374 C 779.79 2.64451 3.51787 0
M  V30 8375 H 776.909 0.548611 0.492133 0
M  V30 8376 H 779.551 1.77741 0.671428 0
M  V30 8377 H 777.701 2.36539 3.08191 0
M  V30 8378 H 779.373 4.38576 1.43 0
M  V30 8379 H 777.616 4.14529 1.27859 0
M  V30 8380 H 778.287 4.76218 2.79143 0
M  V30 8381 H 780.763 2.85031 3.03145 0
M  V30 8382 H 779.639 3.42411 4.29006 0
M  V30 8383 H 779.9 1.69965 4.08123 0
M  V30 8384 N 778.959 -0.83999 1.33349 0
M  V30 8385 C 779.889 -1.965 1.26135 0
M  V30 8386 C 780.87 -1.69505 0.142152 0
M  V30 8387 O 782.055 -1.91346 0.331743 0
M  V30 8388 C 779.185 -3.32632 0.99866 0
M  V30 8389 C 778.139 -3.74021 2.08068 0
M  V30 8390 C 777.465 -5.07947 1.67014 0
M  V30 8391 C 778.765 -3.87925 3.49731 0
M  V30 8392 H 780.459 -2.02793 2.20262 0
M  V30 8393 H 778.005 -0.974297 1.06035 0
M  V30 8394 H 779.958 -4.10903 0.934696 0
M  V30 8395 H 778.682 -3.26593 0.0217759 0
M  V30 8396 H 777.341 -2.98012 2.13505 0
M  V30 8397 H 776.989 -4.98378 0.680316 0
M  V30 8398 H 776.689 -5.36611 2.39422 0
M  V30 8399 H 778.213 -5.88695 1.62082 0
M  V30 8400 H 779.627 -4.5651 3.46802 0
M  V30 8401 H 778.024 -4.28023 4.20614 0
M  V30 8402 H 779.094 -2.90407 3.88319 0
M  V30 8403 N 780.437 -1.16799 -1.0581 0
M  V30 8404 C 781.684 -0.952524 -1.78699 0
M  V30 8405 C 782.012 0.51931 -1.87439 0
M  V30 8406 O 781.267 1.40151 -1.36587 0
M  V30 8407 C 781.566 -1.53111 -3.22942 0
M  V30 8408 C 781.232 -3.0261 -3.34273 0
M  V30 8409 C 779.894 -3.43418 -3.37072 0
M  V30 8410 C 782.246 -3.98611 -3.35795 0
M  V30 8411 C 779.574 -4.78838 -3.39015 0
M  V30 8412 C 781.926 -5.33923 -3.39277 0
M  V30 8413 C 780.59 -5.74205 -3.40361 0
M  V30 8414 H 779.86 -0.348553 -0.653905 0
M  V30 8415 H 782.507 -1.45591 -1.244 0
M  V30 8416 H 780.812 -0.949286 -3.80126 0
M  V30 8417 H 782.509 -1.34002 -3.77948 0
M  V30 8418 H 779.099 -2.70075 -3.32803 0
M  V30 8419 H 783.283 -3.68146 -3.32839 0
M  V30 8420 H 778.539 -5.09369 -3.38161 0
M  V30 8421 H 782.713 -6.08094 -3.39403 0
M  V30 8422 H 780.34 -6.79117 -3.4162 0
M  V30 8423 N 781.915 1.24427 -0.967243 0
M  V30 8424 C 782.863 2.27403 -0.488927 0
M  V30 8425 C 783.857 1.63388 0.447302 0
M  V30 8426 O 785.063 1.77085 0.322643 0
M  V30 8427 H 781.438 0.738921 -0.139643 0
M  V30 8428 H 783.409 2.65122 -1.36942 0
M  V30 8429 C 782.158 3.4709 0.205787 0
M  V30 8430 H 781.481 3.96591 -0.50551 0
M  V30 8431 H 782.921 4.2099 0.504296 0
M  V30 8432 C 781.38 3.04923 1.43261 0
M  V30 8433 O 781.91 3.12043 2.52967 0
M  V30 8434 N 780.116 2.59976 1.29849 0
M  V30 8435 H 779.663 2.54382 0.405876 0
M  V30 8436 H 779.621 2.32128 2.12047 0
M  V30 8437 N 783.393 0.737304 1.3929 0
M  V30 8438 C 784.341 0.0879867 2.32434 0
M  V30 8439 C 785.335 -0.723324 1.53181 0
M  V30 8440 O 786.541 -0.624251 1.68829 0
M  V30 8441 H 782.916 0.00965277 0.751938 0
M  V30 8442 H 784.887 0.889915 2.84821 0
M  V30 8443 C 783.636 -0.803384 3.38291 0
M  V30 8444 H 782.959 -0.18849 3.99355 0
M  V30 8445 H 784.399 -1.22528 4.0591 0
M  V30 8446 C 782.858 -1.93872 2.75527 0
M  V30 8447 O 783.388 -3.03154 2.63553 0
M  V30 8448 N 781.594 -1.72883 2.3358 0
M  V30 8449 H 781.141 -0.840005 2.43519 0
M  V30 8450 H 781.099 -2.49021 1.91927 0
M  V30 8451 N 784.871 -1.49948 0.485112 0
M  V30 8452 C 786.119 -2.01996 -0.0648775 0
M  V30 8453 C 786.44 -1.36819 -1.38945 0
M  V30 8454 O 785.71 -0.518163 -1.88923 0
M  V30 8455 H 784.29 -0.746513 -0.0269662 0
M  V30 8456 H 786.952 -1.84136 0.638733 0
M  V30 8457 H 786.048 -3.11418 -0.20617 0
M  V30 8458 N 786.349 -0.21828 -1.56081 0
M  V30 8459 C 787.312 0.679633 -2.18892 0
M  V30 8460 C 788.312 1.12405 -1.14986 0
M  V30 8461 O 789.502 1.03339 -1.40238 0
M  V30 8462 C 786.634 1.93063 -2.80962 0
M  V30 8463 H 787.827 0.132066 -2.99609 0
M  V30 8464 H 785.38 0.0313374 -1.56269 0
M  V30 8465 H 786.115 2.52015 -2.04106 0
M  V30 8466 H 785.9 1.62046 -3.57048 0
M  V30 8467 H 787.39 2.57043 -3.29118 0
M  V30 8468 N 787.827 1.57504 0.0551401 0
M  V30 8469 C 788.777 2.0128 1.071 0
M  V30 8470 C 789.761 0.897592 1.33537 0
M  V30 8471 O 790.953 1.16151 1.33558 0
M  V30 8472 C 788.082 2.47414 2.37994 0
M  V30 8473 C 787.168 3.65703 2.14761 0
M  V30 8474 N 787.559 4.79323 1.61504 0
M  V30 8475 C 785.857 3.72574 2.45162 0
M  V30 8476 C 786.558 5.61089 1.53472 0
M  V30 8477 N 785.534 5.05426 2.00114 0
M  V30 8478 H 789.336 2.86558 0.652829 0
M  V30 8479 H 786.85 1.60274 0.26193 0
M  V30 8480 H 788.847 2.77023 3.11551 0
M  V30 8481 H 787.507 1.6353 2.80514 0
M  V30 8482 H 788.518 5.01284 1.30134 0
M  V30 8483 H 785.195 2.99439 2.90934 0
M  V30 8484 H 786.585 6.62328 1.13008 0
M  V30 8485 N 789.305 -0.326896 1.54172 0
M  V30 8486 C 790.238 -1.42591 1.78166 0
M  V30 8487 C 791.216 -1.49837 0.631484 0
M  V30 8488 O 792.4 -1.67298 0.868544 0
M  V30 8489 C 789.527 -2.8071 1.89524 0
M  V30 8490 C 788.573 -2.91012 3.11792 0
M  V30 8491 S 789.406 -2.55763 4.70474 0
M  V30 8492 C 790.562 -3.9596 4.84733 0
M  V30 8493 H 790.795 -1.22024 2.71104 0
M  V30 8494 H 788.328 -0.523539 1.45253 0
M  V30 8495 H 790.286 -3.60276 1.96753 0
M  V30 8496 H 788.947 -2.98562 0.975696 0
M  V30 8497 H 788.14 -3.92258 3.16464 0
M  V30 8498 H 787.742 -2.19414 3.02876 0
M  V30 8499 H 790.034 -4.90676 4.67166 0
M  V30 8500 H 790.977 -3.96273 5.86833 0
M  V30 8501 H 791.385 -3.8476 4.13062 0
M  V30 8502 N 790.784 -1.46188 -0.588786 0
M  V30 8503 C 792.009 -1.5498 -1.37826 0
M  V30 8504 C 792.434 -0.189498 -1.87143 0
M  V30 8505 O 791.792 0.829293 -1.61222 0
M  V30 8506 C 791.84 -2.55369 -2.54596 0
M  V30 8507 O 790.944 -2.08452 -3.55839 0
M  V30 8508 H 790.285 -0.521741 -0.41071 0
M  V30 8509 H 792.815 -1.91708 -0.714779 0
M  V30 8510 H 792.825 -2.74782 -3.01594 0
M  V30 8511 H 791.5 -3.54155 -2.18052 0
M  V30 8512 H 790.077 -1.98999 -3.15363 0
M  V30 8513 N 792.262 0.832906 -1.33792 0
M  V30 8514 C 793.192 1.95828 -1.27176 0
M  V30 8515 C 794.173 1.69427 -0.15114 0
M  V30 8516 O 795.358 1.91167 -0.341886 0
M  V30 8517 C 792.488 3.32098 -1.01629 0
M  V30 8518 C 791.442 3.72912 -2.10049 0
M  V30 8519 C 790.768 5.07054 -1.69706 0
M  V30 8520 C 792.068 3.86064 -3.51783 0
M  V30 8521 H 793.762 2.01622 -2.21334 0
M  V30 8522 H 791.308 0.96866 -1.0655 0
M  V30 8523 H 793.261 4.10402 -0.956474 0
M  V30 8524 H 791.985 3.26577 -0.0390956 0
M  V30 8525 H 790.644 2.96876 -2.15082 0
M  V30 8526 H 790.292 4.9801 -0.706737 0
M  V30 8527 H 789.992 5.35333 -2.42264 0
M  V30 8528 H 791.516 5.87827 -1.65202 0
M  V30 8529 H 792.93 4.54665 -3.49218 0
M  V30 8530 H 791.327 4.25787 -4.22878 0
M  V30 8531 H 792.397 2.88344 -3.89854 0
M  V30 8532 N 793.74 1.17359 1.05189 0
M  V30 8533 C 794.67 0.91365 2.14883 0
M  V30 8534 C 795.651 -0.144365 1.69486 0
M  V30 8535 O 796.836 0.00587861 1.94199 0
M  V30 8536 C 793.966 0.426196 3.44675 0
M  V30 8537 C 792.92 1.4234 4.03638 0
M  V30 8538 C 792.246 0.793902 5.28773 0
M  V30 8539 C 793.546 2.7966 4.41121 0
M  V30 8540 H 795.24 1.831 2.36885 0
M  V30 8541 H 792.786 0.881781 1.13845 0
M  V30 8542 H 794.739 0.231767 4.20762 0
M  V30 8543 H 793.463 -0.526693 3.22325 0
M  V30 8544 H 792.122 1.60457 3.2962 0
M  V30 8545 H 791.77 -0.165824 5.02727 0
M  V30 8546 H 791.47 1.45959 5.69183 0
M  V30 8547 H 792.994 0.609747 6.07548 0
M  V30 8548 H 794.408 2.6526 5.08242 0
M  V30 8549 H 792.805 3.42807 4.92548 0
M  V30 8550 H 793.875 3.34068 3.51464 0
M  V30 8551 N 795.218 -1.23913 0.973828 0
M  V30 8552 C 796.629 -1.73992 0.677021 0
M  V30 8553 C 796.98 -1.78833 -0.807036 0
M  V30 8554 O 796.105 -1.42183 -1.63135 0
M  V30 8555 C 796.7 -3.15985 1.22226 0
M  V30 8556 C 795.259 -3.63547 0.975228 0
M  V30 8557 C 794.406 -2.42001 1.35392 0
M  V30 8558 H 797.357 -1.09529 1.14844 0
M  V30 8559 H 797.378 -3.75875 0.591489 0
M  V30 8560 H 796.89 -3.12429 2.30238 0
M  V30 8561 H 794.991 -3.72493 -0.0891047 0
M  V30 8562 H 795.104 -4.50693 1.62518 0
M  V30 8563 H 793.468 -2.42708 0.772334 0
M  V30 8564 H 794.251 -2.41122 2.44367 0
M  V30 8565 N 796.696 -0.74468 -1.38897 0
M  V30 8566 C 797.973 -0.222773 -1.94327 0
M  V30 8567 C 798.353 1.27731 -1.68071 0
M  V30 8568 O 797.701 2.04754 -1.01429 0
M  V30 8569 C 797.911 -0.566836 -3.44366 0
M  V30 8570 C 799.259 -0.521531 -4.21385 0
M  V30 8571 O 800.283 -0.504599 -3.52608 0
M  V30 8572 O 799.142 -0.524595 -5.43976 0
M  V30 8573 H 796.236 -0.0439259 -0.825833 0
M  V30 8574 H 798.782 -0.824197 -1.48341 0
M  V30 8575 H 797.554 -1.60321 -3.56949 0
M  V30 8576 H 797.177 0.0630577 -3.9755 0
M  V30 8577 N 798.174 1.49689 -0.493057 0
M  V30 8578 C 799.121 2.28976 0.28959 0
M  V30 8579 C 800.091 1.35011 0.967536 0
M  V30 8580 O 801.276 1.63964 0.975736 0
M  V30 8581 C 798.416 3.1748 1.35279 0
M  V30 8582 C 797.529 4.26496 0.687418 0
M  V30 8583 C 796.664 5.02226 1.73038 0
M  V30 8584 C 795.703 6.03089 1.04645 0
M  V30 8585 N 794.84 6.72014 2.03325 0
M  V30 8586 H 799.68 2.954 -0.392798 0
M  V30 8587 H 797.217 1.45657 -0.205554 0
M  V30 8588 H 799.175 3.67162 1.98111 0
M  V30 8589 H 797.805 2.53057 2.00405 0
M  V30 8590 H 796.857 3.80362 -0.0540001 0
M  V30 8591 H 798.169 4.98578 0.14864 0
M  V30 8592 H 797.323 5.55737 2.43395 0
M  V30 8593 H 796.062 4.29899 2.303 0
M  V30 8594 H 795.067 5.48817 0.328606 0
M  V30 8595 H 796.292 6.77398 0.480428 0
M  V30 8596 H 794.238 6.02464 2.59564 0
M  V30 8597 H 794.155 7.40046 1.54492 0
M  V30 8598 H 795.423 7.30133 2.72995 0
M  V30 8599 N 799.652 0.226554 1.55963 0
M  V30 8600 C 800.599 -0.681504 2.20509 0
M  V30 8601 C 801.569 -1.1866 1.16229 0
M  V30 8602 O 802.754 -1.24478 1.44602 0
M  V30 8603 C 799.894 -1.88183 2.89277 0
M  V30 8604 C 799.007 -1.41517 4.08163 0
M  V30 8605 C 798.142 -2.57346 4.647 0
M  V30 8606 C 797.181 -2.07441 5.75877 0
M  V30 8607 N 796.318 -3.16561 6.26685 0
M  V30 8608 H 801.158 -0.124372 2.9774 0
M  V30 8609 H 798.695 -0.0496333 1.47016 0
M  V30 8610 H 800.653 -2.58666 3.27335 0
M  V30 8611 H 799.283 -2.41177 2.14555 0
M  V30 8612 H 798.335 -0.605099 3.75557 0
M  V30 8613 H 799.647 -1.00928 4.88482 0
M  V30 8614 H 798.801 -3.35903 5.05227 0
M  V30 8615 H 797.54 -3.01227 3.83554 0
M  V30 8616 H 796.545 -1.27347 5.34848 0
M  V30 8617 H 797.77 -1.64554 6.58862 0
M  V30 8618 H 795.716 -3.59914 5.48451 0
M  V30 8619 H 795.633 -2.80239 7.02141 0
M  V30 8620 H 796.901 -3.95238 6.71868 0
M  V30 8621 N 801.13 -1.57531 -0.0467866 0
M  V30 8622 C 802.358 -1.92696 -0.753371 0
M  V30 8623 C 802.773 -0.824792 -1.69831 0
M  V30 8624 O 802.13 0.200155 -1.81399 0
M  V30 8625 C 802.181 -3.27728 -1.52566 0
M  V30 8626 O 801.902 -4.3371 -0.618674 0
M  V30 8627 C 803.403 -3.77066 -2.33101 0
M  V30 8628 H 800.623 -0.636367 -0.212788 0
M  V30 8629 H 803.167 -2.04498 -0.00959361 0
M  V30 8630 H 801.322 -3.17378 -2.22148 0
M  V30 8631 H 801.736 -5.11548 -1.15839 0
M  V30 8632 H 803.21 -4.74109 -2.82709 0
M  V30 8633 H 803.687 -3.07348 -3.13741 0
M  V30 8634 H 804.293 -3.90442 -1.68628 0
M  V30 8635 N 802.608 0.318715 -1.54344 0
M  V30 8636 C 803.854 1.05765 -1.73037 0
M  V30 8637 C 804.187 1.87514 -0.505181 0
M  V30 8638 O 803.462 1.88021 0.497838 0
M  V30 8639 C 803.745 1.97836 -3.00887 0
M  V30 8640 C 803.598 1.19384 -4.33668 0
M  V30 8641 C 804.917 2.97285 -3.24514 0
M  V30 8642 H 802.036 0.383104 -0.629603 0
M  V30 8643 H 804.678 0.333864 -1.87044 0
M  V30 8644 H 802.828 2.59552 -2.89076 0
M  V30 8645 H 804.5 0.600906 -4.57369 0
M  V30 8646 H 802.743 0.496198 -4.30953 0
M  V30 8647 H 803.414 1.87014 -5.19355 0
M  V30 8648 H 805.89 2.45693 -3.35819 0
M  V30 8649 H 804.766 3.58887 -4.15321 0
M  V30 8650 H 805.027 3.70003 -2.41971 0
M  V30 8651 N 804.086 1.46499 0.581025 0
M  V30 8652 C 805.036 1.53606 1.68491 0
M  V30 8653 C 806.02 0.396853 1.55929 0
M  V30 8654 O 807.212 0.645366 1.64815 0
M  V30 8655 C 804.341 1.53089 3.07276 0
M  V30 8656 C 803.427 2.72309 3.25128 0
M  V30 8657 N 803.818 3.97216 3.13134 0
M  V30 8658 C 802.116 2.68568 3.56072 0
M  V30 8659 C 802.817 4.7693 3.33036 0
M  V30 8660 N 801.793 4.08833 3.58269 0
M  V30 8661 H 805.595 2.47976 1.5775 0
M  V30 8662 H 803.109 1.42161 0.785104 0
M  V30 8663 H 805.106 1.56268 3.86505 0
M  V30 8664 H 803.766 0.597969 3.19146 0
M  V30 8665 H 804.777 4.28439 2.90964 0
M  V30 8666 H 801.454 1.84307 3.74616 0
M  V30 8667 H 802.844 5.85879 3.28932 0
M  V30 8668 N 805.565 -0.825799 1.34232 0
M  V30 8669 C 806.795 -1.61129 1.29309 0
M  V30 8670 C 807.203 -1.88714 -0.135589 0
M  V30 8671 O 806.546 -1.47703 -1.09222 0
M  V30 8672 C 806.608 -2.97866 2.01287 0
M  V30 8673 C 806.272 -2.9319 3.50555 0
M  V30 8674 C 807.269 -2.67978 4.45515 0
M  V30 8675 C 804.954 -3.12913 3.92926 0
M  V30 8676 C 806.948 -2.62536 5.80822 0
M  V30 8677 C 804.635 -3.07096 5.28333 0
M  V30 8678 C 805.633 -2.8194 6.22092 0
M  V30 8679 O 805.321 -2.7605 7.55018 0
M  V30 8680 H 805.053 -0.507652 0.446391 0
M  V30 8681 H 807.607 -1.03575 1.77374 0
M  V30 8682 H 805.837 -3.57327 1.47832 0
M  V30 8683 H 807.526 -3.58848 1.89691 0
M  V30 8684 H 808.292 -2.52478 4.14101 0
M  V30 8685 H 804.171 -3.3151 3.20347 0
M  V30 8686 H 807.715 -2.42821 6.53975 0
M  V30 8687 H 803.612 -3.22148 5.59367 0
M  V30 8688 H 804.38 -2.91798 7.6472 0
M  V30 8689 N 807.043 -1.17915 -1.04565 0
M  V30 8690 C 808.273 -0.994716 -1.81077 0
M  V30 8691 C 808.681 0.460146 -1.83519 0
M  V30 8692 O 808.024 1.33136 -1.26572 0
M  V30 8693 C 808.086 -1.46698 -3.28207 0
M  V30 8694 C 807.75 -2.94523 -3.49436 0
M  V30 8695 C 808.747 -3.92414 -3.41038 0
M  V30 8696 C 806.432 -3.32841 -3.76194 0
M  V30 8697 C 808.426 -5.2662 -3.59096 0
M  V30 8698 C 806.113 -4.67212 -3.93899 0
M  V30 8699 C 807.111 -5.6391 -3.8535 0
M  V30 8700 O 806.799 -6.95849 -4.02554 0
M  V30 8701 H 806.531 -0.351797 -0.577248 0
M  V30 8702 H 809.085 -1.56772 -1.32709 0
M  V30 8703 H 807.315 -0.837592 -3.7752 0
M  V30 8704 H 809.004 -1.24724 -3.86263 0
M  V30 8705 H 809.77 -3.64157 -3.20336 0
M  V30 8706 H 805.649 -2.58139 -3.81949 0
M  V30 8707 H 809.193 -6.02082 -3.52339 0
M  V30 8708 H 805.09 -4.95172 -4.14095 0
M  V30 8709 H 805.858 -7.02679 -4.19743 0
M  V30 8710 N 808.521 1.23394 -0.980386 0
M  V30 8711 C 809.484 2.23092 -0.525619 0
M  V30 8712 C 810.484 1.56129 0.384745 0
M  V30 8713 O 811.674 1.73284 0.178439 0
M  V30 8714 C 808.806 3.40074 0.23712 0
M  V30 8715 H 809.999 2.64839 -1.40714 0
M  V30 8716 H 807.552 1.36227 -0.766275 0
M  V30 8717 H 808.287 3.03783 1.13518 0
M  V30 8718 H 808.072 3.89883 -0.416356 0
M  V30 8719 H 809.562 4.14043 0.543892 0
M  V30 8720 N 809.999 0.752036 1.385 0
M  V30 8721 C 810.909 0.125318 2.34265 0
M  V30 8722 C 811.925 -0.702437 1.59191 0
M  V30 8723 O 813.101 -0.626951 1.91393 0
M  V30 8724 C 810.166 -0.758486 3.38301 0
M  V30 8725 C 809.227 0.0834636 4.29219 0
M  V30 8726 C 808.46 -0.758252 5.28286 0
M  V30 8727 O 808.683 -1.99632 5.34325 0
M  V30 8728 O 807.617 -0.177878 6.01637 0
M  V30 8729 H 811.443 0.91617 2.89551 0
M  V30 8730 H 809.028 0.512911 1.4032 0
M  V30 8731 H 810.91 -1.26365 4.02007 0
M  V30 8732 H 809.585 -1.52786 2.85374 0
M  V30 8733 H 808.492 0.634545 3.68679 0
M  V30 8734 H 809.825 0.815455 4.85398 0
M  V30 8735 N 811.477 -1.49425 0.500989 0
M  V30 8736 C 812.407 -2.31971 -0.266775 0
M  V30 8737 C 813.388 -1.40245 -0.962563 0
M  V30 8738 O 814.573 -1.69154 -0.953968 0
M  V30 8739 C 811.703 -3.20757 -1.33163 0
M  V30 8740 C 810.657 -4.21275 -0.75572 0
M  V30 8741 C 809.983 -4.98997 -1.92109 0
M  V30 8742 C 811.283 -5.21686 0.253213 0
M  V30 8743 H 812.977 -2.96408 0.422237 0
M  V30 8744 H 810.523 -1.4254 0.204505 0
M  V30 8745 H 812.476 -3.77315 -1.87646 0
M  V30 8746 H 811.2 -2.54263 -2.04983 0
M  V30 8747 H 809.859 -3.65861 -0.232637 0
M  V30 8748 H 809.507 -4.28951 -2.62698 0
M  V30 8749 H 809.207 -5.67011 -1.54182 0
M  V30 8750 H 810.731 -5.584 -2.47026 0
M  V30 8751 H 812.145 -5.72939 -0.203483 0
M  V30 8752 H 810.542 -5.9759 0.548322 0
M  V30 8753 H 811.612 -4.70596 1.16909 0
M  V30 8754 N 812.955 -0.234822 -1.55841 0
M  V30 8755 C 814.203 0.392483 -1.98252 0
M  V30 8756 C 814.524 1.59344 -1.12404 0
M  V30 8757 O 813.794 1.94834 -0.204055 0
M  V30 8758 H 812.374 0.147999 -0.732192 0
M  V30 8759 H 815.036 -0.330804 -1.92072 0
M  V30 8760 H 814.132 0.709829 -3.03921 0
M  V30 8761 N 814.433 1.57553 0.0384317 0
M  V30 8762 C 815.365 2.02726 1.06934 0
M  V30 8763 C 816.378 0.938502 1.33026 0
M  V30 8764 O 817.567 1.21595 1.30678 0
M  V30 8765 C 814.667 2.37958 2.41308 0
M  V30 8766 C 813.84 3.69098 2.34703 0
M  V30 8767 C 812.899 3.91623 3.51451 0
M  V30 8768 O 811.925 4.628 3.31368 0
M  V30 8769 N 813.127 3.36538 4.72993 0
M  V30 8770 H 815.892 2.91781 0.684381 0
M  V30 8771 H 813.453 1.60307 0.226542 0
M  V30 8772 H 815.445 2.50172 3.18113 0
M  V30 8773 H 814.015 1.54621 2.71682 0
M  V30 8774 H 813.235 3.67325 1.43059 0
M  V30 8775 H 814.523 4.55144 2.27424 0
M  V30 8776 H 813.921 2.78828 4.92211 0
M  V30 8777 H 812.478 3.54148 5.47195 0
M  V30 8778 N 815.911 -0.310526 1.54511 0
M  V30 8779 C 817.151 -1.05498 1.7507 0
M  V30 8780 C 817.515 -1.84814 0.520381 0
M  V30 8781 O 818.716 -2.61937 0.603547 0
M  V30 8782 C 816.987 -1.94466 2.99863 0
M  V30 8783 S 818.546 -2.75686 3.41383 0
M  V30 8784 H 815.364 -0.355951 0.615483 0
M  V30 8785 H 817.966 -0.329464 1.92704 0
M  V30 8786 H 816.67 -1.35055 3.87541 0
M  V30 8787 H 816.201 -2.71401 2.84789 0
M  V30 8788 H 818.216 -3.96971 2.97706 0
M  V30 8789 N 817.389 -1.46805 -0.573248 0
M  V30 8790 C 818.614 -1.56433 -1.36175 0
M  V30 8791 C 819.039 -0.209336 -1.86932 0
M  V30 8792 O 818.397 0.812146 -1.62092 0
M  V30 8793 C 818.445 -2.58055 -2.51873 0
M  V30 8794 O 817.549 -2.12214 -3.53609 0
M  V30 8795 H 816.89 -0.526068 -0.405153 0
M  V30 8796 H 819.42 -1.92456 -0.694405 0
M  V30 8797 H 819.43 -2.77966 -2.98662 0
M  V30 8798 H 818.105 -3.56448 -2.14284 0
M  V30 8799 H 816.682 -2.02333 -3.13234 0
M  V30 8800 N 818.867 0.818669 -1.34668 0
M  V30 8801 C 820.113 1.57746 -1.27453 0
M  V30 8802 C 820.446 1.93588 0.154077 0
M  V30 8803 O 819.721 1.60371 1.10051 0
M  V30 8804 C 820.004 2.87414 -2.16945 0
M  V30 8805 C 819.857 2.58125 -3.68363 0
M  V30 8806 C 821.176 3.89021 -2.05792 0
M  V30 8807 H 818.295 0.572339 -0.464324 0
M  V30 8808 H 820.937 0.942784 -1.64959 0
M  V30 8809 H 819.087 3.41576 -1.85089 0
M  V30 8810 H 820.759 2.10239 -4.10606 0
M  V30 8811 H 819.002 1.91503 -3.89242 0
M  V30 8812 H 819.673 3.5061 -4.26353 0
M  V30 8813 H 822.149 3.44224 -2.33771 0
M  V30 8814 H 821.025 4.77548 -2.70628 0
M  V30 8815 H 821.286 4.29786 -1.03618 0
M  V30 8816 N 820.346 1.18468 1.03938 0
M  V30 8817 C 821.593 0.980833 1.77161 0
M  V30 8818 C 821.921 -0.489425 1.88242 0
M  V30 8819 O 821.176 -1.37961 1.388 0
M  V30 8820 C 821.475 1.58229 3.20466 0
M  V30 8821 C 821.141 3.07889 3.29416 0
M  V30 8822 C 819.803 3.48737 3.31566 0
M  V30 8823 C 822.155 4.03903 3.29411 0
M  V30 8824 C 819.483 4.84171 3.31355 0
M  V30 8825 C 821.835 5.39253 3.3074 0
M  V30 8826 C 820.499 5.79547 3.31182 0
M  V30 8827 H 819.769 0.358912 0.648277 0
M  V30 8828 H 822.416 1.47552 1.22069 0
M  V30 8829 H 820.721 1.00964 3.78568 0
M  V30 8830 H 822.418 1.39998 3.75768 0
M  V30 8831 H 819.008 2.75335 3.28464 0
M  V30 8832 H 823.192 3.73395 3.2694 0
M  V30 8833 H 818.448 5.14685 3.30015 0
M  V30 8834 H 822.622 6.13417 3.29686 0
M  V30 8835 H 820.249 6.84466 3.30772 0
M  V30 8836 N 821.824 -1.22873 0.986916 0
M  V30 8837 C 823.235 -1.73264 0.695438 0
M  V30 8838 C 823.586 -1.79679 -0.788023 0
M  V30 8839 O 822.711 -1.43905 -1.61618 0
M  V30 8840 C 823.306 -3.14671 1.2557 0
M  V30 8841 C 821.865 -3.62492 1.01373 0
M  V30 8842 C 821.012 -2.40551 1.37951 0
M  V30 8843 H 823.963 -1.08304 1.15999 0
M  V30 8844 H 823.984 -3.75226 0.631322 0
M  V30 8845 H 823.496 -3.0997 2.33539 0
M  V30 8846 H 821.597 -3.72567 -0.0495917 0
M  V30 8847 H 821.71 -4.48944 1.67289 0
M  V30 8848 H 820.074 -2.41875 0.798033 0
M  V30 8849 H 820.857 -2.38516 2.46911 0
M  V30 8850 N 823.302 -0.75937 -1.38099 0
M  V30 8851 C 824.265 -0.14372 -2.28749 0
M  V30 8852 C 825.265 0.641338 -1.47457 0
M  V30 8853 O 826.455 0.466751 -1.67831 0
M  V30 8854 C 823.587 0.804545 -3.3127 0
M  V30 8855 H 824.78 -0.942663 -2.847 0
M  V30 8856 H 822.333 -0.526757 -1.47156 0
M  V30 8857 H 823.068 1.62895 -2.80421 0
M  V30 8858 H 822.853 0.243939 -3.9134 0
M  V30 8859 H 824.343 1.23111 -3.99041 0
M  V30 8860 N 824.78 1.49157 -0.508906 0
M  V30 8861 C 826.008 2.06879 0.0293734 0
M  V30 8862 C 826.423 1.36823 1.30095 0
M  V30 8863 O 825.78 0.449034 1.7689 0
M  V30 8864 C 825.831 3.60423 0.278791 0
M  V30 8865 O 825.552 4.27844 -0.942389 0
M  V30 8866 C 827.053 4.34881 0.859825 0
M  V30 8867 H 824.273 0.67057 -0.0240184 0
M  V30 8868 H 826.817 1.91834 -0.708526 0
M  V30 8869 H 824.972 3.75145 0.966689 0
M  V30 8870 H 825.386 5.19671 -0.710097 0
M  V30 8871 H 826.86 5.43161 0.983884 0
M  V30 8872 H 827.337 3.9789 1.85958 0
M  V30 8873 H 827.943 4.24785 0.209152 0
M  V30 8874 N 826.258 0.243083 1.55714 0
M  V30 8875 C 827.535 -0.432851 1.90751 0
M  V30 8876 C 827.915 -1.76153 1.16333 0
M  V30 8877 O 827.263 -2.26783 0.279565 0
M  V30 8878 C 827.473 -0.604685 3.43722 0
M  V30 8879 C 828.821 -0.90231 4.14902 0
M  V30 8880 O 829.845 -0.690689 3.49439 0
M  V30 8881 O 828.704 -1.3051 5.30688 0
M  V30 8882 H 825.798 -0.231835 0.79384 0
M  V30 8883 H 828.344 0.286867 1.67258 0
M  V30 8884 H 827.116 0.331655 3.89892 0
M  V30 8885 H 826.739 -1.37509 3.73065 0
M  V30 8886 N 827.736 -1.57571 -0.0300757 0
M  V30 8887 C 828.699 -2.05468 -1.01565 0
M  V30 8888 C 829.699 -0.958628 -1.29101 0
M  V30 8889 O 830.889 -1.22228 -1.24121 0
M  V30 8890 C 828.021 -2.47077 -2.34874 0
M  V30 8891 H 829.214 -2.93797 -0.601936 0
M  V30 8892 H 826.767 -1.53828 -0.276878 0
M  V30 8893 H 827.502 -1.61901 -2.80996 0
M  V30 8894 H 827.287 -3.27097 -2.16218 0
M  V30 8895 H 828.777 -2.84564 -3.05635 0
M  V30 8896 N 829.214 0.302327 -1.54673 0
M  V30 8897 C 830.625 0.875409 -1.64904 0
M  V30 8898 C 830.976 1.88132 -0.55684 0
M  V30 8899 O 830.101 2.14215 0.306754 0
M  V30 8900 C 830.696 1.59457 -2.9893 0
M  V30 8901 C 829.255 2.11607 -3.11287 0
M  V30 8902 C 828.402 0.948324 -2.6058 0
M  V30 8903 H 831.353 0.079362 -1.58501 0
M  V30 8904 H 831.374 2.46005 -2.90279 0
M  V30 8905 H 830.886 0.8622 -3.78402 0
M  V30 8906 H 828.987 2.87895 -2.36532 0
M  V30 8907 H 829.1 2.35151 -4.17422 0
M  V30 8908 H 827.464 1.33352 -2.17001 0
M  V30 8909 H 828.247 0.229936 -3.42529 0
M  V30 8910 N 830.692 1.47107 0.565454 0
M  V30 8911 C 831.602 1.61591 1.70075 0
M  V30 8912 C 832.618 0.498931 1.66693 0
M  V30 8913 O 833.794 0.765372 1.8629 0
M  V30 8914 C 830.859 1.61887 3.06583 0
M  V30 8915 C 829.92 2.84949 3.21096 0
M  V30 8916 C 829.153 2.85221 4.51093 0
M  V30 8917 O 829.376 1.94959 5.36048 0
M  V30 8918 O 828.31 3.76982 4.69221 0
M  V30 8919 H 832.136 2.57638 1.60799 0
M  V30 8920 H 829.721 1.30097 0.73451 0
M  V30 8921 H 831.603 1.64809 3.87835 0
M  V30 8922 H 830.278 0.69005 3.16259 0
M  V30 8923 H 829.185 2.87575 2.39273 0
M  V30 8924 H 830.518 3.77098 3.1632 0
M  V30 8925 N 832.17 -0.811516 1.35101 0
M  V30 8926 C 833.102 -1.93102 1.23468 0
M  V30 8927 C 834.115 -1.62021 0.159095 0
M  V30 8928 O 835.304 -1.73682 0.411945 0
M  V30 8929 C 832.404 -3.27345 0.877404 0
M  V30 8930 C 831.577 -3.86368 2.05033 0
M  V30 8931 C 830.636 -4.99009 1.66963 0
M  V30 8932 O 829.662 -5.16698 2.38772 0
M  V30 8933 N 830.864 -5.7749 0.590394 0
M  V30 8934 H 833.629 -2.0361 2.19916 0
M  V30 8935 H 831.19 -0.988687 1.28205 0
M  V30 8936 H 833.182 -4.00163 0.604298 0
M  V30 8937 H 831.752 -3.126 0.00275267 0
M  V30 8938 H 830.972 -3.05804 2.48752 0
M  V30 8939 H 832.26 -4.22533 2.83449 0
M  V30 8940 H 831.658 -5.657 -0.00633259 0
M  V30 8941 H 830.215 -6.50708 0.377055 0
M  V30 8942 N 833.648 -1.19017 -1.03309 0
M  V30 8943 C 834.895 -0.990214 -1.76638 0
M  V30 8944 C 835.223 0.479435 -1.88498 0
M  V30 8945 O 834.478 1.37223 -1.39529 0
M  V30 8946 C 834.777 -1.59927 -3.19622 0
M  V30 8947 C 834.443 -3.09632 -3.27779 0
M  V30 8948 C 833.105 -3.50491 -3.29712 0
M  V30 8949 C 835.457 -4.05644 -3.27264 0
M  V30 8950 C 832.785 -4.85921 -3.28782 0
M  V30 8951 C 835.137 -5.41 -3.27875 0
M  V30 8952 C 833.801 -5.81295 -3.28104 0
M  V30 8953 H 833.071 -0.362345 -0.646364 0
M  V30 8954 H 835.718 -1.48197 -1.21284 0
M  V30 8955 H 834.023 -1.0297 -3.78027 0
M  V30 8956 H 835.72 -1.41989 -3.7502 0
M  V30 8957 H 832.31 -2.77073 -3.26999 0
M  V30 8958 H 836.494 -3.75124 -3.24955 0
M  V30 8959 H 831.75 -5.16427 -3.27281 0
M  V30 8960 H 835.924 -6.15157 -3.26428 0
M  V30 8961 H 833.551 -6.86211 -3.27138 0
M  V30 8962 N 835.127 1.22348 -0.993418 0
M  V30 8963 C 836.376 1.90422 -0.665019 0
M  V30 8964 C 836.689 1.78199 0.806512 0
M  V30 8965 O 837.895 2.41193 1.24652 0
M  V30 8966 C 836.351 3.41403 -1.13893 0
M  V30 8967 C 835.959 3.62262 -2.63572 0
M  V30 8968 C 837.703 4.15175 -0.884884 0
M  V30 8969 C 835.61 5.06947 -3.04564 0
M  V30 8970 H 834.54 0.713073 -0.245037 0
M  V30 8971 H 837.191 1.3856 -1.20305 0
M  V30 8972 H 835.573 3.9245 -0.529027 0
M  V30 8973 H 836.747 3.21705 -3.29913 0
M  V30 8974 H 835.062 3.01824 -2.86865 0
M  V30 8975 H 837.659 5.21813 -1.16684 0
M  V30 8976 H 838.002 4.15915 0.178982 0
M  V30 8977 H 838.535 3.70157 -1.45701 0
M  V30 8978 H 835.274 5.11346 -4.10128 0
M  V30 8979 H 834.794 5.48404 -2.42927 0
M  V30 8980 H 836.473 5.75374 -2.95894 0
M  V30 8981 N 836.605 0.766683 1.37694 0
M  V30 8982 C 837.83 0.338715 2.04615 0
M  V30 8983 C 838.255 -1.02918 1.57447 0
M  V30 8984 O 837.613 -1.65849 0.732386 0
M  V30 8985 C 837.661 0.385284 3.58536 0
M  V30 8986 O 836.765 -0.616081 4.07772 0
M  V30 8987 H 836.106 0.147527 0.647404 0
M  V30 8988 H 838.636 1.04146 1.7611 0
M  V30 8989 H 838.646 0.240782 4.07289 0
M  V30 8990 H 837.321 1.38325 3.92223 0
M  V30 8991 H 835.898 -0.435115 3.70353 0
M  V30 8992 N 838.083 -1.48885 0.516809 0
M  V30 8993 C 839.015 -2.27357 -0.290061 0
M  V30 8994 C 840.028 -1.34558 -0.916406 0
M  V30 8995 O 841.217 -1.59715 -0.797073 0
M  V30 8996 C 838.317 -3.07496 -1.42476 0
M  V30 8997 C 837.49 -4.27982 -0.902793 0
M  V30 8998 C 836.549 -4.90038 -1.91701 0
M  V30 8999 O 835.575 -5.49643 -1.47922 0
M  V30 9000 N 836.777 -4.811 -3.24843 0
M  V30 9001 H 839.542 -2.97244 0.382884 0
M  V30 9002 H 837.103 -1.58064 0.35032 0
M  V30 9003 H 839.095 -3.45882 -2.10113 0
M  V30 9004 H 837.665 -2.40115 -2.00159 0
M  V30 9005 H 836.885 -3.94167 -0.0508272 0
M  V30 9006 H 838.173 -5.06003 -0.532723 0
M  V30 9007 H 837.571 -4.33801 -3.63088 0
M  V30 9008 H 836.128 -5.23625 -3.8815 0
M  V30 9009 N 839.561 -0.251338 -1.55583 0
M  V30 9010 C 840.807 0.37272 -1.99346 0
M  V30 9011 C 841.14 1.57266 -1.13934 0
M  V30 9012 O 840.415 1.9343 -0.20377 0
M  V30 9013 C 840.698 0.778245 -3.5159 0
M  V30 9014 C 840.551 -0.427394 -4.47765 0
M  V30 9015 C 841.87 1.62358 -4.09057 0
M  V30 9016 H 838.989 0.134002 -0.724715 0
M  V30 9017 H 841.631 -0.353536 -1.86682 0
M  V30 9018 H 839.781 1.39704 -3.62512 0
M  V30 9019 H 841.453 -1.06586 -4.48818 0
M  V30 9020 H 839.696 -1.06972 -4.20404 0
M  V30 9021 H 840.367 -0.10025 -5.51909 0
M  V30 9022 H 842.843 1.1012 -4.01264 0
M  V30 9023 H 841.719 1.87617 -5.1584 0
M  V30 9024 H 841.98 2.59688 -3.57791 0
M  V30 9025 N 841.039 1.57585 0.0217189 0
M  V30 9026 C 842.267 1.93871 0.722619 0
M  V30 9027 C 842.682 0.851706 1.68498 0
M  V30 9028 O 842.039 -0.17127 1.81695 0
M  V30 9029 C 842.09 3.30114 1.47333 0
M  V30 9030 O 841.811 4.34639 0.549597 0
M  V30 9031 C 843.312 3.80727 2.27072 0
M  V30 9032 H 840.532 0.639671 0.202637 0
M  V30 9033 H 843.076 2.04487 -0.0229414 0
M  V30 9034 H 841.231 3.20872 2.17071 0
M  V30 9035 H 841.645 5.13326 1.07686 0
M  V30 9036 H 843.119 4.78547 2.75131 0
M  V30 9037 H 843.596 3.12301 3.08812 0
M  V30 9038 H 844.202 3.93075 1.62395 0
M  V30 9039 N 842.517 -0.29412 1.54831 0
M  V30 9040 C 843.763 -1.02999 1.74697 0
M  V30 9041 C 844.096 -1.86687 0.534949 0
M  V30 9042 O 843.371 -1.88789 -0.467863 0
M  V30 9043 C 843.654 -1.93024 3.03996 0
M  V30 9044 C 843.507 -1.1247 4.35512 0
M  V30 9045 C 844.826 -2.92085 3.29203 0
M  V30 9046 H 841.945 -0.373039 0.635618 0
M  V30 9047 H 844.587 -0.304065 1.87551 0
M  V30 9048 H 842.737 -2.5492 2.93169 0
M  V30 9049 H 844.409 -0.528067 4.58268 0
M  V30 9050 H 842.652 -0.427574 4.31688 0
M  V30 9051 H 843.323 -1.78728 5.22265 0
M  V30 9052 H 845.799 -2.40319 3.39685 0
M  V30 9053 H 844.675 -3.52234 4.20978 0
M  V30 9054 H 844.936 -3.66107 2.47827 0
M  V30 9055 N 843.995 -1.47404 -0.557645 0
M  V30 9056 C 844.925 -1.62736 -1.67449 0
M  V30 9057 C 845.906 -0.476824 -1.6328 0
M  V30 9058 O 847.091 -0.706108 -1.80908 0
M  V30 9059 C 844.221 -1.641 -3.06086 0
M  V30 9060 C 843.175 -2.78377 -3.25101 0
M  V30 9061 C 842.501 -2.64812 -4.6452 0
M  V30 9062 C 843.801 -4.19971 -3.10518 0
M  V30 9063 H 845.495 -2.56232 -1.54873 0
M  V30 9064 H 843.041 -1.23312 -0.743649 0
M  V30 9065 H 844.994 -1.73417 -3.84063 0
M  V30 9066 H 843.718 -0.671652 -3.19619 0
M  V30 9067 H 842.377 -2.6857 -2.49531 0
M  V30 9068 H 842.025 -1.65906 -4.74852 0
M  V30 9069 H 841.725 -3.41477 -4.78191 0
M  V30 9070 H 843.249 -2.76057 -5.44633 0
M  V30 9071 H 844.663 -4.30757 -3.78313 0
M  V30 9072 H 843.06 -4.97419 -3.35699 0
M  V30 9073 H 844.13 -4.38369 -2.0727 0
M  V30 9074 N 845.473 0.80434 -1.35529 0
M  V30 9075 C 846.42 1.91629 -1.28635 0
M  V30 9076 C 847.39 1.65348 -0.157862 0
M  V30 9077 O 848.575 1.87711 -0.341934 0
M  V30 9078 C 845.715 3.28207 -1.0665 0
M  V30 9079 C 844.828 3.66659 -2.28441 0
M  V30 9080 C 843.963 4.92279 -1.99588 0
M  V30 9081 C 843.002 5.23365 -3.1742 0
M  V30 9082 N 842.139 6.40165 -2.88328 0
M  V30 9083 H 846.979 1.96858 -2.23721 0
M  V30 9084 H 844.516 0.962871 -1.11208 0
M  V30 9085 H 846.474 4.06945 -0.919343 0
M  V30 9086 H 845.104 3.22441 -0.152253 0
M  V30 9087 H 844.156 2.83164 -2.54013 0
M  V30 9088 H 845.468 3.8559 -3.1642 0
M  V30 9089 H 844.622 5.78847 -1.81715 0
M  V30 9090 H 843.361 4.75387 -1.08896 0
M  V30 9091 H 842.366 4.35285 -3.35867 0
M  V30 9092 H 843.591 5.42185 -4.08916 0
M  V30 9093 H 841.537 6.24694 -2.00233 0
M  V30 9094 H 841.454 6.59357 -3.69843 0
M  V30 9095 H 842.722 7.29755 -2.74002 0
M  V30 9096 N 846.951 1.19563 1.02676 0
M  V30 9097 C 848.181 1.0234 1.79472 0
M  V30 9098 C 848.589 -0.430891 1.84228 0
M  V30 9099 O 847.932 -1.31106 1.28674 0
M  V30 9100 C 847.994 1.51901 3.25832 0
M  V30 9101 C 847.658 3.00045 3.44706 0
M  V30 9102 C 848.655 3.9779 3.34752 0
M  V30 9103 C 846.34 3.38784 3.70851 0
M  V30 9104 C 848.334 5.32267 3.50672 0
M  V30 9105 C 846.021 4.73419 3.86416 0
M  V30 9106 C 847.019 5.69969 3.7633 0
M  V30 9107 O 846.707 7.02165 3.91432 0
M  V30 9108 H 846.439 0.360936 0.571578 0
M  V30 9109 H 848.993 1.58863 1.30198 0
M  V30 9110 H 847.223 0.897546 3.7614 0
M  V30 9111 H 848.912 1.30853 3.84229 0
M  V30 9112 H 849.678 3.69207 3.14502 0
M  V30 9113 H 845.557 2.64183 3.77794 0
M  V30 9114 H 849.101 6.07612 3.42715 0
M  V30 9115 H 844.998 5.01697 4.06165 0
M  V30 9116 H 845.766 7.09268 4.08511 0
M  V30 9117 N 848.429 -1.21819 0.999893 0
M  V30 9118 C 849.676 -1.90752 0.679694 0
M  V30 9119 C 850.004 -1.77777 -0.789014 0
M  V30 9120 O 849.259 -1.14518 -1.58695 0
M  V30 9121 C 849.558 -3.4193 1.04012 0
M  V30 9122 C 849.224 -3.75098 2.50225 0
M  V30 9123 C 847.886 -3.83861 2.90179 0
M  V30 9124 C 850.238 -3.90706 3.44961 0
M  V30 9125 C 847.566 -4.05676 4.23844 0
M  V30 9126 C 849.918 -4.14027 4.78294 0
M  V30 9127 C 848.582 -4.21016 5.17979 0
M  V30 9128 H 847.852 -0.698012 0.248718 0
M  V30 9129 H 850.499 -1.44437 1.25738 0
M  V30 9130 H 848.804 -3.89947 0.380606 0
M  V30 9131 H 850.501 -3.93532 0.770301 0
M  V30 9132 H 847.091 -3.68865 2.18258 0
M  V30 9133 H 851.275 -3.83307 3.15261 0
M  V30 9134 H 846.531 -4.09316 4.5417 0
M  V30 9135 H 850.705 -4.25046 5.51642 0
M  V30 9136 H 848.332 -4.37672 6.21568 0
M  V30 9137 N 849.908 -0.773975 -1.37286 0
M  V30 9138 C 851.133 -0.349561 -2.04433 0
M  V30 9139 C 851.558 1.02082 -1.5799 0
M  V30 9140 O 850.916 1.65458 -0.741172 0
M  V30 9141 C 850.964 -0.404292 -3.58326 0
M  V30 9142 O 850.068 0.594447 -4.08093 0
M  V30 9143 H 849.409 -0.150959 -0.646612 0
M  V30 9144 H 851.939 -1.05079 -1.75555 0
M  V30 9145 H 851.949 -0.262378 -4.07155 0
M  V30 9146 H 850.624 -1.40403 -3.91484 0
M  V30 9147 H 849.201 0.415468 -3.70578 0
M  V30 9148 N 851.386 1.48609 -0.524698 0
M  V30 9149 C 852.336 2.26505 0.260696 0
M  V30 9150 C 853.32 1.32378 0.914597 0
M  V30 9151 O 854.512 1.5695 0.818277 0
M  V30 9152 C 851.641 3.17313 1.31024 0
M  V30 9153 C 850.727 4.18911 0.661391 0
M  V30 9154 N 851.118 5.05183 -0.24981 0
M  V30 9155 C 849.416 4.36425 0.91922 0
M  V30 9156 C 850.117 5.78348 -0.623598 0
M  V30 9157 N 849.093 5.43598 0.0140839 0
M  V30 9158 H 852.895 2.90582 -0.440388 0
M  V30 9159 H 850.409 1.5875 -0.342364 0
M  V30 9160 H 852.406 3.71772 1.88656 0
M  V30 9161 H 851.066 2.54791 2.01275 0
M  V30 9162 H 852.077 5.1415 -0.622093 0
M  V30 9163 H 848.754 3.85095 1.6127 0
M  V30 9164 H 850.144 6.57775 -1.37046 0
M  V30 9165 N 852.864 0.259585 1.55447 0
M  V30 9166 C 854.094 -0.364863 2.03353 0
M  V30 9167 C 854.502 -1.5116 1.13786 0
M  V30 9168 O 853.845 -1.83109 0.147283 0
M  V30 9169 C 853.907 -0.922587 3.4746 0
M  V30 9170 C 853.571 0.0935207 4.56904 0
M  V30 9171 C 854.568 0.907571 5.11917 0
M  V30 9172 C 852.253 0.223276 5.01804 0
M  V30 9173 C 854.247 1.83771 6.10333 0
M  V30 9174 C 851.934 1.15691 6.00049 0
M  V30 9175 C 852.932 1.96264 6.54194 0
M  V30 9176 O 852.62 2.88052 7.50521 0
M  V30 9177 H 852.352 -0.0893313 0.670072 0
M  V30 9178 H 854.906 0.384821 2.01763 0
M  V30 9179 H 853.136 -1.72206 3.4624 0
M  V30 9180 H 854.825 -1.45846 3.78792 0
M  V30 9181 H 855.591 0.817979 4.78052 0
M  V30 9182 H 851.47 -0.393834 4.59315 0
M  V30 9183 H 855.014 2.46703 6.52521 0
M  V30 9184 H 850.911 1.24738 6.33333 0
M  V30 9185 H 851.679 2.82557 7.68182 0
M  V30 9186 N 854.342 -1.57594 -0.0133615 0
M  V30 9187 C 855.275 -2.02991 -1.04259 0
M  V30 9188 C 856.253 -0.917193 -1.34262 0
M  V30 9189 O 857.437 -1.18428 -1.46653 0
M  V30 9190 C 854.564 -2.41624 -2.37351 0
M  V30 9191 C 853.61 -3.63495 -2.231 0
M  V30 9192 S 854.443 -5.1198 -1.5696 0
M  V30 9193 C 855.599 -5.5387 -2.91511 0
M  V30 9194 H 855.832 -2.89973 -0.655985 0
M  V30 9195 H 853.365 -1.52769 -0.223827 0
M  V30 9196 H 855.323 -2.64551 -3.13884 0
M  V30 9197 H 853.984 -1.55065 -2.73155 0
M  V30 9198 H 853.177 -3.88233 -3.21389 0
M  V30 9199 H 852.779 -3.405 -1.54711 0
M  V30 9200 H 855.071 -5.55514 -3.87828 0
M  V30 9201 H 856.014 -6.53988 -2.71488 0
M  V30 9202 H 856.422 -4.81404 -2.94806 0
M  V30 9203 N 855.82 0.285905 -1.54985 0
M  V30 9204 C 856.73 1.37534 -1.90057 0
M  V30 9205 C 857.746 1.54707 -0.796348 0
M  V30 9206 O 858.922 1.69082 -1.09423 0
M  V30 9207 C 855.987 2.7167 -2.15398 0
M  V30 9208 C 855.048 2.63354 -3.39033 0
M  V30 9209 C 854.281 3.91093 -3.63155 0
M  V30 9210 O 854.504 4.91169 -2.90015 0
M  V30 9211 O 853.438 3.92075 -4.56685 0
M  V30 9212 H 857.264 1.10791 -2.8277 0
M  V30 9213 H 854.849 0.483303 -1.41367 0
M  V30 9214 H 856.731 3.51006 -2.33179 0
M  V30 9215 H 855.406 2.98226 -1.25868 0
M  V30 9216 H 854.313 1.82438 -3.26599 0
M  V30 9217 H 855.646 2.41749 -4.2874 0
M  V30 9218 N 857.298 1.47698 0.54982 0
M  V30 9219 C 858.208 1.63386 1.68351 0
M  V30 9220 C 859.224 0.516583 1.66155 0
M  V30 9221 O 860.4 0.785088 1.85468 0
M  V30 9222 C 857.465 1.6513 3.04849 0
M  V30 9223 C 856.526 2.88338 3.18056 0
M  V30 9224 C 855.759 2.8999 4.48042 0
M  V30 9225 O 855.982 2.00633 5.3395 0
M  V30 9226 O 854.916 3.81938 4.65196 0
M  V30 9227 H 858.742 2.59329 1.58057 0
M  V30 9228 H 856.327 1.30869 0.72067 0
M  V30 9229 H 858.209 1.68913 3.86065 0
M  V30 9230 H 856.884 0.723555 3.1551 0
M  V30 9231 H 855.791 2.90097 2.36209 0
M  V30 9232 H 857.124 3.80431 3.12302 0
M  V30 9233 N 858.776 -0.797141 1.35954 0
M  V30 9234 C 859.724 -1.93084 1.29697 0
M  V30 9235 C 860.718 -1.68329 0.190152 0
M  V30 9236 O 861.924 -1.7643 0.3567 0
M  V30 9237 H 858.299 -0.634531 0.403577 0
M  V30 9238 H 860.27 -1.95481 2.25455 0
M  V30 9239 C 859.019 -3.29996 1.09536 0
M  V30 9240 H 858.342 -3.49607 1.93946 0
M  V30 9241 H 859.782 -4.09696 1.09202 0
M  V30 9242 C 858.241 -3.36304 -0.200381 0
M  V30 9243 O 858.771 -3.83579 -1.19291 0
M  V30 9244 N 856.977 -2.89587 -0.242406 0
M  V30 9245 H 856.524 -2.51307 0.565897 0
M  V30 9246 H 856.482 -2.94189 -1.10906 0
M  V30 9247 N 860.254 -1.20106 -1.0204 0
M  V30 9248 C 861.184 -0.970301 -2.12385 0
M  V30 9249 C 862.165 0.099378 -1.69809 0
M  V30 9250 O 863.35 -0.057365 -1.94115 0
M  V30 9251 C 860.48 -0.517431 -3.43424 0
M  V30 9252 C 859.434 -1.52992 -3.99722 0
M  V30 9253 C 858.76 -0.933817 -5.26483 0
M  V30 9254 C 860.06 -2.91257 -4.33551 0
M  V30 9255 H 861.754 -1.89316 -2.31948 0
M  V30 9256 H 859.3 -0.911655 -1.11467 0
M  V30 9257 H 861.253 -0.343243 -4.2 0
M  V30 9258 H 859.977 0.441049 -3.23608 0
M  V30 9259 H 858.636 -1.6914 -3.2525 0
M  V30 9260 H 858.284 0.0324763 -5.0299 0
M  V30 9261 H 857.984 -1.60999 -5.65113 0
M  V30 9262 H 859.508 -0.770614 -6.05718 0
M  V30 9263 H 860.922 -2.78642 -5.0103 0
M  V30 9264 H 859.319 -3.55745 -4.83286 0
M  V30 9265 H 860.389 -3.43269 -3.42483 0
M  V30 9266 N 861.732 1.21287 -1.00634 0
M  V30 9267 C 862.665 2.22366 -0.512687 0
M  V30 9268 C 863.643 1.56692 0.434332 0
M  V30 9269 O 864.827 1.85094 0.35674 0
M  V30 9270 C 861.954 3.37738 0.255139 0
M  V30 9271 C 861 4.21673 -0.639883 0
M  V30 9272 S 861.833 4.92474 -2.10308 0
M  V30 9273 C 862.989 6.11275 -1.34512 0
M  V30 9274 H 863.222 2.63896 -1.36918 0
M  V30 9275 H 860.755 1.31176 -0.814387 0
M  V30 9276 H 862.713 4.04624 0.692067 0
M  V30 9277 H 861.374 2.94689 1.08707 0
M  V30 9278 H 860.567 5.03977 -0.0483821 0
M  V30 9279 H 860.169 3.59988 -1.01414 0
M  V30 9280 H 862.461 6.7466 -0.619721 0
M  V30 9281 H 863.404 6.74864 -2.14393 0
M  V30 9282 H 863.812 5.58026 -0.852506 0
M  V30 9283 N 863.21 0.781244 1.36873 0
M  V30 9284 C 864.487 0.274217 1.93668 0
M  V30 9285 C 864.867 -1.2323 1.71399 0
M  V30 9286 O 864.215 -2.01993 1.06822 0
M  V30 9287 C 864.425 0.657939 3.42742 0
M  V30 9288 C 865.773 0.63307 4.19854 0
M  V30 9289 O 866.797 0.597909 3.51146 0
M  V30 9290 O 865.656 0.668636 5.42394 0
M  V30 9291 H 862.75 0.0658059 0.824378 0
M  V30 9292 H 865.296 0.863238 1.46104 0
M  V30 9293 H 864.068 1.69728 3.52573 0
M  V30 9294 H 863.691 0.0423678 3.97577 0
M  V30 9295 N 864.689 -1.48329 0.532571 0
M  V30 9296 C 865.937 -2.021 -0.000581206 0
M  V30 9297 C 866.258 -1.4117 -1.34522 0
M  V30 9298 O 865.528 -0.578005 -1.87179 0
M  V30 9299 H 864.108 -0.746993 -0.00320281 0
M  V30 9300 H 866.77 -1.82011 0.696991 0
M  V30 9301 H 865.866 -3.11917 -0.106991 0
M  V30 9302 N 866.167 -0.267825 -1.55308 0
M  V30 9303 C 867.415 0.350343 -1.9904 0
M  V30 9304 C 867.736 1.56924 -1.15758 0
M  V30 9305 O 867.006 1.94358 -0.245336 0
M  V30 9306 H 865.586 0.132435 -0.735167 0
M  V30 9307 H 868.248 -0.371471 -1.91327 0
M  V30 9308 H 867.344 0.645203 -3.05358 0
M  V30 9309 N 867.645 1.57599 0.00500368 0
M  V30 9310 C 868.922 1.81561 0.727654 0
M  V30 9311 C 869.302 0.871604 1.92266 0
M  V30 9312 O 868.65 -0.0808232 2.28357 0
M  V30 9313 C 868.86 3.29922 1.13809 0
M  V30 9314 C 870.208 3.95531 1.54403 0
M  V30 9315 O 871.232 3.34215 1.23202 0
M  V30 9316 O 870.091 5.03535 2.12402 0
M  V30 9317 H 867.185 0.747462 0.353878 0
M  V30 9318 H 869.731 1.69688 -0.0200667 0
M  V30 9319 H 868.503 3.90253 0.286078 0
M  V30 9320 H 868.126 3.46775 1.94507 0
M  V30 9321 N 869.123 -0.277682 1.55134 0
M  V30 9322 C 870.053 -1.34742 1.90701 0
M  V30 9323 C 871.034 -1.51757 0.768354 0
M  V30 9324 O 872.219 -1.64879 1.02609 0
M  V30 9325 C 869.349 -2.70775 2.17481 0
M  V30 9326 C 868.303 -2.68497 3.33307 0
M  V30 9327 C 867.629 -4.08037 3.45557 0
M  V30 9328 C 868.929 -2.28178 4.69821 0
M  V30 9329 H 870.623 -1.05224 2.803 0
M  V30 9330 H 868.169 -0.504738 1.34864 0
M  V30 9331 H 870.122 -3.45719 2.40949 0
M  V30 9332 H 868.846 -3.01867 1.24676 0
M  V30 9333 H 867.505 -1.9601 3.09799 0
M  V30 9334 H 867.153 -4.36344 2.50226 0
M  V30 9335 H 866.853 -4.07409 4.23429 0
M  V30 9336 H 868.377 -4.84726 3.71312 0
M  V30 9337 H 869.791 -2.92843 4.92865 0
M  V30 9338 H 868.188 -2.3872 5.50575 0
M  V30 9339 H 869.258 -1.23308 4.6896 0
M  V30 9340 N 870.601 -1.47988 -0.541979 0
M  V30 9341 C 872.012 -1.49073 -1.12402 0
M  V30 9342 C 872.363 -0.253825 -1.94551 0
M  V30 9343 O 871.488 0.640056 -2.06718 0
M  V30 9344 C 872.083 -2.7011 -2.04514 0
M  V30 9345 C 870.642 -2.74105 -2.5796 0
M  V30 9346 C 869.789 -2.42409 -1.3466 0
M  V30 9347 H 872.74 -1.55277 -0.327818 0
M  V30 9348 H 872.761 -2.47946 -2.88623 0
M  V30 9349 H 872.273 -3.60117 -1.44697 0
M  V30 9350 H 870.374 -1.88276 -3.21532 0
M  V30 9351 H 870.487 -3.75213 -2.97913 0
M  V30 9352 H 868.851 -1.9331 -1.65841 0
M  V30 9353 H 869.634 -3.34642 -0.766133 0
M  V30 9354 N 872.079 0.78992 -1.36375 0
M  V30 9355 C 873.304 1.58389 -1.33895 0
M  V30 9356 C 873.729 1.8794 0.0774934 0
M  V30 9357 O 873.087 1.4785 1.0493 0
M  V30 9358 C 873.135 2.88201 -2.16732 0
M  V30 9359 O 872.239 3.81778 -1.55946 0
M  V30 9360 H 871.58 0.480471 -0.458305 0
M  V30 9361 H 874.11 0.979119 -1.79651 0
M  V30 9362 H 874.12 3.37475 -2.29292 0
M  V30 9363 H 872.795 2.66019 -3.19698 0
M  V30 9364 H 871.372 3.40371 -1.52323 0
M  V30 9365 N 873.557 1.20646 1.01402 0
M  V30 9366 C 874.803 1.0197 1.753 0
M  V30 9367 C 875.136 -0.446803 1.8899 0
M  V30 9368 O 874.411 -1.33169 1.41762 0
M  V30 9369 C 874.694 1.70693 3.17074 0
M  V30 9370 C 874.547 3.24805 3.11162 0
M  V30 9371 C 875.866 1.44212 4.15802 0
M  V30 9372 H 872.985 0.371844 0.636318 0
M  V30 9373 H 875.627 1.48696 1.18277 0
M  V30 9374 H 873.777 1.30968 3.65759 0
M  V30 9375 H 875.449 3.73841 2.70261 0
M  V30 9376 H 873.692 3.55576 2.48492 0
M  V30 9377 H 874.363 3.68049 4.11393 0
M  V30 9378 H 876.839 1.7868 3.75783 0
M  V30 9379 H 875.715 1.94825 5.13161 0
M  V30 9380 H 875.976 0.370252 4.40547 0
M  V30 9381 N 875.035 -1.20752 1.01276 0
M  V30 9382 C 876.263 -1.94006 0.718976 0
M  V30 9383 C 876.678 -1.74544 -0.719711 0
M  V30 9384 O 876.035 -1.05697 -1.48776 0
M  V30 9385 C 876.086 -3.46208 1.04031 0
M  V30 9386 O 875.807 -3.65031 2.42248 0
M  V30 9387 C 877.308 -4.36614 0.767032 0
M  V30 9388 H 874.528 -0.616743 0.264327 0
M  V30 9389 H 877.072 -1.53352 1.3529 0
M  V30 9390 H 875.227 -3.84756 0.451852 0
M  V30 9391 H 875.641 -4.59054 2.53712 0
M  V30 9392 H 877.115 -5.42076 1.04198 0
M  V30 9393 H 877.592 -4.38182 -0.298851 0
M  V30 9394 H 878.198 -4.03723 1.33746 0
M  V30 9395 N 876.513 -0.788492 -1.36457 0
M  V30 9396 C 877.79 -0.284484 -1.9352 0
M  V30 9397 C 878.17 1.2232 -1.7205 0
M  V30 9398 O 877.518 2.01424 -1.07892 0
M  V30 9399 C 877.728 -0.676106 -3.42388 0
M  V30 9400 C 879.076 -0.655327 -4.19512 0
M  V30 9401 O 880.1 -0.616523 -3.50824 0
M  V30 9402 O 878.959 -0.697391 -5.42032 0
M  V30 9403 H 876.053 -0.0701769 -0.824017 0
M  V30 9404 H 878.599 -0.870974 -1.45644 0
M  V30 9405 H 877.371 -1.71596 -3.51668 0
M  V30 9406 H 876.994 -0.0634517 -3.97549 0
M  V30 9407 N 877.991 1.48044 -0.54043 0
M  V30 9408 C 879.24 2.01698 -0.00809961 0
M  V30 9409 C 879.553 1.42184 1.34325 0
M  V30 9410 O 880.759 1.87398 1.96454 0
M  V30 9411 C 879.215 3.59882 0.035933 0
M  V30 9412 C 878.823 4.28384 -1.31115 0
M  V30 9413 C 880.567 4.21346 0.51654 0
M  V30 9414 C 878.474 5.78529 -1.22714 0
M  V30 9415 H 877.404 0.754 0.000742174 0
M  V30 9416 H 880.055 1.70204 -0.685775 0
M  V30 9417 H 878.437 3.88264 0.778906 0
M  V30 9418 H 879.611 4.11663 -2.07051 0
M  V30 9419 H 877.926 3.78837 -1.72834 0
M  V30 9420 H 880.523 5.31351 0.597529 0
M  V30 9421 H 880.866 3.87373 1.52473 0
M  V30 9422 H 881.399 3.97432 -0.171064 0
M  V30 9423 H 878.138 6.17093 -2.21081 0
M  V30 9424 H 877.658 5.97634 -0.50931 0
M  V30 9425 H 879.337 6.40395 -0.92216 0
M  V30 9426 N 879.47 0.276058 1.55163 0
M  V30 9427 C 880.886 -0.0780579 1.59409 0
M  V30 9428 C 881.086 -1.54521 1.29327 0
M  V30 9429 O 880.142 -2.29422 1.05459 0
M  V30 9430 C 881.455 0.297422 2.99225 0
M  V30 9431 C 883.003 0.244117 3.12047 0
M  V30 9432 C 883.478 0.594051 4.54131 0
M  V30 9433 N 884.969 0.54564 4.59975 0
M  V30 9434 C 885.704 0.789192 5.67943 0
M  V30 9435 N 885.2 1.09741 6.84053 0
M  V30 9436 N 886.993 0.717926 5.57496 0
M  V30 9437 H 879.144 1.23251 1.72982 0
M  V30 9438 H 881.407 0.497988 0.806667 0
M  V30 9439 H 881.113 1.31782 3.26077 0
M  V30 9440 H 880.987 -0.361286 3.75466 0
M  V30 9441 H 883.374 -0.766992 2.84958 0
M  V30 9442 H 883.455 0.937097 2.38017 0
M  V30 9443 H 883.099 1.60285 4.81945 0
M  V30 9444 H 883.029 -0.120728 5.26462 0
M  V30 9445 H 885.52 0.317334 3.76565 0
M  V30 9446 H 885.833 1.26989 7.62295 0
M  V30 9447 H 884.178 1.13519 6.85666 0
M  V30 9448 H 887.369 0.47697 4.65664 0
M  V30 9449 H 887.542 0.911118 6.41563 0
M  V30 9450 N 880.948 -1.576 0.00335426 0
M  V30 9451 C 882.364 -1.55653 -0.352766 0
M  V30 9452 C 882.564 -1.00632 -1.74572 0
M  V30 9453 O 881.62 -0.641621 -2.44212 0
M  V30 9454 C 882.933 -2.99858 -0.224929 0
M  V30 9455 C 884.481 -3.11563 -0.299619 0
M  V30 9456 C 884.956 -4.57559 -0.200868 0
M  V30 9457 N 886.447 -4.62477 -0.258663 0
M  V30 9458 C 887.182 -5.73031 -0.205644 0
M  V30 9459 N 886.678 -6.92723 -0.103027 0
M  V30 9460 N 888.471 -5.61509 -0.257754 0
M  V30 9461 H 880.622 -1.91703 0.914539 0
M  V30 9462 H 882.885 -0.88068 0.350865 0
M  V30 9463 H 882.591 -3.43964 0.733595 0
M  V30 9464 H 882.465 -3.63547 -1.00564 0
M  V30 9465 H 884.852 -2.67384 -1.24859 0
M  V30 9466 H 884.933 -2.50644 0.511025 0
M  V30 9467 H 884.577 -5.02413 0.744572 0
M  V30 9468 H 884.507 -5.16428 -1.03004 0
M  V30 9469 H 886.998 -3.76375 -0.339168 0
M  V30 9470 H 887.311 -7.7277 -0.0685593 0
M  V30 9471 H 885.656 -6.94966 -0.0686069 0
M  V30 9472 H 888.847 -4.66892 -0.336142 0
M  V30 9473 H 889.02 -6.4765 -0.21297 0
M  V30 9474 N 882.426 0.269451 -1.5528 0
M  V30 9475 C 883.837 0.840233 -1.66724 0
M  V30 9476 C 884.188 1.86909 -0.596621 0
M  V30 9477 O 883.313 2.14817 0.261246 0
M  V30 9478 C 883.908 1.5308 -3.02245 0
M  V30 9479 C 882.467 2.04957 -3.15705 0
M  V30 9480 C 881.614 0.892838 -2.62533 0
M  V30 9481 H 884.565 0.0457236 -1.58634 0
M  V30 9482 H 884.586 2.39792 -2.95432 0
M  V30 9483 H 884.098 0.781741 -3.80145 0
M  V30 9484 H 882.199 2.82813 -2.42585 0
M  V30 9485 H 882.312 2.26244 -4.22316 0
M  V30 9486 H 880.676 1.28719 -2.19781 0
M  V30 9487 H 881.459 0.157229 -3.4294 0
M  V30 9488 N 883.904 1.48273 0.534124 0
M  V30 9489 C 885.32 1.34302 0.862272 0
M  V30 9490 C 885.52 0.350902 1.98421 0
M  V30 9491 O 884.576 -0.229364 2.51456 0
M  V30 9492 C 885.889 2.74227 1.23371 0
M  V30 9493 C 887.437 2.82684 1.34383 0
M  V30 9494 C 887.912 4.23301 1.74871 0
M  V30 9495 N 889.403 4.25954 1.81981 0
M  V30 9496 C 890.138 5.31693 2.14686 0
M  V30 9497 N 889.634 6.47714 2.45844 0
M  V30 9498 N 891.427 5.19084 2.15657 0
M  V30 9499 H 883.578 2.11397 -0.206215 0
M  V30 9500 H 885.841 0.947537 -0.0296116 0
M  V30 9501 H 885.547 3.48368 0.482967 0
M  V30 9502 H 885.421 3.07485 2.18478 0
M  V30 9503 H 887.808 2.08801 2.08534 0
M  V30 9504 H 887.889 2.5305 0.374063 0
M  V30 9505 H 887.533 4.97699 1.01282 0
M  V30 9506 H 887.463 4.50376 2.7289 0
M  V30 9507 H 889.954 3.42266 1.60196 0
M  V30 9508 H 890.267 7.2414 2.69892 0
M  V30 9509 H 888.612 6.50995 2.43372 0
M  V30 9510 H 891.803 4.27463 1.9077 0
M  V30 9511 H 891.976 6.01592 2.40813 0
M  V30 9512 N 885.382 -0.782676 1.36792 0
M  V30 9513 C 886.312 -1.90973 1.34356 0
M  V30 9514 C 887.293 -1.6875 0.213917 0
M  V30 9515 O 888.478 -1.89766 0.412601 0
M  V30 9516 C 885.608 -3.28097 1.13884 0
M  V30 9517 C 884.562 -3.6486 2.23744 0
M  V30 9518 C 883.888 -5.00406 1.88408 0
M  V30 9519 C 885.188 -3.72742 3.6587 0
M  V30 9520 H 886.882 -1.93268 2.28665 0
M  V30 9521 H 884.428 -0.928447 1.10072 0
M  V30 9522 H 886.381 -4.06569 1.10813 0
M  V30 9523 H 885.105 -3.26206 0.160275 0
M  V30 9524 H 883.764 -2.88689 2.25952 0
M  V30 9525 H 883.412 -4.95044 0.891083 0
M  V30 9526 H 883.112 -5.25973 2.61966 0
M  V30 9527 H 884.636 -5.81291 1.86905 0
M  V30 9528 H 886.05 -4.4139 3.65852 0
M  V30 9529 H 884.447 -4.09798 4.38389 0
M  V30 9530 H 885.517 -2.73676 4.00287 0
M  V30 9531 N 886.86 -1.21182 -1.00761 0
M  V30 9532 C 888.09 -1.05182 -1.77821 0
M  V30 9533 C 888.498 0.401527 -1.8489 0
M  V30 9534 O 887.841 1.29042 -1.30743 0
M  V30 9535 C 887.903 -1.57066 -3.23374 0
M  V30 9536 C 887.567 -3.05491 -3.39889 0
M  V30 9537 C 888.564 -4.03065 -3.28381 0
M  V30 9538 C 886.249 -3.44641 -3.65415 0
M  V30 9539 C 888.243 -5.37778 -3.4216 0
M  V30 9540 C 885.93 -4.79507 -3.78836 0
M  V30 9541 C 886.928 -5.75884 -3.67214 0
M  V30 9542 O 886.616 -7.08304 -3.80212 0
M  V30 9543 H 886.348 -0.369983 -0.565763 0
M  V30 9544 H 888.902 -1.60914 -1.27655 0
M  V30 9545 H 887.132 -0.957273 -3.74664 0
M  V30 9546 H 888.821 -1.36949 -3.82099 0
M  V30 9547 H 889.587 -3.74163 -3.08588 0
M  V30 9548 H 885.466 -2.7016 -3.73544 0
M  V30 9549 H 889.01 -6.12987 -3.33005 0
M  V30 9550 H 884.907 -5.08096 -3.98132 0
M  V30 9551 H 885.675 -7.15677 -3.97175 0
M  V30 9552 N 888.338 1.20213 -1.01915 0
M  V30 9553 C 889.268 2.25336 -0.612023 0
M  V30 9554 C 890.249 1.65933 0.374186 0
M  V30 9555 O 891.434 1.92464 0.259053 0
M  V30 9556 C 888.564 3.47267 0.047904 0
M  V30 9557 C 887.518 4.1928 -0.859557 0
M  V30 9558 C 886.844 5.3466 -0.0652655 0
M  V30 9559 C 888.144 4.75143 -2.1688 0
M  V30 9560 H 889.838 2.59645 -1.49079 0
M  V30 9561 H 887.384 1.24808 -0.718263 0
M  V30 9562 H 889.337 4.19991 0.344294 0
M  V30 9563 H 888.061 3.12129 0.961404 0
M  V30 9564 H 886.72 3.48425 -1.13999 0
M  V30 9565 H 886.368 4.95767 0.849964 0
M  V30 9566 H 886.068 5.83772 -0.669618 0
M  V30 9567 H 887.592 6.10187 0.224612 0
M  V30 9568 H 889.006 5.39672 -1.9346 0
M  V30 9569 H 887.403 5.34702 -2.72422 0
M  V30 9570 H 888.473 3.93744 -2.83008 0
M  V30 9571 N 889.816 0.795718 1.36037 0
M  V30 9572 C 890.746 0.212803 2.32528 0
M  V30 9573 C 891.727 -0.655716 1.56953 0
M  V30 9574 O 892.912 -0.588238 1.85077 0
M  V30 9575 C 890.042 -0.648189 3.41198 0
M  V30 9576 C 888.996 0.120948 4.27829 0
M  V30 9577 C 888.322 -0.861044 5.27722 0
M  V30 9578 C 889.622 1.31375 5.05508 0
M  V30 9579 H 891.316 1.01893 2.81528 0
M  V30 9580 H 888.862 0.491422 1.35355 0
M  V30 9581 H 890.815 -1.06597 4.07695 0
M  V30 9582 H 889.539 -1.48709 2.9078 0
M  V30 9583 H 888.198 0.519777 3.62897 0
M  V30 9584 H 887.846 -1.69515 4.73575 0
M  V30 9585 H 887.546 -0.350808 5.86552 0
M  V30 9586 H 889.07 -1.27726 5.97092 0
M  V30 9587 H 890.484 0.971406 5.6501 0
M  V30 9588 H 888.881 1.75772 5.73781 0
M  V30 9589 H 889.951 2.10593 4.36782 0
M  V30 9590 N 891.294 -1.47756 0.548274 0
M  V30 9591 C 892.226 -2.27921 -0.24177 0
M  V30 9592 C 893.239 -1.36471 -0.887658 0
M  V30 9593 O 894.428 -1.6137 -0.763016 0
M  V30 9594 C 891.528 -3.10449 -1.35922 0
M  V30 9595 C 890.701 -4.298 -0.811808 0
M  V30 9596 C 889.76 -4.93994 -1.81264 0
M  V30 9597 O 888.786 -5.52657 -1.3623 0
M  V30 9598 N 889.988 -4.87882 -3.14566 0
M  V30 9599 H 892.753 -2.96365 0.445848 0
M  V30 9600 H 890.314 -1.57286 0.383769 0
M  V30 9601 H 892.306 -3.50261 -2.02729 0
M  V30 9602 H 890.876 -2.44306 -1.95021 0
M  V30 9603 H 890.096 -3.94186 0.0327929 0
M  V30 9604 H 891.384 -5.0702 -0.425272 0
M  V30 9605 H 890.782 -4.41405 -3.53805 0
M  V30 9606 H 889.339 -5.3174 -3.76956 0
M  V30 9607 N 892.772 -0.284283 -1.55015 0
M  V30 9608 C 894.018 0.3233 -2.00814 0
M  V30 9609 C 894.373 1.52796 -1.16923 0
M  V30 9610 O 893.666 1.90172 -0.233499 0
M  V30 9611 C 893.86 0.747219 -3.49502 0
M  V30 9612 C 893.689 -0.414821 -4.47783 0
M  V30 9613 C 892.459 -0.901531 -4.97193 0
M  V30 9614 C 894.657 -1.25433 -4.9877 0
M  V30 9615 N 892.639 -2.03208 -5.79292 0
M  V30 9616 C 894.01 -2.23262 -5.78406 0
M  V30 9617 C 896.065 -1.28662 -4.80989 0
M  V30 9618 C 894.768 -3.24077 -6.42158 0
M  V30 9619 C 896.794 -2.28326 -5.45547 0
M  V30 9620 C 896.156 -3.24887 -6.25002 0
M  V30 9621 H 892.255 0.0832226 -0.777559 0
M  V30 9622 H 894.839 -0.410393 -1.90326 0
M  V30 9623 H 893.01 1.45012 -3.60314 0
M  V30 9624 H 894.742 1.33292 -3.8212 0
M  V30 9625 H 891.497 -0.479291 -4.71169 0
M  V30 9626 H 891.921 -2.60125 -6.25031 0
M  V30 9627 H 896.563 -0.553858 -4.19157 0
M  V30 9628 H 894.281 -3.98281 -7.03134 0
M  V30 9629 H 897.867 -2.31578 -5.33726 0
M  V30 9630 H 896.747 -4.00745 -6.74072 0
M  V30 9631 N 894.251 1.57596 -0.0117121 0
M  V30 9632 C 895.181 2.12188 0.9746 0
M  V30 9633 C 896.162 1.03379 1.35081 0
M  V30 9634 O 897.347 1.31123 1.4325 0
M  V30 9635 C 894.477 2.63477 2.26268 0
M  V30 9636 C 893.431 3.76917 2.02774 0
M  V30 9637 C 892.757 4.14566 3.37697 0
M  V30 9638 C 894.057 5.03715 1.38089 0
M  V30 9639 H 895.751 2.9485 0.520007 0
M  V30 9640 H 893.297 1.41836 0.248685 0
M  V30 9641 H 895.25 3.00299 2.95633 0
M  V30 9642 H 893.974 1.77953 2.73862 0
M  V30 9643 H 892.633 3.40507 1.35832 0
M  V30 9644 H 892.281 3.26048 3.83016 0
M  V30 9645 H 891.981 4.91 3.22789 0
M  V30 9646 H 893.505 4.53956 4.08358 0
M  V30 9647 H 894.919 5.38233 1.97428 0
M  V30 9648 H 893.316 5.85032 1.33634 0
M  V30 9649 H 894.386 4.83624 0.351575 0
M  V30 9650 N 895.729 -0.261212 1.5542 0
M  V30 9651 C 896.676 -1.32315 1.89107 0
M  V30 9652 C 897.646 -1.48517 0.743767 0
M  V30 9653 O 898.831 -1.62733 0.996123 0
M  V30 9654 C 895.971 -2.67626 2.17877 0
M  V30 9655 C 895.084 -2.59549 3.45338 0
M  V30 9656 C 894.219 -3.87118 3.63748 0
M  V30 9657 C 893.258 -3.736 4.8486 0
M  V30 9658 N 892.395 -4.93029 4.99867 0
M  V30 9659 H 897.235 -1.02886 2.79675 0
M  V30 9660 H 894.772 -0.496812 1.38456 0
M  V30 9661 H 896.73 -3.4637 2.32559 0
M  V30 9662 H 895.36 -2.95232 1.30529 0
M  V30 9663 H 894.412 -1.72452 3.39064 0
M  V30 9664 H 895.724 -2.45465 4.34222 0
M  V30 9665 H 894.878 -4.74305 3.78312 0
M  V30 9666 H 893.617 -4.04084 2.73071 0
M  V30 9667 H 892.622 -2.84797 4.70288 0
M  V30 9668 H 893.847 -3.58143 5.76984 0
M  V30 9669 H 891.793 -5.10383 4.12123 0
M  V30 9670 H 891.71 -4.81521 5.82815 0
M  V30 9671 H 892.978 -5.81754 5.18828 0
M  V30 9672 N 897.207 -1.48554 -0.526253 0
M  V30 9673 C 898.432 -1.60686 -1.31129 0
M  V30 9674 C 898.857 -0.268701 -1.86171 0
M  V30 9675 O 898.215 0.760167 -1.64594 0
M  V30 9676 C 898.263 -2.65938 -2.43536 0
M  V30 9677 O 897.367 -2.23356 -3.46678 0
M  V30 9678 H 896.708 -0.538691 -0.388211 0
M  V30 9679 H 899.238 -1.94567 -0.632826 0
M  V30 9680 H 899.248 -2.87327 -2.89668 0
M  V30 9681 H 897.923 -3.63085 -2.02835 0
M  V30 9682 H 896.5 -2.12196 -3.06639 0
M  V30 9683 N 898.685 0.775411 -1.37205 0
M  V30 9684 C 899.962 1.5229 -1.22748 0
M  V30 9685 C 900.342 2.10327 0.180487 0
M  V30 9686 O 899.69 1.95206 1.18772 0
M  V30 9687 C 899.9 2.60671 -2.3206 0
M  V30 9688 C 901.248 3.28173 -2.6942 0
M  V30 9689 O 902.272 2.70963 -2.31208 0
M  V30 9690 O 901.131 4.31598 -3.3524 0
M  V30 9691 H 898.225 0.674326 -0.478762 0
M  V30 9692 H 900.771 0.812691 -1.48975 0
M  V30 9693 H 899.543 2.1588 -3.26361 0
M  V30 9694 H 899.166 3.39296 -2.07277 0
M  V30 9695 N 900.163 1.21714 1.00117 0
M  V30 9696 C 901.11 0.979837 2.08968 0
M  V30 9697 C 902.08 -0.0955324 1.65825 0
M  V30 9698 O 903.265 0.0523742 1.90728 0
M  V30 9699 C 900.405 0.554758 3.40612 0
M  V30 9700 C 899.518 1.69999 3.97145 0
M  V30 9701 C 898.653 1.2237 5.16913 0
M  V30 9702 C 897.692 2.34101 5.65564 0
M  V30 9703 N 896.829 1.87579 6.76579 0
M  V30 9704 H 901.669 1.91167 2.28602 0
M  V30 9705 H 899.206 0.952645 1.12085 0
M  V30 9706 H 901.164 0.289526 4.16194 0
M  V30 9707 H 899.794 -0.340073 3.21004 0
M  V30 9708 H 898.846 2.07976 3.18512 0
M  V30 9709 H 900.158 2.54074 4.29241 0
M  V30 9710 H 899.312 0.915358 5.99755 0
M  V30 9711 H 898.051 0.353045 4.8642 0
M  V30 9712 H 897.056 2.65734 4.81316 0
M  V30 9713 H 898.281 3.21669 5.98085 0
M  V30 9714 H 896.227 1.02863 6.47885 0
M  V30 9715 H 896.144 2.65225 7.07949 0
M  V30 9716 H 897.412 1.5979 7.62947 0
M  V30 9717 N 901.641 -1.19671 1.02551 0
M  V30 9718 C 902.604 -2.20987 0.608055 0
M  V30 9719 C 903.604 -1.5745 -0.326534 0
M  V30 9720 O 904.794 -1.73827 -0.114003 0
M  V30 9721 C 901.926 -3.4072 -0.11074 0
M  V30 9722 H 903.119 -2.59434 1.50446 0
M  V30 9723 H 900.672 -1.3329 0.816307 0
M  V30 9724 H 901.407 -3.07787 -1.02165 0
M  V30 9725 H 901.192 -3.88069 0.560772 0
M  V30 9726 H 902.682 -4.15776 -0.389848 0
M  V30 9727 N 903.119 -0.802921 -1.35613 0
M  V30 9728 C 904.049 -0.225131 -2.32412 0
M  V30 9729 C 905.03 0.647383 -1.57299 0
M  V30 9730 O 906.215 0.578414 -1.85386 0
M  V30 9731 C 903.345 0.630085 -3.41537 0
M  V30 9732 C 902.299 -0.143635 -4.27759 0
M  V30 9733 C 901.625 0.833046 -5.28171 0
M  V30 9734 C 902.925 -1.34054 -5.04804 0
M  V30 9735 H 904.619 -1.03385 -2.80984 0
M  V30 9736 H 902.165 -0.498593 -1.35093 0
M  V30 9737 H 904.118 1.04433 -4.08254 0
M  V30 9738 H 902.842 1.47165 -2.91565 0
M  V30 9739 H 901.501 -0.539015 -3.62616 0
M  V30 9740 H 901.149 1.67001 -4.74468 0
M  V30 9741 H 900.849 0.319697 -5.8673 0
M  V30 9742 H 902.373 1.24558 -5.97761 0
M  V30 9743 H 903.787 -1.00136 -5.64487 0
M  V30 9744 H 902.184 -1.78812 -5.72841 0
M  V30 9745 H 903.254 -2.12906 -4.35659 0
M  V30 9746 N 904.597 1.47463 -0.556102 0
M  V30 9747 C 905.53 2.26934 0.240027 0
M  V30 9748 C 906.508 1.33981 0.921297 0
M  V30 9749 O 907.692 1.63361 0.940506 0
M  V30 9750 C 904.819 3.10982 1.34194 0
M  V30 9751 C 903.865 4.19504 0.769342 0
M  V30 9752 S 904.698 5.34127 -0.383209 0
M  V30 9753 C 905.854 6.21739 0.720548 0
M  V30 9754 H 906.087 2.9411 -0.434348 0
M  V30 9755 H 903.62 1.50556 -0.342402 0
M  V30 9756 H 905.578 3.59976 1.973 0
M  V30 9757 H 904.239 2.4317 1.98814 0
M  V30 9758 H 903.432 4.78036 1.59679 0
M  V30 9759 H 903.034 3.73385 0.214475 0
M  V30 9760 H 905.326 6.58021 1.61292 0
M  V30 9761 H 906.269 7.0789 0.172602 0
M  V30 9762 H 906.677 5.55342 1.01272 0
M  V30 9763 N 906.075 0.2925 1.54862 0
M  V30 9764 C 907.008 -0.629155 2.19356 0
M  V30 9765 C 907.986 -1.13927 1.16014 0
M  V30 9766 O 909.17 -1.20904 1.44618 0
M  V30 9767 C 906.297 -1.8599 2.83064 0
M  V30 9768 C 905.343 -1.48376 3.99859 0
M  V30 9769 S 906.176 -0.546976 5.32699 0
M  V30 9770 C 907.332 -1.7857 5.99886 0
M  V30 9771 H 907.565 -0.0812166 2.97189 0
M  V30 9772 H 905.098 0.0766721 1.5421 0
M  V30 9773 H 907.056 -2.56623 3.20398 0
M  V30 9774 H 905.717 -2.37899 2.05092 0
M  V30 9775 H 904.91 -2.40002 4.43187 0
M  V30 9776 H 904.512 -0.857447 3.64038 0
M  V30 9777 H 906.804 -2.7274 6.20177 0
M  V30 9778 H 907.747 -1.39513 6.9422 0
M  V30 9779 H 908.155 -1.95856 5.29434 0
M  V30 9780 N 907.553 -1.57587 0.0200696 0
M  V30 9781 C 908.483 -2.12702 -0.963333 0
M  V30 9782 C 909.464 -1.04094 -1.34531 0
M  V30 9783 O 910.649 -1.31881 -1.42552 0
M  V30 9784 C 907.779 -2.64673 -2.24868 0
M  V30 9785 C 906.733 -3.77987 -2.00772 0
M  V30 9786 C 906.059 -4.16351 -3.35494 0
M  V30 9787 C 907.359 -5.0444 -1.35416 0
M  V30 9788 H 909.053 -2.95121 -0.504363 0
M  V30 9789 H 906.599 -1.41966 -0.24116 0
M  V30 9790 H 908.552 -3.01862 -2.94036 0
M  V30 9791 H 907.276 -1.79403 -2.72914 0
M  V30 9792 H 905.935 -3.41223 -1.34025 0
M  V30 9793 H 905.583 -3.28075 -3.81282 0
M  V30 9794 H 905.283 -4.92705 -3.20181 0
M  V30 9795 H 906.807 -4.56115 -4.05945 0
M  V30 9796 H 908.221 -5.39273 -1.94571 0
M  V30 9797 H 906.618 -5.85732 -1.30529 0
M  V30 9798 H 907.688 -4.83803 -0.325923 0
M  V30 9799 N 909.032 0.252966 -1.55557 0
M  V30 9800 C 910.279 0.981852 -1.77104 0
M  V30 9801 C 910.607 1.85547 -0.583305 0
M  V30 9802 O 909.862 1.90836 0.43359 0
M  V30 9803 C 910.161 1.87785 -3.04091 0
M  V30 9804 C 909.827 1.16009 -4.35721 0
M  V30 9805 C 908.489 0.961697 -4.71492 0
M  V30 9806 C 910.841 0.650884 -5.1712 0
M  V30 9807 C 908.169 0.241704 -5.86202 0
M  V30 9808 C 910.521 -0.0556124 -6.32576 0
M  V30 9809 C 909.185 -0.265536 -6.66972 0
M  V30 9810 H 908.455 0.359285 -0.64807 0
M  V30 9811 H 911.102 0.252443 -1.89829 0
M  V30 9812 H 909.407 2.67412 -2.86353 0
M  V30 9813 H 911.104 2.44339 -3.17961 0
M  V30 9814 H 907.694 1.32465 -4.07616 0
M  V30 9815 H 911.878 0.791719 -4.89944 0
M  V30 9816 H 907.134 0.0685292 -6.11362 0
M  V30 9817 H 911.308 -0.457839 -6.94893 0
M  V30 9818 H 908.935 -0.8254 -7.55706 0
M  V30 9819 N 910.51 1.48831 0.518367 0
M  V30 9820 C 911.458 1.64678 1.64268 0
M  V30 9821 C 912.452 0.512967 1.61447 0
M  V30 9822 O 913.658 0.692063 1.66164 0
M  V30 9823 H 910.033 0.518964 0.544224 0
M  V30 9824 H 912.004 2.59083 1.4805 0
M  V30 9825 C 910.753 1.71449 3.0249 0
M  V30 9826 H 910.076 2.58061 3.0536 0
M  V30 9827 H 911.516 1.86577 3.80743 0
M  V30 9828 C 909.975 0.455584 3.33805 0
M  V30 9829 O 910.505 -0.426428 3.9943 0
M  V30 9830 N 908.711 0.323763 2.88791 0
M  V30 9831 H 908.258 1.04249 2.35563 0
M  V30 9832 H 908.216 -0.517514 3.10112 0
M  V30 9833 N 911.988 -0.768124 1.37614 0
M  V30 9834 C 913.265 -1.51637 1.23554 0
M  V30 9835 C 913.645 -2.1042 -0.169331 0
M  V30 9836 O 912.993 -1.95834 -1.17735 0
M  V30 9837 C 913.203 -2.59436 2.33439 0
M  V30 9838 C 914.551 -3.2674 2.71157 0
M  V30 9839 O 915.575 -2.69733 2.32642 0
M  V30 9840 O 914.434 -4.29814 3.37524 0
M  V30 9841 H 911.528 -0.671778 0.482332 0
M  V30 9842 H 914.074 -0.804779 1.49403 0
M  V30 9843 H 912.846 -2.14146 3.27502 0
M  V30 9844 H 912.469 -3.38192 2.09073 0
M  V30 9845 N 913.466 -1.22244 -0.994698 0
M  V30 9846 C 914.714 -1.04384 -1.73056 0
M  V30 9847 C 915.035 0.422204 -1.90374 0
M  V30 9848 O 914.305 1.30383 -1.46209 0
M  V30 9849 H 912.885 -0.383263 -0.641185 0
M  V30 9850 H 915.547 -1.53725 -1.1981 0
M  V30 9851 H 914.643 -1.52021 -2.72573 0
M  V30 9852 N 914.944 1.19125 -1.03184 0
M  V30 9853 C 916.172 1.92838 -0.74975 0
M  V30 9854 C 916.587 1.75667 0.691851 0
M  V30 9855 O 915.944 1.0805 1.47076 0
M  V30 9856 C 915.995 3.44509 -1.09525 0
M  V30 9857 O 915.716 3.6113 -2.48025 0
M  V30 9858 C 917.217 4.35338 -0.836397 0
M  V30 9859 H 914.437 0.61246 -0.274105 0
M  V30 9860 H 916.981 1.5118 -1.37712 0
M  V30 9861 H 915.136 3.83988 -0.513006 0
M  V30 9862 H 915.55 4.54959 -2.60984 0
M  V30 9863 H 917.024 5.4035 -1.12808 0
M  V30 9864 H 917.501 4.38602 0.229102 0
M  V30 9865 H 918.107 4.01544 -1.40152 0
M  V30 9866 N 916.422 0.810101 1.35185 0
M  V30 9867 C 917.669 0.392117 1.98667 0
M  V30 9868 C 917.997 -1.0416 1.64259 0
M  V30 9869 O 917.252 -1.73795 0.899647 0
M  V30 9870 C 917.551 0.526561 3.535 0
M  V30 9871 C 917.217 1.92411 4.07785 0
M  V30 9872 C 915.879 2.30644 4.22323 0
M  V30 9873 C 918.231 2.83827 4.37141 0
M  V30 9874 C 915.559 3.59655 4.63536 0
M  V30 9875 C 917.911 4.12287 4.79794 0
M  V30 9876 C 916.575 4.50515 4.92536 0
M  V30 9877 H 915.845 0.143486 0.726975 0
M  V30 9878 H 918.492 1.03157 1.61341 0
M  V30 9879 H 916.797 -0.19633 3.91308 0
M  V30 9880 H 918.494 0.183871 4.00578 0
M  V30 9881 H 915.084 1.61707 3.96924 0
M  V30 9882 H 919.268 2.55536 4.25459 0
M  V30 9883 H 914.524 3.89117 4.71591 0
M  V30 9884 H 918.698 4.83221 5.01468 0
M  V30 9885 H 916.325 5.50535 5.24229 0
M  V30 9886 N 917.9 -1.47166 0.563914 0
M  V30 9887 C 918.832 -2.28165 -0.217583 0
M  V30 9888 C 919.845 -1.37405 -0.873134 0
M  V30 9889 O 921.034 -1.6217 -0.745857 0
M  V30 9890 C 918.134 -3.11873 -1.32621 0
M  V30 9891 C 917.307 -4.30637 -0.766177 0
M  V30 9892 C 916.366 -4.95889 -1.76014 0
M  V30 9893 O 915.392 -5.54071 -1.3036 0
M  V30 9894 N 916.594 -4.91191 -3.09373 0
M  V30 9895 H 919.359 -2.95876 0.477256 0
M  V30 9896 H 916.92 -1.5687 0.40043 0
M  V30 9897 H 918.912 -3.52392 -1.99003 0
M  V30 9898 H 917.482 -2.46361 -1.92419 0
M  V30 9899 H 916.702 -3.94129 0.0745998 0
M  V30 9900 H 917.99 -5.07442 -0.371472 0
M  V30 9901 H 917.388 -4.45133 -3.49104 0
M  V30 9902 H 915.945 -5.35708 -3.71295 0
M  V30 9903 N 919.378 -0.300708 -1.54705 0
M  V30 9904 C 920.624 0.309111 -2.0043 0
M  V30 9905 C 920.957 1.53562 -1.1888 0
M  V30 9906 O 920.232 1.92683 -0.265205 0
M  V30 9907 C 920.515 0.665995 -3.53888 0
M  V30 9908 C 920.368 -0.56963 -4.46178 0
M  V30 9909 C 921.687 1.49262 -4.14016 0
M  V30 9910 H 918.806 0.110878 -0.728612 0
M  V30 9911 H 921.448 -0.412748 -1.85463 0
M  V30 9912 H 919.598 1.281 -3.66773 0
M  V30 9913 H 921.27 -1.20811 -4.45199 0
M  V30 9914 H 919.513 -1.20292 -4.16788 0
M  V30 9915 H 920.184 -0.275785 -5.51311 0
M  V30 9916 H 922.66 0.972979 -4.04564 0
M  V30 9917 H 921.536 1.71111 -5.21548 0
M  V30 9918 H 921.797 2.48174 -3.65872 0
M  V30 9919 N 920.856 1.57574 -0.0284266 0
M  V30 9920 C 921.804 2.11332 0.971675 0
M  V30 9921 C 922.798 1.03974 1.33738 0
M  V30 9922 O 924.004 1.22409 1.31969 0
M  V30 9923 H 920.379 0.675174 0.331125 0
M  V30 9924 H 922.35 2.943 0.49296 0
M  V30 9925 C 921.099 2.65496 2.24516 0
M  V30 9926 H 920.422 3.47753 1.9725 0
M  V30 9927 H 921.862 3.06757 2.92705 0
M  V30 9928 C 920.321 1.58207 2.97443 0
M  V30 9929 O 920.851 0.981496 3.89525 0
M  V30 9930 N 919.057 1.30269 2.59766 0
M  V30 9931 H 918.604 1.79294 1.84963 0
M  V30 9932 H 918.562 0.587085 3.0887 0
M  V30 9933 N 922.334 -0.244713 1.55689 0
M  V30 9934 C 923.581 -0.972446 1.77622 0
M  V30 9935 C 923.909 -1.85235 0.593137 0
M  V30 9936 O 923.164 -1.91064 -0.423464 0
M  V30 9937 C 923.463 -1.8617 3.05083 0
M  V30 9938 C 923.129 -1.13696 4.3633 0
M  V30 9939 C 921.791 -0.936679 4.71996 0
M  V30 9940 C 924.143 -0.623451 5.17458 0
M  V30 9941 C 921.471 -0.210612 5.86322 0
M  V30 9942 C 923.823 0.0891587 6.32537 0
M  V30 9943 C 922.487 0.300904 6.66821 0
M  V30 9944 H 921.757 -0.355843 0.649967 0
M  V30 9945 H 924.404 -0.242372 1.8996 0
M  V30 9946 H 922.709 -2.6589 2.87767 0
M  V30 9947 H 924.406 -2.4265 3.19253 0
M  V30 9948 H 920.996 -1.30301 4.08313 0
M  V30 9949 H 925.18 -0.765725 4.90357 0
M  V30 9950 H 920.436 -0.0361062 6.11389 0
M  V30 9951 H 924.61 0.494685 6.94641 0
M  V30 9952 H 922.237 0.865466 7.55257 0
M  V30 9953 N 923.813 -1.49104 -0.510467 0
M  V30 9954 C 925.043 -1.61571 -1.28757 0
M  V30 9955 C 925.451 -0.282638 -1.87077 0
M  V30 9956 O 924.794 0.740749 -1.68103 0
M  V30 9957 C 924.856 -2.61851 -2.46322 0
M  V30 9958 C 924.52 -4.06438 -2.08942 0
M  V30 9959 C 925.517 -4.93532 -1.63469 0
M  V30 9960 C 923.202 -4.52109 -2.18867 0
M  V30 9961 C 925.196 -6.24331 -1.28411 0
M  V30 9962 C 922.883 -5.82924 -1.83421 0
M  V30 9963 C 923.881 -6.68858 -1.38267 0
M  V30 9964 O 923.569 -7.97236 -1.03296 0
M  V30 9965 H 923.301 -0.547082 -0.397086 0
M  V30 9966 H 925.855 -1.95806 -0.620424 0
M  V30 9967 H 924.085 -2.22777 -3.16081 0
M  V30 9968 H 925.774 -2.63947 -3.08362 0
M  V30 9969 H 926.54 -4.59479 -1.55255 0
M  V30 9970 H 922.419 -3.85395 -2.52966 0
M  V30 9971 H 925.963 -6.9136 -0.930946 0
M  V30 9972 H 921.86 -6.16507 -1.91282 0
M  V30 9973 H 922.628 -8.10163 -1.16525 0
M  V30 9974 N 925.291 0.760815 -1.38019 0
M  V30 9975 C 926.241 1.86487 -1.31174 0
M  V30 9976 C 927.225 1.59684 -0.197414 0
M  V30 9977 O 928.417 1.71628 -0.432764 0
M  V30 9978 C 925.546 3.24103 -1.13192 0
M  V30 9979 C 924.632 3.5682 -2.29216 0
M  V30 9980 N 925.023 3.60644 -3.5464 0
M  V30 9981 C 923.321 3.87047 -2.2161 0
M  V30 9982 C 924.022 3.90423 -4.31214 0
M  V30 9983 N 922.998 4.06883 -3.60482 0
M  V30 9984 H 926.8 1.87711 -2.26146 0
M  V30 9985 H 924.314 0.957811 -1.31148 0
M  V30 9986 H 926.311 4.03101 -1.06372 0
M  V30 9987 H 924.971 3.24135 -0.191473 0
M  V30 9988 H 925.982 3.42581 -3.88405 0
M  V30 9989 H 922.659 3.94837 -1.35684 0
M  V30 9990 H 924.049 4.00065 -5.39812 0
M  V30 9991 N 926.769 1.22769 0.988202 0
M  V30 9992 C 928.046 0.9635 1.70223 0
M  V30 9993 C 928.426 -0.520102 2.04593 0
M  V30 9994 O 927.774 -1.48934 1.73295 0
M  V30 9995 C 927.984 1.86583 2.94937 0
M  V30 9996 C 929.332 2.12469 3.67616 0
M  V30 9997 O 930.356 1.84069 3.04954 0
M  V30 9998 O 929.215 2.60595 4.80367 0
M  V30 9999 H 926.309 0.362737 0.743203 0
M  V30 10000 H 928.855 1.33776 1.04412 0
M  V30 10001 H 927.627 2.86913 2.66077 0
M  V30 10002 H 927.25 1.49344 3.68486 0
M  V30 10003 N 928.247 -1.18576 1.03814 0
M  V30 10004 C 929.197 -2.20034 0.597409 0
M  V30 10005 C 930.181 -1.56849 -0.358796 0
M  V30 10006 O 931.373 -1.761 -0.178262 0
M  V30 10007 C 928.502 -3.43276 -0.0407965 0
M  V30 10008 C 927.588 -4.13588 0.938404 0
M  V30 10009 N 927.979 -4.59941 2.10447 0
M  V30 10010 C 926.277 -4.3941 0.763853 0
M  V30 10011 C 926.978 -5.1404 2.72282 0
M  V30 10012 N 925.954 -5.05401 2.00176 0
M  V30 10013 H 929.756 -2.53562 1.48606 0
M  V30 10014 H 927.27 -1.34753 0.906384 0
M  V30 10015 H 929.267 -4.15217 -0.374222 0
M  V30 10016 H 927.927 -3.11245 -0.925014 0
M  V30 10017 H 928.938 -4.54471 2.48347 0
M  V30 10018 H 925.615 -4.1744 -0.0704869 0
M  V30 10019 H 927.005 -5.60128 3.71088 0
M  V30 10020 N 929.725 -0.817259 -1.34754 0
M  V30 10021 C 930.953 -0.415451 -2.02686 0
M  V30 10022 C 931.368 0.97688 -1.61563 0
M  V30 10023 O 930.725 1.63125 -0.818321 0
M  V30 10024 C 930.776 -0.501486 -3.58005 0
M  V30 10025 O 930.497 -1.83893 -3.97637 0
M  V30 10026 C 931.998 -0.0938504 -4.43201 0
M  V30 10027 H 929.218 -0.16742 -0.649778 0
M  V30 10028 H 931.762 -1.10384 -1.7215 0
M  V30 10029 H 929.917 0.138766 -3.87151 0
M  V30 10030 H 930.331 -1.8092 -4.92309 0
M  V30 10031 H 931.805 -0.205145 -5.51619 0
M  V30 10032 H 932.282 0.962011 -4.28535 0
M  V30 10033 H 932.888 -0.707677 -4.19371 0
M  V30 10034 N 931.203 1.46865 -0.571711 0
M  V30 10035 C 932.15 2.30189 0.167808 0
M  V30 10036 C 933.12 1.3995 0.89461 0
M  V30 10037 O 934.305 1.68905 0.887451 0
M  V30 10038 C 931.445 3.24205 1.1826 0
M  V30 10039 C 930.558 4.2954 0.460376 0
M  V30 10040 C 929.693 5.10693 1.46173 0
M  V30 10041 C 928.732 6.07788 0.725291 0
M  V30 10042 N 927.869 6.81847 1.67417 0
M  V30 10043 H 932.709 2.92902 -0.548831 0
M  V30 10044 H 930.246 1.44362 -0.282474 0
M  V30 10045 H 932.204 3.77147 1.7837 0
M  V30 10046 H 930.834 2.63324 1.86709 0
M  V30 10047 H 929.886 3.79541 -0.255546 0
M  V30 10048 H 931.198 4.98665 -0.115855 0
M  V30 10049 H 930.352 5.67857 2.13595 0
M  V30 10050 H 929.091 4.41502 2.07188 0
M  V30 10051 H 928.096 5.49787 0.037228 0
M  V30 10052 H 929.321 6.78993 0.120678 0
M  V30 10053 H 927.267 6.15376 2.27263 0
M  V30 10054 H 927.184 7.47195 1.15046 0
M  V30 10055 H 928.452 7.43577 2.33908 0
M  V30 10056 N 932.681 0.308908 1.54543 0
M  V30 10057 C 933.93 -0.298854 1.99474 0
M  V30 10058 C 934.243 -1.54393 1.20093 0
M  V30 10059 O 935.449 -2.22677 1.55329 0
M  V30 10060 C 933.905 -0.58303 3.55146 0
M  V30 10061 C 933.513 0.644157 4.43345 0
M  V30 10062 C 935.257 -1.15155 4.08582 0
M  V30 10063 C 933.164 0.332694 5.90463 0
M  V30 10064 H 932.094 -0.115445 0.74511 0
M  V30 10065 H 934.745 0.418848 1.78656 0
M  V30 10066 H 933.127 -1.36053 3.71894 0
M  V30 10067 H 934.301 1.42012 4.38371 0
M  V30 10068 H 932.616 1.13186 4.00722 0
M  V30 10069 H 935.213 -1.39896 5.16075 0
M  V30 10070 H 935.556 -2.09632 3.59667 0
M  V30 10071 H 936.089 -0.435571 3.95408 0
M  V30 10072 H 932.828 1.24624 6.43544 0
M  V30 10073 H 932.348 -0.405844 5.98425 0
M  V30 10074 H 934.027 -0.0628545 6.46969 0
M  V30 10075 N 934.159 -1.57557 0.0367827 0
M  V30 10076 C 935.408 -1.91291 -0.639569 0
M  V30 10077 C 935.721 -0.915601 -1.72847 0
M  V30 10078 O 936.927 -1.14447 -2.46199 0
M  V30 10079 C 935.383 -3.39697 -1.18888 0
M  V30 10080 C 934.991 -4.47803 -0.132851 0
M  V30 10081 C 936.735 -3.82487 -1.8413 0
M  V30 10082 C 934.642 -5.87311 -0.694229 0
M  V30 10083 H 933.572 -0.713886 -0.242658 0
M  V30 10084 H 936.223 -1.83209 0.103332 0
M  V30 10085 H 934.605 -3.42736 -1.98363 0
M  V30 10086 H 935.779 -4.56334 0.640009 0
M  V30 10087 H 934.094 -4.14264 0.421264 0
M  V30 10088 H 936.691 -4.84076 -2.27101 0
M  V30 10089 H 937.034 -3.17959 -2.68716 0
M  V30 10090 H 937.567 -3.81903 -1.11332 0
M  V30 10091 H 934.306 -6.55401 0.113667 0
M  V30 10092 H 933.826 -5.82371 -1.4354 0
M  V30 10093 H 935.505 -6.36119 -1.1816 0
M  V30 10094 N 935.637 0.236453 -1.55816 0
M  V30 10095 C 936.886 0.960981 -1.77336 0
M  V30 10096 C 937.199 1.86085 -0.602641 0
M  V30 10097 O 938.405 2.62291 -0.701106 0
M  V30 10098 C 936.861 1.75884 -3.13995 0
M  V30 10099 C 936.469 0.905849 -4.38746 0
M  V30 10100 C 938.213 2.47548 -3.44848 0
M  V30 10101 C 936.12 1.7002 -5.66434 0
M  V30 10102 H 935.05 0.362547 -0.661117 0
M  V30 10103 H 937.701 0.215303 -1.82233 0
M  V30 10104 H 936.083 2.54687 -3.03234 0
M  V30 10105 H 937.257 0.159415 -4.60524 0
M  V30 10106 H 935.572 0.30205 -4.15303 0
M  V30 10107 H 938.169 3.07452 -4.37467 0
M  V30 10108 H 938.512 3.19689 -2.66655 0
M  V30 10109 H 939.045 1.75747 -3.56872 0
M  V30 10110 H 935.784 1.02234 -6.47479 0
M  V30 10111 H 935.304 2.42164 -5.48741 0
M  V30 10112 H 936.983 2.26469 -6.0607 0
M  V30 10113 N 937.115 1.49373 0.502552 0
M  V30 10114 C 938.355 1.60398 1.26696 0
M  V30 10115 C 938.719 0.283599 1.89894 0
M  V30 10116 O 939.92 0.269022 2.6745 0
M  V30 10117 C 938.191 2.72998 2.30666 0
M  V30 10118 S 939.75 3.03964 3.16466 0
M  V30 10119 H 936.568 0.565781 0.430596 0
M  V30 10120 H 939.17 1.87024 0.569418 0
M  V30 10121 H 937.874 3.67458 1.82765 0
M  V30 10122 H 937.405 2.4836 3.05091 0
M  V30 10123 H 939.42 2.45367 4.31288 0
M  V30 10124 N 938.594 -0.753485 1.38421 0
M  V30 10125 C 939.819 -1.54783 1.38047 0
M  V30 10126 C 940.244 -1.8808 -0.0276371 0
M  V30 10127 O 939.602 -1.5058 -1.00973 0
M  V30 10128 C 939.65 -2.82353 2.24297 0
M  V30 10129 O 938.754 -3.77509 1.66014 0
M  V30 10130 H 938.095 -0.468151 0.470883 0
M  V30 10131 H 940.625 -0.931144 1.82184 0
M  V30 10132 H 940.635 -3.31277 2.38159 0
M  V30 10133 H 939.31 -2.57449 3.26639 0
M  V30 10134 H 937.887 -3.36212 1.61294 0
M  V30 10135 N 940.072 -1.23292 -0.981677 0
M  V30 10136 C 941.004 -0.970782 -2.07626 0
M  V30 10137 C 942.017 0.0547506 -1.62708 0
M  V30 10138 O 943.206 -0.180623 -1.77584 0
M  V30 10139 C 940.306 -0.44055 -3.36024 0
M  V30 10140 C 939.479 -1.52595 -4.09919 0
M  V30 10141 C 938.538 -1.00082 -5.16595 0
M  V30 10142 O 937.564 -1.68951 -5.43548 0
M  V30 10143 N 938.766 0.172017 -5.80245 0
M  V30 10144 H 941.531 -1.91316 -2.30691 0
M  V30 10145 H 939.092 -1.14133 -1.14828 0
M  V30 10146 H 941.084 -0.0743111 -4.04632 0
M  V30 10147 H 939.654 0.407211 -3.09936 0
M  V30 10148 H 938.874 -2.06501 -3.35784 0
M  V30 10149 H 940.162 -2.2559 -4.56055 0
M  V30 10150 H 939.56 0.748129 -5.60731 0
M  V30 10151 H 938.117 0.479532 -6.50034 0
M  V30 10152 N 941.55 1.18024 -1.04442 0
M  V30 10153 C 942.498 2.23834 -0.632557 0
M  V30 10154 C 943.492 1.65902 0.342488 0
M  V30 10155 O 944.698 1.78778 0.20937 0
M  V30 10156 H 941.073 0.728544 -0.186353 0
M  V30 10157 H 943.044 2.55876 -1.53526 0
M  V30 10158 C 941.793 3.47697 -0.0153661 0
M  V30 10159 H 941.116 3.92574 -0.756704 0
M  V30 10160 H 942.556 4.23345 0.235541 0
M  V30 10161 C 941.015 3.13416 1.23579 0
M  V30 10162 O 941.545 3.27499 2.3261 0
M  V30 10163 N 939.751 2.67708 1.13053 0
M  V30 10164 H 939.298 2.56449 0.243277 0
M  V30 10165 H 939.256 2.45143 1.96855 0
M  V30 10166 N 943.028 0.824394 1.34319 0
M  V30 10167 C 943.938 0.24932 2.33271 0
M  V30 10168 C 944.954 -0.617066 1.62691 0
M  V30 10169 O 946.13 -0.524616 1.94447 0
M  V30 10170 C 943.195 -0.578094 3.41846 0
M  V30 10171 C 942.256 0.310866 4.28173 0
M  V30 10172 C 941.489 -0.477153 5.31563 0
M  V30 10173 O 941.712 -1.71028 5.44156 0
M  V30 10174 O 940.646 0.141287 6.01734 0
M  V30 10175 H 944.472 1.06837 2.84288 0
M  V30 10176 H 942.057 0.58657 1.37403 0
M  V30 10177 H 943.939 -1.04878 4.0814 0
M  V30 10178 H 942.614 -1.37444 2.93071 0
M  V30 10179 H 941.521 0.829081 3.64797 0
M  V30 10180 H 942.854 1.07161 4.80393 0
M  V30 10181 N 944.506 -1.46559 0.579492 0
M  V30 10182 C 945.416 -2.34066 -0.15816 0
M  V30 10183 C 946.432 -1.49556 -0.88932 0
M  V30 10184 O 947.608 -1.82434 -0.853226 0
M  V30 10185 C 944.673 -3.26683 -1.161 0
M  V30 10186 C 943.734 -4.27092 -0.434855 0
M  V30 10187 C 942.967 -5.15283 -1.38992 0
M  V30 10188 O 943.19 -5.06345 -2.62623 0
M  V30 10189 O 942.124 -5.95099 -0.902253 0
M  V30 10190 H 945.95 -2.98488 0.560234 0
M  V30 10191 H 943.535 -1.45482 0.339918 0
M  V30 10192 H 945.417 -3.8383 -1.73932 0
M  V30 10193 H 944.092 -2.64862 -1.86091 0
M  V30 10194 H 942.999 -3.73641 0.185224 0
M  V30 10195 H 944.332 -4.9169 0.224031 0
M  V30 10196 N 945.984 -0.3171 -1.54377 0
M  V30 10197 C 947.214 0.289138 -2.04567 0
M  V30 10198 C 947.622 1.46833 -1.19318 0
M  V30 10199 O 946.965 1.82436 -0.215141 0
M  V30 10200 C 947.027 0.792994 -3.50645 0
M  V30 10201 C 946.691 -0.263033 -4.56242 0
M  V30 10202 C 947.688 -1.09694 -5.08196 0
M  V30 10203 C 945.373 -0.409364 -5.00629 0
M  V30 10204 C 947.367 -2.06297 -6.03092 0
M  V30 10205 C 945.054 -1.37882 -5.95342 0
M  V30 10206 C 946.052 -2.20409 -6.46459 0
M  V30 10207 O 945.74 -3.15708 -7.39313 0
M  V30 10208 H 945.472 0.0644005 -0.672925 0
M  V30 10209 H 948.026 -0.459438 -2.00196 0
M  V30 10210 H 946.256 1.59237 -3.52392 0
M  V30 10211 H 947.945 1.31687 -3.83944 0
M  V30 10212 H 948.711 -0.994842 -4.74687 0
M  V30 10213 H 944.59 0.223091 -4.6046 0
M  V30 10214 H 948.134 -2.70751 -6.42915 0
M  V30 10215 H 944.031 -1.48158 -6.28267 0
M  V30 10216 H 944.799 -3.10873 -7.57166 0
M  V30 10217 N 947.462 1.57535 -0.0451378 0
M  V30 10218 C 948.392 2.14208 0.929372 0
M  V30 10219 C 949.373 1.06221 1.32858 0
M  V30 10220 O 950.558 1.34132 1.40436 0
M  V30 10221 C 947.688 2.68217 2.20629 0
M  V30 10222 C 946.642 3.81134 1.94734 0
M  V30 10223 C 945.968 4.21636 3.28828 0
M  V30 10224 C 947.268 5.06531 1.27374 0
M  V30 10225 H 948.962 2.95886 0.457348 0
M  V30 10226 H 946.508 1.42332 0.218544 0
M  V30 10227 H 948.461 3.06502 2.89196 0
M  V30 10228 H 947.185 1.83722 2.70026 0
M  V30 10229 H 945.844 3.43312 1.28579 0
M  V30 10230 H 945.492 3.34099 3.76014 0
M  V30 10231 H 945.192 4.97736 3.12302 0
M  V30 10232 H 946.716 4.62516 3.98637 0
M  V30 10233 H 948.13 5.423 1.85967 0
M  V30 10234 H 946.527 5.87735 1.21194 0
M  V30 10235 H 947.597 4.84261 0.248913 0
M  V30 10236 N 948.94 -0.228186 1.55939 0
M  V30 10237 C 949.87 -1.28607 1.94891 0
M  V30 10238 C 950.851 -1.49236 0.816245 0
M  V30 10239 O 952.036 -1.61531 1.07803 0
M  V30 10240 C 949.166 -2.63719 2.25986 0
M  V30 10241 C 948.12 -2.57757 3.4168 0
M  V30 10242 C 947.446 -3.96837 3.58364 0
M  V30 10243 C 948.746 -2.13116 4.76843 0
M  V30 10244 H 950.44 -0.962531 2.83506 0
M  V30 10245 H 947.986 -0.461577 1.36402 0
M  V30 10246 H 949.939 -3.37878 2.51826 0
M  V30 10247 H 948.663 -2.97747 1.34217 0
M  V30 10248 H 947.322 -1.86055 3.15878 0
M  V30 10249 H 946.97 -4.28162 2.63982 0
M  V30 10250 H 946.67 -3.93731 4.36176 0
M  V30 10251 H 948.194 -4.72668 3.86545 0
M  V30 10252 H 949.608 -2.77015 5.01932 0
M  V30 10253 H 948.005 -2.21083 5.57891 0
M  V30 10254 H 949.075 -1.08326 4.72645 0
M  V30 10255 N 950.418 -1.49637 -0.494624 0
M  V30 10256 C 951.646 -1.63164 -1.2722 0
M  V30 10257 C 952.061 -0.305552 -1.86311 0
M  V30 10258 O 951.418 0.709758 -1.68133 0
M  V30 10259 C 951.469 -2.70524 -2.39789 0
M  V30 10260 O 951.19 -3.97991 -1.83126 0
M  V30 10261 C 952.691 -2.94814 -3.31058 0
M  V30 10262 H 949.911 -0.54912 -0.385627 0
M  V30 10263 H 952.455 -1.95711 -0.593081 0
M  V30 10264 H 950.61 -2.40738 -3.03519 0
M  V30 10265 H 951.024 -4.57179 -2.57075 0
M  V30 10266 H 952.498 -3.73653 -4.06309 0
M  V30 10267 H 952.975 -2.04974 -3.88436 0
M  V30 10268 H 953.581 -3.26042 -2.73088 0
M  V30 10269 N 951.896 0.746133 -1.38819 0
M  V30 10270 C 953.126 1.53316 -1.38484 0
M  V30 10271 C 953.534 1.89183 0.0253332 0
M  V30 10272 O 952.877 1.5382 1.00424 0
M  V30 10273 C 952.939 2.85623 -2.18311 0
M  V30 10274 C 952.603 2.72253 -3.67052 0
M  V30 10275 C 953.6 2.41547 -4.60381 0
M  V30 10276 C 951.285 2.89472 -4.10501 0
M  V30 10277 C 953.279 2.28226 -5.9514 0
M  V30 10278 C 950.966 2.7577 -5.45338 0
M  V30 10279 C 951.964 2.45191 -6.37472 0
M  V30 10280 O 951.652 2.31561 -7.69828 0
M  V30 10281 H 951.384 0.480763 -0.475229 0
M  V30 10282 H 953.938 0.93057 -1.83111 0
M  V30 10283 H 952.168 3.481 -1.68414 0
M  V30 10284 H 953.857 3.47178 -2.10291 0
M  V30 10285 H 954.623 2.27905 -4.28117 0
M  V30 10286 H 950.502 3.12269 -3.3913 0
M  V30 10287 H 954.046 2.04279 -6.6702 0
M  V30 10288 H 949.943 2.88987 -5.77197 0
M  V30 10289 H 950.711 2.46716 -7.80432 0
M  V30 10290 N 953.375 1.23811 0.975125 0
M  V30 10291 C 954.624 1.06741 1.71141 0
M  V30 10292 C 954.937 -0.394986 1.9157 0
M  V30 10293 O 956.143 -0.685723 2.62698 0
M  V30 10294 C 954.599 1.86168 3.08009 0
M  V30 10295 C 954.207 3.36771 2.95448 0
M  V30 10296 C 955.951 1.77604 3.85561 0
M  V30 10297 C 953.858 4.0857 4.2758 0
M  V30 10298 H 952.788 0.395819 0.64175 0
M  V30 10299 H 955.439 1.47825 1.0872 0
M  V30 10300 H 953.821 1.37893 3.71216 0
M  V30 10301 H 954.995 3.92571 2.41298 0
M  V30 10302 H 953.31 3.46205 2.31368 0
M  V30 10303 H 955.907 2.28556 4.83391 0
M  V30 10304 H 956.25 0.739837 4.09673 0
M  V30 10305 H 956.783 2.23519 3.29065 0
M  V30 10306 H 953.522 5.12518 4.08663 0
M  V30 10307 H 953.042 3.57556 4.81574 0
M  V30 10308 H 954.721 4.15157 4.9624 0
M  V30 10309 N 954.853 -1.17469 1.05066 0
M  V30 10310 C 955.801 -2.23495 0.644418 0
M  V30 10311 C 956.795 -1.66081 -0.333685 0
M  V30 10312 O 958.001 -1.78887 -0.199886 0
M  V30 10313 H 954.376 -0.727546 0.190214 0
M  V30 10314 H 956.347 -2.55058 1.5488 0
M  V30 10315 C 955.096 -3.47684 0.0338051 0
M  V30 10316 H 954.419 -3.92167 0.777513 0
M  V30 10317 H 955.859 -4.23464 -0.213086 0
M  V30 10318 C 954.318 -3.14067 -1.21915 0
M  V30 10319 O 954.848 -3.28728 -2.3087 0
M  V30 10320 N 953.054 -2.68304 -1.11631 0
M  V30 10321 H 952.601 -2.56574 -0.229673 0
M  V30 10322 H 952.559 -2.46184 -1.95553 0
M  V30 10323 N 956.331 -0.831506 -1.3388 0
M  V30 10324 C 957.241 -0.261688 -2.33136 0
M  V30 10325 C 958.257 0.608429 -1.63016 0
M  V30 10326 O 959.433 0.514297 -1.94723 0
M  V30 10327 C 956.498 0.559957 -3.42148 0
M  V30 10328 C 955.559 -0.333569 -4.28002 0
M  V30 10329 C 954.792 0.448956 -5.31808 0
M  V30 10330 O 955.015 1.6814 -5.45055 0
M  V30 10331 O 953.949 -0.173197 -6.01651 0
M  V30 10332 H 957.775 -1.08343 -2.83717 0
M  V30 10333 H 955.36 -0.593849 -1.3709 0
M  V30 10334 H 957.242 1.02712 -4.08691 0
M  V30 10335 H 955.917 1.35888 -2.93796 0
M  V30 10336 H 954.824 -0.848416 -3.64352 0
M  V30 10337 H 956.157 -1.09707 -4.79818 0
M  V30 10338 N 957.809 1.4625 -0.587256 0
M  V30 10339 C 959.086 1.95599 -0.00750181 0
M  V30 10340 C 959.466 1.52989 1.45457 0
M  V30 10341 O 958.814 0.782731 2.14676 0
M  V30 10342 C 959.024 3.48513 -0.184309 0
M  V30 10343 C 960.372 4.24565 -0.0544972 0
M  V30 10344 O 961.396 3.5602 -0.113378 0
M  V30 10345 O 960.255 5.46445 0.0774075 0
M  V30 10346 H 957.349 0.825649 0.0472495 0
M  V30 10347 H 959.895 1.56512 -0.655893 0
M  V30 10348 H 958.667 3.72428 -1.20053 0
M  V30 10349 H 958.29 3.9444 0.500301 0
M  V30 10350 N 959.287 0.325282 1.54207 0
M  V30 10351 C 960.703 -0.0273036 1.59577 0
M  V30 10352 C 960.903 -1.50329 1.34177 0
M  V30 10353 O 959.959 -2.25951 1.12705 0
M  V30 10354 C 961.272 0.392468 2.98128 0
M  V30 10355 C 962.82 0.343269 3.11112 0
M  V30 10356 C 963.295 0.738229 4.52011 0
M  V30 10357 N 964.786 0.691701 4.58006 0
M  V30 10358 C 965.521 0.969479 5.65145 0
M  V30 10359 N 965.017 1.31448 6.80216 0
M  V30 10360 N 966.81 0.894926 5.5493 0
M  V30 10361 H 958.961 1.28692 1.68974 0
M  V30 10362 H 961.224 0.523399 0.790416 0
M  V30 10363 H 960.93 1.42089 3.2172 0
M  V30 10364 H 960.804 -0.241651 3.76425 0
M  V30 10365 H 963.191 -0.675946 2.87254 0
M  V30 10366 H 963.272 1.01235 2.34915 0
M  V30 10367 H 962.916 1.75537 4.76602 0
M  V30 10368 H 962.846 0.0468226 5.26579 0
M  V30 10369 H 965.337 0.436975 3.75365 0
M  V30 10370 H 965.65 1.51177 7.57869 0
M  V30 10371 H 963.995 1.35276 6.81708 0
M  V30 10372 H 967.186 0.624876 4.6391 0
M  V30 10373 H 967.359 1.11476 6.38339 0
M  V30 10374 N 960.765 -1.57509 0.0534917 0
M  V30 10375 C 962.014 -1.91959 -0.619244 0
M  V30 10376 C 962.327 -0.933882 -1.71866 0
M  V30 10377 O 963.533 -1.17052 -2.44972 0
M  V30 10378 C 961.989 -3.40938 -1.15278 0
M  V30 10379 C 961.597 -4.47919 -0.085348 0
M  V30 10380 C 963.341 -3.84419 -1.80063 0
M  V30 10381 C 961.248 -5.88014 -0.631897 0
M  V30 10382 H 960.178 -0.71642 -0.235072 0
M  V30 10383 H 962.829 -1.83089 0.122758 0
M  V30 10384 H 961.211 -3.44821 -1.94717 0
M  V30 10385 H 962.385 -4.55629 0.688374 0
M  V30 10386 H 960.7 -4.13793 0.465178 0
M  V30 10387 H 963.297 -4.86457 -2.21954 0
M  V30 10388 H 963.64 -3.20791 -2.65328 0
M  V30 10389 H 964.173 -3.83062 -1.07275 0
M  V30 10390 H 960.912 -6.55244 0.183175 0
M  V30 10391 H 960.432 -5.83861 -1.37355 0
M  V30 10392 H 962.111 -6.37336 -1.11407 0
M  V30 10393 N 962.243 0.219913 -1.56058 0
M  V30 10394 C 963.468 0.965073 -1.83579 0
M  V30 10395 C 963.893 1.77092 -0.634024 0
M  V30 10396 O 963.251 1.76434 0.417205 0
M  V30 10397 C 963.299 1.85705 -3.09105 0
M  V30 10398 O 962.403 2.95261 -2.87914 0
M  V30 10399 H 961.744 0.273173 -0.605204 0
M  V30 10400 H 964.274 0.23273 -2.03272 0
M  V30 10401 H 964.284 2.26655 -3.39252 0
M  V30 10402 H 962.959 1.26476 -3.96203 0
M  V30 10403 H 961.536 2.58246 -2.69005 0
M  V30 10404 N 963.721 1.49897 0.486681 0
M  V30 10405 C 964.949 1.63837 1.26353 0
M  V30 10406 C 965.364 0.315428 1.86146 0
M  V30 10407 O 964.721 -0.700831 1.68507 0
M  V30 10408 C 964.772 2.71792 2.38351 0
M  V30 10409 O 964.493 3.98956 1.81013 0
M  V30 10410 C 965.994 2.96566 3.2949 0
M  V30 10411 H 963.214 0.551158 0.382709 0
M  V30 10412 H 965.758 1.96023 0.582694 0
M  V30 10413 H 963.913 2.42344 3.02238 0
M  V30 10414 H 964.327 4.58536 2.54647 0
M  V30 10415 H 965.801 3.75803 4.04322 0
M  V30 10416 H 966.278 2.07031 3.87343 0
M  V30 10417 H 966.884 3.27485 2.71355 0
M  V30 10418 N 965.199 -0.738761 1.39212 0
M  V30 10419 C 966.427 -1.52801 1.39497 0
M  V30 10420 C 966.842 -1.88797 -0.0114917 0
M  V30 10421 O 966.199 -1.53835 -0.981887 0
M  V30 10422 C 966.25 -2.81793 2.2644 0
M  V30 10423 O 965.971 -2.47328 3.61608 0
M  V30 10424 C 967.472 -3.75844 2.35067 0
M  V30 10425 H 964.692 -0.472322 0.476606 0
M  V30 10426 H 967.236 -0.913153 1.8298 0
M  V30 10427 H 965.391 -3.3962 1.8638 0
M  V30 10428 H 965.805 -3.30162 4.07545 0
M  V30 10429 H 967.279 -4.6326 3.00157 0
M  V30 10430 H 967.756 -4.17329 1.3687 0
M  V30 10431 H 968.362 -3.23937 2.75581 0
M  V30 10432 N 966.677 -1.24326 -0.968545 0
M  V30 10433 C 967.924 -1.08245 -1.71141 0
M  V30 10434 C 968.252 0.378842 -1.90775 0
M  V30 10435 O 967.507 1.29634 -1.46607 0
M  V30 10436 C 967.806 -1.76644 -3.10695 0
M  V30 10437 C 967.472 -3.26572 -3.10905 0
M  V30 10438 C 966.134 -3.67475 -3.10669 0
M  V30 10439 C 968.486 -4.22422 -3.05302 0
M  V30 10440 C 965.814 -5.02666 -3.02562 0
M  V30 10441 C 968.166 -5.57619 -2.98737 0
M  V30 10442 C 966.83 -5.9787 -2.9683 0
M  V30 10443 H 966.1 -0.396098 -0.626249 0
M  V30 10444 H 968.747 -1.54418 -1.13258 0
M  V30 10445 H 967.052 -1.22864 -3.72037 0
M  V30 10446 H 968.749 -1.61668 -3.66967 0
M  V30 10447 H 965.339 -2.94017 -3.11852 0
M  V30 10448 H 969.523 -3.91821 -3.04614 0
M  V30 10449 H 964.779 -5.3305 -2.99446 0
M  V30 10450 H 968.953 -6.31595 -2.93361 0
M  V30 10451 H 966.58 -7.02587 -2.90303 0
M  V30 10452 N 968.156 1.1691 -1.05688 0
M  V30 10453 C 969.572 1.39288 -0.779167 0
M  V30 10454 C 969.772 1.91587 0.624231 0
M  V30 10455 O 968.828 2.11072 1.38582 0
M  V30 10456 C 970.141 2.37914 -1.83895 0
M  V30 10457 C 971.689 2.51611 -1.86175 0
M  V30 10458 C 972.164 3.53514 -2.9119 0
M  V30 10459 N 973.655 3.61036 -2.90184 0
M  V30 10460 C 974.39 4.39657 -3.68088 0
M  V30 10461 N 973.886 5.21752 -4.55793 0
M  V30 10462 N 975.679 4.3458 -3.56507 0
M  V30 10463 H 967.83 0.81296 -1.96226 0
M  V30 10464 H 970.093 0.419818 -0.849975 0
M  V30 10465 H 969.799 2.06568 -2.84645 0
M  V30 10466 H 969.673 3.37483 -1.68479 0
M  V30 10467 H 972.06 2.82264 -0.86087 0
M  V30 10468 H 972.141 1.52099 -2.05668 0
M  V30 10469 H 971.785 3.23599 -3.91467 0
M  V30 10470 H 971.715 4.52742 -2.68947 0
M  V30 10471 H 974.206 3.02428 -2.26596 0
M  V30 10472 H 974.519 5.78939 -5.11907 0
M  V30 10473 H 972.864 5.21116 -4.59851 0
M  V30 10474 H 976.055 3.69501 -2.87379 0
M  V30 10475 H 976.228 4.95607 -4.17466 0
M  V30 10476 N 969.634 0.838594 1.33437 0
M  V30 10477 C 970.564 0.286672 2.31734 0
M  V30 10478 C 971.545 -0.605451 1.5896 0
M  V30 10479 O 972.73 -0.529059 1.86854 0
M  V30 10480 C 969.86 -0.539311 3.43087 0
M  V30 10481 C 968.814 0.256997 4.27228 0
M  V30 10482 C 968.14 -0.692718 5.30194 0
M  V30 10483 C 969.44 1.47391 5.01072 0
M  V30 10484 H 971.134 1.10798 2.78144 0
M  V30 10485 H 968.68 0.534235 1.33723 0
M  V30 10486 H 970.633 -0.935724 4.1088 0
M  V30 10487 H 969.357 -1.39383 2.95364 0
M  V30 10488 H 968.016 0.634967 3.61059 0
M  V30 10489 H 967.664 -1.54363 4.78729 0
M  V30 10490 H 967.364 -0.164023 5.87371 0
M  V30 10491 H 968.888 -1.08665 6.00853 0
M  V30 10492 H 970.302 1.15067 5.61634 0
M  V30 10493 H 968.699 1.93937 5.67898 0
M  V30 10494 H 969.769 2.24382 4.29861 0
M  V30 10495 N 971.112 -1.45937 0.595003 0
M  V30 10496 C 972.34 -2.06698 0.091293 0
M  V30 10497 C 972.755 -1.44176 -1.21897 0
M  V30 10498 O 972.112 -0.551402 -1.73971 0
M  V30 10499 C 972.163 -3.61436 -0.0681801 0
M  V30 10500 O 971.884 -4.21622 1.19023 0
M  V30 10501 C 973.385 -4.39155 -0.604814 0
M  V30 10502 H 970.605 -0.668029 0.0630737 0
M  V30 10503 H 973.149 -1.87376 0.819165 0
M  V30 10504 H 971.304 -3.80143 -0.746324 0
M  V30 10505 H 971.718 -5.14647 1.01187 0
M  V30 10506 H 973.192 -5.47973 -0.665532 0
M  V30 10507 H 973.669 -4.08055 -1.62444 0
M  V30 10508 H 974.275 -4.25282 0.0388658 0
M  V30 10509 N 972.59 -0.333456 -1.54032 0
M  V30 10510 C 973.818 0.267813 -2.05159 0
M  V30 10511 C 974.233 1.4501 -1.20903 0
M  V30 10512 O 973.59 1.80888 -0.241994 0
M  V30 10513 C 973.641 0.69268 -3.54802 0
M  V30 10514 O 973.362 -0.442579 -4.35859 0
M  V30 10515 C 974.863 1.35572 -4.2206 0
M  V30 10516 H 972.083 0.0534924 -0.668864 0
M  V30 10517 H 974.627 -0.482515 -1.98726 0
M  V30 10518 H 972.782 1.39297 -3.6149 0
M  V30 10519 H 973.196 -0.105915 -5.24393 0
M  V30 10520 H 974.67 1.60385 -5.28186 0
M  V30 10521 H 975.147 2.30614 -3.73783 0
M  V30 10522 H 975.753 0.697748 -4.19537 0
M  V30 10523 N 974.068 1.57479 -0.061844 0
M  V30 10524 C 974.998 2.15181 0.9066 0
M  V30 10525 C 975.979 1.07624 1.31724 0
M  V30 10526 O 977.164 1.35614 1.39006 0
M  V30 10527 C 974.294 2.70542 2.17771 0
M  V30 10528 C 973.248 3.83178 1.9068 0
M  V30 10529 C 972.574 4.25099 3.24337 0
M  V30 10530 C 973.874 5.07853 1.21994 0
M  V30 10531 H 975.568 2.96355 0.42594 0
M  V30 10532 H 973.114 1.42556 0.203435 0
M  V30 10533 H 975.067 3.09552 2.85929 0
M  V30 10534 H 973.791 1.86575 2.68062 0
M  V30 10535 H 972.45 3.44656 1.24931 0
M  V30 10536 H 972.098 3.38069 3.72449 0
M  V30 10537 H 971.798 5.01021 3.07005 0
M  V30 10538 H 973.322 4.66718 3.93709 0
M  V30 10539 H 974.736 5.44242 1.80204 0
M  V30 10540 H 973.133 5.88987 1.14954 0
M  V30 10541 H 974.203 4.84497 0.197536 0
M  V30 10542 N 975.546 -0.211634 1.56173 0
M  V30 10543 C 976.476 -1.26533 1.96244 0
M  V30 10544 C 977.457 -1.48362 0.832028 0
M  V30 10545 O 978.642 -1.60378 1.0951 0
M  V30 10546 C 975.772 -2.61307 2.2877 0
M  V30 10547 C 974.726 -2.54119 3.44395 0
M  V30 10548 C 974.052 -3.93014 3.62552 0
M  V30 10549 C 975.352 -2.08046 4.79076 0
M  V30 10550 H 977.046 -0.932407 2.84511 0
M  V30 10551 H 974.592 -0.447084 1.36884 0
M  V30 10552 H 976.545 -3.35188 2.55396 0
M  V30 10553 H 975.269 -2.96307 1.37367 0
M  V30 10554 H 973.928 -1.82694 3.17834 0
M  V30 10555 H 973.576 -4.25338 2.68508 0
M  V30 10556 H 973.276 -3.89083 4.40327 0
M  V30 10557 H 974.8 -4.68542 3.91537 0
M  V30 10558 H 976.214 -2.71676 5.04842 0
M  V30 10559 H 974.611 -2.15154 5.60204 0
M  V30 10560 H 975.681 -1.03306 4.73768 0
M  V30 10561 N 977.024 -1.50153 -0.478725 0
M  V30 10562 C 977.957 -1.63089 -1.59616 0
M  V30 10563 C 978.935 -0.479211 -1.55378 0
M  V30 10564 O 980.119 -0.697715 -1.75112 0
M  V30 10565 C 977.246 -1.60643 -2.9818 0
M  V30 10566 C 976.292 -2.81279 -3.206 0
M  V30 10567 S 977.125 -4.42681 -3.0132 0
M  V30 10568 C 978.281 -4.42915 -4.42241 0
M  V30 10569 H 978.514 -2.57612 -1.48402 0
M  V30 10570 H 976.047 -1.39321 -0.665513 0
M  V30 10571 H 978.005 -1.59917 -3.7807 0
M  V30 10572 H 976.666 -0.673684 -3.0679 0
M  V30 10573 H 975.859 -2.7585 -4.21809 0
M  V30 10574 H 975.461 -2.79533 -2.4847 0
M  V30 10575 H 977.753 -4.16007 -5.34737 0
M  V30 10576 H 978.696 -5.44477 -4.52715 0
M  V30 10577 H 979.104 -3.72715 -4.23962 0
M  V30 10578 N 978.502 0.731368 -1.39602 0
M  V30 10579 C 979.727 1.52567 -1.40492 0
M  V30 10580 C 980.152 1.881 -0.00228828 0
M  V30 10581 O 979.51 1.52167 0.985643 0
M  V30 10582 C 979.558 2.78749 -2.2876 0
M  V30 10583 O 978.662 3.7482 -1.71999 0
M  V30 10584 H 978.003 0.460601 -0.478271 0
M  V30 10585 H 980.533 0.902042 -1.83642 0
M  V30 10586 H 980.543 3.27446 -2.43399 0
M  V30 10587 H 979.218 2.5222 -3.30693 0
M  V30 10588 H 977.795 3.33604 -1.66622 0
M  V30 10589 N 979.98 1.24838 0.961938 0
M  V30 10590 C 981.228 1.08936 1.70227 0
M  V30 10591 C 981.549 -0.371582 1.91427 0
M  V30 10592 O 980.819 -1.26461 1.49614 0
M  V30 10593 H 979.399 0.400128 0.630799 0
M  V30 10594 H 982.061 1.56848 1.15692 0
M  V30 10595 H 981.157 1.59195 2.68446 0
M  V30 10596 N 981.458 -1.16348 1.06306 0
M  V30 10597 C 982.698 -1.88556 0.789055 0
M  V30 10598 C 983.062 -1.79849 -0.672179 0
M  V30 10599 O 984.263 -2.46984 -1.06078 0
M  V30 10600 C 982.534 -3.34069 1.27016 0
M  V30 10601 S 984.093 -4.24128 1.12522 0
M  V30 10602 H 980.911 -0.65084 0.286232 0
M  V30 10603 H 983.513 -1.40443 1.36 0
M  V30 10604 H 982.217 -3.37944 2.32856 0
M  V30 10605 H 981.748 -3.87231 0.693963 0
M  V30 10606 H 983.763 -4.96168 0.0562142 0
M  V30 10607 N 982.937 -0.845659 -1.3299 0
M  V30 10608 C 984.162 -0.457435 -2.02293 0
M  V30 10609 C 984.587 0.935634 -1.63179 0
M  V30 10610 O 983.945 1.61297 -0.827835 0
M  V30 10611 C 983.993 -0.593665 -3.5568 0
M  V30 10612 O 983.097 0.37729 -4.10671 0
M  V30 10613 H 982.438 -0.185022 -0.637701 0
M  V30 10614 H 984.968 -1.14237 -1.69738 0
M  V30 10615 H 984.978 -0.477834 -4.05192 0
M  V30 10616 H 983.653 -1.60957 -3.83491 0
M  V30 10617 H 982.23 0.218448 -3.7226 0
M  V30 10618 N 984.415 1.45619 -0.602734 0
M  V30 10619 C 985.64 2.07157 -0.100429 0
M  V30 10620 C 986.065 1.44524 1.20393 0
M  V30 10621 O 985.423 0.536191 1.7319 0
M  V30 10622 C 985.471 3.60587 0.0308604 0
M  V30 10623 O 984.575 3.97944 1.08234 0
M  V30 10624 H 983.916 0.6601 -0.0718643 0
M  V30 10625 H 986.446 1.86948 -0.831366 0
M  V30 10626 H 986.456 4.07348 0.230634 0
M  V30 10627 H 985.131 4.05561 -0.921581 0
M  V30 10628 H 983.708 3.62862 0.859414 0
M  V30 10629 N 985.893 0.34162 1.53853 0
M  V30 10630 C 986.803 -0.524555 2.2866 0
M  V30 10631 C 987.819 -1.1136 1.33697 0
M  V30 10632 O 988.995 -1.1297 1.66732 0
M  V30 10633 C 986.06 -1.66065 3.04341 0
M  V30 10634 C 985.121 -1.10158 4.14926 0
M  V30 10635 C 984.354 -2.18353 4.86988 0
M  V30 10636 O 984.577 -3.39038 4.58704 0
M  V30 10637 O 983.511 -1.82756 5.73484 0
M  V30 10638 H 987.337 0.0835014 3.03585 0
M  V30 10639 H 984.922 0.106727 1.49018 0
M  V30 10640 H 986.804 -2.3217 3.51674 0
M  V30 10641 H 985.479 -2.25456 2.32275 0
M  V30 10642 H 984.386 -0.405109 3.719 0
M  V30 10643 H 985.719 -0.552567 4.89088 0
M  V30 10644 N 987.371 -1.57444 0.0701946 0
M  V30 10645 C 988.301 -2.15659 -0.895176 0
M  V30 10646 C 989.282 -1.08321 -1.31151 0
M  V30 10647 O 990.467 -1.36349 -1.38284 0
M  V30 10648 C 987.597 -2.71693 -2.16334 0
M  V30 10649 C 986.551 -3.84183 -1.88645 0
M  V30 10650 C 985.877 -4.26814 -3.22078 0
M  V30 10651 C 987.177 -5.08493 -1.19299 0
M  V30 10652 H 988.871 -2.96576 -0.410217 0
M  V30 10653 H 986.417 -1.42662 -0.195872 0
M  V30 10654 H 988.37 -3.11064 -2.84284 0
M  V30 10655 H 987.094 -1.87994 -2.67069 0
M  V30 10656 H 985.753 -3.45314 -1.23101 0
M  V30 10657 H 985.401 -3.40039 -3.70651 0
M  V30 10658 H 985.101 -5.02642 -3.04344 0
M  V30 10659 H 986.625 -4.68799 -3.91228 0
M  V30 10660 H 988.039 -5.4519 -1.77316 0
M  V30 10661 H 986.436 -5.89588 -1.11828 0
M  V30 10662 H 987.506 -4.84595 -0.171839 0
M  V30 10663 N 988.849 0.203349 -1.56283 0
M  V30 10664 C 989.796 1.25205 -1.93888 0
M  V30 10665 C 990.766 1.45654 -0.798376 0
M  V30 10666 O 991.951 1.58924 -1.05583 0
M  V30 10667 C 989.091 2.59355 -2.27659 0
M  V30 10668 C 988.204 2.46553 -3.54733 0
M  V30 10669 C 987.339 3.73351 -3.77865 0
M  V30 10670 C 986.378 3.55347 -4.98392 0
M  V30 10671 N 985.515 4.74137 -5.17821 0
M  V30 10672 H 990.355 0.924356 -2.83301 0
M  V30 10673 H 987.892 0.445082 -1.40205 0
M  V30 10674 H 989.85 3.375 -2.45254 0
M  V30 10675 H 988.48 2.90184 -1.41396 0
M  V30 10676 H 987.532 1.59749 -3.45231 0
M  V30 10677 H 988.844 2.2918 -4.43033 0
M  V30 10678 H 987.998 4.59937 -3.95655 0
M  V30 10679 H 986.737 3.9367 -2.8788 0
M  V30 10680 H 985.742 2.67146 -4.80534 0
M  V30 10681 H 986.967 3.36482 -5.89879 0
M  V30 10682 H 984.913 4.94735 -4.30782 0
M  V30 10683 H 984.83 4.59558 -6.00285 0
M  V30 10684 H 986.098 5.62098 -5.40061 0
M  V30 10685 N 990.327 1.50405 0.470755 0
M  V30 10686 C 991.275 1.6982 1.58946 0
M  V30 10687 C 992.269 0.56407 1.59733 0
M  V30 10688 O 993.475 0.744576 1.63878 0
M  V30 10689 H 989.85 0.536016 0.527438 0
M  V30 10690 H 991.821 2.63662 1.39732 0
M  V30 10691 C 990.57 1.80986 2.96883 0
M  V30 10692 H 989.893 2.67645 2.96996 0
M  V30 10693 H 991.333 1.98596 3.74614 0
M  V30 10694 C 989.792 0.561551 3.32187 0
M  V30 10695 O 990.322 -0.299136 4.00585 0
M  V30 10696 N 988.528 0.415476 2.87615 0
M  V30 10697 H 988.075 1.11691 2.32127 0
M  V30 10698 H 988.033 -0.418592 3.11601 0
M  V30 10699 N 991.805 -0.723954 1.39988 0
M  V30 10700 C 993.221 -1.03095 1.21834 0
M  V30 10701 C 993.421 -2.01309 0.0876647 0
M  V30 10702 O 992.477 -2.46277 -0.55714 0
M  V30 10703 C 993.79 -1.58267 2.5568 0
M  V30 10704 C 995.338 -1.70293 2.6262 0
M  V30 10705 C 995.813 -2.28872 3.96713 0
M  V30 10706 N 997.304 -2.36269 3.98411 0
M  V30 10707 C 998.039 -2.82557 4.98948 0
M  V30 10708 N 997.535 -3.28661 6.0988 0
M  V30 10709 N 999.328 -2.81866 4.86321 0
M  V30 10710 H 991.479 -0.0727891 2.12275 0
M  V30 10711 H 993.742 -0.0949029 0.943238 0
M  V30 10712 H 993.448 -0.935642 3.39026 0
M  V30 10713 H 993.322 -2.56914 2.76179 0
M  V30 10714 H 995.709 -2.34115 1.7965 0
M  V30 10715 H 995.79 -0.70268 2.45959 0
M  V30 10716 H 995.434 -1.65675 4.80119 0
M  V30 10717 H 995.364 -3.29595 4.107 0
M  V30 10718 H 997.855 -2.03697 3.18302 0
M  V30 10719 H 998.168 -3.62524 6.82493 0
M  V30 10720 H 996.513 -3.26641 6.13458 0
M  V30 10721 H 999.704 -2.45179 3.98754 0
M  V30 10722 H 999.877 -3.17626 5.64817 0
M  V30 10723 N 993.283 -1.25346 -0.955304 0
M  V30 10724 C 994.216 -0.999933 -2.05126 0
M  V30 10725 C 995.194 0.070585 -1.62447 0
M  V30 10726 O 996.378 -0.0689306 -1.88374 0
M  V30 10727 C 993.505 -0.511425 -3.34817 0
M  V30 10728 C 992.551 -1.57237 -3.96458 0
M  V30 10729 S 993.384 -3.15736 -4.32517 0
M  V30 10730 C 994.54 -2.68619 -5.65327 0
M  V30 10731 H 994.773 -1.92791 -2.26316 0
M  V30 10732 H 992.306 -1.08869 -1.09485 0
M  V30 10733 H 994.264 -0.236219 -4.0982 0
M  V30 10734 H 992.925 0.39604 -3.11593 0
M  V30 10735 H 992.118 -1.18125 -4.89962 0
M  V30 10736 H 991.72 -1.79822 -3.27933 0
M  V30 10737 H 994.012 -2.12203 -6.4341 0
M  V30 10738 H 994.955 -3.6076 -6.09309 0
M  V30 10739 H 995.363 -2.08638 -5.24529 0
M  V30 10740 N 994.761 1.15782 -1.06922 0
M  V30 10741 C 995.671 2.24008 -0.696948 0
M  V30 10742 C 996.687 1.71569 0.289862 0
M  V30 10743 O 997.863 2.00929 0.137585 0
M  V30 10744 C 994.928 3.46568 -0.0957895 0
M  V30 10745 C 993.989 4.14017 -1.13528 0
M  V30 10746 C 993.222 5.30725 -0.562713 0
M  V30 10747 O 993.445 5.66992 0.62259 0
M  V30 10748 O 992.379 5.87572 -1.30549 0
M  V30 10749 H 996.205 2.58174 -1.59938 0
M  V30 10750 H 993.79 1.2342 -0.841889 0
M  V30 10751 H 995.672 4.20731 0.237407 0
M  V30 10752 H 994.347 3.14161 0.780027 0
M  V30 10753 H 993.254 3.41795 -1.52076 0
M  V30 10754 H 994.587 4.50493 -1.98285 0
M  V30 10755 N 996.239 0.8527 1.3254 0
M  V30 10756 C 997.469 0.468363 2.01221 0
M  V30 10757 C 997.877 -0.938966 1.64256 0
M  V30 10758 O 997.22 -1.62387 0.858837 0
M  V30 10759 C 997.282 0.525457 3.55639 0
M  V30 10760 C 996.946 1.89133 4.16026 0
M  V30 10761 C 997.943 2.85652 4.34395 0
M  V30 10762 C 995.628 2.18795 4.52144 0
M  V30 10763 C 997.622 4.09985 4.88048 0
M  V30 10764 C 995.309 3.43381 5.05502 0
M  V30 10765 C 996.307 4.38792 5.23403 0
M  V30 10766 O 995.995 5.61173 5.75622 0
M  V30 10767 H 995.727 0.182712 0.65084 0
M  V30 10768 H 998.281 1.15076 1.70138 0
M  V30 10769 H 996.511 -0.213779 3.86109 0
M  V30 10770 H 998.2 0.156999 4.05596 0
M  V30 10771 H 998.966 2.6404 4.06827 0
M  V30 10772 H 994.845 1.45317 4.37498 0
M  V30 10773 H 998.389 4.84465 5.01936 0
M  V30 10774 H 994.286 3.64844 5.32503 0
M  V30 10775 H 995.054 5.63104 5.94017 0
M  V30 10776 N 997.718 -1.45297 0.610449 0
M  V30 10777 C 998.681 -2.28995 -0.0968194 0
M  V30 10778 C 999.681 -1.39923 -0.792353 0
M  V30 10779 O 1000.87 -1.62014 -0.64008 0
M  V30 10780 C 998.003 -3.21013 -1.14731 0
M  V30 10781 H 999.196 -2.93012 0.639082 0
M  V30 10782 H 996.749 -1.51867 0.369624 0
M  V30 10783 H 997.484 -2.61803 -1.91388 0
M  V30 10784 H 997.269 -3.86628 -0.652753 0
M  V30 10785 H 998.759 -3.8394 -1.64256 0
M  V30 10786 N 999.196 -0.349774 -1.5367 0
M  V30 10787 C 1000.13 0.496338 -2.28164 0
M  V30 10788 C 1001.11 1.09737 -1.29968 0
M  V30 10789 O 1002.29 1.11759 -1.58819 0
M  V30 10790 C 999.422 1.64428 -3.0591 0
M  V30 10791 C 998.376 1.17127 -4.11661 0
M  V30 10792 C 997.702 2.40822 -4.77398 0
M  V30 10793 C 999.002 0.267293 -5.21616 0
M  V30 10794 H 1000.7 -0.125117 -2.99138 0
M  V30 10795 H 998.242 -0.0616152 -1.43868 0
M  V30 10796 H 1000.19 2.2427 -3.56765 0
M  V30 10797 H 998.919 2.29272 -2.32598 0
M  V30 10798 H 997.578 0.595634 -3.61729 0
M  V30 10799 H 997.226 3.04088 -4.00674 0
M  V30 10800 H 996.926 2.09852 -5.48849 0
M  V30 10801 H 998.45 3.01378 -5.3104 0
M  V30 10802 H 999.864 0.772734 -5.68068 0
M  V30 10803 H 998.261 0.0491991 -6.0008 0
M  V30 10804 H 999.331 -0.694892 -4.79895 0
M  V30 10805 N 1000.67 1.57404 -0.0785433 0
M  V30 10806 C 1001.62 2.14316 0.903949 0
M  V30 10807 C 1002.62 1.08176 1.30362 0
M  V30 10808 O 1003.82 1.26546 1.28008 0
M  V30 10809 H 1000.2 0.685367 0.309477 0
M  V30 10810 H 1002.17 2.95719 0.399081 0
M  V30 10811 C 1000.92 2.72504 2.15956 0
M  V30 10812 H 1000.24 3.53853 1.86087 0
M  V30 10813 H 1001.68 3.15914 2.82798 0
M  V30 10814 C 1000.14 1.6759 2.92259 0
M  V30 10815 O 1000.67 1.10492 3.86205 0
M  V30 10816 N 998.875 1.38467 2.5549 0
M  V30 10817 H 998.422 1.85088 1.79166 0
M  V30 10818 H 998.38 0.685053 3.06846 0
M  V30 10819 N 1002.15 -0.195058 1.56388 0
M  V30 10820 C 1003.08 -1.26978 1.8961 0
M  V30 10821 C 1004.06 -1.43946 0.756199 0
M  V30 10822 O 1005.25 -1.59335 1.0072 0
M  V30 10823 C 1002.37 -2.63638 2.12632 0
M  V30 10824 C 1001.42 -2.6354 3.35334 0
M  V30 10825 S 1002.25 -2.1497 4.90457 0
M  V30 10826 C 1003.41 -3.53454 5.16547 0
M  V30 10827 H 1003.64 -0.986091 2.8047 0
M  V30 10828 H 1001.17 -0.398552 1.49167 0
M  V30 10829 H 1003.13 -3.42304 2.26579 0
M  V30 10830 H 1001.79 -2.89218 1.22522 0
M  V30 10831 H 1000.99 -3.64027 3.48569 0
M  V30 10832 H 1000.59 -1.92956 3.20381 0
M  V30 10833 H 1002.88 -4.49318 5.0707 0
M  V30 10834 H 1003.82 -3.45113 6.18306 0
M  V30 10835 H 1004.23 -3.48368 4.44185 0
M  V30 10836 N 1003.63 -1.50653 -0.462772 0
M  V30 10837 C 1004.56 -1.73056 -1.5676 0
M  V30 10838 C 1005.54 -0.579699 -1.59917 0
M  V30 10839 O 1006.73 -0.819729 -1.76051 0
M  V30 10840 C 1003.86 -1.83234 -2.9503 0
M  V30 10841 C 1002.81 -2.98488 -3.06739 0
M  V30 10842 C 1002.14 -2.93818 -4.46738 0
M  V30 10843 C 1003.44 -4.38869 -2.83181 0
M  V30 10844 H 1005.13 -2.65562 -1.38265 0
M  V30 10845 H 1002.68 -1.27792 -0.663722 0
M  V30 10846 H 1004.63 -1.97491 -3.72257 0
M  V30 10847 H 1003.35 -0.873558 -3.14701 0
M  V30 10848 H 1002.01 -2.83895 -2.31946 0
M  V30 10849 H 1001.66 -1.95769 -4.63339 0
M  V30 10850 H 1001.36 -3.71197 -4.55507 0
M  V30 10851 H 1002.88 -3.10135 -5.25974 0
M  V30 10852 H 1004.3 -4.53945 -3.50153 0
M  V30 10853 H 1002.69 -5.17762 -3.03386 0
M  V30 10854 H 1003.76 -4.50663 -1.78972 0
M  V30 10855 N 1005.11 0.71652 -1.4037 0
M  V30 10856 C 1006.04 1.84345 -1.43315 0
M  V30 10857 C 1007.02 1.67537 -0.294186 0
M  V30 10858 O 1008.2 1.87582 -0.502671 0
M  V30 10859 C 1005.33 3.2229 -1.29408 0
M  V30 10860 C 1004.29 3.53769 -2.40897 0
M  V30 10861 C 1003.61 4.90847 -2.12068 0
M  V30 10862 C 1004.91 3.54862 -3.83237 0
M  V30 10863 H 1006.61 1.82138 -2.37626 0
M  V30 10864 H 1004.15 0.874873 -1.14376 0
M  V30 10865 H 1006.11 4.00819 -1.30085 0
M  V30 10866 H 1004.83 3.2507 -0.31573 0
M  V30 10867 H 1003.49 2.77579 -2.39469 0
M  V30 10868 H 1003.14 4.90229 -1.12626 0
M  V30 10869 H 1002.84 5.12875 -2.86762 0
M  V30 10870 H 1004.36 5.71711 -2.14426 0
M  V30 10871 H 1005.78 4.23432 -3.86494 0
M  V30 10872 H 1004.17 3.88416 -4.57442 0
M  V30 10873 H 1005.24 2.54266 -4.12888 0
M  V30 10874 N 1006.59 1.25851 0.948643 0
M  V30 10875 C 1007.52 1.02549 2.04979 0
M  V30 10876 C 1008.53 -0.0115923 1.62796 0
M  V30 10877 O 1009.72 0.227643 1.77042 0
M  V30 10878 C 1006.82 0.529486 3.34738 0
M  V30 10879 C 1005.99 1.6341 4.05729 0
M  V30 10880 C 1005.05 1.13743 5.1376 0
M  V30 10881 O 1004.08 1.83303 5.38877 0
M  V30 10882 N 1005.28 -0.0181151 5.80497 0
M  V30 10883 H 1008.05 1.97365 2.25537 0
M  V30 10884 H 1005.61 1.17137 1.11761 0
M  V30 10885 H 1007.6 0.181566 4.04293 0
M  V30 10886 H 1006.17 -0.324893 3.10907 0
M  V30 10887 H 1005.39 2.15331 3.30191 0
M  V30 10888 H 1006.68 2.37603 4.49914 0
M  V30 10889 H 1006.07 -0.599198 5.62518 0
M  V30 10890 H 1004.63 -0.307019 6.51077 0
M  V30 10891 N 1008.06 -1.15214 1.07534 0
M  V30 10892 C 1009.48 -1.38031 0.801228 0
M  V30 10893 C 1009.68 -1.92556 -0.593672 0
M  V30 10894 O 1008.74 -2.1325 -1.35206 0
M  V30 10895 C 1010.05 -2.34958 1.87657 0
M  V30 10896 C 1011.6 -2.48617 1.90154 0
M  V30 10897 C 1012.07 -3.48837 2.96777 0
M  V30 10898 N 1013.56 -3.56374 2.95892 0
M  V30 10899 C 1014.3 -4.33746 3.75036 0
M  V30 10900 N 1013.79 -5.14435 4.64036 0
M  V30 10901 N 1015.59 -4.28853 3.63375 0
M  V30 10902 H 1007.74 -0.781639 1.97495 0
M  V30 10903 H 1010 -0.406243 0.856546 0
M  V30 10904 H 1009.71 -2.02013 2.87895 0
M  V30 10905 H 1009.58 -3.3476 1.73827 0
M  V30 10906 H 1011.97 -2.80859 0.905666 0
M  V30 10907 H 1012.05 -1.48808 2.08062 0
M  V30 10908 H 1011.69 -3.1733 3.96565 0
M  V30 10909 H 1011.62 -4.48406 2.76116 0
M  V30 10910 H 1014.11 -2.98784 2.31379 0
M  V30 10911 H 1014.43 -5.70722 5.21053 0
M  V30 10912 H 1012.77 -5.13734 4.68084 0
M  V30 10913 H 1015.96 -3.64882 2.93221 0
M  V30 10914 H 1016.14 -4.88903 4.25298 0
M  V30 10915 N 1009.54 -0.859717 -1.32086 0
M  V30 10916 C 1010.78 -0.471939 -1.98877 0
M  V30 10917 C 1011.15 0.955689 -1.66525 0
M  V30 10918 O 1012.35 1.44829 -2.26447 0
M  V30 10919 C 1010.62 -0.710016 -3.50276 0
M  V30 10920 S 1012.18 -0.420566 -4.3678 0
M  V30 10921 H 1009 -0.176588 -0.688722 0
M  V30 10922 H 1011.6 -1.11352 -1.60689 0
M  V30 10923 H 1010.3 -1.74803 -3.71311 0
M  V30 10924 H 1009.83 -0.0550429 -3.93361 0
M  V30 10925 H 1011.85 0.751362 -4.90478 0
M  V30 10926 N 1011.02 1.44971 -0.618145 0
M  V30 10927 C 1011.97 2.32354 0.106846 0
M  V30 10928 C 1012.96 1.4659 0.848984 0
M  V30 10929 O 1014.17 1.63012 0.763354 0
M  V30 10930 H 1010.54 0.750108 0.0533109 0
M  V30 10931 H 1012.51 2.9127 -0.648426 0
M  V30 10932 C 1011.26 3.30381 1.08368 0
M  V30 10933 H 1010.59 3.96377 0.52205 0
M  V30 10934 H 1012.03 3.94231 1.56069 0
M  V30 10935 C 1010.49 2.58336 2.1625 0
M  V30 10936 O 1011.02 2.37258 3.24148 0
M  V30 10937 N 1009.22 2.18292 1.91825 0
M  V30 10938 H 1008.77 2.35635 1.04086 0
M  V30 10939 H 1008.73 1.70413 2.6421 0
M  V30 10940 O 1012.54 0.500115 1.53561 0
M  V30 10941 H 1013.23 -0.0177336 1.93692 0
M  V30 END ATOM
M  V30 BEGIN BOND
M  V30 END BOND
M  V30 END CTAB
M  END
$$$$
