drugbank_target|Q9NYX4 Neuron-specific vesicular protein calcyon (DB00363; DB00831; DB05419; DB05432)
 OpenBabel12092119363D

  0  0  0     0  0            999 V3000
M  V30 BEGIN CTAB
M  V30 COUNTS 3271 3313 0 0 0
M  V30 BEGIN ATOM
M  V30 1 H -0.908 1.98254 -0.117106 0
M  V30 2 N 0 1.576 0 0
M  V30 3 C 0.933 2.03868 1.02534 0
M  V30 4 C 1.911 0.928543 1.3348 0
M  V30 5 O 3.095 1.19667 1.45644 0
M  V30 6 C 0.222 2.43627 2.35294 0
M  V30 7 C -0.732 3.65373 2.2001 0
M  V30 8 S 0.101 5.13292 1.52614 0
M  V30 9 C 1.257 5.56322 2.86805 0
M  V30 10 H 1.49 2.90518 0.631377 0
M  V30 11 H -0.977 1.52953 0.210867 0
M  V30 12 H 0.981 2.67203 3.11629 0
M  V30 13 H -0.358 1.57376 2.7183 0
M  V30 14 H -1.165 3.90944 3.18086 0
M  V30 15 H -1.563 3.418 1.51819 0
M  V30 16 H 0.729 5.58782 3.83104 0
M  V30 17 H 1.672 6.56266 2.65933 0
M  V30 18 H 2.08 4.83886 2.90714 0
M  V30 19 N 1.4781 -0.272755 1.55222 0
M  V30 20 C 2.7241 -1.00581 1.761 0
M  V30 21 C 3.0571 -1.85932 0.560625 0
M  V30 22 O 2.3321 -1.89416 -0.441801 0
M  V30 23 C 2.6151 -1.88816 3.06628 0
M  V30 24 C 2.4681 -1.06457 4.37021 0
M  V30 25 C 3.7871 -2.8752 3.33197 0
M  V30 26 H 0.9061 -0.364244 0.640699 0
M  V30 27 H 3.5481 -0.278189 1.87952 0
M  V30 28 H 1.6981 -2.50856 2.96654 0
M  V30 29 H 3.3701 -0.464863 4.58952 0
M  V30 30 H 1.6131 -0.368043 4.32236 0
M  V30 31 H 2.2841 -1.71514 5.24678 0
M  V30 32 H 4.7601 -2.35615 3.42965 0
M  V30 33 H 3.6361 -3.46399 4.25792 0
M  V30 34 H 3.8971 -3.62657 2.52849 0
M  V30 35 N 2.9562 -1.48159 -0.537278 0
M  V30 36 C 3.9032 -1.62138 -1.64256 0
M  V30 37 C 4.8732 -0.463668 -1.59497 0
M  V30 38 O 6.0582 -0.686241 -1.78032 0
M  V30 39 C 3.1982 -1.66028 -3.02537 0
M  V30 40 C 2.3112 -2.92855 -3.17585 0
M  V30 41 C 1.4462 -2.87952 -4.46382 0
M  V30 42 C 0.4852 -4.09516 -4.54932 0
M  V30 43 N -0.3778 -4.02733 -5.75109 0
M  V30 44 H 4.4622 -2.56529 -1.51647 0
M  V30 45 H 1.9992 -1.27224 -0.738414 0
M  V30 46 H 3.9572 -1.66265 -3.82638 0
M  V30 47 H 2.5872 -0.751331 -3.13934 0
M  V30 48 H 1.6392 -3.02395 -2.30784 0
M  V30 49 H 2.9512 -3.82822 -3.19764 0
M  V30 50 H 2.1052 -2.8655 -5.34765 0
M  V30 51 H 0.8442 -1.95702 -4.46712 0
M  V30 52 H -0.1508 -4.11201 -3.64957 0
M  V30 53 H 1.0742 -5.02917 -4.56346 0
M  V30 54 H -0.9798 -3.13299 -5.76351 0
M  V30 55 H -1.0628 -4.86397 -5.78752 0
M  V30 56 H 0.2052 -4.05379 -6.65799 0
M  V30 57 N 4.4343 0.785586 -1.36625 0
M  V30 58 C 5.3643 1.91259 -1.33949 0
M  V30 59 C 6.3453 1.68795 -0.210325 0
M  V30 60 O 7.5303 1.89854 -0.408561 0
M  V30 61 C 4.6603 3.28339 -1.13186 0
M  V30 62 C 3.6143 3.65335 -2.22967 0
M  V30 63 C 2.9403 5.00806 -1.87342 0
M  V30 64 C 4.2403 3.7352 -3.65075 0
M  V30 65 H 5.9343 1.93755 -2.28253 0
M  V30 66 H 3.4803 0.930788 -1.09874 0
M  V30 67 H 5.4333 4.06804 -1.09948 0
M  V30 68 H 4.1573 3.2624 -0.153332 0
M  V30 69 H 2.8163 2.89169 -2.25337 0
M  V30 70 H 2.4643 4.95233 -0.880545 0
M  V30 71 H 2.1643 5.26529 -2.60846 0
M  V30 72 H 3.6883 5.81687 -1.85667 0
M  V30 73 H 5.1023 4.42168 -3.64911 0
M  V30 74 H 3.4993 4.10731 -4.37516 0
M  V30 75 H 4.5693 2.74527 -3.99703 0
M  V30 76 N 5.9124 1.20967 1.01018 0
M  V30 77 C 7.1604 1.02172 1.74371 0
M  V30 78 C 7.4814 -0.446414 1.89821 0
M  V30 79 O 6.7514 -1.32234 1.44537 0
M  V30 80 H 5.3314 0.375066 0.646014 0
M  V30 81 H 7.9934 1.52187 1.21758 0
M  V30 82 H 7.0894 1.48538 2.74487 0
M  V30 83 N 7.3905 -1.2043 1.01659 0
M  V30 84 C 8.6305 -1.91507 0.714456 0
M  V30 85 C 8.9945 -1.77073 -0.742237 0
M  V30 86 O 10.1955 -2.42631 -1.15688 0
M  V30 87 C 8.4665 -3.38795 1.13809 0
M  V30 88 S 10.0255 -4.28216 0.957925 0
M  V30 89 H 6.8435 -0.661571 0.260471 0
M  V30 90 H 9.4455 -1.45671 1.30384 0
M  V30 91 H 8.1495 -3.46822 2.19415 0
M  V30 92 H 7.6805 -3.89656 0.541474 0
M  V30 93 H 9.6955 -4.96007 -0.138531 0
M  V30 94 N 8.8686 -0.792821 -1.36206 0
M  V30 95 C 10.0936 -0.377701 -2.03932 0
M  V30 96 C 10.5186 0.998947 -1.59382 0
M  V30 97 O 9.8766 1.64421 -0.763903 0
M  V30 98 C 9.9246 -0.453635 -3.57735 0
M  V30 99 O 9.0286 0.538151 -4.08874 0
M  V30 100 H 8.3696 -0.159855 -0.644471 0
M  V30 101 H 10.8996 -1.07488 -1.7409 0
M  V30 102 H 10.9096 -0.318464 -4.06755 0
M  V30 103 H 9.5846 -1.45784 -3.89512 0
M  V30 104 H 8.1616 0.364359 -3.71116 0
M  V30 105 N 10.3467 1.47872 -0.545128 0
M  V30 106 C 11.5937 2.02493 -0.0165858 0
M  V30 107 C 11.9217 1.42073 1.32836 0
M  V30 108 O 11.1767 0.561459 1.87473 0
M  V30 109 C 11.4757 3.57131 0.13867 0
M  V30 110 C 11.1417 4.36411 -1.13384 0
M  V30 111 C 9.8037 4.57792 -1.48256 0
M  V30 112 C 12.1557 4.82223 -1.97764 0
M  V30 113 C 9.4837 5.22233 -2.67376 0
M  V30 114 C 11.8357 5.47977 -3.16076 0
M  V30 115 C 10.4997 5.67593 -3.51275 0
M  V30 116 H 9.7697 0.740975 -0.00606918 0
M  V30 117 H 12.4167 1.77683 -0.714207 0
M  V30 118 H 10.7217 3.80865 0.919172 0
M  V30 119 H 12.4187 3.97031 0.562782 0
M  V30 120 H 9.0087 4.2004 -0.852297 0
M  V30 121 H 13.1927 4.65493 -1.72132 0
M  V30 122 H 8.4487 5.35616 -2.94831 0
M  V30 123 H 12.6227 5.8244 -3.81755 0
M  V30 124 H 10.2497 6.17298 -4.43675 0
M  V30 125 N 11.8248 0.280983 1.55075 0
M  V30 126 C 13.0498 -0.340154 2.04592 0
M  V30 127 C 13.4748 -1.48246 1.15779 0
M  V30 128 O 12.8328 -1.80614 0.15761 0
M  V30 129 C 12.8808 -0.793104 3.5177 0
M  V30 130 O 11.9848 -1.89981 3.66034 0
M  V30 131 H 11.3258 -0.0694289 0.66036 0
M  V30 132 H 13.8558 0.416993 2.00306 0
M  V30 133 H 13.8658 -1.08729 3.93245 0
M  V30 134 H 12.5408 0.0426163 4.15878 0
M  V30 135 H 11.1178 -1.60771 3.36463 0
M  V30 136 N 13.3029 -1.57598 0.00835791 0
M  V30 137 C 14.5509 -1.90551 -0.6734 0
M  V30 138 C 14.8719 -0.883301 -1.73847 0
M  V30 139 O 14.1419 0.0781442 -1.95744 0
M  V30 140 H 12.7219 -0.703312 -0.251717 0
M  V30 141 H 15.3839 -1.94833 0.0512592 0
M  V30 142 H 14.4799 -2.9056 -1.13935 0
M  V30 143 N 14.781 0.264519 -1.55364 0
M  V30 144 C 15.728 1.32717 -1.88825 0
M  V30 145 C 16.698 1.48675 -0.740605 0
M  V30 146 O 17.883 1.62945 -0.992657 0
M  V30 147 C 15.023 2.68089 -2.17307 0
M  V30 148 C 14.136 2.60284 -3.44785 0
M  V30 149 C 13.271 3.87892 -3.62924 0
M  V30 150 C 12.31 3.74631 -4.84064 0
M  V30 151 N 11.447 4.94092 -4.98816 0
M  V30 152 H 16.287 1.03481 -2.79456 0
M  V30 153 H 13.824 0.499757 -1.3835 0
M  V30 154 H 15.782 3.46864 -2.31821 0
M  V30 155 H 14.412 2.95509 -1.299 0
M  V30 156 H 13.464 1.73173 -3.38697 0
M  V30 157 H 14.776 2.46388 -4.33698 0
M  V30 158 H 13.93 4.75109 -3.77302 0
M  V30 159 H 12.669 4.04664 -2.7221 0
M  V30 160 H 11.674 2.85797 -4.69681 0
M  V30 161 H 12.899 3.5937 -5.76221 0
M  V30 162 H 10.845 5.11259 -4.11036 0
M  V30 163 H 10.762 4.8276 -5.81789 0
M  V30 164 H 12.03 5.82857 -5.17588 0
M  V30 165 N 16.2591 1.48442 0.529413 0
M  V30 166 C 17.6701 1.5002 1.11134 0
M  V30 167 C 18.0211 0.27031 1.94329 0
M  V30 168 O 17.1461 -0.622507 2.07253 0
M  V30 169 C 17.7411 2.71834 2.02217 0
M  V30 170 C 16.3001 2.76283 2.55627 0
M  V30 171 C 15.4471 2.43542 1.326 0
M  V30 172 H 18.3981 1.5555 0.314641 0
M  V30 173 H 18.4191 2.50384 2.8651 0
M  V30 174 H 17.9311 3.61331 1.41639 0
M  V30 175 H 16.0321 1.90995 3.19924 0
M  V30 176 H 16.1451 3.77725 2.94721 0
M  V30 177 H 14.5091 1.94709 1.64196 0
M  V30 178 H 15.2921 3.3528 0.737734 0
M  V30 179 N 17.7372 -0.778329 1.37039 0
M  V30 180 C 18.9852 -1.53361 1.31623 0
M  V30 181 C 19.3062 -1.94739 -0.100831 0
M  V30 182 O 18.5762 -1.65797 -1.04347 0
M  V30 183 H 17.1562 -0.568794 0.484234 0
M  V30 184 H 19.8182 -0.926742 1.71457 0
M  V30 185 H 18.9142 -2.43606 1.95096 0
M  V30 186 N 19.2153 -1.21501 -1.00376 0
M  V30 187 C 20.1623 -0.975387 -2.09177 0
M  V30 188 C 21.1323 0.0990615 -1.65804 0
M  V30 189 O 22.3173 -0.0483147 -1.90739 0
M  V30 190 C 19.4573 -0.547507 -3.40729 0
M  V30 191 C 18.5703 -1.69153 -3.97506 0
M  V30 192 C 17.7053 -1.2127 -5.17172 0
M  V30 193 C 16.7443 -2.32897 -5.66061 0
M  V30 194 N 15.8813 -1.86138 -6.76976 0
M  V30 195 H 20.7213 -1.9068 -2.29009 0
M  V30 196 H 18.2583 -0.950257 -1.12288 0
M  V30 197 H 20.2163 -0.280667 -4.16255 0
M  V30 198 H 18.8463 0.346904 -3.20931 0
M  V30 199 H 17.8983 -2.07298 -3.18954 0
M  V30 200 H 19.2103 -2.5316 -4.29781 0
M  V30 201 H 18.3643 -0.902591 -5.99948 0
M  V30 202 H 17.1033 -0.342692 -4.86495 0
M  V30 203 H 16.1083 -2.64709 -4.81881 0
M  V30 204 H 17.3333 -3.20396 -5.98768 0
M  V30 205 H 15.2793 -1.01484 -6.48103 0
M  V30 206 H 15.1963 -2.63717 -7.08512 0
M  V30 207 H 16.4643 -1.58165 -7.63285 0
M  V30 208 N 20.6934 1.19889 -1.02296 0
M  V30 209 C 21.9704 1.85148 -0.630832 0
M  V30 210 C 22.3504 1.91385 0.890782 0
M  V30 211 O 21.6984 1.42642 1.78509 0
M  V30 212 C 21.9084 3.24442 -1.28602 0
M  V30 213 C 23.2564 4.00663 -1.4055 0
M  V30 214 O 24.2804 3.33818 -1.24273 0
M  V30 215 O 23.1394 5.20387 -1.66913 0
M  V30 216 H 20.2334 0.797613 -0.218499 0
M  V30 217 H 22.7794 1.27427 -1.12074 0
M  V30 218 H 21.5514 3.14704 -2.32545 0
M  V30 219 H 21.1744 3.89802 -0.7836 0
M  V30 220 N 22.1715 0.800033 1.35784 0
M  V30 221 C 23.5825 0.439142 1.81462 0
M  V30 222 C 23.9335 -1.03813 1.66485 0
M  V30 223 O 23.0585 -1.80626 1.19177 0
M  V30 224 C 23.6535 0.790314 3.29453 0
M  V30 225 C 22.2125 0.482111 3.733 0
M  V30 226 C 21.3595 1.01938 2.57883 0
M  V30 227 H 24.3105 0.992254 1.23855 0
M  V30 228 H 24.3315 0.0853677 3.80404 0
M  V30 229 H 23.8435 1.86554 3.40322 0
M  V30 230 H 21.9445 -0.584652 3.67984 0
M  V30 231 H 22.0575 1.01015 4.6833 0
M  V30 232 H 20.4215 0.442043 2.50835 0
M  V30 233 H 21.2045 2.10059 2.71533 0
M  V30 234 N 23.6496 -1.47581 0.552962 0
M  V30 235 C 24.8976 -2.02082 0.0272703 0
M  V30 236 C 25.2186 -1.4301 -1.32563 0
M  V30 237 O 24.4886 -0.603745 -1.86365 0
M  V30 238 H 23.0686 -0.746966 0.00709182 0
M  V30 239 H 25.7306 -1.81033 0.722008 0
M  V30 240 H 24.8266 -3.12034 -0.0639951 0
M  V30 241 N 25.1277 -0.289203 -1.54924 0
M  V30 242 C 26.4047 0.376032 -1.91951 0
M  V30 243 C 26.7847 1.72622 -1.21511 0
M  V30 244 O 26.1327 2.25853 -0.346767 0
M  V30 245 C 26.3427 0.502378 -3.45365 0
M  V30 246 C 27.6907 0.778741 -4.17398 0
M  V30 247 O 28.7147 0.586647 -3.51336 0
M  V30 248 O 27.5737 1.14698 -5.34328 0
M  V30 249 H 24.6677 0.208167 -0.800372 0
M  V30 250 H 27.2137 -0.336394 -1.66332 0
M  V30 251 H 25.9857 -0.447255 -3.88736 0
M  V30 252 H 25.6087 1.26373 -3.76982 0
M  V30 253 N 26.6058 1.57591 -0.0167156 0
M  V30 254 C 27.5378 2.06343 0.997753 0
M  V30 255 C 28.5508 0.984469 1.29661 0
M  V30 256 O 29.7398 1.26093 1.26344 0
M  V30 257 C 26.8398 2.46255 2.32834 0
M  V30 258 C 26.0128 3.77083 2.21646 0
M  V30 259 C 25.0718 4.0368 3.37534 0
M  V30 260 O 24.0978 4.7411 3.14973 0
M  V30 261 N 25.2998 3.52881 4.60929 0
M  V30 262 H 28.0648 2.93997 0.581875 0
M  V30 263 H 25.6258 1.61002 0.170316 0
M  V30 264 H 27.6178 2.61149 3.09166 0
M  V30 265 H 26.1878 1.64032 2.66106 0
M  V30 266 H 25.4078 3.72106 1.30119 0
M  V30 267 H 26.6958 4.62822 2.11361 0
M  V30 268 H 26.0938 2.95878 4.82154 0
M  V30 269 H 24.6508 3.73076 5.34469 0
M  V30 270 N 28.0839 -0.256276 1.55502 0
M  V30 271 C 29.3609 -1.00789 1.67633 0
M  V30 272 C 29.7409 -2.03706 0.553826 0
M  V30 273 O 29.0889 -2.24145 -0.443969 0
M  V30 274 C 29.2989 -1.64968 3.07549 0
M  V30 275 C 30.6469 -2.15505 3.65845 0
M  V30 276 O 31.6709 -1.74925 3.1029 0
M  V30 277 O 30.5299 -2.89986 4.63217 0
M  V30 278 H 27.6239 -0.468553 0.681459 0
M  V30 279 H 30.1699 -0.250806 1.67836 0
M  V30 280 H 28.9419 -0.904785 3.80696 0
M  V30 281 H 28.5649 -2.47321 3.11317 0
M  V30 282 N 29.562 -1.4872 -0.521534 0
M  V30 283 C 30.81 -1.56857 -1.27437 0
M  V30 284 C 31.131 -0.247982 -1.93417 0
M  V30 285 O 30.401 0.731151 -1.81744 0
M  V30 286 H 28.981 -0.577885 -0.473347 0
M  V30 287 H 31.643 -1.85233 -0.606205 0
M  V30 288 H 30.739 -2.35402 -2.0492 0
M  V30 289 N 31.0401 0.771051 -1.3745 0
M  V30 290 C 32.0031 1.86598 -1.33093 0
M  V30 291 C 33.0031 1.59076 -0.234845 0
M  V30 292 O 34.1931 1.67145 -0.490732 0
M  V30 293 C 31.3251 3.23747 -1.06773 0
M  V30 294 H 32.5181 1.91873 -2.30488 0
M  V30 295 H 30.0711 0.970876 -1.2249 0
M  V30 296 H 30.8061 3.24148 -0.099129 0
M  V30 297 H 30.5911 3.45115 -1.86112 0
M  V30 298 H 32.0811 4.03824 -1.06377 0
M  V30 299 N 32.5182 1.22032 0.997298 0
M  V30 300 C 33.4812 0.987909 2.06816 0
M  V30 301 C 34.4812 -0.0440084 1.6074 0
M  V30 302 O 35.6712 0.194053 1.73116 0
M  V30 303 C 32.8032 0.49132 3.37341 0
M  V30 304 H 33.9962 1.93803 2.28868 0
M  V30 305 H 31.5492 1.03838 1.16822 0
M  V30 306 H 32.2842 -0.463364 3.20973 0
M  V30 307 H 32.0692 1.23575 3.72118 0
M  V30 308 H 33.5592 0.348824 4.16141 0
M  V30 309 N 33.9963 -1.19345 1.0293 0
M  V30 310 C 34.9293 -2.21347 0.555029 0
M  V30 311 C 35.9073 -1.57492 -0.404351 0
M  V30 312 O 37.0913 -1.85741 -0.321352 0
M  V30 313 C 34.2183 -3.38163 -0.19064 0
M  V30 314 C 33.2643 -4.20375 0.720236 0
M  V30 315 S 34.0973 -4.88371 2.19668 0
M  V30 316 C 35.2533 -6.08597 1.46153 0
M  V30 317 H 35.4863 -2.61235 1.41929 0
M  V30 318 H 33.0193 -1.29598 0.839272 0
M  V30 319 H 34.9773 -4.05871 -0.614724 0
M  V30 320 H 33.6383 -2.9671 -1.03063 0
M  V30 321 H 32.8313 -5.03793 0.14455 0
M  V30 322 H 32.4333 -3.57987 1.08266 0
M  V30 323 H 34.7253 -6.73354 0.748357 0
M  V30 324 H 35.6683 -6.7065 2.27233 0
M  V30 325 H 36.0763 -5.56297 0.958842 0
M  V30 326 N 35.4744 -0.807222 -1.35358 0
M  V30 327 C 36.7514 -0.311126 -1.9311 0
M  V30 328 C 37.1314 1.19937 -1.73719 0
M  V30 329 O 36.4794 1.99918 -1.10657 0
M  V30 330 C 36.6894 -0.723226 -3.41424 0
M  V30 331 C 38.0374 -0.713078 -4.18569 0
M  V30 332 O 39.0614 -0.664811 -3.49941 0
M  V30 333 O 37.9204 -0.772022 -5.41019 0
M  V30 334 H 35.0144 -0.081526 -0.822972 0
M  V30 335 H 37.5604 -0.890962 -1.4443 0
M  V30 336 H 36.3324 -1.76426 -3.4927 0
M  V30 337 H 35.9554 -0.118232 -3.97424 0
M  V30 338 N 36.9525 1.47285 -0.560781 0
M  V30 339 C 38.1775 2.07359 -0.0410566 0
M  V30 340 C 38.6025 1.41017 1.24483 0
M  V30 341 O 37.9605 0.486368 1.74654 0
M  V30 342 C 38.0085 3.6035 0.134123 0
M  V30 343 O 37.1125 3.94681 1.19587 0
M  V30 344 H 36.4535 0.661887 -0.0529291 0
M  V30 345 H 38.9835 1.89252 -0.777482 0
M  V30 346 H 38.9935 4.0652 0.347207 0
M  V30 347 H 37.6685 4.08034 -0.805047 0
M  V30 348 H 36.2455 3.60251 0.962987 0
M  V30 349 N 38.4306 0.297415 1.54768 0
M  V30 350 C 39.6766 -0.313376 2.00364 0
M  V30 351 C 40.0096 -1.53815 1.18553 0
M  V30 352 O 39.2846 -1.92739 0.261103 0
M  V30 353 C 39.5676 -0.673525 3.53745 0
M  V30 354 C 39.4206 0.560133 4.46299 0
M  V30 355 C 40.7396 -1.50143 4.13697 0
M  V30 356 H 37.8586 -0.112428 0.728374 0
M  V30 357 H 40.5006 0.4088 1.8555 0
M  V30 358 H 38.6506 -1.28881 3.665 0
M  V30 359 H 40.3226 1.19863 4.45455 0
M  V30 360 H 38.5656 1.19405 4.17043 0
M  V30 361 H 39.2366 0.26405 5.51368 0
M  V30 362 H 41.7126 -0.981588 4.04356 0
M  V30 363 H 40.5886 -1.72221 5.21182 0
M  V30 364 H 40.8496 -2.48952 3.65343 0
M  V30 365 N 39.9087 -1.5758 0.0250728 0
M  V30 366 C 41.3197 -1.79476 -0.514323 0
M  V30 367 C 41.6707 -0.934956 -1.72491 0
M  V30 368 O 40.7957 -0.144245 -2.15919 0
M  V30 369 C 41.3907 -3.25503 -0.939842 0
M  V30 370 C 39.9497 -3.48408 -1.42438 0
M  V30 371 C 39.0967 -2.74583 -0.387201 0
M  V30 372 H 42.0477 -1.567 0.25113 0
M  V30 373 H 42.0687 -3.34992 -1.80445 0
M  V30 374 H 41.5807 -3.88056 -0.0585628 0
M  V30 375 H 39.6817 -2.91103 -2.32572 0
M  V30 376 H 39.7947 -4.57119 -1.43455 0
M  V30 377 H 38.1587 -2.39942 -0.854409 0
M  V30 378 H 38.9417 -3.39849 0.485543 0
M  V30 379 N 41.3868 0.248026 -1.55636 0
M  V30 380 C 42.3168 1.31079 -1.93237 0
M  V30 381 C 43.2978 1.50264 -0.797174 0
M  V30 382 O 44.4828 1.62891 -1.05737 0
M  V30 383 C 41.6128 2.66575 -2.22609 0
M  V30 384 C 40.5668 2.62087 -3.3837 0
M  V30 385 C 39.8928 4.01369 -3.53281 0
M  V30 386 C 41.1928 2.19171 -4.7409 0
M  V30 387 H 42.8868 0.998556 -2.82257 0
M  V30 388 H 40.4328 0.47891 -1.35803 0
M  V30 389 H 42.3858 3.41057 -2.47503 0
M  V30 390 H 41.1098 2.99432 -1.30414 0
M  V30 391 H 39.7688 1.90063 -3.13483 0
M  V30 392 H 39.4168 4.31489 -2.58508 0
M  V30 393 H 39.1168 3.99254 -4.31127 0
M  V30 394 H 40.6408 4.77552 -3.80495 0
M  V30 395 H 42.0548 2.83384 -4.98363 0
M  V30 396 H 40.4518 2.2817 -5.5503 0
M  V30 397 H 41.5218 1.14336 -4.71227 0
M  V30 398 N 42.8649 1.48995 0.513639 0
M  V30 399 C 44.1139 1.57093 1.2651 0
M  V30 400 C 44.4269 0.257091 1.93903 0
M  V30 401 O 45.6329 0.216478 2.70636 0
M  V30 402 C 44.0889 2.77118 2.29638 0
M  V30 403 C 43.6969 4.15209 1.68241 0
M  V30 404 C 45.4409 2.94538 3.05692 0
M  V30 405 C 43.3479 5.26474 2.69406 0
M  V30 406 H 42.2779 0.584876 0.475854 0
M  V30 407 H 44.9289 1.7536 0.540487 0
M  V30 408 H 43.3109 2.52319 3.05207 0
M  V30 409 H 44.4849 4.50094 0.987505 0
M  V30 410 H 42.7999 4.03042 1.04623 0
M  V30 411 H 45.3969 3.74832 3.8132 0
M  V30 412 H 45.7399 2.04614 3.62545 0
M  V30 413 H 46.2729 3.19316 2.37238 0
M  V30 414 H 43.0119 6.18417 2.17351 0
M  V30 415 H 42.5319 4.96058 3.37175 0
M  V30 416 H 44.2109 5.55277 3.32078 0
M  V30 417 N 44.343 -0.763751 1.37857 0
M  V30 418 C 45.568 -1.55805 1.36893 0
M  V30 419 C 45.993 -1.88054 -0.0416135 0
M  V30 420 O 45.351 -1.49825 -1.02089 0
M  V30 421 C 45.399 -2.84012 2.22192 0
M  V30 422 O 44.503 -3.78732 1.63204 0
M  V30 423 H 43.844 -0.471638 0.46739 0
M  V30 424 H 46.374 -0.944657 1.81487 0
M  V30 425 H 46.384 -3.33037 2.35691 0
M  V30 426 H 45.059 -2.59869 3.24716 0
M  V30 427 H 43.636 -3.37402 1.58791 0
M  V30 428 N 45.8211 -1.22559 -0.990812 0
M  V30 429 C 47.2321 -1.04791 -1.54518 0
M  V30 430 C 47.5831 0.387998 -1.92325 0
M  V30 431 O 46.7081 1.27328 -1.74976 0
M  V30 432 C 47.3031 -1.896 -2.80779 0
M  V30 433 C 45.8621 -1.76124 -3.32652 0
M  V30 434 C 45.0091 -1.8594 -2.05722 0
M  V30 435 H 47.9601 -1.36374 -0.811662 0
M  V30 436 H 47.9811 -1.41464 -3.53225 0
M  V30 437 H 47.4931 -2.94101 -2.53231 0
M  V30 438 H 45.5941 -0.743643 -3.65104 0
M  V30 439 H 45.7071 -2.58913 -4.03114 0
M  V30 440 H 44.0711 -1.29403 -2.19379 0
M  V30 441 H 44.8541 -2.91976 -1.80568 0
M  V30 442 N 47.2992 1.18797 -1.03562 0
M  V30 443 C 48.2292 2.24472 -0.643019 0
M  V30 444 C 49.2102 1.66433 0.351283 0
M  V30 445 O 50.3952 1.92803 0.232505 0
M  V30 446 C 47.5252 3.473 4.24935e-05 0
M  V30 447 C 46.4792 4.18055 -0.917257 0
M  V30 448 C 45.8052 5.34519 -0.138941 0
M  V30 449 C 47.1052 4.72109 -2.23407 0
M  V30 450 H 48.7992 2.57566 -1.52643 0
M  V30 451 H 46.3452 1.23806 -0.735394 0
M  V30 452 H 48.2982 4.20426 0.286383 0
M  V30 453 H 47.0222 3.13424 0.918299 0
M  V30 454 H 45.6812 3.46821 -1.1879 0
M  V30 455 H 45.3292 4.96891 0.781562 0
M  V30 456 H 45.0292 5.82794 -0.750005 0
M  V30 457 H 46.5532 6.10438 0.1405 0
M  V30 458 H 47.9672 5.36955 -2.00879 0
M  V30 459 H 46.3642 5.30897 -2.79765 0
M  V30 460 H 47.4342 3.89807 -2.88407 0
M  V30 461 N 48.7773 0.814389 1.34928 0
M  V30 462 C 50.0543 0.321363 1.92942 0
M  V30 463 C 50.4343 -1.19014 1.74353 0
M  V30 464 O 49.7823 -1.99328 1.11716 0
M  V30 465 C 49.9923 0.741323 3.41036 0
M  V30 466 C 51.3403 0.735266 4.18185 0
M  V30 467 O 52.3643 0.68336 3.49584 0
M  V30 468 O 51.2233 0.800703 5.40602 0
M  V30 469 H 48.3173 0.0858893 0.822528 0
M  V30 470 H 50.8633 0.898609 1.43955 0
M  V30 471 H 49.6353 1.78276 3.4833 0
M  V30 472 H 49.2583 0.139307 3.97356 0
M  V30 473 N 50.2554 -1.46986 0.568584 0
M  V30 474 C 51.5044 -2.01646 0.0465894 0
M  V30 475 C 51.8174 -1.44721 -1.31587 0
M  V30 476 O 53.0234 -1.91113 -1.92842 0
M  V30 477 C 51.4794 -3.59885 0.032752 0
M  V30 478 C 51.0874 -4.25804 1.39266 0
M  V30 479 C 52.8314 -4.22255 -0.436038 0
M  V30 480 C 50.7384 -5.76081 1.33732 0
M  V30 481 H 49.6684 -0.753876 0.013647 0
M  V30 482 H 52.3194 -1.68864 0.718131 0
M  V30 483 H 50.7014 -3.8968 -0.704669 0
M  V30 484 H 51.8754 -4.07637 2.1487 0
M  V30 485 H 50.1904 -3.7547 1.80032 0
M  V30 486 H 52.7874 -5.32394 -0.49602 0
M  V30 487 H 53.1304 -3.90212 -1.45053 0
M  V30 488 H 53.6634 -3.97033 0.246877 0
M  V30 489 H 50.4024 -6.12761 2.32817 0
M  V30 490 H 49.9224 -5.96553 0.623267 0
M  V30 491 H 51.6014 -6.38518 1.0442 0
M  V30 492 N 51.7335 -0.305618 -1.54608 0
M  V30 493 C 52.9585 0.307562 -2.05107 0
M  V30 494 C 53.3835 1.46385 -1.18123 0
M  V30 495 O 52.7415 1.8034 -0.186324 0
M  V30 496 C 52.7895 0.73704 -3.52987 0
M  V30 497 O 51.8935 1.84134 -3.6901 0
M  V30 498 H 51.2345 0.0589143 -0.661381 0
M  V30 499 H 53.7645 -0.448807 -1.99617 0
M  V30 500 H 53.7745 1.02459 -3.94925 0
M  V30 501 H 52.4495 -0.108773 -4.15758 0
M  V30 502 H 51.0265 1.55398 -3.38978 0
M  V30 503 N 53.2116 1.57565 -0.0334293 0
M  V30 504 C 54.1436 2.0739 0.975811 0
M  V30 505 C 55.1566 0.998166 1.2861 0
M  V30 506 O 56.3456 1.27426 1.25 0
M  V30 507 C 53.4456 2.4871 2.30209 0
M  V30 508 C 52.6186 3.79413 2.17634 0
M  V30 509 C 51.6776 4.07237 3.33233 0
M  V30 510 O 50.7036 4.77425 3.09927 0
M  V30 511 N 51.9056 3.5775 4.5716 0
M  V30 512 H 54.6706 2.94598 0.55066 0
M  V30 513 H 52.2316 1.61173 0.15323 0
M  V30 514 H 54.2236 2.64413 3.06378 0
M  V30 515 H 52.7936 1.66845 2.64351 0
M  V30 516 H 52.0136 3.73465 1.26165 0
M  V30 517 H 53.3016 4.65038 2.0644 0
M  V30 518 H 52.6996 3.00976 4.78989 0
M  V30 519 H 51.2566 3.78724 5.30482 0
M  V30 520 N 54.6897 -0.239769 1.55765 0
M  V30 521 C 55.6197 -1.30052 1.9393 0
M  V30 522 C 56.6007 -1.49839 0.805132 0
M  V30 523 O 57.7857 -1.62328 1.06599 0
M  V30 524 C 54.9157 -2.65391 2.2402 0
M  V30 525 C 53.8697 -2.60289 3.39755 0
M  V30 526 C 53.1957 -3.99489 3.55405 0
M  V30 527 C 54.4957 -2.16654 4.75246 0
M  V30 528 H 56.1897 -0.983573 2.82783 0
M  V30 529 H 53.7357 -0.471701 1.36055 0
M  V30 530 H 55.6887 -3.3974 2.49308 0
M  V30 531 H 54.4127 -2.98736 1.32 0
M  V30 532 H 53.0717 -1.88398 3.14487 0
M  V30 533 H 52.7197 -4.30112 2.60793 0
M  V30 534 H 52.4197 -3.96962 4.33238 0
M  V30 535 H 53.9437 -4.75528 3.83022 0
M  V30 536 H 55.3577 -2.80737 4.99859 0
M  V30 537 H 53.7547 -2.25223 5.56232 0
M  V30 538 H 54.8247 -1.11835 4.71827 0
M  V30 539 N 56.1678 -1.49265 -0.50573 0
M  V30 540 C 57.0998 -1.617 -1.62437 0
M  V30 541 C 58.1128 -0.499924 -1.54934 0
M  V30 542 O 59.3018 -0.771785 -1.60953 0
M  V30 543 C 56.4018 -1.5533 -3.01207 0
M  V30 544 C 55.5748 -2.8249 -3.33943 0
M  V30 545 C 54.6338 -2.69238 -4.52103 0
M  V30 546 O 53.6598 -3.43167 -4.5412 0
M  V30 547 N 54.8618 -1.80468 -5.51735 0
M  V30 548 H 57.6268 -2.58177 -1.52199 0
M  V30 549 H 55.1878 -1.46294 -0.693511 0
M  V30 550 H 57.1798 -1.44125 -3.78167 0
M  V30 551 H 55.7498 -0.667297 -3.05395 0
M  V30 552 H 54.9698 -3.08081 -2.45926 0
M  V30 553 H 56.2578 -3.66802 -3.5261 0
M  V30 554 H 55.6558 -1.19653 -5.52901 0
M  V30 555 H 54.2128 -1.75188 -6.27816 0
M  V30 556 N 57.6459 0.756429 -1.3826 0
M  V30 557 C 59.0569 1.33359 -1.30661 0
M  V30 558 C 59.4079 1.96161 0.0388875 0
M  V30 559 O 58.5329 1.94874 0.940918 0
M  V30 560 C 59.1279 2.42477 -2.36622 0
M  V30 561 C 57.6869 2.95922 -2.3261 0
M  V30 562 C 56.8339 1.69275 -2.19639 0
M  V30 563 H 59.7849 0.55552 -1.4866 0
M  V30 564 H 59.8059 3.22345 -2.02174 0
M  V30 565 H 59.3179 1.96739 -3.34538 0
M  V30 566 H 57.4189 3.45996 -1.38267 0
M  V30 567 H 57.5319 3.50494 -3.26636 0
M  V30 568 H 55.8959 1.92793 -1.66442 0
M  V30 569 H 56.6789 1.25619 -3.19491 0
M  V30 570 N 59.124 1.23083 0.984299 0
M  V30 571 C 60.535 1.05609 1.5396 0
M  V30 572 C 60.886 -0.377793 1.92528 0
M  V30 573 O 60.011 -1.26398 1.75649 0
M  V30 574 C 60.606 1.91087 2.7977 0
M  V30 575 C 59.165 1.77885 3.31713 0
M  V30 576 C 58.312 1.87028 2.04733 0
M  V30 577 H 61.263 1.36802 0.804419 0
M  V30 578 H 61.284 1.43336 3.5247 0
M  V30 579 H 60.796 2.9544 2.51668 0
M  V30 580 H 58.897 0.762995 3.64704 0
M  V30 581 H 59.01 2.61047 4.01735 0
M  V30 582 H 57.374 1.30565 2.18689 0
M  V30 583 H 58.157 2.92929 1.79017 0
M  V30 584 N 60.6021 -1.18246 1.0419 0
M  V30 585 C 61.5321 -2.24127 0.654914 0
M  V30 586 C 62.5131 -1.66617 -0.342451 0
M  V30 587 O 63.6981 -1.92924 -0.222277 0
M  V30 588 C 60.8281 -3.47295 0.0183757 0
M  V30 589 C 59.7821 -4.17563 0.939414 0
M  V30 590 C 59.1081 -5.34438 0.167286 0
M  V30 591 C 60.4081 -4.70917 2.25908 0
M  V30 592 H 62.1021 -2.56753 1.54007 0
M  V30 593 H 59.6481 -1.23414 0.74195 0
M  V30 594 H 61.6011 -4.20572 -0.264082 0
M  V30 595 H 60.3251 -3.13907 -0.901664 0
M  V30 596 H 58.9841 -3.46186 1.20628 0
M  V30 597 H 58.6321 -4.97298 -0.7552 0
M  V30 598 H 58.3321 -5.82388 0.780901 0
M  V30 599 H 59.8561 -6.10504 -0.108125 0
M  V30 600 H 61.2701 -5.35882 2.03724 0
M  V30 601 H 59.6671 -5.29406 2.82577 0
M  V30 602 H 60.7371 -3.88272 2.9047 0
M  V30 603 N 62.0802 -0.821533 -1.34494 0
M  V30 604 C 63.4912 -0.467956 -1.8074 0
M  V30 605 C 63.8422 1.01151 -1.68116 0
M  V30 606 O 62.9672 1.78707 -1.22036 0
M  V30 607 C 63.5622 -0.842627 -3.28154 0
M  V30 608 C 62.1212 -0.541439 -3.72485 0
M  V30 609 C 61.2682 -1.06028 -2.56229 0
M  V30 610 H 64.2192 -1.01183 -1.22261 0
M  V30 611 H 64.2402 -0.145876 -3.8022 0
M  V30 612 H 63.7522 -1.91945 -3.37311 0
M  V30 613 H 61.8532 0.526034 -3.68868 0
M  V30 614 H 61.9662 -1.08453 -4.66663 0
M  V30 615 H 60.3302 -0.481892 -2.501 0
M  V30 616 H 61.1132 -2.14352 -2.68157 0
M  V30 617 N 63.5583 1.46682 -0.576371 0
M  V30 618 C 64.8353 1.95599 0.00703437 0
M  V30 619 C 65.2153 1.51904 1.46589 0
M  V30 620 O 64.5633 0.766755 2.15251 0
M  V30 621 C 64.7733 3.4864 -0.158404 0
M  V30 622 C 66.1213 4.24594 -0.0229439 0
M  V30 623 O 67.1453 3.56094 -0.0869173 0
M  V30 624 O 66.0043 5.46373 0.118015 0
M  V30 625 H 63.0983 0.825275 0.053384 0
M  V30 626 H 65.6443 1.56996 -0.644244 0
M  V30 627 H 64.4163 3.7331 -1.17282 0
M  V30 628 H 64.0393 3.94057 0.5296 0
M  V30 629 N 65.0364 0.313813 1.54444 0
M  V30 630 C 65.9684 -0.590425 2.21465 0
M  V30 631 C 66.9814 -1.08753 1.21147 0
M  V30 632 O 68.1704 -1.00278 1.4767 0
M  V30 633 C 65.2704 -1.82179 2.85769 0
M  V30 634 C 64.4434 -1.46502 4.12136 0
M  V30 635 C 63.5024 -2.55288 4.60124 0
M  V30 636 O 62.5284 -2.19842 5.25032 0
M  V30 637 N 63.7304 -3.86053 4.33525 0
M  V30 638 H 66.4954 -0.0166033 2.99695 0
M  V30 639 H 64.0564 0.136578 1.61323 0
M  V30 640 H 66.0484 -2.54328 3.14801 0
M  V30 641 H 64.6184 -2.30369 2.11303 0
M  V30 642 H 63.8384 -0.575595 3.89975 0
M  V30 643 H 65.1264 -1.20221 4.94393 0
M  V30 644 H 64.5244 -4.17654 3.81552 0
M  V30 645 H 63.0814 -4.54461 4.67235 0
M  V30 646 N 66.5145 -1.57545 0.0417849 0
M  V30 647 C 67.7605 -1.92601 -0.635021 0
M  V30 648 C 68.0935 -0.919627 -1.71045 0
M  V30 649 O 67.3685 0.0557892 -1.9442 0
M  V30 650 C 67.6515 -3.38085 -1.23979 0
M  V30 651 C 67.5045 -4.49467 -0.173057 0
M  V30 652 C 68.8235 -3.83776 -2.15416 0
M  V30 653 H 65.9425 -0.700397 -0.229374 0
M  V30 654 H 68.5845 -1.89728 0.101633 0
M  V30 655 H 66.7345 -3.40664 -1.86762 0
M  V30 656 H 68.4065 -4.59018 0.458312 0
M  V30 657 H 66.6495 -4.30909 0.499996 0
M  V30 658 H 67.3205 -5.48323 -0.636054 0
M  V30 659 H 69.7965 -3.83013 -1.62605 0
M  V30 660 H 68.6725 -4.8624 -2.54679 0
M  V30 661 H 68.9335 -3.19998 -3.05047 0
M  V30 662 N 67.9926 0.231505 -1.5589 0
M  V30 663 C 69.2386 0.95877 -1.78705 0
M  V30 664 C 69.5716 1.8438 -0.609725 0
M  V30 665 O 68.8466 1.90521 0.391426 0
M  V30 666 C 69.1296 1.8062 -3.11526 0
M  V30 667 C 68.9826 0.948328 -4.39689 0
M  V30 668 C 70.3016 2.78585 -3.40703 0
M  V30 669 H 67.4206 0.347129 -0.650131 0
M  V30 670 H 70.0626 0.228259 -1.88624 0
M  V30 671 H 68.2126 2.42902 -3.03201 0
M  V30 672 H 69.8846 0.343016 -4.60023 0
M  V30 673 H 68.1276 0.253314 -4.3306 0
M  V30 674 H 68.7986 1.57543 -5.29041 0
M  V30 675 H 71.2746 2.26439 -3.49091 0
M  V30 676 H 70.1506 3.34988 -4.34826 0
M  V30 677 H 70.4116 3.55825 -2.62375 0
M  V30 678 N 69.4707 1.49531 0.497807 0
M  V30 679 C 70.7197 1.58426 1.24837 0
M  V30 680 C 71.0327 0.277643 1.93619 0
M  V30 681 O 72.2387 0.24517 2.70391 0
M  V30 682 C 70.6947 2.79538 2.26686 0
M  V30 683 C 70.3027 4.16971 1.63828 0
M  V30 684 C 72.0467 2.97764 3.0255 0
M  V30 685 C 69.9537 5.29301 2.63807 0
M  V30 686 H 68.8837 0.58989 0.469623 0
M  V30 687 H 71.5347 1.75923 0.521857 0
M  V30 688 H 69.9167 2.55542 3.02514 0
M  V30 689 H 71.0907 4.51116 0.939711 0
M  V30 690 H 69.4057 4.04129 1.00342 0
M  V30 691 H 72.0027 3.78856 3.77323 0
M  V30 692 H 72.3457 2.08448 3.60354 0
M  V30 693 H 72.8787 3.21815 2.33838 0
M  V30 694 H 69.6177 6.20687 2.10779 0
M  V30 695 H 69.1377 4.99606 3.31894 0
M  V30 696 H 70.8167 5.58768 3.2617 0
M  V30 697 N 70.9488 -0.749086 1.3866 0
M  V30 698 C 71.8958 -1.86291 1.36251 0
M  V30 699 C 72.8658 -1.64578 0.224347 0
M  V30 700 O 74.0508 -1.86181 0.417279 0
M  V30 701 C 71.1908 -3.23644 1.19786 0
M  V30 702 C 70.3038 -3.57158 2.43027 0
M  V30 703 C 69.4388 -4.83838 2.19258 0
M  V30 704 C 68.4778 -5.10152 3.38247 0
M  V30 705 N 67.6148 -6.28029 3.13884 0
M  V30 706 H 72.4548 -1.87685 2.3147 0
M  V30 707 H 69.9918 -0.917287 1.14997 0
M  V30 708 H 71.9498 -4.0291 1.08254 0
M  V30 709 H 70.5798 -3.21566 0.282031 0
M  V30 710 H 69.6318 -2.72701 2.65214 0
M  V30 711 H 70.9438 -3.7253 3.31697 0
M  V30 712 H 70.0978 -5.71057 2.04888 0
M  V30 713 H 68.8368 -4.70614 1.2796 0
M  V30 714 H 67.8418 -4.21401 3.53131 0
M  V30 715 H 69.0668 -5.25271 4.30427 0
M  V30 716 H 67.0128 -6.1612 2.25238 0
M  V30 717 H 66.9298 -6.43922 3.96106 0
M  V30 718 H 68.1978 -7.18124 3.03179 0
M  V30 719 N 72.4269 -1.23603 -0.977757 0
M  V30 720 C 73.6549 -1.09646 -1.75458 0
M  V30 721 C 74.0699 0.351859 -1.85492 0
M  V30 722 O 73.4269 1.24327 -1.336 0
M  V30 723 C 73.4779 -1.71895 -3.18016 0
M  V30 724 O 73.1989 -3.11063 -3.08498 0
M  V30 725 C 74.6999 -1.63415 -4.12081 0
M  V30 726 H 71.9199 -0.38359 -0.550545 0
M  V30 727 H 74.4639 -1.63507 -1.22824 0
M  V30 728 H 72.6189 -1.22061 -3.67668 0
M  V30 729 H 73.0329 -3.41305 -3.9826 0
M  V30 730 H 74.5069 -2.11669 -5.09804 0
M  V30 731 H 74.9839 -0.593462 -4.35172 0
M  V30 732 H 75.5899 -2.12628 -3.68334 0
M  V30 733 N 73.905 1.17692 -1.04816 0
M  V30 734 C 74.837 2.21103 -0.603822 0
M  V30 735 C 75.85 1.59411 0.33046 0
M  V30 736 O 77.039 1.7807 0.12379 0
M  V30 737 C 74.139 3.38623 0.136898 0
M  V30 738 C 73.312 4.29888 -0.807137 0
M  V30 739 C 72.371 5.26088 -0.10836 0
M  V30 740 O 71.397 5.64353 -0.741232 0
M  V30 741 N 72.599 5.68882 1.15558 0
M  V30 742 H 75.364 2.59848 -1.49329 0
M  V30 743 H 72.925 1.32553 -0.929587 0
M  V30 744 H 74.917 4.00009 0.614401 0
M  V30 745 H 73.487 2.98508 0.927993 0
M  V30 746 H 72.707 3.65993 -1.46434 0
M  V30 747 H 73.995 4.87759 -1.44807 0
M  V30 748 H 73.393 5.39861 1.69015 0
M  V30 749 H 71.95 6.32429 1.57722 0
M  V30 750 N 75.3831 0.828654 1.34056 0
M  V30 751 C 76.6111 0.43262 2.02326 0
M  V30 752 C 77.0261 -0.963147 1.62385 0
M  V30 753 O 76.3831 -1.62425 0.832121 0
M  V30 754 C 76.4341 0.53182 3.57567 0
M  V30 755 O 76.1551 1.87258 3.96063 0
M  V30 756 C 77.6561 0.131422 4.43105 0
M  V30 757 H 74.8761 0.172923 0.648335 0
M  V30 758 H 77.4201 1.1184 1.71208 0
M  V30 759 H 75.5751 -0.105938 3.87255 0
M  V30 760 H 75.9891 1.85087 4.90758 0
M  V30 761 H 77.4631 0.251904 5.51425 0
M  V30 762 H 77.9401 -0.925645 4.29335 0
M  V30 763 H 78.5461 0.743207 4.18756 0
M  V30 764 N 76.8612 -1.46375 0.584142 0
M  V30 765 C 77.7712 -2.34115 -0.150728 0
M  V30 766 C 78.7872 -1.49838 -0.884567 0
M  V30 767 O 79.9632 -1.82704 -0.847429 0
M  V30 768 C 77.0282 -3.2705 -1.15062 0
M  V30 769 C 76.0892 -4.27228 -0.421293 0
M  V30 770 C 75.3222 -5.15722 -1.37355 0
M  V30 771 O 75.5452 -5.07176 -2.61014 0
M  V30 772 O 74.4792 -5.95383 -0.883355 0
M  V30 773 H 78.3052 -2.98309 0.569708 0
M  V30 774 H 75.8902 -1.45373 0.344535 0
M  V30 775 H 77.7722 -3.84381 -1.72712 0
M  V30 776 H 76.4472 -2.65451 -1.8525 0
M  V30 777 H 75.3542 -3.7358 0.197085 0
M  V30 778 H 76.6872 -4.91616 0.239641 0
M  V30 779 N 78.3393 -0.321999 -1.54275 0
M  V30 780 C 79.5693 0.282642 -2.04658 0
M  V30 781 C 79.9773 1.46453 -1.19784 0
M  V30 782 O 79.3203 1.82367 -0.220932 0
M  V30 783 C 79.3823 0.781857 -3.50895 0
M  V30 784 C 79.0463 -0.277517 -4.56157 0
M  V30 785 C 80.0433 -1.11307 -5.07845 0
M  V30 786 C 77.7283 -0.425256 -5.00497 0
M  V30 787 C 79.7223 -2.08211 -6.02434 0
M  V30 788 C 77.4093 -1.39771 -5.94901 0
M  V30 789 C 78.4073 -2.2246 -6.45756 0
M  V30 790 O 78.0953 -3.18054 -7.38307 0
M  V30 791 H 77.8273 0.0622636 -0.673126 0
M  V30 792 H 80.3813 -0.465792 -2.00049 0
M  V30 793 H 78.6113 1.58118 -3.52896 0
M  V30 794 H 80.3003 1.30467 -3.84361 0
M  V30 795 H 81.0663 -1.00991 -4.74369 0
M  V30 796 H 76.9453 0.20847 -4.60528 0
M  V30 797 H 80.4893 -2.72791 -6.42052 0
M  V30 798 H 76.3863 -1.50152 -6.27794 0
M  V30 799 H 77.1543 -3.13275 -7.56175 0
M  V30 800 N 79.8174 1.5752 -0.0501392 0
M  V30 801 C 80.7494 2.08413 0.95376 0
M  V30 802 C 81.7624 1.01175 1.27544 0
M  V30 803 O 82.9514 1.28744 1.23641 0
M  V30 804 C 80.0514 2.51138 2.27559 0
M  V30 805 C 79.2244 3.817 2.13598 0
M  V30 806 C 78.2834 4.10749 3.28895 0
M  V30 807 O 77.3094 4.80685 3.04845 0
M  V30 808 N 78.5114 3.62579 4.5334 0
M  V30 809 H 81.2764 2.95165 0.519383 0
M  V30 810 H 78.8374 1.61327 0.136127 0
M  V30 811 H 80.8294 2.67648 3.03557 0
M  V30 812 H 79.3994 1.6964 2.62567 0
M  V30 813 H 78.6194 3.74782 1.22197 0
M  V30 814 H 79.9074 4.67201 2.01496 0
M  V30 815 H 79.3054 3.06039 4.75769 0
M  V30 816 H 77.8624 3.84329 5.26436 0
M  V30 817 N 81.2955 -0.223234 1.56011 0
M  V30 818 C 82.2255 -1.27988 1.95298 0
M  V30 819 C 83.2065 -1.48976 0.820979 0
M  V30 820 O 84.3915 -1.61188 1.08315 0
M  V30 821 C 81.5215 -2.63 2.26822 0
M  V30 822 C 80.4755 -2.56671 3.42497 0
M  V30 823 C 79.8015 -3.95697 3.59622 0
M  V30 824 C 81.1015 -2.11601 4.77517 0
M  V30 825 H 82.7955 -0.953525 2.8381 0
M  V30 826 H 80.3415 -0.457244 1.36548 0
M  V30 827 H 82.2945 -3.37077 2.52898 0
M  V30 828 H 81.0185 -2.9732 1.35161 0
M  V30 829 H 79.6775 -1.85051 3.16467 0
M  V30 830 H 79.3255 -4.27322 2.6534 0
M  V30 831 H 79.0255 -3.92345 4.37424 0
M  V30 832 H 80.5495 -4.71438 3.88044 0
M  V30 833 H 81.9635 -2.7542 5.02809 0
M  V30 834 H 80.3605 -2.19311 5.5859 0
M  V30 835 H 81.4305 -1.06824 4.72987 0
M  V30 836 N 82.7736 -1.49793 -0.48987 0
M  V30 837 C 83.9986 -1.63836 -1.27172 0
M  V30 838 C 84.4236 -0.31402 -1.8546 0
M  V30 839 O 83.7816 0.719803 -1.66399 0
M  V30 840 C 83.8296 -2.71797 -2.36978 0
M  V30 841 O 82.9336 -2.31744 -3.41128 0
M  V30 842 H 82.2746 -0.547997 -0.37496 0
M  V30 843 H 84.8046 -1.96053 -0.585191 0
M  V30 844 H 84.8146 -2.94305 -2.82575 0
M  V30 845 H 83.4896 -3.67923 -1.93921 0
M  V30 846 H 82.0666 -2.1961 -3.01373 0
M  V30 847 N 84.2517 0.741722 -1.39055 0
M  V30 848 C 85.4767 1.53607 -1.39354 0
M  V30 849 C 85.9017 1.88096 0.0116905 0
M  V30 850 O 85.2597 1.5143 0.996924 0
M  V30 851 C 85.3077 2.80441 -2.26682 0
M  V30 852 O 84.4117 3.76088 -1.69208 0
M  V30 853 H 83.7527 0.464142 -0.474835 0
M  V30 854 H 86.2827 0.915665 -1.82967 0
M  V30 855 H 86.2927 3.29246 -2.40959 0
M  V30 856 H 84.9677 2.5467 -3.2881 0
M  V30 857 H 83.5447 3.34833 -1.64138 0
M  V30 858 N 85.7298 1.2412 0.971189 0
M  V30 859 C 87.1408 1.07236 1.52831 0
M  V30 860 C 87.4918 -0.357352 1.92918 0
M  V30 861 O 86.6168 -1.24528 1.76979 0
M  V30 862 C 87.2118 1.94043 2.77728 0
M  V30 863 C 85.7708 1.81394 3.29808 0
M  V30 864 C 84.9178 1.89189 2.02738 0
M  V30 865 H 87.8688 1.37648 0.789864 0
M  V30 866 H 87.8898 1.47066 3.5093 0
M  V30 867 H 87.4018 2.98093 2.4852 0
M  V30 868 H 85.5028 0.801634 3.63874 0
M  V30 869 H 85.6158 2.65294 3.98944 0
M  V30 870 H 83.9798 1.32877 2.17292 0
M  V30 871 H 84.7628 2.94812 1.759 0
M  V30 872 N 87.2079 -1.17134 1.05439 0
M  V30 873 C 88.4849 -1.83411 0.679699 0
M  V30 874 C 88.8649 -1.9368 -0.839726 0
M  V30 875 O 88.2129 -1.47325 -1.74664 0
M  V30 876 C 88.4229 -3.20918 1.37159 0
M  V30 877 C 89.7709 -3.96796 1.51123 0
M  V30 878 O 90.7949 -3.30406 1.3308 0
M  V30 879 O 89.6539 -5.15778 1.80651 0
M  V30 880 H 86.7479 -0.79154 0.239569 0
M  V30 881 H 89.2939 -1.24411 1.15413 0
M  V30 882 H 88.0659 -3.08428 2.40807 0
M  V30 883 H 87.6889 -3.87587 0.886674 0
M  V30 884 N 88.686 -0.835752 -1.33615 0
M  V30 885 C 89.618 -0.224151 -2.28101 0
M  V30 886 C 90.631 0.593331 -1.51603 0
M  V30 887 O 91.82 0.420911 -1.73466 0
M  V30 888 C 88.92 0.703309 -3.31522 0
M  V30 889 C 88.093 -0.0741528 -4.37337 0
M  V30 890 C 87.152 0.776176 -5.20444 0
M  V30 891 O 86.178 0.216506 -5.68788 0
M  V30 892 N 87.38 2.09401 -5.41416 0
M  V30 893 H 90.145 -1.03598 -2.81225 0
M  V30 894 H 87.706 -0.69392 -1.46275 0
M  V30 895 H 89.698 1.27707 -3.84022 0
M  V30 896 H 88.268 1.41585 -2.78698 0
M  V30 897 H 87.488 -0.82928 -3.85378 0
M  V30 898 H 88.776 -0.608863 -5.05144 0
M  V30 899 H 88.174 2.57229 -5.03835 0
M  V30 900 H 86.731 2.61633 -5.96985 0
M  V30 901 N 90.1641 1.46063 -0.591896 0
M  V30 902 C 91.0961 2.28539 0.174001 0
M  V30 903 C 92.1091 1.39047 0.846753 0
M  V30 904 O 93.2981 1.63564 0.714774 0
M  V30 905 C 90.3981 3.14347 1.26645 0
M  V30 906 C 89.5711 4.32021 0.683856 0
M  V30 907 C 88.6301 4.99157 1.66518 0
M  V30 908 O 87.6561 5.56458 1.19763 0
M  V30 909 N 88.8581 4.97005 2.99943 0
M  V30 910 H 91.6231 2.94911 -0.533633 0
M  V30 911 H 89.1841 1.56077 -0.430294 0
M  V30 912 H 91.1761 3.56125 1.92242 0
M  V30 913 H 89.7461 2.49988 1.87682 0
M  V30 914 H 88.9661 3.93915 -0.1498 0
M  V30 915 H 90.2541 5.08059 0.274567 0
M  V30 916 H 89.6521 4.51714 3.40545 0
M  V30 917 H 88.2091 5.42696 3.61004 0
M  V30 918 N 91.6422 0.330177 1.54103 0
M  V30 919 C 92.5902 -0.548226 2.26047 0
M  V30 920 C 93.5842 -1.11309 1.27698 0
M  V30 921 O 94.7902 -1.06036 1.45452 0
M  V30 922 H 91.1652 -0.195456 0.726155 0
M  V30 923 H 93.1362 0.0807567 2.98291 0
M  V30 924 C 91.8852 -1.69415 3.03634 0
M  V30 925 H 91.2082 -1.26876 3.79134 0
M  V30 926 H 92.6482 -2.28423 3.5721 0
M  V30 927 C 91.1072 -2.61569 2.12328 0
M  V30 928 O 91.6372 -3.63462 1.7105 0
M  V30 929 N 89.8432 -2.29952 1.77681 0
M  V30 930 H 89.3902 -1.47134 2.11446 0
M  V30 931 H 89.3482 -2.91871 1.16869 0
M  V30 932 N 93.1203 -1.57491 0.0584922 0
M  V30 933 C 94.3673 -1.92978 -0.613648 0
M  V30 934 C 94.6953 -0.937461 -1.70417 0
M  V30 935 O 93.9503 0.049078 -1.95638 0
M  V30 936 C 94.2493 -3.3513 -1.24188 0
M  V30 937 C 93.9153 -4.50037 -0.278826 0
M  V30 938 C 92.5773 -4.81198 -0.0138447 0
M  V30 939 C 94.9293 -5.19807 0.380777 0
M  V30 940 C 92.2573 -5.79473 0.918052 0
M  V30 941 C 94.6093 -6.19079 1.30091 0
M  V30 942 C 93.2733 -6.48665 1.57449 0
M  V30 943 H 92.5433 -0.706157 -0.22455 0
M  V30 944 H 95.1903 -1.91082 0.126533 0
M  V30 945 H 93.4953 -3.33429 -2.05749 0
M  V30 946 H 95.1923 -3.59871 -1.769 0
M  V30 947 H 91.7823 -4.25726 -0.495539 0
M  V30 948 H 95.9663 -4.95939 0.189158 0
M  V30 949 H 91.2223 -6.00727 1.1374 0
M  V30 950 H 95.3963 -6.7225 1.81804 0
M  V30 951 H 93.0233 -7.24628 2.29822 0
M  V30 952 N 94.5984 0.214957 -1.56127 0
M  V30 953 C 96.0094 0.781386 -1.69562 0
M  V30 954 C 96.3604 1.84707 -0.66165 0
M  V30 955 O 95.4854 2.156 0.185927 0
M  V30 956 C 96.0804 1.42411 -3.07416 0
M  V30 957 C 94.6394 1.93786 -3.22683 0
M  V30 958 C 93.7864 0.800438 -2.65496 0
M  V30 959 H 96.7374 -0.00980633 -1.58697 0
M  V30 960 H 96.7584 2.29309 -3.0364 0
M  V30 961 H 96.2704 0.64826 -3.82648 0
M  V30 962 H 94.3714 2.74152 -2.52332 0
M  V30 963 H 94.4844 2.1133 -4.29973 0
M  V30 964 H 92.8484 1.2095 -2.2415 0
M  V30 965 H 93.6314 0.0371471 -3.4328 0
M  V30 966 N 96.0765 1.50051 0.48192 0
M  V30 967 C 97.3535 1.51009 1.2432 0
M  V30 968 C 97.7335 0.248587 2.09631 0
M  V30 969 O 97.0815 -0.768409 2.15192 0
M  V30 970 C 97.2915 2.79981 2.08355 0
M  V30 971 C 98.6395 3.3022 2.66908 0
M  V30 972 O 99.6635 2.81228 2.18607 0
M  V30 973 O 98.5225 4.15595 3.54884 0
M  V30 974 H 95.6165 0.605239 0.563573 0
M  V30 975 H 98.1625 1.62332 0.494627 0
M  V30 976 H 96.9345 3.63275 1.45419 0
M  V30 977 H 96.5575 2.7161 2.90368 0
M  V30 978 N 97.5546 -0.734337 1.39446 0
M  V30 979 C 98.4846 -1.86155 1.40955 0
M  V30 980 C 99.4656 -1.67898 0.272827 0
M  V30 981 O 100.651 -1.88207 0.478743 0
M  V30 982 C 97.7806 -3.23912 1.25294 0
M  V30 983 C 96.7346 -3.56808 2.36373 0
M  V30 984 C 96.0606 -4.93508 2.058 0
M  V30 985 C 97.3606 -3.59713 3.78687 0
M  V30 986 H 99.0546 -1.8515 2.35287 0
M  V30 987 H 96.6006 -0.889367 1.13253 0
M  V30 988 H 98.5536 -4.02443 1.2497 0
M  V30 989 H 97.2776 -3.25446 0.274308 0
M  V30 990 H 95.9366 -2.80606 2.35914 0
M  V30 991 H 95.5846 -4.91623 1.06374 0
M  V30 992 H 95.2846 -5.16486 2.80208 0
M  V30 993 H 96.8086 -5.74396 2.07128 0
M  V30 994 H 98.2226 -4.2832 3.81071 0
M  V30 995 H 96.6196 -3.94209 4.52459 0
M  V30 996 H 97.6896 -2.59504 4.09617 0
M  V30 997 N 99.0327 -1.24633 -0.964593 0
M  V30 998 C 99.9427 -1.05859 -2.09359 0
M  V30 999 C 100.959 0.00148855 -1.74 0
M  V30 1000 O 102.135 -0.197346 -2.00431 0
M  V30 1001 C 99.1997 -0.668879 -3.40187 0
M  V30 1002 C 98.2607 -1.80578 -3.89474 0
M  V30 1003 C 97.4937 -1.43457 -5.14058 0
M  V30 1004 O 97.7167 -0.325775 -5.69469 0
M  V30 1005 O 96.6507 -2.2613 -5.57807 0
M  V30 1006 H 100.477 -2.00516 -2.28094 0
M  V30 1007 H 98.0617 -1.03481 -1.0776 0
M  V30 1008 H 99.9437 -0.463211 -4.18846 0
M  V30 1009 H 98.6187 0.248536 -3.22744 0
M  V30 1010 H 97.5257 -2.06623 -3.11862 0
M  V30 1011 H 98.8587 -2.70208 -4.11398 0
M  V30 1012 N 100.511 1.16574 -1.06058 0
M  V30 1013 C 101.759 1.86677 -0.77434 0
M  V30 1014 C 102.08 1.81959 0.701147 0
M  V30 1015 O 101.35 1.2515 1.50713 0
M  V30 1016 H 99.9298 0.691134 -0.283449 0
M  V30 1017 H 102.592 1.41378 -1.34158 0
M  V30 1018 H 101.688 2.92181 -1.09711 0
M  V30 1019 N 101.989 0.842826 1.3317 0
M  V30 1020 C 102.921 0.236245 2.27979 0
M  V30 1021 C 103.934 -0.585282 1.51915 0
M  V30 1022 O 105.123 -0.411705 1.73687 0
M  V30 1023 C 102.223 -0.685717 3.3189 0
M  V30 1024 C 101.396 0.0973448 4.37292 0
M  V30 1025 C 100.455 -0.748565 5.20848 0
M  V30 1026 O 99.4809 -0.186339 5.68895 0
M  V30 1027 N 100.683 -2.06527 5.42519 0
M  V30 1028 H 103.448 1.05088 2.80672 0
M  V30 1029 H 101.009 0.701667 1.45905 0
M  V30 1030 H 103.001 -1.25669 3.84694 0
M  V30 1031 H 101.571 -1.40105 2.79445 0
M  V30 1032 H 100.791 0.849706 3.84933 0
M  V30 1033 H 102.079 0.635643 5.04814 0
M  V30 1034 H 101.477 -2.54554 5.05192 0
M  V30 1035 H 100.034 -2.58464 5.98364 0
M  V30 1036 N 103.467 -1.45747 0.599634 0
M  V30 1037 C 104.883 -1.57424 0.26264 0
M  V30 1038 C 105.083 -1.59222 -1.23493 0
M  V30 1039 O 104.139 -1.51825 -2.01756 0
M  V30 1040 C 105.452 -2.86061 0.926795 0
M  V30 1041 C 107 -2.99722 0.901967 0
M  V30 1042 C 107.475 -4.31119 1.54598 0
M  V30 1043 N 108.966 -4.37858 1.5111 0
M  V30 1044 C 109.701 -5.3818 1.97863 0
M  V30 1045 N 109.197 -6.45083 2.52666 0
M  V30 1046 N 110.99 -5.29487 1.88679 0
M  V30 1047 H 103.141 -1.42823 1.57211 0
M  V30 1048 H 105.404 -0.68235 0.658105 0
M  V30 1049 H 105.11 -2.90605 1.98095 0
M  V30 1050 H 104.984 -3.74563 0.445238 0
M  V30 1051 H 107.371 -2.9475 -0.143617 0
M  V30 1052 H 107.452 -2.12652 1.42171 0
M  V30 1053 H 107.096 -4.36849 2.59085 0
M  V30 1054 H 107.026 -5.16992 1.00132 0
M  V30 1055 H 109.517 -3.61209 1.11068 0
M  V30 1056 H 109.83 -7.17869 2.86155 0
M  V30 1057 H 108.175 -6.45856 2.56701 0
M  V30 1058 H 111.366 -4.44877 1.4561 0
M  V30 1059 H 111.539 -6.07524 2.25429 0
M  V30 1060 N 104.945 -0.338344 -1.53925 0
M  V30 1061 C 105.875 0.51328 -2.27789 0
M  V30 1062 C 106.856 1.107 -1.29149 0
M  V30 1063 O 108.041 1.12937 -1.57984 0
M  V30 1064 C 105.171 1.66697 -3.04679 0
M  V30 1065 C 104.125 1.20183 -4.1078 0
M  V30 1066 C 103.451 2.44363 -4.75595 0
M  V30 1067 C 104.751 0.30605 -5.21403 0
M  V30 1068 H 106.445 -0.102883 -2.99223 0
M  V30 1069 H 103.991 -0.0509219 -1.4391 0
M  V30 1070 H 105.944 2.26915 -3.55088 0
M  V30 1071 H 104.668 2.30995 -2.30887 0
M  V30 1072 H 103.327 0.622499 -3.61276 0
M  V30 1073 H 102.975 3.07057 -3.98403 0
M  V30 1074 H 102.675 2.13925 -5.47275 0
M  V30 1075 H 104.199 3.05317 -5.28786 0
M  V30 1076 H 105.613 0.814929 -5.67478 0
M  V30 1077 H 104.01 0.0937929 -6.00027 0
M  V30 1078 H 105.08 -0.65921 -4.80398 0
M  V30 1079 N 106.423 1.57458 -0.0668435 0
M  V30 1080 C 107.371 2.13639 0.919851 0
M  V30 1081 C 108.365 1.07204 1.31163 0
M  V30 1082 O 109.571 1.25591 1.28945 0
M  V30 1083 H 105.946 0.683048 0.314562 0
M  V30 1084 H 107.917 2.95415 0.421047 0
M  V30 1085 C 106.666 2.70892 2.17975 0
M  V30 1086 H 105.989 3.5246 1.88711 0
M  V30 1087 H 107.429 3.13803 2.85138 0
M  V30 1088 C 105.888 1.65414 2.93496 0
M  V30 1089 O 106.418 1.07619 3.87015 0
M  V30 1090 N 104.624 1.36564 2.56512 0
M  V30 1091 H 104.171 1.83751 1.80536 0
M  V30 1092 H 104.129 0.66223 3.07347 0
M  V30 1093 N 107.901 -0.206675 1.56239 0
M  V30 1094 C 109.141 -0.93574 1.81723 0
M  V30 1095 C 109.505 -1.80927 0.642609 0
M  V30 1096 O 110.706 -2.57323 0.777081 0
M  V30 1097 C 108.977 -1.74012 3.12177 0
M  V30 1098 S 110.536 -2.52279 3.59028 0
M  V30 1099 H 107.354 -0.314065 0.637875 0
M  V30 1100 H 109.956 -0.200071 1.94474 0
M  V30 1101 H 108.66 -1.0888 3.95693 0
M  V30 1102 H 108.191 -2.51782 3.02274 0
M  V30 1103 H 110.206 -3.76209 3.23545 0
M  V30 1104 N 109.379 -1.50304 -0.473955 0
M  V30 1105 C 110.604 -1.65175 -1.25427 0
M  V30 1106 C 111.029 -0.333673 -1.85117 0
M  V30 1107 O 110.387 0.702114 -1.67153 0
M  V30 1108 C 110.435 -2.74295 -2.34082 0
M  V30 1109 O 109.539 -2.35349 -3.38651 0
M  V30 1110 H 108.88 -0.551944 -0.369126 0
M  V30 1111 H 111.41 -1.96662 -0.564364 0
M  V30 1112 H 111.42 -2.97285 -2.79438 0
M  V30 1113 H 110.095 -3.69959 -1.90008 0
M  V30 1114 H 108.672 -2.22794 -2.99027 0
M  V30 1115 N 110.857 0.726932 -1.39834 0
M  V30 1116 C 111.807 1.83232 -1.35683 0
M  V30 1117 C 112.791 1.59155 -0.236295 0
M  V30 1118 O 113.983 1.70522 -0.474488 0
M  V30 1119 C 111.112 3.21246 -1.21062 0
M  V30 1120 C 110.198 3.51125 -2.37849 0
M  V30 1121 N 110.589 3.51889 -3.63329 0
M  V30 1122 C 108.887 3.81527 -2.30982 0
M  V30 1123 C 109.588 3.79791 -4.40606 0
M  V30 1124 N 108.564 3.97971 -3.70297 0
M  V30 1125 H 112.366 1.8214 -2.30656 0
M  V30 1126 H 109.88 0.925545 -1.33444 0
M  V30 1127 H 111.877 4.00387 -1.16171 0
M  V30 1128 H 110.537 3.23572 -0.270458 0
M  V30 1129 H 111.548 3.33008 -3.96643 0
M  V30 1130 H 108.225 3.91411 -1.45272 0
M  V30 1131 H 109.615 3.86783 -5.49408 0
M  V30 1132 N 112.336 1.25143 0.95797 0
M  V30 1133 C 113.747 1.08851 1.51685 0
M  V30 1134 C 114.098 -0.33687 1.93286 0
M  V30 1135 O 113.223 -1.22644 1.7829 0
M  V30 1136 C 113.818 1.96978 2.75654 0
M  V30 1137 C 112.377 1.84881 3.27866 0
M  V30 1138 C 111.524 1.91329 2.0072 0
M  V30 1139 H 114.475 1.38478 0.77522 0
M  V30 1140 H 114.496 1.5078 3.4935 0
M  V30 1141 H 114.008 3.00712 2.45345 0
M  V30 1142 H 112.109 0.840182 3.63004 0
M  V30 1143 H 112.222 2.6951 3.96107 0
M  V30 1144 H 110.586 1.35174 2.15871 0
M  V30 1145 H 111.369 2.96661 1.72764 0
M  V30 1146 N 113.814 -1.1601 1.06675 0
M  V30 1147 C 114.724 -2.24156 0.692179 0
M  V30 1148 C 115.74 -1.71507 -0.293513 0
M  V30 1149 O 116.916 -2.009 -0.141861 0
M  V30 1150 C 113.981 -3.46587 0.0884131 0
M  V30 1151 C 113.042 -4.14257 1.12646 0
M  V30 1152 C 112.275 -5.30844 0.551416 0
M  V30 1153 O 112.498 -5.66858 -0.634656 0
M  V30 1154 O 111.432 -5.87848 1.29298 0
M  V30 1155 H 115.258 -2.58513 1.59388 0
M  V30 1156 H 112.843 -1.23599 0.83926 0
M  V30 1157 H 114.725 -4.20679 -0.246361 0
M  V30 1158 H 113.4 -3.13994 -0.786712 0
M  V30 1159 H 112.307 -3.42118 1.51348 0
M  V30 1160 H 113.64 -4.50914 1.97325 0
M  V30 1161 N 115.292 -0.849877 -1.32721 0
M  V30 1162 C 116.202 -0.293791 -2.32753 0
M  V30 1163 C 117.218 0.585906 -1.63839 0
M  V30 1164 O 118.394 0.487413 -1.95413 0
M  V30 1165 C 115.459 0.512752 -3.42887 0
M  V30 1166 C 114.52 -0.39252 -4.27502 0
M  V30 1167 C 113.753 0.375625 -5.32377 0
M  V30 1168 O 113.976 1.60613 -5.4732 0
M  V30 1169 O 112.91 -0.256094 -6.01355 0
M  V30 1170 H 116.736 -1.12242 -2.82197 0
M  V30 1171 H 114.321 -0.612685 -1.36259 0
M  V30 1172 H 116.203 0.970704 -4.10067 0
M  V30 1173 H 114.878 1.31826 -2.95641 0
M  V30 1174 H 113.785 -0.898547 -3.63149 0
M  V30 1175 H 115.118 -1.16309 -4.7826 0
M  V30 1176 N 116.77 1.45427 -0.607355 0
M  V30 1177 C 118.018 2.01841 -0.102253 0
M  V30 1178 C 118.339 1.47832 1.27164 0
M  V30 1179 O 117.609 0.672497 1.83995 0
M  V30 1180 H 116.189 0.746188 -0.0348101 0
M  V30 1181 H 118.851 1.78229 -0.7887 0
M  V30 1182 H 117.947 3.12057 -0.0518585 0
M  V30 1183 N 118.248 0.346503 1.53744 0
M  V30 1184 C 119.664 -0.00530975 1.59599 0
M  V30 1185 C 119.864 -1.48465 1.36236 0
M  V30 1186 O 118.92 -2.24376 1.15808 0
M  V30 1187 C 120.233 0.433516 2.97559 0
M  V30 1188 C 121.781 0.386111 3.10609 0
M  V30 1189 C 122.256 0.800451 4.50951 0
M  V30 1190 N 123.747 0.754753 4.5701 0
M  V30 1191 C 124.482 1.04727 5.63755 0
M  V30 1192 N 123.978 1.4081 6.7834 0
M  V30 1193 N 125.771 0.971316 5.53644 0
M  V30 1194 H 117.922 1.31009 1.67184 0
M  V30 1195 H 120.185 0.534242 0.783128 0
M  V30 1196 H 119.891 1.46509 3.19731 0
M  V30 1197 H 119.765 -0.189753 3.76722 0
M  V30 1198 H 122.152 -0.636295 2.88158 0
M  V30 1199 H 122.233 1.04462 2.33498 0
M  V30 1200 H 121.877 1.82088 4.74137 0
M  V30 1201 H 121.807 0.119386 5.26465 0
M  V30 1202 H 124.298 0.488662 3.74727 0
M  V30 1203 H 124.611 1.61607 7.55714 0
M  V30 1204 H 122.956 1.44657 6.79779 0
M  V30 1205 H 126.147 0.688748 4.63005 0
M  V30 1206 H 126.32 1.20263 6.36742 0
M  V30 1207 N 119.726 -1.57421 0.075193 0
M  V30 1208 C 121.142 -1.57099 -0.281444 0
M  V30 1209 C 121.342 -1.08486 -1.69803 0
M  V30 1210 O 120.398 -0.752279 -2.41033 0
M  V30 1211 C 121.711 -3.00571 -0.0880041 0
M  V30 1212 C 123.259 -3.12605 -0.157281 0
M  V30 1213 C 123.734 -4.57999 0.0079207 0
M  V30 1214 N 125.225 -4.63176 -0.0475725 0
M  V30 1215 C 125.96 -5.73373 0.0557876 0
M  V30 1216 N 125.456 -6.92473 0.21286 0
M  V30 1217 N 127.249 -5.621 -0.00152098 0
M  V30 1218 H 119.4 -1.87335 1.00098 0
M  V30 1219 H 121.663 -0.86377 0.390646 0
M  V30 1220 H 121.369 -3.40262 0.889629 0
M  V30 1221 H 121.243 -3.67754 -0.838875 0
M  V30 1222 H 123.63 -2.72798 -1.1254 0
M  V30 1223 H 123.711 -2.48053 0.62475 0
M  V30 1224 H 123.355 -4.98496 0.972824 0
M  V30 1225 H 123.285 -5.20586 -0.793556 0
M  V30 1226 H 125.776 -3.7753 -0.167244 0
M  V30 1227 H 126.089 -7.72279 0.283781 0
M  V30 1228 H 124.434 -6.94556 0.248267 0
M  V30 1229 H 127.625 -4.67938 -0.122958 0
M  V30 1230 H 127.798 -6.47948 0.0824844 0
M  V30 1231 N 121.204 0.198386 -1.56346 0
M  V30 1232 C 122.134 1.24865 -1.9731 0
M  V30 1233 C 123.115 1.47651 -0.844576 0
M  V30 1234 O 124.3 1.59444 -1.10866 0
M  V30 1235 C 121.43 2.59358 -2.30977 0
M  V30 1236 C 120.384 2.5119 -3.46537 0
M  V30 1237 C 119.71 3.89926 -3.65871 0
M  V30 1238 C 121.01 2.03977 -4.80823 0
M  V30 1239 H 122.704 0.908252 -2.85291 0
M  V30 1240 H 120.25 0.435462 -1.37258 0
M  V30 1241 H 122.203 3.33011 -2.58228 0
M  V30 1242 H 120.927 2.95132 -1.39874 0
M  V30 1243 H 119.586 1.79993 -3.19371 0
M  V30 1244 H 119.234 4.23046 -2.72105 0
M  V30 1245 H 118.934 3.85336 -4.4361 0
M  V30 1246 H 120.458 4.65205 -3.95495 0
M  V30 1247 H 121.872 2.67386 -5.07127 0
M  V30 1248 H 120.269 2.10397 -5.62008 0
M  V30 1249 H 121.339 0.992861 -4.74626 0
M  V30 1250 N 122.682 1.50554 0.465978 0
M  V30 1251 C 124.093 1.54599 1.04671 0
M  V30 1252 C 124.444 0.352488 1.93008 0
M  V30 1253 O 123.569 -0.534044 2.09707 0
M  V30 1254 C 124.164 2.80166 1.90505 0
M  V30 1255 C 122.723 2.86876 2.43678 0
M  V30 1256 C 121.87 2.48947 1.22151 0
M  V30 1257 H 124.821 1.56744 0.248384 0
M  V30 1258 H 124.842 2.62311 2.75633 0
M  V30 1259 H 124.354 3.67013 1.26186 0
M  V30 1260 H 122.455 2.04393 3.11536 0
M  V30 1261 H 122.568 3.89885 2.78436 0
M  V30 1262 H 120.932 2.01498 1.5579 0
M  V30 1263 H 121.715 3.38107 0.594866 0
M  V30 1264 N 124.16 -0.719506 1.40217 0
M  V30 1265 C 125.388 -1.50864 1.41589 0
M  V30 1266 C 125.803 -1.88794 0.0145275 0
M  V30 1267 O 125.16 -1.55174 -0.960594 0
M  V30 1268 C 125.211 -2.78646 2.30302 0
M  V30 1269 O 124.932 -2.42321 3.64983 0
M  V30 1270 C 126.433 -3.72569 2.40224 0
M  V30 1271 H 123.653 -0.465709 0.48307 0
M  V30 1272 H 126.197 -0.88785 1.84221 0
M  V30 1273 H 124.352 -3.37019 1.91042 0
M  V30 1274 H 124.766 -3.24514 4.12057 0
M  V30 1275 H 126.24 -4.5908 3.06512 0
M  V30 1276 H 126.717 -4.15403 1.42608 0
M  V30 1277 H 127.323 -3.20109 2.80019 0
M  V30 1278 N 125.638 -1.25649 -0.95132 0
M  V30 1279 C 126.601 -1.06399 -2.03007 0
M  V30 1280 C 127.601 -0.0156794 -1.60792 0
M  V30 1281 O 128.791 -0.25817 -1.72276 0
M  V30 1282 C 125.923 -0.616184 -3.35285 0
M  V30 1283 H 127.116 -2.02164 -2.21517 0
M  V30 1284 H 124.669 -1.08103 -1.12887 0
M  V30 1285 H 125.404 0.343917 -3.22471 0
M  V30 1286 H 125.189 -1.37301 -3.67275 0
M  V30 1287 H 126.679 -0.503032 -4.14559 0
M  V30 1288 N 127.117 1.15442 -1.07289 0
M  V30 1289 C 128.533 1.38201 -0.798288 0
M  V30 1290 C 128.733 1.92429 0.597769 0
M  V30 1291 O 127.789 2.12962 1.3566 0
M  V30 1292 C 129.102 2.35357 -1.87156 0
M  V30 1293 C 130.65 2.49021 -1.89624 0
M  V30 1294 C 131.125 3.49468 -2.96034 0
M  V30 1295 N 132.616 3.57003 -2.95132 0
M  V30 1296 C 133.351 4.34543 -3.74112 0
M  V30 1297 N 132.847 5.15421 -4.6294 0
M  V30 1298 N 134.64 4.29625 -3.62462 0
M  V30 1299 H 126.791 0.78584 -1.97328 0
M  V30 1300 H 129.054 0.408065 -0.855679 0
M  V30 1301 H 128.76 2.02626 -2.87464 0
M  V30 1302 H 128.634 3.35129 -1.73114 0
M  V30 1303 H 131.021 2.81051 -0.899687 0
M  V30 1304 H 131.102 1.4925 -2.07745 0
M  V30 1305 H 130.746 3.18173 -3.95889 0
M  V30 1306 H 130.676 4.48992 -2.75161 0
M  V30 1307 H 133.167 2.99276 -2.30743 0
M  V30 1308 H 133.48 5.7183 -5.19837 0
M  V30 1309 H 131.825 5.14729 -4.66989 0
M  V30 1310 H 135.016 3.65505 -2.92444 0
M  V30 1311 H 135.189 4.89807 -4.24256 0
M  V30 1312 N 128.595 0.856903 1.32268 0
M  V30 1313 C 129.528 0.247937 2.26849 0
M  V30 1314 C 130.506 -0.615382 1.50505 0
M  V30 1315 O 131.69 -0.571689 1.79622 0
M  V30 1316 C 128.817 -0.650093 3.32403 0
M  V30 1317 C 127.863 0.140138 4.2627 0
M  V30 1318 S 128.696 1.51004 5.13769 0
M  V30 1319 C 129.852 0.61778 6.22844 0
M  V30 1320 H 130.085 1.04971 2.78152 0
M  V30 1321 H 127.618 0.654665 1.39834 0
M  V30 1322 H 129.576 -1.16256 3.93694 0
M  V30 1323 H 128.237 -1.4257 2.7988 0
M  V30 1324 H 127.43 -0.543945 5.01056 0
M  V30 1325 H 127.032 0.584267 3.69408 0
M  V30 1326 H 129.324 -0.177053 6.77269 0
M  V30 1327 H 130.267 1.33636 6.95375 0
M  V30 1328 H 130.675 0.191124 5.64176 0
M  V30 1329 N 130.073 -1.45103 0.615059 0
M  V30 1330 C 131.322 -2.01396 0.110718 0
M  V30 1331 C 131.635 -1.48834 -1.26916 0
M  V30 1332 O 132.841 -1.97152 -1.86664 0
M  V30 1333 C 131.297 -3.59599 0.14723 0
M  V30 1334 C 130.905 -4.21158 1.52743 0
M  V30 1335 C 132.649 -4.23428 -0.30148 0
M  V30 1336 C 130.556 -5.71535 1.51992 0
M  V30 1337 H 129.486 -0.753061 0.0376241 0
M  V30 1338 H 132.137 -1.66494 0.77149 0
M  V30 1339 H 130.519 -3.91724 -0.580339 0
M  V30 1340 H 131.693 -4.00594 2.2773 0
M  V30 1341 H 130.008 -3.69552 1.91886 0
M  V30 1342 H 132.605 -5.33703 -0.326392 0
M  V30 1343 H 132.948 -3.94629 -1.32565 0
M  V30 1344 H 133.481 -3.96047 0.373065 0
M  V30 1345 H 130.22 -6.05044 2.52193 0
M  V30 1346 H 129.74 -5.94268 0.81274 0
M  V30 1347 H 131.419 -6.34873 1.24681 0
M  V30 1348 N 131.551 -0.354651 -1.53558 0
M  V30 1349 C 132.514 0.484566 -2.24019 0
M  V30 1350 C 133.514 1.01861 -1.24422 0
M  V30 1351 O 134.704 0.906097 -1.4878 0
M  V30 1352 C 131.836 1.67615 -2.96847 0
M  V30 1353 H 133.029 -0.131843 -2.9961 0
M  V30 1354 H 130.582 -0.106165 -1.55939 0
M  V30 1355 H 131.317 2.33095 -2.25471 0
M  V30 1356 H 131.102 1.30029 -3.69912 0
M  V30 1357 H 132.592 2.27114 -3.50441 0
M  V30 1358 N 133.029 1.57378 -0.0835403 0
M  V30 1359 C 134.276 1.9393 0.58287 0
M  V30 1360 C 134.604 0.964455 1.68904 0
M  V30 1361 O 133.859 -0.0179474 1.95692 0
M  V30 1362 C 134.158 3.37063 1.1884 0
M  V30 1363 C 133.824 4.50424 0.207194 0
M  V30 1364 C 132.486 4.81159 -0.0627115 0
M  V30 1365 C 134.838 5.19136 -0.463426 0
M  V30 1366 C 132.166 5.77939 -1.01012 0
M  V30 1367 C 134.518 6.16931 -1.39924 0
M  V30 1368 C 133.182 6.46078 -1.67749 0
M  V30 1369 H 132.452 0.70964 0.213287 0
M  V30 1370 H 135.099 1.90856 -0.156916 0
M  V30 1371 H 133.404 3.3666 2.00418 0
M  V30 1372 H 135.101 3.6264 1.71153 0
M  V30 1373 H 131.691 4.2646 0.427747 0
M  V30 1374 H 135.875 4.95576 -0.268034 0
M  V30 1375 H 131.131 5.98842 -1.23283 0
M  V30 1376 H 135.305 6.69273 -1.92476 0
M  V30 1377 H 132.932 7.2088 -2.41321 0
M  V30 1378 N 134.507 -0.190092 1.56449 0
M  V30 1379 C 135.47 -1.21925 1.9408 0
M  V30 1380 C 136.47 -1.38176 0.822431 0
M  V30 1381 O 137.66 -1.35903 1.08977 0
M  V30 1382 C 134.792 -2.58773 2.21922 0
M  V30 1383 H 135.985 -0.897464 2.86157 0
M  V30 1384 H 133.538 -0.43181 1.50217 0
M  V30 1385 H 134.273 -2.95998 1.32499 0
M  V30 1386 H 134.058 -2.48348 3.03424 0
M  V30 1387 H 135.548 -3.32978 2.52022 0
M  V30 1388 N 135.985 -1.50799 -0.457987 0
M  V30 1389 C 136.918 -1.65273 -1.57353 0
M  V30 1390 C 137.896 -0.500578 -1.54703 0
M  V30 1391 O 139.08 -0.721781 -1.74134 0
M  V30 1392 C 136.207 -1.64737 -2.95938 0
M  V30 1393 C 135.253 -2.8567 -3.16693 0
M  V30 1394 S 136.086 -4.46791 -2.95191 0
M  V30 1395 C 137.242 -4.48968 -4.36095 0
M  V30 1396 H 137.475 -2.59633 -1.44838 0
M  V30 1397 H 135.008 -1.40225 -0.64625 0
M  V30 1398 H 136.966 -1.65112 -3.7583 0
M  V30 1399 H 135.627 -0.715899 -3.05833 0
M  V30 1400 H 134.82 -2.81637 -4.17967 0
M  V30 1401 H 134.422 -2.8293 -2.44594 0
M  V30 1402 H 136.714 -4.23337 -5.28954 0
M  V30 1403 H 137.657 -5.50664 -4.45168 0
M  V30 1404 H 138.065 -3.78522 -4.18786 0
M  V30 1405 N 137.463 0.71206 -1.40597 0
M  V30 1406 C 138.426 1.80785 -1.40888 0
M  V30 1407 C 139.426 1.57937 -0.302103 0
M  V30 1408 O 140.616 1.64913 -0.561182 0
M  V30 1409 C 137.748 3.18927 -1.20409 0
M  V30 1410 H 138.941 1.81924 -2.38419 0
M  V30 1411 H 136.494 0.91805 -1.26497 0
M  V30 1412 H 137.229 3.23436 -0.236522 0
M  V30 1413 H 137.014 3.36911 -2.00582 0
M  V30 1414 H 138.504 3.98949 -1.23408 0
M  V30 1415 N 138.941 1.26152 0.944643 0
M  V30 1416 C 139.871 1.09902 2.06019 0
M  V30 1417 C 140.852 0.00519538 1.70099 0
M  V30 1418 O 142.037 0.176583 1.93396 0
M  V30 1419 C 139.167 0.727562 3.39594 0
M  V30 1420 C 138.121 1.77274 3.89561 0
M  V30 1421 C 137.447 1.25569 5.19747 0
M  V30 1422 C 138.747 3.17357 4.14827 0
M  V30 1423 H 140.441 2.03217 2.19871 0
M  V30 1424 H 137.987 0.978452 1.05652 0
M  V30 1425 H 139.94 0.600777 4.17095 0
M  V30 1426 H 138.664 -0.241287 3.25707 0
M  V30 1427 H 137.323 1.88814 3.14237 0
M  V30 1428 H 136.971 0.276783 5.02238 0
M  V30 1429 H 136.671 1.95433 5.54148 0
M  V30 1430 H 138.195 1.1415 5.99835 0
M  V30 1431 H 139.609 3.08914 4.82954 0
M  V30 1432 H 138.006 3.84781 4.60504 0
M  V30 1433 H 139.076 3.63673 3.20734 0
M  V30 1434 N 140.419 -1.14872 1.07899 0
M  V30 1435 C 141.349 -2.2193 0.725887 0
M  V30 1436 C 142.33 -1.67622 -0.28927 0
M  V30 1437 O 143.515 -1.93533 -0.160787 0
M  V30 1438 C 140.645 -3.47061 0.128856 0
M  V30 1439 C 139.599 -4.14363 1.07178 0
M  V30 1440 C 138.925 -5.33636 0.337229 0
M  V30 1441 C 140.225 -4.63492 2.40775 0
M  V30 1442 H 141.919 -2.51724 1.62097 0
M  V30 1443 H 139.465 -1.20991 0.780838 0
M  V30 1444 H 141.418 -4.21199 -0.130147 0
M  V30 1445 H 140.142 -3.16617 -0.80134 0
M  V30 1446 H 138.801 -3.42173 1.3158 0
M  V30 1447 H 138.449 -4.99449 -0.596606 0
M  V30 1448 H 138.149 -5.79609 0.965788 0
M  V30 1449 H 139.673 -6.10539 0.0861567 0
M  V30 1450 H 141.087 -5.2913 2.20669 0
M  V30 1451 H 139.484 -5.20148 2.99276 0
M  V30 1452 H 140.554 -3.78834 3.02676 0
M  V30 1453 N 141.898 -0.863906 -1.31812 0
M  V30 1454 C 143.146 -0.470904 -1.96537 0
M  V30 1455 C 143.467 0.978771 -1.68657 0
M  V30 1456 O 142.737 1.6853 -0.998717 0
M  V30 1457 H 141.317 -0.171148 -0.72713 0
M  V30 1458 H 143.979 -1.10236 -1.60729 0
M  V30 1459 H 143.075 -0.623616 -3.05806 0
M  V30 1460 N 143.376 1.44774 -0.622745 0
M  V30 1461 C 144.616 2.04004 -0.127102 0
M  V30 1462 C 144.98 1.47862 1.22478 0
M  V30 1463 O 146.181 1.98541 1.81204 0
M  V30 1464 C 144.452 3.57247 -0.104429 0
M  V30 1465 S 146.011 4.37574 0.327814 0
M  V30 1466 H 142.829 0.708713 -0.0569776 0
M  V30 1467 H 145.431 1.77275 -0.824253 0
M  V30 1468 H 144.135 3.95616 -1.09159 0
M  V30 1469 H 143.666 3.88575 0.614236 0
M  V30 1470 H 145.681 4.70575 1.57395 0
M  V30 1471 N 144.854 0.36279 1.53368 0
M  V30 1472 C 146.1 -0.228113 2.01513 0
M  V30 1473 C 146.433 -1.48648 1.2497 0
M  V30 1474 O 145.708 -1.91459 0.342616 0
M  V30 1475 C 145.991 -0.522884 3.56284 0
M  V30 1476 C 145.844 0.74892 4.43521 0
M  V30 1477 C 147.163 -1.32461 4.19693 0
M  V30 1478 H 144.282 -0.0814343 0.732487 0
M  V30 1479 H 146.924 0.48713 1.83649 0
M  V30 1480 H 145.074 -1.1322 3.71636 0
M  V30 1481 H 146.746 1.38648 4.39971 0
M  V30 1482 H 144.989 1.36986 4.11603 0
M  V30 1483 H 145.66 0.497667 5.49752 0
M  V30 1484 H 148.136 -0.809203 4.08156 0
M  V30 1485 H 147.012 -1.49961 5.28018 0
M  V30 1486 H 147.273 -2.33232 3.75573 0
M  V30 1487 N 146.332 -1.57332 0.0918853 0
M  V30 1488 C 147.262 -2.16872 -0.865371 0
M  V30 1489 C 148.243 -1.10118 -1.29646 0
M  V30 1490 O 149.428 -1.38242 -1.36392 0
M  V30 1491 C 146.558 -2.74649 -2.12569 0
M  V30 1492 C 145.512 -3.86747 -1.83333 0
M  V30 1493 C 144.838 -4.31212 -3.16166 0
M  V30 1494 C 146.138 -5.10089 -1.1228 0
M  V30 1495 H 147.832 -2.97114 -0.369307 0
M  V30 1496 H 145.378 -1.42918 -0.176194 0
M  V30 1497 H 147.331 -3.14952 -2.7997 0
M  V30 1498 H 146.055 -1.91657 -2.64452 0
M  V30 1499 H 144.714 -3.46978 -1.18331 0
M  V30 1500 H 144.362 -3.45115 -3.6593 0
M  V30 1501 H 144.062 -5.06788 -2.97388 0
M  V30 1502 H 145.586 -4.74146 -3.84731 0
M  V30 1503 H 147 -5.47582 -1.69785 0
M  V30 1504 H 145.397 -5.91073 -1.03693 0
M  V30 1505 H 146.467 -4.84786 -0.105041 0
M  V30 1506 N 147.81 0.181792 -1.56548 0
M  V30 1507 C 149.059 0.898348 -1.8059 0
M  V30 1508 C 149.372 1.83862 -0.667379 0
M  V30 1509 O 150.578 2.59678 -0.792446 0
M  V30 1510 C 149.034 1.64791 -3.19956 0
M  V30 1511 C 148.642 0.751789 -4.41647 0
M  V30 1512 C 150.386 2.35331 -3.53298 0
M  V30 1513 C 148.293 1.50098 -5.72035 0
M  V30 1514 H 147.223 0.339194 -0.673397 0
M  V30 1515 H 149.874 0.151413 -1.82874 0
M  V30 1516 H 148.256 2.43921 -3.11959 0
M  V30 1517 H 149.43 -0.0018076 -4.608 0
M  V30 1518 H 147.745 0.156562 -4.16106 0
M  V30 1519 H 150.342 2.91958 -4.47956 0
M  V30 1520 H 150.685 3.10164 -2.77676 0
M  V30 1521 H 151.218 1.63154 -3.62803 0
M  V30 1522 H 147.957 0.795175 -6.50659 0
M  V30 1523 H 147.477 2.22817 -5.56878 0
M  V30 1524 H 149.156 2.05125 -6.13622 0
M  V30 1525 N 149.288 1.51039 0.449983 0
M  V30 1526 C 150.221 1.66105 1.56474 0
M  V30 1527 C 151.199 0.508776 1.54435 0
M  V30 1528 O 152.383 0.731005 1.73749 0
M  V30 1529 C 149.51 1.66304 2.9506 0
M  V30 1530 C 148.556 2.87346 3.15174 0
M  V30 1531 S 149.389 4.4835 2.92818 0
M  V30 1532 C 150.545 4.51274 4.33708 0
M  V30 1533 H 150.778 2.60397 1.43459 0
M  V30 1534 H 148.311 1.40565 0.638805 0
M  V30 1535 H 150.269 1.67103 3.74949 0
M  V30 1536 H 148.93 0.732108 3.05449 0
M  V30 1537 H 148.123 2.83849 4.16468 0
M  V30 1538 H 147.725 2.84223 2.43091 0
M  V30 1539 H 150.017 4.26136 5.26701 0
M  V30 1540 H 150.96 5.53017 4.42242 0
M  V30 1541 H 151.368 3.80738 4.16772 0
M  V30 1542 N 150.766 -0.704594 1.40972 0
M  V30 1543 C 151.996 -1.49138 1.42974 0
M  V30 1544 C 152.404 -1.89175 0.0308406 0
M  V30 1545 O 151.747 -1.56734 -0.958138 0
M  V30 1546 C 151.809 -2.79016 2.26694 0
M  V30 1547 C 151.473 -2.61236 3.74973 0
M  V30 1548 C 152.47 -2.27773 4.67349 0
M  V30 1549 C 150.155 -2.77158 4.18914 0
M  V30 1550 C 152.149 -2.10457 6.01653 0
M  V30 1551 C 149.836 -2.59459 5.53285 0
M  V30 1552 C 150.834 -2.26158 6.4447 0
M  V30 1553 O 150.522 -2.08605 7.76363 0
M  V30 1554 H 150.254 -0.466443 0.489292 0
M  V30 1555 H 152.808 -0.8758 1.85793 0
M  V30 1556 H 151.038 -3.42947 1.78673 0
M  V30 1557 H 152.727 -3.40782 2.20504 0
M  V30 1558 H 153.493 -2.15095 4.34694 0
M  V30 1559 H 149.372 -3.02064 3.48251 0
M  V30 1560 H 152.916 -1.84387 6.72791 0
M  V30 1561 H 148.813 -2.71725 5.85522 0
M  V30 1562 H 149.581 -2.23439 7.87412 0
M  V30 1563 N 152.244 -1.26651 -0.937939 0
M  V30 1564 C 153.191 -1.0849 -2.03712 0
M  V30 1565 C 154.161 0.011033 -1.66096 0
M  V30 1566 O 155.346 -0.149353 -1.90215 0
M  V30 1567 C 152.486 -0.72735 -3.37348 0
M  V30 1568 C 151.599 -1.89986 -3.87981 0
M  V30 1569 C 150.734 -1.48513 -5.10017 0
M  V30 1570 C 149.773 -2.62575 -5.5292 0
M  V30 1571 N 148.91 -2.21762 -6.66158 0
M  V30 1572 H 153.75 -2.02551 -2.18579 0
M  V30 1573 H 151.287 -1.00844 -1.07093 0
M  V30 1574 H 153.245 -0.50092 -4.14182 0
M  V30 1575 H 151.875 0.176298 -3.22318 0
M  V30 1576 H 150.927 -2.23913 -3.07518 0
M  V30 1577 H 152.239 -2.75586 -4.15757 0
M  V30 1578 H 151.393 -1.21934 -5.94321 0
M  V30 1579 H 150.132 -0.60009 -4.83994 0
M  V30 1580 H 149.137 -2.8988 -4.67172 0
M  V30 1581 H 150.362 -3.51685 -5.80943 0
M  V30 1582 H 148.308 -1.35696 -6.41812 0
M  V30 1583 H 148.225 -3.00903 -6.93537 0
M  V30 1584 H 149.493 -1.98403 -7.53828 0
M  V30 1585 N 153.722 1.14298 -1.08507 0
M  V30 1586 C 154.685 2.17607 -0.719711 0
M  V30 1587 C 155.685 1.58907 0.245997 0
M  V30 1588 O 156.875 1.74181 0.0254081 0
M  V30 1589 C 154.007 3.40842 -0.0627695 0
M  V30 1590 H 155.2 2.51443 -1.63452 0
M  V30 1591 H 152.753 1.28963 -0.88307 0
M  V30 1592 H 153.488 3.12587 0.863716 0
M  V30 1593 H 153.273 3.84713 -0.757504 0
M  V30 1594 H 154.763 4.17221 0.177786 0
M  V30 1595 N 155.201 0.870884 1.31352 0
M  V30 1596 C 156.45 0.478408 1.95944 0
M  V30 1597 C 156.763 -0.974493 1.69597 0
M  V30 1598 O 157.969 -1.47316 2.28058 0
M  V30 1599 C 156.425 0.804609 3.50791 0
M  V30 1600 C 156.033 2.27433 3.85977 0
M  V30 1601 C 157.777 0.480648 4.2177 0
M  V30 1602 C 155.684 2.5429 5.33939 0
M  V30 1603 H 154.614 0.175175 0.733369 0
M  V30 1604 H 157.265 1.06391 1.4951 0
M  V30 1605 H 155.647 0.148347 3.95722 0
M  V30 1606 H 156.821 2.97373 3.52002 0
M  V30 1607 H 155.136 2.56442 3.28065 0
M  V30 1608 H 157.733 0.658519 5.30629 0
M  V30 1609 H 158.076 -0.578979 4.12254 0
M  V30 1610 H 158.609 1.09349 3.82476 0
M  V30 1611 H 155.348 3.58939 5.48491 0
M  V30 1612 H 154.868 1.88945 5.69263 0
M  V30 1613 H 156.547 2.39066 6.01212 0
M  V30 1614 N 156.679 -1.44442 0.630414 0
M  V30 1615 C 157.925 -2.02894 0.143332 0
M  V30 1616 C 158.28 -1.48697 -1.22094 0
M  V30 1617 O 157.573 -0.661171 -1.79831 0
M  V30 1618 C 157.767 -3.57332 0.0697835 0
M  V30 1619 C 157.596 -4.26512 1.42539 0
M  V30 1620 C 156.366 -4.63516 2.01198 0
M  V30 1621 C 158.564 -4.57004 2.35907 0
M  V30 1622 N 156.546 -5.17661 3.30001 0
M  V30 1623 C 157.917 -5.12223 3.49324 0
M  V30 1624 C 159.972 -4.38955 2.34995 0
M  V30 1625 C 158.675 -5.51295 4.62024 0
M  V30 1626 C 160.701 -4.79075 3.46758 0
M  V30 1627 C 160.063 -5.34407 4.58899 0
M  V30 1628 H 156.162 -0.776041 0.0963523 0
M  V30 1629 H 158.746 -1.75945 0.833752 0
M  V30 1630 H 156.917 -3.83894 -0.589915 0
M  V30 1631 H 158.649 -4.02451 -0.42606 0
M  V30 1632 H 155.404 -4.47811 1.54151 0
M  V30 1633 H 155.828 -5.4921 3.95851 0
M  V30 1634 H 160.47 -3.95469 1.49545 0
M  V30 1635 H 158.188 -5.93736 5.48182 0
M  V30 1636 H 161.774 -4.66824 3.47227 0
M  V30 1637 H 160.654 -5.64878 5.4395 0
M  V30 1638 N 158.157 -0.370918 -1.53173 0
M  V30 1639 C 159.387 0.217389 -2.05453 0
M  V30 1640 C 159.795 1.42568 -1.24382 0
M  V30 1641 O 159.138 1.81571 -0.278839 0
M  V30 1642 C 159.2 0.669827 -3.53205 0
M  V30 1643 C 158.864 -0.4225 -4.55043 0
M  V30 1644 C 159.861 -1.27407 -5.04047 0
M  V30 1645 C 157.546 -0.58427 -4.9889 0
M  V30 1646 C 159.54 -2.27271 -5.95505 0
M  V30 1647 C 157.227 -1.58627 -5.90153 0
M  V30 1648 C 158.225 -2.42892 -6.38351 0
M  V30 1649 O 157.913 -3.41382 -7.27814 0
M  V30 1650 H 157.645 0.0408171 -0.674767 0
M  V30 1651 H 160.199 -0.5292 -1.98466 0
M  V30 1652 H 158.429 1.4681 -3.57748 0
M  V30 1653 H 160.118 1.18173 -3.88317 0
M  V30 1654 H 160.884 -1.16031 -4.70916 0
M  V30 1655 H 156.763 0.061851 -4.60959 0
M  V30 1656 H 160.307 -2.93079 -6.33049 0
M  V30 1657 H 156.204 -1.70048 -6.22699 0
M  V30 1658 H 156.972 -3.37173 -7.45826 0
M  V30 1659 N 159.635 1.57281 -0.100228 0
M  V30 1660 C 160.912 1.86014 0.604812 0
M  V30 1661 C 161.292 0.998025 1.86018 0
M  V30 1662 O 160.64 0.0718184 2.28387 0
M  V30 1663 C 160.85 3.36784 0.915278 0
M  V30 1664 C 162.198 4.04957 1.27651 0
M  V30 1665 O 163.222 3.41695 1.00613 0
M  V30 1666 O 162.081 5.16593 1.7831 0
M  V30 1667 H 159.175 0.76942 0.303185 0
M  V30 1668 H 161.721 1.69176 -0.133313 0
M  V30 1669 H 160.493 3.91292 0.0248896 0
M  V30 1670 H 160.116 3.58987 1.70921 0
M  V30 1671 N 161.113 -0.173488 1.56642 0
M  V30 1672 C 162.045 -1.23935 1.92802 0
M  V30 1673 C 163.058 -1.40589 0.820889 0
M  V30 1674 O 164.247 -1.40631 1.09933 0
M  V30 1675 C 161.347 -2.60837 2.16373 0
M  V30 1676 C 160.52 -2.6551 3.47596 0
M  V30 1677 C 159.579 -3.8376 3.60021 0
M  V30 1678 O 158.605 -3.69859 4.32658 0
M  V30 1679 N 159.807 -5.00127 2.94709 0
M  V30 1680 H 162.572 -0.932236 2.84832 0
M  V30 1681 H 160.133 -0.363268 1.57772 0
M  V30 1682 H 162.125 -3.38407 2.21952 0
M  V30 1683 H 160.695 -2.83948 1.30738 0
M  V30 1684 H 159.915 -1.74052 3.53694 0
M  V30 1685 H 161.203 -2.65641 4.33949 0
M  V30 1686 H 160.601 -5.14322 2.35563 0
M  V30 1687 H 159.158 -5.75567 3.05886 0
M  V30 1688 N 162.591 -1.51276 -0.441967 0
M  V30 1689 C 163.838 -1.63715 -1.19179 0
M  V30 1690 C 164.166 -0.351175 -1.91303 0
M  V30 1691 O 163.421 0.664524 -1.84072 0
M  V30 1692 C 163.72 -2.78746 -2.23686 0
M  V30 1693 C 163.386 -4.18189 -1.68607 0
M  V30 1694 C 162.048 -4.56125 -1.53308 0
M  V30 1695 C 164.4 -5.05222 -1.28062 0
M  V30 1696 C 161.728 -5.78804 -0.959317 0
M  V30 1697 C 164.08 -6.28476 -0.721162 0
M  V30 1698 C 162.744 -6.65188 -0.55504 0
M  V30 1699 H 162.014 -0.599076 -0.436106 0
M  V30 1700 H 164.661 -1.85296 -0.48351 0
M  V30 1701 H 162.966 -2.51369 -3.00535 0
M  V30 1702 H 164.663 -2.8557 -2.81515 0
M  V30 1703 H 161.253 -3.88277 -1.8149 0
M  V30 1704 H 165.437 -4.76524 -1.38704 0
M  V30 1705 H 160.693 -6.05899 -0.81833 0
M  V30 1706 H 164.867 -6.95259 -0.398458 0
M  V30 1707 H 162.494 -7.60123 -0.108311 0
M  V30 1708 N 164.069 0.697108 -1.41344 0
M  V30 1709 C 165.297 1.48593 -1.43972 0
M  V30 1710 C 165.712 1.88747 -0.0445612 0
M  V30 1711 O 165.069 1.56682 0.935785 0
M  V30 1712 C 165.12 2.74946 -2.34706 0
M  V30 1713 O 164.841 2.36484 -3.68791 0
M  V30 1714 C 166.342 3.687 -2.46121 0
M  V30 1715 H 163.562 0.457964 -0.490418 0
M  V30 1716 H 166.106 0.858429 -1.8561 0
M  V30 1717 H 164.261 3.33937 -1.9638 0
M  V30 1718 H 164.675 3.17918 -4.17167 0
M  V30 1719 H 166.149 4.54145 -3.13777 0
M  V30 1720 H 166.626 4.13081 -1.49199 0
M  V30 1721 H 167.232 3.15613 -2.85076 0
M  V30 1722 N 165.547 1.27147 0.931209 0
M  V30 1723 C 166.787 1.14511 1.69312 0
M  V30 1724 C 167.151 -0.304638 1.89568 0
M  V30 1725 O 168.352 -0.553343 2.63043 0
M  V30 1726 C 166.623 1.90349 3.02493 0
M  V30 1727 S 168.182 1.93884 3.93642 0
M  V30 1728 H 165 0.408858 0.581684 0
M  V30 1729 H 167.602 1.61006 1.10893 0
M  V30 1730 H 166.306 2.94877 2.85439 0
M  V30 1731 H 165.837 1.44333 3.65966 0
M  V30 1732 H 167.852 1.03273 4.85334 0
M  V30 1733 N 167.025 -1.13721 1.09112 0
M  V30 1734 C 168.436 -1.6648 0.845068 0
M  V30 1735 C 168.787 -1.85911 -0.62701 0
M  V30 1736 O 167.912 -1.57556 -1.48341 0
M  V30 1737 C 168.507 -3.02413 1.52748 0
M  V30 1738 C 167.066 -3.52176 1.32849 0
M  V30 1739 C 166.213 -2.27492 1.58564 0
M  V30 1740 H 169.164 -0.976872 1.25072 0
M  V30 1741 H 169.185 -3.68223 0.958752 0
M  V30 1742 H 168.697 -2.88238 2.59885 0
M  V30 1743 H 166.798 -3.7156 0.278137 0
M  V30 1744 H 166.911 -4.32499 2.0611 0
M  V30 1745 H 165.275 -2.33923 1.00758 0
M  V30 1746 H 166.058 -2.15886 2.66924 0
M  V30 1747 N 168.503 -0.877838 -1.30888 0
M  V30 1748 C 169.78 -0.413052 -1.91189 0
M  V30 1749 C 170.16 1.1056 -1.79832 0
M  V30 1750 O 169.508 1.93771 -1.21099 0
M  V30 1751 C 169.718 -0.903191 -3.3711 0
M  V30 1752 C 171.066 -0.93395 -4.14201 0
M  V30 1753 O 172.09 -0.849373 -3.45925 0
M  V30 1754 O 170.949 -1.05772 -5.36167 0
M  V30 1755 H 168.043 -0.125035 -0.817493 0
M  V30 1756 H 170.589 -0.966269 -1.39504 0
M  V30 1757 H 169.361 -1.94692 -3.39427 0
M  V30 1758 H 168.984 -0.328732 -3.96239 0
M  V30 1759 N 169.982 1.44106 -0.638065 0
M  V30 1760 C 171.23 2.01579 -0.145043 0
M  V30 1761 C 171.551 1.50496 1.24 0
M  V30 1762 O 170.821 0.711374 1.82527 0
M  V30 1763 H 169.401 0.745282 -0.05063 0
M  V30 1764 H 172.063 1.76516 -0.826327 0
M  V30 1765 H 171.159 3.11877 -0.118039 0
M  V30 1766 N 171.46 0.379036 1.52974 0
M  V30 1767 C 172.707 -0.206421 2.01445 0
M  V30 1768 C 173.035 -1.47668 1.26587 0
M  V30 1769 O 172.29 -1.92514 0.351675 0
M  V30 1770 C 172.589 -0.53096 3.53434 0
M  V30 1771 C 172.255 0.646546 4.46241 0
M  V30 1772 C 170.917 0.969604 4.7133 0
M  V30 1773 C 173.269 1.43479 5.01062 0
M  V30 1774 C 170.597 2.08263 5.48492 0
M  V30 1775 C 172.949 2.53834 5.7944 0
M  V30 1776 C 171.613 2.86659 6.02812 0
M  V30 1777 H 170.883 -0.0755349 0.73714 0
M  V30 1778 H 173.53 0.514271 1.84465 0
M  V30 1779 H 171.835 -1.33285 3.68432 0
M  V30 1780 H 173.532 -0.996417 3.88423 0
M  V30 1781 H 170.122 0.384734 4.2687 0
M  V30 1782 H 174.306 1.19844 4.81613 0
M  V30 1783 H 169.562 2.34078 5.64816 0
M  V30 1784 H 173.736 3.15319 6.20924 0
M  V30 1785 H 171.363 3.73026 6.62387 0
M  V30 1786 N 172.938 -1.57226 0.108567 0
M  V30 1787 C 173.868 -2.17778 -0.84232 0
M  V30 1788 C 174.849 -1.11487 -1.2847 0
M  V30 1789 O 176.034 -1.39681 -1.34918 0
M  V30 1790 C 173.164 -2.76888 -2.09644 0
M  V30 1791 C 172.118 -3.88669 -1.79221 0
M  V30 1792 C 171.444 -4.34541 -3.11574 0
M  V30 1793 C 172.744 -5.11251 -1.06864 0
M  V30 1794 H 174.438 -2.97489 -0.337774 0
M  V30 1795 H 171.984 -1.43097 -0.161025 0
M  V30 1796 H 173.937 -3.17904 -2.76614 0
M  V30 1797 H 172.661 -1.94451 -2.62405 0
M  V30 1798 H 171.32 -3.48213 -1.14644 0
M  V30 1799 H 170.968 -3.48977 -3.62249 0
M  V30 1800 H 170.668 -5.09914 -2.91996 0
M  V30 1801 H 172.192 -4.782 -3.7968 0
M  V30 1802 H 173.606 -5.49352 -1.63968 0
M  V30 1803 H 172.003 -5.9214 -0.974178 0
M  V30 1804 H 173.073 -4.8487 -0.0536168 0
M  V30 1805 N 174.416 0.165178 -1.56732 0
M  V30 1806 C 175.346 1.20651 -1.99914 0
M  V30 1807 C 176.327 1.45827 -0.875705 0
M  V30 1808 O 177.512 1.57057 -1.14223 0
M  V30 1809 C 174.642 2.54401 -2.36427 0
M  V30 1810 C 173.596 2.43782 -3.51787 0
M  V30 1811 C 172.922 3.82078 -3.7406 0
M  V30 1812 C 174.222 1.93732 -4.85041 0
M  V30 1813 H 175.916 0.847534 -2.87154 0
M  V30 1814 H 173.462 0.40625 -1.38151 0
M  V30 1815 H 175.415 3.27458 -2.65234 0
M  V30 1816 H 174.139 2.92098 -1.46103 0
M  V30 1817 H 172.798 1.73178 -3.23117 0
M  V30 1818 H 172.446 4.17179 -2.81017 0
M  V30 1819 H 172.146 3.7584 -4.51684 0
M  V30 1820 H 173.67 4.56712 -4.05274 0
M  V30 1821 H 175.084 2.56569 -5.12684 0
M  V30 1822 H 173.481 1.98428 -5.66345 0
M  V30 1823 H 174.551 0.891962 -4.76626 0
M  V30 1824 N 175.894 1.51508 0.433938 0
M  V30 1825 C 177.31 1.39759 0.770682 0
M  V30 1826 C 177.51 0.482594 1.95636 0
M  V30 1827 O 176.566 -0.0609691 2.52426 0
M  V30 1828 C 177.879 2.81851 1.04787 0
M  V30 1829 C 179.427 2.91025 1.1521 0
M  V30 1830 C 179.902 4.34032 1.46219 0
M  V30 1831 N 181.393 4.37154 1.53136 0
M  V30 1832 C 182.128 5.4484 1.78709 0
M  V30 1833 N 181.624 6.62682 2.02051 0
M  V30 1834 N 183.417 5.32324 1.80519 0
M  V30 1835 H 175.568 2.09548 -0.346892 0
M  V30 1836 H 177.831 0.943446 -0.0928074 0
M  V30 1837 H 177.537 3.50815 0.249304 0
M  V30 1838 H 177.411 3.21386 1.97461 0
M  V30 1839 H 179.798 2.22257 1.94128 0
M  V30 1840 H 179.879 2.54983 0.204281 0
M  V30 1841 H 179.523 5.03351 0.678274 0
M  V30 1842 H 179.453 4.6759 2.42212 0
M  V30 1843 H 181.944 3.52197 1.36987 0
M  V30 1844 H 182.257 7.40543 2.20943 0
M  V30 1845 H 180.602 6.65791 1.99366 0
M  V30 1846 H 183.793 4.39246 1.61805 0
M  V30 1847 H 183.966 6.16328 2.00111 0
M  V30 1848 N 177.372 -0.689602 1.41712 0
M  V30 1849 C 178.322 -1.79571 1.40493 0
M  V30 1850 C 179.306 -1.58473 0.278409 0
M  V30 1851 O 180.498 -1.69204 0.519532 0
M  V30 1852 C 177.627 -3.17923 1.29536 0
M  V30 1853 C 176.713 -3.44695 2.47075 0
M  V30 1854 N 177.104 -3.42132 3.72531 0
M  V30 1855 C 175.402 -3.75269 2.41017 0
M  V30 1856 C 176.103 -3.67976 4.50521 0
M  V30 1857 N 175.079 -3.88014 3.80718 0
M  V30 1858 H 178.881 -1.75961 2.35404 0
M  V30 1859 H 176.395 -0.889839 1.35851 0
M  V30 1860 H 178.392 -3.97167 1.26745 0
M  V30 1861 H 177.052 -3.22741 0.356153 0
M  V30 1862 H 178.063 -3.22375 4.05333 0
M  V30 1863 H 174.74 -3.87421 1.55599 0
M  V30 1864 H 176.13 -3.7208 5.59469 0
M  V30 1865 N 178.85 -1.27639 -0.924453 0
M  V30 1866 C 179.797 -1.10644 -2.0255 0
M  V30 1867 C 180.767 -0.00658438 -1.66099 0
M  V30 1868 O 181.952 -0.16952 -1.90045 0
M  V30 1869 C 179.092 -0.76309 -3.36557 0
M  V30 1870 C 178.205 -1.94091 -3.85944 0
M  V30 1871 C 177.34 -1.53914 -5.08413 0
M  V30 1872 C 176.379 -2.68425 -5.50104 0
M  V30 1873 N 175.516 -2.28815 -6.63768 0
M  V30 1874 H 180.356 -2.04858 -2.16419 0
M  V30 1875 H 177.893 -1.01974 -1.06017 0
M  V30 1876 H 179.851 -0.544822 -4.13627 0
M  V30 1877 H 178.481 0.142102 -3.22487 0
M  V30 1878 H 177.533 -2.27162 -3.05125 0
M  V30 1879 H 178.845 -2.7998 -4.12811 0
M  V30 1880 H 177.999 -1.28231 -5.92994 0
M  V30 1881 H 176.738 -0.651391 -4.8333 0
M  V30 1882 H 175.743 -2.94819 -4.64071 0
M  V30 1883 H 176.968 -3.57826 -5.7718 0
M  V30 1884 H 174.914 -1.42495 -6.40337 0
M  V30 1885 H 174.831 -3.08242 -6.90306 0
M  V30 1886 H 176.099 -2.06387 -7.51681 0
M  V30 1887 N 180.328 1.1314 -1.09713 0
M  V30 1888 C 181.577 1.83838 -0.829851 0
M  V30 1889 C 181.89 1.84599 0.646728 0
M  V30 1890 O 183.096 2.51218 1.02965 0
M  V30 1891 C 181.552 3.30069 -1.43466 0
M  V30 1892 C 181.16 3.37688 -2.94399 0
M  V30 1893 C 182.904 4.05788 -1.24645 0
M  V30 1894 C 180.811 4.78209 -3.47952 0
M  V30 1895 H 179.741 0.68877 -0.306777 0
M  V30 1896 H 182.392 1.27448 -1.3202 0
M  V30 1897 H 180.774 3.8628 -0.871996 0
M  V30 1898 H 181.948 2.91456 -3.56918 0
M  V30 1899 H 180.263 2.75436 -3.12289 0
M  V30 1900 H 182.86 5.09535 -1.62107 0
M  V30 1901 H 183.203 4.15878 -0.187357 0
M  V30 1902 H 183.736 3.55915 -1.77678 0
M  V30 1903 H 180.475 4.73311 -4.53495 0
M  V30 1904 H 179.995 5.24924 -2.90198 0
M  V30 1905 H 181.674 5.47133 -3.45332 0
M  V30 1906 N 181.806 0.884767 1.30421 0
M  V30 1907 C 183.046 0.509806 1.9794 0
M  V30 1908 C 183.41 -0.923736 1.68319 0
M  V30 1909 O 184.611 -1.40481 2.29169 0
M  V30 1910 C 182.882 0.776732 3.48858 0
M  V30 1911 S 184.441 0.503843 4.35898 0
M  V30 1912 H 181.259 0.189699 0.685227 0
M  V30 1913 H 183.861 1.14399 1.58535 0
M  V30 1914 H 182.565 1.81857 3.67908 0
M  V30 1915 H 182.096 0.1301 3.93185 0
M  V30 1916 H 184.111 -0.657625 4.91823 0
M  V30 1917 N 183.284 -1.43765 0.645699 0
M  V30 1918 C 184.512 -2.06253 0.163556 0
M  V30 1919 C 184.927 -1.48352 -1.16778 0
M  V30 1920 O 184.284 -0.611932 -1.71935 0
M  V30 1921 C 184.335 -3.61453 0.0583186 0
M  V30 1922 O 184.056 -4.172 1.33702 0
M  V30 1923 C 185.557 -4.41002 -0.450795 0
M  V30 1924 H 182.777 -0.665413 0.0864077 0
M  V30 1925 H 185.321 -1.84396 0.884222 0
M  V30 1926 H 183.476 -3.82522 -0.612865 0
M  V30 1927 H 183.89 -5.10791 1.19131 0
M  V30 1928 H 185.364 -5.49966 -0.473403 0
M  V30 1929 H 185.841 -4.13488 -1.48068 0
M  V30 1930 H 186.447 -4.24886 0.187637 0
M  V30 1931 N 184.763 -0.387143 -1.52771 0
M  V30 1932 C 186.174 0.0873634 -1.86495 0
M  V30 1933 C 186.525 1.46336 -1.30691 0
M  V30 1934 O 185.65 2.068 -0.637409 0
M  V30 1935 C 186.245 0.165305 -3.38396 0
M  V30 1936 C 184.804 0.584101 -3.7184 0
M  V30 1937 C 183.951 -0.255279 -2.76122 0
M  V30 1938 H 186.902 -0.605104 -1.46711 0
M  V30 1939 H 186.923 0.984848 -3.67534 0
M  V30 1940 H 186.435 -0.836301 -3.78982 0
M  V30 1941 H 184.536 1.59315 -3.36823 0
M  V30 1942 H 184.649 0.343749 -4.77865 0
M  V30 1943 H 183.013 0.279126 -2.53166 0
M  V30 1944 H 183.796 -1.25482 -3.19545 0
M  V30 1945 N 186.241 1.57166 -0.116904 0
M  V30 1946 C 187.171 2.18222 0.830759 0
M  V30 1947 C 188.152 1.12167 1.27877 0
M  V30 1948 O 189.337 1.40394 1.34176 0
M  V30 1949 C 186.467 2.77996 2.08172 0
M  V30 1950 C 185.421 3.89614 1.77157 0
M  V30 1951 C 184.747 4.36187 3.09265 0
M  V30 1952 C 186.047 5.1181 1.04151 0
M  V30 1953 H 187.741 2.97664 0.321992 0
M  V30 1954 H 185.287 1.4318 0.153434 0
M  V30 1955 H 187.24 3.19366 2.74924 0
M  V30 1956 H 185.964 1.9584 2.6137 0
M  V30 1957 H 184.623 3.48816 1.12796 0
M  V30 1958 H 184.271 3.50893 3.60393 0
M  V30 1959 H 183.971 5.11455 2.89288 0
M  V30 1960 H 185.495 4.80207 3.77139 0
M  V30 1961 H 186.909 5.50214 1.61052 0
M  V30 1962 H 185.306 5.92648 0.942762 0
M  V30 1963 H 186.376 4.84892 0.0279022 0
M  V30 1964 N 187.719 -0.156864 1.56817 0
M  V30 1965 C 188.947 -0.886316 1.86955 0
M  V30 1966 C 189.362 -1.75185 0.703975 0
M  V30 1967 O 188.719 -1.79555 -0.326552 0
M  V30 1968 C 188.77 -1.75117 3.16253 0
M  V30 1969 O 188.491 -0.920537 4.2832 0
M  V30 1970 C 189.992 -2.58905 3.59837 0
M  V30 1971 H 187.212 -0.25678 0.619923 0
M  V30 1972 H 189.756 -0.152615 2.0393 0
M  V30 1973 H 187.911 -2.43805 3.01062 0
M  V30 1974 H 188.325 -1.51337 5.02192 0
M  V30 1975 H 189.799 -3.1518 4.53172 0
M  V30 1976 H 190.276 -3.34472 2.84649 0
M  V30 1977 H 190.882 -1.95526 3.7769 0
M  V30 1978 N 189.197 -1.51736 -0.425897 0
M  V30 1979 C 190.127 -1.76827 -1.52494 0
M  V30 1980 C 191.108 -0.618524 -1.58456 0
M  V30 1981 O 192.293 -0.862416 -1.74 0
M  V30 1982 C 189.423 -1.90374 -2.90474 0
M  V30 1983 C 188.377 -3.0588 -2.99369 0
M  V30 1984 C 187.703 -3.04625 -4.3944 0
M  V30 1985 C 189.003 -4.45644 -2.72394 0
M  V30 1986 H 190.697 -2.68855 -1.31748 0
M  V30 1987 H 188.243 -1.29372 -0.632362 0
M  V30 1988 H 190.196 -2.0651 -3.6733 0
M  V30 1989 H 188.92 -0.95004 -3.12477 0
M  V30 1990 H 187.579 -2.89467 -2.24954 0
M  V30 1991 H 187.227 -2.0701 -4.58428 0
M  V30 1992 H 186.927 -3.82195 -4.46319 0
M  V30 1993 H 188.451 -3.22869 -5.18255 0
M  V30 1994 H 189.865 -4.62348 -3.38979 0
M  V30 1995 H 188.262 -5.25006 -2.9067 0
M  V30 1996 H 189.332 -4.54893 -1.67929 0
M  V30 1997 N 190.675 0.682077 -1.42076 0
M  V30 1998 C 191.585 1.82535 -1.47371 0
M  V30 1999 C 192.601 1.7017 -0.363079 0
M  V30 2000 O 193.777 1.91848 -0.612875 0
M  V30 2001 C 190.842 3.18624 -1.36674 0
M  V30 2002 C 189.903 3.42999 -2.58167 0
M  V30 2003 C 189.136 4.72595 -2.4797 0
M  V30 2004 O 189.359 5.50006 -1.5116 0
M  V30 2005 O 188.293 4.98054 -3.37974 0
M  V30 2006 H 192.119 1.81023 -2.43853 0
M  V30 2007 H 189.704 0.836887 -1.2376 0
M  V30 2008 H 191.586 3.99847 -1.33043 0
M  V30 2009 H 190.261 3.20789 -0.433138 0
M  V30 2010 H 189.168 2.61653 -2.67373 0
M  V30 2011 H 190.501 3.45659 -3.50401 0
M  V30 2012 N 192.153 1.28127 0.917671 0
M  V30 2013 C 193.086 1.06039 2.02067 0
M  V30 2014 C 194.064 -0.0223285 1.62585 0
M  V30 2015 O 195.248 0.124823 1.88086 0
M  V30 2016 C 192.375 0.610596 3.33151 0
M  V30 2017 C 191.421 1.68937 3.91615 0
M  V30 2018 S 192.254 3.28437 4.22953 0
M  V30 2019 C 193.41 2.85283 5.57103 0
M  V30 2020 H 193.643 1.99425 2.20493 0
M  V30 2021 H 191.176 1.12071 1.06205 0
M  V30 2022 H 193.134 0.357778 4.08938 0
M  V30 2023 H 191.795 -0.303364 3.12632 0
M  V30 2024 H 190.988 1.32619 4.86239 0
M  V30 2025 H 190.59 1.89478 3.2245 0
M  V30 2026 H 192.882 2.3121 6.36827 0
M  V30 2027 H 193.825 3.7869 5.98331 0
M  V30 2028 H 194.233 2.24118 5.18104 0
M  V30 2029 N 193.631 -1.12557 1.10312 0
M  V30 2030 C 194.861 -1.87592 0.865617 0
M  V30 2031 C 195.269 -1.79851 -0.587389 0
M  V30 2032 O 194.612 -1.16949 -1.41664 0
M  V30 2033 C 194.674 -3.37665 1.23381 0
M  V30 2034 C 194.338 -3.69181 2.69359 0
M  V30 2035 C 195.335 -3.67652 3.67597 0
M  V30 2036 C 193.02 -3.98555 3.05711 0
M  V30 2037 C 195.014 -3.95053 5.00212 0
M  V30 2038 C 192.701 -4.25616 4.38514 0
M  V30 2039 C 193.699 -4.23851 5.35574 0
M  V30 2040 O 193.387 -4.50242 6.65986 0
M  V30 2041 H 193.119 -0.600442 0.310557 0
M  V30 2042 H 195.673 -1.4335 1.47105 0
M  V30 2043 H 193.903 -3.82454 0.571467 0
M  V30 2044 H 195.592 -3.94041 0.973994 0
M  V30 2045 H 196.358 -3.45024 3.40857 0
M  V30 2046 H 192.237 -3.99071 2.30789 0
M  V30 2047 H 195.781 -3.93591 5.75962 0
M  V30 2048 H 191.678 -4.47718 4.64994 0
M  V30 2049 H 192.446 -4.67867 6.71597 0
M  V30 2050 N 195.109 -0.891671 -1.2995 0
M  V30 2051 C 196.339 -0.527893 -1.99742 0
M  V30 2052 C 196.747 0.88979 -1.66971 0
M  V30 2053 O 196.09 1.59766 -0.906667 0
M  V30 2054 C 196.152 -0.630804 -3.53922 0
M  V30 2055 C 195.816 -2.01401 -4.10228 0
M  V30 2056 C 196.813 -2.98422 -4.25724 0
M  V30 2057 C 194.498 -2.32121 -4.45449 0
M  V30 2058 C 196.492 -4.24293 -4.75662 0
M  V30 2059 C 194.179 -3.58237 -4.95086 0
M  V30 2060 C 195.177 -4.54137 -5.10146 0
M  V30 2061 O 194.865 -5.78014 -5.58708 0
M  V30 2062 H 194.597 -0.201953 -0.645129 0
M  V30 2063 H 197.151 -1.20076 -1.66646 0
M  V30 2064 H 195.381 0.0990616 -3.86573 0
M  V30 2065 H 197.07 -0.277338 -4.04951 0
M  V30 2066 H 197.836 -2.76001 -3.98809 0
M  V30 2067 H 193.715 -1.5824 -4.32991 0
M  V30 2068 H 197.259 -4.99153 -4.87332 0
M  V30 2069 H 193.156 -3.80491 -5.21437 0
M  V30 2070 H 193.924 -5.8049 -5.77039 0
M  V30 2071 N 196.587 1.43421 -0.653314 0
M  V30 2072 C 197.815 2.06163 -0.174491 0
M  V30 2073 C 198.23 1.48969 1.1599 0
M  V30 2074 O 197.587 0.621042 1.71608 0
M  V30 2075 C 197.638 3.61417 -0.0774865 0
M  V30 2076 O 197.359 4.16485 -1.35912 0
M  V30 2077 C 198.86 4.41235 0.427402 0
M  V30 2078 H 196.08 0.664946 -0.0899353 0
M  V30 2079 H 198.624 1.83924 -0.893988 0
M  V30 2080 H 196.779 3.82841 0.59257 0
M  V30 2081 H 197.193 5.10153 -1.21839 0
M  V30 2082 H 198.667 5.5021 0.44423 0
M  V30 2083 H 199.144 4.14268 1.45873 0
M  V30 2084 H 199.75 4.2478 -0.210167 0
M  V30 2085 N 198.065 0.39524 1.52563 0
M  V30 2086 C 198.975 -0.444232 2.30356 0
M  V30 2087 C 199.991 -1.06615 1.37511 0
M  V30 2088 O 201.167 -1.07067 1.70583 0
M  V30 2089 C 198.232 -1.55315 3.09964 0
M  V30 2090 C 197.293 -0.955734 4.18526 0
M  V30 2091 C 196.526 -2.01181 4.9433 0
M  V30 2092 O 196.749 -3.22781 4.70285 0
M  V30 2093 O 195.683 -1.62579 5.79527 0
M  V30 2094 H 199.509 0.189667 3.03107 0
M  V30 2095 H 197.094 0.1588 1.48554 0
M  V30 2096 H 198.976 -2.19724 3.59582 0
M  V30 2097 H 197.651 -2.17191 2.4002 0
M  V30 2098 H 196.558 -0.274743 3.7309 0
M  V30 2099 H 197.891 -0.381109 4.90722 0
M  V30 2100 N 199.544 -1.57102 0.125237 0
M  V30 2101 C 200.477 -2.11371 -0.860094 0
M  V30 2102 C 201.455 -1.03168 -1.25679 0
M  V30 2103 O 202.639 -1.30862 -1.35674 0
M  V30 2104 C 199.766 -2.61555 -2.1519 0
M  V30 2105 C 198.812 -3.81701 -1.9028 0
M  V30 2106 S 199.645 -5.23797 -1.11343 0
M  V30 2107 C 200.801 -5.77353 -2.41689 0
M  V30 2108 H 201.034 -2.94617 -0.39852 0
M  V30 2109 H 198.567 -1.54145 -0.0886555 0
M  V30 2110 H 200.525 -2.91122 -2.89411 0
M  V30 2111 H 199.186 -1.78479 -2.58465 0
M  V30 2112 H 198.379 -4.14985 -2.86014 0
M  V30 2113 H 197.981 -3.52783 -1.24178 0
M  V30 2114 H 200.273 -5.87458 -3.37489 0
M  V30 2115 H 201.216 -6.75323 -2.12942 0
M  V30 2116 H 201.624 -5.05457 -2.51342 0
M  V30 2117 N 201.022 0.148545 -1.56898 0
M  V30 2118 C 202.299 0.890019 -1.74178 0
M  V30 2119 C 202.679 1.99407 -0.692839 0
M  V30 2120 O 202.027 2.26671 0.288505 0
M  V30 2121 C 202.237 1.43389 -3.18183 0
M  V30 2122 C 203.585 1.89791 -3.79822 0
M  V30 2123 O 204.609 1.53134 -3.21603 0
M  V30 2124 O 203.468 2.57387 -4.82093 0
M  V30 2125 H 200.562 0.420496 -0.712118 0
M  V30 2126 H 203.108 0.134591 -1.69165 0
M  V30 2127 H 201.88 0.640383 -3.86024 0
M  V30 2128 H 201.503 2.25287 -3.27615 0
M  V30 2129 N 202.5 1.5196 0.417844 0
M  V30 2130 C 203.911 1.57851 0.997 0
M  V30 2131 C 204.262 0.413714 1.91789 0
M  V30 2132 O 203.387 -0.467057 2.113 0
M  V30 2133 C 203.982 2.86085 1.81496 0
M  V30 2134 C 202.541 2.94483 2.34428 0
M  V30 2135 C 201.688 2.52707 1.14169 0
M  V30 2136 H 204.639 1.57455 0.198392 0
M  V30 2137 H 204.66 2.70947 2.67148 0
M  V30 2138 H 204.172 3.70842 1.14446 0
M  V30 2139 H 202.273 2.142 3.04875 0
M  V30 2140 H 202.386 3.98546 2.65891 0
M  V30 2141 H 200.75 2.06353 1.49301 0
M  V30 2142 H 201.533 3.39828 0.486999 0
M  V30 2143 N 203.978 -0.674533 1.42435 0
M  V30 2144 C 204.888 -1.81751 1.48337 0
M  V30 2145 C 205.904 -1.69975 0.372099 0
M  V30 2146 O 207.08 -1.91521 0.62304 0
M  V30 2147 C 204.145 -3.17895 1.38361 0
M  V30 2148 C 203.206 -3.41625 2.59982 0
M  V30 2149 C 202.439 -4.71274 2.50473 0
M  V30 2150 O 202.662 -5.49197 1.54075 0
M  V30 2151 O 201.596 -4.96254 3.4061 0
M  V30 2152 H 205.422 -1.79728 2.44809 0
M  V30 2153 H 203.007 -0.830312 1.24202 0
M  V30 2154 H 204.889 -3.99136 1.35161 0
M  V30 2155 H 203.564 -3.20555 0.450144 0
M  V30 2156 H 202.471 -2.60231 2.68757 0
M  V30 2157 H 203.804 -3.43796 3.52229 0
M  V30 2158 N 205.456 -1.28612 -0.910864 0
M  V30 2159 C 206.872 -1.06381 -1.18976 0
M  V30 2160 C 207.072 0.191998 -2.00583 0
M  V30 2161 O 206.128 0.892869 -2.36187 0
M  V30 2162 C 207.441 -2.31295 -1.92154 0
M  V30 2163 C 208.989 -2.36503 -2.05025 0
M  V30 2164 C 209.464 -3.61191 -2.81612 0
M  V30 2165 N 210.955 -3.61847 -2.89172 0
M  V30 2166 C 211.69 -4.55004 -3.4894 0
M  V30 2167 N 211.186 -5.58482 -4.09963 0
M  V30 2168 N 212.979 -4.42594 -3.46506 0
M  V30 2169 H 205.13 -2.09221 -0.366094 0
M  V30 2170 H 207.393 -0.921003 -0.224629 0
M  V30 2171 H 207.099 -3.228 -1.39618 0
M  V30 2172 H 206.973 -2.37934 -2.9269 0
M  V30 2173 H 209.36 -1.45494 -2.5674 0
M  V30 2174 H 209.441 -2.33857 -1.03657 0
M  V30 2175 H 209.085 -4.52545 -2.30576 0
M  V30 2176 H 209.015 -3.61092 -3.83302 0
M  V30 2177 H 211.506 -2.87022 -2.45819 0
M  V30 2178 H 211.819 -6.25704 -4.53557 0
M  V30 2179 H 210.164 -5.62305 -4.08459 0
M  V30 2180 H 213.355 -3.60953 -2.98045 0
M  V30 2181 H 213.528 -5.15381 -3.92793 0
M  V30 2182 N 206.934 1.1197 -1.10907 0
M  V30 2183 C 207.884 2.15946 -0.731538 0
M  V30 2184 C 208.868 1.58758 0.261699 0
M  V30 2185 O 210.06 1.76863 0.0696722 0
M  V30 2186 C 207.189 3.42877 -0.170299 0
M  V30 2187 C 206.275 4.07037 -1.19087 0
M  V30 2188 N 206.666 4.46135 -2.38322 0
M  V30 2189 C 204.964 4.33884 -1.03252 0
M  V30 2190 C 205.665 4.96331 -3.03366 0
M  V30 2191 N 204.641 4.9214 -2.30865 0
M  V30 2192 H 208.443 2.43947 -1.63912 0
M  V30 2193 H 205.957 1.28927 -0.987505 0
M  V30 2194 H 207.954 4.16732 0.118271 0
M  V30 2195 H 206.614 3.16343 0.731935 0
M  V30 2196 H 207.625 4.38345 -2.75815 0
M  V30 2197 H 204.302 4.17084 -0.186256 0
M  V30 2198 H 205.692 5.36257 -4.04818 0
M  V30 2199 N 208.412 0.89855 1.29475 0
M  V30 2200 C 209.828 0.594483 1.48115 0
M  V30 2201 C 210.028 -0.86431 1.82022 0
M  V30 2202 O 209.084 -1.64457 1.91599 0
M  V30 2203 C 210.397 1.51932 2.59494 0
M  V30 2204 C 211.945 1.5244 2.7337 0
M  V30 2205 C 212.42 2.43548 3.87877 0
M  V30 2206 N 213.911 2.41589 3.95208 0
M  V30 2207 C 214.646 3.08789 4.83153 0
M  V30 2208 N 214.142 3.85265 5.75798 0
M  V30 2209 N 215.935 2.97952 4.76635 0
M  V30 2210 H 208.086 1.84207 1.05742 0
M  V30 2211 H 210.349 0.789251 0.525154 0
M  V30 2212 H 210.055 2.55865 2.41301 0
M  V30 2213 H 209.929 1.23899 3.56271 0
M  V30 2214 H 212.316 0.492518 2.90961 0
M  V30 2215 H 212.397 1.8451 1.77172 0
M  V30 2216 H 212.041 3.46829 3.71041 0
M  V30 2217 H 211.971 2.08788 4.83441 0
M  V30 2218 H 214.462 1.86025 3.28943 0
M  V30 2219 H 214.775 4.33598 6.39697 0
M  V30 2220 H 213.12 3.89371 5.75687 0
M  V30 2221 H 216.311 2.37723 4.03244 0
M  V30 2222 H 216.484 3.50599 5.44962 0
M  V30 2223 N 209.89 -1.43072 0.660911 0
M  V30 2224 C 211.115 -2.06584 0.183805 0
M  V30 2225 C 211.54 -1.49257 -1.14472 0
M  V30 2226 O 210.898 -0.605528 -1.70889 0
M  V30 2227 C 210.946 -3.60418 0.114434 0
M  V30 2228 O 210.05 -4.01981 -0.921137 0
M  V30 2229 H 209.391 -0.656669 0.0983994 0
M  V30 2230 H 211.921 -1.83447 0.906006 0
M  V30 2231 H 211.931 -4.07946 -0.0663394 0
M  V30 2232 H 210.606 -4.01519 1.08422 0
M  V30 2233 H 209.183 -3.66029 -0.71253 0
M  V30 2234 N 211.368 -0.403325 -1.52352 0
M  V30 2235 C 212.617 0.175668 -2.00934 0
M  V30 2236 C 212.93 1.46718 -1.29356 0
M  V30 2237 O 214.136 2.12708 -1.68724 0
M  V30 2238 C 212.592 0.363612 -3.58058 0
M  V30 2239 C 212.2 -0.915472 -4.38547 0
M  V30 2240 C 213.944 0.89821 -4.14888 0
M  V30 2241 C 211.851 -0.695035 -5.87302 0
M  V30 2242 H 210.781 0.0694234 -0.750797 0
M  V30 2243 H 213.432 -0.527879 -1.75743 0
M  V30 2244 H 211.814 1.12935 -3.79555 0
M  V30 2245 H 212.988 -1.68691 -4.28812 0
M  V30 2246 H 211.303 -1.37606 -3.93006 0
M  V30 2247 H 213.9 1.07907 -5.23699 0
M  V30 2248 H 214.243 1.87126 -3.71873 0
M  V30 2249 H 214.776 0.191681 -3.97338 0
M  V30 2250 H 211.515 -1.63948 -6.34666 0
M  V30 2251 H 211.035 0.0372116 -5.99788 0
M  V30 2252 H 212.714 -0.33497 -6.46132 0
M  V30 2253 N 212.846 1.57033 -0.133567 0
M  V30 2254 C 213.776 2.1909 0.807567 0
M  V30 2255 C 214.757 1.13517 1.26681 0
M  V30 2256 O 215.942 1.41809 1.32679 0
M  V30 2257 C 213.072 2.80188 2.05212 0
M  V30 2258 C 212.026 3.91471 1.73015 0
M  V30 2259 C 211.352 4.39443 3.04622 0
M  V30 2260 C 212.652 5.12886 0.987168 0
M  V30 2261 H 214.346 2.97988 0.290403 0
M  V30 2262 H 211.892 1.43335 0.138239 0
M  V30 2263 H 213.845 3.22264 2.71521 0
M  V30 2264 H 212.569 1.98601 2.59278 0
M  V30 2265 H 211.228 3.49993 1.0909 0
M  V30 2266 H 210.876 3.54695 3.56651 0
M  V30 2267 H 210.576 5.14495 2.83847 0
M  V30 2268 H 212.1 4.8418 3.72024 0
M  V30 2269 H 213.514 5.51891 1.55208 0
M  V30 2270 H 211.911 5.93615 0.87985 0
M  V30 2271 H 212.981 4.84894 -0.0235286 0
M  V30 2272 N 214.325 -0.140222 1.56975 0
M  V30 2273 C 215.288 -1.15689 1.97861 0
M  V30 2274 C 216.288 -1.3549 0.865974 0
M  V30 2275 O 217.478 -1.32367 1.13246 0
M  V30 2276 C 214.61 -2.51582 2.30042 0
M  V30 2277 H 215.803 -0.805971 2.88867 0
M  V30 2278 H 213.356 -0.383801 1.51515 0
M  V30 2279 H 214.091 -2.91632 1.41849 0
M  V30 2280 H 213.876 -2.38569 3.11171 0
M  V30 2281 H 215.366 -3.24792 2.62488 0
M  V30 2282 N 215.803 -1.52179 -0.40978 0
M  V30 2283 C 216.766 -1.74853 -1.48186 0
M  V30 2284 C 217.766 -0.618417 -1.48433 0
M  V30 2285 O 218.956 -0.886286 -1.49969 0
M  V30 2286 C 216.088 -1.8303 -2.87598 0
M  V30 2287 H 217.281 -2.70559 -1.29374 0
M  V30 2288 H 214.834 -1.42586 -0.640233 0
M  V30 2289 H 215.569 -0.89236 -3.11781 0
M  V30 2290 H 215.354 -2.65187 -2.88822 0
M  V30 2291 H 216.844 -2.02316 -3.65319 0
M  V30 2292 N 217.281 0.66697 -1.42791 0
M  V30 2293 C 218.53 1.42278 -1.42968 0
M  V30 2294 C 218.843 1.9553 -0.0524489 0
M  V30 2295 O 220.049 2.71414 0.068363 0
M  V30 2296 C 218.505 2.57418 -2.51524 0
M  V30 2297 C 218.113 2.10832 -3.9529 0
M  V30 2298 C 219.857 3.34878 -2.60877 0
M  V30 2299 C 217.764 3.23101 -4.95338 0
M  V30 2300 H 216.694 0.534533 -0.531781 0
M  V30 2301 H 219.345 0.721302 -1.68729 0
M  V30 2302 H 217.727 3.29971 -2.18941 0
M  V30 2303 H 218.901 1.4538 -4.37266 0
M  V30 2304 H 217.216 1.46289 -3.89857 0
M  V30 2305 H 219.813 4.18505 -3.32802 0
M  V30 2306 H 220.156 3.81993 -1.6549 0
M  V30 2307 H 220.689 2.69398 -2.92693 0
M  V30 2308 H 217.428 2.80969 -5.9223 0
M  V30 2309 H 216.948 3.87309 -4.57987 0
M  V30 2310 H 218.627 3.88447 -5.17415 0
M  V30 2311 N 218.759 1.29093 0.90403 0
M  V30 2312 C 220.007 1.16583 1.65085 0
M  V30 2313 C 220.328 -0.283933 1.92922 0
M  V30 2314 O 219.598 -1.19509 1.55224 0
M  V30 2315 H 218.178 0.428467 0.611903 0
M  V30 2316 H 220.84 1.61959 1.08422 0
M  V30 2317 H 219.936 1.71266 2.6091 0
M  V30 2318 N 220.237 -1.11381 1.11499 0
M  V30 2319 C 221.2 -2.15622 0.777153 0
M  V30 2320 C 222.2 -1.59504 -0.203779 0
M  V30 2321 O 223.39 -1.74188 0.020782 0
M  V30 2322 C 220.522 -3.40556 0.153116 0
M  V30 2323 H 221.715 -2.47021 1.70061 0
M  V30 2324 H 219.268 -1.26577 0.916952 0
M  V30 2325 H 220.003 -3.14767 -0.780536 0
M  V30 2326 H 219.788 -3.8257 0.859238 0
M  V30 2327 H 221.278 -4.17546 -0.0671044 0
M  V30 2328 N 221.715 -0.905404 -1.28997 0
M  V30 2329 C 222.945 -0.549049 -1.99171 0
M  V30 2330 C 223.353 0.87203 -1.67906 0
M  V30 2331 O 222.696 1.58796 -0.923561 0
M  V30 2332 C 222.758 -0.668306 -3.53234 0
M  V30 2333 C 222.422 -2.0574 -4.08069 0
M  V30 2334 C 223.419 -3.0292 -4.22534 0
M  V30 2335 C 221.104 -2.36833 -4.42962 0
M  V30 2336 C 223.098 -4.29314 -4.71135 0
M  V30 2337 C 220.785 -3.63467 -4.91258 0
M  V30 2338 C 221.783 -4.59522 -5.053 0
M  V30 2339 O 221.471 -5.83907 -5.52546 0
M  V30 2340 H 221.203 -0.208784 -0.64295 0
M  V30 2341 H 223.757 -1.21836 -1.65363 0
M  V30 2342 H 221.987 0.0580547 -3.86656 0
M  V30 2343 H 223.676 -0.320273 -4.04634 0
M  V30 2344 H 224.442 -2.80216 -3.95859 0
M  V30 2345 H 220.321 -1.62824 -4.31288 0
M  V30 2346 H 223.865 -5.04293 -4.8201 0
M  V30 2347 H 219.762 -3.86 -5.17372 0
M  V30 2348 H 220.53 -5.86578 -5.70849 0
M  V30 2349 N 223.193 1.4272 -0.668489 0
M  V30 2350 C 224.604 1.84793 -0.266151 0
M  V30 2351 C 224.955 1.55959 1.19043 0
M  V30 2352 O 224.08 1.01622 1.91055 0
M  V30 2353 C 224.675 3.35436 -0.476271 0
M  V30 2354 C 223.234 3.76182 -0.128113 0
M  V30 2355 C 222.381 2.66344 -0.771777 0
M  V30 2356 H 225.332 1.32656 -0.871098 0
M  V30 2357 H 225.353 3.79515 0.273561 0
M  V30 2358 H 224.865 3.5639 -1.53647 0
M  V30 2359 H 222.966 3.60836 0.928891 0
M  V30 2360 H 223.079 4.75766 -0.564231 0
M  V30 2361 H 221.443 2.53885 -0.203652 0
M  V30 2362 H 222.226 2.90123 -1.83531 0
M  V30 2363 N 224.671 0.411399 1.52136 0
M  V30 2364 C 225.601 -0.404015 2.29978 0
M  V30 2365 C 226.582 -1.04412 1.34284 0
M  V30 2366 O 227.767 -1.0527 1.63192 0
M  V30 2367 C 224.897 -1.5197 3.12286 0
M  V30 2368 C 223.851 -1.00448 4.16046 0
M  V30 2369 C 223.177 -2.21393 4.86712 0
M  V30 2370 C 224.477 -0.0569336 5.22269 0
M  V30 2371 H 226.171 0.245529 2.98392 0
M  V30 2372 H 223.717 0.119525 1.43503 0
M  V30 2373 H 225.67 -2.09715 3.6551 0
M  V30 2374 H 224.394 -2.19716 2.41646 0
M  V30 2375 H 223.053 -0.449421 3.63835 0
M  V30 2376 H 222.701 -2.87699 4.12599 0
M  V30 2377 H 222.401 -1.87571 5.56858 0
M  V30 2378 H 223.925 -2.7974 5.4275 0
M  V30 2379 H 225.339 -0.54325 5.7072 0
M  V30 2380 H 223.736 0.192594 5.99791 0
M  V30 2381 H 224.806 0.887663 4.76706 0
M  V30 2382 N 226.149 -1.5696 0.141893 0
M  V30 2383 C 227.374 -2.00754 -0.520838 0
M  V30 2384 C 227.799 -1.0213 -1.57959 0
M  V30 2385 O 227.157 0.00371324 -1.813 0
M  V30 2386 C 227.205 -3.43318 -1.10294 0
M  V30 2387 O 226.309 -3.47679 -2.21795 0
M  V30 2388 H 225.65 -0.651564 -0.127908 0
M  V30 2389 H 228.18 -2.03221 0.23712 0
M  V30 2390 H 228.19 -3.82012 -1.43287 0
M  V30 2391 H 226.865 -4.14608 -0.327574 0
M  V30 2392 H 225.442 -3.20824 -1.9007 0
M  V30 2393 N 227.627 0.131896 -1.57047 0
M  V30 2394 C 229.043 0.485031 -1.52051 0
M  V30 2395 C 229.243 1.82563 -0.85281 0
M  V30 2396 O 228.299 2.48817 -0.429694 0
M  V30 2397 C 229.612 0.481409 -2.96821 0
M  V30 2398 C 231.16 0.565868 -3.07842 0
M  V30 2399 C 231.635 0.592762 -4.54148 0
M  V30 2400 N 233.126 0.654564 -4.58552 0
M  V30 2401 C 233.861 0.696608 -5.69153 0
M  V30 2402 N 233.357 0.697078 -6.89284 0
M  V30 2403 N 235.15 0.738639 -5.57226 0
M  V30 2404 H 227.301 -0.746664 -1.98843 0
M  V30 2405 H 229.564 -0.273999 -0.90754 0
M  V30 2406 H 229.27 -0.435731 -3.4899 0
M  V30 2407 H 229.144 1.3139 -3.53577 0
M  V30 2408 H 231.531 1.47343 -2.55684 0
M  V30 2409 H 231.612 -0.29406 -2.54104 0
M  V30 2410 H 231.256 -0.310701 -5.06949 0
M  V30 2411 H 231.186 1.46939 -5.05684 0
M  V30 2412 H 233.677 0.660887 -3.72076 0
M  V30 2413 H 233.99 0.731426 -7.69331 0
M  V30 2414 H 232.335 0.66471 -6.91814 0
M  V30 2415 H 235.526 0.735545 -4.62285 0
M  V30 2416 H 235.699 0.767938 -6.43434 0
M  V30 2417 N 229.106 1.52395 0.401703 0
M  V30 2418 C 230.053 1.76268 1.48991 0
M  V30 2419 C 231.023 0.605386 1.54675 0
M  V30 2420 O 232.208 0.843742 1.7113 0
M  V30 2421 C 229.348 1.92592 2.86361 0
M  V30 2422 C 228.461 3.20259 2.89928 0
M  V30 2423 C 227.596 3.26972 4.18644 0
M  V30 2424 C 226.635 4.48812 4.16214 0
M  V30 2425 N 225.772 4.52877 5.36514 0
M  V30 2426 H 230.612 2.6914 1.27935 0
M  V30 2427 H 228.149 1.33355 0.620871 0
M  V30 2428 H 230.107 2.0004 3.66115 0
M  V30 2429 H 228.737 1.03093 3.05895 0
M  V30 2430 H 227.789 3.21945 2.02621 0
M  V30 2431 H 229.101 4.10056 2.83999 0
M  V30 2432 H 228.255 3.33533 5.06794 0
M  V30 2433 H 226.994 2.35126 4.27278 0
M  V30 2434 H 225.999 4.4239 3.26453 0
M  V30 2435 H 227.224 5.41961 4.09213 0
M  V30 2436 H 225.17 3.63917 5.45802 0
M  V30 2437 H 225.087 5.36529 5.32609 0
M  V30 2438 H 226.355 4.63676 6.26597 0
M  V30 2439 N 230.584 -0.659388 1.43143 0
M  V30 2440 C 231.534 -1.7655 1.44271 0
M  V30 2441 C 232.518 -1.57847 0.311961 0
M  V30 2442 O 233.71 -1.68064 0.555306 0
M  V30 2443 C 230.839 -3.15104 1.36251 0
M  V30 2444 C 229.925 -3.39377 2.54331 0
M  V30 2445 N 230.316 -3.34153 3.79704 0
M  V30 2446 C 228.614 -3.70072 2.48922 0
M  V30 2447 C 229.315 -3.58337 4.58225 0
M  V30 2448 N 228.291 -3.79851 3.88863 0
M  V30 2449 H 232.093 -1.70928 2.39083 0
M  V30 2450 H 229.607 -0.860823 1.37708 0
M  V30 2451 H 231.604 -3.94389 1.35141 0
M  V30 2452 H 230.264 -3.21913 0.424531 0
M  V30 2453 H 231.275 -3.13704 4.1208 0
M  V30 2454 H 227.952 -3.84034 1.63781 0
M  V30 2455 H 229.342 -3.60129 5.67236 0
M  V30 2456 N 232.062 -1.29571 -0.897171 0
M  V30 2457 C 233.31 -1.17456 -1.64464 0
M  V30 2458 C 233.631 0.273698 -1.9307 0
M  V30 2459 O 232.901 1.18684 -1.55855 0
M  V30 2460 H 231.481 -0.431706 -0.609622 0
M  V30 2461 H 234.143 -1.62531 -1.07562 0
M  V30 2462 H 233.239 -1.72648 -2.59998 0
M  V30 2463 N 233.54 1.10788 -1.12088 0
M  V30 2464 C 234.768 1.86461 -0.896651 0
M  V30 2465 C 235.183 1.80492 0.553912 0
M  V30 2466 O 234.54 1.19102 1.38278 0
M  V30 2467 C 234.591 3.35006 -1.35843 0
M  V30 2468 O 234.312 3.40866 -2.75213 0
M  V30 2469 C 235.813 4.27565 -1.1706 0
M  V30 2470 H 233.033 0.589425 -0.320654 0
M  V30 2471 H 235.577 1.40076 -1.48993 0
M  V30 2472 H 233.732 3.7887 -0.808458 0
M  V30 2473 H 234.146 4.33411 -2.9539 0
M  V30 2474 H 235.62 5.30007 -1.54263 0
M  V30 2475 H 236.097 4.3906 -0.110814 0
M  V30 2476 H 236.703 3.89501 -1.70789 0
M  V30 2477 N 235.018 0.912232 1.28515 0
M  V30 2478 C 235.928 0.404506 2.31086 0
M  V30 2479 C 236.944 -0.50707 1.66448 0
M  V30 2480 O 238.12 -0.393624 1.97516 0
M  V30 2481 C 235.185 -0.348572 3.44943 0
M  V30 2482 C 234.246 0.59604 4.25142 0
M  V30 2483 C 233.479 -0.121194 5.33562 0
M  V30 2484 O 233.702 -1.34317 5.5436 0
M  V30 2485 O 232.636 0.542716 5.99448 0
M  V30 2486 H 236.462 1.25579 2.76521 0
M  V30 2487 H 234.047 0.676998 1.33181 0
M  V30 2488 H 235.929 -0.77395 4.14232 0
M  V30 2489 H 234.604 -1.17571 3.01594 0
M  V30 2490 H 233.511 1.07079 3.58448 0
M  V30 2491 H 234.844 1.38995 4.72167 0
M  V30 2492 N 236.496 -1.42363 0.676048 0
M  V30 2493 C 237.724 -2.05859 0.207268 0
M  V30 2494 C 238.139 -1.50796 -1.13605 0
M  V30 2495 O 237.496 -0.648265 -1.70598 0
M  V30 2496 C 237.547 -3.61248 0.134975 0
M  V30 2497 O 237.268 -4.1427 1.42521 0
M  V30 2498 C 238.769 -4.41859 -0.357151 0
M  V30 2499 H 235.989 -0.663431 0.100503 0
M  V30 2500 H 238.533 -1.82479 0.923136 0
M  V30 2501 H 236.688 -3.83735 -0.531588 0
M  V30 2502 H 237.102 -5.0815 1.29939 0
M  V30 2503 H 238.576 -5.50847 -0.356641 0
M  V30 2504 H 239.053 -4.16536 -1.39264 0
M  V30 2505 H 239.659 -4.24392 0.27772 0
M  V30 2506 N 237.974 -0.419461 -1.51915 0
M  V30 2507 C 239.385 0.0477853 -1.86639 0
M  V30 2508 C 239.736 1.43531 -1.33766 0
M  V30 2509 O 238.861 2.05401 -0.68113 0
M  V30 2510 C 239.456 0.0934885 -3.38671 0
M  V30 2511 C 238.015 0.505097 -3.72996 0
M  V30 2512 C 237.162 -0.313792 -2.75519 0
M  V30 2513 H 240.113 -0.636088 -1.45395 0
M  V30 2514 H 240.134 0.906667 -3.6954 0
M  V30 2515 H 239.646 -0.916501 -3.77123 0
M  V30 2516 H 237.747 1.52135 -3.40126 0
M  V30 2517 H 237.86 0.242309 -4.78487 0
M  V30 2518 H 236.224 0.225363 -2.53701 0
M  V30 2519 H 237.007 -1.32232 -3.16812 0
M  V30 2520 N 239.452 1.56882 -0.150215 0
M  V30 2521 C 240.415 2.1573 0.774157 0
M  V30 2522 C 241.415 1.0999 1.17298 0
M  V30 2523 O 242.605 1.35613 1.09338 0
M  V30 2524 C 239.737 2.72302 2.05096 0
M  V30 2525 H 240.93 2.98752 0.262201 0
M  V30 2526 H 238.483 1.55985 0.099248 0
M  V30 2527 H 239.218 1.92956 2.6065 0
M  V30 2528 H 239.003 3.49665 1.77416 0
M  V30 2529 H 240.493 3.17632 2.71109 0
M  V30 2530 N 240.93 -0.123565 1.57115 0
M  V30 2531 C 241.893 -1.13583 1.99076 0
M  V30 2532 C 242.893 -1.34564 0.880296 0
M  V30 2533 O 244.083 -1.31158 1.14644 0
M  V30 2534 C 241.215 -2.49128 2.32698 0
M  V30 2535 H 242.408 -0.775287 2.89706 0
M  V30 2536 H 239.961 -0.36771 1.51913 0
M  V30 2537 H 240.696 -2.90111 1.44934 0
M  V30 2538 H 240.481 -2.35255 3.13684 0
M  V30 2539 H 241.971 -3.2199 2.65918 0
M  V30 2540 N 242.408 -1.52605 -0.393616 0
M  V30 2541 C 243.654 -1.68624 -1.13743 0
M  V30 2542 C 244.009 -0.418687 -1.87789 0
M  V30 2543 O 243.302 0.58747 -1.82371 0
M  V30 2544 C 243.496 -2.85721 -2.14705 0
M  V30 2545 C 243.325 -4.23742 -1.50575 0
M  V30 2546 C 242.095 -4.89033 -1.2718 0
M  V30 2547 C 244.293 -5.05293 -0.958311 0
M  V30 2548 N 242.275 -6.11048 -0.591058 0
M  V30 2549 C 243.646 -6.18673 -0.405367 0
M  V30 2550 C 245.701 -4.90517 -0.854274 0
M  V30 2551 C 244.404 -7.18895 0.241434 0
M  V30 2552 C 246.43 -5.90986 -0.221301 0
M  V30 2553 C 245.792 -7.03669 0.320894 0
M  V30 2554 H 241.891 -0.670556 -0.402342 0
M  V30 2555 H 244.475 -1.89946 -0.427607 0
M  V30 2556 H 242.646 -2.65987 -2.83029 0
M  V30 2557 H 244.378 -2.90699 -2.8156 0
M  V30 2558 H 241.133 -4.47672 -1.54554 0
M  V30 2559 H 241.557 -6.76474 -0.266862 0
M  V30 2560 H 246.199 -4.03612 -1.25926 0
M  V30 2561 H 243.917 -8.05413 0.658448 0
M  V30 2562 H 247.503 -5.81626 -0.142111 0
M  V30 2563 H 246.383 -7.80078 0.802956 0
M  V30 2564 N 243.887 0.651787 -1.4349 0
M  V30 2565 C 245.135 1.40888 -1.44897 0
M  V30 2566 C 245.456 1.94856 -0.0749086 0
M  V30 2567 O 244.726 1.74518 0.889956 0
M  V30 2568 H 243.306 0.522887 -0.533478 0
M  V30 2569 H 245.968 0.768609 -1.79104 0
M  V30 2570 H 245.064 2.25052 -2.16236 0
M  V30 2571 N 245.365 1.30045 0.890287 0
M  V30 2572 C 246.642 1.09227 1.62262 0
M  V30 2573 C 247.022 -0.360305 2.08002 0
M  V30 2574 O 246.37 -1.35084 1.84295 0
M  V30 2575 C 246.58 2.08835 2.79623 0
M  V30 2576 C 247.928 2.40266 3.50082 0
M  V30 2577 O 248.952 2.07104 2.89804 0
M  V30 2578 O 247.811 2.96967 4.58773 0
M  V30 2579 H 244.905 0.419132 0.712922 0
M  V30 2580 H 247.451 1.41451 0.937529 0
M  V30 2581 H 246.223 3.06633 2.43089 0
M  V30 2582 H 245.846 1.77397 3.55832 0
M  V30 2583 N 246.843 -1.10192 1.12674 0
M  V30 2584 C 248.091 -1.81845 0.881861 0
M  V30 2585 C 248.412 -1.85737 -0.593867 0
M  V30 2586 O 247.682 -1.33724 -1.4316 0
M  V30 2587 H 246.262 -0.673432 0.323261 0
M  V30 2588 H 248.924 -1.33316 1.42172 0
M  V30 2589 H 248.02 -2.85288 1.2656 0
M  V30 2590 N 248.321 -0.919034 -1.28029 0
M  V30 2591 C 249.551 -0.570143 -1.98577 0
M  V30 2592 C 249.959 0.854172 -1.68821 0
M  V30 2593 O 249.302 1.57807 -0.940351 0
M  V30 2594 C 249.364 -0.705734 -3.52505 0
M  V30 2595 C 249.028 -2.10057 -4.05863 0
M  V30 2596 C 250.025 -3.07385 -4.19298 0
M  V30 2597 C 247.71 -2.41517 -4.40426 0
M  V30 2598 C 249.704 -4.34287 -4.66555 0
M  V30 2599 C 247.391 -3.68657 -4.87376 0
M  V30 2600 C 248.389 -4.64856 -5.00398 0
M  V30 2601 O 248.077 -5.89735 -5.46322 0
M  V30 2602 H 247.809 -0.215592 -0.6407 0
M  V30 2603 H 250.363 -1.23583 -1.64062 0
M  V30 2604 H 248.593 0.0170414 -3.86696 0
M  V30 2605 H 250.282 -0.363172 -4.04272 0
M  V30 2606 H 251.048 -2.84398 -3.92865 0
M  V30 2607 H 246.927 -1.67389 -4.29537 0
M  V30 2608 H 250.471 -5.09377 -4.76635 0
M  V30 2609 H 246.368 -3.91466 -5.13249 0
M  V30 2610 H 247.136 -5.92599 -5.64596 0
M  V30 2611 N 249.799 1.42003 -0.683588 0
M  V30 2612 C 251.215 1.55625 -0.353976 0
M  V30 2613 C 251.415 1.66151 1.14 0
M  V30 2614 O 250.471 1.63329 1.92561 0
M  V30 2615 C 251.784 2.80171 -1.092 0
M  V30 2616 C 253.332 2.93954 -1.07518 0
M  V30 2617 C 253.807 4.21372 -1.79471 0
M  V30 2618 N 255.298 4.28303 -1.76381 0
M  V30 2619 C 256.033 5.25729 -2.28904 0
M  V30 2620 N 255.529 6.29254 -2.89846 0
M  V30 2621 N 257.322 5.17586 -2.19228 0
M  V30 2622 H 249.473 1.33415 -1.6527 0
M  V30 2623 H 251.736 0.64282 -0.696769 0
M  V30 2624 H 251.442 2.78561 -2.14701 0
M  V30 2625 H 251.316 3.7133 -0.662862 0
M  V30 2626 H 253.703 2.95086 -0.028475 0
M  V30 2627 H 253.784 2.04002 -1.54328 0
M  V30 2628 H 253.428 4.21001 -2.84114 0
M  V30 2629 H 253.358 5.10275 -1.30104 0
M  V30 2630 H 255.849 3.54119 -1.31939 0
M  V30 2631 H 256.162 6.99964 -3.27522 0
M  V30 2632 H 254.507 6.29791 -2.93919 0
M  V30 2633 H 257.698 4.35631 -1.71299 0
M  V30 2634 H 257.871 5.93348 -2.60466 0
M  V30 2635 N 251.277 0.427512 1.51691 0
M  V30 2636 C 252.24 -0.377132 2.26076 0
M  V30 2637 C 253.24 -0.958089 1.29141 0
M  V30 2638 O 254.43 -0.83408 1.52934 0
M  V30 2639 C 251.562 -1.53262 3.04506 0
M  V30 2640 H 252.755 0.27464 2.9864 0
M  V30 2641 H 250.308 0.180445 1.55255 0
M  V30 2642 H 251.043 -2.22072 2.36335 0
M  V30 2643 H 250.828 -1.12232 3.75694 0
M  V30 2644 H 252.318 -2.10135 3.60878 0
M  V30 2645 N 252.755 -1.56801 0.158532 0
M  V30 2646 C 253.718 -2.16138 -0.762705 0
M  V30 2647 C 254.718 -1.1061 -1.16713 0
M  V30 2648 O 255.908 -1.36191 -1.08617 0
M  V30 2649 C 253.04 -2.73386 -2.03649 0
M  V30 2650 H 254.233 -2.98886 -0.246354 0
M  V30 2651 H 251.786 -1.56035 -0.0909744 0
M  V30 2652 H 252.521 -1.94335 -2.59623 0
M  V30 2653 H 252.306 -3.50601 -1.75559 0
M  V30 2654 H 253.796 -3.19065 -2.6942 0
M  V30 2655 N 254.233 0.115231 -1.57178 0
M  V30 2656 C 255.18 1.14115 -2.00615 0
M  V30 2657 C 256.15 1.40939 -0.878941 0
M  V30 2658 O 257.335 1.52741 -1.14345 0
M  V30 2659 C 254.475 2.46156 -2.4187 0
M  V30 2660 C 253.588 2.26236 -3.68024 0
M  V30 2661 C 252.723 3.51534 -3.98243 0
M  V30 2662 C 251.762 3.26787 -5.17568 0
M  V30 2663 N 250.899 4.44298 -5.43639 0
M  V30 2664 H 255.739 0.763743 -2.88047 0
M  V30 2665 H 253.276 0.365615 -1.42484 0
M  V30 2666 H 255.234 3.23189 -2.63827 0
M  V30 2667 H 253.864 2.81783 -1.57475 0
M  V30 2668 H 252.916 1.40102 -3.5366 0
M  V30 2669 H 254.228 2.03929 -4.55208 0
M  V30 2670 H 253.382 4.36984 -4.20868 0
M  V30 2671 H 252.121 3.76876 -3.09541 0
M  V30 2672 H 251.126 2.39729 -4.94783 0
M  V30 2673 H 252.351 3.02812 -6.0785 0
M  V30 2674 H 250.297 4.69754 -4.57895 0
M  V30 2675 H 250.214 4.25109 -6.25154 0
M  V30 2676 H 251.482 5.3087 -5.70786 0
M  V30 2677 N 255.711 1.52812 0.385517 0
M  V30 2678 C 256.621 1.80766 1.49535 0
M  V30 2679 C 257.637 0.694651 1.59532 0
M  V30 2680 O 258.813 0.982611 1.75803 0
M  V30 2681 C 255.878 1.97381 2.85029 0
M  V30 2682 C 254.939 3.21295 2.84724 0
M  V30 2683 C 254.172 3.37108 4.13756 0
M  V30 2684 O 254.395 2.5765 5.08893 0
M  V30 2685 O 253.329 4.30378 4.20783 0
M  V30 2686 H 257.155 2.75015 1.28842 0
M  V30 2687 H 254.74 1.37946 0.573697 0
M  V30 2688 H 256.622 2.09996 3.65349 0
M  V30 2689 H 255.297 1.06322 3.05741 0
M  V30 2690 H 254.204 3.1412 2.03174 0
M  V30 2691 H 255.537 4.12212 2.68965 0
M  V30 2692 N 257.189 -0.644168 1.43834 0
M  V30 2693 C 258.099 -1.78563 1.52159 0
M  V30 2694 C 259.115 -1.69147 0.408069 0
M  V30 2695 O 260.291 -1.90156 0.663524 0
M  V30 2696 C 257.356 -3.14888 1.45073 0
M  V30 2697 C 256.417 -3.36034 2.6717 0
M  V30 2698 C 255.65 -4.65855 2.60413 0
M  V30 2699 O 255.873 -5.45805 1.65689 0
M  V30 2700 O 254.807 -4.88918 3.5106 0
M  V30 2701 H 258.633 -1.74494 2.48567 0
M  V30 2702 H 256.218 -0.80378 1.25935 0
M  V30 2703 H 258.1 -3.96179 1.43597 0
M  V30 2704 H 256.775 -3.19528 0.518037 0
M  V30 2705 H 255.682 -2.54472 2.74217 0
M  V30 2706 H 257.015 -3.36247 3.59442 0
M  V30 2707 N 258.668 -1.30515 -0.883378 0
M  V30 2708 C 260.084 -1.08881 -1.16692 0
M  V30 2709 C 260.284 0.149409 -2.00945 0
M  V30 2710 O 259.34 0.84257 -2.38027 0
M  V30 2711 C 260.653 -2.35319 -1.87204 0
M  V30 2712 C 262.201 -2.40799 -1.99962 0
M  V30 2713 C 262.676 -3.67083 -2.73887 0
M  V30 2714 N 264.167 -3.679 -2.81432 0
M  V30 2715 C 264.902 -4.62303 -3.3921 0
M  V30 2716 N 264.398 -5.67052 -3.98025 0
M  V30 2717 N 266.191 -4.49845 -3.3704 0
M  V30 2718 H 258.342 -2.09951 -0.321633 0
M  V30 2719 H 260.605 -0.92556 -0.205043 0
M  V30 2720 H 260.311 -3.25689 -1.3274 0
M  V30 2721 H 260.185 -2.44089 -2.87577 0
M  V30 2722 H 262.572 -1.50907 -2.53597 0
M  V30 2723 H 262.653 -2.36003 -0.98673 0
M  V30 2724 H 262.297 -4.57334 -2.20925 0
M  V30 2725 H 262.227 -3.69141 -3.75556 0
M  V30 2726 H 264.718 -2.92171 -2.39676 0
M  V30 2727 H 265.031 -6.35184 -4.40183 0
M  V30 2728 H 263.376 -5.70842 -3.96439 0
M  V30 2729 H 266.567 -3.67194 -2.90321 0
M  V30 2730 H 266.74 -5.23597 -3.81772 0
M  V30 2731 N 260.146 1.09593 -1.13257 0
M  V30 2732 C 261.093 2.1618 -0.808381 0
M  V30 2733 C 262.063 1.64517 0.228754 0
M  V30 2734 O 263.248 1.9053 0.101381 0
M  V30 2735 C 260.388 3.43973 -0.278675 0
M  V30 2736 C 259.501 4.09545 -1.37466 0
M  V30 2737 C 258.636 5.25088 -0.803479 0
M  V30 2738 C 257.675 5.82579 -1.87799 0
M  V30 2739 N 256.812 6.89486 -1.32488 0
M  V30 2740 H 261.652 2.43254 -1.72138 0
M  V30 2741 H 259.189 1.19392 -0.859294 0
M  V30 2742 H 261.147 4.17174 0.0465583 0
M  V30 2743 H 259.777 3.17223 0.597459 0
M  V30 2744 H 258.829 3.34226 -1.81652 0
M  V30 2745 H 260.141 4.48307 -2.18684 0
M  V30 2746 H 259.295 6.05178 -0.429427 0
M  V30 2747 H 258.034 4.87684 0.0397956 0
M  V30 2748 H 257.039 5.01152 -2.26113 0
M  V30 2749 H 258.264 6.22045 -2.72463 0
M  V30 2750 H 256.21 6.54064 -0.503575 0
M  V30 2751 H 256.127 7.27007 -2.07355 0
M  V30 2752 H 257.395 7.73336 -0.978336 0
M  V30 2753 N 261.624 0.925811 1.2754 0
M  V30 2754 C 262.872 0.564138 1.94067 0
M  V30 2755 C 263.193 -0.897188 1.73134 0
M  V30 2756 O 262.463 -1.63573 1.07799 0
M  V30 2757 H 261.043 0.205645 0.718136 0
M  V30 2758 H 263.705 1.1778 1.55287 0
M  V30 2759 H 262.801 0.76881 3.02483 0
M  V30 2760 N 263.102 -1.41638 0.69111 0
M  V30 2761 C 264.513 -1.84346 0.295517 0
M  V30 2762 C 264.864 -1.57833 -1.16547 0
M  V30 2763 O 263.989 -1.04648 -1.89414 0
M  V30 2764 C 264.584 -3.34636 0.529575 0
M  V30 2765 C 263.143 -3.7593 0.187944 0
M  V30 2766 C 262.29 -2.65082 0.814052 0
M  V30 2767 H 265.241 -1.31253 0.892092 0
M  V30 2768 H 265.262 -3.79903 -0.213148 0
M  V30 2769 H 264.774 -3.53901 1.59297 0
M  V30 2770 H 262.875 -3.62268 -0.871367 0
M  V30 2771 H 262.988 -4.74808 0.63985 0
M  V30 2772 H 261.352 -2.53528 0.244017 0
M  V30 2773 H 262.135 -2.87167 1.88123 0
M  V30 2774 N 264.58 -0.43555 -1.51462 0
M  V30 2775 C 265.808 0.130242 -2.0649 0
M  V30 2776 C 266.223 1.36614 -1.30315 0
M  V30 2777 O 265.58 1.78869 -0.362223 0
M  V30 2778 C 265.631 0.454253 -3.58635 0
M  V30 2779 O 265.352 -0.73259 -4.31931 0
M  V30 2780 C 266.853 1.07091 -4.3017 0
M  V30 2781 H 264.073 0.00871669 -0.670943 0
M  V30 2782 H 266.617 -0.614117 -1.95061 0
M  V30 2783 H 264.772 1.14851 -3.69984 0
M  V30 2784 H 265.186 -0.455787 -5.22516 0
M  V30 2785 H 266.66 1.24764 -5.37716 0
M  V30 2786 H 267.137 2.05144 -3.88346 0
M  V30 2787 H 267.743 0.416089 -4.2326 0
M  V30 2788 N 266.058 1.56714 -0.166846 0
M  V30 2789 C 266.99 2.14914 0.796537 0
M  V30 2790 C 268.003 1.10357 1.19688 0
M  V30 2791 O 269.192 1.37561 1.13751 0
M  V30 2792 C 266.292 2.67326 2.08303 0
M  V30 2793 C 265.465 3.96493 1.84696 0
M  V30 2794 C 264.524 4.34014 2.97521 0
M  V30 2795 O 263.55 5.01973 2.6835 0
M  V30 2796 N 264.752 3.95208 4.25196 0
M  V30 2797 H 267.517 2.98205 0.299006 0
M  V30 2798 H 265.078 1.61892 0.0160839 0
M  V30 2799 H 267.07 2.89428 2.82867 0
M  V30 2800 H 265.64 1.88649 2.4926 0
M  V30 2801 H 264.86 3.82814 0.940602 0
M  V30 2802 H 266.148 4.8086 1.66285 0
M  V30 2803 H 265.546 3.40487 4.51758 0
M  V30 2804 H 264.103 4.2232 4.96477 0
M  V30 2805 N 267.536 -0.106894 1.57237 0
M  V30 2806 C 268.499 -1.11466 2.0027 0
M  V30 2807 C 269.499 -1.33623 0.894519 0
M  V30 2808 O 270.689 -1.29935 1.16028 0
M  V30 2809 C 267.821 -2.46646 2.35327 0
M  V30 2810 H 269.014 -0.744516 2.90512 0
M  V30 2811 H 266.567 -0.351576 1.52295 0
M  V30 2812 H 267.302 -2.88558 1.48003 0
M  V30 2813 H 267.087 -2.31915 3.16161 0
M  V30 2814 H 268.577 -3.19151 2.69318 0
M  V30 2815 N 269.014 -1.53014 -0.377408 0
M  V30 2816 C 270.262 -1.6829 -1.11906 0
M  V30 2817 C 270.583 -0.431206 -1.90173 0
M  V30 2818 O 269.853 0.554595 -1.87886 0
M  V30 2819 H 268.433 -0.620371 -0.416112 0
M  V30 2820 H 271.095 -1.90167 -0.426893 0
M  V30 2821 H 270.191 -2.53862 -1.8155 0
M  V30 2822 N 270.492 0.636531 -1.44174 0
M  V30 2823 C 271.455 1.73063 -1.50273 0
M  V30 2824 C 272.455 1.56113 -0.385397 0
M  V30 2825 O 273.645 1.61707 -0.64781 0
M  V30 2826 C 270.777 3.12096 -1.37145 0
M  V30 2827 H 271.97 1.69031 -2.47727 0
M  V30 2828 H 269.523 0.849706 -1.31186 0
M  V30 2829 H 270.258 3.21728 -0.407636 0
M  V30 2830 H 270.043 3.25805 -2.18159 0
M  V30 2831 H 271.533 3.91846 -1.44382 0
M  V30 2832 N 271.97 1.30982 0.876444 0
M  V30 2833 C 272.933 1.18054 1.96459 0
M  V30 2834 C 273.933 0.109399 1.60427 0
M  V30 2835 O 275.123 0.358173 1.70478 0
M  V30 2836 C 272.255 0.810616 3.31122 0
M  V30 2837 H 273.448 2.14735 2.09354 0
M  V30 2838 H 271.001 1.145 1.06392 0
M  V30 2839 H 271.736 -0.155322 3.23928 0
M  V30 2840 H 271.521 1.58481 3.58645 0
M  V30 2841 H 273.011 0.743876 4.10921 0
M  V30 2842 N 273.449 -1.08991 1.13837 0
M  V30 2843 C 274.412 -2.13925 0.822715 0
M  V30 2844 C 275.412 -1.599 -0.1699 0
M  V30 2845 O 276.602 -1.74104 0.0577251 0
M  V30 2846 C 273.734 -3.40155 0.225318 0
M  V30 2847 H 274.927 -2.43358 1.75262 0
M  V30 2848 H 272.48 -1.24603 0.943594 0
M  V30 2849 H 273.215 -3.16352 -0.713594 0
M  V30 2850 H 273 -3.80661 0.940193 0
M  V30 2851 H 274.49 -4.17594 0.0214784 0
M  V30 2852 N 274.927 -0.932562 -1.27047 0
M  V30 2853 C 275.89 -0.440064 -2.24936 0
M  V30 2854 C 276.89 0.444071 -1.54547 0
M  V30 2855 O 278.08 0.244465 -1.72476 0
M  V30 2856 C 275.212 0.36678 -3.38921 0
M  V30 2857 H 276.405 -1.305 -2.70018 0
M  V30 2858 H 273.958 -0.713707 -1.39054 0
M  V30 2859 H 274.693 1.25033 -2.99228 0
M  V30 2860 H 274.478 -0.267204 -3.91188 0
M  V30 2861 H 275.968 0.701567 -4.11665 0
M  V30 2862 N 276.405 1.4127 -0.698611 0
M  V30 2863 C 277.368 2.29158 -0.044132 0
M  V30 2864 C 278.368 1.44529 0.704841 0
M  V30 2865 O 279.558 1.65643 0.539276 0
M  V30 2866 C 276.69 3.27459 0.947809 0
M  V30 2867 H 277.883 2.88529 -0.817994 0
M  V30 2868 H 275.436 1.49307 -0.46228 0
M  V30 2869 H 276.171 2.73073 1.74933 0
M  V30 2870 H 275.956 3.8991 0.41385 0
M  V30 2871 H 277.446 3.93311 1.40344 0
M  V30 2872 N 277.883 0.443576 1.51229 0
M  V30 2873 C 279.111 -0.11929 2.06556 0
M  V30 2874 C 279.526 -1.35921 1.31038 0
M  V30 2875 O 278.883 -1.78675 0.371704 0
M  V30 2876 C 278.934 -0.435228 3.5887 0
M  V30 2877 O 278.655 0.755486 4.31537 0
M  V30 2878 C 280.156 -1.04808 4.30732 0
M  V30 2879 H 277.376 -0.0051584 0.67098 0
M  V30 2880 H 279.92 0.624453 1.94733 0
M  V30 2881 H 278.075 -1.12887 3.70588 0
M  V30 2882 H 278.489 0.483491 5.22267 0
M  V30 2883 H 279.963 -1.2191 5.3837 0
M  V30 2884 H 280.44 -2.03081 3.89429 0
M  V30 2885 H 281.046 -0.393637 4.23474 0
M  V30 2886 N 279.361 -1.56624 0.175154 0
M  V30 2887 C 280.271 -2.21741 -0.766042 0
M  V30 2888 C 281.287 -1.21023 -1.25018 0
M  V30 2889 O 282.463 -1.53697 -1.3015 0
M  V30 2890 C 279.528 -2.84839 -1.97655 0
M  V30 2891 C 278.589 -4.00769 -1.53892 0
M  V30 2892 C 277.822 -4.60849 -2.69173 0
M  V30 2893 O 278.045 -4.19823 -3.86141 0
M  V30 2894 O 276.979 -5.50655 -2.43028 0
M  V30 2895 H 280.805 -3.02738 -0.241585 0
M  V30 2896 H 278.39 -1.49305 -0.053222 0
M  V30 2897 H 280.272 -3.24834 -2.68442 0
M  V30 2898 H 278.947 -2.06836 -2.48999 0
M  V30 2899 H 277.854 -3.65436 -0.80044 0
M  V30 2900 H 279.187 -4.80376 -1.07236 0
M  V30 2901 N 280.839 0.0985539 -1.57292 0
M  V30 2902 C 282.25 0.653457 -1.74891 0
M  V30 2903 C 282.601 1.7929 -0.796838 0
M  V30 2904 O 281.726 2.16385 0.0254886 0
M  V30 2905 C 282.321 1.19216 -3.17133 0
M  V30 2906 C 280.88 1.69316 -3.36168 0
M  V30 2907 C 280.027 0.601294 -2.70702 0
M  V30 2908 H 282.978 -0.127497 -1.58187 0
M  V30 2909 H 282.999 2.06154 -3.19814 0
M  V30 2910 H 282.511 0.362635 -3.86402 0
M  V30 2911 H 280.612 2.5468 -2.71972 0
M  V30 2912 H 280.725 1.78853 -4.44464 0
M  V30 2913 H 279.089 1.0399 -2.32504 0
M  V30 2914 H 279.872 -0.217592 -3.4261 0
M  V30 2915 N 282.317 1.53212 0.369288 0
M  V30 2916 C 283.728 1.60943 0.946276 0
M  V30 2917 C 284.079 0.47452 1.90375 0
M  V30 2918 O 283.204 -0.399597 2.12679 0
M  V30 2919 C 283.799 2.91715 1.72302 0
M  V30 2920 C 282.358 3.01792 2.24941 0
M  V30 2921 C 281.505 2.56211 1.06072 0
M  V30 2922 H 284.456 1.58007 0.148198 0
M  V30 2923 H 284.477 2.79309 2.58393 0
M  V30 2924 H 283.989 3.74295 1.0259 0
M  V30 2925 H 282.09 2.23791 2.97906 0
M  V30 2926 H 282.203 4.06803 2.53077 0
M  V30 2927 H 280.567 2.10998 1.4266 0
M  V30 2928 H 281.35 3.41206 0.378639 0
M  V30 2929 N 283.795 -0.628877 1.44509 0
M  V30 2930 C 285.043 -1.38565 1.4712 0
M  V30 2931 C 285.364 -1.94712 0.105899 0
M  V30 2932 O 284.634 -1.75912 -0.862079 0
M  V30 2933 H 283.214 -0.514333 0.541729 0
M  V30 2934 H 285.876 -0.740018 1.80305 0
M  V30 2935 H 284.972 -2.21583 2.19789 0
M  V30 2936 N 285.273 -1.31445 -0.869486 0
M  V30 2937 C 286.22 -1.19135 -1.97675 0
M  V30 2938 C 287.19 -0.0770266 -1.65921 0
M  V30 2939 O 288.375 -0.249972 -1.89155 0
M  V30 2940 C 285.515 -0.905149 -3.33018 0
M  V30 2941 C 284.628 -2.10285 -3.77365 0
M  V30 2942 C 283.763 -1.75339 -5.01427 0
M  V30 2943 C 282.802 -2.91515 -5.38224 0
M  V30 2944 N 281.939 -2.56762 -6.53466 0
M  V30 2945 H 286.779 -2.13853 -2.07535 0
M  V30 2946 H 284.316 -1.06379 -1.01597 0
M  V30 2947 H 286.274 -0.719765 -4.10944 0
M  V30 2948 H 284.904 0.00519624 -3.228 0
M  V30 2949 H 283.956 -2.39899 -2.95216 0
M  V30 2950 H 285.268 -2.97237 -4.00564 0
M  V30 2951 H 284.422 -1.53266 -5.87022 0
M  V30 2952 H 283.161 -0.855801 -4.80133 0
M  V30 2953 H 282.166 -3.14237 -4.51149 0
M  V30 2954 H 283.391 -3.81985 -5.61484 0
M  V30 2955 H 281.337 -1.69526 -6.33717 0
M  V30 2956 H 281.254 -3.37243 -6.76612 0
M  V30 2957 H 282.522 -2.38083 -7.42251 0
M  V30 2958 N 286.751 1.08385 -1.14413 0
M  V30 2959 C 288.162 1.62258 -0.923535 0
M  V30 2960 C 288.513 1.88691 0.537595 0
M  V30 2961 O 287.638 1.64454 1.40655 0
M  V30 2962 C 288.233 2.94781 -1.67002 0
M  V30 2963 C 286.792 3.45437 -1.495 0
M  V30 2964 C 285.939 2.19668 -1.69238 0
M  V30 2965 H 288.89 0.916086 -1.2959 0
M  V30 2966 H 288.911 3.63229 -1.13334 0
M  V30 2967 H 288.423 2.7551 -2.73342 0
M  V30 2968 H 286.524 3.6981 -0.455097 0
M  V30 2969 H 286.637 4.22173 -2.2651 0
M  V30 2970 H 285.001 2.28849 -1.11804 0
M  V30 2971 H 285.784 2.02905 -2.7692 0
M  V30 2972 N 288.23 0.939286 1.26551 0
M  V30 2973 C 289.455 0.602008 1.98471 0
M  V30 2974 C 289.88 -0.815624 1.69497 0
M  V30 2975 O 289.238 -1.54912 0.941905 0
M  V30 2976 C 289.286 0.848407 3.50477 0
M  V30 2977 O 288.39 -0.0804009 4.12322 0
M  V30 2978 H 287.731 0.23049 0.622712 0
M  V30 2979 H 290.261 1.2617 1.61066 0
M  V30 2980 H 290.271 0.768553 4.00696 0
M  V30 2981 H 288.946 1.88171 3.70897 0
M  V30 2982 H 287.523 0.0503508 3.72866 0
M  V30 2983 N 289.708 -1.40897 0.706093 0
M  V30 2984 C 290.671 -2.29131 0.0562841 0
M  V30 2985 C 291.671 -1.44901 -0.697166 0
M  V30 2986 O 292.861 -1.65926 -0.530484 0
M  V30 2987 C 289.993 -3.27957 -0.93043 0
M  V30 2988 H 291.186 -2.88091 0.833284 0
M  V30 2989 H 288.739 -1.4906 0.470192 0
M  V30 2990 H 289.474 -2.73997 -1.73482 0
M  V30 2991 H 289.259 -3.90124 -0.393166 0
M  V30 2992 H 290.749 -3.94049 -1.38256 0
M  V30 2993 N 291.186 -0.45159 -1.50991 0
M  V30 2994 C 292.133 0.352625 -2.2809 0
M  V30 2995 C 293.103 1.0044 -1.32291 0
M  V30 2996 O 294.288 1.02058 -1.6121 0
M  V30 2997 C 291.428 1.43983 -3.13629 0
M  V30 2998 C 290.541 0.804772 -4.24438 0
M  V30 2999 C 289.676 1.86822 -4.97263 0
M  V30 3000 C 288.715 1.21236 -5.99973 0
M  V30 3001 N 287.852 2.2178 -6.66152 0
M  V30 3002 H 292.692 -0.311186 -2.96371 0
M  V30 3003 H 290.229 -0.165308 -1.46168 0
M  V30 3004 H 292.187 2.08161 -3.61559 0
M  V30 3005 H 290.817 2.07307 -2.47434 0
M  V30 3006 H 289.869 0.0509129 -3.80366 0
M  V30 3007 H 291.181 0.286076 -4.97979 0
M  V30 3008 H 290.335 2.58628 -5.48813 0
M  V30 3009 H 289.074 2.42068 -4.23385 0
M  V30 3010 H 288.079 0.479828 -5.47702 0
M  V30 3011 H 289.304 0.667051 -6.75816 0
M  V30 3012 H 287.25 2.76079 -5.95077 0
M  V30 3013 H 287.167 1.74841 -7.35504 0
M  V30 3014 H 288.435 2.93026 -7.22327 0
M  V30 3015 N 292.664 1.56529 -0.183458 0
M  V30 3016 C 293.627 2.17324 0.728223 0
M  V30 3017 C 294.627 1.12453 1.14939 0
M  V30 3018 O 295.817 1.37902 1.06437 0
M  V30 3019 C 292.949 2.76591 1.99274 0
M  V30 3020 H 294.142 2.99241 0.198772 0
M  V30 3021 H 291.695 1.5616 0.0661391 0
M  V30 3022 H 292.43 1.98441 2.56499 0
M  V30 3023 H 292.215 3.5335 1.69959 0
M  V30 3024 H 293.705 3.23311 2.6431 0
M  V30 3025 N 294.142 -0.090211 1.57342 0
M  V30 3026 C 295.052 -1.12735 2.05738 0
M  V30 3027 C 296.068 -1.43557 0.983231 0
M  V30 3028 O 297.244 -1.54101 1.29672 0
M  V30 3029 C 294.309 -2.42659 2.47624 0
M  V30 3030 C 293.37 -2.18975 3.69254 0
M  V30 3031 C 292.603 -3.42704 4.09133 0
M  V30 3032 O 292.826 -4.51127 3.49057 0
M  V30 3033 O 291.76 -3.32003 5.02053 0
M  V30 3034 H 295.586 -0.746279 2.94388 0
M  V30 3035 H 293.171 -0.303064 1.46294 0
M  V30 3036 H 295.053 -3.19155 2.7517 0
M  V30 3037 H 293.728 -2.80182 1.62109 0
M  V30 3038 H 292.635 -1.40244 3.46818 0
M  V30 3039 H 293.968 -1.86342 4.55563 0
M  V30 3040 N 295.62 -1.53406 -0.361157 0
M  V30 3041 C 296.567 -1.80156 -1.44265 0
M  V30 3042 C 297.537 -0.646183 -1.53015 0
M  V30 3043 O 298.722 -0.888818 -1.68833 0
M  V30 3044 C 295.862 -2.00116 -2.81154 0
M  V30 3045 C 294.975 -3.27833 -2.81335 0
M  V30 3046 C 294.11 -3.37957 -4.09828 0
M  V30 3047 C 293.149 -4.59689 -4.04168 0
M  V30 3048 N 292.286 -4.66942 -5.24318 0
M  V30 3049 H 297.126 -2.72438 -1.20754 0
M  V30 3050 H 294.663 -1.34954 -0.585296 0
M  V30 3051 H 296.621 -2.09677 -3.60682 0
M  V30 3052 H 295.251 -1.11167 -3.03054 0
M  V30 3053 H 294.303 -3.27204 -1.94014 0
M  V30 3054 H 295.615 -4.17442 -2.73027 0
M  V30 3055 H 294.769 -3.46853 -4.97773 0
M  V30 3056 H 293.508 -2.46372 -4.20894 0
M  V30 3057 H 292.513 -4.50889 -3.14609 0
M  V30 3058 H 293.738 -5.5262 -3.947 0
M  V30 3059 H 291.684 -3.7826 -5.35962 0
M  V30 3060 H 291.601 -5.50462 -5.18197 0
M  V30 3061 H 292.869 -4.80127 -6.14084 0
M  V30 3062 N 297.098 0.621204 -1.44841 0
M  V30 3063 C 298.008 1.7612 -1.5498 0
M  V30 3064 C 299.024 1.68477 -0.434927 0
M  V30 3065 O 300.2 1.89076 -0.693693 0
M  V30 3066 C 297.265 3.1254 -1.50065 0
M  V30 3067 C 296.326 3.31741 -2.72482 0
M  V30 3068 C 295.559 4.61653 -2.67792 0
M  V30 3069 O 295.782 5.431 -1.74352 0
M  V30 3070 O 294.716 4.83271 -3.58794 0
M  V30 3071 H 298.542 1.70518 -2.51311 0
M  V30 3072 H 296.127 0.783643 -1.27198 0
M  V30 3073 H 298.009 3.93844 -1.49882 0
M  V30 3074 H 296.684 3.18663 -0.568806 0
M  V30 3075 H 295.591 2.50077 -2.7823 0
M  V30 3076 H 296.924 3.30486 -3.64746 0
M  V30 3077 N 298.576 1.31904 0.862503 0
M  V30 3078 C 299.539 1.20131 1.95195 0
M  V30 3079 C 300.539 0.126409 1.60302 0
M  V30 3080 O 301.729 0.376234 1.70089 0
M  V30 3081 C 298.861 0.845691 3.30244 0
M  V30 3082 H 300.054 2.16943 2.07064 0
M  V30 3083 H 297.607 1.15622 1.05172 0
M  V30 3084 H 298.342 -0.120957 3.24074 0
M  V30 3085 H 298.127 1.62276 3.56944 0
M  V30 3086 H 299.617 0.787418 4.10109 0
M  V30 3087 N 300.054 -1.07777 1.14986 0
M  V30 3088 C 301.017 -2.13041 0.845358 0
M  V30 3089 C 302.017 -1.60071 -0.152931 0
M  V30 3090 O 303.207 -1.74033 0.0761879 0
M  V30 3091 C 300.339 -3.39896 0.261383 0
M  V30 3092 H 301.532 -2.41485 1.77834 0
M  V30 3093 H 299.085 -1.23595 0.956757 0
M  V30 3094 H 299.82 -3.17091 -0.68 0
M  V30 3095 H 299.605 -3.79642 0.980514 0
M  V30 3096 H 301.095 -4.17548 0.0657687 0
M  V30 3097 N 301.532 -0.945985 -1.26051 0
M  V30 3098 C 302.948 -0.649045 -1.45807 0
M  V30 3099 C 303.148 0.796158 -1.85104 0
M  V30 3100 O 302.204 1.57233 -1.97571 0
M  V30 3101 C 303.517 -1.61458 -2.53677 0
M  V30 3102 C 305.065 -1.62481 -2.67524 0
M  V30 3103 C 305.54 -2.57776 -3.7857 0
M  V30 3104 N 307.031 -2.5609 -3.85969 0
M  V30 3105 C 307.766 -3.26508 -4.7136 0
M  V30 3106 N 307.262 -4.0637 -5.61102 0
M  V30 3107 N 309.055 -3.15437 -4.65248 0
M  V30 3108 H 301.206 -1.88005 -0.988328 0
M  V30 3109 H 303.469 -0.808198 -0.4955 0
M  V30 3110 H 303.175 -2.64644 -2.31638 0
M  V30 3111 H 303.049 -1.37036 -3.51427 0
M  V30 3112 H 305.436 -0.600167 -2.88933 0
M  V30 3113 H 305.517 -1.90958 -1.70202 0
M  V30 3114 H 305.161 -3.60361 -3.57913 0
M  V30 3115 H 305.091 -2.26587 -4.75359 0
M  V30 3116 H 307.582 -1.98105 -3.21812 0
M  V30 3117 H 307.895 -4.57042 -6.23164 0
M  V30 3118 H 306.24 -4.10469 -5.60839 0
M  V30 3119 H 309.431 -2.52525 -3.94143 0
M  V30 3120 H 309.604 -3.70584 -5.31575 0
M  V30 3121 N 303.011 1.40521 -0.713556 0
M  V30 3122 C 303.958 2.30723 -0.059684 0
M  V30 3123 C 304.928 1.48079 0.752448 0
M  V30 3124 O 306.113 1.76823 0.71681 0
M  V30 3125 C 303.253 3.34274 0.857594 0
M  V30 3126 C 302.366 4.31986 0.0351536 0
M  V30 3127 C 301.501 5.22605 0.951724 0
M  V30 3128 C 300.54 6.11976 0.123253 0
M  V30 3129 N 299.677 6.9502 0.99459 0
M  V30 3130 H 304.517 2.86074 -0.834596 0
M  V30 3131 H 302.054 1.40879 -0.42326 0
M  V30 3132 H 304.012 3.92879 1.40364 0
M  V30 3133 H 302.642 2.8043 1.59871 0
M  V30 3134 H 301.694 3.7518 -0.628052 0
M  V30 3135 H 303.006 4.95101 -0.606347 0
M  V30 3136 H 302.16 5.86131 1.56638 0
M  V30 3137 H 300.899 4.59759 1.62705 0
M  V30 3138 H 299.904 5.47482 -0.50435 0
M  V30 3139 H 301.129 6.76881 -0.548539 0
M  V30 3140 H 299.075 6.34764 1.6556 0
M  V30 3141 H 298.992 7.54892 0.40908 0
M  V30 3142 H 300.26 7.62997 1.59549 0
M  V30 3143 N 304.489 0.459591 1.5075 0
M  V30 3144 C 305.452 -0.329093 2.26825 0
M  V30 3145 C 306.452 -0.930481 1.31144 0
M  V30 3146 O 307.642 -0.801453 1.54669 0
M  V30 3147 C 304.774 -1.46768 3.07688 0
M  V30 3148 H 305.967 0.337924 2.9799 0
M  V30 3149 H 303.52 0.213336 1.54837 0
M  V30 3150 H 304.255 -2.17009 2.40993 0
M  V30 3151 H 304.04 -1.04238 3.77991 0
M  V30 3152 H 305.53 -2.02433 3.65254 0
M  V30 3153 N 305.967 -1.56429 0.191757 0
M  V30 3154 C 306.93 -2.17707 -0.716688 0
M  V30 3155 C 307.93 -1.13061 -1.14341 0
M  V30 3156 O 309.12 -1.38464 -1.05704 0
M  V30 3157 C 306.252 -2.77644 -1.97804 0
M  V30 3158 H 307.445 -2.99342 -0.1829 0
M  V30 3159 H 304.998 -1.56193 -0.0578566 0
M  V30 3160 H 305.733 -1.99799 -2.55443 0
M  V30 3161 H 305.518 -3.54246 -1.68083 0
M  V30 3162 H 307.008 -3.24708 -2.62592 0
M  V30 3163 N 307.445 0.0818655 -1.57387 0
M  V30 3164 C 308.693 0.781368 -1.86384 0
M  V30 3165 C 309.014 1.78618 -0.782342 0
M  V30 3166 O 308.284 1.94976 0.190061 0
M  V30 3167 H 306.864 0.291562 -0.687751 0
M  V30 3168 H 309.526 0.060348 -1.94807 0
M  V30 3169 H 308.622 1.3038 -2.83562 0
M  V30 3170 N 308.923 1.53595 0.353017 0
M  V30 3171 C 310.148 1.7462 1.11904 0
M  V30 3172 C 310.573 0.479721 1.8188 0
M  V30 3173 O 309.931 -0.567066 1.72204 0
M  V30 3174 C 309.979 2.92029 2.11545 0
M  V30 3175 O 309.083 2.61516 3.18878 0
M  V30 3176 H 308.424 0.579531 0.324099 0
M  V30 3177 H 310.954 2.00525 0.406301 0
M  V30 3178 H 310.964 3.18551 2.5493 0
M  V30 3179 H 309.639 3.83888 1.60008 0
M  V30 3180 H 308.216 2.45852 2.80377 0
M  V30 3181 N 310.401 -0.613514 1.45168 0
M  V30 3182 C 311.364 -1.7065 1.53007 0
M  V30 3183 C 312.364 -1.5548 0.410184 0
M  V30 3184 O 313.554 -1.60656 0.673455 0
M  V30 3185 C 310.686 -3.09875 1.42093 0
M  V30 3186 H 311.879 -1.65068 2.50385 0
M  V30 3187 H 309.432 -0.828728 1.32521 0
M  V30 3188 H 310.167 -3.21039 0.458769 0
M  V30 3189 H 309.952 -3.22293 2.23315 0
M  V30 3190 H 311.442 -3.895 1.50598 0
M  V30 3191 N 311.879 -1.3236 -0.855495 0
M  V30 3192 C 312.842 -1.21164 -1.94556 0
M  V30 3193 C 313.842 -0.134908 -1.60233 0
M  V30 3194 O 315.032 -0.385249 -1.69887 0
M  V30 3195 C 312.164 -0.863192 -3.29791 0
M  V30 3196 H 313.357 -2.18038 -2.05911 0
M  V30 3197 H 310.91 -1.16179 -1.04557 0
M  V30 3198 H 311.645 0.103769 -3.24134 0
M  V30 3199 H 311.43 -1.64166 -3.56078 0
M  V30 3200 H 312.92 -0.809156 -4.09686 0
M  V30 3201 N 313.357 1.07166 -1.15556 0
M  V30 3202 C 314.768 1.6127 -0.940693 0
M  V30 3203 C 315.119 1.89251 0.517551 0
M  V30 3204 O 314.244 1.65937 1.38903 0
M  V30 3205 C 314.839 2.92993 -1.7012 0
M  V30 3206 C 313.398 3.43832 -1.53156 0
M  V30 3207 C 312.545 2.1786 -1.71558 0
M  V30 3208 H 315.496 0.90229 -1.30554 0
M  V30 3209 H 315.517 3.62007 -1.17181 0
M  V30 3210 H 315.029 2.72596 -2.76248 0
M  V30 3211 H 313.13 3.69307 -0.494294 0
M  V30 3212 H 313.243 4.19747 -2.30975 0
M  V30 3213 H 311.607 2.2765 -1.14225 0
M  V30 3214 H 312.39 1.99956 -2.79056 0
M  V30 3215 N 314.835 0.952656 1.25548 0
M  V30 3216 C 316.246 0.647392 1.75116 0
M  V30 3217 C 316.597 -0.837274 1.77438 0
M  V30 3218 O 315.722 -1.65525 1.39393 0
M  V30 3219 C 316.317 1.16845 3.18014 0
M  V30 3220 C 314.876 0.913382 3.6515 0
M  V30 3221 C 314.023 1.31265 2.44264 0
M  V30 3222 H 316.974 1.12968 1.11462 0
M  V30 3223 H 316.995 0.527606 3.76824 0
M  V30 3224 H 316.507 2.24902 3.16292 0
M  V30 3225 H 314.608 -0.152316 3.72289 0
M  V30 3226 H 314.721 1.54845 4.53387 0
M  V30 3227 H 313.085 0.731028 2.43984 0
M  V30 3228 H 313.868 2.40239 2.45234 0
M  V30 3229 N 316.313 -1.40141 0.720998 0
M  V30 3230 C 317.724 -1.83678 0.334553 0
M  V30 3231 C 318.075 -1.6027 -1.13173 0
M  V30 3232 O 317.2 -1.08643 -1.87152 0
M  V30 3233 C 317.795 -3.33437 0.600437 0
M  V30 3234 C 316.354 -3.75447 0.267642 0
M  V30 3235 C 315.501 -2.63296 0.870097 0
M  V30 3236 H 318.452 -1.29331 0.919732 0
M  V30 3237 H 318.473 -3.80269 -0.132517 0
M  V30 3238 H 317.985 -3.50442 1.66768 0
M  V30 3239 H 316.086 -3.64035 -0.794329 0
M  V30 3240 H 316.199 -4.73344 0.74042 0
M  V30 3241 H 314.563 -2.52954 0.297739 0
M  V30 3242 H 315.346 -2.83112 1.94172 0
M  V30 3243 N 317.792 -0.46758 -1.50504 0
M  V30 3244 C 318.755 0.317059 -2.26996 0
M  V30 3245 C 319.755 0.923513 -1.31635 0
M  V30 3246 O 320.945 0.793239 -1.55091 0
M  V30 3247 C 318.077 1.45134 -3.08462 0
M  V30 3248 H 319.27 -0.353723 -2.97807 0
M  V30 3249 H 316.823 -0.221545 -1.54722 0
M  V30 3250 H 317.558 2.15728 -2.4214 0
M  V30 3251 H 317.343 1.02232 -3.78538 0
M  V30 3252 H 318.833 2.00493 -3.66323 0
M  V30 3253 N 319.27 1.56325 -0.20005 0
M  V30 3254 C 320.202 2.16555 0.750771 0
M  V30 3255 C 321.215 1.12871 1.1732 0
M  V30 3256 O 322.404 1.39943 1.10807 0
M  V30 3257 C 319.504 2.71684 2.02586 0
M  V30 3258 C 318.677 4.00321 1.76244 0
M  V30 3259 C 317.736 4.40227 2.88248 0
M  V30 3260 O 316.762 5.07552 2.57642 0
M  V30 3261 N 317.964 4.04138 4.16717 0
M  V30 3262 H 320.729 2.98772 0.235685 0
M  V30 3263 H 318.29 1.6189 -0.0182594 0
M  V30 3264 H 320.282 2.95363 2.76664 0
M  V30 3265 H 318.852 1.93893 2.45202 0
M  V30 3266 H 318.072 3.84723 0.85919 0
M  V30 3267 H 319.36 4.84279 1.56048 0
M  V30 3268 H 318.758 3.49993 4.44434 0
M  V30 3269 H 317.315 4.32756 4.87407 0
M  V30 3270 O 320.787 0.0630897 1.61377 0
M  V30 3271 H 321.478 -0.544463 1.85891 0
M  V30 END ATOM
M  V30 BEGIN BOND
M  V30 END BOND
M  V30 END CTAB
M  END
$$$$
