drugbank_target|Q9NZD4 Alpha-hemoglobin-stabilizing protein (DB01592; DB14488; DB14489; DB14490; DB14491; DB14501)
 OpenBabel12092121063D

  0  0  0     0  0            999 V3000
M  V30 BEGIN CTAB
M  V30 COUNTS 1655 1674 0 0 0
M  V30 BEGIN ATOM
M  V30 1 H -0.908 1.98254 -0.117106 0
M  V30 2 N 0 1.576 0 0
M  V30 3 C 0.933 2.03868 1.02534 0
M  V30 4 C 1.911 0.928543 1.3348 0
M  V30 5 O 3.095 1.19667 1.45644 0
M  V30 6 C 0.222 2.43627 2.35294 0
M  V30 7 C -0.732 3.65373 2.2001 0
M  V30 8 S 0.101 5.13292 1.52614 0
M  V30 9 C 1.257 5.56322 2.86805 0
M  V30 10 H 1.49 2.90518 0.631377 0
M  V30 11 H -0.977 1.52953 0.210867 0
M  V30 12 H 0.981 2.67203 3.11629 0
M  V30 13 H -0.358 1.57376 2.7183 0
M  V30 14 H -1.165 3.90944 3.18086 0
M  V30 15 H -1.563 3.418 1.51819 0
M  V30 16 H 0.729 5.58782 3.83104 0
M  V30 17 H 1.672 6.56266 2.65933 0
M  V30 18 H 2.08 4.83886 2.90714 0
M  V30 19 N 1.4781 -0.272755 1.55222 0
M  V30 20 C 2.4411 -1.32041 1.87344 0
M  V30 21 C 3.4411 -1.42342 0.74803 0
M  V30 22 O 4.6311 -1.41488 1.0162 0
M  V30 23 C 1.7631 -2.70173 2.07893 0
M  V30 24 H 2.9561 -1.04789 2.80997 0
M  V30 25 H 0.5091 -0.51083 1.47717 0
M  V30 26 H 1.2441 -3.02605 1.16622 0
M  V30 27 H 1.0291 -2.64082 2.89833 0
M  V30 28 H 2.5191 -3.45869 2.34017 0
M  V30 29 N 2.9562 -1.48159 -0.537278 0
M  V30 30 C 3.8862 -1.65029 -1.6519 0
M  V30 31 C 4.8672 -0.499281 -1.62607 0
M  V30 32 O 6.0522 -0.730972 -1.79918 0
M  V30 33 C 3.1822 -1.68303 -3.03795 0
M  V30 34 C 2.1362 -2.8283 -3.21234 0
M  V30 35 C 1.4622 -2.71189 -4.60826 0
M  V30 36 C 2.7622 -4.24211 -3.04701 0
M  V30 37 H 4.4562 -2.58341 -1.51328 0
M  V30 38 H 2.0022 -1.24325 -0.726585 0
M  V30 39 H 3.9552 -1.78693 -3.81637 0
M  V30 40 H 2.6792 -0.715635 -3.18663 0
M  V30 41 H 1.3382 -2.71983 -2.45807 0
M  V30 42 H 0.9862 -1.72435 -4.7252 0
M  V30 43 H 0.6862 -3.48035 -4.7344 0
M  V30 44 H 2.2102 -2.83537 -5.40777 0
M  V30 45 H 3.6242 -4.3593 -3.72341 0
M  V30 46 H 2.0212 -5.01998 -3.28813 0
M  V30 47 H 3.0912 -4.41184 -2.01209 0
M  V30 48 N 4.4343 0.785586 -1.36625 0
M  V30 49 C 5.3643 1.91259 -1.33949 0
M  V30 50 C 6.3453 1.68795 -0.210325 0
M  V30 51 O 7.5303 1.89854 -0.408561 0
M  V30 52 C 4.6603 3.28339 -1.13186 0
M  V30 53 C 3.6143 3.65335 -2.22967 0
M  V30 54 C 2.9403 5.00806 -1.87342 0
M  V30 55 C 4.2403 3.7352 -3.65075 0
M  V30 56 H 5.9343 1.93755 -2.28253 0
M  V30 57 H 3.4803 0.930788 -1.09874 0
M  V30 58 H 5.4333 4.06804 -1.09948 0
M  V30 59 H 4.1573 3.2624 -0.153332 0
M  V30 60 H 2.8163 2.89169 -2.25337 0
M  V30 61 H 2.4643 4.95233 -0.880545 0
M  V30 62 H 2.1643 5.26529 -2.60846 0
M  V30 63 H 3.6883 5.81687 -1.85667 0
M  V30 64 H 5.1023 4.42168 -3.64911 0
M  V30 65 H 3.4993 4.10731 -4.37516 0
M  V30 66 H 4.5693 2.74527 -3.99703 0
M  V30 67 N 5.9124 1.20967 1.01018 0
M  V30 68 C 6.8594 0.964281 2.09691 0
M  V30 69 C 7.8294 -0.107853 1.65749 0
M  V30 70 O 9.0144 0.0381987 1.90762 0
M  V30 71 C 6.1544 0.52943 3.41015 0
M  V30 72 C 5.2674 1.67043 3.98398 0
M  V30 73 C 4.4024 1.18525 5.17808 0
M  V30 74 C 3.4414 2.29892 5.67288 0
M  V30 75 N 2.5784 1.82546 6.77954 0
M  V30 76 H 7.4184 1.89463 2.30017 0
M  V30 77 H 4.9554 0.944289 1.1279 0
M  V30 78 H 6.9134 0.258588 4.16398 0
M  V30 79 H 5.5434 -0.363919 3.20742 0
M  V30 80 H 4.5954 2.05603 3.20049 0
M  V30 81 H 5.9074 2.50877 4.31117 0
M  V30 82 H 5.0614 0.870762 6.00419 0
M  V30 83 H 3.8004 0.316887 4.86669 0
M  V30 84 H 2.8054 2.6215 4.83278 0
M  V30 85 H 4.0304 3.17216 6.00459 0
M  V30 86 H 1.9764 0.980454 6.48632 0
M  V30 87 H 1.8934 2.59956 7.09901 0
M  V30 88 H 3.1614 1.54115 7.64113 0
M  V30 89 N 7.3905 -1.2043 1.01659 0
M  V30 90 C 8.3535 -2.21433 0.591616 0
M  V30 91 C 9.3535 -1.57203 -0.338226 0
M  V30 92 O 10.5435 -1.73737 -0.126918 0
M  V30 93 C 7.6755 -3.40628 -0.136058 0
M  V30 94 H 8.8685 -2.60545 1.48514 0
M  V30 95 H 6.4215 -1.33893 0.806379 0
M  V30 96 H 7.1565 -3.07019 -1.04449 0
M  V30 97 H 6.9415 -3.88475 0.531917 0
M  V30 98 H 8.4315 -4.15475 -0.420735 0
M  V30 99 N 8.8686 -0.792821 -1.36206 0
M  V30 100 C 9.8166 -0.181555 -2.3189 0
M  V30 101 C 10.8106 0.661025 -1.55971 0
M  V30 102 O 12.0166 0.555728 -1.71206 0
M  V30 103 H 8.3916 -0.0399382 -0.750939 0
M  V30 104 H 10.3626 -1.00394 -2.81005 0
M  V30 105 C 9.1116 0.666444 -3.41253 0
M  V30 106 H 8.4346 0.0274489 -3.99791 0
M  V30 107 H 9.8746 1.06076 -4.10517 0
M  V30 108 C 8.3336 1.82614 -2.83114 0
M  V30 109 O 8.8636 2.9229 -2.75553 0
M  V30 110 N 7.0696 1.63333 -2.40356 0
M  V30 111 H 6.6166 0.741217 -2.46706 0
M  V30 112 H 6.5746 2.41087 -2.01803 0
M  V30 113 N 10.3467 1.47872 -0.545128 0
M  V30 114 C 11.2937 2.29849 0.2093 0
M  V30 115 C 12.2637 1.38313 0.919707 0
M  V30 116 O 13.4487 1.67277 0.917772 0
M  V30 117 C 10.5887 3.22019 1.24088 0
M  V30 118 C 9.7017 4.2864 0.537778 0
M  V30 119 C 8.8367 5.07973 1.5536 0
M  V30 120 C 7.8757 6.06381 0.8348 0
M  V30 121 N 7.0127 6.78717 1.79688 0
M  V30 122 H 11.8527 2.93845 -0.49591 0
M  V30 123 H 9.3897 1.44848 -0.256389 0
M  V30 124 H 11.3477 3.73868 1.85144 0
M  V30 125 H 9.9777 2.59914 1.91428 0
M  V30 126 H 9.0297 3.7994 -0.187046 0
M  V30 127 H 10.3417 4.98793 -0.0258907 0
M  V30 128 H 9.4957 5.63912 2.23803 0
M  V30 129 H 8.2347 4.37693 2.15118 0
M  V30 130 H 7.2397 5.49631 0.136388 0
M  V30 131 H 8.4647 6.78665 0.24313 0
M  V30 132 H 6.4107 6.11177 2.38326 0
M  V30 133 H 6.3277 7.44998 1.28505 0
M  V30 134 H 7.5957 7.39237 2.47282 0
M  V30 135 N 11.8248 0.280983 1.55075 0
M  V30 136 C 13.1018 -0.386207 1.91749 0
M  V30 137 C 13.4818 -1.73264 1.20594 0
M  V30 138 O 12.8298 -2.26034 0.334784 0
M  V30 139 C 13.0398 -0.520687 3.45094 0
M  V30 140 C 14.3878 -0.800865 4.16979 0
M  V30 141 O 15.4118 -0.605271 3.5102 0
M  V30 142 O 14.2708 -1.1753 5.33712 0
M  V30 143 H 11.3648 -0.212408 0.799257 0
M  V30 144 H 13.9108 0.327568 1.66509 0
M  V30 145 H 12.6828 0.426633 3.88967 0
M  V30 146 H 12.3058 -1.2837 3.76307 0
M  V30 147 N 13.3029 -1.57598 0.00835791 0
M  V30 148 C 14.2329 -2.1198 -0.979113 0
M  V30 149 C 15.2139 -1.03091 -1.35301 0
M  V30 150 O 16.3989 -1.30818 -1.43528 0
M  V30 151 C 13.5289 -2.62995 -2.26828 0
M  V30 152 C 12.4829 -3.76485 -2.03576 0
M  V30 153 C 11.8089 -4.13846 -3.38579 0
M  V30 154 C 13.1089 -5.0342 -1.39161 0
M  V30 155 H 14.8029 -2.94738 -0.526281 0
M  V30 156 H 12.3489 -1.41783 -0.251704 0
M  V30 157 H 14.3019 -2.99669 -2.96271 0
M  V30 158 H 13.0259 -1.7737 -2.7424 0
M  V30 159 H 11.6849 -3.40217 -1.36557 0
M  V30 160 H 11.3329 -3.25232 -3.83709 0
M  V30 161 H 11.0329 -4.90312 -3.23834 0
M  V30 162 H 12.5569 -4.53086 -4.09323 0
M  V30 163 H 13.9709 -5.37812 -1.98573 0
M  V30 164 H 12.3679 -5.84746 -1.34878 0
M  V30 165 H 13.4379 -4.83548 -0.361868 0
M  V30 166 N 14.781 0.264519 -1.55364 0
M  V30 167 C 16.03 0.992812 -1.75574 0
M  V30 168 C 16.343 1.87142 -0.568979 0
M  V30 169 O 17.549 2.63513 -0.653682 0
M  V30 170 C 16.005 1.81519 -3.10771 0
M  V30 171 C 15.613 0.984839 -4.37041 0
M  V30 172 C 17.357 2.53727 -3.40327 0
M  V30 173 C 15.264 1.80209 -5.63275 0
M  V30 174 H 14.194 0.374412 -0.65447 0
M  V30 175 H 16.845 0.248138 -1.81815 0
M  V30 176 H 15.227 2.60115 -2.98591 0
M  V30 177 H 16.401 0.242455 -4.60162 0
M  V30 178 H 14.716 0.37691 -4.14691 0
M  V30 179 H 17.313 3.15292 -4.3185 0
M  V30 180 H 17.656 3.24447 -2.60845 0
M  V30 181 H 18.189 1.82156 -3.53644 0
M  V30 182 H 14.928 1.13896 -6.45529 0
M  V30 183 H 14.448 2.52022 -5.44284 0
M  V30 184 H 16.127 2.37364 -6.01887 0
M  V30 185 N 16.2591 1.48442 0.529413 0
M  V30 186 C 17.4841 1.60406 1.31471 0
M  V30 187 C 17.9091 0.264738 1.86228 0
M  V30 188 O 17.2671 -0.763668 1.64432 0
M  V30 189 C 17.3151 2.65419 2.44101 0
M  V30 190 O 16.4191 2.22618 3.47153 0
M  V30 191 H 15.7601 0.537863 0.389357 0
M  V30 192 H 18.2901 1.94432 0.636965 0
M  V30 193 H 18.3001 2.86709 2.90279 0
M  V30 194 H 16.9751 3.62652 2.03608 0
M  V30 195 H 15.5521 2.11543 3.0709 0
M  V30 196 N 17.7372 -0.778329 1.37039 0
M  V30 197 C 18.7002 -1.87301 1.32102 0
M  V30 198 C 19.7002 -1.59198 0.226405 0
M  V30 199 O 20.8902 -1.67403 0.481861 0
M  V30 200 C 18.0222 -3.24309 1.05055 0
M  V30 201 H 19.2152 -1.93093 2.29467 0
M  V30 202 H 16.7682 -0.977358 1.21973 0
M  V30 203 H 17.5032 -3.24196 0.0819373 0
M  V30 204 H 17.2882 -3.46098 1.84279 0
M  V30 205 H 18.7782 -4.04382 1.04234 0
M  V30 206 N 19.2153 -1.21501 -1.00376 0
M  V30 207 C 20.4633 -1.03095 -1.73827 0
M  V30 208 C 20.7843 0.436341 -1.90055 0
M  V30 209 O 20.0543 1.31466 -1.45236 0
M  V30 210 H 18.6343 -0.378487 -0.644016 0
M  V30 211 H 21.2963 -1.52831 -1.20949 0
M  V30 212 H 20.3923 -1.49991 -2.73695 0
M  V30 213 N 20.6934 1.19889 -1.02296 0
M  V30 214 C 21.6234 2.25141 -0.619174 0
M  V30 215 C 22.6044 1.66051 0.368915 0
M  V30 216 O 23.7894 1.92546 0.252941 0
M  V30 217 C 20.9194 3.4728 0.0368783 0
M  V30 218 C 19.8734 4.19005 -0.872865 0
M  V30 219 C 19.1994 5.34637 -0.0822402 0
M  V30 220 C 20.4994 4.74452 -2.18387 0
M  V30 221 H 22.1934 2.59171 -1.49903 0
M  V30 222 H 19.7394 1.24579 -0.722222 0
M  V30 223 H 21.6924 4.20098 0.330958 0
M  V30 224 H 20.4164 3.12433 0.95149 0
M  V30 225 H 19.0754 3.48061 -1.15105 0
M  V30 226 H 18.7234 4.96034 0.83422 0
M  V30 227 H 18.4234 5.83557 -0.688149 0
M  V30 228 H 19.9474 6.10255 0.205238 0
M  V30 229 H 21.3614 5.39055 -1.95172 0
M  V30 230 H 19.7584 5.33834 -2.74119 0
M  V30 231 H 20.8284 3.92844 -2.84257 0
M  V30 232 N 22.1715 0.800033 1.35784 0
M  V30 233 C 23.1185 0.203848 2.29898 0
M  V30 234 C 24.0885 -0.658375 1.52495 0
M  V30 235 O 25.2735 -0.604832 1.8096 0
M  V30 236 C 22.4135 -0.64688 3.38983 0
M  V30 237 C 21.5265 0.235054 4.3136 0
M  V30 238 C 20.6615 -0.623054 5.27533 0
M  V30 239 C 19.7005 0.259682 6.11549 0
M  V30 240 N 18.8375 -0.558019 6.99879 0
M  V30 241 H 23.6775 1.01186 2.80295 0
M  V30 242 H 21.2145 0.51053 1.37957 0
M  V30 243 H 23.1725 -1.15521 4.00887 0
M  V30 244 H 21.8025 -1.42021 2.89879 0
M  V30 245 H 20.8545 0.861438 3.70518 0
M  V30 246 H 22.1665 0.914768 4.9034 0
M  V30 247 H 21.3205 -1.19678 5.94779 0
M  V30 248 H 20.0595 -1.33636 4.69034 0
M  V30 249 H 19.0645 0.845726 5.43256 0
M  V30 250 H 20.2895 0.970748 6.72126 0
M  V30 251 H 18.2355 -1.25542 6.43875 0
M  V30 252 H 18.1525 0.0637872 7.55973 0
M  V30 253 H 19.4205 -1.11523 7.71481 0
M  V30 254 N 23.6496 -1.47581 0.552962 0
M  V30 255 C 24.5596 -2.33743 -0.200353 0
M  V30 256 C 25.5756 -1.47928 -0.916151 0
M  V30 257 O 26.7516 -1.80865 -0.885993 0
M  V30 258 C 23.8166 -3.24536 -1.21973 0
M  V30 259 C 22.8776 -4.26238 -0.511819 0
M  V30 260 C 22.1106 -5.12693 -1.48263 0
M  V30 261 O 22.3336 -5.01525 -2.71714 0
M  V30 262 O 21.2676 -5.93375 -1.00945 0
M  V30 263 H 25.0936 -2.9945 0.506304 0
M  V30 264 H 22.6786 -1.46071 0.313622 0
M  V30 265 H 24.5606 -3.80631 -1.80827 0
M  V30 266 H 23.2356 -2.61462 -1.90839 0
M  V30 267 H 22.1426 -3.73914 0.117799 0
M  V30 268 H 23.4756 -4.92014 0.135308 0
M  V30 269 N 25.1277 -0.289203 -1.54924 0
M  V30 270 C 26.3747 0.323519 -1.99899 0
M  V30 271 C 26.7027 1.54797 -1.17762 0
M  V30 272 O 25.9577 1.94237 -0.238835 0
M  V30 273 C 26.2567 0.736119 -3.49737 0
M  V30 274 C 25.9227 -0.385276 -4.49251 0
M  V30 275 C 24.5847 -0.693156 -4.76181 0
M  V30 276 C 26.9367 -1.14021 -5.08575 0
M  V30 277 C 24.2647 -1.7593 -5.59701 0
M  V30 278 C 26.6167 -2.19619 -5.93254 0
M  V30 279 C 25.2807 -2.51026 -6.185 0
M  V30 280 H 24.5507 0.118384 -0.731482 0
M  V30 281 H 27.1977 -0.405847 -1.8715 0
M  V30 282 H 25.5027 1.54539 -3.60035 0
M  V30 283 H 27.1997 1.22118 -3.81953 0
M  V30 284 H 23.7897 -0.135202 -4.28387 0
M  V30 285 H 27.9737 -0.915611 -4.87781 0
M  V30 286 H 23.2297 -2.0075 -5.77503 0
M  V30 287 H 27.4037 -2.78581 -6.38252 0
M  V30 288 H 25.0307 -3.33772 -6.83008 0
M  V30 289 N 26.6058 1.57591 -0.0167156 0
M  V30 290 C 27.8308 1.9598 0.67872 0
M  V30 291 C 28.2558 0.892546 1.65575 0
M  V30 292 O 27.6138 -0.147772 1.80697 0
M  V30 293 C 27.6618 3.33468 1.37227 0
M  V30 294 O 26.7658 3.28954 2.48722 0
M  V30 295 H 26.1068 0.639339 0.17928 0
M  V30 296 H 28.6368 2.04463 -0.0748802 0
M  V30 297 H 28.6468 3.69417 1.7319 0
M  V30 298 H 27.3218 4.10694 0.656007 0
M  V30 299 H 25.8988 3.04705 2.14963 0
M  V30 300 N 28.0839 -0.256276 1.55502 0
M  V30 301 C 29.3299 -0.987079 1.77157 0
M  V30 302 C 29.6629 -1.85327 0.580315 0
M  V30 303 O 28.9379 -1.89874 -0.421686 0
M  V30 304 C 29.2209 -1.85553 3.08613 0
M  V30 305 C 29.0739 -1.01816 4.38125 0
M  V30 306 C 30.3929 -2.8397 3.36228 0
M  V30 307 H 27.5119 -0.357428 0.644526 0
M  V30 308 H 30.1539 -0.258239 1.88237 0
M  V30 309 H 28.3039 -2.47695 2.99298 0
M  V30 310 H 29.9759 -0.416159 4.59419 0
M  V30 311 H 28.2189 -0.322178 4.32602 0
M  V30 312 H 28.8899 -1.65939 5.26468 0
M  V30 313 H 31.3659 -2.31964 3.45445 0
M  V30 314 H 30.2419 -3.41864 4.29442 0
M  V30 315 H 30.5029 -3.59955 2.56681 0
M  V30 316 N 29.562 -1.4872 -0.521534 0
M  V30 317 C 30.492 -1.66771 -1.63431 0
M  V30 318 C 31.473 -0.516499 -1.62069 0
M  V30 319 O 32.658 -0.750013 -1.79132 0
M  V30 320 C 29.788 -1.71515 -3.01993 0
M  V30 321 C 28.742 -2.86222 -3.18216 0
M  V30 322 C 28.068 -2.76061 -4.57924 0
M  V30 323 C 29.368 -4.27419 -3.00184 0
M  V30 324 H 31.062 -2.59932 -1.48579 0
M  V30 325 H 28.608 -1.25089 -0.713358 0
M  V30 326 H 30.561 -1.82731 -3.7972 0
M  V30 327 H 29.285 -0.749393 -3.17886 0
M  V30 328 H 27.944 -2.74575 -2.42908 0
M  V30 329 H 27.592 -1.77437 -4.70665 0
M  V30 330 H 27.292 -3.53037 -4.69722 0
M  V30 331 H 28.816 -2.89256 -5.37739 0
M  V30 332 H 30.23 -4.39855 -3.67697 0
M  V30 333 H 28.627 -5.05458 -3.2347 0
M  V30 334 H 29.697 -4.43293 -1.96518 0
M  V30 335 N 31.0401 0.771051 -1.3745 0
M  V30 336 C 31.9701 1.89827 -1.3597 0
M  V30 337 C 32.9511 1.68562 -0.228216 0
M  V30 338 O 34.1361 1.8941 -0.428675 0
M  V30 339 C 31.2661 3.2712 -1.16662 0
M  V30 340 C 30.2201 3.6295 -2.2683 0
M  V30 341 C 29.5461 4.98791 -1.92644 0
M  V30 342 C 30.8461 3.69627 -3.69017 0
M  V30 343 H 32.5401 1.91323 -2.30295 0
M  V30 344 H 30.0861 0.919082 -1.10855 0
M  V30 345 H 32.0391 4.05615 -1.14256 0
M  V30 346 H 30.7631 3.26059 -0.187926 0
M  V30 347 H 29.4221 2.86763 -2.28392 0
M  V30 348 H 29.0701 4.94271 -0.933021 0
M  V30 349 H 28.7701 5.23733 -2.66416 0
M  V30 350 H 30.2941 5.79685 -1.91826 0
M  V30 351 H 31.7081 4.38273 -3.69581 0
M  V30 352 H 30.1051 4.06067 -4.41848 0
M  V30 353 H 31.1751 2.70273 -4.02592 0
M  V30 354 N 32.5182 1.22032 0.997298 0
M  V30 355 C 33.4662 0.983634 2.10778 0
M  V30 356 C 34.4602 -0.0717564 1.69248 0
M  V30 357 O 35.6662 0.080304 1.79821 0
M  V30 358 H 32.0412 0.300877 0.689186 0
M  V30 359 H 34.0122 1.92606 2.27916 0
M  V30 360 C 32.7612 0.57326 3.42942 0
M  V30 361 H 32.0842 1.37702 3.75338 0
M  V30 362 H 33.5242 0.447031 4.21637 0
M  V30 363 C 31.9832 -0.7167 3.29188 0
M  V30 364 O 32.5132 -1.77027 3.60589 0
M  V30 365 N 30.7192 -0.686167 2.82383 0
M  V30 366 H 30.2662 0.171507 2.57028 0
M  V30 367 H 30.2242 -1.54955 2.73562 0
M  V30 368 N 33.9963 -1.19345 1.0293 0
M  V30 369 C 34.9283 -2.22036 0.56857 0
M  V30 370 C 35.9413 -1.58865 -0.355779 0
M  V30 371 O 37.1303 -1.77851 -0.152103 0
M  V30 372 C 34.2303 -3.38363 -0.190752 0
M  V30 373 C 33.4033 -4.31118 0.738643 0
M  V30 374 C 32.4623 -5.26194 0.0246497 0
M  V30 375 O 31.4883 -5.65461 0.651354 0
M  V30 376 N 32.6903 -5.66971 -1.24594 0
M  V30 377 H 35.4553 -2.6219 1.45177 0
M  V30 378 H 33.0163 -1.34015 0.908381 0
M  V30 379 H 35.0083 -3.98981 -0.677961 0
M  V30 380 H 33.5783 -2.96994 -0.975366 0
M  V30 381 H 32.7983 -3.68276 1.40593 0
M  V30 382 H 34.0863 -4.90001 1.37029 0
M  V30 383 H 33.4843 -5.37104 -1.77583 0
M  V30 384 H 32.0413 -6.2984 -1.67764 0
M  V30 385 N 35.4744 -0.807222 -1.35358 0
M  V30 386 C 36.4064 -0.175717 -2.28525 0
M  V30 387 C 37.4194 0.625354 -1.5031 0
M  V30 388 O 38.6084 0.457611 -1.72535 0
M  V30 389 C 35.7084 0.773471 -3.29956 0
M  V30 390 C 34.8814 0.0186296 -4.37396 0
M  V30 391 C 33.9404 0.886395 -5.18681 0
M  V30 392 O 32.9664 0.337106 -5.68201 0
M  V30 393 N 34.1684 2.20839 -5.36852 0
M  V30 394 H 36.9334 -0.976091 -2.83359 0
M  V30 395 H 34.4944 -0.662737 -1.47714 0
M  V30 396 H 36.4864 1.35824 -3.81227 0
M  V30 397 H 35.0564 1.47465 -2.75632 0
M  V30 398 H 34.2764 -0.747349 -3.87051 0
M  V30 399 H 35.5644 -0.501577 -5.06322 0
M  V30 400 H 34.9624 2.67858 -4.98265 0
M  V30 401 H 33.5194 2.74237 -5.91301 0
M  V30 402 N 36.9525 1.47285 -0.560781 0
M  V30 403 C 38.1985 2.02764 -0.0381184 0
M  V30 404 C 38.5315 1.43384 1.30976 0
M  V30 405 O 37.8065 0.590733 1.85312 0
M  V30 406 C 38.0895 3.60064 0.0511427 0
M  V30 407 C 37.9425 4.2987 -1.32408 0
M  V30 408 C 39.2615 4.33439 0.762795 0
M  V30 409 H 36.3805 0.736841 -0.0153264 0
M  V30 410 H 39.0225 1.75675 -0.723759 0
M  V30 411 H 37.1725 3.83274 0.635065 0
M  V30 412 H 38.8445 4.17989 -1.95148 0
M  V30 413 H 37.0875 3.90085 -1.8978 0
M  V30 414 H 37.7585 5.38478 -1.21431 0
M  V30 415 H 40.2345 4.15243 0.266965 0
M  V30 416 H 39.1105 5.43124 0.794221 0
M  V30 417 H 39.3715 4.02915 1.81966 0
M  V30 418 N 38.4306 0.297415 1.54768 0
M  V30 419 C 39.6776 -0.312913 2.00068 0
M  V30 420 C 40.0056 -1.54171 1.18582 0
M  V30 421 O 39.2606 -1.94108 0.249133 0
M  V30 422 C 39.5596 -0.717561 3.50123 0
M  V30 423 C 39.2256 0.409095 4.4904 0
M  V30 424 C 37.8876 0.718399 4.75807 0
M  V30 425 C 40.2396 1.16717 5.07963 0
M  V30 426 C 37.5676 1.78896 5.5876 0
M  V30 427 C 39.9196 2.22762 5.92081 0
M  V30 428 C 38.5836 2.54303 6.1716 0
M  V30 429 H 37.8536 -0.114503 0.7321 0
M  V30 430 H 40.5006 0.415767 1.86932 0
M  V30 431 H 38.8056 -1.52627 3.60849 0
M  V30 432 H 40.5026 -1.20091 3.82595 0
M  V30 433 H 37.0926 0.157918 4.28309 0
M  V30 434 H 41.2766 0.941466 4.87289 0
M  V30 435 H 36.5326 2.0381 5.7643 0
M  V30 436 H 40.7066 2.81962 6.36765 0
M  V30 437 H 38.3336 3.3739 6.81229 0
M  V30 438 N 39.9087 -1.5758 0.0250728 0
M  V30 439 C 40.8567 -2.11125 -0.97617 0
M  V30 440 C 41.8507 -1.03689 -1.33959 0
M  V30 441 O 43.0567 -1.22128 -1.3223 0
M  V30 442 H 39.4317 -0.674468 -0.332561 0
M  V30 443 H 41.4027 -2.94194 -0.499223 0
M  V30 444 C 40.1517 -2.65017 -2.2508 0
M  V30 445 H 39.4747 -3.47333 -1.9799 0
M  V30 446 H 40.9147 -3.06133 -2.93357 0
M  V30 447 C 39.3737 -1.57574 -2.97779 0
M  V30 448 O 39.9037 -0.973203 -3.89733 0
M  V30 449 N 38.1097 -1.29716 -2.60043 0
M  V30 450 H 37.6567 -1.789 -1.85345 0
M  V30 451 H 37.6147 -0.58051 -3.08994 0
M  V30 452 N 41.3868 0.248026 -1.55636 0
M  V30 453 C 42.6638 0.998988 -1.68165 0
M  V30 454 C 43.0438 2.03409 -0.564621 0
M  V30 455 O 42.3918 2.24378 0.432076 0
M  V30 456 C 42.6018 1.63334 -3.0842 0
M  V30 457 C 43.9498 2.13562 -3.66983 0
M  V30 458 O 44.9738 1.73277 -3.11213 0
M  V30 459 O 43.8328 2.87526 -4.64749 0
M  V30 460 H 40.9268 0.464933 -0.683935 0
M  V30 461 H 43.4728 0.241902 -1.67967 0
M  V30 462 H 42.2448 0.884583 -3.8117 0
M  V30 463 H 41.8678 2.45666 -3.12624 0
M  V30 464 N 42.8649 1.48995 0.513639 0
M  V30 465 C 44.2759 1.5119 1.09537 0
M  V30 466 C 44.6269 0.290906 1.94031 0
M  V30 467 O 43.7519 -0.60049 2.07902 0
M  V30 468 C 44.3469 2.73964 1.99322 0
M  V30 469 C 42.9059 2.78978 2.52682 0
M  V30 470 C 42.0529 2.44934 1.30009 0
M  V30 471 H 45.0039 1.55875 0.298125 0
M  V30 472 H 45.0249 2.53409 2.83838 0
M  V30 473 H 44.5369 3.62813 1.37799 0
M  V30 474 H 42.6379 1.94378 3.1788 0
M  V30 475 H 42.7509 3.8083 2.90698 0
M  V30 476 H 41.1149 1.9644 1.62122 0
M  V30 477 H 41.8979 3.36043 0.702131 0
M  V30 478 N 44.343 -0.763751 1.37857 0
M  V30 479 C 45.273 -1.89103 1.36975 0
M  V30 480 C 46.254 -1.68439 0.237152 0
M  V30 481 O 47.439 -1.8918 0.438713 0
M  V30 482 C 44.569 -3.26496 1.18395 0
M  V30 483 C 43.523 -3.61741 2.28751 0
M  V30 484 C 42.849 -4.97762 1.95286 0
M  V30 485 C 44.149 -3.67665 3.70972 0
M  V30 486 H 45.843 -1.90099 2.31307 0
M  V30 487 H 43.389 -0.91319 1.11341 0
M  V30 488 H 45.342 -4.05003 1.16406 0
M  V30 489 H 44.066 -3.25955 0.205215 0
M  V30 490 H 42.725 -2.85547 2.29909 0
M  V30 491 H 42.373 -4.93769 0.959221 0
M  V30 492 H 42.073 -5.22313 2.69189 0
M  V30 493 H 43.597 -5.7866 1.94898 0
M  V30 494 H 45.011 -4.36307 3.719 0
M  V30 495 H 43.408 -4.03718 4.43995 0
M  V30 496 H 44.478 -2.68134 4.0402 0
M  V30 497 N 45.8211 -1.22559 -0.990812 0
M  V30 498 C 47.0671 -1.05297 -1.73322 0
M  V30 499 C 47.4001 0.410655 -1.89808 0
M  V30 500 O 46.6751 1.30439 -1.44277 0
M  V30 501 C 46.9581 -1.76713 -3.13759 0
M  V30 502 C 46.8111 -3.30684 -3.04907 0
M  V30 503 C 48.1301 -1.52121 -4.12974 0
M  V30 504 H 45.2491 -0.38392 -0.629106 0
M  V30 505 H 47.8911 -1.50926 -1.15418 0
M  V30 506 H 46.0411 -1.37924 -3.63193 0
M  V30 507 H 47.7131 -3.7893 -2.63077 0
M  V30 508 H 45.9561 -3.60253 -2.41661 0
M  V30 509 H 46.6271 -3.75833 -4.04294 0
M  V30 510 H 49.1031 -1.85819 -3.72304 0
M  V30 511 H 47.9791 -2.04582 -5.0935 0
M  V30 512 H 48.2401 -0.454257 -4.3976 0
M  V30 513 N 47.2992 1.18797 -1.03562 0
M  V30 514 C 48.5242 1.9314 -0.755764 0
M  V30 515 C 48.9492 1.7537 0.68022 0
M  V30 516 O 48.3072 1.06046 1.47051 0
M  V30 517 C 48.3552 3.42747 -1.12058 0
M  V30 518 O 47.4592 4.11683 -0.243124 0
M  V30 519 H 46.8002 0.602724 -0.278604 0
M  V30 520 H 49.3302 1.50678 -1.3841 0
M  V30 521 H 49.3402 3.93437 -1.08035 0
M  V30 522 H 48.0152 3.55002 -2.16672 0
M  V30 523 H 46.5922 3.71323 -0.342539 0
M  V30 524 N 48.7773 0.814389 1.34928 0
M  V30 525 C 49.6873 0.231978 2.3345 0
M  V30 526 C 50.7033 -0.629139 1.62228 0
M  V30 527 O 51.8793 -0.539052 1.94052 0
M  V30 528 C 48.9443 -0.603482 3.41407 0
M  V30 529 C 48.0053 0.279037 4.28392 0
M  V30 530 C 47.2383 -0.516643 5.31193 0
M  V30 531 O 47.4613 -1.75068 5.4287 0
M  V30 532 O 46.3953 0.0965652 6.01823 0
M  V30 533 H 50.2213 1.04721 2.85074 0
M  V30 534 H 47.8063 0.576343 1.37836 0
M  V30 535 H 49.6883 -1.07908 4.0735 0
M  V30 536 H 48.3633 -1.39618 2.92042 0
M  V30 537 H 47.2703 0.801948 3.65403 0
M  V30 538 H 48.6033 1.03588 4.81176 0
M  V30 539 N 50.2554 -1.46986 0.568584 0
M  V30 540 C 51.1654 -2.33942 -0.17555 0
M  V30 541 C 52.1814 -1.48891 -0.90041 0
M  V30 542 O 53.3574 -1.81794 -0.86676 0
M  V30 543 C 50.4224 -3.25811 -1.18524 0
M  V30 544 C 49.4834 -4.26757 -0.466582 0
M  V30 545 C 48.7164 -5.14236 -1.42817 0
M  V30 546 O 48.9394 -5.04379 -2.66379 0
M  V30 547 O 47.8734 -5.94412 -0.946453 0
M  V30 548 H 51.6994 -2.98896 0.538036 0
M  V30 549 H 49.2844 -1.4573 0.329097 0
M  V30 550 H 51.1664 -3.82527 -1.76779 0
M  V30 551 H 49.8414 -2.63471 -1.88055 0
M  V30 552 H 48.7484 -3.73769 0.157451 0
M  V30 553 H 50.0814 -4.91843 0.187485 0
M  V30 554 N 51.7335 -0.305618 -1.54608 0
M  V30 555 C 53.0105 0.355652 -1.92339 0
M  V30 556 C 53.3905 1.71324 -1.23335 0
M  V30 557 O 52.7385 2.25473 -0.370702 0
M  V30 558 C 52.9485 0.46572 -3.45879 0
M  V30 559 C 54.2965 0.734426 -4.182 0
M  V30 560 O 55.3205 0.54935 -3.51938 0
M  V30 561 O 54.1795 1.09024 -5.35515 0
M  V30 562 H 51.2735 0.199666 -0.802535 0
M  V30 563 H 53.8195 -0.354017 -1.65966 0
M  V30 564 H 52.5915 -0.488461 -3.88239 0
M  V30 565 H 52.2145 1.22367 -3.78301 0
M  V30 566 N 53.2116 1.57565 -0.0334293 0
M  V30 567 C 54.1446 2.05997 0.981866 0
M  V30 568 C 55.1226 0.956647 1.3148 0
M  V30 569 O 56.3066 1.22729 1.43073 0
M  V30 570 C 53.4336 2.48564 2.30074 0
M  V30 571 C 52.4796 3.69958 2.12211 0
M  V30 572 S 53.3126 5.16414 1.41692 0
M  V30 573 C 54.4686 5.6228 2.7494 0
M  V30 574 H 54.7016 2.91792 0.569612 0
M  V30 575 H 52.2346 1.53366 0.178376 0
M  V30 576 H 54.1926 2.73753 3.05892 0
M  V30 577 H 52.8536 1.63106 2.68431 0
M  V30 578 H 52.0466 3.97603 3.09722 0
M  V30 579 H 51.6486 3.44943 1.44535 0
M  V30 580 H 53.9406 5.66783 3.71165 0
M  V30 581 H 54.8836 6.61759 2.51953 0
M  V30 582 H 55.2916 4.89944 2.80384 0
M  V30 583 N 54.6897 -0.239769 1.55765 0
M  V30 584 C 55.9357 -0.968234 1.78194 0
M  V30 585 C 56.2687 -1.84701 0.599938 0
M  V30 586 O 55.5437 -1.9031 -0.401524 0
M  V30 587 C 55.8267 -1.8227 3.10564 0
M  V30 588 C 55.6797 -0.971633 4.3918 0
M  V30 589 C 56.9987 -2.80388 3.39221 0
M  V30 590 H 54.1177 -0.350572 0.648281 0
M  V30 591 H 56.7597 -0.238259 1.885 0
M  V30 592 H 54.9097 -2.44507 3.01908 0
M  V30 593 H 56.5817 -0.367408 4.59835 0
M  V30 594 H 54.8247 -0.276276 4.32919 0
M  V30 595 H 55.4957 -1.60346 5.28198 0
M  V30 596 H 57.9717 -2.28287 3.47885 0
M  V30 597 H 56.8477 -3.3729 4.33044 0
M  V30 598 H 57.1087 -3.57212 2.60484 0
M  V30 599 N 56.1678 -1.49265 -0.50573 0
M  V30 600 C 57.3958 -1.62215 -1.28429 0
M  V30 601 C 57.8108 -0.291697 -1.86533 0
M  V30 602 O 57.1678 0.722233 -1.67601 0
M  V30 603 C 57.2188 -2.68735 -2.41793 0
M  V30 604 O 56.9398 -3.96619 -1.86078 0
M  V30 605 C 58.4408 -2.92346 -3.3324 0
M  V30 606 H 55.6608 -0.546239 -0.389697 0
M  V30 607 H 58.2048 -1.95265 -0.607609 0
M  V30 608 H 56.3598 -2.38476 -3.053 0
M  V30 609 H 56.7738 -4.55256 -2.60465 0
M  V30 610 H 58.2478 -3.70623 -4.09075 0
M  V30 611 H 58.7248 -2.02081 -3.89948 0
M  V30 612 H 59.3308 -3.24003 -2.75503 0
M  V30 613 N 57.6459 0.756429 -1.3826 0
M  V30 614 C 58.8919 1.51772 -1.34511 0
M  V30 615 C 59.2249 1.94089 0.0656691 0
M  V30 616 O 58.4999 1.65221 1.02626 0
M  V30 617 C 58.7829 2.77226 -2.29821 0
M  V30 618 C 58.6359 2.41065 -3.79747 0
M  V30 619 C 59.9549 3.79236 -2.23312 0
M  V30 620 H 57.0739 0.550578 -0.489931 0
M  V30 621 H 59.7159 0.866607 -1.69086 0
M  V30 622 H 57.8659 3.32784 -2.00467 0
M  V30 623 H 59.5379 1.91303 -4.19763 0
M  V30 624 H 57.7809 1.7356 -3.97567 0
M  V30 625 H 58.4519 3.3081 -4.41892 0
M  V30 626 H 60.9279 3.3321 -2.49219 0
M  V30 627 H 59.8039 4.64714 -2.92116 0
M  V30 628 H 60.0649 4.24615 -1.23102 0
M  V30 629 N 59.124 1.23083 0.984299 0
M  V30 630 C 60.37 1.06214 1.72761 0
M  V30 631 C 60.703 -0.400584 1.90024 0
M  V30 632 O 59.978 -1.29672 1.44967 0
M  V30 633 C 60.261 1.78375 3.12817 0
M  V30 634 C 60.114 3.32296 3.03149 0
M  V30 635 C 61.433 1.54309 4.12161 0
M  V30 636 H 58.552 0.387251 0.627061 0
M  V30 637 H 61.194 1.51536 1.14616 0
M  V30 638 H 59.344 1.39848 3.62457 0
M  V30 639 H 61.016 3.8032 2.61064 0
M  V30 640 H 59.259 3.6153 2.39747 0
M  V30 641 H 59.93 3.77972 4.02295 0
M  V30 642 H 62.406 1.87791 3.71314 0
M  V30 643 H 61.282 2.07281 5.08258 0
M  V30 644 H 61.543 0.477572 4.39513 0
M  V30 645 N 60.6021 -1.18246 1.0419 0
M  V30 646 C 61.5121 -2.25574 0.644476 0
M  V30 647 C 62.5281 -1.70845 -0.329826 0
M  V30 648 O 63.7041 -2.00554 -0.184443 0
M  V30 649 C 60.7691 -3.46697 0.014877 0
M  V30 650 C 59.8301 -4.16554 1.03834 0
M  V30 651 C 59.0631 -5.31894 0.438692 0
M  V30 652 O 59.2861 -5.65385 -0.754752 0
M  V30 653 O 58.2201 -5.90459 1.168 0
M  V30 654 H 62.0461 -2.61836 1.53869 0
M  V30 655 H 59.6311 -1.25352 0.812854 0
M  V30 656 H 61.5131 -4.20062 -0.335538 0
M  V30 657 H 60.1881 -3.12255 -0.853138 0
M  V30 658 H 59.0951 -3.45251 1.44057 0
M  V30 659 H 60.4281 -4.54998 1.87716 0
M  V30 660 N 62.0802 -0.821533 -1.34494 0
M  V30 661 C 63.3572 -0.33159 -1.92769 0
M  V30 662 C 63.7372 1.18088 -1.74981 0
M  V30 663 O 63.0852 1.98733 -1.12772 0
M  V30 664 C 63.2952 -0.759398 -3.40638 0
M  V30 665 C 64.6432 -0.757433 -4.1779 0
M  V30 666 O 65.6672 -0.70189 -3.49216 0
M  V30 667 O 64.5262 -0.829361 -5.4017 0
M  V30 668 H 61.6202 -0.0902502 -0.822061 0
M  V30 669 H 64.1662 -0.906231 -1.43477 0
M  V30 670 H 62.9382 -1.8012 -3.47379 0
M  V30 671 H 62.5612 -0.160378 -3.97276 0
M  V30 672 N 63.5583 1.46682 -0.576371 0
M  V30 673 C 64.8043 2.03287 -0.0679305 0
M  V30 674 C 65.1593 1.44063 1.27529 0
M  V30 675 O 64.4523 0.593973 1.82161 0
M  V30 676 C 64.6463 3.57345 0.062886 0
M  V30 677 C 64.4753 4.31509 -1.26611 0
M  V30 678 C 63.2453 4.70664 -1.83856 0
M  V30 679 C 65.4433 4.65444 -2.18783 0
M  V30 680 N 63.4253 5.29552 -3.10561 0
M  V30 681 C 64.7963 5.24835 -3.30072 0
M  V30 682 C 66.8513 4.47375 -2.18542 0
M  V30 683 C 65.5543 5.68063 -4.41244 0
M  V30 684 C 67.5803 4.91614 -3.28739 0
M  V30 685 C 66.9423 5.51071 -4.38748 0
M  V30 686 H 63.0413 0.779083 -0.0674836 0
M  V30 687 H 65.6253 1.78918 -0.767877 0
M  V30 688 H 63.7963 3.8144 0.731988 0
M  V30 689 H 65.5283 4.00592 0.575134 0
M  V30 690 H 62.2833 4.53224 -1.37424 0
M  V30 691 H 62.7073 5.63523 -3.75195 0
M  V30 692 H 67.3493 4.00747 -1.34765 0
M  V30 693 H 65.0673 6.13672 -5.25768 0
M  V30 694 H 68.6533 4.79389 -3.29662 0
M  V30 695 H 67.5333 5.84678 -5.22611 0
M  V30 696 N 65.0364 0.313813 1.54444 0
M  V30 697 C 65.9694 -0.598866 2.20202 0
M  V30 698 C 66.9474 -1.12318 1.17573 0
M  V30 699 O 68.1314 -1.18899 1.46271 0
M  V30 700 C 65.2584 -1.82071 2.85601 0
M  V30 701 C 64.3044 -1.42851 4.01865 0
M  V30 702 S 65.1374 -0.473512 5.33402 0
M  V30 703 C 66.2934 -1.70286 6.0229 0
M  V30 704 H 66.5264 -0.0402532 2.97273 0
M  V30 705 H 64.0594 0.0979165 1.54089 0
M  V30 706 H 66.0174 -2.52184 3.23904 0
M  V30 707 H 64.6784 -2.3505 2.08351 0
M  V30 708 H 63.8714 -2.33871 4.46453 0
M  V30 709 H 63.4734 -0.807198 3.65185 0
M  V30 710 H 65.7654 -2.64168 6.23876 0
M  V30 711 H 66.7084 -1.29932 6.96077 0
M  V30 712 H 67.1164 -1.88541 5.32083 0
M  V30 713 N 66.5145 -1.57545 0.0417849 0
M  V30 714 C 67.4625 -2.12148 -0.953723 0
M  V30 715 C 68.4565 -1.05104 -1.32852 0
M  V30 716 O 69.6625 -1.23524 -1.30927 0
M  V30 717 H 66.0375 -0.677957 -0.325389 0
M  V30 718 H 68.0085 -2.94707 -0.467991 0
M  V30 719 C 66.7575 -2.6739 -2.22257 0
M  V30 720 H 66.0805 -3.49413 -1.94295 0
M  V30 721 H 67.5205 -3.09227 -2.90094 0
M  V30 722 C 65.9795 -1.60723 -2.96091 0
M  V30 723 O 66.5095 -1.01449 -3.88679 0
M  V30 724 N 64.7155 -1.32466 -2.58652 0
M  V30 725 H 64.2625 -1.80856 -1.83437 0
M  V30 726 H 64.2205 -0.61325 -3.08361 0
M  V30 727 N 67.9926 0.231505 -1.5589 0
M  V30 728 C 69.2396 0.957352 -1.78441 0
M  V30 729 C 69.5676 1.84726 -0.60882 0
M  V30 730 O 68.8226 1.91416 0.40725 0
M  V30 731 C 69.1216 1.83577 -3.0665 0
M  V30 732 C 68.7876 1.09993 -4.37278 0
M  V30 733 C 67.4496 0.896629 -4.72773 0
M  V30 734 C 69.8016 0.579558 -5.17968 0
M  V30 735 C 67.1296 0.160896 -5.86479 0
M  V30 736 C 69.4816 -0.142783 -6.32439 0
M  V30 737 C 68.1456 -0.357427 -6.66542 0
M  V30 738 H 67.4156 0.35032 -0.65296 0
M  V30 739 H 70.0626 0.226259 -1.90159 0
M  V30 740 H 68.3676 2.63441 -2.90011 0
M  V30 741 H 70.0646 2.39934 -3.21298 0
M  V30 742 H 66.6546 1.26835 -4.09403 0
M  V30 743 H 70.8386 0.724125 -4.90989 0
M  V30 744 H 66.0946 -0.0157293 -6.11398 0
M  V30 745 H 70.2686 -0.553559 -6.94196 0
M  V30 746 H 67.8956 -0.929466 -7.54497 0
M  V30 747 N 69.4707 1.49531 0.497807 0
M  V30 748 C 70.7007 1.62657 1.27382 0
M  V30 749 C 71.1087 0.298488 1.86831 0
M  V30 750 O 70.4517 -0.72647 1.68725 0
M  V30 751 C 70.5137 2.6393 2.44093 0
M  V30 752 C 70.1777 4.08195 2.05489 0
M  V30 753 C 71.1747 4.949 1.59279 0
M  V30 754 C 68.8597 4.53948 2.15026 0
M  V30 755 C 70.8537 6.25397 1.23113 0
M  V30 756 C 68.5407 5.84458 1.78473 0
M  V30 757 C 69.5387 6.70006 1.32591 0
M  V30 758 O 69.2267 7.98083 0.965327 0
M  V30 759 H 68.9587 0.550429 0.392434 0
M  V30 760 H 71.5127 1.96325 0.603801 0
M  V30 761 H 69.7427 2.25449 3.14181 0
M  V30 762 H 71.4317 2.66552 3.06113 0
M  V30 763 H 72.1977 4.60779 1.51354 0
M  V30 764 H 68.0767 3.87525 2.4969 0
M  V30 765 H 71.6207 6.92125 0.872299 0
M  V30 766 H 67.5177 6.18107 1.86048 0
M  V30 767 H 68.2857 8.11122 1.09652 0
M  V30 768 N 70.9488 -0.749086 1.3866 0
M  V30 769 C 72.1978 -1.50371 1.3443 0
M  V30 770 C 72.5108 -1.95503 -0.0616397 0
M  V30 771 O 73.7168 -2.70554 -0.226489 0
M  V30 772 C 72.1728 -2.71644 2.36088 0
M  V30 773 C 71.7808 -2.3352 3.82325 0
M  V30 774 C 73.5248 -3.49518 2.40909 0
M  V30 775 C 71.4318 -3.51431 4.75658 0
M  V30 776 H 70.3618 -0.564628 0.499712 0
M  V30 777 H 73.0128 -0.818449 1.64237 0
M  V30 778 H 71.3948 -3.42175 1.9933 0
M  V30 779 H 72.5688 -1.70627 4.28046 0
M  V30 780 H 70.8838 -1.6877 3.80665 0
M  V30 781 H 73.4808 -4.37197 3.07836 0
M  V30 782 H 73.8238 -3.90992 1.42937 0
M  V30 783 H 74.3568 -2.86005 2.76489 0
M  V30 784 H 71.0958 -3.15019 5.74842 0
M  V30 785 H 70.6158 -4.13352 4.34627 0
M  V30 786 H 72.2948 -4.17953 4.93887 0
M  V30 787 N 72.4269 -1.23603 -0.977757 0
M  V30 788 C 73.3749 -1.01704 -2.09187 0
M  V30 789 C 74.3689 0.0448214 -1.69341 0
M  V30 790 O 75.5749 -0.108902 -1.7967 0
M  V30 791 H 71.9499 -0.311803 -0.684312 0
M  V30 792 H 73.9209 -1.96207 -2.24823 0
M  V30 793 C 72.6699 -0.627746 -3.41986 0
M  V30 794 H 71.9929 -1.43656 -3.73099 0
M  V30 795 H 73.4329 -0.514053 -4.20872 0
M  V30 796 C 71.8919 0.664238 -3.30287 0
M  V30 797 O 72.4219 1.71268 -3.6336 0
M  V30 798 N 70.6279 0.641156 -2.83439 0
M  V30 799 H 70.1749 -0.212376 -2.56723 0
M  V30 800 H 70.1329 1.50583 -2.75993 0
M  V30 801 N 73.905 1.17692 -1.04816 0
M  V30 802 C 75.135 1.91508 -0.775128 0
M  V30 803 C 75.543 1.76844 0.67253 0
M  V30 804 O 74.886 1.10057 1.47082 0
M  V30 805 C 74.948 3.43167 -1.0713 0
M  V30 806 C 74.612 3.81612 -2.51438 0
M  V30 807 C 75.609 3.84772 -3.49638 0
M  V30 808 C 73.294 4.12687 -2.86348 0
M  V30 809 C 75.288 4.18469 -4.80794 0
M  V30 810 C 72.975 4.46053 -4.17708 0
M  V30 811 C 73.973 4.48921 -5.14741 0
M  V30 812 O 73.661 4.81504 -6.43746 0
M  V30 813 H 73.393 0.614575 -0.281555 0
M  V30 814 H 75.947 1.50206 -1.40098 0
M  V30 815 H 74.177 3.84745 -0.388342 0
M  V30 816 H 75.866 3.98239 -0.784883 0
M  V30 817 H 76.632 3.60893 -3.24008 0
M  V30 818 H 72.511 4.09627 -2.11486 0
M  V30 819 H 76.055 4.20623 -5.56527 0
M  V30 820 H 71.952 4.69393 -4.43103 0
M  V30 821 H 72.72 4.99377 -6.4851 0
M  V30 822 N 75.3831 0.828654 1.34056 0
M  V30 823 C 76.6131 0.431993 2.02033 0
M  V30 824 C 77.0211 -0.96844 1.62536 0
M  V30 825 O 76.3641 -1.6391 0.829408 0
M  V30 826 C 76.4261 0.461224 3.56529 0
M  V30 827 C 76.0901 1.81599 4.1937 0
M  V30 828 C 77.0871 2.7777 4.39477 0
M  V30 829 C 74.7721 2.10604 4.56017 0
M  V30 830 C 76.7661 4.01115 4.95364 0
M  V30 831 C 74.4531 3.34207 5.11614 0
M  V30 832 C 75.4511 4.2928 5.31232 0
M  V30 833 O 75.1391 5.50699 5.8565 0
M  V30 834 H 74.8711 0.170943 0.654029 0
M  V30 835 H 77.4251 1.11988 1.72185 0
M  V30 836 H 75.6551 -0.283388 3.8566 0
M  V30 837 H 77.3441 0.0838149 4.05813 0
M  V30 838 H 78.1101 2.56659 4.11523 0
M  V30 839 H 73.9891 1.37402 4.40047 0
M  V30 840 H 77.5331 4.75333 5.10592 0
M  V30 841 H 73.4301 3.55179 5.38997 0
M  V30 842 H 74.1981 5.52298 6.04077 0
M  V30 843 N 76.8612 -1.46375 0.584142 0
M  V30 844 C 78.2772 -1.57694 0.245929 0
M  V30 845 C 78.4772 -1.57903 -1.25175 0
M  V30 846 O 77.5332 -1.49676 -2.03355 0
M  V30 847 C 78.8462 -2.87028 0.896402 0
M  V30 848 C 80.3942 -3.00662 0.870127 0
M  V30 849 C 80.8692 -4.32734 1.50017 0
M  V30 850 N 82.3602 -4.39436 1.46458 0
M  V30 851 C 83.0952 -5.40248 1.92144 0
M  V30 852 N 82.5912 -6.47726 2.4581 0
M  V30 853 N 84.3842 -5.31459 1.83052 0
M  V30 854 H 76.5352 -1.44483 1.55687 0
M  V30 855 H 78.7982 -0.689291 0.650831 0
M  V30 856 H 78.5042 -2.9269 1.95002 0
M  V30 857 H 78.3782 -3.75014 0.405486 0
M  V30 858 H 80.7652 -2.94581 -0.174871 0
M  V30 859 H 80.8462 -2.14148 1.39908 0
M  V30 860 H 80.4902 -4.39573 2.54437 0
M  V30 861 H 80.4202 -5.18025 0.946432 0
M  V30 862 H 82.9112 -3.62367 1.07231 0
M  V30 863 H 83.2242 -7.20863 2.78525 0
M  V30 864 H 81.5692 -6.48542 2.49836 0
M  V30 865 H 84.7602 -4.46396 1.40883 0
M  V30 866 H 84.9332 -6.09881 2.18973 0
M  V30 867 N 78.3393 -0.321999 -1.54275 0
M  V30 868 C 79.2713 0.578671 -2.21775 0
M  V30 869 C 80.2843 1.08109 -1.21722 0
M  V30 870 O 81.4733 0.994938 -1.482 0
M  V30 871 C 78.5733 1.80661 -2.86731 0
M  V30 872 C 77.7463 1.44314 -4.12907 0
M  V30 873 C 76.8053 2.52845 -4.61472 0
M  V30 874 O 75.8313 2.17054 -5.2619 0
M  V30 875 N 77.0333 3.83748 -4.35566 0
M  V30 876 H 79.7983 0.000709447 -2.997 0
M  V30 877 H 77.3593 -0.145132 -1.61248 0
M  V30 878 H 79.3513 2.52655 -3.16145 0
M  V30 879 H 77.9213 2.29245 -2.12521 0
M  V30 880 H 77.1413 0.554906 -3.90275 0
M  V30 881 H 78.4293 1.17598 -4.95023 0
M  V30 882 H 77.8273 4.15625 -3.83761 0
M  V30 883 H 76.3843 4.51977 -4.69638 0
M  V30 884 N 79.8174 1.5752 -0.0501392 0
M  V30 885 C 80.7494 2.08413 0.95376 0
M  V30 886 C 81.7624 1.01175 1.27544 0
M  V30 887 O 82.9514 1.28744 1.23641 0
M  V30 888 C 80.0514 2.51138 2.27559 0
M  V30 889 C 79.2244 3.817 2.13598 0
M  V30 890 C 78.2834 4.10749 3.28895 0
M  V30 891 O 77.3094 4.80685 3.04845 0
M  V30 892 N 78.5114 3.62579 4.5334 0
M  V30 893 H 81.2764 2.95165 0.519383 0
M  V30 894 H 78.8374 1.61327 0.136127 0
M  V30 895 H 80.8294 2.67648 3.03557 0
M  V30 896 H 79.3994 1.6964 2.62567 0
M  V30 897 H 78.6194 3.74782 1.22197 0
M  V30 898 H 79.9074 4.67201 2.01496 0
M  V30 899 H 79.3054 3.06039 4.75769 0
M  V30 900 H 77.8624 3.84329 5.26436 0
M  V30 901 N 81.2955 -0.223234 1.56011 0
M  V30 902 C 82.5415 -0.949279 1.79211 0
M  V30 903 C 82.8745 -1.84054 0.619494 0
M  V30 904 O 82.1495 -1.90726 -0.381317 0
M  V30 905 C 82.4325 -1.78965 3.12479 0
M  V30 906 C 82.2855 -0.924997 4.40186 0
M  V30 907 C 83.6045 -2.76774 3.42175 0
M  V30 908 H 80.7235 -0.343676 0.651963 0
M  V30 909 H 83.3655 -0.218253 1.88742 0
M  V30 910 H 81.5155 -2.41291 3.04485 0
M  V30 911 H 83.1875 -0.318615 4.60198 0
M  V30 912 H 81.4305 -0.230344 4.33188 0
M  V30 913 H 82.1015 -1.54735 5.29869 0
M  V30 914 H 84.5775 -2.24584 3.50287 0
M  V30 915 H 83.4535 -3.32678 4.36597 0
M  V30 916 H 83.7145 -3.54429 2.64258 0
M  V30 917 N 82.7736 -1.49793 -0.48987 0
M  V30 918 C 84.0016 -1.63568 -1.26701 0
M  V30 919 C 84.4166 -0.311465 -1.86213 0
M  V30 920 O 83.7736 0.704416 -1.68357 0
M  V30 921 C 83.8246 -2.71284 -2.38929 0
M  V30 922 O 83.5456 -3.9857 -1.81861 0
M  V30 923 C 85.0466 -2.95864 -3.3012 0
M  V30 924 H 82.2666 -0.550342 -0.383881 0
M  V30 925 H 84.8106 -1.95898 -0.586864 0
M  V30 926 H 82.9656 -2.417 -3.02753 0
M  V30 927 H 83.3796 -4.57993 -2.55622 0
M  V30 928 H 84.8536 -3.74941 -4.05121 0
M  V30 929 H 85.3306 -2.06206 -3.87783 0
M  V30 930 H 85.9366 -3.26907 -2.72051 0
M  V30 931 N 84.2517 0.741722 -1.39055 0
M  V30 932 C 85.4997 1.49818 -1.35643 0
M  V30 933 C 85.8207 1.94938 0.0491642 0
M  V30 934 O 85.0907 1.68505 0.999141 0
M  V30 935 H 83.6707 0.555755 -0.499144 0
M  V30 936 H 86.3327 0.880957 -1.73854 0
M  V30 937 H 85.4287 2.38348 -2.01486 0
M  V30 938 N 85.7298 1.2412 0.971189 0
M  V30 939 C 86.6398 1.04747 2.09917 0
M  V30 940 C 87.6558 -0.0107162 1.73997 0
M  V30 941 O 88.8318 0.186714 2.00533 0
M  V30 942 C 85.8968 0.650828 3.40537 0
M  V30 943 C 84.9578 1.7851 3.90426 0
M  V30 944 C 84.1908 1.40729 5.14812 0
M  V30 945 O 84.4138 0.29557 5.69634 0
M  V30 946 O 83.3478 2.23168 5.58999 0
M  V30 947 H 87.1738 1.99304 2.29154 0
M  V30 948 H 84.7588 1.02908 1.08307 0
M  V30 949 H 86.6408 0.440992 4.19086 0
M  V30 950 H 85.3158 -0.265649 3.22608 0
M  V30 951 H 84.2228 2.04966 3.12953 0
M  V30 952 H 85.5558 2.68023 4.12825 0
M  V30 953 N 87.2079 -1.17134 1.05439 0
M  V30 954 C 88.6189 -1.69084 0.791676 0
M  V30 955 C 88.9699 -1.83822 -0.685839 0
M  V30 956 O 88.0949 -1.52757 -1.53278 0
M  V30 957 C 88.6899 -3.07119 1.4305 0
M  V30 958 C 87.2489 -3.56225 1.21577 0
M  V30 959 C 86.3959 -2.32421 1.51247 0
M  V30 960 H 89.3469 -1.01617 1.219 0
M  V30 961 H 89.3679 -3.71087 0.84112 0
M  V30 962 H 88.8799 -2.9636 2.50584 0
M  V30 963 H 86.9809 -3.72257 0.159787 0
M  V30 964 H 87.0939 -4.38837 1.92246 0
M  V30 965 H 85.4579 -2.3701 0.932653 0
M  V30 966 H 86.2409 -2.24268 2.5992 0
M  V30 967 N 88.686 -0.835752 -1.33615 0
M  V30 968 C 89.618 -0.224151 -2.28101 0
M  V30 969 C 90.631 0.593331 -1.51603 0
M  V30 970 O 91.82 0.420911 -1.73466 0
M  V30 971 C 88.92 0.703309 -3.31522 0
M  V30 972 C 88.093 -0.0741528 -4.37337 0
M  V30 973 C 87.152 0.776176 -5.20444 0
M  V30 974 O 86.178 0.216506 -5.68788 0
M  V30 975 N 87.38 2.09401 -5.41416 0
M  V30 976 H 90.145 -1.03598 -2.81225 0
M  V30 977 H 87.706 -0.69392 -1.46275 0
M  V30 978 H 89.698 1.27707 -3.84022 0
M  V30 979 H 88.268 1.41585 -2.78698 0
M  V30 980 H 87.488 -0.82928 -3.85378 0
M  V30 981 H 88.776 -0.608863 -5.05144 0
M  V30 982 H 88.174 2.57229 -5.03835 0
M  V30 983 H 86.731 2.61633 -5.96985 0
M  V30 984 N 90.1641 1.46063 -0.591896 0
M  V30 985 C 91.0741 2.34192 0.13831 0
M  V30 986 C 92.0901 1.50305 0.876608 0
M  V30 987 O 93.2661 1.8315 0.837728 0
M  V30 988 C 90.3311 3.27656 1.13326 0
M  V30 989 C 89.3921 4.27445 0.39863 0
M  V30 990 C 88.6251 5.16443 1.34618 0
M  V30 991 O 88.8481 5.08553 2.58321 0
M  V30 992 O 87.7821 5.95843 0.851768 0
M  V30 993 H 91.6081 2.98002 -0.58552 0
M  V30 994 H 89.1931 1.45188 -0.352239 0
M  V30 995 H 91.0751 3.85291 1.70671 0
M  V30 996 H 89.7501 2.6643 1.83839 0
M  V30 997 H 88.6571 3.73471 -0.216895 0
M  V30 998 H 89.9901 4.91482 -0.265709 0
M  V30 999 N 91.6422 0.330177 1.54103 0
M  V30 1000 C 93.0582 -0.0222371 1.59585 0
M  V30 1001 C 93.2582 -1.49902 1.34654 0
M  V30 1002 O 92.3142 -2.25592 1.13421 0
M  V30 1003 C 93.6272 0.401932 2.98002 0
M  V30 1004 C 95.1752 0.353145 3.11001 0
M  V30 1005 C 95.6502 0.752576 4.51775 0
M  V30 1006 N 97.1412 0.706239 4.57784 0
M  V30 1007 C 97.8762 0.987417 5.64834 0
M  V30 1008 N 97.3722 1.33607 6.79795 0
M  V30 1009 N 99.1652 0.91254 5.54643 0
M  V30 1010 H 91.3162 1.29228 1.68564 0
M  V30 1011 H 93.5792 0.525906 0.78875 0
M  V30 1012 H 93.2852 1.4311 3.21267 0
M  V30 1013 H 93.1592 -0.229699 3.765 0
M  V30 1014 H 95.5462 -0.666822 2.87467 0
M  V30 1015 H 95.6272 1.0198 2.34593 0
M  V30 1016 H 95.2712 1.77049 4.76042 0
M  V30 1017 H 95.2012 0.0635409 5.26562 0
M  V30 1018 H 97.6922 0.44889 3.75224 0
M  V30 1019 H 98.0052 1.53582 7.57385 0
M  V30 1020 H 96.3502 1.37439 6.81275 0
M  V30 1021 H 99.5412 0.639601 4.6371 0
M  V30 1022 H 99.7142 1.13503 6.37982 0
M  V30 1023 N 93.1203 -1.57491 0.0584922 0
M  V30 1024 C 94.3973 -1.84346 -0.653918 0
M  V30 1025 C 94.7773 -0.948355 -1.88599 0
M  V30 1026 O 94.1253 -0.0112403 -2.28497 0
M  V30 1027 C 94.3353 -3.34239 -1.00425 0
M  V30 1028 C 95.6833 -4.01431 -1.38342 0
M  V30 1029 O 96.7073 -3.38907 -1.09637 0
M  V30 1030 O 95.5663 -5.11683 -1.91943 0
M  V30 1031 H 92.6603 -0.761112 -0.323478 0
M  V30 1032 H 95.2063 -1.6947 0.0884125 0
M  V30 1033 H 93.9783 -3.91089 -0.128625 0
M  V30 1034 H 93.6013 -3.54329 -1.80378 0
M  V30 1035 N 94.5984 0.214957 -1.56127 0
M  V30 1036 C 95.5454 1.26642 -1.92952 0
M  V30 1037 C 96.5154 1.46244 -0.78753 0
M  V30 1038 O 97.7004 1.59704 -1.04399 0
M  V30 1039 C 94.8404 2.6104 -2.25726 0
M  V30 1040 C 93.9534 2.49183 -3.52891 0
M  V30 1041 C 93.0884 3.76149 -3.7508 0
M  V30 1042 C 92.1274 3.59041 -4.95738 0
M  V30 1043 N 91.2644 4.77972 -5.14283 0
M  V30 1044 H 96.1044 0.945384 -2.82607 0
M  V30 1045 H 93.6414 0.455489 -1.3987 0
M  V30 1046 H 95.5994 3.39313 -2.42739 0
M  V30 1047 H 94.2294 2.91227 -1.39236 0
M  V30 1048 H 93.2814 1.6231 -3.44034 0
M  V30 1049 H 94.5934 2.32466 -4.41318 0
M  V30 1050 H 93.7474 4.62865 -3.92226 0
M  V30 1051 H 92.4864 3.95799 -2.84947 0
M  V30 1052 H 91.4914 2.7071 -4.78535 0
M  V30 1053 H 92.7164 3.40856 -5.87362 0
M  V30 1054 H 90.6624 4.97923 -4.27093 0
M  V30 1055 H 90.5794 4.64006 -5.96853 0
M  V30 1056 H 91.8474 5.66096 -5.35869 0
M  V30 1057 N 96.0765 1.50051 0.48192 0
M  V30 1058 C 97.0395 1.67584 1.5636 0
M  V30 1059 C 98.0395 0.546894 1.51214 0
M  V30 1060 O 99.2295 0.813725 1.54026 0
M  V30 1061 C 96.3615 1.691 2.96003 0
M  V30 1062 H 97.5545 2.64078 1.42136 0
M  V30 1063 H 95.1075 1.39369 0.707533 0
M  V30 1064 H 95.8425 0.742589 3.15684 0
M  V30 1065 H 95.6275 2.51105 3.01146 0
M  V30 1066 H 97.1175 1.84656 3.74556 0
M  V30 1067 N 97.5546 -0.734337 1.39446 0
M  V30 1068 C 98.4846 -1.86155 1.40955 0
M  V30 1069 C 99.4656 -1.67898 0.272827 0
M  V30 1070 O 100.651 -1.88207 0.478743 0
M  V30 1071 C 97.7806 -3.23912 1.25294 0
M  V30 1072 C 96.7346 -3.56808 2.36373 0
M  V30 1073 C 96.0606 -4.93508 2.058 0
M  V30 1074 C 97.3606 -3.59713 3.78687 0
M  V30 1075 H 99.0546 -1.8515 2.35287 0
M  V30 1076 H 96.6006 -0.889367 1.13253 0
M  V30 1077 H 98.5536 -4.02443 1.2497 0
M  V30 1078 H 97.2776 -3.25446 0.274308 0
M  V30 1079 H 95.9366 -2.80606 2.35914 0
M  V30 1080 H 95.5846 -4.91623 1.06374 0
M  V30 1081 H 95.2846 -5.16486 2.80208 0
M  V30 1082 H 96.8086 -5.74396 2.07128 0
M  V30 1083 H 98.2226 -4.2832 3.81071 0
M  V30 1084 H 96.6196 -3.94209 4.52459 0
M  V30 1085 H 97.6896 -2.59504 4.09617 0
M  V30 1086 N 99.0327 -1.24633 -0.964593 0
M  V30 1087 C 99.9647 -0.999302 -2.06268 0
M  V30 1088 C 100.978 0.0323226 -1.62768 0
M  V30 1089 O 102.167 -0.205079 -1.77318 0
M  V30 1090 C 99.2667 -0.486816 -3.35385 0
M  V30 1091 C 98.4397 -1.5823 -4.07777 0
M  V30 1092 C 97.4987 -1.07191 -5.15166 0
M  V30 1093 O 96.5247 -1.76426 -5.41168 0
M  V30 1094 N 97.7267 0.0920373 -5.80427 0
M  V30 1095 H 100.492 -1.94477 -2.28033 0
M  V30 1096 H 98.0527 -1.15704 -1.13244 0
M  V30 1097 H 100.045 -0.130066 -4.04491 0
M  V30 1098 H 98.6147 0.364459 -3.10468 0
M  V30 1099 H 97.8347 -2.11109 -3.32906 0
M  V30 1100 H 99.1227 -2.31854 -4.52903 0
M  V30 1101 H 98.5207 0.670784 -5.61709 0
M  V30 1102 H 97.0777 0.389905 -6.50633 0
M  V30 1103 N 100.511 1.16574 -1.06058 0
M  V30 1104 C 101.421 2.2452 -0.680282 0
M  V30 1105 C 102.437 1.71348 0.302604 0
M  V30 1106 O 103.613 2.00822 0.152513 0
M  V30 1107 C 100.678 3.46629 -0.0700315 0
M  V30 1108 C 99.7388 4.14849 -1.10448 0
M  V30 1109 C 98.9718 5.31129 -0.523256 0
M  V30 1110 O 99.1948 5.66514 0.664709 0
M  V30 1111 O 98.1288 5.88526 -1.26179 0
M  V30 1112 H 101.955 2.59355 -1.58015 0
M  V30 1113 H 99.5398 1.24043 -0.832694 0
M  V30 1114 H 101.422 4.20543 0.268667 0
M  V30 1115 H 100.097 3.13573 0.803353 0
M  V30 1116 H 99.0038 3.42916 -1.49532 0
M  V30 1117 H 100.337 4.51954 -1.94931 0
M  V30 1118 N 101.989 0.842826 1.3317 0
M  V30 1119 C 102.919 0.294028 2.31641 0
M  V30 1120 C 103.9 -0.600401 1.59151 0
M  V30 1121 O 105.085 -0.523124 1.87022 0
M  V30 1122 C 102.215 -0.528416 3.43257 0
M  V30 1123 C 101.169 0.27056 4.27144 0
M  V30 1124 C 100.495 -0.675881 5.30411 0
M  V30 1125 C 101.795 1.48981 5.00602 0
M  V30 1126 H 103.489 1.11681 2.77791 0
M  V30 1127 H 101.035 0.538478 1.33553 0
M  V30 1128 H 102.988 -0.922674 4.11175 0
M  V30 1129 H 101.712 -1.38445 2.95805 0
M  V30 1130 H 100.371 0.646427 3.60856 0
M  V30 1131 H 100.019 -1.52842 4.79216 0
M  V30 1132 H 99.7189 -0.145374 5.8742 0
M  V30 1133 H 101.243 -1.06757 6.01195 0
M  V30 1134 H 102.657 1.16849 5.61266 0
M  V30 1135 H 101.054 1.95739 5.6728 0
M  V30 1136 H 102.124 2.25746 4.29147 0
M  V30 1137 N 103.467 -1.45747 0.599634 0
M  V30 1138 C 104.883 -1.57424 0.26264 0
M  V30 1139 C 105.083 -1.59222 -1.23493 0
M  V30 1140 O 104.139 -1.51825 -2.01756 0
M  V30 1141 C 105.452 -2.86061 0.926795 0
M  V30 1142 C 107 -2.99722 0.901967 0
M  V30 1143 C 107.475 -4.31119 1.54598 0
M  V30 1144 N 108.966 -4.37858 1.5111 0
M  V30 1145 C 109.701 -5.3818 1.97863 0
M  V30 1146 N 109.197 -6.45083 2.52666 0
M  V30 1147 N 110.99 -5.29487 1.88679 0
M  V30 1148 H 103.141 -1.42823 1.57211 0
M  V30 1149 H 105.404 -0.68235 0.658105 0
M  V30 1150 H 105.11 -2.90605 1.98095 0
M  V30 1151 H 104.984 -3.74563 0.445238 0
M  V30 1152 H 107.371 -2.9475 -0.143617 0
M  V30 1153 H 107.452 -2.12652 1.42171 0
M  V30 1154 H 107.096 -4.36849 2.59085 0
M  V30 1155 H 107.026 -5.16992 1.00132 0
M  V30 1156 H 109.517 -3.61209 1.11068 0
M  V30 1157 H 109.83 -7.17869 2.86155 0
M  V30 1158 H 108.175 -6.45856 2.56701 0
M  V30 1159 H 111.366 -4.44877 1.4561 0
M  V30 1160 H 111.539 -6.07524 2.25429 0
M  V30 1161 N 104.945 -0.338344 -1.53925 0
M  V30 1162 C 105.877 0.555117 -2.22376 0
M  V30 1163 C 106.89 1.06812 -1.22862 0
M  V30 1164 O 108.079 0.979163 -1.49247 0
M  V30 1165 C 105.179 1.77609 -2.88631 0
M  V30 1166 C 104.352 1.39927 -4.14414 0
M  V30 1167 C 103.411 2.47936 -4.64127 0
M  V30 1168 O 102.437 2.11461 -5.28463 0
M  V30 1169 N 103.639 3.79107 -4.39612 0
M  V30 1170 H 106.404 -0.0310778 -2.99684 0
M  V30 1171 H 103.965 -0.162226 -1.61085 0
M  V30 1172 H 105.957 2.49287 -3.18807 0
M  V30 1173 H 104.527 2.26978 -2.14941 0
M  V30 1174 H 103.747 0.513481 -3.90841 0
M  V30 1175 H 105.035 1.12341 -4.96243 0
M  V30 1176 H 104.433 4.11531 -3.88148 0
M  V30 1177 H 102.99 4.4697 -4.74406 0
M  V30 1178 N 106.423 1.57458 -0.0668435 0
M  V30 1179 C 107.333 2.15937 0.916975 0
M  V30 1180 C 108.349 1.12123 1.33058 0
M  V30 1181 O 109.525 1.44366 1.40429 0
M  V30 1182 C 106.59 2.70547 2.16807 0
M  V30 1183 C 105.651 3.89215 1.81135 0
M  V30 1184 C 104.884 4.41211 3.0028 0
M  V30 1185 O 105.107 3.92225 4.14144 0
M  V30 1186 O 104.041 5.32605 2.80384 0
M  V30 1187 H 107.867 3.00354 0.449561 0
M  V30 1188 H 105.452 1.48584 0.155949 0
M  V30 1189 H 107.334 3.0557 2.90181 0
M  V30 1190 H 106.009 1.89192 2.62656 0
M  V30 1191 H 104.916 3.59054 1.05028 0
M  V30 1192 H 106.249 4.71848 1.40073 0
M  V30 1193 N 107.901 -0.206675 1.56239 0
M  V30 1194 C 108.831 -1.25909 1.96645 0
M  V30 1195 C 109.812 -1.48097 0.836734 0
M  V30 1196 O 110.997 -1.6003 1.10019 0
M  V30 1197 C 108.127 -2.6058 2.29599 0
M  V30 1198 C 107.081 -2.53024 3.452 0
M  V30 1199 C 106.407 -3.91861 3.63798 0
M  V30 1200 C 107.707 -2.06524 4.79734 0
M  V30 1201 H 109.401 -0.923369 2.84806 0
M  V30 1202 H 106.947 -0.442735 1.37025 0
M  V30 1203 H 108.9 -3.34375 2.56459 0
M  V30 1204 H 107.624 -2.95869 1.38307 0
M  V30 1205 H 106.283 -1.81684 3.18412 0
M  V30 1206 H 105.931 -4.24483 2.69857 0
M  V30 1207 H 105.631 -3.87683 4.4156 0
M  V30 1208 H 107.155 -4.67296 3.93022 0
M  V30 1209 H 108.569 -2.70072 5.05702 0
M  V30 1210 H 106.966 -2.13374 5.60885 0
M  V30 1211 H 108.036 -1.01802 4.74093 0
M  V30 1212 N 109.379 -1.50304 -0.473955 0
M  V30 1213 C 110.327 -1.69482 -1.59307 0
M  V30 1214 C 111.321 -0.560669 -1.59853 0
M  V30 1215 O 112.527 -0.741087 -1.64036 0
M  V30 1216 H 108.902 -0.534892 -0.528578 0
M  V30 1217 H 110.873 -2.63364 -1.40293 0
M  V30 1218 C 109.622 -1.80354 -2.97267 0
M  V30 1219 H 108.945 -2.67012 -2.97564 0
M  V30 1220 H 110.385 -1.97798 -3.75036 0
M  V30 1221 C 108.844 -0.55448 -3.32306 0
M  V30 1222 O 109.374 0.307661 -4.0052 0
M  V30 1223 N 107.58 -0.409354 -2.87702 0
M  V30 1224 H 107.127 -1.11196 -2.32364 0
M  V30 1225 H 107.085 0.425223 -3.11511 0
M  V30 1226 N 110.857 0.726932 -1.39834 0
M  V30 1227 C 112.085 1.51613 -1.40787 0
M  V30 1228 C 112.5 1.88799 -0.00451505 0
M  V30 1229 O 111.857 1.54662 0.968809 0
M  V30 1230 C 111.908 2.79863 -2.28821 0
M  V30 1231 O 111.629 2.44253 -3.63692 0
M  V30 1232 C 113.13 3.73837 -2.38245 0
M  V30 1233 H 110.35 0.468264 -0.480593 0
M  V30 1234 H 112.894 0.897607 -1.83748 0
M  V30 1235 H 111.049 3.38027 -1.89252 0
M  V30 1236 H 111.463 3.26695 -4.1033 0
M  V30 1237 H 112.937 4.60699 -3.04073 0
M  V30 1238 H 113.414 4.16153 -1.40403 0
M  V30 1239 H 114.02 3.21589 -2.78317 0
M  V30 1240 N 112.336 1.25143 0.95797 0
M  V30 1241 C 113.266 1.07711 2.07173 0
M  V30 1242 C 114.247 -0.0128462 1.70095 0
M  V30 1243 O 115.432 0.156061 1.93572 0
M  V30 1244 C 112.562 0.691503 3.40346 0
M  V30 1245 C 111.516 1.73132 3.9142 0
M  V30 1246 C 110.842 1.20049 5.21049 0
M  V30 1247 C 112.142 3.1294 4.1817 0
M  V30 1248 H 113.836 2.00873 2.22014 0
M  V30 1249 H 111.382 0.967191 1.06684 0
M  V30 1250 H 113.335 0.556505 4.17709 0
M  V30 1251 H 112.059 -0.275819 3.25433 0
M  V30 1252 H 110.718 1.8547 3.16222 0
M  V30 1253 H 110.366 0.223499 5.02503 0
M  V30 1254 H 110.066 1.89545 5.56189 0
M  V30 1255 H 111.59 1.07782 6.01012 0
M  V30 1256 H 113.004 3.03775 4.86203 0
M  V30 1257 H 111.401 3.79875 4.64559 0
M  V30 1258 H 112.471 3.6025 3.24573 0
M  V30 1259 N 113.814 -1.1601 1.06675 0
M  V30 1260 C 114.777 -2.18724 0.685001 0
M  V30 1261 C 115.777 -1.58496 -0.271246 0
M  V30 1262 O 116.967 -1.74119 -0.0531156 0
M  V30 1263 C 114.099 -3.40899 0.00853648 0
M  V30 1264 H 115.292 -2.54011 1.59431 0
M  V30 1265 H 112.845 -1.30352 0.862441 0
M  V30 1266 H 113.58 -3.11173 -0.913337 0
M  V30 1267 H 113.365 -3.8587 0.696204 0
M  V30 1268 H 114.855 -4.16886 -0.24414 0
M  V30 1269 N 115.292 -0.849877 -1.32721 0
M  V30 1270 C 116.24 -0.279745 -2.30912 0
M  V30 1271 C 117.234 0.594278 -1.58634 0
M  V30 1272 O 118.44 0.482613 -1.73409 0
M  V30 1273 H 114.815 -0.0717521 -0.748569 0
M  V30 1274 H 116.786 -1.12222 -2.76494 0
M  V30 1275 C 115.535 0.521108 -3.43773 0
M  V30 1276 H 114.858 -0.142141 -3.99547 0
M  V30 1277 H 116.298 0.885693 -4.14646 0
M  V30 1278 C 114.757 1.70442 -2.90605 0
M  V30 1279 O 115.287 2.8034 -2.87702 0
M  V30 1280 N 113.493 1.52991 -2.47067 0
M  V30 1281 H 113.04 0.635914 -2.49628 0
M  V30 1282 H 112.998 2.32311 -2.11847 0
M  V30 1283 N 116.77 1.45427 -0.607355 0
M  V30 1284 C 118.181 1.85756 -0.187535 0
M  V30 1285 C 118.532 1.5077 1.25551 0
M  V30 1286 O 117.657 0.93427 1.95193 0
M  V30 1287 C 118.252 3.37154 -0.333572 0
M  V30 1288 C 116.811 3.76387 0.0315542 0
M  V30 1289 C 115.958 2.69377 -0.658117 0
M  V30 1290 H 118.909 1.36231 -0.81405 0
M  V30 1291 H 118.93 3.78014 0.43428 0
M  V30 1292 H 118.442 3.62586 -1.38393 0
M  V30 1293 H 116.543 3.56571 1.0811 0
M  V30 1294 H 116.656 4.77731 -0.361935 0
M  V30 1295 H 115.02 2.5452 -0.0957873 0
M  V30 1296 H 115.803 2.97646 -1.7106 0
M  V30 1297 N 118.248 0.346503 1.53744 0
M  V30 1298 C 119.495 -0.249104 2.00962 0
M  V30 1299 C 119.823 -1.5032 1.23426 0
M  V30 1300 O 119.078 -1.93217 0.310761 0
M  V30 1301 C 119.377 -0.605809 3.52228 0
M  V30 1302 C 119.043 0.551747 4.47512 0
M  V30 1303 C 117.705 0.86941 4.73281 0
M  V30 1304 C 120.057 1.32818 5.03993 0
M  V30 1305 C 117.385 1.96582 5.52786 0
M  V30 1306 C 119.737 2.41486 5.84694 0
M  V30 1307 C 118.401 2.73808 6.08757 0
M  V30 1308 H 117.671 -0.0911538 0.735372 0
M  V30 1309 H 120.318 0.475027 1.85515 0
M  V30 1310 H 118.623 -1.4107 3.65522 0
M  V30 1311 H 120.32 -1.07858 3.86222 0
M  V30 1312 H 116.91 0.294102 4.2759 0
M  V30 1313 H 121.094 1.09602 4.84047 0
M  V30 1314 H 116.35 2.22045 5.69654 0
M  V30 1315 H 120.524 3.02078 6.27473 0
M  V30 1316 H 118.151 3.58892 6.7015 0
M  V30 1317 N 119.726 -1.57421 0.075193 0
M  V30 1318 C 120.656 -2.15942 -0.888324 0
M  V30 1319 C 121.637 -1.08737 -1.30806 0
M  V30 1320 O 122.822 -1.36787 -1.37851 0
M  V30 1321 C 119.952 -2.72379 -2.1547 0
M  V30 1322 C 118.906 -3.8478 -1.87425 0
M  V30 1323 C 118.232 -4.27834 -3.20721 0
M  V30 1324 C 119.532 -5.08869 -1.17684 0
M  V30 1325 H 121.226 -2.96705 -0.400799 0
M  V30 1326 H 118.772 -1.42723 -0.191342 0
M  V30 1327 H 120.725 -3.11965 -2.83295 0
M  V30 1328 H 119.449 -1.88841 -2.6647 0
M  V30 1329 H 118.108 -3.45703 -1.22004 0
M  V30 1330 H 117.756 -3.41214 -3.6957 0
M  V30 1331 H 117.456 -5.03605 -3.02746 0
M  V30 1332 H 118.98 -4.70039 -3.89738 0
M  V30 1333 H 120.394 -5.4575 -1.75584 0
M  V30 1334 H 118.791 -5.8994 -1.09956 0
M  V30 1335 H 119.861 -4.84648 -0.156453 0
M  V30 1336 N 121.204 0.198386 -1.56346 0
M  V30 1337 C 122.167 1.22952 -1.93431 0
M  V30 1338 C 123.167 1.38611 -0.815092 0
M  V30 1339 O 124.357 1.36479 -1.08255 0
M  V30 1340 C 121.489 2.59946 -2.20546 0
M  V30 1341 H 122.682 0.912626 -2.85677 0
M  V30 1342 H 120.235 0.43977 -1.49986 0
M  V30 1343 H 120.97 2.96696 -1.30927 0
M  V30 1344 H 120.755 2.49953 -3.02102 0
M  V30 1345 H 122.245 3.3431 -2.50253 0
M  V30 1346 N 122.682 1.50554 0.465978 0
M  V30 1347 C 123.629 1.6979 1.56333 0
M  V30 1348 C 124.599 0.539239 1.57103 0
M  V30 1349 O 125.784 0.770401 1.74555 0
M  V30 1350 C 122.924 1.80273 2.94271 0
M  V30 1351 C 122.037 3.07674 3.0325 0
M  V30 1352 C 121.172 3.08922 4.32135 0
M  V30 1353 C 120.211 4.30755 4.34875 0
M  V30 1354 N 119.348 4.29714 5.55239 0
M  V30 1355 H 124.188 2.63472 1.39235 0
M  V30 1356 H 121.725 1.30602 0.676873 0
M  V30 1357 H 123.683 1.84332 3.74269 0
M  V30 1358 H 122.313 0.900258 3.09992 0
M  V30 1359 H 121.365 3.13062 2.16094 0
M  V30 1360 H 122.677 3.97642 3.01135 0
M  V30 1361 H 121.831 3.11738 5.20485 0
M  V30 1362 H 120.57 2.16792 4.36866 0
M  V30 1363 H 119.575 4.28146 3.44922 0
M  V30 1364 H 120.8 5.24117 4.31831 0
M  V30 1365 H 118.746 3.4044 5.60746 0
M  V30 1366 H 118.663 5.13456 5.54886 0
M  V30 1367 H 119.931 4.36683 6.457 0
M  V30 1368 N 124.16 -0.719506 1.40217 0
M  V30 1369 C 125.39 -1.50646 1.41384 0
M  V30 1370 C 125.798 -1.89197 0.0107743 0
M  V30 1371 O 125.141 -1.55709 -0.974708 0
M  V30 1372 C 125.203 -2.81405 2.23722 0
M  V30 1373 C 124.867 -2.65199 3.72181 0
M  V30 1374 C 125.864 -2.32717 4.64907 0
M  V30 1375 C 123.549 -2.81586 4.1595 0
M  V30 1376 C 125.543 -2.16827 5.99387 0
M  V30 1377 C 123.23 -2.65313 5.50502 0
M  V30 1378 C 124.228 -2.32981 6.42035 0
M  V30 1379 O 123.916 -2.16827 7.74107 0
M  V30 1380 H 123.648 -0.471606 0.484318 0
M  V30 1381 H 126.202 -0.895456 1.84853 0
M  V30 1382 H 124.432 -3.44823 1.75026 0
M  V30 1383 H 126.121 -3.43102 2.16878 0
M  V30 1384 H 126.887 -2.19694 4.32388 0
M  V30 1385 H 122.766 -3.0574 3.45027 0
M  V30 1386 H 126.31 -1.91513 6.70797 0
M  V30 1387 H 122.207 -2.7792 5.82607 0
M  V30 1388 H 122.975 -2.31778 7.84998 0
M  V30 1389 N 125.638 -1.25649 -0.95132 0
M  V30 1390 C 127.054 -1.02542 -1.223 0
M  V30 1391 C 127.254 0.255715 -1.99871 0
M  V30 1392 O 126.31 0.967558 -2.33226 0
M  V30 1393 C 127.623 -2.25065 -1.99415 0
M  V30 1394 C 129.171 -2.29861 -2.12446 0
M  V30 1395 C 129.646 -3.52048 -2.92961 0
M  V30 1396 N 131.137 -3.52465 -3.00538 0
M  V30 1397 C 131.872 -4.43672 -3.63239 0
M  V30 1398 N 131.368 -5.45157 -4.27523 0
M  V30 1399 N 133.161 -4.31346 -3.60412 0
M  V30 1400 H 125.312 -2.07951 -0.432471 0
M  V30 1401 H 127.575 -0.91339 -0.253816 0
M  V30 1402 H 127.281 -3.18194 -1.49817 0
M  V30 1403 H 127.155 -2.28502 -3.00111 0
M  V30 1404 H 129.542 -1.37252 -2.61239 0
M  V30 1405 H 129.623 -2.3044 -1.11044 0
M  V30 1406 H 129.267 -4.44981 -2.44856 0
M  V30 1407 H 129.197 -3.48715 -3.94596 0
M  V30 1408 H 131.688 -2.79056 -2.54826 0
M  V30 1409 H 132.001 -6.10958 -4.73234 0
M  V30 1410 H 130.346 -5.49025 -4.26141 0
M  V30 1411 H 133.537 -3.51288 -3.09377 0
M  V30 1412 H 133.71 -5.02624 -4.0899 0
M  V30 1413 N 127.117 1.15442 -1.07289 0
M  V30 1414 C 128.394 1.82306 -0.708792 0
M  V30 1415 C 128.774 1.94991 0.808807 0
M  V30 1416 O 128.122 1.50085 1.72298 0
M  V30 1417 C 128.332 3.18695 -1.42247 0
M  V30 1418 C 129.68 3.94341 -1.57417 0
M  V30 1419 O 130.704 3.28247 -1.38319 0
M  V30 1420 O 129.563 5.12839 -1.88834 0
M  V30 1421 H 126.657 0.787628 -0.252132 0
M  V30 1422 H 129.203 1.22559 -1.17377 0
M  V30 1423 H 127.975 3.04557 -2.45684 0
M  V30 1424 H 127.598 3.86128 -0.948223 0
M  V30 1425 N 128.595 0.856903 1.32268 0
M  V30 1426 C 129.842 0.461386 1.97174 0
M  V30 1427 C 130.17 -0.983491 1.67803 0
M  V30 1428 O 129.425 -1.70541 0.959903 0
M  V30 1429 C 129.724 0.649919 3.51441 0
M  V30 1430 C 129.39 2.0656 4.00804 0
M  V30 1431 C 128.052 2.45279 4.13995 0
M  V30 1432 C 130.404 2.98947 4.26943 0
M  V30 1433 C 127.732 3.75653 4.50668 0
M  V30 1434 C 130.084 4.28822 4.65075 0
M  V30 1435 C 128.748 4.67472 4.76472 0
M  V30 1436 H 128.018 0.168833 0.72151 0
M  V30 1437 H 130.665 1.08739 1.57633 0
M  V30 1438 H 128.97 -0.0593018 3.91755 0
M  V30 1439 H 130.667 0.32391 3.9969 0
M  V30 1440 H 127.257 1.75495 3.91024 0
M  V30 1441 H 131.441 2.70265 4.16258 0
M  V30 1442 H 126.697 4.05379 4.57688 0
M  V30 1443 H 130.871 5.0047 4.84255 0
M  V30 1444 H 128.498 5.68539 5.04646 0
M  V30 1445 N 130.073 -1.45103 0.615059 0
M  V30 1446 C 131.003 -2.33339 -0.0865619 0
M  V30 1447 C 131.984 -1.4727 -0.851209 0
M  V30 1448 O 133.169 -1.76026 -0.820281 0
M  V30 1449 C 130.299 -3.30095 -1.07956 0
M  V30 1450 C 129.253 -4.25858 -0.427628 0
M  V30 1451 C 128.579 -5.12361 -1.5294 0
M  V30 1452 C 129.879 -5.18165 0.655944 0
M  V30 1453 H 131.573 -2.92254 0.650224 0
M  V30 1454 H 129.119 -1.40532 0.314138 0
M  V30 1455 H 131.072 -3.90698 -1.57901 0
M  V30 1456 H 129.796 -2.69355 -1.84703 0
M  V30 1457 H 128.455 -3.66564 0.0510292 0
M  V30 1458 H 128.103 -4.47984 -2.28734 0
M  V30 1459 H 127.803 -5.77238 -1.09865 0
M  V30 1460 H 129.327 -5.75833 -2.03098 0
M  V30 1461 H 130.741 -5.72796 0.240257 0
M  V30 1462 H 129.138 -5.91559 1.00888 0
M  V30 1463 H 130.208 -4.60144 1.52957 0
M  V30 1464 N 131.551 -0.354651 -1.53558 0
M  V30 1465 C 132.498 0.496968 -2.25386 0
M  V30 1466 C 133.468 1.0865 -1.25636 0
M  V30 1467 O 134.653 1.12104 -1.54394 0
M  V30 1468 C 131.793 1.63637 -3.03837 0
M  V30 1469 C 130.906 1.07307 -4.18461 0
M  V30 1470 C 130.041 2.18068 -4.84376 0
M  V30 1471 C 129.08 1.59147 -5.91049 0
M  V30 1472 N 128.217 2.63695 -6.50699 0
M  V30 1473 H 133.057 -0.122075 -2.9775 0
M  V30 1474 H 130.594 -0.0720154 -1.46924 0
M  V30 1475 H 132.552 2.30734 -3.47589 0
M  V30 1476 H 131.182 2.22623 -2.33749 0
M  V30 1477 H 130.234 0.292708 -3.79272 0
M  V30 1478 H 131.546 0.602193 -4.95152 0
M  V30 1479 H 130.7 2.93007 -5.31255 0
M  V30 1480 H 129.439 2.68504 -4.07133 0
M  V30 1481 H 128.444 0.827175 -5.43542 0
M  V30 1482 H 129.669 1.09549 -6.70206 0
M  V30 1483 H 127.615 3.13365 -5.76315 0
M  V30 1484 H 127.532 2.21263 -7.22896 0
M  V30 1485 H 128.8 3.3837 -7.02229 0
M  V30 1486 N 133.029 1.57378 -0.0835403 0
M  V30 1487 C 134.254 1.98682 0.594987 0
M  V30 1488 C 134.679 0.961969 1.61641 0
M  V30 1489 O 134.037 -0.0709989 1.81161 0
M  V30 1490 C 134.085 3.38988 1.2296 0
M  V30 1491 O 133.189 3.39208 2.34546 0
M  V30 1492 H 132.53 0.646368 0.152002 0
M  V30 1493 H 135.06 2.03961 -0.161533 0
M  V30 1494 H 135.07 3.76431 1.57366 0
M  V30 1495 H 133.745 4.13107 0.481228 0
M  V30 1496 H 132.322 3.13548 2.01846 0
M  V30 1497 N 134.507 -0.190092 1.56449 0
M  V30 1498 C 135.457 -1.23977 1.91347 0
M  V30 1499 C 136.441 -1.40747 0.779693 0
M  V30 1500 O 137.633 -1.43033 1.04262 0
M  V30 1501 C 134.762 -2.58347 2.26079 0
M  V30 1502 C 133.848 -2.4535 3.45925 0
M  V30 1503 N 134.239 -2.02039 4.63696 0
M  V30 1504 C 132.537 -2.76229 3.50162 0
M  V30 1505 C 133.238 -2.01053 5.4585 0
M  V30 1506 N 132.214 -2.42747 4.8639 0
M  V30 1507 H 136.016 -0.896318 2.79899 0
M  V30 1508 H 133.53 -0.398496 1.57435 0
M  V30 1509 H 135.527 -3.34173 2.49267 0
M  V30 1510 H 134.187 -2.93512 1.38856 0
M  V30 1511 H 135.198 -1.7267 4.88268 0
M  V30 1512 H 131.875 -3.15556 2.73369 0
M  V30 1513 H 133.265 -1.69426 6.50188 0
M  V30 1514 N 135.985 -1.50799 -0.457987 0
M  V30 1515 C 136.895 -1.73426 -1.57989 0
M  V30 1516 C 137.911 -0.617745 -1.62665 0
M  V30 1517 O 139.087 -0.897614 -1.80291 0
M  V30 1518 C 136.152 -1.83557 -2.94122 0
M  V30 1519 C 135.213 -3.07345 -2.99729 0
M  V30 1520 C 134.446 -3.16983 -4.29368 0
M  V30 1521 O 134.669 -2.33077 -5.20607 0
M  V30 1522 O 133.603 -4.09812 -4.40837 0
M  V30 1523 H 137.429 -2.68555 -1.41817 0
M  V30 1524 H 135.014 -1.35052 -0.638859 0
M  V30 1525 H 136.896 -1.92326 -3.74952 0
M  V30 1526 H 135.571 -0.916137 -3.10465 0
M  V30 1527 H 134.478 -3.04068 -2.1793 0
M  V30 1528 H 135.811 -3.9891 -2.88326 0
M  V30 1529 N 137.463 0.71206 -1.40597 0
M  V30 1530 C 138.393 1.83889 -1.43899 0
M  V30 1531 C 139.374 1.67442 -0.299504 0
M  V30 1532 O 140.559 1.87421 -0.508624 0
M  V30 1533 C 137.689 3.21877 -1.30431 0
M  V30 1534 C 136.643 3.53002 -2.42019 0
M  V30 1535 C 135.969 4.90172 -2.13626 0
M  V30 1536 C 137.269 3.53643 -3.84362 0
M  V30 1537 H 138.963 1.81383 -2.38203 0
M  V30 1538 H 136.509 0.871237 -1.14654 0
M  V30 1539 H 138.462 4.00404 -1.31357 0
M  V30 1540 H 137.186 3.24968 -0.326049 0
M  V30 1541 H 135.845 2.76818 -2.40349 0
M  V30 1542 H 135.493 4.89869 -1.14182 0
M  V30 1543 H 135.193 5.11962 -2.88389 0
M  V30 1544 H 136.717 5.71028 -2.1624 0
M  V30 1545 H 138.131 4.22203 -3.87837 0
M  V30 1546 H 136.528 3.86961 -4.58673 0
M  V30 1547 H 137.598 2.52954 -4.13693 0
M  V30 1548 N 138.941 1.26152 0.944643 0
M  V30 1549 C 140.352 1.10454 1.50522 0
M  V30 1550 C 140.703 -0.31635 1.93633 0
M  V30 1551 O 139.828 -1.20746 1.79581 0
M  V30 1552 C 140.423 1.99891 2.73549 0
M  V30 1553 C 138.982 1.88348 3.25886 0
M  V30 1554 C 138.129 1.93447 1.9868 0
M  V30 1555 H 141.08 1.39292 0.760489 0
M  V30 1556 H 141.101 1.54477 3.47732 0
M  V30 1557 H 140.613 3.03297 2.42141 0
M  V30 1558 H 138.714 0.878636 3.62092 0
M  V30 1559 H 138.827 2.73696 3.93227 0
M  V30 1560 H 137.191 1.37456 2.14425 0
M  V30 1561 H 137.974 2.98476 1.69607 0
M  V30 1562 N 140.419 -1.14872 1.07899 0
M  V30 1563 C 141.644 -1.90202 0.826926 0
M  V30 1564 C 142.069 -1.77774 -0.614664 0
M  V30 1565 O 141.427 -1.11431 -1.43013 0
M  V30 1566 C 141.475 -3.38352 1.24702 0
M  V30 1567 O 140.579 -4.10497 0.39575 0
M  V30 1568 H 139.92 -0.591968 0.300782 0
M  V30 1569 H 142.45 -1.45437 1.43907 0
M  V30 1570 H 142.46 -3.89156 1.22563 0
M  V30 1571 H 141.135 -3.46715 2.29698 0
M  V30 1572 H 139.712 -3.69796 0.480117 0
M  V30 1573 N 141.898 -0.863906 -1.31812 0
M  V30 1574 C 142.848 -0.286898 -2.26188 0
M  V30 1575 C 143.832 0.572577 -1.50367 0
M  V30 1576 O 145.024 0.420447 -1.71934 0
M  V30 1577 C 142.153 0.515849 -3.39402 0
M  V30 1578 C 141.239 -0.356531 -4.22599 0
M  V30 1579 N 141.63 -1.44716 -4.84656 0
M  V30 1580 C 139.928 -0.147898 -4.45755 0
M  V30 1581 C 140.629 -1.98462 -5.46798 0
M  V30 1582 N 139.605 -1.28247 -5.28255 0
M  V30 1583 H 143.407 -1.12055 -2.717 0
M  V30 1584 H 140.921 -0.711012 -1.46008 0
M  V30 1585 H 142.918 0.945701 -4.06032 0
M  V30 1586 H 141.578 1.34718 -2.95434 0
M  V30 1587 H 142.589 -1.83008 -4.84488 0
M  V30 1588 H 139.266 0.647973 -4.12441 0
M  V30 1589 H 140.656 -2.89932 -6.06126 0
M  V30 1590 N 143.376 1.44774 -0.622745 0
M  V30 1591 C 144.787 1.85546 -0.207226 0
M  V30 1592 C 145.138 1.52093 1.23944 0
M  V30 1593 O 144.263 0.95492 1.94191 0
M  V30 1594 C 144.858 3.36781 -0.369313 0
M  V30 1595 C 143.417 3.76399 -0.00836847 0
M  V30 1596 C 142.564 2.68664 -0.686651 0
M  V30 1597 H 145.515 1.3536 -0.828454 0
M  V30 1598 H 145.536 3.78453 0.394162 0
M  V30 1599 H 145.048 3.61098 -1.42231 0
M  V30 1600 H 143.149 3.57698 1.04322 0
M  V30 1601 H 143.262 4.7732 -0.412584 0
M  V30 1602 H 141.626 2.54404 -0.122777 0
M  V30 1603 H 142.409 2.95815 -1.74208 0
M  V30 1604 N 144.854 0.36279 1.53368 0
M  V30 1605 C 146.265 -0.117022 1.86333 0
M  V30 1606 C 146.616 -1.48397 1.28347 0
M  V30 1607 O 145.741 -2.07787 0.604428 0
M  V30 1608 C 146.336 -0.21912 3.38091 0
M  V30 1609 C 144.895 -0.643184 3.70864 0
M  V30 1610 C 144.042 0.211318 2.76494 0
M  V30 1611 H 146.993 0.581687 1.47655 0
M  V30 1612 H 147.014 -1.04319 3.6592 0
M  V30 1613 H 146.526 0.775902 3.80265 0
M  V30 1614 H 144.627 -1.64654 3.34245 0
M  V30 1615 H 144.74 -0.41973 4.77258 0
M  V30 1616 H 143.104 -0.319367 2.5269 0
M  V30 1617 H 143.887 1.20383 3.21501 0
M  V30 1618 N 146.332 -1.57332 0.0918853 0
M  V30 1619 C 147.743 -1.81496 -0.437739 0
M  V30 1620 C 148.094 -1.00727 -1.6837 0
M  V30 1621 O 147.219 -0.235694 -2.15113 0
M  V30 1622 C 147.814 -3.29197 -0.800939 0
M  V30 1623 C 146.373 -3.54136 -1.27532 0
M  V30 1624 C 145.52 -2.75979 -0.270392 0
M  V30 1625 H 148.471 -1.55494 0.317366 0
M  V30 1626 H 148.492 -3.42344 -1.66074 0
M  V30 1627 H 148.004 -3.87955 0.106078 0
M  V30 1628 H 146.105 -3.00705 -2.20016 0
M  V30 1629 H 146.218 -4.62792 -1.23938 0
M  V30 1630 H 144.582 -2.43349 -0.751872 0
M  V30 1631 H 145.365 -3.37484 0.629248 0
M  V30 1632 N 147.81 0.181792 -1.56548 0
M  V30 1633 C 149.035 0.920019 -1.85877 0
M  V30 1634 C 149.46 1.75494 -0.677021 0
M  V30 1635 O 148.818 1.77399 0.374056 0
M  V30 1636 C 148.866 1.78112 -3.13542 0
M  V30 1637 O 147.97 2.88152 -2.95029 0
M  V30 1638 H 147.311 0.258334 -0.611686 0
M  V30 1639 H 149.841 0.183092 -2.03779 0
M  V30 1640 H 149.851 2.18314 -3.44678 0
M  V30 1641 H 148.526 1.16777 -3.99169 0
M  V30 1642 H 147.103 2.51609 -2.75222 0
M  V30 1643 N 149.288 1.51039 0.449983 0
M  V30 1644 C 150.513 1.6715 1.22783 0
M  V30 1645 C 150.938 0.363081 1.84563 0
M  V30 1646 O 150.296 -0.675433 1.68249 0
M  V30 1647 C 150.344 2.77985 2.29689 0
M  V30 1648 O 149.448 2.40707 3.34864 0
M  V30 1649 H 148.789 0.557746 0.360299 0
M  V30 1650 H 151.319 1.97535 0.533005 0
M  V30 1651 H 151.329 3.01693 2.74673 0
M  V30 1652 H 150.004 3.72935 1.84098 0
M  V30 1653 H 148.581 2.27523 2.95445 0
M  V30 1654 O 150.805 -0.595668 1.50113 0
M  V30 1655 H 151.496 -1.25045 1.47931 0
M  V30 END ATOM
M  V30 BEGIN BOND
M  V30 END BOND
M  V30 END CTAB
M  END
$$$$
