drugbank_target|Q9NZV8 Potassium voltage-gated channel subfamily D member 2 (DB00280; DB00458; DB06637)
 OpenBabel12092120353D

  0  0  0     0  0            999 V3000
M  V30 BEGIN CTAB
M  V30 COUNTS 9860 9977 0 0 0
M  V30 BEGIN ATOM
M  V30 1 H -0.908 1.98254 -0.117106 0
M  V30 2 N 0 1.576 0 0
M  V30 3 C 0.933 2.03868 1.02534 0
M  V30 4 C 1.911 0.928543 1.3348 0
M  V30 5 O 3.095 1.19667 1.45644 0
M  V30 6 C 0.222 2.43627 2.35294 0
M  V30 7 C -0.732 3.65373 2.2001 0
M  V30 8 S 0.101 5.13292 1.52614 0
M  V30 9 C 1.257 5.56322 2.86805 0
M  V30 10 H 1.49 2.90518 0.631377 0
M  V30 11 H -0.977 1.52953 0.210867 0
M  V30 12 H 0.981 2.67203 3.11629 0
M  V30 13 H -0.358 1.57376 2.7183 0
M  V30 14 H -1.165 3.90944 3.18086 0
M  V30 15 H -1.563 3.418 1.51819 0
M  V30 16 H 0.729 5.58782 3.83104 0
M  V30 17 H 1.672 6.56266 2.65933 0
M  V30 18 H 2.08 4.83886 2.90714 0
M  V30 19 N 1.4781 -0.272755 1.55222 0
M  V30 20 C 2.4411 -1.32041 1.87344 0
M  V30 21 C 3.4411 -1.42342 0.74803 0
M  V30 22 O 4.6311 -1.41488 1.0162 0
M  V30 23 C 1.7631 -2.70173 2.07893 0
M  V30 24 H 2.9561 -1.04789 2.80997 0
M  V30 25 H 0.5091 -0.51083 1.47717 0
M  V30 26 H 1.2441 -3.02605 1.16622 0
M  V30 27 H 1.0291 -2.64082 2.89833 0
M  V30 28 H 2.5191 -3.45869 2.34017 0
M  V30 29 N 2.9562 -1.48159 -0.537278 0
M  V30 30 C 3.9192 -1.61665 -1.62472 0
M  V30 31 C 4.9192 -0.490395 -1.5314 0
M  V30 32 O 6.1092 -0.755998 -1.5694 0
M  V30 33 C 3.2412 -1.57997 -3.02076 0
M  V30 34 H 4.4342 -2.58621 -1.51839 0
M  V30 35 H 1.9872 -1.36647 -0.758771 0
M  V30 36 H 2.7222 -0.624913 -3.18222 0
M  V30 37 H 2.5072 -2.39755 -3.10258 0
M  V30 38 H 3.9972 -1.70627 -3.81151 0
M  V30 39 N 4.4343 0.785586 -1.36625 0
M  V30 40 C 5.6823 1.54057 -1.30808 0
M  V30 41 C 6.0033 1.94683 0.111157 0
M  V30 42 O 5.2733 1.65241 1.05224 0
M  V30 43 H 3.8533 0.571354 -0.481211 0
M  V30 44 H 6.5153 0.935821 -1.70963 0
M  V30 45 H 5.6113 2.44637 -1.93801 0
M  V30 46 N 5.9124 1.20967 1.01018 0
M  V30 47 C 7.1584 1.02526 1.74975 0
M  V30 48 C 7.4914 -0.4408 1.89131 0
M  V30 49 O 6.7664 -1.32718 1.42184 0
M  V30 50 C 7.0494 1.71699 3.1653 0
M  V30 51 C 6.9024 3.25791 3.10129 0
M  V30 52 C 8.2214 1.45531 4.15342 0
M  V30 53 H 5.3404 0.373863 0.635134 0
M  V30 54 H 7.9824 1.49071 1.17805 0
M  V30 55 H 6.1324 1.32128 3.65341 0
M  V30 56 H 7.8044 3.74697 2.69072 0
M  V30 57 H 6.0474 3.56363 2.47362 0
M  V30 58 H 6.7184 3.69353 4.10222 0
M  V30 59 H 9.1944 1.79872 3.75213 0
M  V30 60 H 8.0704 1.96453 5.1254 0
M  V30 61 H 8.3314 0.384237 4.40427 0
M  V30 62 N 7.3905 -1.2043 1.01659 0
M  V30 63 C 8.3535 -2.21433 0.591616 0
M  V30 64 C 9.3535 -1.57203 -0.338226 0
M  V30 65 O 10.5435 -1.73737 -0.126918 0
M  V30 66 C 7.6755 -3.40628 -0.136058 0
M  V30 67 H 8.8685 -2.60545 1.48514 0
M  V30 68 H 6.4215 -1.33893 0.806379 0
M  V30 69 H 7.1565 -3.07019 -1.04449 0
M  V30 70 H 6.9415 -3.88475 0.531917 0
M  V30 71 H 8.4315 -4.15475 -0.420735 0
M  V30 72 N 8.8686 -0.792821 -1.36206 0
M  V30 73 C 9.8316 -0.199459 -2.2833 0
M  V30 74 C 10.8316 0.605189 -1.48977 0
M  V30 75 O 12.0216 0.425685 -1.68919 0
M  V30 76 C 9.1536 0.723523 -3.33134 0
M  V30 77 H 10.3466 -1.01181 -2.82316 0
M  V30 78 H 7.8996 -0.562485 -1.45828 0
M  V30 79 H 8.6346 1.56008 -2.84309 0
M  V30 80 H 8.4196 0.148436 -3.91819 0
M  V30 81 H 9.9096 1.13344 -4.01924 0
M  V30 82 N 10.3467 1.47872 -0.545128 0
M  V30 83 C 11.5927 2.03385 -0.0247951 0
M  V30 84 C 11.9477 1.41325 1.30556 0
M  V30 85 O 11.2407 0.5552 1.8338 0
M  V30 86 C 11.4347 3.57131 0.13867 0
M  V30 87 C 11.2637 4.34097 -1.17429 0
M  V30 88 C 10.0337 4.74458 -1.73831 0
M  V30 89 C 12.2317 4.6998 -2.08861 0
M  V30 90 N 10.2137 5.3602 -2.99258 0
M  V30 91 C 11.5847 5.31719 -3.18866 0
M  V30 92 C 13.6397 4.5191 -2.09003 0
M  V30 93 C 12.3427 5.77295 -4.29096 0
M  V30 94 C 14.3687 4.98477 -3.18237 0
M  V30 95 C 13.7307 5.60253 -4.26961 0
M  V30 96 H 9.8297 0.780339 -0.050943 0
M  V30 97 H 12.4137 1.80507 -0.729753 0
M  V30 98 H 10.5847 3.79802 0.812733 0
M  V30 99 H 12.3167 3.99282 0.659976 0
M  V30 100 H 9.0717 4.56037 -1.2778 0
M  V30 101 H 9.4957 5.71355 -3.63157 0
M  V30 102 H 14.1377 4.03516 -1.26234 0
M  V30 103 H 11.8557 6.24687 -5.12633 0
M  V30 104 H 15.4417 4.86274 -3.1942 0
M  V30 105 H 14.3217 5.95631 -5.10091 0
M  V30 106 N 11.8248 0.280983 1.55075 0
M  V30 107 C 12.7548 -0.597469 2.25727 0
M  V30 108 C 13.7358 -1.15417 1.24952 0
M  V30 109 O 14.9208 -1.18722 1.53684 0
M  V30 110 C 12.0508 -1.7789 2.98283 0
M  V30 111 C 11.0048 -1.35347 4.06036 0
M  V30 112 C 10.3308 -2.61846 4.66198 0
M  V30 113 C 11.6308 -0.499354 5.19907 0
M  V30 114 H 13.3248 -0.00824265 2.99399 0
M  V30 115 H 10.8708 -0.0025244 1.44 0
M  V30 116 H 12.8238 -2.39937 3.46422 0
M  V30 117 H 11.5478 -2.39405 2.22155 0
M  V30 118 H 10.2068 -0.756156 3.58717 0
M  V30 119 H 9.8548 -3.21632 3.86732 0
M  V30 120 H 9.5548 -2.3409 5.38958 0
M  V30 121 H 11.0788 -3.24732 5.1709 0
M  V30 122 H 12.4928 -1.02498 5.64063 0
M  V30 123 H 10.8898 -0.316424 5.99265 0
M  V30 124 H 11.9598 0.480459 4.82514 0
M  V30 125 N 13.3029 -1.57598 0.00835791 0
M  V30 126 C 14.7139 -1.7892 -0.53333 0
M  V30 127 C 15.0649 -0.916609 -1.73473 0
M  V30 128 O 14.1899 -0.121336 -2.1606 0
M  V30 129 C 14.7849 -3.24488 -0.974313 0
M  V30 130 C 13.3439 -3.46878 -1.46125 0
M  V30 131 C 12.4909 -2.74157 -0.416302 0
M  V30 132 H 15.4419 -1.56958 0.234495 0
M  V30 133 H 15.4629 -3.3306 -1.83988 0
M  V30 134 H 14.9749 -3.87972 -0.099718 0
M  V30 135 H 13.0759 -2.8862 -2.35646 0
M  V30 136 H 13.1889 -4.55572 -1.48295 0
M  V30 137 H 11.5529 -2.39022 -0.87981 0
M  V30 138 H 12.3359 -3.40345 0.44947 0
M  V30 139 N 14.781 0.264519 -1.55364 0
M  V30 140 C 16.028 0.994986 -1.7637 0
M  V30 141 C 16.356 1.85976 -0.5695 0
M  V30 142 O 15.611 1.90509 0.44776 0
M  V30 143 C 15.91 1.9004 -3.02687 0
M  V30 144 C 15.576 1.19243 -4.34847 0
M  V30 145 C 14.238 0.996709 -4.70764 0
M  V30 146 C 16.59 0.689296 -5.16622 0
M  V30 147 C 13.918 0.285261 -5.86006 0
M  V30 148 C 16.27 -0.00860079 -6.32599 0
M  V30 149 C 14.934 -0.215963 -6.67151 0
M  V30 150 H 14.204 0.364091 -0.645383 0
M  V30 151 H 16.851 0.266543 -1.89636 0
M  V30 152 H 15.156 2.69533 -2.84357 0
M  V30 153 H 16.853 2.46695 -3.16137 0
M  V30 154 H 13.443 1.3549 -4.06621 0
M  V30 155 H 17.627 0.828108 -4.89342 0
M  V30 156 H 12.883 0.113961 -6.11294 0
M  V30 157 H 17.057 -0.406186 -6.95214 0
M  V30 158 H 14.684 -0.769217 -7.56298 0
M  V30 159 N 16.2591 1.48442 0.529413 0
M  V30 160 C 17.2221 1.62524 1.61612 0
M  V30 161 C 18.2221 0.498509 1.52877 0
M  V30 162 O 19.4121 0.76431 1.56537 0
M  V30 163 C 16.5441 1.59597 3.01233 0
M  V30 164 H 17.7371 2.59423 1.50465 0
M  V30 165 H 15.2901 1.37047 0.751514 0
M  V30 166 H 16.0251 0.641781 3.17886 0
M  V30 167 H 15.8101 2.41397 3.08982 0
M  V30 168 H 17.3001 1.72646 3.80241 0
M  V30 169 N 17.7372 -0.778329 1.37039 0
M  V30 170 C 19.1532 -1.07796 1.17695 0
M  V30 171 C 19.3532 -2.01498 0.00860115 0
M  V30 172 O 18.4092 -2.43901 -0.653352 0
M  V30 173 C 19.7222 -1.68178 2.49272 0
M  V30 174 C 21.2702 -1.80467 2.55735 0
M  V30 175 C 21.7452 -2.44263 3.87427 0
M  V30 176 N 23.2362 -2.51721 3.88833 0
M  V30 177 C 23.9712 -3.01919 4.87476 0
M  V30 178 N 23.4672 -3.5234 5.96513 0
M  V30 179 N 25.2602 -3.00733 4.74885 0
M  V30 180 H 17.4112 -0.156032 2.11826 0
M  V30 181 H 19.6742 -0.131844 0.938787 0
M  V30 182 H 19.3802 -1.06796 3.35093 0
M  V30 183 H 19.2542 -2.67554 2.65885 0
M  V30 184 H 21.6412 -2.40984 1.70325 0
M  V30 185 H 21.7222 -0.798656 2.43013 0
M  V30 186 H 21.3662 -1.84388 4.73248 0
M  V30 187 H 21.2962 -3.45458 3.9745 0
M  V30 188 H 23.7872 -2.1603 3.10063 0
M  V30 189 H 24.1002 -3.89027 6.67741 0
M  V30 190 H 22.4452 -3.50462 6.00168 0
M  V30 191 H 25.6362 -2.60638 3.88826 0
M  V30 192 H 25.8092 -3.39545 5.51918 0
M  V30 193 N 19.2153 -1.21501 -1.00376 0
M  V30 194 C 20.1783 -0.976927 -2.07337 0
M  V30 195 C 21.1783 0.0525322 -1.60714 0
M  V30 196 O 22.3683 -0.184869 -1.73216 0
M  V30 197 C 19.5003 -0.473423 -3.37597 0
M  V30 198 H 20.6933 -1.92587 -2.29892 0
M  V30 199 H 18.2463 -1.03217 -1.17371 0
M  V30 200 H 18.9813 0.480379 -3.20722 0
M  V30 201 H 18.7663 -1.216 -3.72768 0
M  V30 202 H 20.2563 -0.32675 -4.1632 0
M  V30 203 N 20.6934 1.19889 -1.02296 0
M  V30 204 C 21.6564 2.21116 -0.603351 0
M  V30 205 C 22.6564 1.5738 0.329884 0
M  V30 206 O 23.8464 1.73802 0.117702 0
M  V30 207 C 20.9784 3.40696 0.117992 0
M  V30 208 H 22.1714 2.59754 -1.49893 0
M  V30 209 H 19.7244 1.33463 -0.813468 0
M  V30 210 H 20.4594 3.07569 1.0282 0
M  V30 211 H 20.2444 3.88188 -0.552511 0
M  V30 212 H 21.7344 4.15692 0.398696 0
M  V30 213 N 22.1715 0.800033 1.35784 0
M  V30 214 C 23.1345 0.211565 2.28221 0
M  V30 215 C 24.1345 -0.59728 1.49296 0
M  V30 216 O 25.3245 -0.416721 1.69142 0
M  V30 217 C 22.4565 -0.705846 3.33513 0
M  V30 218 H 23.6495 1.02677 2.81776 0
M  V30 219 H 21.2025 0.570211 1.45528 0
M  V30 220 H 21.9375 -1.54498 2.85133 0
M  V30 221 H 21.7225 -0.127655 3.91892 0
M  V30 222 H 23.2125 -1.11211 4.02519 0
M  V30 223 N 23.6496 -1.47581 0.552962 0
M  V30 224 C 24.8986 -2.01684 0.0251995 0
M  V30 225 C 25.2116 -1.43317 -1.33115 0
M  V30 226 O 26.4176 -1.89057 -1.94858 0
M  V30 227 C 24.8736 -3.599 -0.00542052 0
M  V30 228 C 24.4816 -4.27257 1.34742 0
M  V30 229 C 26.2256 -4.21768 -0.4808 0
M  V30 230 C 24.1326 -5.77467 1.27614 0
M  V30 231 H 23.0626 -0.753979 0.00565033 0
M  V30 232 H 25.7136 -1.69616 0.70018 0
M  V30 233 H 24.0956 -3.88911 -0.745961 0
M  V30 234 H 25.2696 -4.09893 2.10534 0
M  V30 235 H 23.5846 -3.77358 1.76039 0
M  V30 236 H 26.1816 -5.31838 -0.55246 0
M  V30 237 H 26.5246 -3.88651 -1.49184 0
M  V30 238 H 27.0576 -3.97273 0.204752 0
M  V30 239 H 23.7966 -6.15196 2.26304 0
M  V30 240 H 23.3166 -5.9718 0.55996 0
M  V30 241 H 24.9956 -6.3959 0.976421 0
M  V30 242 N 25.1277 -0.289203 -1.54924 0
M  V30 243 C 26.3757 0.322879 -1.99504 0
M  V30 244 C 26.6967 1.55313 -1.1791 0
M  V30 245 O 25.9667 1.94001 -0.272097 0
M  V30 246 H 24.5467 0.122291 -0.736922 0
M  V30 247 H 27.2087 -0.397802 -1.90797 0
M  V30 248 H 26.3047 0.603061 -3.06218 0
M  V30 249 N 26.6058 1.57591 -0.0167156 0
M  V30 250 C 27.8518 1.92399 0.659861 0
M  V30 251 C 28.2068 0.892561 1.70444 0
M  V30 252 O 27.4998 -0.0930755 1.91374 0
M  V30 253 C 27.6938 3.3172 1.33029 0
M  V30 254 C 27.5228 4.48319 0.352174 0
M  V30 255 C 26.2928 5.05281 -0.0434883 0
M  V30 256 C 28.4908 5.12831 -0.388474 0
M  V30 257 N 26.4728 6.05399 -1.01807 0
M  V30 258 C 27.8438 6.07934 -1.2172 0
M  V30 259 C 29.8988 4.95858 -0.450513 0
M  V30 260 C 28.6018 6.87891 -2.10235 0
M  V30 261 C 30.6278 5.76413 -1.32295 0
M  V30 262 C 29.9898 6.71123 -2.13948 0
M  V30 263 H 26.0888 0.752106 0.21415 0
M  V30 264 H 28.6728 1.94532 -0.0809846 0
M  V30 265 H 26.8438 3.3043 2.04134 0
M  V30 266 H 28.5758 3.5391 1.9629 0
M  V30 267 H 25.3308 4.7246 0.328384 0
M  V30 268 H 25.7548 6.60145 -1.50123 0
M  V30 269 H 30.3968 4.22472 0.166512 0
M  V30 270 H 28.1148 7.60591 -2.72997 0
M  V30 271 H 31.7008 5.65317 -1.37508 0
M  V30 272 H 30.5808 7.3237 -2.80364 0
M  V30 273 N 28.0839 -0.256276 1.55502 0
M  V30 274 C 29.0169 -1.34321 1.84481 0
M  V30 275 C 29.9949 -1.46802 0.699131 0
M  V30 276 O 31.1789 -1.63165 0.943904 0
M  V30 277 C 28.3059 -2.71779 2.02123 0
M  V30 278 C 27.3519 -2.76496 3.24734 0
M  V30 279 S 28.1849 -2.3405 4.81644 0
M  V30 280 C 29.3409 -3.73452 5.02279 0
M  V30 281 H 29.5739 -1.09539 2.76385 0
M  V30 282 H 27.1069 -0.45678 1.47489 0
M  V30 283 H 29.0649 -3.50932 2.12972 0
M  V30 284 H 27.7259 -2.93803 1.11078 0
M  V30 285 H 26.9189 -3.77424 3.34016 0
M  V30 286 H 26.5209 -2.05379 3.12563 0
M  V30 287 H 28.8129 -4.6887 4.89047 0
M  V30 288 H 29.7559 -3.6911 6.04287 0
M  V30 289 H 30.1639 -3.6553 4.30172 0
M  V30 290 N 29.562 -1.4872 -0.521534 0
M  V30 291 C 30.973 -1.50607 -1.10337 0
M  V30 292 C 31.324 -0.280612 -1.94183 0
M  V30 293 O 30.449 0.611507 -2.0758 0
M  V30 294 C 31.044 -2.72903 -2.00772 0
M  V30 295 C 29.603 -2.77634 -2.54158 0
M  V30 296 C 28.75 -2.44241 -1.31307 0
M  V30 297 H 31.701 -1.55714 -0.306388 0
M  V30 298 H 31.722 -2.519 -2.85178 0
M  V30 299 H 31.234 -3.62077 -1.39721 0
M  V30 300 H 29.335 -1.92689 -3.18907 0
M  V30 301 H 29.448 -3.79283 -2.92714 0
M  V30 302 H 27.812 -1.95577 -1.63161 0
M  V30 303 H 28.595 -3.35666 -0.719943 0
M  V30 304 N 31.0401 0.771051 -1.3745 0
M  V30 305 C 32.2861 1.5319 -1.32894 0
M  V30 306 C 32.6191 1.94008 0.0862511 0
M  V30 307 O 31.8941 1.64124 1.04373 0
M  V30 308 C 32.1771 2.79648 -2.26868 0
M  V30 309 C 32.0301 2.45079 -3.77169 0
M  V30 310 C 33.3491 3.81583 -2.19277 0
M  V30 311 H 30.4681 0.555744 -0.484064 0
M  V30 312 H 33.1101 0.884492 -1.68157 0
M  V30 313 H 31.2601 3.34891 -1.96926 0
M  V30 314 H 32.9321 1.95745 -4.1771 0
M  V30 315 H 31.1751 1.77767 -3.95704 0
M  V30 316 H 31.8461 3.35478 -4.38359 0
M  V30 317 H 34.3221 3.35835 -2.45671 0
M  V30 318 H 33.1981 4.67787 -2.87171 0
M  V30 319 H 33.4591 4.25897 -1.18592 0
M  V30 320 N 32.5182 1.22032 0.997298 0
M  V30 321 C 33.4812 0.987909 2.06816 0
M  V30 322 C 34.4812 -0.0440084 1.6074 0
M  V30 323 O 35.6712 0.194053 1.73116 0
M  V30 324 C 32.8032 0.49132 3.37341 0
M  V30 325 H 33.9962 1.93803 2.28868 0
M  V30 326 H 31.5492 1.03838 1.16822 0
M  V30 327 H 32.2842 -0.463364 3.20973 0
M  V30 328 H 32.0692 1.23575 3.72118 0
M  V30 329 H 33.5592 0.348824 4.16141 0
M  V30 330 N 33.9963 -1.19345 1.0293 0
M  V30 331 C 35.2213 -1.93538 0.745511 0
M  V30 332 C 35.6463 -1.75007 -0.689511 0
M  V30 333 O 35.0043 -1.05265 -1.47611 0
M  V30 334 C 35.0523 -3.43336 1.10239 0
M  V30 335 O 34.1563 -4.11806 0.221289 0
M  V30 336 H 33.4973 -0.604193 0.275404 0
M  V30 337 H 36.0273 -1.5141 1.37609 0
M  V30 338 H 36.0373 -3.94004 1.05947 0
M  V30 339 H 34.7123 -3.56146 2.14786 0
M  V30 340 H 33.2893 -3.715 0.322842 0
M  V30 341 N 35.4744 -0.807222 -1.35358 0
M  V30 342 C 36.7224 -0.387122 -1.98358 0
M  V30 343 C 37.0434 1.04942 -1.64354 0
M  V30 344 O 36.3134 1.72615 -0.926339 0
M  V30 345 H 34.8934 -0.140154 -0.733734 0
M  V30 346 H 37.5554 -1.0332 -1.6526 0
M  V30 347 H 36.6514 -0.493352 -3.08176 0
M  V30 348 N 36.9525 1.47285 -0.560781 0
M  V30 349 C 38.3635 1.86258 -0.128343 0
M  V30 350 C 38.7145 1.46699 1.30284 0
M  V30 351 O 37.8395 0.871698 1.98067 0
M  V30 352 C 38.4345 3.38044 -0.22614 0
M  V30 353 C 36.9935 3.76096 0.151283 0
M  V30 354 C 36.1405 2.71335 -0.572084 0
M  V30 355 H 39.0915 1.38752 -0.770297 0
M  V30 356 H 39.1125 3.76441 0.554322 0
M  V30 357 H 38.6245 3.66806 -1.26788 0
M  V30 358 H 36.7255 3.52951 1.19399 0
M  V30 359 H 36.8385 4.78641 -0.209765 0
M  V30 360 H 35.2025 2.54696 -0.0147653 0
M  V30 361 H 35.9855 3.02938 -1.61504 0
M  V30 362 N 38.4306 0.297415 1.54768 0
M  V30 363 C 39.3636 -0.622188 2.19554 0
M  V30 364 C 40.3416 -1.13558 1.16376 0
M  V30 365 O 41.5256 -1.20444 1.45002 0
M  V30 366 C 38.6526 -1.8509 2.83653 0
M  V30 367 C 37.6986 -1.47106 4.00328 0
M  V30 368 S 38.5316 -0.53006 5.3287 0
M  V30 369 C 39.6876 -1.76665 6.0045 0
M  V30 370 H 39.9206 -0.0717806 2.97213 0
M  V30 371 H 37.4536 0.0815678 1.54184 0
M  V30 372 H 39.4116 -2.55605 3.21211 0
M  V30 373 H 38.0726 -2.37247 2.05846 0
M  V30 374 H 37.2656 -2.38594 4.43947 0
M  V30 375 H 36.8676 -0.845885 3.64309 0
M  V30 376 H 39.1596 -2.7077 6.21039 0
M  V30 377 H 40.1026 -1.37308 6.9466 0
M  V30 378 H 40.5106 -1.94174 5.30054 0
M  V30 379 N 39.9087 -1.5758 0.0250728 0
M  V30 380 C 41.3197 -1.79476 -0.514323 0
M  V30 381 C 41.6707 -0.934956 -1.72491 0
M  V30 382 O 40.7957 -0.144245 -2.15919 0
M  V30 383 C 41.3907 -3.25503 -0.939842 0
M  V30 384 C 39.9497 -3.48408 -1.42438 0
M  V30 385 C 39.0967 -2.74583 -0.387201 0
M  V30 386 H 42.0477 -1.567 0.25113 0
M  V30 387 H 42.0687 -3.34992 -1.80445 0
M  V30 388 H 41.5807 -3.88056 -0.0585628 0
M  V30 389 H 39.6817 -2.91103 -2.32572 0
M  V30 390 H 39.7947 -4.57119 -1.43455 0
M  V30 391 H 38.1587 -2.39942 -0.854409 0
M  V30 392 H 38.9417 -3.39849 0.485543 0
M  V30 393 N 41.3868 0.248026 -1.55636 0
M  V30 394 C 42.3498 1.29044 -1.89421 0
M  V30 395 C 43.3498 1.41134 -0.770581 0
M  V30 396 O 44.5398 1.39854 -1.03858 0
M  V30 397 C 41.6718 2.66831 -2.12165 0
M  V30 398 H 42.8648 1.00305 -2.82629 0
M  V30 399 H 40.4178 0.487265 -1.48511 0
M  V30 400 H 41.1528 3.00711 -1.21422 0
M  V30 401 H 40.9378 2.59438 -2.93997 0
M  V30 402 H 42.4278 3.42103 -2.3949 0
M  V30 403 N 42.8649 1.48995 0.513639 0
M  V30 404 C 44.2759 1.5119 1.09537 0
M  V30 405 C 44.6269 0.290906 1.94031 0
M  V30 406 O 43.7519 -0.60049 2.07902 0
M  V30 407 C 44.3469 2.73964 1.99322 0
M  V30 408 C 42.9059 2.78978 2.52682 0
M  V30 409 C 42.0529 2.44934 1.30009 0
M  V30 410 H 45.0039 1.55875 0.298125 0
M  V30 411 H 45.0249 2.53409 2.83838 0
M  V30 412 H 44.5369 3.62813 1.37799 0
M  V30 413 H 42.6379 1.94378 3.1788 0
M  V30 414 H 42.7509 3.8083 2.90698 0
M  V30 415 H 41.1149 1.9644 1.62122 0
M  V30 416 H 41.8979 3.36043 0.702131 0
M  V30 417 N 44.343 -0.763751 1.37857 0
M  V30 418 C 45.754 -1.3405 1.29952 0
M  V30 419 C 46.105 -1.96138 -0.0492898 0
M  V30 420 O 45.23 -1.94372 -0.951239 0
M  V30 421 C 45.825 -2.43729 2.35333 0
M  V30 422 C 44.384 -2.97151 2.31037 0
M  V30 423 C 43.531 -1.70438 2.18738 0
M  V30 424 H 46.482 -0.563396 1.48363 0
M  V30 425 H 46.503 -3.23412 2.00462 0
M  V30 426 H 46.015 -1.9851 3.33489 0
M  V30 427 H 44.116 -3.46724 1.3643 0
M  V30 428 H 44.229 -3.52221 3.24772 0
M  V30 429 H 42.593 -1.93673 1.65418 0
M  V30 430 H 43.376 -1.27312 3.18821 0
M  V30 431 N 45.8211 -1.22559 -0.990812 0
M  V30 432 C 47.2371 -0.985996 -1.255 0
M  V30 433 C 47.4371 0.319173 -1.98956 0
M  V30 434 O 46.4931 1.04127 -2.3003 0
M  V30 435 C 47.8061 -2.18607 -2.06474 0
M  V30 436 C 49.3541 -2.22985 -2.19651 0
M  V30 437 C 49.8291 -3.4255 -3.04012 0
M  V30 438 N 51.3201 -3.42725 -3.11599 0
M  V30 439 C 52.0551 -4.31892 -3.7717 0
M  V30 440 N 51.5511 -5.31279 -4.44651 0
M  V30 441 N 53.3441 -4.19662 -3.73952 0
M  V30 442 H 45.4951 -2.06469 -0.49841 0
M  V30 443 H 47.7581 -0.904853 -0.282747 0
M  V30 444 H 47.4641 -3.13267 -1.59865 0
M  V30 445 H 47.3381 -2.18838 -3.07229 0
M  V30 446 H 49.7251 -1.28871 -2.65474 0
M  V30 447 H 49.8061 -2.26791 -1.18319 0
M  V30 448 H 49.4501 -4.36965 -2.58889 0
M  V30 449 H 49.3801 -3.35984 -4.0549 0
M  V30 450 H 51.8711 -2.70807 -2.63575 0
M  V30 451 H 52.1841 -5.95593 -4.92431 0
M  V30 452 H 50.5291 -5.3519 -4.43392 0
M  V30 453 H 53.7201 -3.41268 -3.20396 0
M  V30 454 H 53.8931 -4.89358 -4.24774 0
M  V30 455 N 47.2992 1.18797 -1.03562 0
M  V30 456 C 48.2312 2.21731 -0.580337 0
M  V30 457 C 49.2442 1.59051 0.347349 0
M  V30 458 O 50.4332 1.77929 0.142669 0
M  V30 459 C 47.5332 3.38459 0.172805 0
M  V30 460 C 46.7062 4.3072 -0.761496 0
M  V30 461 C 45.7652 5.26174 -0.0525547 0
M  V30 462 O 44.7912 5.65108 -0.681333 0
M  V30 463 N 45.9932 5.67624 1.21586 0
M  V30 464 H 48.7582 2.61417 -1.46565 0
M  V30 465 H 46.3192 1.33531 -0.915476 0
M  V30 466 H 48.3112 3.99335 0.656793 0
M  V30 467 H 46.8812 2.97507 0.959602 0
M  V30 468 H 46.1012 3.67525 -1.42544 0
M  V30 469 H 47.3892 4.89267 -1.39626 0
M  V30 470 H 46.7872 5.38038 1.74732 0
M  V30 471 H 45.3442 6.30721 1.64421 0
M  V30 472 N 48.7773 0.814389 1.34928 0
M  V30 473 C 49.6873 0.231978 2.3345 0
M  V30 474 C 50.7033 -0.629139 1.62228 0
M  V30 475 O 51.8793 -0.539052 1.94052 0
M  V30 476 C 48.9443 -0.603482 3.41407 0
M  V30 477 C 48.0053 0.279037 4.28392 0
M  V30 478 C 47.2383 -0.516643 5.31193 0
M  V30 479 O 47.4613 -1.75068 5.4287 0
M  V30 480 O 46.3953 0.0965652 6.01823 0
M  V30 481 H 50.2213 1.04721 2.85074 0
M  V30 482 H 47.8063 0.576343 1.37836 0
M  V30 483 H 49.6883 -1.07908 4.0735 0
M  V30 484 H 48.3633 -1.39618 2.92042 0
M  V30 485 H 47.2703 0.801948 3.65403 0
M  V30 486 H 48.6033 1.03588 4.81176 0
M  V30 487 N 50.2554 -1.46986 0.568584 0
M  V30 488 C 51.6714 -1.57946 0.229189 0
M  V30 489 C 51.8714 -1.56567 -1.26843 0
M  V30 490 O 50.9274 -1.47511 -2.04931 0
M  V30 491 C 52.2404 -2.87963 0.865909 0
M  V30 492 C 53.7884 -3.01568 0.838188 0
M  V30 493 C 54.2634 -4.34301 1.45419 0
M  V30 494 N 55.7544 -4.40965 1.41788 0
M  V30 495 C 56.4894 -5.42256 1.86403 0
M  V30 496 N 55.9854 -6.50297 2.38926 0
M  V30 497 N 57.7784 -5.3337 1.77405 0
M  V30 498 H 49.9294 -1.46126 1.54146 0
M  V30 499 H 52.1924 -0.696156 0.643484 0
M  V30 500 H 51.8984 -2.94742 1.91886 0
M  V30 501 H 51.7724 -3.75423 0.365687 0
M  V30 502 H 54.1594 -2.94379 -0.206106 0
M  V30 503 H 54.2404 -2.1562 1.37629 0
M  V30 504 H 53.8844 -4.42247 2.49761 0
M  V30 505 H 53.8144 -5.19 0.891435 0
M  V30 506 H 56.3054 -3.63484 1.03381 0
M  V30 507 H 56.6184 -7.23777 2.70863 0
M  V30 508 H 54.9634 -6.51155 2.42944 0
M  V30 509 H 58.1544 -4.47865 1.3614 0
M  V30 510 H 58.3274 -6.12169 2.12492 0
M  V30 511 N 51.7335 -0.305618 -1.54608 0
M  V30 512 C 52.6805 0.568421 -2.23691 0
M  V30 513 C 53.6505 1.12592 -1.22116 0
M  V30 514 O 54.8355 1.16959 -1.50749 0
M  V30 515 C 51.9755 1.7322 -2.98477 0
M  V30 516 C 51.0885 1.20566 -4.14835 0
M  V30 517 C 50.2235 2.33368 -4.77193 0
M  V30 518 C 49.2625 1.7787 -5.85686 0
M  V30 519 N 48.3995 2.84263 -6.4198 0
M  V30 520 H 53.2395 -0.0272867 -2.97988 0
M  V30 521 H 50.7765 -0.0252363 -1.47078 0
M  V30 522 H 52.7345 2.41675 -3.40072 0
M  V30 523 H 51.3645 2.29947 -2.26548 0
M  V30 524 H 50.4165 0.413223 -3.78149 0
M  V30 525 H 51.7285 0.759417 -4.92985 0
M  V30 526 H 50.8825 3.09761 -5.21664 0
M  V30 527 H 49.6215 2.8132 -3.98385 0
M  V30 528 H 48.6265 0.99968 -5.40635 0
M  V30 529 H 49.8515 1.30816 -6.66381 0
M  V30 530 H 47.7975 3.31541 -5.66053 0
M  V30 531 H 47.7145 2.44149 -7.15491 0
M  V30 532 H 48.9825 3.6054 -6.91109 0
M  V30 533 N 53.2116 1.57565 -0.0334293 0
M  V30 534 C 54.6276 1.56297 0.322997 0
M  V30 535 C 54.8276 1.03945 1.7262 0
M  V30 536 O 53.8836 0.688109 2.42943 0
M  V30 537 C 55.1966 3.00232 0.167664 0
M  V30 538 C 56.7446 3.12078 0.240107 0
M  V30 539 C 57.2196 4.57859 0.113513 0
M  V30 540 N 58.7106 4.62887 0.170359 0
M  V30 541 C 59.4456 5.73319 0.0962517 0
M  V30 542 N 58.9416 6.92794 -0.0291881 0
M  V30 543 N 60.7346 5.61898 0.150551 0
M  V30 544 H 52.8856 1.89923 -0.950956 0
M  V30 545 H 55.1486 0.873824 -0.367608 0
M  V30 546 H 54.8546 3.42501 -0.799102 0
M  V30 547 H 54.7286 3.654 0.936083 0
M  V30 548 H 57.1156 2.69718 1.19733 0
M  V30 549 H 57.1966 2.49623 -0.558763 0
M  V30 550 H 56.8406 5.009 -0.840314 0
M  V30 551 H 56.7706 5.18299 0.931302 0
M  V30 552 H 59.2616 3.76954 0.26728 0
M  V30 553 H 59.5746 7.7276 -0.0789252 0
M  V30 554 H 57.9196 6.94971 -0.0640299 0
M  V30 555 H 61.1106 4.67448 0.246981 0
M  V30 556 H 61.2836 6.47938 0.0893365 0
M  V30 557 N 54.6897 -0.239769 1.55765 0
M  V30 558 C 55.9177 -0.98417 1.81994 0
M  V30 559 C 56.3327 -1.7867 0.610124 0
M  V30 560 O 55.6897 -1.77571 -0.421271 0
M  V30 561 C 55.7407 -1.91635 3.06526 0
M  V30 562 O 55.4617 -1.14629 4.22838 0
M  V30 563 C 56.9627 -2.77616 3.45607 0
M  V30 564 H 54.1827 -0.28928 0.605441 0
M  V30 565 H 56.7267 -0.260499 2.02834 0
M  V30 566 H 54.8817 -2.5942 2.87715 0
M  V30 567 H 55.2957 -1.77745 4.93464 0
M  V30 568 H 56.7697 -3.38759 4.35828 0
M  V30 569 H 57.2467 -3.4909 2.6652 0
M  V30 570 H 57.8527 -2.15271 3.66795 0
M  V30 571 N 56.1678 -1.49265 -0.50573 0
M  V30 572 C 57.0998 -1.617 -1.62437 0
M  V30 573 C 58.1128 -0.499924 -1.54934 0
M  V30 574 O 59.3018 -0.771785 -1.60953 0
M  V30 575 C 56.4018 -1.5533 -3.01207 0
M  V30 576 C 55.5748 -2.8249 -3.33943 0
M  V30 577 C 54.6338 -2.69238 -4.52103 0
M  V30 578 O 53.6598 -3.43167 -4.5412 0
M  V30 579 N 54.8618 -1.80468 -5.51735 0
M  V30 580 H 57.6268 -2.58177 -1.52199 0
M  V30 581 H 55.1878 -1.46294 -0.693511 0
M  V30 582 H 57.1798 -1.44125 -3.78167 0
M  V30 583 H 55.7498 -0.667297 -3.05395 0
M  V30 584 H 54.9698 -3.08081 -2.45926 0
M  V30 585 H 56.2578 -3.66802 -3.5261 0
M  V30 586 H 55.6558 -1.19653 -5.52901 0
M  V30 587 H 54.2128 -1.75188 -6.27816 0
M  V30 588 N 57.6459 0.756429 -1.3826 0
M  V30 589 C 58.9229 1.50584 -1.24835 0
M  V30 590 C 59.3029 2.10556 0.151485 0
M  V30 591 O 58.6509 1.96825 1.1607 0
M  V30 592 C 58.8609 2.57448 -2.3563 0
M  V30 593 C 60.2089 3.24429 -2.73917 0
M  V30 594 O 61.2329 2.67751 -2.34921 0
M  V30 595 O 60.0919 4.26937 -3.41156 0
M  V30 596 H 57.1859 0.667664 -0.48801 0
M  V30 597 H 59.7319 0.792083 -1.5008 0
M  V30 598 H 58.5039 2.11362 -3.29305 0
M  V30 599 H 58.1269 3.36408 -2.11933 0
M  V30 600 N 59.124 1.23083 0.984299 0
M  V30 601 C 60.087 1.00979 2.05757 0
M  V30 602 C 61.087 -0.0269573 1.60777 0
M  V30 603 O 62.277 0.212403 1.729 0
M  V30 604 C 59.409 0.527072 3.36801 0
M  V30 605 H 60.602 1.9622 2.26799 0
M  V30 606 H 58.155 1.05072 1.15714 0
M  V30 607 H 58.89 -0.429294 3.21446 0
M  V30 608 H 58.675 1.27515 3.70786 0
M  V30 609 H 60.165 0.392942 4.15747 0
M  V30 610 N 60.6021 -1.18246 1.0419 0
M  V30 611 C 61.5321 -2.24127 0.654914 0
M  V30 612 C 62.5131 -1.66617 -0.342451 0
M  V30 613 O 63.6981 -1.92924 -0.222277 0
M  V30 614 C 60.8281 -3.47295 0.0183757 0
M  V30 615 C 59.7821 -4.17563 0.939414 0
M  V30 616 C 59.1081 -5.34438 0.167286 0
M  V30 617 C 60.4081 -4.70917 2.25908 0
M  V30 618 H 62.1021 -2.56753 1.54007 0
M  V30 619 H 59.6481 -1.23414 0.74195 0
M  V30 620 H 61.6011 -4.20572 -0.264082 0
M  V30 621 H 60.3251 -3.13907 -0.901664 0
M  V30 622 H 58.9841 -3.46186 1.20628 0
M  V30 623 H 58.6321 -4.97298 -0.7552 0
M  V30 624 H 58.3321 -5.82388 0.780901 0
M  V30 625 H 59.8561 -6.10504 -0.108125 0
M  V30 626 H 61.2701 -5.35882 2.03724 0
M  V30 627 H 59.6671 -5.29406 2.82577 0
M  V30 628 H 60.7371 -3.88272 2.9047 0
M  V30 629 N 62.0802 -0.821533 -1.34494 0
M  V30 630 C 63.3292 -0.405355 -1.97585 0
M  V30 631 C 63.6422 1.03677 -1.65863 0
M  V30 632 O 64.8482 1.55679 -2.22433 0
M  V30 633 C 63.3042 -0.673861 -3.53535 0
M  V30 634 C 62.9122 -2.12951 -3.94152 0
M  V30 635 C 64.6562 -0.32378 -4.23263 0
M  V30 636 C 62.5632 -2.34298 -5.43009 0
M  V30 637 H 61.4932 -0.147836 -0.739365 0
M  V30 638 H 64.1442 -1.00769 -1.53355 0
M  V30 639 H 62.5262 -0.00137554 -3.96 0
M  V30 640 H 63.7002 -2.84104 -3.62797 0
M  V30 641 H 62.0152 -2.44089 -3.37356 0
M  V30 642 H 64.6122 -0.461126 -5.32708 0
M  V30 643 H 64.9552 0.731586 -4.09821 0
M  V30 644 H 65.4882 -0.950786 -3.8627 0
M  V30 645 H 62.2272 -3.38335 -5.61435 0
M  V30 646 H 61.7472 -1.67687 -5.75883 0
M  V30 647 H 63.4262 -2.16588 -6.09671 0
M  V30 648 N 63.5583 1.46682 -0.576371 0
M  V30 649 C 64.8043 2.02712 -0.0596221 0
M  V30 650 C 65.1373 1.44765 1.29448 0
M  V30 651 O 64.4123 0.610355 1.84675 0
M  V30 652 C 64.6953 3.60098 0.0129503 0
M  V30 653 C 64.5483 4.28441 -1.3696 0
M  V30 654 C 65.8673 4.34224 0.71678 0
M  V30 655 H 62.9863 0.736637 -0.0231407 0
M  V30 656 H 65.6283 1.74898 -0.742351 0
M  V30 657 H 63.7783 3.83926 0.594378 0
M  V30 658 H 65.4503 4.15896 -1.9957 0
M  V30 659 H 63.6933 3.8805 -1.93907 0
M  V30 660 H 64.3643 5.3716 -1.27135 0
M  V30 661 H 66.8403 4.15503 0.222908 0
M  V30 662 H 65.7163 5.43936 0.73657 0
M  V30 663 H 65.9773 4.04823 1.77682 0
M  V30 664 N 65.0364 0.313813 1.54444 0
M  V30 665 C 65.9664 -0.549454 2.26943 0
M  V30 666 C 66.9474 -1.12741 1.27372 0
M  V30 667 O 68.1324 -1.15436 1.56167 0
M  V30 668 C 65.2624 -1.71523 3.01989 0
M  V30 669 C 64.2164 -1.26703 4.08816 0
M  V30 670 C 63.5424 -2.51898 4.71647 0
M  V30 671 C 64.8424 -0.388962 5.2085 0
M  V30 672 H 66.5364 0.0552661 2.99349 0
M  V30 673 H 64.0824 0.0280207 1.43973 0
M  V30 674 H 66.0354 -2.32535 3.51433 0
M  V30 675 H 64.7594 -2.34639 2.27183 0
M  V30 676 H 63.4184 -0.679896 3.6024 0
M  V30 677 H 63.0664 -3.13356 3.93468 0
M  V30 678 H 62.7664 -2.22605 5.43802 0
M  V30 679 H 64.2904 -3.1369 5.23861 0
M  V30 680 H 65.7044 -0.905107 5.6611 0
M  V30 681 H 64.1014 -0.18924 5.99802 0
M  V30 682 H 65.1714 0.582699 4.81386 0
M  V30 683 N 66.5145 -1.57545 0.0417849 0
M  V30 684 C 67.4625 -2.12148 -0.953723 0
M  V30 685 C 68.4565 -1.05104 -1.32852 0
M  V30 686 O 69.6625 -1.23524 -1.30927 0
M  V30 687 H 66.0375 -0.677957 -0.325389 0
M  V30 688 H 68.0085 -2.94707 -0.467991 0
M  V30 689 C 66.7575 -2.6739 -2.22257 0
M  V30 690 H 66.0805 -3.49413 -1.94295 0
M  V30 691 H 67.5205 -3.09227 -2.90094 0
M  V30 692 C 65.9795 -1.60723 -2.96091 0
M  V30 693 O 66.5095 -1.01449 -3.88679 0
M  V30 694 N 64.7155 -1.32466 -2.58652 0
M  V30 695 H 64.2625 -1.80856 -1.83437 0
M  V30 696 H 64.2205 -0.61325 -3.08361 0
M  V30 697 N 67.9926 0.231505 -1.5589 0
M  V30 698 C 69.2386 0.95877 -1.78705 0
M  V30 699 C 69.5716 1.8438 -0.609725 0
M  V30 700 O 68.8466 1.90521 0.391426 0
M  V30 701 C 69.1296 1.8062 -3.11526 0
M  V30 702 C 68.9826 0.948328 -4.39689 0
M  V30 703 C 70.3016 2.78585 -3.40703 0
M  V30 704 H 67.4206 0.347129 -0.650131 0
M  V30 705 H 70.0626 0.228259 -1.88624 0
M  V30 706 H 68.2126 2.42902 -3.03201 0
M  V30 707 H 69.8846 0.343016 -4.60023 0
M  V30 708 H 68.1276 0.253314 -4.3306 0
M  V30 709 H 68.7986 1.57543 -5.29041 0
M  V30 710 H 71.2746 2.26439 -3.49091 0
M  V30 711 H 70.1506 3.34988 -4.34826 0
M  V30 712 H 70.4116 3.55825 -2.62375 0
M  V30 713 N 69.4707 1.49531 0.497807 0
M  V30 714 C 70.6957 1.63159 1.28039 0
M  V30 715 C 71.1207 0.30418 1.85624 0
M  V30 716 O 70.4787 -0.728618 1.66015 0
M  V30 717 C 70.5267 2.70537 2.38416 0
M  V30 718 O 69.6307 2.29931 3.42353 0
M  V30 719 H 68.9717 0.546001 0.377861 0
M  V30 720 H 71.5017 1.9574 0.59558 0
M  V30 721 H 71.5117 2.92802 2.84132 0
M  V30 722 H 70.1867 3.6689 1.95869 0
M  V30 723 H 68.7637 2.18009 3.02533 0
M  V30 724 N 70.9488 -0.749086 1.3866 0
M  V30 725 C 72.1968 -1.50535 1.34847 0
M  V30 726 C 72.5178 -1.94909 -0.0595016 0
M  V30 727 O 71.7878 -1.67973 -1.00806 0
M  V30 728 H 70.3678 -0.558395 0.49619 0
M  V30 729 H 73.0298 -0.890165 1.73384 0
M  V30 730 H 72.1258 -2.39413 2.00219 0
M  V30 731 N 72.4269 -1.23603 -0.977757 0
M  V30 732 C 73.6549 -1.09646 -1.75458 0
M  V30 733 C 74.0699 0.351859 -1.85492 0
M  V30 734 O 73.4269 1.24327 -1.336 0
M  V30 735 C 73.4779 -1.71895 -3.18016 0
M  V30 736 O 73.1989 -3.11063 -3.08498 0
M  V30 737 C 74.6999 -1.63415 -4.12081 0
M  V30 738 H 71.9199 -0.38359 -0.550545 0
M  V30 739 H 74.4639 -1.63507 -1.22824 0
M  V30 740 H 72.6189 -1.22061 -3.67668 0
M  V30 741 H 73.0329 -3.41305 -3.9826 0
M  V30 742 H 74.5069 -2.11669 -5.09804 0
M  V30 743 H 74.9839 -0.593462 -4.35172 0
M  V30 744 H 75.5899 -2.12628 -3.68334 0
M  V30 745 N 73.905 1.17692 -1.04816 0
M  V30 746 C 75.321 1.39863 -0.768794 0
M  V30 747 C 75.521 1.91118 0.638451 0
M  V30 748 O 74.577 2.10036 1.40146 0
M  V30 749 C 75.89 2.39274 -1.82122 0
M  V30 750 C 77.438 2.52987 -1.843 0
M  V30 751 C 77.913 3.55669 -2.88555 0
M  V30 752 N 79.404 3.63183 -2.87493 0
M  V30 753 C 80.139 4.42381 -3.64811 0
M  V30 754 N 79.635 5.25125 -4.51903 0
M  V30 755 N 81.428 4.37217 -3.53267 0
M  V30 756 H 73.579 0.82752 -1.95617 0
M  V30 757 H 75.842 0.426123 -0.846831 0
M  V30 758 H 75.548 2.08678 -2.83102 0
M  V30 759 H 75.422 3.38725 -1.65967 0
M  V30 760 H 77.809 2.82896 -0.839869 0
M  V30 761 H 77.89 1.53623 -2.04532 0
M  V30 762 H 77.534 3.26499 -3.89051 0
M  V30 763 H 77.464 4.54728 -2.65575 0
M  V30 764 H 79.955 3.04103 -2.24343 0
M  V30 765 H 80.268 5.82728 -5.07591 0
M  V30 766 H 78.613 5.24519 -4.55966 0
M  V30 767 H 81.804 3.71626 -2.84625 0
M  V30 768 H 81.977 4.98696 -4.13771 0
M  V30 769 N 75.3831 0.828654 1.34056 0
M  V30 770 C 76.6301 0.419458 1.98108 0
M  V30 771 C 76.9581 -1.01886 1.65679 0
M  V30 772 O 76.2131 -1.72539 0.923512 0
M  V30 773 C 76.5121 0.575226 3.52741 0
M  V30 774 C 76.1781 1.98012 4.05095 0
M  V30 775 C 74.8401 2.36442 4.19104 0
M  V30 776 C 77.1921 2.89824 4.33188 0
M  V30 777 C 74.5201 3.66009 4.58535 0
M  V30 778 C 76.8721 4.1886 4.74066 0
M  V30 779 C 75.5361 4.5726 4.86281 0
M  V30 780 H 74.8061 0.153491 0.724929 0
M  V30 781 H 77.4531 1.05371 1.59904 0
M  V30 782 H 75.7581 -0.142385 3.91541 0
M  V30 783 H 77.4551 0.239057 4.00287 0
M  V30 784 H 74.0451 1.67162 3.94658 0
M  V30 785 H 78.2291 2.61375 4.21897 0
M  V30 786 H 73.4851 3.95579 4.66184 0
M  V30 787 H 77.6591 4.90086 4.94761 0
M  V30 788 H 75.2861 5.57707 5.16592 0
M  V30 789 N 76.8612 -1.46375 0.584142 0
M  V30 790 C 77.7932 -2.28443 -0.186119 0
M  V30 791 C 78.8062 -1.38596 -0.854115 0
M  V30 792 O 79.9952 -1.63183 -0.723438 0
M  V30 793 C 77.0952 -3.13671 -1.28311 0
M  V30 794 C 76.2682 -4.31652 -0.706758 0
M  V30 795 C 75.3272 -4.98267 -1.69163 0
M  V30 796 O 74.3532 -5.55815 -1.22712 0
M  V30 797 N 75.5552 -4.95408 -3.02575 0
M  V30 798 H 78.3202 -2.9519 0.517986 0
M  V30 799 H 75.8812 -1.56303 0.42201 0
M  V30 800 H 77.8732 -3.55101 -1.94128 0
M  V30 801 H 76.4432 -2.48989 -1.89005 0
M  V30 802 H 75.6632 -3.93989 0.128908 0
M  V30 803 H 76.9512 -5.07906 -0.301506 0
M  V30 804 H 76.3492 -4.49902 -3.42936 0
M  V30 805 H 74.9062 -5.40774 -3.63877 0
M  V30 806 N 78.3393 -0.321999 -1.54275 0
M  V30 807 C 79.5673 0.283052 -2.04955 0
M  V30 808 C 79.9823 1.45904 -1.19823 0
M  V30 809 O 79.3393 1.81063 -0.228545 0
M  V30 810 C 79.3903 0.719028 -3.54277 0
M  V30 811 O 79.1113 -0.410175 -4.36176 0
M  V30 812 C 80.6123 1.38705 -4.21041 0
M  V30 813 H 77.8323 0.0584616 -0.668448 0
M  V30 814 H 80.3763 -0.467734 -1.99079 0
M  V30 815 H 78.5313 1.41979 -3.60445 0
M  V30 816 H 78.9453 -0.0669416 -5.24457 0
M  V30 817 H 80.4193 1.64306 -5.2698 0
M  V30 818 H 80.8963 2.33385 -3.72059 0
M  V30 819 H 81.5023 0.728906 -4.19007 0
M  V30 820 N 79.8174 1.5752 -0.0501392 0
M  V30 821 C 81.0634 1.93755 0.618901 0
M  V30 822 C 81.4184 0.928514 1.68512 0
M  V30 823 O 80.7114 -0.0524613 1.91528 0
M  V30 824 C 80.9054 3.34467 1.25963 0
M  V30 825 C 80.7344 4.48965 0.257 0
M  V30 826 C 79.5044 5.05075 -0.150656 0
M  V30 827 C 81.7024 5.11891 -0.497166 0
M  V30 828 N 79.6844 6.03104 -1.14626 0
M  V30 829 C 81.0554 6.05216 -1.34588 0
M  V30 830 C 83.1104 4.9479 -0.55559 0
M  V30 831 C 81.8134 6.83277 -2.24778 0
M  V30 832 C 83.8394 5.73477 -1.44492 0
M  V30 833 C 83.2014 6.66433 -2.28136 0
M  V30 834 H 79.3004 0.756479 0.198149 0
M  V30 835 H 81.8844 1.94316 -0.122229 0
M  V30 836 H 80.0554 3.34685 1.97079 0
M  V30 837 H 81.7874 3.57994 1.88739 0
M  V30 838 H 78.5424 4.7305 0.228094 0
M  V30 839 H 78.9664 6.56813 -1.64092 0
M  V30 840 H 83.6084 4.2273 0.0768625 0
M  V30 841 H 81.3264 7.54629 -2.89069 0
M  V30 842 H 84.9124 5.62273 -1.49468 0
M  V30 843 H 83.7924 7.26258 -2.95835 0
M  V30 844 N 81.2955 -0.223234 1.56011 0
M  V30 845 C 82.2275 -1.30006 1.88762 0
M  V30 846 C 83.2405 -1.43129 0.775746 0
M  V30 847 O 84.4295 -1.44057 1.05403 0
M  V30 848 C 81.5295 -2.67589 2.07965 0
M  V30 849 C 80.7025 -2.76434 3.38973 0
M  V30 850 C 79.7615 -3.95019 3.47629 0
M  V30 851 O 78.7875 -3.83436 4.20672 0
M  V30 852 N 79.9895 -5.09249 2.78649 0
M  V30 853 H 82.7545 -1.02238 2.81722 0
M  V30 854 H 80.3155 -0.413278 1.56536 0
M  V30 855 H 82.3075 -3.45297 2.11073 0
M  V30 856 H 80.8775 -2.87964 1.21638 0
M  V30 857 H 80.0975 -1.85216 3.47978 0
M  V30 858 H 81.3855 -2.79313 4.25278 0
M  V30 859 H 80.7835 -5.21556 2.19081 0
M  V30 860 H 79.3405 -5.85007 2.8742 0
M  V30 861 N 82.7736 -1.49793 -0.48987 0
M  V30 862 C 84.0506 -1.50348 -1.25119 0
M  V30 863 C 84.4306 -0.237466 -2.0976 0
M  V30 864 O 83.7786 0.77981 -2.14782 0
M  V30 865 C 83.9886 -2.78872 -2.09837 0
M  V30 866 C 85.3366 -3.288 -2.68655 0
M  V30 867 O 86.3606 -2.80065 -2.20096 0
M  V30 868 O 85.2196 -4.13707 -3.57083 0
M  V30 869 H 82.3136 -0.602242 -0.566775 0
M  V30 870 H 84.8596 -1.62067 -0.503229 0
M  V30 871 H 83.6316 -3.62499 -1.47343 0
M  V30 872 H 83.2546 -2.70066 -2.91805 0
M  V30 873 N 84.2517 0.741722 -1.39055 0
M  V30 874 C 85.4797 1.53098 -1.39171 0
M  V30 875 C 85.8947 1.88794 0.0155099 0
M  V30 876 O 85.2517 1.53626 0.985159 0
M  V30 877 C 85.3027 2.82274 -2.2584 0
M  V30 878 O 85.0237 2.48097 -3.61081 0
M  V30 879 C 86.5247 3.76343 -2.34266 0
M  V30 880 H 83.7447 0.473335 -0.4756 0
M  V30 881 H 86.2887 0.917045 -1.82785 0
M  V30 882 H 84.4437 3.40015 -1.85656 0
M  V30 883 H 84.8577 3.31029 -4.06842 0
M  V30 884 H 86.3317 4.63898 -2.9917 0
M  V30 885 H 86.8087 4.17619 -1.35982 0
M  V30 886 H 87.4147 3.24523 -2.74891 0
M  V30 887 N 85.7298 1.2412 0.971189 0
M  V30 888 C 86.6598 1.05508 2.08304 0
M  V30 889 C 87.6408 -0.0308864 1.70072 0
M  V30 890 O 88.8258 0.135521 1.93727 0
M  V30 891 C 85.9558 0.655365 3.4106 0
M  V30 892 C 84.9098 1.68971 3.93234 0
M  V30 893 C 84.2358 1.14516 5.22293 0
M  V30 894 C 85.5358 3.08487 4.21465 0
M  V30 895 H 87.2298 1.98507 2.24132 0
M  V30 896 H 84.7758 0.955821 1.07704 0
M  V30 897 H 86.7288 0.51217 4.18276 0
M  V30 898 H 85.4528 -0.31032 3.25122 0
M  V30 899 H 84.1118 1.82106 3.18171 0
M  V30 900 H 83.7598 0.170189 5.02712 0
M  V30 901 H 83.4598 1.83635 5.58168 0
M  V30 902 H 84.9838 1.01401 6.02121 0
M  V30 903 H 86.3978 2.98601 4.89398 0
M  V30 904 H 84.7948 3.74926 4.68562 0
M  V30 905 H 85.8648 3.56787 3.28376 0
M  V30 906 N 87.2079 -1.17134 1.05439 0
M  V30 907 C 88.1179 -2.24878 0.668365 0
M  V30 908 C 89.1339 -1.71186 -0.311687 0
M  V30 909 O 90.3099 -2.00738 -0.163161 0
M  V30 910 C 87.3749 -3.46662 0.051648 0
M  V30 911 C 86.4359 -4.15429 1.08246 0
M  V30 912 C 85.6689 -5.31399 0.495082 0
M  V30 913 O 85.8919 -5.66153 -0.694743 0
M  V30 914 O 84.8259 -5.89187 1.23056 0
M  V30 915 H 88.6519 -2.60189 1.56637 0
M  V30 916 H 86.2369 -1.24482 0.826104 0
M  V30 917 H 88.1189 -4.20394 -0.290966 0
M  V30 918 H 86.7939 -3.13142 -0.819971 0
M  V30 919 H 85.7009 -3.43704 1.47711 0
M  V30 920 H 87.0339 -4.52982 1.92532 0
M  V30 921 N 88.686 -0.835752 -1.33615 0
M  V30 922 C 90.102 -0.523139 -1.50783 0
M  V30 923 C 90.302 0.950171 -1.77691 0
M  V30 924 O 89.358 1.73411 -1.83534 0
M  V30 925 C 90.671 -1.39378 -2.66448 0
M  V30 926 C 92.219 -1.39223 -2.80332 0
M  V30 927 C 92.694 -2.24765 -3.99055 0
M  V30 928 N 94.185 -2.22458 -4.06284 0
M  V30 929 C 94.92 -2.85386 -4.97336 0
M  V30 930 N 94.416 -3.57354 -5.93523 0
M  V30 931 N 96.209 -2.74872 -4.90308 0
M  V30 932 H 88.36 -1.78952 -1.14411 0
M  V30 933 H 90.623 -0.763297 -0.562212 0
M  V30 934 H 90.329 -2.44061 -2.53234 0
M  V30 935 H 90.203 -1.0676 -3.61776 0
M  V30 936 H 92.59 -0.353136 -2.92979 0
M  V30 937 H 92.671 -1.75846 -1.85773 0
M  V30 938 H 92.315 -3.28732 -3.87167 0
M  V30 939 H 92.245 -1.85485 -4.92852 0
M  V30 940 H 94.736 -1.70119 -3.37443 0
M  V30 941 H 95.049 -4.02584 -6.59656 0
M  V30 942 H 93.394 -3.61461 -5.93608 0
M  V30 943 H 96.585 -2.18213 -4.14126 0
M  V30 944 H 96.758 -3.24199 -5.61069 0
M  V30 945 N 90.1641 1.46063 -0.591896 0
M  V30 946 C 91.3941 2.06418 -0.0867676 0
M  V30 947 C 91.8021 1.43975 1.22751 0
M  V30 948 O 91.1451 0.542531 1.75506 0
M  V30 949 C 91.2071 3.59213 0.143725 0
M  V30 950 C 90.8711 4.439 -1.08635 0
M  V30 951 C 91.8681 4.79864 -2.00067 0
M  V30 952 C 89.5531 4.84896 -1.31077 0
M  V30 953 C 91.5471 5.55661 -3.12282 0
M  V30 954 C 89.2341 5.6045 -2.43596 0
M  V30 955 C 90.2321 5.95747 -3.34027 0
M  V30 956 O 89.9201 6.69772 -4.4459 0
M  V30 957 H 89.6521 0.673443 -0.0587447 0
M  V30 958 H 92.2061 1.88539 -0.814994 0
M  V30 959 H 90.4361 3.75433 0.926668 0
M  V30 960 H 92.1251 4.01463 0.5985 0
M  V30 961 H 92.8911 4.48763 -1.83947 0
M  V30 962 H 88.7701 4.56867 -0.61594 0
M  V30 963 H 92.3141 5.8313 -3.82891 0
M  V30 964 H 88.2111 5.90965 -2.59674 0
M  V30 965 H 88.9791 6.88207 -4.43073 0
M  V30 966 N 91.6422 0.330177 1.54103 0
M  V30 967 C 93.0532 -0.15652 1.86043 0
M  V30 968 C 93.4042 -1.51086 1.2517 0
M  V30 969 O 92.5292 -2.09023 0.560217 0
M  V30 970 C 93.1242 -0.290784 3.3755 0
M  V30 971 C 91.6832 -0.721705 3.69416 0
M  V30 972 C 90.8302 0.152622 2.7688 0
M  V30 973 H 93.7812 0.550237 1.48856 0
M  V30 974 H 93.8022 -1.12058 3.63625 0
M  V30 975 H 93.3142 0.695068 3.81825 0
M  V30 976 H 91.4152 -1.71706 3.30678 0
M  V30 977 H 91.5282 -0.520869 4.7626 0
M  V30 978 H 89.8922 -0.372894 2.51956 0
M  V30 979 H 90.6752 1.13536 3.23982 0
M  V30 980 N 93.1203 -1.57491 0.0584922 0
M  V30 981 C 94.3973 -1.84346 -0.653918 0
M  V30 982 C 94.7773 -0.948355 -1.88599 0
M  V30 983 O 94.1253 -0.0112403 -2.28497 0
M  V30 984 C 94.3353 -3.34239 -1.00425 0
M  V30 985 C 95.6833 -4.01431 -1.38342 0
M  V30 986 O 96.7073 -3.38907 -1.09637 0
M  V30 987 O 95.5663 -5.11683 -1.91943 0
M  V30 988 H 92.6603 -0.761112 -0.323478 0
M  V30 989 H 95.2063 -1.6947 0.0884125 0
M  V30 990 H 93.9783 -3.91089 -0.128625 0
M  V30 991 H 93.6013 -3.54329 -1.80378 0
M  V30 992 N 94.5984 0.214957 -1.56127 0
M  V30 993 C 95.8264 0.955092 -1.83536 0
M  V30 994 C 96.2414 1.77677 -0.638472 0
M  V30 995 O 95.5984 1.78219 0.392968 0
M  V30 996 C 95.6494 1.86734 -3.09536 0
M  V30 997 O 95.3704 1.07887 -4.24608 0
M  V30 998 C 96.8714 2.72082 -3.4998 0
M  V30 999 H 94.0914 0.279611 -0.609966 0
M  V30 1000 H 96.6354 0.228197 -2.03223 0
M  V30 1001 H 94.7904 2.5481 -2.91806 0
M  V30 1002 H 95.2044 1.69872 -4.9623 0
M  V30 1003 H 96.6784 3.31782 -4.41163 0
M  V30 1004 H 97.1554 3.44806 -2.7204 0
M  V30 1005 H 97.7614 2.09409 -3.70173 0
M  V30 1006 N 96.0765 1.50051 0.48192 0
M  V30 1007 C 97.0065 1.71046 1.58951 0
M  V30 1008 C 97.9875 0.559288 1.60642 0
M  V30 1009 O 99.1725 0.797243 1.77081 0
M  V30 1010 C 96.3025 1.79462 2.97339 0
M  V30 1011 C 95.2565 2.94558 3.10515 0
M  V30 1012 C 94.5825 2.88105 4.50444 0
M  V30 1013 C 95.8825 4.35227 2.88747 0
M  V30 1014 H 97.5765 2.6378 1.41635 0
M  V30 1015 H 95.1225 1.26936 0.679942 0
M  V30 1016 H 97.0755 1.92734 3.74742 0
M  V30 1017 H 95.7995 0.833412 3.15788 0
M  V30 1018 H 94.4585 2.80918 2.35543 0
M  V30 1019 H 94.1065 1.89853 4.65795 0
M  V30 1020 H 93.8065 3.65366 4.60197 0
M  V30 1021 H 95.3305 3.03412 5.29881 0
M  V30 1022 H 96.7445 4.49449 3.55905 0
M  V30 1023 H 95.1415 5.13856 3.09955 0
M  V30 1024 H 96.2115 4.48347 1.84696 0
M  V30 1025 N 97.5546 -0.734337 1.39446 0
M  V30 1026 C 98.4846 -1.86155 1.40955 0
M  V30 1027 C 99.4656 -1.67898 0.272827 0
M  V30 1028 O 100.651 -1.88207 0.478743 0
M  V30 1029 C 97.7806 -3.23912 1.25294 0
M  V30 1030 C 96.7346 -3.56808 2.36373 0
M  V30 1031 C 96.0606 -4.93508 2.058 0
M  V30 1032 C 97.3606 -3.59713 3.78687 0
M  V30 1033 H 99.0546 -1.8515 2.35287 0
M  V30 1034 H 96.6006 -0.889367 1.13253 0
M  V30 1035 H 98.5536 -4.02443 1.2497 0
M  V30 1036 H 97.2776 -3.25446 0.274308 0
M  V30 1037 H 95.9366 -2.80606 2.35914 0
M  V30 1038 H 95.5846 -4.91623 1.06374 0
M  V30 1039 H 95.2846 -5.16486 2.80208 0
M  V30 1040 H 96.8086 -5.74396 2.07128 0
M  V30 1041 H 98.2226 -4.2832 3.81071 0
M  V30 1042 H 96.6196 -3.94209 4.52459 0
M  V30 1043 H 97.6896 -2.59504 4.09617 0
M  V30 1044 N 99.0327 -1.24633 -0.964593 0
M  V30 1045 C 100.281 -1.08573 -1.70459 0
M  V30 1046 C 100.602 0.375655 -1.91347 0
M  V30 1047 O 99.8717 1.26779 -1.49345 0
M  V30 1048 H 98.4517 -0.398784 -0.631649 0
M  V30 1049 H 101.114 -1.56601 -1.16026 0
M  V30 1050 H 100.21 -1.58623 -2.68785 0
M  V30 1051 N 100.511 1.16574 -1.06058 0
M  V30 1052 C 101.736 1.91493 -0.796562 0
M  V30 1053 C 102.161 1.76773 0.642868 0
M  V30 1054 O 101.519 1.09142 1.44768 0
M  V30 1055 C 101.567 3.40293 -1.19303 0
M  V30 1056 O 100.671 4.11074 -0.330394 0
M  V30 1057 H 100.012 0.596678 -0.291326 0
M  V30 1058 H 102.542 1.47708 -1.41575 0
M  V30 1059 H 102.552 3.91057 -1.16356 0
M  V30 1060 H 101.227 3.50326 -2.24153 0
M  V30 1061 H 99.8038 3.70513 -0.421225 0
M  V30 1062 N 101.989 0.842826 1.3317 0
M  V30 1063 C 103.214 0.453129 2.02389 0
M  V30 1064 C 103.639 -0.939105 1.6298 0
M  V30 1065 O 102.997 -1.61472 0.8244 0
M  V30 1066 C 103.045 0.586094 3.55805 0
M  V30 1067 O 102.149 -0.386029 4.10589 0
M  V30 1068 H 101.49 0.183664 0.638094 0
M  V30 1069 H 104.02 1.13875 1.69981 0
M  V30 1070 H 104.03 0.469209 4.05293 0
M  V30 1071 H 102.705 1.6014 3.83833 0
M  V30 1072 H 101.282 -0.226371 3.72212 0
M  V30 1073 N 103.467 -1.45747 0.599634 0
M  V30 1074 C 104.377 -2.34262 -0.125888 0
M  V30 1075 C 105.393 -1.50768 -0.868625 0
M  V30 1076 O 106.569 -1.83592 -0.828003 0
M  V30 1077 C 103.634 -3.28252 -1.11587 0
M  V30 1078 C 102.695 -4.27651 -0.375956 0
M  V30 1079 C 101.928 -5.1715 -1.31877 0
M  V30 1080 O 102.151 -5.09916 -2.55621 0
M  V30 1081 O 101.085 -5.96286 -0.820157 0
M  V30 1082 H 104.911 -2.97688 0.601315 0
M  V30 1083 H 102.496 -1.44999 0.359934 0
M  V30 1084 H 104.378 -3.86191 -1.68626 0
M  V30 1085 H 103.053 -2.67401 -1.82424 0
M  V30 1086 H 101.96 -3.7335 0.236698 0
M  V30 1087 H 103.293 -4.91334 0.29177 0
M  V30 1088 N 104.945 -0.338344 -1.53925 0
M  V30 1089 C 106.361 0.0137736 -1.59594 0
M  V30 1090 C 106.561 1.49186 -1.35447 0
M  V30 1091 O 105.617 2.24987 -1.14616 0
M  V30 1092 C 106.93 -0.41773 -2.97784 0
M  V30 1093 C 108.478 -0.369633 -3.1081 0
M  V30 1094 C 108.953 -0.776524 -4.51369 0
M  V30 1095 N 110.444 -0.730506 -4.57403 0
M  V30 1096 C 111.179 -1.01736 -5.64303 0
M  V30 1097 N 110.675 -1.3721 -6.79077 0
M  V30 1098 N 112.468 -0.941942 -5.54151 0
M  V30 1099 H 104.619 -1.3012 -1.67876 0
M  V30 1100 H 106.882 -0.530082 -0.78595 0
M  V30 1101 H 106.588 -1.44811 -3.20504 0
M  V30 1102 H 106.462 0.209729 -3.76616 0
M  V30 1103 H 108.849 0.651568 -2.87817 0
M  V30 1104 H 108.93 -1.03223 -2.34049 0
M  V30 1105 H 108.574 -1.79571 -4.75096 0
M  V30 1106 H 108.504 -0.0914649 -5.26521 0
M  V30 1107 H 110.995 -0.468783 -3.74981 0
M  V30 1108 H 111.308 -1.57597 -7.5656 0
M  V30 1109 H 109.653 -1.4105 -6.80536 0
M  V30 1110 H 112.844 -0.664184 -4.63364 0
M  V30 1111 H 113.017 -1.16884 -6.37371 0
M  V30 1112 N 106.423 1.57458 -0.0668435 0
M  V30 1113 C 107.7 1.8469 0.644132 0
M  V30 1114 C 108.08 0.958343 1.88093 0
M  V30 1115 O 107.428 0.0233579 2.28488 0
M  V30 1116 C 107.638 3.34767 0.986509 0
M  V30 1117 C 108.986 4.02159 1.36212 0
M  V30 1118 O 110.01 3.39484 1.07839 0
M  V30 1119 O 108.869 5.12694 1.89227 0
M  V30 1120 H 105.963 0.762816 0.319437 0
M  V30 1121 H 108.509 1.6942 -0.0973986 0
M  V30 1122 H 107.281 3.91151 0.107883 0
M  V30 1123 H 106.904 3.55281 1.78497 0
M  V30 1124 N 107.901 -0.206675 1.56239 0
M  V30 1125 C 109.148 -0.928842 1.79941 0
M  V30 1126 C 109.476 -1.83734 0.638131 0
M  V30 1127 O 108.731 -1.92039 -0.376746 0
M  V30 1128 C 109.03 -1.78675 3.09532 0
M  V30 1129 C 108.696 -1.03022 4.38973 0
M  V30 1130 C 107.358 -0.821302 4.74139 0
M  V30 1131 C 109.71 -0.497081 5.18824 0
M  V30 1132 C 107.038 -0.0675719 5.86661 0
M  V30 1133 C 109.39 0.24338 6.32132 0
M  V30 1134 C 108.054 0.463422 6.65889 0
M  V30 1135 H 107.324 -0.339887 0.658451 0
M  V30 1136 H 109.971 -0.195977 1.90495 0
M  V30 1137 H 108.276 -2.58794 2.94165 0
M  V30 1138 H 109.973 -2.34792 3.25075 0
M  V30 1139 H 106.563 -1.20306 4.11369 0
M  V30 1140 H 110.747 -0.645921 4.92079 0
M  V30 1141 H 106.003 0.112995 6.11296 0
M  V30 1142 H 110.177 0.66393 6.93228 0
M  V30 1143 H 107.804 1.04938 7.52922 0
M  V30 1144 N 109.379 -1.50304 -0.473955 0
M  V30 1145 C 110.626 -1.6115 -1.22625 0
M  V30 1146 C 110.954 -0.310517 -1.92005 0
M  V30 1147 O 110.209 0.703419 -1.82621 0
M  V30 1148 C 110.508 -2.73938 -2.29549 0
M  V30 1149 C 110.174 -4.14519 -1.7744 0
M  V30 1150 C 108.836 -4.5277 -1.62949 0
M  V30 1151 C 111.188 -5.02392 -1.3875 0
M  V30 1152 C 108.516 -5.76639 -1.08187 0
M  V30 1153 C 110.868 -6.26805 -0.854309 0
M  V30 1154 C 109.532 -6.63861 -0.696011 0
M  V30 1155 H 108.802 -0.589691 -0.448715 0
M  V30 1156 H 111.449 -1.84228 -0.522705 0
M  V30 1157 H 109.754 -2.44937 -3.05799 0
M  V30 1158 H 111.451 -2.79534 -2.87509 0
M  V30 1159 H 108.041 -3.8434 -1.89685 0
M  V30 1160 H 112.225 -4.73474 -1.4878 0
M  V30 1161 H 107.481 -6.04027 -0.946666 0
M  V30 1162 H 111.655 -6.94258 -0.545843 0
M  V30 1163 H 109.282 -7.59722 -0.26952 0
M  V30 1164 N 110.857 0.726932 -1.39834 0
M  V30 1165 C 112.087 1.51393 -1.40583 0
M  V30 1166 C 112.495 1.892 -0.000740625 0
M  V30 1167 O 111.838 1.55189 0.982951 0
M  V30 1168 C 111.9 2.82588 -2.22226 0
M  V30 1169 C 111.564 2.67169 -3.70769 0
M  V30 1170 C 112.561 2.3518 -4.63666 0
M  V30 1171 C 110.246 2.83788 -4.14451 0
M  V30 1172 C 112.24 2.20002 -5.98229 0
M  V30 1173 C 109.927 2.68229 -5.49087 0
M  V30 1174 C 110.925 2.36382 -6.4079 0
M  V30 1175 O 110.613 2.2093 -7.72946 0
M  V30 1176 H 110.345 0.474168 -0.48181 0
M  V30 1177 H 112.899 0.905247 -1.84376 0
M  V30 1178 H 111.129 3.45746 -1.73195 0
M  V30 1179 H 112.818 3.44247 -2.15055 0
M  V30 1180 H 113.584 2.21984 -4.31217 0
M  V30 1181 H 109.463 3.07566 -3.43401 0
M  V30 1182 H 113.007 1.95067 -6.69772 0
M  V30 1183 H 108.904 2.81006 -5.81125 0
M  V30 1184 H 109.672 2.35937 -7.83757 0
M  V30 1185 N 112.336 1.25143 0.95797 0
M  V30 1186 C 113.286 1.01924 2.0395 0
M  V30 1187 C 114.27 -0.0427175 1.60843 0
M  V30 1188 O 115.462 0.17221 1.7616 0
M  V30 1189 C 112.591 0.636373 3.3735 0
M  V30 1190 C 111.677 1.73492 3.8699 0
M  V30 1191 N 112.068 2.96945 4.0946 0
M  V30 1192 C 110.366 1.61467 4.15746 0
M  V30 1193 C 111.067 3.68228 4.50315 0
M  V30 1194 N 110.043 2.95833 4.56053 0
M  V30 1195 H 113.845 1.95653 2.19311 0
M  V30 1196 H 111.359 1.15413 1.14253 0
M  V30 1197 H 113.356 0.451233 4.14451 0
M  V30 1198 H 112.016 -0.293621 3.2337 0
M  V30 1199 H 113.027 3.33025 3.96629 0
M  V30 1200 H 109.704 0.753394 4.10646 0
M  V30 1201 H 111.094 4.74178 4.76031 0
M  V30 1202 N 113.814 -1.1601 1.06675 0
M  V30 1203 C 115.225 -1.68235 0.809565 0
M  V30 1204 C 115.576 -1.8454 -0.666303 0
M  V30 1205 O 114.701 -1.54374 -1.5165 0
M  V30 1206 C 115.296 -3.05585 1.46299 0
M  V30 1207 C 113.855 -3.54915 1.25349 0
M  V30 1208 C 113.002 -2.30804 1.53703 0
M  V30 1209 H 115.953 -1.00318 1.22971 0
M  V30 1210 H 115.974 -3.70174 0.880431 0
M  V30 1211 H 115.486 -2.93686 2.53713 0
M  V30 1212 H 113.587 -3.72067 0.199261 0
M  V30 1213 H 113.7 -4.36774 1.9689 0
M  V30 1214 H 112.064 -2.36007 0.957739 0
M  V30 1215 H 112.847 -2.21499 2.62284 0
M  V30 1216 N 115.292 -0.849877 -1.32721 0
M  V30 1217 C 116.202 -0.293791 -2.32753 0
M  V30 1218 C 117.218 0.585906 -1.63839 0
M  V30 1219 O 118.394 0.487413 -1.95413 0
M  V30 1220 C 115.459 0.512752 -3.42887 0
M  V30 1221 C 114.52 -0.39252 -4.27502 0
M  V30 1222 C 113.753 0.375625 -5.32377 0
M  V30 1223 O 113.976 1.60613 -5.4732 0
M  V30 1224 O 112.91 -0.256094 -6.01355 0
M  V30 1225 H 116.736 -1.12242 -2.82197 0
M  V30 1226 H 114.321 -0.612685 -1.36259 0
M  V30 1227 H 116.203 0.970704 -4.10067 0
M  V30 1228 H 114.878 1.31826 -2.95641 0
M  V30 1229 H 113.785 -0.898547 -3.63149 0
M  V30 1230 H 115.118 -1.16309 -4.7826 0
M  V30 1231 N 116.77 1.45427 -0.607355 0
M  V30 1232 C 117.998 2.06614 -0.108814 0
M  V30 1233 C 118.413 1.45204 1.2067 0
M  V30 1234 O 117.77 0.566132 1.73497 0
M  V30 1235 C 117.821 3.61481 0.0375347 0
M  V30 1236 O 117.542 4.20598 -1.22593 0
M  V30 1237 C 119.043 4.39652 0.567561 0
M  V30 1238 H 116.263 0.66747 -0.0687351 0
M  V30 1239 H 118.807 1.86675 -0.835022 0
M  V30 1240 H 116.962 3.80762 0.714068 0
M  V30 1241 H 117.376 5.1377 -1.05547 0
M  V30 1242 H 118.85 5.48518 0.61905 0
M  V30 1243 H 119.327 4.09417 1.58978 0
M  V30 1244 H 119.933 4.25234 -0.0749202 0
M  V30 1245 N 118.248 0.346503 1.53744 0
M  V30 1246 C 119.18 -0.543316 2.22667 0
M  V30 1247 C 120.193 -1.06159 1.23427 0
M  V30 1248 O 121.382 -0.971235 1.49764 0
M  V30 1249 C 118.482 -1.76076 2.89569 0
M  V30 1250 C 117.655 -1.37727 4.15151 0
M  V30 1251 C 116.714 -2.45471 4.65436 0
M  V30 1252 O 115.74 -2.08655 5.29577 0
M  V30 1253 N 116.942 -3.7677 4.41616 0
M  V30 1254 H 119.707 0.0469703 2.99663 0
M  V30 1255 H 117.268 0.170766 1.60997 0
M  V30 1256 H 119.26 -2.47593 3.20125 0
M  V30 1257 H 117.83 -2.25835 2.16142 0
M  V30 1258 H 117.05 -0.492746 3.91108 0
M  V30 1259 H 118.338 -1.09708 4.96832 0
M  V30 1260 H 117.736 -4.09467 3.90325 0
M  V30 1261 H 116.293 -4.44448 4.7677 0
M  V30 1262 N 119.726 -1.57421 0.075193 0
M  V30 1263 C 120.658 -2.09904 -0.920483 0
M  V30 1264 C 121.671 -1.03191 -1.25918 0
M  V30 1265 O 122.86 -1.30695 -1.21577 0
M  V30 1266 C 119.96 -2.54726 -2.23534 0
M  V30 1267 C 119.133 -3.8505 -2.07498 0
M  V30 1268 C 118.192 -4.15929 -3.22319 0
M  V30 1269 O 117.218 -4.85474 -2.9716 0
M  V30 1270 N 118.42 -3.69745 -4.47514 0
M  V30 1271 H 121.185 -2.95954 -0.472359 0
M  V30 1272 H 118.746 -1.61523 -0.110444 0
M  V30 1273 H 120.738 -2.72443 -2.9926 0
M  V30 1274 H 119.308 -1.73795 -2.59835 0
M  V30 1275 H 118.528 -3.76679 -1.16219 0
M  V30 1276 H 119.816 -4.70348 -1.94038 0
M  V30 1277 H 119.214 -3.13569 -4.7084 0
M  V30 1278 H 117.771 -3.92655 -5.20255 0
M  V30 1279 N 121.204 0.198386 -1.56346 0
M  V30 1280 C 122.434 0.934215 -1.84271 0
M  V30 1281 C 122.842 1.77496 -0.655125 0
M  V30 1282 O 122.185 1.7961 0.385488 0
M  V30 1283 C 122.247 1.88278 -3.06254 0
M  V30 1284 C 121.911 1.22431 -4.40295 0
M  V30 1285 C 122.908 0.602839 -5.16393 0
M  V30 1286 C 120.593 1.22915 -4.87029 0
M  V30 1287 C 122.587 -0.0050083 -6.374 0
M  V30 1288 C 120.274 0.617465 -6.07973 0
M  V30 1289 C 121.272 0.00146341 -6.83 0
M  V30 1290 O 120.96 -0.600642 -8.01653 0
M  V30 1291 H 120.692 0.278245 -0.616081 0
M  V30 1292 H 123.246 0.211626 -2.04307 0
M  V30 1293 H 121.476 2.64498 -2.82095 0
M  V30 1294 H 123.165 2.48612 -3.20853 0
M  V30 1295 H 123.931 0.591265 -4.81382 0
M  V30 1296 H 119.81 1.69801 -4.28589 0
M  V30 1297 H 123.354 -0.48643 -6.95902 0
M  V30 1298 H 119.251 0.62653 -6.42452 0
M  V30 1299 H 120.019 -0.497225 -8.16988 0
M  V30 1300 N 122.682 1.50554 0.465978 0
M  V30 1301 C 123.929 1.61798 1.21768 0
M  V30 1302 C 124.257 0.320696 1.91838 0
M  V30 1303 O 123.512 -0.693724 1.82992 0
M  V30 1304 C 123.811 2.75152 2.28093 0
M  V30 1305 C 123.477 4.15454 1.75239 0
M  V30 1306 C 122.139 4.53628 1.60546 0
M  V30 1307 C 124.491 5.03121 1.36083 0
M  V30 1308 C 121.819 5.77204 1.05128 0
M  V30 1309 C 124.171 6.27249 0.821056 0
M  V30 1310 C 122.835 6.64221 0.660795 0
M  V30 1311 H 122.105 0.592063 0.445582 0
M  V30 1312 H 124.752 1.84503 0.512927 0
M  V30 1313 H 123.057 2.46556 3.04496 0
M  V30 1314 H 124.754 2.81055 2.86023 0
M  V30 1315 H 121.344 3.85341 1.87644 0
M  V30 1316 H 125.528 4.74257 1.46267 0
M  V30 1317 H 120.784 6.0452 0.91462 0
M  V30 1318 H 124.958 6.94537 0.509018 0
M  V30 1319 H 122.585 7.59854 0.229226 0
M  V30 1320 N 124.16 -0.719506 1.40217 0
M  V30 1321 C 125.407 -1.47933 1.38283 0
M  V30 1322 C 125.735 -1.94493 -0.0161536 0
M  V30 1323 O 124.99 -1.68224 -0.999956 0
M  V30 1324 C 125.289 -2.72271 2.31524 0
M  V30 1325 C 124.955 -2.44496 3.78857 0
M  V30 1326 C 123.617 -2.36631 4.18998 0
M  V30 1327 C 125.969 -2.21104 4.71977 0
M  V30 1328 C 123.297 -2.03437 5.503 0
M  V30 1329 C 125.649 -1.89423 6.03574 0
M  V30 1330 C 124.313 -1.80038 6.42762 0
M  V30 1331 H 123.583 -0.541325 0.506012 0
M  V30 1332 H 126.23 -0.824502 1.72842 0
M  V30 1333 H 124.535 -3.42572 1.90137 0
M  V30 1334 H 126.232 -3.30348 2.27313 0
M  V30 1335 H 122.822 -2.51503 3.47051 0
M  V30 1336 H 127.006 -2.26139 4.41786 0
M  V30 1337 H 122.262 -1.94705 5.79569 0
M  V30 1338 H 126.436 -1.70336 6.75247 0
M  V30 1339 H 124.063 -1.54083 7.44421 0
M  V30 1340 N 125.638 -1.25649 -0.95132 0
M  V30 1341 C 126.915 -1.01361 -1.67288 0
M  V30 1342 C 127.295 0.459135 -2.06046 0
M  V30 1343 O 126.643 1.43723 -1.7764 0
M  V30 1344 C 126.853 -1.95256 -2.89268 0
M  V30 1345 C 128.201 -2.23289 -3.61147 0
M  V30 1346 O 129.225 -1.93041 -2.99355 0
M  V30 1347 O 128.084 -2.74741 -4.72419 0
M  V30 1348 H 125.178 -0.38464 -0.732107 0
M  V30 1349 H 127.724 -1.36817 -1.00395 0
M  V30 1350 H 126.496 -2.94685 -2.57442 0
M  V30 1351 H 126.119 -1.60218 -3.6389 0
M  V30 1352 N 127.117 1.15442 -1.07289 0
M  V30 1353 C 128.533 1.38201 -0.798288 0
M  V30 1354 C 128.733 1.92429 0.597769 0
M  V30 1355 O 127.789 2.12962 1.3566 0
M  V30 1356 C 129.102 2.35357 -1.87156 0
M  V30 1357 C 130.65 2.49021 -1.89624 0
M  V30 1358 C 131.125 3.49468 -2.96034 0
M  V30 1359 N 132.616 3.57003 -2.95132 0
M  V30 1360 C 133.351 4.34543 -3.74112 0
M  V30 1361 N 132.847 5.15421 -4.6294 0
M  V30 1362 N 134.64 4.29625 -3.62462 0
M  V30 1363 H 126.791 0.78584 -1.97328 0
M  V30 1364 H 129.054 0.408065 -0.855679 0
M  V30 1365 H 128.76 2.02626 -2.87464 0
M  V30 1366 H 128.634 3.35129 -1.73114 0
M  V30 1367 H 131.021 2.81051 -0.899687 0
M  V30 1368 H 131.102 1.4925 -2.07745 0
M  V30 1369 H 130.746 3.18173 -3.95889 0
M  V30 1370 H 130.676 4.48992 -2.75161 0
M  V30 1371 H 133.167 2.99276 -2.30743 0
M  V30 1372 H 133.48 5.7183 -5.19837 0
M  V30 1373 H 131.825 5.14729 -4.66989 0
M  V30 1374 H 135.016 3.65505 -2.92444 0
M  V30 1375 H 135.189 4.89807 -4.24256 0
M  V30 1376 N 128.595 0.856903 1.32268 0
M  V30 1377 C 129.872 0.382583 1.91822 0
M  V30 1378 C 130.252 -1.13407 1.78051 0
M  V30 1379 O 129.6 -1.95673 1.18001 0
M  V30 1380 C 129.81 0.849446 3.38505 0
M  V30 1381 C 131.158 0.867936 4.15634 0
M  V30 1382 O 132.182 0.794232 3.47232 0
M  V30 1383 O 131.041 0.972286 5.37781 0
M  V30 1384 H 128.135 0.112014 0.819379 0
M  V30 1385 H 130.681 0.943952 1.41024 0
M  V30 1386 H 129.453 1.89267 3.42482 0
M  V30 1387 H 129.076 0.265652 3.96712 0
M  V30 1388 N 130.073 -1.45103 0.615059 0
M  V30 1389 C 131.484 -1.85654 0.197383 0
M  V30 1390 C 131.835 -1.51433 -1.24749 0
M  V30 1391 O 130.96 -0.944608 -1.94695 0
M  V30 1392 C 131.555 -3.36972 0.351448 0
M  V30 1393 C 130.114 -3.76398 -0.011593 0
M  V30 1394 C 129.261 -2.69024 0.672394 0
M  V30 1395 H 132.212 -1.35797 0.821263 0
M  V30 1396 H 132.233 -3.78239 -0.414227 0
M  V30 1397 H 131.745 -3.61847 1.40314 0
M  V30 1398 H 129.846 -3.5714 -1.06217 0
M  V30 1399 H 129.959 -4.77532 0.387265 0
M  V30 1400 H 128.323 -2.54465 0.109284 0
M  V30 1401 H 129.106 -2.96735 1.72636 0
M  V30 1402 N 131.551 -0.354651 -1.53558 0
M  V30 1403 C 132.828 0.294281 -1.93374 0
M  V30 1404 C 133.208 1.67313 -1.28723 0
M  V30 1405 O 132.556 2.24179 -0.442247 0
M  V30 1406 C 132.766 0.355445 -3.47185 0
M  V30 1407 C 134.114 0.601007 -4.20325 0
M  V30 1408 O 135.138 0.437106 -3.53508 0
M  V30 1409 O 133.997 0.919322 -5.38712 0
M  V30 1410 H 131.091 0.174033 -0.808481 0
M  V30 1411 H 133.637 -0.406638 -1.64756 0
M  V30 1412 H 132.409 -0.611729 -3.86489 0
M  V30 1413 H 132.032 1.1027 -3.82003 0
M  V30 1414 N 133.029 1.57378 -0.0835403 0
M  V30 1415 C 134.278 1.93106 0.582498 0
M  V30 1416 C 134.591 0.96651 1.70053 0
M  V30 1417 O 135.797 1.21705 2.42693 0
M  V30 1418 C 134.253 3.43076 1.08751 0
M  V30 1419 C 133.861 4.48 -0.000146404 0
M  V30 1420 C 135.605 3.87785 1.72694 0
M  V30 1421 C 133.512 5.89113 0.519568 0
M  V30 1422 H 132.442 0.720775 0.221358 0
M  V30 1423 H 135.093 1.82821 -0.157675 0
M  V30 1424 H 133.475 3.48474 1.88101 0
M  V30 1425 H 134.649 4.54233 -0.775199 0
M  V30 1426 H 132.964 4.1283 -0.54406 0
M  V30 1427 H 135.561 4.90604 2.1263 0
M  V30 1428 H 135.904 3.25796 2.59158 0
M  V30 1429 H 136.437 3.8504 0.999457 0
M  V30 1430 H 133.176 6.54775 -0.308186 0
M  V30 1431 H 132.696 5.86376 1.26188 0
M  V30 1432 H 134.375 6.39346 0.992237 0
M  V30 1433 N 134.507 -0.190092 1.56449 0
M  V30 1434 C 135.754 -0.909705 1.80916 0
M  V30 1435 C 136.082 -1.83047 0.657583 0
M  V30 1436 O 135.337 -1.92428 -0.356356 0
M  V30 1437 C 135.636 -1.75382 3.1141 0
M  V30 1438 C 135.302 -0.983606 4.40041 0
M  V30 1439 C 133.964 -0.770967 4.74984 0
M  V30 1440 C 136.316 -0.442024 5.19322 0
M  V30 1441 C 133.644 -0.0053448 5.867 0
M  V30 1442 C 135.996 0.310412 6.31838 0
M  V30 1443 C 134.66 0.534023 6.6536 0
M  V30 1444 H 133.93 -0.332885 0.662019 0
M  V30 1445 H 136.577 -0.175762 1.90692 0
M  V30 1446 H 134.882 -2.55659 2.96893 0
M  V30 1447 H 136.579 -2.31331 3.27547 0
M  V30 1448 H 133.169 -1.15936 4.12622 0
M  V30 1449 H 137.353 -0.593693 4.92736 0
M  V30 1450 H 132.609 0.177825 6.11141 0
M  V30 1451 H 136.783 0.737419 6.92485 0
M  V30 1452 H 134.41 1.12918 7.51767 0
M  V30 1453 N 135.985 -1.50799 -0.457987 0
M  V30 1454 C 137.401 -1.38515 -0.792819 0
M  V30 1455 C 137.601 -0.451409 -1.96379 0
M  V30 1456 O 136.657 0.10112 -2.52297 0
M  V30 1457 C 137.97 -2.80149 -1.09258 0
M  V30 1458 C 139.518 -2.89156 -1.19825 0
M  V30 1459 C 139.993 -4.31651 -1.53106 0
M  V30 1460 N 141.484 -4.34662 -1.60072 0
M  V30 1461 C 142.219 -5.41928 -1.87354 0
M  V30 1462 N 141.715 -6.59384 -2.12568 0
M  V30 1463 N 143.508 -5.29385 -1.88965 0
M  V30 1464 H 135.659 -2.10073 0.313511 0
M  V30 1465 H 137.922 -0.944803 0.0777862 0
M  V30 1466 H 137.628 -3.50374 -0.305084 0
M  V30 1467 H 137.502 -3.18204 -2.02549 0
M  V30 1468 H 139.889 -2.19141 -1.97639 0
M  V30 1469 H 139.97 -2.54626 -0.244821 0
M  V30 1470 H 139.614 -5.02208 -0.758266 0
M  V30 1471 H 139.544 -4.63678 -2.49621 0
M  V30 1472 H 142.035 -3.49973 -1.42573 0
M  V30 1473 H 142.348 -7.36934 -2.32696 0
M  V30 1474 H 140.693 -6.62535 -2.09933 0
M  V30 1475 H 143.884 -4.36616 -1.68772 0
M  V30 1476 H 144.057 -6.13066 -2.09891 0
M  V30 1477 N 137.463 0.71206 -1.40597 0
M  V30 1478 C 138.413 1.81783 -1.37619 0
M  V30 1479 C 139.397 1.58896 -0.253162 0
M  V30 1480 O 140.589 1.70009 -0.492547 0
M  V30 1481 C 137.718 3.19944 -1.24462 0
M  V30 1482 C 136.804 3.48582 -2.4156 0
M  V30 1483 N 137.195 3.48016 -3.67041 0
M  V30 1484 C 135.493 3.79056 -2.35016 0
M  V30 1485 C 136.194 3.75096 -4.44609 0
M  V30 1486 N 135.17 3.94022 -3.74497 0
M  V30 1487 H 138.972 1.79683 -2.32575 0
M  V30 1488 H 136.486 0.91134 -1.34419 0
M  V30 1489 H 138.483 3.99133 -1.20411 0
M  V30 1490 H 137.143 3.23267 -0.304762 0
M  V30 1491 H 138.154 3.28782 -4.00153 0
M  V30 1492 H 134.831 3.89848 -1.49415 0
M  V30 1493 H 136.221 3.80934 -5.53479 0
M  V30 1494 N 138.941 1.26152 0.944643 0
M  V30 1495 C 140.19 1.10883 1.68487 0
M  V30 1496 C 140.503 -0.348153 1.92477 0
M  V30 1497 O 141.709 -0.621459 2.64292 0
M  V30 1498 C 140.165 1.93624 3.03377 0
M  V30 1499 C 139.773 3.43875 2.87148 0
M  V30 1500 C 141.517 1.86954 3.81115 0
M  V30 1501 C 139.424 4.18875 4.1749 0
M  V30 1502 H 138.354 0.41135 0.631907 0
M  V30 1503 H 141.005 1.50433 1.05082 0
M  V30 1504 H 139.387 1.46904 3.67743 0
M  V30 1505 H 140.561 3.98338 2.31653 0
M  V30 1506 H 138.876 3.51744 2.22856 0
M  V30 1507 H 141.473 2.40275 4.77673 0
M  V30 1508 H 141.816 0.839518 4.07747 0
M  V30 1509 H 142.349 2.31477 3.23517 0
M  V30 1510 H 139.088 5.22332 3.96043 0
M  V30 1511 H 138.608 3.69193 4.72712 0
M  V30 1512 H 140.287 4.27134 4.85968 0
M  V30 1513 N 140.419 -1.14872 1.07899 0
M  V30 1514 C 141.349 -2.2193 0.725887 0
M  V30 1515 C 142.33 -1.67622 -0.28927 0
M  V30 1516 O 143.515 -1.93533 -0.160787 0
M  V30 1517 C 140.645 -3.47061 0.128856 0
M  V30 1518 C 139.599 -4.14363 1.07178 0
M  V30 1519 C 138.925 -5.33636 0.337229 0
M  V30 1520 C 140.225 -4.63492 2.40775 0
M  V30 1521 H 141.919 -2.51724 1.62097 0
M  V30 1522 H 139.465 -1.20991 0.780838 0
M  V30 1523 H 141.418 -4.21199 -0.130147 0
M  V30 1524 H 140.142 -3.16617 -0.80134 0
M  V30 1525 H 138.801 -3.42173 1.3158 0
M  V30 1526 H 138.449 -4.99449 -0.596606 0
M  V30 1527 H 138.149 -5.79609 0.965788 0
M  V30 1528 H 139.673 -6.10539 0.0861567 0
M  V30 1529 H 141.087 -5.2913 2.20669 0
M  V30 1530 H 139.484 -5.20148 2.99276 0
M  V30 1531 H 140.554 -3.78834 3.02676 0
M  V30 1532 N 141.898 -0.863906 -1.31812 0
M  V30 1533 C 142.846 -0.30422 -2.30602 0
M  V30 1534 C 143.84 0.577419 -1.59255 0
M  V30 1535 O 145.046 0.464194 -1.73912 0
M  V30 1536 H 141.421 -0.0796877 -0.747766 0
M  V30 1537 H 143.392 -1.15148 -2.75288 0
M  V30 1538 C 142.141 0.484617 -3.44306 0
M  V30 1539 H 141.464 -0.18451 -3.99374 0
M  V30 1540 H 142.904 0.841664 -4.15562 0
M  V30 1541 C 141.363 1.6735 -2.92396 0
M  V30 1542 O 141.893 2.77273 -2.90659 0
M  V30 1543 N 140.099 1.50362 -2.48676 0
M  V30 1544 H 139.646 0.609402 -2.50288 0
M  V30 1545 H 139.604 2.30051 -2.14299 0
M  V30 1546 N 143.376 1.44774 -0.622745 0
M  V30 1547 C 144.623 2.02121 -0.1239 0
M  V30 1548 C 144.951 1.48915 1.25118 0
M  V30 1549 O 144.206 0.660045 1.84233 0
M  V30 1550 C 144.505 3.57364 -0.0508323 0
M  V30 1551 C 144.171 4.29787 -1.36358 0
M  V30 1552 C 142.833 4.4929 -1.72314 0
M  V30 1553 C 145.185 4.71062 -2.23048 0
M  V30 1554 C 142.513 5.07325 -2.94682 0
M  V30 1555 C 144.865 5.30452 -3.44679 0
M  V30 1556 C 143.529 5.48175 -3.80868 0
M  V30 1557 H 142.799 0.739612 -0.0453381 0
M  V30 1558 H 145.446 1.73648 -0.807389 0
M  V30 1559 H 143.751 3.85202 0.715991 0
M  V30 1560 H 145.448 3.99456 0.351533 0
M  V30 1561 H 142.038 4.14932 -1.07375 0
M  V30 1562 H 146.222 4.55715 -1.96565 0
M  V30 1563 H 141.478 5.19235 -3.22809 0
M  V30 1564 H 145.652 5.61385 -4.12092 0
M  V30 1565 H 143.279 5.92912 -4.75773 0
M  V30 1566 N 144.854 0.36279 1.53368 0
M  V30 1567 C 146.084 -0.228281 2.05335 0
M  V30 1568 C 146.492 -1.43226 1.23625 0
M  V30 1569 O 145.835 -1.81717 0.269206 0
M  V30 1570 C 145.897 -0.688549 3.52845 0
M  V30 1571 C 145.561 0.398362 4.5526 0
M  V30 1572 C 146.558 1.24732 5.04716 0
M  V30 1573 C 144.243 0.557805 4.99193 0
M  V30 1574 C 146.237 2.2411 5.96702 0
M  V30 1575 C 143.924 1.55495 5.90986 0
M  V30 1576 C 144.922 2.39503 6.39631 0
M  V30 1577 O 144.61 3.37517 7.29615 0
M  V30 1578 H 144.342 -0.044395 0.674541 0
M  V30 1579 H 146.896 0.518668 1.98744 0
M  V30 1580 H 145.126 -1.48706 3.56964 0
M  V30 1581 H 146.815 -1.20231 3.87685 0
M  V30 1582 H 147.581 1.13532 4.71525 0
M  V30 1583 H 143.46 -0.0862959 4.60919 0
M  V30 1584 H 147.004 2.89718 6.34594 0
M  V30 1585 H 142.901 1.66744 6.23592 0
M  V30 1586 H 143.669 3.33213 7.47604 0
M  V30 1587 N 146.332 -1.57332 0.0918853 0
M  V30 1588 C 147.748 -1.57389 -0.264766 0
M  V30 1589 C 147.948 -1.10281 -1.68643 0
M  V30 1590 O 147.004 -0.777801 -2.40222 0
M  V30 1591 C 148.317 -3.00648 -0.0561195 0
M  V30 1592 C 149.865 -3.12754 -0.124116 0
M  V30 1593 C 150.34 -4.57965 0.0564972 0
M  V30 1594 N 151.831 -4.632 0.00155611 0
M  V30 1595 C 152.566 -5.73281 0.116598 0
M  V30 1596 N 152.062 -6.92208 0.286294 0
M  V30 1597 N 153.855 -5.6207 0.0580973 0
M  V30 1598 H 146.006 -1.86262 1.02079 0
M  V30 1599 H 148.269 -0.859579 0.399786 0
M  V30 1600 H 147.975 -3.393 0.925669 0
M  V30 1601 H 147.849 -3.68623 -0.799823 0
M  V30 1602 H 150.236 -2.73976 -1.09641 0
M  V30 1603 H 150.317 -2.47377 0.651024 0
M  V30 1604 H 149.961 -4.97436 1.02564 0
M  V30 1605 H 149.891 -5.21399 -0.738297 0
M  V30 1606 H 152.382 -3.77686 -0.127192 0
M  V30 1607 H 152.695 -7.71934 0.365676 0
M  V30 1608 H 151.04 -6.94254 0.32192 0
M  V30 1609 H 154.231 -4.68043 -0.0733204 0
M  V30 1610 H 154.404 -6.47824 0.151203 0
M  V30 1611 N 147.81 0.181792 -1.56548 0
M  V30 1612 C 149.038 0.915947 -1.85521 0
M  V30 1613 C 149.453 1.76282 -0.676016 0
M  V30 1614 O 148.81 1.79012 0.355077 0
M  V30 1615 C 148.861 1.80126 -3.13427 0
M  V30 1616 O 148.582 0.988562 -4.26801 0
M  V30 1617 C 150.083 2.64597 -3.55673 0
M  V30 1618 H 147.303 0.26661 -0.61576 0
M  V30 1619 H 149.847 0.185039 -2.03661 0
M  V30 1620 H 148.002 2.48563 -2.97145 0
M  V30 1621 H 148.416 1.59308 -4.99721 0
M  V30 1622 H 149.89 3.2235 -4.48101 0
M  V30 1623 H 150.367 3.38958 -2.79292 0
M  V30 1624 H 150.973 2.0151 -3.74532 0
M  V30 1625 N 149.288 1.51039 0.449983 0
M  V30 1626 C 150.536 1.62759 1.19808 0
M  V30 1627 C 150.857 0.339981 1.92013 0
M  V30 1628 O 150.127 -0.643606 1.85026 0
M  V30 1629 H 148.707 0.599811 0.445237 0
M  V30 1630 H 151.369 1.87914 0.517138 0
M  V30 1631 H 150.465 2.44911 1.93455 0
M  V30 1632 N 150.766 -0.704594 1.40972 0
M  V30 1633 C 151.713 -1.81862 1.42109 0
M  V30 1634 C 152.683 -1.63781 0.276593 0
M  V30 1635 O 153.868 -1.84759 0.4763 0
M  V30 1636 C 151.008 -3.19669 1.30022 0
M  V30 1637 C 150.121 -3.49246 2.54267 0
M  V30 1638 C 149.256 -4.76618 2.3454 0
M  V30 1639 C 148.295 -4.99133 3.54306 0
M  V30 1640 N 147.432 -6.17726 3.33706 0
M  V30 1641 H 152.272 -1.80226 2.37324 0
M  V30 1642 H 149.809 -0.880238 1.17857 0
M  V30 1643 H 151.767 -3.99263 1.21018 0
M  V30 1644 H 150.397 -3.20506 0.384192 0
M  V30 1645 H 149.449 -2.64125 2.73756 0
M  V30 1646 H 150.761 -3.61788 3.43381 0
M  V30 1647 H 149.915 -5.64249 2.22952 0
M  V30 1648 H 148.654 -4.66305 1.42867 0
M  V30 1649 H 147.659 -4.09953 3.66359 0
M  V30 1650 H 148.884 -5.11311 4.4692 0
M  V30 1651 H 146.83 -6.08642 2.44725 0
M  V30 1652 H 146.747 -6.30995 4.16391 0
M  V30 1653 H 148.015 -7.08115 3.25873 0
M  V30 1654 N 152.244 -1.26651 -0.937939 0
M  V30 1655 C 153.174 -1.10993 -2.05433 0
M  V30 1656 C 154.155 -0.0142161 -1.70094 0
M  V30 1657 O 155.34 -0.186837 -1.93299 0
M  V30 1658 C 152.47 -0.745561 -3.39203 0
M  V30 1659 C 151.424 -1.79337 -3.88616 0
M  V30 1660 C 150.75 -1.28324 -5.19073 0
M  V30 1661 C 152.05 -3.19553 -4.13138 0
M  V30 1662 H 153.744 -2.0438 -2.1879 0
M  V30 1663 H 151.29 -0.984041 -1.05131 0
M  V30 1664 H 153.243 -0.622888 -4.16771 0
M  V30 1665 H 151.967 0.22401 -3.25831 0
M  V30 1666 H 150.626 -1.90477 -3.13231 0
M  V30 1667 H 150.274 -0.303414 -5.02084 0
M  V30 1668 H 149.974 -1.98369 -5.53103 0
M  V30 1669 H 151.498 -1.1733 -5.99221 0
M  V30 1670 H 152.912 -3.11471 -4.81309 0
M  V30 1671 H 151.309 -3.87218 -4.58457 0
M  V30 1672 H 152.379 -3.65368 -3.18801 0
M  V30 1673 N 153.722 1.14298 -1.08507 0
M  V30 1674 C 154.672 2.17449 -0.685569 0
M  V30 1675 C 155.656 1.58167 0.295315 0
M  V30 1676 O 156.848 1.76675 0.107172 0
M  V30 1677 C 153.977 3.43161 -0.0975318 0
M  V30 1678 C 153.063 4.09471 -1.10426 0
M  V30 1679 N 153.454 4.51089 -2.28806 0
M  V30 1680 C 151.752 4.35976 -0.940258 0
M  V30 1681 C 152.453 5.02654 -2.9277 0
M  V30 1682 N 151.429 4.96927 -2.20374 0
M  V30 1683 H 155.231 2.47369 -1.587 0
M  V30 1684 H 152.745 1.30992 -0.959936 0
M  V30 1685 H 154.742 4.16388 0.20664 0
M  V30 1686 H 153.402 3.14719 0.798872 0
M  V30 1687 H 154.413 4.44097 -2.66455 0
M  V30 1688 H 151.09 4.17386 -0.0977441 0
M  V30 1689 H 152.48 5.44723 -3.93352 0
M  V30 1690 N 155.201 0.870884 1.31352 0
M  V30 1691 C 156.431 0.496049 2.00557 0
M  V30 1692 C 156.839 -0.916241 1.65534 0
M  V30 1693 O 156.182 -1.61188 0.881134 0
M  V30 1694 C 156.244 0.574418 3.54881 0
M  V30 1695 C 155.908 1.94849 4.1338 0
M  V30 1696 C 156.905 2.91611 4.30417 0
M  V30 1697 C 154.59 2.25005 4.49086 0
M  V30 1698 C 156.584 4.16672 4.82352 0
M  V30 1699 C 154.271 3.50315 5.00722 0
M  V30 1700 C 155.269 4.45964 5.17306 0
M  V30 1701 O 154.957 5.69052 5.67833 0
M  V30 1702 H 154.689 0.191664 0.64826 0
M  V30 1703 H 157.243 1.17409 1.68536 0
M  V30 1704 H 155.473 -0.160549 3.86367 0
M  V30 1705 H 157.162 0.212879 4.05341 0
M  V30 1706 H 157.928 2.69622 4.03149 0
M  V30 1707 H 153.807 1.51332 4.35453 0
M  V30 1708 H 157.351 4.91336 4.95211 0
M  V30 1709 H 153.248 3.72147 5.27424 0
M  V30 1710 H 154.016 5.71236 5.86201 0
M  V30 1711 N 156.679 -1.44442 0.630414 0
M  V30 1712 C 158.09 -1.85434 0.217063 0
M  V30 1713 C 158.441 -1.52748 -1.23136 0
M  V30 1714 O 157.566 -0.965205 -1.93682 0
M  V30 1715 C 158.161 -3.36581 0.387168 0
M  V30 1716 C 156.72 -3.76389 0.0283297 0
M  V30 1717 C 155.867 -2.68296 0.700889 0
M  V30 1718 H 158.818 -1.34919 0.83562 0
M  V30 1719 H 158.839 -3.78657 -0.374086 0
M  V30 1720 H 158.351 -3.60339 1.44144 0
M  V30 1721 H 156.452 -3.58246 -1.02423 0
M  V30 1722 H 156.565 -4.77095 0.437892 0
M  V30 1723 H 154.929 -2.54335 0.136267 0
M  V30 1724 H 155.712 -2.94887 1.75774 0
M  V30 1725 N 158.157 -0.370918 -1.53173 0
M  V30 1726 C 159.573 -0.0200818 -1.59587 0
M  V30 1727 C 159.773 1.46279 -1.38581 0
M  V30 1728 O 158.829 2.22506 -1.19363 0
M  V30 1729 C 160.142 -0.4808 -2.96831 0
M  V30 1730 C 161.69 -0.435477 -3.09956 0
M  V30 1731 C 162.165 -0.872092 -4.4962 0
M  V30 1732 N 163.656 -0.827364 -4.55751 0
M  V30 1733 C 164.391 -1.13683 -5.62018 0
M  V30 1734 N 163.887 -1.51584 -6.76014 0
M  V30 1735 N 165.68 -1.05927 -5.52029 0
M  V30 1736 H 157.831 -1.33652 -1.65079 0
M  V30 1737 H 160.094 -0.546634 -0.774529 0
M  V30 1738 H 159.8 -1.51577 -3.1736 0
M  V30 1739 H 159.674 0.129796 -3.76977 0
M  V30 1740 H 162.061 0.590371 -2.89134 0
M  V30 1741 H 162.142 -1.08164 -2.31806 0
M  V30 1742 H 161.786 -1.89608 -4.71181 0
M  V30 1743 H 161.716 -0.203127 -5.26208 0
M  V30 1744 H 164.207 -0.548216 -3.73902 0
M  V30 1745 H 164.52 -1.73609 -7.53047 0
M  V30 1746 H 162.865 -1.55454 -6.77391 0
M  V30 1747 H 166.056 -0.762321 -4.61851 0
M  V30 1748 H 166.229 -1.30378 -6.34749 0
M  V30 1749 N 159.635 1.57281 -0.100228 0
M  V30 1750 C 160.585 2.10848 0.86759 0
M  V30 1751 C 161.569 1.02473 1.24049 0
M  V30 1752 O 162.761 1.28739 1.21471 0
M  V30 1753 C 159.89 2.69648 2.12474 0
M  V30 1754 C 158.976 3.85074 1.77704 0
M  V30 1755 N 159.367 4.92897 1.13518 0
M  V30 1756 C 157.665 3.94905 2.07282 0
M  V30 1757 C 158.366 5.73475 0.974735 0
M  V30 1758 N 157.342 5.22675 1.4937 0
M  V30 1759 H 161.144 2.91594 0.367471 0
M  V30 1760 H 158.658 1.62074 0.102829 0
M  V30 1761 H 160.655 3.06356 2.82757 0
M  V30 1762 H 159.315 1.90359 2.63047 0
M  V30 1763 H 160.326 5.11662 0.801381 0
M  V30 1764 H 157.003 3.26633 2.60033 0
M  V30 1765 H 158.393 6.70238 0.472364 0
M  V30 1766 N 161.113 -0.173488 1.56642 0
M  V30 1767 C 162.023 -1.23482 1.99473 0
M  V30 1768 C 163.039 -1.48567 0.905752 0
M  V30 1769 O 164.215 -1.60758 1.21321 0
M  V30 1770 C 161.28 -2.55444 2.34413 0
M  V30 1771 C 160.341 -2.38241 3.57127 0
M  V30 1772 C 159.574 -3.63909 3.90392 0
M  V30 1773 O 159.797 -4.68996 3.24653 0
M  V30 1774 O 158.731 -3.58149 4.83749 0
M  V30 1775 H 162.557 -0.901279 2.90018 0
M  V30 1776 H 160.142 -0.380185 1.44482 0
M  V30 1777 H 162.024 -3.33292 2.57865 0
M  V30 1778 H 160.699 -2.88382 1.4703 0
M  V30 1779 H 159.606 -1.58431 3.38896 0
M  V30 1780 H 160.939 -2.10228 4.45045 0
M  V30 1781 N 162.591 -1.51276 -0.441967 0
M  V30 1782 C 163.831 -1.65372 -1.20132 0
M  V30 1783 C 164.195 -0.359871 -1.88597 0
M  V30 1784 O 165.396 -0.376551 -2.66149 0
M  V30 1785 C 163.667 -2.8207 -2.1948 0
M  V30 1786 S 165.226 -3.16467 -3.03964 0
M  V30 1787 H 162.044 -0.582669 -0.407453 0
M  V30 1788 H 164.646 -1.89166 -0.493609 0
M  V30 1789 H 163.35 -3.74523 -1.67812 0
M  V30 1790 H 162.881 -2.6045 -2.94838 0
M  V30 1791 H 164.896 -2.62543 -4.21053 0
M  V30 1792 N 164.069 0.697108 -1.41344 0
M  V30 1793 C 165.318 1.45279 -1.39918 0
M  V30 1794 C 165.631 1.95597 -0.0109624 0
M  V30 1795 O 166.837 2.71208 0.125919 0
M  V30 1796 C 165.293 2.62695 -2.46007 0
M  V30 1797 C 164.901 2.19169 -3.90729 0
M  V30 1798 C 166.645 3.40336 -2.53715 0
M  V30 1799 C 164.552 3.33535 -4.88373 0
M  V30 1800 H 163.482 0.545692 -0.520323 0
M  V30 1801 H 166.133 0.756929 -1.67161 0
M  V30 1802 H 164.515 3.34541 -2.11892 0
M  V30 1803 H 165.689 1.54623 -4.34083 0
M  V30 1804 H 164.004 1.54525 -3.86666 0
M  V30 1805 H 166.601 4.2547 -3.2385 0
M  V30 1806 H 166.944 3.85418 -1.5735 0
M  V30 1807 H 167.477 2.75546 -2.86913 0
M  V30 1808 H 164.216 2.93468 -5.86137 0
M  V30 1809 H 163.736 3.96936 -4.49668 0
M  V30 1810 H 165.415 3.99335 -5.09059 0
M  V30 1811 N 165.547 1.27147 0.931209 0
M  V30 1812 C 166.772 1.16191 1.71797 0
M  V30 1813 C 167.197 -0.278004 1.86034 0
M  V30 1814 O 166.555 -1.20137 1.35782 0
M  V30 1815 C 166.603 1.84673 3.09723 0
M  V30 1816 O 165.707 1.14231 3.96264 0
M  V30 1817 H 165.048 0.404303 0.526721 0
M  V30 1818 H 167.578 1.68152 1.1656 0
M  V30 1819 H 167.588 1.91893 3.60057 0
M  V30 1820 H 166.263 2.89421 2.98677 0
M  V30 1821 H 164.84 1.15056 3.54706 0
M  V30 1822 N 167.025 -1.13721 1.09112 0
M  V30 1823 C 167.988 -2.17222 0.731241 0
M  V30 1824 C 168.988 -1.59035 -0.237566 0
M  V30 1825 O 170.178 -1.74192 -0.0161704 0
M  V30 1826 C 167.31 -3.40804 0.0808443 0
M  V30 1827 H 168.503 -2.50573 1.64783 0
M  V30 1828 H 166.056 -1.28493 0.889897 0
M  V30 1829 H 166.791 -3.1304 -0.847127 0
M  V30 1830 H 166.576 -3.84306 0.777896 0
M  V30 1831 H 168.066 -4.1731 -0.155657 0
M  V30 1832 N 168.503 -0.877838 -1.30888 0
M  V30 1833 C 169.733 -0.506678 -2.00291 0
M  V30 1834 C 170.141 0.907449 -1.66018 0
M  V30 1835 O 169.484 1.60719 -0.88967 0
M  V30 1836 C 169.546 -0.59323 -3.54572 0
M  V30 1837 C 169.21 -1.97038 -4.12341 0
M  V30 1838 C 170.207 -2.93889 -4.28865 0
M  V30 1839 C 167.892 -2.27383 -4.47886 0
M  V30 1840 C 169.886 -4.19224 -4.80136 0
M  V30 1841 C 167.573 -3.52965 -4.98857 0
M  V30 1842 C 168.571 -4.48701 -5.14934 0
M  V30 1843 O 168.259 -5.72056 -5.64808 0
M  V30 1844 H 167.991 -0.1951 -0.647234 0
M  V30 1845 H 170.545 -1.18301 -1.6791 0
M  V30 1846 H 168.775 0.140057 -3.86446 0
M  V30 1847 H 170.464 -0.234372 -4.05223 0
M  V30 1848 H 171.23 -2.71756 -4.01714 0
M  V30 1849 H 167.109 -1.53639 -4.34645 0
M  V30 1850 H 170.653 -4.93956 -4.92599 0
M  V30 1851 H 166.55 -3.74939 -5.25443 0
M  V30 1852 H 167.318 -5.74337 -5.83163 0
M  V30 1853 N 169.982 1.44106 -0.638065 0
M  V30 1854 C 171.259 1.95453 -0.0759321 0
M  V30 1855 C 171.639 1.57984 1.40015 0
M  V30 1856 O 170.987 0.857361 2.11806 0
M  V30 1857 C 171.197 3.47655 -0.306132 0
M  V30 1858 C 172.545 4.24114 -0.203008 0
M  V30 1859 O 173.569 3.55405 -0.237871 0
M  V30 1860 O 172.428 5.46381 -0.113827 0
M  V30 1861 H 169.522 0.826797 0.0183332 0
M  V30 1862 H 172.068 1.54122 -0.710251 0
M  V30 1863 H 170.84 3.68 -1.3301 0
M  V30 1864 H 170.463 3.95949 0.361991 0
M  V30 1865 N 171.46 0.379036 1.52974 0
M  V30 1866 C 172.37 -0.468639 2.29872 0
M  V30 1867 C 173.386 -1.08067 1.36373 0
M  V30 1868 O 174.562 -1.08871 1.69438 0
M  V30 1869 C 171.627 -1.58594 3.083 0
M  V30 1870 C 170.688 -1.00007 4.17489 0
M  V30 1871 C 169.921 -2.06413 4.92168 0
M  V30 1872 O 170.144 -3.27751 4.66835 0
M  V30 1873 O 169.078 -1.68717 5.7777 0
M  V30 1874 H 172.904 0.157508 3.03291 0
M  V30 1875 H 170.489 0.143035 1.48714 0
M  V30 1876 H 172.371 -2.23525 3.57232 0
M  V30 1877 H 171.046 -2.19724 2.37703 0
M  V30 1878 H 169.953 -0.314299 3.72777 0
M  V30 1879 H 171.286 -0.433135 4.90291 0
M  V30 1880 N 172.938 -1.57226 0.108567 0
M  V30 1881 C 173.848 -2.18292 -0.859401 0
M  V30 1882 C 174.864 -1.15612 -1.30038 0
M  V30 1883 O 176.04 -1.48039 -1.36552 0
M  V30 1884 C 173.105 -2.762 -2.09558 0
M  V30 1885 C 172.166 -3.93881 -1.70752 0
M  V30 1886 C 171.399 -4.49018 -2.88477 0
M  V30 1887 O 171.622 -4.03068 -4.036 0
M  V30 1888 O 170.556 -5.39852 -2.66164 0
M  V30 1889 H 174.382 -3.01441 -0.369769 0
M  V30 1890 H 171.967 -1.48945 -0.1165 0
M  V30 1891 H 173.849 -3.13156 -2.81978 0
M  V30 1892 H 172.524 -1.96089 -2.57548 0
M  V30 1893 H 171.431 -3.61713 -0.954714 0
M  V30 1894 H 172.764 -4.75396 -1.27513 0
M  V30 1895 N 174.416 0.165178 -1.56732 0
M  V30 1896 C 175.346 1.20651 -1.99914 0
M  V30 1897 C 176.327 1.45827 -0.875705 0
M  V30 1898 O 177.512 1.57057 -1.14223 0
M  V30 1899 C 174.642 2.54401 -2.36427 0
M  V30 1900 C 173.596 2.43782 -3.51787 0
M  V30 1901 C 172.922 3.82078 -3.7406 0
M  V30 1902 C 174.222 1.93732 -4.85041 0
M  V30 1903 H 175.916 0.847534 -2.87154 0
M  V30 1904 H 173.462 0.40625 -1.38151 0
M  V30 1905 H 175.415 3.27458 -2.65234 0
M  V30 1906 H 174.139 2.92098 -1.46103 0
M  V30 1907 H 172.798 1.73178 -3.23117 0
M  V30 1908 H 172.446 4.17179 -2.81017 0
M  V30 1909 H 172.146 3.7584 -4.51684 0
M  V30 1910 H 173.67 4.56712 -4.05274 0
M  V30 1911 H 175.084 2.56569 -5.12684 0
M  V30 1912 H 173.481 1.98428 -5.66345 0
M  V30 1913 H 174.551 0.891962 -4.76626 0
M  V30 1914 N 175.894 1.51508 0.433938 0
M  V30 1915 C 176.857 1.72473 1.50949 0
M  V30 1916 C 177.857 0.594725 1.49398 0
M  V30 1917 O 179.047 0.862315 1.5136 0
M  V30 1918 C 176.179 1.78431 2.90474 0
M  V30 1919 H 177.372 2.68467 1.33662 0
M  V30 1920 H 174.925 1.41549 0.662836 0
M  V30 1921 H 175.66 0.842645 3.13161 0
M  V30 1922 H 175.445 2.60558 2.93005 0
M  V30 1923 H 176.935 1.96479 3.68491 0
M  V30 1924 N 177.372 -0.689602 1.41712 0
M  V30 1925 C 178.619 -1.44966 1.4139 0
M  V30 1926 C 178.947 -1.94484 0.025105 0
M  V30 1927 O 178.202 -1.70307 -0.964048 0
M  V30 1928 C 178.501 -2.67298 2.37247 0
M  V30 1929 C 178.167 -2.36405 3.83958 0
M  V30 1930 C 176.829 -2.27691 4.23923 0
M  V30 1931 C 179.181 -2.11043 4.76561 0
M  V30 1932 C 176.509 -1.91719 5.54492 0
M  V30 1933 C 178.861 -1.76578 6.07456 0
M  V30 1934 C 177.525 -1.66363 6.46436 0
M  V30 1935 H 176.795 -0.53047 0.517381 0
M  V30 1936 H 179.442 -0.787655 1.74552 0
M  V30 1937 H 177.747 -3.38461 1.9736 0
M  V30 1938 H 179.444 -3.25452 2.34269 0
M  V30 1939 H 176.034 -2.44085 3.52308 0
M  V30 1940 H 180.218 -2.16717 4.46483 0
M  V30 1941 H 175.474 -1.82367 5.83568 0
M  V30 1942 H 179.648 -1.55974 6.78708 0
M  V30 1943 H 177.275 -1.38258 7.47522 0
M  V30 1944 N 178.85 -1.27639 -0.924453 0
M  V30 1945 C 180.097 -1.14167 -1.67249 0
M  V30 1946 C 180.425 0.311863 -1.91984 0
M  V30 1947 O 179.68 1.24425 -1.51053 0
M  V30 1948 C 179.979 -1.87407 -3.04325 0
M  V30 1949 C 179.645 -3.37249 -2.99289 0
M  V30 1950 C 178.307 -3.7812 -2.97622 0
M  V30 1951 C 180.659 -4.32845 -2.90336 0
M  V30 1952 C 177.987 -5.12944 -2.8479 0
M  V30 1953 C 180.339 -5.6773 -2.79045 0
M  V30 1954 C 179.003 -6.07889 -2.7573 0
M  V30 1955 H 178.273 -0.417766 -0.612007 0
M  V30 1956 H 180.92 -1.58286 -1.07786 0
M  V30 1957 H 179.225 -1.35805 -3.67511 0
M  V30 1958 H 180.922 -1.74408 -3.61086 0
M  V30 1959 H 177.512 -3.04748 -3.01374 0
M  V30 1960 H 181.696 -4.02239 -2.90719 0
M  V30 1961 H 176.952 -5.432 -2.80612 0
M  V30 1962 H 181.126 -6.41472 -2.71083 0
M  V30 1963 H 178.753 -7.12314 -2.65544 0
M  V30 1964 N 180.328 1.1314 -1.09713 0
M  V30 1965 C 181.576 1.84119 -0.833338 0
M  V30 1966 C 181.897 1.84097 0.642904 0
M  V30 1967 O 181.167 1.29881 1.46655 0
M  V30 1968 H 179.747 0.681766 -0.305293 0
M  V30 1969 H 182.409 1.37038 -1.38588 0
M  V30 1970 H 181.505 2.88543 -1.18951 0
M  V30 1971 N 181.806 0.884767 1.30421 0
M  V30 1972 C 182.736 0.367574 2.30589 0
M  V30 1973 C 183.717 -0.549464 1.60981 0
M  V30 1974 O 184.902 -0.46336 1.88591 0
M  V30 1975 C 182.032 -0.418944 3.44764 0
M  V30 1976 C 180.986 0.406316 4.26067 0
M  V30 1977 C 180.312 -0.506793 5.32293 0
M  V30 1978 C 181.612 1.64832 4.95608 0
M  V30 1979 H 183.306 1.20462 2.74097 0
M  V30 1980 H 180.852 0.580695 1.31772 0
M  V30 1981 H 182.805 -0.791395 4.13902 0
M  V30 1982 H 181.529 -1.28964 3.0006 0
M  V30 1983 H 180.188 0.760903 3.58617 0
M  V30 1984 H 179.836 -1.37519 4.83836 0
M  V30 1985 H 179.536 0.0415828 5.87585 0
M  V30 1986 H 181.06 -0.875764 6.04287 0
M  V30 1987 H 182.474 1.34646 5.57264 0
M  V30 1988 H 180.871 2.13688 5.60765 0
M  V30 1989 H 181.941 2.39284 4.21748 0
M  V30 1990 N 183.284 -1.43765 0.645699 0
M  V30 1991 C 184.533 -2.01116 0.153412 0
M  V30 1992 C 184.846 -1.51493 -1.23731 0
M  V30 1993 O 186.052 -2.01067 -1.8244 0
M  V30 1994 C 184.508 -3.59206 0.223473 0
M  V30 1995 C 184.116 -4.17823 1.61642 0
M  V30 1996 C 185.86 -4.23972 -0.211597 0
M  V30 1997 C 183.767 -5.68183 1.64081 0
M  V30 1998 H 182.697 -0.752093 0.0535891 0
M  V30 1999 H 185.348 -1.6482 0.806633 0
M  V30 2000 H 183.73 -3.92867 -0.497118 0
M  V30 2001 H 184.904 -3.95674 2.36176 0
M  V30 2002 H 183.219 -3.65399 1.99681 0
M  V30 2003 H 185.816 -5.34275 -0.213112 0
M  V30 2004 H 186.159 -3.97352 -1.24165 0
M  V30 2005 H 186.692 -3.95166 0.456988 0
M  V30 2006 H 183.431 -5.99559 2.64971 0
M  V30 2007 H 182.951 -5.9241 0.938611 0
M  V30 2008 H 184.63 -6.32085 1.3812 0
M  V30 2009 N 184.763 -0.387143 -1.52771 0
M  V30 2010 C 186.174 0.0873634 -1.86495 0
M  V30 2011 C 186.525 1.46336 -1.30691 0
M  V30 2012 O 185.65 2.068 -0.637409 0
M  V30 2013 C 186.245 0.165305 -3.38396 0
M  V30 2014 C 184.804 0.584101 -3.7184 0
M  V30 2015 C 183.951 -0.255279 -2.76122 0
M  V30 2016 H 186.902 -0.605104 -1.46711 0
M  V30 2017 H 186.923 0.984848 -3.67534 0
M  V30 2018 H 186.435 -0.836301 -3.78982 0
M  V30 2019 H 184.536 1.59315 -3.36823 0
M  V30 2020 H 184.649 0.343749 -4.77865 0
M  V30 2021 H 183.013 0.279126 -2.53166 0
M  V30 2022 H 183.796 -1.25482 -3.19545 0
M  V30 2023 N 186.241 1.57166 -0.116904 0
M  V30 2024 C 187.151 2.18745 0.847812 0
M  V30 2025 C 188.167 1.163 1.29423 0
M  V30 2026 O 189.343 1.48761 1.35765 0
M  V30 2027 C 186.408 2.77307 2.0809 0
M  V30 2028 C 185.469 3.94781 1.68661 0
M  V30 2029 C 184.702 4.50541 2.86091 0
M  V30 2030 O 184.925 4.05202 4.01456 0
M  V30 2031 O 183.859 5.41256 2.63298 0
M  V30 2032 H 187.685 3.01632 0.353778 0
M  V30 2033 H 185.27 1.49005 0.108599 0
M  V30 2034 H 187.152 3.14647 2.80313 0
M  V30 2035 H 185.827 1.97452 2.56504 0
M  V30 2036 H 184.734 3.62214 0.935518 0
M  V30 2037 H 186.067 4.76065 1.24991 0
M  V30 2038 N 187.719 -0.156864 1.56817 0
M  V30 2039 C 188.968 -0.869504 1.81996 0
M  V30 2040 C 189.281 -1.82777 0.696545 0
M  V30 2041 O 190.487 -2.58384 0.833658 0
M  V30 2042 C 188.943 -1.59679 3.22538 0
M  V30 2043 C 188.551 -0.681431 4.42787 0
M  V30 2044 C 190.295 -2.2968 3.56997 0
M  V30 2045 C 188.202 -1.40978 5.74351 0
M  V30 2046 H 187.132 -0.328438 0.678708 0
M  V30 2047 H 189.783 -0.1223 1.83092 0
M  V30 2048 H 188.165 -2.38927 3.158 0
M  V30 2049 H 189.339 0.0751166 4.60739 0
M  V30 2050 H 187.654 -0.0903431 4.16302 0
M  V30 2051 H 190.251 -2.84794 4.52544 0
M  V30 2052 H 190.594 -3.05707 2.82576 0
M  V30 2053 H 191.127 -1.57361 3.65352 0
M  V30 2054 H 187.866 -0.691561 6.51842 0
M  V30 2055 H 187.386 -2.13929 5.60352 0
M  V30 2056 H 189.065 -1.95337 6.16808 0
M  V30 2057 N 189.197 -1.51736 -0.425897 0
M  V30 2058 C 190.446 -1.64201 -1.17136 0
M  V30 2059 C 190.759 -0.369705 -1.92074 0
M  V30 2060 O 191.965 -0.373898 -2.68913 0
M  V30 2061 C 190.421 -2.90035 -2.13091 0
M  V30 2062 C 190.029 -4.24312 -1.43747 0
M  V30 2063 C 191.773 -3.1186 -2.87999 0
M  V30 2064 C 189.68 -5.41285 -2.38253 0
M  V30 2065 H 188.61 -0.611624 -0.440944 0
M  V30 2066 H 191.261 -1.78212 -0.437328 0
M  V30 2067 H 189.643 -2.69684 -2.89977 0
M  V30 2068 H 190.817 -4.55086 -0.723408 0
M  V30 2069 H 189.132 -4.08456 -0.809465 0
M  V30 2070 H 191.729 -3.96427 -3.58817 0
M  V30 2071 H 192.072 -2.25403 -3.49999 0
M  V30 2072 H 192.605 -3.32605 -2.18217 0
M  V30 2073 H 189.344 -6.30037 -1.80925 0
M  V30 2074 H 188.864 -5.14872 -3.0768 0
M  V30 2075 H 190.543 -5.73694 -2.99139 0
M  V30 2076 N 190.675 0.682077 -1.42076 0
M  V30 2077 C 191.923 1.4393 -1.41876 0
M  V30 2078 C 192.244 1.94971 -0.0335599 0
M  V30 2079 O 191.514 1.72591 0.926773 0
M  V30 2080 H 190.094 0.534085 -0.522267 0
M  V30 2081 H 192.756 0.806427 -1.77434 0
M  V30 2082 H 191.852 2.29588 -2.11414 0
M  V30 2083 N 192.153 1.28127 0.917671 0
M  V30 2084 C 193.43 1.05761 1.64542 0
M  V30 2085 C 193.81 -0.404344 2.07191 0
M  V30 2086 O 193.158 -1.38963 1.81388 0
M  V30 2087 C 193.368 2.02857 2.83989 0
M  V30 2088 C 194.716 2.32786 3.551 0
M  V30 2089 O 195.74 2.0091 2.94132 0
M  V30 2090 O 194.599 2.87169 4.64969 0
M  V30 2091 H 191.693 0.403916 0.721652 0
M  V30 2092 H 194.239 1.39431 0.967322 0
M  V30 2093 H 193.011 3.01407 2.49538 0
M  V30 2094 H 192.634 1.69809 3.59514 0
M  V30 2095 N 193.631 -1.12557 1.10312 0
M  V30 2096 C 194.871 -1.8568 0.854543 0
M  V30 2097 C 195.235 -1.82091 -0.608843 0
M  V30 2098 O 196.436 -2.50544 -0.973717 0
M  V30 2099 C 194.707 -3.2942 1.38626 0
M  V30 2100 S 196.266 -4.19931 1.27293 0
M  V30 2101 H 193.084 -0.640427 0.308827 0
M  V30 2102 H 195.686 -1.35599 1.40831 0
M  V30 2103 H 194.39 -3.2959 2.44537 0
M  V30 2104 H 193.921 -3.84566 0.82902 0
M  V30 2105 H 195.936 -4.95668 0.229776 0
M  V30 2106 N 195.109 -0.891671 -1.2995 0
M  V30 2107 C 196.349 -0.520296 -1.97667 0
M  V30 2108 C 196.713 0.914797 -1.68806 0
M  V30 2109 O 197.914 1.39263 -2.29911 0
M  V30 2110 C 196.185 -0.795222 -3.48441 0
M  V30 2111 S 197.744 -0.526953 -4.35624 0
M  V30 2112 H 194.562 -0.19333 -0.684211 0
M  V30 2113 H 197.164 -1.15238 -1.57926 0
M  V30 2114 H 195.868 -1.83805 -3.66938 0
M  V30 2115 H 195.399 -0.15095 -3.9311 0
M  V30 2116 H 197.414 0.631533 -4.92165 0
M  V30 2117 N 196.587 1.43421 -0.653314 0
M  V30 2118 C 197.817 2.05864 -0.174238 0
M  V30 2119 C 198.225 1.49052 1.16534 0
M  V30 2120 O 197.568 0.616481 1.73047 0
M  V30 2121 C 197.63 3.59499 -0.00875873 0
M  V30 2122 C 197.294 4.38893 -1.27364 0
M  V30 2123 C 198.291 4.70947 -2.20239 0
M  V30 2124 C 195.976 4.789 -1.51525 0
M  V30 2125 C 197.97 5.41916 -3.35568 0
M  V30 2126 C 195.657 5.49614 -2.67147 0
M  V30 2127 C 196.655 5.81044 -3.58994 0
M  V30 2128 O 196.343 6.50313 -4.72597 0
M  V30 2129 H 196.075 0.670345 -0.0872549 0
M  V30 2130 H 198.629 1.84913 -0.894226 0
M  V30 2131 H 196.859 3.79025 0.7666 0
M  V30 2132 H 198.548 4.0364 0.427687 0
M  V30 2133 H 199.314 4.40558 -2.02815 0
M  V30 2134 H 195.193 4.53843 -0.809158 0
M  V30 2135 H 198.737 5.66365 -4.07279 0
M  V30 2136 H 194.634 5.79419 -2.84505 0
M  V30 2137 H 195.402 6.68795 -4.71864 0
M  V30 2138 N 198.065 0.39524 1.52563 0
M  V30 2139 C 198.975 -0.444232 2.30356 0
M  V30 2140 C 199.991 -1.06615 1.37511 0
M  V30 2141 O 201.167 -1.07067 1.70583 0
M  V30 2142 C 198.232 -1.55315 3.09964 0
M  V30 2143 C 197.293 -0.955734 4.18526 0
M  V30 2144 C 196.526 -2.01181 4.9433 0
M  V30 2145 O 196.749 -3.22781 4.70285 0
M  V30 2146 O 195.683 -1.62579 5.79527 0
M  V30 2147 H 199.509 0.189667 3.03107 0
M  V30 2148 H 197.094 0.1588 1.48554 0
M  V30 2149 H 198.976 -2.19724 3.59582 0
M  V30 2150 H 197.651 -2.17191 2.4002 0
M  V30 2151 H 196.558 -0.274743 3.7309 0
M  V30 2152 H 197.891 -0.381109 4.90722 0
M  V30 2153 N 199.544 -1.57102 0.125237 0
M  V30 2154 C 200.454 -2.19191 -0.8362 0
M  V30 2155 C 201.47 -1.16985 -1.28805 0
M  V30 2156 O 202.646 -1.49479 -1.34974 0
M  V30 2157 C 199.711 -2.78407 -2.06617 0
M  V30 2158 C 198.772 -3.9567 -1.66565 0
M  V30 2159 C 198.005 -4.52052 -2.83698 0
M  V30 2160 O 198.228 -4.07326 -3.99302 0
M  V30 2161 O 197.162 -5.42645 -2.60423 0
M  V30 2162 H 200.988 -3.01816 -0.337776 0
M  V30 2163 H 198.573 -1.4906 -0.100695 0
M  V30 2164 H 200.455 -3.16129 -2.7864 0
M  V30 2165 H 199.13 -1.9881 -2.55453 0
M  V30 2166 H 198.037 -3.62705 -0.916296 0
M  V30 2167 H 199.37 -4.76722 -1.22464 0
M  V30 2168 N 201.022 0.148545 -1.56898 0
M  V30 2169 C 202.252 0.875118 -1.8715 0
M  V30 2170 C 202.66 1.75322 -0.711262 0
M  V30 2171 O 202.003 1.80745 0.328151 0
M  V30 2172 C 202.065 1.7844 -3.12089 0
M  V30 2173 C 201.729 1.08361 -4.43967 0
M  V30 2174 C 202.726 0.438247 -5.1805 0
M  V30 2175 C 200.411 1.07358 -4.90693 0
M  V30 2176 C 202.405 -0.20779 -6.37061 0
M  V30 2177 C 200.092 0.42373 -6.09629 0
M  V30 2178 C 201.09 -0.215829 -6.82659 0
M  V30 2179 O 200.778 -0.855378 -7.99336 0
M  V30 2180 H 200.51 0.258504 -0.624621 0
M  V30 2181 H 203.064 0.14652 -2.04877 0
M  V30 2182 H 201.294 2.55389 -2.90367 0
M  V30 2183 H 202.983 2.38279 -3.286 0
M  V30 2184 H 203.749 0.437817 -4.8302 0
M  V30 2185 H 199.628 1.5608 -4.33774 0
M  V30 2186 H 203.172 -0.70758 -6.94002 0
M  V30 2187 H 199.069 0.421822 -6.4412 0
M  V30 2188 H 199.837 -0.756892 -8.14993 0
M  V30 2189 N 202.5 1.5196 0.417844 0
M  V30 2190 C 203.447 1.74678 1.50852 0
M  V30 2191 C 204.417 0.588947 1.55308 0
M  V30 2192 O 205.602 0.825544 1.72016 0
M  V30 2193 C 202.742 1.89544 2.88387 0
M  V30 2194 C 201.855 3.17166 2.93309 0
M  V30 2195 C 200.99 3.22513 4.22088 0
M  V30 2196 C 200.029 4.44372 4.20951 0
M  V30 2197 N 199.166 4.47161 5.41287 0
M  V30 2198 H 204.006 2.67768 1.30783 0
M  V30 2199 H 201.543 1.32689 0.63498 0
M  V30 2200 H 203.501 1.96146 3.68216 0
M  V30 2201 H 202.131 0.998424 3.06971 0
M  V30 2202 H 201.183 3.19778 2.06024 0
M  V30 2203 H 202.495 4.07021 2.88332 0
M  V30 2204 H 201.649 3.28139 5.10303 0
M  V30 2205 H 200.388 2.30581 4.29748 0
M  V30 2206 H 199.393 4.38902 3.31127 0
M  V30 2207 H 200.618 5.3759 4.14938 0
M  V30 2208 H 198.564 3.58108 5.49632 0
M  V30 2209 H 198.481 5.3085 5.3827 0
M  V30 2210 H 199.749 4.57005 6.3148 0
M  V30 2211 N 203.978 -0.674533 1.42435 0
M  V30 2212 C 205.255 -1.4305 1.33402 0
M  V30 2213 C 205.635 -2.11081 -0.0284674 0
M  V30 2214 O 204.983 -2.03257 -1.04397 0
M  V30 2215 C 205.193 -2.43272 2.50239 0
M  V30 2216 C 206.541 -3.07907 2.92367 0
M  V30 2217 O 207.565 -2.53599 2.50132 0
M  V30 2218 O 206.424 -4.0632 3.65467 0
M  V30 2219 H 203.518 -0.638076 0.526106 0
M  V30 2220 H 206.064 -0.703235 1.54443 0
M  V30 2221 H 204.836 -1.91803 3.41068 0
M  V30 2222 H 204.459 -3.23479 2.31186 0
M  V30 2223 N 205.456 -1.28612 -0.910864 0
M  V30 2224 C 206.872 -1.06381 -1.18976 0
M  V30 2225 C 207.072 0.191998 -2.00583 0
M  V30 2226 O 206.128 0.892869 -2.36187 0
M  V30 2227 C 207.441 -2.31295 -1.92154 0
M  V30 2228 C 208.989 -2.36503 -2.05025 0
M  V30 2229 C 209.464 -3.61191 -2.81612 0
M  V30 2230 N 210.955 -3.61847 -2.89172 0
M  V30 2231 C 211.69 -4.55004 -3.4894 0
M  V30 2232 N 211.186 -5.58482 -4.09963 0
M  V30 2233 N 212.979 -4.42594 -3.46506 0
M  V30 2234 H 205.13 -2.09221 -0.366094 0
M  V30 2235 H 207.393 -0.921003 -0.224629 0
M  V30 2236 H 207.099 -3.228 -1.39618 0
M  V30 2237 H 206.973 -2.37934 -2.9269 0
M  V30 2238 H 209.36 -1.45494 -2.5674 0
M  V30 2239 H 209.441 -2.33857 -1.03657 0
M  V30 2240 H 209.085 -4.52545 -2.30576 0
M  V30 2241 H 209.015 -3.61092 -3.83302 0
M  V30 2242 H 211.506 -2.87022 -2.45819 0
M  V30 2243 H 211.819 -6.25704 -4.53557 0
M  V30 2244 H 210.164 -5.62305 -4.08459 0
M  V30 2245 H 213.355 -3.60953 -2.98045 0
M  V30 2246 H 213.528 -5.15381 -3.92793 0
M  V30 2247 N 206.934 1.1197 -1.10907 0
M  V30 2248 C 208.35 1.35591 -0.841852 0
M  V30 2249 C 208.55 1.94233 0.536246 0
M  V30 2250 O 207.606 2.1717 1.28816 0
M  V30 2251 C 208.919 2.29284 -1.94549 0
M  V30 2252 C 210.467 2.42862 -1.97451 0
M  V30 2253 C 210.942 3.39873 -3.07002 0
M  V30 2254 N 212.433 3.47433 -3.06341 0
M  V30 2255 C 213.168 4.22421 -3.87748 0
M  V30 2256 N 212.664 5.00432 -4.79103 0
M  V30 2257 N 214.457 4.17876 -3.75946 0
M  V30 2258 H 206.608 0.722664 -1.99728 0
M  V30 2259 H 208.871 0.380635 -0.868229 0
M  V30 2260 H 208.577 1.93378 -2.93765 0
M  V30 2261 H 208.451 3.29452 -1.83688 0
M  V30 2262 H 210.838 2.78046 -0.988645 0
M  V30 2263 H 210.919 1.42566 -2.12388 0
M  V30 2264 H 210.563 3.05417 -4.05811 0
M  V30 2265 H 210.493 4.40011 -2.89306 0
M  V30 2266 H 212.984 2.91784 -2.40147 0
M  V30 2267 H 213.297 5.55002 -5.37766 0
M  V30 2268 H 211.642 4.99612 -4.83128 0
M  V30 2269 H 214.833 3.56016 -3.03924 0
M  V30 2270 H 215.006 4.76061 -4.39624 0
M  V30 2271 N 208.412 0.89855 1.29475 0
M  V30 2272 C 209.828 0.594483 1.48115 0
M  V30 2273 C 210.028 -0.86431 1.82022 0
M  V30 2274 O 209.084 -1.64457 1.91599 0
M  V30 2275 C 210.397 1.51932 2.59494 0
M  V30 2276 C 211.945 1.5244 2.7337 0
M  V30 2277 C 212.42 2.43548 3.87877 0
M  V30 2278 N 213.911 2.41589 3.95208 0
M  V30 2279 C 214.646 3.08789 4.83153 0
M  V30 2280 N 214.142 3.85265 5.75798 0
M  V30 2281 N 215.935 2.97952 4.76635 0
M  V30 2282 H 208.086 1.84207 1.05742 0
M  V30 2283 H 210.349 0.789251 0.525154 0
M  V30 2284 H 210.055 2.55865 2.41301 0
M  V30 2285 H 209.929 1.23899 3.56271 0
M  V30 2286 H 212.316 0.492518 2.90961 0
M  V30 2287 H 212.397 1.8451 1.77172 0
M  V30 2288 H 212.041 3.46829 3.71041 0
M  V30 2289 H 211.971 2.08788 4.83441 0
M  V30 2290 H 214.462 1.86025 3.28943 0
M  V30 2291 H 214.775 4.33598 6.39697 0
M  V30 2292 H 213.12 3.89371 5.75687 0
M  V30 2293 H 216.311 2.37723 4.03244 0
M  V30 2294 H 216.484 3.50599 5.44962 0
M  V30 2295 N 209.89 -1.43072 0.660911 0
M  V30 2296 C 210.8 -2.34585 -0.0264163 0
M  V30 2297 C 211.816 -1.54316 -0.803898 0
M  V30 2298 O 212.992 -1.86939 -0.749391 0
M  V30 2299 C 210.057 -3.32689 -0.975639 0
M  V30 2300 C 209.118 -4.2886 -0.194236 0
M  V30 2301 C 208.351 -5.22278 -1.09825 0
M  V30 2302 O 208.574 -5.20299 -2.33763 0
M  V30 2303 O 207.508 -5.99228 -0.566513 0
M  V30 2304 H 211.334 -2.94869 0.727034 0
M  V30 2305 H 208.919 -1.43342 0.42111 0
M  V30 2306 H 210.801 -3.92995 -1.52094 0
M  V30 2307 H 209.476 -2.74898 -1.70918 0
M  V30 2308 H 208.383 -3.72011 0.394835 0
M  V30 2309 H 209.716 -4.89655 0.499899 0
M  V30 2310 N 211.368 -0.403325 -1.52352 0
M  V30 2311 C 212.316 0.439752 -2.28405 0
M  V30 2312 C 213.31 1.05089 -1.32863 0
M  V30 2313 O 214.516 0.989759 -1.50345 0
M  V30 2314 H 210.891 0.160587 -0.734653 0
M  V30 2315 H 212.862 -0.222983 -2.97566 0
M  V30 2316 C 211.611 1.54736 -3.11371 0
M  V30 2317 H 210.934 1.08643 -3.84755 0
M  V30 2318 H 212.374 2.1112 -3.67701 0
M  V30 2319 C 210.833 2.51141 -2.24566 0
M  V30 2320 O 211.363 3.54887 -1.88196 0
M  V30 2321 N 209.569 2.21213 -1.8845 0
M  V30 2322 H 209.116 1.36878 -2.18225 0
M  V30 2323 H 209.074 2.85963 -1.30662 0
M  V30 2324 N 212.846 1.57033 -0.133567 0
M  V30 2325 C 213.809 2.14897 0.796995 0
M  V30 2326 C 214.809 1.0874 1.18458 0
M  V30 2327 O 215.999 1.34446 1.1077 0
M  V30 2328 C 213.131 2.70112 2.07973 0
M  V30 2329 H 214.324 2.98457 0.293873 0
M  V30 2330 H 211.877 1.55871 0.115787 0
M  V30 2331 H 212.612 1.9018 2.62682 0
M  V30 2332 H 212.397 3.47764 1.81115 0
M  V30 2333 H 213.887 3.14738 2.74462 0
M  V30 2334 N 214.325 -0.140222 1.56975 0
M  V30 2335 C 215.235 -1.19223 2.02047 0
M  V30 2336 C 216.251 -1.46612 0.937062 0
M  V30 2337 O 217.427 -1.58148 1.24704 0
M  V30 2338 C 214.492 -2.50414 2.39778 0
M  V30 2339 C 213.553 -2.30612 3.621 0
M  V30 2340 C 212.786 -3.55547 3.98023 0
M  V30 2341 O 213.009 -4.62004 3.34528 0
M  V30 2342 O 211.943 -3.47808 4.91237 0
M  V30 2343 H 215.769 -0.839559 2.91865 0
M  V30 2344 H 213.354 -0.349453 1.45256 0
M  V30 2345 H 215.236 -3.27747 2.64877 0
M  V30 2346 H 213.911 -2.85198 1.53114 0
M  V30 2347 H 212.818 -1.51207 3.4218 0
M  V30 2348 H 214.151 -2.00741 4.49404 0
M  V30 2349 N 215.803 -1.52179 -0.40978 0
M  V30 2350 C 217.219 -1.40968 -0.74835 0
M  V30 2351 C 217.419 -0.513657 -1.94843 0
M  V30 2352 O 216.475 0.0208026 -2.52491 0
M  V30 2353 C 217.788 -2.83483 -1.0029 0
M  V30 2354 C 219.336 -2.92821 -1.10565 0
M  V30 2355 C 219.811 -4.36303 -1.39296 0
M  V30 2356 N 221.302 -4.39535 -1.46162 0
M  V30 2357 C 222.037 -5.47614 -1.70018 0
M  V30 2358 N 221.533 -6.65812 -1.91483 0
M  V30 2359 N 223.326 -5.35129 -1.72027 0
M  V30 2360 H 215.477 -2.0897 0.380186 0
M  V30 2361 H 217.74 -0.94185 0.107805 0
M  V30 2362 H 217.446 -3.51168 -0.193461 0
M  V30 2363 H 217.32 -3.24487 -1.92323 0
M  V30 2364 H 219.707 -2.25318 -1.90568 0
M  V30 2365 H 219.788 -2.55276 -0.16369 0
M  V30 2366 H 219.432 -5.04366 -0.598109 0
M  V30 2367 H 219.362 -4.71385 -2.34743 0
M  V30 2368 H 221.853 -3.54332 -1.31367 0
M  V30 2369 H 222.166 -7.43964 -2.09134 0
M  V30 2370 H 220.511 -6.68879 -1.88749 0
M  V30 2371 H 223.702 -4.41764 -1.54796 0
M  V30 2372 H 223.875 -6.19433 -1.9028 0
M  V30 2373 N 217.281 0.66697 -1.42791 0
M  V30 2374 C 218.211 1.79218 -1.49677 0
M  V30 2375 C 219.192 1.66405 -0.352623 0
M  V30 2376 O 220.377 1.85708 -0.567993 0
M  V30 2377 C 217.507 3.17565 -1.40605 0
M  V30 2378 C 216.461 3.45124 -2.53127 0
M  V30 2379 C 215.787 4.83127 -2.29112 0
M  V30 2380 C 217.087 3.41236 -3.95418 0
M  V30 2381 H 218.781 1.73713 -2.43853 0
M  V30 2382 H 216.327 0.83432 -1.17367 0
M  V30 2383 H 218.28 3.96022 -1.44029 0
M  V30 2384 H 217.004 3.23767 -0.429271 0
M  V30 2385 H 215.663 2.69031 -2.49034 0
M  V30 2386 H 215.311 4.85988 -1.29709 0
M  V30 2387 H 215.011 5.02528 -3.04531 0
M  V30 2388 H 216.535 5.63859 -2.34297 0
M  V30 2389 H 217.949 4.09651 -4.01073 0
M  V30 2390 H 216.346 3.72173 -4.70752 0
M  V30 2391 H 217.416 2.39665 -4.21532 0
M  V30 2392 N 218.759 1.29093 0.90403 0
M  V30 2393 C 219.691 1.09658 2.01266 0
M  V30 2394 C 220.704 0.0453729 1.62737 0
M  V30 2395 O 221.893 0.289446 1.76138 0
M  V30 2396 C 218.993 0.646278 3.32681 0
M  V30 2397 C 218.166 1.77505 3.99763 0
M  V30 2398 C 217.225 1.31649 5.09465 0
M  V30 2399 O 216.251 2.02045 5.32134 0
M  V30 2400 N 217.453 0.184997 5.80205 0
M  V30 2401 H 220.218 2.05135 2.18494 0
M  V30 2402 H 217.779 1.20975 1.07594 0
M  V30 2403 H 219.771 0.322906 4.0341 0
M  V30 2404 H 218.341 -0.215916 3.11853 0
M  V30 2405 H 217.561 2.26752 3.22455 0
M  V30 2406 H 218.849 2.53198 4.41325 0
M  V30 2407 H 218.247 -0.402021 5.6427 0
M  V30 2408 H 216.804 -0.0790358 6.51752 0
M  V30 2409 N 220.237 -1.11381 1.11499 0
M  V30 2410 C 221.514 -1.7955 0.775965 0
M  V30 2411 C 221.894 -1.97859 -0.73588 0
M  V30 2412 O 221.242 -1.56376 -1.66609 0
M  V30 2413 C 221.452 -3.13196 1.53977 0
M  V30 2414 C 222.8 -3.88227 1.71944 0
M  V30 2415 O 223.824 -3.22887 1.50407 0
M  V30 2416 O 222.683 -5.05477 2.07738 0
M  V30 2417 H 219.777 -0.777728 0.28119 0
M  V30 2418 H 222.323 -1.18118 1.21845 0
M  V30 2419 H 221.095 -2.95229 2.56818 0
M  V30 2420 H 220.718 -3.82342 1.09088 0
M  V30 2421 N 221.715 -0.905404 -1.28997 0
M  V30 2422 C 222.992 -0.453513 -1.9027 0
M  V30 2423 C 223.372 1.06721 -1.82137 0
M  V30 2424 O 222.72 1.91159 -1.25182 0
M  V30 2425 C 222.93 -0.974494 -3.35119 0
M  V30 2426 C 224.278 -1.0216 -4.12127 0
M  V30 2427 O 225.302 -0.922557 -3.44046 0
M  V30 2428 O 224.161 -1.17121 -5.33802 0
M  V30 2429 H 221.255 -0.142347 -0.814657 0
M  V30 2430 H 223.801 -0.995642 -1.37423 0
M  V30 2431 H 222.573 -2.01848 -3.35221 0
M  V30 2432 H 222.196 -0.412706 -3.95452 0
M  V30 2433 N 223.193 1.4272 -0.668489 0
M  V30 2434 C 224.156 2.292 0.00448567 0
M  V30 2435 C 225.156 1.43001 0.735339 0
M  V30 2436 O 226.346 1.64461 0.57429 0
M  V30 2437 C 223.478 3.25375 1.01705 0
M  V30 2438 H 224.671 2.90199 -0.756608 0
M  V30 2439 H 222.224 1.50254 -0.430506 0
M  V30 2440 H 222.959 2.69301 1.80686 0
M  V30 2441 H 222.744 3.88944 0.496463 0
M  V30 2442 H 224.234 3.90245 1.48655 0
M  V30 2443 N 224.671 0.411399 1.52136 0
M  V30 2444 C 225.948 -0.222308 1.94333 0
M  V30 2445 C 226.328 -1.6242 1.34844 0
M  V30 2446 O 225.676 -2.22384 0.525145 0
M  V30 2447 C 225.886 -0.226345 3.48265 0
M  V30 2448 C 227.234 -0.444592 4.22266 0
M  V30 2449 O 228.258 -0.305602 3.54887 0
M  V30 2450 O 227.117 -0.718749 5.41753 0
M  V30 2451 H 224.211 -0.143907 0.814383 0
M  V30 2452 H 226.757 0.467506 1.63133 0
M  V30 2453 H 225.529 0.75475 3.83952 0
M  V30 2454 H 225.152 -0.960163 3.85832 0
M  V30 2455 N 226.149 -1.5696 0.141893 0
M  V30 2456 C 227.377 -2.00322 -0.517579 0
M  V30 2457 C 227.792 -1.02193 -1.58752 0
M  V30 2458 O 227.149 -0.0181619 -1.82491 0
M  V30 2459 C 227.2 -3.43618 -1.12289 0
M  V30 2460 O 226.921 -4.37995 -0.0956929 0
M  V30 2461 C 228.422 -4.02231 -1.86347 0
M  V30 2462 H 225.642 -0.657243 -0.135177 0
M  V30 2463 H 228.186 -2.03146 0.234973 0
M  V30 2464 H 226.341 -3.41662 -1.82609 0
M  V30 2465 H 226.755 -5.21729 -0.538469 0
M  V30 2466 H 228.229 -5.04509 -2.23997 0
M  V30 2467 H 228.706 -3.42655 -2.74744 0
M  V30 2468 H 229.312 -4.07802 -1.20737 0
M  V30 2469 N 227.627 0.131896 -1.57047 0
M  V30 2470 C 228.904 0.871495 -1.75112 0
M  V30 2471 C 229.284 1.9866 -0.713949 0
M  V30 2472 O 228.632 2.26965 0.264447 0
M  V30 2473 C 228.842 1.40007 -3.19686 0
M  V30 2474 C 230.19 1.85752 -3.81813 0
M  V30 2475 O 231.214 1.49715 -3.23209 0
M  V30 2476 O 230.073 2.5226 -4.84796 0
M  V30 2477 H 227.167 0.412919 -0.716538 0
M  V30 2478 H 229.713 0.116641 -1.69299 0
M  V30 2479 H 228.485 0.599404 -3.86682 0
M  V30 2480 H 228.108 2.218 -3.29986 0
M  V30 2481 N 229.106 1.52395 0.401703 0
M  V30 2482 C 230.334 1.70676 1.16949 0
M  V30 2483 C 230.749 0.419503 1.8408 0
M  V30 2484 O 230.106 -0.605061 1.72178 0
M  V30 2485 C 230.157 2.84753 2.22706 0
M  V30 2486 O 229.878 4.08495 1.58314 0
M  V30 2487 C 231.379 3.14608 3.12309 0
M  V30 2488 H 228.599 0.571787 0.351142 0
M  V30 2489 H 231.143 1.98987 0.471652 0
M  V30 2490 H 229.298 2.58941 2.88147 0
M  V30 2491 H 229.712 4.72117 2.28485 0
M  V30 2492 H 231.186 3.97923 3.82572 0
M  V30 2493 H 231.663 2.28464 3.75101 0
M  V30 2494 H 232.269 3.42212 2.52529 0
M  V30 2495 N 230.584 -0.659388 1.43143 0
M  V30 2496 C 231.547 -1.75432 1.47501 0
M  V30 2497 C 232.547 -1.56707 0.360512 0
M  V30 2498 O 233.737 -1.62717 0.622002 0
M  V30 2499 C 230.869 -3.14239 1.32162 0
M  V30 2500 H 232.062 -1.7295 2.45006 0
M  V30 2501 H 229.615 -0.870469 1.29817 0
M  V30 2502 H 230.35 -3.22336 0.356401 0
M  V30 2503 H 230.135 -3.29235 2.12948 0
M  V30 2504 H 231.625 -3.94094 1.3813 0
M  V30 2505 N 232.062 -1.29571 -0.897171 0
M  V30 2506 C 233.31 -1.17456 -1.64464 0
M  V30 2507 C 233.631 0.273698 -1.9307 0
M  V30 2508 O 232.901 1.18684 -1.55855 0
M  V30 2509 H 231.481 -0.431706 -0.609622 0
M  V30 2510 H 234.143 -1.62531 -1.07562 0
M  V30 2511 H 233.239 -1.72648 -2.59998 0
M  V30 2512 N 233.54 1.10788 -1.12088 0
M  V30 2513 C 234.45 2.20599 -0.798338 0
M  V30 2514 C 235.466 1.72712 0.21135 0
M  V30 2515 O 236.642 2.01348 0.0458477 0
M  V30 2516 C 233.707 3.45771 -0.253674 0
M  V30 2517 C 232.768 4.08411 -1.32283 0
M  V30 2518 C 232.001 5.27608 -0.80406 0
M  V30 2519 O 232.224 5.69241 0.363478 0
M  V30 2520 O 231.158 5.8101 -1.57198 0
M  V30 2521 H 234.984 2.50614 -1.7154 0
M  V30 2522 H 232.569 1.19454 -0.897275 0
M  V30 2523 H 234.451 4.21376 0.0453691 0
M  V30 2524 H 233.126 3.1739 0.636005 0
M  V30 2525 H 232.033 3.34507 -1.67499 0
M  V30 2526 H 233.366 4.40986 -2.18614 0
M  V30 2527 N 235.018 0.912232 1.28515 0
M  V30 2528 C 236.243 0.559774 1.99703 0
M  V30 2529 C 236.668 -0.851393 1.67729 0
M  V30 2530 O 236.026 -1.56875 0.908834 0
M  V30 2531 C 236.074 0.773874 3.52198 0
M  V30 2532 O 235.178 -0.167842 4.12058 0
M  V30 2533 H 234.519 0.21723 0.627461 0
M  V30 2534 H 237.049 1.22725 1.63706 0
M  V30 2535 H 237.059 0.683386 4.02236 0
M  V30 2536 H 235.734 1.80261 3.74805 0
M  V30 2537 H 234.311 -0.0287509 3.72889 0
M  V30 2538 N 236.496 -1.42363 0.676048 0
M  V30 2539 C 237.459 -2.29199 0.00766941 0
M  V30 2540 C 238.459 -1.43389 -0.727745 0
M  V30 2541 O 239.649 -1.64764 -0.56556 0
M  V30 2542 C 236.781 -3.2591 -0.999785 0
M  V30 2543 H 237.974 -2.89794 0.771988 0
M  V30 2544 H 235.527 -1.50024 0.438468 0
M  V30 2545 H 236.262 -2.70256 -1.79255 0
M  V30 2546 H 236.047 -3.89202 -0.475829 0
M  V30 2547 H 237.537 -3.91028 -1.46583 0
M  V30 2548 N 237.974 -0.419461 -1.51915 0
M  V30 2549 C 238.904 0.391813 -2.30189 0
M  V30 2550 C 239.885 1.03699 -1.34836 0
M  V30 2551 O 241.07 1.04403 -1.63748 0
M  V30 2552 C 238.2 1.50312 -3.13087 0
M  V30 2553 C 237.154 0.9824 -4.16573 0
M  V30 2554 C 236.48 2.18809 -4.8788 0
M  V30 2555 C 237.78 0.0292356 -5.22292 0
M  V30 2556 H 239.474 -0.26135 -2.98257 0
M  V30 2557 H 237.02 -0.127134 -1.43438 0
M  V30 2558 H 238.973 2.07773 -3.66617 0
M  V30 2559 H 237.697 2.18431 -2.42807 0
M  V30 2560 H 236.356 0.430119 -3.64068 0
M  V30 2561 H 236.004 2.85507 -4.14119 0
M  V30 2562 H 235.704 1.84615 -5.57845 0
M  V30 2563 H 237.228 2.76858 -5.44226 0
M  V30 2564 H 238.642 0.512976 -5.71 0
M  V30 2565 H 237.039 -0.2244 -5.9968 0
M  V30 2566 H 238.109 -0.912931 -4.76228 0
M  V30 2567 N 239.452 1.56882 -0.150215 0
M  V30 2568 C 240.863 1.82995 0.370076 0
M  V30 2569 C 241.214 1.06907 1.64515 0
M  V30 2570 O 240.339 0.315369 2.1409 0
M  V30 2571 C 240.934 3.31942 0.678208 0
M  V30 2572 C 239.493 3.58625 1.14301 0
M  V30 2573 C 238.64 2.76792 0.167778 0
M  V30 2574 H 241.591 1.54209 -0.374858 0
M  V30 2575 H 241.612 3.48272 1.53254 0
M  V30 2576 H 241.124 3.87294 -0.249991 0
M  V30 2577 H 239.225 3.08664 2.08704 0
M  V30 2578 H 239.338 4.67073 1.06676 0
M  V30 2579 H 237.702 2.45972 0.661037 0
M  V30 2580 H 238.485 3.34916 -0.754069 0
M  V30 2581 N 240.93 -0.123565 1.57115 0
M  V30 2582 C 242.158 -0.846461 1.88793 0
M  V30 2583 C 242.573 -1.73652 0.740976 0
M  V30 2584 O 241.93 -1.80207 -0.288393 0
M  V30 2585 C 241.981 -1.6837 3.19897 0
M  V30 2586 O 241.702 -0.829477 4.30176 0
M  V30 2587 C 243.203 -2.51214 3.65248 0
M  V30 2588 H 240.423 -0.243573 0.625231 0
M  V30 2589 H 242.967 -0.109324 2.04208 0
M  V30 2590 H 241.122 -2.37364 3.06165 0
M  V30 2591 H 241.536 -1.40651 5.0529 0
M  V30 2592 H 243.01 -3.05497 4.59756 0
M  V30 2593 H 243.487 -3.28359 2.9168 0
M  V30 2594 H 244.093 -1.8747 3.81752 0
M  V30 2595 N 242.408 -1.52605 -0.393616 0
M  V30 2596 C 243.341 -1.71798 -1.50202 0
M  V30 2597 C 244.319 -0.565743 -1.52441 0
M  V30 2598 O 245.503 -0.794987 -1.70916 0
M  V30 2599 C 242.63 -1.7714 -2.88685 0
M  V30 2600 C 241.676 -2.98845 -3.04292 0
M  V30 2601 S 242.509 -4.58909 -2.75976 0
M  V30 2602 C 243.665 -4.6706 -4.1666 0
M  V30 2603 H 243.898 -2.65542 -1.33696 0
M  V30 2604 H 241.431 -1.42839 -0.586195 0
M  V30 2605 H 243.389 -1.80903 -3.68489 0
M  V30 2606 H 242.05 -0.844969 -3.02521 0
M  V30 2607 H 241.243 -2.99111 -4.05646 0
M  V30 2608 H 240.845 -2.9305 -2.32374 0
M  V30 2609 H 243.137 -4.45391 -5.10523 0
M  V30 2610 H 244.08 -5.6905 -4.21412 0
M  V30 2611 H 244.488 -3.95944 -4.02354 0
M  V30 2612 N 243.887 0.651787 -1.4349 0
M  V30 2613 C 245.115 1.43937 -1.48626 0
M  V30 2614 C 245.53 1.8851 -0.104587 0
M  V30 2615 O 244.887 1.5958 0.885464 0
M  V30 2616 C 244.938 2.6734 -2.43334 0
M  V30 2617 O 244.659 2.24631 -3.76128 0
M  V30 2618 C 246.16 3.60683 -2.57726 0
M  V30 2619 H 243.38 0.44213 -0.504739 0
M  V30 2620 H 245.924 0.798944 -1.88248 0
M  V30 2621 H 244.079 3.2752 -2.06904 0
M  V30 2622 H 244.493 3.04485 -4.2707 0
M  V30 2623 H 245.967 4.43933 -3.28067 0
M  V30 2624 H 246.444 4.08126 -1.62265 0
M  V30 2625 H 247.05 3.06384 -2.94973 0
M  V30 2626 N 245.365 1.30045 0.890287 0
M  V30 2627 C 246.328 1.15963 1.977 0
M  V30 2628 C 247.328 0.0923777 1.60534 0
M  V30 2629 O 248.518 0.340071 1.70848 0
M  V30 2630 C 245.65 0.775451 3.31963 0
M  V30 2631 H 246.843 2.12502 2.11619 0
M  V30 2632 H 244.396 1.13366 1.07601 0
M  V30 2633 H 245.131 -0.189671 3.23745 0
M  V30 2634 H 244.916 1.54668 3.60306 0
M  V30 2635 H 246.406 0.700251 4.11687 0
M  V30 2636 N 246.843 -1.10192 1.12674 0
M  V30 2637 C 248.259 -1.34235 0.863317 0
M  V30 2638 C 248.459 -1.95062 -0.505277 0
M  V30 2639 O 247.515 -2.19192 -1.25345 0
M  V30 2640 C 248.828 -2.2616 1.98172 0
M  V30 2641 C 250.376 -2.3969 2.0129 0
M  V30 2642 C 250.851 -3.34946 3.1237 0
M  V30 2643 N 252.342 -3.42515 3.11829 0
M  V30 2644 C 253.077 -4.16199 3.94419 0
M  V30 2645 N 252.573 -4.92747 4.87004 0
M  V30 2646 N 254.366 -4.11843 3.82547 0
M  V30 2647 H 246.517 -0.690798 2.00853 0
M  V30 2648 H 248.78 -0.366774 0.874174 0
M  V30 2649 H 248.486 -1.8868 2.96804 0
M  V30 2650 H 248.36 -3.26488 1.88906 0
M  V30 2651 H 250.747 -2.76438 1.03276 0
M  V30 2652 H 250.828 -1.39169 2.14629 0
M  V30 2653 H 250.472 -2.98923 4.10619 0
M  V30 2654 H 250.402 -4.35353 2.96269 0
M  V30 2655 H 252.893 -2.87926 2.44759 0
M  V30 2656 H 253.206 -5.46376 5.46528 0
M  V30 2657 H 251.551 -4.91862 4.91016 0
M  V30 2658 H 254.742 -3.51136 3.0955 0
M  V30 2659 H 254.915 -4.69007 4.47142 0
M  V30 2660 N 248.321 -0.919034 -1.28029 0
M  V30 2661 C 249.253 -0.368762 -2.26214 0
M  V30 2662 C 250.266 0.495716 -1.55069 0
M  V30 2663 O 251.455 0.30974 -1.75792 0
M  V30 2664 C 248.555 0.491049 -3.35324 0
M  V30 2665 C 247.728 -0.352133 -4.3598 0
M  V30 2666 C 246.787 0.443622 -5.24327 0
M  V30 2667 O 245.813 -0.14566 -5.69014 0
M  V30 2668 N 247.015 1.74545 -5.53637 0
M  V30 2669 H 249.78 -1.21273 -2.74068 0
M  V30 2670 H 247.341 -0.785541 -1.41566 0
M  V30 2671 H 249.333 1.03026 -3.91366 0
M  V30 2672 H 247.903 1.23574 -2.87138 0
M  V30 2673 H 247.123 -1.07269 -3.79324 0
M  V30 2674 H 248.411 -0.928883 -5.00249 0
M  V30 2675 H 247.809 2.24666 -5.19174 0
M  V30 2676 H 246.366 2.23138 -6.12416 0
M  V30 2677 N 249.799 1.42003 -0.683588 0
M  V30 2678 C 251.215 1.55625 -0.353976 0
M  V30 2679 C 251.415 1.66151 1.14 0
M  V30 2680 O 250.471 1.63329 1.92561 0
M  V30 2681 C 251.784 2.80171 -1.092 0
M  V30 2682 C 253.332 2.93954 -1.07518 0
M  V30 2683 C 253.807 4.21372 -1.79471 0
M  V30 2684 N 255.298 4.28303 -1.76381 0
M  V30 2685 C 256.033 5.25729 -2.28904 0
M  V30 2686 N 255.529 6.29254 -2.89846 0
M  V30 2687 N 257.322 5.17586 -2.19228 0
M  V30 2688 H 249.473 1.33415 -1.6527 0
M  V30 2689 H 251.736 0.64282 -0.696769 0
M  V30 2690 H 251.442 2.78561 -2.14701 0
M  V30 2691 H 251.316 3.7133 -0.662862 0
M  V30 2692 H 253.703 2.95086 -0.028475 0
M  V30 2693 H 253.784 2.04002 -1.54328 0
M  V30 2694 H 253.428 4.21001 -2.84114 0
M  V30 2695 H 253.358 5.10275 -1.30104 0
M  V30 2696 H 255.849 3.54119 -1.31939 0
M  V30 2697 H 256.162 6.99964 -3.27522 0
M  V30 2698 H 254.507 6.29791 -2.93919 0
M  V30 2699 H 257.698 4.35631 -1.71299 0
M  V30 2700 H 257.871 5.93348 -2.60466 0
M  V30 2701 N 251.277 0.427512 1.51691 0
M  V30 2702 C 252.523 -0.142439 2.02299 0
M  V30 2703 C 252.856 -1.43214 1.31162 0
M  V30 2704 O 252.131 -1.89833 0.423511 0
M  V30 2705 C 252.414 -0.371301 3.58181 0
M  V30 2706 C 252.267 0.936358 4.39946 0
M  V30 2707 C 253.586 -1.14542 4.24933 0
M  V30 2708 H 250.705 -0.0502937 0.735282 0
M  V30 2709 H 253.347 0.564584 1.81418 0
M  V30 2710 H 251.497 -0.973559 3.76104 0
M  V30 2711 H 253.169 1.57184 4.33694 0
M  V30 2712 H 251.412 1.5432 4.05423 0
M  V30 2713 H 252.083 0.730388 5.47147 0
M  V30 2714 H 254.559 -0.635362 4.11221 0
M  V30 2715 H 253.435 -1.27431 5.33903 0
M  V30 2716 H 253.696 -2.17093 3.85127 0
M  V30 2717 N 252.755 -1.56801 0.158532 0
M  V30 2718 C 254.001 -1.97559 -0.483957 0
M  V30 2719 C 254.356 -1.04239 -1.61716 0
M  V30 2720 O 253.649 -0.079603 -1.91435 0
M  V30 2721 C 253.843 -3.4235 -1.02623 0
M  V30 2722 C 253.672 -4.49669 0.0528929 0
M  V30 2723 C 252.442 -5.02838 0.498234 0
M  V30 2724 C 254.64 -5.0725 0.848616 0
M  V30 2725 N 252.622 -5.93775 1.559 0
M  V30 2726 C 253.993 -5.94506 1.7596 0
M  V30 2727 C 256.048 -4.89788 0.895121 0
M  V30 2728 C 254.751 -6.66169 2.71314 0
M  V30 2729 C 256.777 -5.62161 1.83654 0
M  V30 2730 C 256.139 -6.49134 2.73503 0
M  V30 2731 H 252.238 -0.768332 -0.145566 0
M  V30 2732 H 254.822 -1.93012 0.255799 0
M  V30 2733 H 252.993 -3.47467 -1.73555 0
M  V30 2734 H 254.725 -3.70145 -1.63629 0
M  V30 2735 H 251.48 -4.73498 0.0983222 0
M  V30 2736 H 251.904 -6.43948 2.08949 0
M  V30 2737 H 256.546 -4.22255 0.21453 0
M  V30 2738 H 254.264 -7.32923 3.40367 0
M  V30 2739 H 257.85 -5.5064 1.87847 0
M  V30 2740 H 256.73 -7.04153 3.45163 0
M  V30 2741 N 254.233 0.115231 -1.57178 0
M  V30 2742 C 255.649 0.468877 -1.52557 0
M  V30 2743 C 255.849 1.81649 -0.872125 0
M  V30 2744 O 254.905 2.48347 -0.45606 0
M  V30 2745 C 256.218 0.4499 -2.97315 0
M  V30 2746 C 257.766 0.533185 -3.08425 0
M  V30 2747 C 258.241 0.54456 -4.54751 0
M  V30 2748 N 259.732 0.605892 -4.5922 0
M  V30 2749 C 260.467 0.636203 -5.6986 0
M  V30 2750 N 259.963 0.623931 -6.89985 0
M  V30 2751 N 261.756 0.679496 -5.57978 0
M  V30 2752 H 253.907 -0.767712 -1.9804 0
M  V30 2753 H 256.17 -0.283609 -0.904583 0
M  V30 2754 H 255.876 -0.472721 -3.48509 0
M  V30 2755 H 255.75 1.27632 -3.5495 0
M  V30 2756 H 258.137 1.44623 -2.57232 0
M  V30 2757 H 258.218 -0.320995 -2.53778 0
M  V30 2758 H 257.862 -0.364452 -5.06591 0
M  V30 2759 H 257.792 1.41568 -5.07214 0
M  V30 2760 H 260.283 0.621386 -3.72756 0
M  V30 2761 H 260.596 0.649787 -7.70063 0
M  V30 2762 H 258.941 0.591296 -6.9248 0
M  V30 2763 H 262.132 0.686472 -4.63039 0
M  V30 2764 H 262.305 0.69965 -6.44212 0
M  V30 2765 N 255.711 1.52812 0.385517 0
M  V30 2766 C 256.674 1.77188 1.45386 0
M  V30 2767 C 257.674 0.641953 1.4743 0
M  V30 2768 O 258.864 0.910033 1.4854 0
M  V30 2769 C 255.996 1.87582 2.8465 0
M  V30 2770 H 257.189 2.72583 1.25054 0
M  V30 2771 H 254.742 1.43586 0.617467 0
M  V30 2772 H 255.477 0.941849 3.10322 0
M  V30 2773 H 255.262 2.69748 2.84567 0
M  V30 2774 H 256.752 2.08102 3.62054 0
M  V30 2775 N 257.189 -0.644168 1.43834 0
M  V30 2776 C 258.436 -1.40395 1.4593 0
M  V30 2777 C 258.764 -1.94305 0.0869658 0
M  V30 2778 O 258.019 -1.73288 -0.909378 0
M  V30 2779 C 258.318 -2.59615 2.45631 0
M  V30 2780 C 257.984 -2.2407 3.91284 0
M  V30 2781 C 256.646 -2.14089 4.30952 0
M  V30 2782 C 258.998 -1.95775 4.83034 0
M  V30 2783 C 256.326 -1.73981 5.6031 0
M  V30 2784 C 258.678 -1.57163 6.12766 0
M  V30 2785 C 257.342 -1.45713 6.51402 0
M  V30 2786 H 256.612 -0.513741 0.533995 0
M  V30 2787 H 259.259 -0.731724 1.76969 0
M  V30 2788 H 257.564 -3.32011 2.08028 0
M  V30 2789 H 259.261 -3.17834 2.44504 0
M  V30 2790 H 255.851 -2.32753 3.59895 0
M  V30 2791 H 260.035 -2.02403 4.53152 0
M  V30 2792 H 255.291 -1.63709 5.89075 0
M  V30 2793 H 259.465 -1.34303 6.83327 0
M  V30 2794 H 257.092 -1.14406 7.51542 0
M  V30 2795 N 258.668 -1.30515 -0.883378 0
M  V30 2796 C 259.578 -1.18959 -2.02203 0
M  V30 2797 C 260.594 -0.109172 -1.73657 0
M  V30 2798 O 261.77 -0.324413 -1.9877 0
M  V30 2799 C 258.835 -0.883871 -3.35244 0
M  V30 2800 C 257.896 -2.04982 -3.77201 0
M  V30 2801 C 257.129 -1.75859 -5.03894 0
M  V30 2802 O 257.352 -0.687276 -5.66244 0
M  V30 2803 O 256.286 -2.61146 -5.42297 0
M  V30 2804 H 260.112 -2.14616 -2.1488 0
M  V30 2805 H 257.697 -1.10124 -1.0096 0
M  V30 2806 H 259.579 -0.728644 -4.15053 0
M  V30 2807 H 258.254 0.0427798 -3.23672 0
M  V30 2808 H 257.161 -2.26038 -2.9809 0
M  V30 2809 H 258.494 -2.95825 -3.93381 0
M  V30 2810 N 260.146 1.09593 -1.13257 0
M  V30 2811 C 261.094 2.18271 -0.803783 0
M  V30 2812 C 262.088 1.68054 0.213148 0
M  V30 2813 O 263.294 1.79862 0.0704699 0
M  V30 2814 H 259.669 0.711949 -0.242143 0
M  V30 2815 H 261.64 2.43235 -1.72856 0
M  V30 2816 C 260.389 3.46536 -0.28424 0
M  V30 2817 H 259.712 3.85545 -1.05807 0
M  V30 2818 H 261.152 4.23899 -0.0925945 0
M  V30 2819 C 259.611 3.22036 0.989684 0
M  V30 2820 O 260.141 3.44509 2.06584 0
M  V30 2821 N 258.347 2.7565 0.920086 0
M  V30 2822 H 257.894 2.57562 0.0442019 0
M  V30 2823 H 257.852 2.59635 1.77306 0
M  V30 2824 N 261.624 0.925811 1.2754 0
M  V30 2825 C 263.035 0.610102 1.7645 0
M  V30 2826 C 263.386 -0.874723 1.75622 0
M  V30 2827 O 262.511 -1.68444 1.35851 0
M  V30 2828 C 263.106 1.10073 3.20421 0
M  V30 2829 C 261.665 0.835723 3.67005 0
M  V30 2830 C 260.812 1.26054 2.46993 0
M  V30 2831 H 263.763 1.10579 1.13833 0
M  V30 2832 H 263.784 0.447557 3.77859 0
M  V30 2833 H 263.296 2.18143 3.20991 0
M  V30 2834 H 261.397 -0.231249 3.71882 0
M  V30 2835 H 261.51 1.45193 4.56569 0
M  V30 2836 H 259.874 0.679111 2.45479 0
M  V30 2837 H 260.657 2.34984 2.50275 0
M  V30 2838 N 263.102 -1.41638 0.69111 0
M  V30 2839 C 264.052 -2.28 -0.000107832 0
M  V30 2840 C 265.036 -1.41964 -0.757304 0
M  V30 2841 O 266.228 -1.65274 -0.633532 0
M  V30 2842 C 263.357 -3.30209 -0.938983 0
M  V30 2843 C 262.443 -4.23725 -0.17827 0
M  V30 2844 N 262.834 -4.99017 0.825563 0
M  V30 2845 C 261.132 -4.44071 -0.414392 0
M  V30 2846 C 261.833 -5.67431 1.28052 0
M  V30 2847 N 260.809 -5.40197 0.607304 0
M  V30 2848 H 264.611 -2.83644 0.769617 0
M  V30 2849 H 262.125 -1.53797 0.521562 0
M  V30 2850 H 264.122 -3.90898 -1.44929 0
M  V30 2851 H 262.782 -2.76126 -1.70836 0
M  V30 2852 H 263.793 -5.03671 1.20566 0
M  V30 2853 H 260.47 -4.01004 -1.162 0
M  V30 2854 H 261.86 -6.37801 2.11327 0
M  V30 2855 N 264.58 -0.43555 -1.51462 0
M  V30 2856 C 265.808 0.130242 -2.0649 0
M  V30 2857 C 266.223 1.36614 -1.30315 0
M  V30 2858 O 265.58 1.78869 -0.362223 0
M  V30 2859 C 265.631 0.454253 -3.58635 0
M  V30 2860 O 265.352 -0.73259 -4.31931 0
M  V30 2861 C 266.853 1.07091 -4.3017 0
M  V30 2862 H 264.073 0.00871669 -0.670943 0
M  V30 2863 H 266.617 -0.614117 -1.95061 0
M  V30 2864 H 264.772 1.14851 -3.69984 0
M  V30 2865 H 265.186 -0.455787 -5.22516 0
M  V30 2866 H 266.66 1.24764 -5.37716 0
M  V30 2867 H 267.137 2.05144 -3.88346 0
M  V30 2868 H 267.743 0.416089 -4.2326 0
M  V30 2869 N 266.058 1.56714 -0.166846 0
M  V30 2870 C 267.283 2.01557 0.488833 0
M  V30 2871 C 267.708 1.0463 1.56314 0
M  V30 2872 O 267.066 0.0251304 1.81283 0
M  V30 2873 C 267.114 3.4503 1.04818 0
M  V30 2874 O 266.218 3.51163 2.16236 0
M  V30 2875 H 265.559 0.653516 0.117526 0
M  V30 2876 H 268.089 2.02818 -0.269421 0
M  V30 2877 H 268.099 3.84243 1.37191 0
M  V30 2878 H 266.774 4.15077 0.261572 0
M  V30 2879 H 265.351 3.23807 1.84942 0
M  V30 2880 N 267.536 -0.106894 1.57237 0
M  V30 2881 C 268.764 -0.826389 1.8968 0
M  V30 2882 C 269.179 -1.72856 0.759353 0
M  V30 2883 O 268.536 -1.80503 -0.269263 0
M  V30 2884 C 268.587 -1.64967 3.21665 0
M  V30 2885 O 268.308 -0.783804 4.31031 0
M  V30 2886 C 269.809 -2.47326 3.67892 0
M  V30 2887 H 267.029 -0.236927 0.627779 0
M  V30 2888 H 269.573 -0.0876593 2.04312 0
M  V30 2889 H 267.728 -2.34103 3.08666 0
M  V30 2890 H 268.142 -1.35284 5.06753 0
M  V30 2891 H 269.616 -3.00604 4.6297 0
M  V30 2892 H 270.093 -3.25247 2.95146 0
M  V30 2893 H 270.699 -1.83411 3.83719 0
M  V30 2894 N 269.014 -1.53014 -0.377408 0
M  V30 2895 C 269.947 -1.73382 -1.48371 0
M  V30 2896 C 270.925 -0.581879 -1.51832 0
M  V30 2897 O 272.109 -0.81307 -1.70063 0
M  V30 2898 C 269.236 -1.80192 -2.8679 0
M  V30 2899 C 268.282 -3.02056 -3.01105 0
M  V30 2900 S 269.115 -4.61811 -2.71093 0
M  V30 2901 C 270.271 -4.71453 -4.11683 0
M  V30 2902 H 270.504 -2.66946 -1.30872 0
M  V30 2903 H 268.037 -1.43453 -0.571012 0
M  V30 2904 H 269.995 -1.84802 -3.6655 0
M  V30 2905 H 268.656 -0.877008 -3.01608 0
M  V30 2906 H 267.849 -3.03396 -4.02451 0
M  V30 2907 H 267.451 -2.95498 -2.29253 0
M  V30 2908 H 269.743 -4.50781 -5.0577 0
M  V30 2909 H 270.686 -5.73487 -4.15353 0
M  V30 2910 H 271.094 -4.00189 -3.98132 0
M  V30 2911 N 270.492 0.636531 -1.44174 0
M  V30 2912 C 271.455 1.73063 -1.50273 0
M  V30 2913 C 272.455 1.56113 -0.385397 0
M  V30 2914 O 273.645 1.61707 -0.64781 0
M  V30 2915 C 270.777 3.12096 -1.37145 0
M  V30 2916 H 271.97 1.69031 -2.47727 0
M  V30 2917 H 269.523 0.849706 -1.31186 0
M  V30 2918 H 270.258 3.21728 -0.407636 0
M  V30 2919 H 270.043 3.25805 -2.18159 0
M  V30 2920 H 271.533 3.91846 -1.44382 0
M  V30 2921 N 271.97 1.30982 0.876444 0
M  V30 2922 C 272.9 1.20668 1.99903 0
M  V30 2923 C 273.881 0.095354 1.69833 0
M  V30 2924 O 275.066 0.27885 1.92188 0
M  V30 2925 C 272.196 0.90655 3.3526 0
M  V30 2926 C 271.15 1.97675 3.79617 0
M  V30 2927 C 270.476 1.52943 5.1236 0
M  V30 2928 C 271.776 3.389 3.97422 0
M  V30 2929 H 273.47 2.14586 2.0879 0
M  V30 2930 H 271.016 1.03308 1.00317 0
M  V30 2931 H 272.969 0.821025 4.13324 0
M  V30 2932 H 271.693 -0.0682969 3.26529 0
M  V30 2933 H 270.352 2.05205 3.03787 0
M  V30 2934 H 270 0.54262 5.00065 0
M  V30 2935 H 269.7 2.24532 5.43009 0
M  V30 2936 H 271.224 1.45786 5.92941 0
M  V30 2937 H 272.638 3.34081 4.659 0
M  V30 2938 H 271.035 4.0865 4.3946 0
M  V30 2939 H 272.105 3.80163 3.01006 0
M  V30 2940 N 273.449 -1.08991 1.13837 0
M  V30 2941 C 274.695 -1.81526 0.90422 0
M  V30 2942 C 275.028 -1.85706 -0.568066 0
M  V30 2943 O 274.303 -1.32855 -1.42056 0
M  V30 2944 C 274.586 -3.27447 1.49835 0
M  V30 2945 C 274.439 -3.31512 3.04006 0
M  V30 2946 C 275.758 -4.24256 1.17025 0
M  V30 2947 H 272.877 -0.659029 0.329923 0
M  V30 2948 H 275.519 -1.27644 1.40737 0
M  V30 2949 H 273.669 -3.73462 1.07044 0
M  V30 2950 H 275.341 -2.93867 3.55584 0
M  V30 2951 H 273.584 -2.70963 3.38765 0
M  V30 2952 H 274.255 -4.34329 3.40679 0
M  V30 2953 H 276.731 -3.86549 1.54009 0
M  V30 2954 H 275.607 -5.24684 1.61237 0
M  V30 2955 H 275.868 -4.42019 0.0846274 0
M  V30 2956 N 274.927 -0.932562 -1.27047 0
M  V30 2957 C 276.174 -0.575559 -1.94148 0
M  V30 2958 C 276.502 0.883984 -1.73251 0
M  V30 2959 O 275.757 1.64655 -1.0577 0
M  V30 2960 C 276.056 -0.853713 -3.47054 0
M  V30 2961 C 275.722 -2.29577 -3.88079 0
M  V30 2962 C 274.384 -2.68999 -3.9899 0
M  V30 2963 C 276.736 -3.23331 -4.08787 0
M  V30 2964 C 274.064 -4.01289 -4.28 0
M  V30 2965 C 276.416 -4.55207 -4.39282 0
M  V30 2966 C 275.08 -4.94457 -4.48407 0
M  V30 2967 H 274.35 -0.210612 -0.710439 0
M  V30 2968 H 276.997 -1.17744 -1.51025 0
M  V30 2969 H 275.302 -0.169204 -3.91434 0
M  V30 2970 H 276.999 -0.55639 -3.97121 0
M  V30 2971 H 273.589 -1.97994 -3.80127 0
M  V30 2972 H 277.773 -2.94074 -3.99793 0
M  V30 2973 H 273.029 -4.31374 -4.33275 0
M  V30 2974 H 277.203 -5.27852 -4.54252 0
M  V30 2975 H 274.83 -5.96994 -4.7064 0
M  V30 2976 N 276.405 1.4127 -0.698611 0
M  V30 2977 C 277.635 2.05205 -0.239644 0
M  V30 2978 C 278.043 1.52684 1.11733 0
M  V30 2979 O 277.386 0.671222 1.70998 0
M  V30 2980 C 277.448 3.59289 -0.123126 0
M  V30 2981 C 277.112 4.34619 -1.41263 0
M  V30 2982 C 278.109 4.63701 -2.35111 0
M  V30 2983 C 275.794 4.73837 -1.66684 0
M  V30 2984 C 277.788 5.30966 -3.52639 0
M  V30 2985 C 275.475 5.40837 -2.84498 0
M  V30 2986 C 276.473 5.69329 -3.77298 0
M  V30 2987 O 276.161 6.34949 -4.93047 0
M  V30 2988 H 275.893 0.66723 -0.108537 0
M  V30 2989 H 278.447 1.81974 -0.952602 0
M  V30 2990 H 276.677 3.81272 0.645628 0
M  V30 2991 H 278.366 4.04797 0.299056 0
M  V30 2992 H 279.132 4.33882 -2.16729 0
M  V30 2993 H 275.011 4.51039 -0.953135 0
M  V30 2994 H 278.555 5.53121 -4.25091 0
M  V30 2995 H 274.452 5.70075 -3.02795 0
M  V30 2996 H 275.22 6.53445 -4.92902 0
M  V30 2997 N 277.883 0.443576 1.51229 0
M  V30 2998 C 279.113 -0.119117 2.06256 0
M  V30 2999 C 279.521 -1.36471 1.31043 0
M  V30 3000 O 278.864 -1.80034 0.365151 0
M  V30 3001 C 278.926 -0.500546 3.55998 0
M  V30 3002 C 278.59 0.639125 4.52509 0
M  V30 3003 C 279.587 1.51311 4.97394 0
M  V30 3004 C 277.272 0.821632 4.95535 0
M  V30 3005 C 279.266 2.55425 5.83984 0
M  V30 3006 C 276.953 1.86603 5.81913 0
M  V30 3007 C 277.951 2.73072 6.26036 0
M  V30 3008 O 277.639 3.75718 7.10698 0
M  V30 3009 H 277.371 -0.00857665 0.675946 0
M  V30 3010 H 279.925 0.623288 1.95715 0
M  V30 3011 H 278.155 -1.29575 3.64345 0
M  V30 3012 H 279.844 -0.995116 3.93513 0
M  V30 3013 H 280.61 1.38367 4.64844 0
M  V30 3014 H 276.489 0.158149 4.60729 0
M  V30 3015 H 280.033 3.22949 6.18344 0
M  V30 3016 H 275.93 1.99564 6.13876 0
M  V30 3017 H 276.698 3.72374 7.2889 0
M  V30 3018 N 279.361 -1.56624 0.175154 0
M  V30 3019 C 280.607 -1.9729 -0.469506 0
M  V30 3020 C 280.94 -1.06128 -1.62636 0
M  V30 3021 O 280.215 -0.109183 -1.94193 0
M  V30 3022 C 280.498 -3.47375 -0.948804 0
M  V30 3023 C 280.351 -4.49317 0.208491 0
M  V30 3024 C 281.67 -4.00652 -1.82116 0
M  V30 3025 H 278.789 -0.717317 -0.16919 0
M  V30 3026 H 281.431 -1.88184 0.262062 0
M  V30 3027 H 279.581 -3.55267 -1.57219 0
M  V30 3028 H 281.253 -4.53482 0.845682 0
M  V30 3029 H 279.496 -4.25121 0.863395 0
M  V30 3030 H 280.167 -5.51741 -0.169059 0
M  V30 3031 H 282.643 -3.95416 -1.2956 0
M  V30 3032 H 281.519 -5.06075 -2.12554 0
M  V30 3033 H 281.78 -3.44699 -2.7683 0
M  V30 3034 N 280.839 0.0985539 -1.57292 0
M  V30 3035 C 282.067 0.816318 -1.90115 0
M  V30 3036 C 282.482 1.72451 -0.768509 0
M  V30 3037 O 281.839 1.80643 0.259687 0
M  V30 3038 C 281.89 1.63259 -3.22535 0
M  V30 3039 O 281.611 0.760934 -4.31441 0
M  V30 3040 C 283.112 2.45372 -3.69199 0
M  V30 3041 H 280.332 0.233595 -0.629027 0
M  V30 3042 H 282.876 0.0768229 -2.04356 0
M  V30 3043 H 281.031 2.32463 -3.09903 0
M  V30 3044 H 281.445 1.32595 -5.07463 0
M  V30 3045 H 282.919 2.98144 -4.64558 0
M  V30 3046 H 283.396 3.23677 -2.96867 0
M  V30 3047 H 284.002 1.81373 -3.84687 0
M  V30 3048 N 282.317 1.53212 0.369288 0
M  V30 3049 C 283.565 1.68881 1.11012 0
M  V30 3050 C 283.886 0.441285 1.89941 0
M  V30 3051 O 283.156 -0.544623 1.88177 0
M  V30 3052 H 281.736 0.622569 0.412816 0
M  V30 3053 H 284.398 1.90391 0.416802 0
M  V30 3054 H 283.494 2.54822 1.80201 0
M  V30 3055 N 283.795 -0.628877 1.44509 0
M  V30 3056 C 285.042 -1.38839 1.47411 0
M  V30 3057 C 285.37 -1.94202 0.10757 0
M  V30 3058 O 284.625 -1.74243 -0.890947 0
M  V30 3059 C 284.924 -2.56995 2.48371 0
M  V30 3060 C 284.59 -2.19908 3.93639 0
M  V30 3061 C 283.252 -2.09506 4.33198 0
M  V30 3062 C 285.604 -1.9064 4.85083 0
M  V30 3063 C 282.932 -1.68028 5.62124 0
M  V30 3064 C 285.284 -1.50655 6.14399 0
M  V30 3065 C 283.948 -1.38796 6.5291 0
M  V30 3066 H 283.218 -0.508048 0.539414 0
M  V30 3067 H 285.865 -0.712913 1.77735 0
M  V30 3068 H 284.17 -3.29786 2.11538 0
M  V30 3069 H 285.867 -3.15223 2.47861 0
M  V30 3070 H 282.457 -2.28922 3.62343 0
M  V30 3071 H 286.641 -1.97585 4.55273 0
M  V30 3072 H 281.897 -1.57452 5.90778 0
M  V30 3073 H 286.071 -1.27048 6.84713 0
M  V30 3074 H 283.698 -1.06429 7.52713 0
M  V30 3075 N 285.273 -1.31445 -0.869486 0
M  V30 3076 C 286.52 -1.21158 -1.62256 0
M  V30 3077 C 286.848 0.230155 -1.93133 0
M  V30 3078 O 286.103 1.17906 -1.56194 0
M  V30 3079 C 286.402 -2.00145 -2.96102 0
M  V30 3080 C 286.068 -3.4964 -2.84715 0
M  V30 3081 C 284.73 -3.90403 -2.81317 0
M  V30 3082 C 287.082 -4.44769 -2.71716 0
M  V30 3083 C 284.41 -5.24561 -2.62778 0
M  V30 3084 C 286.762 -5.79054 -2.54714 0
M  V30 3085 C 285.426 -6.19037 -2.49699 0
M  V30 3086 H 284.696 -0.443348 -0.593737 0
M  V30 3087 H 287.343 -1.62715 -1.00976 0
M  V30 3088 H 285.648 -1.5127 -3.6142 0
M  V30 3089 H 287.345 -1.89566 -3.53363 0
M  V30 3090 H 283.935 -3.17256 -2.88178 0
M  V30 3091 H 288.119 -4.14208 -2.73397 0
M  V30 3092 H 283.375 -5.54613 -2.57321 0
M  V30 3093 H 287.549 -6.52393 -2.43632 0
M  V30 3094 H 285.176 -7.22935 -2.35093 0
M  V30 3095 N 286.751 1.08385 -1.14413 0
M  V30 3096 C 288 1.80153 -0.907076 0
M  V30 3097 C 288.313 1.87176 0.567851 0
M  V30 3098 O 289.519 2.55359 0.922172 0
M  V30 3099 C 287.975 3.23687 -1.57336 0
M  V30 3100 C 287.583 3.24897 -3.08457 0
M  V30 3101 C 289.327 4.00136 -1.41744 0
M  V30 3102 C 287.234 4.6302 -3.67921 0
M  V30 3103 H 286.164 0.675139 -0.335714 0
M  V30 3104 H 288.815 1.21733 -1.37307 0
M  V30 3105 H 287.197 3.82234 -1.03505 0
M  V30 3106 H 288.371 2.76055 -3.68958 0
M  V30 3107 H 286.686 2.61943 -3.2369 0
M  V30 3108 H 289.283 5.02201 -1.83572 0
M  V30 3109 H 289.626 4.14709 -0.363576 0
M  V30 3110 H 290.159 3.48058 -1.92614 0
M  V30 3111 H 286.898 4.5365 -4.73161 0
M  V30 3112 H 286.418 5.12143 -3.12201 0
M  V30 3113 H 288.097 5.31994 -3.68227 0
M  V30 3114 N 288.23 0.939286 1.26551 0
M  V30 3115 C 289.193 0.451987 2.24699 0
M  V30 3116 C 290.193 -0.435869 1.5478 0
M  V30 3117 O 291.383 -0.235314 1.72603 0
M  V30 3118 C 288.515 -0.348801 3.39111 0
M  V30 3119 H 289.708 1.3193 2.69322 0
M  V30 3120 H 287.261 0.721072 1.38673 0
M  V30 3121 H 287.996 -1.23444 2.99887 0
M  V30 3122 H 287.781 0.287945 3.91041 0
M  V30 3123 H 289.271 -0.679726 4.12031 0
M  V30 3124 N 289.708 -1.40897 0.706093 0
M  V30 3125 C 290.954 -2.01352 0.241889 0
M  V30 3126 C 291.287 -1.55832 -1.15888 0
M  V30 3127 O 290.562 -0.774145 -1.7843 0
M  V30 3128 C 290.845 -3.58752 0.311311 0
M  V30 3129 C 290.698 -4.1437 1.74978 0
M  V30 3130 C 292.017 -4.38914 -0.322922 0
M  V30 3131 H 289.136 -0.731562 0.0893687 0
M  V30 3132 H 291.778 -1.67504 0.896802 0
M  V30 3133 H 289.928 -3.87718 -0.246302 0
M  V30 3134 H 291.6 -3.96239 2.36205 0
M  V30 3135 H 289.843 -3.69016 2.28057 0
M  V30 3136 H 290.514 -5.23532 1.74981 0
M  V30 3137 H 292.99 -4.15822 0.152089 0
M  V30 3138 H 291.866 -5.48358 -0.243855 0
M  V30 3139 H 292.127 -4.19176 -1.40513 0
M  V30 3140 N 291.186 -0.45159 -1.50991 0
M  V30 3141 C 292.411 0.110667 -2.07105 0
M  V30 3142 C 292.836 1.3446 -1.31538 0
M  V30 3143 O 292.194 1.77743 -0.357365 0
M  V30 3144 C 292.242 0.397238 -3.58405 0
M  V30 3145 O 291.346 1.48124 -3.84881 0
M  V30 3146 H 290.687 -0.00439271 -0.663985 0
M  V30 3147 H 293.217 -0.637026 -1.9443 0
M  V30 3148 H 293.227 0.64351 -4.02893 0
M  V30 3149 H 291.902 -0.504553 -4.12828 0
M  V30 3150 H 290.479 1.22381 -3.52246 0
M  V30 3151 N 292.664 1.56529 -0.183458 0
M  V30 3152 C 293.91 1.97537 0.459036 0
M  V30 3153 C 294.243 1.06989 1.62071 0
M  V30 3154 O 293.518 0.11948 1.94133 0
M  V30 3155 C 293.801 3.47874 0.930368 0
M  V30 3156 C 293.654 4.492 -0.232317 0
M  V30 3157 C 294.973 4.01612 1.79989 0
M  V30 3158 H 292.092 0.718204 0.165383 0
M  V30 3159 H 294.734 1.88042 -0.272038 0
M  V30 3160 H 292.884 3.56095 1.55333 0
M  V30 3161 H 294.556 4.53027 -0.86972 0
M  V30 3162 H 292.799 4.24657 -0.885928 0
M  V30 3163 H 293.47 5.51823 0.139796 0
M  V30 3164 H 295.946 3.96097 1.27461 0
M  V30 3165 H 294.822 5.07195 2.09867 0
M  V30 3166 H 295.083 3.46163 2.74998 0
M  V30 3167 N 294.142 -0.090211 1.57342 0
M  V30 3168 C 295.391 -0.791531 1.8552 0
M  V30 3169 C 295.704 -1.79659 0.773441 0
M  V30 3170 O 296.91 -2.54616 0.942497 0
M  V30 3171 C 295.366 -1.45856 3.2902 0
M  V30 3172 C 294.974 -0.493017 4.45279 0
M  V30 3173 C 296.718 -2.14332 3.66418 0
M  V30 3174 C 294.625 -1.16491 5.79814 0
M  V30 3175 H 293.555 -0.299356 0.692027 0
M  V30 3176 H 296.206 -0.0445343 1.83446 0
M  V30 3177 H 294.588 -2.25318 3.2565 0
M  V30 3178 H 295.762 0.270464 4.60006 0
M  V30 3179 H 294.077 0.0863061 4.16311 0
M  V30 3180 H 296.674 -2.65344 4.64216 0
M  V30 3181 H 297.017 -2.93447 2.95287 0
M  V30 3182 H 297.55 -1.41724 3.71698 0
M  V30 3183 H 294.289 -0.41447 6.54188 0
M  V30 3184 H 293.809 -1.8997 5.68921 0
M  V30 3185 H 295.488 -1.69001 6.24538 0
M  V30 3186 N 295.62 -1.53406 -0.361157 0
M  V30 3187 C 296.583 -1.79479 -1.42548 0
M  V30 3188 C 297.583 -0.665327 -1.4639 0
M  V30 3189 O 298.773 -0.933549 -1.47073 0
M  V30 3190 C 295.905 -1.92087 -2.8163 0
M  V30 3191 H 297.098 -2.74538 -1.20701 0
M  V30 3192 H 294.651 -1.4455 -0.594546 0
M  V30 3193 H 295.386 -0.991099 -3.08784 0
M  V30 3194 H 295.171 -2.74241 -2.80239 0
M  V30 3195 H 296.661 -2.13836 -3.58697 0
M  V30 3196 N 297.098 0.621204 -1.44841 0
M  V30 3197 C 298.046 1.75385 -1.52784 0
M  V30 3198 C 299.04 1.64639 -0.398779 0
M  V30 3199 O 300.246 1.70598 -0.574137 0
M  V30 3200 H 296.621 0.579193 -0.479625 0
M  V30 3201 H 298.592 1.6581 -2.48092 0
M  V30 3202 C 297.341 3.13742 -1.4987 0
M  V30 3203 H 296.664 3.22663 -2.36069 0
M  V30 3204 H 298.104 3.92861 -1.59487 0
M  V30 3205 C 296.563 3.36175 -0.220973 0
M  V30 3206 O 297.093 3.95469 0.704782 0
M  V30 3207 N 295.299 2.90348 -0.120963 0
M  V30 3208 H 294.846 2.42278 -0.875162 0
M  V30 3209 H 294.804 3.05732 0.733168 0
M  V30 3210 N 298.576 1.31904 0.862503 0
M  V30 3211 C 299.822 1.22197 1.61851 0
M  V30 3212 C 300.155 -0.217641 1.92977 0
M  V30 3213 O 299.43 -1.15264 1.56666 0
M  V30 3214 C 299.713 2.07378 2.94391 0
M  V30 3215 C 299.566 3.59678 2.70096 0
M  V30 3216 C 300.885 1.92891 3.95577 0
M  V30 3217 H 298.004 0.445255 0.587296 0
M  V30 3218 H 300.646 1.6177 0.99651 0
M  V30 3219 H 298.796 1.73758 3.47477 0
M  V30 3220 H 300.468 4.03472 2.23625 0
M  V30 3221 H 298.711 3.82735 2.04197 0
M  V30 3222 H 299.382 4.14595 3.64438 0
M  V30 3223 H 301.858 2.22327 3.51724 0
M  V30 3224 H 300.734 2.54781 4.86187 0
M  V30 3225 H 300.995 0.894315 4.3296 0
M  V30 3226 N 300.054 -1.07777 1.14986 0
M  V30 3227 C 301.3 -1.80557 0.923422 0
M  V30 3228 C 301.633 -1.86298 -0.548337 0
M  V30 3229 O 300.908 -1.34354 -1.40639 0
M  V30 3230 C 301.191 -3.25839 1.53299 0
M  V30 3231 C 301.044 -3.28269 3.07505 0
M  V30 3232 C 302.363 -4.22991 1.21518 0
M  V30 3233 H 299.482 -0.655493 0.336894 0
M  V30 3234 H 302.124 -1.26144 1.42083 0
M  V30 3235 H 300.274 -3.72306 1.10999 0
M  V30 3236 H 301.946 -2.90079 3.58681 0
M  V30 3237 H 300.189 -2.67355 3.4162 0
M  V30 3238 H 300.86 -4.30691 3.45266 0
M  V30 3239 H 303.336 -3.84894 1.581 0
M  V30 3240 H 302.212 -5.22945 1.66793 0
M  V30 3241 H 302.473 -4.41904 0.131505 0
M  V30 3242 N 301.532 -0.945985 -1.26051 0
M  V30 3243 C 302.442 -0.465633 -2.29933 0
M  V30 3244 C 303.458 0.462761 -1.67733 0
M  V30 3245 O 304.634 0.341118 -1.9849 0
M  V30 3246 C 301.699 0.256994 -3.45746 0
M  V30 3247 C 300.76 -0.708549 -4.23412 0
M  V30 3248 C 299.993 -0.0203135 -5.33696 0
M  V30 3249 O 300.216 1.19571 -5.57726 0
M  V30 3250 O 299.15 -0.701459 -5.97799 0
M  V30 3251 H 302.976 -1.32866 -2.73094 0
M  V30 3252 H 300.561 -0.712071 -1.31339 0
M  V30 3253 H 302.443 0.663852 -4.16138 0
M  V30 3254 H 301.118 1.09533 -3.04605 0
M  V30 3255 H 300.025 -1.16545 -3.55483 0
M  V30 3256 H 301.358 -1.51465 -4.68315 0
M  V30 3257 N 303.011 1.40521 -0.713556 0
M  V30 3258 C 304.239 2.05237 -0.261775 0
M  V30 3259 C 304.654 1.53755 1.09567 0
M  V30 3260 O 304.011 0.693268 1.6882 0
M  V30 3261 C 304.062 3.60763 -0.230706 0
M  V30 3262 O 303.783 4.10345 -1.53455 0
M  V30 3263 C 305.284 4.42651 0.239874 0
M  V30 3264 H 302.504 0.660533 -0.118057 0
M  V30 3265 H 305.048 1.79967 -0.971192 0
M  V30 3266 H 303.203 3.8501 0.429661 0
M  V30 3267 H 303.617 5.04526 -1.43366 0
M  V30 3268 H 305.091 5.51599 0.210468 0
M  V30 3269 H 305.568 4.20082 1.28171 0
M  V30 3270 H 306.174 4.23507 -0.390142 0
M  V30 3271 N 304.489 0.459591 1.5075 0
M  V30 3272 C 305.735 -0.0994966 2.02556 0
M  V30 3273 C 306.068 -1.40399 1.3417 0
M  V30 3274 O 305.343 -1.88892 0.463683 0
M  V30 3275 C 305.626 -0.295242 3.58888 0
M  V30 3276 C 305.479 1.02947 4.37861 0
M  V30 3277 C 306.798 -1.05502 4.27267 0
M  V30 3278 H 303.917 -0.034686 0.736183 0
M  V30 3279 H 306.559 0.602938 1.8018 0
M  V30 3280 H 304.709 -0.893563 3.78084 0
M  V30 3281 H 306.381 1.66348 4.30263 0
M  V30 3282 H 304.624 1.62885 4.02058 0
M  V30 3283 H 305.295 0.846281 5.45474 0
M  V30 3284 H 307.771 -0.547993 4.12476 0
M  V30 3285 H 306.647 -1.16077 5.36486 0
M  V30 3286 H 306.908 -2.08875 3.89645 0
M  V30 3287 N 305.967 -1.56429 0.191757 0
M  V30 3288 C 307.378 -1.83912 -0.321428 0
M  V30 3289 C 307.729 -1.11231 -1.61623 0
M  V30 3290 O 306.854 -0.37202 -2.13178 0
M  V30 3291 C 307.449 -3.33624 -0.589961 0
M  V30 3292 C 306.008 -3.6153 -1.04753 0
M  V30 3293 C 305.155 -2.7714 -0.0943327 0
M  V30 3294 H 308.106 -1.53161 0.415612 0
M  V30 3295 H 308.127 -3.52213 -1.43966 0
M  V30 3296 H 307.639 -3.86495 0.352588 0
M  V30 3297 H 305.74 -3.14089 -2.00447 0
M  V30 3298 H 305.853 -4.69737 -0.942549 0
M  V30 3299 H 304.217 -2.47638 -0.595589 0
M  V30 3300 H 305 -3.32799 0.842601 0
M  V30 3301 N 307.445 0.0818655 -1.57387 0
M  V30 3302 C 308.685 0.788375 -1.88584 0
M  V30 3303 C 309.049 1.75248 -0.784351 0
M  V30 3304 O 310.25 2.50334 -0.979105 0
M  V30 3305 C 308.521 1.48654 -3.25018 0
M  V30 3306 S 310.08 2.22951 -3.7794 0
M  V30 3307 H 306.898 0.262383 -0.660815 0
M  V30 3308 H 309.5 0.0448995 -1.95448 0
M  V30 3309 H 308.204 0.770919 -4.03094 0
M  V30 3310 H 307.735 2.26965 -3.21326 0
M  V30 3311 H 309.75 3.49309 -3.52417 0
M  V30 3312 N 308.923 1.53595 0.353017 0
M  V30 3313 C 310.171 1.70049 1.09215 0
M  V30 3314 C 310.492 0.461406 1.89463 0
M  V30 3315 O 309.762 -0.524633 1.88744 0
M  V30 3316 H 308.342 0.626912 0.40619 0
M  V30 3317 H 311.004 1.90822 0.396585 0
M  V30 3318 H 310.1 2.56718 1.77488 0
M  V30 3319 N 310.401 -0.613514 1.45168 0
M  V30 3320 C 311.626 -1.40437 1.52618 0
M  V30 3321 C 312.051 -1.87438 0.157707 0
M  V30 3322 O 311.409 -1.59791 -0.856537 0
M  V30 3323 C 311.457 -2.58894 2.51011 0
M  V30 3324 O 310.561 -3.59326 2.02382 0
M  V30 3325 H 309.902 -0.419506 0.514695 0
M  V30 3326 H 312.432 -0.747215 1.90467 0
M  V30 3327 H 312.442 -3.06214 2.69624 0
M  V30 3328 H 311.117 -2.24032 3.50403 0
M  V30 3329 H 309.694 -3.18695 1.93618 0
M  V30 3330 N 311.879 -1.3236 -0.855495 0
M  V30 3331 C 313.104 -1.2601 -1.64731 0
M  V30 3332 C 313.529 0.169068 -1.87339 0
M  V30 3333 O 312.887 1.12016 -1.42556 0
M  V30 3334 C 312.935 -2.02417 -2.98429 0
M  V30 3335 O 312.039 -1.3714 -3.8893 0
M  V30 3336 H 311.38 -0.434325 -0.502253 0
M  V30 3337 H 313.91 -1.74661 -1.06558 0
M  V30 3338 H 313.92 -2.12559 -3.48257 0
M  V30 3339 H 312.595 -3.06343 -2.81295 0
M  V30 3340 H 311.172 -1.3554 -3.47395 0
M  V30 3341 N 313.357 1.07166 -1.15556 0
M  V30 3342 C 314.768 1.6127 -0.940693 0
M  V30 3343 C 315.119 1.89251 0.517551 0
M  V30 3344 O 314.244 1.65937 1.38903 0
M  V30 3345 C 314.839 2.92993 -1.7012 0
M  V30 3346 C 313.398 3.43832 -1.53156 0
M  V30 3347 C 312.545 2.1786 -1.71558 0
M  V30 3348 H 315.496 0.90229 -1.30554 0
M  V30 3349 H 315.517 3.62007 -1.17181 0
M  V30 3350 H 315.029 2.72596 -2.76248 0
M  V30 3351 H 313.13 3.69307 -0.494294 0
M  V30 3352 H 313.243 4.19747 -2.30975 0
M  V30 3353 H 311.607 2.2765 -1.14225 0
M  V30 3354 H 312.39 1.99956 -2.79056 0
M  V30 3355 N 314.835 0.952656 1.25548 0
M  V30 3356 C 316.083 0.605176 1.92826 0
M  V30 3357 C 316.404 -0.860261 1.74999 0
M  V30 3358 O 315.674 -1.6125 1.11244 0
M  V30 3359 H 314.254 0.220832 0.713612 0
M  V30 3360 H 316.916 1.21047 1.52754 0
M  V30 3361 H 316.012 0.832798 3.00784 0
M  V30 3362 N 316.313 -1.40141 0.720998 0
M  V30 3363 C 317.263 -2.27949 0.0482544 0
M  V30 3364 C 318.247 -1.43538 -0.727021 0
M  V30 3365 O 319.439 -1.6658 -0.598332 0
M  V30 3366 C 316.568 -3.32126 -0.868729 0
M  V30 3367 C 315.654 -4.24008 -0.0883515 0
M  V30 3368 N 316.045 -4.97154 0.931226 0
M  V30 3369 C 314.343 -4.4485 -0.320105 0
M  V30 3370 C 315.044 -5.64587 1.4006 0
M  V30 3371 N 314.02 -5.38787 0.721752 0
M  V30 3372 H 317.822 -2.81948 0.829609 0
M  V30 3373 H 315.336 -1.52656 0.554067 0
M  V30 3374 H 317.333 -3.93884 -1.36605 0
M  V30 3375 H 315.993 -2.79687 -1.6494 0
M  V30 3376 H 317.004 -5.01 1.31222 0
M  V30 3377 H 313.681 -4.03378 -1.07668 0
M  V30 3378 H 315.071 -6.33175 2.24808 0
M  V30 3379 N 317.792 -0.46758 -1.50504 0
M  V30 3380 C 319.041 0.0902868 -2.01498 0
M  V30 3381 C 319.354 1.411 -1.35463 0
M  V30 3382 O 320.56 2.0536 -1.77594 0
M  V30 3383 C 319.016 0.21142 -3.59278 0
M  V30 3384 C 318.624 -1.10065 -4.34269 0
M  V30 3385 C 320.368 0.721433 -4.18325 0
M  V30 3386 C 318.275 -0.943505 -5.83825 0
M  V30 3387 H 317.205 0.037517 -0.753066 0
M  V30 3388 H 319.856 -0.601943 -1.73346 0
M  V30 3389 H 318.238 0.967352 -3.84003 0
M  V30 3390 H 319.412 -1.86726 -4.21272 0
M  V30 3391 H 317.727 -1.5415 -3.86816 0
M  V30 3392 H 320.324 0.85598 -5.27804 0
M  V30 3393 H 320.667 1.71186 -3.79475 0
M  V30 3394 H 321.2 0.0229843 -3.97793 0
M  V30 3395 H 317.939 -1.90719 -6.27141 0
M  V30 3396 H 317.459 -0.217213 -5.99407 0
M  V30 3397 H 319.138 -0.608715 -6.4413 0
M  V30 3398 N 319.27 1.56325 -0.20005 0
M  V30 3399 C 320.217 2.1932 0.718833 0
M  V30 3400 C 321.187 1.14198 1.20615 0
M  V30 3401 O 322.372 1.42469 1.26914 0
M  V30 3402 C 319.512 2.86041 1.93066 0
M  V30 3403 C 318.625 4.05702 1.48425 0
M  V30 3404 C 317.76 4.60266 2.65196 0
M  V30 3405 C 316.799 5.72273 2.17185 0
M  V30 3406 N 315.936 6.21221 3.27152 0
M  V30 3407 H 320.776 2.97486 0.17489 0
M  V30 3408 H 318.313 1.46911 0.0745794 0
M  V30 3409 H 320.271 3.22897 2.64184 0
M  V30 3410 H 318.901 2.1043 2.44783 0
M  V30 3411 H 317.953 3.74475 0.668755 0
M  V30 3412 H 319.265 4.86699 1.09204 0
M  V30 3413 H 318.419 4.99453 3.4443 0
M  V30 3414 H 317.158 3.78386 3.07693 0
M  V30 3415 H 316.163 5.3261 1.36407 0
M  V30 3416 H 317.388 6.55974 1.75713 0
M  V30 3417 H 315.334 5.42263 3.69171 0
M  V30 3418 H 315.251 6.97284 2.92116 0
M  V30 3419 H 316.519 6.65063 4.06585 0
M  V30 3420 N 320.748 -0.0735177 1.57428 0
M  V30 3421 C 321.658 -1.10547 2.06922 0
M  V30 3422 C 322.674 -1.42506 0.998402 0
M  V30 3423 O 323.85 -1.52717 1.31299 0
M  V30 3424 C 320.915 -2.40019 2.50184 0
M  V30 3425 C 319.976 -2.15046 3.71556 0
M  V30 3426 C 319.209 -3.38345 4.12745 0
M  V30 3427 O 319.432 -4.47399 3.53822 0
M  V30 3428 O 318.366 -3.2666 5.05546 0
M  V30 3429 H 322.192 -0.715013 2.95163 0
M  V30 3430 H 319.777 -0.287531 1.46607 0
M  V30 3431 H 321.659 -3.16218 2.78539 0
M  V30 3432 H 320.334 -2.78447 1.65072 0
M  V30 3433 H 319.241 -1.36558 3.48285 0
M  V30 3434 H 320.574 -1.81499 4.57514 0
M  V30 3435 N 322.226 -1.5378 -0.344866 0
M  V30 3436 C 323.156 -1.84662 -1.42906 0
M  V30 3437 C 324.137 -0.701648 -1.54955 0
M  V30 3438 O 325.322 -0.953438 -1.69184 0
M  V30 3439 C 322.452 -2.05503 -2.79974 0
M  V30 3440 C 321.406 -3.21318 -2.82734 0
M  V30 3441 C 320.732 -3.2749 -4.22675 0
M  V30 3442 C 322.032 -4.59456 -2.48389 0
M  V30 3443 H 323.726 -2.75461 -1.17311 0
M  V30 3444 H 321.272 -1.32542 -0.562896 0
M  V30 3445 H 323.225 -2.25691 -3.55867 0
M  V30 3446 H 321.949 -1.11434 -3.07002 0
M  V30 3447 H 320.608 -3.00984 -2.09294 0
M  V30 3448 H 320.256 -2.31019 -4.4681 0
M  V30 3449 H 319.956 -4.05316 -4.25433 0
M  V30 3450 H 321.48 -3.49887 -5.00412 0
M  V30 3451 H 322.894 -4.79667 -3.13995 0
M  V30 3452 H 321.291 -5.39675 -2.62432 0
M  V30 3453 H 322.361 -4.63155 -1.4358 0
M  V30 3454 N 323.704 0.605807 -1.45491 0
M  V30 3455 C 325.115 1.18777 -1.44045 0
M  V30 3456 C 325.466 1.95471 -0.169001 0
M  V30 3457 O 324.591 2.0374 0.729324 0
M  V30 3458 C 325.186 2.16064 -2.60963 0
M  V30 3459 C 323.745 2.69633 -2.62631 0
M  V30 3460 C 322.892 1.45072 -2.36325 0
M  V30 3461 H 325.843 0.395017 -1.53705 0
M  V30 3462 H 325.864 2.9913 -2.35163 0
M  V30 3463 H 325.376 1.60217 -3.53486 0
M  V30 3464 H 323.477 3.29414 -1.74119 0
M  V30 3465 H 323.59 3.13944 -3.61906 0
M  V30 3466 H 321.954 1.74089 -1.85917 0
M  V30 3467 H 322.737 0.910899 -3.30995 0
M  V30 3468 N 325.182 1.32811 0.848464 0
M  V30 3469 C 326.422 1.25046 1.61687 0
M  V30 3470 C 326.786 -0.183464 1.91121 0
M  V30 3471 O 327.987 -0.384937 2.66029 0
M  V30 3472 C 326.258 2.09201 2.89775 0
M  V30 3473 S 327.817 2.18526 3.80515 0
M  V30 3474 H 324.635 0.445023 0.554505 0
M  V30 3475 H 327.237 1.67733 1.00429 0
M  V30 3476 H 325.941 3.12433 2.66108 0
M  V30 3477 H 325.472 1.67315 3.56047 0
M  V30 3478 H 327.487 1.3393 4.77784 0
M  V30 3479 N 326.66 -1.06551 1.16123 0
M  V30 3480 C 327.908 -1.78947 0.939267 0
M  V30 3481 C 328.229 -1.87532 -0.534476 0
M  V30 3482 O 327.499 -1.38211 -1.38833 0
M  V30 3483 H 326.079 -0.662807 0.344523 0
M  V30 3484 H 328.741 -1.28725 1.46342 0
M  V30 3485 H 327.837 -2.81117 1.35572 0
M  V30 3486 N 328.138 -0.959301 -1.25041 0
M  V30 3487 C 329.048 -0.489994 -2.29426 0
M  V30 3488 C 330.064 0.444944 -1.68215 0
M  V30 3489 O 331.24 0.320046 -1.98841 0
M  V30 3490 C 328.305 0.220309 -3.45999 0
M  V30 3491 C 327.366 -0.753418 -4.22637 0
M  V30 3492 C 326.599 -0.076918 -5.33645 0
M  V30 3493 O 326.822 1.13649 -5.58963 0
M  V30 3494 O 325.756 -0.764824 -5.97021 0
M  V30 3495 H 329.582 -1.35755 -2.71669 0
M  V30 3496 H 327.167 -0.725961 -1.30576 0
M  V30 3497 H 329.049 0.619677 -4.16819 0
M  V30 3498 H 327.724 1.06296 -3.0575 0
M  V30 3499 H 326.631 -1.20308 -3.54227 0
M  V30 3500 H 327.964 -1.56423 -4.66683 0
M  V30 3501 N 329.616 1.39756 -0.72842 0
M  V30 3502 C 331.032 1.5442 -0.403308 0
M  V30 3503 C 331.232 1.69694 1.08656 0
M  V30 3504 O 330.288 1.69373 1.87267 0
M  V30 3505 C 331.601 2.76555 -1.18058 0
M  V30 3506 C 333.149 2.90384 -1.16815 0
M  V30 3507 C 333.624 4.15449 -1.92785 0
M  V30 3508 N 335.115 4.22475 -1.89918 0
M  V30 3509 C 335.85 5.1818 -2.45514 0
M  V30 3510 N 335.346 6.19714 -3.09719 0
M  V30 3511 N 337.139 5.1035 -2.35584 0
M  V30 3512 H 329.29 1.28089 -1.69431 0
M  V30 3513 H 331.553 0.620327 -0.716867 0
M  V30 3514 H 331.259 2.7159 -2.23455 0
M  V30 3515 H 331.133 3.69033 -0.780662 0
M  V30 3516 H 333.52 2.94846 -0.12234 0
M  V30 3517 H 333.601 1.98988 -1.6074 0
M  V30 3518 H 333.245 4.11749 -2.97364 0
M  V30 3519 H 333.175 5.05877 -1.46272 0
M  V30 3520 H 335.666 3.49743 -1.43138 0
M  V30 3521 H 335.979 6.8919 -3.49625 0
M  V30 3522 H 334.324 6.20121 -3.13807 0
M  V30 3523 H 337.515 4.2996 -1.85072 0
M  V30 3524 H 337.688 5.84761 -2.79211 0
M  V30 3525 N 331.094 0.475555 1.50254 0
M  V30 3526 C 332.324 -0.0753399 2.06463 0
M  V30 3527 C 332.732 -1.33661 1.33908 0
M  V30 3528 O 332.075 -1.79219 0.403257 0
M  V30 3529 C 332.137 -0.424921 3.5698 0
M  V30 3530 C 331.801 0.734965 4.51051 0
M  V30 3531 C 332.798 1.61827 4.94073 0
M  V30 3532 C 330.483 0.926557 4.9368 0
M  V30 3533 C 332.477 2.67754 5.78434 0
M  V30 3534 C 330.164 1.98904 5.77824 0
M  V30 3535 C 331.162 2.8629 6.20103 0
M  V30 3536 O 330.85 3.90708 7.02568 0
M  V30 3537 H 330.582 0.00576308 0.675975 0
M  V30 3538 H 333.136 0.664662 1.94349 0
M  V30 3539 H 331.366 -1.21817 3.67012 0
M  V30 3540 H 333.055 -0.911422 3.95535 0
M  V30 3541 H 333.821 1.48196 4.61804 0
M  V30 3542 H 329.7 0.25584 4.6029 0
M  V30 3543 H 333.244 3.35992 6.11355 0
M  V30 3544 H 329.141 2.12541 6.09505 0
M  V30 3545 H 329.909 3.87751 7.20827 0
M  V30 3546 N 332.573 -1.56217 0.208337 0
M  V30 3547 C 333.536 -2.18455 -0.693557 0
M  V30 3548 C 334.536 -1.14268 -1.13135 0
M  V30 3549 O 335.726 -1.39577 -1.0423 0
M  V30 3550 C 332.858 -2.79727 -1.94848 0
M  V30 3551 H 334.051 -2.99519 -0.15114 0
M  V30 3552 H 331.604 -1.56245 -0.041287 0
M  V30 3553 H 332.339 -2.02497 -2.53309 0
M  V30 3554 H 332.124 -3.56009 -1.64316 0
M  V30 3555 H 333.614 -3.27475 -2.59133 0
M  V30 3556 N 334.051 0.0651679 -1.57465 0
M  V30 3557 C 335.297 0.764193 -1.87851 0
M  V30 3558 C 335.63 1.76889 -0.801495 0
M  V30 3559 O 334.905 1.93594 0.187528 0
M  V30 3560 C 335.188 1.46625 -3.28897 0
M  V30 3561 C 335.041 0.477515 -4.47258 0
M  V30 3562 C 336.36 2.4095 -3.68281 0
M  V30 3563 H 333.479 0.276351 -0.683227 0
M  V30 3564 H 336.121 0.0272868 -1.8998 0
M  V30 3565 H 334.271 2.09438 -3.27212 0
M  V30 3566 H 335.943 -0.145922 -4.61069 0
M  V30 3567 H 334.186 -0.206576 -4.33308 0
M  V30 3568 H 334.857 1.0065 -5.42746 0
M  V30 3569 H 337.333 1.88209 -3.71102 0
M  V30 3570 H 336.209 2.87072 -4.67847 0
M  V30 3571 H 336.47 3.26049 -2.98571 0
M  V30 3572 N 335.529 1.53961 0.336706 0
M  V30 3573 C 336.492 1.81724 1.39675 0
M  V30 3574 C 337.492 0.688532 1.45313 0
M  V30 3575 O 338.682 0.956829 1.45569 0
M  V30 3576 C 335.814 1.96543 2.78538 0
M  V30 3577 H 337.007 2.76424 1.16318 0
M  V30 3578 H 334.56 1.45478 0.571474 0
M  V30 3579 H 335.295 1.0401 3.07168 0
M  V30 3580 H 335.08 2.78665 2.75841 0
M  V30 3581 H 336.57 2.19516 3.5525 0
M  V30 3582 N 337.007 -0.598083 1.45811 0
M  V30 3583 C 338.254 -1.35681 1.50323 0
M  V30 3584 C 338.582 -1.9393 0.148739 0
M  V30 3585 O 337.837 -1.76094 -0.853787 0
M  V30 3586 C 338.136 -2.51669 2.53766 0
M  V30 3587 C 337.802 -2.11508 3.98215 0
M  V30 3588 C 336.464 -2.0027 4.37545 0
M  V30 3589 C 338.816 -1.80308 4.89018 0
M  V30 3590 C 336.144 -1.56067 5.65562 0
M  V30 3591 C 338.496 -1.37589 6.17456 0
M  V30 3592 C 337.16 -1.24916 6.55708 0
M  V30 3593 H 336.43 -0.496492 0.550069 0
M  V30 3594 H 339.077 -0.675052 1.79207 0
M  V30 3595 H 337.382 -3.25225 2.18486 0
M  V30 3596 H 339.079 -3.09895 2.54492 0
M  V30 3597 H 335.669 -2.21185 3.67117 0
M  V30 3598 H 339.853 -1.87884 4.59362 0
M  V30 3599 H 335.109 -1.44886 5.93985 0
M  V30 3600 H 339.283 -1.12495 6.87254 0
M  V30 3601 H 336.91 -0.904386 7.54801 0
M  V30 3602 N 338.485 -1.33259 -0.841409 0
M  V30 3603 C 339.732 -1.24572 -1.5965 0
M  V30 3604 C 340.06 0.189137 -1.93578 0
M  V30 3605 O 339.315 1.14566 -1.5866 0
M  V30 3606 C 339.614 -2.06381 -2.9179 0
M  V30 3607 C 339.28 -3.556 -2.77235 0
M  V30 3608 C 337.942 -3.96282 -2.72973 0
M  V30 3609 C 340.294 -4.50433 -2.62221 0
M  V30 3610 C 337.622 -5.30017 -2.51592 0
M  V30 3611 C 339.974 -5.84327 -2.42374 0
M  V30 3612 C 338.638 -6.24194 -2.36512 0
M  V30 3613 H 337.908 -0.455842 -0.5842 0
M  V30 3614 H 340.555 -1.6482 -0.975016 0
M  V30 3615 H 338.86 -1.58903 -3.5813 0
M  V30 3616 H 340.557 -1.97019 -3.49263 0
M  V30 3617 H 337.147 -3.23298 -2.81384 0
M  V30 3618 H 341.331 -4.19914 -2.64549 0
M  V30 3619 H 336.587 -5.59947 -2.45499 0
M  V30 3620 H 340.761 -6.57414 -2.29739 0
M  V30 3621 H 338.388 -7.27759 -2.19706 0
M  V30 3622 N 339.963 1.05934 -1.16686 0
M  V30 3623 C 341.203 1.80382 -0.961345 0
M  V30 3624 C 341.567 1.85331 0.501643 0
M  V30 3625 O 342.768 2.55795 0.825986 0
M  V30 3626 C 341.039 3.20777 -1.57596 0
M  V30 3627 S 342.598 4.11795 -1.51559 0
M  V30 3628 H 339.416 0.621332 -0.345641 0
M  V30 3629 H 342.018 1.27157 -1.48497 0
M  V30 3630 H 340.722 3.14773 -2.63337 0
M  V30 3631 H 340.253 3.79078 -1.05182 0
M  V30 3632 H 342.268 4.93485 -0.518374 0
M  V30 3633 N 341.441 0.965919 1.2453 0
M  V30 3634 C 342.371 0.513476 2.27784 0
M  V30 3635 C 343.352 -0.445974 1.6415 0
M  V30 3636 O 344.537 -0.342485 1.91156 0
M  V30 3637 C 341.667 -0.198839 3.4673 0
M  V30 3638 C 340.621 0.676456 4.2262 0
M  V30 3639 C 339.947 -0.167248 5.34438 0
M  V30 3640 C 341.247 1.96017 4.84123 0
M  V30 3641 H 342.941 1.3765 2.65881 0
M  V30 3642 H 340.487 0.663321 1.27813 0
M  V30 3643 H 342.44 -0.526567 4.18097 0
M  V30 3644 H 341.164 -1.0962 3.07654 0
M  V30 3645 H 339.823 0.98743 3.53052 0
M  V30 3646 H 339.471 -1.0647 4.91603 0
M  V30 3647 H 339.171 0.415181 5.86131 0
M  V30 3648 H 340.695 -0.489688 6.08633 0
M  V30 3649 H 342.109 1.69814 5.47573 0
M  V30 3650 H 340.506 2.48918 5.4604 0
M  V30 3651 H 341.576 2.65622 4.05676 0
M  V30 3652 N 342.919 -1.39368 0.735821 0
M  V30 3653 C 344.196 -1.94465 0.210395 0
M  V30 3654 C 344.576 -1.67254 -1.28799 0
M  V30 3655 O 343.924 -1.00123 -2.05396 0
M  V30 3656 C 344.134 -3.4472 0.544897 0
M  V30 3657 C 345.482 -4.21708 0.494689 0
M  V30 3658 O 346.506 -3.52922 0.482136 0
M  V30 3659 O 345.365 -5.44299 0.489947 0
M  V30 3660 H 342.459 -0.826096 0.0386666 0
M  V30 3661 H 345.005 -1.48863 0.814735 0
M  V30 3662 H 343.777 -3.57963 1.58045 0
M  V30 3663 H 343.4 -3.97502 -0.08837 0
M  V30 3664 N 344.397 -0.483516 -1.5 0
M  V30 3665 C 345.625 0.0644831 -2.06799 0
M  V30 3666 C 346.04 1.32399 -1.34596 0
M  V30 3667 O 345.397 1.77626 -0.418946 0
M  V30 3668 C 345.448 0.339927 -3.59898 0
M  V30 3669 O 345.169 -0.869635 -4.29382 0
M  V30 3670 C 346.67 0.933515 -4.33359 0
M  V30 3671 H 343.89 -0.0126333 -0.670881 0
M  V30 3672 H 346.434 -0.675864 -1.93009 0
M  V30 3673 H 344.589 1.03022 -3.7345 0
M  V30 3674 H 345.003 -0.62179 -5.20801 0
M  V30 3675 H 346.477 1.07593 -5.41413 0
M  V30 3676 H 346.954 1.92685 -3.94676 0
M  V30 3677 H 347.56 0.281221 -4.24369 0
M  V30 3678 N 345.875 1.56104 -0.216619 0
M  V30 3679 C 346.838 2.18819 0.681962 0
M  V30 3680 C 347.838 1.14866 1.12528 0
M  V30 3681 O 349.028 1.40128 1.03488 0
M  V30 3682 C 346.16 2.80756 1.93362 0
M  V30 3683 H 347.353 2.99595 0.135254 0
M  V30 3684 H 344.906 1.56265 0.0330003 0
M  V30 3685 H 345.641 2.03837 2.52232 0
M  V30 3686 H 345.426 3.56876 1.62426 0
M  V30 3687 H 346.916 3.28844 2.57393 0
M  V30 3688 N 347.353 -0.0568162 1.57498 0
M  V30 3689 C 348.593 -0.758273 1.89815 0
M  V30 3690 C 348.957 -1.73978 0.812132 0
M  V30 3691 O 350.158 -2.48744 1.01881 0
M  V30 3692 C 348.429 -1.43465 3.27342 0
M  V30 3693 S 349.988 -2.1691 3.81439 0
M  V30 3694 H 346.806 -0.251836 0.664906 0
M  V30 3695 H 349.408 -0.0137997 1.95495 0
M  V30 3696 H 348.112 -0.706693 4.0427 0
M  V30 3697 H 347.643 -2.21825 3.24896 0
M  V30 3698 H 349.658 -3.43658 3.5793 0
M  V30 3699 N 348.832 -1.54138 -0.328536 0
M  V30 3700 C 350.078 -1.7236 -1.06865 0
M  V30 3701 C 350.411 -0.493231 -1.87832 0
M  V30 3702 O 349.686 0.5098 -1.877 0
M  V30 3703 C 349.969 -2.99621 -1.99747 0
M  V30 3704 C 349.822 -4.32899 -1.22143 0
M  V30 3705 C 351.141 -3.22615 -2.99345 0
M  V30 3706 H 348.26 -0.627151 -0.387105 0
M  V30 3707 H 350.902 -1.86827 -0.345767 0
M  V30 3708 H 349.052 -2.87418 -2.61387 0
M  V30 3709 H 350.724 -4.56978 -0.630017 0
M  V30 3710 H 348.967 -4.30628 -0.523628 0
M  V30 3711 H 349.638 -5.18154 -1.90318 0
M  V30 3712 H 352.114 -3.34248 -2.47826 0
M  V30 3713 H 350.99 -4.13027 -3.61524 0
M  V30 3714 H 351.251 -2.3961 -3.71536 0
M  V30 3715 N 350.31 0.590341 -1.46126 0
M  V30 3716 C 351.243 1.71434 -1.50617 0
M  V30 3717 C 352.221 1.58543 -0.360948 0
M  V30 3718 O 353.405 1.79865 -0.563985 0
M  V30 3719 C 350.532 3.09422 -1.37753 0
M  V30 3720 C 349.578 3.40854 -2.5636 0
M  V30 3721 S 350.411 3.33773 -4.18755 0
M  V30 3722 C 351.567 4.74312 -4.08386 0
M  V30 3723 H 351.8 1.67364 -2.45717 0
M  V30 3724 H 349.333 0.76845 -1.33919 0
M  V30 3725 H 351.291 3.8903 -1.31018 0
M  V30 3726 H 349.952 3.10989 -0.440949 0
M  V30 3727 H 349.145 4.41368 -2.43332 0
M  V30 3728 H 348.747 2.68798 -2.60046 0
M  V30 3729 H 351.039 5.64522 -3.74595 0
M  V30 3730 H 351.982 4.92397 -5.08872 0
M  V30 3731 H 352.39 4.50803 -3.3976 0
M  V30 3732 N 351.788 1.33704 0.83433 0
M  V30 3733 C 353.037 1.24763 1.58484 0
M  V30 3734 C 353.35 -0.183775 1.94735 0
M  V30 3735 O 354.556 -0.395234 2.68608 0
M  V30 3736 C 353.012 2.18638 2.85876 0
M  V30 3737 C 352.62 3.66974 2.56971 0
M  V30 3738 C 354.364 2.18581 3.63899 0
M  V30 3739 C 352.271 4.5275 3.80488 0
M  V30 3740 H 351.201 0.463425 0.594772 0
M  V30 3741 H 353.852 1.58797 0.919551 0
M  V30 3742 H 352.234 1.77542 3.5397 0
M  V30 3743 H 353.408 4.16538 1.9706 0
M  V30 3744 H 351.723 3.69366 1.92244 0
M  V30 3745 H 354.32 2.79894 4.55591 0
M  V30 3746 H 354.663 1.18207 3.99165 0
M  V30 3747 H 355.196 2.58062 3.02735 0
M  V30 3748 H 351.935 5.54017 3.5035 0
M  V30 3749 H 351.455 4.07927 4.39722 0
M  V30 3750 H 353.134 4.66784 4.4802 0
M  V30 3751 N 353.266 -1.05314 1.17247 0
M  V30 3752 C 354.513 -1.78293 0.960091 0
M  V30 3753 C 354.841 -1.87658 -0.51136 0
M  V30 3754 O 354.096 -1.3718 -1.39571 0
M  V30 3755 C 354.395 -3.2229 1.54479 0
M  V30 3756 C 354.061 -3.32987 3.04024 0
M  V30 3757 C 352.723 -3.35613 3.44844 0
M  V30 3758 C 355.075 -3.34102 4.00031 0
M  V30 3759 C 352.403 -3.36982 4.8027 0
M  V30 3760 C 354.755 -3.3701 5.35357 0
M  V30 3761 C 353.419 -3.37923 5.75642 0
M  V30 3762 H 352.689 -0.652422 0.351322 0
M  V30 3763 H 355.336 -1.23782 1.46117 0
M  V30 3764 H 353.641 -3.7972 0.965391 0
M  V30 3765 H 355.338 -3.77376 1.35603 0
M  V30 3766 H 351.928 -3.31655 2.71483 0
M  V30 3767 H 356.112 -3.31276 3.69554 0
M  V30 3768 H 351.368 -3.35999 5.10798 0
M  V30 3769 H 355.542 -3.36822 6.09528 0
M  V30 3770 H 353.169 -3.38738 6.80559 0
M  V30 3771 N 354.744 -0.972509 -1.24016 0
M  V30 3772 C 355.972 -0.654803 -1.96265 0
M  V30 3773 C 356.387 0.776708 -1.72083 0
M  V30 3774 O 355.744 1.52171 -1.00748 0
M  V30 3775 C 355.795 -0.92592 -3.49441 0
M  V30 3776 O 355.516 -2.30116 -3.72798 0
M  V30 3777 C 357.017 -0.623068 -4.38899 0
M  V30 3778 H 354.237 -0.243907 -0.6251 0
M  V30 3779 H 356.781 -1.30175 -1.57717 0
M  V30 3780 H 354.936 -0.325108 -3.86033 0
M  V30 3781 H 355.35 -2.38483 -4.67147 0
M  V30 3782 H 356.824 -0.863189 -5.45209 0
M  V30 3783 H 357.301 0.442754 -4.36963 0
M  V30 3784 H 357.907 -1.204 -4.07902 0
M  V30 3785 N 356.222 1.38976 -0.743202 0
M  V30 3786 C 357.468 2.0064 -0.295189 0
M  V30 3787 C 357.801 1.5885 1.11716 0
M  V30 3788 O 357.076 0.821181 1.76315 0
M  V30 3789 C 357.359 3.578 -0.406318 0
M  V30 3790 C 357.212 4.09586 -1.85903 0
M  V30 3791 C 358.531 4.39616 0.206439 0
M  V30 3792 H 355.65 0.728935 -0.108733 0
M  V30 3793 H 358.292 1.65067 -0.940897 0
M  V30 3794 H 356.442 3.88235 0.143419 0
M  V30 3795 H 358.114 3.89837 -2.46627 0
M  V30 3796 H 356.357 3.6284 -2.3776 0
M  V30 3797 H 357.028 5.18708 -1.888 0
M  V30 3798 H 359.504 4.15273 -0.262283 0
M  V30 3799 H 358.38 5.48812 0.0983819 0
M  V30 3800 H 358.641 4.22754 1.2935 0
M  V30 3801 N 357.7 0.491464 1.49741 0
M  V30 3802 C 358.61 -0.296835 2.32715 0
M  V30 3803 C 359.626 -0.976536 1.44013 0
M  V30 3804 O 360.802 -0.960023 1.77047 0
M  V30 3805 C 357.867 -1.35288 3.19215 0
M  V30 3806 C 356.928 -0.687632 4.23757 0
M  V30 3807 C 356.161 -1.69336 5.06123 0
M  V30 3808 O 356.384 -2.92219 4.89861 0
M  V30 3809 O 355.318 -1.25394 5.88693 0
M  V30 3810 H 359.144 0.382048 3.01287 0
M  V30 3811 H 356.729 0.252953 1.47243 0
M  V30 3812 H 358.611 -1.96411 3.72828 0
M  V30 3813 H 357.286 -2.01487 2.53347 0
M  V30 3814 H 356.193 -0.0369159 3.74082 0
M  V30 3815 H 357.526 -0.0682566 4.92153 0
M  V30 3816 N 359.178 -1.55987 0.224894 0
M  V30 3817 C 360.408 -2.02489 -0.41007 0
M  V30 3818 C 360.816 -1.10391 -1.53657 0
M  V30 3819 O 360.159 -0.106458 -1.83391 0
M  V30 3820 C 360.221 -3.45319 -0.999757 0
M  V30 3821 C 359.885 -4.56999 -0.00827976 0
M  V30 3822 C 360.882 -5.13812 0.793314 0
M  V30 3823 C 358.567 -5.02176 0.111442 0
M  V30 3824 C 360.561 -6.14276 1.7013 0
M  V30 3825 C 358.248 -6.02477 1.02296 0
M  V30 3826 C 359.246 -6.58403 1.81643 0
M  V30 3827 O 358.934 -7.56751 2.71262 0
M  V30 3828 H 358.666 -0.667915 -0.104235 0
M  V30 3829 H 361.22 -2.0257 0.339782 0
M  V30 3830 H 359.45 -3.42318 -1.79876 0
M  V30 3831 H 361.139 -3.7545 -1.54248 0
M  V30 3832 H 361.905 -4.79756 0.711288 0
M  V30 3833 H 357.784 -4.58323 -0.49605 0
M  V30 3834 H 361.328 -6.57854 2.32107 0
M  V30 3835 H 357.225 -6.35954 1.10599 0
M  V30 3836 H 357.993 -7.74286 2.65375 0
M  V30 3837 N 360.656 0.0484629 -1.57525 0
M  V30 3838 C 361.586 1.0549 -2.08313 0
M  V30 3839 C 362.567 1.38929 -0.981463 0
M  V30 3840 O 363.752 1.48151 -1.25558 0
M  V30 3841 C 360.882 2.36162 -2.54646 0
M  V30 3842 C 359.836 2.17016 -3.68901 0
M  V30 3843 C 359.162 3.53278 -4.01371 0
M  V30 3844 C 360.462 1.57219 -4.98076 0
M  V30 3845 H 362.156 0.632195 -2.92649 0
M  V30 3846 H 359.702 0.302654 -1.40784 0
M  V30 3847 H 361.655 3.06882 -2.88793 0
M  V30 3848 H 360.379 2.80456 -1.67368 0
M  V30 3849 H 359.038 1.48733 -3.35073 0
M  V30 3850 H 358.686 3.95185 -3.11188 0
M  V30 3851 H 358.386 3.41299 -4.78318 0
M  V30 3852 H 359.91 4.25391 -4.38035 0
M  V30 3853 H 361.324 2.17832 -5.30304 0
M  V30 3854 H 359.721 1.55871 -5.79503 0
M  V30 3855 H 360.791 0.535956 -4.81929 0
M  V30 3856 N 362.134 1.5431 0.320358 0
M  V30 3857 C 363.064 1.86912 1.3995 0
M  V30 3858 C 364.045 0.726211 1.53819 0
M  V30 3859 O 365.23 0.980233 1.67646 0
M  V30 3860 C 362.36 2.09932 2.7667 0
M  V30 3861 C 361.314 3.25776 2.77586 0
M  V30 3862 C 360.64 3.34173 4.17412 0
M  V30 3863 C 361.94 4.6335 2.41048 0
M  V30 3864 H 363.634 2.77292 1.12914 0
M  V30 3865 H 361.18 1.33421 0.541738 0
M  V30 3866 H 363.133 2.31324 3.52232 0
M  V30 3867 H 361.857 1.16304 3.0519 0
M  V30 3868 H 360.516 3.04276 2.04479 0
M  V30 3869 H 360.164 2.38098 4.43078 0
M  V30 3870 H 359.864 4.12033 4.18931 0
M  V30 3871 H 361.388 3.57803 4.94782 0
M  V30 3872 H 362.802 4.84602 3.06324 0
M  V30 3873 H 361.199 5.43782 2.53813 0
M  V30 3874 H 362.269 4.65381 1.36193 0
M  V30 3875 N 363.613 -0.582584 1.46437 0
M  V30 3876 C 365.029 -0.905962 1.31394 0
M  V30 3877 C 365.229 -1.99468 0.285476 0
M  V30 3878 O 364.285 -2.50566 -0.311914 0
M  V30 3879 C 365.598 -1.3232 2.70022 0
M  V30 3880 C 367.146 -1.43604 2.78113 0
M  V30 3881 C 367.621 -1.88694 4.17323 0
M  V30 3882 N 369.112 -1.95887 4.19741 0
M  V30 3883 C 369.847 -2.32051 5.24347 0
M  V30 3884 N 369.343 -2.67006 6.39281 0
M  V30 3885 N 371.136 -2.32606 5.11713 0
M  V30 3886 H 363.287 0.1366 2.1196 0
M  V30 3887 H 365.55 -0.00155736 0.947999 0
M  V30 3888 H 365.256 -0.597242 3.46592 0
M  V30 3889 H 365.13 -2.28469 3.00136 0
M  V30 3890 H 367.517 -2.15286 2.01832 0
M  V30 3891 H 367.598 -0.457059 2.51684 0
M  V30 3892 H 367.242 -1.1759 4.941 0
M  V30 3893 H 367.172 -2.8755 4.4116 0
M  V30 3894 H 369.663 -1.71362 3.36814 0
M  V30 3895 H 369.976 -2.93554 7.14875 0
M  V30 3896 H 368.321 -2.64644 6.42642 0
M  V30 3897 H 371.512 -2.04721 4.2096 0
M  V30 3898 H 371.685 -2.60462 5.93349 0
M  V30 3899 N 365.091 -1.34144 -0.827227 0
M  V30 3900 C 366.021 -1.28005 -1.95287 0
M  V30 3901 C 367.002 -0.158321 -1.69362 0
M  V30 3902 O 368.187 -0.349987 -1.9102 0
M  V30 3903 C 365.317 -1.03036 -3.31664 0
M  V30 3904 C 364.271 -2.11628 -3.72019 0
M  V30 3905 C 363.597 -1.71854 -5.0633 0
M  V30 3906 C 364.897 -3.53417 -3.8457 0
M  V30 3907 H 366.591 -2.22187 -2.00682 0
M  V30 3908 H 364.137 -1.0696 -0.964135 0
M  V30 3909 H 366.09 -0.973863 -4.09993 0
M  V30 3910 H 364.814 -0.0529391 -3.26557 0
M  V30 3911 H 363.473 -2.16339 -2.95961 0
M  V30 3912 H 363.121 -0.727841 -4.97706 0
M  V30 3913 H 362.821 -2.44531 -5.34302 0
M  V30 3914 H 364.345 -1.67692 -5.87122 0
M  V30 3915 H 365.759 -3.51142 -4.5318 0
M  V30 3916 H 364.156 -4.24679 -4.2399 0
M  V30 3917 H 365.226 -3.91072 -2.86689 0
M  V30 3918 N 366.569 1.04691 -1.17803 0
M  V30 3919 C 367.532 2.10724 -0.901545 0
M  V30 3920 C 368.532 1.6042 0.110437 0
M  V30 3921 O 369.722 1.7377 -0.122303 0
M  V30 3922 C 366.854 3.39084 -0.351409 0
M  V30 3923 H 368.047 2.36686 -1.84174 0
M  V30 3924 H 365.6 1.21015 -0.98919 0
M  V30 3925 H 366.335 3.18782 0.59569 0
M  V30 3926 H 366.12 3.76909 -1.08083 0
M  V30 3927 H 367.61 4.17227 -0.176451 0
M  V30 3928 N 368.047 0.979072 1.23499 0
M  V30 3929 C 369.01 0.523244 2.23147 0
M  V30 3930 C 370.01 -0.386406 1.56088 0
M  V30 3931 O 371.2 -0.180283 1.73265 0
M  V30 3932 C 368.332 -0.240739 3.40049 0
M  V30 3933 H 369.525 1.40432 2.64989 0
M  V30 3934 H 367.078 0.764824 1.36309 0
M  V30 3935 H 367.813 -1.13841 3.03662 0
M  V30 3936 H 367.598 0.412207 3.89927 0
M  V30 3937 H 369.088 -0.548297 4.13985 0
M  V30 3938 N 369.525 -1.3858 0.750561 0
M  V30 3939 C 370.488 -2.28836 0.129152 0
M  V30 3940 C 371.488 -1.47045 -0.650714 0
M  V30 3941 O 372.678 -1.6753 -0.477428 0
M  V30 3942 C 369.81 -3.30751 -0.825622 0
M  V30 3943 H 371.003 -2.85294 0.924516 0
M  V30 3944 H 368.556 -1.47489 0.517376 0
M  V30 3945 H 369.291 -2.79378 -1.64677 0
M  V30 3946 H 369.076 -3.91177 -0.268852 0
M  V30 3947 H 370.566 -3.98249 -1.2565 0
M  V30 3948 N 371.003 -0.499398 -1.49478 0
M  V30 3949 C 372.414 -0.051215 -1.8663 0
M  V30 3950 C 372.765 1.36238 -1.41186 0
M  V30 3951 O 371.89 2.01502 -0.789051 0
M  V30 3952 C 372.485 -0.0861651 -3.3869 0
M  V30 3953 C 371.044 0.30667 -3.75149 0
M  V30 3954 C 370.191 -0.459397 -2.73468 0
M  V30 3955 H 373.142 -0.712264 -1.41818 0
M  V30 3956 H 373.163 0.709507 -3.73826 0
M  V30 3957 H 372.675 -1.11512 -3.71735 0
M  V30 3958 H 370.776 1.33892 -3.47712 0
M  V30 3959 H 370.889 -0.0116669 -4.79099 0
M  V30 3960 H 369.253 0.0905645 -2.54539 0
M  V30 3961 H 370.036 -1.4884 -3.09357 0
M  V30 3962 N 372.481 1.55866 -0.233164 0
M  V30 3963 C 373.706 2.03449 0.402906 0
M  V30 3964 C 374.131 1.11166 1.51736 0
M  V30 3965 O 373.489 0.101996 1.81013 0
M  V30 3966 C 373.537 3.49165 0.9009 0
M  V30 3967 O 372.641 3.60019 2.01147 0
M  V30 3968 H 371.982 0.657913 0.0897025 0
M  V30 3969 H 374.512 2.01493 -0.355201 0
M  V30 3970 H 374.522 3.89716 1.2077 0
M  V30 3971 H 373.197 4.15813 0.0852889 0
M  V30 3972 H 371.774 3.3136 1.71042 0
M  V30 3973 N 373.959 -0.0401083 1.57549 0
M  V30 3974 C 375.375 -0.395556 1.54621 0
M  V30 3975 C 375.575 -1.77281 0.957799 0
M  V30 3976 O 374.631 -2.45888 0.574031 0
M  V30 3977 C 375.944 -0.307535 2.99123 0
M  V30 3978 C 377.492 -0.385425 3.10618 0
M  V30 3979 C 377.967 -0.326973 4.56831 0
M  V30 3980 N 379.458 -0.386102 4.61588 0
M  V30 3981 C 380.193 -0.363591 5.72246 0
M  V30 3982 N 379.689 -0.29402 6.92176 0
M  V30 3983 N 381.482 -0.412503 5.60584 0
M  V30 3984 H 373.633 0.861325 1.94152 0
M  V30 3985 H 375.896 0.326445 0.890021 0
M  V30 3986 H 375.602 0.638461 3.45856 0
M  V30 3987 H 375.476 -1.10552 3.60636 0
M  V30 3988 H 377.863 -1.32185 2.63839 0
M  V30 3989 H 377.944 0.44171 2.51957 0
M  V30 3990 H 377.588 0.605738 5.04275 0
M  V30 3991 H 377.518 -1.17207 5.13391 0
M  V30 3992 H 380.009 -0.442832 3.75296 0
M  V30 3993 H 380.322 -0.28164 7.72287 0
M  V30 3994 H 378.667 -0.260232 6.94513 0
M  V30 3995 H 381.858 -0.464769 4.65787 0
M  V30 3996 H 382.031 -0.391492 6.46816 0
M  V30 3997 N 375.437 -1.54477 -0.31217 0
M  V30 3998 C 376.667 -1.76948 -1.06645 0
M  V30 3999 C 377.075 -0.523593 -1.81811 0
M  V30 4000 O 376.418 0.51578 -1.76311 0
M  V30 4001 C 376.48 -2.91668 -2.10166 0
M  V30 4002 C 376.144 -4.30165 -1.54296 0
M  V30 4003 C 377.141 -5.10603 -0.978793 0
M  V30 4004 C 374.826 -4.76738 -1.58196 0
M  V30 4005 C 376.82 -6.3573 -0.461048 0
M  V30 4006 C 374.507 -6.01831 -1.06034 0
M  V30 4007 C 375.505 -6.81161 -0.500844 0
M  V30 4008 O 375.193 -8.03899 0.0128958 0
M  V30 4009 H 374.925 -0.594088 -0.322546 0
M  V30 4010 H 377.479 -2.02213 -0.360441 0
M  V30 4011 H 375.709 -2.62001 -2.84416 0
M  V30 4012 H 377.398 -3.01817 -2.71406 0
M  V30 4013 H 378.164 -4.75771 -0.941651 0
M  V30 4014 H 374.043 -4.15027 -2.00683 0
M  V30 4015 H 377.587 -6.97596 -0.0236894 0
M  V30 4016 H 373.484 -6.36152 -1.09459 0
M  V30 4017 H 374.252 -8.18437 -0.101457 0
M  V30 4018 N 376.915 0.57481 -1.46744 0
M  V30 4019 C 378.331 0.898981 -1.31873 0
M  V30 4020 C 378.531 1.99313 -0.29605 0
M  V30 4021 O 377.587 2.50728 0.298621 0
M  V30 4022 C 378.9 1.30886 -2.7072 0
M  V30 4023 C 380.448 1.42127 -2.78871 0
M  V30 4024 C 380.923 1.86478 -4.18318 0
M  V30 4025 N 382.414 1.93658 -4.20774 0
M  V30 4026 C 383.149 2.29267 -5.2557 0
M  V30 4027 N 382.645 2.63612 -6.40688 0
M  V30 4028 N 384.438 2.29889 -5.1294 0
M  V30 4029 H 376.589 -0.147839 -2.11885 0
M  V30 4030 H 378.852 -0.00347013 -0.947994 0
M  V30 4031 H 378.558 0.578853 -3.46904 0
M  V30 4032 H 378.432 2.26874 -3.01343 0
M  V30 4033 H 380.819 2.14213 -2.0297 0
M  V30 4034 H 380.9 0.443705 -2.51922 0
M  V30 4035 H 380.544 1.14968 -4.94717 0
M  V30 4036 H 380.474 2.85207 -4.42679 0
M  V30 4037 H 382.965 1.69574 -3.37718 0
M  V30 4038 H 383.278 2.89759 -7.16421 0
M  V30 4039 H 381.623 2.61232 -6.44036 0
M  V30 4040 H 384.814 2.02485 -4.22039 0
M  V30 4041 H 384.987 2.57312 -5.94722 0
M  V30 4042 N 378.394 1.34581 0.820102 0
M  V30 4043 C 379.641 1.27096 1.57648 0
M  V30 4044 C 379.969 -0.158317 1.93855 0
M  V30 4045 O 379.224 -1.12028 1.60463 0
M  V30 4046 C 379.523 2.10997 2.8847 0
M  V30 4047 C 379.189 3.59966 2.71543 0
M  V30 4048 C 377.851 4.00575 2.66634 0
M  V30 4049 C 380.203 4.54548 2.55021 0
M  V30 4050 C 377.531 5.33953 2.43128 0
M  V30 4051 C 379.883 5.88109 2.33047 0
M  V30 4052 C 378.547 6.27878 2.26552 0
M  V30 4053 H 377.817 0.465078 0.576874 0
M  V30 4054 H 380.464 1.6635 0.948671 0
M  V30 4055 H 378.769 1.6458 3.55557 0
M  V30 4056 H 380.466 2.0255 3.46084 0
M  V30 4057 H 377.056 3.27733 2.76205 0
M  V30 4058 H 381.24 4.24069 2.57835 0
M  V30 4059 H 376.496 5.63781 2.3656 0
M  V30 4060 H 380.67 6.60985 2.19251 0
M  V30 4061 H 378.297 7.31162 2.081 0
M  V30 4062 N 379.872 -1.04064 1.18357 0
M  V30 4063 C 381.118 -1.77528 0.980397 0
M  V30 4064 C 381.451 -1.87948 -0.48879 0
M  V30 4065 O 380.726 -1.3876 -1.36293 0
M  V30 4066 C 381.009 -3.20797 1.63588 0
M  V30 4067 C 380.862 -3.1832 3.17793 0
M  V30 4068 C 382.181 -4.18911 1.34914 0
M  V30 4069 H 379.3 -0.644443 0.357578 0
M  V30 4070 H 381.942 -1.2156 1.46024 0
M  V30 4071 H 380.092 -3.68586 1.22788 0
M  V30 4072 H 381.764 -2.78521 3.67728 0
M  V30 4073 H 380.007 -2.56351 3.49952 0
M  V30 4074 H 380.678 -4.19489 3.58794 0
M  V30 4075 H 383.154 -3.7967 1.70265 0
M  V30 4076 H 382.03 -5.17374 1.83346 0
M  V30 4077 H 382.291 -4.41262 0.272027 0
M  V30 4078 N 381.35 -0.985608 -1.22978 0
M  V30 4079 C 382.766 -0.695104 -1.43668 0
M  V30 4080 C 382.966 0.736866 -1.87543 0
M  V30 4081 O 382.022 1.50868 -2.02473 0
M  V30 4082 C 383.335 -1.69447 -2.48412 0
M  V30 4083 C 384.883 -1.70909 -2.62219 0
M  V30 4084 C 385.358 -2.6969 -3.70178 0
M  V30 4085 N 386.849 -2.6824 -3.77626 0
M  V30 4086 C 387.584 -3.41339 -4.60733 0
M  V30 4087 N 387.08 -4.24015 -5.4789 0
M  V30 4088 N 388.873 -3.30079 -4.54977 0
M  V30 4089 H 381.024 -1.91054 -0.928016 0
M  V30 4090 H 383.287 -0.823553 -0.469536 0
M  V30 4091 H 382.993 -2.7188 -2.23102 0
M  V30 4092 H 382.867 -1.48147 -3.46889 0
M  V30 4093 H 385.254 -0.691785 -2.86877 0
M  V30 4094 H 385.335 -1.96276 -1.6404 0
M  V30 4095 H 384.979 -3.71566 -3.46268 0
M  V30 4096 H 384.909 -2.41595 -4.67909 0
M  V30 4097 H 387.4 -2.08243 -3.15346 0
M  V30 4098 H 387.713 -4.76636 -6.08308 0
M  V30 4099 H 386.058 -4.28104 -5.47496 0
M  V30 4100 H 389.249 -2.64937 -3.85909 0
M  V30 4101 H 389.422 -3.87308 -5.19516 0
M  V30 4102 N 382.828 1.3818 -0.7579 0
M  V30 4103 C 384.053 2.04827 -0.325679 0
M  V30 4104 C 384.478 1.56788 1.03919 0
M  V30 4105 O 383.836 0.721811 1.66312 0
M  V30 4106 C 383.884 3.58774 -0.362447 0
M  V30 4107 O 382.988 4.07372 0.642033 0
M  V30 4108 H 382.329 0.64833 -0.143402 0
M  V30 4109 H 384.859 1.7677 -1.03023 0
M  V30 4110 H 384.869 4.07434 -0.214844 0
M  V30 4111 H 383.544 3.93096 -1.35824 0
M  V30 4112 H 382.121 3.70068 0.458688 0
M  V30 4113 N 384.306 0.507319 1.49211 0
M  V30 4114 C 385.552 -0.0350047 2.0277 0
M  V30 4115 C 385.885 -1.3606 1.38569 0
M  V30 4116 O 385.16 -1.87321 0.523542 0
M  V30 4117 C 385.443 -0.180916 3.59645 0
M  V30 4118 C 385.296 1.16825 4.34364 0
M  V30 4119 C 386.615 -0.918558 4.30407 0
M  V30 4120 H 383.734 -0.0112473 0.736914 0
M  V30 4121 H 386.376 0.659956 1.7817 0
M  V30 4122 H 384.526 -0.772826 3.80736 0
M  V30 4123 H 386.198 1.79952 4.24753 0
M  V30 4124 H 384.441 1.75594 3.96673 0
M  V30 4125 H 385.112 1.01939 5.42506 0
M  V30 4126 H 387.588 -0.41649 4.1401 0
M  V30 4127 H 386.464 -0.989505 5.39907 0
M  V30 4128 H 386.725 -1.96373 3.96093 0
M  V30 4129 N 385.784 -1.5574 0.241426 0
M  V30 4130 C 386.717 -2.17168 -0.700935 0
M  V30 4131 C 387.695 -1.12206 -1.1768 0
M  V30 4132 O 388.879 -1.40565 -1.25593 0
M  V30 4133 C 386.006 -2.76796 -1.95196 0
M  V30 4134 C 385.052 -3.94764 -1.61442 0
M  V30 4135 S 385.885 -5.30613 -0.72182 0
M  V30 4136 C 387.041 -5.93691 -1.98197 0
M  V30 4137 H 387.274 -2.96761 -0.178882 0
M  V30 4138 H 384.807 -1.54378 0.0259299 0
M  V30 4139 H 386.765 -3.11787 -2.67019 0
M  V30 4140 H 385.426 -1.9716 -2.44514 0
M  V30 4141 H 384.619 -4.35057 -2.54443 0
M  V30 4142 H 384.221 -3.61022 -0.976672 0
M  V30 4143 H 386.513 -6.10874 -2.92983 0
M  V30 4144 H 387.456 -6.89258 -1.62262 0
M  V30 4145 H 387.864 -5.22709 -2.13156 0
M  V30 4146 N 387.262 0.0317525 -1.57568 0
M  V30 4147 C 388.487 0.738664 -1.938 0
M  V30 4148 C 388.912 1.68242 -0.841208 0
M  V30 4149 O 388.27 1.80157 0.203267 0
M  V30 4150 C 388.318 1.47417 -3.29091 0
M  V30 4151 O 387.422 2.5872 -3.2115 0
M  V30 4152 H 386.763 0.198856 -0.633524 0
M  V30 4153 H 389.293 -0.0119713 -2.04596 0
M  V30 4154 H 389.303 1.84468 -3.63917 0
M  V30 4155 H 387.978 0.781988 -4.08482 0
M  V30 4156 H 386.555 2.24231 -2.97951 0
M  V30 4157 N 388.74 1.54641 0.303973 0
M  V30 4158 C 389.989 1.7299 1.03717 0
M  V30 4159 C 390.302 0.521168 1.88529 0
M  V30 4160 O 391.508 0.586408 2.65092 0
M  V30 4161 C 389.964 3.06051 1.89369 0
M  V30 4162 C 389.572 4.34393 1.09574 0
M  V30 4163 C 391.316 3.3376 2.62306 0
M  V30 4164 C 389.223 5.58506 1.94486 0
M  V30 4165 H 388.153 0.64473 0.390947 0
M  V30 4166 H 390.804 1.81124 0.294328 0
M  V30 4167 H 389.186 2.91874 2.67629 0
M  V30 4168 H 390.36 4.59396 0.359485 0
M  V30 4169 H 388.675 4.13597 0.482324 0
M  V30 4170 H 391.272 4.23687 3.26181 0
M  V30 4171 H 391.615 2.52503 3.3098 0
M  V30 4172 H 392.148 3.48894 1.91097 0
M  V30 4173 H 388.887 6.42422 1.30287 0
M  V30 4174 H 388.407 5.37694 2.65792 0
M  V30 4175 H 390.086 5.95651 2.52605 0
M  V30 4176 N 390.218 -0.567019 1.47046 0
M  V30 4177 C 391.467 -1.32091 1.5243 0
M  V30 4178 C 391.78 -1.94704 0.187021 0
M  V30 4179 O 392.986 -2.7124 0.118771 0
M  V30 4180 C 391.442 -2.39479 2.68659 0
M  V30 4181 C 391.05 -1.831 4.08874 0
M  V30 4182 C 392.794 -3.16111 2.83327 0
M  V30 4183 C 390.701 -2.8821 5.16419 0
M  V30 4184 H 389.631 -0.496629 0.56734 0
M  V30 4185 H 392.282 -0.603354 1.73297 0
M  V30 4186 H 390.664 -3.14105 2.41152 0
M  V30 4187 H 391.838 -1.14913 4.46242 0
M  V30 4188 H 390.153 -1.19085 3.99008 0
M  V30 4189 H 392.75 -3.94585 3.60842 0
M  V30 4190 H 393.093 -3.69686 1.91411 0
M  V30 4191 H 393.626 -2.48595 3.10556 0
M  V30 4192 H 390.365 -2.39504 6.10179 0
M  V30 4193 H 389.885 -3.54839 4.8358 0
M  V30 4194 H 391.564 -3.51881 5.42945 0
M  V30 4195 N 391.696 -1.35014 -0.812953 0
M  V30 4196 C 392.973 -1.18502 -1.55617 0
M  V30 4197 C 393.353 0.238421 -2.09749 0
M  V30 4198 O 392.701 1.2411 -1.91857 0
M  V30 4199 C 392.911 -2.24783 -2.66971 0
M  V30 4200 C 394.259 -2.60268 -3.35478 0
M  V30 4201 O 395.283 -2.23648 -2.77236 0
M  V30 4202 O 394.142 -3.2321 -4.40678 0
M  V30 4203 H 391.236 -0.459984 -0.687272 0
M  V30 4204 H 393.782 -1.46677 -0.853464 0
M  V30 4205 H 392.554 -3.20284 -2.24798 0
M  V30 4206 H 392.177 -1.97841 -3.44884 0
M  V30 4207 N 393.175 1.03435 -1.18907 0
M  V30 4208 C 394.421 1.77005 -0.989798 0
M  V30 4209 C 394.754 1.88205 0.478816 0
M  V30 4210 O 394.029 1.39481 1.35556 0
M  V30 4211 C 394.312 3.19925 -1.65287 0
M  V30 4212 C 394.165 3.1663 -3.19477 0
M  V30 4213 C 395.484 4.18189 -1.37134 0
M  V30 4214 H 392.603 0.642538 -0.360991 0
M  V30 4215 H 395.245 1.20784 -1.46667 0
M  V30 4216 H 393.395 3.67929 -1.24741 0
M  V30 4217 H 395.067 2.76567 -3.692 0
M  V30 4218 H 393.31 2.54491 -3.51307 0
M  V30 4219 H 393.981 4.1758 -3.61013 0
M  V30 4220 H 396.457 3.78761 -1.72276 0
M  V30 4221 H 395.333 5.16394 -1.86087 0
M  V30 4222 H 395.594 4.41112 -0.295424 0
M  V30 4223 N 394.653 0.992116 1.22453 0
M  V30 4224 C 395.899 0.668523 1.91464 0
M  V30 4225 C 396.232 -0.797313 1.77078 0
M  V30 4226 O 395.507 -1.5765 1.13916 0
M  V30 4227 C 395.79 1.07424 3.43703 0
M  V30 4228 C 395.643 2.59857 3.67143 0
M  V30 4229 C 396.962 0.626891 4.35612 0
M  V30 4230 H 394.081 0.244341 0.695318 0
M  V30 4231 H 396.723 1.2355 1.44345 0
M  V30 4232 H 394.873 0.591816 3.83966 0
M  V30 4233 H 396.545 3.15764 3.3629 0
M  V30 4234 H 394.788 3.01961 3.11451 0
M  V30 4235 H 395.459 2.83296 4.73759 0
M  V30 4236 H 397.935 1.04125 4.02861 0
M  V30 4237 H 396.811 0.939076 5.40807 0
M  V30 4238 H 397.072 -0.472457 4.39568 0
M  V30 4239 N 396.131 -1.37776 0.765217 0
M  V30 4240 C 397.094 -2.28686 0.153416 0
M  V30 4241 C 398.094 -1.47727 -0.635081 0
M  V30 4242 O 399.284 -1.68027 -0.459632 0
M  V30 4243 C 396.416 -3.31608 -0.790495 0
M  V30 4244 H 397.609 -2.84297 0.954723 0
M  V30 4245 H 395.162 -1.46932 0.53299 0
M  V30 4246 H 395.897 -2.81109 -1.61705 0
M  V30 4247 H 395.682 -3.9144 -0.227348 0
M  V30 4248 H 397.172 -3.99559 -1.21419 0
M  V30 4249 N 397.609 -0.515225 -1.4894 0
M  V30 4250 C 398.858 0.0261361 -2.01683 0
M  V30 4251 C 399.171 1.36719 -1.39883 0
M  V30 4252 O 400.377 1.99606 -1.84037 0
M  V30 4253 C 398.833 0.0970111 -3.59769 0
M  V30 4254 C 398.441 -1.23825 -4.30548 0
M  V30 4255 C 400.185 0.587981 -4.20408 0
M  V30 4256 C 398.092 -1.12877 -5.80528 0
M  V30 4257 H 397.022 0.0135398 -0.753878 0
M  V30 4258 H 399.673 -0.656787 -1.71343 0
M  V30 4259 H 398.055 0.844694 -3.86886 0
M  V30 4260 H 399.229 -2.00034 -4.15118 0
M  V30 4261 H 397.544 -1.66379 -3.81716 0
M  V30 4262 H 400.141 0.68763 -5.3026 0
M  V30 4263 H 400.484 1.59026 -3.84729 0
M  V30 4264 H 401.017 -0.103582 -3.97665 0
M  V30 4265 H 397.756 -2.10575 -6.20756 0
M  V30 4266 H 397.276 -0.407799 -5.98412 0
M  V30 4267 H 398.955 -0.813332 -6.41868 0
M  V30 4268 N 399.087 1.5561 -0.249682 0
M  V30 4269 C 400.017 2.24477 0.642826 0
M  V30 4270 C 400.998 1.22601 1.17911 0
M  V30 4271 O 402.183 1.5126 1.21795 0
M  V30 4272 C 399.313 2.94638 1.83863 0
M  V30 4273 C 398.267 4.03227 1.435 0
M  V30 4274 C 397.593 4.60828 2.71186 0
M  V30 4275 C 398.893 5.18796 0.604002 0
M  V30 4276 H 400.587 2.99321 0.0685625 0
M  V30 4277 H 398.133 1.43965 0.0315363 0
M  V30 4278 H 400.086 3.41517 2.46868 0
M  V30 4279 H 398.81 2.17287 2.43832 0
M  V30 4280 H 397.469 3.57121 0.828275 0
M  V30 4281 H 397.117 3.80174 3.29358 0
M  V30 4282 H 396.817 5.34132 2.44901 0
M  V30 4283 H 398.341 5.10442 3.35084 0
M  V30 4284 H 399.755 5.61883 1.13842 0
M  V30 4285 H 398.152 5.98506 0.437097 0
M  V30 4286 H 399.222 4.83384 -0.383147 0
M  V30 4287 N 400.565 -0.0233959 1.57583 0
M  V30 4288 C 401.976 -0.56927 1.77809 0
M  V30 4289 C 402.327 -1.75284 0.881472 0
M  V30 4290 O 401.452 -2.1626 0.0777805 0
M  V30 4291 C 402.047 -1.03949 3.22459 0
M  V30 4292 C 400.606 -1.53084 3.43864 0
M  V30 4293 C 399.753 -0.471454 2.73263 0
M  V30 4294 H 402.704 0.202825 1.57399 0
M  V30 4295 H 402.725 -1.90661 3.29285 0
M  V30 4296 H 402.237 -0.177865 3.87692 0
M  V30 4297 H 400.338 -2.41414 2.83814 0
M  V30 4298 H 400.451 -1.57443 4.52491 0
M  V30 4299 H 398.815 -0.927788 2.37201 0
M  V30 4300 H 399.598 0.380808 3.41181 0
M  V30 4301 N 402.043 -1.548 -0.295768 0
M  V30 4302 C 403.273 -1.78069 -1.04762 0
M  V30 4303 C 403.681 -0.542847 -1.81245 0
M  V30 4304 O 403.024 0.497051 -1.76848 0
M  V30 4305 C 403.086 -2.93881 -2.07061 0
M  V30 4306 C 402.75 -4.31777 -1.49725 0
M  V30 4307 C 403.747 -5.11613 -0.924581 0
M  V30 4308 C 401.432 -4.78389 -1.5313 0
M  V30 4309 C 403.426 -6.36184 -0.393594 0
M  V30 4310 C 401.113 -6.02921 -0.996447 0
M  V30 4311 C 402.111 -6.81654 -0.428569 0
M  V30 4312 O 401.799 -8.0384 0.0981593 0
M  V30 4313 H 401.531 -0.597475 -0.316226 0
M  V30 4314 H 404.085 -2.02584 -0.338973 0
M  V30 4315 H 402.315 -2.65003 -2.81621 0
M  V30 4316 H 404.004 -3.04679 -2.6819 0
M  V30 4317 H 404.77 -4.76743 -0.891136 0
M  V30 4318 H 400.649 -4.17132 -1.9627 0
M  V30 4319 H 404.193 -6.97582 0.0503014 0
M  V30 4320 H 400.09 -6.37277 -1.02706 0
M  V30 4321 H 400.858 -8.18499 -0.0146455 0
M  V30 4322 N 403.521 0.559213 -1.47345 0
M  V30 4323 C 404.751 1.33999 -1.57251 0
M  V30 4324 C 405.159 1.87905 -0.220978 0
M  V30 4325 O 404.502 1.65577 0.795617 0
M  V30 4326 C 404.564 2.54798 -2.53611 0
M  V30 4327 C 404.228 2.22192 -3.99349 0
M  V30 4328 C 405.225 1.79607 -4.87891 0
M  V30 4329 C 402.91 2.33613 -4.44669 0
M  V30 4330 C 404.904 1.48868 -6.19772 0
M  V30 4331 C 402.591 2.02487 -5.76578 0
M  V30 4332 C 403.589 1.60183 -6.63951 0
M  V30 4333 O 403.277 1.29451 -7.93409 0
M  V30 4334 H 403.009 0.414858 -0.533731 0
M  V30 4335 H 405.563 0.684465 -1.9366 0
M  V30 4336 H 403.793 3.23235 -2.12265 0
M  V30 4337 H 405.482 3.16873 -2.53666 0
M  V30 4338 H 406.248 1.70278 -4.54126 0
M  V30 4339 H 402.127 2.65501 -3.76869 0
M  V30 4340 H 405.671 1.15775 -6.87926 0
M  V30 4341 H 401.568 2.11448 -6.09885 0
M  V30 4342 H 402.336 1.43098 -8.05894 0
M  V30 4343 N 404.999 1.35443 0.805782 0
M  V30 4344 C 406.248 1.28097 1.55801 0
M  V30 4345 C 406.561 -0.142428 1.95081 0
M  V30 4346 O 407.767 -0.33817 2.69386 0
M  V30 4347 C 406.223 2.24653 2.81174 0
M  V30 4348 C 405.831 3.72342 2.49129 0
M  V30 4349 C 407.575 2.2625 3.59181 0
M  V30 4350 C 405.482 4.60719 3.70799 0
M  V30 4351 H 404.412 0.475937 0.584808 0
M  V30 4352 H 407.063 1.60712 0.885661 0
M  V30 4353 H 405.445 1.85011 3.50124 0
M  V30 4354 H 406.619 4.20624 1.88181 0
M  V30 4355 H 404.934 3.73361 1.84366 0
M  V30 4356 H 407.531 2.89495 4.49552 0
M  V30 4357 H 407.874 1.26647 3.96568 0
M  V30 4358 H 408.407 2.64426 2.97193 0
M  V30 4359 H 405.146 5.61324 3.3852 0
M  V30 4360 H 404.666 4.17163 4.3097 0
M  V30 4361 H 406.345 4.76182 4.38018 0
M  V30 4362 N 406.477 -1.02803 1.19454 0
M  V30 4363 C 407.725 -1.75869 0.995722 0
M  V30 4364 C 408.046 -1.89138 -0.474543 0
M  V30 4365 O 407.316 -1.42558 -1.34366 0
M  V30 4366 H 405.896 -0.651511 0.365435 0
M  V30 4367 H 408.558 -1.24004 1.50363 0
M  V30 4368 H 407.654 -2.76661 1.44447 0
M  V30 4369 N 407.956 -0.998596 -1.21925 0
M  V30 4370 C 408.886 -0.573688 -2.26343 0
M  V30 4371 C 409.867 0.402296 -1.65274 0
M  V30 4372 O 411.052 0.291683 -1.91997 0
M  V30 4373 C 408.182 0.106839 -3.47136 0
M  V30 4374 C 407.136 -0.788269 -4.20678 0
M  V30 4375 C 406.462 0.0254927 -5.34694 0
M  V30 4376 C 407.762 -2.08784 -4.78755 0
M  V30 4377 H 409.456 -1.44651 -2.62138 0
M  V30 4378 H 407.002 -0.696975 -1.26009 0
M  V30 4379 H 408.955 0.415531 -4.19346 0
M  V30 4380 H 407.679 1.01424 -3.10452 0
M  V30 4381 H 406.338 -1.08069 -3.50309 0
M  V30 4382 H 405.986 0.933989 -4.94253 0
M  V30 4383 H 405.686 -0.570437 -5.84825 0
M  V30 4384 H 407.21 0.328147 -6.09718 0
M  V30 4385 H 408.624 -1.84272 -5.42878 0
M  V30 4386 H 407.021 -2.63307 -5.39249 0
M  V30 4387 H 408.091 -2.76284 -3.98491 0
M  V30 4388 N 409.434 1.37368 -0.772513 0
M  V30 4389 C 410.68 1.99969 -0.337681 0
M  V30 4390 C 411.013 1.61184 1.08321 0
M  V30 4391 O 410.288 0.858395 1.74533 0
M  V30 4392 C 410.571 3.56858 -0.482121 0
M  V30 4393 C 410.424 4.0555 -1.94549 0
M  V30 4394 C 411.743 4.39955 0.113143 0
M  V30 4395 H 408.862 0.726464 -0.124171 0
M  V30 4396 H 411.504 1.63034 -0.975699 0
M  V30 4397 H 409.654 3.88452 0.0610361 0
M  V30 4398 H 411.326 3.84518 -2.54841 0
M  V30 4399 H 409.569 3.57715 -2.45403 0
M  V30 4400 H 410.24 5.14587 -1.9976 0
M  V30 4401 H 412.716 4.14623 -0.35031 0
M  V30 4402 H 411.592 5.48897 -0.0180514 0
M  V30 4403 H 411.853 4.25403 1.20354 0
M  V30 4404 N 410.912 0.523116 1.48665 0
M  V30 4405 C 411.845 -0.290518 2.26343 0
M  V30 4406 C 412.823 -0.950913 1.31895 0
M  V30 4407 O 414.007 -0.976662 1.61225 0
M  V30 4408 C 411.134 -1.41088 3.07915 0
M  V30 4409 C 410.18 -0.862597 4.17686 0
M  V30 4410 S 411.013 0.264135 5.34848 0
M  V30 4411 C 412.169 -0.858864 6.19979 0
M  V30 4412 H 412.402 0.368726 2.95005 0
M  V30 4413 H 409.935 0.30878 1.51281 0
M  V30 4414 H 411.893 -2.0527 3.55492 0
M  V30 4415 H 410.554 -2.04182 2.38681 0
M  V30 4416 H 409.747 -1.70287 4.74361 0
M  V30 4417 H 409.349 -0.297595 3.72814 0
M  V30 4418 H 411.641 -1.7591 6.54264 0
M  V30 4419 H 412.584 -0.330244 7.07329 0
M  V30 4420 H 412.992 -1.13617 5.52948 0
M  V30 4421 N 412.39 -1.55475 0.257931 0
M  V30 4422 C 413.618 -2.03609 -0.367559 0
M  V30 4423 C 414.033 -1.13687 -1.50734 0
M  V30 4424 O 413.39 -0.153479 -1.81853 0
M  V30 4425 C 413.441 -3.51001 -0.864908 0
M  V30 4426 O 413.162 -4.37499 0.229465 0
M  V30 4427 C 414.663 -4.14946 -1.55997 0
M  V30 4428 H 411.883 -0.665459 -0.0860521 0
M  V30 4429 H 414.427 -2.00843 0.385014 0
M  V30 4430 H 412.582 -3.54266 -1.56762 0
M  V30 4431 H 412.996 -5.24286 -0.14998 0
M  V30 4432 H 414.47 -5.19735 -1.85956 0
M  V30 4433 H 414.947 -3.6209 -2.4857 0
M  V30 4434 H 415.553 -4.15635 -0.901543 0
M  V30 4435 N 413.868 0.0150385 -1.57593 0
M  V30 4436 C 415.145 0.7392 -1.81094 0
M  V30 4437 C 415.525 1.92817 -0.859344 0
M  V30 4438 O 414.873 2.28301 0.095362 0
M  V30 4439 C 415.083 1.15907 -3.29191 0
M  V30 4440 C 416.431 1.56918 -3.9454 0
M  V30 4441 O 417.455 1.25328 -3.33424 0
M  V30 4442 O 416.314 2.15604 -5.02173 0
M  V30 4443 H 413.408 0.358631 -0.745193 0
M  V30 4444 H 415.954 -0.00926156 -1.69697 0
M  V30 4445 H 414.726 0.310921 -3.90063 0
M  V30 4446 H 414.349 1.96711 -3.45529 0
M  V30 4447 N 415.346 1.54954 0.287554 0
M  V30 4448 C 416.294 1.87606 1.37502 0
M  V30 4449 C 417.288 0.751001 1.51843 0
M  V30 4450 O 418.494 0.935169 1.53801 0
M  V30 4451 H 414.869 0.595231 0.459569 0
M  V30 4452 H 416.84 2.78477 1.07206 0
M  V30 4453 C 415.589 2.15183 2.73115 0
M  V30 4454 H 414.912 3.01234 2.62866 0
M  V30 4455 H 416.352 2.4196 3.48183 0
M  V30 4456 C 414.811 0.954686 3.2309 0
M  V30 4457 O 415.341 0.181949 4.01288 0
M  V30 4458 N 413.547 0.756368 2.80584 0
M  V30 4459 H 413.094 1.38643 2.17108 0
M  V30 4460 H 413.052 -0.0430391 3.14371 0
M  V30 4461 N 416.824 -0.551391 1.4764 0
M  V30 4462 C 417.734 -1.68525 1.63207 0
M  V30 4463 C 418.75 -1.6621 0.514815 0
M  V30 4464 O 419.926 -1.85551 0.783113 0
M  V30 4465 C 416.991 -3.05025 1.64805 0
M  V30 4466 C 416.052 -3.18362 2.88 0
M  V30 4467 C 415.285 -4.4835 2.89513 0
M  V30 4468 O 415.508 -5.34163 2.00065 0
M  V30 4469 O 414.442 -4.65602 3.81443 0
M  V30 4470 H 418.268 -1.58333 2.59161 0
M  V30 4471 H 415.853 -0.722063 1.30792 0
M  V30 4472 H 417.735 -3.86245 1.68502 0
M  V30 4473 H 416.41 -3.15587 0.720197 0
M  V30 4474 H 415.317 -2.36518 2.89845 0
M  V30 4475 H 416.65 -3.12707 3.80099 0
M  V30 4476 N 418.302 -1.35869 -0.798587 0
M  V30 4477 C 419.579 -1.20145 -1.54352 0
M  V30 4478 C 419.959 0.216161 -2.0999 0
M  V30 4479 O 419.307 1.22068 -1.93162 0
M  V30 4480 C 419.517 -2.27602 -2.64572 0
M  V30 4481 C 420.865 -2.63811 -3.32699 0
M  V30 4482 O 421.889 -2.26576 -2.74849 0
M  V30 4483 O 420.748 -3.27866 -4.37226 0
M  V30 4484 H 417.842 -0.467248 -0.682355 0
M  V30 4485 H 420.388 -1.47574 -0.837859 0
M  V30 4486 H 419.16 -3.2265 -2.21388 0
M  V30 4487 H 418.783 -2.01488 -3.42766 0
M  V30 4488 N 419.78 1.02168 -1.19998 0
M  V30 4489 C 421.026 1.75945 -1.00852 0
M  V30 4490 C 421.359 1.88702 0.458828 0
M  V30 4491 O 420.634 1.40911 1.34069 0
M  V30 4492 C 420.917 3.18154 -1.68671 0
M  V30 4493 C 420.77 3.13224 -3.22817 0
M  V30 4494 C 422.089 4.16711 -1.41561 0
M  V30 4495 H 419.208 0.638673 -0.367785 0
M  V30 4496 H 421.85 1.19222 -1.4794 0
M  V30 4497 H 420 3.66586 -1.28636 0
M  V30 4498 H 421.672 2.72635 -3.72112 0
M  V30 4499 H 419.915 2.50751 -3.53986 0
M  V30 4500 H 420.586 4.13728 -3.65422 0
M  V30 4501 H 423.062 3.76913 -1.76284 0
M  V30 4502 H 421.938 5.14391 -1.91553 0
M  V30 4503 H 422.199 4.40774 -0.342193 0
M  V30 4504 N 421.258 1.00505 1.21394 0
M  V30 4505 C 422.483 0.706367 1.95001 0
M  V30 4506 C 422.908 -0.72463 1.73582 0
M  V30 4507 O 422.266 -1.49702 1.0227 0
M  V30 4508 C 422.314 1.03299 3.45487 0
M  V30 4509 O 421.418 0.138275 4.12168 0
M  V30 4510 H 420.759 0.263175 0.609619 0
M  V30 4511 H 423.289 1.34531 1.54151 0
M  V30 4512 H 423.299 0.979872 3.96059 0
M  V30 4513 H 421.974 2.07567 3.60401 0
M  V30 4514 H 420.551 0.247928 3.72075 0
M  V30 4515 N 422.737 -1.36956 0.779787 0
M  V30 4516 C 423.985 -1.99097 0.347079 0
M  V30 4517 C 424.306 -1.62206 -1.08232 0
M  V30 4518 O 423.576 -0.891373 -1.74446 0
M  V30 4519 H 422.156 -0.736409 0.125342 0
M  V30 4520 H 424.818 -1.67308 0.999696 0
M  V30 4521 H 423.914 -3.09107 0.431162 0
M  V30 4522 N 424.215 -0.530993 -1.48385 0
M  V30 4523 C 425.178 0.220497 -2.28137 0
M  V30 4524 C 426.178 0.866851 -1.35434 0
M  V30 4525 O 427.368 0.726746 -1.58316 0
M  V30 4526 C 424.5 1.31921 -3.1434 0
M  V30 4527 H 425.693 -0.479714 -2.96038 0
M  V30 4528 H 423.246 -0.286968 -1.53643 0
M  V30 4529 H 423.981 2.05264 -2.51072 0
M  V30 4530 H 423.766 0.86085 -3.82533 0
M  V30 4531 H 425.256 1.84776 -3.74497 0
M  V30 4532 N 425.693 1.55336 -0.266172 0
M  V30 4533 C 426.94 1.99397 0.353158 0
M  V30 4534 C 427.268 1.15451 1.56529 0
M  V30 4535 O 426.523 0.209974 1.9457 0
M  V30 4536 C 426.822 3.48606 0.787957 0
M  V30 4537 C 426.488 4.49773 -0.318541 0
M  V30 4538 C 425.15 4.77158 -0.62239 0
M  V30 4539 C 427.502 5.10212 -1.06459 0
M  V30 4540 C 424.83 5.62251 -1.67602 0
M  V30 4541 C 427.182 5.96449 -2.10788 0
M  V30 4542 C 425.846 6.22158 -2.41817 0
M  V30 4543 H 425.116 0.729644 0.12923 0
M  V30 4544 H 427.763 1.87732 -0.37802 0
M  V30 4545 H 426.068 3.57701 1.59866 0
M  V30 4546 H 427.765 3.80098 1.27775 0
M  V30 4547 H 424.355 4.2854 -0.0715925 0
M  V30 4548 H 428.539 4.89086 -0.843098 0
M  V30 4549 H 423.795 5.80419 -1.92155 0
M  V30 4550 H 427.969 6.42317 -2.69076 0
M  V30 4551 H 425.596 6.87888 -3.23596 0
M  V30 4552 N 427.171 -0.0066808 1.57599 0
M  V30 4553 C 428.417 -0.693947 1.90558 0
M  V30 4554 C 428.75 -1.73792 0.866594 0
M  V30 4555 O 428.025 -1.94156 -0.115548 0
M  V30 4556 C 428.308 -1.34317 3.34112 0
M  V30 4557 C 428.161 -0.311189 4.48722 0
M  V30 4558 C 429.48 -2.27116 3.7697 0
M  V30 4559 H 426.599 -0.250803 0.693013 0
M  V30 4560 H 429.241 0.043242 1.89951 0
M  V30 4561 H 427.391 -1.9715 3.3476 0
M  V30 4562 H 429.063 0.316944 4.6021 0
M  V30 4563 H 427.306 0.367253 4.32243 0
M  V30 4564 H 427.977 -0.804366 5.46108 0
M  V30 4565 H 430.453 -1.74306 3.77831 0
M  V30 4566 H 429.329 -2.69511 4.78179 0
M  V30 4567 H 429.59 -3.14743 3.10466 0
M  V30 4568 N 428.649 -1.55105 -0.279332 0
M  V30 4569 C 429.877 -1.7943 -1.03017 0
M  V30 4570 C 430.292 -0.564456 -1.80165 0
M  V30 4571 O 429.649 0.466326 -1.76442 0
M  V30 4572 C 429.7 -3.0155 -1.99374 0
M  V30 4573 O 429.421 -4.19784 -1.25352 0
M  V30 4574 C 430.922 -3.3843 -2.86321 0
M  V30 4575 H 428.142 -0.597882 -0.304594 0
M  V30 4576 H 430.686 -2.02105 -0.312035 0
M  V30 4577 H 428.841 -2.81019 -2.66659 0
M  V30 4578 H 429.255 -4.88781 -1.90246 0
M  V30 4579 H 430.729 -4.27066 -3.49741 0
M  V30 4580 H 431.206 -2.57549 -3.5576 0
M  V30 4581 H 431.812 -3.61197 -2.24536 0
M  V30 4582 N 430.127 0.543554 -1.4793 0
M  V30 4583 C 431.057 1.65888 -1.64327 0
M  V30 4584 C 432.038 1.62818 -0.492383 0
M  V30 4585 O 433.223 1.80226 -0.723338 0
M  V30 4586 C 430.353 3.04506 -1.67013 0
M  V30 4587 C 429.307 3.2243 -2.81466 0
M  V30 4588 C 428.633 4.61972 -2.69233 0
M  V30 4589 C 429.933 3.06496 -4.22915 0
M  V30 4590 H 431.627 1.52421 -2.57698 0
M  V30 4591 H 429.173 0.731849 -1.24016 0
M  V30 4592 H 431.126 3.82391 -1.77074 0
M  V30 4593 H 429.85 3.18964 -0.70212 0
M  V30 4594 H 428.509 2.46957 -2.70938 0
M  V30 4595 H 428.157 4.73247 -1.7043 0
M  V30 4596 H 427.857 4.74911 -3.46025 0
M  V30 4597 H 429.381 5.41974 -2.81242 0
M  V30 4598 H 430.795 3.74186 -4.34348 0
M  V30 4599 H 429.192 3.30938 -5.006 0
M  V30 4600 H 430.262 2.03077 -4.40327 0
M  V30 4601 N 431.605 1.3629 0.791371 0
M  V30 4602 C 433.021 1.16661 1.08914 0
M  V30 4603 C 433.221 -0.0106266 2.01497 0
M  V30 4604 O 432.277 -0.676596 2.43266 0
M  V30 4605 C 433.59 2.47656 1.70549 0
M  V30 4606 C 435.138 2.54002 1.82899 0
M  V30 4607 C 435.613 3.85078 2.47949 0
M  V30 4608 N 437.104 3.86413 2.5542 0
M  V30 4609 C 437.839 4.84572 3.06557 0
M  V30 4610 N 437.335 5.93124 3.58016 0
M  V30 4611 N 439.128 4.71994 3.05251 0
M  V30 4612 H 431.279 2.11668 0.176238 0
M  V30 4613 H 433.542 0.937486 0.140796 0
M  V30 4614 H 433.248 3.34059 1.09989 0
M  V30 4615 H 433.122 2.63319 2.70079 0
M  V30 4616 H 435.509 1.68018 2.42598 0
M  V30 4617 H 435.59 2.42239 0.821808 0
M  V30 4618 H 435.234 4.71467 1.88895 0
M  V30 4619 H 435.164 3.94135 3.49235 0
M  V30 4620 H 437.655 3.07988 2.18979 0
M  V30 4621 H 437.968 6.63999 3.95381 0
M  V30 4622 H 436.313 5.96796 3.56173 0
M  V30 4623 H 439.504 3.86321 2.64336 0
M  V30 4624 H 439.677 5.48653 3.44796 0
M  V30 4625 N 433.083 -1.0153 1.20538 0
M  V30 4626 C 434.329 -1.75408 1.01783 0
M  V30 4627 C 434.662 -1.88943 -0.448814 0
M  V30 4628 O 433.937 -1.4162 -1.33319 0
M  V30 4629 C 434.22 -3.17255 1.70356 0
M  V30 4630 C 434.073 -3.11508 3.24473 0
M  V30 4631 C 435.392 -4.15955 1.43769 0
M  V30 4632 H 432.511 -0.636713 0.371167 0
M  V30 4633 H 435.153 -1.18436 1.4857 0
M  V30 4634 H 433.303 -3.65898 1.30578 0
M  V30 4635 H 434.975 -2.70658 3.73553 0
M  V30 4636 H 433.218 -2.4887 3.55311 0
M  V30 4637 H 433.889 -4.11784 3.67611 0
M  V30 4638 H 436.365 -3.75973 1.7828 0
M  V30 4639 H 435.241 -5.13368 1.94279 0
M  V30 4640 H 435.502 -4.40586 0.365564 0
M  V30 4641 N 434.561 -1.01147 -1.20859 0
M  V30 4642 C 435.808 -0.697865 -1.90095 0
M  V30 4643 C 436.136 0.772014 -1.78522 0
M  V30 4644 O 435.391 1.57595 -1.16027 0
M  V30 4645 C 435.69 -1.0727 -3.40922 0
M  V30 4646 C 435.356 -2.53792 -3.72693 0
M  V30 4647 C 434.018 -2.93829 -3.81075 0
M  V30 4648 C 436.37 -3.48674 -3.87397 0
M  V30 4649 C 433.698 -4.27696 -4.01613 0
M  V30 4650 C 436.05 -4.82223 -4.09444 0
M  V30 4651 C 434.714 -5.21973 -4.16054 0
M  V30 4652 H 433.984 -0.255367 -0.695607 0
M  V30 4653 H 436.631 -1.27111 -1.43231 0
M  V30 4654 H 434.936 -0.417799 -3.89566 0
M  V30 4655 H 436.633 -0.807818 -3.92779 0
M  V30 4656 H 433.223 -2.21768 -3.66765 0
M  V30 4657 H 437.407 -3.18904 -3.80281 0
M  V30 4658 H 432.663 -4.58055 -4.04964 0
M  V30 4659 H 436.837 -5.55672 -4.19763 0
M  V30 4660 H 434.464 -6.25717 -4.31721 0
M  V30 4661 N 436.039 1.36541 -0.78704 0
M  V30 4662 C 437.455 1.52571 -0.46844 0
M  V30 4663 C 437.655 1.7415 1.01361 0
M  V30 4664 O 436.711 1.77163 1.79915 0
M  V30 4665 C 438.024 2.71299 -1.29682 0
M  V30 4666 C 439.572 2.85169 -1.29027 0
M  V30 4667 C 440.047 4.06898 -2.10233 0
M  V30 4668 N 441.538 4.1404 -2.07666 0
M  V30 4669 C 442.273 5.07301 -2.67271 0
M  V30 4670 N 441.769 6.06021 -3.35724 0
M  V30 4671 N 443.562 4.99898 -2.57018 0
M  V30 4672 H 435.713 1.20788 -1.74711 0
M  V30 4673 H 437.976 0.589364 -0.742532 0
M  V30 4674 H 437.682 2.61868 -2.34773 0
M  V30 4675 H 437.556 3.6539 -0.936479 0
M  V30 4676 H 439.943 2.94062 -0.247284 0
M  V30 4677 H 440.024 1.91992 -1.69035 0
M  V30 4678 H 439.668 3.98766 -3.1456 0
M  V30 4679 H 439.598 4.99218 -1.67597 0
M  V30 4680 H 442.089 3.43357 -1.57843 0
M  V30 4681 H 442.402 6.73741 -3.78541 0
M  V30 4682 H 440.747 6.06253 -3.39826 0
M  V30 4683 H 443.938 4.21724 -2.03142 0
M  V30 4684 H 444.111 5.72392 -3.03761 0
M  V30 4685 N 437.518 0.538854 1.48102 0
M  V30 4686 C 438.764 0.00801365 2.02798 0
M  V30 4687 C 439.097 -1.3309 1.41424 0
M  V30 4688 O 438.372 -1.86169 0.563158 0
M  V30 4689 C 438.655 -0.104589 3.59948 0
M  V30 4690 C 438.508 1.26012 4.31788 0
M  V30 4691 C 439.827 -0.827055 4.32259 0
M  V30 4692 H 436.946 0.00438624 0.736987 0
M  V30 4693 H 439.588 0.6976 1.7673 0
M  V30 4694 H 437.738 -0.691893 3.82289 0
M  V30 4695 H 439.41 1.88922 4.2084 0
M  V30 4696 H 437.653 1.83968 3.92859 0
M  V30 4697 H 438.324 1.13424 5.40221 0
M  V30 4698 H 440.8 -0.328578 4.14801 0
M  V30 4699 H 439.676 -0.87476 5.41885 0
M  V30 4700 H 439.937 -1.87927 4.0017 0
M  V30 4701 N 438.996 -1.55193 0.274407 0
M  V30 4702 C 440.243 -1.99581 -0.342579 0
M  V30 4703 C 440.571 -1.1628 -1.55914 0
M  V30 4704 O 439.826 -0.22029 -1.94456 0
M  V30 4705 C 440.125 -3.49019 -0.769458 0
M  V30 4706 C 439.791 -4.49598 0.342389 0
M  V30 4707 C 438.453 -4.76821 0.647686 0
M  V30 4708 C 440.805 -5.0964 1.09163 0
M  V30 4709 C 438.133 -5.61354 1.70581 0
M  V30 4710 C 440.485 -5.95323 2.13948 0
M  V30 4711 C 439.149 -6.20867 2.45113 0
M  V30 4712 H 438.419 -0.730319 -0.125358 0
M  V30 4713 H 441.066 -1.87529 0.387971 0
M  V30 4714 H 439.371 -3.58544 -1.57967 0
M  V30 4715 H 441.068 -3.8077 -1.25757 0
M  V30 4716 H 437.658 -4.28496 0.094318 0
M  V30 4717 H 441.842 -4.88632 0.869024 0
M  V30 4718 H 437.098 -5.79392 1.9523 0
M  V30 4719 H 441.272 -6.40881 2.72478 0
M  V30 4720 H 438.899 -6.86162 3.27239 0
M  V30 4721 N 440.474 -0.00167713 -1.576 0
M  V30 4722 C 441.89 0.354422 -1.55615 0
M  V30 4723 C 442.09 1.74679 -1.00447 0
M  V30 4724 O 441.146 2.4428 -0.639022 0
M  V30 4725 C 442.459 0.22812 -2.99833 0
M  V30 4726 C 444.007 0.302934 -3.11531 0
M  V30 4727 C 444.482 0.205737 -4.57538 0
M  V30 4728 N 445.973 0.263584 -4.62449 0
M  V30 4729 C 446.708 0.211742 -5.73009 0
M  V30 4730 N 446.204 0.110399 -6.92712 0
M  V30 4731 N 447.997 0.263729 -5.61481 0
M  V30 4732 H 440.148 -0.912498 -1.918 0
M  V30 4733 H 442.411 -0.349928 -0.881053 0
M  V30 4734 H 442.117 -0.729934 -3.44042 0
M  V30 4735 H 441.991 1.00951 -3.6344 0
M  V30 4736 H 444.378 1.25143 -2.67251 0
M  V30 4737 H 444.459 -0.508357 -2.50698 0
M  V30 4738 H 444.103 -0.739225 -5.02492 0
M  V30 4739 H 444.033 1.03554 -5.16318 0
M  V30 4740 H 446.524 0.343173 -3.76339 0
M  V30 4741 H 446.837 0.0767828 -7.72762 0
M  V30 4742 H 445.182 0.0760025 -6.94958 0
M  V30 4743 H 448.373 0.34111 -4.66855 0
M  V30 4744 H 448.546 0.219862 -6.47627 0
M  V30 4745 N 441.952 1.55251 0.271103 0
M  V30 4746 C 443.201 1.75151 1.00025 0
M  V30 4747 C 443.514 0.561041 1.87381 0
M  V30 4748 O 444.72 0.642506 2.63788 0
M  V30 4749 C 443.176 3.09999 1.82835 0
M  V30 4750 C 442.784 4.3662 1.00336 0
M  V30 4751 C 444.528 3.39249 2.55168 0
M  V30 4752 C 442.435 5.62506 1.82595 0
M  V30 4753 H 441.365 0.652877 0.377183 0
M  V30 4754 H 444.016 1.81708 0.255843 0
M  V30 4755 H 442.398 2.97485 2.61378 0
M  V30 4756 H 443.572 4.60055 0.261959 0
M  V30 4757 H 441.887 4.14527 0.394486 0
M  V30 4758 H 444.484 4.3051 3.1712 0
M  V30 4759 H 444.827 2.59467 3.2555 0
M  V30 4760 H 445.36 3.52869 1.83653 0
M  V30 4761 H 442.099 6.45041 1.16631 0
M  V30 4762 H 441.619 5.43211 2.54327 0
M  V30 4763 H 443.298 6.00875 2.39913 0
M  V30 4764 N 443.43 -0.535701 1.48216 0
M  V30 4765 C 444.677 -1.29183 1.55942 0
M  V30 4766 C 445.005 -1.93125 0.230857 0
M  V30 4767 O 444.26 -1.79556 -0.778331 0
M  V30 4768 C 444.559 -2.4068 2.64212 0
M  V30 4769 C 444.225 -1.94428 4.06827 0
M  V30 4770 C 442.887 -1.81532 4.45645 0
M  V30 4771 C 445.239 -1.59405 4.96225 0
M  V30 4772 C 442.567 -1.31939 5.71672 0
M  V30 4773 C 444.919 -1.11276 6.22736 0
M  V30 4774 C 443.583 -0.969924 6.60416 0
M  V30 4775 H 442.853 -0.472715 0.570632 0
M  V30 4776 H 445.5 -0.598437 1.81909 0
M  V30 4777 H 443.805 -3.15666 2.32083 0
M  V30 4778 H 445.502 -2.98822 2.67407 0
M  V30 4779 H 442.092 -2.05415 3.76168 0
M  V30 4780 H 446.276 -1.68231 4.66917 0
M  V30 4781 H 441.532 -1.19562 5.99596 0
M  V30 4782 H 445.706 -0.832453 6.91407 0
M  V30 4783 H 443.333 -0.583436 7.57958 0
M  V30 4784 N 444.908 -1.36708 -0.784132 0
M  V30 4785 C 445.855 -1.31466 -1.89698 0
M  V30 4786 C 446.825 -0.18239 -1.65096 0
M  V30 4787 O 448.01 -0.369762 -1.87183 0
M  V30 4788 C 445.15 -1.1151 -3.26588 0
M  V30 4789 C 444.263 -2.33859 -3.63227 0
M  V30 4790 C 443.398 -2.06873 -4.89262 0
M  V30 4791 C 442.437 -3.25154 -5.18595 0
M  V30 4792 N 441.574 -2.978 -6.35814 0
M  V30 4793 H 446.414 -2.26619 -1.93515 0
M  V30 4794 H 443.951 -1.12625 -0.946256 0
M  V30 4795 H 445.909 -0.979653 -4.05535 0
M  V30 4796 H 444.539 -0.200103 -3.22179 0
M  V30 4797 H 443.591 -2.58188 -2.79362 0
M  V30 4798 H 444.903 -3.22109 -3.8085 0
M  V30 4799 H 444.057 -1.90289 -5.76086 0
M  V30 4800 H 442.796 -1.15942 -4.73718 0
M  V30 4801 H 441.801 -3.42292 -4.30251 0
M  V30 4802 H 443.026 -4.1692 -5.36055 0
M  V30 4803 H 440.972 -2.09485 -6.21653 0
M  V30 4804 H 440.889 -3.7959 -6.53794 0
M  V30 4805 H 442.157 -2.84805 -7.25607 0
M  V30 4806 N 446.386 1.0089 -1.21074 0
M  V30 4807 C 447.633 1.74607 -1.0256 0
M  V30 4808 C 447.961 1.89426 0.44136 0
M  V30 4809 O 447.216 1.42266 1.34384 0
M  V30 4810 C 447.515 3.16335 -1.66334 0
M  V30 4811 C 447.181 3.21474 -3.16173 0
M  V30 4812 C 445.843 3.22583 -3.57062 0
M  V30 4813 C 448.195 3.19025 -4.12156 0
M  V30 4814 C 445.523 3.18925 -4.92446 0
M  V30 4815 C 447.875 3.16909 -5.47496 0
M  V30 4816 C 446.539 3.16326 -5.87787 0
M  V30 4817 H 445.809 0.638933 -0.375294 0
M  V30 4818 H 448.456 1.18274 -1.50611 0
M  V30 4819 H 446.761 3.75876 -1.10566 0
M  V30 4820 H 448.458 3.72083 -1.49516 0
M  V30 4821 H 445.048 3.2135 -2.83605 0
M  V30 4822 H 449.232 3.17332 -3.81595 0
M  V30 4823 H 444.488 3.16809 -5.22917 0
M  V30 4824 H 448.662 3.13968 -6.21609 0
M  V30 4825 H 446.289 3.13246 -6.92662 0
M  V30 4826 N 447.864 1.01787 1.20321 0
M  V30 4827 C 449.089 0.727009 1.9424 0
M  V30 4828 C 449.514 -0.706179 1.74341 0
M  V30 4829 O 448.872 -1.48609 1.03852 0
M  V30 4830 C 448.92 1.06958 3.44372 0
M  V30 4831 O 448.024 0.181983 4.11998 0
M  V30 4832 H 447.365 0.269626 0.606793 0
M  V30 4833 H 449.895 1.36158 1.52716 0
M  V30 4834 H 449.905 1.02182 3.94997 0
M  V30 4835 H 448.58 2.11378 3.58179 0
M  V30 4836 H 447.157 0.287378 3.71791 0
M  V30 4837 N 449.342 -1.36122 0.79427 0
M  V30 4838 C 450.758 -1.5232 0.476525 0
M  V30 4839 C 450.958 -1.74685 -1.00436 0
M  V30 4840 O 450.014 -1.78115 -1.78973 0
M  V30 4841 C 451.327 -2.70607 1.31119 0
M  V30 4842 C 452.875 -2.8448 1.30537 0
M  V30 4843 C 453.35 -4.05778 2.12387 0
M  V30 4844 N 454.841 -4.12933 2.09859 0
M  V30 4845 C 455.576 -5.05876 2.69957 0
M  V30 4846 N 455.072 -6.04232 3.38934 0
M  V30 4847 N 456.865 -4.98528 2.59665 0
M  V30 4848 H 449.016 -1.1986 1.75349 0
M  V30 4849 H 451.279 -0.585418 0.745647 0
M  V30 4850 H 450.985 -2.60619 2.36158 0
M  V30 4851 H 450.859 -3.64888 0.955843 0
M  V30 4852 H 453.246 -2.93927 0.262876 0
M  V30 4853 H 453.327 -1.91093 1.70051 0
M  V30 4854 H 452.971 -3.97092 3.1667 0
M  V30 4855 H 452.901 -4.98323 1.70242 0
M  V30 4856 H 455.392 -3.42515 1.59662 0
M  V30 4857 H 455.705 -6.71724 3.82109 0
M  V30 4858 H 454.05 -6.04443 3.43036 0
M  V30 4859 H 457.241 -4.20641 2.05375 0
M  V30 4860 H 457.414 -5.70773 3.06793 0
M  V30 4861 N 450.82 -0.546701 -1.47814 0
M  V30 4862 C 451.77 0.227042 -2.26867 0
M  V30 4863 C 452.754 0.894844 -1.33721 0
M  V30 4864 O 453.946 0.794887 -1.58147 0
M  V30 4865 C 451.075 1.26299 -3.19223 0
M  V30 4866 C 450.161 0.59913 -4.19847 0
M  V30 4867 N 450.552 -0.324777 -5.04756 0
M  V30 4868 C 448.85 0.854331 -4.37741 0
M  V30 4869 C 449.551 -0.709386 -5.77358 0
M  V30 4870 N 448.527 -0.0666153 -5.43559 0
M  V30 4871 H 452.329 -0.483476 -2.89896 0
M  V30 4872 H 449.843 -0.365893 -1.58224 0
M  V30 4873 H 451.84 1.83116 -3.74532 0
M  V30 4874 H 450.5 1.97471 -2.57751 0
M  V30 4875 H 451.511 -0.698351 -5.1317 0
M  V30 4876 H 448.188 1.55536 -3.87447 0
M  V30 4877 H 449.578 -1.46796 -6.55668 0
M  V30 4878 N 452.299 1.55045 -0.282633 0
M  V30 4879 C 453.524 2.04628 0.337977 0
M  V30 4880 C 453.949 1.15937 1.48123 0
M  V30 4881 O 453.307 0.159532 1.80597 0
M  V30 4882 C 453.355 3.51854 0.78936 0
M  V30 4883 O 452.459 3.66236 1.89592 0
M  V30 4884 H 451.8 0.660434 0.0687261 0
M  V30 4885 H 454.33 2.00261 -0.419124 0
M  V30 4886 H 454.34 3.93361 1.08311 0
M  V30 4887 H 453.015 4.15873 -0.0470419 0
M  V30 4888 H 451.592 3.36633 1.60413 0
M  V30 4889 N 453.777 0.010035 1.57597 0
M  V30 4890 C 454.709 -1.00649 2.05918 0
M  V30 4891 C 455.722 -1.30077 0.978964 0
M  V30 4892 O 456.911 -1.26878 1.25556 0
M  V30 4893 C 454.011 -2.33876 2.45265 0
M  V30 4894 C 453.184 -2.23242 3.7614 0
M  V30 4895 C 452.243 -3.39242 4.02245 0
M  V30 4896 O 451.269 -3.1698 4.72771 0
M  V30 4897 N 452.471 -4.6242 3.50924 0
M  V30 4898 H 455.236 -0.594333 2.93748 0
M  V30 4899 H 452.797 -0.17714 1.60928 0
M  V30 4900 H 454.789 -3.1027 2.59836 0
M  V30 4901 H 453.359 -2.66799 1.62902 0
M  V30 4902 H 452.579 -1.31696 3.71551 0
M  V30 4903 H 453.867 -2.13321 4.61922 0
M  V30 4904 H 453.265 -4.83404 2.93832 0
M  V30 4905 H 451.822 -5.36046 3.70807 0
M  V30 4906 N 455.255 -1.55392 -0.262866 0
M  V30 4907 C 456.503 -1.76127 -0.991147 0
M  V30 4908 C 456.824 -0.571083 -1.8645 0
M  V30 4909 O 456.094 0.413698 -1.91482 0
M  V30 4910 H 454.674 -0.649528 -0.368948 0
M  V30 4911 H 457.336 -1.9281 -0.284655 0
M  V30 4912 H 456.432 -2.6663 -1.62219 0
M  V30 4913 N 456.733 0.527833 -1.48498 0
M  V30 4914 C 457.663 1.64136 -1.66077 0
M  V30 4915 C 458.644 1.62286 -0.509625 0
M  V30 4916 O 459.829 1.79449 -0.742413 0
M  V30 4917 C 456.959 3.02717 -1.70234 0
M  V30 4918 C 455.913 3.19426 -2.8487 0
M  V30 4919 C 455.239 4.5909 -2.74118 0
M  V30 4920 C 456.539 3.01993 -4.26142 0
M  V30 4921 H 458.233 1.4968 -2.593 0
M  V30 4922 H 455.779 0.718654 -1.24785 0
M  V30 4923 H 457.732 3.80491 -1.8112 0
M  V30 4924 H 456.456 3.18201 -0.735911 0
M  V30 4925 H 455.115 2.4407 -2.73542 0
M  V30 4926 H 454.763 4.71413 -1.7544 0
M  V30 4927 H 454.463 4.71214 -3.51042 0
M  V30 4928 H 455.987 5.3896 -2.86974 0
M  V30 4929 H 457.401 3.69558 -4.38292 0
M  V30 4930 H 455.798 3.2561 -5.04082 0
M  V30 4931 H 456.868 1.98396 -4.42456 0
M  V30 4932 N 458.211 1.37122 0.776871 0
M  V30 4933 C 459.627 1.1781 1.07671 0
M  V30 4934 C 459.827 0.0107454 2.01497 0
M  V30 4935 O 458.883 -0.650756 2.4397 0
M  V30 4936 C 460.196 2.49451 1.67913 0
M  V30 4937 C 461.744 2.55927 1.80195 0
M  V30 4938 C 462.219 3.87686 2.43851 0
M  V30 4939 N 463.71 3.891 2.51307 0
M  V30 4940 C 464.445 4.87797 3.014 0
M  V30 4941 N 463.941 5.96888 3.51705 0
M  V30 4942 N 465.734 4.75205 3.00227 0
M  V30 4943 H 457.885 2.11843 0.153778 0
M  V30 4944 H 460.148 0.938927 0.130844 0
M  V30 4945 H 459.854 3.35207 1.06439 0
M  V30 4946 H 459.728 2.66169 2.67271 0
M  V30 4947 H 462.115 1.70582 2.40803 0
M  V30 4948 H 462.196 2.43097 0.796069 0
M  V30 4949 H 461.84 4.73444 1.83884 0
M  V30 4950 H 461.77 3.97817 3.45035 0
M  V30 4951 H 464.261 3.10293 2.157 0
M  V30 4952 H 464.574 6.68155 3.88316 0
M  V30 4953 H 462.919 6.0054 3.49824 0
M  V30 4954 H 466.11 3.89103 2.60224 0
M  V30 4955 H 466.283 5.52279 3.38957 0
M  V30 4956 N 459.689 -1.00246 1.21608 0
M  V30 4957 C 460.938 -1.73476 1.02902 0
M  V30 4958 C 461.251 -1.90643 -0.437561 0
M  V30 4959 O 462.457 -2.61105 -0.74407 0
M  V30 4960 C 460.913 -3.12079 1.79261 0
M  V30 4961 C 460.521 -3.02877 3.30106 0
M  V30 4962 C 462.265 -3.89421 1.68972 0
M  V30 4963 C 460.172 -4.36575 3.98944 0
M  V30 4964 H 459.102 -0.650408 0.381425 0
M  V30 4965 H 461.753 -1.11985 1.45367 0
M  V30 4966 H 460.135 -3.74196 1.2959 0
M  V30 4967 H 461.309 -2.49983 3.87098 0
M  V30 4968 H 459.624 -2.39022 3.40965 0
M  V30 4969 H 462.221 -4.88362 2.17731 0
M  V30 4970 H 462.564 -4.1122 0.648397 0
M  V30 4971 H 463.097 -3.33963 2.16133 0
M  V30 4972 H 459.836 -4.19978 5.03288 0
M  V30 4973 H 459.356 -4.8942 3.4674 0
M  V30 4974 H 461.035 -5.05364 4.04 0
M  V30 4975 N 461.167 -1.02423 -1.1978 0
M  V30 4976 C 462.097 -0.62157 -2.25075 0
M  V30 4977 C 463.078 0.367148 -1.6609 0
M  V30 4978 O 464.263 0.250892 -1.92573 0
M  V30 4979 C 461.393 0.0331826 -3.47284 0
M  V30 4980 C 460.347 -0.877323 -4.18912 0
M  V30 4981 C 459.673 -0.0879296 -5.34628 0
M  V30 4982 C 460.973 -2.18892 -4.74219 0
M  V30 4983 H 462.667 -1.50179 -2.59011 0
M  V30 4984 H 460.213 -0.723547 -1.24502 0
M  V30 4985 H 462.166 0.326488 -4.20133 0
M  V30 4986 H 460.89 0.948164 -3.12534 0
M  V30 4987 H 459.549 -1.15475 -3.47938 0
M  V30 4988 H 459.197 0.828941 -4.96123 0
M  V30 4989 H 458.897 -0.694359 -5.83483 0
M  V30 4990 H 460.421 0.198743 -6.10276 0
M  V30 4991 H 461.835 -1.95746 -5.38847 0
M  V30 4992 H 460.232 -2.74686 -5.33542 0
M  V30 4993 H 461.302 -2.84674 -3.92541 0
M  V30 4994 N 462.645 1.35699 -0.801477 0
M  V30 4995 C 463.893 1.9852 -0.37871 0
M  V30 4996 C 464.214 1.63907 1.05638 0
M  V30 4997 O 463.484 0.919013 1.73006 0
M  V30 4998 H 462.064 0.734322 -0.137042 0
M  V30 4999 H 464.726 1.65697 -1.02619 0
M  V30 5000 H 463.822 3.08382 -0.480284 0
M  V30 5001 N 464.123 0.554532 1.47522 0
M  V30 5002 C 465.353 0.0342074 2.06572 0
M  V30 5003 C 465.761 -1.26375 1.40805 0
M  V30 5004 O 465.104 -1.7683 0.49769 0
M  V30 5005 C 465.166 -0.235096 3.5873 0
M  V30 5006 C 464.83 0.973024 4.46521 0
M  V30 5007 C 465.827 1.8779 4.848 0
M  V30 5008 C 463.512 1.18694 4.88075 0
M  V30 5009 C 465.506 2.98039 5.63428 0
M  V30 5010 C 463.193 2.29254 5.66468 0
M  V30 5011 C 464.191 3.18757 6.04055 0
M  V30 5012 O 463.879 4.27401 6.8087 0
M  V30 5013 H 463.611 0.041587 0.67472 0
M  V30 5014 H 466.165 0.766748 1.90552 0
M  V30 5015 H 464.395 -1.02191 3.72953 0
M  V30 5016 H 466.084 -0.700477 3.9981 0
M  V30 5017 H 466.85 1.72467 4.53299 0
M  V30 5018 H 462.729 0.49947 4.58286 0
M  V30 5019 H 466.273 3.67926 5.92685 0
M  V30 5020 H 462.17 2.4455 5.97382 0
M  V30 5021 H 462.938 4.25415 6.9926 0
M  V30 5022 N 465.601 -1.54893 0.290851 0
M  V30 5023 C 466.829 -2.04343 -0.324288 0
M  V30 5024 C 467.244 -1.16859 -1.48289 0
M  V30 5025 O 466.601 -0.192018 -1.81487 0
M  V30 5026 C 466.652 -3.52756 -0.79026 0
M  V30 5027 O 466.373 -4.36913 0.322213 0
M  V30 5028 C 467.874 -4.18161 -1.4716 0
M  V30 5029 H 465.094 -0.667135 -0.0719173 0
M  V30 5030 H 467.638 -1.99981 0.427529 0
M  V30 5031 H 465.793 -3.57511 -1.49213 0
M  V30 5032 H 466.207 -5.24486 -0.0387372 0
M  V30 5033 H 467.681 -5.23562 -1.7489 0
M  V30 5034 H 468.158 -3.67282 -2.40834 0
M  V30 5035 H 468.764 -4.17454 -0.813178 0
M  V30 5036 N 467.08 -0.0183926 -1.57589 0
M  V30 5037 C 468.01 0.965596 -2.12599 0
M  V30 5038 C 468.991 1.34641 -1.0395 0
M  V30 5039 O 470.176 1.42693 -1.31729 0
M  V30 5040 C 467.306 2.25149 -2.64434 0
M  V30 5041 C 466.26 2.01175 -3.77773 0
M  V30 5042 C 465.586 3.35937 -4.15994 0
M  V30 5043 C 466.886 1.35953 -5.04296 0
M  V30 5044 H 468.58 0.507504 -2.95067 0
M  V30 5045 H 466.126 0.242671 -1.41941 0
M  V30 5046 H 468.079 2.94357 -3.01549 0
M  V30 5047 H 466.803 2.73105 -1.79112 0
M  V30 5048 H 465.462 1.34388 -3.4108 0
M  V30 5049 H 465.11 3.81631 -3.27669 0
M  V30 5050 H 464.81 3.20705 -4.92364 0
M  V30 5051 H 466.334 4.0643 -4.55683 0
M  V30 5052 H 467.748 1.95144 -5.39065 0
M  V30 5053 H 466.145 1.31152 -5.85593 0
M  V30 5054 H 467.215 0.331071 -4.83768 0
M  V30 5055 N 468.558 1.5553 0.254621 0
M  V30 5056 C 469.505 1.89666 1.31512 0
M  V30 5057 C 470.475 0.750057 1.482 0
M  V30 5058 O 471.66 1.00301 1.62309 0
M  V30 5059 C 468.8 2.19009 2.667 0
M  V30 5060 C 467.913 3.46435 2.58083 0
M  V30 5061 C 467.048 3.65386 3.85573 0
M  V30 5062 C 466.087 4.8644 3.71541 0
M  V30 5063 N 465.224 5.01952 4.90906 0
M  V30 5064 H 470.064 2.80109 1.017 0
M  V30 5065 H 467.601 1.38666 0.490938 0
M  V30 5066 H 469.559 2.34025 3.45381 0
M  V30 5067 H 468.189 1.31779 2.94676 0
M  V30 5068 H 467.241 3.39792 1.71013 0
M  V30 5069 H 468.553 4.35258 2.43622 0
M  V30 5070 H 467.707 3.80319 4.72697 0
M  V30 5071 H 466.446 2.74781 4.02922 0
M  V30 5072 H 465.451 4.71491 2.82801 0
M  V30 5073 H 466.676 5.78497 3.55694 0
M  V30 5074 H 464.622 4.14283 5.08631 0
M  V30 5075 H 464.539 5.84851 4.79046 0
M  V30 5076 H 465.807 5.21289 5.7955 0
M  V30 5077 N 470.036 -0.519951 1.48776 0
M  V30 5078 C 471.261 -1.30447 1.6124 0
M  V30 5079 C 471.686 -1.86055 0.276591 0
M  V30 5080 O 471.044 -1.64915 -0.753183 0
M  V30 5081 C 471.092 -2.42406 2.66967 0
M  V30 5082 O 470.196 -3.45728 2.24824 0
M  V30 5083 H 469.537 -0.385924 0.540332 0
M  V30 5084 H 472.067 -0.624572 1.94834 0
M  V30 5085 H 472.077 -2.88447 2.88552 0
M  V30 5086 H 470.752 -2.01294 3.63941 0
M  V30 5087 H 469.329 -3.05737 2.13494 0
M  V30 5088 N 471.514 -1.37532 -0.769588 0
M  V30 5089 C 472.754 -1.34261 -1.54122 0
M  V30 5090 C 473.118 0.0717222 -1.91866 0
M  V30 5091 O 474.319 0.22918 -2.67821 0
M  V30 5092 C 472.59 -2.2574 -2.77086 0
M  V30 5093 S 474.149 -2.40339 -3.67127 0
M  V30 5094 H 470.967 -0.476595 -0.527615 0
M  V30 5095 H 473.569 -1.73303 -0.90479 0
M  V30 5096 H 472.273 -3.27417 -2.4744 0
M  V30 5097 H 471.804 -1.87789 -3.45686 0
M  V30 5098 H 473.819 -1.61558 -4.69163 0
M  V30 5099 N 472.992 0.995999 -1.22138 0
M  V30 5100 C 473.955 2.06711 -0.990109 0
M  V30 5101 C 474.955 1.60744 0.0422978 0
M  V30 5102 O 476.145 1.73095 -0.195895 0
M  V30 5103 C 473.277 3.37288 -0.49491 0
M  V30 5104 H 474.47 2.28661 -1.94047 0
M  V30 5105 H 472.023 1.16711 -1.03963 0
M  V30 5106 H 472.758 3.21022 0.459948 0
M  V30 5107 H 472.543 3.71986 -1.23971 0
M  V30 5108 H 474.033 4.16103 -0.353253 0
M  V30 5109 N 474.47 1.03057 1.19235 0
M  V30 5110 C 475.695 0.74757 1.93458 0
M  V30 5111 C 476.12 -0.687648 1.7508 0
M  V30 5112 O 475.478 -1.47499 1.05422 0
M  V30 5113 C 475.526 1.10604 3.43219 0
M  V30 5114 O 474.63 0.225671 4.11782 0
M  V30 5115 H 473.971 0.276047 0.603899 0
M  V30 5116 H 476.501 1.3777 1.51263 0
M  V30 5117 H 476.511 1.06366 3.93891 0
M  V30 5118 H 475.186 2.15165 3.55917 0
M  V30 5119 H 473.763 0.326795 3.71465 0
M  V30 5120 N 475.948 -1.35272 0.808662 0
M  V30 5121 C 476.858 -2.33546 0.222079 0
M  V30 5122 C 477.874 -1.6196 -0.636011 0
M  V30 5123 O 479.05 -1.93822 -0.547274 0
M  V30 5124 C 476.115 -3.41148 -0.61795 0
M  V30 5125 C 475.176 -4.28507 0.260875 0
M  V30 5126 C 474.409 -5.3097 -0.539156 0
M  V30 5127 O 474.632 -5.42123 -1.77367 0
M  V30 5128 O 473.566 -6.01858 0.0710526 0
M  V30 5129 H 477.392 -2.85515 1.03512 0
M  V30 5130 H 474.977 -1.38079 0.570495 0
M  V30 5131 H 476.859 -4.06889 -1.09634 0
M  V30 5132 H 475.534 -2.91447 -1.40855 0
M  V30 5133 H 474.441 -3.6574 0.786451 0
M  V30 5134 H 475.774 -4.81611 1.01547 0
M  V30 5135 N 477.426 -0.562348 -1.47226 0
M  V30 5136 C 478.356 0.170627 -2.32876 0
M  V30 5137 C 479.337 0.903748 -1.44106 0
M  V30 5138 O 480.522 0.883206 -1.72954 0
M  V30 5139 C 477.652 1.19786 -3.25989 0
M  V30 5140 C 476.606 0.580875 -4.2404 0
M  V30 5141 C 475.932 1.71311 -5.06514 0
M  V30 5142 C 477.232 -0.468714 -5.20193 0
M  V30 5143 H 478.926 -0.544441 -2.94408 0
M  V30 5144 H 476.472 -0.263271 -1.41573 0
M  V30 5145 H 478.425 1.71884 -3.84752 0
M  V30 5146 H 477.149 1.94294 -2.62521 0
M  V30 5147 H 475.808 0.0811538 -3.6651 0
M  V30 5148 H 475.456 2.44736 -4.39447 0
M  V30 5149 H 475.156 1.30604 -5.72902 0
M  V30 5150 H 476.68 2.23725 -5.68137 0
M  V30 5151 H 478.094 -0.0336028 -5.7329 0
M  V30 5152 H 476.491 -0.794957 -5.94811 0
M  V30 5153 H 477.561 -1.36269 -4.65359 0
M  V30 5154 N 478.904 1.54736 -0.299062 0
M  V30 5155 C 480.152 1.99706 0.31017 0
M  V30 5156 C 480.473 1.18896 1.54559 0
M  V30 5157 O 479.743 0.284445 1.93824 0
M  V30 5158 H 478.323 0.737686 0.117596 0
M  V30 5159 H 480.985 1.9054 -0.409943 0
M  V30 5160 H 480.081 3.06596 0.58355 0
M  V30 5161 N 480.382 0.0267497 1.57577 0
M  V30 5162 C 481.629 -0.652404 1.91703 0
M  V30 5163 C 481.957 -1.72271 0.902936 0
M  V30 5164 O 481.212 -1.955 -0.0884843 0
M  V30 5165 C 481.511 -1.30914 3.3256 0
M  V30 5166 C 481.177 -0.369441 4.49384 0
M  V30 5167 C 479.839 -0.110791 4.81072 0
M  V30 5168 C 482.191 0.275971 5.20469 0
M  V30 5169 C 479.519 0.801116 5.81205 0
M  V30 5170 C 481.871 1.17592 6.21575 0
M  V30 5171 C 480.535 1.44348 6.51705 0
M  V30 5172 H 479.805 -0.238732 0.70149 0
M  V30 5173 H 482.452 0.0880091 1.91298 0
M  V30 5174 H 480.757 -2.12425 3.29216 0
M  V30 5175 H 482.454 -1.84115 3.56234 0
M  V30 5176 H 479.044 -0.581211 4.24641 0
M  V30 5177 H 483.228 0.0892 4.9622 0
M  V30 5178 H 478.484 1.01614 6.02897 0
M  V30 5179 H 482.658 1.68223 6.75777 0
M  V30 5180 H 480.285 2.15176 7.29111 0
M  V30 5181 N 481.861 -1.55662 -0.24637 0
M  V30 5182 C 482.791 -1.93377 -1.30873 0
M  V30 5183 C 483.772 -0.798773 -1.50179 0
M  V30 5184 O 484.957 -1.0591 -1.62778 0
M  V30 5185 C 482.087 -2.22893 -2.66338 0
M  V30 5186 C 481.041 -3.38649 -2.61727 0
M  V30 5187 C 480.367 -3.53708 -4.00992 0
M  V30 5188 C 481.667 -4.74323 -2.18666 0
M  V30 5189 H 483.361 -2.82363 -0.995552 0
M  V30 5190 H 480.907 -1.35854 -0.477464 0
M  V30 5191 H 482.86 -2.47866 -3.40794 0
M  V30 5192 H 481.584 -1.30733 -2.99293 0
M  V30 5193 H 480.243 -3.13685 -1.89729 0
M  V30 5194 H 479.891 -2.58967 -4.31214 0
M  V30 5195 H 479.591 -4.31551 -3.98795 0
M  V30 5196 H 481.115 -3.81003 -4.77147 0
M  V30 5197 H 482.529 -4.98665 -2.82854 0
M  V30 5198 H 480.926 -5.55273 -2.27579 0
M  V30 5199 H 481.996 -4.71349 -1.13834 0
M  V30 5200 N 483.339 0.512053 -1.4905 0
M  V30 5201 C 484.269 1.62365 -1.67809 0
M  V30 5202 C 485.25 1.61737 -0.526809 0
M  V30 5203 O 486.435 1.78651 -0.761404 0
M  V30 5204 C 483.565 3.00895 -1.73435 0
M  V30 5205 C 482.519 3.16387 -2.88242 0
M  V30 5206 C 481.845 4.56157 -2.78971 0
M  V30 5207 C 483.145 2.97457 -4.29321 0
M  V30 5208 H 484.839 1.46921 -2.60873 0
M  V30 5209 H 482.385 0.705379 -1.2554 0
M  V30 5210 H 484.338 3.78549 -1.85145 0
M  V30 5211 H 483.062 3.17403 -0.769619 0
M  V30 5212 H 481.721 2.41155 -2.76116 0
M  V30 5213 H 481.369 4.69525 -1.8043 0
M  V30 5214 H 481.069 4.67465 -3.5602 0
M  V30 5215 H 482.593 5.35886 -2.92675 0
M  V30 5216 H 484.007 3.64888 -4.42187 0
M  V30 5217 H 482.404 3.20245 -5.07507 0
M  V30 5218 H 483.474 1.93692 -4.44535 0
M  V30 5219 N 484.817 1.37938 0.762283 0
M  V30 5220 C 486.064 1.33668 1.52115 0
M  V30 5221 C 486.392 -0.0759538 1.94352 0
M  V30 5222 O 485.647 -1.05121 1.6507 0
M  V30 5223 C 485.946 2.23042 2.79261 0
M  V30 5224 C 485.612 3.71159 2.56031 0
M  V30 5225 C 484.274 4.11523 2.49404 0
M  V30 5226 C 486.626 4.64955 2.35513 0
M  V30 5227 C 483.954 5.43784 2.20263 0
M  V30 5228 C 486.306 5.97464 2.07894 0
M  V30 5229 C 484.97 6.36922 1.99718 0
M  V30 5230 H 484.24 0.489127 0.556629 0
M  V30 5231 H 486.887 1.70224 0.877262 0
M  V30 5232 H 485.192 1.79512 3.48256 0
M  V30 5233 H 486.889 2.17047 3.37182 0
M  V30 5234 H 483.479 3.39153 2.62056 0
M  V30 5235 H 487.663 4.34623 2.39617 0
M  V30 5236 H 482.919 5.73307 2.12435 0
M  V30 5237 H 487.093 6.6969 1.91019 0
M  V30 5238 H 484.72 7.39331 1.76902 0
M  V30 5239 N 486.295 -0.989507 1.22664 0
M  V30 5240 C 487.52 -1.77031 1.08051 0
M  V30 5241 C 487.945 -1.84535 -0.364483 0
M  V30 5242 O 487.303 -1.3003 -1.2634 0
M  V30 5243 C 487.351 -3.18 1.70024 0
M  V30 5244 O 486.455 -4.01161 0.956216 0
M  V30 5245 H 485.796 -0.545008 0.379292 0
M  V30 5246 H 488.326 -1.24277 1.62531 0
M  V30 5247 H 488.336 -3.68616 1.74888 0
M  V30 5248 H 487.011 -3.11853 2.75174 0
M  V30 5249 H 485.588 -3.59687 0.98384 0
M  V30 5250 N 487.773 -1.03688 -1.18687 0
M  V30 5251 C 488.703 -0.645407 -2.24403 0
M  V30 5252 C 489.684 0.349511 -1.66471 0
M  V30 5253 O 490.869 0.230453 -1.92828 0
M  V30 5254 C 487.999 -0.00365337 -3.473 0
M  V30 5255 C 486.953 -0.921705 -4.17958 0
M  V30 5256 C 486.279 -0.144629 -5.34504 0
M  V30 5257 C 487.579 -2.23909 -4.71871 0
M  V30 5258 H 489.273 -1.52917 -2.57404 0
M  V30 5259 H 486.819 -0.736711 -1.23728 0
M  V30 5260 H 488.772 0.281908 -4.20456 0
M  V30 5261 H 487.496 0.914963 -3.13522 0
M  V30 5262 H 486.155 -1.19159 -3.46694 0
M  V30 5263 H 485.803 0.776274 -4.96974 0
M  V30 5264 H 485.503 -0.756206 -5.82714 0
M  V30 5265 H 487.027 0.134004 -6.10453 0
M  V30 5266 H 488.441 -2.0145 -5.36741 0
M  V30 5267 H 486.838 -2.8033 -5.30599 0
M  V30 5268 H 487.908 -2.88822 -3.895 0
M  V30 5269 N 489.251 1.34841 -0.815825 0
M  V30 5270 C 490.479 2.0273 -0.413294 0
M  V30 5271 C 490.894 1.61459 0.978599 0
M  V30 5272 O 490.251 0.816584 1.63212 0
M  V30 5273 C 490.302 3.58058 -0.497676 0
M  V30 5274 O 490.023 3.97832 -1.8347 0
M  V30 5275 C 491.524 4.4321 -0.0891339 0
M  V30 5276 H 488.744 0.649956 -0.166728 0
M  V30 5277 H 491.288 1.72267 -1.10201 0
M  V30 5278 H 489.443 3.87136 0.142886 0
M  V30 5279 H 489.857 4.92501 -1.80396 0
M  V30 5280 H 491.331 5.5164 -0.199274 0
M  V30 5281 H 491.808 4.28432 0.966571 0
M  V30 5282 H 492.414 4.19446 -0.703214 0
M  V30 5283 N 490.729 0.570148 1.46925 0
M  V30 5284 C 491.662 -0.218362 2.27153 0
M  V30 5285 C 492.64 -0.90847 1.34854 0
M  V30 5286 O 493.824 -0.924875 1.64251 0
M  V30 5287 C 490.951 -1.3122 3.12248 0
M  V30 5288 C 489.997 -0.729277 4.20219 0
M  V30 5289 S 490.83 0.434159 5.33737 0
M  V30 5290 C 491.986 -0.661188 6.22398 0
M  V30 5291 H 492.219 0.462393 2.93682 0
M  V30 5292 H 489.752 0.356753 1.50222 0
M  V30 5293 H 491.71 -1.93856 3.61842 0
M  V30 5294 H 490.371 -1.96485 2.45056 0
M  V30 5295 H 489.564 -1.5511 4.79538 0
M  V30 5296 H 489.166 -0.178836 3.73572 0
M  V30 5297 H 491.458 -1.55006 6.5953 0
M  V30 5298 H 492.401 -0.105046 7.08022 0
M  V30 5299 H 492.809 -0.959682 5.56283 0
M  V30 5300 N 492.207 -1.54576 0.307264 0
M  V30 5301 C 493.17 -2.22423 -0.553224 0
M  V30 5302 C 494.17 -1.21231 -1.05639 0
M  V30 5303 O 495.36 -1.45923 -0.951419 0
M  V30 5304 C 492.492 -2.91552 -1.76664 0
M  V30 5305 H 493.685 -2.99874 0.0396484 0
M  V30 5306 H 491.238 -1.56192 0.0581629 0
M  V30 5307 H 491.973 -2.18196 -2.39918 0
M  V30 5308 H 491.758 -3.65738 -1.41343 0
M  V30 5309 H 493.248 -3.43292 -2.37783 0
M  V30 5310 N 493.685 -0.035106 -1.57561 0
M  V30 5311 C 494.934 0.641604 -1.91223 0
M  V30 5312 C 495.247 1.72944 -0.913761 0
M  V30 5313 O 496.453 2.46321 -1.14185 0
M  V30 5314 C 494.909 1.19249 -3.3957 0
M  V30 5315 C 494.517 0.137616 -4.47789 0
M  V30 5316 C 496.261 1.84537 -3.82291 0
M  V30 5317 C 494.168 0.700478 -5.87237 0
M  V30 5318 H 493.098 0.243417 -0.713627 0
M  V30 5319 H 495.749 -0.101382 -1.8322 0
M  V30 5320 H 494.131 1.98728 -3.42525 0
M  V30 5321 H 495.305 -0.635153 -4.56402 0
M  V30 5322 H 493.62 -0.416855 -4.14308 0
M  V30 5323 H 496.217 2.27616 -4.83834 0
M  V30 5324 H 496.56 2.69054 -3.17672 0
M  V30 5325 H 497.093 1.11739 -3.81784 0
M  V30 5326 H 493.832 -0.106693 -6.55413 0
M  V30 5327 H 493.352 1.4416 -5.82218 0
M  V30 5328 H 495.031 1.18837 -6.35993 0
M  V30 5329 N 495.163 1.55791 0.238111 0
M  V30 5330 C 496.412 1.77234 0.962868 0
M  V30 5331 C 496.725 0.600661 1.86149 0
M  V30 5332 O 497.931 0.698315 2.62366 0
M  V30 5333 C 496.387 3.13808 1.76218 0
M  V30 5334 C 495.995 4.3865 0.910518 0
M  V30 5335 C 497.739 3.44585 2.47914 0
M  V30 5336 C 495.646 5.66252 1.70623 0
M  V30 5337 H 494.576 0.660731 0.36325 0
M  V30 5338 H 497.227 1.8221 0.217242 0
M  V30 5339 H 495.609 3.02963 2.55009 0
M  V30 5340 H 496.783 4.60507 0.164316 0
M  V30 5341 H 495.098 4.15271 0.30647 0
M  V30 5342 H 497.695 4.3714 3.07917 0
M  V30 5343 H 498.038 2.66314 3.19973 0
M  V30 5344 H 498.571 3.56685 1.76127 0
M  V30 5345 H 495.31 6.47369 1.02923 0
M  V30 5346 H 494.83 5.48483 2.42748 0
M  V30 5347 H 496.509 6.05829 2.27114 0
M  V30 5348 N 496.642 -0.504142 1.49319 0
M  V30 5349 C 497.891 -1.25507 1.57895 0
M  V30 5350 C 498.204 -1.93735 0.269433 0
M  V30 5351 O 499.41 -2.70492 0.233706 0
M  V30 5352 C 497.866 -2.27869 2.78574 0
M  V30 5353 C 497.474 -1.65594 4.16272 0
M  V30 5354 C 499.218 -3.0381 2.96479 0
M  V30 5355 C 497.125 -2.66048 5.28178 0
M  V30 5356 H 496.055 -0.47212 0.587894 0
M  V30 5357 H 498.706 -0.52931 1.757 0
M  V30 5358 H 497.088 -3.03594 2.54257 0
M  V30 5359 H 498.262 -0.958826 4.50714 0
M  V30 5360 H 496.577 -1.02055 4.037 0
M  V30 5361 H 499.174 -3.78925 3.77253 0
M  V30 5362 H 499.517 -3.61235 2.06918 0
M  V30 5363 H 500.05 -2.352 3.20821 0
M  V30 5364 H 496.789 -2.13408 6.19788 0
M  V30 5365 H 496.309 -3.34009 4.98195 0
M  V30 5366 H 497.988 -3.28536 5.57381 0
M  V30 5367 N 498.12 -1.38341 -0.754957 0
M  V30 5368 C 499.367 -1.34473 -1.51404 0
M  V30 5369 C 499.695 0.0656458 -1.94389 0
M  V30 5370 O 498.95 1.04244 -1.65625 0
M  V30 5371 C 499.249 -2.2452 -2.78075 0
M  V30 5372 C 498.915 -3.72512 -2.54059 0
M  V30 5373 C 497.577 -4.1284 -2.47218 0
M  V30 5374 C 499.929 -4.66197 -2.33044 0
M  V30 5375 C 497.257 -5.44945 -2.17376 0
M  V30 5376 C 499.609 -5.98558 -2.04723 0
M  V30 5377 C 498.273 -6.37972 -1.96337 0
M  V30 5378 H 497.543 -0.492072 -0.554027 0
M  V30 5379 H 500.19 -1.70687 -0.868223 0
M  V30 5380 H 498.495 -1.81357 -3.473 0
M  V30 5381 H 500.192 -2.18832 -3.36026 0
M  V30 5382 H 496.782 -3.40538 -2.60253 0
M  V30 5383 H 500.966 -4.35888 -2.37309 0
M  V30 5384 H 496.222 -5.74426 -2.09391 0
M  V30 5385 H 500.396 -6.70693 -1.87465 0
M  V30 5386 H 498.023 -7.40258 -1.72978 0
M  V30 5387 N 499.598 0.982988 -1.23187 0
M  V30 5388 C 500.561 2.05649 -1.01198 0
M  V30 5389 C 501.561 1.6078 0.0252464 0
M  V30 5390 O 502.751 1.72878 -0.214243 0
M  V30 5391 C 499.883 3.36744 -0.530656 0
M  V30 5392 H 501.076 2.2659 -1.96461 0
M  V30 5393 H 498.629 1.15602 -1.05195 0
M  V30 5394 H 499.364 3.21492 0.425873 0
M  V30 5395 H 499.149 3.7065 -1.2791 0
M  V30 5396 H 500.639 4.15705 -0.397366 0
M  V30 5397 N 501.076 1.04316 1.18135 0
M  V30 5398 C 502.304 0.768117 1.92113 0
M  V30 5399 C 502.719 -0.675057 1.76319 0
M  V30 5400 O 502.076 -1.46038 1.09449 0
M  V30 5401 C 502.127 1.12808 3.43448 0
M  V30 5402 O 501.848 2.5146 3.58747 0
M  V30 5403 C 503.349 0.8779 4.3452 0
M  V30 5404 H 500.569 0.279937 0.609817 0
M  V30 5405 H 503.113 1.39149 1.49859 0
M  V30 5406 H 501.268 0.549623 3.83481 0
M  V30 5407 H 501.682 2.65313 4.52448 0
M  V30 5408 H 503.156 1.17959 5.39249 0
M  V30 5409 H 503.633 -0.187239 4.38801 0
M  V30 5410 H 504.239 1.43977 4.00188 0
M  V30 5411 N 502.554 -1.34406 0.822964 0
M  V30 5412 C 503.8 -1.98578 0.411666 0
M  V30 5413 C 504.133 -1.65093 -1.02264 0
M  V30 5414 O 503.408 -0.92258 -1.71227 0
M  V30 5415 C 503.691 -3.54823 0.614235 0
M  V30 5416 C 503.544 -3.9805 2.09466 0
M  V30 5417 C 504.863 -4.40071 0.050221 0
M  V30 5418 H 501.982 -0.721355 0.151047 0
M  V30 5419 H 504.624 -1.59301 1.03554 0
M  V30 5420 H 502.774 -3.88411 0.0831774 0
M  V30 5421 H 504.446 -3.74795 2.68936 0
M  V30 5422 H 502.689 -3.4836 2.5851 0
M  V30 5423 H 503.36 -5.06819 2.18721 0
M  V30 5424 H 505.836 -4.13037 0.503953 0
M  V30 5425 H 504.712 -5.48452 0.221759 0
M  V30 5426 H 504.973 -4.29576 -1.04482 0
M  V30 5427 N 504.032 -0.577932 -1.46621 0
M  V30 5428 C 504.965 0.206312 -2.27265 0
M  V30 5429 C 505.943 0.901306 -1.35334 0
M  V30 5430 O 507.127 0.916151 -1.64739 0
M  V30 5431 C 504.254 1.29563 -3.1294 0
M  V30 5432 C 503.3 0.706981 -4.206 0
M  V30 5433 S 504.133 -0.462459 -5.33499 0
M  V30 5434 C 505.289 0.628171 -6.2274 0
M  V30 5435 H 505.522 -0.477961 -2.93433 0
M  V30 5436 H 503.055 -0.364715 -1.50031 0
M  V30 5437 H 505.013 1.91935 -3.62865 0
M  V30 5438 H 503.674 1.95183 -2.46095 0
M  V30 5439 H 502.867 1.52565 -4.80354 0
M  V30 5440 H 502.469 0.159022 -3.73662 0
M  V30 5441 H 504.761 1.51506 -6.60342 0
M  V30 5442 H 505.704 0.0674961 -7.08068 0
M  V30 5443 H 506.112 0.930167 -5.56784 0
M  V30 5444 N 505.51 1.54411 -0.315457 0
M  V30 5445 C 506.757 2.00419 0.289543 0
M  V30 5446 C 507.085 1.20373 1.52776 0
M  V30 5447 O 506.34 0.271769 1.93804 0
M  V30 5448 C 506.639 3.50936 0.676652 0
M  V30 5449 C 506.305 4.48532 -0.461472 0
M  V30 5450 C 504.967 4.74936 -0.773879 0
M  V30 5451 C 507.319 5.06567 -1.22637 0
M  V30 5452 C 504.647 5.56634 -1.85405 0
M  V30 5453 C 506.999 5.89441 -2.29657 0
M  V30 5454 C 505.663 6.1415 -2.61488 0
M  V30 5455 H 504.933 0.733386 0.105951 0
M  V30 5456 H 507.58 1.86434 -0.437554 0
M  V30 5457 H 505.885 3.62606 1.48405 0
M  V30 5458 H 507.582 3.83971 1.15618 0
M  V30 5459 H 504.172 4.28096 -0.207893 0
M  V30 5460 H 508.356 4.86157 -0.998271 0
M  V30 5461 H 503.612 5.74012 -2.10523 0
M  V30 5462 H 507.786 6.33432 -2.89374 0
M  V30 5463 H 505.413 6.77245 -3.45317 0
M  V30 5464 N 506.988 0.0434614 1.5754 0
M  V30 5465 C 508.218 -0.640905 1.96408 0
M  V30 5466 C 508.626 -1.65365 0.919297 0
M  V30 5467 O 507.969 -1.83395 -0.105795 0
M  V30 5468 C 508.031 -1.39141 3.31482 0
M  V30 5469 C 507.695 -0.535375 4.53853 0
M  V30 5470 C 508.692 0.195335 5.19533 0
M  V30 5471 C 506.377 -0.468564 5.0011 0
M  V30 5472 C 508.371 0.981377 6.298 0
M  V30 5473 C 506.058 0.321171 6.10255 0
M  V30 5474 C 507.056 1.04484 6.74961 0
M  V30 5475 O 506.744 1.8216 7.8299 0
M  V30 5476 H 506.476 -0.180584 0.651433 0
M  V30 5477 H 509.03 0.103848 2.05137 0
M  V30 5478 H 507.26 -2.18162 3.19284 0
M  V30 5479 H 508.949 -1.96526 3.55151 0
M  V30 5480 H 509.715 0.15314 4.84758 0
M  V30 5481 H 505.594 -1.02142 4.49542 0
M  V30 5482 H 509.138 1.54674 6.80237 0
M  V30 5483 H 505.035 0.365032 6.44467 0
M  V30 5484 H 505.803 1.74289 7.99728 0
M  V30 5485 N 508.466 -1.55915 -0.229846 0
M  V30 5486 C 509.429 -1.90914 -1.26824 0
M  V30 5487 C 510.429 -0.786999 -1.40225 0
M  V30 5488 O 511.619 -1.05484 -1.38632 0
M  V30 5489 C 508.751 -2.15264 -2.64337 0
M  V30 5490 H 509.944 -2.8378 -0.969998 0
M  V30 5491 H 507.497 -1.49069 -0.4699 0
M  V30 5492 H 508.232 -1.24923 -2.99274 0
M  V30 5493 H 508.017 -2.97005 -2.55989 0
M  V30 5494 H 509.507 -2.43467 -3.39284 0
M  V30 5495 N 509.944 0.496216 -1.49584 0
M  V30 5496 C 510.854 1.62352 -1.69349 0
M  V30 5497 C 511.87 1.64184 -0.576147 0
M  V30 5498 O 513.046 1.82517 -0.85144 0
M  V30 5499 C 510.111 2.98698 -1.76013 0
M  V30 5500 C 509.172 3.07454 -2.99617 0
M  V30 5501 C 508.405 4.37296 -3.05953 0
M  V30 5502 O 508.628 5.2637 -2.19752 0
M  V30 5503 O 507.562 4.51124 -3.9846 0
M  V30 5504 H 511.388 1.48606 -2.64859 0
M  V30 5505 H 508.973 0.673022 -1.33382 0
M  V30 5506 H 510.855 3.79725 -1.82721 0
M  V30 5507 H 509.53 3.12696 -0.836828 0
M  V30 5508 H 508.437 2.25597 -2.98424 0
M  V30 5509 H 509.77 2.98385 -3.91443 0
M  V30 5510 N 511.423 1.38739 0.74761 0
M  V30 5511 C 512.37 1.36449 1.86146 0
M  V30 5512 C 513.34 0.226098 1.64554 0
M  V30 5513 O 514.525 0.41926 1.86137 0
M  V30 5514 C 511.665 1.2013 3.23516 0
M  V30 5515 C 510.778 2.43407 3.56899 0
M  V30 5516 C 509.913 2.19773 4.83605 0
M  V30 5517 C 508.952 3.3879 5.09792 0
M  V30 5518 N 508.089 3.14553 6.27695 0
M  V30 5519 H 512.929 2.3167 1.87438 0
M  V30 5520 H 510.466 1.15094 0.916063 0
M  V30 5521 H 512.424 1.08683 4.02795 0
M  V30 5522 H 511.054 0.285453 3.21535 0
M  V30 5523 H 510.106 2.65504 2.72418 0
M  V30 5524 H 511.418 3.32094 3.72176 0
M  V30 5525 H 510.572 2.05496 5.70838 0
M  V30 5526 H 509.311 1.28461 4.70478 0
M  V30 5527 H 508.316 3.53579 4.21025 0
M  V30 5528 H 509.541 4.30986 5.24812 0
M  V30 5529 H 507.487 2.25893 6.1588 0
M  V30 5530 H 507.404 3.96791 6.435 0
M  V30 5531 H 508.672 3.03943 7.17801 0
M  V30 5532 N 512.901 -0.976442 1.23707 0
M  V30 5533 C 514.149 -1.71487 1.06942 0
M  V30 5534 C 514.47 -1.9098 -0.393897 0
M  V30 5535 O 513.74 -1.48128 -1.28198 0
M  V30 5536 H 512.32 -0.635425 0.392739 0
M  V30 5537 H 514.982 -1.17515 1.55487 0
M  V30 5538 H 514.078 -2.70286 1.56051 0
M  V30 5539 N 514.379 -1.04941 -1.1758 0
M  V30 5540 C 515.604 -0.778253 -1.92245 0
M  V30 5541 C 516.029 0.659707 -1.76152 0
M  V30 5542 O 515.387 1.45803 -1.07755 0
M  V30 5543 C 515.435 -1.16051 -3.41416 0
M  V30 5544 O 514.539 -0.291153 -4.11371 0
M  V30 5545 H 513.88 -0.285619 -0.599431 0
M  V30 5546 H 516.41 -1.40159 -1.49052 0
M  V30 5547 H 516.42 -1.12619 -3.92149 0
M  V30 5548 H 515.095 -2.208 -3.52449 0
M  V30 5549 H 513.672 -0.385851 -3.70898 0
M  V30 5550 N 515.857 1.33968 -0.830081 0
M  V30 5551 C 517.082 2.02813 -0.433796 0
M  V30 5552 C 517.507 1.62076 0.954614 0
M  V30 5553 O 516.865 0.808955 1.62252 0
M  V30 5554 C 516.913 3.56348 -0.552115 0
M  V30 5555 O 516.017 4.10202 0.425191 0
M  V30 5556 H 515.358 0.639817 -0.177567 0
M  V30 5557 H 517.888 1.7106 -1.12248 0
M  V30 5558 H 517.898 4.05722 -0.430513 0
M  V30 5559 H 516.573 3.85344 -1.56471 0
M  V30 5560 H 515.15 3.71979 0.261878 0
M  V30 5561 N 517.335 0.585699 1.46312 0
M  V30 5562 C 518.298 -0.135673 2.28798 0
M  V30 5563 C 519.298 -0.815988 1.38558 0
M  V30 5564 O 520.488 -0.667487 1.60904 0
M  V30 5565 C 517.62 -1.20163 3.1902 0
M  V30 5566 H 518.813 0.589257 2.94054 0
M  V30 5567 H 516.366 0.343794 1.52472 0
M  V30 5568 H 517.101 -1.95804 2.58517 0
M  V30 5569 H 516.886 -0.718282 3.85465 0
M  V30 5570 H 518.376 -1.70749 3.81096 0
M  V30 5571 N 518.813 -1.54241 0.323641 0
M  V30 5572 C 520.038 -2.05452 -0.283605 0
M  V30 5573 C 520.463 -1.19823 -1.44997 0
M  V30 5574 O 519.821 -0.207358 -1.8011 0
M  V30 5575 C 519.869 -3.53823 -0.695795 0
M  V30 5576 O 518.973 -3.71134 -1.79815 0
M  V30 5577 H 518.314 -0.662024 -0.0511917 0
M  V30 5578 H 520.844 -1.99079 0.472073 0
M  V30 5579 H 520.854 -3.96094 -0.978434 0
M  V30 5580 H 519.529 -4.15602 0.157287 0
M  V30 5581 H 518.106 -3.40768 -1.51431 0
M  V30 5582 N 520.291 -0.0518155 -1.57515 0
M  V30 5583 C 521.238 0.922352 -2.11569 0
M  V30 5584 C 522.208 1.30842 -1.02321 0
M  V30 5585 O 523.393 1.39778 -1.29872 0
M  V30 5586 C 520.533 2.19167 -2.6657 0
M  V30 5587 C 519.646 1.86003 -3.89906 0
M  V30 5588 C 518.781 3.07398 -4.33221 0
M  V30 5589 C 517.82 2.70158 -5.49255 0
M  V30 5590 N 516.957 3.84248 -5.8762 0
M  V30 5591 H 521.797 0.454506 -2.94514 0
M  V30 5592 H 519.334 0.212718 -1.45554 0
M  V30 5593 H 521.292 2.93443 -2.96559 0
M  V30 5594 H 519.922 2.63528 -1.86421 0
M  V30 5595 H 518.974 1.01874 -3.66505 0
M  V30 5596 H 520.286 1.54592 -4.74239 0
M  V30 5597 H 519.44 3.89972 -4.64765 0
M  V30 5598 H 518.179 3.41988 -3.477 0
M  V30 5599 H 517.184 1.86001 -5.17382 0
M  V30 5600 H 518.409 2.36759 -6.36492 0
M  V30 5601 H 516.355 4.18638 -5.05053 0
M  V30 5602 H 516.272 3.56538 -6.66646 0
M  V30 5603 H 517.54 4.6746 -6.2378 0
M  V30 5604 N 521.769 1.56035 0.221574 0
M  V30 5605 C 523.016 1.79047 0.94597 0
M  V30 5606 C 523.344 0.62057 1.84334 0
M  V30 5607 O 522.599 -0.395053 1.91671 0
M  V30 5608 C 522.898 3.07813 1.8162 0
M  V30 5609 C 522.564 4.3797 1.07206 0
M  V30 5610 C 521.226 4.73334 0.866508 0
M  V30 5611 C 523.578 5.18326 0.546565 0
M  V30 5612 C 520.906 5.8657 0.123549 0
M  V30 5613 C 523.258 6.32335 -0.18305 0
M  V30 5614 C 521.922 6.66301 -0.399861 0
M  V30 5615 H 521.192 0.655178 0.346155 0
M  V30 5616 H 523.839 1.90299 0.214146 0
M  V30 5617 H 522.144 2.91682 2.61589 0
M  V30 5618 H 523.841 3.2282 2.37884 0
M  V30 5619 H 520.431 4.10202 1.24226 0
M  V30 5620 H 524.615 4.9144 0.692847 0
M  V30 5621 H 519.871 6.11376 -0.0546591 0
M  V30 5622 H 524.045 6.9383 -0.59775 0
M  V30 5623 H 521.672 7.53889 -0.977489 0
M  V30 5624 N 523.247 -0.488276 1.49845 0
M  V30 5625 C 524.475 -1.26527 1.63702 0
M  V30 5626 C 524.89 -1.8618 0.313447 0
M  V30 5627 O 524.247 -1.68432 -0.702624 0
M  V30 5628 C 524.298 -2.3864 2.71538 0
M  V30 5629 O 524.019 -1.81437 3.98763 0
M  V30 5630 C 525.52 -3.29805 2.96215 0
M  V30 5631 H 522.74 -0.383295 0.55075 0
M  V30 5632 H 525.284 -0.584779 1.95961 0
M  V30 5633 H 523.439 -3.02496 2.42023 0
M  V30 5634 H 523.853 -2.55135 4.58265 0
M  V30 5635 H 525.327 -4.04722 3.75372 0
M  V30 5636 H 525.804 -3.87563 2.06619 0
M  V30 5637 H 526.41 -2.71703 3.27196 0
M  V30 5638 N 524.725 -1.39134 -0.740242 0
M  V30 5639 C 525.95 -1.39518 -1.53459 0
M  V30 5640 C 526.375 0.00968883 -1.88098 0
M  V30 5641 O 525.733 0.995312 -1.51536 0
M  V30 5642 C 525.781 -2.26981 -2.802 0
M  V30 5643 O 524.885 -1.69609 -3.75908 0
M  V30 5644 H 524.226 -0.475328 -0.463637 0
M  V30 5645 H 526.756 -1.83064 -0.913717 0
M  V30 5646 H 526.766 -2.41309 -3.28989 0
M  V30 5647 H 525.441 -3.29081 -2.5432 0
M  V30 5648 H 524.018 -1.64495 -3.34658 0
M  V30 5649 N 526.204 0.969867 -1.24223 0
M  V30 5650 C 527.453 1.70687 -1.07466 0
M  V30 5651 C 527.766 1.91736 0.386861 0
M  V30 5652 O 528.972 2.62986 0.674581 0
M  V30 5653 C 527.428 3.07217 -1.87472 0
M  V30 5654 C 527.036 2.94018 -3.3802 0
M  V30 5655 C 528.78 3.84804 -1.79237 0
M  V30 5656 C 526.687 4.25844 -4.10379 0
M  V30 5657 H 525.617 0.640067 -0.398536 0
M  V30 5658 H 528.268 1.08092 -1.48285 0
M  V30 5659 H 526.65 3.70628 -1.39466 0
M  V30 5660 H 527.824 2.39632 -3.9359 0
M  V30 5661 H 526.139 2.29898 -3.47183 0
M  V30 5662 H 528.736 4.82417 -2.30603 0
M  V30 5663 H 529.079 4.09356 -0.757197 0
M  V30 5664 H 529.612 3.28115 -2.24912 0
M  V30 5665 H 526.351 4.06486 -5.14246 0
M  V30 5666 H 525.871 4.80054 -3.59594 0
M  V30 5667 H 527.55 4.94475 -4.17257 0
M  V30 5668 N 527.682 1.05563 1.17022 0
M  V30 5669 C 529.093 0.793475 1.69 0
M  V30 5670 C 529.444 -0.683882 1.83895 0
M  V30 5671 O 528.569 -1.53116 1.5292 0
M  V30 5672 C 529.164 1.43376 3.06967 0
M  V30 5673 C 527.723 1.21956 3.56095 0
M  V30 5674 C 526.87 1.51494 2.3226 0
M  V30 5675 H 529.821 1.22008 1.01487 0
M  V30 5676 H 529.842 0.845068 3.70997 0
M  V30 5677 H 529.354 2.50899 2.96093 0
M  V30 5678 H 527.455 0.163749 3.7224 0
M  V30 5679 H 527.568 1.92713 4.38633 0
M  V30 5680 H 525.932 0.935175 2.3691 0
M  V30 5681 H 526.715 2.60159 2.23992 0
M  V30 5682 N 529.16 -1.33526 0.837174 0
M  V30 5683 C 530.123 -2.27551 0.274421 0
M  V30 5684 C 531.123 -1.50886 -0.555881 0
M  V30 5685 O 532.313 -1.70227 -0.369918 0
M  V30 5686 C 529.445 -3.35332 -0.613605 0
M  V30 5687 H 530.638 -2.78837 1.10408 0
M  V30 5688 H 528.191 -1.439 0.610126 0
M  V30 5689 H 528.926 -2.89285 -1.46577 0
M  V30 5690 H 528.711 -3.92095 -0.0195341 0
M  V30 5691 H 530.201 -4.05433 -1.00068 0
M  V30 5692 N 530.638 -0.59345 -1.46 0
M  V30 5693 C 531.601 0.123538 -2.28867 0
M  V30 5694 C 532.601 0.808628 -1.38989 0
M  V30 5695 O 533.791 0.658945 -1.61256 0
M  V30 5696 C 530.923 1.1847 -3.19653 0
M  V30 5697 H 532.116 -0.604843 -2.93737 0
M  V30 5698 H 529.669 -0.351875 -1.52288 0
M  V30 5699 H 530.404 1.94431 -2.59552 0
M  V30 5700 H 530.189 0.69783 -3.8584 0
M  V30 5701 H 531.679 1.68726 -3.81997 0
M  V30 5702 N 532.116 1.54067 -0.331816 0
M  V30 5703 C 533.363 2.00715 0.268269 0
M  V30 5704 C 533.691 1.21986 1.51491 0
M  V30 5705 O 532.946 0.292309 1.93505 0
M  V30 5706 C 533.245 3.51634 0.639392 0
M  V30 5707 C 532.911 4.48018 -0.509019 0
M  V30 5708 C 531.573 4.74089 -0.824209 0
M  V30 5709 C 533.925 5.05237 -1.28003 0
M  V30 5710 C 531.253 5.54637 -1.91298 0
M  V30 5711 C 533.605 5.86972 -2.35895 0
M  V30 5712 C 532.269 6.11342 -2.67987 0
M  V30 5713 H 531.539 0.734469 0.0981667 0
M  V30 5714 H 534.186 1.8596 -0.457304 0
M  V30 5715 H 532.491 3.6416 1.44551 0
M  V30 5716 H 534.188 3.85175 1.11539 0
M  V30 5717 H 530.778 4.27851 -0.253287 0
M  V30 5718 H 534.962 4.8507 -1.04978 0
M  V30 5719 H 530.218 5.71747 -2.16599 0
M  V30 5720 H 534.392 6.30327 -2.96076 0
M  V30 5721 H 532.019 6.73544 -3.5248 0
M  V30 5722 N 533.594 0.0601682 1.57485 0
M  V30 5723 C 534.84 -0.606552 1.94146 0
M  V30 5724 C 535.195 -1.67918 0.939225 0
M  V30 5725 O 534.488 -1.91558 -0.0402649 0
M  V30 5726 C 534.682 -1.23831 3.35262 0
M  V30 5727 C 534.511 -0.228408 4.4912 0
M  V30 5728 C 533.281 0.182813 5.04969 0
M  V30 5729 C 535.479 0.52975 5.11564 0
M  V30 5730 N 533.461 1.18464 6.02362 0
M  V30 5731 C 534.832 1.38439 6.04346 0
M  V30 5732 C 536.887 0.587084 4.94427 0
M  V30 5733 C 535.59 2.29125 6.81832 0
M  V30 5734 C 537.616 1.4814 5.72546 0
M  V30 5735 C 536.978 2.32375 6.64967 0
M  V30 5736 H 533.077 -0.193328 0.757726 0
M  V30 5737 H 535.661 0.1346 1.94234 0
M  V30 5738 H 533.832 -1.94944 3.35933 0
M  V30 5739 H 535.564 -1.86456 3.59188 0
M  V30 5740 H 532.319 -0.197968 4.73186 0
M  V30 5741 H 532.743 1.68271 6.55754 0
M  V30 5742 H 537.385 -0.049944 4.22771 0
M  V30 5743 H 535.103 2.93868 7.52773 0
M  V30 5744 H 538.689 1.53045 5.6131 0
M  V30 5745 H 537.569 3.00454 7.2436 0
M  V30 5746 N 535.072 -1.5615 -0.213296 0
M  V30 5747 C 536.302 -1.83372 -0.951757 0
M  V30 5748 C 536.71 -0.638158 -1.78113 0
M  V30 5749 O 536.053 0.402609 -1.79234 0
M  V30 5750 C 536.115 -3.04444 -1.91192 0
M  V30 5751 C 535.779 -4.39107 -1.26627 0
M  V30 5752 C 536.776 -5.15794 -0.652087 0
M  V30 5753 C 534.461 -4.85834 -1.27556 0
M  V30 5754 C 536.455 -6.37376 -0.055814 0
M  V30 5755 C 534.142 -6.07356 -0.675451 0
M  V30 5756 C 535.14 -6.82967 -0.0666367 0
M  V30 5757 O 534.828 -8.0219 0.524119 0
M  V30 5758 H 534.56 -0.613398 -0.284111 0
M  V30 5759 H 537.114 -2.04096 -0.231112 0
M  V30 5760 H 535.344 -2.79559 -2.67178 0
M  V30 5761 H 537.033 -3.18466 -2.51662 0
M  V30 5762 H 537.799 -4.80796 -0.637172 0
M  V30 5763 H 533.678 -4.26949 -1.73883 0
M  V30 5764 H 537.222 -6.96334 0.420004 0
M  V30 5765 H 533.119 -6.41825 -0.687806 0
M  V30 5766 H 533.887 -8.17426 0.419243 0
M  V30 5767 N 536.55 0.480323 -1.50102 0
M  V30 5768 C 537.778 1.25657 -1.64371 0
M  V30 5769 C 538.193 1.86011 -0.323316 0
M  V30 5770 O 537.55 1.68803 0.693682 0
M  V30 5771 C 537.601 2.37197 -2.728 0
M  V30 5772 O 537.322 1.7932 -3.9972 0
M  V30 5773 C 538.823 3.2823 -2.9796 0
M  V30 5774 H 536.043 0.380369 -0.552775 0
M  V30 5775 H 538.587 0.574379 -1.96268 0
M  V30 5776 H 536.742 3.01208 -2.43623 0
M  V30 5777 H 537.156 2.52701 -4.59611 0
M  V30 5778 H 538.63 4.02725 -3.77513 0
M  V30 5779 H 539.107 3.86462 -2.08671 0
M  V30 5780 H 539.713 2.69964 -3.28633 0
M  V30 5781 N 538.028 1.39524 0.732853 0
M  V30 5782 C 539.277 1.36175 1.48792 0
M  V30 5783 C 539.59 -0.0388195 1.95561 0
M  V30 5784 O 540.796 -0.194899 2.708 0
M  V30 5785 C 539.252 2.39242 2.68871 0
M  V30 5786 C 538.86 3.85024 2.29042 0
M  V30 5787 C 540.604 2.44972 3.46683 0
M  V30 5788 C 538.511 4.79727 3.45856 0
M  V30 5789 H 537.441 0.506267 0.558757 0
M  V30 5790 H 540.092 1.65181 0.799226 0
M  V30 5791 H 538.474 2.0331 3.39825 0
M  V30 5792 H 539.648 4.30008 1.6562 0
M  V30 5793 H 537.963 3.82609 1.64316 0
M  V30 5794 H 540.56 3.12918 4.33574 0
M  V30 5795 H 540.903 1.4749 3.89297 0
M  V30 5796 H 541.436 2.79808 2.82759 0
M  V30 5797 H 538.175 5.78479 3.08289 0
M  V30 5798 H 537.695 4.39421 4.08251 0
M  V30 5799 H 539.374 4.98731 4.12161 0
M  V30 5800 N 539.506 -0.963266 1.24736 0
M  V30 5801 C 540.752 -1.70933 1.09131 0
M  V30 5802 C 541.085 -1.90676 -0.368273 0
M  V30 5803 O 540.36 -1.47147 -1.27193 0
M  V30 5804 C 540.643 -3.09744 1.83658 0
M  V30 5805 C 540.496 -2.97465 3.37394 0
M  V30 5806 C 541.815 -4.09483 1.61282 0
M  V30 5807 H 538.934 -0.620398 0.397838 0
M  V30 5808 H 541.576 -1.12028 1.53459 0
M  V30 5809 H 539.726 -3.60031 1.4598 0
M  V30 5810 H 541.398 -2.54571 3.84696 0
M  V30 5811 H 539.641 -2.33576 3.65547 0
M  V30 5812 H 540.312 -3.95822 3.84745 0
M  V30 5813 H 542.788 -3.68073 1.94066 0
M  V30 5814 H 541.664 -5.04666 2.15878 0
M  V30 5815 H 541.925 -4.38639 0.552102 0
M  V30 5816 N 540.985 -1.06182 -1.16461 0
M  V30 5817 C 542.213 -0.798583 -1.90867 0
M  V30 5818 C 542.628 0.646921 -1.77371 0
M  V30 5819 O 541.985 1.44279 -1.11758 0
M  V30 5820 C 542.036 -1.18258 -3.4161 0
M  V30 5821 O 541.757 -2.57135 -3.54701 0
M  V30 5822 C 543.258 -0.946917 -4.33069 0
M  V30 5823 H 540.478 -0.289603 -0.605286 0
M  V30 5824 H 543.022 -1.41515 -1.47627 0
M  V30 5825 H 541.177 -0.610562 -3.82558 0
M  V30 5826 H 541.591 -2.72477 -4.4817 0
M  V30 5827 H 543.065 -1.26523 -5.37304 0
M  V30 5828 H 543.542 0.117406 -4.39043 0
M  V30 5829 H 544.148 -1.50326 -3.97847 0
M  V30 5830 N 542.463 1.3308 -0.844243 0
M  V30 5831 C 543.396 2.27075 -0.226279 0
M  V30 5832 C 544.374 1.49911 0.629716 0
M  V30 5833 O 545.558 1.79068 0.588803 0
M  V30 5834 C 542.685 3.31767 0.681782 0
M  V30 5835 C 541.731 4.26384 -0.0994565 0
M  V30 5836 S 542.564 5.15186 -1.46094 0
M  V30 5837 C 543.72 6.23405 -0.558319 0
M  V30 5838 H 543.953 2.79141 -1.02312 0
M  V30 5839 H 541.486 1.40452 -0.641292 0
M  V30 5840 H 543.444 3.92566 1.20008 0
M  V30 5841 H 542.105 2.78507 1.45234 0
M  V30 5842 H 541.298 5.00514 0.591733 0
M  V30 5843 H 540.9 3.69949 -0.548991 0
M  V30 5844 H 543.192 6.77069 0.241672 0
M  V30 5845 H 544.135 6.96619 -1.26995 0
M  V30 5846 H 544.543 5.64333 -0.13728 0
M  V30 5847 N 543.941 0.601185 1.45683 0
M  V30 5848 C 545.169 0.100054 2.06658 0
M  V30 5849 C 545.584 -1.21285 1.44691 0
M  V30 5850 O 544.941 -1.73735 0.558772 0
M  V30 5851 C 544.992 -0.0528579 3.61461 0
M  V30 5852 O 544.713 1.20809 4.21114 0
M  V30 5853 C 546.214 -0.586193 4.39407 0
M  V30 5854 H 543.434 0.065905 0.667756 0
M  V30 5855 H 545.978 0.827101 1.87028 0
M  V30 5856 H 544.133 -0.730203 3.80456 0
M  V30 5857 H 544.547 1.03368 5.14213 0
M  V30 5858 H 546.021 -0.642297 5.4825 0
M  V30 5859 H 546.498 -1.60713 4.0874 0
M  V30 5860 H 547.104 0.0568935 4.25262 0
M  V30 5861 N 545.419 -1.53889 0.339982 0
M  V30 5862 C 546.647 -2.05271 -0.259114 0
M  V30 5863 C 547.062 -1.21517 -1.44496 0
M  V30 5864 O 546.419 -0.24966 -1.80784 0
M  V30 5865 C 546.47 -3.55092 -0.677634 0
M  V30 5866 O 546.191 -4.35667 0.461051 0
M  V30 5867 C 547.692 -4.22631 -1.33782 0
M  V30 5868 H 544.912 -0.669085 -0.0506566 0
M  V30 5869 H 547.456 -1.9852 0.490935 0
M  V30 5870 H 545.611 -3.62077 -1.37763 0
M  V30 5871 H 546.025 -5.24343 0.128144 0
M  V30 5872 H 547.499 -5.28861 -1.58145 0
M  V30 5873 H 547.976 -3.74758 -2.29027 0
M  V30 5874 H 548.582 -4.19829 -0.679957 0
M  V30 5875 N 546.897 -0.0685191 -1.57451 0
M  V30 5876 C 547.827 0.89747 -2.15564 0
M  V30 5877 C 548.808 1.31266 -1.08181 0
M  V30 5878 O 549.993 1.38429 -1.36202 0
M  V30 5879 C 547.123 2.16623 -2.71463 0
M  V30 5880 C 546.077 1.89054 -3.83982 0
M  V30 5881 C 545.403 3.22532 -4.26471 0
M  V30 5882 C 546.703 1.1984 -5.08366 0
M  V30 5883 H 548.397 0.413373 -2.96533 0
M  V30 5884 H 545.943 0.197391 -1.42641 0
M  V30 5885 H 547.896 2.84614 -3.10761 0
M  V30 5886 H 546.62 2.67269 -1.8771 0
M  V30 5887 H 545.279 1.23469 -3.45183 0
M  V30 5888 H 544.927 3.71013 -3.39644 0
M  V30 5889 H 544.627 3.04879 -5.02317 0
M  V30 5890 H 546.151 3.91727 -4.68383 0
M  V30 5891 H 547.565 1.77896 -5.45001 0
M  V30 5892 H 545.962 1.12456 -5.89469 0
M  V30 5893 H 547.032 0.176996 -4.84577 0
M  V30 5894 N 548.375 1.56261 0.205012 0
M  V30 5895 C 549.623 1.79684 0.925096 0
M  V30 5896 C 549.944 0.63989 1.84202 0
M  V30 5897 O 549.214 -0.342345 1.92885 0
M  V30 5898 H 547.794 0.662774 0.344587 0
M  V30 5899 H 550.456 1.93734 0.212899 0
M  V30 5900 H 549.552 2.72467 1.52211 0
M  V30 5901 N 549.853 -0.472356 1.50355 0
M  V30 5902 C 551.083 -1.24603 1.64796 0
M  V30 5903 C 551.491 -1.86297 0.330156 0
M  V30 5904 O 550.834 -1.69934 -0.697728 0
M  V30 5905 C 550.896 -2.39578 2.68035 0
M  V30 5906 C 550.56 -1.98531 4.11624 0
M  V30 5907 C 551.557 -1.50856 4.97532 0
M  V30 5908 C 549.242 -2.0729 4.57532 0
M  V30 5909 C 551.236 -1.12481 6.27397 0
M  V30 5910 C 548.923 -1.68527 5.87403 0
M  V30 5911 C 549.921 -1.212 6.7216 0
M  V30 5912 O 549.609 -0.829728 7.99607 0
M  V30 5913 H 549.341 -0.383035 0.55701 0
M  V30 5914 H 551.895 -0.570392 1.97321 0
M  V30 5915 H 550.125 -3.10309 2.30749 0
M  V30 5916 H 551.814 -3.01544 2.71709 0
M  V30 5917 H 552.58 -1.43511 4.63281 0
M  V30 5918 H 548.459 -2.43076 3.91708 0
M  V30 5919 H 552.003 -0.754698 6.93506 0
M  V30 5920 H 547.9 -1.7553 6.21176 0
M  V30 5921 H 548.668 -0.958689 8.12866 0
M  V30 5922 N 551.331 -1.39911 -0.725443 0
M  V30 5923 C 552.579 -1.37382 -1.48224 0
M  V30 5924 C 552.9 0.0264107 -1.94982 0
M  V30 5925 O 552.17 0.979408 -1.6966 0
M  V30 5926 H 550.75 -0.505596 -0.549892 0
M  V30 5927 H 553.412 -1.7487 -0.860608 0
M  V30 5928 H 552.508 -2.04254 -2.3598 0
M  V30 5929 N 552.809 0.956637 -1.25245 0
M  V30 5930 C 554.086 1.67716 -1.00651 0
M  V30 5931 C 554.466 2.0585 0.467866 0
M  V30 5932 O 553.814 1.77029 1.44475 0
M  V30 5933 C 554.024 2.90093 -1.94028 0
M  V30 5934 C 555.372 3.6209 -2.21756 0
M  V30 5935 O 556.396 3.00171 -1.9177 0
M  V30 5936 O 555.255 4.7358 -2.72735 0
M  V30 5937 H 552.349 0.733731 -0.381533 0
M  V30 5938 H 554.895 1.00974 -1.3639 0
M  V30 5939 H 553.667 2.58689 -2.93591 0
M  V30 5940 H 553.29 3.64566 -1.58674 0
M  V30 5941 N 554.287 1.06798 1.15896 0
M  V30 5942 C 555.22 0.627503 2.19403 0
M  V30 5943 C 556.198 -0.352352 1.58736 0
M  V30 5944 O 557.382 -0.260111 1.86697 0
M  V30 5945 C 554.509 -0.079356 3.38607 0
M  V30 5946 C 553.555 0.858057 4.17779 0
M  V30 5947 S 554.388 2.35605 4.80885 0
M  V30 5948 C 555.544 1.66083 6.03463 0
M  V30 5949 H 555.777 1.50441 2.56427 0
M  V30 5950 H 553.31 0.881427 1.26768 0
M  V30 5951 H 555.268 -0.48095 4.07673 0
M  V30 5952 H 553.929 -0.932524 2.99938 0
M  V30 5953 H 553.122 0.310108 5.03045 0
M  V30 5954 H 552.724 1.19977 3.54234 0
M  V30 5955 H 555.016 0.969337 6.7053 0
M  V30 5956 H 555.959 2.49159 6.62816 0
M  V30 5957 H 556.367 1.14122 5.52844 0
M  V30 5958 N 555.766 -1.3263 0.851289 0
M  V30 5959 C 557.012 -1.9766 0.453694 0
M  V30 5960 C 557.345 -1.67225 -0.987396 0
M  V30 5961 O 556.62 -0.958693 -1.69232 0
M  V30 5962 C 556.903 -3.5344 0.68936 0
M  V30 5963 C 556.756 -3.93517 2.17862 0
M  V30 5964 C 558.075 -4.39866 0.143555 0
M  V30 5965 H 555.194 -0.717989 0.166314 0
M  V30 5966 H 557.836 -1.57068 1.06909 0
M  V30 5967 H 555.986 -3.88147 0.165546 0
M  V30 5968 H 557.658 -3.69006 2.76826 0
M  V30 5969 H 555.901 -3.42798 2.65841 0
M  V30 5970 H 556.572 -5.02065 2.29422 0
M  V30 5971 H 559.048 -4.11875 0.591451 0
M  V30 5972 H 557.924 -5.47858 0.338043 0
M  V30 5973 H 558.185 -4.31696 -0.953466 0
M  V30 5974 N 557.244 -0.608902 -1.45362 0
M  V30 5975 C 558.655 -0.189511 -1.85736 0
M  V30 5976 C 559.006 1.2539 -1.50903 0
M  V30 5977 O 558.131 1.95094 -0.936347 0
M  V30 5978 C 558.726 -0.33716 -3.37118 0
M  V30 5979 C 557.285 0.0275487 -3.7639 0
M  V30 5980 C 556.432 -0.660983 -2.69307 0
M  V30 5981 H 559.383 -0.815499 -1.36144 0
M  V30 5982 H 559.404 0.430257 -3.7806 0
M  V30 5983 H 558.916 -1.38779 -3.62439 0
M  V30 5984 H 557.017 1.0773 -3.56686 0
M  V30 5985 H 557.13 -0.367018 -4.77692 0
M  V30 5986 H 555.494 -0.0984958 -2.54509 0
M  V30 5987 H 556.277 -1.71377 -2.97464 0
M  V30 5988 N 558.722 1.53707 -0.348139 0
M  V30 5989 C 559.669 2.25173 0.506518 0
M  V30 5990 C 560.639 1.25174 1.09182 0
M  V30 5991 O 561.824 1.53917 1.12757 0
M  V30 5992 C 558.964 3.03141 1.64923 0
M  V30 5993 C 558.077 4.18002 1.0908 0
M  V30 5994 C 557.212 4.83447 2.20119 0
M  V30 5995 C 556.251 5.90369 1.61651 0
M  V30 5996 N 555.388 6.49575 2.66451 0
M  V30 5997 H 560.228 2.97799 -0.109452 0
M  V30 5998 H 557.765 1.46953 -0.0657866 0
M  V30 5999 H 559.723 3.46607 2.32205 0
M  V30 6000 H 558.353 2.32803 2.23612 0
M  V30 6001 H 557.405 3.79145 0.308783 0
M  V30 6002 H 558.717 4.94892 0.623178 0
M  V30 6003 H 557.871 5.30008 2.95257 0
M  V30 6004 H 556.61 4.05991 2.70227 0
M  V30 6005 H 555.615 5.43186 0.850209 0
M  V30 6006 H 556.84 6.69735 1.1239 0
M  V30 6007 H 554.786 5.74981 3.15805 0
M  V30 6008 H 554.703 7.21952 2.24325 0
M  V30 6009 H 555.971 7.00789 3.41344 0
M  V30 6010 N 560.2 0.0768682 1.57412 0
M  V30 6011 C 561.428 -0.59997 1.9801 0
M  V30 6012 C 561.843 -1.62842 0.955408 0
M  V30 6013 O 561.2 -1.8241 -0.057314 0
M  V30 6014 C 561.251 -1.26401 3.38681 0
M  V30 6015 O 560.972 -0.276723 4.37225 0
M  V30 6016 C 562.473 -2.0282 3.94182 0
M  V30 6017 H 559.693 -0.162239 0.651091 0
M  V30 6018 H 562.237 0.150771 2.03943 0
M  V30 6019 H 560.392 -1.96581 3.33819 0
M  V30 6020 H 560.806 -0.753744 5.19056 0
M  V30 6021 H 562.28 -2.44667 4.94815 0
M  V30 6022 H 562.757 -2.88678 3.31001 0
M  V30 6023 H 563.363 -1.37496 4.02461 0
M  V30 6024 N 561.678 -1.56367 -0.196722 0
M  V30 6025 C 562.927 -1.79724 -0.915539 0
M  V30 6026 C 563.24 -0.649804 -1.84491 0
M  V30 6027 O 564.446 -0.767631 -2.60422 0
M  V30 6028 C 562.902 -3.18369 -1.67836 0
M  V30 6029 C 562.51 -4.4091 -0.793897 0
M  V30 6030 C 564.254 -3.51037 -2.38691 0
M  V30 6031 C 562.161 -5.70577 -1.55549 0
M  V30 6032 H 561.091 -0.67013 -0.345604 0
M  V30 6033 H 563.742 -1.82721 -0.168856 0
M  V30 6034 H 562.124 -3.09617 -2.46887 0
M  V30 6035 H 563.298 -4.60781 -0.042163 0
M  V30 6036 H 561.613 -4.15937 -0.19626 0
M  V30 6037 H 564.21 -4.4515 -2.96219 0
M  V30 6038 H 564.553 -2.74704 -3.12799 0
M  V30 6039 H 565.086 -3.61229 -1.66608 0
M  V30 6040 H 561.825 -6.49871 -0.857226 0
M  V30 6041 H 561.345 -5.54726 -2.2812 0
M  V30 6042 H 563.024 -6.11637 -2.10971 0
M  V30 6043 N 563.156 0.464375 -1.50603 0
M  V30 6044 C 564.119 1.54393 -1.69397 0
M  V30 6045 C 565.119 1.50566 -0.564504 0
M  V30 6046 O 566.309 1.53066 -0.831645 0
M  V30 6047 C 563.441 2.9401 -1.72543 0
M  V30 6048 H 564.634 1.39044 -2.65719 0
M  V30 6049 H 562.187 0.69122 -1.40185 0
M  V30 6050 H 562.922 3.14795 -0.77938 0
M  V30 6051 H 562.707 2.98195 -2.54602 0
M  V30 6052 H 564.197 3.72375 -1.89015 0
M  V30 6053 N 564.634 1.40294 0.718013 0
M  V30 6054 C 565.882 1.38167 1.47494 0
M  V30 6055 C 566.203 -0.01607 1.94993 0
M  V30 6056 O 565.473 -0.970396 1.70177 0
M  V30 6057 H 564.053 0.508505 0.547203 0
M  V30 6058 H 566.715 1.75324 0.851322 0
M  V30 6059 H 565.811 2.05503 2.34894 0
M  V30 6060 N 566.112 -0.949982 1.2575 0
M  V30 6061 C 567.059 -2.04738 1.06541 0
M  V30 6062 C 568.029 -1.66078 -0.0268818 0
M  V30 6063 O 569.214 -1.90348 0.131196 0
M  V30 6064 C 566.354 -3.38027 0.695127 0
M  V30 6065 C 565.467 -3.89776 1.86276 0
M  V30 6066 C 564.602 -5.11411 1.4364 0
M  V30 6067 C 563.641 -5.554 2.57287 0
M  V30 6068 N 562.778 -6.68244 2.15395 0
M  V30 6069 H 567.618 -2.20502 2.00457 0
M  V30 6070 H 565.155 -1.0805 0.998178 0
M  V30 6071 H 567.113 -4.14641 0.461375 0
M  V30 6072 H 565.743 -3.22135 -0.207046 0
M  V30 6073 H 564.795 -3.0964 2.20969 0
M  V30 6074 H 566.107 -4.18368 2.71606 0
M  V30 6075 H 565.261 -5.95457 1.16257 0
M  V30 6076 H 564 -4.84545 0.553879 0
M  V30 6077 H 563.005 -4.69916 2.85409 0
M  V30 6078 H 564.23 -5.84272 3.46125 0
M  V30 6079 H 562.176 -6.43078 1.29565 0
M  V30 6080 H 562.093 -6.96377 2.94272 0
M  V30 6081 H 563.361 -7.55687 1.91201 0
M  V30 6082 N 567.59 -1.07411 -1.15328 0
M  V30 6083 C 568.839 -0.792643 -1.85473 0
M  V30 6084 C 569.152 0.683789 -1.83259 0
M  V30 6085 O 570.358 1.08005 -2.49093 0
M  V30 6086 C 568.814 -1.36787 -3.32892 0
M  V30 6087 C 568.422 -2.87536 -3.43551 0
M  V30 6088 C 570.166 -1.16444 -4.08217 0
M  V30 6089 C 568.073 -3.38247 -4.85122 0
M  V30 6090 H 567.003 -0.292838 -0.694811 0
M  V30 6091 H 569.654 -1.29426 -1.30082 0
M  V30 6092 H 568.036 -0.793993 -3.87958 0
M  V30 6093 H 569.21 -3.50973 -2.98588 0
M  V30 6094 H 567.525 -3.06676 -2.81672 0
M  V30 6095 H 570.122 -1.51808 -5.12697 0
M  V30 6096 H 570.465 -0.10353 -4.16171 0
M  V30 6097 H 570.998 -1.70472 -3.59422 0
M  V30 6098 H 567.737 -4.43866 -4.82351 0
M  V30 6099 H 567.257 -2.79564 -5.30664 0
M  V30 6100 H 568.936 -3.34238 -5.5398 0
M  V30 6101 N 569.068 1.32177 -0.85831 0
M  V30 6102 C 570.315 1.97125 -0.463484 0
M  V30 6103 C 570.643 1.67907 0.981705 0
M  V30 6104 O 569.898 0.961717 1.70439 0
M  V30 6105 C 570.197 3.51372 -0.653658 0
M  V30 6106 C 569.863 4.00584 -2.06987 0
M  V30 6107 C 568.525 4.13733 -2.4572 0
M  V30 6108 C 570.877 4.26624 -2.99402 0
M  V30 6109 C 568.205 4.50268 -3.76132 0
M  V30 6110 C 570.557 4.64618 -4.29316 0
M  V30 6111 C 569.221 4.75975 -4.67979 0
M  V30 6112 H 568.491 0.72133 -0.169601 0
M  V30 6113 H 571.138 1.57517 -1.08907 0
M  V30 6114 H 569.443 3.91761 0.0551328 0
M  V30 6115 H 571.14 3.99655 -0.328163 0
M  V30 6116 H 567.73 3.90837 -1.75911 0
M  V30 6117 H 571.914 4.1597 -2.70708 0
M  V30 6118 H 567.17 4.57256 -4.05865 0
M  V30 6119 H 571.344 4.83722 -5.00985 0
M  V30 6120 H 568.971 5.04041 -5.69076 0
M  V30 6121 N 570.547 0.616602 1.45037 0
M  V30 6122 C 571.795 0.115103 2.01772 0
M  V30 6123 C 572.116 -1.2622 1.48639 0
M  V30 6124 O 571.386 -1.83563 0.684199 0
M  V30 6125 H 569.966 0.0395607 0.745952 0
M  V30 6126 H 572.628 0.800032 1.77723 0
M  V30 6127 H 571.724 0.0717274 3.12018 0
M  V30 6128 N 572.025 -1.5352 0.356285 0
M  V30 6129 C 573.25 -2.06007 -0.239961 0
M  V30 6130 C 573.675 -1.22872 -1.42422 0
M  V30 6131 O 573.033 -0.245516 -1.7963 0
M  V30 6132 C 573.081 -3.5522 -0.620587 0
M  V30 6133 O 572.185 -3.74864 -1.71902 0
M  V30 6134 H 571.526 -0.662961 -0.0371377 0
M  V30 6135 H 574.056 -1.98033 0.514194 0
M  V30 6136 H 574.066 -3.98081 -0.894197 0
M  V30 6137 H 572.741 -4.15175 0.245407 0
M  V30 6138 H 571.318 -3.43904 -1.44169 0
M  V30 6139 N 573.503 -0.0852151 -1.57369 0
M  V30 6140 C 574.752 0.580443 -1.93168 0
M  V30 6141 C 575.065 1.6995 -0.968319 0
M  V30 6142 O 576.271 2.42564 -1.21963 0
M  V30 6143 C 574.727 1.08386 -3.43192 0
M  V30 6144 C 574.335 -0.00491388 -4.48 0
M  V30 6145 C 576.079 1.72281 -3.87968 0
M  V30 6146 C 573.986 0.513299 -5.89168 0
M  V30 6147 H 572.916 0.22059 -0.72101 0
M  V30 6148 H 575.567 -0.159621 -1.82804 0
M  V30 6149 H 573.949 1.8773 -3.48674 0
M  V30 6150 H 575.123 -0.780032 -4.5415 0
M  V30 6151 H 573.438 -0.548453 -4.12772 0
M  V30 6152 H 576.035 2.12108 -4.9083 0
M  V30 6153 H 576.378 2.58811 -3.26071 0
M  V30 6154 H 576.911 0.995359 -3.85146 0
M  V30 6155 H 573.65 -0.315153 -6.54742 0
M  V30 6156 H 573.17 1.25564 -5.8651 0
M  V30 6157 H 574.849 0.985433 -6.39451 0
M  V30 6158 N 574.981 1.5647 0.188427 0
M  V30 6159 C 576.221 1.82803 0.914469 0
M  V30 6160 C 576.585 0.663681 1.80165 0
M  V30 6161 O 577.786 0.807059 2.56398 0
M  V30 6162 C 576.057 3.14187 1.70357 0
M  V30 6163 S 577.616 3.61947 2.48072 0
M  V30 6164 H 574.434 0.641497 0.306599 0
M  V30 6165 H 577.036 1.94694 0.177361 0
M  V30 6166 H 575.74 3.96937 1.04255 0
M  V30 6167 H 575.271 3.05192 2.48237 0
M  V30 6168 H 577.286 3.27913 3.72407 0
M  V30 6169 N 576.459 -0.456382 1.50847 0
M  V30 6170 C 577.684 -1.2349 1.66628 0
M  V30 6171 C 578.109 -1.84715 0.355254 0
M  V30 6172 O 577.467 -1.67961 -0.682559 0
M  V30 6173 C 577.515 -2.30865 2.77009 0
M  V30 6174 O 576.619 -3.35882 2.39285 0
M  V30 6175 H 575.96 -0.36266 0.556214 0
M  V30 6176 H 578.49 -0.541374 1.97308 0
M  V30 6177 H 578.5 -2.75949 3.00526 0
M  V30 6178 H 577.175 -1.85677 3.72152 0
M  V30 6179 H 575.752 -2.96406 2.26269 0
M  V30 6180 N 577.937 -1.40673 -0.710563 0
M  V30 6181 C 578.867 -1.44095 -1.83736 0
M  V30 6182 C 579.848 -0.301286 -1.67411 0
M  V30 6183 O 581.033 -0.510618 -1.87367 0
M  V30 6184 C 578.163 -1.30773 -3.21738 0
M  V30 6185 C 577.117 -2.42395 -3.52745 0
M  V30 6186 C 576.443 -2.14147 -4.89944 0
M  V30 6187 C 577.743 -3.84738 -3.53234 0
M  V30 6188 H 579.437 -2.38396 -1.81129 0
M  V30 6189 H 576.983 -1.14746 -0.870017 0
M  V30 6190 H 578.936 -1.31783 -4.00264 0
M  V30 6191 H 577.66 -0.329507 -3.24934 0
M  V30 6192 H 576.319 -2.40643 -2.76562 0
M  V30 6193 H 575.967 -1.14703 -4.89747 0
M  V30 6194 H 575.667 -2.88934 -5.11655 0
M  V30 6195 H 577.191 -2.16848 -5.70797 0
M  V30 6196 H 578.605 -3.88286 -4.2179 0
M  V30 6197 H 577.002 -4.59085 -3.86473 0
M  V30 6198 H 578.072 -4.13962 -2.52514 0
M  V30 6199 N 579.415 0.9433 -1.26252 0
M  V30 6200 C 580.64 1.72898 -1.14547 0
M  V30 6201 C 581.065 1.85761 0.295743 0
M  V30 6202 O 580.423 1.3463 1.21427 0
M  V30 6203 C 580.471 3.11471 -1.8171 0
M  V30 6204 O 579.575 3.97336 -1.10445 0
M  V30 6205 H 578.916 0.530555 -0.399259 0
M  V30 6206 H 581.446 1.18159 -1.67032 0
M  V30 6207 H 581.456 3.61872 -1.88449 0
M  V30 6208 H 580.131 3.01425 -2.86558 0
M  V30 6209 H 578.708 3.55788 -1.11666 0
M  V30 6210 N 580.893 1.08022 1.14757 0
M  V30 6211 C 582.141 0.805913 1.85336 0
M  V30 6212 C 582.462 -0.670162 1.83122 0
M  V30 6213 O 581.732 -1.48567 1.2769 0
M  V30 6214 H 580.312 0.295138 0.686223 0
M  V30 6215 H 582.974 1.36538 1.3908 0
M  V30 6216 H 582.07 1.14655 2.90277 0
M  V30 6217 N 582.371 -1.3172 0.865308 0
M  V30 6218 C 583.617 -1.97168 0.474633 0
M  V30 6219 C 583.95 -1.68263 -0.969604 0
M  V30 6220 O 583.225 -0.976588 -1.68205 0
M  V30 6221 C 583.508 -3.52689 0.726808 0
M  V30 6222 C 583.361 -3.91185 2.22024 0
M  V30 6223 C 584.68 -4.39689 0.190201 0
M  V30 6224 H 581.799 -0.716185 0.17392 0
M  V30 6225 H 584.441 -1.55925 1.08569 0
M  V30 6226 H 582.591 -3.8795 0.206705 0
M  V30 6227 H 584.263 -3.66049 2.80724 0
M  V30 6228 H 582.506 -3.3996 2.69462 0
M  V30 6229 H 583.177 -4.99604 2.34735 0
M  V30 6230 H 585.653 -4.11225 0.635103 0
M  V30 6231 H 584.529 -5.47469 0.396132 0
M  V30 6232 H 584.79 -4.32683 -0.907625 0
M  V30 6233 N 583.85 -0.624285 -1.44708 0
M  V30 6234 C 584.779 0.0717025 -2.3339 0
M  V30 6235 C 585.76 0.841814 -1.47809 0
M  V30 6236 O 586.946 0.809056 -1.76544 0
M  V30 6237 C 584.076 1.05852 -3.30776 0
M  V30 6238 C 583.029 0.400503 -4.26122 0
M  V30 6239 C 582.356 1.49674 -5.13324 0
M  V30 6240 C 583.656 -0.688924 -5.17737 0
M  V30 6241 H 585.35 -0.668819 -2.91834 0
M  V30 6242 H 582.896 -0.32308 -1.40329 0
M  V30 6243 H 584.849 1.5541 -3.91696 0
M  V30 6244 H 583.572 1.82984 -2.70526 0
M  V30 6245 H 582.231 -0.0743687 -3.66525 0
M  V30 6246 H 581.88 2.25877 -4.49431 0
M  V30 6247 H 581.58 1.06188 -5.77926 0
M  V30 6248 H 583.104 1.99427 -5.77115 0
M  V30 6249 H 584.518 -0.276724 -5.72632 0
M  V30 6250 H 582.915 -1.04652 -5.90904 0
M  V30 6251 H 583.985 -1.55884 -4.5916 0
M  V30 6252 N 585.328 1.53329 -0.364422 0
M  V30 6253 C 586.574 2.01537 0.225969 0
M  V30 6254 C 586.907 1.25128 1.48515 0
M  V30 6255 O 586.182 0.344653 1.91422 0
M  V30 6256 C 586.465 3.56339 0.519092 0
M  V30 6257 C 586.318 4.43441 -0.753639 0
M  V30 6258 C 587.637 4.19833 1.32015 0
M  V30 6259 H 584.756 0.732573 0.0806548 0
M  V30 6260 H 587.398 1.83597 -0.489084 0
M  V30 6261 H 585.548 3.71756 1.12825 0
M  V30 6262 H 587.22 4.39823 -1.39116 0
M  V30 6263 H 585.463 4.11457 -1.37424 0
M  V30 6264 H 586.134 5.49699 -0.503517 0
M  V30 6265 H 588.61 4.08242 0.804859 0
M  V30 6266 H 587.486 5.28177 1.49399 0
M  V30 6267 H 587.747 3.75821 2.32832 0
M  V30 6268 N 586.806 0.0935595 1.57322 0
M  V30 6269 C 588.055 -0.570191 1.93473 0
M  V30 6270 C 588.368 -1.69434 0.977318 0
M  V30 6271 O 589.574 -2.41914 1.23248 0
M  V30 6272 C 588.03 -1.06564 3.43762 0
M  V30 6273 C 587.638 0.0286723 4.47991 0
M  V30 6274 C 589.382 -1.70221 3.88877 0
M  V30 6275 C 587.289 -0.482046 5.89432 0
M  V30 6276 H 586.219 -0.216764 0.72217 0
M  V30 6277 H 588.87 0.169313 1.82717 0
M  V30 6278 H 587.252 -1.85878 3.49664 0
M  V30 6279 H 588.426 0.804106 4.5373 0
M  V30 6280 H 586.741 0.570336 4.12476 0
M  V30 6281 H 589.338 -2.09502 4.91948 0
M  V30 6282 H 589.681 -2.57078 3.27439 0
M  V30 6283 H 590.214 -0.974919 3.85668 0
M  V30 6284 H 586.953 0.349871 6.54566 0
M  V30 6285 H 586.473 -1.22452 5.87167 0
M  V30 6286 H 588.152 -0.951508 6.39965 0
M  V30 6287 N 588.284 -1.56567 -0.180126 0
M  V30 6288 C 589.247 -1.94852 -1.20686 0
M  V30 6289 C 590.247 -0.831212 -1.3765 0
M  V30 6290 O 591.437 -1.09841 -1.35206 0
M  V30 6291 C 588.569 -2.23565 -2.57355 0
M  V30 6292 H 589.762 -2.86722 -0.879225 0
M  V30 6293 H 587.315 -1.50489 -0.422237 0
M  V30 6294 H 588.05 -1.34381 -2.95148 0
M  V30 6295 H 587.835 -3.04999 -2.46411 0
M  V30 6296 H 589.325 -2.54137 -3.31367 0
M  V30 6297 N 589.762 0.448376 -1.51087 0
M  V30 6298 C 590.692 1.55102 -1.74544 0
M  V30 6299 C 591.673 1.59357 -0.594932 0
M  V30 6300 O 592.858 1.75261 -0.836491 0
M  V30 6301 C 589.988 2.93268 -1.86041 0
M  V30 6302 C 588.942 3.03877 -3.01402 0
M  V30 6303 C 588.268 4.43914 -2.98068 0
M  V30 6304 C 589.568 2.7898 -4.41551 0
M  V30 6305 H 591.262 1.35724 -2.66869 0
M  V30 6306 H 588.808 0.651498 -1.28419 0
M  V30 6307 H 590.761 3.70356 -2.01034 0
M  V30 6308 H 589.485 3.13853 -0.903548 0
M  V30 6309 H 588.144 2.29227 -2.86096 0
M  V30 6310 H 587.792 4.6145 -2.00182 0
M  V30 6311 H 587.492 4.51944 -3.75527 0
M  V30 6312 H 589.016 5.22991 -3.1514 0
M  V30 6313 H 590.43 3.45805 -4.57265 0
M  V30 6314 H 588.827 2.98431 -5.20633 0
M  V30 6315 H 589.897 1.74663 -4.5235 0
M  V30 6316 N 591.24 1.41047 0.703093 0
M  V30 6317 C 592.651 1.35657 1.28274 0
M  V30 6318 C 593.002 0.0360309 1.96167 0
M  V30 6319 O 592.127 -0.865833 1.98324 0
M  V30 6320 C 592.722 2.45707 2.33267 0
M  V30 6321 C 591.281 2.43738 2.86825 0
M  V30 6322 C 590.428 2.25941 1.60767 0
M  V30 6323 H 593.379 1.50672 0.49836 0
M  V30 6324 H 593.4 2.14333 3.14391 0
M  V30 6325 H 592.912 3.41805 1.83824 0
M  V30 6326 H 591.013 1.51375 3.40465 0
M  V30 6327 H 591.126 3.39779 3.37768 0
M  V30 6328 H 589.49 1.73681 1.86298 0
M  V30 6329 H 590.273 3.24054 1.1333 0
M  V30 6330 N 592.718 -0.936591 1.26751 0
M  V30 6331 C 593.964 -1.6858 1.12733 0
M  V30 6332 C 594.297 -1.91414 -0.327745 0
M  V30 6333 O 593.572 -1.49812 -1.24043 0
M  V30 6334 C 593.855 -3.05779 1.90187 0
M  V30 6335 C 593.708 -2.90242 3.43627 0
M  V30 6336 C 595.027 -4.0597 1.69931 0
M  V30 6337 H 592.146 -0.61182 0.410908 0
M  V30 6338 H 594.788 -1.08747 1.55801 0
M  V30 6339 H 592.938 -3.56853 1.53584 0
M  V30 6340 H 594.61 -2.46354 3.9001 0
M  V30 6341 H 592.853 -2.2577 3.70419 0
M  V30 6342 H 593.524 -3.87572 3.93055 0
M  V30 6343 H 596 -3.63874 2.0183 0
M  V30 6344 H 594.876 -4.99974 2.26534 0
M  V30 6345 H 595.137 -4.37369 0.64502 0
M  V30 6346 N 594.196 -1.08629 -1.14182 0
M  V30 6347 C 595.607 -0.838003 -1.66836 0
M  V30 6348 C 595.958 0.634885 -1.85644 0
M  V30 6349 O 595.083 1.49008 -1.56926 0
M  V30 6350 C 595.678 -1.51465 -3.03058 0
M  V30 6351 C 594.237 -1.31355 -3.52736 0
M  V30 6352 C 593.384 -1.57599 -2.28162 0
M  V30 6353 H 596.335 -1.24656 -0.982165 0
M  V30 6354 H 596.356 -0.943134 -3.68626 0
M  V30 6355 H 595.868 -2.58661 -2.89337 0
M  V30 6356 H 593.969 -0.262384 -3.71675 0
M  V30 6357 H 594.082 -2.04275 -4.33369 0
M  V30 6358 H 592.446 -0.997659 -2.34348 0
M  V30 6359 H 593.229 -2.66006 -2.17015 0
M  V30 6360 N 595.674 1.31259 -0.872281 0
M  V30 6361 C 596.92 1.96913 -0.485083 0
M  V30 6362 C 597.253 1.68774 0.960667 0
M  V30 6363 O 596.528 0.985495 1.67685 0
M  V30 6364 C 596.811 3.52299 -0.745502 0
M  V30 6365 C 596.664 3.90002 -2.24095 0
M  V30 6366 C 597.983 4.39582 -0.213516 0
M  V30 6367 H 595.102 0.715252 -0.177716 0
M  V30 6368 H 597.744 1.55347 -1.09395 0
M  V30 6369 H 595.894 3.87835 -0.227276 0
M  V30 6370 H 597.566 3.64555 -2.82661 0
M  V30 6371 H 595.809 3.38526 -2.71261 0
M  V30 6372 H 596.48 4.98352 -2.37381 0
M  V30 6373 H 598.956 4.10882 -0.656902 0
M  V30 6374 H 597.832 5.47251 -0.42516 0
M  V30 6375 H 598.093 4.33158 0.884666 0
M  V30 6376 N 597.152 0.631951 1.44375 0
M  V30 6377 C 598.401 0.134214 2.01253 0
M  V30 6378 C 598.714 -1.25171 1.50305 0
M  V30 6379 O 599.92 -1.8435 1.99317 0
M  V30 6380 C 598.376 0.189187 3.59402 0
M  V30 6381 C 597.984 1.57647 4.19346 0
M  V30 6382 C 599.728 -0.252044 4.23751 0
M  V30 6383 C 597.635 1.58651 5.69722 0
M  V30 6384 H 596.565 0.0464101 0.75257 0
M  V30 6385 H 599.216 0.790868 1.65582 0
M  V30 6386 H 597.598 -0.534584 3.92375 0
M  V30 6387 H 598.772 2.32389 3.97909 0
M  V30 6388 H 597.087 1.96186 3.67288 0
M  V30 6389 H 599.684 -0.264084 5.34047 0
M  V30 6390 H 600.027 -1.27951 3.96149 0
M  V30 6391 H 600.56 0.41926 3.95584 0
M  V30 6392 H 597.299 2.59237 6.0206 0
M  V30 6393 H 596.819 0.882039 5.93279 0
M  V30 6394 H 598.498 1.32082 6.33375 0
M  V30 6395 N 598.631 -1.53133 0.372548 0
M  V30 6396 C 599.877 -2.01654 -0.215277 0
M  V30 6397 C 600.21 -1.25914 -1.47849 0
M  V30 6398 O 599.485 -0.3548 -1.91237 0
M  V30 6399 C 599.768 -3.56609 -0.500187 0
M  V30 6400 C 599.621 -4.43036 0.777145 0
M  V30 6401 C 600.94 -4.20528 -1.29786 0
M  V30 6402 H 598.059 -0.732991 -0.0767686 0
M  V30 6403 H 600.701 -1.83335 0.498814 0
M  V30 6404 H 598.851 -3.7235 -1.10852 0
M  V30 6405 H 600.523 -4.39079 1.41447 0
M  V30 6406 H 598.766 -4.10723 1.39604 0
M  V30 6407 H 599.437 -5.49424 0.532662 0
M  V30 6408 H 601.913 -4.08663 -0.783198 0
M  V30 6409 H 600.789 -5.28962 -1.46596 0
M  V30 6410 H 601.05 -3.77051 -2.30836 0
M  V30 6411 N 600.109 -0.101901 -1.5727 0
M  V30 6412 C 601.334 0.571759 -1.99363 0
M  V30 6413 C 601.759 1.60507 -0.980768 0
M  V30 6414 O 601.117 1.81231 0.0498517 0
M  V30 6415 C 601.165 1.18996 -3.404 0
M  V30 6416 O 600.269 2.30572 -3.41922 0
M  V30 6417 H 599.61 0.144449 -0.648098 0
M  V30 6418 H 602.14 -0.185325 -2.03759 0
M  V30 6419 H 602.15 1.52962 -3.78241 0
M  V30 6420 H 600.825 0.432984 -4.1364 0
M  V30 6421 H 599.402 1.98173 -3.15883 0
M  V30 6422 N 601.587 1.56661 0.17182 0
M  V30 6423 C 602.535 1.97289 1.23207 0
M  V30 6424 C 603.529 0.861566 1.45854 0
M  V30 6425 O 604.735 1.04668 1.4644 0
M  V30 6426 H 601.11 0.627681 0.41415 0
M  V30 6427 H 603.081 2.85662 0.862542 0
M  V30 6428 C 601.83 2.34849 2.564 0
M  V30 6429 H 601.153 3.19903 2.39797 0
M  V30 6430 H 602.593 2.67121 3.29276 0
M  V30 6431 C 601.052 1.19172 3.15119 0
M  V30 6432 O 601.582 0.479113 3.98833 0
M  V30 6433 N 599.788 0.962415 2.74201 0
M  V30 6434 H 599.335 1.54365 2.06226 0
M  V30 6435 H 599.293 0.190272 3.13824 0
M  V30 6436 N 603.065 -0.440357 1.51323 0
M  V30 6437 C 604.312 -1.19004 1.63842 0
M  V30 6438 C 604.64 -1.91266 0.35321 0
M  V30 6439 O 603.895 -1.84143 -0.662565 0
M  V30 6440 C 604.194 -2.2339 2.78984 0
M  V30 6441 C 603.86 -1.68162 4.18369 0
M  V30 6442 C 602.522 -1.52823 4.56288 0
M  V30 6443 C 604.874 -1.27524 5.05358 0
M  V30 6444 C 602.202 -0.953157 5.78906 0
M  V30 6445 C 604.554 -0.714474 6.28552 0
M  V30 6446 C 603.218 -0.547961 6.65247 0
M  V30 6447 H 602.488 -0.435468 0.59954 0
M  V30 6448 H 605.135 -0.481538 1.85347 0
M  V30 6449 H 603.44 -3.00267 2.51688 0
M  V30 6450 H 605.137 -2.81211 2.85869 0
M  V30 6451 H 601.727 -1.81077 3.8847 0
M  V30 6452 H 605.911 -1.38197 4.76671 0
M  V30 6453 H 601.167 -0.811882 6.05986 0
M  V30 6454 H 605.341 -0.391059 6.95301 0
M  V30 6455 H 602.968 -0.100222 7.60134 0
M  V30 6456 N 604.543 -1.41418 -0.695603 0
M  V30 6457 C 605.768 -1.44329 -1.48942 0
M  V30 6458 C 606.193 -0.0501579 -1.88033 0
M  V30 6459 O 605.551 0.946598 -1.54626 0
M  V30 6460 C 605.599 -2.3578 -2.72837 0
M  V30 6461 O 604.703 -1.81482 -3.70322 0
M  V30 6462 H 604.044 -0.489838 -0.44828 0
M  V30 6463 H 606.574 -1.85878 -0.855014 0
M  V30 6464 H 606.584 -2.51654 -3.21145 0
M  V30 6465 H 605.259 -3.37005 -2.43722 0
M  V30 6466 H 603.836 -1.75058 -3.29255 0
M  V30 6467 N 606.021 0.929856 -1.27246 0
M  V30 6468 C 607.437 1.20542 -1.04603 0
M  V30 6469 C 607.637 2.00276 0.221754 0
M  V30 6470 O 606.693 2.34835 0.927833 0
M  V30 6471 C 608.006 1.95566 -2.28417 0
M  V30 6472 C 609.554 2.08513 -2.33433 0
M  V30 6473 C 610.029 2.86943 -3.5697 0
M  V30 6474 N 611.52 2.94512 -3.57515 0
M  V30 6475 C 612.255 3.55656 -4.49774 0
M  V30 6476 N 611.751 4.18209 -5.52334 0
M  V30 6477 N 613.544 3.53038 -4.37402 0
M  V30 6478 H 605.695 0.397113 -2.08655 0
M  V30 6479 H 607.958 0.238277 -0.917566 0
M  V30 6480 H 607.664 1.44395 -3.20691 0
M  V30 6481 H 607.538 2.9619 -2.33563 0
M  V30 6482 H 609.925 2.58872 -1.41666 0
M  V30 6483 H 610.006 1.07117 -2.32292 0
M  V30 6484 H 609.65 2.37268 -4.49072 0
M  V30 6485 H 609.58 3.8862 -3.55362 0
M  V30 6486 H 612.071 2.50053 -2.83341 0
M  V30 6487 H 612.384 4.62796 -6.18902 0
M  V30 6488 H 610.729 4.16761 -5.56179 0
M  V30 6489 H 613.92 3.0337 -3.56489 0
M  V30 6490 H 614.093 4.004 -5.09493 0
M  V30 6491 N 607.499 1.09233 1.13605 0
M  V30 6492 C 608.748 0.82205 1.84188 0
M  V30 6493 C 609.061 -0.654548 1.84323 0
M  V30 6494 O 610.267 -1.04029 2.50779 0
M  V30 6495 C 608.723 1.42066 3.30674 0
M  V30 6496 C 608.331 2.92965 3.38933 0
M  V30 6497 C 610.075 1.22924 4.06313 0
M  V30 6498 C 607.982 3.45922 4.79679 0
M  V30 6499 H 606.912 0.303854 0.690064 0
M  V30 6500 H 609.563 1.31479 1.28006 0
M  V30 6501 H 607.945 0.855613 3.86646 0
M  V30 6502 H 609.119 3.55679 2.92966 0
M  V30 6503 H 607.434 3.11118 2.76757 0
M  V30 6504 H 610.031 1.59945 5.10217 0
M  V30 6505 H 610.374 0.169726 4.15954 0
M  V30 6506 H 610.907 1.76168 3.56665 0
M  V30 6507 H 607.646 4.51484 4.75229 0
M  V30 6508 H 607.166 2.87971 5.26149 0
M  V30 6509 H 608.845 3.43009 5.48592 0
M  V30 6510 N 608.977 -1.30795 0.87923 0
M  V30 6511 C 610.207 -2.00237 0.50881 0
M  V30 6512 C 610.615 -1.66115 -0.905682 0
M  V30 6513 O 609.958 -0.89138 -1.60624 0
M  V30 6514 C 610.02 -3.54508 0.597003 0
M  V30 6515 C 609.684 -4.12131 1.97477 0
M  V30 6516 C 610.681 -4.28552 2.94346 0
M  V30 6517 C 608.366 -4.47644 2.2786 0
M  V30 6518 C 610.36 -4.79689 4.19735 0
M  V30 6519 C 608.047 -4.98481 3.53496 0
M  V30 6520 C 609.045 -5.14456 4.49248 0
M  V30 6521 O 608.733 -5.64199 5.72656 0
M  V30 6522 H 608.465 -0.647026 0.195788 0
M  V30 6523 H 611.019 -1.67785 1.1848 0
M  V30 6524 H 609.249 -3.86461 -0.135945 0
M  V30 6525 H 610.938 -4.05198 0.238684 0
M  V30 6526 H 611.704 -4.01424 2.72183 0
M  V30 6527 H 607.583 -4.34481 1.54102 0
M  V30 6528 H 611.127 -4.92073 4.9448 0
M  V30 6529 H 607.024 -5.25044 3.75498 0
M  V30 6530 H 607.792 -5.82551 5.74957 0
M  V30 6531 N 610.455 -0.639598 -1.44038 0
M  V30 6532 C 611.405 0.0823038 -2.27851 0
M  V30 6533 C 612.389 0.807991 -1.39141 0
M  V30 6534 O 613.581 0.692702 -1.62882 0
M  V30 6535 C 610.71 1.05742 -3.26609 0
M  V30 6536 C 609.796 0.330911 -4.22807 0
M  V30 6537 N 610.187 -0.645126 -5.01669 0
M  V30 6538 C 608.485 0.574214 -4.42288 0
M  V30 6539 C 609.186 -1.07513 -5.71678 0
M  V30 6540 N 608.162 -0.412164 -5.42035 0
M  V30 6541 H 611.964 -0.666861 -2.86234 0
M  V30 6542 H 609.478 -0.465777 -1.55577 0
M  V30 6543 H 611.475 1.58927 -3.85419 0
M  V30 6544 H 610.135 1.80679 -2.69787 0
M  V30 6545 H 611.146 -1.02329 -5.0769 0
M  V30 6546 H 607.823 1.30581 -3.96554 0
M  V30 6547 H 609.213 -1.88196 -6.45005 0
M  V30 6548 N 611.933 1.52934 -0.380664 0
M  V30 6549 C 612.865 2.23822 0.493581 0
M  V30 6550 C 613.878 1.25761 1.03383 0
M  V30 6551 O 615.067 1.5189 0.937633 0
M  V30 6552 C 612.167 2.9342 1.69582 0
M  V30 6553 C 611.34 4.18115 1.28445 0
M  V30 6554 C 610.399 4.70788 2.35042 0
M  V30 6555 O 609.425 5.34093 1.96807 0
M  V30 6556 N 610.627 4.49899 3.66839 0
M  V30 6557 H 613.392 2.99484 -0.11371 0
M  V30 6558 H 610.953 1.60577 -0.206587 0
M  V30 6559 H 612.945 3.2556 2.40401 0
M  V30 6560 H 611.515 2.21119 2.20965 0
M  V30 6561 H 610.735 3.92109 0.405503 0
M  V30 6562 H 612.023 4.99152 0.986132 0
M  V30 6563 H 611.421 3.99349 4.0067 0
M  V30 6564 H 609.978 4.86551 4.33718 0
M  V30 6565 N 613.412 0.11024 1.57214 0
M  V30 6566 C 614.36 -0.860586 2.16094 0
M  V30 6567 C 615.354 -1.28156 1.1078 0
M  V30 6568 O 616.56 -1.25433 1.29099 0
M  V30 6569 H 612.935 -0.295606 0.691463 0
M  V30 6570 H 614.906 -0.33942 2.96463 0
M  V30 6571 C 613.655 -2.10421 2.768 0
M  V30 6572 H 612.978 -1.7892 3.5753 0
M  V30 6573 H 614.418 -2.76375 3.21547 0
M  V30 6574 C 612.877 -2.88823 1.73444 0
M  V30 6575 O 613.407 -3.839 1.18251 0
M  V30 6576 N 611.613 -2.52649 1.43586 0
M  V30 6577 H 611.16 -1.754 1.8866 0
M  V30 6578 H 611.118 -3.05403 0.746735 0
M  V30 6579 N 614.89 -1.56749 -0.16351 0
M  V30 6580 C 615.822 -1.93587 -1.22705 0
M  V30 6581 C 616.835 -0.829824 -1.40063 0
M  V30 6582 O 618.024 -1.10826 -1.39928 0
M  V30 6583 C 615.124 -2.1803 -2.59454 0
M  V30 6584 C 614.297 -3.4928 -2.63292 0
M  V30 6585 C 613.356 -3.62457 -3.8146 0
M  V30 6586 O 612.382 -4.35004 -3.67096 0
M  V30 6587 N 613.584 -2.97888 -4.9824 0
M  V30 6588 H 616.349 -2.8542 -0.914081 0
M  V30 6589 H 613.91 -1.58 -0.353214 0
M  V30 6590 H 615.902 -2.24102 -3.36987 0
M  V30 6591 H 614.472 -1.32543 -2.8311 0
M  V30 6592 H 613.692 -3.54795 -1.71796 0
M  V30 6593 H 614.98 -4.35632 -2.62873 0
M  V30 6594 H 614.378 -2.38833 -5.12811 0
M  V30 6595 H 612.935 -3.09545 -5.73607 0
M  V30 6596 N 616.368 0.432326 -1.51554 0
M  V30 6597 C 617.784 0.769195 -1.39841 0
M  V30 6598 C 617.984 1.95584 -0.484675 0
M  V30 6599 O 617.04 2.52433 0.0582829 0
M  V30 6600 C 618.353 1.04487 -2.81963 0
M  V30 6601 C 619.901 1.149 -2.91148 0
M  V30 6602 C 620.376 1.45758 -4.34187 0
M  V30 6603 N 621.867 1.52671 -4.37317 0
M  V30 6604 C 622.602 1.78129 -5.4503 0
M  V30 6605 N 622.098 2.01345 -6.62897 0
M  V30 6606 N 623.891 1.79953 -5.32516 0
M  V30 6607 H 616.042 -0.349122 -2.09511 0
M  V30 6608 H 618.305 -0.0938113 -0.943347 0
M  V30 6609 H 618.011 0.24557 -3.50842 0
M  V30 6610 H 617.885 1.97119 -3.21596 0
M  V30 6611 H 620.272 1.93891 -2.22464 0
M  V30 6612 H 620.353 0.201568 -2.55005 0
M  V30 6613 H 619.997 0.672917 -5.03423 0
M  V30 6614 H 619.927 2.41715 -4.67848 0
M  V30 6615 H 622.418 1.36612 -3.52343 0
M  V30 6616 H 622.731 2.20155 -7.40778 0
M  V30 6617 H 621.076 1.98657 -6.66003 0
M  V30 6618 H 624.267 1.61337 -4.39418 0
M  V30 6619 H 624.44 1.99455 -6.1654 0
M  V30 6620 N 617.846 1.41785 0.688094 0
M  V30 6621 C 618.809 1.43936 1.78368 0
M  V30 6622 C 619.809 0.328866 1.57401 0
M  V30 6623 O 620.999 0.589093 1.63937 0
M  V30 6624 C 618.131 1.25804 3.16838 0
M  V30 6625 H 619.324 2.41472 1.77852 0
M  V30 6626 H 616.877 1.28037 0.896448 0
M  V30 6627 H 617.612 0.291386 3.22988 0
M  V30 6628 H 617.397 2.06272 3.33458 0
M  V30 6629 H 618.887 1.30162 3.96797 0
M  V30 6630 N 619.324 -0.923095 1.27737 0
M  V30 6631 C 620.601 -1.64989 1.05062 0
M  V30 6632 C 620.981 -2.07018 -0.413124 0
M  V30 6633 O 620.329 -1.80797 -1.39731 0
M  V30 6634 C 620.539 -2.84847 2.01652 0
M  V30 6635 C 621.887 -3.56083 2.31279 0
M  V30 6636 O 622.911 -2.94981 1.99662 0
M  V30 6637 O 621.77 -4.66182 2.85196 0
M  V30 6638 H 618.864 -0.723357 0.400853 0
M  V30 6639 H 621.41 -0.973224 1.3902 0
M  V30 6640 H 620.182 -2.50814 3.00347 0
M  V30 6641 H 619.805 -3.60231 1.68284 0
M  V30 6642 N 620.802 -1.09834 -1.13024 0
M  V30 6643 C 621.749 -0.741522 -2.18564 0
M  V30 6644 C 622.719 0.279236 -1.63736 0
M  V30 6645 O 623.904 0.159923 -1.90129 0
M  V30 6646 C 621.044 -0.17277 -3.44667 0
M  V30 6647 C 620.157 -1.24808 -4.13578 0
M  V30 6648 C 619.292 -0.641631 -5.27311 0
M  V30 6649 C 618.331 -1.69795 -5.88078 0
M  V30 6650 N 617.468 -1.11223 -6.93234 0
M  V30 6651 H 622.308 -1.64576 -2.48432 0
M  V30 6652 H 619.845 -0.822174 -1.21978 0
M  V30 6653 H 621.803 0.17482 -4.16834 0
M  V30 6654 H 620.433 0.694725 -3.15235 0
M  V30 6655 H 619.485 -1.71288 -3.39653 0
M  V30 6656 H 620.797 -2.04795 -4.54819 0
M  V30 6657 H 619.951 -0.243128 -6.06213 0
M  V30 6658 H 618.69 0.189742 -4.87331 0
M  V30 6659 H 617.695 -2.10595 -5.07868 0
M  V30 6660 H 618.92 -2.53206 -6.3013 0
M  V30 6661 H 616.866 -0.302208 -6.55304 0
M  V30 6662 H 616.783 -1.84901 -7.3304 0
M  V30 6663 H 618.051 -0.740068 -7.75979 0
M  V30 6664 N 622.28 1.30327 -0.886154 0
M  V30 6665 C 623.696 1.48676 -0.580323 0
M  V30 6666 C 623.896 1.81189 0.881639 0
M  V30 6667 O 622.952 1.90021 1.66278 0
M  V30 6668 C 624.265 2.60932 -1.49449 0
M  V30 6669 C 625.813 2.74812 -1.49824 0
M  V30 6670 C 626.288 3.90183 -2.39836 0
M  V30 6671 N 627.779 3.97495 -2.37806 0
M  V30 6672 C 628.514 4.86078 -3.04165 0
M  V30 6673 N 628.01 5.79448 -3.79753 0
M  V30 6674 N 629.803 4.79456 -2.93391 0
M  V30 6675 H 621.954 1.07495 -1.8319 0
M  V30 6676 H 624.217 0.532661 -0.784204 0
M  V30 6677 H 623.923 2.43731 -2.5355 0
M  V30 6678 H 623.797 3.57437 -1.20494 0
M  V30 6679 H 626.184 2.91418 -0.464731 0
M  V30 6680 H 626.265 1.78924 -1.82811 0
M  V30 6681 H 625.909 3.74334 -3.43273 0
M  V30 6682 H 625.839 4.85411 -2.04166 0
M  V30 6683 H 628.33 3.30703 -1.82877 0
M  V30 6684 H 628.643 6.43805 -4.27475 0
M  V30 6685 H 626.988 5.79376 -3.8386 0
M  V30 6686 H 630.179 4.05494 -2.33864 0
M  V30 6687 H 630.352 5.48283 -3.45383 0
M  V30 6688 N 623.758 0.647228 1.43697 0
M  V30 6689 C 625.174 0.314256 1.56476 0
M  V30 6690 C 625.374 -1.18191 1.63196 0
M  V30 6691 O 624.43 -1.96655 1.58376 0
M  V30 6692 C 625.743 1.02034 2.82859 0
M  V30 6693 C 627.291 1.00002 2.96595 0
M  V30 6694 C 627.766 1.68689 4.25803 0
M  V30 6695 N 629.257 1.65424 4.32654 0
M  V30 6696 C 629.992 2.1545 5.31384 0
M  V30 6697 N 629.488 2.73738 6.36427 0
M  V30 6698 N 631.281 2.05985 5.22998 0
M  V30 6699 H 623.432 1.61821 1.37578 0
M  V30 6700 H 625.695 0.680184 0.660344 0
M  V30 6701 H 625.401 2.07542 2.83935 0
M  V30 6702 H 625.275 0.568146 3.72897 0
M  V30 6703 H 627.662 -0.0466319 2.95063 0
M  V30 6704 H 627.743 1.49086 2.07863 0
M  V30 6705 H 627.387 2.73308 4.28095 0
M  V30 6706 H 627.317 1.17076 5.13421 0
M  V30 6707 H 629.808 1.22884 3.57363 0
M  V30 6708 H 630.121 3.09602 7.08072 0
M  V30 6709 H 628.466 2.77796 6.37067 0
M  V30 6710 H 631.657 1.60157 4.39849 0
M  V30 6711 H 631.83 2.45281 5.99784 0
M  V30 6712 N 625.236 -1.5273 0.388769 0
M  V30 6713 C 626.199 -2.25043 -0.434544 0
M  V30 6714 C 627.199 -1.26661 -0.990644 0
M  V30 6715 O 628.389 -1.50762 -0.872731 0
M  V30 6716 C 625.521 -3.00507 -1.60961 0
M  V30 6717 H 626.714 -2.99242 0.198549 0
M  V30 6718 H 624.267 -1.55664 0.140875 0
M  V30 6719 H 625.002 -2.30607 -2.28015 0
M  V30 6720 H 624.787 -3.72716 -1.21757 0
M  V30 6721 H 626.277 -3.55413 -2.19251 0
M  V30 6722 N 626.714 -0.118576 -1.57153 0
M  V30 6723 C 627.646 0.862247 -2.12363 0
M  V30 6724 C 628.659 1.23025 -1.06625 0
M  V30 6725 O 629.848 1.17927 -1.33998 0
M  V30 6726 C 626.948 2.16425 -2.60794 0
M  V30 6727 C 626.121 1.96801 -3.90626 0
M  V30 6728 C 625.18 3.10726 -4.2466 0
M  V30 6729 O 624.206 2.83659 -4.93484 0
M  V30 6730 N 625.408 4.37147 -3.81946 0
M  V30 6731 H 628.173 0.390564 -2.97144 0
M  V30 6732 H 625.734 0.0658591 -1.61766 0
M  V30 6733 H 627.726 2.91633 -2.80593 0
M  V30 6734 H 626.296 2.54943 -1.80895 0
M  V30 6735 H 625.516 1.05787 -3.7974 0
M  V30 6736 H 626.804 1.80993 -4.7552 0
M  V30 6737 H 626.202 4.62014 -3.26435 0
M  V30 6738 H 624.759 5.09229 -4.06853 0
M  V30 6739 N 628.193 1.56834 0.155195 0
M  V30 6740 C 629.14 1.97646 1.19184 0
M  V30 6741 C 630.11 0.842788 1.4313 0
M  V30 6742 O 631.295 1.1042 1.55602 0
M  V30 6743 C 628.435 2.35527 2.52232 0
M  V30 6744 C 627.548 3.62147 2.35529 0
M  V30 6745 C 626.683 3.89167 3.61555 0
M  V30 6746 C 625.722 5.09084 3.39853 0
M  V30 6747 N 624.859 5.32156 4.5799 0
M  V30 6748 H 629.699 2.8601 0.836802 0
M  V30 6749 H 627.236 1.41507 0.401758 0
M  V30 6750 H 629.194 2.55516 3.29799 0
M  V30 6751 H 627.824 1.50253 2.85699 0
M  V30 6752 H 626.876 3.4998 1.49057 0
M  V30 6753 H 628.188 4.49871 2.15448 0
M  V30 6754 H 627.342 4.09611 4.47553 0
M  V30 6755 H 626.081 2.9985 3.84632 0
M  V30 6756 H 625.086 4.88522 2.52243 0
M  V30 6757 H 626.311 5.99947 3.18183 0
M  V30 6758 H 624.257 4.45791 4.81255 0
M  V30 6759 H 624.174 6.14133 4.40882 0
M  V30 6760 H 625.442 5.57091 5.45225 0
M  V30 6761 N 629.671 -0.424282 1.51781 0
M  V30 6762 C 630.618 -1.51591 1.74037 0
M  V30 6763 C 631.588 -1.55556 0.582358 0
M  V30 6764 O 632.773 -1.72364 0.818245 0
M  V30 6765 C 629.913 -2.89188 1.8832 0
M  V30 6766 C 629.026 -2.9465 3.1592 0
M  V30 6767 C 628.161 -4.23452 3.20721 0
M  V30 6768 C 627.2 -4.22831 4.42584 0
M  V30 6769 N 626.337 -5.43178 4.44862 0
M  V30 6770 H 631.177 -1.31917 2.67212 0
M  V30 6771 H 628.714 -0.640599 1.32419 0
M  V30 6772 H 630.672 -3.69044 1.94583 0
M  V30 6773 H 629.302 -3.07392 0.985402 0
M  V30 6774 H 628.354 -2.07378 3.18902 0
M  V30 6775 H 629.666 -2.90055 4.05795 0
M  V30 6776 H 628.82 -5.1169 3.25973 0
M  V30 6777 H 627.559 -4.30722 2.28757 0
M  V30 6778 H 626.564 -3.32984 4.37495 0
M  V30 6779 H 627.789 -4.17213 5.35826 0
M  V30 6780 H 625.735 -5.51145 3.55775 0
M  V30 6781 H 625.652 -5.40515 5.28563 0
M  V30 6782 H 626.92 -6.33412 4.54324 0
M  V30 6783 N 631.149 -1.42148 -0.680565 0
M  V30 6784 C 632.112 -1.4488 -1.77602 0
M  V30 6785 C 633.112 -0.337209 -1.57224 0
M  V30 6786 O 634.302 -0.597778 -1.63622 0
M  V30 6787 C 631.434 -1.27483 -3.16166 0
M  V30 6788 H 632.627 -2.42412 -1.76568 0
M  V30 6789 H 630.18 -1.28511 -0.889645 0
M  V30 6790 H 630.915 -0.30851 -3.22829 0
M  V30 6791 H 630.7 -2.08037 -3.3236 0
M  V30 6792 H 632.19 -1.32265 -3.96101 0
M  V30 6793 N 632.627 0.916307 -1.28225 0
M  V30 6794 C 634.043 1.19425 -1.05876 0
M  V30 6795 C 634.243 2.005 0.2005 0
M  V30 6796 O 633.299 2.35806 0.902873 0
M  V30 6797 C 634.612 1.93133 -2.30478 0
M  V30 6798 C 636.16 2.06026 -2.35632 0
M  V30 6799 C 636.635 2.83141 -3.59994 0
M  V30 6800 N 638.126 2.90704 -3.60618 0
M  V30 6801 C 638.861 3.50865 -4.53521 0
M  V30 6802 N 638.357 4.12327 -5.56739 0
M  V30 6803 N 640.15 3.48379 -4.41122 0
M  V30 6804 H 632.301 0.37496 -2.09064 0
M  V30 6805 H 634.564 0.228531 -0.920042 0
M  V30 6806 H 634.27 1.40985 -3.22205 0
M  V30 6807 H 634.144 2.93696 -2.36691 0
M  V30 6808 H 636.531 2.57355 -1.44404 0
M  V30 6809 H 636.612 1.04647 -2.33415 0
M  V30 6810 H 636.256 2.32492 -4.51564 0
M  V30 6811 H 636.186 3.84829 -3.59464 0
M  V30 6812 H 638.677 2.47034 -2.85977 0
M  V30 6813 H 638.99 4.56205 -6.23776 0
M  V30 6814 H 637.335 4.10839 -5.60568 0
M  V30 6815 H 640.526 2.99572 -3.59686 0
M  V30 6816 H 640.699 3.94974 -5.13712 0
M  V30 6817 N 634.105 1.10431 1.1244 0
M  V30 6818 C 635.035 0.775143 2.20258 0
M  V30 6819 C 636.016 -0.25186 1.68225 0
M  V30 6820 O 637.201 -0.117637 1.93843 0
M  V30 6821 C 634.331 0.206133 3.46688 0
M  V30 6822 C 633.285 1.16382 4.11873 0
M  V30 6823 C 632.611 0.456014 5.32752 0
M  V30 6824 C 633.911 2.5104 4.58013 0
M  V30 6825 H 635.605 1.67665 2.4805 0
M  V30 6826 H 633.151 0.807595 1.19222 0
M  V30 6827 H 635.104 -0.036291 4.21384 0
M  V30 6828 H 633.828 -0.730614 3.18323 0
M  V30 6829 H 632.487 1.39169 3.39157 0
M  V30 6830 H 632.135 -0.485203 5.00654 0
M  V30 6831 H 631.835 1.09466 5.77314 0
M  V30 6832 H 633.359 0.222135 6.10196 0
M  V30 6833 H 634.773 2.32401 5.24083 0
M  V30 6834 H 633.17 3.10789 5.13352 0
M  V30 6835 H 634.24 3.11039 3.71998 0
M  V30 6836 N 635.583 -1.29855 0.893053 0
M  V30 6837 C 636.546 -2.26183 0.370687 0
M  V30 6838 C 637.546 -1.53108 -0.491385 0
M  V30 6839 O 638.736 -1.71643 -0.297386 0
M  V30 6840 C 635.868 -3.37633 -0.470827 0
M  V30 6841 H 637.061 -2.73903 1.22135 0
M  V30 6842 H 634.614 -1.41183 0.67061 0
M  V30 6843 H 635.349 -2.95241 -1.34175 0
M  V30 6844 H 635.134 -3.91825 0.146784 0
M  V30 6845 H 636.624 -4.09313 -0.827825 0
M  V30 6846 N 637.061 -0.65484 -1.43351 0
M  V30 6847 C 638.477 -0.32255 -1.56307 0
M  V30 6848 C 638.677 1.17324 -1.63821 0
M  V30 6849 O 637.733 1.95813 -1.59417 0
M  V30 6850 C 639.046 -1.03533 -2.82314 0
M  V30 6851 C 640.594 -1.01574 -2.9606 0
M  V30 6852 C 641.069 -1.70945 -4.24902 0
M  V30 6853 N 642.56 -1.67716 -4.3177 0
M  V30 6854 C 643.295 -2.18265 -5.30234 0
M  V30 6855 N 642.791 -2.7711 -6.34966 0
M  V30 6856 N 644.584 -2.08756 -5.21898 0
M  V30 6857 H 636.735 -1.62549 -1.36717 0
M  V30 6858 H 638.998 -0.683676 -0.656727 0
M  V30 6859 H 638.704 -2.09045 -2.8283 0
M  V30 6860 H 638.578 -0.587913 -3.7259 0
M  V30 6861 H 640.965 0.0309834 -2.95084 0
M  V30 6862 H 641.046 -1.50186 -2.07069 0
M  V30 6863 H 640.69 -2.75574 -4.26639 0
M  V30 6864 H 640.62 -1.19797 -5.12793 0
M  V30 6865 H 643.111 -1.24777 -3.56706 0
M  V30 6866 H 643.424 -3.13353 -7.06421 0
M  V30 6867 H 641.769 -2.81171 -6.35585 0
M  V30 6868 H 644.96 -1.62488 -4.38994 0
M  V30 6869 H 645.133 -2.48459 -5.98475 0
M  V30 6870 N 638.539 1.52521 -0.396863 0
M  V30 6871 C 639.788 2.00857 0.184184 0
M  V30 6872 C 640.101 1.28733 1.47265 0
M  V30 6873 O 641.307 1.67821 2.13421 0
M  V30 6874 C 639.763 3.57901 0.378787 0
M  V30 6875 C 639.371 4.38931 -0.896873 0
M  V30 6876 C 641.115 4.14504 0.915789 0
M  V30 6877 C 639.022 5.87591 -0.670133 0
M  V30 6878 H 637.952 0.750496 0.0726055 0
M  V30 6879 H 640.603 1.75965 -0.520425 0
M  V30 6880 H 638.985 3.79072 1.14543 0
M  V30 6881 H 640.159 4.29524 -1.66872 0
M  V30 6882 H 638.474 3.93586 -1.35938 0
M  V30 6883 H 641.071 5.23236 1.10126 0
M  V30 6884 H 641.414 3.71076 1.88701 0
M  V30 6885 H 641.947 3.97253 0.208523 0
M  V30 6886 H 638.686 6.35355 -1.61257 0
M  V30 6887 H 638.206 5.99767 0.0626368 0
M  V30 6888 H 639.885 6.46268 -0.307577 0
M  V30 6889 N 640.017 0.126909 1.57088 0
M  V30 6890 C 641.433 -0.229641 1.57939 0
M  V30 6891 C 641.633 -1.66145 1.1401 0
M  V30 6892 O 640.689 -2.3843 0.831119 0
M  V30 6893 C 642.002 0.0108648 3.00698 0
M  V30 6894 C 643.55 -0.054418 3.12953 0
M  V30 6895 C 644.025 0.158497 4.57726 0
M  V30 6896 N 645.516 0.104735 4.63082 0
M  V30 6897 C 646.251 0.24427 5.72879 0
M  V30 6898 N 645.747 0.440415 6.91399 0
M  V30 6899 N 647.54 0.183286 5.61801 0
M  V30 6900 H 639.691 1.06203 1.83942 0
M  V30 6901 H 641.954 0.418834 0.85046 0
M  V30 6902 H 641.66 1.00102 3.37154 0
M  V30 6903 H 641.534 -0.717512 3.70313 0
M  V30 6904 H 643.921 -1.0351 2.7635 0
M  V30 6905 H 644.002 0.705967 2.45865 0
M  V30 6906 H 643.646 1.13619 4.95028 0
M  V30 6907 H 643.576 -0.62197 5.22914 0
M  V30 6908 H 646.067 -0.0430298 3.77876 0
M  V30 6909 H 646.38 0.537536 7.70928 0
M  V30 6910 H 644.725 0.476488 6.93365 0
M  V30 6911 H 647.916 0.0309561 4.6809 0
M  V30 6912 H 648.089 0.295471 6.47326 0
M  V30 6913 N 641.495 -1.56914 -0.146875 0
M  V30 6914 C 642.458 -1.97368 -1.16526 0
M  V30 6915 C 643.458 -0.860223 -1.35856 0
M  V30 6916 O 644.648 -1.12684 -1.32846 0
M  V30 6917 C 641.78 -2.28974 -2.52555 0
M  V30 6918 H 642.973 -2.88523 -0.818209 0
M  V30 6919 H 640.526 -1.5135 -0.390221 0
M  V30 6920 H 641.261 -1.40611 -2.92231 0
M  V30 6921 H 641.046 -3.10157 -2.39886 0
M  V30 6922 H 642.536 -2.61109 -3.25902 0
M  V30 6923 N 642.974 0.416227 -1.52004 0
M  V30 6924 C 643.937 1.48926 -1.74223 0
M  V30 6925 C 644.937 1.48693 -0.612119 0
M  V30 6926 O 646.127 1.50343 -0.879921 0
M  V30 6927 C 643.259 2.88372 -1.81809 0
M  V30 6928 H 644.452 1.3052 -2.70008 0
M  V30 6929 H 642.005 0.646271 -1.42313 0
M  V30 6930 H 642.74 3.12157 -0.879135 0
M  V30 6931 H 642.525 2.89944 -2.6396 0
M  V30 6932 H 644.015 3.66173 -2.00766 0
M  V30 6933 N 644.452 1.42507 0.673017 0
M  V30 6934 C 645.399 1.46124 1.78651 0
M  V30 6935 C 646.369 0.313007 1.63124 0
M  V30 6936 O 647.554 0.517337 1.83653 0
M  V30 6937 C 644.694 1.3711 3.16694 0
M  V30 6938 C 643.807 2.61983 3.43495 0
M  V30 6939 C 642.942 2.45098 4.71275 0
M  V30 6940 C 641.981 3.65336 4.91117 0
M  V30 6941 N 641.118 3.47383 6.10139 0
M  V30 6942 H 645.958 2.4128 1.74895 0
M  V30 6943 H 643.495 1.19788 0.853766 0
M  V30 6944 H 645.453 1.29881 3.96468 0
M  V30 6945 H 644.083 0.45549 3.1957 0
M  V30 6946 H 643.135 2.79571 2.57961 0
M  V30 6947 H 644.447 3.51355 3.5405 0
M  V30 6948 H 643.601 2.35466 5.59143 0
M  V30 6949 H 642.34 1.53219 4.63007 0
M  V30 6950 H 641.345 3.754 4.0169 0
M  V30 6951 H 642.57 4.58199 5.01229 0
M  V30 6952 H 640.516 2.58222 6.0304 0
M  V30 6953 H 640.433 4.30344 6.21563 0
M  V30 6954 H 641.701 3.41565 7.00681 0
M  V30 6955 N 645.93 -0.909495 1.28709 0
M  V30 6956 C 647.155 -1.69801 1.1909 0
M  V30 6957 C 647.58 -1.86479 -0.246388 0
M  V30 6958 O 646.938 -1.37802 -1.17815 0
M  V30 6959 C 646.986 -3.06543 1.89904 0
M  V30 6960 O 646.09 -3.94268 1.2094 0
M  V30 6961 H 645.431 -0.519783 0.413185 0
M  V30 6962 H 647.961 -1.13689 1.70106 0
M  V30 6963 H 647.971 -3.56748 1.97977 0
M  V30 6964 H 646.646 -2.93722 2.94449 0
M  V30 6965 H 645.223 -3.52702 1.2106 0
M  V30 6966 N 647.408 -1.11026 -1.11852 0
M  V30 6967 C 648.656 -0.854769 -1.83134 0
M  V30 6968 C 648.977 0.621375 -1.84835 0
M  V30 6969 O 648.247 1.45129 -1.31584 0
M  V30 6970 H 646.827 -0.313229 -0.678157 0
M  V30 6971 H 649.489 -1.40178 -1.35411 0
M  V30 6972 H 648.585 -1.22311 -2.87135 0
M  V30 6973 N 648.886 1.2938 -0.899927 0
M  V30 6974 C 650.111 2.00228 -0.540692 0
M  V30 6975 C 650.536 1.66909 0.867359 0
M  V30 6976 O 649.894 0.893824 1.57735 0
M  V30 6977 C 649.942 3.52921 -0.740232 0
M  V30 6978 O 649.046 4.11879 0.207154 0
M  V30 6979 H 648.387 0.629505 -0.211233 0
M  V30 6980 H 650.917 1.6487 -1.21158 0
M  V30 6981 H 650.927 4.0287 -0.644973 0
M  V30 6982 H 649.602 3.76508 -1.76677 0
M  V30 6983 H 648.179 3.72845 0.0643315 0
M  V30 6984 N 650.364 0.662433 1.43002 0
M  V30 6985 C 651.327 -0.0142016 2.29196 0
M  V30 6986 C 652.327 -0.741394 1.42688 0
M  V30 6987 O 653.517 -0.581257 1.64216 0
M  V30 6988 C 650.649 -1.03084 3.24941 0
M  V30 6989 H 651.842 0.7443 2.90517 0
M  V30 6990 H 649.395 0.424133 1.50435 0
M  V30 6991 H 650.13 -1.81826 2.68533 0
M  V30 6992 H 649.915 -0.512946 3.8873 0
M  V30 6993 H 651.405 -1.50308 3.89612 0
M  V30 6994 N 651.842 -1.52309 0.404946 0
M  V30 6995 C 652.79 -2.28452 -0.437321 0
M  V30 6996 C 653.784 -1.32975 -1.04948 0
M  V30 6997 O 654.99 -1.50451 -0.988159 0
M  V30 6998 H 651.365 -0.734824 -0.159805 0
M  V30 6999 H 653.336 -2.97542 0.22615 0
M  V30 7000 C 652.085 -3.11536 -1.54404 0
M  V30 7001 H 651.408 -3.84871 -1.08233 0
M  V30 7002 H 652.848 -3.67926 -2.10729 0
M  V30 7003 C 651.307 -2.24833 -2.50902 0
M  V30 7004 O 651.837 -1.88574 -3.54687 0
M  V30 7005 N 650.043 -1.88685 -2.21012 0
M  V30 7006 H 649.59 -2.18371 -1.36646 0
M  V30 7007 H 649.548 -1.30966 -2.85824 0
M  V30 7008 N 653.32 -0.135238 -1.57019 0
M  V30 7009 C 654.283 0.794707 -2.14981 0
M  V30 7010 C 655.283 1.18342 -1.08866 0
M  V30 7011 O 656.473 1.10627 -1.34563 0
M  V30 7012 C 653.605 2.07685 -2.70333 0
M  V30 7013 H 654.798 0.290696 -2.98488 0
M  V30 7014 H 652.351 0.114128 -1.55883 0
M  V30 7015 H 653.086 2.6248 -1.9046 0
M  V30 7016 H 652.871 1.80745 -3.47957 0
M  V30 7017 H 654.361 2.74127 -3.1503 0
M  V30 7018 N 654.798 1.5699 0.138552 0
M  V30 7019 C 656.028 1.87704 0.863184 0
M  V30 7020 C 656.436 0.722411 1.74865 0
M  V30 7021 O 655.779 -0.316636 1.80951 0
M  V30 7022 C 655.841 3.13219 1.76449 0
M  V30 7023 C 655.505 4.44648 1.05532 0
M  V30 7024 C 656.502 5.18318 0.405252 0
M  V30 7025 C 654.187 4.91367 1.04231 0
M  V30 7026 C 656.181 6.36916 -0.24835 0
M  V30 7027 C 653.868 6.09887 0.384904 0
M  V30 7028 C 654.866 6.82508 -0.259292 0
M  V30 7029 O 654.554 7.98775 -0.906258 0
M  V30 7030 H 654.286 0.626255 0.254521 0
M  V30 7031 H 656.84 2.04966 0.133472 0
M  V30 7032 H 655.07 2.91988 2.53535 0
M  V30 7033 H 656.759 3.30111 2.36181 0
M  V30 7034 H 657.525 4.83289 0.407053 0
M  V30 7035 H 653.404 4.34759 1.53315 0
M  V30 7036 H 656.948 6.93538 -0.751755 0
M  V30 7037 H 652.845 6.44376 0.380799 0
M  V30 7038 H 653.613 8.14494 -0.80877 0
M  V30 7039 N 656.276 -0.40816 1.52223 0
M  V30 7040 C 657.209 -1.51834 1.70357 0
M  V30 7041 C 658.187 -1.52973 0.551171 0
M  V30 7042 O 659.371 -1.71667 0.778642 0
M  V30 7043 C 656.498 -2.90362 1.74378 0
M  V30 7044 C 655.544 -3.0713 2.95928 0
M  V30 7045 S 656.377 -2.80342 4.56255 0
M  V30 7046 C 657.533 -4.21098 4.63063 0
M  V30 7047 H 657.766 -1.36223 2.64255 0
M  V30 7048 H 655.299 -0.599798 1.42274 0
M  V30 7049 H 657.257 -3.70199 1.77379 0
M  V30 7050 H 655.918 -3.03314 0.816063 0
M  V30 7051 H 655.111 -4.08482 2.95226 0
M  V30 7052 H 654.713 -2.3516 2.90819 0
M  V30 7053 H 657.005 -5.14749 4.40499 0
M  V30 7054 H 657.948 -4.26823 5.65002 0
M  V30 7055 H 658.356 -4.06114 3.92086 0
M  V30 7056 N 657.755 -1.42862 -0.66545 0
M  V30 7057 C 658.687 -1.43026 -1.79098 0
M  V30 7058 C 659.7 -0.32803 -1.59461 0
M  V30 7059 O 660.889 -0.591709 -1.68407 0
M  V30 7060 C 657.989 -1.21566 -3.16346 0
M  V30 7061 C 657.162 -2.44399 -3.62751 0
M  V30 7062 C 656.221 -2.18344 -4.78761 0
M  V30 7063 O 655.247 -2.91611 -4.88827 0
M  V30 7064 N 656.449 -1.1924 -5.68122 0
M  V30 7065 H 659.214 -2.40045 -1.79439 0
M  V30 7066 H 656.775 -1.37861 -0.848872 0
M  V30 7067 H 658.767 -1.02037 -3.91625 0
M  V30 7068 H 657.337 -0.330368 -3.10849 0
M  V30 7069 H 656.557 -2.79433 -2.78048 0
M  V30 7070 H 657.845 -3.26173 -3.90498 0
M  V30 7071 H 657.243 -0.586603 -5.6265 0
M  V30 7072 H 655.8 -1.05698 -6.43173 0
M  V30 7073 N 659.233 0.902656 -1.29189 0
M  V30 7074 C 660.458 1.69167 -1.19989 0
M  V30 7075 C 660.883 1.86607 0.236495 0
M  V30 7076 O 660.241 1.38425 1.17082 0
M  V30 7077 C 660.289 3.05532 -1.91527 0
M  V30 7078 O 659.393 3.93621 -1.2303 0
M  V30 7079 H 658.734 0.517584 -0.415936 0
M  V30 7080 H 661.264 1.12785 -1.70706 0
M  V30 7081 H 661.274 3.55693 -1.99866 0
M  V30 7082 H 659.949 2.92156 -2.96003 0
M  V30 7083 H 658.526 3.52055 -1.22928 0
M  V30 7084 N 660.711 1.11618 1.11262 0
M  V30 7085 C 661.658 0.7762 2.17356 0
M  V30 7086 C 662.628 -0.253152 1.6416 0
M  V30 7087 O 663.813 -0.129655 1.90359 0
M  V30 7088 C 660.953 0.227581 3.44349 0
M  V30 7089 C 660.066 1.31372 4.1154 0
M  V30 7090 C 659.201 0.72544 5.26223 0
M  V30 7091 C 658.24 1.7913 5.85302 0
M  V30 7092 N 657.377 1.22237 6.91377 0
M  V30 7093 H 662.217 1.68508 2.45783 0
M  V30 7094 H 659.754 0.841475 1.20655 0
M  V30 7095 H 661.712 -0.108483 4.17059 0
M  V30 7096 H 660.342 -0.644486 3.16301 0
M  V30 7097 H 659.394 1.7667 3.36885 0
M  V30 7098 H 660.706 2.12005 4.51504 0
M  V30 7099 H 659.86 0.339541 6.05749 0
M  V30 7100 H 658.599 -0.112188 4.87571 0
M  V30 7101 H 657.604 2.18648 5.04453 0
M  V30 7102 H 658.829 2.63199 6.26022 0
M  V30 7103 H 656.775 0.406423 6.5474 0
M  V30 7104 H 656.692 1.9654 7.30006 0
M  V30 7105 H 657.96 0.863426 7.74703 0
M  V30 7106 N 662.189 -1.289 0.906776 0
M  V30 7107 C 663.605 -1.47733 0.603902 0
M  V30 7108 C 663.805 -1.82568 -0.852702 0
M  V30 7109 O 662.861 -1.92642 -1.63234 0
M  V30 7110 C 664.174 -2.58522 1.53581 0
M  V30 7111 C 665.722 -2.72394 1.54177 0
M  V30 7112 C 666.197 -3.86318 2.46013 0
M  V30 7113 N 667.688 -3.93661 2.441 0
M  V30 7114 C 668.423 -4.81177 3.11859 0
M  V30 7115 N 667.919 -5.73333 3.88923 0
M  V30 7116 N 669.712 -4.74728 3.00981 0
M  V30 7117 H 661.863 -1.04567 1.84877 0
M  V30 7118 H 664.126 -0.520118 0.792579 0
M  V30 7119 H 663.832 -2.39667 2.57396 0
M  V30 7120 H 663.706 -3.55475 1.26165 0
M  V30 7121 H 666.093 -2.90641 0.511034 0
M  V30 7122 H 666.174 -1.75993 1.85634 0
M  V30 7123 H 665.818 -3.68826 3.49185 0
M  V30 7124 H 665.748 -4.82102 2.11862 0
M  V30 7125 H 668.239 -3.27751 1.88115 0
M  V30 7126 H 668.552 -6.36923 4.37663 0
M  V30 7127 H 666.897 -5.73196 3.93029 0
M  V30 7128 H 670.088 -4.01722 2.40286 0
M  V30 7129 H 670.261 -5.42719 3.54062 0
M  V30 7130 N 663.667 -0.670007 -1.42649 0
M  V30 7131 C 664.615 0.0230106 -2.32589 0
M  V30 7132 C 665.609 0.795585 -1.49555 0
M  V30 7133 O 666.815 0.70409 -1.65658 0
M  V30 7134 H 663.19 0.0262342 -0.751542 0
M  V30 7135 H 665.161 -0.753009 -2.88743 0
M  V30 7136 C 663.91 0.963872 -3.34073 0
M  V30 7137 H 663.233 0.378813 -3.98001 0
M  V30 7138 H 664.673 1.41755 -3.99602 0
M  V30 7139 C 663.132 2.06797 -2.65964 0
M  V30 7140 O 663.662 3.15383 -2.48789 0
M  V30 7141 N 661.868 1.83831 -2.25066 0
M  V30 7142 H 661.415 0.955235 -2.39234 0
M  V30 7143 H 661.373 2.57895 -1.79827 0
M  V30 7144 N 665.145 1.52092 -0.413018 0
M  V30 7145 C 666.393 2.01456 0.161178 0
M  V30 7146 C 666.714 1.30034 1.45314 0
M  V30 7147 O 665.984 0.427435 1.9118 0
M  V30 7148 H 664.564 0.744376 0.0625526 0
M  V30 7149 H 667.226 1.86974 -0.550151 0
M  V30 7150 H 666.322 3.1008 0.354517 0
M  V30 7151 N 666.623 0.143563 1.56945 0
M  V30 7152 C 667.553 -0.7936 2.196 0
M  V30 7153 C 668.534 -1.25955 1.14321 0
M  V30 7154 O 669.719 -1.31773 1.42651 0
M  V30 7155 C 666.849 -2.03424 2.81489 0
M  V30 7156 C 665.803 -1.70519 3.92565 0
M  V30 7157 C 665.129 -3.01817 4.41373 0
M  V30 7158 C 666.429 -0.95449 5.13504 0
M  V30 7159 H 668.123 -0.271423 2.98167 0
M  V30 7160 H 665.669 -0.12911 1.4342 0
M  V30 7161 H 667.622 -2.69463 3.23987 0
M  V30 7162 H 666.346 -2.58008 2.00248 0
M  V30 7163 H 665.005 -1.06859 3.5068 0
M  V30 7164 H 664.653 -3.54386 3.56959 0
M  V30 7165 H 664.353 -2.80565 5.16292 0
M  V30 7166 H 665.877 -3.68934 4.86539 0
M  V30 7167 H 667.291 -1.5169 5.52868 0
M  V30 7168 H 665.688 -0.842035 5.94163 0
M  V30 7169 H 666.758 0.0544033 4.84869 0
M  V30 7170 N 668.101 -1.57061 -0.130224 0
M  V30 7171 C 669.031 -2.02552 -1.16168 0
M  V30 7172 C 670.012 -0.907971 -1.4384 0
M  V30 7173 O 671.197 -1.17693 -1.54473 0
M  V30 7174 C 668.327 -2.42035 -2.49071 0
M  V30 7175 C 667.281 -3.5713 -2.35886 0
M  V30 7176 C 666.607 -3.82478 -3.7365 0
M  V30 7177 C 667.907 -4.89236 -1.8288 0
M  V30 7178 H 669.601 -2.8897 -0.783359 0
M  V30 7179 H 667.147 -1.39021 -0.375376 0
M  V30 7180 H 669.1 -2.72462 -3.21469 0
M  V30 7181 H 667.824 -1.52573 -2.88771 0
M  V30 7182 H 666.483 -3.26895 -1.65938 0
M  V30 7183 H 666.131 -2.9024 -4.10816 0
M  V30 7184 H 665.831 -4.59944 -3.65685 0
M  V30 7185 H 667.355 -4.15347 -4.47571 0
M  V30 7186 H 668.769 -5.18272 -2.45085 0
M  V30 7187 H 667.166 -5.70624 -1.85763 0
M  V30 7188 H 668.236 -4.78494 -0.785571 0
M  V30 7189 N 669.579 0.400081 -1.52437 0
M  V30 7190 C 670.804 1.17221 -1.71096 0
M  V30 7191 C 671.229 1.83269 -0.423565 0
M  V30 7192 O 670.587 1.70378 0.619751 0
M  V30 7193 C 670.635 2.20425 -2.85386 0
M  V30 7194 O 669.739 3.26769 -2.51586 0
M  V30 7195 H 669.08 0.341766 -0.569291 0
M  V30 7196 H 671.61 0.467772 -1.99181 0
M  V30 7197 H 671.62 2.64605 -3.10561 0
M  V30 7198 H 670.295 1.71737 -3.78786 0
M  V30 7199 H 668.872 2.87804 -2.37114 0
M  V30 7200 N 671.057 1.43213 0.657864 0
M  V30 7201 C 672.005 1.48271 1.79216 0
M  V30 7202 C 672.999 0.35675 1.65601 0
M  V30 7203 O 674.205 0.530535 1.72004 0
M  V30 7204 H 670.58 0.464729 0.591211 0
M  V30 7205 H 672.551 2.43792 1.7207 0
M  V30 7206 C 671.3 1.41837 3.17455 0
M  V30 7207 H 670.623 2.27781 3.28567 0
M  V30 7208 H 672.063 1.49438 3.96793 0
M  V30 7209 C 670.522 0.135347 3.36628 0
M  V30 7210 O 671.052 -0.805199 3.93547 0
M  V30 7211 N 669.258 0.0470316 2.90562 0
M  V30 7212 H 668.805 0.813221 2.44427 0
M  V30 7213 H 668.763 -0.810737 3.03767 0
M  V30 7214 N 672.536 -0.895792 1.29666 0
M  V30 7215 C 673.468 -2.00563 1.10937 0
M  V30 7216 C 674.481 -1.62705 0.055734 0
M  V30 7217 O 675.67 -1.7595 0.300656 0
M  V30 7218 C 672.77 -3.32262 0.667448 0
M  V30 7219 C 671.943 -3.98625 1.80047 0
M  V30 7220 C 671.002 -5.08617 1.3489 0
M  V30 7221 O 670.028 -5.30837 2.05429 0
M  V30 7222 N 671.23 -5.80076 0.221937 0
M  V30 7223 H 673.995 -2.17184 2.06522 0
M  V30 7224 H 671.556 -1.06822 1.21658 0
M  V30 7225 H 673.548 -4.03196 0.348586 0
M  V30 7226 H 672.118 -3.11985 -0.196055 0
M  V30 7227 H 671.338 -3.21005 2.28801 0
M  V30 7228 H 672.626 -4.39704 2.56003 0
M  V30 7229 H 672.024 -5.64514 -0.366084 0
M  V30 7230 H 670.581 -6.51789 -0.0375346 0
M  V30 7231 N 674.014 -1.12206 -1.10668 0
M  V30 7232 C 674.944 -0.810086 -2.18997 0
M  V30 7233 C 675.925 0.225065 -1.68604 0
M  V30 7234 O 677.11 0.086783 -1.94006 0
M  V30 7235 C 674.24 -0.261262 -3.46316 0
M  V30 7236 C 673.194 -1.2292 -4.09969 0
M  V30 7237 C 672.52 -0.540713 -5.31959 0
M  V30 7238 C 673.82 -2.58295 -4.53962 0
M  V30 7239 H 675.514 -1.7159 -2.45352 0
M  V30 7240 H 673.06 -0.82646 -1.17922 0
M  V30 7241 H 675.013 -0.0307522 -4.21389 0
M  V30 7242 H 673.737 0.679879 -3.19445 0
M  V30 7243 H 672.396 -1.44548 -3.369 0
M  V30 7244 H 672.044 0.405492 -5.01363 0
M  V30 7245 H 671.744 -1.18637 -5.75499 0
M  V30 7246 H 673.268 -0.319184 -6.09765 0
M  V30 7247 H 674.682 -2.40709 -5.20319 0
M  V30 7248 H 673.079 -3.18916 -5.08343 0
M  V30 7249 H 674.149 -3.16918 -3.67002 0
M  V30 7250 N 675.492 1.28418 -0.913599 0
M  V30 7251 C 676.424 2.26368 -0.359169 0
M  V30 7252 C 677.437 1.54858 0.502285 0
M  V30 7253 O 678.626 1.75659 0.31719 0
M  V30 7254 C 675.726 3.35112 0.50526 0
M  V30 7255 C 674.899 4.36126 -0.333648 0
M  V30 7256 C 673.958 5.24134 0.465845 0
M  V30 7257 O 672.984 5.6907 -0.121538 0
M  V30 7258 N 674.186 5.52892 1.76891 0
M  V30 7259 H 676.951 2.74579 -1.2011 0
M  V30 7260 H 674.512 1.41898 -0.779532 0
M  V30 7261 H 676.504 3.90926 1.04684 0
M  V30 7262 H 675.074 2.86611 1.2479 0
M  V30 7263 H 674.294 3.79776 -1.0566 0
M  V30 7264 H 675.582 5.00638 -0.907669 0
M  V30 7265 H 674.98 5.18217 2.26865 0
M  V30 7266 H 673.537 6.11464 2.25732 0
M  V30 7267 N 676.97 0.677563 1.42291 0
M  V30 7268 C 678.195 0.207901 2.06355 0
M  V30 7269 C 678.62 -1.12723 1.50583 0
M  V30 7270 O 677.978 -1.70171 0.62543 0
M  V30 7271 C 678.026 0.156489 3.6026 0
M  V30 7272 O 677.13 -0.874162 4.03029 0
M  V30 7273 H 676.471 0.106056 0.655475 0
M  V30 7274 H 679.001 0.927354 1.82377 0
M  V30 7275 H 679.011 -0.0187258 4.07996 0
M  V30 7276 H 677.686 1.13101 4.00226 0
M  V30 7277 H 676.263 -0.669764 3.66836 0
M  V30 7278 N 678.448 -1.51871 0.421078 0
M  V30 7279 C 679.673 -2.0684 -0.152371 0
M  V30 7280 C 680.098 -1.28802 -1.37083 0
M  V30 7281 O 679.456 -0.321482 -1.78427 0
M  V30 7282 C 679.504 -3.57532 -0.469368 0
M  V30 7283 O 678.608 -3.81818 -1.55848 0
M  V30 7284 H 677.949 -0.663939 -0.00898586 0
M  V30 7285 H 680.479 -1.95674 0.597724 0
M  V30 7286 H 680.489 -4.01515 -0.724553 0
M  V30 7287 H 679.164 -4.13761 0.421276 0
M  V30 7288 H 677.741 -3.49709 -1.29453 0
M  V30 7289 N 679.926 -0.151884 -1.56866 0
M  V30 7290 C 680.836 0.798876 -2.20579 0
M  V30 7291 C 681.852 1.268 -1.19154 0
M  V30 7292 O 683.028 1.32418 -1.51748 0
M  V30 7293 C 680.093 2.01861 -2.81874 0
M  V30 7294 C 679.154 1.59825 -3.9844 0
M  V30 7295 C 678.387 2.75984 -4.56802 0
M  V30 7296 O 678.61 3.92331 -4.14044 0
M  V30 7297 O 677.544 2.51175 -5.46987 0
M  V30 7298 H 681.37 0.2865 -3.02346 0
M  V30 7299 H 678.955 0.0753806 -1.4921 0
M  V30 7300 H 680.837 2.73235 -3.20813 0
M  V30 7301 H 679.512 2.52042 -2.03117 0
M  V30 7302 H 678.419 0.854601 -3.64208 0
M  V30 7303 H 679.752 1.14355 -4.78731 0
M  V30 7304 N 681.404 1.57128 0.121893 0
M  V30 7305 C 682.681 1.75664 0.860327 0
M  V30 7306 C 683.061 0.726585 1.98202 0
M  V30 7307 O 682.409 -0.24999 2.27128 0
M  V30 7308 C 682.619 3.20571 1.37968 0
M  V30 7309 C 683.967 3.82988 1.83317 0
M  V30 7310 O 684.991 3.24156 1.47654 0
M  V30 7311 O 683.85 4.86393 2.49168 0
M  V30 7312 H 680.944 0.719153 0.408348 0
M  V30 7313 H 683.49 1.6937 0.105859 0
M  V30 7314 H 682.262 3.87056 0.57477 0
M  V30 7315 H 681.885 3.31392 2.19694 0
M  V30 7316 N 682.882 -0.391992 1.52647 0
M  V30 7317 C 683.792 -1.503 1.80131 0
M  V30 7318 C 684.808 -1.59825 0.687882 0
M  V30 7319 O 685.984 -1.76218 0.975149 0
M  V30 7320 C 683.049 -2.85863 1.96171 0
M  V30 7321 C 682.11 -2.86084 3.20085 0
M  V30 7322 C 681.343 -4.15181 3.35351 0
M  V30 7323 O 681.566 -5.09981 2.55491 0
M  V30 7324 O 680.5 -4.22603 4.28591 0
M  V30 7325 H 684.326 -1.30007 2.74466 0
M  V30 7326 H 681.911 -0.579539 1.37701 0
M  V30 7327 H 683.793 -3.66236 2.08445 0
M  V30 7328 H 682.468 -3.06189 1.05025 0
M  V30 7329 H 681.375 -2.04504 3.13256 0
M  V30 7330 H 682.708 -2.7071 4.11068 0
M  V30 7331 N 684.36 -1.4356 -0.65026 0
M  V30 7332 C 685.292 -1.44918 -1.77571 0
M  V30 7333 C 686.305 -0.344925 -1.59104 0
M  V30 7334 O 687.494 -0.609537 -1.6777 0
M  V30 7335 C 684.594 -1.24914 -3.15039 0
M  V30 7336 C 683.767 -2.48232 -3.60138 0
M  V30 7337 C 682.826 -2.23409 -4.76419 0
M  V30 7338 O 681.852 -2.9678 -4.85706 0
M  V30 7339 N 683.054 -1.25259 -5.66825 0
M  V30 7340 H 685.819 -2.41935 -1.76883 0
M  V30 7341 H 683.38 -1.38754 -0.834202 0
M  V30 7342 H 685.372 -1.06185 -3.90521 0
M  V30 7343 H 683.942 -0.363319 -3.10481 0
M  V30 7344 H 683.162 -2.82366 -2.75069 0
M  V30 7345 H 684.45 -3.30296 -3.87017 0
M  V30 7346 H 683.848 -0.646246 -5.61997 0
M  V30 7347 H 682.405 -1.12513 -6.42016 0
M  V30 7348 N 685.838 0.888903 -1.30139 0
M  V30 7349 C 686.801 1.97576 -1.16174 0
M  V30 7350 C 687.801 1.60525 -0.094086 0
M  V30 7351 O 688.991 1.70812 -0.341889 0
M  V30 7352 C 686.123 3.3188 -0.778983 0
M  V30 7353 H 687.316 2.11393 -2.12728 0
M  V30 7354 H 684.869 1.0748 -1.1348 0
M  V30 7355 H 685.604 3.23765 0.186225 0
M  V30 7356 H 685.389 3.60141 -1.55051 0
M  V30 7357 H 686.879 4.11612 -0.704631 0
M  V30 7358 N 687.317 1.12792 1.10072 0
M  V30 7359 C 688.564 0.885545 1.82111 0
M  V30 7360 C 688.892 -0.588519 1.85383 0
M  V30 7361 O 688.147 -1.45124 1.31292 0
M  V30 7362 C 688.446 1.4102 3.28403 0
M  V30 7363 C 688.112 2.89995 3.45273 0
M  V30 7364 C 686.774 3.30671 3.49585 0
M  V30 7365 C 689.126 3.85874 3.50358 0
M  V30 7366 C 686.454 4.65925 3.56553 0
M  V30 7367 C 688.806 5.20963 3.58859 0
M  V30 7368 C 687.47 5.61177 3.61437 0
M  V30 7369 H 686.74 0.324044 0.666391 0
M  V30 7370 H 689.387 1.40874 1.29718 0
M  V30 7371 H 687.692 0.807551 3.83387 0
M  V30 7372 H 689.389 1.19882 3.82661 0
M  V30 7373 H 685.979 2.57537 3.42597 0
M  V30 7374 H 690.163 3.5554 3.46273 0
M  V30 7375 H 685.419 4.96468 3.56833 0
M  V30 7376 H 689.593 5.95079 3.61738 0
M  V30 7377 H 687.22 6.6597 3.66589 0
M  V30 7378 N 688.795 -1.27931 0.920396 0
M  V30 7379 C 690.041 -1.94977 0.557832 0
M  V30 7380 C 690.374 -1.72224 -0.897365 0
M  V30 7381 O 689.649 -1.04705 -1.63912 0
M  V30 7382 C 689.932 -3.49289 0.875741 0
M  V30 7383 C 689.785 -3.81416 2.38416 0
M  V30 7384 C 691.104 -4.38486 0.376517 0
M  V30 7385 H 688.223 -0.708164 0.20414 0
M  V30 7386 H 690.865 -1.5118 1.15085 0
M  V30 7387 H 689.015 -3.86724 0.371062 0
M  V30 7388 H 690.687 -3.53813 2.95997 0
M  V30 7389 H 688.93 -3.28225 2.83639 0
M  V30 7390 H 689.601 -4.89198 2.55713 0
M  V30 7391 H 692.077 -4.08161 0.808945 0
M  V30 7392 H 690.953 -5.45296 0.627976 0
M  V30 7393 H 691.214 -4.36143 -0.723293 0
M  V30 7394 N 690.273 -0.685099 -1.4193 0
M  V30 7395 C 691.498 -0.218842 -2.06242 0
M  V30 7396 C 691.923 1.11923 -1.51178 0
M  V30 7397 O 691.281 1.69837 -0.634446 0
M  V30 7398 C 691.329 -0.175592 -3.60172 0
M  V30 7399 O 690.433 0.852776 -4.03487 0
M  V30 7400 H 689.774 -0.109531 -0.654904 0
M  V30 7401 H 692.304 -0.937013 -1.81882 0
M  V30 7402 H 692.314 -0.00291151 -4.08 0
M  V30 7403 H 690.989 -1.15222 -3.99621 0
M  V30 7404 H 689.566 0.650301 -3.67186 0
M  V30 7405 N 691.751 1.51645 -0.429126 0
M  V30 7406 C 692.698 2.27542 0.386446 0
M  V30 7407 C 693.668 1.30786 1.02393 0
M  V30 7408 O 694.853 1.59678 1.0444 0
M  V30 7409 C 691.993 3.11457 1.48623 0
M  V30 7410 C 691.106 4.23196 0.867691 0
M  V30 7411 C 690.241 4.94435 1.94183 0
M  V30 7412 C 689.28 5.98108 1.30129 0
M  V30 7413 N 688.417 6.62786 2.31644 0
M  V30 7414 H 693.257 2.968 -0.267155 0
M  V30 7415 H 690.794 1.46397 -0.143591 0
M  V30 7416 H 692.752 3.58429 2.13506 0
M  V30 7417 H 691.382 2.44329 2.10957 0
M  V30 7418 H 690.434 3.80248 0.107373 0
M  V30 7419 H 691.746 4.97499 0.35997 0
M  V30 7420 H 690.9 5.44914 2.66747 0
M  V30 7421 H 689.639 4.19744 2.48326 0
M  V30 7422 H 688.644 5.4693 0.561082 0
M  V30 7423 H 689.869 6.74751 0.767303 0
M  V30 7424 H 687.815 5.90913 2.84883 0
M  V30 7425 H 687.732 7.32828 1.85741 0
M  V30 7426 H 689 7.17897 3.03717 0
M  V30 7427 N 693.229 0.160201 1.56784 0
M  V30 7428 C 694.454 -0.497373 2.01348 0
M  V30 7429 C 694.879 -1.56757 1.03966 0
M  V30 7430 O 694.237 -1.81292 0.0174455 0
M  V30 7431 C 694.285 -1.0628 3.44582 0
M  V30 7432 O 693.389 -2.17723 3.50244 0
M  V30 7433 H 692.73 -0.120295 0.653012 0
M  V30 7434 H 695.26 0.260821 2.02931 0
M  V30 7435 H 695.27 -1.38819 3.83658 0
M  V30 7436 H 693.945 -0.279166 4.14962 0
M  V30 7437 H 692.522 -1.86313 3.2302 0
M  V30 7438 N 694.707 -1.5719 -0.113559 0
M  V30 7439 C 695.955 -1.84772 -0.818761 0
M  V30 7440 C 696.276 -0.746196 -1.80158 0
M  V30 7441 O 695.546 0.229305 -1.94553 0
M  V30 7442 H 694.126 -0.681737 -0.305359 0
M  V30 7443 H 696.788 -1.94645 -0.0995845 0
M  V30 7444 H 695.884 -2.80878 -1.36067 0
M  V30 7445 N 696.185 0.383891 -1.52853 0
M  V30 7446 C 697.41 1.154 -1.7233 0
M  V30 7447 C 697.835 1.82809 -0.44298 0
M  V30 7448 O 697.193 1.71026 0.601645 0
M  V30 7449 C 697.241 2.17386 -2.87708 0
M  V30 7450 O 696.345 3.24082 -2.55038 0
M  V30 7451 H 695.686 0.335709 -0.572883 0
M  V30 7452 H 698.216 0.44662 -1.99666 0
M  V30 7453 H 698.226 2.61296 -3.1335 0
M  V30 7454 H 696.901 1.6771 -3.80587 0
M  V30 7455 H 695.478 2.85273 -2.40153 0
M  V30 7456 N 697.663 1.43903 0.642637 0
M  V30 7457 C 698.888 1.49758 1.43483 0
M  V30 7458 C 699.313 0.119911 1.87717 0
M  V30 7459 O 698.671 -0.888558 1.58033 0
M  V30 7460 C 698.719 2.45744 2.63898 0
M  V30 7461 O 697.823 1.95101 3.63331 0
M  V30 7462 H 697.164 0.506138 0.429791 0
M  V30 7463 H 699.694 1.88923 0.785438 0
M  V30 7464 H 699.704 2.63399 3.11584 0
M  V30 7465 H 698.379 3.45818 2.31046 0
M  V30 7466 H 696.956 1.87158 3.22531 0
M  V30 7467 N 699.141 -0.881989 1.30609 0
M  V30 7468 C 700.388 -1.63405 1.19604 0
M  V30 7469 C 700.716 -1.92905 -0.248574 0
M  V30 7470 O 699.971 -1.55062 -1.19391 0
M  V30 7471 C 700.27 -2.97999 1.97311 0
M  V30 7472 C 699.936 -2.88039 3.46907 0
M  V30 7473 C 698.598 -2.85029 3.877 0
M  V30 7474 C 700.95 -2.75948 4.42156 0
M  V30 7475 C 698.278 -2.67772 5.2203 0
M  V30 7476 C 700.63 -2.60228 5.76597 0
M  V30 7477 C 699.294 -2.55595 6.16626 0
M  V30 7478 H 698.564 -0.597941 0.437662 0
M  V30 7479 H 701.211 -1.02524 1.61744 0
M  V30 7480 H 699.516 -3.62847 1.47815 0
M  V30 7481 H 701.213 -3.55156 1.86186 0
M  V30 7482 H 697.803 -2.91192 3.14492 0
M  V30 7483 H 701.987 -2.77337 4.1158 0
M  V30 7484 H 697.243 -2.62601 5.52133 0
M  V30 7485 H 701.417 -2.49847 6.50038 0
M  V30 7486 H 699.044 -2.41981 7.20659 0
M  V30 7487 N 700.619 -1.13374 -1.09472 0
M  V30 7488 C 701.529 -0.824029 -2.19652 0
M  V30 7489 C 702.545 0.19118 -1.72947 0
M  V30 7490 O 703.721 0.0223464 -2.01388 0
M  V30 7491 C 700.786 -0.294009 -3.45451 0
M  V30 7492 C 699.847 -1.3704 -4.0684 0
M  V30 7493 C 699.08 -0.86558 -5.26634 0
M  V30 7494 O 699.303 0.29702 -5.69626 0
M  V30 7495 O 698.237 -1.63968 -5.79136 0
M  V30 7496 H 702.063 -1.74454 -2.48595 0
M  V30 7497 H 699.648 -0.911155 -1.18399 0
M  V30 7498 H 701.53 -0.00381039 -4.214 0
M  V30 7499 H 700.205 0.598921 -3.18111 0
M  V30 7500 H 699.112 -1.71391 -3.3253 0
M  V30 7501 H 700.445 -2.23746 -4.38405 0
M  V30 7502 N 702.098 1.27442 -0.927168 0
M  V30 7503 C 703.326 1.98498 -0.583622 0
M  V30 7504 C 703.741 1.69171 0.838241 0
M  V30 7505 O 703.098 0.951969 1.55704 0
M  V30 7506 C 703.149 3.52552 -0.799341 0
M  V30 7507 O 702.87 3.80851 -2.16527 0
M  V30 7508 C 704.371 4.4086 -0.464436 0
M  V30 7509 H 701.591 0.633487 -0.221213 0
M  V30 7510 H 704.135 1.62308 -1.24404 0
M  V30 7511 H 702.29 3.86955 -0.185728 0
M  V30 7512 H 702.704 4.75441 -2.21487 0
M  V30 7513 H 704.178 5.47967 -0.666075 0
M  V30 7514 H 704.655 4.35082 0.599995 0
M  V30 7515 H 705.261 4.11977 -1.05617 0
M  V30 7516 N 703.576 0.692616 1.41565 0
M  V30 7517 C 704.508 -0.0137132 2.29196 0
M  V30 7518 C 705.521 -0.747417 1.44629 0
M  V30 7519 O 706.71 -0.598611 1.68163 0
M  V30 7520 C 703.81 -1.04347 3.22436 0
M  V30 7521 C 702.983 -0.379985 4.35746 0
M  V30 7522 C 702.042 -1.31195 5.09583 0
M  V30 7523 O 701.068 -0.805455 5.63472 0
M  V30 7524 N 702.27 -2.64443 5.16769 0
M  V30 7525 H 705.035 0.738614 2.90456 0
M  V30 7526 H 702.596 0.538415 1.52685 0
M  V30 7527 H 704.588 -1.6686 3.687 0
M  V30 7528 H 703.158 -1.69736 2.62504 0
M  V30 7529 H 702.378 0.424975 3.91903 0
M  V30 7530 H 703.666 0.0814904 5.08735 0
M  V30 7531 H 703.064 -3.08114 4.74428 0
M  V30 7532 H 701.621 -3.22159 5.66619 0
M  V30 7533 N 705.054 -1.51416 0.437162 0
M  V30 7534 C 706.004 -2.24599 -0.392311 0
M  V30 7535 C 706.988 -1.2682 -0.990221 0
M  V30 7536 O 708.18 -1.51912 -0.908391 0
M  V30 7537 C 705.309 -3.09134 -1.49301 0
M  V30 7538 C 704.395 -4.14342 -0.904503 0
M  V30 7539 N 704.786 -5.0578 -0.0451511 0
M  V30 7540 C 703.084 -4.30323 -1.1721 0
M  V30 7541 C 703.785 -5.81 0.285344 0
M  V30 7542 N 702.761 -5.42591 -0.330993 0
M  V30 7543 H 706.563 -2.92655 0.270221 0
M  V30 7544 H 704.077 -1.60476 0.249226 0
M  V30 7545 H 706.074 -3.6014 -2.10011 0
M  V30 7546 H 704.734 -2.42622 -2.15788 0
M  V30 7547 H 705.745 -5.16903 0.321271 0
M  V30 7548 H 702.422 -3.75037 -1.83448 0
M  V30 7549 H 703.812 -6.64646 0.984626 0
M  V30 7550 N 706.532 -0.168513 -1.56696 0
M  V30 7551 C 707.482 0.7751 -2.14421 0
M  V30 7552 C 708.466 1.19476 -1.07769 0
M  V30 7553 O 709.658 1.15759 -1.33898 0
M  V30 7554 C 706.787 2.00549 -2.7863 0
M  V30 7555 C 705.873 1.60795 -3.92436 0
M  V30 7556 N 706.264 0.919812 -4.97366 0
M  V30 7557 C 704.562 1.89917 -4.03544 0
M  V30 7558 C 705.263 0.724485 -5.77171 0
M  V30 7559 N 704.239 1.26505 -5.28675 0
M  V30 7560 H 708.041 0.240349 -2.92916 0
M  V30 7561 H 705.555 0.0322675 -1.62368 0
M  V30 7562 H 707.552 2.6917 -3.1836 0
M  V30 7563 H 706.212 2.54522 -2.01615 0
M  V30 7564 H 707.223 0.578169 -5.14663 0
M  V30 7565 H 703.9 2.45587 -3.37629 0
M  V30 7566 H 705.29 0.180521 -6.71657 0
M  V30 7567 N 708.01 1.57248 0.105221 0
M  V30 7568 C 708.96 1.9777 1.1345 0
M  V30 7569 C 709.944 0.854654 1.36325 0
M  V30 7570 O 711.136 1.11844 1.37186 0
M  V30 7571 C 708.265 2.39717 2.45745 0
M  V30 7572 C 707.351 3.58686 2.26286 0
M  V30 7573 N 707.742 4.73942 1.76671 0
M  V30 7574 C 706.04 3.64586 2.56891 0
M  V30 7575 C 706.741 5.55923 1.71245 0
M  V30 7576 N 705.717 4.98803 2.16093 0
M  V30 7577 H 709.519 2.84336 0.743664 0
M  V30 7578 H 707.033 1.59359 0.312787 0
M  V30 7579 H 709.03 2.66971 3.20206 0
M  V30 7580 H 707.69 1.54523 2.85574 0
M  V30 7581 H 708.701 4.9689 1.46016 0
M  V30 7582 H 705.378 2.90031 3.00314 0
M  V30 7583 H 706.768 6.58398 1.34022 0
M  V30 7584 N 709.488 -0.375779 1.53054 0
M  V30 7585 C 710.418 -1.46598 1.81745 0
M  V30 7586 C 711.399 -1.56337 0.670286 0
M  V30 7587 O 712.584 -1.71071 0.919158 0
M  V30 7588 C 709.714 -2.84058 1.99821 0
M  V30 7589 C 708.668 -2.8915 3.15557 0
M  V30 7590 C 707.994 -4.29187 3.18908 0
M  V30 7591 C 709.294 -2.57595 4.54359 0
M  V30 7592 H 710.988 -1.22837 2.73041 0
M  V30 7593 H 708.534 -0.589485 1.31381 0
M  V30 7594 H 710.487 -3.60342 2.18475 0
M  V30 7595 H 709.211 -3.09184 1.05226 0
M  V30 7596 H 707.87 -2.15316 2.96706 0
M  V30 7597 H 707.518 -4.51374 2.2197 0
M  V30 7598 H 707.218 -4.33512 3.96662 0
M  V30 7599 H 708.742 -5.07359 3.39734 0
M  V30 7600 H 710.156 -3.23595 4.73243 0
M  V30 7601 H 708.553 -2.73252 5.34279 0
M  V30 7602 H 709.623 -1.52882 4.60169 0
M  V30 7603 N 710.966 -1.44241 -0.634997 0
M  V30 7604 C 711.896 -1.53632 -1.7584 0
M  V30 7605 C 712.877 -0.389603 -1.65578 0
M  V30 7606 O 714.062 -0.609219 -1.84397 0
M  V30 7607 C 711.192 -1.47644 -3.14354 0
M  V30 7608 C 710.146 -2.60752 -3.394 0
M  V30 7609 C 709.472 -2.39817 -4.77904 0
M  V30 7610 C 710.772 -4.02921 -3.32343 0
M  V30 7611 H 712.466 -2.47662 -1.68238 0
M  V30 7612 H 710.012 -1.19197 -0.807969 0
M  V30 7613 H 711.965 -1.52815 -3.92716 0
M  V30 7614 H 710.689 -0.501284 -3.2273 0
M  V30 7615 H 709.348 -2.54965 -2.63417 0
M  V30 7616 H 708.996 -1.40502 -4.82978 0
M  V30 7617 H 708.696 -3.15649 -4.9562 0
M  V30 7618 H 710.22 -2.46799 -5.585 0
M  V30 7619 H 711.634 -4.10098 -4.00615 0
M  V30 7620 H 710.031 -4.78925 -3.61595 0
M  V30 7621 H 711.101 -4.26766 -2.30215 0
M  V30 7622 N 712.444 0.87505 -1.31075 0
M  V30 7623 C 713.394 1.96933 -1.14898 0
M  V30 7624 C 714.378 1.60783 -0.0613703 0
M  V30 7625 O 715.57 1.74678 -0.285751 0
M  V30 7626 C 712.699 3.3253 -0.853166 0
M  V30 7627 C 711.785 3.74963 -1.98151 0
M  V30 7628 N 712.176 3.89403 -3.22799 0
M  V30 7629 C 710.474 4.04436 -1.8801 0
M  V30 7630 C 711.175 4.25563 -3.96574 0
M  V30 7631 N 710.151 4.3597 -3.24701 0
M  V30 7632 H 713.953 2.06201 -2.09424 0
M  V30 7633 H 711.467 1.06551 -1.22558 0
M  V30 7634 H 713.464 4.10666 -0.718266 0
M  V30 7635 H 712.124 3.24592 0.0839218 0
M  V30 7636 H 713.135 3.74266 -3.57974 0
M  V30 7637 H 709.812 4.04915 -1.01733 0
M  V30 7638 H 711.202 4.44375 -5.03965 0
M  V30 7639 N 713.922 1.13953 1.08869 0
M  V30 7640 C 715.162 0.915128 1.8277 0
M  V30 7641 C 715.526 -0.548647 1.83994 0
M  V30 7642 O 716.727 -0.890817 2.5361 0
M  V30 7643 C 714.998 1.49382 3.24684 0
M  V30 7644 S 716.557 1.4103 4.15519 0
M  V30 7645 H 713.375 0.329716 0.629927 0
M  V30 7646 H 715.977 1.45213 1.30895 0
M  V30 7647 H 714.681 2.55241 3.21372 0
M  V30 7648 H 714.212 0.955008 3.81632 0
M  V30 7649 H 716.227 0.392617 4.94644 0
M  V30 7650 N 715.4 -1.26948 0.933913 0
M  V30 7651 C 716.33 -2.29017 0.45534 0
M  V30 7652 C 717.311 -1.62961 -0.487605 0
M  V30 7653 O 718.496 -1.90223 -0.391022 0
M  V30 7654 C 715.626 -3.46112 -0.287015 0
M  V30 7655 C 714.58 -4.24205 0.568682 0
M  V30 7656 C 713.906 -5.3384 -0.303206 0
M  V30 7657 C 715.206 -4.88954 1.83633 0
M  V30 7658 H 716.9 -2.69298 1.30839 0
M  V30 7659 H 714.446 -1.29459 0.630579 0
M  V30 7660 H 716.399 -4.16622 -0.6328 0
M  V30 7661 H 715.123 -3.04765 -1.17414 0
M  V30 7662 H 713.782 -3.5545 0.897261 0
M  V30 7663 H 713.43 -4.88734 -1.18947 0
M  V30 7664 H 713.13 -5.86998 0.265879 0
M  V30 7665 H 714.654 -6.0719 -0.644423 0
M  V30 7666 H 716.068 -5.51717 1.55823 0
M  V30 7667 H 714.465 -5.52198 2.34941 0
M  V30 7668 H 715.535 -4.12305 2.55211 0
M  V30 7669 N 716.879 -0.700114 -1.41195 0
M  V30 7670 C 717.789 -0.0382854 -2.34569 0
M  V30 7671 C 718.805 0.761036 -1.56474 0
M  V30 7672 O 719.981 0.697553 -1.88934 0
M  V30 7673 C 717.046 0.883522 -3.35253 0
M  V30 7674 C 716.107 0.0758957 -4.29233 0
M  V30 7675 C 715.34 0.9538 -5.25108 0
M  V30 7676 O 715.563 2.19326 -5.26547 0
M  V30 7677 O 714.497 0.401049 -6.00562 0
M  V30 7678 H 718.323 -0.808073 -2.92752 0
M  V30 7679 H 715.908 -0.460479 -1.42127 0
M  V30 7680 H 717.79 1.41199 -3.9704 0
M  V30 7681 H 716.465 1.63272 -2.79506 0
M  V30 7682 H 715.372 -0.497274 -3.7078 0
M  V30 7683 H 716.705 -0.634741 -4.8809 0
M  V30 7684 N 718.357 1.51182 -0.445186 0
M  V30 7685 C 719.304 2.27939 0.362291 0
M  V30 7686 C 720.274 1.31864 1.01 0
M  V30 7687 O 721.459 1.60776 1.02741 0
M  V30 7688 C 718.599 3.13016 1.45311 0
M  V30 7689 C 717.712 4.24093 0.822757 0
M  V30 7690 C 716.847 4.96467 1.88928 0
M  V30 7691 C 715.886 5.99454 1.23778 0
M  V30 7692 N 715.023 6.65206 2.24602 0
M  V30 7693 H 719.863 2.965 -0.29862 0
M  V30 7694 H 717.4 1.46237 -0.15911 0
M  V30 7695 H 719.358 3.60673 2.09692 0
M  V30 7696 H 717.988 2.46553 2.08354 0
M  V30 7697 H 717.04 3.80341 0.0670364 0
M  V30 7698 H 718.352 4.97853 0.307184 0
M  V30 7699 H 717.506 5.47712 2.60953 0
M  V30 7700 H 716.245 4.22355 2.4386 0
M  V30 7701 H 715.25 5.47494 0.503042 0
M  V30 7702 H 716.475 6.75527 0.695694 0
M  V30 7703 H 714.421 5.93901 2.78599 0
M  V30 7704 H 714.338 7.34756 1.77958 0
M  V30 7705 H 715.606 7.21078 2.96085 0
M  V30 7706 N 719.835 0.176821 1.56605 0
M  V30 7707 C 721.063 -0.472828 2.01425 0
M  V30 7708 C 721.478 -1.56436 1.05703 0
M  V30 7709 O 720.835 -1.82405 0.058808 0
M  V30 7710 C 720.886 -1.04607 3.46034 0
M  V30 7711 O 720.607 0.00189608 4.381 0
M  V30 7712 C 722.108 -1.7734 4.06282 0
M  V30 7713 H 719.328 -0.120503 0.660091 0
M  V30 7714 H 721.872 0.280166 2.02572 0
M  V30 7715 H 720.027 -1.74953 3.45645 0
M  V30 7716 H 720.441 -0.422118 5.22799 0
M  V30 7717 H 721.915 -2.12703 5.09374 0
M  V30 7718 H 722.392 -2.67043 3.4869 0
M  V30 7719 H 722.998 -1.11623 4.10391 0
M  V30 7720 N 721.313 -1.57302 -0.09688 0
M  V30 7721 C 722.541 -1.90202 -0.814295 0
M  V30 7722 C 722.956 -0.770344 -1.72369 0
M  V30 7723 O 722.313 0.257764 -1.8067 0
M  V30 7724 C 722.364 -3.22708 -1.62916 0
M  V30 7725 O 722.085 -4.31522 -0.756343 0
M  V30 7726 C 723.586 -3.69459 -2.44979 0
M  V30 7727 H 720.806 -0.629275 -0.232925 0
M  V30 7728 H 723.35 -2.04364 -0.0746482 0
M  V30 7729 H 721.505 -3.1015 -2.32133 0
M  V30 7730 H 721.919 -5.07604 -1.32054 0
M  V30 7731 H 723.393 -4.64875 -2.9765 0
M  V30 7732 H 723.87 -2.97211 -3.23361 0
M  V30 7733 H 724.476 -3.84879 -1.80964 0
M  V30 7734 N 722.791 0.367657 -1.53252 0
M  V30 7735 C 723.739 1.47061 -1.8021 0
M  V30 7736 C 724.733 1.55539 -0.671112 0
M  V30 7737 O 725.939 1.58451 -0.854014 0
M  V30 7738 H 722.314 0.489868 -0.570555 0
M  V30 7739 H 724.285 1.21527 -2.72532 0
M  V30 7740 C 723.034 2.83924 -2.00706 0
M  V30 7741 H 722.357 2.78158 -2.87172 0
M  V30 7742 H 723.797 3.60281 -2.23547 0
M  V30 7743 C 722.256 3.27613 -0.785568 0
M  V30 7744 O 722.786 4.01691 0.0267459 0
M  V30 7745 N 720.992 2.84134 -0.609597 0
M  V30 7746 H 720.539 2.24017 -1.27178 0
M  V30 7747 H 720.497 3.13723 0.206281 0
M  V30 7748 N 724.269 1.44576 0.627338 0
M  V30 7749 C 725.219 1.48168 1.73293 0
M  V30 7750 C 726.203 0.347045 1.57113 0
M  V30 7751 O 727.395 0.592605 1.66785 0
M  V30 7752 C 724.524 1.43236 3.11991 0
M  V30 7753 C 723.61 2.61828 3.33627 0
M  V30 7754 N 724.001 3.87053 3.25612 0
M  V30 7755 C 722.299 2.57104 3.64436 0
M  V30 7756 C 723 4.66093 3.48041 0
M  V30 7757 N 721.976 3.97228 3.71095 0
M  V30 7758 H 725.778 2.42832 1.6556 0
M  V30 7759 H 723.292 1.39592 0.829934 0
M  V30 7760 H 725.289 1.43893 3.91281 0
M  V30 7761 H 723.949 0.496133 3.20887 0
M  V30 7762 H 724.96 4.18966 3.04447 0
M  V30 7763 H 721.637 1.72295 3.8029 0
M  V30 7764 H 723.027 5.75117 3.47404 0
M  V30 7765 N 725.747 -0.868086 1.31537 0
M  V30 7766 C 726.657 -2.00801 1.21311 0
M  V30 7767 C 727.673 -1.73518 0.129431 0
M  V30 7768 O 728.849 -1.98378 0.347588 0
M  V30 7769 C 725.914 -3.3419 0.922935 0
M  V30 7770 C 724.975 -3.74783 2.0937 0
M  V30 7771 C 724.208 -5.01807 1.81728 0
M  V30 7772 O 724.431 -5.65404 0.753313 0
M  V30 7773 O 723.365 -5.39213 2.67457 0
M  V30 7774 H 727.191 -2.12361 2.17109 0
M  V30 7775 H 724.776 -0.996684 1.11295 0
M  V30 7776 H 726.658 -4.14174 0.777033 0
M  V30 7777 H 725.333 -3.237 -0.00500301 0
M  V30 7778 H 724.24 -2.95432 2.29501 0
M  V30 7779 H 725.573 -3.89902 3.00396 0
M  V30 7780 N 727.225 -1.14528 -1.08264 0
M  V30 7781 C 728.472 -0.914405 -1.80679 0
M  V30 7782 C 728.8 0.558952 -1.86295 0
M  V30 7783 O 728.055 1.43017 -1.33584 0
M  V30 7784 C 728.354 -1.46226 -3.26117 0
M  V30 7785 C 728.02 -2.95451 -3.40616 0
M  V30 7786 C 726.682 -3.36191 -3.4428 0
M  V30 7787 C 729.034 -3.91399 -3.44175 0
M  V30 7788 C 726.362 -4.71539 -3.49096 0
M  V30 7789 C 728.714 -5.26606 -3.50526 0
M  V30 7790 C 727.378 -5.66856 -3.52464 0
M  V30 7791 H 726.648 -0.334604 -0.661151 0
M  V30 7792 H 729.295 -1.4292 -1.27461 0
M  V30 7793 H 727.6 -0.868442 -3.82054 0
M  V30 7794 H 729.297 -1.25955 -3.80705 0
M  V30 7795 H 725.887 -2.62955 -3.38456 0
M  V30 7796 H 730.071 -3.61004 -3.40573 0
M  V30 7797 H 725.327 -5.02082 -3.4889 0
M  V30 7798 H 729.501 -6.00758 -3.52225 0
M  V30 7799 H 727.128 -6.71718 -3.55948 0
M  V30 7800 N 728.703 1.26451 -0.940633 0
M  V30 7801 C 729.949 1.94065 -0.58878 0
M  V30 7802 C 730.282 1.7363 0.869853 0
M  V30 7803 O 729.557 1.073 1.62225 0
M  V30 7804 C 729.84 3.47852 -0.931199 0
M  V30 7805 C 729.693 3.77575 -2.44453 0
M  V30 7806 C 731.012 4.37832 -0.446229 0
M  V30 7807 H 728.131 0.704827 -0.21538 0
M  V30 7808 H 730.773 1.4933 -1.17475 0
M  V30 7809 H 728.923 3.86085 -0.432539 0
M  V30 7810 H 730.595 3.49059 -3.01588 0
M  V30 7811 H 728.838 3.23671 -2.88825 0
M  V30 7812 H 729.509 4.85068 -2.63464 0
M  V30 7813 H 731.985 4.06822 -0.873778 0
M  V30 7814 H 730.861 5.44228 -0.714648 0
M  V30 7815 H 731.122 4.37239 0.653815 0
M  V30 7816 N 730.181 0.707592 1.40822 0
M  V30 7817 C 731.458 0.171172 1.9485 0
M  V30 7818 C 731.838 -1.32143 1.64625 0
M  V30 7819 O 731.186 -2.07372 0.959647 0
M  V30 7820 C 731.396 0.475334 3.45748 0
M  V30 7821 C 732.744 0.409625 4.22619 0
M  V30 7822 O 733.768 0.410934 3.53822 0
M  V30 7823 O 732.627 0.380185 5.45176 0
M  V30 7824 H 729.721 0.022015 0.826707 0
M  V30 7825 H 732.267 0.784577 1.50474 0
M  V30 7826 H 731.039 1.50801 3.61075 0
M  V30 7827 H 730.662 -0.168439 3.97243 0
M  V30 7828 N 731.66 -1.50943 0.453197 0
M  V30 7829 C 732.57 -2.31884 -0.355963 0
M  V30 7830 C 733.586 -1.41481 -1.01287 0
M  V30 7831 O 734.762 -1.74546 -1.00477 0
M  V30 7832 C 731.827 -3.15668 -1.43369 0
M  V30 7833 C 730.888 -4.2187 -0.795253 0
M  V30 7834 C 730.121 -5.0165 -1.82162 0
M  V30 7835 O 730.344 -4.82266 -3.04592 0
M  V30 7836 O 729.278 -5.85311 -1.40336 0
M  V30 7837 H 733.104 -3.02162 0.305248 0
M  V30 7838 H 730.689 -1.47839 0.215398 0
M  V30 7839 H 732.571 -3.67709 -2.05836 0
M  V30 7840 H 731.246 -2.48137 -2.07869 0
M  V30 7841 H 730.153 -3.73867 -0.132106 0
M  V30 7842 H 731.486 -4.9182 -0.193484 0
M  V30 7843 N 733.138 -0.185124 -1.56509 0
M  V30 7844 C 734.07 0.771401 -2.15829 0
M  V30 7845 C 735.083 1.18392 -1.11747 0
M  V30 7846 O 736.272 1.12137 -1.38879 0
M  V30 7847 C 733.372 2.05169 -2.69739 0
M  V30 7848 C 732.545 1.80056 -3.98621 0
M  V30 7849 C 731.604 2.92435 -4.37456 0
M  V30 7850 O 730.63 2.62473 -5.05071 0
M  V30 7851 N 731.832 4.20554 -4.00143 0
M  V30 7852 H 734.597 0.264184 -2.98533 0
M  V30 7853 H 732.158 -0.00281069 -1.619 0
M  V30 7854 H 734.15 2.7947 -2.92709 0
M  V30 7855 H 732.72 2.47041 -1.91545 0
M  V30 7856 H 731.94 0.895862 -3.83885 0
M  V30 7857 H 733.228 1.60662 -4.82768 0
M  V30 7858 H 732.626 4.47753 -3.45736 0
M  V30 7859 H 731.183 4.91514 -4.28085 0
M  V30 7860 N 734.616 1.57351 0.0885366 0
M  V30 7861 C 735.862 1.86696 0.791996 0
M  V30 7862 C 736.195 0.775148 1.78059 0
M  V30 7863 O 735.47 -0.216247 1.93294 0
M  V30 7864 C 735.753 3.26684 1.51491 0
M  V30 7865 C 735.606 4.465 0.543858 0
M  V30 7866 C 736.925 3.64664 2.46391 0
M  V30 7867 H 734.044 0.679049 0.286463 0
M  V30 7868 H 736.686 1.89919 0.0554866 0
M  V30 7869 H 734.836 3.24067 2.14273 0
M  V30 7870 H 736.508 4.61235 -0.0774597 0
M  V30 7871 H 734.751 4.33567 -0.142228 0
M  V30 7872 H 735.422 5.41192 1.08696 0
M  V30 7873 H 737.898 3.68267 1.93698 0
M  V30 7874 H 736.774 4.63534 2.93986 0
M  V30 7875 H 737.035 2.93698 3.30445 0
M  V30 7876 N 736.094 -0.359525 1.53444 0
M  V30 7877 C 737.341 -1.10152 1.6992 0
M  V30 7878 C 737.669 -1.89125 0.4541 0
M  V30 7879 O 736.924 -1.87396 -0.564023 0
M  V30 7880 C 737.223 -2.08287 2.90433 0
M  V30 7881 C 736.889 -1.45749 4.26694 0
M  V30 7882 C 735.551 -1.28421 4.63747 0
M  V30 7883 C 737.903 -1.00557 5.11408 0
M  V30 7884 C 735.231 -0.644951 5.83144 0
M  V30 7885 C 737.583 -0.380288 6.31456 0
M  V30 7886 C 736.247 -0.194557 6.67216 0
M  V30 7887 H 735.517 -0.403076 0.621781 0
M  V30 7888 H 738.164 -0.382612 1.87639 0
M  V30 7889 H 736.469 -2.86503 2.67251 0
M  V30 7890 H 738.166 -2.65662 3.00374 0
M  V30 7891 H 734.756 -1.6023 3.97523 0
M  V30 7892 H 738.94 -1.12735 4.83326 0
M  V30 7893 H 734.196 -0.48952 6.09437 0
M  V30 7894 H 738.37 -0.0219455 6.96397 0
M  V30 7895 H 735.997 0.30285 7.59597 0
M  V30 7896 N 737.572 -1.44907 -0.619662 0
M  V30 7897 C 738.482 -1.55168 -1.75955 0
M  V30 7898 C 739.498 -0.43672 -1.6843 0
M  V30 7899 O 740.674 -0.695704 -1.89002 0
M  V30 7900 C 737.739 -1.50397 -3.12381 0
M  V30 7901 C 736.8 -2.72835 -3.31451 0
M  V30 7902 C 736.033 -2.68283 -4.61368 0
M  V30 7903 O 736.256 -1.74929 -5.42914 0
M  V30 7904 O 735.19 -3.59308 -4.82889 0
M  V30 7905 H 739.016 -2.51493 -1.7025 0
M  V30 7906 H 736.601 -1.27282 -0.782289 0
M  V30 7907 H 738.483 -1.50301 -3.93685 0
M  V30 7908 H 737.158 -0.572197 -3.18603 0
M  V30 7909 H 736.065 -2.78496 -2.49781 0
M  V30 7910 H 737.398 -3.65098 -3.30098 0
M  V30 7911 N 739.05 0.861098 -1.31996 0
M  V30 7912 C 739.96 2.00154 -1.22374 0
M  V30 7913 C 740.976 1.73447 -0.138631 0
M  V30 7914 O 742.152 1.98191 -0.358104 0
M  V30 7915 C 739.217 3.33696 -0.940645 0
M  V30 7916 C 738.278 3.73668 -2.11355 0
M  V30 7917 C 737.511 5.00837 -1.84386 0
M  V30 7918 O 737.734 5.64996 -0.783287 0
M  V30 7919 O 736.668 5.37787 -2.70313 0
M  V30 7920 H 740.494 2.11207 -2.18233 0
M  V30 7921 H 738.079 0.990768 -1.11822 0
M  V30 7922 H 739.961 4.13756 -0.798987 0
M  V30 7923 H 738.636 3.23698 -0.0121636 0
M  V30 7924 H 737.543 2.94211 -2.31065 0
M  V30 7925 H 738.876 3.88303 -3.02459 0
M  V30 7926 N 740.528 1.15101 1.07655 0
M  V30 7927 C 741.753 0.948177 1.84457 0
M  V30 7928 C 742.178 -0.498432 1.81376 0
M  V30 7929 O 741.536 -1.35509 1.20445 0
M  V30 7930 C 741.584 1.46318 3.29581 0
M  V30 7931 O 740.688 0.660342 4.07079 0
M  V30 7932 H 740.029 0.338428 0.571281 0
M  V30 7933 H 742.559 1.5301 1.35828 0
M  V30 7934 H 742.569 1.47468 3.80417 0
M  V30 7935 H 741.244 2.51635 3.31138 0
M  V30 7936 H 739.821 0.718216 3.65918 0
M  V30 7937 N 742.006 -1.2595 0.947325 0
M  V30 7938 C 743.246 -1.95218 0.605743 0
M  V30 7939 C 743.61 -1.72624 -0.84054 0
M  V30 7940 O 744.811 -2.35748 -1.29136 0
M  V30 7941 C 743.082 -3.44654 0.94596 0
M  V30 7942 S 744.641 -4.32922 0.715849 0
M  V30 7943 H 741.459 -0.675159 0.222894 0
M  V30 7944 H 744.061 -1.52766 1.21995 0
M  V30 7945 H 742.765 -3.586 1.99585 0
M  V30 7946 H 742.296 -3.92082 0.321718 0
M  V30 7947 H 744.311 -4.94445 -0.416959 0
M  V30 7948 N 743.484 -0.715051 -1.40445 0
M  V30 7949 C 744.417 -0.0112426 -2.28197 0
M  V30 7950 C 745.395 0.768211 -1.43308 0
M  V30 7951 O 746.579 0.754961 -1.72721 0
M  V30 7952 C 743.706 0.991453 -3.23864 0
M  V30 7953 C 742.752 0.302873 -4.25423 0
M  V30 7954 S 743.585 -0.968852 -5.26663 0
M  V30 7955 C 744.741 0.0317538 -6.25892 0
M  V30 7956 H 744.974 -0.755467 -2.87541 0
M  V30 7957 H 742.507 -0.506054 -1.45871 0
M  V30 7958 H 744.465 1.56475 -3.79507 0
M  V30 7959 H 743.126 1.70838 -2.63578 0
M  V30 7960 H 742.319 1.06086 -4.92709 0
M  V30 7961 H 741.921 -0.197853 -3.73476 0
M  V30 7962 H 744.213 0.878764 -6.71777 0
M  V30 7963 H 745.156 -0.607698 -7.05488 0
M  V30 7964 H 745.564 0.39524 -5.63115 0
M  V30 7965 N 744.962 1.50701 -0.461195 0
M  V30 7966 C 745.872 2.32069 0.343661 0
M  V30 7967 C 746.888 1.42016 1.00535 0
M  V30 7968 O 748.064 1.75077 0.995498 0
M  V30 7969 C 745.129 3.16424 1.41692 0
M  V30 7970 C 744.19 4.22286 0.772869 0
M  V30 7971 C 743.423 5.02609 1.79499 0
M  V30 7972 O 743.646 4.83874 3.0203 0
M  V30 7973 O 742.58 5.86047 1.3723 0
M  V30 7974 H 746.406 3.01996 -0.321268 0
M  V30 7975 H 743.991 1.47723 -0.223235 0
M  V30 7976 H 745.873 3.68795 2.03883 0
M  V30 7977 H 744.548 2.49236 2.0655 0
M  V30 7978 H 743.455 3.73931 0.112277 0
M  V30 7979 H 744.788 4.91915 0.167399 0
M  V30 7980 N 746.441 0.193421 1.56409 0
M  V30 7981 C 747.687 -0.446449 1.97825 0
M  V30 7982 C 748.02 -1.61386 1.08019 0
M  V30 7983 O 747.295 -1.94053 0.131839 0
M  V30 7984 C 747.578 -0.908199 3.48459 0
M  V30 7985 C 747.431 0.260914 4.49043 0
M  V30 7986 C 748.75 -1.77428 4.0275 0
M  V30 7987 H 745.869 -0.160807 0.719243 0
M  V30 7988 H 748.511 0.284006 1.87865 0
M  V30 7989 H 746.661 -1.53062 3.57077 0
M  V30 7990 H 748.333 0.898548 4.52464 0
M  V30 7991 H 746.576 0.912949 4.24085 0
M  V30 7992 H 747.247 -0.104657 5.51901 0
M  V30 7993 H 749.723 -1.24936 3.96901 0
M  V30 7994 H 748.599 -2.06633 5.08521 0
M  V30 7995 H 748.86 -2.72788 3.47907 0
M  V30 7996 N 747.919 -1.57396 -0.0801906 0
M  V30 7997 C 748.882 -2.02133 -1.0805 0
M  V30 7998 C 749.882 -0.91707 -1.32085 0
M  V30 7999 O 751.072 -1.18217 -1.27947 0
M  V30 8000 C 748.204 -2.39479 -2.42616 0
M  V30 8001 H 749.397 -2.91733 -0.6951 0
M  V30 8002 H 746.95 -1.52869 -0.325677 0
M  V30 8003 H 747.685 -1.52879 -2.86004 0
M  V30 8004 H 747.47 -3.20052 -2.26515 0
M  V30 8005 H 748.96 -2.74697 -3.14534 0
M  V30 8006 N 749.397 0.351382 -1.53633 0
M  V30 8007 C 750.625 1.11275 -1.74429 0
M  V30 8008 C 751.04 1.82602 -0.479798 0
M  V30 8009 O 750.397 1.74074 0.548125 0
M  V30 8010 C 750.448 2.13223 -2.91921 0
M  V30 8011 O 750.169 1.44798 -4.13479 0
M  V30 8012 C 751.67 3.01797 -3.24706 0
M  V30 8013 H 748.89 0.332153 -0.583023 0
M  V30 8014 H 751.434 0.405974 -2.0043 0
M  V30 8015 H 749.589 2.79477 -2.68274 0
M  V30 8016 H 750.003 2.12839 -4.79374 0
M  V30 8017 H 751.477 3.69282 -4.10286 0
M  V30 8018 H 751.954 3.67387 -2.40673 0
M  V30 8019 H 752.56 2.41141 -3.5033 0
M  V30 8020 N 750.875 1.45233 0.611969 0
M  V30 8021 C 752.121 1.49242 1.37312 0
M  V30 8022 C 752.454 0.131963 1.93751 0
M  V30 8023 O 751.729 -0.852999 1.74798 0
M  V30 8024 C 752.012 2.56811 2.52428 0
M  V30 8025 C 751.865 4.02284 2.01215 0
M  V30 8026 C 753.184 2.60705 3.54572 0
M  V30 8027 H 750.303 0.54336 0.497925 0
M  V30 8028 H 752.945 1.77019 0.690242 0
M  V30 8029 H 751.095 2.33256 3.10683 0
M  V30 8030 H 752.767 4.37035 1.47643 0
M  V30 8031 H 751.01 4.1315 1.32248 0
M  V30 8032 H 751.681 4.7323 2.84178 0
M  V30 8033 H 754.157 2.81799 3.06151 0
M  V30 8034 H 753.033 3.37841 4.32614 0
M  V30 8035 H 753.294 1.65627 4.09903 0
M  V30 8036 N 752.353 -0.854086 1.3245 0
M  V30 8037 C 753.301 -1.98411 1.21391 0
M  V30 8038 C 754.295 -1.68984 0.118586 0
M  V30 8039 O 755.501 -1.77784 0.281549 0
M  V30 8040 H 751.876 -0.651077 0.376301 0
M  V30 8041 H 753.847 -2.04867 2.16961 0
M  V30 8042 C 752.596 -3.34345 0.954407 0
M  V30 8043 H 751.919 -3.57518 1.78944 0
M  V30 8044 H 753.359 -4.13959 0.917269 0
M  V30 8045 C 751.818 -3.35151 -0.342838 0
M  V30 8046 O 752.348 -3.78174 -1.35452 0
M  V30 8047 N 750.554 -2.88298 -0.365012 0
M  V30 8048 H 750.101 -2.53481 0.4588 0
M  V30 8049 H 750.059 -2.8922 -1.23284 0
M  V30 8050 N 753.831 -1.1567 -1.07043 0
M  V30 8051 C 755.247 -0.900006 -1.31803 0
M  V30 8052 C 755.447 0.451293 -1.96381 0
M  V30 8053 O 754.503 1.19252 -2.22565 0
M  V30 8054 C 755.816 -2.04334 -2.20609 0
M  V30 8055 C 757.364 -2.07823 -2.34048 0
M  V30 8056 C 757.839 -3.21488 -3.26204 0
M  V30 8057 N 759.33 -3.21156 -3.33786 0
M  V30 8058 C 760.065 -4.05746 -4.05163 0
M  V30 8059 N 759.561 -5.00407 -4.79129 0
M  V30 8060 N 761.354 -3.93759 -4.01136 0
M  V30 8061 H 753.505 -2.02681 -0.635146 0
M  V30 8062 H 755.768 -0.883956 -0.342528 0
M  V30 8063 H 755.474 -3.01895 -1.80423 0
M  V30 8064 H 755.348 -1.97838 -3.21154 0
M  V30 8065 H 757.735 -1.1086 -2.73485 0
M  V30 8066 H 757.816 -2.18386 -1.33197 0
M  V30 8067 H 757.46 -4.18706 -2.87485 0
M  V30 8068 H 757.39 -3.08162 -4.27017 0
M  V30 8069 H 759.881 -2.52606 -2.81067 0
M  V30 8070 H 760.194 -5.61387 -5.31097 0
M  V30 8071 H 758.539 -5.04393 -4.78135 0
M  V30 8072 H 761.73 -3.19115 -3.42466 0
M  V30 8073 H 761.903 -4.59906 -4.56498 0
M  V30 8074 N 755.309 1.25446 -0.953992 0
M  V30 8075 C 756.72 1.75047 -0.649255 0
M  V30 8076 C 757.071 1.77527 0.835385 0
M  V30 8077 O 756.196 1.39569 1.65377 0
M  V30 8078 C 756.791 3.17889 -1.17183 0
M  V30 8079 C 755.35 3.65052 -0.917267 0
M  V30 8080 C 754.497 2.44124 -1.31525 0
M  V30 8081 H 757.448 1.11342 -1.13087 0
M  V30 8082 H 757.469 3.76768 -0.531616 0
M  V30 8083 H 756.981 3.16052 -2.25239 0
M  V30 8084 H 755.082 3.72305 0.148354 0
M  V30 8085 H 755.195 4.53222 -1.55328 0
M  V30 8086 H 753.559 2.43906 -0.733624 0
M  V30 8087 H 754.342 2.44979 -2.405 0
M  V30 8088 N 756.787 0.722489 1.40064 0
M  V30 8089 C 758.012 0.273446 2.05589 0
M  V30 8090 C 758.437 -1.07875 1.54093 0
M  V30 8091 O 757.795 -1.68095 0.679252 0
M  V30 8092 C 757.843 0.271023 3.5958 0
M  V30 8093 O 756.947 -0.745499 4.05606 0
M  V30 8094 H 756.288 0.126856 0.65177 0
M  V30 8095 H 758.818 0.984906 1.79334 0
M  V30 8096 H 758.828 0.111084 4.07849 0
M  V30 8097 H 757.503 1.25776 3.96425 0
M  V30 8098 H 756.08 -0.552719 3.68781 0
M  V30 8099 N 758.265 -1.50454 0.469181 0
M  V30 8100 C 759.49 -2.0722 -0.0864892 0
M  V30 8101 C 759.915 -1.33098 -1.32916 0
M  V30 8102 O 759.273 -0.378084 -1.77314 0
M  V30 8103 C 759.321 -3.58845 -0.355384 0
M  V30 8104 O 758.425 -3.86583 -1.43622 0
M  V30 8105 H 757.766 -0.663889 0.0121414 0
M  V30 8106 H 760.296 -1.93674 0.659674 0
M  V30 8107 H 760.306 -4.03617 -0.596447 0
M  V30 8108 H 758.981 -4.12211 0.552698 0
M  V30 8109 H 757.558 -3.5365 -1.18262 0
M  V30 8110 N 759.743 -0.201713 -1.56304 0
M  V30 8111 C 760.693 0.729444 -2.16016 0
M  V30 8112 C 761.677 1.17164 -1.10279 0
M  V30 8113 O 762.869 1.12893 -1.36324 0
M  V30 8114 C 759.998 1.94594 -2.82822 0
M  V30 8115 C 759.084 1.52434 -3.95758 0
M  V30 8116 N 759.475 0.814106 -4.99205 0
M  V30 8117 C 757.773 1.81314 -4.07481 0
M  V30 8118 C 758.474 0.601896 -5.78578 0
M  V30 8119 N 757.45 1.15263 -5.3124 0
M  V30 8120 H 761.252 0.178163 -2.93359 0
M  V30 8121 H 758.766 -0.00218038 -1.624 0
M  V30 8122 H 760.763 2.62357 -3.23998 0
M  V30 8123 H 759.423 2.50188 -2.06969 0
M  V30 8124 H 760.434 0.468872 -5.15773 0
M  V30 8125 H 757.111 2.3837 -3.42762 0
M  V30 8126 H 758.501 0.0380119 -6.71889 0
M  V30 8127 N 761.222 1.57436 0.0718424 0
M  V30 8128 C 762.447 1.91858 0.787745 0
M  V30 8129 C 762.872 0.798119 1.70328 0
M  V30 8130 O 762.23 -0.24905 1.79581 0
M  V30 8131 C 762.278 3.25232 1.55744 0
M  V30 8132 O 761.382 3.14462 2.6681 0
M  V30 8133 H 760.723 0.628258 0.214914 0
M  V30 8134 H 763.253 2.04561 0.0401012 0
M  V30 8135 H 763.263 3.59105 1.9367 0
M  V30 8136 H 761.938 4.0636 0.885691 0
M  V30 8137 H 760.515 2.92148 2.31741 0
M  V30 8138 N 762.7 -0.34323 1.53817 0
M  V30 8139 C 764.111 -0.918823 1.62525 0
M  V30 8140 C 764.462 -1.89542 0.506765 0
M  V30 8141 O 763.587 -2.13326 -0.363441 0
M  V30 8142 C 764.182 -1.67326 2.94597 0
M  V30 8143 C 762.741 -2.19786 3.05567 0
M  V30 8144 C 761.888 -1.01708 2.57974 0
M  V30 8145 H 764.839 -0.121358 1.58235 0
M  V30 8146 H 764.86 -2.53615 2.83654 0
M  V30 8147 H 764.372 -0.962223 3.75983 0
M  V30 8148 H 762.473 -2.94065 2.28816 0
M  V30 8149 H 762.586 -2.46135 4.1104 0
M  V30 8150 H 760.95 -1.39058 2.13389 0
M  V30 8151 H 761.733 -0.320671 3.41799 0
M  V30 8152 N 764.178 -1.45556 -0.604258 0
M  V30 8153 C 765.403 -1.53509 -1.39462 0
M  V30 8154 C 765.828 -0.169638 -1.87333 0
M  V30 8155 O 765.186 0.846346 -1.60333 0
M  V30 8156 C 765.234 -2.52654 -2.5729 0
M  V30 8157 O 764.338 -2.04666 -3.5803 0
M  V30 8158 H 763.679 -0.517355 -0.416221 0
M  V30 8159 H 766.209 -1.90939 -0.735072 0
M  V30 8160 H 766.219 -2.71568 -3.04491 0
M  V30 8161 H 764.894 -3.51823 -2.21797 0
M  V30 8162 H 763.471 -1.95643 -3.17456 0
M  V30 8163 N 765.656 0.84705 -1.32902 0
M  V30 8164 C 766.586 1.97166 -1.25091 0
M  V30 8165 C 767.567 1.69578 -0.133161 0
M  V30 8166 O 768.752 1.91519 -0.321591 0
M  V30 8167 C 765.882 3.33157 -0.981006 0
M  V30 8168 C 764.836 3.75119 -2.06082 0
M  V30 8169 C 764.162 5.08826 -1.64318 0
M  V30 8170 C 765.462 3.89774 -3.47669 0
M  V30 8171 H 767.156 2.03958 -2.19184 0
M  V30 8172 H 764.702 0.979907 -1.05517 0
M  V30 8173 H 766.655 4.11393 -0.912891 0
M  V30 8174 H 765.379 3.266 -0.00445559 0
M  V30 8175 H 764.038 2.9914 -2.11921 0
M  V30 8176 H 763.686 4.98732 -0.653876 0
M  V30 8177 H 763.386 5.37873 -2.36572 0
M  V30 8178 H 764.91 5.89546 -1.58958 0
M  V30 8179 H 766.324 4.58343 -3.44376 0
M  V30 8180 H 764.721 4.30248 -4.18338 0
M  V30 8181 H 765.791 2.92463 -3.86773 0
M  V30 8182 N 767.134 1.16236 1.06428 0
M  V30 8183 C 768.359 0.967688 1.83441 0
M  V30 8184 C 768.784 -0.479167 1.81894 0
M  V30 8185 O 768.142 -1.34224 1.21875 0
M  V30 8186 C 768.19 1.49806 3.2801 0
M  V30 8187 O 767.294 0.703481 4.06356 0
M  V30 8188 H 766.635 0.344468 0.56766 0
M  V30 8189 H 769.165 1.54442 1.34197 0
M  V30 8190 H 769.175 1.51495 3.78831 0
M  V30 8191 H 767.85 2.55133 3.2845 0
M  V30 8192 H 766.427 0.756986 3.65136 0
M  V30 8193 N 768.612 -1.24939 0.960631 0
M  V30 8194 C 769.837 -1.9742 0.635608 0
M  V30 8195 C 770.262 -1.70857 -0.786737 0
M  V30 8196 O 769.62 -0.968063 -1.53291 0
M  V30 8197 C 769.668 -3.48987 0.907771 0
M  V30 8198 O 768.772 -4.12399 -0.0104053 0
M  V30 8199 H 768.113 -0.61871 0.241027 0
M  V30 8200 H 770.643 -1.58901 1.28886 0
M  V30 8201 H 770.653 -3.99334 0.836453 0
M  V30 8202 H 769.328 -3.6765 1.94439 0
M  V30 8203 H 767.905 -3.72727 0.113631 0
M  V30 8204 N 770.09 -0.729906 -1.39679 0
M  V30 8205 C 771.022 -0.0470588 -2.29152 0
M  V30 8206 C 772.035 0.708808 -1.4656 0
M  V30 8207 O 773.224 0.553815 -1.69691 0
M  V30 8208 C 770.324 0.957612 -3.25089 0
M  V30 8209 C 769.497 0.264321 -4.36601 0
M  V30 8210 C 768.556 1.17638 -5.12882 0
M  V30 8211 O 767.582 0.655777 -5.6541 0
M  V30 8212 N 768.784 2.50649 -5.23598 0
M  V30 8213 H 771.549 -0.815364 -2.88395 0
M  V30 8214 H 769.11 -0.578707 -1.51204 0
M  V30 8215 H 771.102 1.57026 -3.72995 0
M  V30 8216 H 769.672 1.62716 -2.66912 0
M  V30 8217 H 768.892 -0.528732 -3.90638 0
M  V30 8218 H 770.18 -0.216344 -5.0834 0
M  V30 8219 H 769.578 2.95427 -4.82431 0
M  V30 8220 H 768.135 3.07022 -5.74961 0
M  V30 8221 N 771.568 1.50203 -0.477153 0
M  V30 8222 C 772.5 2.26508 0.350239 0
M  V30 8223 C 773.513 1.32081 0.95176 0
M  V30 8224 O 774.702 1.57546 0.839139 0
M  V30 8225 C 771.802 3.0361 1.50579 0
M  V30 8226 C 770.975 4.25438 1.01595 0
M  V30 8227 C 770.034 4.84783 2.04626 0
M  V30 8228 O 769.06 5.45528 1.62442 0
M  V30 8229 N 770.262 4.72318 3.37485 0
M  V30 8230 H 773.027 2.98155 -0.30394 0
M  V30 8231 H 770.588 1.58938 -0.308289 0
M  V30 8232 H 772.58 3.4019 2.1921 0
M  V30 8233 H 771.15 2.34724 2.06455 0
M  V30 8234 H 770.37 3.93894 0.155316 0
M  V30 8235 H 771.658 5.04413 0.666694 0
M  V30 8236 H 771.056 4.24022 3.74462 0
M  V30 8237 H 769.613 5.13149 4.01897 0
M  V30 8238 N 773.046 0.209999 1.56195 0
M  V30 8239 C 774.294 -0.423974 1.97603 0
M  V30 8240 C 774.615 -1.61112 1.09854 0
M  V30 8241 O 773.885 -1.95134 0.173032 0
M  V30 8242 H 772.465 -0.159629 0.729745 0
M  V30 8243 H 775.127 0.300205 1.92574 0
M  V30 8244 H 774.223 -0.75809 3.02753 0
M  V30 8245 N 774.524 -1.57472 -0.0634922 0
M  V30 8246 C 775.77 -1.87932 -0.762194 0
M  V30 8247 C 776.103 -0.803377 -1.76804 0
M  V30 8248 O 775.378 0.185468 -1.93614 0
M  V30 8249 C 775.661 -3.29053 -1.46275 0
M  V30 8250 C 775.514 -4.47309 -0.472755 0
M  V30 8251 C 776.833 -3.68537 -2.40558 0
M  V30 8252 H 773.952 -0.683521 -0.275624 0
M  V30 8253 H 776.594 -1.89983 -0.0252651 0
M  V30 8254 H 774.744 -3.27435 -2.0909 0
M  V30 8255 H 776.416 -4.61053 0.150828 0
M  V30 8256 H 774.659 -4.33286 0.211187 0
M  V30 8257 H 775.33 -5.42853 -1.00072 0
M  V30 8258 H 777.806 -3.71302 -1.87814 0
M  V30 8259 H 776.682 -4.68152 -2.86574 0
M  V30 8260 H 776.943 -2.98917 -3.25731 0
M  V30 8261 N 776.003 0.335068 -1.53997 0
M  V30 8262 C 777.231 1.09418 -1.756 0
M  V30 8263 C 777.646 1.82083 -0.499138 0
M  V30 8264 O 777.003 1.74646 0.529631 0
M  V30 8265 C 777.054 2.10115 -2.94166 0
M  V30 8266 O 776.775 1.40404 -4.14992 0
M  V30 8267 C 778.276 2.98336 -3.27888 0
M  V30 8268 H 775.496 0.32595 -0.586513 0
M  V30 8269 H 778.04 0.384693 -2.00849 0
M  V30 8270 H 776.195 2.76616 -2.71224 0
M  V30 8271 H 776.609 2.07743 -4.81605 0
M  V30 8272 H 778.083 3.6491 -4.1418 0
M  V30 8273 H 778.56 3.64814 -2.44556 0
M  V30 8274 H 779.166 2.37412 -3.52868 0
M  V30 8275 N 777.481 1.45874 0.596531 0
M  V30 8276 C 778.706 1.54247 1.38646 0
M  V30 8277 C 779.131 0.179571 1.87241 0
M  V30 8278 O 778.489 -0.837831 1.6078 0
M  V30 8279 C 778.537 2.54015 2.55946 0
M  V30 8280 O 777.641 2.06561 3.5694 0
M  V30 8281 H 776.982 0.519555 0.413471 0
M  V30 8282 H 779.512 1.91327 0.724936 0
M  V30 8283 H 779.522 2.73179 3.03047 0
M  V30 8284 H 778.197 3.52994 2.19928 0
M  V30 8285 H 776.774 1.97324 3.16414 0
M  V30 8286 N 778.959 -0.83999 1.33349 0
M  V30 8287 C 780.187 -1.62728 1.27778 0
M  V30 8288 C 780.602 -1.88191 -0.151505 0
M  V30 8289 O 779.959 -1.46128 -1.09329 0
M  V30 8290 C 780.01 -2.97813 2.04913 0
M  V30 8291 O 779.731 -2.73469 3.42266 0
M  V30 8292 C 781.232 -3.92245 2.0654 0
M  V30 8293 H 778.452 -0.506374 0.440257 0
M  V30 8294 H 780.996 -1.04637 1.75703 0
M  V30 8295 H 779.151 -3.52509 1.60674 0
M  V30 8296 H 779.565 -3.59483 3.81932 0
M  V30 8297 H 781.039 -4.84249 2.64966 0
M  V30 8298 H 781.516 -4.26332 1.05537 0
M  V30 8299 H 782.122 -3.43487 2.50793 0
M  V30 8300 N 780.437 -1.16799 -1.0581 0
M  V30 8301 C 781.677 -0.963264 -1.80279 0
M  V30 8302 C 782.041 0.499671 -1.85384 0
M  V30 8303 O 783.242 0.823264 -2.55882 0
M  V30 8304 C 781.513 -1.57938 -3.20609 0
M  V30 8305 S 783.072 -1.51997 -4.11634 0
M  V30 8306 H 779.89 -0.346302 -0.620964 0
M  V30 8307 H 782.492 -1.48632 -1.26999 0
M  V30 8308 H 781.196 -2.63672 -3.14492 0
M  V30 8309 H 780.727 -1.05586 -3.78966 0
M  V30 8310 H 782.742 -0.523625 -4.93429 0
M  V30 8311 N 781.915 1.24427 -0.967243 0
M  V30 8312 C 783.155 1.9423 -0.636723 0
M  V30 8313 C 783.519 1.73939 0.812971 0
M  V30 8314 O 784.72 2.37773 1.25369 0
M  V30 8315 C 782.991 3.43105 -1.00067 0
M  V30 8316 S 784.55 4.31728 -0.784633 0
M  V30 8317 H 781.368 0.671527 -0.233607 0
M  V30 8318 H 783.97 1.50806 -1.2441 0
M  V30 8319 H 782.674 3.5538 -2.05264 0
M  V30 8320 H 782.205 3.91521 -0.384054 0
M  V30 8321 H 784.22 4.95046 0.338244 0
M  V30 8322 N 783.393 0.737304 1.3929 0
M  V30 8323 C 784.618 0.295237 2.05288 0
M  V30 8324 C 785.043 -1.06235 1.55228 0
M  V30 8325 O 784.401 -1.67365 0.697043 0
M  V30 8326 C 784.449 0.309146 3.59272 0
M  V30 8327 O 783.553 -0.702437 4.06374 0
M  V30 8328 H 782.894 0.133762 0.650387 0
M  V30 8329 H 785.424 1.00387 1.78279 0
M  V30 8330 H 785.434 0.154336 4.07708 0
M  V30 8331 H 784.109 1.29974 3.95069 0
M  V30 8332 H 782.686 -0.513574 3.69346 0
M  V30 8333 N 784.871 -1.49948 0.485112 0
M  V30 8334 C 786.287 -1.58984 0.140096 0
M  V30 8335 C 786.487 -1.49194 -1.35438 0
M  V30 8336 O 785.543 -1.35765 -2.12894 0
M  V30 8337 C 786.856 -2.92372 0.702769 0
M  V30 8338 C 788.404 -3.05801 0.66745 0
M  V30 8339 C 788.879 -4.41785 1.20791 0
M  V30 8340 N 790.37 -4.48234 1.16792 0
M  V30 8341 C 791.105 -5.51871 1.55646 0
M  V30 8342 N 790.601 -6.62692 2.02016 0
M  V30 8343 N 792.394 -5.42494 1.47161 0
M  V30 8344 H 784.545 -1.54555 1.45693 0
M  V30 8345 H 786.808 -0.731206 0.603359 0
M  V30 8346 H 786.514 -3.05056 1.75025 0
M  V30 8347 H 786.388 -3.76885 0.154205 0
M  V30 8348 H 788.775 -2.92757 -0.371157 0
M  V30 8349 H 788.856 -2.23011 1.25298 0
M  V30 8350 H 788.5 -4.55579 2.24522 0
M  V30 8351 H 788.43 -5.23188 0.598464 0
M  V30 8352 H 790.921 -3.68718 0.827982 0
M  V30 8353 H 791.234 -7.3785 2.29775 0
M  V30 8354 H 789.579 -6.63775 2.05979 0
M  V30 8355 H 792.77 -4.54806 1.10765 0
M  V30 8356 H 792.943 -6.2314 1.77766 0
M  V30 8357 N 786.349 -0.21828 -1.56081 0
M  V30 8358 C 787.765 0.137168 -1.59009 0
M  V30 8359 C 787.965 1.59215 -1.23503 0
M  V30 8360 O 787.021 2.33178 -0.968716 0
M  V30 8361 C 788.334 -0.186162 -3.00123 0
M  V30 8362 C 789.882 -0.128135 -3.12738 0
M  V30 8363 C 790.357 -0.425094 -4.56023 0
M  V30 8364 N 791.848 -0.374547 -4.61683 0
M  V30 8365 C 792.583 -0.57786 -5.70481 0
M  V30 8366 N 792.079 -0.842771 -6.87655 0
M  V30 8367 N 793.872 -0.510521 -5.59777 0
M  V30 8368 H 786.023 -1.16746 -1.77437 0
M  V30 8369 H 788.286 -0.467706 -0.824594 0
M  V30 8370 H 787.992 -1.19589 -3.30744 0
M  V30 8371 H 787.866 0.500388 -3.73866 0
M  V30 8372 H 790.253 0.872224 -2.81915 0
M  V30 8373 H 790.334 -0.848112 -2.41331 0
M  V30 8374 H 789.978 -1.42288 -4.87562 0
M  V30 8375 H 789.908 0.316038 -5.25651 0
M  V30 8376 H 792.399 -0.177356 -3.77484 0
M  V30 8377 H 792.712 -0.986095 -7.66483 0
M  V30 8378 H 791.057 -0.879929 -6.89407 0
M  V30 8379 H 794.248 -0.303813 -4.67113 0
M  V30 8380 H 794.421 -0.672378 -6.44502 0
M  V30 8381 N 787.827 1.57504 0.0551401 0
M  V30 8382 C 788.777 2.0128 1.071 0
M  V30 8383 C 789.761 0.897592 1.33537 0
M  V30 8384 O 790.953 1.16151 1.33558 0
M  V30 8385 C 788.082 2.47414 2.37994 0
M  V30 8386 C 787.168 3.65703 2.14761 0
M  V30 8387 N 787.559 4.79323 1.61504 0
M  V30 8388 C 785.857 3.72574 2.45162 0
M  V30 8389 C 786.558 5.61089 1.53472 0
M  V30 8390 N 785.534 5.05426 2.00114 0
M  V30 8391 H 789.336 2.86558 0.652829 0
M  V30 8392 H 786.85 1.60274 0.26193 0
M  V30 8393 H 788.847 2.77023 3.11551 0
M  V30 8394 H 787.507 1.6353 2.80514 0
M  V30 8395 H 788.518 5.01284 1.30134 0
M  V30 8396 H 785.195 2.99439 2.90934 0
M  V30 8397 H 786.585 6.62328 1.13008 0
M  V30 8398 N 789.305 -0.326896 1.54172 0
M  V30 8399 C 790.252 -1.40216 1.83325 0
M  V30 8400 C 791.222 -1.51538 0.680107 0
M  V30 8401 O 792.407 -1.66811 0.926206 0
M  V30 8402 C 789.547 -2.76626 2.0633 0
M  V30 8403 C 788.66 -2.73963 3.34019 0
M  V30 8404 C 787.795 -4.02198 3.47002 0
M  V30 8405 C 786.834 -3.93828 4.68578 0
M  V30 8406 N 785.971 -5.13787 4.78506 0
M  V30 8407 H 790.811 -1.14656 2.7506 0
M  V30 8408 H 788.348 -0.555089 1.36225 0
M  V30 8409 H 790.306 -3.55922 2.17659 0
M  V30 8410 H 788.936 -3.00503 1.1789 0
M  V30 8411 H 787.988 -1.86677 3.31445 0
M  V30 8412 H 789.3 -2.6366 4.2342 0
M  V30 8413 H 788.454 -4.89923 3.57855 0
M  V30 8414 H 787.193 -4.15302 2.55687 0
M  V30 8415 H 786.198 -3.04487 4.57786 0
M  V30 8416 H 787.423 -3.82292 5.61275 0
M  V30 8417 H 785.369 -5.27403 3.90105 0
M  V30 8418 H 785.286 -5.05807 5.61868 0
M  V30 8419 H 786.554 -6.03236 4.93686 0
M  V30 8420 N 790.784 -1.46188 -0.588786 0
M  V30 8421 C 791.731 -1.56292 -1.69828 0
M  V30 8422 C 792.701 -0.407581 -1.61022 0
M  V30 8423 O 793.886 -0.623532 -1.80324 0
M  V30 8424 C 791.026 -1.55341 -3.08161 0
M  V30 8425 C 790.139 -2.81564 -3.27636 0
M  V30 8426 C 789.274 -2.72158 -4.56183 0
M  V30 8427 C 788.313 -3.93348 -4.68981 0
M  V30 8428 N 787.45 -3.82365 -5.88848 0
M  V30 8429 H 792.29 -2.51066 -1.6053 0
M  V30 8430 H 789.827 -1.24562 -0.782474 0
M  V30 8431 H 791.785 -1.52776 -3.88221 0
M  V30 8432 H 790.415 -0.641034 -3.16371 0
M  V30 8433 H 789.467 -2.94136 -2.41223 0
M  V30 8434 H 790.779 -3.714 -3.32962 0
M  V30 8435 H 789.933 -2.67665 -5.44464 0
M  V30 8436 H 788.672 -1.79953 -4.53286 0
M  V30 8437 H 787.677 -3.98181 -3.7912 0
M  V30 8438 H 788.902 -4.86643 -4.73662 0
M  V30 8439 H 786.848 -2.92942 -5.86959 0
M  V30 8440 H 786.765 -4.65851 -5.95415 0
M  V30 8441 H 788.033 -3.81836 -6.79575 0
M  V30 8442 N 792.262 0.832906 -1.33792 0
M  V30 8443 C 793.49 1.62048 -1.28639 0
M  V30 8444 C 793.905 1.88269 0.141522 0
M  V30 8445 O 793.262 1.46706 1.08553 0
M  V30 8446 C 793.313 2.96722 -2.0649 0
M  V30 8447 O 793.034 2.7165 -3.43712 0
M  V30 8448 C 794.535 3.91144 -2.08617 0
M  V30 8449 H 791.755 0.504032 -0.442937 0
M  V30 8450 H 794.299 1.03704 -1.76255 0
M  V30 8451 H 792.454 3.51652 -1.62541 0
M  V30 8452 H 792.868 3.57453 -3.83833 0
M  V30 8453 H 794.342 4.82837 -2.67531 0
M  V30 8454 H 794.819 4.25766 -1.07796 0
M  V30 8455 H 795.425 3.42152 -2.52611 0
M  V30 8456 N 793.74 1.17359 1.05189 0
M  V30 8457 C 794.987 0.961987 1.78191 0
M  V30 8458 C 795.315 -0.509363 1.87712 0
M  V30 8459 O 794.57 -1.39425 1.37329 0
M  V30 8460 C 794.869 1.54821 3.22126 0
M  V30 8461 C 794.535 3.04378 3.32663 0
M  V30 8462 C 793.197 3.45201 3.35246 0
M  V30 8463 C 795.549 4.00387 3.33677 0
M  V30 8464 C 792.877 4.80629 3.36471 0
M  V30 8465 C 795.229 5.35715 3.36441 0
M  V30 8466 C 793.893 5.76002 3.37311 0
M  V30 8467 H 793.163 0.352016 0.652047 0
M  V30 8468 H 795.81 1.46249 1.23627 0
M  V30 8469 H 794.115 0.969432 3.79617 0
M  V30 8470 H 795.812 1.36004 3.77232 0
M  V30 8471 H 792.402 2.71836 3.31366 0
M  V30 8472 H 796.586 3.69906 3.30882 0
M  V30 8473 H 791.842 5.11155 3.35455 0
M  V30 8474 H 796.016 6.09886 3.36173 0
M  V30 8475 H 793.643 6.80919 3.38013 0
M  V30 8476 N 795.218 -1.23913 0.973828 0
M  V30 8477 C 796.634 -1.44325 0.681363 0
M  V30 8478 C 796.834 -1.86832 -0.754728 0
M  V30 8479 O 795.89 -2.01024 -1.52793 0
M  V30 8480 C 797.203 -2.50017 1.67069 0
M  V30 8481 C 798.751 -2.63838 1.68399 0
M  V30 8482 C 799.226 -3.72734 2.66145 0
M  V30 8483 N 800.717 -3.80169 2.64624 0
M  V30 8484 C 801.452 -4.6397 3.36927 0
M  V30 8485 N 800.948 -5.51911 4.18767 0
M  V30 8486 N 802.741 -4.58106 3.25722 0
M  V30 8487 H 794.892 -0.946204 1.9016 0
M  V30 8488 H 797.155 -0.477374 0.819035 0
M  V30 8489 H 796.861 -2.25686 2.69738 0
M  V30 8490 H 796.735 -3.48287 1.4483 0
M  V30 8491 H 799.122 -2.87524 0.664379 0
M  V30 8492 H 799.203 -1.65906 1.94702 0
M  V30 8493 H 798.847 -3.49797 3.68245 0
M  V30 8494 H 798.777 -4.70193 2.3712 0
M  V30 8495 H 801.268 -3.17319 2.05224 0
M  V30 8496 H 801.581 -6.12828 4.70809 0
M  V30 8497 H 799.926 -5.51556 4.2286 0
M  V30 8498 H 803.117 -3.8842 2.61242 0
M  V30 8499 H 803.29 -5.23188 3.82333 0
M  V30 8500 N 796.696 -0.74468 -1.38897 0
M  V30 8501 C 797.945 -0.293716 -1.9955 0
M  V30 8502 C 798.258 1.12831 -1.59777 0
M  V30 8503 O 799.464 1.67929 -2.13336 0
M  V30 8504 C 797.92 -0.474188 -3.56762 0
M  V30 8505 C 797.528 -1.90472 -4.05493 0
M  V30 8506 C 799.272 -0.0854875 -4.24414 0
M  V30 8507 C 797.179 -2.03423 -5.55314 0
M  V30 8508 H 796.109 -0.106066 -0.746502 0
M  V30 8509 H 798.76 -0.919948 -1.58774 0
M  V30 8510 H 797.142 0.221092 -3.95382 0
M  V30 8511 H 798.316 -2.63274 -3.78184 0
M  V30 8512 H 796.631 -2.24752 -3.50536 0
M  V30 8513 H 799.228 -0.161133 -5.34457 0
M  V30 8514 H 799.571 0.96066 -4.05064 0
M  V30 8515 H 800.104 -0.732286 -3.91002 0
M  V30 8516 H 796.843 -3.0626 -5.79556 0
M  V30 8517 H 796.363 -1.3507 -5.84394 0
M  V30 8518 H 798.042 -1.81996 -6.20876 0
M  V30 8519 N 798.174 1.49689 -0.493057 0
M  V30 8520 C 799.585 1.8665 -0.0433032 0
M  V30 8521 C 799.936 1.40607 1.36836 0
M  V30 8522 O 799.061 0.780503 2.01834 0
M  V30 8523 C 799.656 3.38724 -0.0718069 0
M  V30 8524 C 798.215 3.75015 0.32257 0
M  V30 8525 C 797.362 2.7366 -0.4478 0
M  V30 8526 H 800.313 1.42119 -0.706246 0
M  V30 8527 H 800.334 3.73522 0.725347 0
M  V30 8528 H 799.846 3.72204 -1.09935 0
M  V30 8529 H 797.947 3.47142 1.35364 0
M  V30 8530 H 798.06 4.79099 0.00864259 0
M  V30 8531 H 796.424 2.54498 0.101354 0
M  V30 8532 H 797.207 3.09985 -1.47527 0
M  V30 8533 N 799.652 0.226554 1.55963 0
M  V30 8534 C 800.6 -0.697922 2.21882 0
M  V30 8535 C 801.594 -1.19586 1.19981 0
M  V30 8536 O 802.8 -1.15511 1.38048 0
M  V30 8537 H 799.175 -0.243501 0.711485 0
M  V30 8538 H 801.146 -0.118576 2.98164 0
M  V30 8539 C 799.895 -1.89309 2.91646 0
M  V30 8540 H 799.218 -1.51906 3.69817 0
M  V30 8541 H 800.658 -2.51762 3.41162 0
M  V30 8542 C 799.117 -2.75162 1.94391 0
M  V30 8543 O 799.647 -3.74071 1.46402 0
M  V30 8544 N 797.853 -2.41302 1.61932 0
M  V30 8545 H 797.4 -1.60923 2.01151 0
M  V30 8546 H 797.358 -2.99023 0.971219 0
M  V30 8547 N 801.13 -1.57531 -0.0467866 0
M  V30 8548 C 802.093 -2.04379 -1.03738 0
M  V30 8549 C 803.093 -0.944881 -1.3011 0
M  V30 8550 O 804.283 -1.20904 -1.25411 0
M  V30 8551 C 801.415 -2.44572 -2.37482 0
M  V30 8552 H 802.608 -2.93142 -0.633063 0
M  V30 8553 H 800.161 -1.53526 -0.293177 0
M  V30 8554 H 800.896 -1.58911 -2.82697 0
M  V30 8555 H 800.681 -3.24785 -2.19675 0
M  V30 8556 H 802.171 -2.81307 -3.08636 0
M  V30 8557 N 802.608 0.318715 -1.54344 0
M  V30 8558 C 803.556 1.41254 -1.84798 0
M  V30 8559 C 804.55 1.53325 -0.720256 0
M  V30 8560 O 805.756 1.55653 -0.903992 0
M  V30 8561 H 802.131 0.471468 -0.585851 0
M  V30 8562 H 804.102 1.12795 -2.7626 0
M  V30 8563 C 802.851 2.77395 -2.09637 0
M  V30 8564 H 802.174 2.68881 -2.95876 0
M  V30 8565 H 803.614 3.52987 -2.34896 0
M  V30 8566 C 802.073 3.24948 -0.889398 0
M  V30 8567 O 802.603 4.01573 -0.101063 0
M  V30 8568 N 800.809 2.82051 -0.699684 0
M  V30 8569 H 800.356 2.19858 -1.3424 0
M  V30 8570 H 800.314 3.1422 0.106368 0
M  V30 8571 N 804.086 1.46499 0.581025 0
M  V30 8572 C 805.332 1.52121 1.34116 0
M  V30 8573 C 805.665 0.173031 1.93428 0
M  V30 8574 O 804.94 -0.815729 1.76568 0
M  V30 8575 C 805.223 2.62108 2.46924 0
M  V30 8576 C 805.076 4.06462 1.92636 0
M  V30 8577 C 806.395 2.68167 3.48962 0
M  V30 8578 H 803.514 0.5538 0.486287 0
M  V30 8579 H 806.156 1.78443 0.652538 0
M  V30 8580 H 804.306 2.39794 3.05665 0
M  V30 8581 H 805.978 4.40068 1.3834 0
M  V30 8582 H 804.221 4.15862 1.23455 0
M  V30 8583 H 804.892 4.79152 2.74076 0
M  V30 8584 H 807.368 2.8823 3.00104 0
M  V30 8585 H 806.244 3.46942 4.2535 0
M  V30 8586 H 806.505 1.74284 4.06297 0
M  V30 8587 N 805.565 -0.825799 1.34232 0
M  V30 8588 C 806.79 -1.61883 1.29648 0
M  V30 8589 C 807.215 -1.87669 -0.127295 0
M  V30 8590 O 806.573 -1.45016 -1.08813 0
M  V30 8591 C 806.621 -2.93846 2.09014 0
M  V30 8592 O 805.725 -3.85778 1.4577 0
M  V30 8593 H 805.066 -0.492454 0.445405 0
M  V30 8594 H 807.596 -1.02641 1.76992 0
M  V30 8595 H 807.606 -3.43435 2.20264 0
M  V30 8596 H 806.281 -2.74401 3.12533 0
M  V30 8597 H 804.858 -3.4429 1.43245 0
M  V30 8598 N 807.043 -1.17915 -1.04565 0
M  V30 8599 C 808.291 -0.969505 -1.77327 0
M  V30 8600 C 808.612 0.502569 -1.88412 0
M  V30 8601 O 807.882 1.36467 -1.40547 0
M  V30 8602 H 806.462 -0.355723 -0.656864 0
M  V30 8603 H 809.124 -1.48506 -1.26223 0
M  V30 8604 H 808.22 -1.40324 -2.78775 0
M  V30 8605 N 808.521 1.23394 -0.980386 0
M  V30 8606 C 809.746 1.96384 -0.666935 0
M  V30 8607 C 810.171 1.72087 0.759456 0
M  V30 8608 O 809.529 0.992328 1.51732 0
M  V30 8609 C 809.577 3.47499 -0.963177 0
M  V30 8610 O 808.681 4.12363 -0.0552051 0
M  V30 8611 H 808.022 0.614797 -0.250839 0
M  V30 8612 H 810.552 1.56831 -1.31398 0
M  V30 8613 H 810.562 3.97953 -0.899877 0
M  V30 8614 H 809.237 3.6451 -2.00264 0
M  V30 8615 H 807.814 3.72499 -0.172914 0
M  V30 8616 N 809.999 0.752036 1.385 0
M  V30 8617 C 810.949 0.0990189 2.27785 0
M  V30 8618 C 811.933 -0.694867 1.45122 0
M  V30 8619 O 813.125 -0.561077 1.67872 0
M  V30 8620 C 810.254 -0.794531 3.33979 0
M  V30 8621 C 809.34 0.00611984 4.241 0
M  V30 8622 N 809.731 1.04174 4.94956 0
M  V30 8623 C 808.029 -0.220934 4.45452 0
M  V30 8624 C 808.73 1.52601 5.61327 0
M  V30 8625 N 807.706 0.84159 5.37046 0
M  V30 8626 H 811.508 0.892208 2.8003 0
M  V30 8627 H 809.022 0.587934 1.51384 0
M  V30 8628 H 811.019 -1.27797 3.96829 0
M  V30 8629 H 809.679 -1.58669 2.83292 0
M  V30 8630 H 810.69 1.42349 4.97953 0
M  V30 8631 H 807.367 -0.986556 4.05676 0
M  V30 8632 H 808.757 2.38857 6.2801 0
M  V30 8633 N 811.477 -1.49425 0.500989 0
M  V30 8634 C 812.409 -2.27037 -0.314159 0
M  V30 8635 C 813.422 -1.33578 -0.930626 0
M  V30 8636 O 814.611 -1.58861 -0.813968 0
M  V30 8637 C 811.711 -3.05968 -1.45729 0
M  V30 8638 C 810.884 -4.27 -0.948135 0
M  V30 8639 C 809.943 -4.87977 -1.96888 0
M  V30 8640 O 808.969 -5.48044 -1.53743 0
M  V30 8641 N 810.171 -4.77627 -3.29928 0
M  V30 8642 H 812.936 -2.97634 0.351336 0
M  V30 8643 H 810.497 -1.58427 0.333536 0
M  V30 8644 H 812.489 -3.43634 -2.1377 0
M  V30 8645 H 811.059 -2.37978 -2.02695 0
M  V30 8646 H 810.279 -3.94091 -0.0926311 0
M  V30 8647 H 811.567 -5.0541 -0.586362 0
M  V30 8648 H 810.965 -4.29926 -3.67669 0
M  V30 8649 H 809.522 -5.19478 -3.93682 0
M  V30 8650 N 812.955 -0.234822 -1.55841 0
M  V30 8651 C 814.203 0.392483 -1.98252 0
M  V30 8652 C 814.524 1.59344 -1.12404 0
M  V30 8653 O 813.794 1.94834 -0.204055 0
M  V30 8654 H 812.374 0.147999 -0.732192 0
M  V30 8655 H 815.036 -0.330804 -1.92072 0
M  V30 8656 H 814.132 0.709829 -3.03921 0
M  V30 8657 N 814.433 1.57553 0.0384317 0
M  V30 8658 C 815.658 1.93485 0.746872 0
M  V30 8659 C 816.083 0.834069 1.68597 0
M  V30 8660 O 815.441 -0.210902 1.80069 0
M  V30 8661 C 815.489 3.28463 1.4881 0
M  V30 8662 O 814.593 3.20051 2.60079 0
M  V30 8663 H 813.934 0.632675 0.201539 0
M  V30 8664 H 816.464 2.046 -0.00329815 0
M  V30 8665 H 816.474 3.63132 1.86009 0
M  V30 8666 H 815.149 4.08147 0.799297 0
M  V30 8667 H 813.726 2.96998 2.25492 0
M  V30 8668 N 815.911 -0.310526 1.54511 0
M  V30 8669 C 817.16 -1.0445 1.72549 0
M  V30 8670 C 817.473 -1.88748 0.513172 0
M  V30 8671 O 818.679 -2.65338 0.575165 0
M  V30 8672 C 817.135 -1.90665 3.05246 0
M  V30 8673 C 816.743 -1.11415 4.33925 0
M  V30 8674 C 818.487 -2.63719 3.32645 0
M  V30 8675 C 816.394 -1.96852 5.57677 0
M  V30 8676 H 815.324 -0.393676 0.643067 0
M  V30 8677 H 817.975 -0.302003 1.80998 0
M  V30 8678 H 816.357 -2.68864 2.90737 0
M  V30 8679 H 817.531 -0.378956 4.59239 0
M  V30 8680 H 815.846 -0.499853 4.13389 0
M  V30 8681 H 818.443 -3.27974 4.223 0
M  V30 8682 H 818.786 -3.32047 2.51098 0
M  V30 8683 H 819.319 -1.92574 3.48081 0
M  V30 8684 H 816.058 -1.33009 6.41864 0
M  V30 8685 H 815.578 -2.68069 5.36562 0
M  V30 8686 H 817.257 -2.55127 5.94575 0
M  V30 8687 N 817.389 -1.46805 -0.573248 0
M  V30 8688 C 818.321 -1.54127 -1.6964 0
M  V30 8689 C 819.334 -0.428778 -1.57052 0
M  V30 8690 O 820.523 -0.697612 -1.64303 0
M  V30 8691 C 817.623 -1.41438 -3.07975 0
M  V30 8692 C 816.796 -2.66974 -3.46474 0
M  V30 8693 C 815.855 -2.48349 -4.63906 0
M  V30 8694 O 814.881 -3.22109 -4.69292 0
M  V30 8695 N 816.083 -1.55129 -5.59388 0
M  V30 8696 H 818.848 -2.50971 -1.6381 0
M  V30 8697 H 816.409 -1.42981 -0.759479 0
M  V30 8698 H 818.401 -1.26737 -3.84343 0
M  V30 8699 H 816.971 -0.527388 -3.08119 0
M  V30 8700 H 816.191 -2.9655 -2.59715 0
M  V30 8701 H 817.479 -3.50347 -3.68964 0
M  V30 8702 H 816.877 -0.94324 -5.57781 0
M  V30 8703 H 815.434 -1.46387 -6.35149 0
M  V30 8704 N 818.867 0.818669 -1.34668 0
M  V30 8705 C 819.777 1.9616 -1.2868 0
M  V30 8706 C 820.793 1.72918 -0.193742 0
M  V30 8707 O 821.969 1.96951 -0.420975 0
M  V30 8708 C 819.034 3.30534 -1.04633 0
M  V30 8709 C 818.095 3.66755 -2.23136 0
M  V30 8710 C 817.328 4.94717 -2.00227 0
M  V30 8711 O 817.551 5.62218 -0.96264 0
M  V30 8712 O 816.485 5.28915 -2.87286 0
M  V30 8713 H 820.311 2.04157 -2.24842 0
M  V30 8714 H 817.896 0.954691 -1.14917 0
M  V30 8715 H 819.778 4.11005 -0.930216 0
M  V30 8716 H 818.453 3.23495 -0.115139 0
M  V30 8717 H 817.36 2.8671 -2.40308 0
M  V30 8718 H 818.693 3.78484 -3.1466 0
M  V30 8719 N 820.346 1.18468 1.03938 0
M  V30 8720 C 821.276 0.936389 2.13902 0
M  V30 8721 C 822.257 -0.126381 1.6963 0
M  V30 8722 O 823.442 0.0264757 1.94182 0
M  V30 8723 C 820.572 0.462729 3.44204 0
M  V30 8724 C 819.526 1.46613 4.02105 0
M  V30 8725 C 818.852 0.84994 5.27902 0
M  V30 8726 C 820.152 2.84323 4.3813 0
M  V30 8727 H 821.846 1.85602 2.3493 0
M  V30 8728 H 819.392 0.893806 1.12903 0
M  V30 8729 H 821.345 0.276382 4.20493 0
M  V30 8730 H 820.069 -0.492477 3.22866 0
M  V30 8731 H 818.728 1.63944 3.27899 0
M  V30 8732 H 818.376 -0.112493 5.02874 0
M  V30 8733 H 818.076 1.51988 5.67603 0
M  V30 8734 H 819.6 0.674152 6.06867 0
M  V30 8735 H 821.014 2.70636 5.054 0
M  V30 8736 H 819.411 3.48012 4.88884 0
M  V30 8737 H 820.481 3.37776 3.47901 0
M  V30 8738 N 821.824 -1.22873 0.986916 0
M  V30 8739 C 823.049 -1.96028 0.677341 0
M  V30 8740 C 823.474 -1.72487 -0.750319 0
M  V30 8741 O 822.832 -1.00036 -1.51203 0
M  V30 8742 C 822.88 -3.46983 0.981593 0
M  V30 8743 O 821.984 -4.12328 0.0770729 0
M  V30 8744 H 821.325 -0.613458 0.254096 0
M  V30 8745 H 823.855 -1.56132 1.32227 0
M  V30 8746 H 823.865 -3.9747 0.920969 0
M  V30 8747 H 822.54 -3.63442 2.02194 0
M  V30 8748 H 821.117 -3.72402 0.192666 0
M  V30 8749 N 823.302 -0.75937 -1.38099 0
M  V30 8750 C 824.53 -0.329111 -2.04266 0
M  V30 8751 C 824.945 1.04453 -1.57274 0
M  V30 8752 O 824.302 1.66449 -0.748397 0
M  V30 8753 C 824.353 -0.349192 -3.5981 0
M  V30 8754 O 824.074 -1.66863 -4.05078 0
M  V30 8755 C 825.575 0.0942106 -4.432 0
M  V30 8756 H 822.795 -0.13971 -0.656294 0
M  V30 8757 H 825.339 -1.02984 -1.76677 0
M  V30 8758 H 823.494 0.302846 -3.86214 0
M  V30 8759 H 823.908 -1.59877 -4.9954 0
M  V30 8760 H 825.382 0.0290004 -5.51992 0
M  V30 8761 H 825.859 1.1429 -4.24069 0
M  V30 8762 H 826.465 -0.529171 -4.21995 0
M  V30 8763 N 824.78 1.49157 -0.508906 0
M  V30 8764 C 826.029 2.0167 0.0346854 0
M  V30 8765 C 826.342 1.39302 1.37311 0
M  V30 8766 O 827.548 1.83189 2.00385 0
M  V30 8767 C 826.004 3.59725 0.112261 0
M  V30 8768 C 825.612 4.31069 -1.21999 0
M  V30 8769 C 827.356 4.20155 0.605798 0
M  V30 8770 C 825.263 5.81001 -1.10415 0
M  V30 8771 H 824.193 0.753814 0.0167355 0
M  V30 8772 H 826.844 1.7162 -0.649518 0
M  V30 8773 H 825.226 3.86525 0.861087 0
M  V30 8774 H 826.4 4.15962 -1.98273 0
M  V30 8775 H 824.715 3.82418 -1.64759 0
M  V30 8776 H 827.312 5.29964 0.710102 0
M  V30 8777 H 827.655 3.84051 1.60656 0
M  V30 8778 H 828.188 3.97705 -0.0867239 0
M  V30 8779 H 824.927 6.21643 -2.07941 0
M  V30 8780 H 824.447 5.9858 -0.382428 0
M  V30 8781 H 826.126 6.42207 -0.786116 0
M  V30 8782 N 826.258 0.243083 1.55714 0
M  V30 8783 C 827.19 -0.690766 2.18543 0
M  V30 8784 C 828.203 -1.14163 1.16064 0
M  V30 8785 O 829.392 -1.06906 1.42946 0
M  V30 8786 C 826.492 -1.95016 2.77168 0
M  V30 8787 C 825.665 -1.65137 4.05029 0
M  V30 8788 C 824.724 -2.75998 4.48009 0
M  V30 8789 O 823.75 -2.43547 5.14464 0
M  V30 8790 N 824.952 -4.05414 4.15476 0
M  V30 8791 H 827.717 -0.153203 2.99308 0
M  V30 8792 H 825.278 0.0628968 1.61778 0
M  V30 8793 H 827.27 -2.68414 3.0288 0
M  V30 8794 H 825.84 -2.39762 2.00582 0
M  V30 8795 H 825.06 -0.752768 3.86946 0
M  V30 8796 H 826.348 -1.42633 4.88399 0
M  V30 8797 H 825.746 -4.34613 3.62116 0
M  V30 8798 H 824.303 -4.75288 4.46032 0
M  V30 8799 N 827.736 -1.57571 -0.0300757 0
M  V30 8800 C 828.985 -1.88407 -0.720126 0
M  V30 8801 C 829.298 -0.841466 -1.76575 0
M  V30 8802 O 830.504 -1.03902 -2.50832 0
M  V30 8803 C 828.96 -3.34348 -1.33188 0
M  V30 8804 C 828.568 -4.46837 -0.32266 0
M  V30 8805 C 830.312 -3.74333 -2.00187 0
M  V30 8806 C 828.219 -5.83838 -0.942703 0
M  V30 8807 H 827.149 -0.702952 -0.272718 0
M  V30 8808 H 829.8 -1.83482 0.0255337 0
M  V30 8809 H 828.182 -3.34014 -2.12721 0
M  V30 8810 H 829.356 -4.58638 0.445887 0
M  V30 8811 H 827.671 -4.15678 0.245181 0
M  V30 8812 H 830.268 -4.74008 -2.47428 0
M  V30 8813 H 830.611 -3.06275 -2.81959 0
M  V30 8814 H 831.144 -3.76837 -1.2743 0
M  V30 8815 H 827.883 -6.55294 -0.164413 0
M  V30 8816 H 827.403 -5.75759 -1.68111 0
M  V30 8817 H 829.082 -6.30535 -1.45034 0
M  V30 8818 N 829.214 0.302327 -1.54673 0
M  V30 8819 C 830.63 0.647911 -1.45857 0
M  V30 8820 C 830.83 1.90773 -0.64869 0
M  V30 8821 O 829.886 2.52018 -0.155865 0
M  V30 8822 C 831.199 0.802144 -2.89804 0
M  V30 8823 C 832.747 0.898114 -2.99838 0
M  V30 8824 C 833.222 1.08436 -4.44978 0
M  V30 8825 N 834.713 1.15059 -4.48682 0
M  V30 8826 C 835.448 1.31296 -5.58166 0
M  V30 8827 N 834.944 1.4444 -6.77576 0
M  V30 8828 N 836.737 1.34174 -5.45851 0
M  V30 8829 H 828.888 -0.525428 -2.05798 0
M  V30 8830 H 831.151 -0.173423 -0.932002 0
M  V30 8831 H 830.857 -0.0526531 -3.51661 0
M  V30 8832 H 830.731 1.69155 -3.37145 0
M  V30 8833 H 833.118 1.7434 -2.38096 0
M  V30 8834 H 833.199 -0.0152752 -2.55795 0
M  V30 8835 H 832.843 0.243843 -5.07314 0
M  V30 8836 H 832.773 2.01195 -4.8665 0
M  V30 8837 H 835.264 1.0626 -3.62653 0
M  V30 8838 H 835.577 1.56582 -7.56771 0
M  V30 8839 H 833.922 1.41499 -6.80443 0
M  V30 8840 H 837.113 1.23516 -4.5151 0
M  V30 8841 H 837.286 1.46485 -6.31226 0
M  V30 8842 N 830.692 1.47107 0.565454 0
M  V30 8843 C 831.932 1.5488 1.33385 0
M  V30 8844 C 832.296 0.202804 1.90926 0
M  V30 8845 O 833.497 0.155345 2.68351 0
M  V30 8846 C 831.768 2.62969 2.42037 0
M  V30 8847 S 833.327 2.90269 3.29074 0
M  V30 8848 H 830.145 0.547008 0.454206 0
M  V30 8849 H 832.747 1.8444 0.648228 0
M  V30 8850 H 831.451 3.59376 1.98185 0
M  V30 8851 H 830.982 2.35197 3.15351 0
M  V30 8852 H 832.997 2.26854 4.41307 0
M  V30 8853 N 832.17 -0.811516 1.35101 0
M  V30 8854 C 833.416 -1.57068 1.28287 0
M  V30 8855 C 833.749 -1.93667 -0.143808 0
M  V30 8856 O 833.024 -1.60953 -1.09199 0
M  V30 8857 C 833.307 -2.86259 2.18466 0
M  V30 8858 C 833.16 -2.56168 3.69727 0
M  V30 8859 C 834.479 -3.87924 2.07852 0
M  V30 8860 H 831.598 -0.569869 0.467353 0
M  V30 8861 H 834.24 -0.934023 1.65457 0
M  V30 8862 H 832.39 -3.4059 1.86898 0
M  V30 8863 H 834.062 -2.08059 4.11715 0
M  V30 8864 H 832.305 -1.89436 3.90252 0
M  V30 8865 H 832.976 -3.48344 4.28206 0
M  V30 8866 H 835.452 -3.4298 2.35593 0
M  V30 8867 H 834.328 -4.76106 2.73157 0
M  V30 8868 H 834.589 -4.2923 1.05896 0
M  V30 8869 N 833.648 -1.19017 -1.03309 0
M  V30 8870 C 834.558 -0.939303 -2.14975 0
M  V30 8871 C 835.574 0.0992359 -1.73717 0
M  V30 8872 O 836.75 -0.0844362 -2.01223 0
M  V30 8873 C 833.815 -0.476712 -3.43407 0
M  V30 8874 C 832.876 -1.58413 -3.99003 0
M  V30 8875 C 832.109 -1.14352 -5.21305 0
M  V30 8876 O 832.332 -0.00534408 -5.704 0
M  V30 8877 O 831.266 -1.94436 -5.6963 0
M  V30 8878 H 835.092 -1.87386 -2.38998 0
M  V30 8879 H 832.677 -0.972635 -1.13403 0
M  V30 8880 H 834.559 -0.22718 -4.20787 0
M  V30 8881 H 833.234 0.429455 -3.20839 0
M  V30 8882 H 832.141 -1.88777 -3.22977 0
M  V30 8883 H 833.474 -2.4667 -4.25928 0
M  V30 8884 N 835.127 1.22348 -0.993418 0
M  V30 8885 C 836.543 1.43222 -0.704238 0
M  V30 8886 C 836.743 1.88009 0.724909 0
M  V30 8887 O 835.799 2.03429 1.49575 0
M  V30 8888 C 837.112 2.47328 -1.71025 0
M  V30 8889 C 838.66 2.61126 -1.72576 0
M  V30 8890 C 839.135 3.68453 -2.72041 0
M  V30 8891 N 840.626 3.75911 -2.70639 0
M  V30 8892 C 841.361 4.58551 -3.44266 0
M  V30 8893 N 840.857 5.45179 -4.27495 0
M  V30 8894 N 842.65 4.52866 -3.32969 0
M  V30 8895 H 834.801 0.915832 -1.91641 0
M  V30 8896 H 837.064 0.464283 -0.826526 0
M  V30 8897 H 836.77 2.21366 -2.73295 0
M  V30 8898 H 836.644 3.45939 -1.50353 0
M  V30 8899 H 839.031 2.86431 -0.710037 0
M  V30 8900 H 839.112 1.62787 -1.97317 0
M  V30 8901 H 838.756 3.43895 -3.73763 0
M  V30 8902 H 838.686 4.66362 -2.4457 0
M  V30 8903 H 841.177 3.14014 -2.10247 0
M  V30 8904 H 841.49 6.0526 -4.80499 0
M  V30 8905 H 839.835 5.44759 -4.31582 0
M  V30 8906 H 843.026 3.84215 -2.67389 0
M  V30 8907 H 843.199 5.17039 -3.90608 0
M  V30 8908 N 836.605 0.766683 1.37694 0
M  V30 8909 C 837.833 0.339939 2.04088 0
M  V30 8910 C 838.248 -1.03617 1.57826 0
M  V30 8911 O 837.605 -1.6605 0.757214 0
M  V30 8912 C 837.656 0.368269 3.59619 0
M  V30 8913 O 837.377 1.69009 4.04188 0
M  V30 8914 C 838.878 -0.0707053 4.43244 0
M  V30 8915 H 836.098 0.143189 0.655544 0
M  V30 8916 H 838.642 1.03919 1.76128 0
M  V30 8917 H 836.797 -0.282359 3.8637 0
M  V30 8918 H 837.211 1.62523 4.98685 0
M  V30 8919 H 838.685 0.000273538 5.52 0
M  V30 8920 H 839.162 -1.1204 4.24669 0
M  V30 8921 H 839.768 0.551543 4.21709 0
M  V30 8922 N 838.083 -1.48885 0.516809 0
M  V30 8923 C 839.494 -1.86557 0.0729921 0
M  V30 8924 C 839.845 -1.42767 -1.34581 0
M  V30 8925 O 838.97 -0.812514 -2.00567 0
M  V30 8926 C 839.565 -3.38567 0.125686 0
M  V30 8927 C 838.124 -3.75481 -0.262867 0
M  V30 8928 C 837.271 -2.72913 0.491281 0
M  V30 8929 H 840.222 -1.40978 0.728767 0
M  V30 8930 H 840.243 -3.74629 -0.665831 0
M  V30 8931 H 839.755 -3.70408 1.15842 0
M  V30 8932 H 837.856 -3.49251 -1.29824 0
M  V30 8933 H 837.969 -4.79052 0.067579 0
M  V30 8934 H 836.333 -2.54627 -0.0608525 0
M  V30 8935 H 837.116 -3.07599 1.5244 0
M  V30 8936 N 839.561 -0.251338 -1.55583 0
M  V30 8937 C 840.491 0.640437 -2.24545 0
M  V30 8938 C 841.472 1.17781 -1.22726 0
M  V30 8939 O 842.657 1.21633 -1.5139 0
M  V30 8940 C 839.787 1.8355 -2.94834 0
M  V30 8941 C 838.741 1.4307 -4.03379 0
M  V30 8942 C 838.067 2.70695 -4.61116 0
M  V30 8943 C 839.367 0.59848 -5.1886 0
M  V30 8944 H 841.061 0.0653772 -2.99329 0
M  V30 8945 H 838.607 0.0300042 -1.43969 0
M  V30 8946 H 840.56 2.46505 -3.4178 0
M  V30 8947 H 839.284 2.43601 -2.17546 0
M  V30 8948 H 837.943 0.824474 -3.57209 0
M  V30 8949 H 837.591 3.28954 -3.80524 0
M  V30 8950 H 837.291 2.44332 -5.34393 0
M  V30 8951 H 838.815 3.34541 -5.10798 0
M  V30 8952 H 840.229 1.13244 -5.62004 0
M  V30 8953 H 838.626 0.430728 -5.98552 0
M  V30 8954 H 839.696 -0.38829 -4.83343 0
M  V30 8955 N 841.039 1.57585 0.0217189 0
M  V30 8956 C 842.264 1.94267 0.726309 0
M  V30 8957 C 842.689 0.851904 1.67703 0
M  V30 8958 O 842.047 -0.191792 1.80283 0
M  V30 8959 C 842.095 3.30023 1.45318 0
M  V30 8960 O 841.199 3.22791 2.5667 0
M  V30 8961 H 840.54 0.634777 0.194818 0
M  V30 8962 H 843.07 2.04585 -0.0249985 0
M  V30 8963 H 843.08 3.65084 1.82147 0
M  V30 8964 H 841.755 4.08972 0.755962 0
M  V30 8965 H 840.332 2.99373 2.2233 0
M  V30 8966 N 842.517 -0.29412 1.54831 0
M  V30 8967 C 843.465 -1.38296 1.87021 0
M  V30 8968 C 844.459 -1.5216 0.744557 0
M  V30 8969 O 845.665 -1.54196 0.92864 0
M  V30 8970 H 842.04 -0.462088 0.593278 0
M  V30 8971 H 844.011 -1.08386 2.7802 0
M  V30 8972 C 842.76 -2.74024 2.14023 0
M  V30 8973 H 842.083 -2.6414 3.00117 0
M  V30 8974 H 843.523 -3.49205 2.40482 0
M  V30 8975 C 841.982 -3.23492 0.940982 0
M  V30 8976 O 842.512 -4.01361 0.164937 0
M  V30 8977 N 840.718 -2.80902 0.744467 0
M  V30 8978 H 840.265 -2.17694 1.37721 0
M  V30 8979 H 840.223 -3.14349 -0.0563652 0
M  V30 8980 N 843.995 -1.47404 -0.557645 0
M  V30 8981 C 845.22 -1.57868 -1.34508 0
M  V30 8982 C 845.645 -0.229151 -1.86699 0
M  V30 8983 O 845.003 0.794908 -1.62944 0
M  V30 8984 C 845.051 -2.60712 -2.49122 0
M  V30 8985 O 844.155 -2.15952 -3.51338 0
M  V30 8986 H 843.496 -0.530335 -0.399551 0
M  V30 8987 H 846.026 -1.93181 -0.673954 0
M  V30 8988 H 846.036 -2.81118 -2.95697 0
M  V30 8989 H 844.711 -3.58701 -2.10491 0
M  V30 8990 H 843.288 -2.05644 -3.11071 0
M  V30 8991 N 845.473 0.80434 -1.35529 0
M  V30 8992 C 846.889 1.10023 -1.15616 0
M  V30 8993 C 847.089 2.01478 0.0298535 0
M  V30 8994 O 846.145 2.42609 0.699778 0
M  V30 8995 C 847.458 1.72905 -2.46017 0
M  V30 8996 C 849.006 1.85315 -2.52245 0
M  V30 8997 C 849.481 2.51612 -3.82695 0
M  V30 8998 N 850.972 2.59095 -3.83958 0
M  V30 8999 C 851.707 3.11167 -4.81625 0
M  V30 9000 N 851.203 3.63659 -5.89681 0
M  V30 9001 N 852.996 3.09741 -4.6906 0
M  V30 9002 H 845.147 0.196428 -2.1149 0
M  V30 9003 H 847.41 0.149735 -0.9361 0
M  V30 9004 H 847.116 1.13171 -3.32994 0
M  V30 9005 H 846.99 2.72579 -2.6073 0
M  V30 9006 H 849.377 2.44191 -1.65695 0
M  V30 9007 H 849.458 0.844886 -2.41444 0
M  V30 9008 H 849.102 1.93385 -4.69643 0
M  V30 9009 H 849.032 3.5298 -3.90785 0
M  V30 9010 H 851.523 2.21908 -3.05884 0
M  V30 9011 H 851.836 4.01699 -6.60195 0
M  V30 9012 H 850.181 3.61852 -5.9337 0
M  V30 9013 H 853.372 2.68011 -3.83781 0
M  V30 9014 H 853.545 3.50016 -5.45338 0
M  V30 9015 N 846.951 1.19563 1.02676 0
M  V30 9016 C 848.176 1.02556 1.80269 0
M  V30 9017 C 848.601 -0.421056 1.83327 0
M  V30 9018 O 847.959 -1.30279 1.26084 0
M  V30 9019 C 848.007 1.60165 3.23078 0
M  V30 9020 O 847.111 0.832404 4.03912 0
M  V30 9021 H 846.452 0.362354 0.556413 0
M  V30 9022 H 848.982 1.58633 1.29216 0
M  V30 9023 H 848.992 1.6347 3.7382 0
M  V30 9024 H 847.667 2.65454 3.20167 0
M  V30 9025 H 846.244 0.872768 3.62543 0
M  V30 9026 N 848.429 -1.21819 0.999893 0
M  V30 9027 C 849.654 -1.95298 0.698094 0
M  V30 9028 C 850.079 -1.73273 -0.731982 0
M  V30 9029 O 849.437 -1.01634 -1.50134 0
M  V30 9030 C 849.485 -3.45922 1.01834 0
M  V30 9031 O 848.589 -4.12223 0.120801 0
M  V30 9032 H 847.93 -0.610729 0.260588 0
M  V30 9033 H 850.46 -1.5472 1.33876 0
M  V30 9034 H 850.47 -3.96471 0.963074 0
M  V30 9035 H 849.145 -3.61278 2.06037 0
M  V30 9036 H 847.722 -3.72177 0.232153 0
M  V30 9037 N 849.908 -0.773975 -1.37286 0
M  V30 9038 C 850.838 -0.175782 -2.32837 0
M  V30 9039 C 851.819 0.680603 -1.5589 0
M  V30 9040 O 853.004 0.617607 -1.84117 0
M  V30 9041 C 850.134 0.702388 -3.40123 0
M  V30 9042 C 849.088 -0.0528687 -4.27967 0
M  V30 9043 C 848.414 0.944891 -5.26285 0
M  V30 9044 C 849.714 -1.23316 -5.07534 0
M  V30 9045 H 851.408 -0.974016 -2.83114 0
M  V30 9046 H 848.954 -0.469826 -1.3612 0
M  V30 9047 H 850.907 1.13069 -4.05947 0
M  V30 9048 H 849.631 1.53316 -2.88378 0
M  V30 9049 H 848.29 -0.461978 -3.63678 0
M  V30 9050 H 847.938 1.77028 -4.70819 0
M  V30 9051 H 847.638 0.444079 -5.8592 0
M  V30 9052 H 849.162 1.37209 -5.94984 0
M  V30 9053 H 850.576 -0.881395 -5.66484 0
M  V30 9054 H 848.973 -1.66621 -5.76504 0
M  V30 9055 H 850.043 -2.03617 -4.40077 0
M  V30 9056 N 851.386 1.48609 -0.524698 0
M  V30 9057 C 852.334 2.31205 0.254398 0
M  V30 9058 C 853.328 1.40894 0.940491 0
M  V30 9059 O 854.534 1.57827 0.865478 0
M  V30 9060 H 850.909 0.745199 0.100907 0
M  V30 9061 H 852.88 2.94804 -0.461876 0
M  V30 9062 C 851.629 3.2282 1.2916 0
M  V30 9063 H 850.952 3.92255 0.773074 0
M  V30 9064 H 852.392 3.83508 1.80825 0
M  V30 9065 C 850.851 2.4406 2.32242 0
M  V30 9066 O 851.381 2.16163 3.3858 0
M  V30 9067 N 849.587 2.05651 2.05319 0
M  V30 9068 H 849.134 2.28539 1.18861 0
M  V30 9069 H 849.092 1.53265 2.74513 0
M  V30 9070 N 852.864 0.259585 1.55447 0
M  V30 9071 C 853.827 -0.621359 2.20617 0
M  V30 9072 C 854.827 -1.09317 1.17925 0
M  V30 9073 O 856.017 -0.995842 1.42929 0
M  V30 9074 C 853.149 -1.85546 2.85982 0
M  V30 9075 H 854.342 -0.0525833 2.99854 0
M  V30 9076 H 851.895 0.0101055 1.56297 0
M  V30 9077 H 852.63 -2.46515 2.10715 0
M  V30 9078 H 852.415 -1.52523 3.61219 0
M  V30 9079 H 853.905 -2.48227 3.35817 0
M  V30 9080 N 854.342 -1.57594 -0.0133615 0
M  V30 9081 C 855.289 -2.07574 -1.00905 0
M  V30 9082 C 856.259 -0.968231 -1.34961 0
M  V30 9083 O 857.444 -1.23981 -1.45028 0
M  V30 9084 C 854.584 -2.5728 -2.30002 0
M  V30 9085 C 853.697 -3.81881 -2.01967 0
M  V30 9086 C 852.832 -4.20139 -3.25049 0
M  V30 9087 C 851.871 -5.37614 -2.92639 0
M  V30 9088 N 851.008 -5.71229 -4.08218 0
M  V30 9089 H 855.848 -2.92382 -0.575899 0
M  V30 9090 H 853.385 -1.4455 -0.272722 0
M  V30 9091 H 855.343 -2.84171 -3.05454 0
M  V30 9092 H 853.973 -1.75365 -2.71011 0
M  V30 9093 H 853.025 -3.61979 -1.16942 0
M  V30 9094 H 854.337 -4.67441 -1.74069 0
M  V30 9095 H 853.491 -4.48242 -4.08857 0
M  V30 9096 H 852.23 -3.33262 -3.56073 0
M  V30 9097 H 851.235 -5.09248 -2.07235 0
M  V30 9098 H 852.46 -6.26157 -2.62876 0
M  V30 9099 H 850.406 -4.8731 -4.39164 0
M  V30 9100 H 850.323 -6.51333 -3.83799 0
M  V30 9101 H 851.591 -6.03917 -4.92854 0
M  V30 9102 N 855.82 0.285905 -1.54985 0
M  V30 9103 C 856.753 1.37817 -1.81884 0
M  V30 9104 C 857.731 1.4811 -0.670988 0
M  V30 9105 O 858.915 1.64936 -0.912595 0
M  V30 9106 C 856.042 2.75587 -1.969 0
M  V30 9107 C 855.088 2.82643 -3.19398 0
M  V30 9108 S 855.921 2.43199 -4.7709 0
M  V30 9109 C 857.077 3.82969 -4.95061 0
M  V30 9110 H 857.31 1.14794 -2.74244 0
M  V30 9111 H 854.843 0.484843 -1.4659 0
M  V30 9112 H 856.801 3.54932 -2.06236 0
M  V30 9113 H 855.462 2.9587 -1.05451 0
M  V30 9114 H 854.655 3.8373 -3.26753 0
M  V30 9115 H 854.257 2.11306 -3.08586 0
M  V30 9116 H 856.549 4.78117 -4.80011 0
M  V30 9117 H 857.492 3.80575 -5.97133 0
M  V30 9118 H 857.9 3.73673 -4.23118 0
M  V30 9119 N 857.298 1.47698 0.54982 0
M  V30 9120 C 858.208 1.63386 1.68351 0
M  V30 9121 C 859.224 0.516583 1.66155 0
M  V30 9122 O 860.4 0.785088 1.85468 0
M  V30 9123 C 857.465 1.6513 3.04849 0
M  V30 9124 C 856.526 2.88338 3.18056 0
M  V30 9125 C 855.759 2.8999 4.48042 0
M  V30 9126 O 855.982 2.00633 5.3395 0
M  V30 9127 O 854.916 3.81938 4.65196 0
M  V30 9128 H 858.742 2.59329 1.58057 0
M  V30 9129 H 856.327 1.30869 0.72067 0
M  V30 9130 H 858.209 1.68913 3.86065 0
M  V30 9131 H 856.884 0.723555 3.1551 0
M  V30 9132 H 855.791 2.90097 2.36209 0
M  V30 9133 H 857.124 3.80431 3.12302 0
M  V30 9134 N 858.776 -0.797141 1.35954 0
M  V30 9135 C 859.686 -1.94088 1.31784 0
M  V30 9136 C 860.702 -1.72588 0.221227 0
M  V30 9137 O 861.878 -1.96256 0.452255 0
M  V30 9138 C 858.943 -3.28828 1.09878 0
M  V30 9139 C 858.004 -3.63158 2.28942 0
M  V30 9140 C 857.237 -4.91469 2.08072 0
M  V30 9141 O 857.46 -5.60616 1.05196 0
M  V30 9142 O 856.394 -5.24277 2.95664 0
M  V30 9143 H 860.22 -2.00554 2.28061 0
M  V30 9144 H 857.805 -0.936288 1.16422 0
M  V30 9145 H 859.687 -4.09473 0.995485 0
M  V30 9146 H 858.362 -3.23271 0.16659 0
M  V30 9147 H 857.269 -2.82851 2.44839 0
M  V30 9148 H 858.602 -3.7343 3.20641 0
M  V30 9149 N 860.254 -1.20106 -1.0204 0
M  V30 9150 C 861.494 -1.02013 -1.77123 0
M  V30 9151 C 861.858 0.440439 -1.8688 0
M  V30 9152 O 863.059 0.74144 -2.58372 0
M  V30 9153 C 861.33 -1.68058 -3.15423 0
M  V30 9154 S 862.889 -1.65016 -4.0659 0
M  V30 9155 H 859.707 -0.365882 -0.609632 0
M  V30 9156 H 862.309 -1.52597 -1.22206 0
M  V30 9157 H 861.013 -2.73544 -3.05944 0
M  V30 9158 H 860.544 -1.17589 -3.75415 0
M  V30 9159 H 862.559 -0.680341 -4.91514 0
M  V30 9160 N 861.732 1.21287 -1.00634 0
M  V30 9161 C 862.978 1.90671 -0.690822 0
M  V30 9162 C 863.311 1.77996 0.776592 0
M  V30 9163 O 862.586 1.15748 1.5631 0
M  V30 9164 C 862.869 3.42426 -1.11428 0
M  V30 9165 C 862.722 3.64086 -2.64124 0
M  V30 9166 C 864.041 4.34851 -0.677686 0
M  V30 9167 H 861.16 0.692419 -0.252439 0
M  V30 9168 H 863.802 1.42893 -1.25226 0
M  V30 9169 H 861.952 3.83249 -0.636586 0
M  V30 9170 H 863.624 3.32582 -3.19667 0
M  V30 9171 H 861.867 3.07906 -3.05576 0
M  V30 9172 H 862.538 4.7042 -2.88806 0
M  V30 9173 H 865.014 4.01619 -1.0882 0
M  V30 9174 H 863.89 5.39675 -1.00213 0
M  V30 9175 H 864.151 4.4009 0.421125 0
M  V30 9176 N 863.21 0.781244 1.36873 0
M  V30 9177 C 864.157 0.172146 2.30157 0
M  V30 9178 C 865.127 -0.679328 1.51573 0
M  V30 9179 O 866.312 -0.629713 1.80109 0
M  V30 9180 C 863.452 -0.693534 3.38059 0
M  V30 9181 C 862.565 0.175586 4.31643 0
M  V30 9182 C 861.7 -0.695695 5.26625 0
M  V30 9183 C 860.739 0.17538 6.11849 0
M  V30 9184 N 859.876 -0.654416 6.99043 0
M  V30 9185 H 864.716 0.973133 2.81663 0
M  V30 9186 H 862.253 0.491469 1.38647 0
M  V30 9187 H 864.211 -1.21035 3.99257 0
M  V30 9188 H 862.841 -1.46003 2.87894 0
M  V30 9189 H 861.893 0.810295 3.7167 0
M  V30 9190 H 863.205 0.847107 4.91554 0
M  V30 9191 H 862.359 -1.27863 5.93073 0
M  V30 9192 H 861.098 -1.40087 4.67148 0
M  V30 9193 H 860.103 0.77078 5.4437 0
M  V30 9194 H 861.328 0.87803 6.734 0
M  V30 9195 H 859.274 -1.34403 6.42084 0
M  V30 9196 H 859.191 -0.0403998 7.55989 0
M  V30 9197 H 860.459 -1.22144 7.69871 0
M  V30 9198 N 864.689 -1.48329 0.532571 0
M  V30 9199 C 865.619 -2.32485 -0.217511 0
M  V30 9200 C 866.6 -1.42255 -0.932598 0
M  V30 9201 O 867.785 -1.7114 -0.917873 0
M  V30 9202 C 864.915 -3.23509 -1.26329 0
M  V30 9203 C 863.869 -4.22784 -0.666191 0
M  V30 9204 C 863.195 -5.0296 -1.81482 0
M  V30 9205 C 864.495 -5.21031 0.363813 0
M  V30 9206 H 866.189 -2.95445 0.485014 0
M  V30 9207 H 863.735 -1.42075 0.234694 0
M  V30 9208 H 865.688 -3.81211 -1.79601 0
M  V30 9209 H 864.412 -2.58554 -1.99543 0
M  V30 9210 H 863.071 -3.66272 -0.15498 0
M  V30 9211 H 862.719 -4.34427 -2.5354 0
M  V30 9212 H 862.419 -5.70154 -1.4212 0
M  V30 9213 H 863.943 -5.63514 -2.35126 0
M  V30 9214 H 865.357 -5.73241 -0.0819079 0
M  V30 9215 H 863.754 -5.96292 0.674956 0
M  V30 9216 H 864.824 -4.6801 1.26865 0
M  V30 9217 N 866.167 -0.267825 -1.55308 0
M  V30 9218 C 867.115 0.638848 -2.23655 0
M  V30 9219 C 868.109 1.16363 -1.2311 0
M  V30 9220 O 869.315 1.1181 -1.41062 0
M  V30 9221 H 865.69 0.224551 -0.717691 0
M  V30 9222 H 867.661 0.0394809 -2.98374 0
M  V30 9223 C 866.41 1.8151 -2.96562 0
M  V30 9224 H 865.733 1.42048 -3.73715 0
M  V30 9225 H 867.173 2.42629 -3.47717 0
M  V30 9226 C 865.632 2.69911 -2.01618 0
M  V30 9227 O 866.162 3.70058 -1.56268 0
M  V30 9228 N 864.368 2.36924 -1.68272 0
M  V30 9229 H 863.915 1.55533 -2.05347 0
M  V30 9230 H 863.873 2.96343 -1.05016 0
M  V30 9231 N 867.645 1.57599 0.00500368 0
M  V30 9232 C 868.885 1.92205 0.695456 0
M  V30 9233 C 869.249 0.868894 1.71214 0
M  V30 9234 O 870.45 1.10004 2.4526 0
M  V30 9235 C 868.721 3.31882 1.32625 0
M  V30 9236 S 870.28 3.88364 2.04252 0
M  V30 9237 H 867.098 0.672826 0.22984 0
M  V30 9238 H 869.7 1.95435 -0.0504824 0
M  V30 9239 H 868.404 4.06375 0.573396 0
M  V30 9240 H 867.935 3.32013 2.11023 0
M  V30 9241 H 869.95 3.69035 3.31704 0
M  V30 9242 N 869.123 -0.277682 1.55134 0
M  V30 9243 C 870.033 -1.36524 1.90783 0
M  V30 9244 C 871.049 -1.54283 0.804542 0
M  V30 9245 O 872.225 -1.68499 1.10318 0
M  V30 9246 C 869.29 -2.70524 2.16835 0
M  V30 9247 C 868.351 -2.61552 3.40424 0
M  V30 9248 C 867.584 -3.89162 3.65224 0
M  V30 9249 O 867.807 -4.89624 2.92616 0
M  V30 9250 O 866.741 -3.89647 4.58758 0
M  V30 9251 H 870.567 -1.0929 2.83354 0
M  V30 9252 H 868.152 -0.475799 1.41621 0
M  V30 9253 H 870.034 -3.49765 2.35038 0
M  V30 9254 H 868.709 -2.97555 1.27448 0
M  V30 9255 H 867.616 -1.80704 3.27562 0
M  V30 9256 H 868.949 -2.39472 4.30016 0
M  V30 9257 N 870.601 -1.47988 -0.541979 0
M  V30 9258 C 871.533 -1.5769 -1.66332 0
M  V30 9259 C 872.546 -0.461994 -1.56107 0
M  V30 9260 O 873.735 -0.732306 -1.62787 0
M  V30 9261 C 870.835 -1.47939 -3.04905 0
M  V30 9262 C 870.008 -2.74263 -3.40733 0
M  V30 9263 C 869.067 -2.58133 -4.58534 0
M  V30 9264 O 868.093 -3.31991 -4.62354 0
M  V30 9265 N 869.295 -1.6696 -5.55972 0
M  V30 9266 H 872.06 -2.54389 -1.5845 0
M  V30 9267 H 869.621 -1.4456 -0.728979 0
M  V30 9268 H 871.613 -1.34861 -3.81569 0
M  V30 9269 H 870.183 -0.592626 -3.06931 0
M  V30 9270 H 869.403 -3.01992 -2.53366 0
M  V30 9271 H 870.691 -3.58094 -3.6145 0
M  V30 9272 H 870.089 -1.06134 -5.55655 0
M  V30 9273 H 868.646 -1.59826 -6.31901 0
M  V30 9274 N 872.079 0.78992 -1.36375 0
M  V30 9275 C 873.49 1.36506 -1.2737 0
M  V30 9276 C 873.841 1.96008 0.086711 0
M  V30 9277 O 872.966 1.92521 0.988159 0
M  V30 9278 C 873.561 2.48175 -2.30639 0
M  V30 9279 C 872.12 3.01506 -2.25325 0
M  V30 9280 C 871.267 1.74581 -2.15445 0
M  V30 9281 H 874.218 0.591606 -1.47261 0
M  V30 9282 H 874.239 3.27179 -1.94253 0
M  V30 9283 H 873.751 2.04838 -3.2964 0
M  V30 9284 H 871.852 3.49265 -1.29788 0
M  V30 9285 H 871.965 3.58355 -3.17992 0
M  V30 9286 H 870.329 1.96794 -1.61692 0
M  V30 9287 H 871.112 1.33373 -3.16333 0
M  V30 9288 N 873.557 1.20646 1.01402 0
M  V30 9289 C 874.787 1.04238 1.78376 0
M  V30 9290 C 875.195 -0.411327 1.84675 0
M  V30 9291 O 874.538 -1.29734 1.30057 0
M  V30 9292 C 874.6 1.55349 3.24202 0
M  V30 9293 C 874.264 3.03684 3.41504 0
M  V30 9294 C 875.261 4.01318 3.30514 0
M  V30 9295 C 872.946 3.42698 3.67237 0
M  V30 9296 C 874.94 5.35956 3.45007 0
M  V30 9297 C 872.627 4.77491 3.81373 0
M  V30 9298 C 873.625 5.73929 3.70263 0
M  V30 9299 O 873.313 7.06277 3.83963 0
M  V30 9300 H 873.045 0.366978 0.567718 0
M  V30 9301 H 875.599 1.60235 1.28506 0
M  V30 9302 H 873.829 0.93739 3.75166 0
M  V30 9303 H 875.518 1.34921 3.8282 0
M  V30 9304 H 876.284 3.72522 3.10568 0
M  V30 9305 H 872.163 2.68175 3.74971 0
M  V30 9306 H 875.707 6.11212 3.36252 0
M  V30 9307 H 871.604 5.05977 4.00821 0
M  V30 9308 H 872.372 7.13561 4.00965 0
M  V30 9309 N 875.035 -1.20752 1.01276 0
M  V30 9310 C 876.281 -1.90302 0.700924 0
M  V30 9311 C 876.614 -1.78406 -0.767142 0
M  V30 9312 O 875.889 -1.16575 -1.55694 0
M  V30 9313 C 876.172 -3.41831 1.13242 0
M  V30 9314 C 876.025 -3.6268 2.66051 0
M  V30 9315 C 877.344 -4.34486 0.700738 0
M  V30 9316 H 874.463 -0.69107 0.256107 0
M  V30 9317 H 877.105 -1.42227 1.25982 0
M  V30 9318 H 875.255 -3.82906 0.656902 0
M  V30 9319 H 876.927 -3.30882 3.21426 0
M  V30 9320 H 875.17 -3.06281 3.07204 0
M  V30 9321 H 875.841 -4.68882 2.91296 0
M  V30 9322 H 878.317 -4.01036 1.10948 0
M  V30 9323 H 877.193 -5.39136 1.03073 0
M  V30 9324 H 877.454 -4.40307 -0.39778 0
M  V30 9325 N 876.513 -0.788492 -1.36457 0
M  V30 9326 C 877.741 -0.372365 -2.03522 0
M  V30 9327 C 878.156 1.01093 -1.59454 0
M  V30 9328 O 877.513 1.64824 -0.783535 0
M  V30 9329 C 877.564 -0.425435 -3.58988 0
M  V30 9330 O 877.285 -1.75418 -4.01448 0
M  V30 9331 C 878.786 0.000180167 -4.433 0
M  V30 9332 H 876.006 -0.1536 -0.653183 0
M  V30 9333 H 878.55 -1.06708 -1.74452 0
M  V30 9334 H 876.705 0.220856 -3.8677 0
M  V30 9335 H 877.119 -1.70437 -4.96036 0
M  V30 9336 H 878.593 -0.0880919 -5.5193 0
M  V30 9337 H 879.07 1.05269 -4.26398 0
M  V30 9338 H 879.676 -0.618563 -4.20778 0
M  V30 9339 N 877.991 1.48044 -0.54043 0
M  V30 9340 C 879.219 2.06895 -0.0145153 0
M  V30 9341 C 879.634 1.39552 1.27164 0
M  V30 9342 O 878.991 0.486454 1.75897 0
M  V30 9343 C 879.042 3.60934 0.202278 0
M  V30 9344 O 878.763 4.25749 -1.03293 0
M  V30 9345 C 880.264 4.36607 0.767387 0
M  V30 9346 H 877.484 0.66991 -0.0382368 0
M  V30 9347 H 880.028 1.90288 -0.749057 0
M  V30 9348 H 878.183 3.77111 0.886897 0
M  V30 9349 H 878.597 5.18048 -0.820167 0
M  V30 9350 H 880.071 5.45126 0.86845 0
M  V30 9351 H 880.548 4.01745 1.77477 0
M  V30 9352 H 881.154 4.25133 0.119002 0
M  V30 9353 N 879.47 0.276058 1.55163 0
M  V30 9354 C 880.433 -0.597924 2.21263 0
M  V30 9355 C 881.433 -1.0806 1.19078 0
M  V30 9356 O 882.623 -0.980626 1.43977 0
M  V30 9357 C 879.755 -1.82503 2.87933 0
M  V30 9358 H 880.948 -0.0207769 2.99893 0
M  V30 9359 H 878.501 0.0266823 1.56277 0
M  V30 9360 H 879.236 -2.44266 2.13318 0
M  V30 9361 H 879.021 -1.48683 3.62816 0
M  V30 9362 H 880.511 -2.44651 3.38431 0
M  V30 9363 N 880.948 -1.576 0.00335426 0
M  V30 9364 C 882.197 -1.89892 -0.680001 0
M  V30 9365 C 882.51 -0.878731 -1.7475 0
M  V30 9366 O 883.716 -1.09199 -2.48572 0
M  V30 9367 C 882.172 -3.37098 -1.26066 0
M  V30 9368 C 881.78 -4.4742 -0.227807 0
M  V30 9369 C 883.524 -3.78495 -1.92202 0
M  V30 9370 C 881.431 -5.85706 -0.81865 0
M  V30 9371 H 880.361 -0.708578 -0.257746 0
M  V30 9372 H 883.012 -1.83387 0.0644472 0
M  V30 9373 H 881.394 -3.38451 -2.05589 0
M  V30 9374 H 882.568 -4.57589 0.54307 0
M  V30 9375 H 880.883 -4.15064 0.333297 0
M  V30 9376 H 883.48 -4.7915 -2.37318 0
M  V30 9377 H 883.823 -3.12187 -2.75399 0
M  V30 9378 H 884.356 -3.79456 -1.19408 0
M  V30 9379 H 881.095 -6.55495 -0.0253787 0
M  V30 9380 H 880.615 -5.79196 -1.55861 0
M  V30 9381 H 882.294 -6.33469 -1.31627 0
M  V30 9382 N 882.426 0.269451 -1.5528 0
M  V30 9383 C 883.675 0.998381 -1.75258 0
M  V30 9384 C 883.988 1.87321 -0.563034 0
M  V30 9385 O 885.194 2.63719 -0.645313 0
M  V30 9386 C 883.65 1.82505 -3.10193 0
M  V30 9387 C 883.258 0.99871 -4.36726 0
M  V30 9388 C 885.002 2.54807 -3.3952 0
M  V30 9389 C 882.909 1.81997 -5.627 0
M  V30 9390 H 881.839 0.376488 -0.653278 0
M  V30 9391 H 884.49 0.253909 -1.81735 0
M  V30 9392 H 882.872 2.61061 -2.97763 0
M  V30 9393 H 884.046 0.257064 -4.60082 0
M  V30 9394 H 882.361 0.390074 -4.14569 0
M  V30 9395 H 884.958 3.16662 -4.30847 0
M  V30 9396 H 885.301 3.25273 -2.59813 0
M  V30 9397 H 885.834 1.83278 -3.53064 0
M  V30 9398 H 882.573 1.15945 -6.45164 0
M  V30 9399 H 882.093 2.53749 -5.43481 0
M  V30 9400 H 883.772 2.39274 -6.0113 0
M  V30 9401 N 883.904 1.48273 0.534124 0
M  V30 9402 C 885.129 1.59988 1.31979 0
M  V30 9403 C 885.554 0.258824 1.86311 0
M  V30 9404 O 884.912 -0.768885 1.64188 0
M  V30 9405 C 884.96 2.64642 2.44943 0
M  V30 9406 O 884.064 2.21515 3.47858 0
M  V30 9407 H 883.405 0.536625 0.391063 0
M  V30 9408 H 885.935 1.94229 0.643135 0
M  V30 9409 H 885.945 2.85786 2.91187 0
M  V30 9410 H 884.62 3.62004 2.04758 0
M  V30 9411 H 883.197 2.10567 3.0776 0
M  V30 9412 N 885.382 -0.782676 1.36792 0
M  V30 9413 C 886.631 -1.53605 1.30723 0
M  V30 9414 C 886.944 -1.95294 -0.109296 0
M  V30 9415 O 888.15 -2.69921 -0.292398 0
M  V30 9416 C 886.606 -2.77321 2.29393 0
M  V30 9417 C 886.214 -2.42774 3.76517 0
M  V30 9418 C 887.958 -3.55289 2.32314 0
M  V30 9419 C 885.865 -3.62926 4.66947 0
M  V30 9420 H 884.795 -0.576646 0.485794 0
M  V30 9421 H 887.446 -0.858255 1.62192 0
M  V30 9422 H 885.828 -3.46934 1.90927 0
M  V30 9423 H 887.002 -1.81014 4.23758 0
M  V30 9424 H 885.317 -1.78002 3.76436 0
M  V30 9425 H 887.914 -4.44573 2.97083 0
M  V30 9426 H 888.257 -3.94361 1.3336 0
M  V30 9427 H 888.79 -2.92662 2.69432 0
M  V30 9428 H 885.529 -3.28944 5.66989 0
M  V30 9429 H 885.049 -4.23828 4.24418 0
M  V30 9430 H 886.728 -4.29873 4.83548 0
M  V30 9431 N 886.86 -1.21182 -1.00761 0
M  V30 9432 C 888.271 -1.02652 -1.55947 0
M  V30 9433 C 888.622 0.414466 -1.91772 0
M  V30 9434 O 887.747 1.29727 -1.73204 0
M  V30 9435 C 888.342 -1.85713 -2.83366 0
M  V30 9436 C 886.901 -1.71523 -3.35048 0
M  V30 9437 C 886.048 -1.83087 -2.08265 0
M  V30 9438 H 888.999 -1.35242 -0.830379 0
M  V30 9439 H 889.02 -1.36583 -3.55141 0
M  V30 9440 H 888.532 -2.90584 -2.5726 0
M  V30 9441 H 886.633 -0.693257 -3.66094 0
M  V30 9442 H 886.746 -2.53333 -4.06644 0
M  V30 9443 H 885.11 -1.26367 -2.21141 0
M  V30 9444 H 885.893 -2.8946 -1.84575 0
M  V30 9445 N 888.338 1.20213 -1.01915 0
M  V30 9446 C 889.566 1.93622 -0.729255 0
M  V30 9447 C 889.981 1.74923 0.710444 0
M  V30 9448 O 889.338 1.06484 1.48214 0
M  V30 9449 C 889.389 3.45651 -1.05865 0
M  V30 9450 O 889.11 3.63741 -2.44181 0
M  V30 9451 C 890.611 4.36201 -0.790176 0
M  V30 9452 H 887.831 0.615333 -0.267594 0
M  V30 9453 H 890.375 1.52633 -1.36101 0
M  V30 9454 H 888.53 3.84511 -0.47225 0
M  V30 9455 H 888.944 4.57702 -2.56143 0
M  V30 9456 H 890.418 5.41516 -1.07071 0
M  V30 9457 H 890.895 4.38334 0.275609 0
M  V30 9458 H 891.501 4.03008 -1.35885 0
M  V30 9459 N 889.816 0.795718 1.36037 0
M  V30 9460 C 891.227 0.433379 1.816 0
M  V30 9461 C 891.578 -1.04341 1.66155 0
M  V30 9462 O 890.703 -1.81004 1.18603 0
M  V30 9463 C 891.298 0.77985 3.29703 0
M  V30 9464 C 889.857 0.470256 3.73451 0
M  V30 9465 C 889.004 1.01119 2.58206 0
M  V30 9466 H 891.955 0.988317 1.24169 0
M  V30 9467 H 891.976 0.0732898 3.80429 0
M  V30 9468 H 891.488 1.85473 3.40913 0
M  V30 9469 H 889.589 -0.596332 3.67797 0
M  V30 9470 H 889.702 0.995276 4.68648 0
M  V30 9471 H 888.066 0.434077 2.50974 0
M  V30 9472 H 888.849 2.09196 2.72198 0
M  V30 9473 N 891.294 -1.47756 0.548274 0
M  V30 9474 C 892.705 -1.8636 0.112547 0
M  V30 9475 C 893.056 -1.45589 -1.31523 0
M  V30 9476 O 892.181 -0.854874 -1.98799 0
M  V30 9477 C 892.776 -3.38224 0.197473 0
M  V30 9478 C 891.335 -3.75954 -0.183163 0
M  V30 9479 C 890.482 -2.7181 0.549059 0
M  V30 9480 H 893.433 -1.394 0.758506 0
M  V30 9481 H 893.454 -3.75957 -0.586217 0
M  V30 9482 H 892.966 -3.67868 1.23673 0
M  V30 9483 H 891.067 -3.51926 -1.22387 0
M  V30 9484 H 891.18 -4.78801 0.169178 0
M  V30 9485 H 889.544 -2.54699 -0.00682862 0
M  V30 9486 H 890.327 -3.04296 1.5893 0
M  V30 9487 N 892.772 -0.284283 -1.55015 0
M  V30 9488 C 894.018 0.330352 -2.00091 0
M  V30 9489 C 894.351 1.54814 -1.17244 0
M  V30 9490 O 893.626 1.92954 -0.244753 0
M  V30 9491 C 893.909 0.703492 -3.53161 0
M  V30 9492 C 893.762 -0.522275 -4.46758 0
M  V30 9493 C 895.081 1.53645 -4.12409 0
M  V30 9494 H 892.2 0.118599 -0.727395 0
M  V30 9495 H 894.842 -0.393054 -1.8589 0
M  V30 9496 H 892.992 1.31983 -3.65394 0
M  V30 9497 H 894.664 -1.16082 -4.46456 0
M  V30 9498 H 892.907 -1.15865 -4.1804 0
M  V30 9499 H 893.578 -0.217295 -5.51572 0
M  V30 9500 H 896.054 1.01583 -4.0351 0
M  V30 9501 H 894.93 1.76633 -5.19704 0
M  V30 9502 H 895.191 2.5204 -3.63219 0
M  V30 9503 N 894.251 1.57596 -0.0117121 0
M  V30 9504 C 895.479 1.9536 0.681334 0
M  V30 9505 C 895.894 0.887255 1.66653 0
M  V30 9506 O 895.251 -0.132692 1.82017 0
M  V30 9507 C 895.302 3.33165 1.40298 0
M  V30 9508 O 895.023 4.35707 0.45728 0
M  V30 9509 C 896.524 3.85458 2.18946 0
M  V30 9510 H 893.744 0.643826 0.189023 0
M  V30 9511 H 896.288 2.04392 -0.066311 0
M  V30 9512 H 894.443 3.25404 2.10216 0
M  V30 9513 H 894.857 5.15495 0.96773 0
M  V30 9514 H 896.331 4.84275 2.64918 0
M  V30 9515 H 896.808 3.18781 3.02118 0
M  V30 9516 H 897.414 3.96431 1.5402 0
M  V30 9517 N 895.729 -0.261212 1.5542 0
M  V30 9518 C 896.957 -1.00916 1.8062 0
M  V30 9519 C 897.372 -1.79494 0.585444 0
M  V30 9520 O 896.729 -1.76974 -0.445702 0
M  V30 9521 C 896.78 -1.95841 3.03856 0
M  V30 9522 O 896.501 -1.20445 4.21218 0
M  V30 9523 C 898.002 -2.82352 3.41749 0
M  V30 9524 H 895.222 -0.297596 0.601397 0
M  V30 9525 H 897.766 -0.288427 2.02456 0
M  V30 9526 H 895.921 -2.63361 2.84112 0
M  V30 9527 H 896.335 -1.84528 4.90968 0
M  V30 9528 H 897.809 -3.44733 4.31118 0
M  V30 9529 H 898.286 -3.5273 2.61683 0
M  V30 9530 H 898.892 -2.20306 3.63793 0
M  V30 9531 N 897.207 -1.48554 -0.526253 0
M  V30 9532 C 898.618 -1.50256 -1.10815 0
M  V30 9533 C 898.969 -0.274445 -1.94271 0
M  V30 9534 O 898.094 0.618094 -2.07385 0
M  V30 9535 C 898.689 -2.72264 -2.01638 0
M  V30 9536 C 897.248 -2.76826 -2.55038 0
M  V30 9537 C 896.395 -2.43823 -1.32081 0
M  V30 9538 H 899.346 -1.55616 -0.31133 0
M  V30 9539 H 899.367 -2.50993 -2.85977 0
M  V30 9540 H 898.879 -3.61632 -1.4087 0
M  V30 9541 H 896.98 -1.91676 -3.19517 0
M  V30 9542 H 897.093 -3.78351 -2.93917 0
M  V30 9543 H 895.457 -1.95058 -1.63781 0
M  V30 9544 H 896.24 -3.35436 -0.730596 0
M  V30 9545 N 898.685 0.775411 -1.37205 0
M  V30 9546 C 899.595 1.91967 -1.34855 0
M  V30 9547 C 900.611 1.72214 -0.248656 0
M  V30 9548 O 901.787 1.95512 -0.483421 0
M  V30 9549 C 898.852 3.27038 -1.15096 0
M  V30 9550 C 897.913 3.5947 -2.34691 0
M  V30 9551 C 897.146 4.88097 -2.15865 0
M  V30 9552 O 897.369 5.58871 -1.14102 0
M  V30 9553 O 896.303 5.19507 -3.03967 0
M  V30 9554 H 900.129 1.969 -2.31223 0
M  V30 9555 H 897.714 0.917647 -1.17897 0
M  V30 9556 H 899.596 4.07837 -1.0605 0
M  V30 9557 H 898.271 3.22965 -0.217999 0
M  V30 9558 H 897.178 2.7892 -2.49308 0
M  V30 9559 H 898.511 3.68282 -3.26541 0
M  V30 9560 N 900.163 1.21714 1.00117 0
M  V30 9561 C 901.411 1.03465 1.73607 0
M  V30 9562 C 901.732 -0.432295 1.90148 0
M  V30 9563 O 901.002 -1.31157 1.45515 0
M  V30 9564 H 899.582 0.379857 0.643209 0
M  V30 9565 H 902.244 1.53088 1.20624 0
M  V30 9566 H 901.34 1.50574 2.73375 0
M  V30 9567 N 901.641 -1.19671 1.02551 0
M  V30 9568 C 902.918 -1.85014 0.634771 0
M  V30 9569 C 903.298 -1.91574 -0.886706 0
M  V30 9570 O 902.646 -1.43022 -1.78205 0
M  V30 9571 C 902.856 -3.24167 1.29292 0
M  V30 9572 C 904.204 -4.00363 1.41402 0
M  V30 9573 O 905.228 -3.33553 1.24983 0
M  V30 9574 O 904.087 -5.2003 1.6802 0
M  V30 9575 H 901.181 -0.797147 0.220196 0
M  V30 9576 H 903.727 -1.27188 1.12345 0
M  V30 9577 H 902.499 -3.14208 2.33215 0
M  V30 9578 H 902.122 -3.89634 0.791895 0
M  V30 9579 N 903.119 -0.802921 -1.35613 0
M  V30 9580 C 904.396 -0.304993 -1.93208 0
M  V30 9581 C 904.776 1.20488 -1.73337 0
M  V30 9582 O 904.124 2.00268 -1.10022 0
M  V30 9583 C 904.334 -0.712383 -3.41652 0
M  V30 9584 C 905.682 -0.699785 -4.18794 0
M  V30 9585 O 906.706 -0.653698 -3.5015 0
M  V30 9586 O 905.565 -0.754842 -5.41262 0
M  V30 9587 H 902.659 -0.0789127 -0.823226 0
M  V30 9588 H 905.205 -0.886372 -1.44712 0
M  V30 9589 H 903.977 -1.75316 -3.49829 0
M  V30 9590 H 903.6 -0.105614 -3.9746 0
M  V30 9591 N 904.597 1.47463 -0.556102 0
M  V30 9592 C 906.013 1.58134 -0.21579 0
M  V30 9593 C 906.213 1.55486 1.28166 0
M  V30 9594 O 905.269 1.45768 2.06174 0
M  V30 9595 C 906.582 2.88686 -0.841464 0
M  V30 9596 C 908.13 3.02268 -0.812591 0
M  V30 9597 C 908.605 4.35518 -1.41731 0
M  V30 9598 N 910.096 4.42151 -1.38045 0
M  V30 9599 C 910.831 5.43817 -1.81799 0
M  V30 9600 N 910.327 6.52299 -2.33404 0
M  V30 9601 N 912.12 5.34855 -1.72877 0
M  V30 9602 H 904.271 1.47428 -1.52901 0
M  V30 9603 H 906.534 0.701586 -0.637559 0
M  V30 9604 H 906.24 2.96358 -1.8938 0
M  V30 9605 H 906.114 3.7572 -0.333846 0
M  V30 9606 H 908.501 2.94194 0.231056 0
M  V30 9607 H 908.582 2.16779 -1.35796 0
M  V30 9608 H 908.226 4.44348 -2.46002 0
M  V30 9609 H 908.156 5.19737 -0.847402 0
M  V30 9610 H 910.647 3.64348 -1.00296 0
M  V30 9611 H 910.96 7.26047 -2.64717 0
M  V30 9612 H 909.305 6.53192 -2.37414 0
M  V30 9613 H 912.496 4.49004 -1.32338 0
M  V30 9614 H 912.669 6.13949 -2.07294 0
M  V30 9615 N 906.075 0.2925 1.54862 0
M  V30 9616 C 907.486 -0.201841 1.85606 0
M  V30 9617 C 907.837 -1.54093 1.21449 0
M  V30 9618 O 906.962 -2.10327 0.509079 0
M  V30 9619 C 907.557 -0.373011 3.3674 0
M  V30 9620 C 906.116 -0.811574 3.67547 0
M  V30 9621 C 905.263 0.0850583 2.7717 0
M  V30 9622 H 908.214 0.513774 1.50153 0
M  V30 9623 H 908.235 -1.20892 3.60785 0
M  V30 9624 H 907.747 0.601751 3.83407 0
M  V30 9625 H 905.848 -1.79719 3.26392 0
M  V30 9626 H 905.961 -0.636853 4.74848 0
M  V30 9627 H 904.325 -0.434224 2.50971 0
M  V30 9628 H 905.108 1.05602 3.26654 0
M  V30 9629 N 907.553 -1.57587 0.0200696 0
M  V30 9630 C 908.463 -2.13119 -0.980676 0
M  V30 9631 C 909.479 -1.08124 -1.36328 0
M  V30 9632 O 910.655 -1.40134 -1.44653 0
M  V30 9633 C 907.72 -2.63991 -2.24743 0
M  V30 9634 C 906.781 -3.83667 -1.9261 0
M  V30 9635 C 906.014 -4.32103 -3.13246 0
M  V30 9636 O 906.237 -3.79758 -4.25606 0
M  V30 9637 O 905.171 -5.24047 -2.96072 0
M  V30 9638 H 908.997 -2.98887 -0.538528 0
M  V30 9639 H 906.582 -1.48055 -0.19999 0
M  V30 9640 H 908.464 -2.9682 -2.99125 0
M  V30 9641 H 907.139 -1.81311 -2.68157 0
M  V30 9642 H 906.046 -3.55778 -1.15641 0
M  V30 9643 H 907.379 -4.67482 -1.54019 0
M  V30 9644 N 909.032 0.252966 -1.55557 0
M  V30 9645 C 910.257 1.0038 -1.8149 0
M  V30 9646 C 910.682 1.78397 -0.596318 0
M  V30 9647 O 910.04 1.7551 0.454535 0
M  V30 9648 C 910.088 1.9222 -3.05096 0
M  V30 9649 O 909.192 3.01302 -2.81587 0
M  V30 9650 H 908.533 0.285949 -0.599274 0
M  V30 9651 H 911.063 0.275795 -2.02733 0
M  V30 9652 H 911.073 2.338 -3.34368 0
M  V30 9653 H 909.748 1.34852 -3.93431 0
M  V30 9654 H 908.325 2.63894 -2.63466 0
M  V30 9655 N 910.51 1.48831 0.518367 0
M  V30 9656 C 911.921 1.50842 1.10016 0
M  V30 9657 C 912.272 0.284744 1.94123 0
M  V30 9658 O 911.397 -0.607088 2.0771 0
M  V30 9659 C 911.992 2.73329 2.00191 0
M  V30 9660 C 910.551 2.78175 2.53566 0
M  V30 9661 C 909.698 2.4452 1.30786 0
M  V30 9662 H 912.649 1.55779 0.303073 0
M  V30 9663 H 912.67 2.52506 2.84642 0
M  V30 9664 H 912.182 3.62374 1.3895 0
M  V30 9665 H 910.283 1.93368 3.18496 0
M  V30 9666 H 910.396 3.79905 2.91906 0
M  V30 9667 H 908.76 1.95924 1.62744 0
M  V30 9668 H 909.543 3.35819 0.712797 0
M  V30 9669 N 911.988 -0.768124 1.37614 0
M  V30 9670 C 912.898 -1.91249 1.35871 0
M  V30 9671 C 913.914 -1.7208 0.257786 0
M  V30 9672 O 915.09 -1.95253 0.493782 0
M  V30 9673 C 912.155 -3.26423 1.16829 0
M  V30 9674 C 911.216 -3.5822 2.36594 0
M  V30 9675 C 910.449 -4.86945 2.1845 0
M  V30 9676 O 910.672 -5.58258 1.17064 0
M  V30 9677 O 909.606 -5.17888 3.06718 0
M  V30 9678 H 913.432 -1.95671 2.32264 0
M  V30 9679 H 911.017 -0.911382 1.18382 0
M  V30 9680 H 912.899 -4.07269 1.08212 0
M  V30 9681 H 911.574 -3.22845 0.235123 0
M  V30 9682 H 910.481 -2.77594 2.50783 0
M  V30 9683 H 911.814 -3.66545 3.2849 0
M  V30 9684 N 913.466 -1.22244 -0.994698 0
M  V30 9685 C 914.696 -1.07062 -1.76695 0
M  V30 9686 C 915.104 0.381895 -1.85306 0
M  V30 9687 O 914.447 1.27648 -1.32105 0
M  V30 9688 C 914.509 -1.60487 -3.2169 0
M  V30 9689 C 914.173 -3.09079 -3.36629 0
M  V30 9690 C 915.17 -4.06526 -3.24088 0
M  V30 9691 C 912.855 -3.48497 -3.61739 0
M  V30 9692 C 914.849 -5.41377 -3.36437 0
M  V30 9693 C 912.536 -4.83498 -3.73729 0
M  V30 9694 C 913.534 -5.79747 -3.61086 0
M  V30 9695 O 913.222 -7.12297 -3.72678 0
M  V30 9696 H 912.954 -0.375963 -0.561807 0
M  V30 9697 H 915.508 -1.62259 -1.25941 0
M  V30 9698 H 913.738 -0.996957 -3.73628 0
M  V30 9699 H 915.427 -1.40994 -3.80625 0
M  V30 9700 H 916.193 -3.77415 -3.04602 0
M  V30 9701 H 912.072 -2.74106 -3.70657 0
M  V30 9702 H 915.616 -6.16485 -3.26485 0
M  V30 9703 H 911.513 -5.1229 -3.92721 0
M  V30 9704 H 912.281 -7.1985 -3.89562 0
M  V30 9705 N 914.944 1.19125 -1.03184 0
M  V30 9706 C 916.169 1.93379 -0.749628 0
M  V30 9707 C 916.594 1.75153 0.685785 0
M  V30 9708 O 915.952 1.05579 1.47386 0
M  V30 9709 C 916 3.43101 -1.1097 0
M  V30 9710 O 915.104 4.11758 -0.230053 0
M  V30 9711 H 914.445 0.603605 -0.276689 0
M  V30 9712 H 916.975 1.51116 -1.37931 0
M  V30 9713 H 916.985 3.93778 -1.06785 0
M  V30 9714 H 915.66 3.55688 -2.15544 0
M  V30 9715 H 914.237 3.7143 -0.330748 0
M  V30 9716 N 916.422 0.810101 1.35185 0
M  V30 9717 C 917.67 0.391343 1.98275 0
M  V30 9718 C 917.991 -1.04592 1.64577 0
M  V30 9719 O 917.261 -1.72417 0.93001 0
M  V30 9720 H 915.841 0.141715 0.733434 0
M  V30 9721 H 918.503 1.03672 1.6504 0
M  V30 9722 H 917.599 0.49991 3.0807 0
M  V30 9723 N 917.9 -1.47166 0.563914 0
M  V30 9724 C 919.148 -2.02056 0.0422873 0
M  V30 9725 C 919.469 -1.43992 -1.31497 0
M  V30 9726 O 918.739 -0.617578 -1.85911 0
M  V30 9727 H 917.319 -0.746893 0.0126427 0
M  V30 9728 H 919.981 -1.80492 0.735441 0
M  V30 9729 H 919.077 -3.12073 -0.0408044 0
M  V30 9730 N 919.378 -0.300708 -1.54705 0
M  V30 9731 C 920.326 0.591264 -2.2496 0
M  V30 9732 C 921.32 1.13725 -1.2555 0
M  V30 9733 O 922.526 1.08793 -1.43402 0
M  V30 9734 H 918.901 0.209278 -0.722293 0
M  V30 9735 H 920.872 -0.0238175 -2.9839 0
M  V30 9736 C 919.621 1.75179 -3.00346 0
M  V30 9737 H 918.944 1.34089 -3.76643 0
M  V30 9738 H 920.384 2.35198 -3.52786 0
M  V30 9739 C 918.843 2.65574 -2.07298 0
M  V30 9740 O 919.373 3.6666 -1.64083 0
M  V30 9741 N 917.579 2.33301 -1.7326 0
M  V30 9742 H 917.126 1.51142 -2.08599 0
M  V30 9743 H 917.084 2.94049 -1.11278 0
M  V30 9744 N 920.856 1.57574 -0.0284266 0
M  V30 9745 C 922.105 1.9095 0.649704 0
M  V30 9746 C 922.418 0.906421 1.7333 0
M  V30 9747 O 923.624 1.1314 2.46803 0
M  V30 9748 C 922.08 3.39061 1.20687 0
M  V30 9749 C 921.688 4.47726 0.156597 0
M  V30 9750 C 923.432 3.81505 1.86156 0
M  V30 9751 C 921.339 5.86935 0.725365 0
M  V30 9752 H 920.269 0.712589 0.24644 0
M  V30 9753 H 922.92 1.83261 -0.0936143 0
M  V30 9754 H 921.302 3.41679 2.00178 0
M  V30 9755 H 922.476 4.56667 -0.6158 0
M  V30 9756 H 920.791 4.14481 -0.399288 0
M  V30 9757 H 923.388 4.82865 2.29665 0
M  V30 9758 H 923.731 3.16529 2.70398 0
M  V30 9759 H 924.264 3.81307 1.13356 0
M  V30 9760 H 921.003 6.55453 -0.0789081 0
M  V30 9761 H 920.523 5.81602 1.46627 0
M  V30 9762 H 922.202 6.35483 1.21532 0
M  V30 9763 N 922.334 -0.244713 1.55689 0
M  V30 9764 C 923.58 -0.973886 1.77886 0
M  V30 9765 C 923.913 -1.8489 0.594071 0
M  V30 9766 O 923.188 -1.90182 -0.407564 0
M  V30 9767 C 923.471 -1.83255 3.09983 0
M  V30 9768 C 923.324 -0.985571 4.3887 0
M  V30 9769 C 924.643 -2.81464 3.38329 0
M  V30 9770 H 921.762 -0.352629 0.647165 0
M  V30 9771 H 924.404 -0.244243 1.88424 0
M  V30 9772 H 922.554 -2.45464 3.01131 0
M  V30 9773 H 924.226 -0.382005 4.59716 0
M  V30 9774 H 922.469 -0.29002 4.32829 0
M  V30 9775 H 923.14 -1.62022 5.27686 0
M  V30 9776 H 925.616 -2.2939 3.47159 0
M  V30 9777 H 924.492 -3.38663 4.31971 0
M  V30 9778 H 924.753 -3.58037 2.59349 0
M  V30 9779 N 923.813 -1.49104 -0.510467 0
M  V30 9780 C 925.229 -1.35657 -0.840797 0
M  V30 9781 C 925.429 -0.382425 -1.97838 0
M  V30 9782 O 924.485 0.189331 -2.51789 0
M  V30 9783 C 925.798 -2.76155 -1.18992 0
M  V30 9784 C 927.346 -2.84786 -1.29868 0
M  V30 9785 C 927.821 -4.2603 -1.68115 0
M  V30 9786 N 929.312 -4.28796 -1.75181 0
M  V30 9787 C 930.047 -5.35041 -2.062 0
M  V30 9788 N 929.543 -6.51543 -2.35508 0
M  V30 9789 N 931.336 -5.2245 -2.07371 0
M  V30 9790 H 923.487 -2.11042 0.23982 0
M  V30 9791 H 925.75 -0.946946 0.0446824 0
M  V30 9792 H 925.456 -3.49092 -0.427484 0
M  V30 9793 H 925.33 -3.10922 -2.13558 0
M  V30 9794 H 927.717 -2.12092 -2.05186 0
M  V30 9795 H 927.798 -2.53613 -0.333758 0
M  V30 9796 H 927.442 -4.99247 -0.933512 0
M  V30 9797 H 927.372 -4.5466 -2.65691 0
M  V30 9798 H 929.863 -3.44771 -1.5473 0
M  V30 9799 H 930.176 -7.28342 -2.58337 0
M  V30 9800 H 928.521 -6.54785 -2.32985 0
M  V30 9801 H 931.712 -4.30444 -1.83945 0
M  V30 9802 H 931.885 -6.05347 -2.31212 0
M  V30 9803 N 925.291 0.760815 -1.38019 0
M  V30 9804 C 926.537 1.52198 -1.34028 0
M  V30 9805 C 926.87 1.94067 0.0718309 0
M  V30 9806 O 926.145 1.64895 1.0315 0
M  V30 9807 C 926.428 2.77954 -2.2894 0
M  V30 9808 C 926.281 2.42269 -3.7898 0
M  V30 9809 C 927.6 3.79943 -2.22107 0
M  V30 9810 H 924.719 0.552131 -0.488181 0
M  V30 9811 H 927.361 0.871971 -1.6881 0
M  V30 9812 H 925.511 3.33419 -1.9941 0
M  V30 9813 H 927.183 1.92635 -4.19153 0
M  V30 9814 H 925.426 1.74822 -3.97014 0
M  V30 9815 H 926.097 3.32211 -4.4084 0
M  V30 9816 H 928.573 3.34 -2.4816 0
M  V30 9817 H 927.449 4.6564 -2.90639 0
M  V30 9818 H 927.71 4.25004 -1.21753 0
M  V30 9819 N 926.769 1.22769 0.988202 0
M  V30 9820 C 927.994 1.08239 1.76915 0
M  V30 9821 C 928.419 -0.362519 1.84574 0
M  V30 9822 O 927.777 -1.26202 1.30165 0
M  V30 9823 C 927.825 1.70363 3.17819 0
M  V30 9824 O 926.929 0.960484 4.01059 0
M  V30 9825 H 926.27 0.379872 0.544604 0
M  V30 9826 H 928.8 1.62663 1.24104 0
M  V30 9827 H 928.81 1.7528 3.6843 0
M  V30 9828 H 927.485 2.75505 3.1156 0
M  V30 9829 H 926.062 0.987667 3.59582 0
M  V30 9830 N 928.247 -1.18576 1.03814 0
M  V30 9831 C 929.21 -2.2033 0.63146 0
M  V30 9832 C 930.21 -1.57787 -0.309816 0
M  V30 9833 O 931.4 -1.73938 -0.0955598 0
M  V30 9834 C 928.532 -3.40818 -0.0745963 0
M  V30 9835 H 929.725 -2.57824 1.53189 0
M  V30 9836 H 927.278 -1.32416 0.830398 0
M  V30 9837 H 928.013 -3.08853 -0.988947 0
M  V30 9838 H 927.798 -3.87453 0.6019 0
M  V30 9839 H 929.288 -4.16166 -0.345727 0
M  V30 9840 N 929.725 -0.817259 -1.34754 0
M  V30 9841 C 930.655 -0.249769 -2.3216 0
M  V30 9842 C 931.636 0.630663 -1.57977 0
M  V30 9843 O 932.821 0.558719 -1.85989 0
M  V30 9844 C 929.951 0.593825 -3.42186 0
M  V30 9845 C 928.905 -0.188997 -4.27583 0
M  V30 9846 C 928.231 0.776979 -5.29025 0
M  V30 9847 C 929.531 -1.39401 -5.03354 0
M  V30 9848 H 931.225 -1.06359 -2.79872 0
M  V30 9849 H 928.771 -0.512894 -1.34556 0
M  V30 9850 H 930.724 1.00097 -4.09339 0
M  V30 9851 H 929.448 1.44064 -2.93109 0
M  V30 9852 H 928.107 -0.577445 -3.62024 0
M  V30 9853 H 927.755 1.61959 -4.76212 0
M  V30 9854 H 927.455 0.257448 -5.87036 0
M  V30 9855 H 928.979 1.18211 -5.99048 0
M  V30 9856 H 930.393 -1.06117 -5.63393 0
M  V30 9857 H 928.79 -1.84878 -5.70912 0
M  V30 9858 H 929.86 -2.17515 -4.33377 0
M  V30 9859 O 931.242 1.44929 -0.712586 0
M  V30 9860 H 931.933 1.9199 -0.256802 0
M  V30 END ATOM
M  V30 BEGIN BOND
M  V30 END BOND
M  V30 END CTAB
M  END
$$$$
