drugbank_target|Q9NZD2 Glycolipid transfer protein (DB03017; DB03203; DB03600; DB04465)
 OpenBabel12092120013D

  0  0  0     0  0            999 V3000
M  V30 BEGIN CTAB
M  V30 COUNTS 3391 3431 0 0 0
M  V30 BEGIN ATOM
M  V30 1 H -0.908 1.98254 -0.117106 0
M  V30 2 N 0 1.576 0 0
M  V30 3 C 0.933 2.03868 1.02534 0
M  V30 4 C 1.911 0.928543 1.3348 0
M  V30 5 O 3.095 1.19667 1.45644 0
M  V30 6 C 0.222 2.43627 2.35294 0
M  V30 7 C -0.732 3.65373 2.2001 0
M  V30 8 S 0.101 5.13292 1.52614 0
M  V30 9 C 1.257 5.56322 2.86805 0
M  V30 10 H 1.49 2.90518 0.631377 0
M  V30 11 H -0.977 1.52953 0.210867 0
M  V30 12 H 0.981 2.67203 3.11629 0
M  V30 13 H -0.358 1.57376 2.7183 0
M  V30 14 H -1.165 3.90944 3.18086 0
M  V30 15 H -1.563 3.418 1.51819 0
M  V30 16 H 0.729 5.58782 3.83104 0
M  V30 17 H 1.672 6.56266 2.65933 0
M  V30 18 H 2.08 4.83886 2.90714 0
M  V30 19 N 1.4781 -0.272755 1.55222 0
M  V30 20 C 2.4411 -1.32041 1.87344 0
M  V30 21 C 3.4411 -1.42342 0.74803 0
M  V30 22 O 4.6311 -1.41488 1.0162 0
M  V30 23 C 1.7631 -2.70173 2.07893 0
M  V30 24 H 2.9561 -1.04789 2.80997 0
M  V30 25 H 0.5091 -0.51083 1.47717 0
M  V30 26 H 1.2441 -3.02605 1.16622 0
M  V30 27 H 1.0291 -2.64082 2.89833 0
M  V30 28 H 2.5191 -3.45869 2.34017 0
M  V30 29 N 2.9562 -1.48159 -0.537278 0
M  V30 30 C 3.8862 -1.65029 -1.6519 0
M  V30 31 C 4.8672 -0.499281 -1.62607 0
M  V30 32 O 6.0522 -0.730972 -1.79918 0
M  V30 33 C 3.1822 -1.68303 -3.03795 0
M  V30 34 C 2.1362 -2.8283 -3.21234 0
M  V30 35 C 1.4622 -2.71189 -4.60826 0
M  V30 36 C 2.7622 -4.24211 -3.04701 0
M  V30 37 H 4.4562 -2.58341 -1.51328 0
M  V30 38 H 2.0022 -1.24325 -0.726585 0
M  V30 39 H 3.9552 -1.78693 -3.81637 0
M  V30 40 H 2.6792 -0.715635 -3.18663 0
M  V30 41 H 1.3382 -2.71983 -2.45807 0
M  V30 42 H 0.9862 -1.72435 -4.7252 0
M  V30 43 H 0.6862 -3.48035 -4.7344 0
M  V30 44 H 2.2102 -2.83537 -5.40777 0
M  V30 45 H 3.6242 -4.3593 -3.72341 0
M  V30 46 H 2.0212 -5.01998 -3.28813 0
M  V30 47 H 3.0912 -4.41184 -2.01209 0
M  V30 48 N 4.4343 0.785586 -1.36625 0
M  V30 49 C 5.3643 1.91259 -1.33949 0
M  V30 50 C 6.3453 1.68795 -0.210325 0
M  V30 51 O 7.5303 1.89854 -0.408561 0
M  V30 52 C 4.6603 3.28339 -1.13186 0
M  V30 53 C 3.6143 3.65335 -2.22967 0
M  V30 54 C 2.9403 5.00806 -1.87342 0
M  V30 55 C 4.2403 3.7352 -3.65075 0
M  V30 56 H 5.9343 1.93755 -2.28253 0
M  V30 57 H 3.4803 0.930788 -1.09874 0
M  V30 58 H 5.4333 4.06804 -1.09948 0
M  V30 59 H 4.1573 3.2624 -0.153332 0
M  V30 60 H 2.8163 2.89169 -2.25337 0
M  V30 61 H 2.4643 4.95233 -0.880545 0
M  V30 62 H 2.1643 5.26529 -2.60846 0
M  V30 63 H 3.6883 5.81687 -1.85667 0
M  V30 64 H 5.1023 4.42168 -3.64911 0
M  V30 65 H 3.4993 4.10731 -4.37516 0
M  V30 66 H 4.5693 2.74527 -3.99703 0
M  V30 67 N 5.9124 1.20967 1.01018 0
M  V30 68 C 6.8754 0.965918 2.07853 0
M  V30 69 C 7.8754 -0.0610545 1.60684 0
M  V30 70 O 9.0654 0.175681 1.73312 0
M  V30 71 C 6.1974 0.455513 3.37843 0
M  V30 72 H 7.3904 1.91365 2.3091 0
M  V30 73 H 4.9434 1.02594 1.17916 0
M  V30 74 H 5.6784 -0.497381 3.20463 0
M  V30 75 H 5.4634 1.19622 3.73407 0
M  V30 76 H 6.9534 0.304667 4.16487 0
M  V30 77 N 7.3905 -1.2043 1.01659 0
M  V30 78 C 8.3005 -2.2689 0.596484 0
M  V30 79 C 9.3165 -1.70107 -0.36599 0
M  V30 80 O 10.4925 -2.00117 -0.226942 0
M  V30 81 C 7.5575 -3.4665 -0.0586659 0
M  V30 82 C 6.6185 -4.18662 0.949751 0
M  V30 83 C 5.8515 -5.32705 0.32577 0
M  V30 84 O 6.0745 -5.63656 -0.874509 0
M  V30 85 O 5.0085 -5.92803 1.04249 0
M  V30 86 H 8.8345 -2.65041 1.4828 0
M  V30 87 H 6.4195 -1.27048 0.786082 0
M  V30 88 H 8.3015 -4.19256 -0.424564 0
M  V30 89 H 6.9765 -3.10375 -0.91918 0
M  V30 90 H 5.8835 -3.48229 1.36702 0
M  V30 91 H 7.2165 -4.58878 1.78023 0
M  V30 92 N 8.8686 -0.792821 -1.36206 0
M  V30 93 C 9.8186 -0.166598 -2.27391 0
M  V30 94 C 10.8026 0.651479 -1.47121 0
M  V30 95 O 11.9946 0.510994 -1.69463 0
M  V30 96 C 9.1236 0.695033 -3.36191 0
M  V30 97 C 8.2096 -0.132019 -4.23894 0
M  V30 98 N 8.6006 -1.18822 -4.91645 0
M  V30 99 C 6.8986 0.0885952 -4.45912 0
M  V30 100 C 7.5996 -1.69198 -5.56549 0
M  V30 101 N 6.5756 -1.00065 -5.34311 0
M  V30 102 H 10.3776 -0.974947 -2.77258 0
M  V30 103 H 7.8916 -0.632616 -1.49572 0
M  V30 104 H 9.8886 1.1596 -4.00448 0
M  V30 105 H 8.5486 1.50189 -2.87877 0
M  V30 106 H 9.5596 -1.57069 -4.93507 0
M  V30 107 H 6.2366 0.865688 -4.08426 0
M  V30 108 H 7.6266 -2.57395 -6.20643 0
M  V30 109 N 10.3467 1.47872 -0.545128 0
M  V30 110 C 11.2767 2.32661 0.197793 0
M  V30 111 C 12.2577 1.43041 0.920504 0
M  V30 112 O 13.4427 1.71912 0.90333 0
M  V30 113 C 10.5727 3.24569 1.23582 0
M  V30 114 C 9.5267 4.23333 0.630323 0
M  V30 115 C 8.8527 5.0448 1.77211 0
M  V30 116 C 10.1527 5.20704 -0.407974 0
M  V30 117 H 11.8467 2.95024 -0.510045 0
M  V30 118 H 9.3927 1.4187 -0.246731 0
M  V30 119 H 11.3457 3.8272 1.76362 0
M  V30 120 H 10.0697 2.60236 1.97344 0
M  V30 121 H 8.7287 3.6639 0.123922 0
M  V30 122 H 8.3767 4.36561 2.49847 0
M  V30 123 H 8.0767 5.71339 1.37281 0
M  V30 124 H 9.6007 5.65487 2.3034 0
M  V30 125 H 11.0147 5.7329 0.033305 0
M  V30 126 H 9.4117 5.95699 -0.725486 0
M  V30 127 H 10.4817 4.66917 -1.30828 0
M  V30 128 N 11.8248 0.280983 1.55075 0
M  V30 129 C 12.7548 -0.597469 2.25727 0
M  V30 130 C 13.7358 -1.15417 1.24952 0
M  V30 131 O 14.9208 -1.18722 1.53684 0
M  V30 132 C 12.0508 -1.7789 2.98283 0
M  V30 133 C 11.0048 -1.35347 4.06036 0
M  V30 134 C 10.3308 -2.61846 4.66198 0
M  V30 135 C 11.6308 -0.499354 5.19907 0
M  V30 136 H 13.3248 -0.00824265 2.99399 0
M  V30 137 H 10.8708 -0.0025244 1.44 0
M  V30 138 H 12.8238 -2.39937 3.46422 0
M  V30 139 H 11.5478 -2.39405 2.22155 0
M  V30 140 H 10.2068 -0.756156 3.58717 0
M  V30 141 H 9.8548 -3.21632 3.86732 0
M  V30 142 H 9.5548 -2.3409 5.38958 0
M  V30 143 H 11.0788 -3.24732 5.1709 0
M  V30 144 H 12.4928 -1.02498 5.64063 0
M  V30 145 H 10.8898 -0.316424 5.99265 0
M  V30 146 H 11.9598 0.480459 4.82514 0
M  V30 147 N 13.3029 -1.57598 0.00835791 0
M  V30 148 C 14.2499 -2.08945 -0.980346 0
M  V30 149 C 15.2199 -0.986738 -1.33614 0
M  V30 150 O 16.4049 -1.25968 -1.43306 0
M  V30 151 C 13.5449 -2.60425 -2.26435 0
M  V30 152 C 12.6579 -3.84628 -1.96685 0
M  V30 153 C 11.7929 -4.24579 -3.19228 0
M  V30 154 C 10.8319 -5.41596 -2.85202 0
M  V30 155 N 9.9689 -5.768 -4.00307 0
M  V30 156 H 14.8089 -2.93148 -0.535551 0
M  V30 157 H 12.3459 -1.44912 -0.252776 0
M  V30 158 H 14.3039 -2.88354 -3.01509 0
M  V30 159 H 12.9339 -1.79083 -2.68568 0
M  V30 160 H 11.9859 -3.63556 -1.11942 0
M  V30 161 H 13.2979 -4.69796 -1.67611 0
M  V30 162 H 12.4519 -4.53834 -4.02641 0
M  V30 163 H 11.1909 -3.38137 -3.51447 0
M  V30 164 H 10.1959 -5.12056 -2.00198 0
M  V30 165 H 11.4209 -6.29721 -2.54222 0
M  V30 166 H 9.3669 -4.93316 -4.32407 0
M  V30 167 H 9.2839 -6.5656 -3.74786 0
M  V30 168 H 10.5519 -6.10652 -4.84484 0
M  V30 169 N 14.781 0.264519 -1.55364 0
M  V30 170 C 16.192 0.834936 -1.6699 0
M  V30 171 C 16.543 1.86718 -0.602552 0
M  V30 172 O 15.668 2.14899 0.254425 0
M  V30 173 C 16.263 1.5212 -3.02729 0
M  V30 174 C 14.822 2.03954 -3.16354 0
M  V30 175 C 13.969 0.884498 -2.62815 0
M  V30 176 H 16.92 0.0406869 -1.58648 0
M  V30 177 H 16.941 2.38853 -2.96191 0
M  V30 178 H 16.453 0.769668 -3.80392 0
M  V30 179 H 14.554 2.82041 -2.43482 0
M  V30 180 H 14.667 2.24902 -4.23032 0
M  V30 181 H 13.031 1.2802 -2.20188 0
M  V30 182 H 13.814 0.14634 -3.42988 0
M  V30 183 N 16.2591 1.48442 0.529413 0
M  V30 184 C 17.1891 1.65902 1.64313 0
M  V30 185 C 18.1701 0.507897 1.6234 0
M  V30 186 O 19.3551 0.740503 1.79528 0
M  V30 187 C 16.4851 1.69911 3.02898 0
M  V30 188 C 15.4391 2.8453 3.19729 0
M  V30 189 C 14.7651 2.73629 4.59381 0
M  V30 190 C 16.0651 4.25821 3.02447 0
M  V30 191 H 17.7591 2.5914 1.49955 0
M  V30 192 H 15.3051 1.24709 0.719982 0
M  V30 193 H 17.2581 1.80715 3.80684 0
M  V30 194 H 15.9821 0.732524 3.18279 0
M  V30 195 H 14.6411 2.73283 2.44361 0
M  V30 196 H 14.2891 1.74938 4.71599 0
M  V30 197 H 13.9891 3.50541 4.71588 0
M  V30 198 H 15.5131 2.86401 5.39265 0
M  V30 199 H 16.9271 4.37898 3.70024 0
M  V30 200 H 15.3241 5.03735 3.26146 0
M  V30 201 H 16.3941 4.42244 1.98867 0
M  V30 202 N 17.7372 -0.778329 1.37039 0
M  V30 203 C 19.1482 -1.35421 1.28523 0
M  V30 204 C 19.4992 -1.96075 -0.0700901 0
M  V30 205 O 18.6242 -1.93352 -0.971801 0
M  V30 206 C 19.2192 -2.46211 2.32735 0
M  V30 207 C 17.7782 -2.99585 2.27873 0
M  V30 208 C 16.9252 -1.72748 2.16918 0
M  V30 209 H 19.8762 -0.5791 1.47757 0
M  V30 210 H 19.8972 -3.2552 1.9702 0
M  V30 211 H 19.4092 -2.02036 3.31365 0
M  V30 212 H 17.5102 -3.48152 1.32745 0
M  V30 213 H 17.6232 -3.55646 3.21018 0
M  V30 214 H 15.9872 -1.95416 1.63354 0
M  V30 215 H 16.7702 -1.30686 3.17452 0
M  V30 216 N 19.2153 -1.21501 -1.00376 0
M  V30 217 C 20.1783 -0.976927 -2.07337 0
M  V30 218 C 21.1783 0.0525322 -1.60714 0
M  V30 219 O 22.3683 -0.184869 -1.73216 0
M  V30 220 C 19.5003 -0.473423 -3.37597 0
M  V30 221 H 20.6933 -1.92587 -2.29892 0
M  V30 222 H 18.2463 -1.03217 -1.17371 0
M  V30 223 H 18.9813 0.480379 -3.20722 0
M  V30 224 H 18.7663 -1.216 -3.72768 0
M  V30 225 H 20.2563 -0.32675 -4.1632 0
M  V30 226 N 20.6934 1.19889 -1.02296 0
M  V30 227 C 21.9704 1.85148 -0.630832 0
M  V30 228 C 22.3504 1.91385 0.890782 0
M  V30 229 O 21.6984 1.42642 1.78509 0
M  V30 230 C 21.9084 3.24442 -1.28602 0
M  V30 231 C 23.2564 4.00663 -1.4055 0
M  V30 232 O 24.2804 3.33818 -1.24273 0
M  V30 233 O 23.1394 5.20387 -1.66913 0
M  V30 234 H 20.2334 0.797613 -0.218499 0
M  V30 235 H 22.7794 1.27427 -1.12074 0
M  V30 236 H 21.5514 3.14704 -2.32545 0
M  V30 237 H 21.1744 3.89802 -0.7836 0
M  V30 238 N 22.1715 0.800033 1.35784 0
M  V30 239 C 23.1185 0.203848 2.29898 0
M  V30 240 C 24.0885 -0.658375 1.52495 0
M  V30 241 O 25.2735 -0.604832 1.8096 0
M  V30 242 C 22.4135 -0.64688 3.38983 0
M  V30 243 C 21.5265 0.235054 4.3136 0
M  V30 244 C 20.6615 -0.623054 5.27533 0
M  V30 245 C 19.7005 0.259682 6.11549 0
M  V30 246 N 18.8375 -0.558019 6.99879 0
M  V30 247 H 23.6775 1.01186 2.80295 0
M  V30 248 H 21.2145 0.51053 1.37957 0
M  V30 249 H 23.1725 -1.15521 4.00887 0
M  V30 250 H 21.8025 -1.42021 2.89879 0
M  V30 251 H 20.8545 0.861438 3.70518 0
M  V30 252 H 22.1665 0.914768 4.9034 0
M  V30 253 H 21.3205 -1.19678 5.94779 0
M  V30 254 H 20.0595 -1.33636 4.69034 0
M  V30 255 H 19.0645 0.845726 5.43256 0
M  V30 256 H 20.2895 0.970748 6.72126 0
M  V30 257 H 18.2355 -1.25542 6.43875 0
M  V30 258 H 18.1525 0.0637872 7.55973 0
M  V30 259 H 19.4205 -1.11523 7.71481 0
M  V30 260 N 23.6496 -1.47581 0.552962 0
M  V30 261 C 24.5816 -2.27997 -0.234533 0
M  V30 262 C 25.5946 -1.36753 -0.883321 0
M  V30 263 O 26.7836 -1.61612 -0.757889 0
M  V30 264 C 23.8836 -3.10879 -1.34935 0
M  V30 265 C 23.0566 -4.30056 -0.798158 0
M  V30 266 C 22.1156 -4.94567 -1.79694 0
M  V30 267 O 21.1416 -5.53087 -1.34474 0
M  V30 268 N 22.3436 -4.88878 -3.13015 0
M  V30 269 H 25.1086 -2.96222 0.455255 0
M  V30 270 H 22.6696 -1.57163 0.388761 0
M  V30 271 H 24.6616 -3.50903 -2.01616 0
M  V30 272 H 23.2316 -2.44924 -1.94244 0
M  V30 273 H 22.4516 -3.94174 0.0453079 0
M  V30 274 H 23.7396 -5.07152 -0.409173 0
M  V30 275 H 23.1376 -4.42526 -3.52402 0
M  V30 276 H 21.6946 -5.32934 -3.75266 0
M  V30 277 N 25.1277 -0.289203 -1.54924 0
M  V30 278 C 26.3767 0.324231 -1.99077 0
M  V30 279 C 26.6897 1.5591 -1.18117 0
M  V30 280 O 27.8957 2.24637 -1.52481 0
M  V30 281 C 26.3517 0.628209 -3.54375 0
M  V30 282 C 25.9597 -0.587647 -4.44129 0
M  V30 283 C 27.7037 1.20349 -4.07083 0
M  V30 284 C 25.6107 -0.257475 -5.90839 0
M  V30 285 H 24.5407 0.124924 -0.743579 0
M  V30 286 H 27.1917 -0.396063 -1.79175 0
M  V30 287 H 25.5737 1.40778 -3.70132 0
M  V30 288 H 26.7477 -1.36418 -4.40144 0
M  V30 289 H 25.0627 -1.08074 -4.0213 0
M  V30 290 H 27.6597 1.46456 -5.14252 0
M  V30 291 H 28.0027 2.14195 -3.56968 0
M  V30 292 H 28.5357 0.485889 -3.94821 0
M  V30 293 H 25.2747 -1.16419 -6.45079 0
M  V30 294 H 24.7947 0.482018 -5.9786 0
M  V30 295 H 26.4737 0.145238 -6.46837 0
M  V30 296 N 26.6058 1.57591 -0.0167156 0
M  V30 297 C 27.5158 2.1291 0.98521 0
M  V30 298 C 28.5318 1.07834 1.36557 0
M  V30 299 O 29.7078 1.39826 1.44951 0
M  V30 300 C 26.7728 2.63512 2.25305 0
M  V30 301 C 25.8338 3.83256 1.93426 0
M  V30 302 C 25.0668 4.31435 3.14165 0
M  V30 303 O 25.2898 3.78851 4.26413 0
M  V30 304 O 24.2238 5.23416 2.97186 0
M  V30 305 H 28.0498 2.98772 0.544888 0
M  V30 306 H 25.6348 1.48012 0.203141 0
M  V30 307 H 27.5168 2.96183 2.99756 0
M  V30 308 H 26.1918 1.8074 2.68542 0
M  V30 309 H 25.0988 3.55531 1.16398 0
M  V30 310 H 26.4318 4.67153 1.55013 0
M  V30 311 N 28.0839 -0.256276 1.55502 0
M  V30 312 C 29.3119 -1.00342 1.8094 0
M  V30 313 C 29.7269 -1.79307 0.59114 0
M  V30 314 O 29.0839 -1.77114 -0.440081 0
M  V30 315 C 29.1349 -1.94875 3.04476 0
M  V30 316 O 28.8559 -1.19107 4.21598 0
M  V30 317 C 30.3569 -2.81266 3.42644 0
M  V30 318 H 27.5769 -0.295685 0.602338 0
M  V30 319 H 30.1209 -0.281998 2.02546 0
M  V30 320 H 28.2759 -2.62457 2.84947 0
M  V30 321 H 28.6899 -1.82969 4.91551 0
M  V30 322 H 30.1639 -3.43362 4.32211 0
M  V30 323 H 30.6409 -3.51897 2.62802 0
M  V30 324 H 31.2469 -2.1915 3.64491 0
M  V30 325 N 29.562 -1.4872 -0.521534 0
M  V30 326 C 30.81 -1.56857 -1.27437 0
M  V30 327 C 31.131 -0.247982 -1.93417 0
M  V30 328 O 30.401 0.731151 -1.81744 0
M  V30 329 H 28.981 -0.577885 -0.473347 0
M  V30 330 H 31.643 -1.85233 -0.606205 0
M  V30 331 H 30.739 -2.35402 -2.0492 0
M  V30 332 N 31.0401 0.771051 -1.3745 0
M  V30 333 C 32.4511 1.34737 -1.29239 0
M  V30 334 C 32.8021 1.96109 0.0596908 0
M  V30 335 O 31.9271 1.93865 0.961534 0
M  V30 336 C 32.5221 2.44973 -2.34037 0
M  V30 337 C 31.0811 2.98372 -2.29458 0
M  V30 338 C 30.2281 1.71595 -2.17831 0
M  V30 339 H 33.1791 0.571256 -1.48062 0
M  V30 340 H 33.2001 3.24471 -1.98744 0
M  V30 341 H 32.7121 2.00276 -3.32432 0
M  V30 342 H 30.8131 3.47443 -1.34589 0
M  V30 343 H 30.9261 3.53939 -3.229 0
M  V30 344 H 29.2901 1.94547 -1.64388 0
M  V30 345 H 30.0731 1.29001 -3.18141 0
M  V30 346 N 32.5182 1.22032 0.997298 0
M  V30 347 C 33.7652 1.04222 1.73621 0
M  V30 348 C 34.0932 -0.423264 1.89839 0
M  V30 349 O 33.3482 -1.3302 1.43542 0
M  V30 350 C 33.6472 1.69345 3.14733 0
M  V30 351 C 33.3132 3.19226 3.18442 0
M  V30 352 C 31.9752 3.60124 3.19161 0
M  V30 353 C 34.3272 4.15181 3.15078 0
M  V30 354 C 31.6552 4.95467 3.14212 0
M  V30 355 C 34.0072 5.50495 3.1167 0
M  V30 356 C 32.6712 5.90779 3.10703 0
M  V30 357 H 31.9412 0.381374 0.635323 0
M  V30 358 H 34.5882 1.51732 1.16831 0
M  V30 359 H 32.8932 1.14147 3.74803 0
M  V30 360 H 34.5902 1.53059 3.7064 0
M  V30 361 H 31.1802 2.86659 3.18629 0
M  V30 362 H 35.3642 3.84605 3.13676 0
M  V30 363 H 30.6202 5.25916 3.11805 0
M  V30 364 H 34.7942 6.24576 3.08022 0
M  V30 365 H 32.4212 6.9562 3.06622 0
M  V30 366 N 33.9963 -1.19345 1.0293 0
M  V30 367 C 34.9263 -2.2481 0.631105 0
M  V30 368 C 35.9073 -1.66245 -0.360104 0
M  V30 369 O 37.0923 -1.92677 -0.242726 0
M  V30 370 C 34.2223 -3.47295 -0.0184607 0
M  V30 371 C 33.1763 -4.18536 0.895073 0
M  V30 372 C 32.5023 -5.34586 0.110592 0
M  V30 373 C 33.8023 -4.73287 2.209 0
M  V30 374 H 35.4963 -2.58372 1.51275 0
M  V30 375 H 33.0423 -1.24194 0.728818 0
M  V30 376 H 34.9953 -4.20268 -0.308675 0
M  V30 377 H 33.7193 -3.12933 -0.934907 0
M  V30 378 H 32.3783 -3.47446 1.16949 0
M  V30 379 H 32.0263 -4.96469 -0.807902 0
M  V30 380 H 31.7263 -5.83183 0.719087 0
M  V30 381 H 33.2503 -6.10355 -0.172871 0
M  V30 382 H 34.6643 -5.38013 1.98028 0
M  V30 383 H 33.0613 -5.32373 2.76946 0
M  V30 384 H 34.1313 -3.91331 2.86336 0
M  V30 385 N 35.4744 -0.807222 -1.35358 0
M  V30 386 C 36.3844 -0.219594 -2.3357 0
M  V30 387 C 37.4004 0.637734 -1.61892 0
M  V30 388 O 38.5764 0.549336 -1.93763 0
M  V30 389 C 35.6414 0.62158 -3.41083 0
M  V30 390 C 34.7024 -0.256315 -4.28534 0
M  V30 391 C 33.9354 0.544807 -5.30912 0
M  V30 392 O 34.1584 1.77944 -5.41934 0
M  V30 393 O 33.0924 -0.0646478 -6.01865 0
M  V30 394 H 36.9184 -1.03208 -2.85625 0
M  V30 395 H 34.5034 -0.569025 -1.38139 0
M  V30 396 H 36.3854 1.10067 -4.06772 0
M  V30 397 H 35.0604 1.41165 -2.91297 0
M  V30 398 H 33.9674 -0.782559 -3.65823 0
M  V30 399 H 35.3004 -1.01034 -4.81719 0
M  V30 400 N 36.9525 1.47285 -0.560781 0
M  V30 401 C 37.9155 2.28535 0.174488 0
M  V30 402 C 38.9155 1.37153 0.839388 0
M  V30 403 O 40.1055 1.59748 0.694702 0
M  V30 404 C 37.2375 3.16934 1.25561 0
M  V30 405 H 38.4305 2.95012 -0.539262 0
M  V30 406 H 35.9835 1.53034 -0.317865 0
M  V30 407 H 36.7185 2.55157 2.00164 0
M  V30 408 H 36.5035 3.8419 0.783604 0
M  V30 409 H 37.9935 3.78143 1.77193 0
M  V30 410 N 38.4306 0.297415 1.54768 0
M  V30 411 C 39.6766 -0.313376 2.00364 0
M  V30 412 C 40.0096 -1.53815 1.18553 0
M  V30 413 O 39.2846 -1.92739 0.261103 0
M  V30 414 C 39.5676 -0.673525 3.53745 0
M  V30 415 C 39.4206 0.560133 4.46299 0
M  V30 416 C 40.7396 -1.50143 4.13697 0
M  V30 417 H 37.8586 -0.112428 0.728374 0
M  V30 418 H 40.5006 0.4088 1.8555 0
M  V30 419 H 38.6506 -1.28881 3.665 0
M  V30 420 H 40.3226 1.19863 4.45455 0
M  V30 421 H 38.5656 1.19405 4.17043 0
M  V30 422 H 39.2366 0.26405 5.51368 0
M  V30 423 H 41.7126 -0.981588 4.04356 0
M  V30 424 H 40.5886 -1.72221 5.21182 0
M  V30 425 H 40.8496 -2.48952 3.65343 0
M  V30 426 N 39.9087 -1.5758 0.0250728 0
M  V30 427 C 41.1337 -1.96337 -0.668317 0
M  V30 428 C 41.5587 -0.901314 -1.651 0
M  V30 429 O 40.9167 0.138187 -1.80773 0
M  V30 430 C 40.9647 -3.34191 -1.35457 0
M  V30 431 O 40.0687 -3.30269 -2.46974 0
M  V30 432 H 39.4097 -0.640281 -0.175887 0
M  V30 433 H 41.9397 -2.0442 0.0857224 0
M  V30 434 H 41.9497 -3.70331 -1.71228 0
M  V30 435 H 40.6247 -4.11036 -0.634218 0
M  V30 436 H 39.2017 -3.05841 -2.13344 0
M  V30 437 N 41.3868 0.248026 -1.55636 0
M  V30 438 C 42.3368 1.30994 -1.86614 0
M  V30 439 C 43.3208 1.43543 -0.726918 0
M  V30 440 O 44.5128 1.46804 -0.988818 0
M  V30 441 C 41.6418 2.6656 -2.16335 0
M  V30 442 C 40.7278 2.58019 -3.36581 0
M  V30 443 N 41.1188 2.1911 -4.55878 0
M  V30 444 C 39.4168 2.89035 -3.39669 0
M  V30 445 C 40.1178 2.21174 -5.38012 0
M  V30 446 N 39.0938 2.60632 -4.77045 0
M  V30 447 H 42.8958 0.999583 -2.76379 0
M  V30 448 H 40.4098 0.456652 -1.55848 0
M  V30 449 H 42.4068 3.43194 -2.36692 0
M  V30 450 H 41.0668 2.98463 -1.27867 0
M  V30 451 H 42.0778 1.90672 -4.81523 0
M  V30 452 H 38.7548 3.25485 -2.61469 0
M  V30 453 H 40.1448 1.9344 -6.43452 0
M  V30 454 N 42.8649 1.48995 0.513639 0
M  V30 455 C 43.7949 1.67636 1.62544 0
M  V30 456 C 44.7759 0.525087 1.61793 0
M  V30 457 O 45.9609 0.759502 1.78732 0
M  V30 458 C 43.0909 1.73114 3.01079 0
M  V30 459 C 42.0449 2.87905 3.16693 0
M  V30 460 C 41.3709 2.78486 4.56453 0
M  V30 461 C 42.6709 4.29005 2.97913 0
M  V30 462 H 44.3649 2.60716 1.47198 0
M  V30 463 H 41.9109 1.25465 0.706714 0
M  V30 464 H 43.8639 1.84742 3.78746 0
M  V30 465 H 42.5879 0.766241 3.17484 0
M  V30 466 H 41.2469 2.75859 2.41448 0
M  V30 467 H 40.8949 1.7993 4.69717 0
M  V30 468 H 40.5949 3.55523 4.67843 0
M  V30 469 H 42.1189 2.92104 5.36197 0
M  V30 470 H 43.5329 4.41798 3.65359 0
M  V30 471 H 41.9299 5.07166 3.20785 0
M  V30 472 H 42.9999 4.44329 1.94165 0
M  V30 473 N 44.343 -0.763751 1.37857 0
M  V30 474 C 45.754 -1.3405 1.29952 0
M  V30 475 C 46.105 -1.96138 -0.0492898 0
M  V30 476 O 45.23 -1.94372 -0.951239 0
M  V30 477 C 45.825 -2.43729 2.35333 0
M  V30 478 C 44.384 -2.97151 2.31037 0
M  V30 479 C 43.531 -1.70438 2.18738 0
M  V30 480 H 46.482 -0.563396 1.48363 0
M  V30 481 H 46.503 -3.23412 2.00462 0
M  V30 482 H 46.015 -1.9851 3.33489 0
M  V30 483 H 44.116 -3.46724 1.3643 0
M  V30 484 H 44.229 -3.52221 3.24772 0
M  V30 485 H 42.593 -1.93673 1.65418 0
M  V30 486 H 43.376 -1.27312 3.18821 0
M  V30 487 N 45.8211 -1.22559 -0.990812 0
M  V30 488 C 47.2321 -1.04791 -1.54518 0
M  V30 489 C 47.5831 0.387998 -1.92325 0
M  V30 490 O 46.7081 1.27328 -1.74976 0
M  V30 491 C 47.3031 -1.896 -2.80779 0
M  V30 492 C 45.8621 -1.76124 -3.32652 0
M  V30 493 C 45.0091 -1.8594 -2.05722 0
M  V30 494 H 47.9601 -1.36374 -0.811662 0
M  V30 495 H 47.9811 -1.41464 -3.53225 0
M  V30 496 H 47.4931 -2.94101 -2.53231 0
M  V30 497 H 45.5941 -0.743643 -3.65104 0
M  V30 498 H 45.7071 -2.58913 -4.03114 0
M  V30 499 H 44.0711 -1.29403 -2.19379 0
M  V30 500 H 44.8541 -2.91976 -1.80568 0
M  V30 501 N 47.2992 1.18797 -1.03562 0
M  V30 502 C 48.5462 1.8865 -0.736023 0
M  V30 503 C 48.8742 1.80041 0.735889 0
M  V30 504 O 48.1292 1.19179 1.55225 0
M  V30 505 C 48.4282 3.38692 -1.14117 0
M  V30 506 C 48.0942 3.67504 -2.6125 0
M  V30 507 C 46.7562 3.75078 -3.01447 0
M  V30 508 C 49.1082 3.80293 -3.56408 0
M  V30 509 C 46.4362 3.92915 -4.35701 0
M  V30 510 C 48.7882 3.99645 -4.90374 0
M  V30 511 C 47.4522 4.05453 -5.30249 0
M  V30 512 H 46.7222 0.690321 -0.26933 0
M  V30 513 H 49.3692 1.40641 -1.29971 0
M  V30 514 H 47.6742 3.88645 -0.496202 0
M  V30 515 H 49.3712 3.91072 -0.886789 0
M  V30 516 H 45.9612 3.62223 -2.29113 0
M  V30 517 H 50.1452 3.73779 -3.26501 0
M  V30 518 H 45.4012 3.95653 -4.66121 0
M  V30 519 H 49.5752 4.08482 -5.64017 0
M  V30 520 H 47.2022 4.19027 -6.34288 0
M  V30 521 N 48.7773 0.814389 1.34928 0
M  V30 522 C 50.0243 0.398423 1.98542 0
M  V30 523 C 50.3523 -1.03638 1.64589 0
M  V30 524 O 49.6073 -1.73509 0.90516 0
M  V30 525 C 49.9063 0.537781 3.53331 0
M  V30 526 C 49.5723 1.93704 4.07172 0
M  V30 527 C 48.2343 2.31984 4.21589 0
M  V30 528 C 50.5863 2.85213 4.36237 0
M  V30 529 C 47.9143 3.61125 4.62391 0
M  V30 530 C 50.2663 4.13809 4.78482 0
M  V30 531 C 48.9303 4.52077 4.91104 0
M  V30 532 H 48.2003 0.145793 0.726516 0
M  V30 533 H 50.8473 1.03669 1.61012 0
M  V30 534 H 49.1523 -0.183906 3.91368 0
M  V30 535 H 50.8493 0.196588 4.00518 0
M  V30 536 H 47.4393 1.62966 3.96409 0
M  V30 537 H 51.6233 2.56885 4.24645 0
M  V30 538 H 46.8793 3.90612 4.70353 0
M  V30 539 H 51.0533 4.84811 4.99932 0
M  V30 540 H 48.6803 5.52196 5.22478 0
M  V30 541 N 50.2554 -1.46986 0.568584 0
M  V30 542 C 51.5324 -1.95592 -0.0174074 0
M  V30 543 C 51.9124 -1.51124 -1.47393 0
M  V30 544 O 51.2604 -0.755329 -2.15655 0
M  V30 545 C 51.4704 -3.48719 0.139913 0
M  V30 546 C 52.8184 -4.246 0.000426376 0
M  V30 547 O 53.8424 -3.56135 0.0680316 0
M  V30 548 O 52.7014 -5.46302 -0.146988 0
M  V30 549 H 49.7954 -0.82498 -0.0577599 0
M  V30 550 H 52.3414 -1.57335 0.635909 0
M  V30 551 H 51.1134 -3.73927 1.15301 0
M  V30 552 H 50.7364 -3.93771 -0.550491 0
M  V30 553 N 51.7335 -0.305618 -1.54608 0
M  V30 554 C 52.9735 0.303114 -2.0214 0
M  V30 555 C 53.3375 1.50737 -1.18921 0
M  V30 556 O 54.5385 2.18778 -1.56172 0
M  V30 557 C 52.8095 0.646332 -3.51507 0
M  V30 558 S 54.3685 1.23727 -4.20995 0
M  V30 559 H 51.1865 0.0927643 -0.704923 0
M  V30 560 H 53.7885 -0.434566 -1.90609 0
M  V30 561 H 52.4925 -0.238541 -4.09706 0
M  V30 562 H 52.0235 1.41468 -3.67084 0
M  V30 563 H 54.0385 2.52489 -4.27158 0
M  V30 564 N 53.2116 1.57565 -0.0334293 0
M  V30 565 C 54.1416 2.13511 0.945265 0
M  V30 566 C 55.1226 1.05231 1.33643 0
M  V30 567 O 56.3076 1.33084 1.41429 0
M  V30 568 C 53.4376 2.6657 2.22616 0
M  V30 569 C 52.3916 3.79676 1.97561 0
M  V30 570 C 51.7176 4.1918 3.31952 0
M  V30 571 C 53.0176 5.0557 1.31135 0
M  V30 572 H 54.7116 2.95538 0.479325 0
M  V30 573 H 52.2576 1.42166 0.229115 0
M  V30 574 H 54.2106 3.04344 2.91466 0
M  V30 575 H 52.9346 1.8171 2.71384 0
M  V30 576 H 51.5936 3.42347 1.31127 0
M  V30 577 H 51.2416 3.31296 3.78487 0
M  V30 578 H 50.9416 4.95402 3.15992 0
M  V30 579 H 52.4656 4.59541 4.02063 0
M  V30 580 H 53.8796 5.40903 1.89992 0
M  V30 581 H 52.2766 5.86818 1.25559 0
M  V30 582 H 53.3466 4.84062 0.284894 0
M  V30 583 N 54.6897 -0.239769 1.55765 0
M  V30 584 C 55.9377 -0.964892 1.77579 0
M  V30 585 C 56.2587 -1.85582 0.598699 0
M  V30 586 O 55.5287 -1.92075 -0.385226 0
M  V30 587 H 54.1087 -0.359265 0.654933 0
M  V30 588 H 56.7707 -0.256001 1.93211 0
M  V30 589 H 55.8667 -1.58243 2.69009 0
M  V30 590 N 56.1678 -1.49265 -0.50573 0
M  V30 591 C 57.3928 -1.62478 -1.28902 0
M  V30 592 C 57.8178 -0.294332 -1.85783 0
M  V30 593 O 57.1758 0.737412 -1.65626 0
M  V30 594 C 57.2238 -2.69268 -2.39848 0
M  V30 595 O 56.3278 -2.28113 -3.43567 0
M  V30 596 H 55.6688 -0.54399 -0.380751 0
M  V30 597 H 58.1988 -1.95421 -0.605952 0
M  V30 598 H 58.2088 -2.91291 -2.85681 0
M  V30 599 H 56.8838 -3.65846 -1.97812 0
M  V30 600 H 55.4608 -2.16401 -3.03685 0
M  V30 601 N 57.6459 0.756429 -1.3826 0
M  V30 602 C 59.0569 1.33359 -1.30661 0
M  V30 603 C 59.4079 1.96161 0.0388875 0
M  V30 604 O 58.5329 1.94874 0.940918 0
M  V30 605 C 59.1279 2.42477 -2.36622 0
M  V30 606 C 57.6869 2.95922 -2.3261 0
M  V30 607 C 56.8339 1.69275 -2.19639 0
M  V30 608 H 59.7849 0.55552 -1.4866 0
M  V30 609 H 59.8059 3.22345 -2.02174 0
M  V30 610 H 59.3179 1.96739 -3.34538 0
M  V30 611 H 57.4189 3.45996 -1.38267 0
M  V30 612 H 57.5319 3.50494 -3.26636 0
M  V30 613 H 55.8959 1.92793 -1.66442 0
M  V30 614 H 56.6789 1.25619 -3.19491 0
M  V30 615 N 59.124 1.23083 0.984299 0
M  V30 616 C 60.37 1.06214 1.72761 0
M  V30 617 C 60.703 -0.400584 1.90024 0
M  V30 618 O 59.978 -1.29672 1.44967 0
M  V30 619 C 60.261 1.78375 3.12817 0
M  V30 620 C 60.114 3.32296 3.03149 0
M  V30 621 C 61.433 1.54309 4.12161 0
M  V30 622 H 58.552 0.387251 0.627061 0
M  V30 623 H 61.194 1.51536 1.14616 0
M  V30 624 H 59.344 1.39848 3.62457 0
M  V30 625 H 61.016 3.8032 2.61064 0
M  V30 626 H 59.259 3.6153 2.39747 0
M  V30 627 H 59.93 3.77972 4.02295 0
M  V30 628 H 62.406 1.87791 3.71314 0
M  V30 629 H 61.282 2.07281 5.08258 0
M  V30 630 H 61.543 0.477572 4.39513 0
M  V30 631 N 60.6021 -1.18246 1.0419 0
M  V30 632 C 61.8491 -1.88257 0.746017 0
M  V30 633 C 62.1771 -1.80429 -0.726331 0
M  V30 634 O 61.4321 -1.2 -1.54591 0
M  V30 635 C 61.7311 -3.38082 1.15911 0
M  V30 636 C 61.3971 -3.66114 2.63195 0
M  V30 637 C 60.0591 -3.73474 3.03432 0
M  V30 638 C 62.4111 -3.78398 3.5842 0
M  V30 639 C 59.7391 -3.90599 4.37778 0
M  V30 640 C 62.0911 -3.97039 4.92487 0
M  V30 641 C 60.7551 -4.02635 5.32392 0
M  V30 642 H 60.0251 -0.688883 0.272987 0
M  V30 643 H 62.6721 -1.3995 1.30715 0
M  V30 644 H 60.9771 -3.88377 0.516806 0
M  V30 645 H 62.6741 -3.90596 0.907516 0
M  V30 646 H 59.2641 -3.61003 2.3103 0
M  V30 647 H 63.4481 -3.72042 3.28479 0
M  V30 648 H 58.7041 -3.93175 4.68213 0
M  V30 649 H 62.8781 -4.05486 5.66175 0
M  V30 650 H 60.5051 -4.15657 6.36501 0
M  V30 651 N 62.0802 -0.821533 -1.34494 0
M  V30 652 C 63.3082 -0.421884 -2.02553 0
M  V30 653 C 63.7232 0.971745 -1.61872 0
M  V30 654 O 63.0802 1.62864 -0.823496 0
M  V30 655 C 63.1312 -0.51285 -3.57844 0
M  V30 656 O 62.8522 -1.85155 -3.97051 0
M  V30 657 C 64.3532 -0.107921 -4.43169 0
M  V30 658 H 61.5732 -0.169482 -0.649243 0
M  V30 659 H 64.1172 -1.1093 -1.71798 0
M  V30 660 H 62.2722 0.126474 -3.87193 0
M  V30 661 H 62.6862 -1.82482 -4.91732 0
M  V30 662 H 64.1602 -0.222657 -5.51551 0
M  V30 663 H 64.6372 0.948401 -4.28838 0
M  V30 664 H 65.2432 -0.720989 -4.19144 0
M  V30 665 N 63.5583 1.46682 -0.576371 0
M  V30 666 C 64.9693 1.86112 -0.148091 0
M  V30 667 C 65.3203 1.48073 1.2872 0
M  V30 668 O 64.4453 0.892656 1.97131 0
M  V30 669 C 65.0403 3.37786 -0.261982 0
M  V30 670 C 63.5993 3.76235 0.111384 0
M  V30 671 C 62.7463 2.70713 -0.60083 0
M  V30 672 H 65.6973 1.37927 -0.78497 0
M  V30 673 H 65.7183 3.77007 0.514364 0
M  V30 674 H 65.2303 3.6544 -1.30671 0
M  V30 675 H 63.3313 3.54198 1.15649 0
M  V30 676 H 63.4443 4.78391 -0.26052 0
M  V30 677 H 61.8083 2.54666 -0.0417783 0
M  V30 678 H 62.5913 3.01208 -1.64708 0
M  V30 679 N 65.0364 0.313813 1.54444 0
M  V30 680 C 66.2854 -0.292519 1.99568 0
M  V30 681 C 66.5984 -1.54011 1.20582 0
M  V30 682 O 67.8044 -2.22183 1.56035 0
M  V30 683 C 66.2604 -0.571752 3.55329 0
M  V30 684 C 65.8684 0.658229 4.43138 0
M  V30 685 C 67.6124 -1.13857 4.08946 0
M  V30 686 C 65.5194 0.351439 5.90355 0
M  V30 687 H 64.4494 -0.113079 0.745472 0
M  V30 688 H 67.1004 0.424518 1.78522 0
M  V30 689 H 65.4824 -1.34872 3.72325 0
M  V30 690 H 66.6564 1.43403 4.37918 0
M  V30 691 H 64.9714 1.14458 4.0036 0
M  V30 692 H 67.5684 -1.38257 5.16516 0
M  V30 693 H 67.9114 -2.08489 3.6033 0
M  V30 694 H 68.4444 -0.423015 3.95544 0
M  V30 695 H 65.1834 1.26667 6.43145 0
M  V30 696 H 64.7034 -0.386842 5.98551 0
M  V30 697 H 66.3824 -0.0423134 6.46986 0
M  V30 698 N 66.5145 -1.57545 0.0417849 0
M  V30 699 C 67.4615 -2.10977 -0.935805 0
M  V30 700 C 68.4315 -1.01486 -1.31491 0
M  V30 701 O 69.6165 -1.2898 -1.40602 0
M  V30 702 C 66.7565 -2.65169 -2.2086 0
M  V30 703 C 65.8695 -3.88714 -1.88482 0
M  V30 704 C 65.0045 -4.31254 -3.1015 0
M  V30 705 C 64.0435 -5.47524 -2.7365 0
M  V30 706 N 63.1805 -5.85162 -3.87982 0
M  V30 707 H 68.0205 -2.94218 -0.473249 0
M  V30 708 H 65.5575 -1.45415 -0.221981 0
M  V30 709 H 67.5155 -2.94685 -2.95325 0
M  V30 710 H 66.1455 -1.8474 -2.64709 0
M  V30 711 H 65.1975 -3.65849 -1.04205 0
M  V30 712 H 66.5095 -4.73245 -1.57608 0
M  V30 713 H 65.6635 -4.62273 -3.92923 0
M  V30 714 H 64.4025 -3.45516 -3.44195 0
M  V30 715 H 63.4075 -5.16187 -1.89291 0
M  V30 716 H 64.6325 -6.34971 -2.40807 0
M  V30 717 H 62.5785 -5.02377 -4.21846 0
M  V30 718 H 62.4955 -6.64362 -3.60775 0
M  V30 719 H 63.7635 -6.20791 -4.71422 0
M  V30 720 N 67.9926 0.231505 -1.5589 0
M  V30 721 C 68.9556 1.27028 -1.90779 0
M  V30 722 C 69.9556 1.40308 -0.785507 0
M  V30 723 O 71.1456 1.38744 -1.05336 0
M  V30 724 C 68.2776 2.64566 -2.14983 0
M  V30 725 H 69.4706 0.973017 -2.83677 0
M  V30 726 H 67.0236 0.471486 -1.49019 0
M  V30 727 H 67.7586 2.99406 -1.24604 0
M  V30 728 H 67.5436 2.56305 -2.96732 0
M  V30 729 H 69.0336 3.39543 -2.43105 0
M  V30 730 N 69.4707 1.49531 0.497807 0
M  V30 731 C 70.7477 1.49682 1.25915 0
M  V30 732 C 71.1277 0.226339 2.09883 0
M  V30 733 O 70.4757 -0.791189 2.14365 0
M  V30 734 C 70.6857 2.77755 2.11313 0
M  V30 735 C 72.0337 3.27371 2.70395 0
M  V30 736 O 73.0577 2.78894 2.21578 0
M  V30 737 O 71.9167 4.11808 3.59272 0
M  V30 738 H 69.0107 0.599228 0.56996 0
M  V30 739 H 71.5567 1.61798 0.511816 0
M  V30 740 H 70.3287 3.61713 1.49264 0
M  V30 741 H 69.9517 2.68515 2.93233 0
M  V30 742 N 70.9488 -0.749086 1.3866 0
M  V30 743 C 72.1978 -1.50371 1.3443 0
M  V30 744 C 72.5108 -1.95503 -0.0616397 0
M  V30 745 O 73.7168 -2.70554 -0.226489 0
M  V30 746 C 72.1728 -2.71644 2.36088 0
M  V30 747 C 71.7808 -2.3352 3.82325 0
M  V30 748 C 73.5248 -3.49518 2.40909 0
M  V30 749 C 71.4318 -3.51431 4.75658 0
M  V30 750 H 70.3618 -0.564628 0.499712 0
M  V30 751 H 73.0128 -0.818449 1.64237 0
M  V30 752 H 71.3948 -3.42175 1.9933 0
M  V30 753 H 72.5688 -1.70627 4.28046 0
M  V30 754 H 70.8838 -1.6877 3.80665 0
M  V30 755 H 73.4808 -4.37197 3.07836 0
M  V30 756 H 73.8238 -3.90992 1.42937 0
M  V30 757 H 74.3568 -2.86005 2.76489 0
M  V30 758 H 71.0958 -3.15019 5.74842 0
M  V30 759 H 70.6158 -4.13352 4.34627 0
M  V30 760 H 72.2948 -4.17953 4.93887 0
M  V30 761 N 72.4269 -1.23603 -0.977757 0
M  V30 762 C 73.6519 -1.09735 -1.75991 0
M  V30 763 C 74.0769 0.346858 -1.84874 0
M  V30 764 O 73.4349 1.25093 -1.3123 0
M  V30 765 C 73.4829 -1.73051 -3.16363 0
M  V30 766 O 72.5869 -0.994452 -4.0023 0
M  V30 767 H 71.9279 -0.384476 -0.541364 0
M  V30 768 H 74.4579 -1.6371 -1.2272 0
M  V30 769 H 74.4679 -1.78398 -3.66931 0
M  V30 770 H 73.1429 -2.78137 -3.09213 0
M  V30 771 H 71.7199 -1.01812 -3.58732 0
M  V30 772 N 73.905 1.17692 -1.04816 0
M  V30 773 C 75.153 1.87488 -0.754497 0
M  V30 774 C 75.474 1.81205 0.720407 0
M  V30 775 O 74.744 1.23544 1.52032 0
M  V30 776 H 73.324 0.694101 -0.276102 0
M  V30 777 H 75.986 1.42793 -1.32651 0
M  V30 778 H 75.082 2.93328 -1.06606 0
M  V30 779 N 75.3831 0.828654 1.34056 0
M  V30 780 C 76.3311 0.242973 2.31327 0
M  V30 781 C 77.3251 -0.61944 1.57668 0
M  V30 782 O 78.5311 -0.51014 1.7262 0
M  V30 783 H 74.9061 0.059834 0.749616 0
M  V30 784 H 76.8771 1.07809 2.78244 0
M  V30 785 C 75.6261 -0.575733 3.429 0
M  V30 786 H 74.9491 0.0785582 3.99723 0
M  V30 787 H 76.3891 -0.951547 4.13185 0
M  V30 788 C 74.8481 -1.75044 2.87856 0
M  V30 789 O 75.3781 -2.84882 2.83205 0
M  V30 790 N 73.5841 -1.56903 2.44602 0
M  V30 791 H 73.1311 -0.675547 2.48584 0
M  V30 792 H 73.0891 -2.35652 2.08124 0
M  V30 793 N 76.8612 -1.46375 0.584142 0
M  V30 794 C 78.1102 -2.01585 0.0679741 0
M  V30 795 C 78.4232 -1.46109 -1.30045 0
M  V30 796 O 79.6292 -1.93148 -1.90804 0
M  V30 797 C 78.0852 -3.5983 0.0709207 0
M  V30 798 C 77.6932 -4.24303 1.43775 0
M  V30 799 C 79.4372 -4.22693 -0.391228 0
M  V30 800 C 77.3442 -5.74631 1.39834 0
M  V30 801 H 76.2742 -0.753689 0.0216421 0
M  V30 802 H 78.9252 -1.68093 0.736001 0
M  V30 803 H 77.3072 -3.90405 -0.663299 0
M  V30 804 H 78.4812 -4.05335 2.19181 0
M  V30 805 H 76.7962 -3.73539 1.84004 0
M  V30 806 H 79.3932 -5.3289 -0.439524 0
M  V30 807 H 79.7362 -3.91728 -1.40906 0
M  V30 808 H 80.2692 -3.96749 0.288974 0
M  V30 809 H 77.0082 -6.10258 2.39303 0
M  V30 810 H 76.5282 -5.95858 0.686505 0
M  V30 811 H 78.2072 -6.37375 1.11187 0
M  V30 812 N 78.3393 -0.321999 -1.54275 0
M  V30 813 C 79.5673 0.283052 -2.04955 0
M  V30 814 C 79.9823 1.45904 -1.19823 0
M  V30 815 O 79.3393 1.81063 -0.228545 0
M  V30 816 C 79.3903 0.719028 -3.54277 0
M  V30 817 O 79.1113 -0.410175 -4.36176 0
M  V30 818 C 80.6123 1.38705 -4.21041 0
M  V30 819 H 77.8323 0.0584616 -0.668448 0
M  V30 820 H 80.3763 -0.467734 -1.99079 0
M  V30 821 H 78.5313 1.41979 -3.60445 0
M  V30 822 H 78.9453 -0.0669416 -5.24457 0
M  V30 823 H 80.4193 1.64306 -5.2698 0
M  V30 824 H 80.8963 2.33385 -3.72059 0
M  V30 825 H 81.5023 0.728906 -4.19007 0
M  V30 826 N 79.8174 1.5752 -0.0501392 0
M  V30 827 C 80.7644 2.1147 0.924603 0
M  V30 828 C 81.7344 1.02182 1.30951 0
M  V30 829 O 82.9194 1.29723 1.39916 0
M  V30 830 C 80.0594 2.66337 2.19451 0
M  V30 831 C 79.1724 3.89708 1.86418 0
M  V30 832 C 78.3074 4.32893 3.07859 0
M  V30 833 C 77.3464 5.48967 2.70742 0
M  V30 834 N 76.4834 5.87211 3.84874 0
M  V30 835 H 81.3234 2.94465 0.457639 0
M  V30 836 H 78.8604 1.45531 0.214266 0
M  V30 837 H 80.8184 2.96247 2.93758 0
M  V30 838 H 79.4484 1.86141 2.63726 0
M  V30 839 H 78.5004 3.66396 1.02264 0
M  V30 840 H 79.8124 4.74074 1.55096 0
M  V30 841 H 78.9664 4.6435 3.90466 0
M  V30 842 H 77.7054 3.47336 3.42358 0
M  V30 843 H 76.7104 5.17183 1.86551 0
M  V30 844 H 77.9354 6.3624 2.37436 0
M  V30 845 H 75.8814 5.04607 4.19175 0
M  V30 846 H 75.7984 6.66266 3.57247 0
M  V30 847 H 77.0664 6.23282 4.68123 0
M  V30 848 N 81.2955 -0.223234 1.56011 0
M  V30 849 C 82.5445 -0.945912 1.78144 0
M  V30 850 C 82.8575 -1.85567 0.618396 0
M  V30 851 O 84.0635 -2.61688 0.723318 0
M  V30 852 C 82.5195 -1.73216 3.15475 0
M  V30 853 C 82.1275 -0.868619 4.39499 0
M  V30 854 C 83.8715 -2.44615 3.46935 0
M  V30 855 C 81.7785 -1.65212 5.67855 0
M  V30 856 H 80.7085 -0.356929 0.664167 0
M  V30 857 H 83.3595 -0.199845 1.82409 0
M  V30 858 H 81.7415 -2.52107 3.05382 0
M  V30 859 H 82.9155 -0.120366 4.60643 0
M  V30 860 H 81.2305 -0.26683 4.15544 0
M  V30 861 H 83.8275 -3.03732 4.40058 0
M  V30 862 H 84.1705 -3.17417 2.69355 0
M  V30 863 H 84.7035 -1.72715 3.58349 0
M  V30 864 H 81.4425 -0.967407 6.48322 0
M  V30 865 H 80.9625 -2.37503 5.50774 0
M  V30 866 H 82.6415 -2.21322 6.07968 0
M  V30 867 N 82.7736 -1.49793 -0.48987 0
M  V30 868 C 83.7206 -1.67281 -1.59014 0
M  V30 869 C 84.6906 -0.514177 -1.57941 0
M  V30 870 O 85.8756 -0.742533 -1.75759 0
M  V30 871 C 83.0156 -1.75569 -2.97102 0
M  V30 872 C 82.1286 -3.0281 -3.08107 0
M  V30 873 C 81.2636 -3.02008 -4.36995 0
M  V30 874 C 80.3026 -4.23782 -4.41673 0
M  V30 875 N 79.4396 -4.20826 -5.62005 0
M  V30 876 H 84.2796 -2.61224 -1.43409 0
M  V30 877 H 81.8166 -1.29508 -0.697565 0
M  V30 878 H 83.7746 -1.78354 -3.77155 0
M  V30 879 H 82.4046 -0.850827 -3.11385 0
M  V30 880 H 81.4566 -3.09584 -2.21047 0
M  V30 881 H 82.7686 -3.92801 -3.07423 0
M  V30 882 H 81.9226 -3.03418 -5.25378 0
M  V30 883 H 80.6616 -2.09815 -4.4026 0
M  V30 884 H 79.6666 -4.22604 -3.5169 0
M  V30 885 H 80.8916 -5.17181 -4.40115 0
M  V30 886 H 78.8376 -3.31476 -5.66091 0
M  V30 887 H 78.7546 -5.04564 -5.62984 0
M  V30 888 H 80.0226 -4.26355 -6.52565 0
M  V30 889 N 84.2517 0.741722 -1.39055 0
M  V30 890 C 85.2147 1.83733 -1.37021 0
M  V30 891 C 86.2147 1.58542 -0.268534 0
M  V30 892 O 87.4047 1.66067 -0.526076 0
M  V30 893 C 84.5367 3.2141 -1.13617 0
M  V30 894 H 85.7297 1.86941 -2.34506 0
M  V30 895 H 83.2827 0.944676 -1.24521 0
M  V30 896 H 84.0177 3.23865 -0.167863 0
M  V30 897 H 83.8027 3.4109 -1.93391 0
M  V30 898 H 85.2927 4.01477 -1.14918 0
M  V30 899 N 85.7298 1.2412 0.971189 0
M  V30 900 C 86.9758 1.08041 1.71625 0
M  V30 901 C 87.3088 -0.380407 1.90438 0
M  V30 902 O 86.5838 -1.28127 1.46334 0
M  V30 903 C 86.8668 1.81682 3.10908 0
M  V30 904 C 86.7198 3.35493 2.99608 0
M  V30 905 C 88.0388 1.58671 4.10501 0
M  V30 906 H 85.1578 0.39388 0.622919 0
M  V30 907 H 87.7998 1.52743 1.13003 0
M  V30 908 H 85.9498 1.43684 3.60953 0
M  V30 909 H 87.6218 3.83068 2.57015 0
M  V30 910 H 85.8648 3.64052 2.35899 0
M  V30 911 H 86.5358 3.82217 3.98264 0
M  V30 912 H 89.0118 1.91719 3.69301 0
M  V30 913 H 87.8878 2.1266 5.06031 0
M  V30 914 H 88.1488 0.524161 4.38982 0
M  V30 915 N 87.2079 -1.17134 1.05439 0
M  V30 916 C 88.4379 -1.91094 0.785274 0
M  V30 917 C 88.8459 -1.77198 -0.663142 0
M  V30 918 O 88.1889 -1.10835 -1.46497 0
M  V30 919 C 88.2509 -3.42594 1.08949 0
M  V30 920 C 87.9149 -3.80274 2.53458 0
M  V30 921 C 88.9119 -3.82912 3.51673 0
M  V30 922 C 86.5969 -4.11162 2.88532 0
M  V30 923 C 88.5909 -4.15913 4.83006 0
M  V30 924 C 86.2779 -4.43831 4.20068 0
M  V30 925 C 87.2759 -4.46185 5.17115 0
M  V30 926 O 86.9639 -4.78083 6.46291 0
M  V30 927 H 86.6959 -0.613073 0.284811 0
M  V30 928 H 89.2499 -1.49461 1.40893 0
M  V30 929 H 87.4799 -3.84534 0.408741 0
M  V30 930 H 89.1689 -3.97817 0.805991 0
M  V30 931 H 89.9349 -3.5917 3.25917 0
M  V30 932 H 85.8139 -4.085 2.13656 0
M  V30 933 H 89.3579 -4.17665 5.5875 0
M  V30 934 H 85.2549 -4.67037 4.45586 0
M  V30 935 H 86.0229 -4.9593 6.51149 0
M  V30 936 N 88.686 -0.835752 -1.33615 0
M  V30 937 C 89.963 -0.352017 -1.92406 0
M  V30 938 C 90.343 1.16225 -1.76224 0
M  V30 939 O 89.691 1.97526 -1.14873 0
M  V30 940 C 89.901 -0.795485 -3.39813 0
M  V30 941 C 91.249 -0.801703 -4.16963 0
M  V30 942 O 92.273 -0.738889 -3.48452 0
M  V30 943 O 91.132 -0.886607 -5.3926 0
M  V30 944 H 88.226 -0.0989641 -0.821057 0
M  V30 945 H 90.772 -0.921397 -1.42507 0
M  V30 946 H 89.544 -1.83795 -3.45449 0
M  V30 947 H 89.167 -0.202505 -3.97084 0
M  V30 948 N 90.1641 1.46063 -0.591896 0
M  V30 949 C 91.3921 2.06717 -0.0868936 0
M  V30 950 C 91.8071 1.43916 1.22203 0
M  V30 951 O 91.1641 0.547698 1.74088 0
M  V30 952 C 91.2151 3.6142 0.0758725 0
M  V30 953 O 90.9361 4.21874 -1.18126 0
M  V30 954 C 92.4371 4.39025 0.61416 0
M  V30 955 H 89.6571 0.668162 -0.0616518 0
M  V30 956 H 92.2011 1.8755 -0.815175 0
M  V30 957 H 90.3561 3.79983 0.754413 0
M  V30 958 H 90.7701 5.14861 -1.00092 0
M  V30 959 H 92.2441 5.4783 0.677193 0
M  V30 960 H 92.7211 4.07708 1.63312 0
M  V30 961 H 93.3271 4.2529 -0.0298142 0
M  V30 962 N 91.6422 0.330177 1.54103 0
M  V30 963 C 92.5902 -0.548226 2.26047 0
M  V30 964 C 93.5842 -1.11309 1.27698 0
M  V30 965 O 94.7902 -1.06036 1.45452 0
M  V30 966 H 91.1652 -0.195456 0.726155 0
M  V30 967 H 93.1362 0.0807567 2.98291 0
M  V30 968 C 91.8852 -1.69415 3.03634 0
M  V30 969 H 91.2082 -1.26876 3.79134 0
M  V30 970 H 92.6482 -2.28423 3.5721 0
M  V30 971 C 91.1072 -2.61569 2.12328 0
M  V30 972 O 91.6372 -3.63462 1.7105 0
M  V30 973 N 89.8432 -2.29952 1.77681 0
M  V30 974 H 89.3902 -1.47134 2.11446 0
M  V30 975 H 89.3482 -2.91871 1.16869 0
M  V30 976 N 93.1203 -1.57491 0.0584922 0
M  V30 977 C 94.5313 -1.80526 -0.476138 0
M  V30 978 C 94.8823 -0.971334 -1.70469 0
M  V30 979 O 94.0073 -0.190012 -2.15564 0
M  V30 980 C 94.6023 -3.27424 -0.870587 0
M  V30 981 C 93.1613 -3.51351 -1.35015 0
M  V30 982 C 92.3083 -2.75343 -0.32887 0
M  V30 983 H 95.2593 -1.56133 0.284312 0
M  V30 984 H 95.2803 -3.38745 -1.73299 0
M  V30 985 H 94.7923 -3.88093 0.0237627 0
M  V30 986 H 92.8933 -2.95971 -2.26345 0
M  V30 987 H 93.0063 -4.60059 -1.33726 0
M  V30 988 H 91.3703 -2.417 -0.803321 0
M  V30 989 H 92.1533 -3.38743 0.557521 0
M  V30 990 N 94.5984 0.214957 -1.56127 0
M  V30 991 C 95.5614 1.24997 -1.92116 0
M  V30 992 C 96.5614 1.39467 -0.800344 0
M  V30 993 O 97.7514 1.37619 -1.06802 0
M  V30 994 C 94.8834 2.62271 -2.17777 0
M  V30 995 H 96.0764 0.942875 -2.84693 0
M  V30 996 H 93.6294 0.455654 -1.49511 0
M  V30 997 H 94.3644 2.98068 -1.27773 0
M  V30 998 H 94.1494 2.53143 -2.99434 0
M  V30 999 H 95.6394 3.36946 -2.46693 0
M  V30 1000 N 96.0765 1.50051 0.48192 0
M  V30 1001 C 97.0235 1.68122 1.58125 0
M  V30 1002 C 97.9935 0.522545 1.57666 0
M  V30 1003 O 99.1785 0.751844 1.75362 0
M  V30 1004 C 96.3185 1.77142 2.96167 0
M  V30 1005 C 95.4315 3.0444 3.06497 0
M  V30 1006 C 94.5665 3.04321 4.35387 0
M  V30 1007 C 93.6055 4.26118 4.3942 0
M  V30 1008 N 92.7425 4.238 5.59766 0
M  V30 1009 H 97.5825 2.6198 1.42022 0
M  V30 1010 H 95.1195 1.29877 0.690687 0
M  V30 1011 H 97.0775 1.80352 3.76203 0
M  V30 1012 H 95.7075 0.867329 3.1093 0
M  V30 1013 H 94.7595 3.10752 2.19402 0
M  V30 1014 H 96.0715 3.94426 3.05336 0
M  V30 1015 H 95.2255 3.062 5.23762 0
M  V30 1016 H 93.9645 2.12147 4.39141 0
M  V30 1017 H 92.9695 4.24463 3.49444 0
M  V30 1018 H 94.1945 5.19507 4.37366 0
M  V30 1019 H 92.1405 3.34474 5.64326 0
M  V30 1020 H 92.0575 5.07542 5.60301 0
M  V30 1021 H 93.3255 4.2981 6.50295 0
M  V30 1022 N 97.5546 -0.734337 1.39446 0
M  V30 1023 C 98.8016 -1.49391 1.36706 0
M  V30 1024 C 99.1296 -1.94465 -0.0367813 0
M  V30 1025 O 98.3846 -1.67154 -1.01774 0
M  V30 1026 C 98.6836 -2.74711 2.28623 0
M  V30 1027 C 98.3496 -2.48501 3.76242 0
M  V30 1028 C 97.0116 -2.41062 4.16464 0
M  V30 1029 C 99.3636 -2.26098 4.69606 0
M  V30 1030 C 96.6916 -2.09262 5.48112 0
M  V30 1031 C 99.0436 -1.95814 6.01531 0
M  V30 1032 C 97.7076 -1.86845 6.40816 0
M  V30 1033 H 96.9776 -0.546661 0.500243 0
M  V30 1034 H 99.6246 -0.842788 1.71957 0
M  V30 1035 H 97.9296 -3.44569 1.86492 0
M  V30 1036 H 99.6266 -3.32741 2.23796 0
M  V30 1037 H 96.2166 -2.55169 3.44364 0
M  V30 1038 H 100.401 -2.30812 4.39363 0
M  V30 1039 H 95.6566 -2.00841 5.77471 0
M  V30 1040 H 99.8306 -1.77488 6.73403 0
M  V30 1041 H 97.4576 -1.6197 7.42745 0
M  V30 1042 N 99.0327 -1.24633 -0.964593 0
M  V30 1043 C 100.449 -1.01239 -1.2338 0
M  V30 1044 C 100.649 0.2769 -1.99588 0
M  V30 1045 O 99.7047 0.992241 -2.32187 0
M  V30 1046 C 101.018 -2.22937 -2.01791 0
M  V30 1047 C 102.566 -2.27594 -2.14872 0
M  V30 1048 C 103.041 -3.48921 -2.96678 0
M  V30 1049 N 104.532 -3.49257 -3.04259 0
M  V30 1050 C 105.267 -4.39795 -3.67924 0
M  V30 1051 N 104.763 -5.40591 -4.33281 0
M  V30 1052 N 106.556 -4.275 -3.64966 0
M  V30 1053 H 98.7067 -2.0748 -0.454502 0
M  V30 1054 H 100.97 -0.910647 -0.26349 0
M  V30 1055 H 100.676 -3.16587 -1.53184 0
M  V30 1056 H 100.55 -2.25306 -3.02518 0
M  V30 1057 H 102.937 -1.34473 -2.6268 0
M  V30 1058 H 103.018 -2.2925 -1.13482 0
M  V30 1059 H 102.662 -4.42359 -2.49562 0
M  V30 1060 H 102.592 -3.4451 -3.98272 0
M  V30 1061 H 105.083 -2.76337 -2.57771 0
M  V30 1062 H 105.396 -6.05904 -4.79687 0
M  V30 1063 H 103.741 -5.44475 -4.3194 0
M  V30 1064 H 106.932 -3.47987 -3.13086 0
M  V30 1065 H 107.105 -4.98258 -4.14298 0
M  V30 1066 N 100.511 1.16574 -1.06058 0
M  V30 1067 C 101.739 1.90952 -0.796552 0
M  V30 1068 C 102.154 1.77302 0.648808 0
M  V30 1069 O 101.511 1.11605 1.44397 0
M  V30 1070 C 101.562 3.41736 -1.17894 0
M  V30 1071 O 101.283 3.54975 -2.56758 0
M  V30 1072 C 102.784 4.33169 -0.942308 0
M  V30 1073 H 100.004 0.605594 -0.288959 0
M  V30 1074 H 102.548 1.47777 -1.41358 0
M  V30 1075 H 100.703 3.82623 -0.606491 0
M  V30 1076 H 101.117 4.4846 -2.72 0
M  V30 1077 H 102.591 5.37439 -1.25952 0
M  V30 1078 H 103.068 4.3903 0.122078 0
M  V30 1079 H 103.674 3.98007 -1.49902 0
M  V30 1080 N 101.989 0.842826 1.3317 0
M  V30 1081 C 102.919 0.294028 2.31641 0
M  V30 1082 C 103.9 -0.600401 1.59151 0
M  V30 1083 O 105.085 -0.523124 1.87022 0
M  V30 1084 C 102.215 -0.528416 3.43257 0
M  V30 1085 C 101.169 0.27056 4.27144 0
M  V30 1086 C 100.495 -0.675881 5.30411 0
M  V30 1087 C 101.795 1.48981 5.00602 0
M  V30 1088 H 103.489 1.11681 2.77791 0
M  V30 1089 H 101.035 0.538478 1.33553 0
M  V30 1090 H 102.988 -0.922674 4.11175 0
M  V30 1091 H 101.712 -1.38445 2.95805 0
M  V30 1092 H 100.371 0.646427 3.60856 0
M  V30 1093 H 100.019 -1.52842 4.79216 0
M  V30 1094 H 99.7189 -0.145374 5.8742 0
M  V30 1095 H 101.243 -1.06757 6.01195 0
M  V30 1096 H 102.657 1.16849 5.61266 0
M  V30 1097 H 101.054 1.95739 5.6728 0
M  V30 1098 H 102.124 2.25746 4.29147 0
M  V30 1099 N 103.467 -1.45747 0.599634 0
M  V30 1100 C 104.399 -2.28628 -0.161879 0
M  V30 1101 C 105.412 -1.39494 -0.839367 0
M  V30 1102 O 106.601 -1.63941 -0.706089 0
M  V30 1103 C 103.701 -3.15014 -1.24976 0
M  V30 1104 C 102.874 -4.32378 -0.660935 0
M  V30 1105 C 101.933 -5.00033 -1.63869 0
M  V30 1106 O 100.959 -5.57085 -1.1681 0
M  V30 1107 N 102.161 -4.98589 -2.97303 0
M  V30 1108 H 104.926 -2.94624 0.549265 0
M  V30 1109 H 102.487 -1.55847 0.438565 0
M  V30 1110 H 104.479 -3.5714 -1.9035 0
M  V30 1111 H 103.049 -2.5098 -1.86354 0
M  V30 1112 H 102.269 -3.9383 0.170688 0
M  V30 1113 H 103.557 -5.08197 -0.247619 0
M  V30 1114 H 102.955 -4.53514 -3.38145 0
M  V30 1115 H 101.512 -5.44603 -3.58121 0
M  V30 1116 N 104.945 -0.338344 -1.53925 0
M  V30 1117 C 105.893 0.536231 -2.26335 0
M  V30 1118 C 106.887 1.1063 -1.28286 0
M  V30 1119 O 108.093 1.05264 -1.46012 0
M  V30 1120 H 104.468 0.191602 -0.727181 0
M  V30 1121 H 106.439 -0.0965747 -2.98244 0
M  V30 1122 C 105.188 1.67803 -3.04528 0
M  V30 1123 H 104.511 1.24864 -3.79801 0
M  V30 1124 H 105.951 2.26526 -3.58416 0
M  V30 1125 C 104.41 2.60439 -2.13712 0
M  V30 1126 O 104.94 3.6255 -1.72975 0
M  V30 1127 N 103.146 2.29006 -1.78898 0
M  V30 1128 H 102.693 1.46011 -2.12223 0
M  V30 1129 H 102.651 2.91248 -1.18416 0
M  V30 1130 N 106.423 1.57458 -0.0668435 0
M  V30 1131 C 107.672 1.92477 0.602947 0
M  V30 1132 C 107.985 0.948419 1.71068 0
M  V30 1133 O 109.191 1.19124 2.43971 0
M  V30 1134 C 107.647 3.41903 1.12383 0
M  V30 1135 C 107.255 4.47975 0.04737 0
M  V30 1136 C 108.999 3.85931 1.76797 0
M  V30 1137 C 106.906 5.88529 0.582022 0
M  V30 1138 H 105.836 0.718387 0.22899 0
M  V30 1139 H 108.487 1.82978 -0.138276 0
M  V30 1140 H 106.869 3.46459 1.91787 0
M  V30 1141 H 108.043 4.55029 -0.726978 0
M  V30 1142 H 106.358 4.13384 -0.500243 0
M  V30 1143 H 108.955 4.88322 2.17821 0
M  V30 1144 H 109.298 3.23029 2.62599 0
M  V30 1145 H 109.831 3.83958 1.04024 0
M  V30 1146 H 106.57 6.55065 -0.238721 0
M  V30 1147 H 106.09 5.85004 1.324 0
M  V30 1148 H 107.769 6.38258 1.05999 0
M  V30 1149 N 107.901 -0.206675 1.56239 0
M  V30 1150 C 108.831 -1.25909 1.96645 0
M  V30 1151 C 109.812 -1.48097 0.836734 0
M  V30 1152 O 110.997 -1.6003 1.10019 0
M  V30 1153 C 108.127 -2.6058 2.29599 0
M  V30 1154 C 107.081 -2.53024 3.452 0
M  V30 1155 C 106.407 -3.91861 3.63798 0
M  V30 1156 C 107.707 -2.06524 4.79734 0
M  V30 1157 H 109.401 -0.923369 2.84806 0
M  V30 1158 H 106.947 -0.442735 1.37025 0
M  V30 1159 H 108.9 -3.34375 2.56459 0
M  V30 1160 H 107.624 -2.95869 1.38307 0
M  V30 1161 H 106.283 -1.81684 3.18412 0
M  V30 1162 H 105.931 -4.24483 2.69857 0
M  V30 1163 H 105.631 -3.87683 4.4156 0
M  V30 1164 H 107.155 -4.67296 3.93022 0
M  V30 1165 H 108.569 -2.70072 5.05702 0
M  V30 1166 H 106.966 -2.13374 5.60885 0
M  V30 1167 H 108.036 -1.01802 4.74093 0
M  V30 1168 N 109.379 -1.50304 -0.473955 0
M  V30 1169 C 110.289 -1.7174 -1.5982 0
M  V30 1170 C 111.305 -0.600457 -1.63311 0
M  V30 1171 O 112.481 -0.878441 -1.81233 0
M  V30 1172 C 109.546 -1.80427 -2.96052 0
M  V30 1173 C 108.607 -3.04148 -3.02972 0
M  V30 1174 C 107.84 -3.12411 -4.32706 0
M  V30 1175 O 108.063 -2.27542 -5.23049 0
M  V30 1176 O 106.997 -4.05113 -4.45159 0
M  V30 1177 H 110.823 -2.67035 -1.44657 0
M  V30 1178 H 108.408 -1.34366 -0.653148 0
M  V30 1179 H 110.29 -1.88338 -3.7697 0
M  V30 1180 H 108.965 -0.883156 -3.11419 0
M  V30 1181 H 107.872 -3.0174 -2.21142 0
M  V30 1182 H 109.205 -3.95829 -2.92541 0
M  V30 1183 N 110.857 0.726932 -1.39834 0
M  V30 1184 C 112.103 1.48884 -1.377 0
M  V30 1185 C 112.436 1.94185 0.0244852 0
M  V30 1186 O 111.711 1.67361 0.990986 0
M  V30 1187 C 111.994 2.72288 -2.3565 0
M  V30 1188 C 111.847 2.32956 -3.84775 0
M  V30 1189 C 113.166 3.74414 -2.31306 0
M  V30 1190 H 110.285 0.540062 -0.5015 0
M  V30 1191 H 112.927 0.830547 -1.70886 0
M  V30 1192 H 111.077 3.28457 -2.07481 0
M  V30 1193 H 112.749 1.82356 -4.23726 0
M  V30 1194 H 110.992 1.65088 -4.01159 0
M  V30 1195 H 111.663 3.21362 -4.4881 0
M  V30 1196 H 114.139 3.27849 -2.56231 0
M  V30 1197 H 113.015 4.58414 -3.01907 0
M  V30 1198 H 113.276 4.21909 -1.32081 0
M  V30 1199 N 112.336 1.25143 0.95797 0
M  V30 1200 C 113.246 1.06968 2.08794 0
M  V30 1201 C 114.262 0.00773911 1.73998 0
M  V30 1202 O 115.438 0.207972 2.00323 0
M  V30 1203 C 112.503 0.68691 3.39827 0
M  V30 1204 C 111.564 1.82641 3.88511 0
M  V30 1205 C 110.797 1.46181 5.1329 0
M  V30 1206 O 111.02 0.355971 5.69288 0
M  V30 1207 O 109.954 2.29085 5.566 0
M  V30 1208 H 113.78 2.01723 2.27027 0
M  V30 1209 H 111.365 1.04051 1.07209 0
M  V30 1210 H 113.247 0.485417 4.18595 0
M  V30 1211 H 111.922 -0.231417 3.22872 0
M  V30 1212 H 110.829 2.08274 3.10762 0
M  V30 1213 H 112.162 2.72386 4.09959 0
M  V30 1214 N 113.814 -1.1601 1.06675 0
M  V30 1215 C 114.761 -2.20525 0.680967 0
M  V30 1216 C 115.731 -1.62904 -0.324283 0
M  V30 1217 O 116.916 -1.89615 -0.212294 0
M  V30 1218 C 114.056 -3.45013 0.0776551 0
M  V30 1219 C 113.169 -4.16863 1.13355 0
M  V30 1220 C 112.304 -5.2888 0.49597 0
M  V30 1221 C 111.343 -5.92537 1.53513 0
M  V30 1222 N 110.48 -6.96038 0.920631 0
M  V30 1223 H 115.32 -2.52876 1.57663 0
M  V30 1224 H 112.857 -1.24199 0.788223 0
M  V30 1225 H 114.815 -4.16193 -0.289704 0
M  V30 1226 H 113.445 -3.132 -0.781393 0
M  V30 1227 H 112.497 -3.44248 1.61857 0
M  V30 1228 H 113.809 -4.60294 1.92174 0
M  V30 1229 H 112.963 -6.06653 0.0758604 0
M  V30 1230 H 111.702 -4.86622 -0.324062 0
M  V30 1231 H 110.707 -5.13482 1.9651 0
M  V30 1232 H 111.932 -6.36873 2.35733 0
M  V30 1233 H 109.878 -6.55888 0.12138 0
M  V30 1234 H 109.795 -7.3786 1.64616 0
M  V30 1235 H 111.063 -7.77725 0.525795 0
M  V30 1236 N 115.292 -0.849877 -1.32721 0
M  V30 1237 C 116.202 -0.293791 -2.32753 0
M  V30 1238 C 117.218 0.585906 -1.63839 0
M  V30 1239 O 118.394 0.487413 -1.95413 0
M  V30 1240 C 115.459 0.512752 -3.42887 0
M  V30 1241 C 114.52 -0.39252 -4.27502 0
M  V30 1242 C 113.753 0.375625 -5.32377 0
M  V30 1243 O 113.976 1.60613 -5.4732 0
M  V30 1244 O 112.91 -0.256094 -6.01355 0
M  V30 1245 H 116.736 -1.12242 -2.82197 0
M  V30 1246 H 114.321 -0.612685 -1.36259 0
M  V30 1247 H 116.203 0.970704 -4.10067 0
M  V30 1248 H 114.878 1.31826 -2.95641 0
M  V30 1249 H 113.785 -0.898547 -3.63149 0
M  V30 1250 H 115.118 -1.16309 -4.7826 0
M  V30 1251 N 116.77 1.45427 -0.607355 0
M  V30 1252 C 117.703 2.27635 0.160482 0
M  V30 1253 C 118.681 1.37122 0.873857 0
M  V30 1254 O 119.865 1.66551 0.882775 0
M  V30 1255 C 116.992 3.15486 1.23231 0
M  V30 1256 C 116.038 4.21939 0.622097 0
M  V30 1257 S 116.871 5.32459 -0.569852 0
M  V30 1258 C 118.027 6.23879 0.502577 0
M  V30 1259 H 118.26 2.9241 -0.536983 0
M  V30 1260 H 115.793 1.49265 -0.394868 0
M  V30 1261 H 117.751 3.66659 1.84585 0
M  V30 1262 H 116.412 2.49977 1.90185 0
M  V30 1263 H 115.605 4.8333 1.42856 0
M  V30 1264 H 115.207 3.73906 0.0837063 0
M  V30 1265 H 117.499 6.63261 1.38171 0
M  V30 1266 H 118.442 7.0806 -0.0751759 0
M  V30 1267 H 118.85 5.58545 0.8178 0
M  V30 1268 N 118.248 0.346503 1.53744 0
M  V30 1269 C 119.478 -0.250047 2.05081 0
M  V30 1270 C 119.886 -1.44529 1.22098 0
M  V30 1271 O 119.229 -1.81992 0.249917 0
M  V30 1272 C 119.291 -0.725934 3.52094 0
M  V30 1273 C 118.955 0.350053 4.55657 0
M  V30 1274 C 119.952 1.19372 5.0601 0
M  V30 1275 C 117.637 0.504827 4.99757 0
M  V30 1276 C 119.631 2.17768 5.99046 0
M  V30 1277 C 117.318 1.49218 5.92602 0
M  V30 1278 C 118.316 2.32706 6.42135 0
M  V30 1279 O 118.004 3.2976 7.33153 0
M  V30 1280 H 117.736 -0.0515469 0.674032 0
M  V30 1281 H 120.29 0.497559 1.99282 0
M  V30 1282 H 118.52 -1.52483 3.55367 0
M  V30 1283 H 120.209 -1.24336 3.86388 0
M  V30 1284 H 120.975 1.08525 4.72702 0
M  V30 1285 H 116.854 -0.135178 4.60802 0
M  V30 1286 H 120.398 2.82971 6.37631 0
M  V30 1287 H 116.295 1.6012 6.25325 0
M  V30 1288 H 117.063 3.25265 7.51096 0
M  V30 1289 N 119.726 -1.57421 0.075193 0
M  V30 1290 C 120.974 -1.93236 -0.591974 0
M  V30 1291 C 121.295 -0.956241 -1.69944 0
M  V30 1292 O 120.565 -0.00494792 -1.95899 0
M  V30 1293 H 119.145 -0.713355 -0.22166 0
M  V30 1294 H 121.807 -1.9444 0.133848 0
M  V30 1295 H 120.903 -2.95131 -1.01509 0
M  V30 1296 N 121.204 0.198386 -1.56346 0
M  V30 1297 C 122.167 1.22952 -1.93431 0
M  V30 1298 C 123.167 1.38611 -0.815092 0
M  V30 1299 O 124.357 1.36479 -1.08255 0
M  V30 1300 C 121.489 2.59946 -2.20546 0
M  V30 1301 H 122.682 0.912626 -2.85677 0
M  V30 1302 H 120.235 0.43977 -1.49986 0
M  V30 1303 H 120.97 2.96696 -1.30927 0
M  V30 1304 H 120.755 2.49953 -3.02102 0
M  V30 1305 H 122.245 3.3431 -2.50253 0
M  V30 1306 N 122.682 1.50554 0.465978 0
M  V30 1307 C 123.592 1.72585 1.58907 0
M  V30 1308 C 124.608 0.60911 1.6299 0
M  V30 1309 O 125.784 0.88804 1.80765 0
M  V30 1310 C 122.849 1.81995 2.95091 0
M  V30 1311 C 121.91 3.05751 3.01355 0
M  V30 1312 C 121.143 3.14702 4.31043 0
M  V30 1313 O 121.366 2.30313 5.21835 0
M  V30 1314 O 120.3 4.07468 4.43005 0
M  V30 1315 H 124.126 2.67799 1.43239 0
M  V30 1316 H 121.711 1.34711 0.646013 0
M  V30 1317 H 123.593 1.90335 3.75966 0
M  V30 1318 H 122.268 0.899659 3.10947 0
M  V30 1319 H 121.175 3.02908 2.19539 0
M  V30 1320 H 122.508 3.97375 2.90437 0
M  V30 1321 N 124.16 -0.719506 1.40217 0
M  V30 1322 C 125.406 -1.48034 1.39491 0
M  V30 1323 C 125.761 -1.92399 -0.00443536 0
M  V30 1324 O 125.054 -1.64993 -0.974061 0
M  V30 1325 C 125.248 -2.72271 2.31524 0
M  V30 1326 C 125.077 -2.40055 3.80268 0
M  V30 1327 C 123.847 -2.31588 4.49105 0
M  V30 1328 C 126.045 -2.04581 4.71859 0
M  V30 1329 N 124.027 -1.92006 5.83101 0
M  V30 1330 C 125.398 -1.75568 5.94623 0
M  V30 1331 C 127.453 -1.91183 4.59732 0
M  V30 1332 C 126.156 -1.34505 7.06612 0
M  V30 1333 C 128.182 -1.51524 5.71659 0
M  V30 1334 C 127.544 -1.23406 6.93506 0
M  V30 1335 H 123.643 -0.539927 0.565688 0
M  V30 1336 H 126.227 -0.834764 1.75897 0
M  V30 1337 H 124.398 -3.34584 1.97251 0
M  V30 1338 H 126.13 -3.38584 2.21682 0
M  V30 1339 H 122.885 -2.49199 4.02737 0
M  V30 1340 H 123.309 -1.74764 6.54054 0
M  V30 1341 H 127.951 -2.11584 3.66049 0
M  V30 1342 H 125.669 -1.12846 8.00182 0
M  V30 1343 H 129.255 -1.41741 5.6427 0
M  V30 1344 H 128.135 -0.931788 7.78645 0
M  V30 1345 N 125.638 -1.25649 -0.95132 0
M  V30 1346 C 127.049 -1.09654 -1.51106 0
M  V30 1347 C 127.4 0.326615 -1.93462 0
M  V30 1348 O 126.525 1.21697 -1.78938 0
M  V30 1349 C 127.12 -1.98437 -2.74605 0
M  V30 1350 C 125.679 -1.86618 -3.2688 0
M  V30 1351 C 124.826 -1.9239 -1.99703 0
M  V30 1352 H 127.777 -1.38887 -0.767865 0
M  V30 1353 H 127.798 -1.5263 -3.48546 0
M  V30 1354 H 127.31 -3.02009 -2.43746 0
M  V30 1355 H 125.411 -0.859421 -3.62553 0
M  V30 1356 H 125.524 -2.71607 -3.94673 0
M  V30 1357 H 123.888 -1.36317 -2.15151 0
M  V30 1358 H 124.671 -2.97573 -1.71188 0
M  V30 1359 N 127.117 1.15442 -1.07289 0
M  V30 1360 C 128.064 2.20161 -0.692653 0
M  V30 1361 C 129.034 1.63073 0.31564 0
M  V30 1362 O 130.219 1.89725 0.202235 0
M  V30 1363 C 127.359 3.44967 -0.0959509 0
M  V30 1364 C 126.472 4.16256 -1.15564 0
M  V30 1365 C 125.607 5.28609 -0.524011 0
M  V30 1366 C 124.646 5.91715 -1.56653 0
M  V30 1367 N 123.783 6.9554 -0.957531 0
M  V30 1368 H 128.623 2.52037 -1.59002 0
M  V30 1369 H 126.16 1.2378 -0.794798 0
M  V30 1370 H 128.118 4.16341 0.267628 0
M  V30 1371 H 126.748 3.1361 0.764772 0
M  V30 1372 H 125.8 3.43385 -1.6368 0
M  V30 1373 H 127.112 4.59268 -1.94613 0
M  V30 1374 H 126.266 6.06604 -0.108032 0
M  V30 1375 H 125.005 4.86787 0.29825 0
M  V30 1376 H 124.01 5.12433 -1.9923 0
M  V30 1377 H 125.235 6.35614 -2.39107 0
M  V30 1378 H 123.181 6.55814 -0.156162 0
M  V30 1379 H 123.098 7.36977 -1.68526 0
M  V30 1380 H 124.366 7.77435 -0.567032 0
M  V30 1381 N 128.595 0.856903 1.32268 0
M  V30 1382 C 129.841 0.462069 1.97466 0
M  V30 1383 C 130.174 -0.980298 1.67642 0
M  V30 1384 O 129.449 -1.68824 0.965858 0
M  V30 1385 C 129.732 0.704336 3.53145 0
M  V30 1386 C 129.585 2.19529 3.9259 0
M  V30 1387 C 130.904 0.1622 4.39801 0
M  V30 1388 H 128.023 0.169357 0.717278 0
M  V30 1389 H 130.665 1.07574 1.56614 0
M  V30 1390 H 128.815 0.181999 3.88073 0
M  V30 1391 H 130.487 2.78387 3.67829 0
M  V30 1392 H 128.73 2.67292 3.41668 0
M  V30 1393 H 129.401 2.31549 5.01088 0
M  V30 1394 H 131.877 0.608905 4.11621 0
M  V30 1395 H 130.753 0.361265 5.4771 0
M  V30 1396 H 131.014 -0.935158 4.32096 0
M  V30 1397 N 130.073 -1.45103 0.615059 0
M  V30 1398 C 131.321 -2.01784 0.112955 0
M  V30 1399 C 131.642 -1.48504 -1.26378 0
M  V30 1400 O 130.912 -0.682245 -1.83636 0
M  V30 1401 H 129.492 -0.745993 0.0387668 0
M  V30 1402 H 132.154 -1.77808 0.798141 0
M  V30 1403 H 131.25 -3.12025 0.0684069 0
M  V30 1404 N 131.551 -0.354651 -1.53558 0
M  V30 1405 C 132.514 0.484566 -2.24019 0
M  V30 1406 C 133.514 1.01861 -1.24422 0
M  V30 1407 O 134.704 0.906097 -1.4878 0
M  V30 1408 C 131.836 1.67615 -2.96847 0
M  V30 1409 H 133.029 -0.131843 -2.9961 0
M  V30 1410 H 130.582 -0.106165 -1.55939 0
M  V30 1411 H 131.317 2.33095 -2.25471 0
M  V30 1412 H 131.102 1.30029 -3.69912 0
M  V30 1413 H 132.592 2.27114 -3.50441 0
M  V30 1414 N 133.029 1.57378 -0.0835403 0
M  V30 1415 C 134.257 1.98263 0.59157 0
M  V30 1416 C 134.672 0.962302 1.62435 0
M  V30 1417 O 134.029 -0.049581 1.82433 0
M  V30 1418 C 134.08 3.39214 1.24965 0
M  V30 1419 O 133.801 4.37339 0.258186 0
M  V30 1420 C 135.302 3.95038 2.01147 0
M  V30 1421 H 132.522 0.651773 0.159477 0
M  V30 1422 H 135.066 2.03878 -0.159415 0
M  V30 1423 H 133.221 3.34649 1.95164 0
M  V30 1424 H 133.635 5.19371 0.731734 0
M  V30 1425 H 135.109 4.95848 2.42567 0
M  V30 1426 H 135.586 3.32222 2.87272 0
M  V30 1427 H 136.192 4.0304 1.35789 0
M  V30 1428 N 134.507 -0.190092 1.56449 0
M  V30 1429 C 135.437 -1.23816 1.97969 0
M  V30 1430 C 136.418 -1.47201 0.852395 0
M  V30 1431 O 137.603 -1.58854 1.1171 0
M  V30 1432 C 134.733 -2.5813 2.3235 0
M  V30 1433 C 133.687 -2.49348 3.47864 0
M  V30 1434 C 133.013 -3.8798 3.67934 0
M  V30 1435 C 134.313 -2.01424 4.81898 0
M  V30 1436 H 136.007 -0.89311 2.85769 0
M  V30 1437 H 133.553 -0.428177 1.37487 0
M  V30 1438 H 135.506 -3.31637 2.59991 0
M  V30 1439 H 134.23 -2.94386 1.41438 0
M  V30 1440 H 132.889 -1.78297 3.20321 0
M  V30 1441 H 132.537 -4.21597 2.74344 0
M  V30 1442 H 132.237 -3.82978 4.45648 0
M  V30 1443 H 133.761 -4.63101 3.97957 0
M  V30 1444 H 135.175 -2.64693 5.08538 0
M  V30 1445 H 133.572 -2.07413 5.63116 0
M  V30 1446 H 134.642 -0.967677 4.75146 0
M  V30 1447 N 135.985 -1.50799 -0.457987 0
M  V30 1448 C 136.948 -1.7005 -1.53674 0
M  V30 1449 C 137.948 -0.570881 -1.50325 0
M  V30 1450 O 139.138 -0.838126 -1.52712 0
M  V30 1451 C 136.27 -1.73788 -2.93276 0
M  V30 1452 H 137.463 -2.66306 -1.37917 0
M  V30 1453 H 135.016 -1.40477 -0.685271 0
M  V30 1454 H 135.751 -0.792717 -3.14462 0
M  V30 1455 H 135.536 -2.55864 -2.97113 0
M  V30 1456 H 137.026 -1.90591 -3.71571 0
M  V30 1457 N 137.463 0.71206 -1.40597 0
M  V30 1458 C 138.393 1.83889 -1.43899 0
M  V30 1459 C 139.374 1.67442 -0.299504 0
M  V30 1460 O 140.559 1.87421 -0.508624 0
M  V30 1461 C 137.689 3.21877 -1.30431 0
M  V30 1462 C 136.643 3.53002 -2.42019 0
M  V30 1463 C 135.969 4.90172 -2.13626 0
M  V30 1464 C 137.269 3.53643 -3.84362 0
M  V30 1465 H 138.963 1.81383 -2.38203 0
M  V30 1466 H 136.509 0.871237 -1.14654 0
M  V30 1467 H 138.462 4.00404 -1.31357 0
M  V30 1468 H 137.186 3.24968 -0.326049 0
M  V30 1469 H 135.845 2.76818 -2.40349 0
M  V30 1470 H 135.493 4.89869 -1.14182 0
M  V30 1471 H 135.193 5.11962 -2.88389 0
M  V30 1472 H 136.717 5.71028 -2.1624 0
M  V30 1473 H 138.131 4.22203 -3.87837 0
M  V30 1474 H 136.528 3.86961 -4.58673 0
M  V30 1475 H 137.598 2.52954 -4.13693 0
M  V30 1476 N 138.941 1.26152 0.944643 0
M  V30 1477 C 139.874 1.01729 2.04271 0
M  V30 1478 C 140.852 -0.0568101 1.62501 0
M  V30 1479 O 142.036 0.0848987 1.88309 0
M  V30 1480 C 139.163 0.539792 3.34371 0
M  V30 1481 C 138.209 1.60593 3.9511 0
M  V30 1482 S 139.042 3.19392 4.29825 0
M  V30 1483 C 140.198 2.73402 5.63029 0
M  V30 1484 H 140.431 1.94703 2.24673 0
M  V30 1485 H 137.964 1.09793 1.08558 0
M  V30 1486 H 139.922 0.270956 4.09605 0
M  V30 1487 H 138.583 -0.369609 3.11918 0
M  V30 1488 H 137.776 1.22275 4.88943 0
M  V30 1489 H 137.378 1.82596 3.26397 0
M  V30 1490 H 139.67 2.1765 6.41588 0
M  V30 1491 H 140.613 3.65913 6.06229 0
M  V30 1492 H 141.021 2.13077 5.22741 0
M  V30 1493 N 140.419 -1.14872 1.07899 0
M  V30 1494 C 141.665 -1.86289 0.81657 0
M  V30 1495 C 142.02 -1.8107 -0.65049 0
M  V30 1496 O 141.313 -1.22684 -1.47171 0
M  V30 1497 C 141.507 -3.34223 1.26609 0
M  V30 1498 C 141.336 -3.53846 2.77531 0
M  V30 1499 C 140.106 -3.68995 3.45212 0
M  V30 1500 C 142.304 -3.51201 3.75716 0
M  V30 1501 N 140.286 -3.76725 4.84718 0
M  V30 1502 C 141.657 -3.65112 5.01092 0
M  V30 1503 C 143.712 -3.34507 3.68794 0
M  V30 1504 C 142.415 -3.64056 6.20368 0
M  V30 1505 C 144.441 -3.34752 4.8754 0
M  V30 1506 C 143.803 -3.49199 6.11751 0
M  V30 1507 H 139.902 -0.698579 0.351443 0
M  V30 1508 H 142.486 -1.37713 1.37634 0
M  V30 1509 H 140.657 -3.81402 0.73395 0
M  V30 1510 H 142.389 -3.93377 0.95062 0
M  V30 1511 H 139.144 -3.70006 2.95622 0
M  V30 1512 H 139.568 -3.8432 5.5734 0
M  V30 1513 H 144.21 -3.22253 2.73702 0
M  V30 1514 H 141.928 -3.75087 7.15776 0
M  V30 1515 H 145.514 -3.23055 4.83866 0
M  V30 1516 H 144.394 -3.49328 7.02097 0
M  V30 1517 N 141.898 -0.863906 -1.31812 0
M  V30 1518 C 142.828 -0.330843 -2.31144 0
M  V30 1519 C 143.809 0.575005 -1.60087 0
M  V30 1520 O 144.994 0.493304 -1.8783 0
M  V30 1521 C 142.124 0.47374 -3.44054 0
M  V30 1522 C 141.078 -0.338481 -4.26659 0
M  V30 1523 C 140.404 0.591412 -5.31419 0
M  V30 1524 C 141.704 -1.56926 -4.98168 0
M  V30 1525 H 143.398 -1.16086 -2.75979 0
M  V30 1526 H 140.944 -0.559657 -1.32679 0
M  V30 1527 H 142.897 0.857143 -4.12591 0
M  V30 1528 H 141.621 1.33721 -2.9797 0
M  V30 1529 H 140.28 -0.703754 -3.59782 0
M  V30 1530 H 139.928 1.45199 -4.81587 0
M  V30 1531 H 139.628 0.0519022 -5.87577 0
M  V30 1532 H 141.152 0.97179 -6.02817 0
M  V30 1533 H 142.566 -1.25764 -5.59336 0
M  V30 1534 H 140.963 -2.04739 -5.64094 0
M  V30 1535 H 142.033 -2.32544 -4.25501 0
M  V30 1536 N 143.376 1.44774 -0.622745 0
M  V30 1537 C 144.323 2.30635 0.0871679 0
M  V30 1538 C 145.293 1.42994 0.845097 0
M  V30 1539 O 146.478 1.71907 0.827812 0
M  V30 1540 C 143.618 3.28144 1.06844 0
M  V30 1541 C 142.731 4.30888 0.309809 0
M  V30 1542 C 141.866 5.15494 1.28215 0
M  V30 1543 C 140.905 6.09953 0.512198 0
M  V30 1544 N 140.042 6.87287 1.43458 0
M  V30 1545 H 144.882 2.90803 -0.650974 0
M  V30 1546 H 142.419 1.43286 -0.33281 0
M  V30 1547 H 144.377 3.83157 1.65066 0
M  V30 1548 H 143.007 2.69695 1.77382 0
M  V30 1549 H 142.059 3.78414 -0.388181 0
M  V30 1550 H 143.371 4.97955 -0.290254 0
M  V30 1551 H 142.525 5.74983 1.93596 0
M  V30 1552 H 141.264 4.48481 1.91614 0
M  V30 1553 H 140.269 5.49581 -0.155151 0
M  V30 1554 H 141.494 6.78999 -0.116958 0
M  V30 1555 H 139.44 6.2295 2.05594 0
M  V30 1556 H 139.357 7.50763 0.888335 0
M  V30 1557 H 140.625 7.51306 2.07749 0
M  V30 1558 N 144.854 0.36279 1.53368 0
M  V30 1559 C 146.27 0.0116182 1.59596 0
M  V30 1560 C 146.47 -1.47012 1.37803 0
M  V30 1561 O 145.526 -2.23136 1.18181 0
M  V30 1562 C 146.839 0.465052 2.97082 0
M  V30 1563 C 148.387 0.419033 3.10182 0
M  V30 1564 C 148.862 0.848235 4.50077 0
M  V30 1565 N 150.353 0.803183 4.56183 0
M  V30 1566 C 151.088 1.107 5.62613 0
M  V30 1567 N 150.584 1.47996 6.76808 0
M  V30 1568 N 152.377 1.02998 5.52583 0
M  V30 1569 H 144.528 1.32775 1.65785 0
M  V30 1570 H 146.791 0.542518 0.777417 0
M  V30 1571 H 146.497 1.49892 3.18159 0
M  V30 1572 H 146.371 -0.149786 3.76902 0
M  V30 1573 H 148.758 -0.605696 2.88817 0
M  V30 1574 H 148.839 1.06933 2.32377 0
M  V30 1575 H 148.483 1.87107 4.7218 0
M  V30 1576 H 148.413 0.175218 5.26308 0
M  V30 1577 H 150.904 0.52838 3.74188 0
M  V30 1578 H 151.217 1.69613 7.53957 0
M  V30 1579 H 149.562 1.51859 6.78206 0
M  V30 1580 H 152.753 0.737817 4.62249 0
M  V30 1581 H 152.926 1.2701 6.35431 0
M  V30 1582 N 146.332 -1.57332 0.0918853 0
M  V30 1583 C 147.58 -1.93853 -0.571446 0
M  V30 1584 C 147.901 -0.974212 -1.6892 0
M  V30 1585 O 147.171 -0.0257254 -1.95883 0
M  V30 1586 H 145.751 -0.715666 -0.214082 0
M  V30 1587 H 148.413 -1.94287 0.154464 0
M  V30 1588 H 147.509 -2.96191 -0.983729 0
M  V30 1589 N 147.81 0.181792 -1.56548 0
M  V30 1590 C 148.74 1.22765 -1.98623 0
M  V30 1591 C 149.721 1.46747 -0.860189 0
M  V30 1592 O 150.906 1.58259 -1.12551 0
M  V30 1593 C 148.036 2.56894 -2.33715 0
M  V30 1594 C 146.99 2.475 -3.49182 0
M  V30 1595 C 146.316 3.86023 -3.69986 0
M  V30 1596 C 147.616 1.98866 -4.82959 0
M  V30 1597 H 149.31 0.877942 -2.86239 0
M  V30 1598 H 146.856 0.42088 -1.37712 0
M  V30 1599 H 148.809 3.30253 -2.61746 0
M  V30 1600 H 147.533 2.93632 -1.42997 0
M  V30 1601 H 146.192 1.76596 -3.21262 0
M  V30 1602 H 145.84 4.20136 -2.76576 0
M  V30 1603 H 145.54 3.80609 -4.47672 0
M  V30 1604 H 147.064 4.60984 -4.00407 0
M  V30 1605 H 148.478 2.61992 -5.09934 0
M  V30 1606 H 146.875 2.04424 -5.64208 0
M  V30 1607 H 147.945 0.942465 -4.75653 0
M  V30 1608 N 149.288 1.51039 0.449983 0
M  V30 1609 C 150.704 1.38934 0.785462 0
M  V30 1610 C 150.904 0.461817 1.96136 0
M  V30 1611 O 149.96 -0.0877389 2.52348 0
M  V30 1612 C 151.273 2.80724 1.0777 0
M  V30 1613 C 152.821 2.89787 1.1829 0
M  V30 1614 C 153.296 4.32457 1.50815 0
M  V30 1615 N 154.787 4.35505 1.57764 0
M  V30 1616 C 155.522 5.42914 1.84477 0
M  V30 1617 N 155.018 6.60502 2.09068 0
M  V30 1618 N 156.811 5.3038 1.86155 0
M  V30 1619 H 148.962 2.09904 -0.324647 0
M  V30 1620 H 151.225 0.944378 -0.0827957 0
M  V30 1621 H 150.931 3.50531 0.286498 0
M  V30 1622 H 150.805 3.19273 2.00859 0
M  V30 1623 H 153.192 2.20186 1.96474 0
M  V30 1624 H 153.273 2.54752 0.231314 0
M  V30 1625 H 152.917 5.02603 0.731622 0
M  V30 1626 H 152.847 4.64995 2.47158 0
M  V30 1627 H 155.338 3.50724 1.40715 0
M  V30 1628 H 155.651 7.38158 2.28785 0
M  V30 1629 H 153.996 6.63639 2.06416 0
M  V30 1630 H 157.187 4.37505 1.66454 0
M  V30 1631 H 157.36 6.1417 2.06637 0
M  V30 1632 N 150.766 -0.704594 1.40972 0
M  V30 1633 C 152.013 -1.46458 1.39844 0
M  V30 1634 C 152.341 -1.94499 0.00447594 0
M  V30 1635 O 151.596 -1.69275 -0.982057 0
M  V30 1636 C 151.895 -2.698 2.34399 0
M  V30 1637 C 151.561 -2.40464 3.81429 0
M  V30 1638 C 150.223 -2.32174 4.21484 0
M  V30 1639 C 152.575 -2.16086 4.74296 0
M  V30 1640 C 149.903 -1.97589 5.52427 0
M  V30 1641 C 152.255 -1.83011 6.05549 0
M  V30 1642 C 150.919 -1.7321 6.44635 0
M  V30 1643 H 150.189 -0.535927 0.511725 0
M  V30 1644 H 152.836 -0.806124 1.73706 0
M  V30 1645 H 151.141 -3.40536 1.93759 0
M  V30 1646 H 152.838 -3.27919 2.30804 0
M  V30 1647 H 149.428 -2.47808 3.49699 0
M  V30 1648 H 153.612 -2.2144 4.4416 0
M  V30 1649 H 148.868 -1.88547 5.81601 0
M  V30 1650 H 153.042 -1.63164 6.77016 0
M  V30 1651 H 150.669 -1.46179 7.46013 0
M  V30 1652 N 152.244 -1.26651 -0.937939 0
M  V30 1653 C 153.493 -1.11775 -1.67897 0
M  V30 1654 C 153.806 0.33794 -1.92659 0
M  V30 1655 O 155.012 0.607434 -2.64618 0
M  V30 1656 C 153.468 -1.9523 -3.02346 0
M  V30 1657 C 153.076 -3.45393 -2.8532 0
M  V30 1658 C 154.82 -1.88972 -3.80118 0
M  V30 1659 C 152.727 -4.21083 -4.15263 0
M  V30 1660 H 151.657 -0.414696 -0.629717 0
M  V30 1661 H 154.308 -1.50988 -1.04283 0
M  V30 1662 H 152.69 -1.48853 -3.66959 0
M  V30 1663 H 153.864 -3.99561 -2.29537 0
M  V30 1664 H 152.179 -3.52921 -2.20988 0
M  V30 1665 H 154.776 -2.42805 -4.76392 0
M  V30 1666 H 155.119 -0.86113 -4.07296 0
M  V30 1667 H 155.652 -2.33189 -3.22285 0
M  V30 1668 H 152.391 -5.24425 -3.93267 0
M  V30 1669 H 151.911 -3.71695 -4.70747 0
M  V30 1670 H 153.59 -4.29706 -4.83696 0
M  V30 1671 N 153.722 1.14298 -1.08507 0
M  V30 1672 C 154.654 2.1907 -0.673859 0
M  V30 1673 C 155.667 1.60381 0.279577 0
M  V30 1674 O 156.856 1.78374 0.0670754 0
M  V30 1675 C 153.956 3.38888 0.0290979 0
M  V30 1676 C 153.129 4.27103 -0.943494 0
M  V30 1677 C 152.188 5.25477 -0.275676 0
M  V30 1678 O 151.214 5.61709 -0.920401 0
M  V30 1679 N 152.416 5.7227 0.974013 0
M  V30 1680 H 155.181 2.54965 -1.57521 0
M  V30 1681 H 152.742 1.29528 -0.971287 0
M  V30 1682 H 154.734 4.01761 0.48683 0
M  V30 1683 H 153.304 3.01309 0.832555 0
M  V30 1684 H 152.524 3.61149 -1.58004 0
M  V30 1685 H 153.812 4.82905 -1.60251 0
M  V30 1686 H 153.21 5.44965 1.51755 0
M  V30 1687 H 151.767 6.37127 1.37522 0
M  V30 1688 N 155.201 0.870884 1.31352 0
M  V30 1689 C 156.447 0.482987 1.96965 0
M  V30 1690 C 156.78 -0.962462 1.68672 0
M  V30 1691 O 156.055 -1.6779 0.98371 0
M  V30 1692 C 156.338 0.741752 3.52378 0
M  V30 1693 C 156.191 2.2368 3.9024 0
M  V30 1694 C 157.51 0.208838 4.39604 0
M  V30 1695 H 154.629 0.176955 0.715441 0
M  V30 1696 H 157.271 1.09229 1.55464 0
M  V30 1697 H 155.421 0.223149 3.87859 0
M  V30 1698 H 157.093 2.82273 3.64856 0
M  V30 1699 H 155.336 2.70901 3.38814 0
M  V30 1700 H 156.007 2.3685 4.98604 0
M  V30 1701 H 158.483 0.652529 4.10952 0
M  V30 1702 H 157.359 0.419336 5.47296 0
M  V30 1703 H 157.62 -0.889275 4.33064 0
M  V30 1704 N 156.679 -1.44442 0.630414 0
M  V30 1705 C 157.926 -2.02052 0.134617 0
M  V30 1706 C 158.254 -1.49576 -1.24327 0
M  V30 1707 O 157.509 -0.669806 -1.83881 0
M  V30 1708 C 157.808 -3.57332 0.0697835 0
M  V30 1709 C 157.474 -4.29058 1.38635 0
M  V30 1710 C 156.136 -4.4837 1.74694 0
M  V30 1711 C 158.488 -4.69872 2.25543 0
M  V30 1712 C 155.816 -5.05756 2.97369 0
M  V30 1713 C 158.168 -5.28616 3.47487 0
M  V30 1714 C 156.832 -5.46147 3.8377 0
M  V30 1715 H 156.102 -0.739361 0.0492598 0
M  V30 1716 H 158.749 -1.73217 0.816586 0
M  V30 1717 H 157.054 -3.85577 -0.695553 0
M  V30 1718 H 158.751 -3.99637 -0.330344 0
M  V30 1719 H 155.341 -4.14357 1.09574 0
M  V30 1720 H 159.525 -4.54666 1.98979 0
M  V30 1721 H 154.781 -5.17515 3.25558 0
M  V30 1722 H 158.955 -5.59192 4.15063 0
M  V30 1723 H 156.582 -5.9038 4.7891 0
M  V30 1724 N 158.157 -0.370918 -1.53173 0
M  V30 1725 C 159.087 0.464847 -2.28826 0
M  V30 1726 C 160.068 1.07936 -1.31468 0
M  V30 1727 O 161.253 1.0956 -1.60344 0
M  V30 1728 C 158.383 1.60196 -3.08147 0
M  V30 1729 C 157.337 1.11443 -4.13237 0
M  V30 1730 C 156.663 2.3422 -4.80672 0
M  V30 1731 C 157.963 0.195384 -5.21934 0
M  V30 1732 H 159.657 -0.166329 -2.98938 0
M  V30 1733 H 157.203 -0.0814359 -1.4377 0
M  V30 1734 H 159.156 2.19332 -3.59822 0
M  V30 1735 H 157.88 2.26045 -2.35735 0
M  V30 1736 H 156.539 0.545727 -3.62515 0
M  V30 1737 H 156.187 2.98537 -4.04827 0
M  V30 1738 H 155.887 2.02269 -5.51689 0
M  V30 1739 H 157.411 2.94032 -5.35143 0
M  V30 1740 H 158.825 0.694375 -5.69079 0
M  V30 1741 H 157.222 -0.0335027 -6.00091 0
M  V30 1742 H 158.292 -0.760961 -4.78892 0
M  V30 1743 N 159.635 1.57281 -0.100228 0
M  V30 1744 C 160.567 2.11342 0.886972 0
M  V30 1745 C 161.58 1.05182 1.24261 0
M  V30 1746 O 162.769 1.32613 1.19483 0
M  V30 1747 C 159.869 2.5825 2.19454 0
M  V30 1748 C 159.042 3.88302 2.01346 0
M  V30 1749 C 158.101 4.21004 3.15661 0
M  V30 1750 O 157.127 4.9014 2.89398 0
M  V30 1751 N 158.329 3.76818 4.41575 0
M  V30 1752 H 161.094 2.96668 0.425216 0
M  V30 1753 H 158.655 1.61678 0.0847334 0
M  V30 1754 H 160.647 2.7717 2.94888 0
M  V30 1755 H 159.217 1.77907 2.57037 0
M  V30 1756 H 158.437 3.7848 1.10212 0
M  V30 1757 H 159.725 4.73375 1.8653 0
M  V30 1758 H 159.123 3.2102 4.65792 0
M  V30 1759 H 157.68 4.00882 5.13942 0
M  V30 1760 N 161.113 -0.173488 1.56642 0
M  V30 1761 C 162.338 -0.910149 1.86363 0
M  V30 1762 C 162.763 -1.75132 0.686318 0
M  V30 1763 O 162.121 -1.77595 -0.364643 0
M  V30 1764 C 162.169 -1.76447 3.14482 0
M  V30 1765 O 161.273 -2.86584 2.96553 0
M  V30 1766 H 160.614 -0.255086 0.613047 0
M  V30 1767 H 163.144 -0.172283 2.03873 0
M  V30 1768 H 163.154 -2.16483 3.45831 0
M  V30 1769 H 161.829 -1.14658 3.99783 0
M  V30 1770 H 160.406 -2.50146 2.76553 0
M  V30 1771 N 162.591 -1.51276 -0.441967 0
M  V30 1772 C 163.84 -1.6295 -1.18871 0
M  V30 1773 C 164.153 -0.349312 -1.92456 0
M  V30 1774 O 165.359 -0.345355 -2.69295 0
M  V30 1775 C 163.815 -2.87759 -2.16155 0
M  V30 1776 C 163.423 -4.22764 -1.48239 0
M  V30 1777 C 165.167 -3.08788 -2.91291 0
M  V30 1778 C 163.074 -5.38728 -2.4398 0
M  V30 1779 H 162.004 -0.606913 -0.447406 0
M  V30 1780 H 164.655 -1.77739 -0.456205 0
M  V30 1781 H 163.037 -2.66593 -2.92821 0
M  V30 1782 H 164.211 -4.54293 -0.771635 0
M  V30 1783 H 162.526 -4.07575 -0.852741 0
M  V30 1784 H 165.123 -3.92599 -3.63002 0
M  V30 1785 H 165.466 -2.21679 -3.5237 0
M  V30 1786 H 165.999 -3.30272 -2.21733 0
M  V30 1787 H 162.738 -6.28082 -1.87598 0
M  V30 1788 H 162.258 -5.1158 -3.13123 0
M  V30 1789 H 163.937 -5.70489 -3.05207 0
M  V30 1790 N 164.069 0.697108 -1.41344 0
M  V30 1791 C 165.309 1.46939 -1.42085 0
M  V30 1792 C 165.673 1.9198 -0.0280397 0
M  V30 1793 O 166.874 2.6865 0.0897504 0
M  V30 1794 C 165.145 2.64985 -2.39828 0
M  V30 1795 S 166.704 3.54147 -2.59085 0
M  V30 1796 H 163.522 0.502146 -0.503359 0
M  V30 1797 H 166.124 0.813546 -1.77769 0
M  V30 1798 H 164.828 2.30098 -3.39828 0
M  V30 1799 H 164.359 3.35464 -2.05493 0
M  V30 1800 H 166.374 4.60137 -1.85711 0
M  V30 1801 N 165.547 1.27147 0.931209 0
M  V30 1802 C 166.824 1.0401 1.65654 0
M  V30 1803 C 167.204 -0.426297 2.06751 0
M  V30 1804 O 166.552 -1.40879 1.79904 0
M  V30 1805 C 166.762 1.99834 2.86125 0
M  V30 1806 C 168.11 2.29007 3.57549 0
M  V30 1807 O 169.134 1.97779 2.96246 0
M  V30 1808 O 167.993 2.82222 4.67989 0
M  V30 1809 H 165.087 0.396239 0.725895 0
M  V30 1810 H 167.633 1.38397 0.982056 0
M  V30 1811 H 166.405 2.98744 2.52721 0
M  V30 1812 H 166.028 1.65987 3.61295 0
M  V30 1813 N 167.025 -1.13721 1.09112 0
M  V30 1814 C 168.273 -1.84559 0.823562 0
M  V30 1815 C 168.594 -1.83754 -0.652658 0
M  V30 1816 O 167.864 -1.29102 -1.47342 0
M  V30 1817 H 166.444 -0.683376 0.301673 0
M  V30 1818 H 169.106 -1.37771 1.37859 0
M  V30 1819 H 168.202 -2.8917 1.17419 0
M  V30 1820 N 168.503 -0.877838 -1.30888 0
M  V30 1821 C 169.413 -0.343096 -2.32078 0
M  V30 1822 C 170.429 0.551022 -1.65045 0
M  V30 1823 O 171.605 0.445854 -1.96403 0
M  V30 1824 C 168.67 0.439905 -3.43898 0
M  V30 1825 C 167.731 -0.483111 -4.26573 0
M  V30 1826 C 166.964 0.262616 -5.33053 0
M  V30 1827 O 167.187 1.48967 -5.50604 0
M  V30 1828 O 166.121 -0.383593 -6.00676 0
M  V30 1829 H 169.947 -1.18203 -2.79753 0
M  V30 1830 H 167.532 -0.64145 -1.34929 0
M  V30 1831 H 169.414 0.883504 -4.12034 0
M  V30 1832 H 168.089 1.25526 -2.98371 0
M  V30 1833 H 166.996 -0.975374 -3.61161 0
M  V30 1834 H 168.329 -1.26427 -4.75686 0
M  V30 1835 N 169.982 1.44106 -0.638065 0
M  V30 1836 C 171.398 1.56672 -0.304286 0
M  V30 1837 C 171.598 1.6244 1.19228 0
M  V30 1838 O 170.654 1.57121 1.9766 0
M  V30 1839 C 171.967 2.83503 -1.00231 0
M  V30 1840 C 173.515 2.97226 -0.981116 0
M  V30 1841 C 173.99 4.26868 -1.65974 0
M  V30 1842 N 175.481 4.33698 -1.62666 0
M  V30 1843 C 176.216 5.32745 -2.12063 0
M  V30 1844 N 175.712 6.38157 -2.6968 0
M  V30 1845 N 177.505 5.24299 -2.02651 0
M  V30 1846 H 169.656 1.38605 -1.60942 0
M  V30 1847 H 171.919 0.664661 -0.675965 0
M  V30 1848 H 171.625 2.85251 -2.0573 0
M  V30 1849 H 171.499 3.73251 -0.54439 0
M  V30 1850 H 173.886 2.95027 0.0654188 0
M  V30 1851 H 173.967 2.08808 -1.47759 0
M  V30 1852 H 173.611 4.29826 -2.70576 0
M  V30 1853 H 173.541 5.14156 -1.13804 0
M  V30 1854 H 176.032 3.58138 -1.20606 0
M  V30 1855 H 176.345 7.10029 -3.05087 0
M  V30 1856 H 174.69 6.38823 -2.73734 0
M  V30 1857 H 177.881 4.4086 -1.57353 0
M  V30 1858 H 178.054 6.01334 -2.41457 0
M  V30 1859 N 171.46 0.379036 1.52974 0
M  V30 1860 C 172.737 -0.263479 1.93817 0
M  V30 1861 C 173.117 -1.65244 1.31368 0
M  V30 1862 O 172.465 -2.23448 0.477856 0
M  V30 1863 C 172.675 -0.300166 3.47707 0
M  V30 1864 C 174.023 -0.534061 4.21228 0
M  V30 1865 O 175.047 -0.38081 3.54159 0
M  V30 1866 O 173.906 -0.833501 5.40106 0
M  V30 1867 H 171 -0.161149 0.811147 0
M  V30 1868 H 173.546 0.432798 1.64088 0
M  V30 1869 H 172.318 0.673138 3.85467 0
M  V30 1870 H 171.941 -1.04179 3.83709 0
M  V30 1871 N 172.938 -1.57226 0.108567 0
M  V30 1872 C 173.848 -2.18292 -0.859401 0
M  V30 1873 C 174.864 -1.15612 -1.30038 0
M  V30 1874 O 176.04 -1.48039 -1.36552 0
M  V30 1875 C 173.105 -2.762 -2.09558 0
M  V30 1876 C 172.166 -3.93881 -1.70752 0
M  V30 1877 C 171.399 -4.49018 -2.88477 0
M  V30 1878 O 171.622 -4.03068 -4.036 0
M  V30 1879 O 170.556 -5.39852 -2.66164 0
M  V30 1880 H 174.382 -3.01441 -0.369769 0
M  V30 1881 H 171.967 -1.48945 -0.1165 0
M  V30 1882 H 173.849 -3.13156 -2.81978 0
M  V30 1883 H 172.524 -1.96089 -2.57548 0
M  V30 1884 H 171.431 -3.61713 -0.954714 0
M  V30 1885 H 172.764 -4.75396 -1.27513 0
M  V30 1886 N 174.416 0.165178 -1.56732 0
M  V30 1887 C 175.364 1.22369 -1.97809 0
M  V30 1888 C 176.358 1.45488 -0.867741 0
M  V30 1889 O 177.564 1.45995 -1.05288 0
M  V30 1890 H 173.939 0.411486 -0.629431 0
M  V30 1891 H 175.91 0.850425 -2.86025 0
M  V30 1892 C 174.659 2.55403 -2.35934 0
M  V30 1893 H 173.982 2.38438 -3.20916 0
M  V30 1894 H 175.422 3.2814 -2.68514 0
M  V30 1895 C 173.881 3.14611 -1.20506 0
M  V30 1896 O 174.411 3.98626 -0.496016 0
M  V30 1897 N 172.617 2.7379 -0.97403 0
M  V30 1898 H 172.164 2.0557 -1.55238 0
M  V30 1899 H 172.122 3.1374 -0.203573 0
M  V30 1900 N 175.894 1.51508 0.433938 0
M  V30 1901 C 176.844 1.69451 1.52546 0
M  V30 1902 C 177.828 0.548474 1.51263 0
M  V30 1903 O 179.02 0.804529 1.57659 0
M  V30 1904 C 176.149 1.82604 2.90707 0
M  V30 1905 C 175.235 3.03002 2.96733 0
M  V30 1906 N 175.626 4.26121 2.72496 0
M  V30 1907 C 173.924 3.02327 3.27894 0
M  V30 1908 C 174.625 5.07407 2.84452 0
M  V30 1909 N 173.601 4.42126 3.16269 0
M  V30 1910 H 177.403 2.62305 1.32564 0
M  V30 1911 H 174.917 1.49202 0.641297 0
M  V30 1912 H 176.914 1.93569 3.69238 0
M  V30 1913 H 175.574 0.909339 3.11707 0
M  V30 1914 H 176.585 4.55009 2.4736 0
M  V30 1915 H 173.262 2.20301 3.54646 0
M  V30 1916 H 174.652 6.15422 2.69639 0
M  V30 1917 N 177.372 -0.689602 1.41712 0
M  V30 1918 C 178.783 -1.26973 1.36875 0
M  V30 1919 C 179.134 -1.96124 0.054748 0
M  V30 1920 O 178.259 -1.99141 -0.84687 0
M  V30 1921 C 178.854 -2.30912 2.47922 0
M  V30 1922 C 177.413 -2.84486 2.46464 0
M  V30 1923 C 176.56 -1.58603 2.27465 0
M  V30 1924 H 179.511 -0.48396 1.51141 0
M  V30 1925 H 179.532 -3.12331 2.17323 0
M  V30 1926 H 179.044 -1.80554 3.43543 0
M  V30 1927 H 177.145 -3.39005 1.54617 0
M  V30 1928 H 177.258 -3.34511 3.42986 0
M  V30 1929 H 175.622 -1.84632 1.75451 0
M  V30 1930 H 176.405 -1.10233 3.25121 0
M  V30 1931 N 178.85 -1.27639 -0.924453 0
M  V30 1932 C 179.798 -1.10485 -2.04685 0
M  V30 1933 C 180.792 -0.0270421 -1.69378 0
M  V30 1934 O 181.998 -0.185008 -1.79047 0
M  V30 1935 H 178.373 -0.340546 -0.670472 0
M  V30 1936 H 180.344 -2.05566 -2.16298 0
M  V30 1937 C 179.093 -0.772229 -3.39016 0
M  V30 1938 H 178.416 -1.59351 -3.66671 0
M  V30 1939 H 179.856 -0.692097 -4.18313 0
M  V30 1940 C 178.315 0.523554 -3.32807 0
M  V30 1941 O 178.845 1.55702 -3.70297 0
M  V30 1942 N 177.051 0.520363 -2.85903 0
M  V30 1943 H 176.598 -0.32107 -2.55591 0
M  V30 1944 H 176.556 1.38742 -2.82131 0
M  V30 1945 N 180.328 1.1314 -1.09713 0
M  V30 1946 C 181.258 2.20748 -0.761102 0
M  V30 1947 C 182.239 1.68061 0.262566 0
M  V30 1948 O 183.424 1.93765 0.129977 0
M  V30 1949 C 180.554 3.46812 -0.184054 0
M  V30 1950 C 179.508 4.12606 -1.13757 0
M  V30 1951 C 178.834 5.33031 -0.422083 0
M  V30 1952 C 180.134 4.59603 -2.48118 0
M  V30 1953 H 181.828 2.49113 -1.66082 0
M  V30 1954 H 179.374 1.19734 -0.799987 0
M  V30 1955 H 181.327 4.21353 0.0631215 0
M  V30 1956 H 180.051 3.17851 0.750868 0
M  V30 1957 H 178.71 3.40036 -1.37007 0
M  V30 1958 H 178.358 5.00335 0.517072 0
M  V30 1959 H 178.058 5.77999 -1.05788 0
M  V30 1960 H 179.582 6.10325 -0.183277 0
M  V30 1961 H 180.996 5.25552 -2.29059 0
M  V30 1962 H 179.393 5.15321 -3.07514 0
M  V30 1963 H 180.463 3.73971 -3.08665 0
M  V30 1964 N 181.806 0.884767 1.30421 0
M  V30 1965 C 183.055 0.499164 1.95426 0
M  V30 1966 C 183.368 -0.95645 1.70621 0
M  V30 1967 O 184.574 -1.44889 2.29607 0
M  V30 1968 C 183.03 0.84177 3.49917 0
M  V30 1969 C 182.638 2.31514 3.83543 0
M  V30 1970 C 184.382 0.525355 4.21237 0
M  V30 1971 C 182.289 2.59939 5.31212 0
M  V30 1972 H 181.219 0.182944 0.73147 0
M  V30 1973 H 183.87 1.07971 1.48373 0
M  V30 1974 H 182.252 0.190311 3.95542 0
M  V30 1975 H 183.426 3.0109 3.48829 0
M  V30 1976 H 181.741 2.59907 3.25326 0
M  V30 1977 H 184.338 0.714762 5.29901 0
M  V30 1978 H 184.681 -0.535222 4.12845 0
M  V30 1979 H 185.214 1.134 3.81294 0
M  V30 1980 H 181.953 3.64736 5.44654 0
M  V30 1981 H 181.473 1.94972 5.67227 0
M  V30 1982 H 183.152 2.45429 5.98643 0
M  V30 1983 N 183.284 -1.43765 0.645699 0
M  V30 1984 C 184.7 -1.56509 0.312591 0
M  V30 1985 C 184.9 -1.6307 -1.18365 0
M  V30 1986 O 183.956 -1.58167 -1.96824 0
M  V30 1987 C 185.269 -2.82968 1.01733 0
M  V30 1988 C 186.817 -2.96701 0.996865 0
M  V30 1989 C 187.292 -4.25982 1.68236 0
M  V30 1990 N 188.783 -4.32829 1.64964 0
M  V30 1991 C 189.518 -5.31613 2.14885 0
M  V30 1992 N 189.014 -6.36718 2.73061 0
M  V30 1993 N 190.807 -5.23217 2.05428 0
M  V30 1994 H 182.958 -1.3775 1.61675 0
M  V30 1995 H 185.221 -0.661067 0.679481 0
M  V30 1996 H 184.927 -2.84156 2.0724 0
M  V30 1997 H 184.801 -3.72957 0.564177 0
M  V30 1998 H 187.188 -2.95058 -0.0497719 0
M  V30 1999 H 187.269 -2.08022 1.48865 0
M  V30 2000 H 186.913 -4.28386 2.72852 0
M  V30 2001 H 186.843 -5.13545 1.16529 0
M  V30 2002 H 189.334 -3.57493 1.22503 0
M  V30 2003 H 189.647 -7.08401 3.08848 0
M  V30 2004 H 187.992 -6.37362 2.77118 0
M  V30 2005 H 191.183 -4.40019 1.59689 0
M  V30 2006 H 191.356 -6.00045 2.44643 0
M  V30 2007 N 184.763 -0.387143 -1.52771 0
M  V30 2008 C 186.009 0.196025 -2.0185 0
M  V30 2009 C 186.342 1.46641 -1.27319 0
M  V30 2010 O 185.617 1.90889 -0.373032 0
M  V30 2011 C 185.9 0.466136 -3.5707 0
M  V30 2012 C 185.753 -0.819385 -4.42274 0
M  V30 2013 C 187.072 1.25768 -4.21747 0
M  V30 2014 H 184.191 0.0697708 -0.73369 0
M  V30 2015 H 186.833 -0.516286 -1.82851 0
M  V30 2016 H 184.983 1.07293 -3.7339 0
M  V30 2017 H 186.655 -1.4563 -4.37709 0
M  V30 2018 H 184.898 -1.43517 -4.09372 0
M  V30 2019 H 185.569 -0.585065 -5.48891 0
M  V30 2020 H 188.045 0.744167 -4.09391 0
M  V30 2021 H 186.921 1.41541 -5.30337 0
M  V30 2022 H 187.182 2.27228 -3.79236 0
M  V30 2023 N 186.241 1.57166 -0.116904 0
M  V30 2024 C 187.189 2.16457 0.851418 0
M  V30 2025 C 188.183 1.11323 1.27686 0
M  V30 2026 O 189.389 1.2963 1.24884 0
M  V30 2027 H 185.764 0.69271 0.292672 0
M  V30 2028 H 187.735 2.96605 0.32685 0
M  V30 2029 C 186.484 2.77689 2.09246 0
M  V30 2030 H 185.807 3.58285 1.77402 0
M  V30 2031 H 187.247 3.22716 2.7501 0
M  V30 2032 C 185.706 1.74667 2.88085 0
M  V30 2033 O 186.236 1.19877 3.83396 0
M  V30 2034 N 184.442 1.44656 2.52038 0
M  V30 2035 H 183.989 1.89402 1.74599 0
M  V30 2036 H 183.947 0.759675 3.05084 0
M  V30 2037 N 187.719 -0.156864 1.56817 0
M  V30 2038 C 188.682 -1.17781 1.96622 0
M  V30 2039 C 189.682 -1.36401 0.851555 0
M  V30 2040 O 190.872 -1.33561 1.11836 0
M  V30 2041 C 188.004 -2.54008 2.27361 0
M  V30 2042 H 189.197 -0.836564 2.87996 0
M  V30 2043 H 186.75 -0.39985 1.51099 0
M  V30 2044 H 187.485 -2.9312 1.38748 0
M  V30 2045 H 187.27 -2.41856 3.08623 0
M  V30 2046 H 188.76 -3.27558 2.59029 0
M  V30 2047 N 189.197 -1.51736 -0.425897 0
M  V30 2048 C 190.425 -1.68794 -1.1965 0
M  V30 2049 C 190.84 -0.390164 -1.84725 0
M  V30 2050 O 190.197 0.632376 -1.71194 0
M  V30 2051 C 190.248 -2.81174 -2.27208 0
M  V30 2052 O 189.969 -4.05925 -1.64793 0
M  V30 2053 C 191.47 -3.09599 -3.17275 0
M  V30 2054 H 188.69 -0.566128 -0.360194 0
M  V30 2055 H 191.234 -1.98211 -0.503249 0
M  V30 2056 H 189.389 -2.54324 -2.9223 0
M  V30 2057 H 189.803 -4.68423 -2.35967 0
M  V30 2058 H 191.277 -3.91786 -3.88854 0
M  V30 2059 H 191.754 -2.22468 -3.78688 0
M  V30 2060 H 192.36 -3.38151 -2.57941 0
M  V30 2061 N 190.675 0.682077 -1.42076 0
M  V30 2062 C 191.622 1.79578 -1.44984 0
M  V30 2063 C 192.592 1.6332 -0.302614 0
M  V30 2064 O 193.777 1.83978 -0.505633 0
M  V30 2065 C 190.917 3.1756 -1.35091 0
M  V30 2066 C 190.03 3.45156 -2.59791 0
M  V30 2067 C 189.165 4.72826 -2.42093 0
M  V30 2068 C 188.204 4.93433 -3.62202 0
M  V30 2069 N 187.341 6.12338 -3.43491 0
M  V30 2070 H 192.181 1.76427 -2.40161 0
M  V30 2071 H 189.718 0.861376 -1.19242 0
M  V30 2072 H 191.676 3.97287 -1.27354 0
M  V30 2073 H 190.306 3.19854 -0.435133 0
M  V30 2074 H 189.358 2.59736 -2.77923 0
M  V30 2075 H 190.67 3.5628 -3.49094 0
M  V30 2076 H 189.824 5.60631 -2.319 0
M  V30 2077 H 188.563 4.63973 -1.50268 0
M  V30 2078 H 187.568 4.04073 -3.72834 0
M  V30 2079 H 188.793 5.04136 -4.54998 0
M  V30 2080 H 186.739 6.04672 -2.54377 0
M  V30 2081 H 186.656 6.2429 -4.26377 0
M  V30 2082 H 187.924 7.02841 -3.37097 0
M  V30 2083 N 192.153 1.28127 0.917671 0
M  V30 2084 C 193.116 1.11744 2.00115 0
M  V30 2085 C 194.116 0.0583052 1.60694 0
M  V30 2086 O 195.306 0.303755 1.71531 0
M  V30 2087 C 192.438 0.704862 3.33533 0
M  V30 2088 H 193.631 2.07966 2.16079 0
M  V30 2089 H 191.184 1.11058 1.09981 0
M  V30 2090 H 191.919 -0.258299 3.2327 0
M  V30 2091 H 191.704 1.4699 3.63505 0
M  V30 2092 H 193.194 0.612768 4.1308 0
M  V30 2093 N 193.631 -1.12557 1.10312 0
M  V30 2094 C 194.861 -1.87592 0.865617 0
M  V30 2095 C 195.269 -1.79851 -0.587389 0
M  V30 2096 O 194.612 -1.16949 -1.41664 0
M  V30 2097 C 194.674 -3.37665 1.23381 0
M  V30 2098 C 194.338 -3.69181 2.69359 0
M  V30 2099 C 195.335 -3.67652 3.67597 0
M  V30 2100 C 193.02 -3.98555 3.05711 0
M  V30 2101 C 195.014 -3.95053 5.00212 0
M  V30 2102 C 192.701 -4.25616 4.38514 0
M  V30 2103 C 193.699 -4.23851 5.35574 0
M  V30 2104 O 193.387 -4.50242 6.65986 0
M  V30 2105 H 193.119 -0.600442 0.310557 0
M  V30 2106 H 195.673 -1.4335 1.47105 0
M  V30 2107 H 193.903 -3.82454 0.571467 0
M  V30 2108 H 195.592 -3.94041 0.973994 0
M  V30 2109 H 196.358 -3.45024 3.40857 0
M  V30 2110 H 192.237 -3.99071 2.30789 0
M  V30 2111 H 195.781 -3.93591 5.75962 0
M  V30 2112 H 191.678 -4.47718 4.64994 0
M  V30 2113 H 192.446 -4.67867 6.71597 0
M  V30 2114 N 195.109 -0.891671 -1.2995 0
M  V30 2115 C 196.019 -0.367691 -2.31701 0
M  V30 2116 C 197.035 0.533486 -1.6562 0
M  V30 2117 O 198.211 0.424997 -1.96865 0
M  V30 2118 C 195.276 0.403406 -3.44345 0
M  V30 2119 C 194.337 -0.528328 -4.26037 0
M  V30 2120 C 193.57 0.206063 -5.33302 0
M  V30 2121 O 193.793 1.43119 -5.52153 0
M  V30 2122 O 192.727 -0.447281 -6.00236 0
M  V30 2123 H 196.553 -1.21163 -2.78484 0
M  V30 2124 H 194.138 -0.655725 -1.34241 0
M  V30 2125 H 196.02 0.839753 -4.12948 0
M  V30 2126 H 194.695 1.22354 -2.99685 0
M  V30 2127 H 193.602 -1.01362 -3.60106 0
M  V30 2128 H 194.935 -1.31465 -4.74318 0
M  V30 2129 N 196.587 1.43421 -0.653314 0
M  V30 2130 C 197.52 2.2803 0.0879804 0
M  V30 2131 C 198.498 1.39833 0.82979 0
M  V30 2132 O 199.682 1.69275 0.829341 0
M  V30 2133 C 196.809 3.19247 1.13132 0
M  V30 2134 C 195.855 4.23704 0.487546 0
M  V30 2135 S 196.688 5.30377 -0.738961 0
M  V30 2136 C 197.844 6.25162 0.30384 0
M  V30 2137 H 198.077 2.90554 -0.629739 0
M  V30 2138 H 195.61 1.47934 -0.442156 0
M  V30 2139 H 197.568 3.72346 1.72827 0
M  V30 2140 H 196.229 2.55901 1.82136 0
M  V30 2141 H 195.422 4.87631 1.27407 0
M  V30 2142 H 195.024 3.73983 -0.0352915 0
M  V30 2143 H 197.316 6.67321 1.17 0
M  V30 2144 H 198.259 7.07463 -0.300402 0
M  V30 2145 H 198.667 5.60864 0.63969 0
M  V30 2146 N 198.065 0.39524 1.52563 0
M  V30 2147 C 199.028 -0.425001 2.25225 0
M  V30 2148 C 200.028 -0.985266 1.27079 0
M  V30 2149 O 201.218 -0.866332 1.5113 0
M  V30 2150 C 198.35 -1.59686 3.01186 0
M  V30 2151 H 199.543 0.211233 2.99155 0
M  V30 2152 H 197.096 0.147472 1.55603 0
M  V30 2153 H 197.831 -2.27035 2.31572 0
M  V30 2154 H 197.616 -1.20176 3.73229 0
M  V30 2155 H 199.106 -2.17743 3.5634 0
M  V30 2156 N 199.544 -1.57102 0.125237 0
M  V30 2157 C 200.474 -2.18659 -0.819174 0
M  V30 2158 C 201.455 -1.12843 -1.27281 0
M  V30 2159 O 202.64 -1.41104 -1.33429 0
M  V30 2160 C 199.77 -2.79096 -2.06695 0
M  V30 2161 C 198.724 -3.90548 -1.75088 0
M  V30 2162 C 198.05 -4.37821 -3.06948 0
M  V30 2163 C 199.35 -5.12356 -1.01435 0
M  V30 2164 H 201.044 -2.9783 -0.306202 0
M  V30 2165 H 198.59 -1.4326 -0.145839 0
M  V30 2166 H 200.543 -3.2082 -2.73226 0
M  V30 2167 H 199.267 -1.97223 -2.60328 0
M  V30 2168 H 197.926 -3.49409 -1.10944 0
M  V30 2169 H 197.574 -3.52799 -3.58527 0
M  V30 2170 H 197.274 -5.12982 -2.86571 0
M  V30 2171 H 198.798 -4.822 -3.74587 0
M  V30 2172 H 200.212 -5.5106 -1.58132 0
M  V30 2173 H 198.609 -5.9314 -0.911319 0
M  V30 2174 H 199.679 -4.849 -0.00218681 0
M  V30 2175 N 201.022 0.148545 -1.56898 0
M  V30 2176 C 201.969 1.18345 -1.98149 0
M  V30 2177 C 202.939 1.42772 -0.848848 0
M  V30 2178 O 204.124 1.55132 -1.11079 0
M  V30 2179 C 201.264 2.51231 -2.36594 0
M  V30 2180 C 200.377 2.33991 -3.63142 0
M  V30 2181 C 199.512 3.59902 -3.90697 0
M  V30 2182 C 198.551 3.37692 -5.1052 0
M  V30 2183 N 197.688 4.5573 -5.34092 0
M  V30 2184 H 202.528 0.82467 -2.86362 0
M  V30 2185 H 200.065 0.395756 -1.41676 0
M  V30 2186 H 202.023 3.28713 -2.56912 0
M  V30 2187 H 200.653 2.85059 -1.51463 0
M  V30 2188 H 199.705 1.47572 -3.50609 0
M  V30 2189 H 201.017 2.13539 -4.5078 0
M  V30 2190 H 200.171 4.45813 -4.11505 0
M  V30 2191 H 198.91 3.83357 -3.01477 0
M  V30 2192 H 197.915 2.5017 -4.89587 0
M  V30 2193 H 199.14 3.15637 -6.0129 0
M  V30 2194 H 197.086 4.79361 -4.47827 0
M  V30 2195 H 197.003 4.38274 -6.15996 0
M  V30 2196 H 198.271 5.42858 -5.59397 0
M  V30 2197 N 202.5 1.5196 0.417844 0
M  V30 2198 C 203.447 1.74678 1.50852 0
M  V30 2199 C 204.417 0.588947 1.55308 0
M  V30 2200 O 205.602 0.825544 1.72016 0
M  V30 2201 C 202.742 1.89544 2.88387 0
M  V30 2202 C 201.855 3.17166 2.93309 0
M  V30 2203 C 200.99 3.22513 4.22088 0
M  V30 2204 C 200.029 4.44372 4.20951 0
M  V30 2205 N 199.166 4.47161 5.41287 0
M  V30 2206 H 204.006 2.67768 1.30783 0
M  V30 2207 H 201.543 1.32689 0.63498 0
M  V30 2208 H 203.501 1.96146 3.68216 0
M  V30 2209 H 202.131 0.998424 3.06971 0
M  V30 2210 H 201.183 3.19778 2.06024 0
M  V30 2211 H 202.495 4.07021 2.88332 0
M  V30 2212 H 201.649 3.28139 5.10303 0
M  V30 2213 H 200.388 2.30581 4.29748 0
M  V30 2214 H 199.393 4.38902 3.31127 0
M  V30 2215 H 200.618 5.3759 4.14938 0
M  V30 2216 H 198.564 3.58108 5.49632 0
M  V30 2217 H 198.481 5.3085 5.3827 0
M  V30 2218 H 199.749 4.57005 6.3148 0
M  V30 2219 N 203.978 -0.674533 1.42435 0
M  V30 2220 C 205.208 -1.46071 1.46105 0
M  V30 2221 C 205.616 -1.89067 0.0709605 0
M  V30 2222 O 204.959 -1.58731 -0.924677 0
M  V30 2223 C 205.021 -2.74145 2.32561 0
M  V30 2224 C 204.685 -2.53224 3.8043 0
M  V30 2225 C 205.682 -2.17809 4.72075 0
M  V30 2226 C 203.367 -2.6821 4.24698 0
M  V30 2227 C 205.361 -1.97648 6.05982 0
M  V30 2228 C 203.048 -2.47665 5.58664 0
M  V30 2229 C 204.046 -2.12437 6.49122 0
M  V30 2230 O 203.734 -1.9209 7.80613 0
M  V30 2231 H 203.466 -0.455959 0.499076 0
M  V30 2232 H 206.02 -0.836193 1.87609 0
M  V30 2233 H 204.25 -3.3908 1.85908 0
M  V30 2234 H 205.939 -3.36028 2.27683 0
M  V30 2235 H 206.705 -2.05826 4.39159 0
M  V30 2236 H 202.584 -2.94609 3.54579 0
M  V30 2237 H 206.128 -1.70075 6.7655 0
M  V30 2238 H 202.025 -2.59244 5.91154 0
M  V30 2239 H 202.793 -2.06686 7.91974 0
M  V30 2240 N 205.456 -1.28612 -0.910864 0
M  V30 2241 C 206.406 -1.09423 -2.00026 0
M  V30 2242 C 207.39 -0.0170079 -1.60891 0
M  V30 2243 O 208.582 -0.237472 -1.754 0
M  V30 2244 C 205.711 -0.76114 -3.34756 0
M  V30 2245 C 204.797 -1.87735 -3.80285 0
M  V30 2246 N 205.188 -3.11938 -3.98156 0
M  V30 2247 C 203.486 -1.76786 -4.09467 0
M  V30 2248 C 204.187 -3.84687 -4.36338 0
M  V30 2249 N 203.163 -3.12555 -4.44759 0
M  V30 2250 H 206.965 -2.03658 -2.11898 0
M  V30 2251 H 204.479 -1.19573 -1.09891 0
M  V30 2252 H 206.476 -0.604743 -4.12491 0
M  V30 2253 H 205.136 0.173403 -3.24237 0
M  V30 2254 H 206.147 -3.47516 -3.83996 0
M  V30 2255 H 202.824 -0.905284 -4.07567 0
M  V30 2256 H 204.214 -4.91518 -4.58104 0
M  V30 2257 N 206.934 1.1197 -1.10907 0
M  V30 2258 C 208.182 1.83225 -0.852819 0
M  V30 2259 C 208.503 1.84769 0.623341 0
M  V30 2260 O 207.773 1.3143 1.45269 0
M  V30 2261 H 206.353 0.67849 -0.312507 0
M  V30 2262 H 209.015 1.3556 -1.40033 0
M  V30 2263 H 208.111 2.87265 -1.22005 0
M  V30 2264 N 208.412 0.89855 1.29475 0
M  V30 2265 C 209.658 0.534065 1.96263 0
M  V30 2266 C 210.013 -0.909415 1.69551 0
M  V30 2267 O 209.306 -1.63596 0.997349 0
M  V30 2268 C 209.5 0.761398 3.49195 0
M  V30 2269 C 209.329 2.22542 3.90775 0
M  V30 2270 C 208.099 2.87264 4.15701 0
M  V30 2271 C 210.297 3.20051 4.02581 0
M  V30 2272 N 208.279 4.24121 4.4384 0
M  V30 2273 C 209.65 4.42023 4.34759 0
M  V30 2274 C 211.705 3.15657 3.85052 0
M  V30 2275 C 210.408 5.60161 4.51235 0
M  V30 2276 C 212.434 4.33078 4.02737 0
M  V30 2277 C 211.796 5.5382 4.35273 0
M  V30 2278 H 207.895 0.245013 0.742625 0
M  V30 2279 H 210.479 1.15912 1.56437 0
M  V30 2280 H 208.65 0.165732 3.88046 0
M  V30 2281 H 210.382 0.362462 4.03074 0
M  V30 2282 H 207.137 2.38064 4.09417 0
M  V30 2283 H 207.561 4.94839 4.6202 0
M  V30 2284 H 212.203 2.23396 3.58962 0
M  V30 2285 H 209.921 6.52913 4.76162 0
M  V30 2286 H 213.507 4.31163 3.90628 0
M  V30 2287 H 212.387 6.43166 4.48672 0
M  V30 2288 N 209.89 -1.43072 0.660911 0
M  V30 2289 C 211.139 -2.00942 0.174735 0
M  V30 2290 C 211.452 -1.52797 -1.22117 0
M  V30 2291 O 212.658 -2.02991 -1.80297 0
M  V30 2292 C 211.114 -3.58948 0.261559 0
M  V30 2293 C 210.722 -4.16085 1.66064 0
M  V30 2294 C 212.466 -4.24173 -0.166617 0
M  V30 2295 C 210.373 -5.6641 1.70098 0
M  V30 2296 H 209.303 -0.751483 0.0615631 0
M  V30 2297 H 211.954 -1.63955 0.824069 0
M  V30 2298 H 210.336 -3.93372 -0.455421 0
M  V30 2299 H 211.51 -3.93147 2.40359 0
M  V30 2300 H 209.825 -3.6326 2.03546 0
M  V30 2301 H 212.422 -5.34471 -0.156433 0
M  V30 2302 H 212.765 -3.98647 -1.19943 0
M  V30 2303 H 213.298 -3.94659 0.498875 0
M  V30 2304 H 210.037 -5.96715 2.71315 0
M  V30 2305 H 209.557 -5.91382 1.00139 0
M  V30 2306 H 211.236 -6.30585 1.44816 0
M  V30 2307 N 211.368 -0.403325 -1.52352 0
M  V30 2308 C 212.614 0.174605 -2.02047 0
M  V30 2309 C 212.947 1.45282 -1.28867 0
M  V30 2310 O 212.222 1.90483 -0.393257 0
M  V30 2311 C 212.505 0.428238 -3.57545 0
M  V30 2312 C 212.358 -0.866248 -4.4138 0
M  V30 2313 C 213.677 1.21287 -4.23057 0
M  V30 2314 H 210.796 0.0619851 -0.734389 0
M  V30 2315 H 213.438 -0.53565 -1.82293 0
M  V30 2316 H 211.588 1.03327 -3.74507 0
M  V30 2317 H 213.26 -1.50265 -4.3614 0
M  V30 2318 H 211.503 -1.47851 -4.07827 0
M  V30 2319 H 212.174 -0.643249 -5.48239 0
M  V30 2320 H 214.65 0.700703 -4.10158 0
M  V30 2321 H 213.526 1.35909 -5.31808 0
M  V30 2322 H 213.787 2.23193 -3.81625 0
M  V30 2323 N 212.846 1.57033 -0.133567 0
M  V30 2324 C 213.778 2.13176 0.841944 0
M  V30 2325 C 214.791 1.07794 1.22001 0
M  V30 2326 O 215.98 1.35117 1.16643 0
M  V30 2327 C 213.08 2.62847 2.13926 0
M  V30 2328 C 212.253 3.92486 1.93064 0
M  V30 2329 C 211.312 4.27605 3.0666 0
M  V30 2330 O 210.338 4.96168 2.78937 0
M  V30 2331 N 211.54 3.861 4.33483 0
M  V30 2332 H 214.305 2.97503 0.362192 0
M  V30 2333 H 211.866 1.61821 0.05042 0
M  V30 2334 H 213.858 2.83363 2.88942 0
M  V30 2335 H 212.428 1.83319 2.53205 0
M  V30 2336 H 211.648 3.80732 1.02159 0
M  V30 2337 H 212.936 4.77225 1.76447 0
M  V30 2338 H 212.334 3.30828 4.58878 0
M  V30 2339 H 210.891 4.11694 5.05323 0
M  V30 2340 N 214.325 -0.140222 1.56975 0
M  V30 2341 C 215.272 -1.17292 1.98774 0
M  V30 2342 C 216.242 -1.4232 0.856408 0
M  V30 2343 O 217.427 -1.54541 1.119 0
M  V30 2344 C 214.567 -2.49973 2.37923 0
M  V30 2345 C 213.68 -2.32062 3.64378 0
M  V30 2346 C 212.815 -3.57825 3.926 0
M  V30 2347 C 211.854 -3.3498 5.12303 0
M  V30 2348 N 210.991 -4.52891 5.36502 0
M  V30 2349 H 215.831 -0.809472 2.86795 0
M  V30 2350 H 213.368 -0.388237 1.41884 0
M  V30 2351 H 215.326 -3.27346 2.58652 0
M  V30 2352 H 213.956 -2.84252 1.52972 0
M  V30 2353 H 213.008 -1.45711 3.51387 0
M  V30 2354 H 214.32 -2.11145 4.51906 0
M  V30 2355 H 213.474 -4.43624 4.13863 0
M  V30 2356 H 212.213 -3.81753 3.03506 0
M  V30 2357 H 211.218 -2.4757 4.90906 0
M  V30 2358 H 212.443 -3.12444 6.02956 0
M  V30 2359 H 210.389 -4.76979 4.50363 0
M  V30 2360 H 210.306 -4.35001 6.18312 0
M  V30 2361 H 211.574 -5.39884 5.62268 0
M  V30 2362 N 215.803 -1.52179 -0.40978 0
M  V30 2363 C 217.052 -1.65434 -1.15388 0
M  V30 2364 C 217.365 -0.390056 -1.91671 0
M  V30 2365 O 218.571 -0.402399 -2.68501 0
M  V30 2366 C 217.027 -2.92279 -2.10003 0
M  V30 2367 C 216.635 -4.25813 -1.39239 0
M  V30 2368 C 218.379 -3.14897 -2.84675 0
M  V30 2369 C 216.286 -5.43782 -2.32498 0
M  V30 2370 H 215.216 -0.616267 -0.434432 0
M  V30 2371 H 217.867 -1.78666 -0.418401 0
M  V30 2372 H 216.249 -2.72744 -2.871 0
M  V30 2373 H 217.423 -4.55828 -0.675099 0
M  V30 2374 H 215.738 -4.09292 -0.766097 0
M  V30 2375 H 218.335 -4.0021 -3.54593 0
M  V30 2376 H 218.678 -2.29103 -3.47588 0
M  V30 2377 H 219.211 -3.34901 -2.14677 0
M  V30 2378 H 215.95 -6.3192 -1.74233 0
M  V30 2379 H 215.47 -5.18106 -3.02201 0
M  V30 2380 H 217.149 -5.76834 -2.93038 0
M  V30 2381 N 217.281 0.66697 -1.42791 0
M  V30 2382 C 218.528 1.42699 -1.43678 0
M  V30 2383 C 218.856 1.94419 -0.0560425 0
M  V30 2384 O 218.111 1.7182 0.936831 0
M  V30 2385 C 218.41 2.6349 -2.4147 0
M  V30 2386 C 218.076 2.30267 -3.8767 0
M  V30 2387 C 216.738 2.20918 -4.27491 0
M  V30 2388 C 219.09 2.03435 -4.79858 0
M  V30 2389 C 216.418 1.82873 -5.57471 0
M  V30 2390 C 218.77 1.66892 -6.10188 0
M  V30 2391 C 217.434 1.56058 -6.49001 0
M  V30 2392 H 216.704 0.522171 -0.525755 0
M  V30 2393 H 219.351 0.759785 -1.75783 0
M  V30 2394 H 217.656 3.35279 -2.0272 0
M  V30 2395 H 219.353 3.21684 -2.39417 0
M  V30 2396 H 215.943 2.38449 -3.56146 0
M  V30 2397 H 220.127 2.09586 -4.49875 0
M  V30 2398 H 215.383 1.7306 -5.86396 0
M  V30 2399 H 219.557 1.45157 -6.81104 0
M  V30 2400 H 217.184 1.26348 -7.49627 0
M  V30 2401 N 218.759 1.29093 0.90403 0
M  V30 2402 C 219.691 1.09658 2.01266 0
M  V30 2403 C 220.704 0.0453729 1.62737 0
M  V30 2404 O 221.893 0.289446 1.76138 0
M  V30 2405 C 218.993 0.646278 3.32681 0
M  V30 2406 C 218.166 1.77505 3.99763 0
M  V30 2407 C 217.225 1.31649 5.09465 0
M  V30 2408 O 216.251 2.02045 5.32134 0
M  V30 2409 N 217.453 0.184997 5.80205 0
M  V30 2410 H 220.218 2.05135 2.18494 0
M  V30 2411 H 217.779 1.20975 1.07594 0
M  V30 2412 H 219.771 0.322906 4.0341 0
M  V30 2413 H 218.341 -0.215916 3.11853 0
M  V30 2414 H 217.561 2.26752 3.22455 0
M  V30 2415 H 218.849 2.53198 4.41325 0
M  V30 2416 H 218.247 -0.402021 5.6427 0
M  V30 2417 H 216.804 -0.0790358 6.51752 0
M  V30 2418 N 220.237 -1.11381 1.11499 0
M  V30 2419 C 221.2 -2.15622 0.777153 0
M  V30 2420 C 222.2 -1.59504 -0.203779 0
M  V30 2421 O 223.39 -1.74188 0.020782 0
M  V30 2422 C 220.522 -3.40556 0.153116 0
M  V30 2423 H 221.715 -2.47021 1.70061 0
M  V30 2424 H 219.268 -1.26577 0.916952 0
M  V30 2425 H 220.003 -3.14767 -0.780536 0
M  V30 2426 H 219.788 -3.8257 0.859238 0
M  V30 2427 H 221.278 -4.17546 -0.0671044 0
M  V30 2428 N 221.715 -0.905404 -1.28997 0
M  V30 2429 C 222.678 -0.392253 -2.25819 0
M  V30 2430 C 223.678 0.476753 -1.5357 0
M  V30 2431 O 224.868 0.280994 -1.71919 0
M  V30 2432 C 222 0.438588 -3.38067 0
M  V30 2433 H 223.193 -1.24743 -2.72725 0
M  V30 2434 H 220.746 -0.684051 -1.40536 0
M  V30 2435 H 221.481 1.31352 -2.96508 0
M  V30 2436 H 221.266 -0.184167 -3.91667 0
M  V30 2437 H 222.756 0.78873 -4.10084 0
M  V30 2438 N 223.193 1.4272 -0.668489 0
M  V30 2439 C 224.123 2.335 -0.000100175 0
M  V30 2440 C 225.104 1.50328 0.795964 0
M  V30 2441 O 226.289 1.78949 0.754385 0
M  V30 2442 C 223.419 3.33874 0.956302 0
M  V30 2443 C 222.373 4.27152 0.269278 0
M  V30 2444 C 221.699 5.17684 1.33818 0
M  V30 2445 C 222.999 5.15373 -0.847805 0
M  V30 2446 H 224.693 2.89639 -0.758244 0
M  V30 2447 H 222.239 1.39269 -0.366079 0
M  V30 2448 H 224.192 3.9629 1.43292 0
M  V30 2449 H 222.916 2.76025 1.74579 0
M  V30 2450 H 221.575 3.66123 -0.187042 0
M  V30 2451 H 221.223 4.56165 2.1195 0
M  V30 2452 H 220.923 5.80918 0.883659 0
M  V30 2453 H 222.447 5.82974 1.81586 0
M  V30 2454 H 223.861 5.7151 -0.452681 0
M  V30 2455 H 222.258 5.87407 -1.22773 0
M  V30 2456 H 223.328 4.5415 -1.69929 0
M  V30 2457 N 224.671 0.411399 1.52136 0
M  V30 2458 C 225.901 -0.16284 2.05957 0
M  V30 2459 C 226.309 -1.3922 1.28119 0
M  V30 2460 O 225.652 -1.80768 0.326881 0
M  V30 2461 C 225.714 -0.575946 3.54856 0
M  V30 2462 C 225.378 0.542998 4.53763 0
M  V30 2463 C 226.375 1.40726 5.00492 0
M  V30 2464 C 224.06 0.716337 4.97166 0
M  V30 2465 C 226.054 2.4298 5.8927 0
M  V30 2466 C 223.741 1.74218 5.8574 0
M  V30 2467 C 224.739 2.59731 6.31687 0
M  V30 2468 O 224.427 3.60558 7.18507 0
M  V30 2469 H 224.159 -0.0229125 0.675612 0
M  V30 2470 H 226.713 0.581634 1.96993 0
M  V30 2471 H 224.943 -1.37274 3.61515 0
M  V30 2472 H 226.632 -1.07836 3.91313 0
M  V30 2473 H 227.398 1.28476 4.67674 0
M  V30 2474 H 223.277 0.0603857 4.6096 0
M  V30 2475 H 226.821 3.0976 6.25055 0
M  V30 2476 H 222.718 1.86498 6.17971 0
M  V30 2477 H 223.486 3.56829 7.36624 0
M  V30 2478 N 226.149 -1.5696 0.141893 0
M  V30 2479 C 227.112 -2.15316 -0.785587 0
M  V30 2480 C 228.112 -1.09366 -1.1788 0
M  V30 2481 O 229.302 -1.35031 -1.10056 0
M  V30 2482 C 226.434 -2.71211 -2.06537 0
M  V30 2483 H 227.627 -2.98608 -0.278041 0
M  V30 2484 H 225.18 -1.5593 -0.107519 0
M  V30 2485 H 225.915 -1.91571 -2.6167 0
M  V30 2486 H 225.7 -3.4872 -1.79268 0
M  V30 2487 H 227.19 -3.16189 -2.72789 0
M  V30 2488 N 227.627 0.131896 -1.57047 0
M  V30 2489 C 228.59 1.14638 -1.98471 0
M  V30 2490 C 229.59 1.35029 -0.873148 0
M  V30 2491 O 230.78 1.31764 -1.13946 0
M  V30 2492 C 227.912 2.50358 -2.31373 0
M  V30 2493 H 229.105 0.79064 -2.8929 0
M  V30 2494 H 226.658 0.375761 -1.51716 0
M  V30 2495 H 227.393 2.90876 -1.43393 0
M  V30 2496 H 227.178 2.36915 -3.12432 0
M  V30 2497 H 228.668 3.23395 -2.64207 0
M  V30 2498 N 229.106 1.52395 0.401703 0
M  V30 2499 C 230.517 1.58899 0.980202 0
M  V30 2500 C 230.868 0.434032 1.91339 0
M  V30 2501 O 229.993 -0.444619 2.11783 0
M  V30 2502 C 230.588 2.87994 1.78451 0
M  V30 2503 C 229.147 2.96953 2.31292 0
M  V30 2504 C 228.294 2.53903 1.11483 0
M  V30 2505 H 231.245 1.57657 0.18168 0
M  V30 2506 H 231.266 2.73765 2.64259 0
M  V30 2507 H 230.778 3.72035 1.10506 0
M  V30 2508 H 228.879 2.17422 3.02586 0
M  V30 2509 H 228.992 4.01344 2.61649 0
M  V30 2510 H 227.356 2.07925 1.47104 0
M  V30 2511 H 228.139 3.40326 0.450928 0
M  V30 2512 N 230.584 -0.659388 1.43143 0
M  V30 2513 C 231.814 -1.44513 1.47646 0
M  V30 2514 C 232.222 -1.88981 0.0910095 0
M  V30 2515 O 231.565 -1.59702 -0.907789 0
M  V30 2516 C 231.627 -2.71663 2.35456 0
M  V30 2517 C 231.291 -2.49175 3.83094 0
M  V30 2518 C 232.288 -2.1279 4.74359 0
M  V30 2519 C 229.973 -2.63691 4.27519 0
M  V30 2520 C 231.967 -1.9121 6.08044 0
M  V30 2521 C 229.654 -2.41726 5.61259 0
M  V30 2522 C 230.652 -2.0554 6.51339 0
M  V30 2523 O 230.34 -1.838 7.82606 0
M  V30 2524 H 230.072 -0.45064 0.503884 0
M  V30 2525 H 232.626 -0.816248 1.88485 0
M  V30 2526 H 230.856 -3.37089 1.89493 0
M  V30 2527 H 232.545 -3.33595 2.31235 0
M  V30 2528 H 233.311 -2.01157 4.41317 0
M  V30 2529 H 229.19 -2.90832 3.57684 0
M  V30 2530 H 232.734 -1.62889 6.78316 0
M  V30 2531 H 228.631 -2.52959 5.9387 0
M  V30 2532 H 229.399 -1.98275 7.94122 0
M  V30 2533 N 232.062 -1.29571 -0.897171 0
M  V30 2534 C 233.009 -1.14916 -2.00158 0
M  V30 2535 C 233.979 -0.0418149 -1.66047 0
M  V30 2536 O 235.164 -0.209793 -1.89643 0
M  V30 2537 C 232.304 -0.834307 -3.34863 0
M  V30 2538 C 231.417 -2.02234 -3.8174 0
M  V30 2539 C 230.552 -1.64664 -5.05034 0
M  V30 2540 C 229.591 -2.80033 -5.44286 0
M  V30 2541 N 228.728 -2.42843 -6.58765 0
M  V30 2542 H 233.568 -2.09403 -2.12025 0
M  V30 2543 H 231.105 -1.042 -1.0383 0
M  V30 2544 H 233.063 -0.632436 -4.12379 0
M  V30 2545 H 231.693 0.0736656 -3.22716 0
M  V30 2546 H 230.745 -2.33583 -3.00238 0
M  V30 2547 H 232.057 -2.88673 -4.06779 0
M  V30 2548 H 231.211 -1.4078 -5.9014 0
M  V30 2549 H 229.95 -0.753766 -4.8184 0
M  V30 2550 H 228.955 -3.04596 -4.57713 0
M  V30 2551 H 230.18 -3.69989 -5.6946 0
M  V30 2552 H 228.126 -1.56046 -6.3717 0
M  V30 2553 H 228.043 -3.22815 -6.83613 0
M  V30 2554 H 229.311 -2.22285 -7.47134 0
M  V30 2555 N 233.54 1.10788 -1.12088 0
M  V30 2556 C 234.765 1.87002 -0.896949 0
M  V30 2557 C 235.19 1.79933 0.548261 0
M  V30 2558 O 234.548 1.16662 1.38779 0
M  V30 2559 C 234.596 3.3349 -1.37174 0
M  V30 2560 O 233.7 4.08745 -0.547831 0
M  V30 2561 H 233.041 0.580397 -0.322545 0
M  V30 2562 H 235.571 1.39996 -1.49206 0
M  V30 2563 H 235.581 3.84339 -1.36922 0
M  V30 2564 H 234.256 3.37951 -2.42408 0
M  V30 2565 H 232.833 3.6776 -0.617034 0
M  V30 2566 N 235.018 0.912232 1.28515 0
M  V30 2567 C 236.295 0.463597 1.90027 0
M  V30 2568 C 236.675 -1.05753 1.82701 0
M  V30 2569 O 236.023 -1.90492 1.26194 0
M  V30 2570 C 236.233 0.992253 3.34597 0
M  V30 2571 C 237.581 1.04344 4.11579 0
M  V30 2572 O 238.605 0.94079 3.43551 0
M  V30 2573 O 237.464 1.1995 5.33174 0
M  V30 2574 H 234.558 0.146666 0.813891 0
M  V30 2575 H 237.104 1.00292 1.36893 0
M  V30 2576 H 235.876 2.03623 3.34146 0
M  V30 2577 H 235.499 0.433672 3.95228 0
M  V30 2578 N 236.496 -1.42363 0.676048 0
M  V30 2579 C 237.743 -2.01522 0.19883 0
M  V30 2580 C 238.071 -1.53456 -1.19505 0
M  V30 2581 O 237.326 -0.727967 -1.81657 0
M  V30 2582 C 237.625 -3.56929 0.183431 0
M  V30 2583 C 237.291 -4.24431 1.52215 0
M  V30 2584 C 235.953 -4.42585 1.8887 0
M  V30 2585 C 238.305 -4.62459 2.40377 0
M  V30 2586 C 235.633 -4.96039 3.13309 0
M  V30 2587 C 237.985 -5.17294 3.64129 0
M  V30 2588 C 236.649 -5.33661 4.00951 0
M  V30 2589 H 235.919 -0.737419 0.0727571 0
M  V30 2590 H 238.566 -1.70531 0.871281 0
M  V30 2591 H 236.871 -3.87594 -0.572532 0
M  V30 2592 H 238.568 -4.00486 -0.203035 0
M  V30 2593 H 235.158 -4.10661 1.22701 0
M  V30 2594 H 239.342 -4.48105 2.13343 0
M  V30 2595 H 234.598 -5.06896 3.41857 0
M  V30 2596 H 238.772 -5.45704 4.32644 0
M  V30 2597 H 236.399 -5.74845 4.9745 0
M  V30 2598 N 237.974 -0.419461 -1.51915 0
M  V30 2599 C 238.904 0.391813 -2.30189 0
M  V30 2600 C 239.885 1.03699 -1.34836 0
M  V30 2601 O 241.07 1.04403 -1.63748 0
M  V30 2602 C 238.2 1.50312 -3.13087 0
M  V30 2603 C 237.154 0.9824 -4.16573 0
M  V30 2604 C 236.48 2.18809 -4.8788 0
M  V30 2605 C 237.78 0.0292356 -5.22292 0
M  V30 2606 H 239.474 -0.26135 -2.98257 0
M  V30 2607 H 237.02 -0.127134 -1.43438 0
M  V30 2608 H 238.973 2.07773 -3.66617 0
M  V30 2609 H 237.697 2.18431 -2.42807 0
M  V30 2610 H 236.356 0.430119 -3.64068 0
M  V30 2611 H 236.004 2.85507 -4.14119 0
M  V30 2612 H 235.704 1.84615 -5.57845 0
M  V30 2613 H 237.228 2.76858 -5.44226 0
M  V30 2614 H 238.642 0.512976 -5.71 0
M  V30 2615 H 237.039 -0.2244 -5.9968 0
M  V30 2616 H 238.109 -0.912931 -4.76228 0
M  V30 2617 N 239.452 1.56882 -0.150215 0
M  V30 2618 C 240.399 2.16922 0.788244 0
M  V30 2619 C 241.369 1.10303 1.24187 0
M  V30 2620 O 242.554 1.38359 1.31383 0
M  V30 2621 C 239.694 2.79754 2.02068 0
M  V30 2622 C 238.807 4.00775 1.61257 0
M  V30 2623 C 237.942 4.51595 2.79705 0
M  V30 2624 C 236.981 5.65074 2.35282 0
M  V30 2625 N 236.118 6.10499 3.4675 0
M  V30 2626 H 240.958 2.96779 0.269444 0
M  V30 2627 H 238.495 1.46599 0.12128 0
M  V30 2628 H 240.453 3.14329 2.74323 0
M  V30 2629 H 239.083 2.02536 2.51354 0
M  V30 2630 H 238.135 3.72158 0.787553 0
M  V30 2631 H 239.447 4.82978 1.24633 0
M  V30 2632 H 238.601 4.88242 3.60145 0
M  V30 2633 H 237.34 3.68406 3.19576 0
M  V30 2634 H 236.345 5.28 1.53283 0
M  V30 2635 H 237.57 6.50052 1.96493 0
M  V30 2636 H 235.516 5.30243 3.86236 0
M  V30 2637 H 235.433 6.87637 3.14152 0
M  V30 2638 H 236.701 6.51791 4.27537 0
M  V30 2639 N 240.93 -0.123565 1.57115 0
M  V30 2640 C 241.893 -1.13583 1.99076 0
M  V30 2641 C 242.893 -1.34564 0.880296 0
M  V30 2642 O 244.083 -1.31158 1.14644 0
M  V30 2643 C 241.215 -2.49128 2.32698 0
M  V30 2644 H 242.408 -0.775287 2.89706 0
M  V30 2645 H 239.961 -0.36771 1.51913 0
M  V30 2646 H 240.696 -2.90111 1.44934 0
M  V30 2647 H 240.481 -2.35255 3.13684 0
M  V30 2648 H 241.971 -3.2199 2.65918 0
M  V30 2649 N 242.408 -1.52605 -0.393616 0
M  V30 2650 C 243.338 -1.80022 -1.48709 0
M  V30 2651 C 244.319 -0.651995 -1.57108 0
M  V30 2652 O 245.504 -0.89913 -1.72132 0
M  V30 2653 C 242.634 -1.96492 -2.86371 0
M  V30 2654 C 241.588 -3.12161 -2.92813 0
M  V30 2655 C 240.914 -3.13877 -4.3288 0
M  V30 2656 C 242.214 -4.51322 -2.6288 0
M  V30 2657 H 243.908 -2.71589 -1.26015 0
M  V30 2658 H 241.454 -1.30684 -0.604778 0
M  V30 2659 H 243.407 -2.14255 -3.62867 0
M  V30 2660 H 242.131 -1.01611 -3.10391 0
M  V30 2661 H 240.79 -2.94173 -2.18764 0
M  V30 2662 H 240.438 -2.16687 -4.53933 0
M  V30 2663 H 240.138 -3.91576 -4.38112 0
M  V30 2664 H 241.662 -3.33789 -5.1129 0
M  V30 2665 H 243.076 -4.69435 -3.29096 0
M  V30 2666 H 241.473 -5.31053 -2.79468 0
M  V30 2667 H 242.543 -4.58353 -1.58242 0
M  V30 2668 N 243.887 0.651787 -1.4349 0
M  V30 2669 C 245.112 1.44434 -1.48841 0
M  V30 2670 C 245.537 1.8779 -0.107955 0
M  V30 2671 O 244.895 1.57464 0.898602 0
M  V30 2672 C 244.943 2.65458 -2.44059 0
M  V30 2673 O 244.047 3.64566 -1.92784 0
M  V30 2674 H 243.388 0.433005 -0.503391 0
M  V30 2675 H 245.918 0.797451 -1.88419 0
M  V30 2676 H 245.928 3.13255 -2.6141 0
M  V30 2677 H 244.603 2.33244 -3.4434 0
M  V30 2678 H 243.18 3.23716 -1.851 0
M  V30 2679 N 245.365 1.30045 0.890287 0
M  V30 2680 C 246.312 1.15976 1.99545 0
M  V30 2681 C 247.282 0.0506202 1.66023 0
M  V30 2682 O 248.467 0.219847 1.89529 0
M  V30 2683 C 245.607 0.852054 3.34416 0
M  V30 2684 C 244.72 2.04255 3.80662 0
M  V30 2685 C 243.855 1.6734 5.04154 0
M  V30 2686 C 242.894 2.82916 5.42794 0
M  V30 2687 N 242.031 2.46333 6.57468 0
M  V30 2688 H 246.871 2.10524 2.10911 0
M  V30 2689 H 244.408 1.04749 1.03276 0
M  V30 2690 H 246.366 0.654296 4.12037 0
M  V30 2691 H 244.996 -0.0565502 3.2275 0
M  V30 2692 H 244.048 2.35172 2.98995 0
M  V30 2693 H 245.36 2.90826 4.05242 0
M  V30 2694 H 244.514 1.43908 5.89386 0
M  V30 2695 H 243.253 0.779308 4.81433 0
M  V30 2696 H 242.258 3.0702 4.56091 0
M  V30 2697 H 243.483 3.73004 5.6749 0
M  V30 2698 H 241.429 1.59423 6.36334 0
M  V30 2699 H 241.346 3.26436 6.81891 0
M  V30 2700 H 242.614 2.26244 7.45945 0
M  V30 2701 N 246.843 -1.10192 1.12674 0
M  V30 2702 C 248.091 -1.81845 0.881861 0
M  V30 2703 C 248.412 -1.85737 -0.593867 0
M  V30 2704 O 247.682 -1.33724 -1.4316 0
M  V30 2705 H 246.262 -0.673432 0.323261 0
M  V30 2706 H 248.924 -1.33316 1.42172 0
M  V30 2707 H 248.02 -2.85288 1.2656 0
M  V30 2708 N 248.321 -0.919034 -1.28029 0
M  V30 2709 C 249.253 -0.368762 -2.26214 0
M  V30 2710 C 250.266 0.495716 -1.55069 0
M  V30 2711 O 251.455 0.30974 -1.75792 0
M  V30 2712 C 248.555 0.491049 -3.35324 0
M  V30 2713 C 247.728 -0.352133 -4.3598 0
M  V30 2714 C 246.787 0.443622 -5.24327 0
M  V30 2715 O 245.813 -0.14566 -5.69014 0
M  V30 2716 N 247.015 1.74545 -5.53637 0
M  V30 2717 H 249.78 -1.21273 -2.74068 0
M  V30 2718 H 247.341 -0.785541 -1.41566 0
M  V30 2719 H 249.333 1.03026 -3.91366 0
M  V30 2720 H 247.903 1.23574 -2.87138 0
M  V30 2721 H 247.123 -1.07269 -3.79324 0
M  V30 2722 H 248.411 -0.928883 -5.00249 0
M  V30 2723 H 247.809 2.24666 -5.19174 0
M  V30 2724 H 246.366 2.23138 -6.12416 0
M  V30 2725 N 249.799 1.42003 -0.683588 0
M  V30 2726 C 250.747 2.326 0.000815408 0
M  V30 2727 C 251.741 1.50308 0.781278 0
M  V30 2728 O 252.947 1.66322 0.688251 0
M  V30 2729 H 249.322 0.751758 0.0190616 0
M  V30 2730 H 251.293 2.88011 -0.780528 0
M  V30 2731 C 250.042 3.34978 0.93195 0
M  V30 2732 H 249.365 3.98345 0.340817 0
M  V30 2733 H 250.805 4.00936 1.37936 0
M  V30 2734 C 249.264 2.67925 2.04249 0
M  V30 2735 O 249.794 2.51788 3.12995 0
M  V30 2736 N 248 2.2681 1.81675 0
M  V30 2737 H 247.547 2.40135 0.932363 0
M  V30 2738 H 247.505 1.8228 2.56167 0
M  V30 2739 N 251.277 0.427512 1.51691 0
M  V30 2740 C 252.523 -0.142439 2.02299 0
M  V30 2741 C 252.856 -1.43214 1.31162 0
M  V30 2742 O 252.131 -1.89833 0.423511 0
M  V30 2743 C 252.414 -0.371301 3.58181 0
M  V30 2744 C 252.267 0.936358 4.39946 0
M  V30 2745 C 253.586 -1.14542 4.24933 0
M  V30 2746 H 250.705 -0.0502937 0.735282 0
M  V30 2747 H 253.347 0.564584 1.81418 0
M  V30 2748 H 251.497 -0.973559 3.76104 0
M  V30 2749 H 253.169 1.57184 4.33694 0
M  V30 2750 H 251.412 1.5432 4.05423 0
M  V30 2751 H 252.083 0.730388 5.47147 0
M  V30 2752 H 254.559 -0.635362 4.11221 0
M  V30 2753 H 253.435 -1.27431 5.33903 0
M  V30 2754 H 253.696 -2.17093 3.85127 0
M  V30 2755 N 252.755 -1.56801 0.158532 0
M  V30 2756 C 253.983 -2.00859 -0.496303 0
M  V30 2757 C 254.398 -1.03871 -1.57659 0
M  V30 2758 O 253.755 -0.0375165 -1.82461 0
M  V30 2759 C 253.806 -3.4479 -1.08638 0
M  V30 2760 O 253.527 -4.38072 -0.0492322 0
M  V30 2761 C 255.028 -4.04185 -1.8207 0
M  V30 2762 H 252.248 -0.65864 -0.128199 0
M  V30 2763 H 254.792 -2.02885 0.256506 0
M  V30 2764 H 252.947 -3.43579 -1.78975 0
M  V30 2765 H 253.361 -5.2227 -0.483102 0
M  V30 2766 H 254.835 -5.06857 -2.18633 0
M  V30 2767 H 255.312 -3.45549 -2.71095 0
M  V30 2768 H 255.918 -4.0906 -1.16405 0
M  V30 2769 N 254.233 0.115231 -1.57178 0
M  V30 2770 C 255.143 1.15994 -2.03918 0
M  V30 2771 C 256.159 1.45103 -0.960268 0
M  V30 2772 O 257.335 1.56144 -1.27204 0
M  V30 2773 C 254.4 2.46568 -2.43732 0
M  V30 2774 C 253.461 2.24822 -3.65723 0
M  V30 2775 C 252.694 3.4917 -4.03629 0
M  V30 2776 O 252.917 4.56623 -3.41835 0
M  V30 2777 O 251.851 3.39949 -4.96708 0
M  V30 2778 H 255.677 0.793019 -2.93164 0
M  V30 2779 H 253.262 0.3263 -1.45793 0
M  V30 2780 H 255.144 3.23492 -2.70057 0
M  V30 2781 H 253.819 2.82726 -1.57631 0
M  V30 2782 H 252.726 1.45744 -3.44542 0
M  V30 2783 H 254.059 1.93566 -4.52541 0
M  V30 2784 N 255.711 1.52812 0.385517 0
M  V30 2785 C 256.621 1.80766 1.49535 0
M  V30 2786 C 257.637 0.694651 1.59532 0
M  V30 2787 O 258.813 0.982611 1.75803 0
M  V30 2788 C 255.878 1.97381 2.85029 0
M  V30 2789 C 254.939 3.21295 2.84724 0
M  V30 2790 C 254.172 3.37108 4.13756 0
M  V30 2791 O 254.395 2.5765 5.08893 0
M  V30 2792 O 253.329 4.30378 4.20783 0
M  V30 2793 H 257.155 2.75015 1.28842 0
M  V30 2794 H 254.74 1.37946 0.573697 0
M  V30 2795 H 256.622 2.09996 3.65349 0
M  V30 2796 H 255.297 1.06322 3.05741 0
M  V30 2797 H 254.204 3.1412 2.03174 0
M  V30 2798 H 255.537 4.12212 2.68965 0
M  V30 2799 N 257.189 -0.644168 1.43834 0
M  V30 2800 C 258.099 -1.78563 1.52159 0
M  V30 2801 C 259.115 -1.69147 0.408069 0
M  V30 2802 O 260.291 -1.90156 0.663524 0
M  V30 2803 C 257.356 -3.14888 1.45073 0
M  V30 2804 C 256.417 -3.36034 2.6717 0
M  V30 2805 C 255.65 -4.65855 2.60413 0
M  V30 2806 O 255.873 -5.45805 1.65689 0
M  V30 2807 O 254.807 -4.88918 3.5106 0
M  V30 2808 H 258.633 -1.74494 2.48567 0
M  V30 2809 H 256.218 -0.80378 1.25935 0
M  V30 2810 H 258.1 -3.96179 1.43597 0
M  V30 2811 H 256.775 -3.19528 0.518037 0
M  V30 2812 H 255.682 -2.54472 2.74217 0
M  V30 2813 H 257.015 -3.36247 3.59442 0
M  V30 2814 N 258.668 -1.30515 -0.883378 0
M  V30 2815 C 259.908 -1.20716 -1.64946 0
M  V30 2816 C 260.272 0.234072 -1.90568 0
M  V30 2817 O 261.473 0.455335 -2.64915 0
M  V30 2818 C 259.744 -2.01444 -2.9522 0
M  V30 2819 S 261.303 -2.0836 -3.86175 0
M  V30 2820 H 258.121 -0.430165 -0.566109 0
M  V30 2821 H 260.723 -1.65011 -1.04841 0
M  V30 2822 H 259.427 -3.05268 -2.74298 0
M  V30 2823 H 258.958 -1.57817 -3.60357 0
M  V30 2824 H 260.973 -1.21215 -4.81167 0
M  V30 2825 N 260.146 1.09593 -1.13257 0
M  V30 2826 C 261.076 2.18214 -0.830946 0
M  V30 2827 C 262.057 1.68812 0.208966 0
M  V30 2828 O 263.242 1.9408 0.0682666 0
M  V30 2829 C 260.372 3.46051 -0.294296 0
M  V30 2830 C 259.326 4.08778 -1.26826 0
M  V30 2831 C 258.652 5.31419 -0.591449 0
M  V30 2832 C 259.952 4.51476 -2.62615 0
M  V30 2833 H 261.646 2.43703 -1.73923 0
M  V30 2834 H 259.192 1.17128 -0.837675 0
M  V30 2835 H 261.145 4.2134 -0.0709606 0
M  V30 2836 H 259.869 3.20079 0.649366 0
M  V30 2837 H 258.528 3.35505 -1.47756 0
M  V30 2838 H 258.176 5.01727 0.357633 0
M  V30 2839 H 257.876 5.74341 -1.24123 0
M  V30 2840 H 259.4 6.09433 -0.377355 0
M  V30 2841 H 260.814 5.17999 -2.45663 0
M  V30 2842 H 259.211 5.05277 -3.23752 0
M  V30 2843 H 260.281 3.63962 -3.20406 0
M  V30 2844 N 261.624 0.925811 1.2754 0
M  V30 2845 C 262.534 0.428993 2.30644 0
M  V30 2846 C 263.55 -0.489387 1.66976 0
M  V30 2847 O 264.726 -0.372653 1.97922 0
M  V30 2848 C 261.791 -0.311967 3.45294 0
M  V30 2849 C 260.852 0.641098 4.24486 0
M  V30 2850 C 260.085 -0.0645955 5.33661 0
M  V30 2851 O 260.308 -1.28429 5.55754 0
M  V30 2852 O 259.242 0.606265 5.98839 0
M  V30 2853 H 263.068 1.28504 2.75173 0
M  V30 2854 H 260.653 0.691086 1.32455 0
M  V30 2855 H 262.535 -0.729972 4.15029 0
M  V30 2856 H 261.21 -1.14365 3.02824 0
M  V30 2857 H 260.117 1.10874 3.57292 0
M  V30 2858 H 261.45 1.43995 4.70666 0
M  V30 2859 N 263.102 -1.41638 0.69111 0
M  V30 2860 C 264.049 -2.30789 0.0229705 0
M  V30 2861 C 265.019 -1.46863 -0.775911 0
M  V30 2862 O 266.204 -1.75661 -0.74485 0
M  V30 2863 C 263.344 -3.32868 -0.910666 0
M  V30 2864 C 262.457 -4.31875 -0.103874 0
M  V30 2865 C 261.592 -5.21024 -1.03475 0
M  V30 2866 C 260.631 -6.11702 -0.220598 0
M  V30 2867 N 259.768 -6.93349 -1.10504 0
M  V30 2868 H 264.608 -2.87366 0.788978 0
M  V30 2869 H 262.145 -1.41535 0.400794 0
M  V30 2870 H 264.103 -3.90596 -1.46597 0
M  V30 2871 H 262.733 -2.77851 -1.64312 0
M  V30 2872 H 261.785 -3.76131 0.568285 0
M  V30 2873 H 263.097 -4.96003 0.527504 0
M  V30 2874 H 262.251 -5.83565 -1.65943 0
M  V30 2875 H 260.99 -4.57112 -1.69999 0
M  V30 2876 H 259.995 -5.48215 0.417187 0
M  V30 2877 H 261.22 -6.77668 0.440784 0
M  V30 2878 H 259.166 -6.3205 -1.75638 0
M  V30 2879 H 259.083 -7.54146 -0.529125 0
M  V30 2880 H 260.351 -7.60362 -1.71667 0
M  V30 2881 N 264.58 -0.43555 -1.51462 0
M  V30 2882 C 265.829 0.133007 -2.01261 0
M  V30 2883 C 266.142 1.43942 -1.32439 0
M  V30 2884 O 267.348 2.09081 -1.73198 0
M  V30 2885 C 265.804 0.287581 -3.58749 0
M  V30 2886 C 265.412 -1.00829 -4.36506 0
M  V30 2887 C 267.156 0.810004 -4.167 0
M  V30 2888 C 265.063 -0.819454 -5.85695 0
M  V30 2889 H 263.993 0.0534822 -0.752101 0
M  V30 2890 H 266.644 -0.565038 -1.74584 0
M  V30 2891 H 265.026 1.04859 -3.81865 0
M  V30 2892 H 266.2 -1.77749 -4.25138 0
M  V30 2893 H 264.515 -1.45911 -3.89999 0
M  V30 2894 H 267.112 0.967743 -5.2587 0
M  V30 2895 H 267.455 1.79196 -3.75758 0
M  V30 2896 H 267.988 0.107357 -3.97655 0
M  V30 2897 H 264.727 -1.77374 -6.31046 0
M  V30 2898 H 264.247 -0.0900208 -5.99732 0
M  V30 2899 H 265.926 -0.471949 -6.45276 0
M  V30 2900 N 266.058 1.56714 -0.166846 0
M  V30 2901 C 267.474 1.58473 0.189372 0
M  V30 2902 C 267.674 1.18201 1.63189 0
M  V30 2903 O 266.73 0.891528 2.36237 0
M  V30 2904 C 268.043 3.00573 -0.0873872 0
M  V30 2905 C 269.591 3.1299 -0.0252443 0
M  V30 2906 C 270.066 4.57174 -0.274934 0
M  V30 2907 N 271.557 4.62665 -0.222553 0
M  V30 2908 C 272.292 5.72072 -0.389985 0
M  V30 2909 N 271.788 6.90054 -0.616229 0
M  V30 2910 N 273.581 5.61153 -0.326202 0
M  V30 2911 H 265.732 1.8118 -1.10849 0
M  V30 2912 H 267.995 0.839525 -0.440342 0
M  V30 2913 H 267.701 3.34497 -1.0865 0
M  V30 2914 H 267.575 3.72019 0.623037 0
M  V30 2915 H 269.962 2.78895 0.96444 0
M  V30 2916 H 270.043 2.43989 -0.768309 0
M  V30 2917 H 269.687 4.91976 -1.26181 0
M  V30 2918 H 269.617 5.24328 0.48869 0
M  V30 2919 H 272.108 3.77863 -0.0531512 0
M  V30 2920 H 272.421 7.69311 -0.733559 0
M  V30 2921 H 270.766 6.91927 -0.652791 0
M  V30 2922 H 273.957 4.67859 -0.150072 0
M  V30 2923 H 274.13 6.46364 -0.460116 0
M  V30 2924 N 267.536 -0.106894 1.57237 0
M  V30 2925 C 268.466 -1.13148 2.04254 0
M  V30 2926 C 269.447 -1.42476 0.929224 0
M  V30 2927 O 270.632 -1.52709 1.19973 0
M  V30 2928 C 267.762 -2.4545 2.45706 0
M  V30 2929 C 266.716 -2.30558 3.60592 0
M  V30 2930 C 266.042 -3.67931 3.87983 0
M  V30 2931 C 267.342 -1.75597 4.91897 0
M  V30 2932 H 269.036 -0.740374 2.90101 0
M  V30 2933 H 266.582 -0.354696 1.39563 0
M  V30 2934 H 268.535 -3.17389 2.77205 0
M  V30 2935 H 267.259 -2.86475 1.56843 0
M  V30 2936 H 265.918 -1.61067 3.29322 0
M  V30 2937 H 265.566 -4.06462 2.96306 0
M  V30 2938 H 265.266 -3.58817 4.65322 0
M  V30 2939 H 266.79 -4.41356 4.21945 0
M  V30 2940 H 268.204 -2.37364 5.21854 0
M  V30 2941 H 266.601 -1.77272 5.73319 0
M  V30 2942 H 267.671 -0.714451 4.79608 0
M  V30 2943 N 269.014 -1.53014 -0.377408 0
M  V30 2944 C 270.261 -1.68623 -1.12128 0
M  V30 2945 C 270.589 -0.431997 -1.89642 0
M  V30 2946 O 269.844 0.585855 -1.86725 0
M  V30 2947 C 270.143 -2.87982 -2.11663 0
M  V30 2948 C 269.809 -4.24964 -1.50719 0
M  V30 2949 C 268.471 -4.62217 -1.33825 0
M  V30 2950 C 270.823 -5.10199 -1.06519 0
M  V30 2951 C 268.151 -5.82352 -0.712963 0
M  V30 2952 C 270.503 -6.30969 -0.453955 0
M  V30 2953 C 269.167 -6.66944 -0.272411 0
M  V30 2954 H 268.437 -0.617034 -0.410305 0
M  V30 2955 H 271.084 -1.8718 -0.404484 0
M  V30 2956 H 269.389 -2.63889 -2.89603 0
M  V30 2957 H 271.086 -2.97253 -2.6915 0
M  V30 2958 H 267.676 -3.95626 -1.64858 0
M  V30 2959 H 271.86 -4.81978 -1.18368 0
M  V30 2960 H 267.116 -6.08824 -0.560611 0
M  V30 2961 H 271.29 -6.96324 -0.103217 0
M  V30 2962 H 268.917 -7.59898 0.214181 0
M  V30 2963 N 270.492 0.636531 -1.44174 0
M  V30 2964 C 271.422 1.76003 -1.53444 0
M  V30 2965 C 272.403 1.65619 -0.387841 0
M  V30 2966 O 273.588 1.84461 -0.607257 0
M  V30 2967 C 270.718 3.14511 -1.4731 0
M  V30 2968 C 269.672 3.39677 -2.60391 0
M  V30 2969 C 268.998 4.78159 -2.39308 0
M  V30 2970 C 270.298 3.32772 -4.02567 0
M  V30 2971 H 271.992 1.68501 -2.47483 0
M  V30 2972 H 269.538 0.809237 -1.19111 0
M  V30 2973 H 271.491 3.92878 -1.52397 0
M  V30 2974 H 270.215 3.22783 -0.49785 0
M  V30 2975 H 268.874 2.63688 -2.54684 0
M  V30 2976 H 268.522 4.83128 -1.39988 0
M  V30 2977 H 268.222 4.95956 -3.15122 0
M  V30 2978 H 269.746 5.58762 -2.46205 0
M  V30 2979 H 271.16 4.01051 -4.09672 0
M  V30 2980 H 269.557 3.62104 -4.7854 0
M  V30 2981 H 270.627 2.30669 -4.2652 0
M  V30 2982 N 271.97 1.30982 0.876444 0
M  V30 2983 C 273.216 1.20474 1.63138 0
M  V30 2984 C 273.549 -0.238096 1.92735 0
M  V30 2985 O 272.824 -1.1692 1.55435 0
M  V30 2986 C 273.107 2.04244 2.96574 0
M  V30 2987 C 272.96 3.56793 2.73896 0
M  V30 2988 C 274.279 1.88684 3.97601 0
M  V30 2989 H 271.398 0.439001 0.591985 0
M  V30 2990 H 274.04 1.60704 1.01361 0
M  V30 2991 H 272.19 1.70063 3.493 0
M  V30 2992 H 273.862 4.01077 2.27892 0
M  V30 2993 H 272.105 3.80548 2.08245 0
M  V30 2994 H 272.776 4.10706 3.68815 0
M  V30 2995 H 275.252 2.18584 3.54062 0
M  V30 2996 H 274.128 2.4961 4.88862 0
M  V30 2997 H 274.389 0.848343 4.33884 0
M  V30 2998 N 273.449 -1.08991 1.13837 0
M  V30 2999 C 274.397 -2.17841 0.815347 0
M  V30 3000 C 275.391 -1.68164 -0.204233 0
M  V30 3001 O 276.597 -1.79897 -0.0609304 0
M  V30 3002 H 272.972 -0.710654 0.245915 0
M  V30 3003 H 274.943 -2.42315 1.74143 0
M  V30 3004 C 273.692 -3.46381 0.302614 0
M  V30 3005 H 273.015 -3.84979 1.0785 0
M  V30 3006 H 274.455 -4.23844 0.115074 0
M  V30 3007 C 272.914 -3.22556 -0.972591 0
M  V30 3008 O 273.444 -3.45599 -2.04754 0
M  V30 3009 N 271.65 -2.76134 -0.905455 0
M  V30 3010 H 271.197 -2.57582 -0.0305421 0
M  V30 3011 H 271.155 -2.60571 -1.75926 0
M  V30 3012 N 274.927 -0.932562 -1.27047 0
M  V30 3013 C 276.157 -0.591173 -1.97961 0
M  V30 3014 C 276.565 0.836219 -1.69717 0
M  V30 3015 O 275.908 1.56801 -0.957036 0
M  V30 3016 C 275.97 -0.743082 -3.51736 0
M  V30 3017 C 275.634 -2.1435 -4.03613 0
M  V30 3018 C 276.631 -3.11815 -4.16014 0
M  V30 3019 C 274.316 -2.46175 -4.37839 0
M  V30 3020 C 276.31 -4.39211 -4.61923 0
M  V30 3021 C 273.997 -3.73806 -4.83438 0
M  V30 3022 C 274.995 -4.70137 -4.95439 0
M  V30 3023 O 274.683 -5.95496 -5.40037 0
M  V30 3024 H 274.415 -0.222375 -0.638377 0
M  V30 3025 H 276.969 -1.25317 -1.62742 0
M  V30 3026 H 275.199 -0.0239739 -3.86693 0
M  V30 3027 H 276.888 -0.40603 -4.03864 0
M  V30 3028 H 277.654 -2.88549 -3.89826 0
M  V30 3029 H 273.533 -1.71936 -4.27737 0
M  V30 3030 H 277.077 -5.14404 -4.71205 0
M  V30 3031 H 272.974 -3.96888 -5.09068 0
M  V30 3032 H 273.742 -5.98554 -5.58279 0
M  V30 3033 N 276.405 1.4127 -0.698611 0
M  V30 3034 C 277.633 2.05503 -0.239992 0
M  V30 3035 C 278.048 1.52584 1.11191 0
M  V30 3036 O 277.405 0.675323 1.69545 0
M  V30 3037 C 277.456 3.60987 -0.192429 0
M  V30 3038 O 277.177 4.1195 -1.49094 0
M  V30 3039 C 278.678 4.42371 0.28681 0
M  V30 3040 H 275.898 0.661748 -0.111045 0
M  V30 3041 H 278.442 1.80987 -0.95205 0
M  V30 3042 H 276.597 3.84533 0.470472 0
M  V30 3043 H 277.011 5.06018 -1.38007 0
M  V30 3044 H 278.485 5.51344 0.26896 0
M  V30 3045 H 278.962 4.18699 1.32619 0
M  V30 3046 H 279.568 4.23897 -0.345201 0
M  V30 3047 N 277.883 0.443576 1.51229 0
M  V30 3048 C 278.846 -0.353132 2.26463 0
M  V30 3049 C 279.846 -0.944338 1.3015 0
M  V30 3050 O 281.036 -0.817813 1.5381 0
M  V30 3051 C 278.168 -1.50023 3.06114 0
M  V30 3052 H 279.361 0.3063 2.98332 0
M  V30 3053 H 276.914 0.196902 1.55055 0
M  V30 3054 H 277.649 -2.19553 2.38677 0
M  V30 3055 H 277.434 -1.08241 3.76864 0
M  V30 3056 H 278.924 -2.06296 3.63087 0
M  V30 3057 N 279.361 -1.56624 0.175154 0
M  V30 3058 C 280.589 -2.01374 -0.474971 0
M  V30 3059 C 281.004 -1.05537 -1.56548 0
M  V30 3060 O 280.361 -0.0568668 -1.82411 0
M  V30 3061 C 280.412 -3.45923 -1.04975 0
M  V30 3062 O 280.133 -4.381 -0.00276605 0
M  V30 3063 C 281.634 -4.06093 -1.77773 0
M  V30 3064 H 278.854 -0.659962 -0.121206 0
M  V30 3065 H 281.398 -2.02601 0.27801 0
M  V30 3066 H 279.553 -3.45458 -1.75321 0
M  V30 3067 H 279.967 -5.22753 -0.427681 0
M  V30 3068 H 281.441 -5.09147 -2.13245 0
M  V30 3069 H 281.918 -3.48405 -2.67414 0
M  V30 3070 H 282.524 -4.10272 -1.12059 0
M  V30 3071 N 280.839 0.0985539 -1.57292 0
M  V30 3072 C 282.088 0.801358 -1.85098 0
M  V30 3073 C 282.401 1.80066 -0.763902 0
M  V30 3074 O 283.607 2.55112 -0.928981 0
M  V30 3075 C 282.063 1.47599 -3.28242 0
M  V30 3076 C 281.671 0.516624 -4.45011 0
M  V30 3077 C 283.415 2.16272 -3.65276 0
M  V30 3078 C 281.322 1.19564 -5.79188 0
M  V30 3079 H 280.252 0.303022 -0.69043 0
M  V30 3080 H 282.903 0.0542623 -1.8342 0
M  V30 3081 H 281.285 2.27042 -3.2445 0
M  V30 3082 H 282.459 -0.246065 -4.60143 0
M  V30 3083 H 280.774 -0.064227 -4.1635 0
M  V30 3084 H 283.371 2.67802 -4.62803 0
M  V30 3085 H 283.714 2.95009 -2.93727 0
M  V30 3086 H 284.247 1.43693 -3.70941 0
M  V30 3087 H 280.986 0.449157 -6.53959 0
M  V30 3088 H 280.506 1.92984 -5.67906 0
M  V30 3089 H 282.185 1.7231 -6.23633 0
M  V30 3090 N 282.317 1.53212 0.369288 0
M  V30 3091 C 283.594 1.59815 1.12776 0
M  V30 3092 C 283.974 0.403402 2.0721 0
M  V30 3093 O 283.322 -0.606667 2.20299 0
M  V30 3094 C 283.532 2.94664 1.87013 0
M  V30 3095 C 284.88 3.49109 2.41677 0
M  V30 3096 O 285.904 2.96669 1.97144 0
M  V30 3097 O 284.763 4.40775 3.23079 0
M  V30 3098 H 281.857 0.645376 0.517125 0
M  V30 3099 H 284.403 1.65553 0.37285 0
M  V30 3100 H 283.175 3.73061 1.18071 0
M  V30 3101 H 282.798 2.92401 2.69421 0
M  V30 3102 N 283.795 -0.628877 1.44509 0
M  V30 3103 C 285.041 -1.39045 1.47629 0
M  V30 3104 C 285.374 -1.93892 0.109343 0
M  V30 3105 O 284.649 -1.7379 -0.87334 0
M  V30 3106 C 284.932 -2.55408 2.53848 0
M  V30 3107 C 284.785 -2.05896 3.99909 0
M  V30 3108 C 286.104 -3.5759 2.56549 0
M  V30 3109 H 283.223 -0.504232 0.537512 0
M  V30 3110 H 285.865 -0.710854 1.76201 0
M  V30 3111 H 284.015 -3.13384 2.29615 0
M  V30 3112 H 285.687 -1.52734 4.35282 0
M  V30 3113 H 283.93 -1.37061 4.11578 0
M  V30 3114 H 284.601 -2.89681 4.69882 0
M  V30 3115 H 287.077 -3.09419 2.78207 0
M  V30 3116 H 285.953 -4.36527 3.32769 0
M  V30 3117 H 286.214 -4.11808 1.60832 0
M  V30 3118 N 285.273 -1.31445 -0.869486 0
M  V30 3119 C 286.522 -1.20517 -1.61736 0
M  V30 3120 C 286.835 0.235341 -1.94179 0
M  V30 3121 O 288.041 0.466312 -2.67465 0
M  V30 3122 C 286.497 -2.10982 -2.91573 0
M  V30 3123 C 286.105 -3.60032 -2.66611 0
M  V30 3124 C 287.849 -2.08856 -3.69567 0
M  V30 3125 C 285.756 -4.42503 -3.92358 0
M  V30 3126 H 284.686 -0.447493 -0.606849 0
M  V30 3127 H 287.337 -1.56303 -0.96133 0
M  V30 3128 H 285.719 -1.68095 -3.58553 0
M  V30 3129 H 286.893 -4.11167 -2.08035 0
M  V30 3130 H 285.208 -3.64139 -2.0197 0
M  V30 3131 H 287.805 -2.67716 -4.62852 0
M  V30 3132 H 288.148 -1.07582 -4.02159 0
M  V30 3133 H 288.681 -2.49945 -3.09471 0
M  V30 3134 H 285.42 -5.44533 -3.64916 0
M  V30 3135 H 284.94 -3.96125 -4.50383 0
M  V30 3136 H 286.619 -4.54741 -4.60238 0
M  V30 3137 N 286.751 1.08385 -1.14413 0
M  V30 3138 C 287.981 1.8425 -0.934644 0
M  V30 3139 C 288.389 1.81907 0.520234 0
M  V30 3140 O 287.732 1.22126 1.37226 0
M  V30 3141 C 287.794 3.32853 -1.35828 0
M  V30 3142 C 287.458 3.5893 -2.82875 0
M  V30 3143 C 288.455 3.53756 -3.80989 0
M  V30 3144 C 286.14 3.86934 -3.20293 0
M  V30 3145 C 288.134 3.76216 -5.14529 0
M  V30 3146 C 285.821 4.09047 -4.54008 0
M  V30 3147 C 286.819 4.03682 -5.50936 0
M  V30 3148 O 286.507 4.25214 -6.82238 0
M  V30 3149 H 286.239 0.588502 -0.332628 0
M  V30 3150 H 288.793 1.37792 -1.52324 0
M  V30 3151 H 287.023 3.8007 -0.713019 0
M  V30 3152 H 288.712 3.90154 -1.11957 0
M  V30 3153 H 289.478 3.32135 -3.53428 0
M  V30 3154 H 285.357 3.9023 -2.45442 0
M  V30 3155 H 288.901 3.71943 -5.90173 0
M  V30 3156 H 284.798 4.30151 -4.8129 0
M  V30 3157 H 285.566 4.42619 -6.88499 0
M  V30 3158 N 288.23 0.939286 1.26551 0
M  V30 3159 C 289.14 0.453432 2.30176 0
M  V30 3160 C 290.156 -0.471649 1.67486 0
M  V30 3161 O 291.332 -0.35164 1.98306 0
M  V30 3162 C 288.397 -0.275326 3.45605 0
M  V30 3163 C 287.458 0.686084 4.23782 0
M  V30 3164 C 286.691 -0.00798994 5.33699 0
M  V30 3165 O 286.914 -1.22528 5.57085 0
M  V30 3166 O 285.848 0.669746 5.98162 0
M  V30 3167 H 289.674 1.31416 2.73795 0
M  V30 3168 H 287.259 0.705095 1.31715 0
M  V30 3169 H 289.141 -0.685911 4.1578 0
M  V30 3170 H 287.816 -1.11147 3.0402 0
M  V30 3171 H 286.723 1.14658 3.56096 0
M  V30 3172 H 288.056 1.48979 4.69112 0
M  V30 3173 N 289.708 -1.40897 0.706093 0
M  V30 3174 C 290.641 -2.282 -0.00328781 0
M  V30 3175 C 291.619 -1.42816 -0.77732 0
M  V30 3176 O 292.803 -1.72237 -0.765944 0
M  V30 3177 C 289.93 -3.23226 -1.01205 0
M  V30 3178 C 288.976 -4.25222 -0.329955 0
M  V30 3179 S 289.809 -5.27269 0.935298 0
M  V30 3180 C 290.965 -6.25859 -0.0716061 0
M  V30 3181 H 291.198 -2.88016 0.737143 0
M  V30 3182 H 288.731 -1.46191 0.496756 0
M  V30 3183 H 290.689 -3.78503 -1.58888 0
M  V30 3184 H 289.35 -2.62485 -1.72513 0
M  V30 3185 H 288.543 -4.92023 -1.09221 0
M  V30 3186 H 288.145 -3.73595 0.174069 0
M  V30 3187 H 290.437 -6.71204 -0.921521 0
M  V30 3188 H 291.38 -7.0586 0.562765 0
M  V30 3189 H 291.788 -5.62852 -0.431088 0
M  V30 3190 N 291.186 -0.45159 -1.50991 0
M  V30 3191 C 292.416 0.108177 -2.06317 0
M  V30 3192 C 292.824 1.35774 -1.31765 0
M  V30 3193 O 292.167 1.79838 -0.374694 0
M  V30 3194 C 292.229 0.481659 -3.56259 0
M  V30 3195 C 291.893 -0.663114 -4.52163 0
M  V30 3196 C 292.89 -1.53947 -4.96585 0
M  V30 3197 C 290.575 -0.8479 -4.95092 0
M  V30 3198 C 292.569 -2.58518 -5.82621 0
M  V30 3199 C 290.256 -1.89686 -5.80915 0
M  V30 3200 C 291.254 -2.76388 -6.24579 0
M  V30 3201 O 290.942 -3.79482 -7.08695 0
M  V30 3202 H 290.674 0.00499183 -0.675982 0
M  V30 3203 H 293.228 -0.633659 -1.95381 0
M  V30 3204 H 291.458 1.27641 -3.65027 0
M  V30 3205 H 293.147 0.974233 -3.94035 0
M  V30 3206 H 293.913 -1.4083 -4.64103 0
M  V30 3207 H 289.792 -0.18258 -4.60638 0
M  V30 3208 H 293.336 -3.26224 -6.16623 0
M  V30 3209 H 289.233 -2.02817 -6.12809 0
M  V30 3210 H 290.001 -3.76234 -7.26905 0
M  V30 3211 N 292.664 1.56529 -0.183458 0
M  V30 3212 C 293.892 2.01623 0.464285 0
M  V30 3213 C 294.307 1.06366 1.55986 0
M  V30 3214 O 293.664 0.0665398 1.82379 0
M  V30 3215 C 293.715 3.46475 1.03139 0
M  V30 3216 O 293.436 4.38095 -0.0204675 0
M  V30 3217 C 294.937 4.0703 1.75617 0
M  V30 3218 H 292.157 0.660596 0.117704 0
M  V30 3219 H 294.701 2.02451 -0.288751 0
M  V30 3220 H 292.856 3.46383 1.73486 0
M  V30 3221 H 293.27 5.22973 0.399952 0
M  V30 3222 H 294.744 5.10271 2.10542 0
M  V30 3223 H 295.221 3.49819 2.65563 0
M  V30 3224 H 295.827 4.1086 1.09882 0
M  V30 3225 N 294.142 -0.090211 1.57342 0
M  V30 3226 C 295.074 -1.13541 1.99101 0
M  V30 3227 C 296.087 -1.3604 0.894258 0
M  V30 3228 O 297.276 -1.34606 1.17233 0
M  V30 3229 C 294.376 -2.49001 2.29895 0
M  V30 3230 C 293.549 -2.46712 3.61182 0
M  V30 3231 C 292.608 -3.64136 3.79857 0
M  V30 3232 O 291.634 -3.46405 4.51655 0
M  V30 3233 N 292.836 -4.83802 3.20806 0
M  V30 3234 H 295.601 -0.779942 2.89373 0
M  V30 3235 H 293.162 -0.279125 1.59476 0
M  V30 3236 H 295.154 -3.26166 2.39578 0
M  V30 3237 H 293.724 -2.76619 1.45605 0
M  V30 3238 H 292.944 -1.55058 3.62423 0
M  V30 3239 H 294.232 -2.42265 4.4742 0
M  V30 3240 H 293.63 -5.01112 2.62494 0
M  V30 3241 H 292.187 -5.58543 3.35966 0
M  V30 3242 N 295.62 -1.53406 -0.361157 0
M  V30 3243 C 296.553 -1.74946 -1.46524 0
M  V30 3244 C 297.531 -0.59795 -1.51206 0
M  V30 3245 O 298.715 -0.831062 -1.69191 0
M  V30 3246 C 295.842 -1.83224 -2.84863 0
M  V30 3247 C 294.888 -3.05233 -2.97885 0
M  V30 3248 S 295.721 -4.6466 -2.66179 0
M  V30 3249 C 296.877 -4.75793 -4.06659 0
M  V30 3250 H 297.11 -2.68319 -1.28033 0
M  V30 3251 H 294.643 -1.44051 -0.555764 0
M  V30 3252 H 296.601 -1.88679 -3.64569 0
M  V30 3253 H 295.262 -0.908948 -3.00661 0
M  V30 3254 H 294.455 -3.07648 -3.9921 0
M  V30 3255 H 294.057 -2.97913 -2.26106 0
M  V30 3256 H 296.349 -4.5612 -5.0096 0
M  V30 3257 H 297.292 -5.7786 -4.09247 0
M  V30 3258 H 297.7 -4.04389 -3.93865 0
M  V30 3259 N 297.098 0.621204 -1.44841 0
M  V30 3260 C 298.046 1.75385 -1.52784 0
M  V30 3261 C 299.04 1.64639 -0.398779 0
M  V30 3262 O 300.246 1.70598 -0.574137 0
M  V30 3263 H 296.621 0.579193 -0.479625 0
M  V30 3264 H 298.592 1.6581 -2.48092 0
M  V30 3265 C 297.341 3.13742 -1.4987 0
M  V30 3266 H 296.664 3.22663 -2.36069 0
M  V30 3267 H 298.104 3.92861 -1.59487 0
M  V30 3268 C 296.563 3.36175 -0.220973 0
M  V30 3269 O 297.093 3.95469 0.704782 0
M  V30 3270 N 295.299 2.90348 -0.120963 0
M  V30 3271 H 294.846 2.42278 -0.875162 0
M  V30 3272 H 294.804 3.05732 0.733168 0
M  V30 3273 N 298.576 1.31904 0.862503 0
M  V30 3274 C 299.539 1.20131 1.95195 0
M  V30 3275 C 300.539 0.126409 1.60302 0
M  V30 3276 O 301.729 0.376234 1.70089 0
M  V30 3277 C 298.861 0.845691 3.30244 0
M  V30 3278 H 300.054 2.16943 2.07064 0
M  V30 3279 H 297.607 1.15622 1.05172 0
M  V30 3280 H 298.342 -0.120957 3.24074 0
M  V30 3281 H 298.127 1.62276 3.56944 0
M  V30 3282 H 299.617 0.787418 4.10109 0
M  V30 3283 N 300.054 -1.07777 1.14986 0
M  V30 3284 C 300.964 -2.18404 0.856546 0
M  V30 3285 C 301.98 -1.73211 -0.165485 0
M  V30 3286 O 303.156 -2.01399 0.00755219 0
M  V30 3287 C 300.221 -3.44977 0.34526 0
M  V30 3288 C 299.282 -4.0476 1.43065 0
M  V30 3289 C 298.515 -5.25291 0.943663 0
M  V30 3290 O 298.738 -5.70004 -0.212426 0
M  V30 3291 O 297.672 -5.76638 1.72547 0
M  V30 3292 H 301.498 -2.45978 1.78125 0
M  V30 3293 H 299.083 -1.17033 0.928631 0
M  V30 3294 H 300.965 -4.21348 0.0663671 0
M  V30 3295 H 299.64 -3.18965 -0.551631 0
M  V30 3296 H 298.547 -3.29949 1.76309 0
M  V30 3297 H 299.88 -4.35035 2.30229 0
M  V30 3298 N 301.532 -0.945985 -1.26051 0
M  V30 3299 C 302.462 -0.477172 -2.28572 0
M  V30 3300 C 303.443 0.472032 -1.63419 0
M  V30 3301 O 304.628 0.372853 -1.90587 0
M  V30 3302 C 301.758 0.253975 -3.4637 0
M  V30 3303 C 300.712 -0.609135 -4.23643 0
M  V30 3304 C 300.038 0.252252 -5.34105 0
M  V30 3305 C 301.338 -1.8829 -4.8718 0
M  V30 3306 H 303.032 -1.33402 -2.68038 0
M  V30 3307 H 300.578 -0.642904 -1.28852 0
M  V30 3308 H 302.531 0.593016 -4.17207 0
M  V30 3309 H 301.255 1.145 -3.05871 0
M  V30 3310 H 299.914 -0.931138 -3.54578 0
M  V30 3311 H 299.562 1.14278 -4.89846 0
M  V30 3312 H 299.262 -0.32188 -5.86718 0
M  V30 3313 H 300.786 0.586454 -6.07777 0
M  V30 3314 H 302.2 -1.61081 -5.50205 0
M  V30 3315 H 300.597 -2.40199 -5.49931 0
M  V30 3316 H 301.667 -2.59134 -4.09851 0
M  V30 3317 N 303.011 1.40521 -0.713556 0
M  V30 3318 C 303.959 2.32549 -0.0485227 0
M  V30 3319 C 304.953 1.51931 0.74922 0
M  V30 3320 O 306.159 1.67745 0.652816 0
M  V30 3321 H 302.534 0.751994 0.00311138 0
M  V30 3322 H 304.505 2.86291 -0.841443 0
M  V30 3323 C 303.254 3.36879 0.860687 0
M  V30 3324 H 302.577 3.98978 0.256246 0
M  V30 3325 H 304.017 4.03772 1.294 0
M  V30 3326 C 302.476 2.72197 1.9852 0
M  V30 3327 O 303.006 2.5837 3.07584 0
M  V30 3328 N 301.212 2.30612 1.76823 0
M  V30 3329 H 300.759 2.42059 0.881217 0
M  V30 3330 H 300.717 1.87672 2.52243 0
M  V30 3331 N 304.489 0.459591 1.5075 0
M  V30 3332 C 305.719 -0.0972338 2.06371 0
M  V30 3333 C 306.127 -1.35074 1.32483 0
M  V30 3334 O 305.47 -1.79637 0.384226 0
M  V30 3335 C 305.532 -0.462759 3.56509 0
M  V30 3336 C 305.196 0.687084 4.51805 0
M  V30 3337 C 306.193 1.56578 4.95761 0
M  V30 3338 C 303.878 0.874144 4.94635 0
M  V30 3339 C 305.872 2.61604 5.81242 0
M  V30 3340 C 303.559 1.92765 5.79901 0
M  V30 3341 C 304.557 2.79697 6.23104 0
M  V30 3342 O 304.245 3.83235 7.06673 0
M  V30 3343 H 303.977 -0.00140687 0.675999 0
M  V30 3344 H 306.531 0.644011 1.95043 0
M  V30 3345 H 304.761 -1.25703 3.65699 0
M  V30 3346 H 306.45 -0.953323 3.94546 0
M  V30 3347 H 307.216 1.4329 4.6335 0
M  V30 3348 H 303.095 0.207006 4.60535 0
M  V30 3349 H 306.639 3.29489 6.14884 0
M  V30 3350 H 302.536 2.06064 6.11725 0
M  V30 3351 H 303.304 3.80084 7.24899 0
M  V30 3352 N 305.967 -1.56429 0.191757 0
M  V30 3353 C 306.914 -2.18936 -0.730454 0
M  V30 3354 C 307.884 -1.13557 -1.21219 0
M  V30 3355 O 309.069 -1.41794 -1.27668 0
M  V30 3356 C 306.209 -2.85013 -1.9458 0
M  V30 3357 C 305.322 -4.04909 -1.50574 0
M  V30 3358 C 304.457 -4.58853 -2.67634 0
M  V30 3359 C 303.496 -5.71114 -2.20217 0
M  V30 3360 N 302.633 -6.19478 -3.30442 0
M  V30 3361 H 307.473 -2.97389 -0.190664 0
M  V30 3362 H 305.01 -1.46869 -0.0823694 0
M  V30 3363 H 306.968 -3.21492 -2.65893 0
M  V30 3364 H 305.598 -2.09129 -2.45896 0
M  V30 3365 H 304.65 -3.74115 -0.688605 0
M  V30 3366 H 305.962 -4.86113 -1.11784 0
M  V30 3367 H 305.116 -4.97619 -3.47074 0
M  V30 3368 H 303.855 -3.76749 -3.09696 0
M  V30 3369 H 302.86 -5.31879 -1.3923 0
M  V30 3370 H 304.085 -6.55033 -1.79189 0
M  V30 3371 H 302.031 -5.40297 -3.72041 0
M  V30 3372 H 301.948 -6.95725 -2.9581 0
M  V30 3373 H 303.216 -6.62898 -4.10106 0
M  V30 3374 N 307.445 0.0818655 -1.57387 0
M  V30 3375 C 308.691 0.784074 -1.8703 0
M  V30 3376 C 309.024 1.77729 -0.782689 0
M  V30 3377 O 308.299 1.93384 0.208051 0
M  V30 3378 C 308.582 1.50105 -3.27323 0
M  V30 3379 C 308.435 0.524925 -4.46727 0
M  V30 3380 C 309.754 2.44843 -3.65705 0
M  V30 3381 H 306.873 0.283582 -0.680257 0
M  V30 3382 H 309.515 0.0474352 -1.89941 0
M  V30 3383 H 307.665 2.12897 -3.24972 0
M  V30 3384 H 309.337 -0.0970111 -4.61198 0
M  V30 3385 H 307.58 -0.160606 -4.33503 0
M  V30 3386 H 308.251 1.064 -5.41648 0
M  V30 3387 H 310.727 1.92135 -3.69085 0
M  V30 3388 H 309.603 2.92018 -4.64776 0
M  V30 3389 H 309.864 3.29197 -2.95096 0
M  V30 3390 O 308.962 1.59916 0.225637 0
M  V30 3391 H 309.653 1.73205 0.867161 0
M  V30 END ATOM
M  V30 BEGIN BOND
M  V30 END BOND
M  V30 END CTAB
M  END
$$$$
