drugbank_target|Q9P0J0 NADH dehydrogenase [ubiquinone] 1 alpha subcomplex subunit 13 (DB00157)
 OpenBabel12092119333D

  0  0  0     0  0            999 V3000
M  V30 BEGIN CTAB
M  V30 COUNTS 2354 2385 0 0 0
M  V30 BEGIN ATOM
M  V30 1 H -0.908 1.98254 -0.117106 0
M  V30 2 N 0 1.576 0 0
M  V30 3 C 0.933 2.03868 1.02534 0
M  V30 4 C 1.911 0.928543 1.3348 0
M  V30 5 O 3.095 1.19667 1.45644 0
M  V30 6 C 0.222 2.43627 2.35294 0
M  V30 7 C -0.732 3.65373 2.2001 0
M  V30 8 S 0.101 5.13292 1.52614 0
M  V30 9 C 1.257 5.56322 2.86805 0
M  V30 10 H 1.49 2.90518 0.631377 0
M  V30 11 H -0.977 1.52953 0.210867 0
M  V30 12 H 0.981 2.67203 3.11629 0
M  V30 13 H -0.358 1.57376 2.7183 0
M  V30 14 H -1.165 3.90944 3.18086 0
M  V30 15 H -1.563 3.418 1.51819 0
M  V30 16 H 0.729 5.58782 3.83104 0
M  V30 17 H 1.672 6.56266 2.65933 0
M  V30 18 H 2.08 4.83886 2.90714 0
M  V30 19 N 1.4781 -0.272755 1.55222 0
M  V30 20 C 2.4411 -1.32041 1.87344 0
M  V30 21 C 3.4411 -1.42342 0.74803 0
M  V30 22 O 4.6311 -1.41488 1.0162 0
M  V30 23 C 1.7631 -2.70173 2.07893 0
M  V30 24 H 2.9561 -1.04789 2.80997 0
M  V30 25 H 0.5091 -0.51083 1.47717 0
M  V30 26 H 1.2441 -3.02605 1.16622 0
M  V30 27 H 1.0291 -2.64082 2.89833 0
M  V30 28 H 2.5191 -3.45869 2.34017 0
M  V30 29 N 2.9562 -1.48159 -0.537278 0
M  V30 30 C 3.9192 -1.61665 -1.62472 0
M  V30 31 C 4.9192 -0.490395 -1.5314 0
M  V30 32 O 6.1092 -0.755998 -1.5694 0
M  V30 33 C 3.2412 -1.57997 -3.02076 0
M  V30 34 H 4.4342 -2.58621 -1.51839 0
M  V30 35 H 1.9872 -1.36647 -0.758771 0
M  V30 36 H 2.7222 -0.624913 -3.18222 0
M  V30 37 H 2.5072 -2.39755 -3.10258 0
M  V30 38 H 3.9972 -1.70627 -3.81151 0
M  V30 39 N 4.4343 0.785586 -1.36625 0
M  V30 40 C 5.6593 1.57963 -1.34397 0
M  V30 41 C 6.0843 1.87964 0.071526 0
M  V30 42 O 5.4423 1.48182 1.0446 0
M  V30 43 C 5.4903 2.87511 -2.17646 0
M  V30 44 O 4.5943 3.81281 -1.57158 0
M  V30 45 H 3.9353 0.479014 -0.459828 0
M  V30 46 H 6.4653 0.973411 -1.79961 0
M  V30 47 H 6.4753 3.36745 -2.30362 0
M  V30 48 H 5.1503 2.65002 -3.20541 0
M  V30 49 H 3.7273 3.39885 -1.53403 0
M  V30 50 N 5.9124 1.20967 1.01018 0
M  V30 51 C 6.8594 0.964281 2.09691 0
M  V30 52 C 7.8294 -0.107853 1.65749 0
M  V30 53 O 9.0144 0.0381987 1.90762 0
M  V30 54 C 6.1544 0.52943 3.41015 0
M  V30 55 C 5.2674 1.67043 3.98398 0
M  V30 56 C 4.4024 1.18525 5.17808 0
M  V30 57 C 3.4414 2.29892 5.67288 0
M  V30 58 N 2.5784 1.82546 6.77954 0
M  V30 59 H 7.4184 1.89463 2.30017 0
M  V30 60 H 4.9554 0.944289 1.1279 0
M  V30 61 H 6.9134 0.258588 4.16398 0
M  V30 62 H 5.5434 -0.363919 3.20742 0
M  V30 63 H 4.5954 2.05603 3.20049 0
M  V30 64 H 5.9074 2.50877 4.31117 0
M  V30 65 H 5.0614 0.870762 6.00419 0
M  V30 66 H 3.8004 0.316887 4.86669 0
M  V30 67 H 2.8054 2.6215 4.83278 0
M  V30 68 H 4.0304 3.17216 6.00459 0
M  V30 69 H 1.9764 0.980454 6.48632 0
M  V30 70 H 1.8934 2.59956 7.09901 0
M  V30 71 H 3.1614 1.54115 7.64113 0
M  V30 72 N 7.3905 -1.2043 1.01659 0
M  V30 73 C 8.6365 -1.90079 0.706963 0
M  V30 74 C 8.9695 -1.78648 -0.761474 0
M  V30 75 O 8.2445 -1.17069 -1.55323 0
M  V30 76 C 8.5275 -3.41469 1.14327 0
M  V30 77 C 8.3805 -3.61833 2.67201 0
M  V30 78 C 9.6995 -4.34261 0.714529 0
M  V30 79 H 6.8185 -0.690254 0.2583 0
M  V30 80 H 9.4605 -1.41826 1.26433 0
M  V30 81 H 7.6105 -3.82696 0.669056 0
M  V30 82 H 9.2825 -3.2986 3.22475 0
M  V30 83 H 7.5255 -3.05304 3.08175 0
M  V30 84 H 8.1965 -4.67955 2.92783 0
M  V30 85 H 10.6725 -4.00682 1.12221 0
M  V30 86 H 9.5485 -5.38806 1.04784 0
M  V30 87 H 9.8095 -4.40431 -0.383799 0
M  V30 88 N 8.8686 -0.792821 -1.36206 0
M  V30 89 C 9.8156 -0.191653 -2.30003 0
M  V30 90 C 10.7856 0.666453 -1.52143 0
M  V30 91 O 11.9706 0.61442 -1.80636 0
M  V30 92 C 9.1106 0.664848 -3.38635 0
M  V30 93 C 8.2236 -0.212175 -4.31479 0
M  V30 94 C 7.3586 0.651022 -5.27196 0
M  V30 95 C 6.3976 -0.227247 -6.11678 0
M  V30 96 N 5.5346 0.595127 -6.99573 0
M  V30 97 H 10.3746 -0.996978 -2.80828 0
M  V30 98 H 7.9116 -0.503206 -1.38225 0
M  V30 99 H 9.8696 1.17645 -4.00269 0
M  V30 100 H 8.4996 1.43557 -2.89122 0
M  V30 101 H 7.5516 -0.841777 -3.70969 0
M  V30 102 H 8.8636 -0.888751 -4.90818 0
M  V30 103 H 8.0176 1.2283 -5.94136 0
M  V30 104 H 6.7566 1.36121 -4.68319 0
M  V30 105 H 5.7616 -0.816904 -5.43697 0
M  V30 106 H 6.9866 -0.93509 -6.72631 0
M  V30 107 H 4.9326 1.28955 -6.432 0
M  V30 108 H 4.8496 -0.0236952 -7.55996 0
M  V30 109 H 6.1176 1.15613 -7.70879 0
M  V30 110 N 10.3467 1.47872 -0.545128 0
M  V30 111 C 11.2787 2.27869 0.246621 0
M  V30 112 C 12.2917 1.36282 0.890561 0
M  V30 113 O 13.4807 1.61207 0.766449 0
M  V30 114 C 10.5807 3.10159 1.36582 0
M  V30 115 C 9.7537 4.29627 0.820954 0
M  V30 116 C 8.8127 4.93607 1.82314 0
M  V30 117 O 7.8387 5.52366 1.37406 0
M  V30 118 N 9.0407 4.87211 3.15603 0
M  V30 119 H 11.8057 2.96459 -0.439539 0
M  V30 120 H 9.3667 1.57367 -0.380421 0
M  V30 121 H 11.3587 3.49829 2.03474 0
M  V30 122 H 9.9287 2.43891 1.9554 0
M  V30 123 H 9.1487 3.94192 -0.0244032 0
M  V30 124 H 10.4367 5.06928 0.436063 0
M  V30 125 H 9.8347 4.40651 3.54744 0
M  V30 126 H 8.3917 5.30937 3.78087 0
M  V30 127 N 11.8248 0.280983 1.55075 0
M  V30 128 C 13.1018 -0.386207 1.91749 0
M  V30 129 C 13.4818 -1.73264 1.20594 0
M  V30 130 O 12.8298 -2.26034 0.334784 0
M  V30 131 C 13.0398 -0.520687 3.45094 0
M  V30 132 C 14.3878 -0.800865 4.16979 0
M  V30 133 O 15.4118 -0.605271 3.5102 0
M  V30 134 O 14.2708 -1.1753 5.33712 0
M  V30 135 H 11.3648 -0.212408 0.799257 0
M  V30 136 H 13.9108 0.327568 1.66509 0
M  V30 137 H 12.6828 0.426633 3.88967 0
M  V30 138 H 12.3058 -1.2837 3.76307 0
M  V30 139 N 13.3029 -1.57598 0.00835791 0
M  V30 140 C 14.2359 -2.04409 -1.01451 0
M  V30 141 C 15.2139 -0.935609 -1.32985 0
M  V30 142 O 16.3979 -1.20437 -1.45007 0
M  V30 143 C 13.5249 -2.44872 -2.33999 0
M  V30 144 C 12.5709 -3.66535 -2.18069 0
M  V30 145 S 13.4039 -5.14095 -1.4989 0
M  V30 146 C 14.5599 -5.57835 -2.8385 0
M  V30 147 H 14.7929 -2.90849 -0.615961 0
M  V30 148 H 12.3259 -1.53063 -0.202752 0
M  V30 149 H 14.2839 -2.68852 -3.10208 0
M  V30 150 H 12.9449 -1.58815 -2.70992 0
M  V30 151 H 12.1379 -3.92626 -3.16008 0
M  V30 152 H 11.7399 -3.426 -1.50004 0
M  V30 153 H 14.0319 -5.60806 -3.80136 0
M  V30 154 H 14.9749 -6.57667 -2.62449 0
M  V30 155 H 15.3829 -4.85421 -2.88144 0
M  V30 156 N 14.781 0.264519 -1.55364 0
M  V30 157 C 16.192 0.834936 -1.6699 0
M  V30 158 C 16.543 1.86718 -0.602552 0
M  V30 159 O 15.668 2.14899 0.254425 0
M  V30 160 C 16.263 1.5212 -3.02729 0
M  V30 161 C 14.822 2.03954 -3.16354 0
M  V30 162 C 13.969 0.884498 -2.62815 0
M  V30 163 H 16.92 0.0406869 -1.58648 0
M  V30 164 H 16.941 2.38853 -2.96191 0
M  V30 165 H 16.453 0.769668 -3.80392 0
M  V30 166 H 14.554 2.82041 -2.43482 0
M  V30 167 H 14.667 2.24902 -4.23032 0
M  V30 168 H 13.031 1.2802 -2.20188 0
M  V30 169 H 13.814 0.14634 -3.42988 0
M  V30 170 N 16.2591 1.48442 0.529413 0
M  V30 171 C 17.6701 1.5002 1.11134 0
M  V30 172 C 18.0211 0.27031 1.94329 0
M  V30 173 O 17.1461 -0.622507 2.07253 0
M  V30 174 C 17.7411 2.71834 2.02217 0
M  V30 175 C 16.3001 2.76283 2.55627 0
M  V30 176 C 15.4471 2.43542 1.326 0
M  V30 177 H 18.3981 1.5555 0.314641 0
M  V30 178 H 18.4191 2.50384 2.8651 0
M  V30 179 H 17.9311 3.61331 1.41639 0
M  V30 180 H 16.0321 1.90995 3.19924 0
M  V30 181 H 16.1451 3.77725 2.94721 0
M  V30 182 H 14.5091 1.94709 1.64196 0
M  V30 183 H 15.2921 3.3528 0.737734 0
M  V30 184 N 17.7372 -0.778329 1.37039 0
M  V30 185 C 19.1482 -1.35421 1.28523 0
M  V30 186 C 19.4992 -1.96075 -0.0700901 0
M  V30 187 O 18.6242 -1.93352 -0.971801 0
M  V30 188 C 19.2192 -2.46211 2.32735 0
M  V30 189 C 17.7782 -2.99585 2.27873 0
M  V30 190 C 16.9252 -1.72748 2.16918 0
M  V30 191 H 19.8762 -0.5791 1.47757 0
M  V30 192 H 19.8972 -3.2552 1.9702 0
M  V30 193 H 19.4092 -2.02036 3.31365 0
M  V30 194 H 17.5102 -3.48152 1.32745 0
M  V30 195 H 17.6232 -3.55646 3.21018 0
M  V30 196 H 15.9872 -1.95416 1.63354 0
M  V30 197 H 16.7702 -1.30686 3.17452 0
M  V30 198 N 19.2153 -1.21501 -1.00376 0
M  V30 199 C 20.4633 -1.03095 -1.73827 0
M  V30 200 C 20.7843 0.436341 -1.90055 0
M  V30 201 O 20.0543 1.31466 -1.45236 0
M  V30 202 H 18.6343 -0.378487 -0.644016 0
M  V30 203 H 21.2963 -1.52831 -1.20949 0
M  V30 204 H 20.3923 -1.49991 -2.73695 0
M  V30 205 N 20.6934 1.19889 -1.02296 0
M  V30 206 C 21.9414 1.89046 -0.714558 0
M  V30 207 C 22.2624 1.79636 0.758681 0
M  V30 208 O 21.5324 1.20292 1.54618 0
M  V30 209 H 20.1124 0.699802 -0.261317 0
M  V30 210 H 22.7744 1.45574 -1.29592 0
M  V30 211 H 21.8704 2.95524 -1.0036 0
M  V30 212 N 22.1715 0.800033 1.35784 0
M  V30 213 C 23.4015 0.389041 2.02904 0
M  V30 214 C 23.8095 -1.0027 1.60445 0
M  V30 215 O 23.1525 -1.65633 0.794453 0
M  V30 216 C 23.2145 0.385495 3.57427 0
M  V30 217 C 22.8785 1.72662 4.23127 0
M  V30 218 C 23.8755 2.68385 4.4527 0
M  V30 219 C 21.5605 2.00883 4.60381 0
M  V30 220 C 23.5545 3.90517 5.03761 0
M  V30 221 C 21.2415 3.2328 5.18588 0
M  V30 222 C 22.2395 4.17915 5.40218 0
M  V30 223 O 21.9275 5.38153 5.97199 0
M  V30 224 H 21.6595 0.157032 0.657508 0
M  V30 225 H 24.2135 1.08311 1.74522 0
M  V30 226 H 22.4435 -0.365128 3.84972 0
M  V30 227 H 24.1325 -0.00228296 4.059 0
M  V30 228 H 24.8985 2.47872 4.16874 0
M  V30 229 H 20.7775 1.28037 4.42863 0
M  V30 230 H 24.3215 4.64395 5.2056 0
M  V30 231 H 20.2185 3.43667 5.4641 0
M  V30 232 H 20.9865 5.3936 6.15656 0
M  V30 233 N 23.6496 -1.47581 0.552962 0
M  V30 234 C 24.8976 -2.02082 0.0272703 0
M  V30 235 C 25.2186 -1.4301 -1.32563 0
M  V30 236 O 24.4886 -0.603745 -1.86365 0
M  V30 237 H 23.0686 -0.746966 0.00709182 0
M  V30 238 H 25.7306 -1.81033 0.722008 0
M  V30 239 H 24.8266 -3.12034 -0.0639951 0
M  V30 240 N 25.1277 -0.289203 -1.54924 0
M  V30 241 C 26.5387 0.205791 -1.85562 0
M  V30 242 C 26.8897 1.54351 -1.2112 0
M  V30 243 O 26.0147 2.10435 -0.504601 0
M  V30 244 C 26.6097 0.380177 -3.3666 0
M  V30 245 C 25.1687 0.819395 -3.67373 0
M  V30 246 C 24.3157 -0.079159 -2.77187 0
M  V30 247 H 27.2667 -0.510577 -1.50262 0
M  V30 248 H 27.2877 1.21659 -3.60526 0
M  V30 249 H 26.7997 -0.593589 -3.83534 0
M  V30 250 H 24.9007 1.80413 -3.26009 0
M  V30 251 H 25.0137 0.646957 -4.74712 0
M  V30 252 H 23.3777 0.439565 -2.50878 0
M  V30 253 H 24.1607 -1.04906 -3.26878 0
M  V30 254 N 26.6058 1.57591 -0.0167156 0
M  V30 255 C 27.8548 1.90461 0.663877 0
M  V30 256 C 28.1678 0.893515 1.73999 0
M  V30 257 O 29.3738 1.11302 2.47637 0
M  V30 258 C 27.8298 3.38155 1.23204 0
M  V30 259 C 27.4378 4.47597 0.189866 0
M  V30 260 C 29.1818 3.80111 1.88986 0
M  V30 261 C 27.0888 5.86379 0.768964 0
M  V30 262 H 26.0188 0.710738 0.251729 0
M  V30 263 H 28.6698 1.83326 -0.0799926 0
M  V30 264 H 27.0518 3.40182 2.02712 0
M  V30 265 H 28.2258 4.57112 -0.581846 0
M  V30 266 H 26.5408 4.14766 -0.368475 0
M  V30 267 H 29.1378 4.81145 2.33247 0
M  V30 268 H 29.4808 3.14511 2.72743 0
M  V30 269 H 30.0138 3.80454 1.16187 0
M  V30 270 H 26.7528 6.55493 -0.0301957 0
M  V30 271 H 26.2728 5.80496 1.50945 0
M  V30 272 H 27.9518 6.34563 1.26251 0
M  V30 273 N 28.0839 -0.256276 1.55502 0
M  V30 274 C 29.3609 -1.00789 1.67633 0
M  V30 275 C 29.7409 -2.03706 0.553826 0
M  V30 276 O 29.0889 -2.24145 -0.443969 0
M  V30 277 C 29.2989 -1.64968 3.07549 0
M  V30 278 C 30.6469 -2.15505 3.65845 0
M  V30 279 O 31.6709 -1.74925 3.1029 0
M  V30 280 O 30.5299 -2.89986 4.63217 0
M  V30 281 H 27.6239 -0.468553 0.681459 0
M  V30 282 H 30.1699 -0.250806 1.67836 0
M  V30 283 H 28.9419 -0.904785 3.80696 0
M  V30 284 H 28.5649 -2.47321 3.11317 0
M  V30 285 N 29.562 -1.4872 -0.521534 0
M  V30 286 C 30.792 -1.6061 -1.29954 0
M  V30 287 C 31.2 -0.268728 -1.87282 0
M  V30 288 O 30.543 0.753221 -1.67548 0
M  V30 289 C 30.605 -2.60013 -2.48261 0
M  V30 290 C 30.269 -4.04874 -2.11957 0
M  V30 291 C 31.266 -4.92304 -1.67132 0
M  V30 292 C 28.951 -4.5047 -2.22221 0
M  V30 293 C 30.945 -6.2336 -1.33047 0
M  V30 294 C 28.632 -5.81544 -1.87748 0
M  V30 295 C 29.63 -6.67812 -1.43234 0
M  V30 296 O 29.318 -7.96446 -1.09217 0
M  V30 297 H 29.05 -0.544116 -0.401141 0
M  V30 298 H 31.604 -1.95339 -0.634958 0
M  V30 299 H 29.834 -2.20422 -3.17728 0
M  V30 300 H 31.523 -2.61648 -3.10315 0
M  V30 301 H 32.289 -4.58312 -1.58665 0
M  V30 302 H 28.168 -3.83504 -2.55823 0
M  V30 303 H 31.712 -6.90649 -0.982299 0
M  V30 304 H 27.609 -6.15069 -1.95858 0
M  V30 305 H 28.377 -8.09275 -1.22542 0
M  V30 306 N 31.0401 0.771051 -1.3745 0
M  V30 307 C 31.9871 1.88435 -1.3327 0
M  V30 308 C 32.9571 1.64914 -0.198136 0
M  V30 309 O 34.1421 1.86821 -0.387606 0
M  V30 310 C 31.2821 3.25509 -1.14622 0
M  V30 311 C 30.3951 3.60979 -2.37314 0
M  V30 312 C 29.5301 4.87265 -2.11533 0
M  V30 313 C 28.5691 5.15469 -3.30088 0
M  V30 314 N 27.7061 6.32944 -3.03853 0
M  V30 315 H 32.5461 1.91344 -2.28455 0
M  V30 316 H 30.0831 0.935466 -1.13523 0
M  V30 317 H 32.0411 4.04582 -1.01831 0
M  V30 318 H 30.6711 3.21974 -0.230837 0
M  V30 319 H 29.7231 2.76885 -2.60842 0
M  V30 320 H 31.0351 3.77759 -3.25729 0
M  V30 321 H 30.1891 5.74244 -1.95777 0
M  V30 322 H 28.9281 4.7259 -1.20457 0
M  V30 323 H 27.9331 4.26966 -3.46382 0
M  V30 324 H 29.1581 5.32052 -4.22016 0
M  V30 325 H 27.1041 6.19625 -2.15407 0
M  V30 326 H 27.0211 6.50143 -3.85812 0
M  V30 327 H 28.2891 7.22857 -2.91716 0
M  V30 328 N 32.5182 1.22032 0.997298 0
M  V30 329 C 33.9342 0.979326 1.26021 0
M  V30 330 C 34.1342 -0.32972 1.98784 0
M  V30 331 O 33.1902 -1.05345 2.29475 0
M  V30 332 C 34.5032 2.17509 2.07631 0
M  V30 333 C 36.0512 2.21817 2.2083 0
M  V30 334 C 36.5262 3.40933 3.05825 0
M  V30 335 N 38.0172 3.41067 3.13412 0
M  V30 336 C 38.7522 4.29885 3.79455 0
M  V30 337 N 38.2482 5.28914 4.47462 0
M  V30 338 N 40.0412 4.17673 3.76173 0
M  V30 339 H 32.1922 2.06202 0.509352 0
M  V30 340 H 34.4552 0.90334 0.287541 0
M  V30 341 H 34.1612 3.12415 1.61524 0
M  V30 342 H 34.0352 2.17206 3.08385 0
M  V30 343 H 36.4222 1.27462 2.66153 0
M  V30 344 H 36.5032 2.2616 1.1952 0
M  V30 345 H 36.1472 4.35586 2.61203 0
M  V30 346 H 36.0772 3.33829 4.07266 0
M  V30 347 H 38.5682 2.69406 2.65007 0
M  V30 348 H 38.8812 5.92973 4.95583 0
M  V30 349 H 37.2262 5.32831 4.46224 0
M  V30 350 H 40.4172 3.39564 3.22202 0
M  V30 351 H 40.5902 4.87098 4.27363 0
M  V30 352 N 33.9963 -1.19345 1.0293 0
M  V30 353 C 34.9443 -2.24621 0.604001 0
M  V30 354 C 35.9383 -1.65452 -0.363587 0
M  V30 355 O 37.1443 -1.78497 -0.23212 0
M  V30 356 H 33.5193 -0.730858 0.177061 0
M  V30 357 H 35.4903 -2.5781 1.50255 0
M  V30 358 C 34.2393 -3.47688 -0.0289127 0
M  V30 359 H 33.5623 -3.93505 0.706651 0
M  V30 360 H 35.0023 -4.23011 -0.289432 0
M  V30 361 C 33.4613 -3.11817 -1.2756 0
M  V30 362 O 33.9913 -3.2451 -2.36762 0
M  V30 363 N 32.1973 -2.66246 -1.16453 0
M  V30 364 H 31.7443 -2.56118 -0.275914 0
M  V30 365 H 31.7023 -2.42617 -1.99961 0
M  V30 366 N 35.4744 -0.807222 -1.35358 0
M  V30 367 C 36.4044 -0.232509 -2.3234 0
M  V30 368 C 37.3854 0.642386 -1.57504 0
M  V30 369 O 38.5704 0.572526 -1.85569 0
M  V30 370 C 35.7004 0.619238 -3.41735 0
M  V30 371 C 34.6544 -0.157215 -4.27711 0
M  V30 372 C 33.9804 0.816273 -5.28433 0
M  V30 373 C 35.2804 -1.35656 -5.04376 0
M  V30 374 H 36.9744 -1.04276 -2.80654 0
M  V30 375 H 34.5204 -0.50288 -1.34934 0
M  V30 376 H 36.4734 1.03137 -4.08584 0
M  V30 377 H 35.1974 1.46239 -2.92031 0
M  V30 378 H 33.8564 -0.550525 -3.62443 0
M  V30 379 H 33.5044 1.65494 -4.74996 0
M  V30 380 H 33.2044 0.301067 -5.86828 0
M  V30 381 H 34.7284 1.22659 -5.98153 0
M  V30 382 H 36.1424 -1.01927 -5.64166 0
M  V30 383 H 34.5394 -1.8063 -5.7227 0
M  V30 384 H 35.6094 -2.14288 -4.34981 0
M  V30 385 N 36.9525 1.47285 -0.560781 0
M  V30 386 C 38.3635 1.86258 -0.128343 0
M  V30 387 C 38.7145 1.46699 1.30284 0
M  V30 388 O 37.8395 0.871698 1.98067 0
M  V30 389 C 38.4345 3.38044 -0.22614 0
M  V30 390 C 36.9935 3.76096 0.151283 0
M  V30 391 C 36.1405 2.71335 -0.572084 0
M  V30 392 H 39.0915 1.38752 -0.770297 0
M  V30 393 H 39.1125 3.76441 0.554322 0
M  V30 394 H 38.6245 3.66806 -1.26788 0
M  V30 395 H 36.7255 3.52951 1.19399 0
M  V30 396 H 36.8385 4.78641 -0.209765 0
M  V30 397 H 35.2025 2.54696 -0.0147653 0
M  V30 398 H 35.9855 3.02938 -1.61504 0
M  V30 399 N 38.4306 0.297415 1.54768 0
M  V30 400 C 39.8466 -0.0560823 1.59501 0
M  V30 401 C 40.0466 -1.52725 1.31444 0
M  V30 402 O 39.1026 -2.27947 1.08611 0
M  V30 403 C 40.4156 0.338631 2.98787 0
M  V30 404 C 41.9636 0.287097 3.11681 0
M  V30 405 C 42.4386 0.656579 4.53269 0
M  V30 406 N 43.9296 0.608977 4.59179 0
M  V30 407 C 44.6646 0.867385 5.66802 0
M  V30 408 N 44.1606 1.19157 6.82476 0
M  V30 409 N 45.9536 0.794687 5.56454 0
M  V30 410 H 38.1046 1.25624 1.71267 0
M  V30 411 H 40.3676 0.509057 0.799728 0
M  V30 412 H 40.0736 1.36263 3.2423 0
M  V30 413 H 39.9476 -0.309508 3.75928 0
M  V30 414 H 42.3346 -0.727649 2.85988 0
M  V30 415 H 42.4156 0.969809 2.36703 0
M  V30 416 H 42.0596 1.66912 4.7969 0
M  V30 417 H 41.9896 -0.0481649 5.26578 0
M  V30 418 H 44.4806 0.369198 3.76092 0
M  V30 419 H 44.7936 1.37482 7.60473 0
M  V30 420 H 43.1386 1.22958 6.84037 0
M  V30 421 H 46.3296 0.541098 4.64962 0
M  V30 422 H 46.5026 0.999445 6.40246 0
M  V30 423 N 39.9087 -1.5758 0.0250728 0
M  V30 424 C 41.3247 -1.56124 -0.331282 0
M  V30 425 C 41.5247 -1.03029 -1.73169 0
M  V30 426 O 40.5807 -0.675215 -2.43305 0
M  V30 427 C 41.8937 -3.00139 -0.183584 0
M  V30 428 C 43.4417 -3.11946 -0.256654 0
M  V30 429 C 43.9167 -4.57793 -0.137792 0
M  V30 430 N 45.4077 -4.6279 -0.194904 0
M  V30 431 C 46.1427 -5.7326 -0.126655 0
M  V30 432 N 45.6387 -6.928 -0.00755288 0
M  V30 433 N 47.4317 -5.61811 -0.180348 0
M  V30 434 H 39.5827 -1.90424 0.94087 0
M  V30 435 H 41.8457 -0.875761 0.362968 0
M  V30 436 H 41.5517 -3.4292 0.780927 0
M  V30 437 H 41.4257 -3.64899 -0.955448 0
M  V30 438 H 43.8127 -2.69079 -1.21162 0
M  V30 439 H 43.8937 -2.49915 0.545517 0
M  V30 440 H 43.5377 -5.01339 0.813739 0
M  V30 441 H 43.4677 -5.17798 -0.958775 0
M  V30 442 H 45.9587 -3.76807 -0.287267 0
M  V30 443 H 46.2717 -7.72791 0.0379428 0
M  V30 444 H 44.6167 -6.94995 0.0271731 0
M  V30 445 H 47.8077 -4.6731 -0.271767 0
M  V30 446 H 47.9807 -6.47882 -0.123697 0
M  V30 447 N 41.3868 0.248026 -1.55636 0
M  V30 448 C 42.6348 0.974295 -1.77065 0
M  V30 449 C 42.9558 1.85897 -0.588849 0
M  V30 450 O 42.2258 1.91868 0.395407 0
M  V30 451 H 40.8058 0.362733 -0.653019 0
M  V30 452 H 43.4678 0.266244 -1.93073 0
M  V30 453 H 42.5638 1.59667 -2.68166 0
M  V30 454 N 42.8649 1.48995 0.513639 0
M  V30 455 C 43.7949 1.67636 1.62544 0
M  V30 456 C 44.7759 0.525087 1.61793 0
M  V30 457 O 45.9609 0.759502 1.78732 0
M  V30 458 C 43.0909 1.73114 3.01079 0
M  V30 459 C 42.0449 2.87905 3.16693 0
M  V30 460 C 41.3709 2.78486 4.56453 0
M  V30 461 C 42.6709 4.29005 2.97913 0
M  V30 462 H 44.3649 2.60716 1.47198 0
M  V30 463 H 41.9109 1.25465 0.706714 0
M  V30 464 H 43.8639 1.84742 3.78746 0
M  V30 465 H 42.5879 0.766241 3.17484 0
M  V30 466 H 41.2469 2.75859 2.41448 0
M  V30 467 H 40.8949 1.7993 4.69717 0
M  V30 468 H 40.5949 3.55523 4.67843 0
M  V30 469 H 42.1189 2.92104 5.36197 0
M  V30 470 H 43.5329 4.41798 3.65359 0
M  V30 471 H 41.9299 5.07166 3.20785 0
M  V30 472 H 42.9999 4.44329 1.94165 0
M  V30 473 N 44.343 -0.763751 1.37857 0
M  V30 474 C 45.568 -1.55805 1.36893 0
M  V30 475 C 45.993 -1.88054 -0.0416135 0
M  V30 476 O 45.351 -1.49825 -1.02089 0
M  V30 477 C 45.399 -2.84012 2.22192 0
M  V30 478 O 44.503 -3.78732 1.63204 0
M  V30 479 H 43.844 -0.471638 0.46739 0
M  V30 480 H 46.374 -0.944657 1.81487 0
M  V30 481 H 46.384 -3.33037 2.35691 0
M  V30 482 H 45.059 -2.59869 3.24716 0
M  V30 483 H 43.636 -3.37402 1.58791 0
M  V30 484 N 45.8211 -1.22559 -0.990812 0
M  V30 485 C 47.0691 -1.04933 -1.72724 0
M  V30 486 C 47.3901 0.416158 -1.90508 0
M  V30 487 O 46.6601 1.29918 -1.46622 0
M  V30 488 H 45.2401 -0.385296 -0.639965 0
M  V30 489 H 47.9021 -1.54105 -1.19322 0
M  V30 490 H 46.9981 -1.52886 -2.72089 0
M  V30 491 N 47.2992 1.18797 -1.03562 0
M  V30 492 C 48.5292 1.92319 -0.754773 0
M  V30 493 C 48.9372 1.7612 0.691248 0
M  V30 494 O 48.2802 1.08491 1.48241 0
M  V30 495 C 48.3422 3.44284 -1.03484 0
M  V30 496 C 48.0062 3.84258 -2.47376 0
M  V30 497 C 49.0032 3.88459 -3.45537 0
M  V30 498 C 46.6882 4.15701 -2.81954 0
M  V30 499 C 48.6822 4.23545 -4.76328 0
M  V30 500 C 46.3692 4.50458 -4.12954 0
M  V30 501 C 47.3672 4.54356 -5.09951 0
M  V30 502 O 47.0552 4.88305 -6.38603 0
M  V30 503 H 46.7872 0.617527 -0.275021 0
M  V30 504 H 49.3412 1.51683 -1.38497 0
M  V30 505 H 47.5712 3.85135 -0.347513 0
M  V30 506 H 49.2602 3.99049 -0.7426 0
M  V30 507 H 50.0262 3.6431 -3.20162 0
M  V30 508 H 45.9052 4.11847 -2.0713 0
M  V30 509 H 49.4492 4.26502 -5.52035 0
M  V30 510 H 45.3462 4.74067 -4.38099 0
M  V30 511 H 46.1142 5.06227 -6.43177 0
M  V30 512 N 48.7773 0.814389 1.34928 0
M  V30 513 C 50.0023 0.410097 2.03305 0
M  V30 514 C 50.4273 -0.973464 1.60951 0
M  V30 515 O 49.7853 -1.63185 0.789964 0
M  V30 516 C 49.8333 0.51049 3.56968 0
M  V30 517 O 48.9373 -0.473035 4.09678 0
M  V30 518 H 48.2783 0.170088 0.641846 0
M  V30 519 H 50.8083 1.10244 1.72358 0
M  V30 520 H 50.8183 0.383135 4.06197 0
M  V30 521 H 49.4933 1.51963 3.87144 0
M  V30 522 H 48.0703 -0.305272 3.71648 0
M  V30 523 N 50.2554 -1.46986 0.568584 0
M  V30 524 C 51.1884 -2.27129 -0.220779 0
M  V30 525 C 52.1664 -1.34757 -0.909905 0
M  V30 526 O 53.3504 -1.64152 -0.926622 0
M  V30 527 C 50.4774 -3.12108 -1.31553 0
M  V30 528 C 49.5234 -4.20141 -0.733748 0
M  V30 529 S 50.3564 -5.33783 0.428479 0
M  V30 530 C 51.5124 -6.22327 -0.667811 0
M  V30 531 H 51.7454 -2.93731 0.459267 0
M  V30 532 H 49.2784 -1.5026 0.355154 0
M  V30 533 H 51.2364 -3.61636 -1.94241 0
M  V30 534 H 49.8974 -2.44847 -1.96746 0
M  V30 535 H 49.0904 -4.79373 -1.5562 0
M  V30 536 H 48.6924 -3.73553 -0.182812 0
M  V30 537 H 50.9844 -6.59364 -1.55708 0
M  V30 538 H 51.9274 -7.0801 -0.11258 0
M  V30 539 H 52.3354 -5.5618 -0.965601 0
M  V30 540 N 51.7335 -0.305618 -1.54608 0
M  V30 541 C 52.6635 0.561482 -2.26649 0
M  V30 542 C 53.6445 1.13415 -1.26772 0
M  V30 543 O 54.8295 1.16262 -1.55553 0
M  V30 544 C 51.9595 1.73122 -3.01075 0
M  V30 545 C 50.9135 1.2887 -4.08138 0
M  V30 546 C 50.2395 2.54396 -4.70305 0
M  V30 547 C 51.5395 0.416578 -5.20636 0
M  V30 548 H 53.2335 -0.0393902 -2.99374 0
M  V30 549 H 50.7795 -0.020385 -1.43986 0
M  V30 550 H 52.7325 2.34396 -3.50195 0
M  V30 551 H 51.4565 2.3584 -2.25936 0
M  V30 552 H 50.1155 0.698991 -3.59875 0
M  V30 553 H 49.7635 3.15439 -3.918 0
M  V30 554 H 49.4635 2.25486 -5.42614 0
M  V30 555 H 50.9875 3.16464 -5.2219 0
M  V30 556 H 52.4015 0.935116 -5.65622 0
M  V30 557 H 50.7985 0.221046 -5.99693 0
M  V30 558 H 51.8685 -0.557162 -4.81688 0
M  V30 559 N 53.2116 1.57565 -0.0334293 0
M  V30 560 C 54.1746 2.09393 0.932048 0
M  V30 561 C 55.1746 1.00986 1.25134 0
M  V30 562 O 56.3646 1.27129 1.19096 0
M  V30 563 C 53.4966 2.56338 2.2473 0
M  V30 564 H 54.6896 2.95984 0.483085 0
M  V30 565 H 52.2426 1.54819 0.21468 0
M  V30 566 H 52.9776 1.7309 2.74245 0
M  V30 567 H 52.7626 3.35542 2.02865 0
M  V30 568 H 54.2526 2.96646 2.93923 0
M  V30 569 N 54.6897 -0.239769 1.55765 0
M  V30 570 C 55.9387 -0.964754 1.77131 0
M  V30 571 C 56.2517 -1.86213 0.59868 0
M  V30 572 O 57.4577 -2.6244 0.695522 0
M  V30 573 C 55.9137 -1.76552 3.1362 0
M  V30 574 C 55.5217 -0.915185 4.38553 0
M  V30 575 C 57.2657 -2.48281 3.44321 0
M  V30 576 C 55.1727 -1.71225 5.66071 0
M  V30 577 H 54.1027 -0.363953 0.660344 0
M  V30 578 H 56.7537 -0.219181 1.82186 0
M  V30 579 H 55.1357 -2.55331 3.02691 0
M  V30 580 H 56.3097 -0.169217 4.60489 0
M  V30 581 H 54.6247 -0.310889 4.15238 0
M  V30 582 H 57.2217 -3.08382 4.36812 0
M  V30 583 H 57.5647 -3.20256 2.65973 0
M  V30 584 H 58.0977 -1.76507 3.56497 0
M  V30 585 H 54.8367 -1.03612 6.4726 0
M  V30 586 H 54.3567 -2.43331 5.48224 0
M  V30 587 H 56.0357 -2.27758 6.05587 0
M  V30 588 N 56.1678 -1.49265 -0.50573 0
M  V30 589 C 57.4158 -1.582 -1.25766 0
M  V30 590 C 57.7368 -0.268482 -1.93143 0
M  V30 591 O 57.0068 0.711833 -1.8251 0
M  V30 592 H 55.5868 -0.582873 -0.467191 0
M  V30 593 H 58.2488 -1.85865 -0.586525 0
M  V30 594 H 57.3448 -2.37563 -2.02412 0
M  V30 595 N 57.6459 0.756429 -1.3826 0
M  V30 596 C 58.8949 1.51082 -1.3363 0
M  V30 597 C 59.2079 1.95467 0.0720068 0
M  V30 598 O 60.4139 2.7043 0.240834 0
M  V30 599 C 58.8699 2.72893 -2.34644 0
M  V30 600 C 58.4779 2.35544 -3.81081 0
M  V30 601 C 60.2219 3.50791 -2.39052 0
M  V30 602 C 58.1289 3.53948 -4.73787 0
M  V30 603 H 57.0589 0.56727 -0.49671 0
M  V30 604 H 59.7099 0.827147 -1.638 0
M  V30 605 H 58.0919 3.43227 -1.97513 0
M  V30 606 H 59.2659 1.72894 -4.27135 0
M  V30 607 H 57.5809 1.70786 -3.79764 0
M  V30 608 H 60.1779 4.38823 -3.05513 0
M  V30 609 H 60.5209 3.91745 -1.40861 0
M  V30 610 H 61.0539 2.87467 -2.74968 0
M  V30 611 H 57.7929 3.18064 -5.73163 0
M  V30 612 H 57.3129 4.15651 -4.32428 0
M  V30 613 H 58.9919 4.20566 -4.91663 0
M  V30 614 N 59.124 1.23083 0.984299 0
M  V30 615 C 60.372 1.05848 1.72165 0
M  V30 616 C 60.693 -0.406049 1.90726 0
M  V30 617 O 59.963 -1.29139 1.47309 0
M  V30 618 H 58.543 0.388685 0.637913 0
M  V30 619 H 61.205 1.54736 1.18503 0
M  V30 620 H 60.301 1.54327 2.71274 0
M  V30 621 N 60.6021 -1.18246 1.0419 0
M  V30 622 C 61.8301 -1.92195 0.766072 0
M  V30 623 C 62.2451 -1.76247 -0.676933 0
M  V30 624 O 61.6021 -1.09293 -1.46155 0
M  V30 625 C 61.6531 -3.43568 1.12442 0
M  V30 626 O 61.3741 -3.59015 2.51078 0
M  V30 627 C 62.8751 -4.34613 0.873275 0
M  V30 628 H 60.0951 -0.610114 0.279288 0
M  V30 629 H 62.6391 -1.50007 1.38989 0
M  V30 630 H 60.7941 -3.8354 0.545542 0
M  V30 631 H 61.2081 -4.5273 2.64831 0
M  V30 632 H 62.6821 -5.39374 1.17385 0
M  V30 633 H 63.1591 -4.38781 -0.191909 0
M  V30 634 H 63.7651 -4.00341 1.43551 0
M  V30 635 N 62.0802 -0.821533 -1.34494 0
M  V30 636 C 63.0102 -0.257138 -2.3208 0
M  V30 637 C 63.9912 0.625645 -1.58176 0
M  V30 638 O 65.1762 0.552811 -1.86166 0
M  V30 639 C 62.3062 0.582958 -3.42372 0
M  V30 640 C 61.2602 -0.202571 -4.2752 0
M  V30 641 C 60.5862 0.760179 -5.29269 0
M  V30 642 C 61.8862 -1.40998 -5.02908 0
M  V30 643 H 63.5802 -1.07247 -2.79532 0
M  V30 644 H 61.1262 -0.517163 -1.34393 0
M  V30 645 H 63.0792 0.987972 -4.09655 0
M  V30 646 H 61.8032 1.43133 -2.93565 0
M  V30 647 H 60.4622 -0.588936 -3.61838 0
M  V30 648 H 60.1102 1.60447 -4.76724 0
M  V30 649 H 59.8102 0.238809 -5.87115 0
M  V30 650 H 61.3342 1.16308 -5.9942 0
M  V30 651 H 62.7482 -1.07905 -5.63054 0
M  V30 652 H 61.1452 -1.86689 -5.70322 0
M  V30 653 H 62.2152 -2.1889 -4.32684 0
M  V30 654 N 63.5583 1.46682 -0.576371 0
M  V30 655 C 64.8073 2.01619 -0.0572825 0
M  V30 656 C 65.1203 1.45417 1.30818 0
M  V30 657 O 66.3263 1.92133 1.91825 0
M  V30 658 C 64.7823 3.59863 -0.0518371 0
M  V30 659 C 64.3903 4.25059 -1.41523 0
M  V30 660 C 66.1343 4.2248 0.413639 0
M  V30 661 C 64.0413 5.75364 -1.36785 0
M  V30 662 H 62.9713 0.753794 -0.0176448 0
M  V30 663 H 65.6223 1.68481 -0.727076 0
M  V30 664 H 64.0043 3.90048 0.683994 0
M  V30 665 H 65.1783 4.06491 -2.17029 0
M  V30 666 H 63.4933 3.7451 -1.8202 0
M  V30 667 H 66.0903 5.3265 0.467779 0
M  V30 668 H 66.4333 3.90976 1.42982 0
M  V30 669 H 66.9663 3.96897 -0.267929 0
M  V30 670 H 63.7053 6.11518 -2.36063 0
M  V30 671 H 63.2253 5.96214 -0.654895 0
M  V30 672 H 64.9043 6.37955 -1.07805 0
M  V30 673 N 65.0364 0.313813 1.54444 0
M  V30 674 C 66.2664 -0.293491 2.04505 0
M  V30 675 C 66.6744 -1.47086 1.19005 0
M  V30 676 O 66.0174 -1.82481 0.211257 0
M  V30 677 C 66.0794 -0.800455 3.50475 0
M  V30 678 C 65.7434 0.253322 4.56297 0
M  V30 679 C 66.7404 1.08612 5.08428 0
M  V30 680 C 64.4254 0.398708 5.00715 0
M  V30 681 C 66.4194 2.05013 6.0353 0
M  V30 682 C 64.1064 1.36614 5.95634 0
M  V30 683 C 65.1044 2.19033 6.46926 0
M  V30 684 O 64.7924 3.14134 7.39983 0
M  V30 685 H 64.5244 -0.0658325 0.672787 0
M  V30 686 H 67.0784 0.455177 2.00293 0
M  V30 687 H 65.3084 -1.59987 3.52053 0
M  V30 688 H 66.9974 -1.32504 3.83663 0
M  V30 689 H 67.7634 0.984736 4.74898 0
M  V30 690 H 63.6424 -0.23289 4.60411 0
M  V30 691 H 67.1864 2.69382 6.4349 0
M  V30 692 H 63.0834 1.4682 6.28581 0
M  V30 693 H 63.8514 3.0926 7.57826 0
M  V30 694 N 66.5145 -1.57545 0.0417849 0
M  V30 695 C 67.7625 -1.91937 -0.632829 0
M  V30 696 C 68.0835 -0.919978 -1.71934 0
M  V30 697 O 67.3535 0.0366064 -1.95866 0
M  V30 698 H 65.9335 -0.708493 -0.236742 0
M  V30 699 H 68.5955 -1.9468 0.0925745 0
M  V30 700 H 67.6915 -2.92912 -1.07746 0
M  V30 701 N 67.9926 0.231505 -1.5589 0
M  V30 702 C 68.9426 1.29007 -1.87993 0
M  V30 703 C 69.9266 1.42764 -0.742102 0
M  V30 704 O 71.1186 1.45747 -1.00433 0
M  V30 705 C 68.2476 2.6425 -2.1915 0
M  V30 706 C 67.3336 2.54435 -3.39299 0
M  V30 707 N 67.7246 2.14262 -4.58176 0
M  V30 708 C 66.0226 2.85416 -3.42715 0
M  V30 709 C 66.7236 2.15455 -5.40328 0
M  V30 710 N 65.6996 2.55558 -4.79783 0
M  V30 711 H 69.5016 0.970213 -2.77424 0
M  V30 712 H 67.0156 0.440097 -1.56323 0
M  V30 713 H 69.0126 3.40665 -2.40319 0
M  V30 714 H 67.6726 2.9709 -1.31025 0
M  V30 715 H 68.6836 1.85554 -4.83518 0
M  V30 716 H 65.3606 3.22693 -2.64906 0
M  V30 717 H 66.7506 1.86605 -6.45467 0
M  V30 718 N 69.4707 1.49531 0.497807 0
M  V30 719 C 70.7167 1.60388 1.25089 0
M  V30 720 C 71.0717 0.288328 1.90227 0
M  V30 721 O 70.3647 -0.711706 1.77891 0
M  V30 722 C 70.5587 2.70252 2.33878 0
M  V30 723 C 70.3877 4.12363 1.79408 0
M  V30 724 C 69.1577 4.7911 1.60566 0
M  V30 725 C 71.3557 4.97491 1.30412 0
M  V30 726 N 69.3377 6.05525 1.01059 0
M  V30 727 C 70.7087 6.14411 0.830595 0
M  V30 728 C 72.7637 4.83466 1.19015 0
M  V30 729 C 71.4667 7.1885 0.254371 0
M  V30 730 C 73.4927 5.88057 0.627892 0
M  V30 731 C 72.8547 7.04208 0.16461 0
M  V30 732 H 68.9537 0.641246 0.447579 0
M  V30 733 H 71.5377 1.86549 0.557441 0
M  V30 734 H 69.7087 2.45858 3.0068 0
M  V30 735 H 71.4407 2.70613 3.00917 0
M  V30 736 H 68.1957 4.35961 1.85026 0
M  V30 737 H 68.6197 6.73028 0.732236 0
M  V30 738 H 73.2617 3.93978 1.53431 0
M  V30 739 H 70.9797 8.08036 -0.102052 0
M  V30 740 H 74.5657 5.79266 0.542444 0
M  V30 741 H 73.4457 7.83757 -0.263669 0
M  V30 742 N 70.9488 -0.749086 1.3866 0
M  V30 743 C 72.1738 -1.54344 1.38538 0
M  V30 744 C 72.5988 -1.88088 -0.0216655 0
M  V30 745 O 71.9568 -1.50899 -1.00494 0
M  V30 746 C 72.0048 -2.8164 2.25192 0
M  V30 747 O 71.1088 -3.7698 1.67212 0
M  V30 748 H 70.4498 -0.466654 0.472367 0
M  V30 749 H 72.9798 -0.925355 1.82478 0
M  V30 750 H 72.9898 -3.30519 2.3921 0
M  V30 751 H 71.6648 -2.56411 3.27454 0
M  V30 752 H 70.2418 -3.35699 1.6236 0
M  V30 753 N 72.4269 -1.23603 -0.977757 0
M  V30 754 C 73.6759 -1.06377 -1.71368 0
M  V30 755 C 73.9889 0.399062 -1.91486 0
M  V30 756 O 75.1949 0.691312 -2.62551 0
M  V30 757 C 73.6509 -1.85512 -3.08404 0
M  V30 758 C 73.2589 -3.36141 -2.96164 0
M  V30 759 C 75.0029 -1.76783 -3.85938 0
M  V30 760 C 72.9099 -4.07659 -4.28449 0
M  V30 761 H 71.8399 -0.394452 -0.642591 0
M  V30 762 H 74.4909 -1.47594 -1.09034 0
M  V30 763 H 72.8729 -1.37103 -3.71509 0
M  V30 764 H 74.0469 -3.92056 -2.42133 0
M  V30 765 H 72.3619 -3.45712 -2.32104 0
M  V30 766 H 74.9589 -2.27526 -4.83876 0
M  V30 767 H 75.3019 -0.731116 -4.0983 0
M  V30 768 H 75.8349 -2.22818 -3.2954 0
M  V30 769 H 72.5739 -5.11648 -4.09752 0
M  V30 770 H 72.0939 -3.5653 -4.82334 0
M  V30 771 H 73.7729 -4.141 -4.97122 0
M  V30 772 N 73.905 1.17692 -1.04816 0
M  V30 773 C 74.838 2.20436 -0.590173 0
M  V30 774 C 75.816 1.58115 0.379244 0
M  V30 775 O 77 1.86228 0.291762 0
M  V30 776 C 74.127 3.38424 0.136817 0
M  V30 777 C 73.173 4.19176 -0.787023 0
M  V30 778 S 74.006 4.84815 -2.27409 0
M  V30 779 C 75.162 6.06195 -1.55817 0
M  V30 780 H 75.395 2.58944 -1.46067 0
M  V30 781 H 72.928 1.28246 -0.859784 0
M  V30 782 H 74.886 4.06798 0.550076 0
M  V30 783 H 73.547 2.98312 0.983299 0
M  V30 784 H 72.74 5.03499 -0.224681 0
M  V30 785 H 72.342 3.56219 -1.13947 0
M  V30 786 H 74.634 6.72078 -0.855387 0
M  V30 787 H 75.577 6.6695 -2.37873 0
M  V30 788 H 75.985 5.54701 -1.04722 0
M  V30 789 N 75.3831 0.828654 1.34056 0
M  V30 790 C 76.3301 0.252567 2.29414 0
M  V30 791 C 77.3001 -0.62588 1.53857 0
M  V30 792 O 78.4851 -0.566312 1.82202 0
M  V30 793 C 75.6251 -0.574831 3.40279 0
M  V30 794 C 74.7381 0.326499 4.30764 0
M  V30 795 C 73.8731 -0.511016 5.28736 0
M  V30 796 C 72.9121 0.389342 6.1086 0
M  V30 797 N 72.0491 -0.409439 7.00905 0
M  V30 798 H 76.8891 1.07108 2.78086 0
M  V30 799 H 74.4261 0.539677 1.36843 0
M  V30 800 H 76.3841 -1.06992 4.03248 0
M  V30 801 H 75.0141 -1.35841 2.92826 0
M  V30 802 H 74.0661 0.939837 3.68607 0
M  V30 803 H 75.3781 1.01857 4.88289 0
M  V30 804 H 74.5321 -1.07035 5.97184 0
M  V30 805 H 73.2711 -1.23657 4.71763 0
M  V30 806 H 72.2761 0.960769 5.4134 0
M  V30 807 H 73.5011 1.1131 6.69916 0
M  V30 808 H 71.4471 -1.11856 6.46393 0
M  V30 809 H 71.3641 0.224126 7.55668 0
M  V30 810 H 72.6321 -0.951336 7.73673 0
M  V30 811 N 76.8612 -1.46375 0.584142 0
M  V30 812 C 78.1072 -2.03248 0.0787103 0
M  V30 813 C 78.4622 -1.44737 -1.26763 0
M  V30 814 O 77.7552 -0.603625 -1.81843 0
M  V30 815 C 77.9492 -3.57373 -0.0439342 0
M  V30 816 C 77.7782 -4.30831 1.28897 0
M  V30 817 C 76.5482 -4.69683 1.8635 0
M  V30 818 C 78.7462 -4.64278 2.21248 0
M  V30 819 N 76.7282 -5.27898 3.13365 0
M  V30 820 C 78.0992 -5.23078 3.32851 0
M  V30 821 C 80.1542 -4.46209 2.20911 0
M  V30 822 C 78.8572 -5.65715 4.44251 0
M  V30 823 C 80.8832 -4.89864 3.31341 0
M  V30 824 C 80.2452 -5.48736 4.41665 0
M  V30 825 H 76.3442 -0.778714 0.0716144 0
M  V30 826 H 78.9282 -1.78509 0.777355 0
M  V30 827 H 77.0992 -3.81823 -0.711749 0
M  V30 828 H 78.8312 -4.00892 -0.553881 0
M  V30 829 H 75.5862 -4.52488 1.39826 0
M  V30 830 H 76.0102 -5.61525 3.78178 0
M  V30 831 H 80.6522 -4.00027 1.36888 0
M  V30 832 H 78.3702 -6.10875 5.29015 0
M  V30 833 H 81.9562 -4.77634 3.322 0
M  V30 834 H 80.8362 -5.81898 5.25704 0
M  V30 835 N 78.3393 -0.321999 -1.54275 0
M  V30 836 C 79.2873 0.560206 -2.25753 0
M  V30 837 C 80.2813 1.11984 -1.27106 0
M  V30 838 O 81.4873 1.06806 -1.44888 0
M  V30 839 H 77.8623 0.199304 -0.725108 0
M  V30 840 H 79.8333 -0.0649365 -2.98329 0
M  V30 841 C 78.5823 1.71023 -3.02731 0
M  V30 842 H 77.9053 1.28885 -3.78456 0
M  V30 843 H 79.3453 2.30314 -3.55993 0
M  V30 844 C 77.8043 2.62692 -2.10938 0
M  V30 845 O 78.3343 3.64364 -1.6912 0
M  V30 846 N 76.5403 2.30891 -1.76459 0
M  V30 847 H 76.0873 1.48253 -2.10663 0
M  V30 848 H 76.0453 2.92487 -1.1532 0
M  V30 849 N 79.8174 1.5752 -0.0501392 0
M  V30 850 C 81.2334 1.56631 0.306402 0
M  V30 851 C 81.4334 1.0577 1.71508 0
M  V30 852 O 80.4894 0.713837 2.422 0
M  V30 853 C 81.8024 3.00393 0.135811 0
M  V30 854 C 83.3504 3.12315 0.206993 0
M  V30 855 C 83.8254 4.57954 0.064944 0
M  V30 856 N 85.3164 4.63041 0.121254 0
M  V30 857 C 86.0514 5.73389 0.0354381 0
M  V30 858 N 85.5474 6.92724 -0.102666 0
M  V30 859 N 87.3404 5.62026 0.090946 0
M  V30 860 H 79.4914 1.88903 -0.971046 0
M  V30 861 H 81.7544 0.869876 -0.376855 0
M  V30 862 H 81.4604 3.41635 -0.835384 0
M  V30 863 H 81.3344 3.66373 0.897275 0
M  V30 864 H 83.7214 2.70973 1.16866 0
M  V30 865 H 83.8024 2.49016 -0.585208 0
M  V30 866 H 83.4464 4.99981 -0.893394 0
M  V30 867 H 83.3764 5.19258 0.876277 0
M  V30 868 H 85.8674 3.77216 0.227284 0
M  V30 869 H 86.1804 7.72633 -0.160882 0
M  V30 870 H 84.5254 6.94864 -0.137737 0
M  V30 871 H 87.7164 4.67684 0.197388 0
M  V30 872 H 87.8894 6.47997 0.0206089 0
M  V30 873 N 81.2955 -0.223234 1.56011 0
M  V30 874 C 82.2055 -1.29766 1.95443 0
M  V30 875 C 83.2215 -1.51373 0.858028 0
M  V30 876 O 84.3975 -1.64536 1.16146 0
M  V30 877 C 81.4625 -2.62772 2.26167 0
M  V30 878 C 80.5235 -2.49482 3.49367 0
M  V30 879 C 79.7565 -3.76145 3.78616 0
M  V30 880 O 79.9795 -4.79087 3.09568 0
M  V30 881 O 78.9135 -3.73358 4.72109 0
M  V30 882 H 82.7395 -0.99309 2.87004 0
M  V30 883 H 80.3245 -0.425958 1.43199 0
M  V30 884 H 82.2065 -3.41327 2.47131 0
M  V30 885 H 80.8815 -2.92913 1.37781 0
M  V30 886 H 79.7885 -1.69133 3.33684 0
M  V30 887 H 81.1215 -2.2428 4.38131 0
M  V30 888 N 82.7736 -1.49793 -0.48987 0
M  V30 889 C 84.1896 -1.36803 -0.822022 0
M  V30 890 C 84.3896 -0.409652 -1.97292 0
M  V30 891 O 83.4456 0.154614 -2.52026 0
M  V30 892 C 84.7586 -2.77768 -1.15175 0
M  V30 893 C 86.3066 -2.86549 -1.25931 0
M  V30 894 C 86.7816 -4.28306 -1.62228 0
M  V30 895 N 88.2726 -4.31169 -1.69256 0
M  V30 896 C 89.0076 -5.37832 -1.98807 0
M  V30 897 N 88.5036 -6.54726 -2.26507 0
M  V30 898 N 90.2966 -5.25258 -2.00152 0
M  V30 899 H 82.4476 -2.10691 0.268881 0
M  V30 900 H 84.7106 -0.946241 0.057728 0
M  V30 901 H 84.4166 -3.49648 -0.379335 0
M  V30 902 H 84.2906 -3.13836 -2.09253 0
M  V30 903 H 86.6776 -2.14899 -2.02243 0
M  V30 904 H 86.7586 -2.54049 -0.298776 0
M  V30 905 H 86.4026 -5.00486 -0.864622 0
M  V30 906 H 86.3326 -4.58279 -2.594 0
M  V30 907 H 88.8236 -3.4687 -1.49965 0
M  V30 908 H 89.1366 -7.31833 -2.48276 0
M  V30 909 H 87.4816 -6.57933 -2.23939 0
M  V30 910 H 90.6726 -4.32938 -1.77996 0
M  V30 911 H 90.8456 -6.08476 -2.22848 0
M  V30 912 N 84.2517 0.741722 -1.39055 0
M  V30 913 C 85.6677 1.04638 -1.20512 0
M  V30 914 C 85.8677 2.01405 -0.0620218 0
M  V30 915 O 84.9237 2.45547 0.588457 0
M  V30 916 C 86.2367 1.6151 -2.53643 0
M  V30 917 C 87.7847 1.73623 -2.6043 0
M  V30 918 C 88.2597 2.33906 -3.93767 0
M  V30 919 N 89.7507 2.41323 -3.9537 0
M  V30 920 C 90.4857 2.88888 -4.95309 0
M  V30 921 N 89.9817 3.36401 -6.05645 0
M  V30 922 N 91.7747 2.88037 -4.82692 0
M  V30 923 H 83.9257 0.0998155 -2.12165 0
M  V30 924 H 86.1887 0.106907 -0.941953 0
M  V30 925 H 85.8947 0.978739 -3.37807 0
M  V30 926 H 85.7687 2.60411 -2.72885 0
M  V30 927 H 88.1557 2.36384 -1.76655 0
M  V30 928 H 88.2367 0.733945 -2.45045 0
M  V30 929 H 87.8807 1.71776 -4.7797 0
M  V30 930 H 87.8107 3.34799 -4.06469 0
M  V30 931 H 90.3017 2.07734 -3.15682 0
M  V30 932 H 90.6147 3.71186 -6.77821 0
M  V30 933 H 88.9597 3.34427 -6.09248 0
M  V30 934 H 92.1507 2.50237 -3.95599 0
M  V30 935 H 92.3237 3.24792 -5.60726 0
M  V30 936 N 85.7298 1.2412 0.971189 0
M  V30 937 C 87.1458 1.00584 1.23916 0
M  V30 938 C 87.3458 -0.287481 1.99439 0
M  V30 939 O 86.4018 -1.00454 2.31658 0
M  V30 940 C 87.7148 2.21864 2.0297 0
M  V30 941 C 89.2628 2.26452 2.16076 0
M  V30 942 C 89.7378 3.47343 2.98524 0
M  V30 943 N 91.2288 3.47639 3.06107 0
M  V30 944 C 91.9638 4.37837 3.70251 0
M  V30 945 N 91.4598 5.38286 4.36142 0
M  V30 946 N 93.2528 4.25558 3.67228 0
M  V30 947 H 85.4038 2.07236 0.465499 0
M  V30 948 H 87.6668 0.909236 0.268315 0
M  V30 949 H 87.3728 3.15771 1.54861 0
M  V30 950 H 87.2468 2.23698 3.03709 0
M  V30 951 H 89.6338 1.33078 2.6339 0
M  V30 952 H 89.7148 2.28645 1.14696 0
M  V30 953 H 89.3588 4.41029 2.51905 0
M  V30 954 H 89.2888 3.42393 4.00093 0
M  V30 955 H 91.7798 2.74966 2.59233 0
M  V30 956 H 92.0928 6.03352 4.82894 0
M  V30 957 H 90.4378 5.42176 4.34822 0
M  V30 958 H 93.6288 3.46322 3.14927 0
M  V30 959 H 93.8018 4.96054 4.16935 0
M  V30 960 N 87.2079 -1.17134 1.05439 0
M  V30 961 C 88.1379 -2.2342 0.678649 0
M  V30 962 C 89.1189 -1.66971 -0.32476 0
M  V30 963 O 90.3039 -1.93149 -0.201802 0
M  V30 964 C 87.4339 -3.47256 0.0552099 0
M  V30 965 C 86.3879 -4.16543 0.98365 0
M  V30 966 C 85.7139 -5.34231 0.223961 0
M  V30 967 C 87.0139 -4.68495 2.3089 0
M  V30 968 H 88.7079 -2.55105 1.56722 0
M  V30 969 H 86.2539 -1.2262 0.754998 0
M  V30 970 H 88.2069 -4.20828 -0.21946 0
M  V30 971 H 86.9309 -3.14846 -0.868319 0
M  V30 972 H 85.5899 -3.44887 1.24293 0
M  V30 973 H 85.2379 -4.98071 -0.702412 0
M  V30 974 H 84.9379 -5.81527 0.842627 0
M  V30 975 H 86.4619 -6.10585 -0.0433671 0
M  V30 976 H 87.8759 -5.33691 2.09396 0
M  V30 977 H 86.2729 -5.26379 2.88176 0
M  V30 978 H 87.3429 -3.85169 2.94572 0
M  V30 979 N 88.686 -0.835752 -1.33615 0
M  V30 980 C 89.618 -0.224151 -2.28101 0
M  V30 981 C 90.631 0.593331 -1.51603 0
M  V30 982 O 91.82 0.420911 -1.73466 0
M  V30 983 C 88.92 0.703309 -3.31522 0
M  V30 984 C 88.093 -0.0741528 -4.37337 0
M  V30 985 C 87.152 0.776176 -5.20444 0
M  V30 986 O 86.178 0.216506 -5.68788 0
M  V30 987 N 87.38 2.09401 -5.41416 0
M  V30 988 H 90.145 -1.03598 -2.81225 0
M  V30 989 H 87.706 -0.69392 -1.46275 0
M  V30 990 H 89.698 1.27707 -3.84022 0
M  V30 991 H 88.268 1.41585 -2.78698 0
M  V30 992 H 87.488 -0.82928 -3.85378 0
M  V30 993 H 88.776 -0.608863 -5.05144 0
M  V30 994 H 88.174 2.57229 -5.03835 0
M  V30 995 H 86.731 2.61633 -5.96985 0
M  V30 996 N 90.1641 1.46063 -0.591896 0
M  V30 997 C 91.4131 2.01547 -0.0786637 0
M  V30 998 C 91.7261 1.46796 1.29268 0
M  V30 999 O 92.9321 1.94157 1.89777 0
M  V30 1000 C 91.3881 3.59787 -0.0900024 0
M  V30 1001 C 90.9961 4.23534 -1.46023 0
M  V30 1002 C 92.7401 4.22895 0.368806 0
M  V30 1003 C 90.6471 5.73881 -1.4288 0
M  V30 1004 H 89.5771 0.753564 -0.0256388 0
M  V30 1005 H 92.2281 1.677 -0.744905 0
M  V30 1006 H 90.6101 3.90752 0.642586 0
M  V30 1007 H 91.7841 4.04167 -2.21328 0
M  V30 1008 H 90.0991 3.72558 -1.85982 0
M  V30 1009 H 92.6961 5.33116 0.411258 0
M  V30 1010 H 93.0391 3.9247 1.38827 0
M  V30 1011 H 93.5721 3.9659 -0.31001 0
M  V30 1012 H 90.3111 6.0898 -2.42536 0
M  V30 1013 H 89.8311 5.95486 -0.718095 0
M  V30 1014 H 91.5101 6.36776 -1.14565 0
M  V30 1015 N 91.6422 0.330177 1.54103 0
M  V30 1016 C 92.5522 -0.541534 2.28264 0
M  V30 1017 C 93.5682 -1.12351 1.32866 0
M  V30 1018 O 94.7442 -1.14206 1.65888 0
M  V30 1019 C 91.8092 -1.68322 3.03098 0
M  V30 1020 C 90.8702 -1.13238 4.14096 0
M  V30 1021 C 90.1032 -2.21966 4.85352 0
M  V30 1022 O 90.3262 -3.42437 4.56172 0
M  V30 1023 O 89.2602 -1.87013 5.7211 0
M  V30 1024 H 93.0862 0.060938 3.03639 0
M  V30 1025 H 90.6712 0.09565 1.49093 0
M  V30 1026 H 92.5532 -2.34777 3.49939 0
M  V30 1027 H 91.2282 -2.27176 2.30593 0
M  V30 1028 H 90.1352 -0.432736 3.71589 0
M  V30 1029 H 91.4682 -0.588898 4.88664 0
M  V30 1030 N 93.1203 -1.57491 0.0584922 0
M  V30 1031 C 94.3973 -1.84346 -0.653918 0
M  V30 1032 C 94.7773 -0.948355 -1.88599 0
M  V30 1033 O 94.1253 -0.0112403 -2.28497 0
M  V30 1034 C 94.3353 -3.34239 -1.00425 0
M  V30 1035 C 95.6833 -4.01431 -1.38342 0
M  V30 1036 O 96.7073 -3.38907 -1.09637 0
M  V30 1037 O 95.5663 -5.11683 -1.91943 0
M  V30 1038 H 92.6603 -0.761112 -0.323478 0
M  V30 1039 H 95.2063 -1.6947 0.0884125 0
M  V30 1040 H 93.9783 -3.91089 -0.128625 0
M  V30 1041 H 93.6013 -3.54329 -1.80378 0
M  V30 1042 N 94.5984 0.214957 -1.56127 0
M  V30 1043 C 95.8454 0.938372 -1.79446 0
M  V30 1044 C 96.1734 1.8407 -0.628378 0
M  V30 1045 O 95.4284 1.91837 0.386925 0
M  V30 1046 C 95.7274 1.80314 -3.0858 0
M  V30 1047 C 95.3934 1.05349 -4.3842 0
M  V30 1048 C 94.0554 0.846435 -4.73697 0
M  V30 1049 C 96.4074 0.524588 -5.18553 0
M  V30 1050 C 93.7354 0.098683 -5.86617 0
M  V30 1051 C 96.0874 -0.209853 -6.32252 0
M  V30 1052 C 94.7514 -0.428102 -6.66126 0
M  V30 1053 H 94.0214 0.343375 -0.656639 0
M  V30 1054 H 96.6684 0.206077 -1.90388 0
M  V30 1055 H 94.9734 2.6035 -2.92789 0
M  V30 1056 H 96.6704 2.36513 -3.23825 0
M  V30 1057 H 93.2604 1.22486 -4.10725 0
M  V30 1058 H 97.4444 0.672008 -4.91729 0
M  V30 1059 H 92.7004 -0.0805753 -6.11347 0
M  V30 1060 H 96.8744 -0.627157 -6.9357 0
M  V30 1061 H 94.5014 -1.00944 -7.53468 0
M  V30 1062 N 96.0765 1.50051 0.48192 0
M  V30 1063 C 96.9865 1.7089 1.60728 0
M  V30 1064 C 98.0025 0.591788 1.63627 0
M  V30 1065 O 99.1785 0.868817 1.81696 0
M  V30 1066 C 96.2435 1.78855 2.97005 0
M  V30 1067 C 95.3045 3.02537 3.04581 0
M  V30 1068 C 94.5375 3.10112 4.34357 0
M  V30 1069 O 94.7605 2.24765 5.24249 0
M  V30 1070 O 93.6945 4.02747 4.47301 0
M  V30 1071 H 97.5205 2.66264 1.46072 0
M  V30 1072 H 95.1055 1.34018 0.660264 0
M  V30 1073 H 96.9875 1.86336 3.77964 0
M  V30 1074 H 95.6625 0.866628 3.11883 0
M  V30 1075 H 94.5695 3.00563 2.22739 0
M  V30 1076 H 95.9025 3.94272 2.94636 0
M  V30 1077 N 97.5546 -0.734337 1.39446 0
M  V30 1078 C 98.5176 -1.83004 1.37994 0
M  V30 1079 C 99.5176 -1.58397 0.276938 0
M  V30 1080 O 100.708 -1.65785 0.534875 0
M  V30 1081 C 97.8396 -3.20802 1.1532 0
M  V30 1082 H 99.0326 -1.85694 2.35494 0
M  V30 1083 H 96.5856 -0.938059 1.25021 0
M  V30 1084 H 97.3206 -3.23772 0.185036 0
M  V30 1085 H 97.1056 -3.4006 1.95197 0
M  V30 1086 H 98.5956 -4.00862 1.17046 0
M  V30 1087 N 99.0327 -1.24633 -0.964593 0
M  V30 1088 C 100.449 -1.01239 -1.2338 0
M  V30 1089 C 100.649 0.2769 -1.99588 0
M  V30 1090 O 99.7047 0.992241 -2.32187 0
M  V30 1091 C 101.018 -2.22937 -2.01791 0
M  V30 1092 C 102.566 -2.27594 -2.14872 0
M  V30 1093 C 103.041 -3.48921 -2.96678 0
M  V30 1094 N 104.532 -3.49257 -3.04259 0
M  V30 1095 C 105.267 -4.39795 -3.67924 0
M  V30 1096 N 104.763 -5.40591 -4.33281 0
M  V30 1097 N 106.556 -4.275 -3.64966 0
M  V30 1098 H 98.7067 -2.0748 -0.454502 0
M  V30 1099 H 100.97 -0.910647 -0.26349 0
M  V30 1100 H 100.676 -3.16587 -1.53184 0
M  V30 1101 H 100.55 -2.25306 -3.02518 0
M  V30 1102 H 102.937 -1.34473 -2.6268 0
M  V30 1103 H 103.018 -2.2925 -1.13482 0
M  V30 1104 H 102.662 -4.42359 -2.49562 0
M  V30 1105 H 102.592 -3.4451 -3.98272 0
M  V30 1106 H 105.083 -2.76337 -2.57771 0
M  V30 1107 H 105.396 -6.05904 -4.79687 0
M  V30 1108 H 103.741 -5.44475 -4.3194 0
M  V30 1109 H 106.932 -3.47987 -3.13086 0
M  V30 1110 H 107.105 -4.98258 -4.14298 0
M  V30 1111 N 100.511 1.16574 -1.06058 0
M  V30 1112 C 101.76 1.86385 -0.770944 0
M  V30 1113 C 102.073 1.82448 0.705129 0
M  V30 1114 O 103.279 2.47815 1.10905 0
M  V30 1115 C 101.735 3.34466 -1.32893 0
M  V30 1116 C 101.343 3.46883 -2.83507 0
M  V30 1117 C 103.087 4.09548 -1.11672 0
M  V30 1118 C 100.994 4.89036 -3.32562 0
M  V30 1119 H 99.9238 0.698181 -0.284709 0
M  V30 1120 H 102.575 1.31583 -1.27899 0
M  V30 1121 H 100.957 3.88859 -0.748662 0
M  V30 1122 H 102.131 3.02663 -3.47465 0
M  V30 1123 H 100.446 2.85232 -3.03368 0
M  V30 1124 H 103.043 5.14434 -1.45814 0
M  V30 1125 H 103.386 4.16264 -0.0549535 0
M  V30 1126 H 103.919 3.61387 -1.66265 0
M  V30 1127 H 100.658 4.87499 -4.38207 0
M  V30 1128 H 100.178 5.3389 -2.73351 0
M  V30 1129 H 101.857 5.57843 -3.2775 0
M  V30 1130 N 101.989 0.842826 1.3317 0
M  V30 1131 C 102.952 0.284065 2.27433 0
M  V30 1132 C 103.952 -0.54948 1.5112 0
M  V30 1133 O 105.142 -0.362699 1.70382 0
M  V30 1134 C 102.274 -0.599384 3.35589 0
M  V30 1135 H 103.467 1.11589 2.78366 0
M  V30 1136 H 101.02 0.616221 1.4364 0
M  V30 1137 H 101.755 -1.45349 2.89904 0
M  V30 1138 H 101.54 -0.00291266 3.921 0
M  V30 1139 H 103.03 -0.983488 4.05854 0
M  V30 1140 N 103.467 -1.45747 0.599634 0
M  V30 1141 C 104.397 -2.33235 -0.111306 0
M  V30 1142 C 105.378 -1.46359 -0.866781 0
M  V30 1143 O 106.563 -1.75146 -0.838904 0
M  V30 1144 C 103.693 -3.28932 -1.11451 0
M  V30 1145 C 102.647 -4.25381 -0.472772 0
M  V30 1146 C 101.973 -5.1071 -1.58365 0
M  V30 1147 C 103.273 -5.18831 0.600948 0
M  V30 1148 H 104.967 -2.92927 0.61919 0
M  V30 1149 H 102.513 -1.40857 0.299215 0
M  V30 1150 H 104.466 -3.89002 -1.62036 0
M  V30 1151 H 103.19 -2.67381 -1.8755 0
M  V30 1152 H 101.849 -3.66598 0.0121472 0
M  V30 1153 H 101.497 -4.45533 -2.33473 0
M  V30 1154 H 101.197 -5.7604 -1.15982 0
M  V30 1155 H 102.721 -5.73647 -2.09194 0
M  V30 1156 H 104.135 -5.73019 0.179491 0
M  V30 1157 H 102.532 -5.92595 0.946076 0
M  V30 1158 H 103.602 -4.6174 1.48068 0
M  V30 1159 N 104.945 -0.338344 -1.53925 0
M  V30 1160 C 105.875 0.51328 -2.27789 0
M  V30 1161 C 106.856 1.107 -1.29149 0
M  V30 1162 O 108.041 1.12937 -1.57984 0
M  V30 1163 C 105.171 1.66697 -3.04679 0
M  V30 1164 C 104.125 1.20183 -4.1078 0
M  V30 1165 C 103.451 2.44363 -4.75595 0
M  V30 1166 C 104.751 0.30605 -5.21403 0
M  V30 1167 H 106.445 -0.102883 -2.99223 0
M  V30 1168 H 103.991 -0.0509219 -1.4391 0
M  V30 1169 H 105.944 2.26915 -3.55088 0
M  V30 1170 H 104.668 2.30995 -2.30887 0
M  V30 1171 H 103.327 0.622499 -3.61276 0
M  V30 1172 H 102.975 3.07057 -3.98403 0
M  V30 1173 H 102.675 2.13925 -5.47275 0
M  V30 1174 H 104.199 3.05317 -5.28786 0
M  V30 1175 H 105.613 0.814929 -5.67478 0
M  V30 1176 H 104.01 0.0937929 -6.00027 0
M  V30 1177 H 105.08 -0.65921 -4.80398 0
M  V30 1178 N 106.423 1.57458 -0.0668435 0
M  V30 1179 C 107.834 1.80776 0.466558 0
M  V30 1180 C 108.185 0.980361 1.69951 0
M  V30 1181 O 107.31 0.201441 2.1546 0
M  V30 1182 C 107.905 3.27881 0.85321 0
M  V30 1183 C 106.464 3.52062 1.3315 0
M  V30 1184 C 105.611 2.75513 0.314264 0
M  V30 1185 H 108.562 1.5598 -0.292588 0
M  V30 1186 H 108.583 3.39659 1.715 0
M  V30 1187 H 108.095 3.88075 -0.0443439 0
M  V30 1188 H 106.196 2.97167 2.24772 0
M  V30 1189 H 106.309 4.60762 1.31285 0
M  V30 1190 H 104.673 2.42123 0.790492 0
M  V30 1191 H 105.456 3.38442 -0.575477 0
M  V30 1192 N 107.901 -0.206675 1.56239 0
M  V30 1193 C 108.831 -1.25909 1.96645 0
M  V30 1194 C 109.812 -1.48097 0.836734 0
M  V30 1195 O 110.997 -1.6003 1.10019 0
M  V30 1196 C 108.127 -2.6058 2.29599 0
M  V30 1197 C 107.081 -2.53024 3.452 0
M  V30 1198 C 106.407 -3.91861 3.63798 0
M  V30 1199 C 107.707 -2.06524 4.79734 0
M  V30 1200 H 109.401 -0.923369 2.84806 0
M  V30 1201 H 106.947 -0.442735 1.37025 0
M  V30 1202 H 108.9 -3.34375 2.56459 0
M  V30 1203 H 107.624 -2.95869 1.38307 0
M  V30 1204 H 106.283 -1.81684 3.18412 0
M  V30 1205 H 105.931 -4.24483 2.69857 0
M  V30 1206 H 105.631 -3.87683 4.4156 0
M  V30 1207 H 107.155 -4.67296 3.93022 0
M  V30 1208 H 108.569 -2.70072 5.05702 0
M  V30 1209 H 106.966 -2.13374 5.60885 0
M  V30 1210 H 108.036 -1.01802 4.74093 0
M  V30 1211 N 109.379 -1.50304 -0.473955 0
M  V30 1212 C 110.309 -1.71886 -1.58042 0
M  V30 1213 C 111.29 -0.567799 -1.60344 0
M  V30 1214 O 112.475 -0.806623 -1.76656 0
M  V30 1215 C 109.605 -1.81036 -2.96384 0
M  V30 1216 C 108.559 -2.962 -3.08949 0
M  V30 1217 C 107.885 -2.9049 -4.48909 0
M  V30 1218 C 109.185 -4.36752 -2.86434 0
M  V30 1219 H 110.879 -2.64527 -1.40234 0
M  V30 1220 H 108.425 -1.27295 -0.673201 0
M  V30 1221 H 110.378 -1.94719 -3.73714 0
M  V30 1222 H 109.102 -0.850147 -3.15341 0
M  V30 1223 H 107.761 -2.82164 -2.3405 0
M  V30 1224 H 107.409 -1.92321 -4.64781 0
M  V30 1225 H 107.109 -3.67802 -4.58253 0
M  V30 1226 H 108.633 -3.06218 -5.28264 0
M  V30 1227 H 110.047 -4.5133 -3.53517 0
M  V30 1228 H 108.444 -5.15493 -3.07225 0
M  V30 1229 H 109.514 -4.49321 -1.82316 0
M  V30 1230 N 110.857 0.726932 -1.39834 0
M  V30 1231 C 111.789 1.85147 -1.35104 0
M  V30 1232 C 112.802 1.60736 -0.258392 0
M  V30 1233 O 113.991 1.70821 -0.517931 0
M  V30 1234 C 111.091 3.21332 -1.07697 0
M  V30 1235 C 110.264 3.73033 -2.28396 0
M  V30 1236 C 109.323 4.87802 -1.97322 0
M  V30 1237 O 108.349 5.01043 -2.70083 0
M  V30 1238 N 109.551 5.72768 -0.944273 0
M  V30 1239 H 112.316 1.89706 -2.32017 0
M  V30 1240 H 109.877 0.908006 -1.3404 0
M  V30 1241 H 111.869 3.95691 -0.849144 0
M  V30 1242 H 110.439 3.11992 -0.194909 0
M  V30 1243 H 109.659 2.89934 -2.6708 0
M  V30 1244 H 110.947 4.0431 -3.08887 0
M  V30 1245 H 110.345 5.64669 -0.341427 0
M  V30 1246 H 108.902 6.4716 -0.776346 0
M  V30 1247 N 112.336 1.25143 0.95797 0
M  V30 1248 C 113.299 1.05321 2.03569 0
M  V30 1249 C 114.299 0.007152 1.60798 0
M  V30 1250 O 115.489 0.24903 1.72411 0
M  V30 1251 C 112.621 0.598394 3.35607 0
M  V30 1252 H 113.814 2.00986 2.22586 0
M  V30 1253 H 111.367 1.07502 1.13459 0
M  V30 1254 H 112.102 -0.361014 3.22284 0
M  V30 1255 H 111.887 1.35351 3.67998 0
M  V30 1256 H 113.377 0.48104 4.1482 0
M  V30 1257 N 113.814 -1.1601 1.06675 0
M  V30 1258 C 114.724 -2.24156 0.692179 0
M  V30 1259 C 115.74 -1.71507 -0.293513 0
M  V30 1260 O 116.916 -2.009 -0.141861 0
M  V30 1261 C 113.981 -3.46587 0.0884131 0
M  V30 1262 C 113.042 -4.14257 1.12646 0
M  V30 1263 C 112.275 -5.30844 0.551416 0
M  V30 1264 O 112.498 -5.66858 -0.634656 0
M  V30 1265 O 111.432 -5.87848 1.29298 0
M  V30 1266 H 115.258 -2.58513 1.59388 0
M  V30 1267 H 112.843 -1.23599 0.83926 0
M  V30 1268 H 114.725 -4.20679 -0.246361 0
M  V30 1269 H 113.4 -3.13994 -0.786712 0
M  V30 1270 H 112.307 -3.42118 1.51348 0
M  V30 1271 H 113.64 -4.50914 1.97325 0
M  V30 1272 N 115.292 -0.849877 -1.32721 0
M  V30 1273 C 116.52 -0.464754 -2.01613 0
M  V30 1274 C 116.935 0.937191 -1.63897 0
M  V30 1275 O 116.292 1.61081 -0.857856 0
M  V30 1276 C 116.343 -0.588638 -3.56675 0
M  V30 1277 O 116.064 -1.93535 -3.93034 0
M  V30 1278 C 117.565 -0.2019 -4.4284 0
M  V30 1279 H 114.785 -0.183215 -0.645502 0
M  V30 1280 H 117.329 -1.1455 -1.69407 0
M  V30 1281 H 115.484 0.0443159 -3.87375 0
M  V30 1282 H 115.898 -1.92871 -4.87751 0
M  V30 1283 H 117.372 -0.339599 -5.50954 0
M  V30 1284 H 117.849 0.857224 -4.30753 0
M  V30 1285 H 118.455 -0.809733 -4.17521 0
M  V30 1286 N 116.77 1.45427 -0.607355 0
M  V30 1287 C 118.047 1.9557 -0.0344566 0
M  V30 1288 C 118.427 1.54979 1.43334 0
M  V30 1289 O 117.775 0.812241 2.13576 0
M  V30 1290 C 117.985 3.48226 -0.232321 0
M  V30 1291 C 119.333 4.2445 -0.113001 0
M  V30 1292 O 120.357 3.55829 -0.162431 0
M  V30 1293 O 119.216 5.465 0.00209442 0
M  V30 1294 H 116.31 0.826222 0.0358667 0
M  V30 1295 H 118.856 1.55594 -0.6774 0
M  V30 1296 H 117.628 3.70739 -1.25174 0
M  V30 1297 H 117.251 3.95092 0.445896 0
M  V30 1298 N 118.248 0.346503 1.53744 0
M  V30 1299 C 119.664 -0.00530975 1.59599 0
M  V30 1300 C 119.864 -1.48465 1.36236 0
M  V30 1301 O 118.92 -2.24376 1.15808 0
M  V30 1302 C 120.233 0.433516 2.97559 0
M  V30 1303 C 121.781 0.386111 3.10609 0
M  V30 1304 C 122.256 0.800451 4.50951 0
M  V30 1305 N 123.747 0.754753 4.5701 0
M  V30 1306 C 124.482 1.04727 5.63755 0
M  V30 1307 N 123.978 1.4081 6.7834 0
M  V30 1308 N 125.771 0.971316 5.53644 0
M  V30 1309 H 117.922 1.31009 1.67184 0
M  V30 1310 H 120.185 0.534242 0.783128 0
M  V30 1311 H 119.891 1.46509 3.19731 0
M  V30 1312 H 119.765 -0.189753 3.76722 0
M  V30 1313 H 122.152 -0.636295 2.88158 0
M  V30 1314 H 122.233 1.04462 2.33498 0
M  V30 1315 H 121.877 1.82088 4.74137 0
M  V30 1316 H 121.807 0.119386 5.26465 0
M  V30 1317 H 124.298 0.488662 3.74727 0
M  V30 1318 H 124.611 1.61607 7.55714 0
M  V30 1319 H 122.956 1.44657 6.79779 0
M  V30 1320 H 126.147 0.688748 4.63005 0
M  V30 1321 H 126.32 1.20263 6.36742 0
M  V30 1322 N 119.726 -1.57421 0.075193 0
M  V30 1323 C 121.142 -1.57099 -0.281444 0
M  V30 1324 C 121.342 -1.08486 -1.69803 0
M  V30 1325 O 120.398 -0.752279 -2.41033 0
M  V30 1326 C 121.711 -3.00571 -0.0880041 0
M  V30 1327 C 123.259 -3.12605 -0.157281 0
M  V30 1328 C 123.734 -4.57999 0.0079207 0
M  V30 1329 N 125.225 -4.63176 -0.0475725 0
M  V30 1330 C 125.96 -5.73373 0.0557876 0
M  V30 1331 N 125.456 -6.92473 0.21286 0
M  V30 1332 N 127.249 -5.621 -0.00152098 0
M  V30 1333 H 119.4 -1.87335 1.00098 0
M  V30 1334 H 121.663 -0.86377 0.390646 0
M  V30 1335 H 121.369 -3.40262 0.889629 0
M  V30 1336 H 121.243 -3.67754 -0.838875 0
M  V30 1337 H 123.63 -2.72798 -1.1254 0
M  V30 1338 H 123.711 -2.48053 0.62475 0
M  V30 1339 H 123.355 -4.98496 0.972824 0
M  V30 1340 H 123.285 -5.20586 -0.793556 0
M  V30 1341 H 125.776 -3.7753 -0.167244 0
M  V30 1342 H 126.089 -7.72279 0.283781 0
M  V30 1343 H 124.434 -6.94556 0.248267 0
M  V30 1344 H 127.625 -4.67938 -0.122958 0
M  V30 1345 H 127.798 -6.47948 0.0824844 0
M  V30 1346 N 121.204 0.198386 -1.56346 0
M  V30 1347 C 122.432 0.935572 -1.84539 0
M  V30 1348 C 122.847 1.76989 -0.657281 0
M  V30 1349 O 122.204 1.78626 0.374043 0
M  V30 1350 C 122.255 1.8344 -3.11499 0
M  V30 1351 O 121.976 1.03377 -4.25728 0
M  V30 1352 C 123.477 2.68355 -3.52846 0
M  V30 1353 H 120.697 0.273126 -0.612897 0
M  V30 1354 H 123.241 0.20663 -2.03453 0
M  V30 1355 H 121.396 2.51701 -2.94492 0
M  V30 1356 H 121.81 1.64599 -4.98003 0
M  V30 1357 H 123.284 3.27085 -4.44657 0
M  V30 1358 H 123.761 3.41901 -2.75681 0
M  V30 1359 H 124.367 2.05471 -3.72373 0
M  V30 1360 N 122.682 1.50554 0.465978 0
M  V30 1361 C 123.612 1.72722 1.57128 0
M  V30 1362 C 124.593 0.576294 1.6004 0
M  V30 1363 O 125.778 0.81598 1.76225 0
M  V30 1364 C 122.908 1.82605 2.95419 0
M  V30 1365 C 121.862 2.97835 3.07373 0
M  V30 1366 C 121.188 2.92867 4.47363 0
M  V30 1367 C 122.488 4.38265 2.84114 0
M  V30 1368 H 124.182 2.65267 1.38829 0
M  V30 1369 H 121.728 1.2765 0.666441 0
M  V30 1370 H 123.681 1.96698 3.72677 0
M  V30 1371 H 122.405 0.866858 3.14886 0
M  V30 1372 H 121.064 2.83401 2.3255 0
M  V30 1373 H 120.712 1.94783 4.63755 0
M  V30 1374 H 120.412 3.70227 4.56296 0
M  V30 1375 H 121.936 3.09015 5.26633 0
M  V30 1376 H 123.35 4.53198 3.51118 0
M  V30 1377 H 121.747 5.17115 3.04487 0
M  V30 1378 H 122.817 4.50281 1.7993 0
M  V30 1379 N 124.16 -0.719506 1.40217 0
M  V30 1380 C 125.092 -1.84428 1.36084 0
M  V30 1381 C 126.105 -1.60597 0.266913 0
M  V30 1382 O 127.294 -1.70544 0.526983 0
M  V30 1383 C 124.394 -3.20757 1.094 0
M  V30 1384 C 123.567 -3.71817 2.30372 0
M  V30 1385 C 122.626 -4.86748 1.99907 0
M  V30 1386 O 121.652 -4.99603 2.72737 0
M  V30 1387 N 122.854 -5.7226 0.974635 0
M  V30 1388 H 125.619 -1.88473 2.33019 0
M  V30 1389 H 123.18 -0.900885 1.3452 0
M  V30 1390 H 125.172 -3.95235 0.870116 0
M  V30 1391 H 123.742 -3.11884 0.211452 0
M  V30 1392 H 122.962 -2.88514 2.68614 0
M  V30 1393 H 124.25 -4.02666 3.11026 0
M  V30 1394 H 123.648 -5.6448 0.371368 0
M  V30 1395 H 122.205 -6.46739 0.810656 0
M  V30 1396 N 125.638 -1.25649 -0.95132 0
M  V30 1397 C 126.571 -1.00644 -2.04807 0
M  V30 1398 C 127.549 0.0654271 -1.62468 0
M  V30 1399 O 128.733 -0.074911 -1.88351 0
M  V30 1400 C 125.86 -0.522052 -3.34653 0
M  V30 1401 C 124.906 -1.58495 -3.95957 0
M  V30 1402 S 125.739 -3.17108 -4.31512 0
M  V30 1403 C 126.895 -2.70412 -5.64471 0
M  V30 1404 H 127.128 -1.93508 -2.25703 0
M  V30 1405 H 124.661 -1.09216 -1.09139 0
M  V30 1406 H 126.619 -0.24923 -4.09743 0
M  V30 1407 H 125.28 0.386146 -3.11717 0
M  V30 1408 H 124.473 -1.1968 -4.89584 0
M  V30 1409 H 124.075 -1.80862 -3.2736 0
M  V30 1410 H 126.367 -2.14245 -6.42733 0
M  V30 1411 H 127.31 -3.62693 -6.08161 0
M  V30 1412 H 127.718 -2.10302 -5.23864 0
M  V30 1413 N 127.117 1.15442 -1.07289 0
M  V30 1414 C 128.047 2.22312 -0.714107 0
M  V30 1415 C 129.028 1.67467 0.298155 0
M  V30 1416 O 130.213 1.93445 0.171048 0
M  V30 1417 C 127.343 3.47124 -0.110448 0
M  V30 1418 C 126.297 4.14926 -1.04979 0
M  V30 1419 C 125.623 5.33807 -0.308924 0
M  V30 1420 C 126.923 4.64762 -2.38314 0
M  V30 1421 H 128.617 2.5258 -1.6076 0
M  V30 1422 H 126.163 1.21404 -0.77441 0
M  V30 1423 H 128.116 4.21124 0.152482 0
M  V30 1424 H 126.84 3.16187 0.81812 0
M  V30 1425 H 125.499 3.42866 -1.29764 0
M  V30 1426 H 125.147 4.99126 0.623084 0
M  V30 1427 H 124.847 5.80113 -0.935036 0
M  V30 1428 H 126.371 6.10576 -0.0537771 0
M  V30 1429 H 127.785 5.30292 -2.1786 0
M  V30 1430 H 126.182 5.21728 -2.96514 0
M  V30 1431 H 127.252 3.80434 -3.00663 0
M  V30 1432 N 128.595 0.856903 1.32268 0
M  V30 1433 C 130.011 0.547061 1.49931 0
M  V30 1434 C 130.211 -0.921781 1.7918 0
M  V30 1435 O 129.267 -1.70469 1.8627 0
M  V30 1436 C 130.58 1.43599 2.64196 0
M  V30 1437 C 132.128 1.43665 2.78081 0
M  V30 1438 C 132.603 2.31085 3.95428 0
M  V30 1439 N 134.094 2.28893 4.02694 0
M  V30 1440 C 134.829 2.93262 4.92732 0
M  V30 1441 N 134.325 3.66751 5.87763 0
M  V30 1442 N 136.118 2.82638 4.85873 0
M  V30 1443 H 128.269 1.8075 1.11549 0
M  V30 1444 H 130.532 0.772144 0.549997 0
M  V30 1445 H 130.238 2.48058 2.49319 0
M  V30 1446 H 130.112 1.12502 3.60032 0
M  V30 1447 H 132.499 0.399701 2.92381 0
M  V30 1448 H 132.58 1.7878 1.82952 0
M  V30 1449 H 132.224 3.34849 3.81888 0
M  V30 1450 H 132.154 1.93302 4.89839 0
M  V30 1451 H 134.645 1.75466 3.34694 0
M  V30 1452 H 134.958 4.13027 6.53168 0
M  V30 1453 H 133.303 3.70859 5.87783 0
M  V30 1454 H 136.494 2.24774 4.10602 0
M  V30 1455 H 136.667 3.33084 5.55841 0
M  V30 1456 N 130.073 -1.45103 0.615059 0
M  V30 1457 C 130.983 -2.34382 -0.101034 0
M  V30 1458 C 131.999 -1.51681 -0.852585 0
M  V30 1459 O 133.175 -1.8446 -0.808484 0
M  V30 1460 C 130.24 -3.29417 -1.08099 0
M  V30 1461 C 129.301 -4.28025 -0.330577 0
M  V30 1462 C 128.534 -5.1852 -1.26385 0
M  V30 1463 O 128.757 -5.12598 -2.50198 0
M  V30 1464 O 127.691 -5.97122 -0.756866 0
M  V30 1465 H 131.517 -2.97033 0.632855 0
M  V30 1466 H 129.102 -1.4461 0.375293 0
M  V30 1467 H 130.984 -3.87958 -1.6452 0
M  V30 1468 H 129.659 -2.69321 -1.79577 0
M  V30 1469 H 128.566 -3.73078 0.276283 0
M  V30 1470 H 129.899 -4.90997 0.343866 0
M  V30 1471 N 131.551 -0.354651 -1.53558 0
M  V30 1472 C 132.499 0.512195 -2.26891 0
M  V30 1473 C 133.493 1.09263 -1.29452 0
M  V30 1474 O 134.699 1.03709 -1.47121 0
M  V30 1475 H 131.074 0.183878 -0.729173 0
M  V30 1476 H 133.045 -0.128202 -2.98124 0
M  V30 1477 C 131.794 1.64563 -3.06291 0
M  V30 1478 H 131.117 1.20829 -3.81104 0
M  V30 1479 H 132.557 2.22711 -3.60799 0
M  V30 1480 C 131.016 2.58158 -2.16462 0
M  V30 1481 O 131.546 3.60695 -1.76811 0
M  V30 1482 N 129.752 2.27096 -1.81317 0
M  V30 1483 H 129.299 1.43751 -2.1376 0
M  V30 1484 H 129.257 2.89975 -1.21498 0
M  V30 1485 N 133.029 1.57378 -0.0835403 0
M  V30 1486 C 133.959 2.1641 0.87686 0
M  V30 1487 C 134.94 1.09429 1.30228 0
M  V30 1488 O 136.125 1.37516 1.37124 0
M  V30 1489 C 133.255 2.73517 2.14022 0
M  V30 1490 C 132.209 3.85769 1.85381 0
M  V30 1491 C 131.535 4.29529 3.18448 0
M  V30 1492 C 132.835 5.09486 1.14984 0
M  V30 1493 H 134.529 2.96914 0.385059 0
M  V30 1494 H 132.075 1.42823 0.18377 0
M  V30 1495 H 134.028 3.13463 2.81636 0
M  V30 1496 H 132.752 1.90252 2.65465 0
M  V30 1497 H 131.411 3.46345 1.20169 0
M  V30 1498 H 131.059 3.43169 3.67755 0
M  V30 1499 H 130.759 5.05204 3.00071 0
M  V30 1500 H 132.283 4.72099 3.8724 0
M  V30 1501 H 133.697 5.46674 1.72687 0
M  V30 1502 H 132.094 5.90515 1.06826 0
M  V30 1503 H 133.164 4.84724 0.130749 0
M  V30 1504 N 134.507 -0.190092 1.56449 0
M  V30 1505 C 135.417 -1.25591 1.98152 0
M  V30 1506 C 136.433 -1.49519 0.889944 0
M  V30 1507 O 137.609 -1.62036 1.19609 0
M  V30 1508 C 134.674 -2.57916 2.3169 0
M  V30 1509 C 133.735 -2.42015 3.5458 0
M  V30 1510 C 132.968 -3.6803 3.8651 0
M  V30 1511 O 133.191 -4.72413 3.1966 0
M  V30 1512 O 132.125 -3.6326 4.79923 0
M  V30 1513 H 135.951 -0.931988 2.89046 0
M  V30 1514 H 133.536 -0.395488 1.4407 0
M  V30 1515 H 135.418 -3.36008 2.54316 0
M  V30 1516 H 134.093 -2.89925 1.43963 0
M  V30 1517 H 133 -1.62017 3.37196 0
M  V30 1518 H 134.333 -2.14937 4.4279 0
M  V30 1519 N 135.985 -1.50799 -0.457987 0
M  V30 1520 C 136.895 -1.73426 -1.57989 0
M  V30 1521 C 137.911 -0.617745 -1.62665 0
M  V30 1522 O 139.087 -0.897614 -1.80291 0
M  V30 1523 C 136.152 -1.83557 -2.94122 0
M  V30 1524 C 135.213 -3.07345 -2.99729 0
M  V30 1525 C 134.446 -3.16983 -4.29368 0
M  V30 1526 O 134.669 -2.33077 -5.20607 0
M  V30 1527 O 133.603 -4.09812 -4.40837 0
M  V30 1528 H 137.429 -2.68555 -1.41817 0
M  V30 1529 H 135.014 -1.35052 -0.638859 0
M  V30 1530 H 136.896 -1.92326 -3.74952 0
M  V30 1531 H 135.571 -0.916137 -3.10465 0
M  V30 1532 H 134.478 -3.04068 -2.1793 0
M  V30 1533 H 135.811 -3.9891 -2.88326 0
M  V30 1534 N 137.463 0.71206 -1.40597 0
M  V30 1535 C 138.373 1.8562 -1.43466 0
M  V30 1536 C 139.389 1.70902 -0.326902 0
M  V30 1537 O 140.565 1.93105 -0.572043 0
M  V30 1538 C 137.63 3.21451 -1.29884 0
M  V30 1539 C 136.691 3.48398 -2.50833 0
M  V30 1540 C 135.924 4.77749 -2.3789 0
M  V30 1541 O 136.147 5.53089 -1.39459 0
M  V30 1542 O 135.081 5.05111 -3.27333 0
M  V30 1543 H 138.907 1.86155 -2.39958 0
M  V30 1544 H 136.492 0.86295 -1.21957 0
M  V30 1545 H 138.374 4.02579 -1.24531 0
M  V30 1546 H 137.049 3.21636 -0.364997 0
M  V30 1547 H 135.956 2.67265 -2.61763 0
M  V30 1548 H 137.289 3.53014 -3.4299 0
M  V30 1549 N 138.941 1.26152 0.944643 0
M  V30 1550 C 139.904 1.07474 2.0244 0
M  V30 1551 C 140.904 0.0242064 1.60782 0
M  V30 1552 O 142.094 0.267302 1.72137 0
M  V30 1553 C 139.226 0.633956 3.34953 0
M  V30 1554 H 140.419 2.03336 2.20442 0
M  V30 1555 H 137.972 1.087 1.12312 0
M  V30 1556 H 138.707 -0.326811 3.22649 0
M  V30 1557 H 138.492 1.39247 3.66542 0
M  V30 1558 H 139.982 0.52501 4.14287 0
M  V30 1559 N 140.419 -1.14872 1.07899 0
M  V30 1560 C 141.668 -1.85135 0.800499 0
M  V30 1561 C 141.981 -1.83547 -0.676014 0
M  V30 1562 O 143.187 -2.49548 -1.06948 0
M  V30 1563 C 141.643 -3.3231 1.38197 0
M  V30 1564 C 141.251 -3.42329 2.8899 0
M  V30 1565 C 142.995 -4.0772 1.18174 0
M  V30 1566 C 140.902 -4.83684 3.403 0
M  V30 1567 H 139.832 -0.693563 0.29578 0
M  V30 1568 H 142.483 -1.29532 1.29976 0
M  V30 1569 H 140.865 -3.87618 0.810431 0
M  V30 1570 H 142.039 -2.97097 3.52236 0
M  V30 1571 H 140.354 -2.80369 3.07867 0
M  V30 1572 H 142.951 -5.12049 1.5398 0
M  V30 1573 H 143.294 -4.16124 0.12117 0
M  V30 1574 H 143.827 -3.58696 1.71994 0
M  V30 1575 H 140.566 -4.80465 4.45907 0
M  V30 1576 H 140.086 -5.29474 2.81811 0
M  V30 1577 H 141.765 -5.52558 3.36584 0
M  V30 1578 N 141.898 -0.863906 -1.31812 0
M  V30 1579 C 143.147 -0.46801 -1.96195 0
M  V30 1580 C 143.46 0.983474 -1.69077 0
M  V30 1581 O 144.666 1.48523 -2.27273 0
M  V30 1582 C 143.122 -0.785995 -3.51212 0
M  V30 1583 C 142.73 -2.25383 -3.87178 0
M  V30 1584 C 144.474 -0.458274 -4.22019 0
M  V30 1585 C 142.381 -2.51455 -5.3528 0
M  V30 1586 H 141.311 -0.171283 -0.734287 0
M  V30 1587 H 143.962 -1.05597 -1.50072 0
M  V30 1588 H 142.344 -0.127359 -3.95795 0
M  V30 1589 H 143.518 -2.95502 -3.53575 0
M  V30 1590 H 141.833 -2.54698 -3.2942 0
M  V30 1591 H 144.43 -0.630369 -5.30971 0
M  V30 1592 H 144.773 0.600834 -4.11941 0
M  V30 1593 H 145.306 -1.07319 -3.8305 0
M  V30 1594 H 142.045 -3.56025 -5.50387 0
M  V30 1595 H 141.565 -1.85923 -5.70257 0
M  V30 1596 H 143.244 -2.35874 -6.02472 0
M  V30 1597 N 143.376 1.44774 -0.622745 0
M  V30 1598 C 144.309 2.27792 0.136329 0
M  V30 1599 C 145.287 1.38041 0.859264 0
M  V30 1600 O 146.471 1.67478 0.86506 0
M  V30 1601 C 143.598 3.16776 1.19878 0
M  V30 1602 C 142.644 4.22575 0.57731 0
M  V30 1603 S 143.477 5.31825 -0.626294 0
M  V30 1604 C 144.633 6.24377 0.436378 0
M  V30 1605 H 144.866 2.91824 -0.567967 0
M  V30 1606 H 142.399 1.48838 -0.410677 0
M  V30 1607 H 144.357 3.68596 1.80686 0
M  V30 1608 H 143.018 2.5198 1.87523 0
M  V30 1609 H 142.211 4.84818 1.37721 0
M  V30 1610 H 141.813 3.73974 0.0440439 0
M  V30 1611 H 144.105 6.64689 1.31128 0
M  V30 1612 H 145.048 7.07941 -0.150271 0
M  V30 1613 H 145.456 5.59381 0.758513 0
M  V30 1614 N 144.854 0.36279 1.53368 0
M  V30 1615 C 145.801 -0.485008 2.25646 0
M  V30 1616 C 146.771 -1.07982 1.2621 0
M  V30 1617 O 147.956 -1.11284 1.54986 0
M  V30 1618 C 145.096 -1.62023 3.04701 0
M  V30 1619 C 144.209 -1.05086 4.19024 0
M  V30 1620 C 143.344 -2.15496 4.85525 0
M  V30 1621 C 142.383 -1.5601 5.91884 0
M  V30 1622 N 141.52 -2.60241 6.52088 0
M  V30 1623 H 146.36 0.137864 2.97681 0
M  V30 1624 H 143.897 0.0798061 1.46883 0
M  V30 1625 H 145.855 -2.28887 3.48807 0
M  V30 1626 H 144.485 -2.2138 2.34927 0
M  V30 1627 H 143.537 -0.27259 3.79422 0
M  V30 1628 H 144.849 -0.575926 4.95464 0
M  V30 1629 H 144.003 -2.90186 5.32801 0
M  V30 1630 H 142.742 -2.66341 4.08551 0
M  V30 1631 H 141.747 -0.798338 5.43973 0
M  V30 1632 H 142.972 -1.05994 6.70777 0
M  V30 1633 H 140.918 -3.10304 5.77968 0
M  V30 1634 H 140.835 -2.17426 7.24059 0
M  V30 1635 H 142.103 -3.34641 7.04014 0
M  V30 1636 N 146.332 -1.57332 0.0918853 0
M  V30 1637 C 147.609 -1.85691 -0.614668 0
M  V30 1638 C 147.989 -0.988146 -1.86545 0
M  V30 1639 O 147.337 -0.0597055 -2.28422 0
M  V30 1640 C 147.547 -3.36294 -0.933126 0
M  V30 1641 C 148.895 -4.04275 -1.29796 0
M  V30 1642 O 149.919 -3.41157 -1.02424 0
M  V30 1643 O 148.778 -5.1564 -1.81047 0
M  V30 1644 H 145.872 -0.767802 -0.307261 0
M  V30 1645 H 148.418 -1.69244 0.12434 0
M  V30 1646 H 147.19 -3.91273 -0.0456404 0
M  V30 1647 H 146.813 -3.58076 -1.72822 0
M  V30 1648 N 147.81 0.181792 -1.56548 0
M  V30 1649 C 149.056 0.901431 -1.81665 0
M  V30 1650 C 149.389 1.82347 -0.668075 0
M  V30 1651 O 148.664 1.91669 0.330615 0
M  V30 1652 C 148.947 1.70618 -3.17115 0
M  V30 1653 C 148.8 0.807964 -4.42484 0
M  V30 1654 C 150.119 2.67605 -3.49393 0
M  V30 1655 H 147.238 0.32627 -0.660846 0
M  V30 1656 H 149.88 0.168134 -1.89255 0
M  V30 1657 H 148.03 2.33133 -3.10775 0
M  V30 1658 H 149.702 0.19649 -4.60881 0
M  V30 1659 H 147.945 0.115411 -4.33646 0
M  V30 1660 H 148.616 1.40632 -5.33785 0
M  V30 1661 H 151.092 2.15218 -3.56118 0
M  V30 1662 H 149.968 3.20985 -4.45264 0
M  V30 1663 H 150.229 3.47298 -2.73563 0
M  V30 1664 N 149.288 1.51039 0.449983 0
M  V30 1665 C 150.699 1.557 1.03026 0
M  V30 1666 C 151.05 0.372939 1.92623 0
M  V30 1667 O 150.175 -0.511771 2.10261 0
M  V30 1668 C 150.77 2.82171 1.87523 0
M  V30 1669 C 149.329 2.89444 2.40622 0
M  V30 1670 C 148.476 2.50228 1.19504 0
M  V30 1671 H 151.427 1.56999 0.231745 0
M  V30 1672 H 151.448 2.65219 2.72835 0
M  V30 1673 H 150.96 3.68331 1.22286 0
M  V30 1674 H 149.061 2.07685 3.0935 0
M  V30 1675 H 149.174 3.92816 2.74285 0
M  V30 1676 H 147.538 2.03139 1.53644 0
M  V30 1677 H 148.321 3.38719 0.558972 0
M  V30 1678 N 150.766 -0.704594 1.40972 0
M  V30 1679 C 152.043 -1.45847 1.30338 0
M  V30 1680 C 152.423 -2.10973 -0.0732344 0
M  V30 1681 O 151.771 -2.00997 -1.08685 0
M  V30 1682 C 151.981 -2.48525 2.45023 0
M  V30 1683 C 153.329 -3.1404 2.8577 0
M  V30 1684 O 154.353 -2.58848 2.44696 0
M  V30 1685 O 153.212 -4.13981 3.56766 0
M  V30 1686 H 150.306 -0.649092 0.512454 0
M  V30 1687 H 152.852 -0.735836 1.52917 0
M  V30 1688 H 151.624 -1.98994 3.36923 0
M  V30 1689 H 151.247 -3.2831 2.24272 0
M  V30 1690 N 152.244 -1.26651 -0.937939 0
M  V30 1691 C 153.49 -1.13562 -1.68746 0
M  V30 1692 C 153.845 0.317241 -1.89767 0
M  V30 1693 O 153.138 1.22939 -1.46957 0
M  V30 1694 C 153.332 -1.84168 -3.06295 0
M  V30 1695 C 153.161 -3.36171 -2.98696 0
M  V30 1696 C 151.931 -4.05468 -3.01535 0
M  V30 1697 C 154.129 -4.32312 -2.78588 0
M  V30 1698 N 152.111 -5.44118 -2.84269 0
M  V30 1699 C 153.482 -5.58159 -2.69924 0
M  V30 1700 C 155.537 -4.22524 -2.63396 0
M  V30 1701 C 154.24 -6.75335 -2.47618 0
M  V30 1702 C 156.266 -5.39411 -2.42466 0
M  V30 1703 C 155.628 -6.64208 -2.34536 0
M  V30 1704 H 151.727 -0.470361 -0.624728 0
M  V30 1705 H 154.311 -1.59982 -1.10968 0
M  V30 1706 H 152.482 -1.40219 -3.62206 0
M  V30 1707 H 154.214 -1.63674 -3.70126 0
M  V30 1708 H 150.969 -3.56854 -3.11372 0
M  V30 1709 H 151.393 -6.1693 -2.78795 0
M  V30 1710 H 156.035 -3.26771 -2.68292 0
M  V30 1711 H 153.753 -7.71182 -2.41463 0
M  V30 1712 H 157.339 -5.33711 -2.31611 0
M  V30 1713 H 156.219 -7.53129 -2.18555 0
M  V30 1714 N 153.722 1.14298 -1.08507 0
M  V30 1715 C 154.669 2.19414 -0.715965 0
M  V30 1716 C 155.639 1.63399 0.298326 0
M  V30 1717 O 156.824 1.89929 0.182101 0
M  V30 1718 C 153.964 3.44845 -0.132534 0
M  V30 1719 C 153.077 4.15007 -1.19973 0
M  V30 1720 C 152.212 5.28024 -0.580048 0
M  V30 1721 C 151.251 5.9002 -1.62921 0
M  V30 1722 N 150.388 6.94485 -1.03125 0
M  V30 1723 H 155.228 2.50336 -1.61666 0
M  V30 1724 H 152.765 1.2293 -0.807882 0
M  V30 1725 H 154.723 4.16601 0.223454 0
M  V30 1726 H 153.353 3.14403 0.731467 0
M  V30 1727 H 152.405 3.41629 -1.67313 0
M  V30 1728 H 153.717 4.57178 -1.99473 0
M  V30 1729 H 152.871 6.06455 -0.172364 0
M  V30 1730 H 151.61 4.87076 0.246603 0
M  V30 1731 H 150.615 5.10291 -2.04654 0
M  V30 1732 H 151.84 6.33042 -2.45835 0
M  V30 1733 H 149.786 6.55612 -0.225711 0
M  V30 1734 H 149.703 7.35148 -1.76334 0
M  V30 1735 H 150.971 7.7679 -0.649458 0
M  V30 1736 N 155.201 0.870884 1.31352 0
M  V30 1737 C 156.447 0.482987 1.96965 0
M  V30 1738 C 156.78 -0.962462 1.68672 0
M  V30 1739 O 156.055 -1.6779 0.98371 0
M  V30 1740 C 156.338 0.741752 3.52378 0
M  V30 1741 C 156.191 2.2368 3.9024 0
M  V30 1742 C 157.51 0.208838 4.39604 0
M  V30 1743 H 154.629 0.176955 0.715441 0
M  V30 1744 H 157.271 1.09229 1.55464 0
M  V30 1745 H 155.421 0.223149 3.87859 0
M  V30 1746 H 157.093 2.82273 3.64856 0
M  V30 1747 H 155.336 2.70901 3.38814 0
M  V30 1748 H 156.007 2.3685 4.98604 0
M  V30 1749 H 158.483 0.652529 4.10952 0
M  V30 1750 H 157.359 0.419336 5.47296 0
M  V30 1751 H 157.62 -0.889275 4.33064 0
M  V30 1752 N 156.679 -1.44442 0.630414 0
M  V30 1753 C 157.927 -2.01653 0.134351 0
M  V30 1754 C 158.248 -1.49836 -1.24796 0
M  V30 1755 O 157.518 -0.701684 -1.82902 0
M  V30 1756 H 156.098 -0.74554 0.0466769 0
M  V30 1757 H 158.76 -1.76952 0.816955 0
M  V30 1758 H 157.856 -3.11935 0.101498 0
M  V30 1759 N 158.157 -0.370918 -1.53173 0
M  V30 1760 C 159.067 0.480823 -2.2962 0
M  V30 1761 C 160.083 1.08789 -1.35798 0
M  V30 1762 O 161.259 1.09768 -1.68858 0
M  V30 1763 C 158.324 1.60227 -3.07454 0
M  V30 1764 C 157.385 1.0222 -4.16953 0
M  V30 1765 C 156.618 2.0902 -4.91066 0
M  V30 1766 O 156.841 3.30222 -4.65091 0
M  V30 1767 O 155.775 1.71778 -5.76867 0
M  V30 1768 H 159.601 -0.141421 -3.03371 0
M  V30 1769 H 157.186 -0.135146 -1.48787 0
M  V30 1770 H 159.068 2.25417 -3.56041 0
M  V30 1771 H 157.743 2.20982 -2.36535 0
M  V30 1772 H 156.65 0.334064 -3.72605 0
M  V30 1773 H 157.983 0.459131 -4.90054 0
M  V30 1774 N 159.635 1.57281 -0.100228 0
M  V30 1775 C 160.86 1.99302 0.573881 0
M  V30 1776 C 161.285 0.979059 1.60611 0
M  V30 1777 O 160.643 -0.0517803 1.81226 0
M  V30 1778 C 160.691 3.40274 1.19358 0
M  V30 1779 O 159.795 3.41676 2.30935 0
M  V30 1780 H 159.136 0.647944 0.145138 0
M  V30 1781 H 161.666 2.03779 -0.183156 0
M  V30 1782 H 161.676 3.78078 1.53365 0
M  V30 1783 H 160.351 4.13594 0.437385 0
M  V30 1784 H 158.928 3.15672 1.98509 0
M  V30 1785 N 161.113 -0.173488 1.56642 0
M  V30 1786 C 162.359 -0.891784 1.8214 0
M  V30 1787 C 162.692 -1.8199 0.677736 0
M  V30 1788 O 161.967 -1.91842 -0.320446 0
M  V30 1789 C 162.25 -1.68933 3.18015 0
M  V30 1790 C 162.103 -0.784487 4.42906 0
M  V30 1791 C 163.422 -2.65748 3.50808 0
M  V30 1792 H 160.541 -0.322761 0.662567 0
M  V30 1793 H 163.183 -0.158095 1.89341 0
M  V30 1794 H 161.333 -2.31482 3.12007 0
M  V30 1795 H 163.005 -0.172046 4.60979 0
M  V30 1796 H 161.248 -0.0924117 4.33702 0
M  V30 1797 H 161.919 -1.37799 5.34524 0
M  V30 1798 H 164.395 -2.13327 3.57255 0
M  V30 1799 H 163.271 -3.18619 4.4696 0
M  V30 1800 H 163.532 -3.45842 2.75401 0
M  V30 1801 N 162.591 -1.51276 -0.441967 0
M  V30 1802 C 163.838 -1.63715 -1.19179 0
M  V30 1803 C 164.166 -0.351175 -1.91303 0
M  V30 1804 O 163.421 0.664524 -1.84072 0
M  V30 1805 C 163.72 -2.78746 -2.23686 0
M  V30 1806 C 163.386 -4.18189 -1.68607 0
M  V30 1807 C 162.048 -4.56125 -1.53308 0
M  V30 1808 C 164.4 -5.05222 -1.28062 0
M  V30 1809 C 161.728 -5.78804 -0.959317 0
M  V30 1810 C 164.08 -6.28476 -0.721162 0
M  V30 1811 C 162.744 -6.65188 -0.55504 0
M  V30 1812 H 162.014 -0.599076 -0.436106 0
M  V30 1813 H 164.661 -1.85296 -0.48351 0
M  V30 1814 H 162.966 -2.51369 -3.00535 0
M  V30 1815 H 164.663 -2.8557 -2.81515 0
M  V30 1816 H 161.253 -3.88277 -1.8149 0
M  V30 1817 H 165.437 -4.76524 -1.38704 0
M  V30 1818 H 160.693 -6.05899 -0.81833 0
M  V30 1819 H 164.867 -6.95259 -0.398458 0
M  V30 1820 H 162.494 -7.60123 -0.108311 0
M  V30 1821 N 164.069 0.697108 -1.41344 0
M  V30 1822 C 165.019 1.80313 -1.39539 0
M  V30 1823 C 166.003 1.58618 -0.270001 0
M  V30 1824 O 167.195 1.69477 -0.510551 0
M  V30 1825 C 164.324 3.18606 -1.27848 0
M  V30 1826 C 163.41 3.46001 -2.45244 0
M  V30 1827 N 163.801 3.44103 -3.70711 0
M  V30 1828 C 162.099 3.76542 -2.39023 0
M  V30 1829 C 162.8 3.7036 -4.48563 0
M  V30 1830 N 161.776 3.90027 -3.78655 0
M  V30 1831 H 165.578 1.77207 -2.34468 0
M  V30 1832 H 163.092 0.897031 -1.35378 0
M  V30 1833 H 165.089 3.97833 -1.24637 0
M  V30 1834 H 163.749 3.22925 -0.339032 0
M  V30 1835 H 164.76 3.2452 -4.03618 0
M  V30 1836 H 161.437 3.88241 -1.53542 0
M  V30 1837 H 162.827 3.75042 -5.57488 0
M  V30 1838 N 165.547 1.27147 0.931209 0
M  V30 1839 C 166.775 1.16082 1.71267 0
M  V30 1840 C 167.19 -0.282772 1.8667 0
M  V30 1841 O 166.547 -1.19283 1.38122 0
M  V30 1842 C 166.598 1.8358 3.11417 0
M  V30 1843 O 166.319 3.22299 2.96741 0
M  V30 1844 C 167.82 1.78597 4.05732 0
M  V30 1845 H 165.04 0.403758 0.535929 0
M  V30 1846 H 167.584 1.67953 1.16671 0
M  V30 1847 H 165.739 1.35623 3.62885 0
M  V30 1848 H 166.153 3.55851 3.85319 0
M  V30 1849 H 167.627 2.30444 5.01597 0
M  V30 1850 H 168.104 0.754564 4.3267 0
M  V30 1851 H 168.71 2.26152 3.60188 0
M  V30 1852 N 167.025 -1.13721 1.09112 0
M  V30 1853 C 168.253 -1.88773 0.846899 0
M  V30 1854 C 168.668 -1.7896 -0.601572 0
M  V30 1855 O 168.025 -1.15394 -1.41388 0
M  V30 1856 C 168.076 -3.3849 1.26913 0
M  V30 1857 O 167.797 -3.48043 2.66079 0
M  V30 1858 C 169.298 -4.30518 1.05682 0
M  V30 1859 H 166.518 -0.59772 0.304914 0
M  V30 1860 H 169.062 -1.43977 1.45227 0
M  V30 1861 H 167.217 -3.80881 0.707723 0
M  V30 1862 H 167.631 -4.4109 2.83795 0
M  V30 1863 H 169.105 -5.3391 1.40156 0
M  V30 1864 H 169.582 -4.392 -0.00563416 0
M  V30 1865 H 170.188 -3.93893 1.60402 0
M  V30 1866 N 168.503 -0.877838 -1.30888 0
M  V30 1867 C 169.919 -0.570844 -1.49042 0
M  V30 1868 C 170.119 0.893159 -1.80624 0
M  V30 1869 O 169.175 1.67485 -1.88958 0
M  V30 1870 C 170.488 -1.47784 -2.61878 0
M  V30 1871 C 172.036 -1.48071 -2.75761 0
M  V30 1872 C 172.511 -2.37347 -3.91702 0
M  V30 1873 N 174.002 -2.35271 -3.99001 0
M  V30 1874 C 174.737 -3.01063 -4.88004 0
M  V30 1875 N 174.233 -3.76055 -5.81854 0
M  V30 1876 N 176.026 -2.90332 -4.81315 0
M  V30 1877 H 168.177 -1.82502 -1.0866 0
M  V30 1878 H 170.44 -0.780797 -0.537644 0
M  V30 1879 H 170.146 -2.51993 -2.45341 0
M  V30 1880 H 170.02 -1.18215 -3.58197 0
M  V30 1881 H 172.407 -0.446166 -2.91708 0
M  V30 1882 H 172.488 -1.81668 -1.80085 0
M  V30 1883 H 172.132 -3.40883 -3.76512 0
M  V30 1884 H 172.062 -2.01071 -4.86701 0
M  V30 1885 H 174.553 -1.80768 -3.3186 0
M  V30 1886 H 174.866 -4.23366 -6.46514 0
M  V30 1887 H 173.211 -3.80163 -5.81808 0
M  V30 1888 H 176.402 -2.31278 -4.06974 0
M  V30 1889 H 176.575 -3.41885 -5.50471 0
M  V30 1890 N 169.982 1.44106 -0.638065 0
M  V30 1891 C 171.228 2.02815 -0.15409 0
M  V30 1892 C 171.583 1.49342 1.21304 0
M  V30 1893 O 170.876 0.670699 1.79478 0
M  V30 1894 C 171.07 3.5729 -0.0887327 0
M  V30 1895 C 170.899 4.2575 -1.44799 0
M  V30 1896 C 169.669 4.62443 -2.03653 0
M  V30 1897 C 171.867 4.55746 -2.38327 0
M  V30 1898 N 169.849 5.15903 -3.32741 0
M  V30 1899 C 171.22 5.10364 -3.52036 0
M  V30 1900 C 173.275 4.37703 -2.3732 0
M  V30 1901 C 171.978 5.48837 -4.64941 0
M  V30 1902 C 174.004 4.77229 -3.49294 0
M  V30 1903 C 173.366 5.31966 -4.61726 0
M  V30 1904 H 169.465 0.775519 -0.100466 0
M  V30 1905 H 172.049 1.755 -0.843071 0
M  V30 1906 H 170.22 3.84201 0.569548 0
M  V30 1907 H 171.952 4.02671 0.404711 0
M  V30 1908 H 168.707 4.46987 -1.56523 0
M  V30 1909 H 169.131 5.47102 -3.98758 0
M  V30 1910 H 173.773 3.94671 -1.51641 0
M  V30 1911 H 171.491 5.9082 -5.51323 0
M  V30 1912 H 175.077 4.64976 -3.49698 0
M  V30 1913 H 173.957 5.61986 -5.46939 0
M  V30 1914 N 171.46 0.379036 1.52974 0
M  V30 1915 C 172.706 -0.206727 2.01744 0
M  V30 1916 C 173.039 -1.47314 1.26539 0
M  V30 1917 O 172.314 -1.91084 0.362903 0
M  V30 1918 C 172.597 -0.485066 3.56818 0
M  V30 1919 C 172.45 0.795919 4.42702 0
M  V30 1920 C 173.769 -1.28003 4.21074 0
M  V30 1921 H 170.888 -0.0736607 0.73331 0
M  V30 1922 H 173.53 0.506581 1.83122 0
M  V30 1923 H 171.68 -1.09272 3.72816 0
M  V30 1924 H 173.352 1.43307 4.38476 0
M  V30 1925 H 171.595 1.41344 4.10127 0
M  V30 1926 H 172.266 0.555947 5.49193 0
M  V30 1927 H 174.742 -0.765867 4.08991 0
M  V30 1928 H 173.618 -1.44352 5.29579 0
M  V30 1929 H 173.879 -2.29236 3.78026 0
M  V30 1930 N 172.938 -1.57226 0.108567 0
M  V30 1931 C 174.349 -1.8195 -0.418464 0
M  V30 1932 C 174.7 -1.02508 -1.67292 0
M  V30 1933 O 173.825 -0.258496 -2.14851 0
M  V30 1934 C 174.42 -3.30028 -0.765979 0
M  V30 1935 C 172.979 -3.55469 -1.23769 0
M  V30 1936 C 172.126 -2.7625 -0.241106 0
M  V30 1937 H 175.077 -1.55149 0.33384 0
M  V30 1938 H 175.098 -3.44086 -1.62434 0
M  V30 1939 H 174.61 -3.87821 0.147219 0
M  V30 1940 H 172.711 -3.03022 -2.16814 0
M  V30 1941 H 172.824 -4.6408 -1.19022 0
M  V30 1942 H 171.188 -2.44133 -0.72602 0
M  V30 1943 H 171.971 -3.36797 0.665007 0
M  V30 1944 N 174.416 0.165178 -1.56732 0
M  V30 1945 C 175.827 0.727046 -1.71962 0
M  V30 1946 C 176.178 1.82508 -0.720078 0
M  V30 1947 O 175.303 2.16082 0.117242 0
M  V30 1948 C 175.898 1.32559 -3.11791 0
M  V30 1949 C 174.457 1.83422 -3.28684 0
M  V30 1950 C 173.604 0.715567 -2.67908 0
M  V30 1951 H 176.555 -0.0602896 -1.58585 0
M  V30 1952 H 176.576 2.19533 -3.10782 0
M  V30 1953 H 176.088 0.526195 -3.84516 0
M  V30 1954 H 174.189 2.65986 -2.60926 0
M  V30 1955 H 174.302 1.97543 -4.36478 0
M  V30 1956 H 172.666 1.13758 -2.27884 0
M  V30 1957 H 173.449 -0.0720836 -3.43224 0
M  V30 1958 N 175.894 1.51508 0.433938 0
M  V30 1959 C 176.824 1.76016 1.53429 0
M  V30 1960 C 177.805 0.610112 1.58782 0
M  V30 1961 O 178.99 0.853177 1.74455 0
M  V30 1962 C 176.12 1.88831 2.9148 0
M  V30 1963 C 175.074 3.04288 3.00987 0
M  V30 1964 C 174.4 3.0229 4.4105 0
M  V30 1965 C 175.7 4.44193 2.74754 0
M  V30 1966 H 177.394 2.68152 1.33171 0
M  V30 1967 H 174.94 1.29035 0.639214 0
M  V30 1968 H 176.893 2.04559 3.6842 0
M  V30 1969 H 175.617 0.933455 3.12976 0
M  V30 1970 H 174.276 2.8827 2.26486 0
M  V30 1971 H 173.924 2.04576 4.59519 0
M  V30 1972 H 173.624 3.79822 4.4834 0
M  V30 1973 H 175.148 3.20116 5.1996 0
M  V30 1974 H 176.562 4.60544 3.41426 0
M  V30 1975 H 174.959 5.23457 2.9345 0
M  V30 1976 H 176.029 4.53996 1.70339 0
M  V30 1977 N 177.372 -0.689602 1.41712 0
M  V30 1978 C 178.621 -1.44534 1.40686 0
M  V30 1979 C 178.934 -1.95588 0.0213352 0
M  V30 1980 O 180.14 -2.71271 -0.111534 0
M  V30 1981 C 178.596 -2.61387 2.47396 0
M  V30 1982 C 178.204 -2.17094 3.91885 0
M  V30 1983 C 179.948 -3.38986 2.55517 0
M  V30 1984 C 177.855 -3.3094 4.90135 0
M  V30 1985 H 176.785 -0.542925 0.52321 0
M  V30 1986 H 179.436 -0.748054 1.6756 0
M  V30 1987 H 177.818 -3.33412 2.13664 0
M  V30 1988 H 178.992 -1.52318 4.34897 0
M  V30 1989 H 177.307 -1.52473 3.8748 0
M  V30 1990 H 179.904 -4.23747 3.26102 0
M  V30 1991 H 180.247 -3.84578 1.59391 0
M  V30 1992 H 180.78 -2.74021 2.8837 0
M  V30 1993 H 177.519 -2.90355 5.87685 0
M  V30 1994 H 177.039 -3.94546 4.51767 0
M  V30 1995 H 178.718 -3.9663 5.11169 0
M  V30 1996 N 178.85 -1.27639 -0.924453 0
M  V30 1997 C 180.098 -1.13941 -1.66918 0
M  V30 1998 C 180.419 0.314589 -1.92446 0
M  V30 1999 O 179.689 1.21964 -1.53303 0
M  V30 2000 H 178.269 -0.418678 -0.618642 0
M  V30 2001 H 180.931 -1.60213 -1.10985 0
M  V30 2002 H 180.027 -1.67094 -2.63602 0
M  V30 2003 N 180.328 1.1314 -1.09713 0
M  V30 2004 C 181.238 2.22242 -0.751367 0
M  V30 2005 C 182.254 1.72224 0.247938 0
M  V30 2006 O 183.43 2.01205 0.0885463 0
M  V30 2007 C 180.495 3.46231 -0.180274 0
M  V30 2008 C 179.556 4.11125 -1.2359 0
M  V30 2009 C 178.789 5.29195 -0.691966 0
M  V30 2010 O 179.012 5.68342 0.48414 0
M  V30 2011 O 177.946 5.84214 -1.44838 0
M  V30 2012 H 181.772 2.54197 -1.66186 0
M  V30 2013 H 179.357 1.21331 -0.871735 0
M  V30 2014 H 181.239 4.21185 0.134739 0
M  V30 2015 H 179.914 3.1597 0.703185 0
M  V30 2016 H 178.821 3.37985 -1.60366 0
M  V30 2017 H 180.154 4.45524 -2.09211 0
M  V30 2018 N 181.806 0.884767 1.30421 0
M  V30 2019 C 182.736 0.367574 2.30589 0
M  V30 2020 C 183.717 -0.549464 1.60981 0
M  V30 2021 O 184.902 -0.46336 1.88591 0
M  V30 2022 C 182.032 -0.418944 3.44764 0
M  V30 2023 C 180.986 0.406316 4.26067 0
M  V30 2024 C 180.312 -0.506793 5.32293 0
M  V30 2025 C 181.612 1.64832 4.95608 0
M  V30 2026 H 183.306 1.20462 2.74097 0
M  V30 2027 H 180.852 0.580695 1.31772 0
M  V30 2028 H 182.805 -0.791395 4.13902 0
M  V30 2029 H 181.529 -1.28964 3.0006 0
M  V30 2030 H 180.188 0.760903 3.58617 0
M  V30 2031 H 179.836 -1.37519 4.83836 0
M  V30 2032 H 179.536 0.0415828 5.87585 0
M  V30 2033 H 181.06 -0.875764 6.04287 0
M  V30 2034 H 182.474 1.34646 5.57264 0
M  V30 2035 H 180.871 2.13688 5.60765 0
M  V30 2036 H 181.941 2.39284 4.21748 0
M  V30 2037 N 183.284 -1.43765 0.645699 0
M  V30 2038 C 184.514 -2.05953 0.163318 0
M  V30 2039 C 184.922 -1.48432 -1.17322 0
M  V30 2040 O 184.265 -0.607295 -1.73371 0
M  V30 2041 C 184.327 -3.59499 -0.0103065 0
M  V30 2042 C 183.991 -4.39563 1.25035 0
M  V30 2043 C 184.988 -4.72108 2.17739 0
M  V30 2044 C 182.673 -4.79697 1.48983 0
M  V30 2045 C 184.667 -5.43688 3.3269 0
M  V30 2046 C 182.354 -5.51023 2.64229 0
M  V30 2047 C 183.352 -5.8294 3.55908 0
M  V30 2048 O 183.04 -6.5281 4.69142 0
M  V30 2049 H 182.772 -0.670798 0.0836986 0
M  V30 2050 H 185.326 -1.85384 0.884407 0
M  V30 2051 H 183.556 -3.78613 -0.78669 0
M  V30 2052 H 185.245 -4.03408 -0.449087 0
M  V30 2053 H 186.011 -4.41627 2.00476 0
M  V30 2054 H 181.89 -4.54266 0.785078 0
M  V30 2055 H 185.434 -5.68517 4.04269 0
M  V30 2056 H 181.331 -5.8092 2.81429 0
M  V30 2057 H 182.099 -6.71288 4.6831 0
M  V30 2058 N 184.763 -0.387143 -1.52771 0
M  V30 2059 C 186.011 0.195349 -2.01154 0
M  V30 2060 C 186.332 1.475 -1.27549 0
M  V30 2061 O 185.602 1.91878 -0.394924 0
M  V30 2062 H 184.182 0.075178 -0.743207 0
M  V30 2063 H 186.844 -0.518337 -1.87881 0
M  V30 2064 H 185.94 0.407096 -3.09434 0
M  V30 2065 N 186.241 1.57166 -0.116904 0
M  V30 2066 C 187.171 2.18222 0.830759 0
M  V30 2067 C 188.152 1.12167 1.27877 0
M  V30 2068 O 189.337 1.40394 1.34176 0
M  V30 2069 C 186.467 2.77996 2.08172 0
M  V30 2070 C 185.421 3.89614 1.77157 0
M  V30 2071 C 184.747 4.36187 3.09265 0
M  V30 2072 C 186.047 5.1181 1.04151 0
M  V30 2073 H 187.741 2.97664 0.321992 0
M  V30 2074 H 185.287 1.4318 0.153434 0
M  V30 2075 H 187.24 3.19366 2.74924 0
M  V30 2076 H 185.964 1.9584 2.6137 0
M  V30 2077 H 184.623 3.48816 1.12796 0
M  V30 2078 H 184.271 3.50893 3.60393 0
M  V30 2079 H 183.971 5.11455 2.89288 0
M  V30 2080 H 185.495 4.80207 3.77139 0
M  V30 2081 H 186.909 5.50214 1.61052 0
M  V30 2082 H 185.306 5.92648 0.942762 0
M  V30 2083 H 186.376 4.84892 0.0279022 0
M  V30 2084 N 187.719 -0.156864 1.56817 0
M  V30 2085 C 189.135 -0.50916 1.5126 0
M  V30 2086 C 189.335 -1.83897 0.823658 0
M  V30 2087 O 188.391 -2.49469 0.390055 0
M  V30 2088 C 189.704 -0.52857 2.96018 0
M  V30 2089 C 191.252 -0.614771 3.06903 0
M  V30 2090 C 191.727 -0.664938 4.53147 0
M  V30 2091 N 193.218 -0.727433 4.57452 0
M  V30 2092 C 193.953 -0.787067 5.67973 0
M  V30 2093 N 193.449 -0.806649 6.88088 0
M  V30 2094 N 195.242 -0.827195 5.5598 0
M  V30 2095 H 187.393 0.714935 2.00006 0
M  V30 2096 H 189.656 0.259526 0.911784 0
M  V30 2097 H 189.362 0.380154 3.49639 0
M  V30 2098 H 189.236 -1.36998 3.51442 0
M  V30 2099 H 191.623 -1.51392 2.53307 0
M  V30 2100 H 191.704 0.253597 2.5454 0
M  V30 2101 H 191.348 0.230011 5.07379 0
M  V30 2102 H 191.278 -1.54966 5.03282 0
M  V30 2103 H 193.769 -0.719998 3.70978 0
M  V30 2104 H 194.082 -0.853727 7.6807 0
M  V30 2105 H 192.427 -0.774687 6.90669 0
M  V30 2106 H 195.618 -0.808998 4.61056 0
M  V30 2107 H 195.791 -0.870206 6.4213 0
M  V30 2108 N 189.197 -1.51736 -0.425897 0
M  V30 2109 C 190.425 -1.68794 -1.1965 0
M  V30 2110 C 190.84 -0.390164 -1.84725 0
M  V30 2111 O 190.197 0.632376 -1.71194 0
M  V30 2112 C 190.248 -2.81174 -2.27208 0
M  V30 2113 O 189.969 -4.05925 -1.64793 0
M  V30 2114 C 191.47 -3.09599 -3.17275 0
M  V30 2115 H 188.69 -0.566128 -0.360194 0
M  V30 2116 H 191.234 -1.98211 -0.503249 0
M  V30 2117 H 189.389 -2.54324 -2.9223 0
M  V30 2118 H 189.803 -4.68423 -2.35967 0
M  V30 2119 H 191.277 -3.91786 -3.88854 0
M  V30 2120 H 191.754 -2.22468 -3.78688 0
M  V30 2121 H 192.36 -3.38151 -2.57941 0
M  V30 2122 N 190.675 0.682077 -1.42076 0
M  V30 2123 C 191.903 1.47057 -1.4554 0
M  V30 2124 C 192.318 1.8869 -0.0645779 0
M  V30 2125 O 191.675 1.57666 0.919115 0
M  V30 2126 C 191.726 2.72442 -2.37609 0
M  V30 2127 O 191.447 2.32559 -3.71279 0
M  V30 2128 C 192.948 3.66069 -2.50017 0
M  V30 2129 H 190.168 0.452737 -0.495248 0
M  V30 2130 H 192.712 0.838695 -1.8651 0
M  V30 2131 H 190.867 3.31835 -1.9991 0
M  V30 2132 H 191.281 3.13475 -4.20516 0
M  V30 2133 H 192.755 4.50792 -3.18576 0
M  V30 2134 H 193.232 4.11476 -1.53572 0
M  V30 2135 H 193.838 3.12572 -2.88407 0
M  V30 2136 N 192.153 1.28127 0.917671 0
M  V30 2137 C 193.063 1.13556 2.05286 0
M  V30 2138 C 194.079 0.0630914 1.73886 0
M  V30 2139 O 195.255 0.271598 1.9956 0
M  V30 2140 C 192.32 0.794676 3.3747 0
M  V30 2141 C 191.381 1.94909 3.82504 0
M  V30 2142 C 190.614 1.62437 5.0838 0
M  V30 2143 O 190.837 0.536905 5.67867 0
M  V30 2144 O 189.771 2.46677 5.4903 0
M  V30 2145 H 193.597 2.08844 2.20495 0
M  V30 2146 H 191.182 1.07409 1.03845 0
M  V30 2147 H 193.064 0.618344 4.16839 0
M  V30 2148 H 191.739 -0.128581 3.23445 0
M  V30 2149 H 190.646 2.18055 3.03978 0
M  V30 2150 H 191.979 2.85291 4.01086 0
M  V30 2151 N 193.631 -1.12557 1.10312 0
M  V30 2152 C 194.541 -2.21841 0.763142 0
M  V30 2153 C 195.557 -1.72354 -0.238801 0
M  V30 2154 O 196.733 -2.01249 -0.0778746 0
M  V30 2155 C 193.798 -3.46131 0.198632 0
M  V30 2156 C 192.859 -4.10464 1.25769 0
M  V30 2157 C 192.092 -5.28821 0.72002 0
M  V30 2158 O 192.315 -5.6859 -0.453993 0
M  V30 2159 O 191.249 -5.83437 1.47935 0
M  V30 2160 H 195.075 -2.53312 1.67532 0
M  V30 2161 H 192.66 -1.20867 0.878157 0
M  V30 2162 H 194.542 -4.2125 -0.112401 0
M  V30 2163 H 193.217 -3.16338 -0.686419 0
M  V30 2164 H 192.124 -3.3713 1.62156 0
M  V30 2165 H 193.457 -4.44408 2.11571 0
M  V30 2166 N 195.109 -0.891671 -1.2995 0
M  V30 2167 C 196.072 -0.36828 -2.26222 0
M  V30 2168 C 197.072 0.493014 -1.53056 0
M  V30 2169 O 198.262 0.299213 -1.71611 0
M  V30 2170 C 195.394 0.47442 -3.37583 0
M  V30 2171 H 196.587 -1.21844 -2.74033 0
M  V30 2172 H 194.14 -0.669107 -1.41254 0
M  V30 2173 H 194.875 1.34489 -2.95099 0
M  V30 2174 H 194.66 -0.142615 -3.91841 0
M  V30 2175 H 196.15 0.83218 -4.09224 0
M  V30 2176 N 196.587 1.43421 -0.653314 0
M  V30 2177 C 197.517 2.33487 0.0246656 0
M  V30 2178 C 198.498 1.49475 0.811863 0
M  V30 2179 O 199.683 1.78139 0.773322 0
M  V30 2180 C 196.813 3.32841 0.99166 0
M  V30 2181 C 195.767 4.26842 0.314568 0
M  V30 2182 C 195.093 5.16236 1.39302 0
M  V30 2183 C 196.393 5.16243 -0.793095 0
M  V30 2184 H 198.087 2.90427 -0.727481 0
M  V30 2185 H 195.633 1.39649 -0.351287 0
M  V30 2186 H 197.586 3.94747 1.47487 0
M  V30 2187 H 196.31 2.74158 1.77497 0
M  V30 2188 H 194.969 3.663 -0.148199 0
M  V30 2189 H 194.617 4.53891 2.16776 0
M  V30 2190 H 194.317 5.79948 0.945223 0
M  V30 2191 H 195.841 5.81015 1.87759 0
M  V30 2192 H 197.255 5.71958 -0.392039 0
M  V30 2193 H 195.652 5.88676 -1.16536 0
M  V30 2194 H 196.722 4.55927 -1.65103 0
M  V30 2195 N 198.065 0.39524 1.52563 0
M  V30 2196 C 199.015 -0.4541 2.23432 0
M  V30 2197 C 199.999 -1.02482 1.24042 0
M  V30 2198 O 201.191 -0.949938 1.49349 0
M  V30 2199 C 198.32 -1.57769 3.049 0
M  V30 2200 C 197.406 -1.01842 4.1169 0
M  V30 2201 N 197.797 -0.184613 5.05463 0
M  V30 2202 C 196.095 -1.29033 4.26927 0
M  V30 2203 C 196.796 0.125013 5.81566 0
M  V30 2204 N 195.772 -0.480498 5.41472 0
M  V30 2205 H 199.574 0.189413 2.93289 0
M  V30 2206 H 197.088 0.204877 1.61102 0
M  V30 2207 H 199.085 -2.19862 3.54212 0
M  V30 2208 H 197.745 -2.22397 2.36579 0
M  V30 2209 H 198.756 0.178602 5.17592 0
M  V30 2210 H 195.433 -1.93721 3.69836 0
M  V30 2211 H 196.823 0.800962 6.67109 0
M  V30 2212 N 199.544 -1.57102 0.125237 0
M  V30 2213 C 200.507 -2.14471 -0.80838 0
M  V30 2214 C 201.507 -1.0811 -1.19033 0
M  V30 2215 O 202.697 -1.33856 -1.11482 0
M  V30 2216 C 199.829 -2.69005 -2.09402 0
M  V30 2217 H 201.022 -2.98297 -0.309696 0
M  V30 2218 H 198.575 -1.55807 -0.124051 0
M  V30 2219 H 199.31 -1.88785 -2.63687 0
M  V30 2220 H 199.095 -3.46799 -1.82957 0
M  V30 2221 H 200.585 -3.13278 -2.76128 0
M  V30 2222 N 201.022 0.148545 -1.56898 0
M  V30 2223 C 202.247 0.880385 -1.87787 0
M  V30 2224 C 202.672 1.74018 -0.714093 0
M  V30 2225 O 202.03 1.78153 0.336343 0
M  V30 2226 C 202.078 1.71422 -3.17249 0
M  V30 2227 O 201.182 2.8183 -3.01074 0
M  V30 2228 H 200.523 0.245301 -0.617028 0
M  V30 2229 H 203.053 0.139826 -2.04122 0
M  V30 2230 H 203.063 2.10954 -3.49231 0
M  V30 2231 H 201.738 1.08284 -4.01556 0
M  V30 2232 H 200.315 2.45715 -2.80497 0
M  V30 2233 N 202.5 1.5196 0.417844 0
M  V30 2234 C 203.45 1.7106 1.5074 0
M  V30 2235 C 204.434 0.564487 1.50673 0
M  V30 2236 O 205.626 0.821206 1.56797 0
M  V30 2237 C 202.755 1.85677 2.88754 0
M  V30 2238 C 201.841 3.06133 2.93502 0
M  V30 2239 N 202.232 4.28987 2.67962 0
M  V30 2240 C 200.53 3.05787 3.24669 0
M  V30 2241 C 201.231 5.10395 2.79055 0
M  V30 2242 N 200.207 4.45455 3.11561 0
M  V30 2243 H 204.009 2.63696 1.29775 0
M  V30 2244 H 201.523 1.49873 0.625436 0
M  V30 2245 H 203.52 1.97475 3.67164 0
M  V30 2246 H 202.18 0.942348 3.10725 0
M  V30 2247 H 203.191 4.57607 2.4252 0
M  V30 2248 H 199.868 2.2405 3.52289 0
M  V30 2249 H 201.258 6.18247 2.63097 0
M  V30 2250 N 203.978 -0.674533 1.42435 0
M  V30 2251 C 205.226 -1.43175 1.42637 0
M  V30 2252 C 205.547 -1.94951 0.0438992 0
M  V30 2253 O 204.817 -1.7308 -0.917607 0
M  V30 2254 H 203.397 -0.531307 0.525092 0
M  V30 2255 H 206.059 -0.797006 1.77859 0
M  V30 2256 H 205.155 -2.28463 2.12629 0
M  V30 2257 N 205.456 -1.28612 -0.910864 0
M  V30 2258 C 206.703 -1.15934 -1.66029 0
M  V30 2259 C 207.031 0.291483 -1.92303 0
M  V30 2260 O 206.286 1.22816 -1.52364 0
M  V30 2261 C 206.585 -1.90624 -3.0232 0
M  V30 2262 C 206.251 -3.40405 -2.95695 0
M  V30 2263 C 204.913 -3.81255 -2.93595 0
M  V30 2264 C 207.265 -4.359 -2.85728 0
M  V30 2265 C 204.593 -5.15936 -2.79334 0
M  V30 2266 C 206.945 -5.70657 -2.73007 0
M  V30 2267 C 205.609 -6.10779 -2.69267 0
M  V30 2268 H 204.879 -0.424234 -0.607541 0
M  V30 2269 H 207.526 -1.5942 -1.06101 0
M  V30 2270 H 205.831 -1.39696 -3.6605 0
M  V30 2271 H 207.528 -1.78228 -3.59215 0
M  V30 2272 H 204.118 -3.07927 -2.98125 0
M  V30 2273 H 208.302 -4.053 -2.86436 0
M  V30 2274 H 203.558 -5.46146 -2.74835 0
M  V30 2275 H 207.732 -6.44311 -2.64264 0
M  V30 2276 H 205.359 -7.1509 -2.57974 0
M  V30 2277 N 206.934 1.1197 -1.10907 0
M  V30 2278 C 207.867 2.16998 -0.706192 0
M  V30 2279 C 208.845 1.59903 0.294897 0
M  V30 2280 O 210.029 1.87513 0.192636 0
M  V30 2281 C 207.156 3.38673 -0.0427664 0
M  V30 2282 C 206.202 4.14414 -1.00811 0
M  V30 2283 S 207.035 4.72079 -2.52789 0
M  V30 2284 C 208.191 5.97083 -1.87731 0
M  V30 2285 H 208.424 2.50837 -1.59587 0
M  V30 2286 H 205.957 1.23508 -0.926555 0
M  V30 2287 H 207.915 4.09142 0.333668 0
M  V30 2288 H 206.576 3.03105 0.823788 0
M  V30 2289 H 205.769 5.016 -0.491259 0
M  V30 2290 H 205.371 3.49678 -1.3267 0
M  V30 2291 H 207.663 6.66599 -1.21044 0
M  V30 2292 H 208.606 6.53403 -2.72892 0
M  V30 2293 H 209.014 5.4837 -1.33979 0
M  V30 2294 N 208.412 0.89855 1.29475 0
M  V30 2295 C 209.658 0.534065 1.96263 0
M  V30 2296 C 210.013 -0.909415 1.69551 0
M  V30 2297 O 209.306 -1.63596 0.997349 0
M  V30 2298 C 209.5 0.761398 3.49195 0
M  V30 2299 C 209.329 2.22542 3.90775 0
M  V30 2300 C 208.099 2.87264 4.15701 0
M  V30 2301 C 210.297 3.20051 4.02581 0
M  V30 2302 N 208.279 4.24121 4.4384 0
M  V30 2303 C 209.65 4.42023 4.34759 0
M  V30 2304 C 211.705 3.15657 3.85052 0
M  V30 2305 C 210.408 5.60161 4.51235 0
M  V30 2306 C 212.434 4.33078 4.02737 0
M  V30 2307 C 211.796 5.5382 4.35273 0
M  V30 2308 H 207.895 0.245013 0.742625 0
M  V30 2309 H 210.479 1.15912 1.56437 0
M  V30 2310 H 208.65 0.165732 3.88046 0
M  V30 2311 H 210.382 0.362462 4.03074 0
M  V30 2312 H 207.137 2.38064 4.09417 0
M  V30 2313 H 207.561 4.94839 4.6202 0
M  V30 2314 H 212.203 2.23396 3.58962 0
M  V30 2315 H 209.921 6.52913 4.76162 0
M  V30 2316 H 213.507 4.31163 3.90628 0
M  V30 2317 H 212.387 6.43166 4.48672 0
M  V30 2318 N 209.89 -1.43072 0.660911 0
M  V30 2319 C 211.12 -2.05769 0.185153 0
M  V30 2320 C 211.528 -1.49668 -1.15742 0
M  V30 2321 O 210.871 -0.625649 -1.72717 0
M  V30 2322 C 210.933 -3.59489 0.0278237 0
M  V30 2323 C 210.597 -4.38212 1.2969 0
M  V30 2324 C 211.594 -4.69772 2.22734 0
M  V30 2325 C 209.279 -4.7809 1.54063 0
M  V30 2326 C 211.273 -5.40129 3.38437 0
M  V30 2327 C 208.96 -5.4819 2.70058 0
M  V30 2328 C 209.958 -5.79132 3.62071 0
M  V30 2329 O 209.646 -6.47798 4.76039 0
M  V30 2330 H 209.378 -0.669873 0.0908086 0
M  V30 2331 H 211.932 -1.84436 0.90402 0
M  V30 2332 H 210.162 -3.79426 -0.746489 0
M  V30 2333 H 211.851 -4.03862 -0.406275 0
M  V30 2334 H 212.617 -4.39476 2.05149 0
M  V30 2335 H 208.496 -4.53408 0.833215 0
M  V30 2336 H 212.04 -5.64198 4.10277 0
M  V30 2337 H 207.937 -5.77902 2.87574 0
M  V30 2338 H 208.705 -6.66283 4.75404 0
M  V30 2339 N 211.368 -0.403325 -1.52352 0
M  V30 2340 C 212.596 0.174012 -2.06167 0
M  V30 2341 C 213.011 1.39347 -1.27388 0
M  V30 2342 O 212.368 1.79597 -0.324201 0
M  V30 2343 C 212.419 0.530223 -3.5759 0
M  V30 2344 O 212.14 -0.640806 -4.33388 0
M  V30 2345 C 213.641 1.16192 -4.27802 0
M  V30 2346 H 210.861 0.0229464 -0.670608 0
M  V30 2347 H 213.405 -0.572604 -1.9632 0
M  V30 2348 H 211.56 1.22673 -3.67464 0
M  V30 2349 H 211.974 -0.344851 -5.23365 0
M  V30 2350 H 213.448 1.36141 -5.34948 0
M  V30 2351 H 213.925 2.13335 -3.83907 0
M  V30 2352 H 214.531 0.505775 -4.22282 0
M  V30 2353 O 212.885 1.59156 -0.274172 0
M  V30 2354 H 213.576 1.91425 0.295987 0
M  V30 END ATOM
M  V30 BEGIN BOND
M  V30 END BOND
M  V30 END CTAB
M  END
$$$$
